25
Coordinates from ORCA-job 4-MeOPhN2+~TfO-_B3LYPG-6-31G_dp-CH-Scan-d09-49-n800
  C   -1.50106162527660     -0.34147341307640      0.67847301584947
  N   -2.81443605922516     -0.56878599527510      1.02990584347845
  N   -3.89052081862531     -0.67674639912521      1.33047653673683
  C   -1.16879048580974      1.03248088821763      0.63427499033484
  C   0.18565372771484      1.18284549807408      0.27992502335233
  C   1.05508532403290      0.11392615530633      0.01333872608267
  O   2.32767361029982      0.44280301004347     -0.31659249196059
  C   3.27379314723854     -0.58269920576118     -0.59493108703650
  C   0.61086895997121     -1.23888908951664      0.08788210112873
  C   -0.69784169830932     -1.48566435227165      0.42869564602430
  H   -4.79000095588325      3.81387516542538     -0.72745016926993
  H   0.62741687330256      2.17689607660668      0.19557483845712
  H   4.20800158372827     -0.07049592343089     -0.82743446686646
  H   2.97154544417764     -1.18880500019983     -1.45758188023884
  H   3.42816808996985     -1.23646744732072      0.27239699468384
  H   1.28122791370100     -2.06363938215659     -0.11830907527017
  H   -1.08476486745805     -2.49963145278686      0.49957354254716
  S   -6.15828575133615      2.59446684648518      0.38679265722692
  C   -5.32616142203896      2.51830716785549      2.05555637314947
  O   -7.57369144352009      2.79626204706016      0.61657534094238
  O   -5.61918834577390      1.50716067488274     -0.41842374157167
  O   -5.54993121438212      4.00478329825363     -0.15018338292311
  F   -5.64583030507028      3.59431230394371      2.76849397727910
  F   -5.75673286754542      1.42019595870000      2.67857507287422
  F   -4.00799681388221      2.45388257006658      1.89149561498934
