25
Coordinates from ORCA-job 4-MeOPhN2+~TfO-_B3LYPG-6-31G_dp-CH-Scan-d09-49-n800
  C   -1.51585464132787     -0.33929792404182      0.66358933455348
  N   -2.82439955374533     -0.57124196619907      1.02870265960032
  N   -3.89686305809408     -0.68396510282707      1.34002825702674
  C   -1.20168536621907      1.03634143740791      0.56426267703285
  C   0.15061952992634      1.19005156339919      0.20343779825781
  C   1.03435627572656      0.12305908132260     -0.02062762675014
  O   2.30284247586743      0.45553001374155     -0.36205842335005
  C   3.26322579661761     -0.56745644863258     -0.59779632311655
  C   0.60764866628855     -1.23141984131221      0.10624637450664
  C   -0.69763361283582     -1.48158298204475      0.45749844905555
  H   -4.63445306644333      3.78424660521567     -0.64190578501730
  H   0.57926624611103      2.18561582170086      0.07908126807869
  H   4.19195621684557     -0.05236788265902     -0.84537460240504
  H   2.97254913308071     -1.20929792135348     -1.43822623806575
  H   3.42170587713834     -1.18618503190619      0.29414090474819
  H   1.28830582186276     -2.05500698928098     -0.06853703378673
  H   -1.07121863029976     -2.49693149493402      0.56837108860188
  S   -6.11144040130827      2.60697848087509      0.37549857034905
  C   -5.36361931609173      2.48667054409553      2.08101046197451
  O   -7.52746106080901      2.86117128759056      0.53987416240280
  O   -5.57621267458025      1.50431716349620     -0.41064003936531
  O   -5.42772768376799      3.99691703612254     -0.11965037298954
  F   -5.68555995854712      3.56239772484885      2.79320364251692
  F   -5.85350044706234      1.39371961675820      2.66772301846705
  F   -4.04064656833286      2.38663720861644      1.97924777767385
