25
Coordinates from ORCA-job 4-MeOPhN2+~TfO-_B3LYPG-6-31G_dp-CH-Scan-d09-49-n800
  C   -1.98271859170170     -0.28884676522130      0.47255581586700
  N   -3.29488335365011     -0.66179637009061      0.65813358006523
  N   -4.31133349249578     -1.10243554219414      0.83605205047576
  C   -1.55559321362239      1.01448857212748      0.79917306966758
  C   -0.22125897465402      1.31741510159827      0.63095005492870
  C   0.68182614668945      0.35547078276080      0.12911488944294
  O   1.95084465956800      0.76932323560879     -0.00119844668277
  C   2.93787904398791     -0.12820944169300     -0.51618500871351
  C   0.23299893169637     -0.94194873398815     -0.19666740168462
  C   -1.10042401308158     -1.26788710536843     -0.01759553149147
  H   -2.27576353300837      1.73756281150502      1.15329880447117
  H   0.15728888212363      2.30463969542848      0.86897893935465
  H   3.86933223584539      0.43683507283136     -0.52672448034191
  H   2.69009899863081     -0.44386646327082     -1.53510851665675
  H   3.04907673287046     -1.00547228569841      0.13007464264630
  H   0.91353245692503     -1.68922118586644     -0.58291910601174
  H   -1.46585977247010     -2.25981235713256     -0.25891816715275
  S   -5.45672595627813      1.86197939971505      0.38847763526892
  C   -5.07515326840618      2.99068390110188      1.81560534149693
  O   -6.45004639694217      2.58979855778562     -0.40199153474721
  O   -5.92851437676616      0.61692558013733      1.06487628137444
  O   -4.11317551634914      1.68112095594352     -0.23673016910401
  F   -4.66790839152673      4.19227887010105      1.38506868190180
  F   -6.13215071559267      3.15546667147993      2.61510691901507
  F   -4.06716852179182      2.46440704239931      2.56367165661023
