25
Coordinates from ORCA-job 4-MeOPhN2+~TfO-_B3LYPG-6-31G_dp-CH-Scan-d09-49-n800
  C   -1.56663012668508     -0.34982240828853      0.66140511753149
  N   -2.86515490180275     -0.60372190024464      1.04449526893882
  N   -3.93205075057791     -0.73858095381591      1.36548940334383
  C   -1.29539014976673      1.02614367331960      0.47248160296472
  C   0.05012610628028      1.19813132065957      0.09573149594297
  C   0.96636827696554      0.14719829600644     -0.06584123751440
  O   2.22189544978973      0.49695051413729     -0.43525339113455
  C   3.21250763752927     -0.50851650234507     -0.61621160254613
  C   0.58291127862233     -1.20885030388612      0.14941656938852
  C   -0.71249567171462     -1.47623082726761      0.52354560777927
  H   -4.30142354520518      3.68284007258387     -0.48321251163255
  H   0.44688177497797      2.19645507405371     -0.09426712889738
  H   4.12296336068697      0.01904909844074     -0.90239215242341
  H   2.93621583403934     -1.20890955369802     -1.41342275312610
  H   3.39618867557679     -1.06602207810171      0.31053147519298
  H   1.28803862211402     -2.02071397694113      0.02370645121536
  H   -1.05298390431099     -2.49341960416576      0.70243450351047
  S   -5.97649906214707      2.62539797921593      0.34246884517754
  C   -5.38939245829732      2.42788645811509      2.10253347097292
  O   -7.37464234395094      2.99915516872771      0.38811264581526
  O   -5.47195374963076      1.48470421201179     -0.40827624850053
  O   -5.13890589534261      3.95588314777175     -0.06865200620456
  F   -5.73895253868811      3.49100422670700      2.82033981987403
  F   -5.95862035430102      1.33375996641055      2.61008405523575
  F   -4.06480156416105      2.28912890059346      2.11185269909560
