Coordinates from ORCA-job PhN2+~TfO-_B3LYPG-6-31G_dp-CH-Scan-d09-49-n800
 OpenBabel11261919123D

 21 20  0  0  0  0  0  0  0  0999 V2000
   -1.9953    0.7810    0.1383 C   0  0  0  0  0  0  0  0  0  0  0  0
   -3.3460    1.0741    0.2586 N   0  0  0  0  0  0  0  0  0  0  0  0
   -4.4246    1.3530    0.3452 N   0  0  0  0  0  0  0  0  0  0  0  0
   -1.1691    1.9117   -0.0024 C   0  0  0  0  0  0  0  0  0  0  0  0
    0.1875    1.5131   -0.1269 C   0  0  0  0  0  0  0  0  0  0  0  0
    0.6069    0.1857   -0.1098 C   0  0  0  0  0  0  0  0  0  0  0  0
   -0.3114   -0.8803    0.0372 C   0  0  0  0  0  0  0  0  0  0  0  0
   -1.6530   -0.5985    0.1662 C   0  0  0  0  0  0  0  0  0  0  0  0
   -1.9015    4.2290    0.0857 H   0  0  0  0  0  0  0  0  0  0  0  0
    0.9497    2.2825   -0.2430 H   0  0  0  0  0  0  0  0  0  0  0  0
    1.6644   -0.0502   -0.2119 H   0  0  0  0  0  0  0  0  0  0  0  0
    0.0363   -1.9080    0.0489 H   0  0  0  0  0  0  0  0  0  0  0  0
   -2.4018   -1.3766    0.2831 H   0  0  0  0  0  0  0  0  0  0  0  0
   -3.7494    5.2236    0.5788 S   0  0  0  0  0  0  0  0  0  0  0  0
   -4.6102    5.0032   -1.0581 C   0  0  0  0  0  0  0  0  0  0  0  0
   -4.0853    4.0430    1.3682 O   0  0  0  0  0  0  0  0  0  0  0  0
   -4.0245    6.5722    1.0317 O   0  0  0  0  0  0  0  0  0  0  0  0
   -2.2250    5.1670    0.0971 O   0  0  0  0  0  0  0  0  0  0  0  0
   -4.2696    3.8151   -1.5773 F   0  0  0  0  0  0  0  0  0  0  0  0
   -5.9280    5.0328   -0.8599 F   0  0  0  0  0  0  0  0  0  0  0  0
   -4.2629    5.9692   -1.9032 F   0  0  0  0  0  0  0  0  0  0  0  0
  1  8  1  0  0  0  0
  1  2  1  0  0  0  0
  2  3  1  0  0  0  0
  4  1  2  0  0  0  0
  5  6  2  0  0  0  0
  5  4  1  0  0  0  0
  6  7  1  0  0  0  0
  7 12  1  0  0  0  0
  7  8  2  0  0  0  0
  8 13  1  0  0  0  0
  9 18  1  0  0  0  0
 10  5  1  0  0  0  0
 11  6  1  0  0  0  0
 14 17  2  0  0  0  0
 14 16  2  0  0  0  0
 15 20  1  0  0  0  0
 15 14  1  0  0  0  0
 18 14  1  0  0  0  0
 19 15  1  0  0  0  0
 21 15  1  0  0  0  0
M  RAD  3   2   2   3   3   4   2
M  END
