Coordinates from ORCA-job PhN2+~TfO-_B3LYPG-6-31G_dp-CH-Scan-d09-49-n800
 OpenBabel11261919123D

 21 20  0  0  0  0  0  0  0  0999 V2000
   -1.7168    0.6155   -0.2049 C   0  0  0  0  0  0  0  0  0  0  0  0
   -2.9933    1.1707   -0.3001 N   0  0  0  0  0  0  0  0  0  0  0  0
   -3.9818    1.6816   -0.4239 N   0  0  0  0  0  0  0  0  0  0  0  0
   -0.7388    1.4687   -0.7345 C   0  0  0  0  0  0  0  0  0  0  0  0
    0.5362    0.8412   -0.6190 C   0  0  0  0  0  0  0  0  0  0  0  0
    0.7334   -0.4176   -0.0612 C   0  0  0  0  0  0  0  0  0  0  0  0
   -0.3449   -1.1874    0.4449 C   0  0  0  0  0  0  0  0  0  0  0  0
   -1.6213   -0.6756    0.3821 C   0  0  0  0  0  0  0  0  0  0  0  0
   -2.0877    5.9409    0.4738 H   0  0  0  0  0  0  0  0  0  0  0  0
    1.4166    1.3703   -0.9864 H   0  0  0  0  0  0  0  0  0  0  0  0
    1.7373   -0.8363   -0.0045 H   0  0  0  0  0  0  0  0  0  0  0  0
   -0.1653   -2.1672    0.8747 H   0  0  0  0  0  0  0  0  0  0  0  0
   -2.4876   -1.2169    0.7528 H   0  0  0  0  0  0  0  0  0  0  0  0
   -4.1735    5.5278    0.7569 S   0  0  0  0  0  0  0  0  0  0  0  0
   -4.7131    5.1020   -0.9778 C   0  0  0  0  0  0  0  0  0  0  0  0
   -3.6961    4.2985    1.3752 O   0  0  0  0  0  0  0  0  0  0  0  0
   -5.1961    6.3726    1.3362 O   0  0  0  0  0  0  0  0  0  0  0  0
   -2.8990    6.4743    0.4045 O   0  0  0  0  0  0  0  0  0  0  0  0
   -3.7171    4.4715   -1.6028 F   0  0  0  0  0  0  0  0  0  0  0  0
   -5.7728    4.2989   -0.9008 F   0  0  0  0  0  0  0  0  0  0  0  0
   -5.0311    6.2095   -1.6389 F   0  0  0  0  0  0  0  0  0  0  0  0
  1  8  2  0  0  0  0
  2  1  1  0  0  0  0
  3  2  1  0  0  0  0
  4  5  2  0  0  0  0
  4  1  1  0  0  0  0
  5  6  1  0  0  0  0
  6 11  1  0  0  0  0
  6  7  2  0  0  0  0
  7 12  1  0  0  0  0
  8  7  1  0  0  0  0
  8 13  1  0  0  0  0
 10  5  1  0  0  0  0
 14 17  2  0  0  0  0
 14 16  2  0  0  0  0
 15 20  1  0  0  0  0
 15 14  1  0  0  0  0
 18  9  1  0  0  0  0
 18 14  1  0  0  0  0
 19 15  1  0  0  0  0
 21 15  1  0  0  0  0
M  RAD  3   2   2   3   3   4   2
M  END
