Coordinates from ORCA-job PhN2+~TfO-_B3LYPG-6-31G_dp-CH-Scan-d09-49-n800
 OpenBabel11261919123D

 21 20  0  0  0  0  0  0  0  0999 V2000
   -1.8082    0.6572   -0.1408 C   0  0  0  0  0  0  0  0  0  0  0  0
   -3.1115    1.1476   -0.2142 N   0  0  0  0  0  0  0  0  0  0  0  0
   -4.1252    1.6114   -0.3140 N   0  0  0  0  0  0  0  0  0  0  0  0
   -0.8650    1.6132   -0.5452 C   0  0  0  0  0  0  0  0  0  0  0  0
    0.4388    1.0429   -0.4608 C   0  0  0  0  0  0  0  0  0  0  0  0
    0.6918   -0.2564   -0.0333 C   0  0  0  0  0  0  0  0  0  0  0  0
   -0.3541   -1.1311    0.3557 C   0  0  0  0  0  0  0  0  0  0  0  0
   -1.6549   -0.6829    0.3077 C   0  0  0  0  0  0  0  0  0  0  0  0
   -1.9356    5.6086    0.2867 H   0  0  0  0  0  0  0  0  0  0  0  0
    1.2975    1.6531   -0.7440 H   0  0  0  0  0  0  0  0  0  0  0  0
    1.7156   -0.6252    0.0097 H   0  0  0  0  0  0  0  0  0  0  0  0
   -0.1312   -2.1400    0.6869 H   0  0  0  0  0  0  0  0  0  0  0  0
   -2.4988   -1.3056    0.5921 H   0  0  0  0  0  0  0  0  0  0  0  0
   -4.0344    5.4516    0.7157 S   0  0  0  0  0  0  0  0  0  0  0  0
   -4.6953    5.0405   -0.9796 C   0  0  0  0  0  0  0  0  0  0  0  0
   -3.6816    4.1910    1.3534 O   0  0  0  0  0  0  0  0  0  0  0  0
   -4.9262    6.4268    1.3068 O   0  0  0  0  0  0  0  0  0  0  0  0
   -2.6792    6.2372    0.2860 O   0  0  0  0  0  0  0  0  0  0  0  0
   -3.7925    4.3080   -1.6356 F   0  0  0  0  0  0  0  0  0  0  0  0
   -5.8174    4.3381   -0.8320 F   0  0  0  0  0  0  0  0  0  0  0  0
   -4.9455    6.1568   -1.6548 F   0  0  0  0  0  0  0  0  0  0  0  0
  1  8  2  0  0  0  0
  2  1  1  0  0  0  0
  3  2  1  0  0  0  0
  4  5  2  0  0  0  0
  4  1  1  0  0  0  0
  5  6  1  0  0  0  0
  6 11  1  0  0  0  0
  6  7  2  0  0  0  0
  7 12  1  0  0  0  0
  8  7  1  0  0  0  0
  8 13  1  0  0  0  0
 10  5  1  0  0  0  0
 14 17  2  0  0  0  0
 14 16  2  0  0  0  0
 15 20  1  0  0  0  0
 15 14  1  0  0  0  0
 18  9  1  0  0  0  0
 18 14  1  0  0  0  0
 19 15  1  0  0  0  0
 21 15  1  0  0  0  0
M  RAD  3   2   2   3   3   4   2
M  END
