Coordinates from ORCA-job PhN2+~TfO-_B3LYPG-6-31G_dp-CH-Scan-d09-49-n800
 OpenBabel11261919123D

 21 20  0  0  0  0  0  0  0  0999 V2000
   -1.8041    0.6442    0.0428 C   0  0  0  0  0  0  0  0  0  0  0  0
   -3.1260    1.0772    0.0882 N   0  0  0  0  0  0  0  0  0  0  0  0
   -4.1680    1.4848    0.1043 N   0  0  0  0  0  0  0  0  0  0  0  0
   -0.8949    1.6975   -0.1494 C   0  0  0  0  0  0  0  0  0  0  0  0
    0.4279    1.1713   -0.1967 C   0  0  0  0  0  0  0  0  0  0  0  0
    0.7317   -0.1799   -0.0643 C   0  0  0  0  0  0  0  0  0  0  0  0
   -0.2779   -1.1554    0.1290 C   0  0  0  0  0  0  0  0  0  0  0  0
   -1.5936   -0.7552    0.1865 C   0  0  0  0  0  0  0  0  0  0  0  0
   -1.9435    5.1012    0.1409 H   0  0  0  0  0  0  0  0  0  0  0  0
    1.2606    1.8601   -0.3435 H   0  0  0  0  0  0  0  0  0  0  0  0
    1.7681   -0.5109   -0.1080 H   0  0  0  0  0  0  0  0  0  0  0  0
   -0.0166   -2.2037    0.2314 H   0  0  0  0  0  0  0  0  0  0  0  0
   -2.4112   -1.4563    0.3323 H   0  0  0  0  0  0  0  0  0  0  0  0
   -3.9993    5.5045    0.6148 S   0  0  0  0  0  0  0  0  0  0  0  0
   -4.8041    5.1242   -1.0240 C   0  0  0  0  0  0  0  0  0  0  0  0
   -3.9514    4.2547    1.3613 O   0  0  0  0  0  0  0  0  0  0  0  0
   -4.6059    6.7164    1.1239 O   0  0  0  0  0  0  0  0  0  0  0  0
   -2.5137    5.8904    0.0971 O   0  0  0  0  0  0  0  0  0  0  0  0
   -4.1843    4.0823   -1.5869 F   0  0  0  0  0  0  0  0  0  0  0  0
   -6.0809    4.8166   -0.8047 F   0  0  0  0  0  0  0  0  0  0  0  0
   -4.7258    6.1788   -1.8286 F   0  0  0  0  0  0  0  0  0  0  0  0
  1  2  1  0  0  0  0
  1  8  2  0  0  0  0
  2  3  1  0  0  0  0
  4  1  1  0  0  0  0
  5  4  2  0  0  0  0
  5  6  1  0  0  0  0
  6  7  2  0  0  0  0
  7  8  1  0  0  0  0
  7 12  1  0  0  0  0
  8 13  1  0  0  0  0
 10  5  1  0  0  0  0
 11  6  1  0  0  0  0
 14 17  2  0  0  0  0
 14 16  2  0  0  0  0
 15 20  1  0  0  0  0
 15 14  1  0  0  0  0
 18  9  1  0  0  0  0
 18 14  1  0  0  0  0
 19 15  1  0  0  0  0
 21 15  1  0  0  0  0
M  RAD  3   2   2   3   3   4   2
M  END
