Coordinates from ORCA-job PhN2+~TfO-_B3LYPG-6-31G_dp-CH-Scan-d09-49-n800
 OpenBabel11261919123D

 21 20  0  0  0  0  0  0  0  0999 V2000
   -2.0975    0.8960    0.0548 C   0  0  0  0  0  0  0  0  0  0  0  0
   -3.4643    1.1193    0.0631 N   0  0  0  0  0  0  0  0  0  0  0  0
   -4.5576    1.3380    0.0642 N   0  0  0  0  0  0  0  0  0  0  0  0
   -1.2862    2.0377   -0.0848 C   0  0  0  0  0  0  0  0  0  0  0  0
    0.0856    1.7142   -0.0920 C   0  0  0  0  0  0  0  0  0  0  0  0
    0.5568    0.4077    0.0272 C   0  0  0  0  0  0  0  0  0  0  0  0
   -0.3267   -0.6831    0.1633 C   0  0  0  0  0  0  0  0  0  0  0  0
   -1.6870   -0.4552    0.1784 C   0  0  0  0  0  0  0  0  0  0  0  0
   -1.8207    3.5234   -0.1618 H   0  0  0  0  0  0  0  0  0  0  0  0
    0.8085    2.5206   -0.1923 H   0  0  0  0  0  0  0  0  0  0  0  0
    1.6272    0.2165    0.0164 H   0  0  0  0  0  0  0  0  0  0  0  0
    0.0567   -1.6935    0.2567 H   0  0  0  0  0  0  0  0  0  0  0  0
   -2.4073   -1.2603    0.2818 H   0  0  0  0  0  0  0  0  0  0  0  0
   -3.4737    4.9322    0.5020 S   0  0  0  0  0  0  0  0  0  0  0  0
   -4.6289    5.0160   -0.9515 C   0  0  0  0  0  0  0  0  0  0  0  0
   -3.9361    3.7704    1.2759 O   0  0  0  0  0  0  0  0  0  0  0  0
   -3.4719    6.2585    1.1003 O   0  0  0  0  0  0  0  0  0  0  0  0
   -2.1374    4.6221   -0.2238 O   0  0  0  0  0  0  0  0  0  0  0  0
   -4.6408    3.8234   -1.5812 F   0  0  0  0  0  0  0  0  0  0  0  0
   -5.8674    5.2866   -0.5322 F   0  0  0  0  0  0  0  0  0  0  0  0
   -4.2440    5.9524   -1.8182 F   0  0  0  0  0  0  0  0  0  0  0  0
  1  2  1  0  0  0  0
  1  8  2  0  0  0  0
  2  3  1  0  0  0  0
  4  1  1  0  0  0  0
  5  4  2  0  0  0  0
  5  6  1  0  0  0  0
  6  7  2  0  0  0  0
  7  8  1  0  0  0  0
  7 12  1  0  0  0  0
  8 13  1  0  0  0  0
 10  5  1  0  0  0  0
 11  6  1  0  0  0  0
 14 17  2  0  0  0  0
 14 16  2  0  0  0  0
 15 20  1  0  0  0  0
 15 14  1  0  0  0  0
 18  9  1  0  0  0  0
 18 14  1  0  0  0  0
 19 15  1  0  0  0  0
 21 15  1  0  0  0  0
M  RAD  3   2   2   3   3   4   2
M  END
