Coordinates from ORCA-job PhN2+~TfO-_B3LYPG-6-31G_dp-CH-Scan-d09-49-n800
 OpenBabel11261919123D

 21 20  0  0  0  0  0  0  0  0999 V2000
   -1.8288    0.6710   -0.1163 C   0  0  0  0  0  0  0  0  0  0  0  0
   -3.1380    1.1451   -0.1803 N   0  0  0  0  0  0  0  0  0  0  0  0
   -4.1588    1.5954   -0.2685 N   0  0  0  0  0  0  0  0  0  0  0  0
   -0.8933    1.6558   -0.4677 C   0  0  0  0  0  0  0  0  0  0  0  0
    0.4166    1.0985   -0.3949 C   0  0  0  0  0  0  0  0  0  0  0  0
    0.6824   -0.2150   -0.0220 C   0  0  0  0  0  0  0  0  0  0  0  0
   -0.3557   -1.1192    0.3165 C   0  0  0  0  0  0  0  0  0  0  0  0
   -1.6616   -0.6857    0.2739 C   0  0  0  0  0  0  0  0  0  0  0  0
   -1.9011    5.4973    0.2100 H   0  0  0  0  0  0  0  0  0  0  0  0
    1.2701    1.7314   -0.6418 H   0  0  0  0  0  0  0  0  0  0  0  0
    1.7106   -0.5720    0.0162 H   0  0  0  0  0  0  0  0  0  0  0  0
   -0.1231   -2.1387    0.6060 H   0  0  0  0  0  0  0  0  0  0  0  0
   -2.5001   -1.3312    0.5211 H   0  0  0  0  0  0  0  0  0  0  0  0
   -3.9924    5.4374    0.6989 S   0  0  0  0  0  0  0  0  0  0  0  0
   -4.7016    5.0255   -0.9766 C   0  0  0  0  0  0  0  0  0  0  0  0
   -3.6830    4.1730    1.3512 O   0  0  0  0  0  0  0  0  0  0  0  0
   -4.8314    6.4588    1.2890 O   0  0  0  0  0  0  0  0  0  0  0  0
   -2.6153    6.1590    0.2320 O   0  0  0  0  0  0  0  0  0  0  0  0
   -3.8311    4.2657   -1.6460 F   0  0  0  0  0  0  0  0  0  0  0  0
   -5.8357    4.3502   -0.7965 F   0  0  0  0  0  0  0  0  0  0  0  0
   -4.9417    6.1402   -1.6580 F   0  0  0  0  0  0  0  0  0  0  0  0
  1  8  2  0  0  0  0
  2  1  1  0  0  0  0
  3  2  1  0  0  0  0
  4  5  2  0  0  0  0
  4  1  1  0  0  0  0
  5  6  1  0  0  0  0
  6 11  1  0  0  0  0
  6  7  2  0  0  0  0
  7 12  1  0  0  0  0
  8  7  1  0  0  0  0
  8 13  1  0  0  0  0
  9 18  1  0  0  0  0
 10  5  1  0  0  0  0
 14 17  2  0  0  0  0
 14 16  2  0  0  0  0
 15 20  1  0  0  0  0
 15 14  1  0  0  0  0
 18 14  1  0  0  0  0
 19 15  1  0  0  0  0
 21 15  1  0  0  0  0
M  RAD  3   2   2   3   3   4   2
M  END
