Coordinates from ORCA-job PhN2+~TfO-_B3LYPG-6-31G_dp-CH-Scan-d09-49-n800
 OpenBabel11261919123D

 21 20  0  0  0  0  0  0  0  0999 V2000
   -1.8322    0.6736   -0.1127 C   0  0  0  0  0  0  0  0  0  0  0  0
   -3.1423    1.1452   -0.1753 N   0  0  0  0  0  0  0  0  0  0  0  0
   -4.1641    1.5934   -0.2619 N   0  0  0  0  0  0  0  0  0  0  0  0
   -0.8979    1.6625   -0.4562 C   0  0  0  0  0  0  0  0  0  0  0  0
    0.4128    1.1072   -0.3850 C   0  0  0  0  0  0  0  0  0  0  0  0
    0.6807   -0.2082   -0.0201 C   0  0  0  0  0  0  0  0  0  0  0  0
   -0.3562   -1.1166    0.3108 C   0  0  0  0  0  0  0  0  0  0  0  0
   -1.6628   -0.6853    0.2688 C   0  0  0  0  0  0  0  0  0  0  0  0
   -1.8959    5.4791    0.1983 H   0  0  0  0  0  0  0  0  0  0  0  0
    1.2656    1.7433   -0.6264 H   0  0  0  0  0  0  0  0  0  0  0  0
    1.7095   -0.5634    0.0175 H   0  0  0  0  0  0  0  0  0  0  0  0
   -0.1221   -2.1375    0.5940 H   0  0  0  0  0  0  0  0  0  0  0  0
   -2.5004   -1.3341    0.5105 H   0  0  0  0  0  0  0  0  0  0  0  0
   -3.9855    5.4344    0.6963 S   0  0  0  0  0  0  0  0  0  0  0  0
   -4.7022    5.0229   -0.9761 C   0  0  0  0  0  0  0  0  0  0  0  0
   -3.6828    4.1694    1.3508 O   0  0  0  0  0  0  0  0  0  0  0  0
   -4.8161    6.4626    1.2863 O   0  0  0  0  0  0  0  0  0  0  0  0
   -2.6053    6.1459    0.2238 O   0  0  0  0  0  0  0  0  0  0  0  0
   -3.8366    4.2595   -1.6480 F   0  0  0  0  0  0  0  0  0  0  0  0
   -5.8378    4.3513   -0.7912 F   0  0  0  0  0  0  0  0  0  0  0  0
   -4.9412    6.1375   -1.6579 F   0  0  0  0  0  0  0  0  0  0  0  0
  1  8  2  0  0  0  0
  2  1  1  0  0  0  0
  3  2  1  0  0  0  0
  4  5  2  0  0  0  0
  4  1  1  0  0  0  0
  5  6  1  0  0  0  0
  6 11  1  0  0  0  0
  6  7  2  0  0  0  0
  7 12  1  0  0  0  0
  8  7  1  0  0  0  0
  8 13  1  0  0  0  0
  9 18  1  0  0  0  0
 10  5  1  0  0  0  0
 14 17  2  0  0  0  0
 14 16  2  0  0  0  0
 15 20  1  0  0  0  0
 15 14  1  0  0  0  0
 18 14  1  0  0  0  0
 19 15  1  0  0  0  0
 21 15  1  0  0  0  0
M  RAD  3   2   2   3   3   4   2
M  END
