Coordinates from ORCA-job PhN2+~TfO-_B3LYPG-6-31G_dp-CH-Scan-d09-49-n800
 OpenBabel11261919123D

 21 20  0  0  0  0  0  0  0  0999 V2000
   -2.0911    0.9105    0.0362 C   0  0  0  0  0  0  0  0  0  0  0  0
   -3.4556    1.1442    0.0172 N   0  0  0  0  0  0  0  0  0  0  0  0
   -4.5453    1.3767    0.0027 N   0  0  0  0  0  0  0  0  0  0  0  0
   -1.2608    2.0376   -0.0989 C   0  0  0  0  0  0  0  0  0  0  0  0
    0.1072    1.7171   -0.0782 C   0  0  0  0  0  0  0  0  0  0  0  0
    0.5671    0.4080    0.0630 C   0  0  0  0  0  0  0  0  0  0  0  0
   -0.3262   -0.6738    0.1926 C   0  0  0  0  0  0  0  0  0  0  0  0
   -1.6864   -0.4387    0.1794 C   0  0  0  0  0  0  0  0  0  0  0  0
   -1.7763    3.4162   -0.2062 H   0  0  0  0  0  0  0  0  0  0  0  0
    0.8311    2.5223   -0.1730 H   0  0  0  0  0  0  0  0  0  0  0  0
    1.6360    0.2103    0.0748 H   0  0  0  0  0  0  0  0  0  0  0  0
    0.0484   -1.6857    0.3035 H   0  0  0  0  0  0  0  0  0  0  0  0
   -2.4122   -1.2393    0.2771 H   0  0  0  0  0  0  0  0  0  0  0  0
   -3.4501    4.9038    0.4689 S   0  0  0  0  0  0  0  0  0  0  0  0
   -4.6704    5.0383   -0.9255 C   0  0  0  0  0  0  0  0  0  0  0  0
   -3.9090    3.7315    1.2381 O   0  0  0  0  0  0  0  0  0  0  0  0
   -3.4234    6.2126    1.1090 O   0  0  0  0  0  0  0  0  0  0  0  0
   -2.1636    4.5860   -0.3113 O   0  0  0  0  0  0  0  0  0  0  0  0
   -4.7367    3.8584   -1.5801 F   0  0  0  0  0  0  0  0  0  0  0  0
   -5.8857    5.3228   -0.4485 F   0  0  0  0  0  0  0  0  0  0  0  0
   -4.3098    5.9839   -1.7942 F   0  0  0  0  0  0  0  0  0  0  0  0
  1  8  2  0  0  0  0
  2  1  1  0  0  0  0
  3  2  1  0  0  0  0
  4  5  2  0  0  0  0
  4  1  1  0  0  0  0
  5  6  1  0  0  0  0
  6 11  1  0  0  0  0
  6  7  2  0  0  0  0
  7 12  1  0  0  0  0
  8  7  1  0  0  0  0
  8 13  1  0  0  0  0
 10  5  1  0  0  0  0
 14 17  2  0  0  0  0
 14 16  2  0  0  0  0
 15 20  1  0  0  0  0
 15 14  1  0  0  0  0
 18  9  1  0  0  0  0
 18 14  1  0  0  0  0
 19 15  1  0  0  0  0
 21 15  1  0  0  0  0
M  RAD  3   2   2   3   3   4   2
M  END
