Coordinates from ORCA-job PhN2+~TfO-_B3LYPG-6-31G_dp-CH-Scan-d09-49-n800
 OpenBabel11261919123D

 21 20  0  0  0  0  0  0  0  0999 V2000
   -1.8451    0.6730    0.0615 C   0  0  0  0  0  0  0  0  0  0  0  0
   -3.1755    1.0742    0.1170 N   0  0  0  0  0  0  0  0  0  0  0  0
   -4.2280    1.4525    0.1434 N   0  0  0  0  0  0  0  0  0  0  0  0
   -0.9538    1.7460   -0.1086 C   0  0  0  0  0  0  0  0  0  0  0  0
    0.3786    1.2482   -0.1659 C   0  0  0  0  0  0  0  0  0  0  0  0
    0.7087   -0.0995   -0.0628 C   0  0  0  0  0  0  0  0  0  0  0  0
   -0.2817   -1.0978    0.1089 C   0  0  0  0  0  0  0  0  0  0  0  0
   -1.6050   -0.7246    0.1748 C   0  0  0  0  0  0  0  0  0  0  0  0
   -1.9228    4.8915    0.1006 H   0  0  0  0  0  0  0  0  0  0  0  0
    1.1969    1.9567   -0.2971 H   0  0  0  0  0  0  0  0  0  0  0  0
    1.7513   -0.4090   -0.1136 H   0  0  0  0  0  0  0  0  0  0  0  0
   -0.0005   -2.1428    0.1884 H   0  0  0  0  0  0  0  0  0  0  0  0
   -2.4083   -1.4446    0.3055 H   0  0  0  0  0  0  0  0  0  0  0  0
   -3.9373    5.4443    0.6031 S   0  0  0  0  0  0  0  0  0  0  0  0
   -4.7791    5.1055   -1.0259 C   0  0  0  0  0  0  0  0  0  0  0  0
   -3.9759    4.2000    1.3598 O   0  0  0  0  0  0  0  0  0  0  0  0
   -4.4562    6.6990    1.1060 O   0  0  0  0  0  0  0  0  0  0  0  0
   -2.4350    5.7218    0.0731 O   0  0  0  0  0  0  0  0  0  0  0  0
   -4.2251    4.0273   -1.5907 F   0  0  0  0  0  0  0  0  0  0  0  0
   -6.0695    4.8711   -0.7943 F   0  0  0  0  0  0  0  0  0  0  0  0
   -4.6493    6.1499   -1.8370 F   0  0  0  0  0  0  0  0  0  0  0  0
  1  2  1  0  0  0  0
  1  8  2  0  0  0  0
  2  3  1  0  0  0  0
  4  1  1  0  0  0  0
  5  4  2  0  0  0  0
  5  6  1  0  0  0  0
  6  7  2  0  0  0  0
  7  8  1  0  0  0  0
  7 12  1  0  0  0  0
  8 13  1  0  0  0  0
 10  5  1  0  0  0  0
 11  6  1  0  0  0  0
 14 17  2  0  0  0  0
 14 16  2  0  0  0  0
 15 20  1  0  0  0  0
 15 14  1  0  0  0  0
 18  9  1  0  0  0  0
 18 14  1  0  0  0  0
 19 15  1  0  0  0  0
 21 15  1  0  0  0  0
M  RAD  3   2   2   3   3   4   2
M  END
