Coordinates from ORCA-job PhN2+~TfO-_B3LYPG-6-31G_dp-CH-Scan-d09-49-n800
 OpenBabel11261919123D

 21 20  0  0  0  0  0  0  0  0999 V2000
   -1.8180    0.6634   -0.1290 C   0  0  0  0  0  0  0  0  0  0  0  0
   -3.1241    1.1461   -0.1980 N   0  0  0  0  0  0  0  0  0  0  0  0
   -4.1412    1.6035   -0.2924 N   0  0  0  0  0  0  0  0  0  0  0  0
   -0.8784    1.6337   -0.5083 C   0  0  0  0  0  0  0  0  0  0  0  0
    0.4283    1.0695   -0.4296 C   0  0  0  0  0  0  0  0  0  0  0  0
    0.6874   -0.2369   -0.0280 C   0  0  0  0  0  0  0  0  0  0  0  0
   -0.3548   -1.1260    0.3371 C   0  0  0  0  0  0  0  0  0  0  0  0
   -1.6580   -0.6848    0.2918 C   0  0  0  0  0  0  0  0  0  0  0  0
   -1.9187    5.5568    0.2503 H   0  0  0  0  0  0  0  0  0  0  0  0
    1.2846    1.6908   -0.6957 H   0  0  0  0  0  0  0  0  0  0  0  0
    1.7134   -0.5999    0.0125 H   0  0  0  0  0  0  0  0  0  0  0  0
   -0.1272   -2.1401    0.6486 H   0  0  0  0  0  0  0  0  0  0  0  0
   -2.4994   -1.3187    0.5587 H   0  0  0  0  0  0  0  0  0  0  0  0
   -4.0147    5.4452    0.7078 S   0  0  0  0  0  0  0  0  0  0  0  0
   -4.6984    5.0335   -0.9783 C   0  0  0  0  0  0  0  0  0  0  0  0
   -3.6823    4.1825    1.3521 O   0  0  0  0  0  0  0  0  0  0  0  0
   -4.8819    6.4423    1.2987 O   0  0  0  0  0  0  0  0  0  0  0  0
   -2.6488    6.2010    0.2607 O   0  0  0  0  0  0  0  0  0  0  0  0
   -3.8109    4.2874   -1.6404 F   0  0  0  0  0  0  0  0  0  0  0  0
   -5.8267    4.3444   -0.8154 F   0  0  0  0  0  0  0  0  0  0  0  0
   -4.9431    6.1490   -1.6568 F   0  0  0  0  0  0  0  0  0  0  0  0
  1  8  2  0  0  0  0
  2  1  1  0  0  0  0
  3  2  1  0  0  0  0
  4  5  2  0  0  0  0
  4  1  1  0  0  0  0
  5  6  1  0  0  0  0
  6 11  1  0  0  0  0
  6  7  2  0  0  0  0
  7 12  1  0  0  0  0
  8  7  1  0  0  0  0
  8 13  1  0  0  0  0
  9 18  1  0  0  0  0
 10  5  1  0  0  0  0
 14 17  2  0  0  0  0
 14 16  2  0  0  0  0
 15 20  1  0  0  0  0
 15 14  1  0  0  0  0
 18 14  1  0  0  0  0
 19 15  1  0  0  0  0
 21 15  1  0  0  0  0
M  RAD  3   2   2   3   3   4   2
M  END
