Coordinates from ORCA-job PhN2+~TfO-_B3LYPG-6-31G_dp-CH-Scan-d09-49-n800
 OpenBabel11261919123D

 21 20  0  0  0  0  0  0  0  0999 V2000
   -2.0697    0.8448    0.0926 C   0  0  0  0  0  0  0  0  0  0  0  0
   -3.4338    1.0819    0.1539 N   0  0  0  0  0  0  0  0  0  0  0  0
   -4.5246    1.3154    0.1943 N   0  0  0  0  0  0  0  0  0  0  0  0
   -1.2698    1.9950   -0.0508 C   0  0  0  0  0  0  0  0  0  0  0  0
    0.1017    1.6499   -0.1110 C   0  0  0  0  0  0  0  0  0  0  0  0
    0.5679    0.3395   -0.0358 C   0  0  0  0  0  0  0  0  0  0  0  0
   -0.3169   -0.7522    0.1079 C   0  0  0  0  0  0  0  0  0  0  0  0
   -1.6726   -0.5160    0.1751 C   0  0  0  0  0  0  0  0  0  0  0  0
   -1.8767    3.8020   -0.0629 H   0  0  0  0  0  0  0  0  0  0  0  0
    0.8346    2.4473   -0.2202 H   0  0  0  0  0  0  0  0  0  0  0  0
    1.6364    0.1415   -0.0881 H   0  0  0  0  0  0  0  0  0  0  0  0
    0.0647   -1.7661    0.1660 H   0  0  0  0  0  0  0  0  0  0  0  0
   -2.3962   -1.3178    0.2863 H   0  0  0  0  0  0  0  0  0  0  0  0
   -3.5741    5.0414    0.5459 S   0  0  0  0  0  0  0  0  0  0  0  0
   -4.6035    5.0066   -1.0031 C   0  0  0  0  0  0  0  0  0  0  0  0
   -4.0076    3.8806    1.3247 O   0  0  0  0  0  0  0  0  0  0  0  0
   -3.6592    6.3902    1.0752 O   0  0  0  0  0  0  0  0  0  0  0  0
   -2.1408    4.8043   -0.0710 O   0  0  0  0  0  0  0  0  0  0  0  0
   -4.4784    3.8041   -1.5915 F   0  0  0  0  0  0  0  0  0  0  0  0
   -5.8846    5.2003   -0.6856 F   0  0  0  0  0  0  0  0  0  0  0  0
   -4.2098    5.9501   -1.8553 F   0  0  0  0  0  0  0  0  0  0  0  0
  1  2  1  0  0  0  0
  1  8  2  0  0  0  0
  2  3  1  0  0  0  0
  4  1  1  0  0  0  0
  5  4  2  0  0  0  0
  5  6  1  0  0  0  0
  6  7  2  0  0  0  0
  7 12  1  0  0  0  0
  7  8  1  0  0  0  0
  8 13  1  0  0  0  0
 10  5  1  0  0  0  0
 11  6  1  0  0  0  0
 14 17  2  0  0  0  0
 14 16  2  0  0  0  0
 15 20  1  0  0  0  0
 15 14  1  0  0  0  0
 18  9  1  0  0  0  0
 18 14  1  0  0  0  0
 19 15  1  0  0  0  0
 21 15  1  0  0  0  0
M  RAD  3   2   2   3   3   4   2
M  END
