Coordinates from ORCA-job PhN2+~TfO-_B3LYPG-6-31G_dp-CH-Scan-d09-49-n800
 OpenBabel11261919123D

 21 20  0  0  0  0  0  0  0  0999 V2000
   -1.7900    0.6349    0.0303 C   0  0  0  0  0  0  0  0  0  0  0  0
   -3.1086    1.0795    0.0686 N   0  0  0  0  0  0  0  0  0  0  0  0
   -4.1467    1.4973    0.0778 N   0  0  0  0  0  0  0  0  0  0  0  0
   -0.8739    1.6795   -0.1744 C   0  0  0  0  0  0  0  0  0  0  0  0
    0.4452    1.1427   -0.2131 C   0  0  0  0  0  0  0  0  0  0  0  0
    0.7391   -0.2087   -0.0621 C   0  0  0  0  0  0  0  0  0  0  0  0
   -0.2778   -1.1744    0.1427 C   0  0  0  0  0  0  0  0  0  0  0  0
   -1.5906   -0.7641    0.1929 C   0  0  0  0  0  0  0  0  0  0  0  0
   -1.9513    5.1812    0.1549 H   0  0  0  0  0  0  0  0  0  0  0  0
    1.2833    1.8233   -0.3680 H   0  0  0  0  0  0  0  0  0  0  0  0
    1.7732   -0.5477   -0.0997 H   0  0  0  0  0  0  0  0  0  0  0  0
   -0.0240   -2.2231    0.2597 H   0  0  0  0  0  0  0  0  0  0  0  0
   -2.4135   -1.4572    0.3468 H   0  0  0  0  0  0  0  0  0  0  0  0
   -4.0198    5.5226    0.6210 S   0  0  0  0  0  0  0  0  0  0  0  0
   -4.8121    5.1307   -1.0211 C   0  0  0  0  0  0  0  0  0  0  0  0
   -3.9356    4.2704    1.3600 O   0  0  0  0  0  0  0  0  0  0  0  0
   -4.6601    6.7141    1.1370 O   0  0  0  0  0  0  0  0  0  0  0  0
   -2.5442    5.9527    0.1065 O   0  0  0  0  0  0  0  0  0  0  0  0
   -4.1665    4.1068   -1.5875 F   0  0  0  0  0  0  0  0  0  0  0  0
   -6.0815    4.7917   -0.8056 F   0  0  0  0  0  0  0  0  0  0  0  0
   -4.7573    6.1909   -1.8203 F   0  0  0  0  0  0  0  0  0  0  0  0
  1  2  1  0  0  0  0
  1  8  2  0  0  0  0
  2  3  1  0  0  0  0
  4  1  1  0  0  0  0
  5  4  2  0  0  0  0
  5  6  1  0  0  0  0
  6  7  2  0  0  0  0
  7  8  1  0  0  0  0
  7 12  1  0  0  0  0
  8 13  1  0  0  0  0
 10  5  1  0  0  0  0
 11  6  1  0  0  0  0
 14 17  2  0  0  0  0
 14 16  2  0  0  0  0
 15 20  1  0  0  0  0
 15 14  1  0  0  0  0
 18  9  1  0  0  0  0
 18 14  1  0  0  0  0
 19 15  1  0  0  0  0
 21 15  1  0  0  0  0
M  RAD  3   2   2   3   3   4   2
M  END
