Coordinates from ORCA-job PhN2+~TfO-_B3LYPG-6-31G_dp-CH-Scan-d09-49-n800
 OpenBabel11261919123D

 21 20  0  0  0  0  0  0  0  0999 V2000
   -1.8241    0.6577    0.0540 C   0  0  0  0  0  0  0  0  0  0  0  0
   -3.1505    1.0746    0.1049 N   0  0  0  0  0  0  0  0  0  0  0  0
   -4.1977    1.4678    0.1275 N   0  0  0  0  0  0  0  0  0  0  0  0
   -0.9241    1.7216   -0.1249 C   0  0  0  0  0  0  0  0  0  0  0  0
    0.4036    1.2098   -0.1786 C   0  0  0  0  0  0  0  0  0  0  0  0
    0.7209   -0.1400   -0.0637 C   0  0  0  0  0  0  0  0  0  0  0  0
   -0.2789   -1.1275    0.1169 C   0  0  0  0  0  0  0  0  0  0  0  0
   -1.5986   -0.7412    0.1797 C   0  0  0  0  0  0  0  0  0  0  0  0
   -1.9332    4.9941    0.1188 H   0  0  0  0  0  0  0  0  0  0  0  0
    1.2291    1.9090   -0.3163 H   0  0  0  0  0  0  0  0  0  0  0  0
    1.7605   -0.4599   -0.1119 H   0  0  0  0  0  0  0  0  0  0  0  0
   -0.0075   -2.1744    0.2056 H   0  0  0  0  0  0  0  0  0  0  0  0
   -2.4089   -1.4522    0.3166 H   0  0  0  0  0  0  0  0  0  0  0  0
   -3.9687    5.4759    0.6080 S   0  0  0  0  0  0  0  0  0  0  0  0
   -4.7932    5.1161   -1.0254 C   0  0  0  0  0  0  0  0  0  0  0  0
   -3.9656    4.2284    1.3603 O   0  0  0  0  0  0  0  0  0  0  0  0
   -4.5296    6.7111    1.1136 O   0  0  0  0  0  0  0  0  0  0  0  0
   -2.4733    5.8052    0.0834 O   0  0  0  0  0  0  0  0  0  0  0  0
   -4.2079    4.0542   -1.5886 F   0  0  0  0  0  0  0  0  0  0  0  0
   -6.0778    4.8472   -0.7996 F   0  0  0  0  0  0  0  0  0  0  0  0
   -4.6875    6.1652   -1.8341 F   0  0  0  0  0  0  0  0  0  0  0  0
  1  2  1  0  0  0  0
  1  8  2  0  0  0  0
  2  3  1  0  0  0  0
  4  1  1  0  0  0  0
  5  4  2  0  0  0  0
  5  6  1  0  0  0  0
  6  7  2  0  0  0  0
  7  8  1  0  0  0  0
  7 12  1  0  0  0  0
  8 13  1  0  0  0  0
 10  5  1  0  0  0  0
 11  6  1  0  0  0  0
 14 17  2  0  0  0  0
 14 16  2  0  0  0  0
 15 20  1  0  0  0  0
 15 14  1  0  0  0  0
 18  9  1  0  0  0  0
 18 14  1  0  0  0  0
 19 15  1  0  0  0  0
 21 15  1  0  0  0  0
M  RAD  3   2   2   3   3   4   2
M  END
