Coordinates from ORCA-job PhN2+~TfO-_B3LYPG-6-31G_dp-CH-Scan-d09-49-n800
 OpenBabel11261919123D

 21 20  0  0  0  0  0  0  0  0999 V2000
   -1.7782    0.6279    0.0179 C   0  0  0  0  0  0  0  0  0  0  0  0
   -3.0938    1.0830    0.0487 N   0  0  0  0  0  0  0  0  0  0  0  0
   -4.1282    1.5101    0.0511 N   0  0  0  0  0  0  0  0  0  0  0  0
   -0.8558    1.6642   -0.1987 C   0  0  0  0  0  0  0  0  0  0  0  0
    0.4600    1.1181   -0.2286 C   0  0  0  0  0  0  0  0  0  0  0  0
    0.7448   -0.2331   -0.0595 C   0  0  0  0  0  0  0  0  0  0  0  0
   -0.2786   -1.1896    0.1561 C   0  0  0  0  0  0  0  0  0  0  0  0
   -1.5889   -0.7702    0.1988 C   0  0  0  0  0  0  0  0  0  0  0  0
   -1.9588    5.2491    0.1668 H   0  0  0  0  0  0  0  0  0  0  0  0
    1.3029    1.7910   -0.3910 H   0  0  0  0  0  0  0  0  0  0  0  0
    1.7768   -0.5793   -0.0908 H   0  0  0  0  0  0  0  0  0  0  0  0
   -0.0317   -2.2382    0.2871 H   0  0  0  0  0  0  0  0  0  0  0  0
   -2.4166   -1.4558    0.3602 H   0  0  0  0  0  0  0  0  0  0  0  0
   -4.0366    5.5369    0.6271 S   0  0  0  0  0  0  0  0  0  0  0  0
   -4.8181    5.1348   -1.0178 C   0  0  0  0  0  0  0  0  0  0  0  0
   -3.9209    4.2836    1.3598 O   0  0  0  0  0  0  0  0  0  0  0  0
   -4.7056    6.7099    1.1488 O   0  0  0  0  0  0  0  0  0  0  0  0
   -2.5710    6.0051    0.1152 O   0  0  0  0  0  0  0  0  0  0  0  0
   -4.1484    4.1291   -1.5883 F   0  0  0  0  0  0  0  0  0  0  0  0
   -6.0794    4.7658   -0.8051 F   0  0  0  0  0  0  0  0  0  0  0  0
   -4.7868    6.2003   -1.8113 F   0  0  0  0  0  0  0  0  0  0  0  0
  1  2  1  0  0  0  0
  1  8  2  0  0  0  0
  2  3  1  0  0  0  0
  4  1  1  0  0  0  0
  5  4  2  0  0  0  0
  5  6  1  0  0  0  0
  6  7  2  0  0  0  0
  7  8  1  0  0  0  0
  7 12  1  0  0  0  0
  8 13  1  0  0  0  0
 10  5  1  0  0  0  0
 11  6  1  0  0  0  0
 14 17  2  0  0  0  0
 14 16  2  0  0  0  0
 15 20  1  0  0  0  0
 15 14  1  0  0  0  0
 18  9  1  0  0  0  0
 18 14  1  0  0  0  0
 19 15  1  0  0  0  0
 21 15  1  0  0  0  0
M  RAD  3   2   2   3   3   4   2
M  END
