Coordinates from ORCA-job PhN2+~TfO-_B3LYPG-6-31G_dp-CH-Scan-d09-49-n800
 OpenBabel11261919123D

 21 20  0  0  0  0  0  0  0  0999 V2000
   -2.0139    0.7954    0.1380 C   0  0  0  0  0  0  0  0  0  0  0  0
   -3.3673    1.0753    0.2565 N   0  0  0  0  0  0  0  0  0  0  0  0
   -4.4485    1.3432    0.3417 N   0  0  0  0  0  0  0  0  0  0  0  0
   -1.1952    1.9318   -0.0025 C   0  0  0  0  0  0  0  0  0  0  0  0
    0.1644    1.5453   -0.1248 C   0  0  0  0  0  0  0  0  0  0  0  0
    0.5948    0.2213   -0.1062 C   0  0  0  0  0  0  0  0  0  0  0  0
   -0.3148   -0.8516    0.0404 C   0  0  0  0  0  0  0  0  0  0  0  0
   -1.6590   -0.5807    0.1672 C   0  0  0  0  0  0  0  0  0  0  0  0
   -1.8982    4.1433    0.0723 H   0  0  0  0  0  0  0  0  0  0  0  0
    0.9196    2.3214   -0.2404 H   0  0  0  0  0  0  0  0  0  0  0  0
    1.6544   -0.0056   -0.2065 H   0  0  0  0  0  0  0  0  0  0  0  0
    0.0409   -1.8765    0.0534 H   0  0  0  0  0  0  0  0  0  0  0  0
   -2.4014   -1.3648    0.2835 H   0  0  0  0  0  0  0  0  0  0  0  0
   -3.7180    5.1894    0.5756 S   0  0  0  0  0  0  0  0  0  0  0  0
   -4.5958    4.9947   -1.0550 C   0  0  0  0  0  0  0  0  0  0  0  0
   -4.0824    4.0164    1.3647 O   0  0  0  0  0  0  0  0  0  0  0  0
   -3.9594    6.5431    1.0338 O   0  0  0  0  0  0  0  0  0  0  0  0
   -2.2022    5.0930    0.0847 O   0  0  0  0  0  0  0  0  0  0  0  0
   -4.2882    3.7993   -1.5799 F   0  0  0  0  0  0  0  0  0  0  0  0
   -5.9115    5.0557   -0.8488 F   0  0  0  0  0  0  0  0  0  0  0  0
   -4.2313    5.9534   -1.9014 F   0  0  0  0  0  0  0  0  0  0  0  0
  1  8  1  0  0  0  0
  1  2  1  0  0  0  0
  2  3  1  0  0  0  0
  4  1  2  0  0  0  0
  5  6  2  0  0  0  0
  5  4  1  0  0  0  0
  6  7  1  0  0  0  0
  7 12  1  0  0  0  0
  7  8  2  0  0  0  0
  8 13  1  0  0  0  0
  9 18  1  0  0  0  0
 10  5  1  0  0  0  0
 11  6  1  0  0  0  0
 14 17  2  0  0  0  0
 14 16  2  0  0  0  0
 15 20  1  0  0  0  0
 15 14  1  0  0  0  0
 18 14  1  0  0  0  0
 19 15  1  0  0  0  0
 21 15  1  0  0  0  0
M  RAD  3   2   2   3   3   4   2
M  END
