Coordinates from ORCA-job PhN2+~TfO-_B3LYPG-6-31G_dp-CH-Scan-d09-49-n800
 OpenBabel11261919123D

 21 20  0  0  0  0  0  0  0  0999 V2000
   -1.8868    1.0923   -0.5914 C   0  0  0  0  0  0  0  0  0  0  0  0
   -3.0824    1.2355   -1.2836 N   0  0  0  0  0  0  0  0  0  0  0  0
   -4.0281    1.1732   -1.8635 N   0  0  0  0  0  0  0  0  0  0  0  0
   -0.9117    2.0970   -0.6714 C   0  0  0  0  0  0  0  0  0  0  0  0
    0.2798    1.8667    0.0078 C   0  0  0  0  0  0  0  0  0  0  0  0
    0.4710    0.6882    0.7346 C   0  0  0  0  0  0  0  0  0  0  0  0
   -0.5273   -0.2931    0.7958 C   0  0  0  0  0  0  0  0  0  0  0  0
   -1.7280   -0.1056    0.1271 C   0  0  0  0  0  0  0  0  0  0  0  0
   -1.1180    2.9666   -1.1837 H   0  0  0  0  0  0  0  0  0  0  0  0
    1.0537    2.6261   -0.0177 H   0  0  0  0  0  0  0  0  0  0  0  0
    1.4038    0.5332    1.2676 H   0  0  0  0  0  0  0  0  0  0  0  0
   -0.3712   -1.2003    1.3691 H   0  0  0  0  0  0  0  0  0  0  0  0
   -2.5254   -0.8392    0.1624 H   0  0  0  0  0  0  0  0  0  0  0  0
   -3.5060    4.0663   -0.0009 S   0  0  0  0  0  0  0  0  0  0  0  0
   -4.9130    5.2730   -0.0988 C   0  0  0  0  0  0  0  0  0  0  0  0
   -4.1171    2.8365    0.5749 O   0  0  0  0  0  0  0  0  0  0  0  0
   -2.4809    4.7227    0.8281 O   0  0  0  0  0  0  0  0  0  0  0  0
   -3.1177    3.8753   -1.4361 O   0  0  0  0  0  0  0  0  0  0  0  0
   -5.9055    4.7748   -0.8541 F   0  0  0  0  0  0  0  0  0  0  0  0
   -5.3979    5.5269    1.1242 F   0  0  0  0  0  0  0  0  0  0  0  0
   -4.5042    6.4267   -0.6439 F   0  0  0  0  0  0  0  0  0  0  0  0
  1  8  1  0  0  0  0
  2  1  1  0  0  0  0
  3  2  1  0  0  0  0
  4  1  2  0  0  0  0
  4  5  1  0  0  0  0
  5  6  2  0  0  0  0
  6  7  1  0  0  0  0
  6 11  1  0  0  0  0
  7 12  1  0  0  0  0
  8 13  1  0  0  0  0
  8  7  2  0  0  0  0
  9  4  1  0  0  0  0
 10  5  1  0  0  0  0
 14 16  2  0  0  0  0
 14 17  1  0  0  0  0
 15 14  1  0  0  0  0
 15 20  1  0  0  0  0
 18 14  2  0  0  0  0
 19 15  1  0  0  0  0
 21 15  1  0  0  0  0
M  RAD  3   2   2   3   3  17   2
M  END
