Coordinates from ORCA-job PhN2+~TfO-_B3LYPG-6-31G_dp-CH-Scan-d09-49-n800
 OpenBabel11261919123D

 21 20  0  0  0  0  0  0  0  0999 V2000
   -1.8301    0.6619    0.0564 C   0  0  0  0  0  0  0  0  0  0  0  0
   -3.1577    1.0741    0.1084 N   0  0  0  0  0  0  0  0  0  0  0  0
   -4.2065    1.4630    0.1325 N   0  0  0  0  0  0  0  0  0  0  0  0
   -0.9327    1.7286   -0.1192 C   0  0  0  0  0  0  0  0  0  0  0  0
    0.3964    1.2210   -0.1742 C   0  0  0  0  0  0  0  0  0  0  0  0
    0.7175   -0.1282   -0.0632 C   0  0  0  0  0  0  0  0  0  0  0  0
   -0.2795   -1.1190    0.1143 C   0  0  0  0  0  0  0  0  0  0  0  0
   -1.6003   -0.7366    0.1781 C   0  0  0  0  0  0  0  0  0  0  0  0
   -1.9301    4.9636    0.1126 H   0  0  0  0  0  0  0  0  0  0  0  0
    1.2198    1.9230   -0.3096 H   0  0  0  0  0  0  0  0  0  0  0  0
    1.7581   -0.4450   -0.1122 H   0  0  0  0  0  0  0  0  0  0  0  0
   -0.0052   -2.1654    0.1999 H   0  0  0  0  0  0  0  0  0  0  0  0
   -2.4085   -1.4504    0.3127 H   0  0  0  0  0  0  0  0  0  0  0  0
   -3.9594    5.4669    0.6064 S   0  0  0  0  0  0  0  0  0  0  0  0
   -4.7897    5.1135   -1.0255 C   0  0  0  0  0  0  0  0  0  0  0  0
   -3.9687    4.2203    1.3599 O   0  0  0  0  0  0  0  0  0  0  0  0
   -4.5075    6.7082    1.1113 O   0  0  0  0  0  0  0  0  0  0  0  0
   -2.4618    5.7805    0.0796 O   0  0  0  0  0  0  0  0  0  0  0  0
   -4.2140    4.0465   -1.5894 F   0  0  0  0  0  0  0  0  0  0  0  0
   -6.0761    4.8551   -0.7975 F   0  0  0  0  0  0  0  0  0  0  0  0
   -4.6768    6.1612   -1.8349 F   0  0  0  0  0  0  0  0  0  0  0  0
  1  2  1  0  0  0  0
  1  8  2  0  0  0  0
  2  3  1  0  0  0  0
  4  1  1  0  0  0  0
  5  4  2  0  0  0  0
  5  6  1  0  0  0  0
  6  7  2  0  0  0  0
  7  8  1  0  0  0  0
  7 12  1  0  0  0  0
  8 13  1  0  0  0  0
 10  5  1  0  0  0  0
 11  6  1  0  0  0  0
 14 17  2  0  0  0  0
 14 16  2  0  0  0  0
 15 20  1  0  0  0  0
 15 14  1  0  0  0  0
 18  9  1  0  0  0  0
 18 14  1  0  0  0  0
 19 15  1  0  0  0  0
 21 15  1  0  0  0  0
M  RAD  3   2   2   3   3   4   2
M  END
