Coordinates from ORCA-job PhN2+~TfO-_B3LYPG-6-31G_dp-CH-Scan-d09-49-n800
 OpenBabel11261919123D

 21 20  0  0  0  0  0  0  0  0999 V2000
   -2.0516    0.9049    0.0426 C   0  0  0  0  0  0  0  0  0  0  0  0
   -3.4085    1.1813    0.0196 N   0  0  0  0  0  0  0  0  0  0  0  0
   -4.4702    1.5220    0.0274 N   0  0  0  0  0  0  0  0  0  0  0  0
   -1.1857    2.0056   -0.0693 C   0  0  0  0  0  0  0  0  0  0  0  0
    0.1748    1.6842   -0.0384 C   0  0  0  0  0  0  0  0  0  0  0  0
    0.6096    0.3640    0.0952 C   0  0  0  0  0  0  0  0  0  0  0  0
   -0.3034   -0.7005    0.1999 C   0  0  0  0  0  0  0  0  0  0  0  0
   -1.6627   -0.4453    0.1713 C   0  0  0  0  0  0  0  0  0  0  0  0
   -1.6770    3.2570   -0.1990 H   0  0  0  0  0  0  0  0  0  0  0  0
    0.9036    2.4850   -0.1186 H   0  0  0  0  0  0  0  0  0  0  0  0
    1.6744    0.1490    0.1187 H   0  0  0  0  0  0  0  0  0  0  0  0
    0.0527   -1.7197    0.3032 H   0  0  0  0  0  0  0  0  0  0  0  0
   -2.3999   -1.2368    0.2499 H   0  0  0  0  0  0  0  0  0  0  0  0
   -3.4812    4.8989    0.4011 S   0  0  0  0  0  0  0  0  0  0  0  0
   -4.7672    5.1049   -0.9232 C   0  0  0  0  0  0  0  0  0  0  0  0
   -3.9640    3.7213    1.1681 O   0  0  0  0  0  0  0  0  0  0  0  0
   -3.4215    6.1806    1.0997 O   0  0  0  0  0  0  0  0  0  0  0  0
   -2.2544    4.5650   -0.4236 O   0  0  0  0  0  0  0  0  0  0  0  0
   -4.9035    3.9468   -1.6081 F   0  0  0  0  0  0  0  0  0  0  0  0
   -5.9520    5.4102   -0.3832 F   0  0  0  0  0  0  0  0  0  0  0  0
   -4.4247    6.0643   -1.7870 F   0  0  0  0  0  0  0  0  0  0  0  0
  1  8  2  0  0  0  0
  2  3  1  0  0  0  0
  2  1  1  0  0  0  0
  4  5  2  0  0  0  0
  4  1  1  0  0  0  0
  5  6  1  0  0  0  0
  6 11  1  0  0  0  0
  6  7  2  0  0  0  0
  7 12  1  0  0  0  0
  8  7  1  0  0  0  0
  8 13  1  0  0  0  0
  9  4  1  0  0  0  0
 10  5  1  0  0  0  0
 14 17  2  0  0  0  0
 14 16  1  0  0  0  0
 15 20  1  0  0  0  0
 15 14  1  0  0  0  0
 18 14  2  0  0  0  0
 19 15  1  0  0  0  0
 21 15  1  0  0  0  0
M  RAD  3   2   2   3   3  16   2
M  END
