Coordinates from ORCA-job PhN2+~TfO-_B3LYPG-6-31G_dp-CH-Scan-d09-49-n800
 OpenBabel11261919123D

 21 20  0  0  0  0  0  0  0  0999 V2000
   -1.8871    1.0945   -0.5949 C   0  0  0  0  0  0  0  0  0  0  0  0
   -3.0824    1.2356   -1.2884 N   0  0  0  0  0  0  0  0  0  0  0  0
   -4.0274    1.1707   -1.8692 N   0  0  0  0  0  0  0  0  0  0  0  0
   -0.9118    2.0989   -0.6764 C   0  0  0  0  0  0  0  0  0  0  0  0
    0.2786    1.8693    0.0054 C   0  0  0  0  0  0  0  0  0  0  0  0
    0.4685    0.6930    0.7358 C   0  0  0  0  0  0  0  0  0  0  0  0
   -0.5301   -0.2877    0.7982 C   0  0  0  0  0  0  0  0  0  0  0  0
   -1.7298   -0.1014    0.1272 C   0  0  0  0  0  0  0  0  0  0  0  0
   -1.1112    2.9546   -1.1847 H   0  0  0  0  0  0  0  0  0  0  0  0
    1.0527    2.6285   -0.0212 H   0  0  0  0  0  0  0  0  0  0  0  0
    1.4005    0.5392    1.2706 H   0  0  0  0  0  0  0  0  0  0  0  0
   -0.3755   -1.1935    1.3742 H   0  0  0  0  0  0  0  0  0  0  0  0
   -2.5277   -0.8343    0.1636 H   0  0  0  0  0  0  0  0  0  0  0  0
   -3.5060    4.0611   -0.0011 S   0  0  0  0  0  0  0  0  0  0  0  0
   -4.9101    5.2713   -0.0957 C   0  0  0  0  0  0  0  0  0  0  0  0
   -4.1196    2.8316    0.5727 O   0  0  0  0  0  0  0  0  0  0  0  0
   -2.4788    4.7133    0.8288 O   0  0  0  0  0  0  0  0  0  0  0  0
   -3.1189    3.8719   -1.4367 O   0  0  0  0  0  0  0  0  0  0  0  0
   -5.9040    4.7773   -0.8517 F   0  0  0  0  0  0  0  0  0  0  0  0
   -5.3940    5.5236    1.1281 F   0  0  0  0  0  0  0  0  0  0  0  0
   -4.4987    6.4253   -0.6382 F   0  0  0  0  0  0  0  0  0  0  0  0
  1  8  1  0  0  0  0
  2  1  1  0  0  0  0
  3  2  1  0  0  0  0
  4  1  2  0  0  0  0
  4  5  1  0  0  0  0
  5  6  2  0  0  0  0
  6  7  1  0  0  0  0
  6 11  1  0  0  0  0
  7 12  1  0  0  0  0
  8 13  1  0  0  0  0
  8  7  2  0  0  0  0
  9  4  1  0  0  0  0
 10  5  1  0  0  0  0
 14 16  2  0  0  0  0
 14 17  1  0  0  0  0
 15 14  1  0  0  0  0
 15 20  1  0  0  0  0
 18 14  2  0  0  0  0
 19 15  1  0  0  0  0
 21 15  1  0  0  0  0
M  RAD  3   2   2   3   3  17   2
M  END
