Coordinates from ORCA-job PhN2+~TfO-_B3LYPG-6-31G_dp-CH-Scan-d09-49-n800
 OpenBabel11261919123D

 21 20  0  0  0  0  0  0  0  0999 V2000
   -1.7593    0.6316   -0.1809 C   0  0  0  0  0  0  0  0  0  0  0  0
   -3.0485    1.1577   -0.2680 N   0  0  0  0  0  0  0  0  0  0  0  0
   -4.0484    1.6476   -0.3833 N   0  0  0  0  0  0  0  0  0  0  0  0
   -0.7973    1.5291   -0.6653 C   0  0  0  0  0  0  0  0  0  0  0  0
    0.4915    0.9283   -0.5614 C   0  0  0  0  0  0  0  0  0  0  0  0
    0.7144   -0.3463   -0.0510 C   0  0  0  0  0  0  0  0  0  0  0  0
   -0.3493   -1.1615    0.4128 C   0  0  0  0  0  0  0  0  0  0  0  0
   -1.6374   -0.6789    0.3557 C   0  0  0  0  0  0  0  0  0  0  0  0
   -2.0184    5.8101    0.4093 H   0  0  0  0  0  0  0  0  0  0  0  0
    1.3622    1.4926   -0.8984 H   0  0  0  0  0  0  0  0  0  0  0  0
    1.7278   -0.7421    0.0005 H   0  0  0  0  0  0  0  0  0  0  0  0
   -0.1496   -2.1524    0.8067 H   0  0  0  0  0  0  0  0  0  0  0  0
   -2.4936   -1.2555    0.6953 H   0  0  0  0  0  0  0  0  0  0  0  0
   -4.1150    5.4933    0.7415 S   0  0  0  0  0  0  0  0  0  0  0  0
   -4.6989    5.0733   -0.9801 C   0  0  0  0  0  0  0  0  0  0  0  0
   -3.6854    4.2498    1.3660 O   0  0  0  0  0  0  0  0  0  0  0  0
   -5.0904    6.3891    1.3259 O   0  0  0  0  0  0  0  0  0  0  0  0
   -2.8063    6.3799    0.3618 O   0  0  0  0  0  0  0  0  0  0  0  0
   -3.7387    4.3988   -1.6154 F   0  0  0  0  0  0  0  0  0  0  0  0
   -5.7873    4.3123   -0.8785 F   0  0  0  0  0  0  0  0  0  0  0  0
   -4.9850    6.1861   -1.6469 F   0  0  0  0  0  0  0  0  0  0  0  0
  1  8  2  0  0  0  0
  2  1  1  0  0  0  0
  3  2  1  0  0  0  0
  4  5  2  0  0  0  0
  4  1  1  0  0  0  0
  5  6  1  0  0  0  0
  6 11  1  0  0  0  0
  6  7  2  0  0  0  0
  7 12  1  0  0  0  0
  8  7  1  0  0  0  0
  8 13  1  0  0  0  0
 10  5  1  0  0  0  0
 14 17  2  0  0  0  0
 14 16  2  0  0  0  0
 15 20  1  0  0  0  0
 15 14  1  0  0  0  0
 18  9  1  0  0  0  0
 18 14  1  0  0  0  0
 19 15  1  0  0  0  0
 21 15  1  0  0  0  0
M  RAD  3   2   2   3   3   4   2
M  END
