Coordinates from ORCA-job PhN2+~TfO-_B3LYPG-6-31G_dp-CH-Scan-d09-49-n800
 OpenBabel11261919123D

 21 20  0  0  0  0  0  0  0  0999 V2000
   -2.0757    0.9137    0.0310 C   0  0  0  0  0  0  0  0  0  0  0  0
   -3.4361    1.1679    0.0012 N   0  0  0  0  0  0  0  0  0  0  0  0
   -4.5151    1.4453   -0.0105 N   0  0  0  0  0  0  0  0  0  0  0  0
   -1.2245    2.0250   -0.0947 C   0  0  0  0  0  0  0  0  0  0  0  0
    0.1390    1.7054   -0.0600 C   0  0  0  0  0  0  0  0  0  0  0  0
    0.5848    0.3911    0.0872 C   0  0  0  0  0  0  0  0  0  0  0  0
   -0.3197   -0.6807    0.2060 C   0  0  0  0  0  0  0  0  0  0  0  0
   -1.6794   -0.4351    0.1768 C   0  0  0  0  0  0  0  0  0  0  0  0
   -1.7222    3.3228   -0.2210 H   0  0  0  0  0  0  0  0  0  0  0  0
    0.8651    2.5085   -0.1479 H   0  0  0  0  0  0  0  0  0  0  0  0
    1.6515    0.1843    0.1118 H   0  0  0  0  0  0  0  0  0  0  0  0
    0.0443   -1.6958    0.3210 H   0  0  0  0  0  0  0  0  0  0  0  0
   -2.4115   -1.2305    0.2661 H   0  0  0  0  0  0  0  0  0  0  0  0
   -3.4513    4.8959    0.4329 S   0  0  0  0  0  0  0  0  0  0  0  0
   -4.7184    5.0665   -0.9147 C   0  0  0  0  0  0  0  0  0  0  0  0
   -3.9118    3.7147    1.1984 O   0  0  0  0  0  0  0  0  0  0  0  0
   -3.4129    6.1887    1.1092 O   0  0  0  0  0  0  0  0  0  0  0  0
   -2.2017    4.5786   -0.3800 O   0  0  0  0  0  0  0  0  0  0  0  0
   -4.8216    3.8989   -1.5894 F   0  0  0  0  0  0  0  0  0  0  0  0
   -5.9162    5.3544   -0.3951 F   0  0  0  0  0  0  0  0  0  0  0  0
   -4.3796    6.0232   -1.7817 F   0  0  0  0  0  0  0  0  0  0  0  0
  1  8  2  0  0  0  0
  2  1  1  0  0  0  0
  3  2  1  0  0  0  0
  4  5  2  0  0  0  0
  4  1  1  0  0  0  0
  5  6  1  0  0  0  0
  6 11  1  0  0  0  0
  6  7  2  0  0  0  0
  7 12  1  0  0  0  0
  8  7  1  0  0  0  0
  8 13  1  0  0  0  0
 10  5  1  0  0  0  0
 14 17  2  0  0  0  0
 14 16  2  0  0  0  0
 15 20  1  0  0  0  0
 15 14  1  0  0  0  0
 18  9  1  0  0  0  0
 18 14  1  0  0  0  0
 19 15  1  0  0  0  0
 21 15  1  0  0  0  0
M  RAD  3   2   2   3   3   4   2
M  END
