Coordinates from ORCA-job PhN2+~TfO-_B3LYPG-6-31G_dp-CH-Scan-d09-49-n800
 OpenBabel11261919123D

 21 20  0  0  0  0  0  0  0  0999 V2000
   -1.9275    0.7297    0.1169 C   0  0  0  0  0  0  0  0  0  0  0  0
   -3.2701    1.0691    0.2217 N   0  0  0  0  0  0  0  0  0  0  0  0
   -4.3384    1.3905    0.2960 N   0  0  0  0  0  0  0  0  0  0  0  0
   -1.0733    1.8377   -0.0278 C   0  0  0  0  0  0  0  0  0  0  0  0
    0.2733    1.3954   -0.1355 C   0  0  0  0  0  0  0  0  0  0  0  0
    0.6539    0.0572   -0.0988 C   0  0  0  0  0  0  0  0  0  0  0  0
   -0.2959   -0.9816    0.0513 C   0  0  0  0  0  0  0  0  0  0  0  0
   -1.6298   -0.6603    0.1639 C   0  0  0  0  0  0  0  0  0  0  0  0
   -1.9085    4.5250    0.1079 H   0  0  0  0  0  0  0  0  0  0  0  0
    1.0604    2.1398   -0.2534 H   0  0  0  0  0  0  0  0  0  0  0  0
    1.7053   -0.2106   -0.1872 H   0  0  0  0  0  0  0  0  0  0  0  0
    0.0231   -2.0184    0.0781 H   0  0  0  0  0  0  0  0  0  0  0  0
   -2.4025   -1.4148    0.2818 H   0  0  0  0  0  0  0  0  0  0  0  0
   -3.8433    5.3332    0.5869 S   0  0  0  0  0  0  0  0  0  0  0  0
   -4.6824    5.0478   -1.0526 C   0  0  0  0  0  0  0  0  0  0  0  0
   -4.0585    4.1233    1.3712 O   0  0  0  0  0  0  0  0  0  0  0  0
   -4.2284    6.6516    1.0464 O   0  0  0  0  0  0  0  0  0  0  0  0
   -2.3132    5.4192    0.0962 O   0  0  0  0  0  0  0  0  0  0  0  0
   -4.2432    3.8963   -1.5759 F   0  0  0  0  0  0  0  0  0  0  0  0
   -5.9969    4.9674   -0.8506 F   0  0  0  0  0  0  0  0  0  0  0  0
   -4.4168    6.0453   -1.8900 F   0  0  0  0  0  0  0  0  0  0  0  0
  1  8  1  0  0  0  0
  1  2  1  0  0  0  0
  2  3  1  0  0  0  0
  4  1  2  0  0  0  0
  5  6  2  0  0  0  0
  5  4  1  0  0  0  0
  6  7  1  0  0  0  0
  7 12  1  0  0  0  0
  7  8  2  0  0  0  0
  8 13  1  0  0  0  0
 10  5  1  0  0  0  0
 11  6  1  0  0  0  0
 14 17  2  0  0  0  0
 14 16  2  0  0  0  0
 15 20  1  0  0  0  0
 15 14  1  0  0  0  0
 18  9  1  0  0  0  0
 18 14  1  0  0  0  0
 19 15  1  0  0  0  0
 21 15  1  0  0  0  0
M  RAD  3   2   2   3   3   4   2
M  END
