Coordinates from ORCA-job PhN2+~TfO-_B3LYPG-6-31G_dp-CH-Scan-d09-49-n800
 OpenBabel11261919123D

 21 20  0  0  0  0  0  0  0  0999 V2000
   -1.8076    0.6467    0.0452 C   0  0  0  0  0  0  0  0  0  0  0  0
   -3.1303    1.0770    0.0923 N   0  0  0  0  0  0  0  0  0  0  0  0
   -4.1730    1.4824    0.1097 N   0  0  0  0  0  0  0  0  0  0  0  0
   -0.9001    1.7019   -0.1446 C   0  0  0  0  0  0  0  0  0  0  0  0
    0.4236    1.1781   -0.1935 C   0  0  0  0  0  0  0  0  0  0  0  0
    0.7297   -0.1729   -0.0647 C   0  0  0  0  0  0  0  0  0  0  0  0
   -0.2781   -1.1505    0.1263 C   0  0  0  0  0  0  0  0  0  0  0  0
   -1.5945   -0.7528    0.1852 C   0  0  0  0  0  0  0  0  0  0  0  0
   -1.9418    5.0821    0.1378 H   0  0  0  0  0  0  0  0  0  0  0  0
    1.2550    1.8688   -0.3387 H   0  0  0  0  0  0  0  0  0  0  0  0
    1.7667   -0.5019   -0.1097 H   0  0  0  0  0  0  0  0  0  0  0  0
   -0.0151   -2.1986    0.2259 H   0  0  0  0  0  0  0  0  0  0  0  0
   -2.4108   -1.4556    0.3295 H   0  0  0  0  0  0  0  0  0  0  0  0
   -3.9943    5.4997    0.6136 S   0  0  0  0  0  0  0  0  0  0  0  0
   -4.8018    5.1224   -1.0245 C   0  0  0  0  0  0  0  0  0  0  0  0
   -3.9548    4.2505    1.3616 O   0  0  0  0  0  0  0  0  0  0  0  0
   -4.5930    6.7161    1.1214 O   0  0  0  0  0  0  0  0  0  0  0  0
   -2.5065    5.8753    0.0953 O   0  0  0  0  0  0  0  0  0  0  0  0
   -4.1877    4.0767   -1.5868 F   0  0  0  0  0  0  0  0  0  0  0  0
   -6.0801    4.8216   -0.8047 F   0  0  0  0  0  0  0  0  0  0  0  0
   -4.7183    6.1758   -1.8302 F   0  0  0  0  0  0  0  0  0  0  0  0
  1  2  1  0  0  0  0
  1  8  2  0  0  0  0
  2  3  1  0  0  0  0
  4  1  1  0  0  0  0
  5  4  2  0  0  0  0
  5  6  1  0  0  0  0
  6  7  2  0  0  0  0
  7  8  1  0  0  0  0
  7 12  1  0  0  0  0
  8 13  1  0  0  0  0
 10  5  1  0  0  0  0
 11  6  1  0  0  0  0
 14 17  2  0  0  0  0
 14 16  2  0  0  0  0
 15 20  1  0  0  0  0
 15 14  1  0  0  0  0
 18  9  1  0  0  0  0
 18 14  1  0  0  0  0
 19 15  1  0  0  0  0
 21 15  1  0  0  0  0
M  RAD  3   2   2   3   3   4   2
M  END
