Coordinates from ORCA-job PhN2+~TfO-_B3LYPG-6-31G_dp-CH-Scan-d09-49-n800
 OpenBabel11261919123D

 21 20  0  0  0  0  0  0  0  0999 V2000
   -1.9330    0.7339    0.1201 C   0  0  0  0  0  0  0  0  0  0  0  0
   -3.2763    1.0694    0.2277 N   0  0  0  0  0  0  0  0  0  0  0  0
   -4.3454    1.3873    0.3044 N   0  0  0  0  0  0  0  0  0  0  0  0
   -1.0811    1.8438   -0.0234 C   0  0  0  0  0  0  0  0  0  0  0  0
    0.2662    1.4050   -0.1342 C   0  0  0  0  0  0  0  0  0  0  0  0
    0.6499    0.0675   -0.1014 C   0  0  0  0  0  0  0  0  0  0  0  0
   -0.2974   -0.9736    0.0479 C   0  0  0  0  0  0  0  0  0  0  0  0
   -1.6318   -0.6555    0.1634 C   0  0  0  0  0  0  0  0  0  0  0  0
   -1.9077    4.5025    0.1095 H   0  0  0  0  0  0  0  0  0  0  0  0
    1.0514    2.1515   -0.2517 H   0  0  0  0  0  0  0  0  0  0  0  0
    1.7017   -0.1977   -0.1922 H   0  0  0  0  0  0  0  0  0  0  0  0
    0.0239   -2.0098    0.0717 H   0  0  0  0  0  0  0  0  0  0  0  0
   -2.4026   -1.4120    0.2808 H   0  0  0  0  0  0  0  0  0  0  0  0
   -3.8370    5.3258    0.5862 S   0  0  0  0  0  0  0  0  0  0  0  0
   -4.6752    5.0427   -1.0541 C   0  0  0  0  0  0  0  0  0  0  0  0
   -4.0629    4.1189    1.3724 O   0  0  0  0  0  0  0  0  0  0  0  0
   -4.2142    6.6476    1.0425 O   0  0  0  0  0  0  0  0  0  0  0  0
   -2.3060    5.4001    0.0985 O   0  0  0  0  0  0  0  0  0  0  0  0
   -4.2433    3.8869   -1.5742 F   0  0  0  0  0  0  0  0  0  0  0  0
   -5.9907    4.9719   -0.8544 F   0  0  0  0  0  0  0  0  0  0  0  0
   -4.4013    6.0364   -1.8933 F   0  0  0  0  0  0  0  0  0  0  0  0
  1  8  1  0  0  0  0
  1  2  1  0  0  0  0
  2  3  1  0  0  0  0
  4  1  2  0  0  0  0
  5  6  2  0  0  0  0
  5  4  1  0  0  0  0
  6  7  1  0  0  0  0
  7 12  1  0  0  0  0
  7  8  2  0  0  0  0
  8 13  1  0  0  0  0
 10  5  1  0  0  0  0
 11  6  1  0  0  0  0
 14 17  2  0  0  0  0
 14 16  2  0  0  0  0
 15 20  1  0  0  0  0
 15 14  1  0  0  0  0
 18  9  1  0  0  0  0
 18 14  1  0  0  0  0
 19 15  1  0  0  0  0
 21 15  1  0  0  0  0
M  RAD  3   2   2   3   3   4   2
M  END
