Coordinates from ORCA-job PhN2+~TfO-_B3LYPG-6-31G_dp-CH-Scan-d09-49-n800
 OpenBabel11261919123D

 21 20  0  0  0  0  0  0  0  0999 V2000
   -1.8088    0.6575   -0.1402 C   0  0  0  0  0  0  0  0  0  0  0  0
   -3.1122    1.1475   -0.2133 N   0  0  0  0  0  0  0  0  0  0  0  0
   -4.1261    1.6110   -0.3128 N   0  0  0  0  0  0  0  0  0  0  0  0
   -0.8657    1.6144   -0.5432 C   0  0  0  0  0  0  0  0  0  0  0  0
    0.4382    1.0444   -0.4591 C   0  0  0  0  0  0  0  0  0  0  0  0
    0.6915   -0.2553   -0.0330 C   0  0  0  0  0  0  0  0  0  0  0  0
   -0.3542   -1.1309    0.3547 C   0  0  0  0  0  0  0  0  0  0  0  0
   -1.6550   -0.6830    0.3068 C   0  0  0  0  0  0  0  0  0  0  0  0
   -1.9346    5.6057    0.2847 H   0  0  0  0  0  0  0  0  0  0  0  0
    1.2968    1.6552   -0.7414 H   0  0  0  0  0  0  0  0  0  0  0  0
    1.7155   -0.6237    0.0099 H   0  0  0  0  0  0  0  0  0  0  0  0
   -0.1310   -2.1400    0.6849 H   0  0  0  0  0  0  0  0  0  0  0  0
   -2.4988   -1.3063    0.5903 H   0  0  0  0  0  0  0  0  0  0  0  0
   -4.0334    5.4513    0.7153 S   0  0  0  0  0  0  0  0  0  0  0  0
   -4.6954    5.0401   -0.9796 C   0  0  0  0  0  0  0  0  0  0  0  0
   -3.6816    4.1905    1.3533 O   0  0  0  0  0  0  0  0  0  0  0  0
   -4.9238    6.4276    1.3064 O   0  0  0  0  0  0  0  0  0  0  0  0
   -2.6775    6.2352    0.2846 O   0  0  0  0  0  0  0  0  0  0  0  0
   -3.7935    4.3068   -1.6359 F   0  0  0  0  0  0  0  0  0  0  0  0
   -5.8179    4.3384   -0.8311 F   0  0  0  0  0  0  0  0  0  0  0  0
   -4.9453    6.1564   -1.6549 F   0  0  0  0  0  0  0  0  0  0  0  0
  1  8  2  0  0  0  0
  2  1  1  0  0  0  0
  3  2  1  0  0  0  0
  4  5  2  0  0  0  0
  4  1  1  0  0  0  0
  5  6  1  0  0  0  0
  6 11  1  0  0  0  0
  6  7  2  0  0  0  0
  7 12  1  0  0  0  0
  8  7  1  0  0  0  0
  8 13  1  0  0  0  0
 10  5  1  0  0  0  0
 14 17  2  0  0  0  0
 14 16  2  0  0  0  0
 15 20  1  0  0  0  0
 15 14  1  0  0  0  0
 18  9  1  0  0  0  0
 18 14  1  0  0  0  0
 19 15  1  0  0  0  0
 21 15  1  0  0  0  0
M  RAD  3   2   2   3   3   4   2
M  END
