Coordinates from ORCA-job PhN2+~TfO-_B3LYPG-6-31G_dp-CH-Scan-d09-49-n800
 OpenBabel11261919123D

 21 20  0  0  0  0  0  0  0  0999 V2000
   -1.8071    0.6565   -0.1421 C   0  0  0  0  0  0  0  0  0  0  0  0
   -3.1100    1.1478   -0.2160 N   0  0  0  0  0  0  0  0  0  0  0  0
   -4.1234    1.6123   -0.3163 N   0  0  0  0  0  0  0  0  0  0  0  0
   -0.8634    1.6109   -0.5492 C   0  0  0  0  0  0  0  0  0  0  0  0
    0.4400    1.0399   -0.4642 C   0  0  0  0  0  0  0  0  0  0  0  0
    0.6922   -0.2586   -0.0338 C   0  0  0  0  0  0  0  0  0  0  0  0
   -0.3540   -1.1317    0.3577 C   0  0  0  0  0  0  0  0  0  0  0  0
   -1.6545   -0.6826    0.3094 C   0  0  0  0  0  0  0  0  0  0  0  0
   -1.9375    5.6143    0.2907 H   0  0  0  0  0  0  0  0  0  0  0  0
    1.2990    1.6489   -0.7492 H   0  0  0  0  0  0  0  0  0  0  0  0
    1.7159   -0.6280    0.0094 H   0  0  0  0  0  0  0  0  0  0  0  0
   -0.1317   -2.1400    0.6910 H   0  0  0  0  0  0  0  0  0  0  0  0
   -2.4987   -1.3041    0.5957 H   0  0  0  0  0  0  0  0  0  0  0  0
   -4.0366    5.4524    0.7166 S   0  0  0  0  0  0  0  0  0  0  0  0
   -4.6950    5.0412   -0.9798 C   0  0  0  0  0  0  0  0  0  0  0  0
   -3.6815    4.1921    1.3536 O   0  0  0  0  0  0  0  0  0  0  0  0
   -4.9310    6.4251    1.3076 O   0  0  0  0  0  0  0  0  0  0  0  0
   -2.6826    6.2411    0.2887 O   0  0  0  0  0  0  0  0  0  0  0  0
   -3.7905    4.3103   -1.6351 F   0  0  0  0  0  0  0  0  0  0  0  0
   -5.8164    4.3373   -0.8338 F   0  0  0  0  0  0  0  0  0  0  0  0
   -4.9459    6.1577   -1.6545 F   0  0  0  0  0  0  0  0  0  0  0  0
  1  8  2  0  0  0  0
  2  1  1  0  0  0  0
  3  2  1  0  0  0  0
  4  5  2  0  0  0  0
  4  1  1  0  0  0  0
  5  6  1  0  0  0  0
  6 11  1  0  0  0  0
  6  7  2  0  0  0  0
  7 12  1  0  0  0  0
  8  7  1  0  0  0  0
  8 13  1  0  0  0  0
 10  5  1  0  0  0  0
 14 17  2  0  0  0  0
 14 16  2  0  0  0  0
 15 20  1  0  0  0  0
 15 14  1  0  0  0  0
 18  9  1  0  0  0  0
 18 14  1  0  0  0  0
 19 15  1  0  0  0  0
 21 15  1  0  0  0  0
M  RAD  3   2   2   3   3   4   2
M  END
