Coordinates from ORCA-job PhN2+~TfO-_B3LYPG-6-31G_dp-CH-Scan-d09-49-n800
 OpenBabel11261919123D

 21 20  0  0  0  0  0  0  0  0999 V2000
   -1.9159    1.1652   -0.4275 C   0  0  0  0  0  0  0  0  0  0  0  0
   -3.1451    1.5008   -0.9803 N   0  0  0  0  0  0  0  0  0  0  0  0
   -4.1135    1.6208   -1.5131 N   0  0  0  0  0  0  0  0  0  0  0  0
   -0.8660    2.0920   -0.4886 C   0  0  0  0  0  0  0  0  0  0  0  0
    0.3578    1.6852    0.0284 C   0  0  0  0  0  0  0  0  0  0  0  0
    0.5058    0.4119    0.5896 C   0  0  0  0  0  0  0  0  0  0  0  0
   -0.5678   -0.4863    0.6396 C   0  0  0  0  0  0  0  0  0  0  0  0
   -1.8045   -0.1215    0.1246 C   0  0  0  0  0  0  0  0  0  0  0  0
   -1.0737    3.1067   -0.9155 H   0  0  0  0  0  0  0  0  0  0  0  0
    1.1959    2.3733    0.0071 H   0  0  0  0  0  0  0  0  0  0  0  0
    1.4664    0.1158    0.9990 H   0  0  0  0  0  0  0  0  0  0  0  0
   -0.4418   -1.4683    1.0817 H   0  0  0  0  0  0  0  0  0  0  0  0
   -2.6570   -0.7907    0.1512 H   0  0  0  0  0  0  0  0  0  0  0  0
   -3.3058    4.5433    0.0942 S   0  0  0  0  0  0  0  0  0  0  0  0
   -5.0621    5.0094   -0.2895 C   0  0  0  0  0  0  0  0  0  0  0  0
   -3.4581    3.2727    0.8656 O   0  0  0  0  0  0  0  0  0  0  0  0
   -2.7498    5.6853    0.8264 O   0  0  0  0  0  0  0  0  0  0  0  0
   -2.7390    4.2861   -1.2668 O   0  0  0  0  0  0  0  0  0  0  0  0
   -5.6724    3.9924   -0.9402 F   0  0  0  0  0  0  0  0  0  0  0  0
   -5.7508    5.2545    0.8320 F   0  0  0  0  0  0  0  0  0  0  0  0
   -5.1154    6.0939   -1.0714 F   0  0  0  0  0  0  0  0  0  0  0  0
  1  8  1  0  0  0  0
  2  1  1  0  0  0  0
  3  2  1  0  0  0  0
  4  1  2  0  0  0  0
  4  5  1  0  0  0  0
  5  6  2  0  0  0  0
  6  7  1  0  0  0  0
  6 11  1  0  0  0  0
  7 12  1  0  0  0  0
  8 13  1  0  0  0  0
  8  7  2  0  0  0  0
  9  4  1  0  0  0  0
 10  5  1  0  0  0  0
 14 17  2  0  0  0  0
 14 16  1  0  0  0  0
 15 14  1  0  0  0  0
 15 20  1  0  0  0  0
 18 14  2  0  0  0  0
 19 15  1  0  0  0  0
 21 15  1  0  0  0  0
M  RAD  3   2   2   3   3  16   2
M  END
