Coordinates from ORCA-job PhN2+~TfO-_B3LYPG-6-31G_dp-CH-Scan-d09-49-n800
 OpenBabel11261919123D

 21 20  0  0  0  0  0  0  0  0999 V2000
   -1.7478    0.6268   -0.1878 C   0  0  0  0  0  0  0  0  0  0  0  0
   -3.0335    1.1608   -0.2772 N   0  0  0  0  0  0  0  0  0  0  0  0
   -4.0304    1.6565   -0.3949 N   0  0  0  0  0  0  0  0  0  0  0  0
   -0.7813    1.5122   -0.6853 C   0  0  0  0  0  0  0  0  0  0  0  0
    0.5038    0.9042   -0.5782 C   0  0  0  0  0  0  0  0  0  0  0  0
    0.7197   -0.3661   -0.0540 C   0  0  0  0  0  0  0  0  0  0  0  0
   -0.3481   -1.1689    0.4220 C   0  0  0  0  0  0  0  0  0  0  0  0
   -1.6331   -0.6784    0.3634 C   0  0  0  0  0  0  0  0  0  0  0  0
   -2.0373    5.8481    0.4290 H   0  0  0  0  0  0  0  0  0  0  0  0
    1.3772    1.4588   -0.9239 H   0  0  0  0  0  0  0  0  0  0  0  0
    1.7306   -0.7681   -0.0011 H   0  0  0  0  0  0  0  0  0  0  0  0
   -0.1539   -2.1567    0.8262 H   0  0  0  0  0  0  0  0  0  0  0  0
   -2.4921   -1.2453    0.7120 H   0  0  0  0  0  0  0  0  0  0  0  0
   -4.1315    5.5033    0.7460 S   0  0  0  0  0  0  0  0  0  0  0  0
   -4.7023    5.0810   -0.9796 C   0  0  0  0  0  0  0  0  0  0  0  0
   -3.6880    4.2639    1.3690 O   0  0  0  0  0  0  0  0  0  0  0  0
   -5.1210    6.3846    1.3285 O   0  0  0  0  0  0  0  0  0  0  0  0
   -2.8323    6.4073    0.3740 O   0  0  0  0  0  0  0  0  0  0  0  0
   -3.7316    4.4185   -1.6115 F   0  0  0  0  0  0  0  0  0  0  0  0
   -5.7828    4.3080   -0.8851 F   0  0  0  0  0  0  0  0  0  0  0  0
   -4.9971    6.1923   -1.6451 F   0  0  0  0  0  0  0  0  0  0  0  0
  1  8  2  0  0  0  0
  2  1  1  0  0  0  0
  3  2  1  0  0  0  0
  4  5  2  0  0  0  0
  4  1  1  0  0  0  0
  5  6  1  0  0  0  0
  6 11  1  0  0  0  0
  6  7  2  0  0  0  0
  7 12  1  0  0  0  0
  8  7  1  0  0  0  0
  8 13  1  0  0  0  0
 10  5  1  0  0  0  0
 14 17  2  0  0  0  0
 14 16  2  0  0  0  0
 15 20  1  0  0  0  0
 15 14  1  0  0  0  0
 18  9  1  0  0  0  0
 18 14  1  0  0  0  0
 19 15  1  0  0  0  0
 21 15  1  0  0  0  0
M  RAD  3   2   2   3   3   4   2
M  END
