Coordinates from ORCA-job PhN2+~TfO-_B3LYPG-6-31G_dp-CH-Scan-d09-49-n800
 OpenBabel11261919123D

 21 20  0  0  0  0  0  0  0  0999 V2000
   -2.0908    0.8739    0.0761 C   0  0  0  0  0  0  0  0  0  0  0  0
   -3.4572    1.0993    0.1149 N   0  0  0  0  0  0  0  0  0  0  0  0
   -4.5504    1.3209    0.1382 N   0  0  0  0  0  0  0  0  0  0  0  0
   -1.2899    2.0236   -0.0645 C   0  0  0  0  0  0  0  0  0  0  0  0
    0.0830    1.6911   -0.1021 C   0  0  0  0  0  0  0  0  0  0  0  0
    0.5559    0.3838   -0.0095 C   0  0  0  0  0  0  0  0  0  0  0  0
   -0.3249   -0.7104    0.1297 C   0  0  0  0  0  0  0  0  0  0  0  0
   -1.6834   -0.4818    0.1747 C   0  0  0  0  0  0  0  0  0  0  0  0
   -1.8532    3.6599   -0.1062 H   0  0  0  0  0  0  0  0  0  0  0  0
    0.8093    2.4947   -0.2065 H   0  0  0  0  0  0  0  0  0  0  0  0
    1.6261    0.1921   -0.0441 H   0  0  0  0  0  0  0  0  0  0  0  0
    0.0607   -1.7218    0.2018 H   0  0  0  0  0  0  0  0  0  0  0  0
   -2.4032   -1.2873    0.2816 H   0  0  0  0  0  0  0  0  0  0  0  0
   -3.5178    4.9826    0.5294 S   0  0  0  0  0  0  0  0  0  0  0  0
   -4.6032    5.0003   -0.9803 C   0  0  0  0  0  0  0  0  0  0  0  0
   -3.9720    3.8267    1.3091 O   0  0  0  0  0  0  0  0  0  0  0  0
   -3.5574    6.3248    1.0845 O   0  0  0  0  0  0  0  0  0  0  0  0
   -2.1273    4.7010   -0.1346 O   0  0  0  0  0  0  0  0  0  0  0  0
   -4.5421    3.7987   -1.5849 F   0  0  0  0  0  0  0  0  0  0  0  0
   -5.8666    5.2344   -0.6197 F   0  0  0  0  0  0  0  0  0  0  0  0
   -4.2086    5.9363   -1.8414 F   0  0  0  0  0  0  0  0  0  0  0  0
  1  2  1  0  0  0  0
  1  8  2  0  0  0  0
  2  3  1  0  0  0  0
  4  1  1  0  0  0  0
  5  4  2  0  0  0  0
  5  6  1  0  0  0  0
  6  7  2  0  0  0  0
  7  8  1  0  0  0  0
  7 12  1  0  0  0  0
  8 13  1  0  0  0  0
 10  5  1  0  0  0  0
 11  6  1  0  0  0  0
 14 17  2  0  0  0  0
 14 16  2  0  0  0  0
 15 20  1  0  0  0  0
 15 14  1  0  0  0  0
 18  9  1  0  0  0  0
 18 14  1  0  0  0  0
 19 15  1  0  0  0  0
 21 15  1  0  0  0  0
M  RAD  3   2   2   3   3   4   2
M  END
