Coordinates from ORCA-job PhN2+~TfO-_B3LYPG-6-31G_dp-CH-Scan-d09-49-n800
 OpenBabel11261919123D

 21 20  0  0  0  0  0  0  0  0999 V2000
   -2.0924    0.9093    0.0382 C   0  0  0  0  0  0  0  0  0  0  0  0
   -3.4572    1.1414    0.0222 N   0  0  0  0  0  0  0  0  0  0  0  0
   -4.5476    1.3713    0.0091 N   0  0  0  0  0  0  0  0  0  0  0  0
   -1.2645    2.0383   -0.0976 C   0  0  0  0  0  0  0  0  0  0  0  0
    0.1041    1.7176   -0.0800 C   0  0  0  0  0  0  0  0  0  0  0  0
    0.5655    0.4089    0.0588 C   0  0  0  0  0  0  0  0  0  0  0  0
   -0.3264   -0.6741    0.1894 C   0  0  0  0  0  0  0  0  0  0  0  0
   -1.6867   -0.4400    0.1794 C   0  0  0  0  0  0  0  0  0  0  0  0
   -1.7818    3.4272   -0.2015 H   0  0  0  0  0  0  0  0  0  0  0  0
    0.8277    2.5231   -0.1755 H   0  0  0  0  0  0  0  0  0  0  0  0
    1.6347    0.2122    0.0681 H   0  0  0  0  0  0  0  0  0  0  0  0
    0.0493   -1.6857    0.2984 H   0  0  0  0  0  0  0  0  0  0  0  0
   -2.4117   -1.2413    0.2778 H   0  0  0  0  0  0  0  0  0  0  0  0
   -3.4520    4.9061    0.4731 S   0  0  0  0  0  0  0  0  0  0  0  0
   -4.6649    5.0353   -0.9284 C   0  0  0  0  0  0  0  0  0  0  0  0
   -3.9117    3.7351    1.2427 O   0  0  0  0  0  0  0  0  0  0  0  0
   -3.4277    6.2170    1.1085 O   0  0  0  0  0  0  0  0  0  0  0  0
   -2.1599    4.5885   -0.3012 O   0  0  0  0  0  0  0  0  0  0  0  0
   -4.7257    3.8538   -1.5800 F   0  0  0  0  0  0  0  0  0  0  0  0
   -5.8828    5.3192   -0.4581 F   0  0  0  0  0  0  0  0  0  0  0  0
   -4.3009    5.9794   -1.7971 F   0  0  0  0  0  0  0  0  0  0  0  0
  1  8  2  0  0  0  0
  2  1  1  0  0  0  0
  3  2  1  0  0  0  0
  4  5  2  0  0  0  0
  4  1  1  0  0  0  0
  5  6  1  0  0  0  0
  6 11  1  0  0  0  0
  6  7  2  0  0  0  0
  7 12  1  0  0  0  0
  8  7  1  0  0  0  0
  8 13  1  0  0  0  0
 10  5  1  0  0  0  0
 14 17  2  0  0  0  0
 14 16  2  0  0  0  0
 15 20  1  0  0  0  0
 15 14  1  0  0  0  0
 18  9  1  0  0  0  0
 18 14  1  0  0  0  0
 19 15  1  0  0  0  0
 21 15  1  0  0  0  0
M  RAD  3   2   2   3   3   4   2
M  END
