Coordinates from ORCA-job PhN2+~TfO-_B3LYPG-6-31G_dp-CH-Scan-d09-49-n800
 OpenBabel11261919123D

 21 20  0  0  0  0  0  0  0  0999 V2000
   -1.8136    0.6606   -0.1343 C   0  0  0  0  0  0  0  0  0  0  0  0
   -3.1185    1.1468   -0.2052 N   0  0  0  0  0  0  0  0  0  0  0  0
   -4.1341    1.6070   -0.3021 N   0  0  0  0  0  0  0  0  0  0  0  0
   -0.8724    1.6246   -0.5248 C   0  0  0  0  0  0  0  0  0  0  0  0
    0.4330    1.0578   -0.4436 C   0  0  0  0  0  0  0  0  0  0  0  0
    0.6894   -0.2456   -0.0304 C   0  0  0  0  0  0  0  0  0  0  0  0
   -0.3545   -1.1283    0.3455 C   0  0  0  0  0  0  0  0  0  0  0  0
   -1.6566   -0.6840    0.2989 C   0  0  0  0  0  0  0  0  0  0  0  0
   -1.9261    5.5800    0.2664 H   0  0  0  0  0  0  0  0  0  0  0  0
    1.2904    1.6741   -0.7174 H   0  0  0  0  0  0  0  0  0  0  0  0
    1.7144   -0.6112    0.0113 H   0  0  0  0  0  0  0  0  0  0  0  0
   -0.1290   -2.1402    0.6658 H   0  0  0  0  0  0  0  0  0  0  0  0
   -2.4991   -1.3130    0.5737 H   0  0  0  0  0  0  0  0  0  0  0  0
   -4.0235    5.4480    0.7114 S   0  0  0  0  0  0  0  0  0  0  0  0
   -4.6970    5.0366   -0.9789 C   0  0  0  0  0  0  0  0  0  0  0  0
   -3.6819    4.1861    1.3526 O   0  0  0  0  0  0  0  0  0  0  0  0
   -4.9018    6.4353    1.3025 O   0  0  0  0  0  0  0  0  0  0  0  0
   -2.6623    6.2173    0.2721 O   0  0  0  0  0  0  0  0  0  0  0  0
   -3.8027    4.2965   -1.6383 F   0  0  0  0  0  0  0  0  0  0  0  0
   -5.8226    4.3417   -0.8229 F   0  0  0  0  0  0  0  0  0  0  0  0
   -4.9440    6.1526   -1.6559 F   0  0  0  0  0  0  0  0  0  0  0  0
  1  8  2  0  0  0  0
  2  1  1  0  0  0  0
  3  2  1  0  0  0  0
  4  5  2  0  0  0  0
  4  1  1  0  0  0  0
  5  6  1  0  0  0  0
  6 11  1  0  0  0  0
  6  7  2  0  0  0  0
  7 12  1  0  0  0  0
  8  7  1  0  0  0  0
  8 13  1  0  0  0  0
  9 18  1  0  0  0  0
 10  5  1  0  0  0  0
 14 17  2  0  0  0  0
 14 16  2  0  0  0  0
 15 20  1  0  0  0  0
 15 14  1  0  0  0  0
 18 14  1  0  0  0  0
 19 15  1  0  0  0  0
 21 15  1  0  0  0  0
M  RAD  3   2   2   3   3   4   2
M  END
