Coordinates from ORCA-job PhN2+~TfO-_B3LYPG-6-31G_dp-CH-Scan-d09-49-n800
 OpenBabel11261919123D

 21 20  0  0  0  0  0  0  0  0999 V2000
   -2.0310    0.8093    0.1326 C   0  0  0  0  0  0  0  0  0  0  0  0
   -3.3870    1.0773    0.2444 N   0  0  0  0  0  0  0  0  0  0  0  0
   -4.4704    1.3369    0.3246 N   0  0  0  0  0  0  0  0  0  0  0  0
   -1.2186    1.9507   -0.0071 C   0  0  0  0  0  0  0  0  0  0  0  0
    0.1441    1.5750   -0.1218 C   0  0  0  0  0  0  0  0  0  0  0  0
    0.5845    0.2543   -0.0973 C   0  0  0  0  0  0  0  0  0  0  0  0
   -0.3176   -0.8246    0.0476 C   0  0  0  0  0  0  0  0  0  0  0  0
   -1.6645   -0.5633    0.1670 C   0  0  0  0  0  0  0  0  0  0  0  0
   -1.8928    4.0614    0.0536 H   0  0  0  0  0  0  0  0  0  0  0  0
    0.8932    2.3571   -0.2356 H   0  0  0  0  0  0  0  0  0  0  0  0
    1.6463    0.0355   -0.1916 H   0  0  0  0  0  0  0  0  0  0  0  0
    0.0454   -1.8469    0.0653 H   0  0  0  0  0  0  0  0  0  0  0  0
   -2.4014   -1.3528    0.2817 H   0  0  0  0  0  0  0  0  0  0  0  0
   -3.6850    5.1554    0.5718 S   0  0  0  0  0  0  0  0  0  0  0  0
   -4.5873    4.9876   -1.0479 C   0  0  0  0  0  0  0  0  0  0  0  0
   -4.0713    3.9894    1.3620 O   0  0  0  0  0  0  0  0  0  0  0  0
   -3.8930    6.5126    1.0372 O   0  0  0  0  0  0  0  0  0  0  0  0
   -2.1813    5.0224    0.0641 O   0  0  0  0  0  0  0  0  0  0  0  0
   -4.3176    3.7855   -1.5802 F   0  0  0  0  0  0  0  0  0  0  0  0
   -5.8988    5.0817   -0.8267 F   0  0  0  0  0  0  0  0  0  0  0  0
   -4.2087    5.9383   -1.8975 F   0  0  0  0  0  0  0  0  0  0  0  0
  1  8  1  0  0  0  0
  1  2  1  0  0  0  0
  2  3  1  0  0  0  0
  4  1  2  0  0  0  0
  5  6  2  0  0  0  0
  5  4  1  0  0  0  0
  6  7  1  0  0  0  0
  7 12  1  0  0  0  0
  7  8  2  0  0  0  0
  8 13  1  0  0  0  0
  9 18  1  0  0  0  0
 10  5  1  0  0  0  0
 11  6  1  0  0  0  0
 14 17  2  0  0  0  0
 14 16  2  0  0  0  0
 15 20  1  0  0  0  0
 15 14  1  0  0  0  0
 18 14  1  0  0  0  0
 19 15  1  0  0  0  0
 21 15  1  0  0  0  0
M  RAD  3   2   2   3   3   4   2
M  END
