Coordinates from ORCA-job PhN2+~TfO-_B3LYPG-6-31G_dp-CH-Scan-d09-49-n800
 OpenBabel11261919123D

 21 20  0  0  0  0  0  0  0  0999 V2000
   -2.0905    0.8738    0.0760 C   0  0  0  0  0  0  0  0  0  0  0  0
   -3.4568    1.0999    0.1151 N   0  0  0  0  0  0  0  0  0  0  0  0
   -4.5499    1.3222    0.1385 N   0  0  0  0  0  0  0  0  0  0  0  0
   -1.2895    2.0235   -0.0641 C   0  0  0  0  0  0  0  0  0  0  0  0
    0.0834    1.6904   -0.1021 C   0  0  0  0  0  0  0  0  0  0  0  0
    0.5558    0.3828   -0.0101 C   0  0  0  0  0  0  0  0  0  0  0  0
   -0.3253   -0.7112    0.1287 C   0  0  0  0  0  0  0  0  0  0  0  0
   -1.6837   -0.4821    0.1740 C   0  0  0  0  0  0  0  0  0  0  0  0
   -1.8535    3.6648   -0.1048 H   0  0  0  0  0  0  0  0  0  0  0  0
    0.8100    2.4936   -0.2061 H   0  0  0  0  0  0  0  0  0  0  0  0
    1.6259    0.1908   -0.0449 H   0  0  0  0  0  0  0  0  0  0  0  0
    0.0600   -1.7228    0.2003 H   0  0  0  0  0  0  0  0  0  0  0  0
   -2.4038   -1.2874    0.2806 H   0  0  0  0  0  0  0  0  0  0  0  0
   -3.5189    4.9844    0.5303 S   0  0  0  0  0  0  0  0  0  0  0  0
   -4.6028    4.9984   -0.9804 C   0  0  0  0  0  0  0  0  0  0  0  0
   -3.9715    3.8288    1.3111 O   0  0  0  0  0  0  0  0  0  0  0  0
   -3.5602    6.3274    1.0833 O   0  0  0  0  0  0  0  0  0  0  0  0
   -2.1268    4.7043   -0.1323 O   0  0  0  0  0  0  0  0  0  0  0  0
   -4.5394    3.7961   -1.5832 F   0  0  0  0  0  0  0  0  0  0  0  0
   -5.8668    5.2313   -0.6212 F   0  0  0  0  0  0  0  0  0  0  0  0
   -4.2086    5.9338   -1.8423 F   0  0  0  0  0  0  0  0  0  0  0  0
  1  2  1  0  0  0  0
  1  8  2  0  0  0  0
  2  3  1  0  0  0  0
  4  1  1  0  0  0  0
  5  4  2  0  0  0  0
  5  6  1  0  0  0  0
  6  7  2  0  0  0  0
  7  8  1  0  0  0  0
  7 12  1  0  0  0  0
  8 13  1  0  0  0  0
 10  5  1  0  0  0  0
 11  6  1  0  0  0  0
 14 17  2  0  0  0  0
 14 16  2  0  0  0  0
 15 20  1  0  0  0  0
 15 14  1  0  0  0  0
 18  9  1  0  0  0  0
 18 14  1  0  0  0  0
 19 15  1  0  0  0  0
 21 15  1  0  0  0  0
M  RAD  3   2   2   3   3   4   2
M  END
