Coordinates from ORCA-job PhN2+~TfO-_B3LYPG-6-31G_dp-CH-Scan-d09-49-n800
 OpenBabel11261919123D

 21 20  0  0  0  0  0  0  0  0999 V2000
   -1.8020    0.6533   -0.1478 C   0  0  0  0  0  0  0  0  0  0  0  0
   -3.1034    1.1487   -0.2237 N   0  0  0  0  0  0  0  0  0  0  0  0
   -4.1151    1.6163   -0.3264 N   0  0  0  0  0  0  0  0  0  0  0  0
   -0.8563    1.6006   -0.5666 C   0  0  0  0  0  0  0  0  0  0  0  0
    0.4455    1.0264   -0.4788 C   0  0  0  0  0  0  0  0  0  0  0  0
    0.6946   -0.2687   -0.0363 C   0  0  0  0  0  0  0  0  0  0  0  0
   -0.3537   -1.1345    0.3663 C   0  0  0  0  0  0  0  0  0  0  0  0
   -1.6528   -0.6817    0.3166 C   0  0  0  0  0  0  0  0  0  0  0  0
   -1.9465    5.6398    0.3083 H   0  0  0  0  0  0  0  0  0  0  0  0
    1.3058    1.6297   -0.7717 H   0  0  0  0  0  0  0  0  0  0  0  0
    1.7171   -0.6410    0.0082 H   0  0  0  0  0  0  0  0  0  0  0  0
   -0.1338   -2.1402    0.7089 H   0  0  0  0  0  0  0  0  0  0  0  0
   -2.4983   -1.2975    0.6111 H   0  0  0  0  0  0  0  0  0  0  0  0
   -4.0464    5.4562    0.7203 S   0  0  0  0  0  0  0  0  0  0  0  0
   -4.6940    5.0448   -0.9802 C   0  0  0  0  0  0  0  0  0  0  0  0
   -3.6812    4.1973    1.3546 O   0  0  0  0  0  0  0  0  0  0  0  0
   -4.9524    6.4182    1.3111 O   0  0  0  0  0  0  0  0  0  0  0  0
   -2.6979    6.2589    0.3001 O   0  0  0  0  0  0  0  0  0  0  0  0
   -3.7820    4.3208   -1.6327 F   0  0  0  0  0  0  0  0  0  0  0  0
   -5.8119    4.3340   -0.8412 F   0  0  0  0  0  0  0  0  0  0  0  0
   -4.9483    6.1614   -1.6535 F   0  0  0  0  0  0  0  0  0  0  0  0
  1  8  2  0  0  0  0
  2  1  1  0  0  0  0
  3  2  1  0  0  0  0
  4  5  2  0  0  0  0
  4  1  1  0  0  0  0
  5  6  1  0  0  0  0
  6 11  1  0  0  0  0
  6  7  2  0  0  0  0
  7 12  1  0  0  0  0
  8  7  1  0  0  0  0
  8 13  1  0  0  0  0
 10  5  1  0  0  0  0
 14 17  2  0  0  0  0
 14 16  2  0  0  0  0
 15 20  1  0  0  0  0
 15 14  1  0  0  0  0
 18  9  1  0  0  0  0
 18 14  1  0  0  0  0
 19 15  1  0  0  0  0
 21 15  1  0  0  0  0
M  RAD  3   2   2   3   3   4   2
M  END
