Coordinates from ORCA-job PhN2+~TfO-_B3LYPG-6-31G_dp-CH-Scan-d09-49-n800
 OpenBabel11261919123D

 21 20  0  0  0  0  0  0  0  0999 V2000
   -1.8083    0.6472    0.0457 C   0  0  0  0  0  0  0  0  0  0  0  0
   -3.1311    1.0769    0.0928 N   0  0  0  0  0  0  0  0  0  0  0  0
   -4.1740    1.4820    0.1107 N   0  0  0  0  0  0  0  0  0  0  0  0
   -0.9010    1.7028   -0.1434 C   0  0  0  0  0  0  0  0  0  0  0  0
    0.4228    1.1795   -0.1926 C   0  0  0  0  0  0  0  0  0  0  0  0
    0.7293   -0.1715   -0.0646 C   0  0  0  0  0  0  0  0  0  0  0  0
   -0.2782   -1.1496    0.1257 C   0  0  0  0  0  0  0  0  0  0  0  0
   -1.5947   -0.7523    0.1849 C   0  0  0  0  0  0  0  0  0  0  0  0
   -1.9414    5.0783    0.1367 H   0  0  0  0  0  0  0  0  0  0  0  0
    1.2540    1.8705   -0.3373 H   0  0  0  0  0  0  0  0  0  0  0  0
    1.7664   -0.5002   -0.1098 H   0  0  0  0  0  0  0  0  0  0  0  0
   -0.0148   -2.1977    0.2247 H   0  0  0  0  0  0  0  0  0  0  0  0
   -2.4107   -1.4555    0.3287 H   0  0  0  0  0  0  0  0  0  0  0  0
   -3.9932    5.4987    0.6133 S   0  0  0  0  0  0  0  0  0  0  0  0
   -4.8015    5.1221   -1.0245 C   0  0  0  0  0  0  0  0  0  0  0  0
   -3.9551    4.2496    1.3615 O   0  0  0  0  0  0  0  0  0  0  0  0
   -4.5902    6.7160    1.1210 O   0  0  0  0  0  0  0  0  0  0  0  0
   -2.5050    5.8723    0.0945 O   0  0  0  0  0  0  0  0  0  0  0  0
   -4.1886    4.0757   -1.5868 F   0  0  0  0  0  0  0  0  0  0  0  0
   -6.0801    4.8226   -0.8043 F   0  0  0  0  0  0  0  0  0  0  0  0
   -4.7172    6.1752   -1.8304 F   0  0  0  0  0  0  0  0  0  0  0  0
  1  2  1  0  0  0  0
  1  8  2  0  0  0  0
  2  3  1  0  0  0  0
  4  1  1  0  0  0  0
  5  4  2  0  0  0  0
  5  6  1  0  0  0  0
  6  7  2  0  0  0  0
  7  8  1  0  0  0  0
  7 12  1  0  0  0  0
  8 13  1  0  0  0  0
 10  5  1  0  0  0  0
 11  6  1  0  0  0  0
 14 17  2  0  0  0  0
 14 16  2  0  0  0  0
 15 20  1  0  0  0  0
 15 14  1  0  0  0  0
 18  9  1  0  0  0  0
 18 14  1  0  0  0  0
 19 15  1  0  0  0  0
 21 15  1  0  0  0  0
M  RAD  3   2   2   3   3   4   2
M  END
