Coordinates from ORCA-job PhN2+~TfO-_B3LYPG-6-31G_dp-CH-Scan-d09-49-n800
 OpenBabel11261919123D

 21 20  0  0  0  0  0  0  0  0999 V2000
   -1.9369    0.9254   -0.0310 C   0  0  0  0  0  0  0  0  0  0  0  0
   -3.2774    1.2661   -0.1471 N   0  0  0  0  0  0  0  0  0  0  0  0
   -4.3025    1.7207   -0.1499 N   0  0  0  0  0  0  0  0  0  0  0  0
   -0.9954    1.9648   -0.0703 C   0  0  0  0  0  0  0  0  0  0  0  0
    0.3422    1.5987    0.0562 C   0  0  0  0  0  0  0  0  0  0  0  0
    0.7007    0.2573    0.2187 C   0  0  0  0  0  0  0  0  0  0  0  0
   -0.2689   -0.7557    0.2477 C   0  0  0  0  0  0  0  0  0  0  0  0
   -1.6116   -0.4348    0.1136 C   0  0  0  0  0  0  0  0  0  0  0  0
   -1.3990    3.1044   -0.2374 H   0  0  0  0  0  0  0  0  0  0  0  0
    1.1063    2.3683    0.0297 H   0  0  0  0  0  0  0  0  0  0  0  0
    1.7486   -0.0085    0.3223 H   0  0  0  0  0  0  0  0  0  0  0  0
    0.0262   -1.7918    0.3734 H   0  0  0  0  0  0  0  0  0  0  0  0
   -2.3875   -1.1920    0.1298 H   0  0  0  0  0  0  0  0  0  0  0  0
   -3.5768    4.8324    0.2625 S   0  0  0  0  0  0  0  0  0  0  0  0
   -5.0146    5.2688   -0.8279 C   0  0  0  0  0  0  0  0  0  0  0  0
   -4.1002    3.6656    1.0525 O   0  0  0  0  0  0  0  0  0  0  0  0
   -3.2933    6.0339    1.0493 O   0  0  0  0  0  0  0  0  0  0  0  0
   -2.5376    4.4155   -0.7260 O   0  0  0  0  0  0  0  0  0  0  0  0
   -5.3717    4.1965   -1.5642 F   0  0  0  0  0  0  0  0  0  0  0  0
   -6.0682    5.6429   -0.0935 F   0  0  0  0  0  0  0  0  0  0  0  0
   -4.6952    6.2643   -1.6620 F   0  0  0  0  0  0  0  0  0  0  0  0
  1  8  1  0  0  0  0
  2  1  1  0  0  0  0
  3  2  1  0  0  0  0
  4  1  2  0  0  0  0
  4  5  1  0  0  0  0
  5  6  2  0  0  0  0
  6  7  1  0  0  0  0
  6 11  1  0  0  0  0
  7 12  1  0  0  0  0
  8 13  1  0  0  0  0
  8  7  2  0  0  0  0
  9  4  1  0  0  0  0
 10  5  1  0  0  0  0
 14 17  2  0  0  0  0
 14 16  1  0  0  0  0
 15 20  1  0  0  0  0
 15 14  1  0  0  0  0
 18 14  2  0  0  0  0
 19 15  1  0  0  0  0
 21 15  1  0  0  0  0
M  RAD  3   2   2   3   3  16   2
M  END
