Coordinates from ORCA-job PhN2+~TfO-_B3LYPG-6-31G_dp-CH-Scan-d09-49-n800
 OpenBabel11261919123D

 21 20  0  0  0  0  0  0  0  0999 V2000
   -2.0234    0.8029    0.1354 C   0  0  0  0  0  0  0  0  0  0  0  0
   -3.3782    1.0760    0.2502 N   0  0  0  0  0  0  0  0  0  0  0  0
   -4.4609    1.3385    0.3324 N   0  0  0  0  0  0  0  0  0  0  0  0
   -1.2084    1.9421   -0.0049 C   0  0  0  0  0  0  0  0  0  0  0  0
    0.1530    1.5621   -0.1231 C   0  0  0  0  0  0  0  0  0  0  0  0
    0.5893    0.2400   -0.1012 C   0  0  0  0  0  0  0  0  0  0  0  0
   -0.3160   -0.8364    0.0447 C   0  0  0  0  0  0  0  0  0  0  0  0
   -1.6618   -0.5712    0.1675 C   0  0  0  0  0  0  0  0  0  0  0  0
   -1.8958    4.0958    0.0614 H   0  0  0  0  0  0  0  0  0  0  0  0
    0.9046    2.3417   -0.2379 H   0  0  0  0  0  0  0  0  0  0  0  0
    1.6501    0.0177   -0.1983 H   0  0  0  0  0  0  0  0  0  0  0  0
    0.0440   -1.8598    0.0603 H   0  0  0  0  0  0  0  0  0  0  0  0
   -2.4009   -1.3584    0.2831 H   0  0  0  0  0  0  0  0  0  0  0  0
   -3.6994    5.1700    0.5732 S   0  0  0  0  0  0  0  0  0  0  0  0
   -4.5914    4.9919   -1.0512 C   0  0  0  0  0  0  0  0  0  0  0  0
   -4.0774    4.0009    1.3624 O   0  0  0  0  0  0  0  0  0  0  0  0
   -3.9208    6.5257    1.0362 O   0  0  0  0  0  0  0  0  0  0  0  0
   -2.1905    5.0520    0.0728 O   0  0  0  0  0  0  0  0  0  0  0  0
   -4.3057    3.7927   -1.5811 F   0  0  0  0  0  0  0  0  0  0  0  0
   -5.9048    5.0721   -0.8364 F   0  0  0  0  0  0  0  0  0  0  0  0
   -4.2185    5.9464   -1.8990 F   0  0  0  0  0  0  0  0  0  0  0  0
  1  8  1  0  0  0  0
  1  2  1  0  0  0  0
  2  3  1  0  0  0  0
  4  1  2  0  0  0  0
  5  6  2  0  0  0  0
  5  4  1  0  0  0  0
  6  7  1  0  0  0  0
  7 12  1  0  0  0  0
  7  8  2  0  0  0  0
  8 13  1  0  0  0  0
  9 18  1  0  0  0  0
 10  5  1  0  0  0  0
 11  6  1  0  0  0  0
 14 17  2  0  0  0  0
 14 16  2  0  0  0  0
 15 20  1  0  0  0  0
 15 14  1  0  0  0  0
 18 14  1  0  0  0  0
 19 15  1  0  0  0  0
 21 15  1  0  0  0  0
M  RAD  3   2   2   3   3   4   2
M  END
