Coordinates from ORCA-job PhN2+~TfO-_B3LYPG-6-31G_dp-CH-Scan-d09-49-n800
 OpenBabel11261919123D

 21 20  0  0  0  0  0  0  0  0999 V2000
   -1.9296    0.7308    0.1179 C   0  0  0  0  0  0  0  0  0  0  0  0
   -3.2723    1.0690    0.2237 N   0  0  0  0  0  0  0  0  0  0  0  0
   -4.3408    1.3896    0.2984 N   0  0  0  0  0  0  0  0  0  0  0  0
   -1.0764    1.8396   -0.0268 C   0  0  0  0  0  0  0  0  0  0  0  0
    0.2706    1.3987   -0.1354 C   0  0  0  0  0  0  0  0  0  0  0  0
    0.6525    0.0608   -0.0997 C   0  0  0  0  0  0  0  0  0  0  0  0
   -0.2963   -0.9790    0.0504 C   0  0  0  0  0  0  0  0  0  0  0  0
   -1.6304   -0.6590    0.1639 C   0  0  0  0  0  0  0  0  0  0  0  0
   -1.9082    4.5175    0.1089 H   0  0  0  0  0  0  0  0  0  0  0  0
    1.0570    2.1438   -0.2534 H   0  0  0  0  0  0  0  0  0  0  0  0
    1.7041   -0.2060   -0.1889 H   0  0  0  0  0  0  0  0  0  0  0  0
    0.0237   -2.0155    0.0764 H   0  0  0  0  0  0  0  0  0  0  0  0
   -2.4023   -1.4143    0.2818 H   0  0  0  0  0  0  0  0  0  0  0  0
   -3.8412    5.3308    0.5868 S   0  0  0  0  0  0  0  0  0  0  0  0
   -4.6798    5.0462   -1.0531 C   0  0  0  0  0  0  0  0  0  0  0  0
   -4.0598    4.1218    1.3716 O   0  0  0  0  0  0  0  0  0  0  0  0
   -4.2238    6.6502    1.0452 O   0  0  0  0  0  0  0  0  0  0  0  0
   -2.3107    5.4129    0.0972 O   0  0  0  0  0  0  0  0  0  0  0  0
   -4.2428    3.8934   -1.5754 F   0  0  0  0  0  0  0  0  0  0  0  0
   -5.9946    4.9688   -0.8520 F   0  0  0  0  0  0  0  0  0  0  0  0
   -4.4116    6.0425   -1.8910 F   0  0  0  0  0  0  0  0  0  0  0  0
  1  8  1  0  0  0  0
  1  2  1  0  0  0  0
  2  3  1  0  0  0  0
  4  1  2  0  0  0  0
  5  6  2  0  0  0  0
  5  4  1  0  0  0  0
  6  7  1  0  0  0  0
  7 12  1  0  0  0  0
  7  8  2  0  0  0  0
  8 13  1  0  0  0  0
 10  5  1  0  0  0  0
 11  6  1  0  0  0  0
 14 17  2  0  0  0  0
 14 16  2  0  0  0  0
 15 20  1  0  0  0  0
 15 14  1  0  0  0  0
 18  9  1  0  0  0  0
 18 14  1  0  0  0  0
 19 15  1  0  0  0  0
 21 15  1  0  0  0  0
M  RAD  3   2   2   3   3   4   2
M  END
