Coordinates from ORCA-job PhN2+~TfO-_B3LYPG-6-31G_dp-CH-Scan-d09-49-n800
 OpenBabel11261919123D

 21 20  0  0  0  0  0  0  0  0999 V2000
   -1.8548    0.6805    0.0644 C   0  0  0  0  0  0  0  0  0  0  0  0
   -3.1869    1.0749    0.1216 N   0  0  0  0  0  0  0  0  0  0  0  0
   -4.2416    1.4466    0.1501 N   0  0  0  0  0  0  0  0  0  0  0  0
   -0.9671    1.7574   -0.1020 C   0  0  0  0  0  0  0  0  0  0  0  0
    0.3671    1.2656   -0.1609 C   0  0  0  0  0  0  0  0  0  0  0  0
    0.7027   -0.0812   -0.0625 C   0  0  0  0  0  0  0  0  0  0  0  0
   -0.2836   -1.0839    0.1055 C   0  0  0  0  0  0  0  0  0  0  0  0
   -1.6084   -0.7163    0.1728 C   0  0  0  0  0  0  0  0  0  0  0  0
   -1.9185    4.8463    0.0930 H   0  0  0  0  0  0  0  0  0  0  0  0
    1.1824    1.9780   -0.2895 H   0  0  0  0  0  0  0  0  0  0  0  0
    1.7466   -0.3861   -0.1143 H   0  0  0  0  0  0  0  0  0  0  0  0
    0.0017   -2.1281    0.1813 H   0  0  0  0  0  0  0  0  0  0  0  0
   -2.4087   -1.4401    0.3009 H   0  0  0  0  0  0  0  0  0  0  0  0
   -3.9231    5.4297    0.6012 S   0  0  0  0  0  0  0  0  0  0  0  0
   -4.7717    5.0994   -1.0259 C   0  0  0  0  0  0  0  0  0  0  0  0
   -3.9798    4.1873    1.3603 O   0  0  0  0  0  0  0  0  0  0  0  0
   -4.4239    6.6923    1.1025 O   0  0  0  0  0  0  0  0  0  0  0  0
   -2.4183    5.6847    0.0693 O   0  0  0  0  0  0  0  0  0  0  0  0
   -4.2308    4.0146   -1.5911 F   0  0  0  0  0  0  0  0  0  0  0  0
   -6.0644    4.8796   -0.7921 F   0  0  0  0  0  0  0  0  0  0  0  0
   -4.6317    6.1416   -1.8383 F   0  0  0  0  0  0  0  0  0  0  0  0
  1  2  1  0  0  0  0
  1  8  2  0  0  0  0
  2  3  1  0  0  0  0
  4  1  1  0  0  0  0
  5  4  2  0  0  0  0
  5  6  1  0  0  0  0
  6  7  2  0  0  0  0
  7  8  1  0  0  0  0
  7 12  1  0  0  0  0
  8 13  1  0  0  0  0
 10  5  1  0  0  0  0
 11  6  1  0  0  0  0
 14 17  2  0  0  0  0
 14 16  2  0  0  0  0
 15 20  1  0  0  0  0
 15 14  1  0  0  0  0
 18  9  1  0  0  0  0
 18 14  1  0  0  0  0
 19 15  1  0  0  0  0
 21 15  1  0  0  0  0
M  RAD  3   2   2   3   3   4   2
M  END
