Coordinates from ORCA-job PhN2+~TfO-_B3LYPG-6-31G_dp-CH-Scan-d09-49-n800
 OpenBabel11261919123D

 21 20  0  0  0  0  0  0  0  0999 V2000
   -2.0099    0.9015    0.0355 C   0  0  0  0  0  0  0  0  0  0  0  0
   -3.3613    1.2079   -0.0047 N   0  0  0  0  0  0  0  0  0  0  0  0
   -4.3985    1.6245    0.0137 N   0  0  0  0  0  0  0  0  0  0  0  0
   -1.1162    1.9801   -0.0592 C   0  0  0  0  0  0  0  0  0  0  0  0
    0.2379    1.6477   -0.0079 C   0  0  0  0  0  0  0  0  0  0  0  0
    0.6480    0.3191    0.1315 C   0  0  0  0  0  0  0  0  0  0  0  0
   -0.2843   -0.7281    0.2170 C   0  0  0  0  0  0  0  0  0  0  0  0
   -1.6404   -0.4513    0.1643 C   0  0  0  0  0  0  0  0  0  0  0  0
   -1.5898    3.1875   -0.2076 H   0  0  0  0  0  0  0  0  0  0  0  0
    0.9774    2.4389   -0.0770 H   0  0  0  0  0  0  0  0  0  0  0  0
    1.7084    0.0869    0.1729 H   0  0  0  0  0  0  0  0  0  0  0  0
    0.0528   -1.7534    0.3238 H   0  0  0  0  0  0  0  0  0  0  0  0
   -2.3905   -1.2320    0.2274 H   0  0  0  0  0  0  0  0  0  0  0  0
   -3.5198    4.8921    0.3455 S   0  0  0  0  0  0  0  0  0  0  0  0
   -4.8594    5.1646   -0.9113 C   0  0  0  0  0  0  0  0  0  0  0  0
   -4.0202    3.7175    1.1215 O   0  0  0  0  0  0  0  0  0  0  0  0
   -3.4021    6.1500    1.0822 O   0  0  0  0  0  0  0  0  0  0  0  0
   -2.3476    4.5337   -0.5271 O   0  0  0  0  0  0  0  0  0  0  0  0
   -5.0593    4.0295   -1.6166 F   0  0  0  0  0  0  0  0  0  0  0  0
   -6.0097    5.4897   -0.3112 F   0  0  0  0  0  0  0  0  0  0  0  0
   -4.5280    6.1367   -1.7664 F   0  0  0  0  0  0  0  0  0  0  0  0
  1  8  2  0  0  0  0
  2  3  1  0  0  0  0
  2  1  1  0  0  0  0
  4  5  2  0  0  0  0
  4  1  1  0  0  0  0
  5  6  1  0  0  0  0
  6 11  1  0  0  0  0
  6  7  2  0  0  0  0
  7 12  1  0  0  0  0
  8  7  1  0  0  0  0
  8 13  1  0  0  0  0
  9  4  1  0  0  0  0
 10  5  1  0  0  0  0
 14 17  2  0  0  0  0
 14 16  1  0  0  0  0
 15 20  1  0  0  0  0
 15 14  1  0  0  0  0
 18 14  2  0  0  0  0
 19 15  1  0  0  0  0
 21 15  1  0  0  0  0
M  RAD  3   2   2   3   3  16   2
M  END
