Coordinates from ORCA-job PhN2+~TfO-_B3LYPG-6-31G_dp-CH-Scan-d09-49-n800
 OpenBabel11261919123D

 21 20  0  0  0  0  0  0  0  0999 V2000
   -2.0697    0.9118    0.0374 C   0  0  0  0  0  0  0  0  0  0  0  0
   -3.4286    1.1749    0.0140 N   0  0  0  0  0  0  0  0  0  0  0  0
   -4.5010    1.4778    0.0104 N   0  0  0  0  0  0  0  0  0  0  0  0
   -1.2122    2.0183   -0.0856 C   0  0  0  0  0  0  0  0  0  0  0  0
    0.1501    1.6988   -0.0560 C   0  0  0  0  0  0  0  0  0  0  0  0
    0.5919    0.3821    0.0855 C   0  0  0  0  0  0  0  0  0  0  0  0
   -0.3158   -0.6865    0.2018 C   0  0  0  0  0  0  0  0  0  0  0  0
   -1.6754   -0.4372    0.1765 C   0  0  0  0  0  0  0  0  0  0  0  0
   -1.7033    3.2916   -0.2116 H   0  0  0  0  0  0  0  0  0  0  0  0
    0.8765    2.5013   -0.1433 H   0  0  0  0  0  0  0  0  0  0  0  0
    1.6578    0.1721    0.1068 H   0  0  0  0  0  0  0  0  0  0  0  0
    0.0453   -1.7033    0.3120 H   0  0  0  0  0  0  0  0  0  0  0  0
   -2.4093   -1.2311    0.2644 H   0  0  0  0  0  0  0  0  0  0  0  0
   -3.4617    4.8997    0.4251 S   0  0  0  0  0  0  0  0  0  0  0  0
   -4.7301    5.0756   -0.9205 C   0  0  0  0  0  0  0  0  0  0  0  0
   -3.9293    3.7166    1.1879 O   0  0  0  0  0  0  0  0  0  0  0  0
   -3.4293    6.1883    1.1110 O   0  0  0  0  0  0  0  0  0  0  0  0
   -2.2143    4.5843   -0.3834 O   0  0  0  0  0  0  0  0  0  0  0  0
   -4.8347    3.9103   -1.6000 F   0  0  0  0  0  0  0  0  0  0  0  0
   -5.9283    5.3623   -0.4007 F   0  0  0  0  0  0  0  0  0  0  0  0
   -4.3915    6.0350   -1.7851 F   0  0  0  0  0  0  0  0  0  0  0  0
  1  8  2  0  0  0  0
  2  1  1  0  0  0  0
  3  2  1  0  0  0  0
  4  5  2  0  0  0  0
  4  1  1  0  0  0  0
  5  6  1  0  0  0  0
  6 11  1  0  0  0  0
  6  7  2  0  0  0  0
  7 12  1  0  0  0  0
  8  7  1  0  0  0  0
  8 13  1  0  0  0  0
  9  4  1  0  0  0  0
 10  5  1  0  0  0  0
 14 17  2  0  0  0  0
 14 16  1  0  0  0  0
 15 20  1  0  0  0  0
 15 14  1  0  0  0  0
 18 14  2  0  0  0  0
 19 15  1  0  0  0  0
 21 15  1  0  0  0  0
M  RAD  3   2   2   3   3  16   2
M  END
