Coordinates from ORCA-job PhN2+~TfO-_B3LYPG-6-31G_dp-CH-Scan-d09-49-n800
 OpenBabel11261919123D

 21 20  0  0  0  0  0  0  0  0999 V2000
   -2.0788    0.8566    0.0855 C   0  0  0  0  0  0  0  0  0  0  0  0
   -3.4440    1.0885    0.1376 N   0  0  0  0  0  0  0  0  0  0  0  0
   -4.5359    1.3170    0.1709 N   0  0  0  0  0  0  0  0  0  0  0  0
   -1.2793    2.0071   -0.0565 C   0  0  0  0  0  0  0  0  0  0  0  0
    0.0930    1.6673   -0.1073 C   0  0  0  0  0  0  0  0  0  0  0  0
    0.5625    0.3583   -0.0251 C   0  0  0  0  0  0  0  0  0  0  0  0
   -0.3203   -0.7348    0.1165 C   0  0  0  0  0  0  0  0  0  0  0  0
   -1.6773   -0.5022    0.1744 C   0  0  0  0  0  0  0  0  0  0  0  0
   -1.8682    3.7462   -0.0807 H   0  0  0  0  0  0  0  0  0  0  0  0
    0.8232    2.4673   -0.2143 H   0  0  0  0  0  0  0  0  0  0  0  0
    1.6318    0.1633   -0.0700 H   0  0  0  0  0  0  0  0  0  0  0  0
    0.0633   -1.7476    0.1802 H   0  0  0  0  0  0  0  0  0  0  0  0
   -2.3991   -1.3057    0.2837 H   0  0  0  0  0  0  0  0  0  0  0  0
   -3.5505    5.0175    0.5400 S   0  0  0  0  0  0  0  0  0  0  0  0
   -4.6026    5.0028   -0.9937 C   0  0  0  0  0  0  0  0  0  0  0  0
   -3.9924    3.8594    1.3199 O   0  0  0  0  0  0  0  0  0  0  0  0
   -3.6161    6.3644    1.0783 O   0  0  0  0  0  0  0  0  0  0  0  0
   -2.1336    4.7615   -0.0960 O   0  0  0  0  0  0  0  0  0  0  0  0
   -4.5031    3.8001   -1.5881 F   0  0  0  0  0  0  0  0  0  0  0  0
   -5.8769    5.2131   -0.6589 F   0  0  0  0  0  0  0  0  0  0  0  0
   -4.2083    5.9428   -1.8498 F   0  0  0  0  0  0  0  0  0  0  0  0
  1  2  1  0  0  0  0
  1  8  2  0  0  0  0
  2  3  1  0  0  0  0
  4  1  1  0  0  0  0
  5  4  2  0  0  0  0
  5  6  1  0  0  0  0
  6  7  2  0  0  0  0
  7  8  1  0  0  0  0
  7 12  1  0  0  0  0
  8 13  1  0  0  0  0
 10  5  1  0  0  0  0
 11  6  1  0  0  0  0
 14 17  2  0  0  0  0
 14 16  2  0  0  0  0
 15 20  1  0  0  0  0
 15 14  1  0  0  0  0
 18  9  1  0  0  0  0
 18 14  1  0  0  0  0
 19 15  1  0  0  0  0
 21 15  1  0  0  0  0
M  RAD  3   2   2   3   3   4   2
M  END
