Coordinates from ORCA-job PhN2+~TfO-_B3LYPG-6-31G_dp-CH-Scan-d09-49-n800
 OpenBabel11261919123D

 21 20  0  0  0  0  0  0  0  0999 V2000
   -1.9711    0.7620    0.1361 C   0  0  0  0  0  0  0  0  0  0  0  0
   -3.3186    1.0716    0.2565 N   0  0  0  0  0  0  0  0  0  0  0  0
   -4.3932    1.3672    0.3411 N   0  0  0  0  0  0  0  0  0  0  0  0
   -1.1351    1.8852   -0.0043 C   0  0  0  0  0  0  0  0  0  0  0  0
    0.2175    1.4706   -0.1296 C   0  0  0  0  0  0  0  0  0  0  0  0
    0.6227    0.1389   -0.1127 C   0  0  0  0  0  0  0  0  0  0  0  0
   -0.3068   -0.9178    0.0345 C   0  0  0  0  0  0  0  0  0  0  0  0
   -1.6452   -0.6218    0.1639 C   0  0  0  0  0  0  0  0  0  0  0  0
   -1.9017    4.3428    0.1127 H   0  0  0  0  0  0  0  0  0  0  0  0
    0.9888    2.2311   -0.2461 H   0  0  0  0  0  0  0  0  0  0  0  0
    1.6777   -0.1084   -0.2151 H   0  0  0  0  0  0  0  0  0  0  0  0
    0.0304   -1.9490    0.0459 H   0  0  0  0  0  0  0  0  0  0  0  0
   -2.4025   -1.3917    0.2808 H   0  0  0  0  0  0  0  0  0  0  0  0
   -3.7884    5.2687    0.5817 S   0  0  0  0  0  0  0  0  0  0  0  0
   -4.6310    5.0137   -1.0603 C   0  0  0  0  0  0  0  0  0  0  0  0
   -4.0831    4.0802    1.3744 O   0  0  0  0  0  0  0  0  0  0  0  0
   -4.1083    6.6096    1.0272 O   0  0  0  0  0  0  0  0  0  0  0  0
   -2.2568    5.2639    0.1059 O   0  0  0  0  0  0  0  0  0  0  0  0
   -4.2498    3.8351   -1.5710 F   0  0  0  0  0  0  0  0  0  0  0  0
   -5.9498    5.0035   -0.8689 F   0  0  0  0  0  0  0  0  0  0  0  0
   -4.3084    5.9871   -1.9063 F   0  0  0  0  0  0  0  0  0  0  0  0
  1  8  1  0  0  0  0
  1  2  1  0  0  0  0
  2  3  1  0  0  0  0
  4  1  2  0  0  0  0
  5  6  2  0  0  0  0
  5  4  1  0  0  0  0
  6  7  1  0  0  0  0
  7 12  1  0  0  0  0
  7  8  2  0  0  0  0
  8 13  1  0  0  0  0
 10  5  1  0  0  0  0
 11  6  1  0  0  0  0
 14 17  2  0  0  0  0
 14 16  2  0  0  0  0
 15 20  1  0  0  0  0
 15 14  1  0  0  0  0
 18  9  1  0  0  0  0
 18 14  1  0  0  0  0
 19 15  1  0  0  0  0
 21 15  1  0  0  0  0
M  RAD  3   2   2   3   3   4   2
M  END
