Coordinates from ORCA-job PhN2+~TfO-_B3LYPG-6-31G_dp-CH-Scan-d09-49-n800
 OpenBabel11261919123D

 21 20  0  0  0  0  0  0  0  0999 V2000
   -1.8099    0.6582   -0.1389 C   0  0  0  0  0  0  0  0  0  0  0  0
   -3.1136    1.1474   -0.2115 N   0  0  0  0  0  0  0  0  0  0  0  0
   -4.1279    1.6101   -0.3105 N   0  0  0  0  0  0  0  0  0  0  0  0
   -0.8672    1.6167   -0.5392 C   0  0  0  0  0  0  0  0  0  0  0  0
    0.4370    1.0474   -0.4557 C   0  0  0  0  0  0  0  0  0  0  0  0
    0.6910   -0.2531   -0.0324 C   0  0  0  0  0  0  0  0  0  0  0  0
   -0.3542   -1.1303    0.3527 C   0  0  0  0  0  0  0  0  0  0  0  0
   -1.6554   -0.6832    0.3051 C   0  0  0  0  0  0  0  0  0  0  0  0
   -1.9327    5.6000    0.2807 H   0  0  0  0  0  0  0  0  0  0  0  0
    1.2954    1.6595   -0.7362 H   0  0  0  0  0  0  0  0  0  0  0  0
    1.7153   -0.6209    0.0101 H   0  0  0  0  0  0  0  0  0  0  0  0
   -0.1305   -2.1400    0.6807 H   0  0  0  0  0  0  0  0  0  0  0  0
   -2.4989   -1.3078    0.5867 H   0  0  0  0  0  0  0  0  0  0  0  0
   -4.0312    5.4505    0.7144 S   0  0  0  0  0  0  0  0  0  0  0  0
   -4.6957    5.0393   -0.9794 C   0  0  0  0  0  0  0  0  0  0  0  0
   -3.6817    4.1895    1.3531 O   0  0  0  0  0  0  0  0  0  0  0  0
   -4.9189    6.4292    1.3056 O   0  0  0  0  0  0  0  0  0  0  0  0
   -2.6741    6.2312    0.2819 O   0  0  0  0  0  0  0  0  0  0  0  0
   -3.7955    4.3045   -1.6364 F   0  0  0  0  0  0  0  0  0  0  0  0
   -5.8190    4.3392   -0.8294 F   0  0  0  0  0  0  0  0  0  0  0  0
   -4.9449    6.1555   -1.6551 F   0  0  0  0  0  0  0  0  0  0  0  0
  1  8  2  0  0  0  0
  2  1  1  0  0  0  0
  3  2  1  0  0  0  0
  4  5  2  0  0  0  0
  4  1  1  0  0  0  0
  5  6  1  0  0  0  0
  6 11  1  0  0  0  0
  6  7  2  0  0  0  0
  7 12  1  0  0  0  0
  8  7  1  0  0  0  0
  8 13  1  0  0  0  0
  9 18  1  0  0  0  0
 10  5  1  0  0  0  0
 14 17  2  0  0  0  0
 14 16  2  0  0  0  0
 15 20  1  0  0  0  0
 15 14  1  0  0  0  0
 18 14  1  0  0  0  0
 19 15  1  0  0  0  0
 21 15  1  0  0  0  0
M  RAD  3   2   2   3   3   4   2
M  END
