Coordinates from ORCA-job PhN2+~TfO-_B3LYPG-6-31G_dp-CH-Scan-d09-49-n800
 OpenBabel11261919123D

 21 20  0  0  0  0  0  0  0  0999 V2000
   -1.7791    0.6409   -0.1676 C   0  0  0  0  0  0  0  0  0  0  0  0
   -3.0739    1.1531   -0.2504 N   0  0  0  0  0  0  0  0  0  0  0  0
   -4.0791    1.6330   -0.3609 N   0  0  0  0  0  0  0  0  0  0  0  0
   -0.8246    1.5600   -0.6263 C   0  0  0  0  0  0  0  0  0  0  0  0
    0.4702    0.9715   -0.5288 C   0  0  0  0  0  0  0  0  0  0  0  0
    0.7051   -0.3114   -0.0450 C   0  0  0  0  0  0  0  0  0  0  0  0
   -0.3515   -1.1486    0.3948 C   0  0  0  0  0  0  0  0  0  0  0  0
   -1.6447   -0.6796    0.3407 C   0  0  0  0  0  0  0  0  0  0  0  0
   -1.9855    5.7383    0.3695 H   0  0  0  0  0  0  0  0  0  0  0  0
    1.3362    1.5528   -0.8486 H   0  0  0  0  0  0  0  0  0  0  0  0
    1.7228   -0.6964    0.0037 H   0  0  0  0  0  0  0  0  0  0  0  0
   -0.1424   -2.1454    0.7686 H   0  0  0  0  0  0  0  0  0  0  0  0
   -2.4960   -1.2733    0.6626 H   0  0  0  0  0  0  0  0  0  0  0  0
   -4.0851    5.4755    0.7331 S   0  0  0  0  0  0  0  0  0  0  0  0
   -4.6945    5.0601   -0.9807 C   0  0  0  0  0  0  0  0  0  0  0  0
   -3.6820    4.2247    1.3605 O   0  0  0  0  0  0  0  0  0  0  0  0
   -5.0328    6.3985    1.3208 O   0  0  0  0  0  0  0  0  0  0  0  0
   -2.7592    6.3285    0.3381 O   0  0  0  0  0  0  0  0  0  0  0  0
   -3.7543    4.3641   -1.6229 F   0  0  0  0  0  0  0  0  0  0  0  0
   -5.7966    4.3211   -0.8649 F   0  0  0  0  0  0  0  0  0  0  0  0
   -4.9655    6.1754   -1.6498 F   0  0  0  0  0  0  0  0  0  0  0  0
  1  8  2  0  0  0  0
  2  1  1  0  0  0  0
  3  2  1  0  0  0  0
  4  5  2  0  0  0  0
  4  1  1  0  0  0  0
  5  6  1  0  0  0  0
  6 11  1  0  0  0  0
  6  7  2  0  0  0  0
  7 12  1  0  0  0  0
  8  7  1  0  0  0  0
  8 13  1  0  0  0  0
 10  5  1  0  0  0  0
 14 17  2  0  0  0  0
 14 16  2  0  0  0  0
 15 20  1  0  0  0  0
 15 14  1  0  0  0  0
 18  9  1  0  0  0  0
 18 14  1  0  0  0  0
 19 15  1  0  0  0  0
 21 15  1  0  0  0  0
M  RAD  3   2   2   3   3   4   2
M  END
