Coordinates from ORCA-job PhN2+~TfO-_B3LYPG-6-31G_dp-CH-Scan-d09-49-n800
 OpenBabel11261919123D

 21 20  0  0  0  0  0  0  0  0999 V2000
   -1.7672    0.6352   -0.1758 C   0  0  0  0  0  0  0  0  0  0  0  0
   -3.0586    1.1557   -0.2613 N   0  0  0  0  0  0  0  0  0  0  0  0
   -4.0606    1.6417   -0.3748 N   0  0  0  0  0  0  0  0  0  0  0  0
   -0.8081    1.5411   -0.6506 C   0  0  0  0  0  0  0  0  0  0  0  0
    0.4830    0.9452   -0.5491 C   0  0  0  0  0  0  0  0  0  0  0  0
    0.7107   -0.3326   -0.0487 C   0  0  0  0  0  0  0  0  0  0  0  0
   -0.3502   -1.1564    0.4060 C   0  0  0  0  0  0  0  0  0  0  0  0
   -1.6403   -0.6792    0.3501 C   0  0  0  0  0  0  0  0  0  0  0  0
   -2.0054    5.7827    0.3945 H   0  0  0  0  0  0  0  0  0  0  0  0
    1.3519    1.5161   -0.8797 H   0  0  0  0  0  0  0  0  0  0  0  0
    1.7258   -0.7241    0.0016 H   0  0  0  0  0  0  0  0  0  0  0  0
   -0.1468   -2.1496    0.7923 H   0  0  0  0  0  0  0  0  0  0  0  0
   -2.4946   -1.2625    0.6831 H   0  0  0  0  0  0  0  0  0  0  0  0
   -4.1034    5.4863    0.7383 S   0  0  0  0  0  0  0  0  0  0  0  0
   -4.6969    5.0681   -0.9804 C   0  0  0  0  0  0  0  0  0  0  0  0
   -3.6839    4.2400    1.3639 O   0  0  0  0  0  0  0  0  0  0  0  0
   -5.0684    6.3925    1.3240 O   0  0  0  0  0  0  0  0  0  0  0  0
   -2.7880    6.3602    0.3529 O   0  0  0  0  0  0  0  0  0  0  0  0
   -3.7443    4.3851   -1.6182 F   0  0  0  0  0  0  0  0  0  0  0  0
   -5.7907    4.3156   -0.8735 F   0  0  0  0  0  0  0  0  0  0  0  0
   -4.9770    6.1819   -1.6481 F   0  0  0  0  0  0  0  0  0  0  0  0
  1  8  2  0  0  0  0
  2  1  1  0  0  0  0
  3  2  1  0  0  0  0
  4  5  2  0  0  0  0
  4  1  1  0  0  0  0
  5  6  1  0  0  0  0
  6 11  1  0  0  0  0
  6  7  2  0  0  0  0
  7 12  1  0  0  0  0
  8  7  1  0  0  0  0
  8 13  1  0  0  0  0
 10  5  1  0  0  0  0
 14 17  2  0  0  0  0
 14 16  2  0  0  0  0
 15 20  1  0  0  0  0
 15 14  1  0  0  0  0
 18  9  1  0  0  0  0
 18 14  1  0  0  0  0
 19 15  1  0  0  0  0
 21 15  1  0  0  0  0
M  RAD  3   2   2   3   3   4   2
M  END
