Coordinates from ORCA-job PhN2+~TfO-_B3LYPG-6-31G_dp-CH-Scan-d09-49-n800
 OpenBabel11261919123D

 21 20  0  0  0  0  0  0  0  0999 V2000
   -1.9185    0.7227    0.1106 C   0  0  0  0  0  0  0  0  0  0  0  0
   -3.2600    1.0688    0.2099 N   0  0  0  0  0  0  0  0  0  0  0  0
   -4.3267    1.3967    0.2791 N   0  0  0  0  0  0  0  0  0  0  0  0
   -1.0606    1.8274   -0.0364 C   0  0  0  0  0  0  0  0  0  0  0  0
    0.2849    1.3794   -0.1379 C   0  0  0  0  0  0  0  0  0  0  0  0
    0.6605    0.0400   -0.0937 C   0  0  0  0  0  0  0  0  0  0  0  0
   -0.2935   -0.9949    0.0582 C   0  0  0  0  0  0  0  0  0  0  0  0
   -1.6265   -0.6683    0.1649 C   0  0  0  0  0  0  0  0  0  0  0  0
   -1.9097    4.5627    0.1040 H   0  0  0  0  0  0  0  0  0  0  0  0
    1.0754    2.1201   -0.2568 H   0  0  0  0  0  0  0  0  0  0  0  0
    1.7112   -0.2321   -0.1773 H   0  0  0  0  0  0  0  0  0  0  0  0
    0.0219   -2.0327    0.0908 H   0  0  0  0  0  0  0  0  0  0  0  0
   -2.4024   -1.4194    0.2837 H   0  0  0  0  0  0  0  0  0  0  0  0
   -3.8531    5.3451    0.5882 S   0  0  0  0  0  0  0  0  0  0  0  0
   -4.6947    5.0565   -1.0496 C   0  0  0  0  0  0  0  0  0  0  0  0
   -4.0493    4.1296    1.3686 O   0  0  0  0  0  0  0  0  0  0  0  0
   -4.2513    6.6572    1.0542 O   0  0  0  0  0  0  0  0  0  0  0  0
   -2.3252    5.4509    0.0912 O   0  0  0  0  0  0  0  0  0  0  0  0
   -4.2430    3.9132   -1.5796 F   0  0  0  0  0  0  0  0  0  0  0  0
   -6.0072    4.9586   -0.8426 F   0  0  0  0  0  0  0  0  0  0  0  0
   -4.4449    6.0612   -1.8830 F   0  0  0  0  0  0  0  0  0  0  0  0
  1  8  1  0  0  0  0
  1  2  1  0  0  0  0
  2  3  1  0  0  0  0
  4  1  2  0  0  0  0
  5  6  2  0  0  0  0
  5  4  1  0  0  0  0
  6  7  1  0  0  0  0
  7 12  1  0  0  0  0
  7  8  2  0  0  0  0
  8 13  1  0  0  0  0
 10  5  1  0  0  0  0
 11  6  1  0  0  0  0
 14 17  2  0  0  0  0
 14 16  2  0  0  0  0
 15 20  1  0  0  0  0
 15 14  1  0  0  0  0
 18  9  1  0  0  0  0
 18 14  1  0  0  0  0
 19 15  1  0  0  0  0
 21 15  1  0  0  0  0
M  RAD  3   2   2   3   3   4   2
M  END
