Coordinates from ORCA-job PhN2+~TfO-_B3LYPG-6-31G_dp-CH-Scan-d09-49-n800
 OpenBabel11261919123D

 21 20  0  0  0  0  0  0  0  0999 V2000
   -2.0740    0.9139    0.0327 C   0  0  0  0  0  0  0  0  0  0  0  0
   -3.4340    1.1711    0.0047 N   0  0  0  0  0  0  0  0  0  0  0  0
   -4.5112    1.4555   -0.0046 N   0  0  0  0  0  0  0  0  0  0  0  0
   -1.2206    2.0235   -0.0920 C   0  0  0  0  0  0  0  0  0  0  0  0
    0.1425    1.7036   -0.0587 C   0  0  0  0  0  0  0  0  0  0  0  0
    0.5867    0.3885    0.0868 C   0  0  0  0  0  0  0  0  0  0  0  0
   -0.3191   -0.6821    0.2048 C   0  0  0  0  0  0  0  0  0  0  0  0
   -1.6787   -0.4350    0.1766 C   0  0  0  0  0  0  0  0  0  0  0  0
   -1.7151    3.3117   -0.2181 H   0  0  0  0  0  0  0  0  0  0  0  0
    0.8689    2.5064   -0.1463 H   0  0  0  0  0  0  0  0  0  0  0  0
    1.6531    0.1805    0.1105 H   0  0  0  0  0  0  0  0  0  0  0  0
    0.0437   -1.6978    0.3184 H   0  0  0  0  0  0  0  0  0  0  0  0
   -2.4116   -1.2297    0.2654 H   0  0  0  0  0  0  0  0  0  0  0  0
   -3.4539    4.8972    0.4305 S   0  0  0  0  0  0  0  0  0  0  0  0
   -4.7219    5.0683   -0.9162 C   0  0  0  0  0  0  0  0  0  0  0  0
   -3.9157    3.7152    1.1953 O   0  0  0  0  0  0  0  0  0  0  0  0
   -3.4182    6.1889    1.1094 O   0  0  0  0  0  0  0  0  0  0  0  0
   -2.2050    4.5810   -0.3813 O   0  0  0  0  0  0  0  0  0  0  0  0
   -4.8250    3.9010   -1.5920 F   0  0  0  0  0  0  0  0  0  0  0  0
   -5.9199    5.3553   -0.3965 F   0  0  0  0  0  0  0  0  0  0  0  0
   -4.3840    6.0257   -1.7830 F   0  0  0  0  0  0  0  0  0  0  0  0
  1  8  2  0  0  0  0
  2  1  1  0  0  0  0
  3  2  1  0  0  0  0
  4  5  2  0  0  0  0
  4  1  1  0  0  0  0
  5  6  1  0  0  0  0
  6 11  1  0  0  0  0
  6  7  2  0  0  0  0
  7 12  1  0  0  0  0
  8  7  1  0  0  0  0
  8 13  1  0  0  0  0
 10  5  1  0  0  0  0
 14 17  2  0  0  0  0
 14 16  2  0  0  0  0
 15 20  1  0  0  0  0
 15 14  1  0  0  0  0
 18  9  1  0  0  0  0
 18 14  1  0  0  0  0
 19 15  1  0  0  0  0
 21 15  1  0  0  0  0
M  RAD  3   2   2   3   3   4   2
M  END
