Coordinates from ORCA-job PhN2+~TfO-_B3LYPG-6-31G_dp-CH-Scan-d09-49-n800
 OpenBabel11261919123D

 21 20  0  0  0  0  0  0  0  0999 V2000
   -1.7986    0.6405    0.0384 C   0  0  0  0  0  0  0  0  0  0  0  0
   -3.1193    1.0778    0.0813 N   0  0  0  0  0  0  0  0  0  0  0  0
   -4.1599    1.4891    0.0950 N   0  0  0  0  0  0  0  0  0  0  0  0
   -0.8869    1.6906   -0.1584 C   0  0  0  0  0  0  0  0  0  0  0  0
    0.4345    1.1604   -0.2027 C   0  0  0  0  0  0  0  0  0  0  0  0
    0.7346   -0.1910   -0.0636 C   0  0  0  0  0  0  0  0  0  0  0  0
   -0.2777   -1.1628    0.1338 C   0  0  0  0  0  0  0  0  0  0  0  0
   -1.5923   -0.7589    0.1888 C   0  0  0  0  0  0  0  0  0  0  0  0
   -1.9464    5.1317    0.1463 H   0  0  0  0  0  0  0  0  0  0  0  0
    1.2692    1.8462   -0.3524 H   0  0  0  0  0  0  0  0  0  0  0  0
    1.7702   -0.5249   -0.1052 H   0  0  0  0  0  0  0  0  0  0  0  0
   -0.0192   -2.2113    0.2415 H   0  0  0  0  0  0  0  0  0  0  0  0
   -2.4119   -1.4570    0.3375 H   0  0  0  0  0  0  0  0  0  0  0  0
   -4.0073    5.5117    0.6170 S   0  0  0  0  0  0  0  0  0  0  0  0
   -4.8073    5.1269   -1.0230 C   0  0  0  0  0  0  0  0  0  0  0  0
   -3.9457    4.2609    1.3608 O   0  0  0  0  0  0  0  0  0  0  0  0
   -4.6266    6.7161    1.1286 O   0  0  0  0  0  0  0  0  0  0  0  0
   -2.5252    5.9143    0.1006 O   0  0  0  0  0  0  0  0  0  0  0  0
   -4.1780    4.0914   -1.5870 F   0  0  0  0  0  0  0  0  0  0  0  0
   -6.0815    4.8078   -0.8052 F   0  0  0  0  0  0  0  0  0  0  0  0
   -4.7375    6.1835   -1.8258 F   0  0  0  0  0  0  0  0  0  0  0  0
  1  2  1  0  0  0  0
  1  8  2  0  0  0  0
  2  3  1  0  0  0  0
  4  1  1  0  0  0  0
  5  4  2  0  0  0  0
  5  6  1  0  0  0  0
  6  7  2  0  0  0  0
  7  8  1  0  0  0  0
  7 12  1  0  0  0  0
  8 13  1  0  0  0  0
 10  5  1  0  0  0  0
 11  6  1  0  0  0  0
 14 17  2  0  0  0  0
 14 16  2  0  0  0  0
 15 20  1  0  0  0  0
 15 14  1  0  0  0  0
 18  9  1  0  0  0  0
 18 14  1  0  0  0  0
 19 15  1  0  0  0  0
 21 15  1  0  0  0  0
M  RAD  3   2   2   3   3   4   2
M  END
