Coordinates from ORCA-job PhN2+~TfO-_B3LYPG-6-31G_dp-CH-Scan-d09-49-n800
 OpenBabel11261919123D

 21 20  0  0  0  0  0  0  0  0999 V2000
   -1.8069    0.6462    0.0448 C   0  0  0  0  0  0  0  0  0  0  0  0
   -3.1294    1.0770    0.0913 N   0  0  0  0  0  0  0  0  0  0  0  0
   -4.1720    1.4829    0.1086 N   0  0  0  0  0  0  0  0  0  0  0  0
   -0.8989    1.7010   -0.1453 C   0  0  0  0  0  0  0  0  0  0  0  0
    0.4245    1.1767   -0.1940 C   0  0  0  0  0  0  0  0  0  0  0  0
    0.7301   -0.1743   -0.0645 C   0  0  0  0  0  0  0  0  0  0  0  0
   -0.2781   -1.1515    0.1268 C   0  0  0  0  0  0  0  0  0  0  0  0
   -1.5943   -0.7533    0.1854 C   0  0  0  0  0  0  0  0  0  0  0  0
   -1.9421    5.0859    0.1381 H   0  0  0  0  0  0  0  0  0  0  0  0
    1.2562    1.8670   -0.3393 H   0  0  0  0  0  0  0  0  0  0  0  0
    1.7670   -0.5038   -0.1092 H   0  0  0  0  0  0  0  0  0  0  0  0
   -0.0154   -2.1997    0.2269 H   0  0  0  0  0  0  0  0  0  0  0  0
   -2.4109   -1.4557    0.3299 H   0  0  0  0  0  0  0  0  0  0  0  0
   -3.9953    5.5007    0.6138 S   0  0  0  0  0  0  0  0  0  0  0  0
   -4.8024    5.1228   -1.0243 C   0  0  0  0  0  0  0  0  0  0  0  0
   -3.9540    4.2514    1.3615 O   0  0  0  0  0  0  0  0  0  0  0  0
   -4.5955    6.7162    1.1219 O   0  0  0  0  0  0  0  0  0  0  0  0
   -2.5079    5.8783    0.0954 O   0  0  0  0  0  0  0  0  0  0  0  0
   -4.1872    4.0779   -1.5869 F   0  0  0  0  0  0  0  0  0  0  0  0
   -6.0804    4.8206   -0.8045 F   0  0  0  0  0  0  0  0  0  0  0  0
   -4.7200    6.1764   -1.8298 F   0  0  0  0  0  0  0  0  0  0  0  0
  1  2  1  0  0  0  0
  1  8  2  0  0  0  0
  2  3  1  0  0  0  0
  4  1  1  0  0  0  0
  5  4  2  0  0  0  0
  5  6  1  0  0  0  0
  6  7  2  0  0  0  0
  7  8  1  0  0  0  0
  7 12  1  0  0  0  0
  8 13  1  0  0  0  0
 10  5  1  0  0  0  0
 11  6  1  0  0  0  0
 14 17  2  0  0  0  0
 14 16  2  0  0  0  0
 15 20  1  0  0  0  0
 15 14  1  0  0  0  0
 18  9  1  0  0  0  0
 18 14  1  0  0  0  0
 19 15  1  0  0  0  0
 21 15  1  0  0  0  0
M  RAD  3   2   2   3   3   4   2
M  END
