Coordinates from ORCA-job PhN2+~TfO-_B3LYPG-6-31G_dp-CH-Scan-d09-49-n800
 OpenBabel11261919123D

 21 20  0  0  0  0  0  0  0  0999 V2000
   -2.0894    0.8720    0.0772 C   0  0  0  0  0  0  0  0  0  0  0  0
   -3.4557    1.0985    0.1179 N   0  0  0  0  0  0  0  0  0  0  0  0
   -4.5486    1.3213    0.1425 N   0  0  0  0  0  0  0  0  0  0  0  0
   -1.2887    2.0219   -0.0632 C   0  0  0  0  0  0  0  0  0  0  0  0
    0.0841    1.6882   -0.1027 C   0  0  0  0  0  0  0  0  0  0  0  0
    0.5564    0.3805   -0.0118 C   0  0  0  0  0  0  0  0  0  0  0  0
   -0.3247   -0.7135    0.1273 C   0  0  0  0  0  0  0  0  0  0  0  0
   -1.6830   -0.4842    0.1741 C   0  0  0  0  0  0  0  0  0  0  0  0
   -1.8552    3.6730   -0.1021 H   0  0  0  0  0  0  0  0  0  0  0  0
    0.8110    2.4912   -0.2071 H   0  0  0  0  0  0  0  0  0  0  0  0
    1.6264    0.1883   -0.0479 H   0  0  0  0  0  0  0  0  0  0  0  0
    0.0605   -1.7252    0.1980 H   0  0  0  0  0  0  0  0  0  0  0  0
   -2.4032   -1.2894    0.2810 H   0  0  0  0  0  0  0  0  0  0  0  0
   -3.5221    4.9877    0.5314 S   0  0  0  0  0  0  0  0  0  0  0  0
   -4.6025    4.9989   -0.9820 C   0  0  0  0  0  0  0  0  0  0  0  0
   -3.9740    3.8319    1.3120 O   0  0  0  0  0  0  0  0  0  0  0  0
   -3.5657    6.3311    1.0829 O   0  0  0  0  0  0  0  0  0  0  0  0
   -2.1274    4.7097   -0.1283 O   0  0  0  0  0  0  0  0  0  0  0  0
   -4.5353    3.7966   -1.5840 F   0  0  0  0  0  0  0  0  0  0  0  0
   -5.8676    5.2296   -0.6255 F   0  0  0  0  0  0  0  0  0  0  0  0
   -4.2080    5.9349   -1.8432 F   0  0  0  0  0  0  0  0  0  0  0  0
  1  2  1  0  0  0  0
  1  8  2  0  0  0  0
  2  3  1  0  0  0  0
  4  1  1  0  0  0  0
  5  4  2  0  0  0  0
  5  6  1  0  0  0  0
  6  7  2  0  0  0  0
  7  8  1  0  0  0  0
  7 12  1  0  0  0  0
  8 13  1  0  0  0  0
 10  5  1  0  0  0  0
 11  6  1  0  0  0  0
 14 17  2  0  0  0  0
 14 16  2  0  0  0  0
 15 20  1  0  0  0  0
 15 14  1  0  0  0  0
 18  9  1  0  0  0  0
 18 14  1  0  0  0  0
 19 15  1  0  0  0  0
 21 15  1  0  0  0  0
M  RAD  3   2   2   3   3   4   2
M  END
