Coordinates from ORCA-job PhN2+~TfO-_B3LYPG-6-31G_dp-CH-Scan-d09-49-n800
 OpenBabel11261919123D

 21 20  0  0  0  0  0  0  0  0999 V2000
   -1.7609    0.6323   -0.1799 C   0  0  0  0  0  0  0  0  0  0  0  0
   -3.0505    1.1572   -0.2667 N   0  0  0  0  0  0  0  0  0  0  0  0
   -4.0509    1.6464   -0.3816 N   0  0  0  0  0  0  0  0  0  0  0  0
   -0.7995    1.5315   -0.6624 C   0  0  0  0  0  0  0  0  0  0  0  0
    0.4897    0.9317   -0.5590 C   0  0  0  0  0  0  0  0  0  0  0  0
    0.7136   -0.3436   -0.0505 C   0  0  0  0  0  0  0  0  0  0  0  0
   -0.3495   -1.1605    0.4114 C   0  0  0  0  0  0  0  0  0  0  0  0
   -1.6380   -0.6790    0.3546 C   0  0  0  0  0  0  0  0  0  0  0  0
   -2.0157    5.8046    0.4064 H   0  0  0  0  0  0  0  0  0  0  0  0
    1.3601    1.4973   -0.8947 H   0  0  0  0  0  0  0  0  0  0  0  0
    1.7274   -0.7384    0.0007 H   0  0  0  0  0  0  0  0  0  0  0  0
   -0.1490   -2.1519    0.8038 H   0  0  0  0  0  0  0  0  0  0  0  0
   -2.4938   -1.2569    0.6929 H   0  0  0  0  0  0  0  0  0  0  0  0
   -4.1127    5.4919    0.7409 S   0  0  0  0  0  0  0  0  0  0  0  0
   -4.6984    5.0722   -0.9802 C   0  0  0  0  0  0  0  0  0  0  0  0
   -3.6851    4.2478    1.3656 O   0  0  0  0  0  0  0  0  0  0  0  0
   -5.0860    6.3897    1.3255 O   0  0  0  0  0  0  0  0  0  0  0  0
   -2.8026    6.3759    0.3601 O   0  0  0  0  0  0  0  0  0  0  0  0
   -3.7397    4.3960   -1.6159 F   0  0  0  0  0  0  0  0  0  0  0  0
   -5.7879    4.3130   -0.8775 F   0  0  0  0  0  0  0  0  0  0  0  0
   -4.9833    6.1852   -1.6472 F   0  0  0  0  0  0  0  0  0  0  0  0
  1  8  2  0  0  0  0
  2  1  1  0  0  0  0
  3  2  1  0  0  0  0
  4  5  2  0  0  0  0
  4  1  1  0  0  0  0
  5  6  1  0  0  0  0
  6 11  1  0  0  0  0
  6  7  2  0  0  0  0
  7 12  1  0  0  0  0
  8  7  1  0  0  0  0
  8 13  1  0  0  0  0
 10  5  1  0  0  0  0
 14 17  2  0  0  0  0
 14 16  2  0  0  0  0
 15 20  1  0  0  0  0
 15 14  1  0  0  0  0
 18  9  1  0  0  0  0
 18 14  1  0  0  0  0
 19 15  1  0  0  0  0
 21 15  1  0  0  0  0
M  RAD  3   2   2   3   3   4   2
M  END
