Coordinates from ORCA-job PhN2+~TfO-_B3LYPG-6-31G_dp-CH-Scan-d09-49-n800
 OpenBabel11261919123D

 21 20  0  0  0  0  0  0  0  0999 V2000
   -2.0703    0.8457    0.0920 C   0  0  0  0  0  0  0  0  0  0  0  0
   -3.4345    1.0823    0.1526 N   0  0  0  0  0  0  0  0  0  0  0  0
   -4.5254    1.3155    0.1925 N   0  0  0  0  0  0  0  0  0  0  0  0
   -1.2705    1.9959   -0.0512 C   0  0  0  0  0  0  0  0  0  0  0  0
    0.1010    1.6512   -0.1107 C   0  0  0  0  0  0  0  0  0  0  0  0
    0.5675    0.3409   -0.0350 C   0  0  0  0  0  0  0  0  0  0  0  0
   -0.3171   -0.7509    0.1085 C   0  0  0  0  0  0  0  0  0  0  0  0
   -1.6729   -0.5150    0.1750 C   0  0  0  0  0  0  0  0  0  0  0  0
   -1.8761    3.7980   -0.0643 H   0  0  0  0  0  0  0  0  0  0  0  0
    0.8337    2.4487   -0.2198 H   0  0  0  0  0  0  0  0  0  0  0  0
    1.6361    0.1431   -0.0867 H   0  0  0  0  0  0  0  0  0  0  0  0
    0.0646   -1.7647    0.1670 H   0  0  0  0  0  0  0  0  0  0  0  0
   -2.3964   -1.3169    0.2861 H   0  0  0  0  0  0  0  0  0  0  0  0
   -3.5724    5.0396    0.5455 S   0  0  0  0  0  0  0  0  0  0  0  0
   -4.6035    5.0063   -1.0024 C   0  0  0  0  0  0  0  0  0  0  0  0
   -4.0064    3.8791    1.3244 O   0  0  0  0  0  0  0  0  0  0  0  0
   -3.6559    6.3884    1.0755 O   0  0  0  0  0  0  0  0  0  0  0  0
   -2.1402    4.8011   -0.0729 O   0  0  0  0  0  0  0  0  0  0  0  0
   -4.4802    3.8038   -1.5913 F   0  0  0  0  0  0  0  0  0  0  0  0
   -5.8841    5.2013   -0.6836 F   0  0  0  0  0  0  0  0  0  0  0  0
   -4.2097    5.9495   -1.8549 F   0  0  0  0  0  0  0  0  0  0  0  0
  1  2  1  0  0  0  0
  1  8  2  0  0  0  0
  2  3  1  0  0  0  0
  4  1  1  0  0  0  0
  5  4  2  0  0  0  0
  5  6  1  0  0  0  0
  6  7  2  0  0  0  0
  7 12  1  0  0  0  0
  7  8  1  0  0  0  0
  8 13  1  0  0  0  0
 10  5  1  0  0  0  0
 11  6  1  0  0  0  0
 14 17  2  0  0  0  0
 14 16  2  0  0  0  0
 15 20  1  0  0  0  0
 15 14  1  0  0  0  0
 18  9  1  0  0  0  0
 18 14  1  0  0  0  0
 19 15  1  0  0  0  0
 21 15  1  0  0  0  0
M  RAD  3   2   2   3   3   4   2
M  END
