Coordinates from ORCA-job PhN2+~TfO-_B3LYPG-6-31G_dp-CH-Scan-d09-49-n800
 OpenBabel11261919123D

 21 20  0  0  0  0  0  0  0  0999 V2000
   -2.0873    0.8687    0.0791 C   0  0  0  0  0  0  0  0  0  0  0  0
   -3.4533    1.0962    0.1224 N   0  0  0  0  0  0  0  0  0  0  0  0
   -4.5461    1.3201    0.1491 N   0  0  0  0  0  0  0  0  0  0  0  0
   -1.2871    2.0188   -0.0616 C   0  0  0  0  0  0  0  0  0  0  0  0
    0.0857    1.6838   -0.1037 C   0  0  0  0  0  0  0  0  0  0  0  0
    0.5575    0.3759   -0.0150 C   0  0  0  0  0  0  0  0  0  0  0  0
   -0.3239   -0.7181    0.1247 C   0  0  0  0  0  0  0  0  0  0  0  0
   -1.6819   -0.4881    0.1741 C   0  0  0  0  0  0  0  0  0  0  0  0
   -1.8583    3.6896   -0.0971 H   0  0  0  0  0  0  0  0  0  0  0  0
    0.8133    2.4862   -0.2087 H   0  0  0  0  0  0  0  0  0  0  0  0
    1.6274    0.1832   -0.0530 H   0  0  0  0  0  0  0  0  0  0  0  0
    0.0611   -1.7299    0.1936 H   0  0  0  0  0  0  0  0  0  0  0  0
   -2.4023   -1.2930    0.2814 H   0  0  0  0  0  0  0  0  0  0  0  0
   -3.5282    4.9943    0.5335 S   0  0  0  0  0  0  0  0  0  0  0  0
   -4.6021    4.9993   -0.9847 C   0  0  0  0  0  0  0  0  0  0  0  0
   -3.9781    3.8382    1.3142 O   0  0  0  0  0  0  0  0  0  0  0  0
   -3.5767    6.3386    1.0816 O   0  0  0  0  0  0  0  0  0  0  0  0
   -2.1283    4.7210   -0.1206 O   0  0  0  0  0  0  0  0  0  0  0  0
   -4.5275    3.7967   -1.5848 F   0  0  0  0  0  0  0  0  0  0  0  0
   -5.8694    5.2254   -0.6333 F   0  0  0  0  0  0  0  0  0  0  0  0
   -4.2074    5.9360   -1.8448 F   0  0  0  0  0  0  0  0  0  0  0  0
  1  2  1  0  0  0  0
  1  8  2  0  0  0  0
  2  3  1  0  0  0  0
  4  1  1  0  0  0  0
  5  4  2  0  0  0  0
  5  6  1  0  0  0  0
  6  7  2  0  0  0  0
  7  8  1  0  0  0  0
  7 12  1  0  0  0  0
  8 13  1  0  0  0  0
 10  5  1  0  0  0  0
 11  6  1  0  0  0  0
 14 17  2  0  0  0  0
 14 16  2  0  0  0  0
 15 20  1  0  0  0  0
 15 14  1  0  0  0  0
 18  9  1  0  0  0  0
 18 14  1  0  0  0  0
 19 15  1  0  0  0  0
 21 15  1  0  0  0  0
M  RAD  3   2   2   3   3   4   2
M  END
