Coordinates from ORCA-job PhN2+~TfO-_B3LYPG-6-31G_dp-CH-Scan-d09-49-n800
 OpenBabel11261919123D

 21 20  0  0  0  0  0  0  0  0999 V2000
   -2.0943    0.8811    0.0705 C   0  0  0  0  0  0  0  0  0  0  0  0
   -3.4612    1.1046    0.1014 N   0  0  0  0  0  0  0  0  0  0  0  0
   -4.5547    1.3242    0.1187 N   0  0  0  0  0  0  0  0  0  0  0  0
   -1.2916    2.0293   -0.0698 C   0  0  0  0  0  0  0  0  0  0  0  0
    0.0813    1.6997   -0.0996 C   0  0  0  0  0  0  0  0  0  0  0  0
    0.5547    0.3929   -0.0002 C   0  0  0  0  0  0  0  0  0  0  0  0
   -0.3261   -0.7010    0.1382 C   0  0  0  0  0  0  0  0  0  0  0  0
   -1.6853   -0.4733    0.1755 C   0  0  0  0  0  0  0  0  0  0  0  0
   -1.8452    3.6209   -0.1210 H   0  0  0  0  0  0  0  0  0  0  0  0
    0.8062    2.5045   -0.2028 H   0  0  0  0  0  0  0  0  0  0  0  0
    1.6251    0.2020   -0.0287 H   0  0  0  0  0  0  0  0  0  0  0  0
    0.0596   -1.7119    0.2157 H   0  0  0  0  0  0  0  0  0  0  0  0
   -2.4047   -1.2791    0.2814 H   0  0  0  0  0  0  0  0  0  0  0  0
   -3.5038    4.9672    0.5230 S   0  0  0  0  0  0  0  0  0  0  0  0
   -4.6075    5.0023   -0.9727 C   0  0  0  0  0  0  0  0  0  0  0  0
   -3.9613    3.8106    1.3016 O   0  0  0  0  0  0  0  0  0  0  0  0
   -3.5314    6.3058    1.0888 O   0  0  0  0  0  0  0  0  0  0  0  0
   -2.1274    4.6760   -0.1572 O   0  0  0  0  0  0  0  0  0  0  0  0
   -4.5659    3.8024   -1.5836 F   0  0  0  0  0  0  0  0  0  0  0  0
   -5.8647    5.2470   -0.5972 F   0  0  0  0  0  0  0  0  0  0  0  0
   -4.2145    5.9377   -1.8356 F   0  0  0  0  0  0  0  0  0  0  0  0
  1  2  1  0  0  0  0
  1  8  2  0  0  0  0
  2  3  1  0  0  0  0
  4  1  1  0  0  0  0
  5  4  2  0  0  0  0
  5  6  1  0  0  0  0
  6  7  2  0  0  0  0
  7  8  1  0  0  0  0
  7 12  1  0  0  0  0
  8 13  1  0  0  0  0
 10  5  1  0  0  0  0
 11  6  1  0  0  0  0
 14 17  2  0  0  0  0
 14 16  2  0  0  0  0
 15 20  1  0  0  0  0
 15 14  1  0  0  0  0
 18  9  1  0  0  0  0
 18 14  1  0  0  0  0
 19 15  1  0  0  0  0
 21 15  1  0  0  0  0
M  RAD  3   2   2   3   3   4   2
M  END
