Coordinates from ORCA-job PhN2+~TfO-_B3LYPG-6-31G_dp-CH-Scan-d09-49-n800
 OpenBabel11261919123D

 21 20  0  0  0  0  0  0  0  0999 V2000
   -1.7756    0.6264    0.0149 C   0  0  0  0  0  0  0  0  0  0  0  0
   -3.0905    1.0840    0.0440 N   0  0  0  0  0  0  0  0  0  0  0  0
   -4.1240    1.5132    0.0447 N   0  0  0  0  0  0  0  0  0  0  0  0
   -0.8517    1.6608   -0.2044 C   0  0  0  0  0  0  0  0  0  0  0  0
    0.4633    1.1126   -0.2322 C   0  0  0  0  0  0  0  0  0  0  0  0
    0.7460   -0.2384   -0.0588 C   0  0  0  0  0  0  0  0  0  0  0  0
   -0.2789   -1.1928    0.1592 C   0  0  0  0  0  0  0  0  0  0  0  0
   -1.5886   -0.7713    0.2002 C   0  0  0  0  0  0  0  0  0  0  0  0
   -1.9606    5.2641    0.1696 H   0  0  0  0  0  0  0  0  0  0  0  0
    1.3072    1.7838   -0.3964 H   0  0  0  0  0  0  0  0  0  0  0  0
    1.7775   -0.5862   -0.0888 H   0  0  0  0  0  0  0  0  0  0  0  0
   -0.0336   -2.2414    0.2935 H   0  0  0  0  0  0  0  0  0  0  0  0
   -2.4174   -1.4552    0.3633 H   0  0  0  0  0  0  0  0  0  0  0  0
   -4.0402    5.5400    0.6286 S   0  0  0  0  0  0  0  0  0  0  0  0
   -4.8192    5.1356   -1.0170 C   0  0  0  0  0  0  0  0  0  0  0  0
   -3.9176    4.2865    1.3599 O   0  0  0  0  0  0  0  0  0  0  0  0
   -4.7157    6.7088    1.1514 O   0  0  0  0  0  0  0  0  0  0  0  0
   -2.5770    6.0165    0.1172 O   0  0  0  0  0  0  0  0  0  0  0  0
   -4.1440    4.1342   -1.5885 F   0  0  0  0  0  0  0  0  0  0  0  0
   -6.0786    4.7596   -0.8049 F   0  0  0  0  0  0  0  0  0  0  0  0
   -4.7935    6.2021   -1.8092 F   0  0  0  0  0  0  0  0  0  0  0  0
  1  2  1  0  0  0  0
  1  8  2  0  0  0  0
  2  3  1  0  0  0  0
  4  1  1  0  0  0  0
  5  4  2  0  0  0  0
  5  6  1  0  0  0  0
  6  7  2  0  0  0  0
  7  8  1  0  0  0  0
  7 12  1  0  0  0  0
  8 13  1  0  0  0  0
 10  5  1  0  0  0  0
 11  6  1  0  0  0  0
 14 17  2  0  0  0  0
 14 16  2  0  0  0  0
 15 20  1  0  0  0  0
 15 14  1  0  0  0  0
 18  9  1  0  0  0  0
 18 14  1  0  0  0  0
 19 15  1  0  0  0  0
 21 15  1  0  0  0  0
M  RAD  3   2   2   3   3   4   2
M  END
