Coordinates from ORCA-job PhN2+~TfO-_B3LYPG-6-31G_dp-CH-Scan-d09-49-n800
 OpenBabel11261919123D

 21 20  0  0  0  0  0  0  0  0999 V2000
   -1.8855    1.0846   -0.5781 C   0  0  0  0  0  0  0  0  0  0  0  0
   -3.0847    1.2384   -1.2603 N   0  0  0  0  0  0  0  0  0  0  0  0
   -4.0318    1.2020   -1.8398 N   0  0  0  0  0  0  0  0  0  0  0  0
   -0.9101    2.0897   -0.6544 C   0  0  0  0  0  0  0  0  0  0  0  0
    0.2857    1.8527    0.0144 C   0  0  0  0  0  0  0  0  0  0  0  0
    0.4809    0.6665    0.7279 C   0  0  0  0  0  0  0  0  0  0  0  0
   -0.5172   -0.3152    0.7856 C   0  0  0  0  0  0  0  0  0  0  0  0
   -1.7225   -0.1206    0.1272 C   0  0  0  0  0  0  0  0  0  0  0  0
   -1.1291    2.9897   -1.1703 H   0  0  0  0  0  0  0  0  0  0  0  0
    1.0599    2.6119   -0.0083 H   0  0  0  0  0  0  0  0  0  0  0  0
    1.4171    0.5056    1.2531 H   0  0  0  0  0  0  0  0  0  0  0  0
   -0.3573   -1.2284    1.3483 H   0  0  0  0  0  0  0  0  0  0  0  0
   -2.5196   -0.8547    0.1599 H   0  0  0  0  0  0  0  0  0  0  0  0
   -3.5015    4.0954    0.0006 S   0  0  0  0  0  0  0  0  0  0  0  0
   -4.9299    5.2751   -0.1127 C   0  0  0  0  0  0  0  0  0  0  0  0
   -4.0940    2.8603    0.5851 O   0  0  0  0  0  0  0  0  0  0  0  0
   -2.4919    4.7771    0.8275 O   0  0  0  0  0  0  0  0  0  0  0  0
   -3.1057    3.8984   -1.4317 O   0  0  0  0  0  0  0  0  0  0  0  0
   -5.9118    4.7506   -0.8644 F   0  0  0  0  0  0  0  0  0  0  0  0
   -5.4221    5.5334    1.1065 F   0  0  0  0  0  0  0  0  0  0  0  0
   -4.5417    6.4302   -0.6696 F   0  0  0  0  0  0  0  0  0  0  0  0
  1  8  1  0  0  0  0
  2  1  1  0  0  0  0
  3  2  1  0  0  0  0
  4  1  2  0  0  0  0
  4  5  1  0  0  0  0
  5  6  2  0  0  0  0
  6  7  1  0  0  0  0
  6 11  1  0  0  0  0
  7 12  1  0  0  0  0
  8 13  1  0  0  0  0
  8  7  2  0  0  0  0
  9  4  1  0  0  0  0
 10  5  1  0  0  0  0
 14 16  2  0  0  0  0
 14 17  1  0  0  0  0
 15 14  1  0  0  0  0
 15 20  1  0  0  0  0
 18 14  2  0  0  0  0
 19 15  1  0  0  0  0
 21 15  1  0  0  0  0
M  RAD  3   2   2   3   3  17   2
M  END
