Coordinates from ORCA-job PhN2+~TfO-_B3LYPG-6-31G_dp-CH-Scan-d09-49-n800
 OpenBabel11261919123D

 21 20  0  0  0  0  0  0  0  0999 V2000
   -1.8317    0.6731   -0.1133 C   0  0  0  0  0  0  0  0  0  0  0  0
   -3.1416    1.1452   -0.1761 N   0  0  0  0  0  0  0  0  0  0  0  0
   -4.1632    1.5937   -0.2630 N   0  0  0  0  0  0  0  0  0  0  0  0
   -0.8971    1.6614   -0.4580 C   0  0  0  0  0  0  0  0  0  0  0  0
    0.4135    1.1058   -0.3866 C   0  0  0  0  0  0  0  0  0  0  0  0
    0.6810   -0.2094   -0.0204 C   0  0  0  0  0  0  0  0  0  0  0  0
   -0.3561   -1.1170    0.3117 C   0  0  0  0  0  0  0  0  0  0  0  0
   -1.6626   -0.6854    0.2696 C   0  0  0  0  0  0  0  0  0  0  0  0
   -1.8968    5.4822    0.2002 H   0  0  0  0  0  0  0  0  0  0  0  0
    1.2663    1.7414   -0.6289 H   0  0  0  0  0  0  0  0  0  0  0  0
    1.7097   -0.5648    0.0173 H   0  0  0  0  0  0  0  0  0  0  0  0
   -0.1222   -2.1377    0.5960 H   0  0  0  0  0  0  0  0  0  0  0  0
   -2.5004   -1.3336    0.5122 H   0  0  0  0  0  0  0  0  0  0  0  0
   -3.9866    5.4349    0.6967 S   0  0  0  0  0  0  0  0  0  0  0  0
   -4.7021    5.0233   -0.9762 C   0  0  0  0  0  0  0  0  0  0  0  0
   -3.6829    4.1700    1.3509 O   0  0  0  0  0  0  0  0  0  0  0  0
   -4.8187    6.4621    1.2868 O   0  0  0  0  0  0  0  0  0  0  0  0
   -2.6069    6.1481    0.2251 O   0  0  0  0  0  0  0  0  0  0  0  0
   -3.8357    4.2605   -1.6476 F   0  0  0  0  0  0  0  0  0  0  0  0
   -5.8374    4.3512   -0.7921 F   0  0  0  0  0  0  0  0  0  0  0  0
   -4.9413    6.1380   -1.6579 F   0  0  0  0  0  0  0  0  0  0  0  0
  1  8  2  0  0  0  0
  2  1  1  0  0  0  0
  3  2  1  0  0  0  0
  4  5  2  0  0  0  0
  4  1  1  0  0  0  0
  5  6  1  0  0  0  0
  6 11  1  0  0  0  0
  6  7  2  0  0  0  0
  7 12  1  0  0  0  0
  8  7  1  0  0  0  0
  8 13  1  0  0  0  0
  9 18  1  0  0  0  0
 10  5  1  0  0  0  0
 14 17  2  0  0  0  0
 14 16  2  0  0  0  0
 15 20  1  0  0  0  0
 15 14  1  0  0  0  0
 18 14  1  0  0  0  0
 19 15  1  0  0  0  0
 21 15  1  0  0  0  0
M  RAD  3   2   2   3   3   4   2
M  END
