Coordinates from ORCA-job PhN2+~TfO-_B3LYPG-6-31G_dp-CH-Scan-d09-49-n800
 OpenBabel11261919123D

 21 20  0  0  0  0  0  0  0  0999 V2000
   -1.7692    0.6230    0.0073 C   0  0  0  0  0  0  0  0  0  0  0  0
   -3.0822    1.0866    0.0317 N   0  0  0  0  0  0  0  0  0  0  0  0
   -4.1136    1.5212    0.0281 N   0  0  0  0  0  0  0  0  0  0  0  0
   -0.8416    1.6523   -0.2193 C   0  0  0  0  0  0  0  0  0  0  0  0
    0.4714    1.0989   -0.2416 C   0  0  0  0  0  0  0  0  0  0  0  0
    0.7489   -0.2518   -0.0572 C   0  0  0  0  0  0  0  0  0  0  0  0
   -0.2798   -1.2006    0.1674 C   0  0  0  0  0  0  0  0  0  0  0  0
   -1.5879   -0.7739    0.2037 C   0  0  0  0  0  0  0  0  0  0  0  0
   -1.9653    5.3014    0.1769 H   0  0  0  0  0  0  0  0  0  0  0  0
    1.3181    1.7655   -0.4104 H   0  0  0  0  0  0  0  0  0  0  0  0
    1.7791   -0.6037   -0.0833 H   0  0  0  0  0  0  0  0  0  0  0  0
   -0.0385   -2.2490    0.3102 H   0  0  0  0  0  0  0  0  0  0  0  0
   -2.4195   -1.4533    0.3714 H   0  0  0  0  0  0  0  0  0  0  0  0
   -4.0494    5.5475    0.6323 S   0  0  0  0  0  0  0  0  0  0  0  0
   -4.8220    5.1372   -1.0148 C   0  0  0  0  0  0  0  0  0  0  0  0
   -3.9093    4.2940    1.3604 O   0  0  0  0  0  0  0  0  0  0  0  0
   -4.7407    6.7057    1.1579 O   0  0  0  0  0  0  0  0  0  0  0  0
   -2.5921    6.0449    0.1226 O   0  0  0  0  0  0  0  0  0  0  0  0
   -4.1326    4.1471   -1.5890 F   0  0  0  0  0  0  0  0  0  0  0  0
   -6.0760    4.7433   -0.8043 F   0  0  0  0  0  0  0  0  0  0  0  0
   -4.8106    6.2066   -1.8036 F   0  0  0  0  0  0  0  0  0  0  0  0
  1  2  1  0  0  0  0
  1  8  2  0  0  0  0
  3  2  1  0  0  0  0
  4  1  1  0  0  0  0
  5  4  2  0  0  0  0
  5  6  1  0  0  0  0
  6  7  2  0  0  0  0
  7  8  1  0  0  0  0
  7 12  1  0  0  0  0
  8 13  1  0  0  0  0
 10  5  1  0  0  0  0
 11  6  1  0  0  0  0
 14 17  2  0  0  0  0
 14 16  2  0  0  0  0
 15 20  1  0  0  0  0
 15 14  1  0  0  0  0
 18  9  1  0  0  0  0
 18 14  1  0  0  0  0
 19 15  1  0  0  0  0
 21 15  1  0  0  0  0
M  RAD  3   2   2   3   3   4   2
M  END
