Coordinates from ORCA-job PhN2+~TfO-_B3LYPG-6-31G_dp-CH-Scan-d09-49-n800
 OpenBabel11261919123D

 21 20  0  0  0  0  0  0  0  0999 V2000
   -1.9119    0.7185    0.1062 C   0  0  0  0  0  0  0  0  0  0  0  0
   -3.2525    1.0693    0.2024 N   0  0  0  0  0  0  0  0  0  0  0  0
   -4.3184    1.4011    0.2665 N   0  0  0  0  0  0  0  0  0  0  0  0
   -1.0510    1.8205   -0.0435 C   0  0  0  0  0  0  0  0  0  0  0  0
    0.2934    1.3680   -0.1405 C   0  0  0  0  0  0  0  0  0  0  0  0
    0.6652    0.0278   -0.0907 C   0  0  0  0  0  0  0  0  0  0  0  0
   -0.2921   -1.0040    0.0631 C   0  0  0  0  0  0  0  0  0  0  0  0
   -1.6244   -0.6732    0.1660 C   0  0  0  0  0  0  0  0  0  0  0  0
   -1.9109    4.5888    0.1036 H   0  0  0  0  0  0  0  0  0  0  0  0
    1.0864    2.1060   -0.2607 H   0  0  0  0  0  0  0  0  0  0  0  0
    1.7153   -0.2476   -0.1712 H   0  0  0  0  0  0  0  0  0  0  0  0
    0.0203   -2.0425    0.1004 H   0  0  0  0  0  0  0  0  0  0  0  0
   -2.4027   -1.4216    0.2862 H   0  0  0  0  0  0  0  0  0  0  0  0
   -3.8605    5.3532    0.5893 S   0  0  0  0  0  0  0  0  0  0  0  0
   -4.7030    5.0622   -1.0477 C   0  0  0  0  0  0  0  0  0  0  0  0
   -4.0439    4.1341    1.3669 O   0  0  0  0  0  0  0  0  0  0  0  0
   -4.2680    6.6609    1.0595 O   0  0  0  0  0  0  0  0  0  0  0  0
   -2.3340    5.4728    0.0889 O   0  0  0  0  0  0  0  0  0  0  0  0
   -4.2421    3.9248   -1.5822 F   0  0  0  0  0  0  0  0  0  0  0  0
   -6.0140    4.9520   -0.8380 F   0  0  0  0  0  0  0  0  0  0  0  0
   -4.4639    6.0718   -1.8782 F   0  0  0  0  0  0  0  0  0  0  0  0
  1  8  1  0  0  0  0
  1  2  1  0  0  0  0
  2  3  1  0  0  0  0
  4  1  2  0  0  0  0
  5  6  2  0  0  0  0
  5  4  1  0  0  0  0
  6  7  1  0  0  0  0
  7 12  1  0  0  0  0
  7  8  2  0  0  0  0
  8 13  1  0  0  0  0
 10  5  1  0  0  0  0
 11  6  1  0  0  0  0
 14 17  2  0  0  0  0
 14 16  2  0  0  0  0
 15 20  1  0  0  0  0
 15 14  1  0  0  0  0
 18  9  1  0  0  0  0
 18 14  1  0  0  0  0
 19 15  1  0  0  0  0
 21 15  1  0  0  0  0
M  RAD  3   2   2   3   3   4   2
M  END
