Coordinates from ORCA-job PhN2+~TfO-_B3LYPG-6-31G_dp-CH-Scan-d09-49-n800
 OpenBabel11261919123D

 21 20  0  0  0  0  0  0  0  0999 V2000
   -1.8638    0.6876    0.0669 C   0  0  0  0  0  0  0  0  0  0  0  0
   -3.1975    1.0757    0.1251 N   0  0  0  0  0  0  0  0  0  0  0  0
   -4.2540    1.4417    0.1565 N   0  0  0  0  0  0  0  0  0  0  0  0
   -0.9795    1.7680   -0.0955 C   0  0  0  0  0  0  0  0  0  0  0  0
    0.3565    1.2817   -0.1559 C   0  0  0  0  0  0  0  0  0  0  0  0
    0.6971   -0.0643   -0.0621 C   0  0  0  0  0  0  0  0  0  0  0  0
   -0.2855   -1.0710    0.1023 C   0  0  0  0  0  0  0  0  0  0  0  0
   -1.6117   -0.7086    0.1706 C   0  0  0  0  0  0  0  0  0  0  0  0
   -1.9148    4.8049    0.0851 H   0  0  0  0  0  0  0  0  0  0  0  0
    1.1690    1.9977   -0.2818 H   0  0  0  0  0  0  0  0  0  0  0  0
    1.7421   -0.3651   -0.1147 H   0  0  0  0  0  0  0  0  0  0  0  0
    0.0035   -2.1145    0.1744 H   0  0  0  0  0  0  0  0  0  0  0  0
   -2.4092   -1.4359    0.2961 H   0  0  0  0  0  0  0  0  0  0  0  0
   -3.9097    5.4161    0.5995 S   0  0  0  0  0  0  0  0  0  0  0  0
   -4.7648    5.0934   -1.0257 C   0  0  0  0  0  0  0  0  0  0  0  0
   -3.9827    4.1760    1.3609 O   0  0  0  0  0  0  0  0  0  0  0  0
   -4.3939    6.6859    1.0991 O   0  0  0  0  0  0  0  0  0  0  0  0
   -2.4031    5.6507    0.0655 O   0  0  0  0  0  0  0  0  0  0  0  0
   -4.2359    4.0026   -1.5911 F   0  0  0  0  0  0  0  0  0  0  0  0
   -6.0592    4.8867   -0.7895 F   0  0  0  0  0  0  0  0  0  0  0  0
   -4.6159    6.1333   -1.8395 F   0  0  0  0  0  0  0  0  0  0  0  0
  1  2  1  0  0  0  0
  1  8  2  0  0  0  0
  2  3  1  0  0  0  0
  4  1  1  0  0  0  0
  5  4  2  0  0  0  0
  5  6  1  0  0  0  0
  6  7  2  0  0  0  0
  7  8  1  0  0  0  0
  7 12  1  0  0  0  0
  8 13  1  0  0  0  0
 10  5  1  0  0  0  0
 11  6  1  0  0  0  0
 14 17  2  0  0  0  0
 14 16  2  0  0  0  0
 15 20  1  0  0  0  0
 15 14  1  0  0  0  0
 18  9  1  0  0  0  0
 18 14  1  0  0  0  0
 19 15  1  0  0  0  0
 21 15  1  0  0  0  0
M  RAD  3   2   2   3   3   4   2
M  END
