Coordinates from ORCA-job PhN2+~TfO-_B3LYPG-6-31G_dp-CH-Scan-d09-49-n800
 OpenBabel11261919123D

 21 20  0  0  0  0  0  0  0  0999 V2000
   -1.7927    0.6481   -0.1567 C   0  0  0  0  0  0  0  0  0  0  0  0
   -3.0915    1.1504   -0.2358 N   0  0  0  0  0  0  0  0  0  0  0  0
   -4.1005    1.6232   -0.3421 N   0  0  0  0  0  0  0  0  0  0  0  0
   -0.8435    1.5833   -0.5937 C   0  0  0  0  0  0  0  0  0  0  0  0
    0.4554    1.0033   -0.5014 C   0  0  0  0  0  0  0  0  0  0  0  0
    0.6988   -0.2863   -0.0401 C   0  0  0  0  0  0  0  0  0  0  0  0
   -0.3529   -1.1399    0.3794 C   0  0  0  0  0  0  0  0  0  0  0  0
   -1.6496   -0.6805    0.3277 C   0  0  0  0  0  0  0  0  0  0  0  0
   -1.9624    5.6822    0.3359 H   0  0  0  0  0  0  0  0  0  0  0  0
    1.3181    1.5973   -0.8066 H   0  0  0  0  0  0  0  0  0  0  0  0
    1.7193   -0.6638    0.0062 H   0  0  0  0  0  0  0  0  0  0  0  0
   -0.1374   -2.1416    0.7362 H   0  0  0  0  0  0  0  0  0  0  0  0
   -2.4975   -1.2869    0.6347 H   0  0  0  0  0  0  0  0  0  0  0  0
   -4.0628    5.4635    0.7260 S   0  0  0  0  0  0  0  0  0  0  0  0
   -4.6934    5.0510   -0.9807 C   0  0  0  0  0  0  0  0  0  0  0  0
   -3.6810    4.2077    1.3567 O   0  0  0  0  0  0  0  0  0  0  0  0
   -4.9874    6.4083    1.3159 O   0  0  0  0  0  0  0  0  0  0  0  0
   -2.7239    6.2887    0.3176 O   0  0  0  0  0  0  0  0  0  0  0  0
   -3.7691    4.3389   -1.6286 F   0  0  0  0  0  0  0  0  0  0  0  0
   -5.8049    4.3283   -0.8524 F   0  0  0  0  0  0  0  0  0  0  0  0
   -4.9541    6.1674   -1.6518 F   0  0  0  0  0  0  0  0  0  0  0  0
  1  8  2  0  0  0  0
  2  1  1  0  0  0  0
  3  2  1  0  0  0  0
  4  5  2  0  0  0  0
  4  1  1  0  0  0  0
  5  6  1  0  0  0  0
  6 11  1  0  0  0  0
  6  7  2  0  0  0  0
  7 12  1  0  0  0  0
  8  7  1  0  0  0  0
  8 13  1  0  0  0  0
 10  5  1  0  0  0  0
 14 17  2  0  0  0  0
 14 16  2  0  0  0  0
 15 20  1  0  0  0  0
 15 14  1  0  0  0  0
 18  9  1  0  0  0  0
 18 14  1  0  0  0  0
 19 15  1  0  0  0  0
 21 15  1  0  0  0  0
M  RAD  3   2   2   3   3   4   2
M  END
