Coordinates from ORCA-job PhN2+~TfO-_B3LYPG-6-31G_dp-CH-Scan-d09-49-n800
 OpenBabel11261919123D

 21 20  0  0  0  0  0  0  0  0999 V2000
   -1.8310    0.6625    0.0568 C   0  0  0  0  0  0  0  0  0  0  0  0
   -3.1587    1.0741    0.1097 N   0  0  0  0  0  0  0  0  0  0  0  0
   -4.2077    1.4624    0.1331 N   0  0  0  0  0  0  0  0  0  0  0  0
   -0.9340    1.7295   -0.1194 C   0  0  0  0  0  0  0  0  0  0  0  0
    0.3954    1.2225   -0.1744 C   0  0  0  0  0  0  0  0  0  0  0  0
    0.7170   -0.1266   -0.0636 C   0  0  0  0  0  0  0  0  0  0  0  0
   -0.2796   -1.1178    0.1141 C   0  0  0  0  0  0  0  0  0  0  0  0
   -1.6005   -0.7360    0.1781 C   0  0  0  0  0  0  0  0  0  0  0  0
   -1.9297    4.9596    0.1132 H   0  0  0  0  0  0  0  0  0  0  0  0
    1.2184    1.9248   -0.3099 H   0  0  0  0  0  0  0  0  0  0  0  0
    1.7576   -0.4430   -0.1129 H   0  0  0  0  0  0  0  0  0  0  0  0
   -0.0048   -2.1641    0.1996 H   0  0  0  0  0  0  0  0  0  0  0  0
   -2.4084   -1.4501    0.3131 H   0  0  0  0  0  0  0  0  0  0  0  0
   -3.9585    5.4657    0.6063 S   0  0  0  0  0  0  0  0  0  0  0  0
   -4.7887    5.1130   -1.0258 C   0  0  0  0  0  0  0  0  0  0  0  0
   -3.9698    4.2192    1.3601 O   0  0  0  0  0  0  0  0  0  0  0  0
   -4.5053    6.7077    1.1109 O   0  0  0  0  0  0  0  0  0  0  0  0
   -2.4604    5.7773    0.0801 O   0  0  0  0  0  0  0  0  0  0  0  0
   -4.2139    4.0454   -1.5894 F   0  0  0  0  0  0  0  0  0  0  0  0
   -6.0754    4.8560   -0.7982 F   0  0  0  0  0  0  0  0  0  0  0  0
   -4.6745    6.1605   -1.8353 F   0  0  0  0  0  0  0  0  0  0  0  0
  1  2  1  0  0  0  0
  1  8  2  0  0  0  0
  2  3  1  0  0  0  0
  4  1  1  0  0  0  0
  5  4  2  0  0  0  0
  5  6  1  0  0  0  0
  6  7  2  0  0  0  0
  7  8  1  0  0  0  0
  7 12  1  0  0  0  0
  8 13  1  0  0  0  0
 10  5  1  0  0  0  0
 11  6  1  0  0  0  0
 14 17  2  0  0  0  0
 14 16  2  0  0  0  0
 15 20  1  0  0  0  0
 15 14  1  0  0  0  0
 18  9  1  0  0  0  0
 18 14  1  0  0  0  0
 19 15  1  0  0  0  0
 21 15  1  0  0  0  0
M  RAD  3   2   2   3   3   4   2
M  END
