Coordinates from ORCA-job PhN2+~TfO-_B3LYPG-6-31G_dp-CH-Scan-d09-49-n800
 OpenBabel11261919123D

 21 20  0  0  0  0  0  0  0  0999 V2000
   -1.8277    0.6702   -0.1175 C   0  0  0  0  0  0  0  0  0  0  0  0
   -3.1366    1.1451   -0.1820 N   0  0  0  0  0  0  0  0  0  0  0  0
   -4.1570    1.5961   -0.2708 N   0  0  0  0  0  0  0  0  0  0  0  0
   -0.8918    1.6536   -0.4716 C   0  0  0  0  0  0  0  0  0  0  0  0
    0.4178    1.0956   -0.3983 C   0  0  0  0  0  0  0  0  0  0  0  0
    0.6829   -0.2173   -0.0226 C   0  0  0  0  0  0  0  0  0  0  0  0
   -0.3556   -1.1200    0.3185 C   0  0  0  0  0  0  0  0  0  0  0  0
   -1.6612   -0.6857    0.2756 C   0  0  0  0  0  0  0  0  0  0  0  0
   -1.9028    5.5034    0.2140 H   0  0  0  0  0  0  0  0  0  0  0  0
    1.2716    1.7274   -0.6471 H   0  0  0  0  0  0  0  0  0  0  0  0
    1.7109   -0.5748    0.0158 H   0  0  0  0  0  0  0  0  0  0  0  0
   -0.1235   -2.1390    0.6101 H   0  0  0  0  0  0  0  0  0  0  0  0
   -2.5000   -1.3301    0.5248 H   0  0  0  0  0  0  0  0  0  0  0  0
   -3.9947    5.4384    0.6997 S   0  0  0  0  0  0  0  0  0  0  0  0
   -4.7014    5.0264   -0.9768 C   0  0  0  0  0  0  0  0  0  0  0  0
   -3.6830    4.1741    1.3513 O   0  0  0  0  0  0  0  0  0  0  0  0
   -4.8365    6.4574    1.2900 O   0  0  0  0  0  0  0  0  0  0  0  0
   -2.6186    6.1633    0.2348 O   0  0  0  0  0  0  0  0  0  0  0  0
   -3.8291    4.2678   -1.6454 F   0  0  0  0  0  0  0  0  0  0  0  0
   -5.8349    4.3497   -0.7984 F   0  0  0  0  0  0  0  0  0  0  0  0
   -4.9419    6.1411   -1.6579 F   0  0  0  0  0  0  0  0  0  0  0  0
  1  8  2  0  0  0  0
  2  1  1  0  0  0  0
  3  2  1  0  0  0  0
  4  5  2  0  0  0  0
  4  1  1  0  0  0  0
  5  6  1  0  0  0  0
  6 11  1  0  0  0  0
  6  7  2  0  0  0  0
  7 12  1  0  0  0  0
  8  7  1  0  0  0  0
  8 13  1  0  0  0  0
  9 18  1  0  0  0  0
 10  5  1  0  0  0  0
 14 17  2  0  0  0  0
 14 16  2  0  0  0  0
 15 20  1  0  0  0  0
 15 14  1  0  0  0  0
 18 14  1  0  0  0  0
 19 15  1  0  0  0  0
 21 15  1  0  0  0  0
M  RAD  3   2   2   3   3   4   2
M  END
