Coordinates from ORCA-job PhN2+~TfO-_B3LYPG-6-31G_dp-CH-Scan-d09-49-n800
 OpenBabel11261919123D

 21 20  0  0  0  0  0  0  0  0999 V2000
   -1.8999    0.7104    0.0894 C   0  0  0  0  0  0  0  0  0  0  0  0
   -3.2389    1.0725    0.1677 N   0  0  0  0  0  0  0  0  0  0  0  0
   -4.3017    1.4168    0.2174 N   0  0  0  0  0  0  0  0  0  0  0  0
   -1.0325    1.8068   -0.0627 C   0  0  0  0  0  0  0  0  0  0  0  0
    0.3104    1.3452   -0.1426 C   0  0  0  0  0  0  0  0  0  0  0  0
    0.6739    0.0035   -0.0752 C   0  0  0  0  0  0  0  0  0  0  0  0
   -0.2905   -1.0215    0.0800 C   0  0  0  0  0  0  0  0  0  0  0  0
   -1.6219   -0.6824    0.1664 C   0  0  0  0  0  0  0  0  0  0  0  0
   -1.9088    4.6435    0.0835 H   0  0  0  0  0  0  0  0  0  0  0  0
    1.1090    2.0771   -0.2628 H   0  0  0  0  0  0  0  0  0  0  0  0
    1.7232   -0.2787   -0.1424 H   0  0  0  0  0  0  0  0  0  0  0  0
    0.0159   -2.0612    0.1311 H   0  0  0  0  0  0  0  0  0  0  0  0
   -2.4058   -1.4250    0.2865 H   0  0  0  0  0  0  0  0  0  0  0  0
   -3.8675    5.3672    0.5922 S   0  0  0  0  0  0  0  0  0  0  0  0
   -4.7252    5.0718   -1.0363 C   0  0  0  0  0  0  0  0  0  0  0  0
   -4.0153    4.1399    1.3639 O   0  0  0  0  0  0  0  0  0  0  0  0
   -4.2923    6.6641    1.0762 O   0  0  0  0  0  0  0  0  0  0  0  0
   -2.3489    5.5181    0.0713 O   0  0  0  0  0  0  0  0  0  0  0  0
   -4.2436    3.9520   -1.5887 F   0  0  0  0  0  0  0  0  0  0  0  0
   -6.0299    4.9271   -0.8095 F   0  0  0  0  0  0  0  0  0  0  0  0
   -4.5225    6.0956   -1.8590 F   0  0  0  0  0  0  0  0  0  0  0  0
  1  8  1  0  0  0  0
  1  2  1  0  0  0  0
  2  3  1  0  0  0  0
  4  1  2  0  0  0  0
  5  6  2  0  0  0  0
  5  4  1  0  0  0  0
  6  7  1  0  0  0  0
  7 12  1  0  0  0  0
  7  8  2  0  0  0  0
  8 13  1  0  0  0  0
 10  5  1  0  0  0  0
 11  6  1  0  0  0  0
 14 17  2  0  0  0  0
 14 16  2  0  0  0  0
 15 20  1  0  0  0  0
 15 14  1  0  0  0  0
 18  9  1  0  0  0  0
 18 14  1  0  0  0  0
 19 15  1  0  0  0  0
 21 15  1  0  0  0  0
M  RAD  3   2   2   3   3   4   2
M  END
