Coordinates from ORCA-job PhN2+~TfO-_B3LYPG-6-31G_dp-CH-Scan-d09-49-n800
 OpenBabel11261919123D

 21 20  0  0  0  0  0  0  0  0999 V2000
   -1.7737    0.6254    0.0127 C   0  0  0  0  0  0  0  0  0  0  0  0
   -3.0880    1.0847    0.0404 N   0  0  0  0  0  0  0  0  0  0  0  0
   -4.1209    1.5156    0.0398 N   0  0  0  0  0  0  0  0  0  0  0  0
   -0.8487    1.6583   -0.2088 C   0  0  0  0  0  0  0  0  0  0  0  0
    0.4657    1.1085   -0.2350 C   0  0  0  0  0  0  0  0  0  0  0  0
    0.7469   -0.2424   -0.0584 C   0  0  0  0  0  0  0  0  0  0  0  0
   -0.2792   -1.1952    0.1616 C   0  0  0  0  0  0  0  0  0  0  0  0
   -1.5884   -0.7722    0.2012 C   0  0  0  0  0  0  0  0  0  0  0  0
   -1.9620    5.2753    0.1718 H   0  0  0  0  0  0  0  0  0  0  0  0
    1.3105    1.7783   -0.4005 H   0  0  0  0  0  0  0  0  0  0  0  0
    1.7780   -0.5915   -0.0872 H   0  0  0  0  0  0  0  0  0  0  0  0
   -0.0351   -2.2437    0.2985 H   0  0  0  0  0  0  0  0  0  0  0  0
   -2.4180   -1.4547    0.3657 H   0  0  0  0  0  0  0  0  0  0  0  0
   -4.0430    5.5423    0.6297 S   0  0  0  0  0  0  0  0  0  0  0  0
   -4.8201    5.1361   -1.0163 C   0  0  0  0  0  0  0  0  0  0  0  0
   -3.9151    4.2888    1.3600 O   0  0  0  0  0  0  0  0  0  0  0  0
   -4.7232    6.7079    1.1534 O   0  0  0  0  0  0  0  0  0  0  0  0
   -2.5815    6.0251    0.1188 O   0  0  0  0  0  0  0  0  0  0  0  0
   -4.1407    4.1380   -1.5886 F   0  0  0  0  0  0  0  0  0  0  0  0
   -6.0779    4.7548   -0.8047 F   0  0  0  0  0  0  0  0  0  0  0  0
   -4.7986    6.2035   -1.8075 F   0  0  0  0  0  0  0  0  0  0  0  0
  1  2  1  0  0  0  0
  1  8  2  0  0  0  0
  3  2  1  0  0  0  0
  4  1  1  0  0  0  0
  5  4  2  0  0  0  0
  5  6  1  0  0  0  0
  6  7  2  0  0  0  0
  7  8  1  0  0  0  0
  7 12  1  0  0  0  0
  8 13  1  0  0  0  0
 10  5  1  0  0  0  0
 11  6  1  0  0  0  0
 14 17  2  0  0  0  0
 14 16  2  0  0  0  0
 15 20  1  0  0  0  0
 15 14  1  0  0  0  0
 18  9  1  0  0  0  0
 18 14  1  0  0  0  0
 19 15  1  0  0  0  0
 21 15  1  0  0  0  0
M  RAD  3   2   2   3   3   4   2
M  END
