Coordinates from ORCA-job PhN2+~TfO-_B3LYPG-6-31G_dp-CH-Scan-d09-49-n800
 OpenBabel11261919123D

 21 20  0  0  0  0  0  0  0  0999 V2000
   -2.0629    0.8366    0.0989 C   0  0  0  0  0  0  0  0  0  0  0  0
   -3.4261    1.0776    0.1679 N   0  0  0  0  0  0  0  0  0  0  0  0
   -4.5161    1.3148    0.2142 N   0  0  0  0  0  0  0  0  0  0  0  0
   -1.2625    1.9862   -0.0455 C   0  0  0  0  0  0  0  0  0  0  0  0
    0.1081    1.6373   -0.1138 C   0  0  0  0  0  0  0  0  0  0  0  0
    0.5718    0.3257   -0.0448 C   0  0  0  0  0  0  0  0  0  0  0  0
   -0.3147   -0.7647    0.1006 C   0  0  0  0  0  0  0  0  0  0  0  0
   -1.6694   -0.5258    0.1756 C   0  0  0  0  0  0  0  0  0  0  0  0
   -1.8822    3.8418   -0.0477 H   0  0  0  0  0  0  0  0  0  0  0  0
    0.8430    2.4327   -0.2249 H   0  0  0  0  0  0  0  0  0  0  0  0
    1.6396    0.1254   -0.1034 H   0  0  0  0  0  0  0  0  0  0  0  0
    0.0652   -1.7795    0.1538 H   0  0  0  0  0  0  0  0  0  0  0  0
   -2.3943   -1.3261    0.2885 H   0  0  0  0  0  0  0  0  0  0  0  0
   -3.5921    5.0589    0.5500 S   0  0  0  0  0  0  0  0  0  0  0  0
   -4.6032    5.0089   -1.0108 C   0  0  0  0  0  0  0  0  0  0  0  0
   -4.0200    3.8962    1.3279 O   0  0  0  0  0  0  0  0  0  0  0  0
   -3.6929    6.4089    1.0727 O   0  0  0  0  0  0  0  0  0  0  0  0
   -2.1468    4.8360   -0.0510 O   0  0  0  0  0  0  0  0  0  0  0  0
   -4.4586    3.8067   -1.5941 F   0  0  0  0  0  0  0  0  0  0  0  0
   -5.8894    5.1903   -0.7075 F   0  0  0  0  0  0  0  0  0  0  0  0
   -4.2093    5.9547   -1.8602 F   0  0  0  0  0  0  0  0  0  0  0  0
  1  2  1  0  0  0  0
  1  8  2  0  0  0  0
  2  3  1  0  0  0  0
  4  1  1  0  0  0  0
  5  4  2  0  0  0  0
  5  6  1  0  0  0  0
  6  7  2  0  0  0  0
  7 12  1  0  0  0  0
  7  8  1  0  0  0  0
  8 13  1  0  0  0  0
 10  5  1  0  0  0  0
 11  6  1  0  0  0  0
 14 17  2  0  0  0  0
 14 16  2  0  0  0  0
 15 20  1  0  0  0  0
 15 14  1  0  0  0  0
 18  9  1  0  0  0  0
 18 14  1  0  0  0  0
 19 15  1  0  0  0  0
 21 15  1  0  0  0  0
M  RAD  3   2   2   3   3   4   2
M  END
