Coordinates from ORCA-job PhN2+~TfO-_B3LYPG-6-31G_dp-CH-Scan-d09-49-n800
 OpenBabel11261919123D

 21 20  0  0  0  0  0  0  0  0999 V2000
   -1.7953    0.6495   -0.1544 C   0  0  0  0  0  0  0  0  0  0  0  0
   -3.0947    1.1499   -0.2326 N   0  0  0  0  0  0  0  0  0  0  0  0
   -4.1045    1.6213   -0.3380 N   0  0  0  0  0  0  0  0  0  0  0  0
   -0.8470    1.5880   -0.5867 C   0  0  0  0  0  0  0  0  0  0  0  0
    0.4527    1.0095   -0.4956 C   0  0  0  0  0  0  0  0  0  0  0  0
    0.6976   -0.2815   -0.0391 C   0  0  0  0  0  0  0  0  0  0  0  0
   -0.3531   -1.1384    0.3760 C   0  0  0  0  0  0  0  0  0  0  0  0
   -1.6505   -0.6807    0.3249 C   0  0  0  0  0  0  0  0  0  0  0  0
   -1.9580    5.6709    0.3287 H   0  0  0  0  0  0  0  0  0  0  0  0
    1.3147    1.6060   -0.7977 H   0  0  0  0  0  0  0  0  0  0  0  0
    1.7187   -0.6576    0.0067 H   0  0  0  0  0  0  0  0  0  0  0  0
   -0.1364   -2.1411    0.7292 H   0  0  0  0  0  0  0  0  0  0  0  0
   -2.4978   -1.2897    0.6287 H   0  0  0  0  0  0  0  0  0  0  0  0
   -4.0584    5.4614    0.7246 S   0  0  0  0  0  0  0  0  0  0  0  0
   -4.6934    5.0493   -0.9806 C   0  0  0  0  0  0  0  0  0  0  0  0
   -3.6810    4.2047    1.3561 O   0  0  0  0  0  0  0  0  0  0  0  0
   -4.9782    6.4107    1.3147 O   0  0  0  0  0  0  0  0  0  0  0  0
   -2.7169    6.2807    0.3131 O   0  0  0  0  0  0  0  0  0  0  0  0
   -3.7724    4.3340   -1.6297 F   0  0  0  0  0  0  0  0  0  0  0  0
   -5.8067    4.3298   -0.8496 F   0  0  0  0  0  0  0  0  0  0  0  0
   -4.9523    6.1658   -1.6523 F   0  0  0  0  0  0  0  0  0  0  0  0
  1  8  2  0  0  0  0
  2  1  1  0  0  0  0
  3  2  1  0  0  0  0
  4  5  2  0  0  0  0
  4  1  1  0  0  0  0
  5  6  1  0  0  0  0
  6 11  1  0  0  0  0
  6  7  2  0  0  0  0
  7 12  1  0  0  0  0
  8  7  1  0  0  0  0
  8 13  1  0  0  0  0
 10  5  1  0  0  0  0
 14 17  2  0  0  0  0
 14 16  2  0  0  0  0
 15 20  1  0  0  0  0
 15 14  1  0  0  0  0
 18  9  1  0  0  0  0
 18 14  1  0  0  0  0
 19 15  1  0  0  0  0
 21 15  1  0  0  0  0
M  RAD  3   2   2   3   3   4   2
M  END
