Coordinates from ORCA-job PhN2+~TfO-_B3LYPG-6-31G_dp-CH-Scan-d09-49-n800
 OpenBabel11261919123D

 21 20  0  0  0  0  0  0  0  0999 V2000
   -2.0934    0.8794    0.0718 C   0  0  0  0  0  0  0  0  0  0  0  0
   -3.4601    1.1039    0.1050 N   0  0  0  0  0  0  0  0  0  0  0  0
   -4.5534    1.3244    0.1239 N   0  0  0  0  0  0  0  0  0  0  0  0
   -1.2912    2.0280   -0.0681 C   0  0  0  0  0  0  0  0  0  0  0  0
    0.0817    1.6972   -0.1001 C   0  0  0  0  0  0  0  0  0  0  0  0
    0.5547    0.3901   -0.0031 C   0  0  0  0  0  0  0  0  0  0  0  0
   -0.3263   -0.7038    0.1350 C   0  0  0  0  0  0  0  0  0  0  0  0
   -1.6852   -0.4756    0.1746 C   0  0  0  0  0  0  0  0  0  0  0  0
   -1.8476    3.6348   -0.1159 H   0  0  0  0  0  0  0  0  0  0  0  0
    0.8073    2.5014   -0.2033 H   0  0  0  0  0  0  0  0  0  0  0  0
    1.6250    0.1988   -0.0334 H   0  0  0  0  0  0  0  0  0  0  0  0
    0.0592   -1.7150    0.2106 H   0  0  0  0  0  0  0  0  0  0  0  0
   -2.4050   -1.2811    0.2804 H   0  0  0  0  0  0  0  0  0  0  0  0
   -3.5079    4.9725    0.5256 S   0  0  0  0  0  0  0  0  0  0  0  0
   -4.6057    4.9997   -0.9747 C   0  0  0  0  0  0  0  0  0  0  0  0
   -3.9634    3.8165    1.3056 O   0  0  0  0  0  0  0  0  0  0  0  0
   -3.5399    6.3128    1.0866 O   0  0  0  0  0  0  0  0  0  0  0  0
   -2.1266    4.6847   -0.1492 O   0  0  0  0  0  0  0  0  0  0  0  0
   -4.5572    3.7986   -1.5822 F   0  0  0  0  0  0  0  0  0  0  0  0
   -5.8650    5.2409   -0.6043 F   0  0  0  0  0  0  0  0  0  0  0  0
   -4.2125    5.9346   -1.8381 F   0  0  0  0  0  0  0  0  0  0  0  0
  1  2  1  0  0  0  0
  1  8  2  0  0  0  0
  2  3  1  0  0  0  0
  4  1  1  0  0  0  0
  5  4  2  0  0  0  0
  5  6  1  0  0  0  0
  6  7  2  0  0  0  0
  7  8  1  0  0  0  0
  7 12  1  0  0  0  0
  8 13  1  0  0  0  0
 10  5  1  0  0  0  0
 11  6  1  0  0  0  0
 14 17  2  0  0  0  0
 14 16  2  0  0  0  0
 15 20  1  0  0  0  0
 15 14  1  0  0  0  0
 18  9  1  0  0  0  0
 18 14  1  0  0  0  0
 19 15  1  0  0  0  0
 21 15  1  0  0  0  0
M  RAD  3   2   2   3   3   4   2
M  END
