Coordinates from ORCA-job PhN2+~TfO-_B3LYPG-6-31G_dp-CH-Scan-d09-49-n800
 OpenBabel11261919123D

 21 20  0  0  0  0  0  0  0  0999 V2000
   -1.7654    0.6211    0.0025 C   0  0  0  0  0  0  0  0  0  0  0  0
   -3.0773    1.0883    0.0241 N   0  0  0  0  0  0  0  0  0  0  0  0
   -4.1072    1.5262    0.0178 N   0  0  0  0  0  0  0  0  0  0  0  0
   -0.8355    1.6472   -0.2286 C   0  0  0  0  0  0  0  0  0  0  0  0
    0.4763    1.0906   -0.2475 C   0  0  0  0  0  0  0  0  0  0  0  0
    0.7506   -0.2597   -0.0563 C   0  0  0  0  0  0  0  0  0  0  0  0
   -0.2805   -1.2051    0.1725 C   0  0  0  0  0  0  0  0  0  0  0  0
   -1.5876   -0.7753    0.2059 C   0  0  0  0  0  0  0  0  0  0  0  0
   -1.9683    5.3235    0.1816 H   0  0  0  0  0  0  0  0  0  0  0  0
    1.3246    1.7545   -0.4192 H   0  0  0  0  0  0  0  0  0  0  0  0
    1.7800   -0.6142   -0.0800 H   0  0  0  0  0  0  0  0  0  0  0  0
   -0.0416   -2.2533    0.3207 H   0  0  0  0  0  0  0  0  0  0  0  0
   -2.4208   -1.4519    0.3765 H   0  0  0  0  0  0  0  0  0  0  0  0
   -4.0548    5.5519    0.6347 S   0  0  0  0  0  0  0  0  0  0  0  0
   -4.8234    5.1381   -1.0135 C   0  0  0  0  0  0  0  0  0  0  0  0
   -3.9045    4.2985    1.3609 O   0  0  0  0  0  0  0  0  0  0  0  0
   -4.7556    6.7037    1.1618 O   0  0  0  0  0  0  0  0  0  0  0  0
   -2.6012    6.0616    0.1261 O   0  0  0  0  0  0  0  0  0  0  0  0
   -4.1255    4.1550   -1.5892 F   0  0  0  0  0  0  0  0  0  0  0  0
   -6.0742    4.7331   -0.8040 F   0  0  0  0  0  0  0  0  0  0  0  0
   -4.8209    6.2091   -1.8001 F   0  0  0  0  0  0  0  0  0  0  0  0
  1  2  1  0  0  0  0
  1  8  2  0  0  0  0
  3  2  1  0  0  0  0
  4  1  1  0  0  0  0
  5  4  2  0  0  0  0
  5  6  1  0  0  0  0
  6  7  2  0  0  0  0
  7  8  1  0  0  0  0
  7 12  1  0  0  0  0
  8 13  1  0  0  0  0
 10  5  1  0  0  0  0
 11  6  1  0  0  0  0
 14 17  2  0  0  0  0
 14 16  2  0  0  0  0
 15 20  1  0  0  0  0
 15 14  1  0  0  0  0
 18  9  1  0  0  0  0
 18 14  1  0  0  0  0
 19 15  1  0  0  0  0
 21 15  1  0  0  0  0
M  RAD  3   2   2   3   3   4   2
M  END
