Coordinates from ORCA-job PhN2+~TfO-_B3LYPG-6-31G_dp-CH-Scan-d09-49-n800
 OpenBabel11261919123D

 21 20  0  0  0  0  0  0  0  0999 V2000
   -1.8884    1.1033   -0.6156 C   0  0  0  0  0  0  0  0  0  0  0  0
   -3.0778    1.2312   -1.3229 N   0  0  0  0  0  0  0  0  0  0  0  0
   -4.0144    1.1457   -1.9147 N   0  0  0  0  0  0  0  0  0  0  0  0
   -0.9109    2.1048   -0.7061 C   0  0  0  0  0  0  0  0  0  0  0  0
    0.2723    1.8845   -0.0083 C   0  0  0  0  0  0  0  0  0  0  0  0
    0.4530    0.7225    0.7464 C   0  0  0  0  0  0  0  0  0  0  0  0
   -0.5484   -0.2547    0.8175 C   0  0  0  0  0  0  0  0  0  0  0  0
   -1.7407   -0.0784    0.1312 C   0  0  0  0  0  0  0  0  0  0  0  0
   -1.0895    2.9228   -1.2156 H   0  0  0  0  0  0  0  0  0  0  0  0
    1.0479    2.6419   -0.0418 H   0  0  0  0  0  0  0  0  0  0  0  0
    1.3793    0.5774    1.2934 H   0  0  0  0  0  0  0  0  0  0  0  0
   -0.4020   -1.1495    1.4126 H   0  0  0  0  0  0  0  0  0  0  0  0
   -2.5413   -0.8080    0.1747 H   0  0  0  0  0  0  0  0  0  0  0  0
   -3.5093    4.0235   -0.0027 S   0  0  0  0  0  0  0  0  0  0  0  0
   -4.8890    5.2632   -0.0728 C   0  0  0  0  0  0  0  0  0  0  0  0
   -4.1429    2.7979    0.5567 O   0  0  0  0  0  0  0  0  0  0  0  0
   -2.4648    4.6433    0.8312 O   0  0  0  0  0  0  0  0  0  0  0  0
   -3.1319    3.8475   -1.4424 O   0  0  0  0  0  0  0  0  0  0  0  0
   -5.8953    4.8014   -0.8325 F   0  0  0  0  0  0  0  0  0  0  0  0
   -5.3627    5.5057    1.1569 F   0  0  0  0  0  0  0  0  0  0  0  0
   -4.4560    6.4169   -0.5988 F   0  0  0  0  0  0  0  0  0  0  0  0
  1  8  1  0  0  0  0
  2  1  1  0  0  0  0
  3  2  1  0  0  0  0
  4  1  2  0  0  0  0
  4  5  1  0  0  0  0
  5  6  2  0  0  0  0
  6  7  1  0  0  0  0
  6 11  1  0  0  0  0
  7 12  1  0  0  0  0
  8 13  1  0  0  0  0
  8  7  2  0  0  0  0
  9  4  1  0  0  0  0
 10  5  1  0  0  0  0
 14 16  2  0  0  0  0
 14 17  1  0  0  0  0
 15 14  1  0  0  0  0
 15 20  1  0  0  0  0
 18 14  2  0  0  0  0
 19 15  1  0  0  0  0
 21 15  1  0  0  0  0
M  RAD  3   2   2   3   3  17   2
M  END
