Coordinates from ORCA-job PhN2+~TfO-_B3LYPG-6-31G_dp-CH-Scan-d09-49-n800
 OpenBabel11261919123D

 21 20  0  0  0  0  0  0  0  0999 V2000
   -1.8467    0.6742    0.0620 C   0  0  0  0  0  0  0  0  0  0  0  0
   -3.1774    1.0743    0.1177 N   0  0  0  0  0  0  0  0  0  0  0  0
   -4.2302    1.4515    0.1445 N   0  0  0  0  0  0  0  0  0  0  0  0
   -0.9560    1.7479   -0.1075 C   0  0  0  0  0  0  0  0  0  0  0  0
    0.3767    1.2511   -0.1650 C   0  0  0  0  0  0  0  0  0  0  0  0
    0.7077   -0.0965   -0.0627 C   0  0  0  0  0  0  0  0  0  0  0  0
   -0.2820   -1.0955    0.1083 C   0  0  0  0  0  0  0  0  0  0  0  0
   -1.6056   -0.7232    0.1745 C   0  0  0  0  0  0  0  0  0  0  0  0
   -1.9221    4.8840    0.0993 H   0  0  0  0  0  0  0  0  0  0  0  0
    1.1945    1.9602   -0.2958 H   0  0  0  0  0  0  0  0  0  0  0  0
    1.7505   -0.4052   -0.1137 H   0  0  0  0  0  0  0  0  0  0  0  0
   -0.0002   -2.1404    0.1872 H   0  0  0  0  0  0  0  0  0  0  0  0
   -2.4083   -1.4439    0.3047 H   0  0  0  0  0  0  0  0  0  0  0  0
   -3.9350    5.4419    0.6028 S   0  0  0  0  0  0  0  0  0  0  0  0
   -4.7779    5.1045   -1.0259 C   0  0  0  0  0  0  0  0  0  0  0  0
   -3.9766    4.1979    1.3599 O   0  0  0  0  0  0  0  0  0  0  0  0
   -4.4508    6.6979    1.1054 O   0  0  0  0  0  0  0  0  0  0  0  0
   -2.4322    5.7156    0.0724 O   0  0  0  0  0  0  0  0  0  0  0  0
   -4.2261    4.0253   -1.5908 F   0  0  0  0  0  0  0  0  0  0  0  0
   -6.0687    4.8726   -0.7939 F   0  0  0  0  0  0  0  0  0  0  0  0
   -4.6464    6.1486   -1.8372 F   0  0  0  0  0  0  0  0  0  0  0  0
  1  2  1  0  0  0  0
  1  8  2  0  0  0  0
  2  3  1  0  0  0  0
  4  1  1  0  0  0  0
  5  4  2  0  0  0  0
  5  6  1  0  0  0  0
  6  7  2  0  0  0  0
  7  8  1  0  0  0  0
  7 12  1  0  0  0  0
  8 13  1  0  0  0  0
 10  5  1  0  0  0  0
 11  6  1  0  0  0  0
 14 17  2  0  0  0  0
 14 16  2  0  0  0  0
 15 20  1  0  0  0  0
 15 14  1  0  0  0  0
 18  9  1  0  0  0  0
 18 14  1  0  0  0  0
 19 15  1  0  0  0  0
 21 15  1  0  0  0  0
M  RAD  3   2   2   3   3   4   2
M  END
