Coordinates from ORCA-job PhN2+~TfO-_B3LYPG-6-31G_dp-CH-Scan-d09-49-n800
 OpenBabel11261919123D

 21 20  0  0  0  0  0  0  0  0999 V2000
   -1.9980    0.7830    0.1386 C   0  0  0  0  0  0  0  0  0  0  0  0
   -3.3491    1.0742    0.2591 N   0  0  0  0  0  0  0  0  0  0  0  0
   -4.4280    1.3517    0.3458 N   0  0  0  0  0  0  0  0  0  0  0  0
   -1.1730    1.9145   -0.0021 C   0  0  0  0  0  0  0  0  0  0  0  0
    0.1840    1.5177   -0.1266 C   0  0  0  0  0  0  0  0  0  0  0  0
    0.6050    0.1907   -0.1097 C   0  0  0  0  0  0  0  0  0  0  0  0
   -0.3120   -0.8762    0.0372 C   0  0  0  0  0  0  0  0  0  0  0  0
   -1.6540   -0.5961    0.1663 C   0  0  0  0  0  0  0  0  0  0  0  0
   -1.9010    4.2176    0.0844 H   0  0  0  0  0  0  0  0  0  0  0  0
    0.9452    2.2880   -0.2427 H   0  0  0  0  0  0  0  0  0  0  0  0
    1.6628   -0.0438   -0.2119 H   0  0  0  0  0  0  0  0  0  0  0  0
    0.0368   -1.9036    0.0488 H   0  0  0  0  0  0  0  0  0  0  0  0
   -2.4018   -1.3750    0.2831 H   0  0  0  0  0  0  0  0  0  0  0  0
   -3.7452    5.2191    0.5785 S   0  0  0  0  0  0  0  0  0  0  0  0
   -4.6076    5.0016   -1.0580 C   0  0  0  0  0  0  0  0  0  0  0  0
   -4.0852    4.0395    1.3679 O   0  0  0  0  0  0  0  0  0  0  0  0
   -4.0161    6.5685    1.0318 O   0  0  0  0  0  0  0  0  0  0  0  0
   -2.2216    5.1571    0.0961 O   0  0  0  0  0  0  0  0  0  0  0  0
   -4.2706    3.8126   -1.5777 F   0  0  0  0  0  0  0  0  0  0  0  0
   -5.9253    5.0347   -0.8592 F   0  0  0  0  0  0  0  0  0  0  0  0
   -4.2582    5.9668   -1.9031 F   0  0  0  0  0  0  0  0  0  0  0  0
  1  8  1  0  0  0  0
  1  2  1  0  0  0  0
  2  3  1  0  0  0  0
  4  1  2  0  0  0  0
  5  6  2  0  0  0  0
  5  4  1  0  0  0  0
  6  7  1  0  0  0  0
  7 12  1  0  0  0  0
  7  8  2  0  0  0  0
  8 13  1  0  0  0  0
  9 18  1  0  0  0  0
 10  5  1  0  0  0  0
 11  6  1  0  0  0  0
 14 17  2  0  0  0  0
 14 16  2  0  0  0  0
 15 20  1  0  0  0  0
 15 14  1  0  0  0  0
 18 14  1  0  0  0  0
 19 15  1  0  0  0  0
 21 15  1  0  0  0  0
M  RAD  3   2   2   3   3   4   2
M  END
