Coordinates from ORCA-job PhN2+~TfO-_B3LYPG-6-31G_dp-CH-Scan-d09-49-n800
 OpenBabel11261919123D

 21 20  0  0  0  0  0  0  0  0999 V2000
   -1.8031    0.6540   -0.1466 C   0  0  0  0  0  0  0  0  0  0  0  0
   -3.1049    1.1485   -0.2220 N   0  0  0  0  0  0  0  0  0  0  0  0
   -4.1170    1.6154   -0.3242 N   0  0  0  0  0  0  0  0  0  0  0  0
   -0.8579    1.6029   -0.5628 C   0  0  0  0  0  0  0  0  0  0  0  0
    0.4442    1.0294   -0.4756 C   0  0  0  0  0  0  0  0  0  0  0  0
    0.6940   -0.2665   -0.0357 C   0  0  0  0  0  0  0  0  0  0  0  0
   -0.3537   -1.1339    0.3644 C   0  0  0  0  0  0  0  0  0  0  0  0
   -1.6532   -0.6819    0.3150 C   0  0  0  0  0  0  0  0  0  0  0  0
   -1.9445    5.6341    0.3044 H   0  0  0  0  0  0  0  0  0  0  0  0
    1.3043    1.6340   -0.7668 H   0  0  0  0  0  0  0  0  0  0  0  0
    1.7168   -0.6381    0.0085 H   0  0  0  0  0  0  0  0  0  0  0  0
   -0.1333   -2.1401    0.7050 H   0  0  0  0  0  0  0  0  0  0  0  0
   -2.4984   -1.2990    0.6077 H   0  0  0  0  0  0  0  0  0  0  0  0
   -4.0442    5.4553    0.7195 S   0  0  0  0  0  0  0  0  0  0  0  0
   -4.6942    5.0440   -0.9801 C   0  0  0  0  0  0  0  0  0  0  0  0
   -3.6813    4.1961    1.3544 O   0  0  0  0  0  0  0  0  0  0  0  0
   -4.9477    6.4197    1.3103 O   0  0  0  0  0  0  0  0  0  0  0  0
   -2.6945    6.2550    0.2977 O   0  0  0  0  0  0  0  0  0  0  0  0
   -3.7839    4.3185   -1.6332 F   0  0  0  0  0  0  0  0  0  0  0  0
   -5.8129    4.3347   -0.8396 F   0  0  0  0  0  0  0  0  0  0  0  0
   -4.9477    6.1606   -1.6537 F   0  0  0  0  0  0  0  0  0  0  0  0
  1  8  2  0  0  0  0
  2  1  1  0  0  0  0
  3  2  1  0  0  0  0
  4  5  2  0  0  0  0
  4  1  1  0  0  0  0
  5  6  1  0  0  0  0
  6 11  1  0  0  0  0
  6  7  2  0  0  0  0
  7 12  1  0  0  0  0
  8  7  1  0  0  0  0
  8 13  1  0  0  0  0
 10  5  1  0  0  0  0
 14 17  2  0  0  0  0
 14 16  2  0  0  0  0
 15 20  1  0  0  0  0
 15 14  1  0  0  0  0
 18  9  1  0  0  0  0
 18 14  1  0  0  0  0
 19 15  1  0  0  0  0
 21 15  1  0  0  0  0
M  RAD  3   2   2   3   3   4   2
M  END
