Coordinates from ORCA-job PhN2+~TfO-_B3LYPG-6-31G_dp-CH-Scan-d09-49-n800
 OpenBabel11261919123D

 21 20  0  0  0  0  0  0  0  0999 V2000
   -2.0218    0.8016    0.1359 C   0  0  0  0  0  0  0  0  0  0  0  0
   -3.3764    1.0759    0.2514 N   0  0  0  0  0  0  0  0  0  0  0  0
   -4.4589    1.3391    0.3341 N   0  0  0  0  0  0  0  0  0  0  0  0
   -1.2062    1.9404   -0.0045 C   0  0  0  0  0  0  0  0  0  0  0  0
    0.1549    1.5593   -0.1235 C   0  0  0  0  0  0  0  0  0  0  0  0
    0.5902    0.2368   -0.1021 C   0  0  0  0  0  0  0  0  0  0  0  0
   -0.3158   -0.8390    0.0439 C   0  0  0  0  0  0  0  0  0  0  0  0
   -1.6613   -0.5728    0.1675 C   0  0  0  0  0  0  0  0  0  0  0  0
   -1.8963    4.1037    0.0632 H   0  0  0  0  0  0  0  0  0  0  0  0
    0.9071    2.3383   -0.2384 H   0  0  0  0  0  0  0  0  0  0  0  0
    1.6509    0.0139   -0.1998 H   0  0  0  0  0  0  0  0  0  0  0  0
    0.0436   -1.8626    0.0591 H   0  0  0  0  0  0  0  0  0  0  0  0
   -2.4009   -1.3595    0.2833 H   0  0  0  0  0  0  0  0  0  0  0  0
   -3.7026    5.1733    0.5736 S   0  0  0  0  0  0  0  0  0  0  0  0
   -4.5921    4.9925   -1.0519 C   0  0  0  0  0  0  0  0  0  0  0  0
   -4.0784    4.0035    1.3627 O   0  0  0  0  0  0  0  0  0  0  0  0
   -3.9273    6.5286    1.0359 O   0  0  0  0  0  0  0  0  0  0  0  0
   -2.1925    5.0587    0.0749 O   0  0  0  0  0  0  0  0  0  0  0  0
   -4.3027    3.7939   -1.5810 F   0  0  0  0  0  0  0  0  0  0  0  0
   -5.9059    5.0695   -0.8387 F   0  0  0  0  0  0  0  0  0  0  0  0
   -4.2205    5.9477   -1.8994 F   0  0  0  0  0  0  0  0  0  0  0  0
  1  8  1  0  0  0  0
  1  2  1  0  0  0  0
  2  3  1  0  0  0  0
  4  1  2  0  0  0  0
  5  6  2  0  0  0  0
  5  4  1  0  0  0  0
  6  7  1  0  0  0  0
  7 12  1  0  0  0  0
  7  8  2  0  0  0  0
  8 13  1  0  0  0  0
  9 18  1  0  0  0  0
 10  5  1  0  0  0  0
 11  6  1  0  0  0  0
 14 17  2  0  0  0  0
 14 16  2  0  0  0  0
 15 20  1  0  0  0  0
 15 14  1  0  0  0  0
 18 14  1  0  0  0  0
 19 15  1  0  0  0  0
 21 15  1  0  0  0  0
M  RAD  3   2   2   3   3   4   2
M  END
