Coordinates from ORCA-job PhN2+~TfO-_B3LYPG-6-31G_dp-CH-Scan-d09-49-n800
 OpenBabel11261919123D

 21 20  0  0  0  0  0  0  0  0999 V2000
   -1.8824    0.6995    0.0733 C   0  0  0  0  0  0  0  0  0  0  0  0
   -3.2187    1.0760    0.1366 N   0  0  0  0  0  0  0  0  0  0  0  0
   -4.2778    1.4334    0.1720 N   0  0  0  0  0  0  0  0  0  0  0  0
   -1.0059    1.7875   -0.0843 C   0  0  0  0  0  0  0  0  0  0  0  0
    0.3338    1.3132   -0.1490 C   0  0  0  0  0  0  0  0  0  0  0  0
    0.6854   -0.0306   -0.0639 C   0  0  0  0  0  0  0  0  0  0  0  0
   -0.2888   -1.0460    0.0954 C   0  0  0  0  0  0  0  0  0  0  0  0
   -1.6178   -0.6948    0.1678 C   0  0  0  0  0  0  0  0  0  0  0  0
   -1.9092    4.7253    0.0772 H   0  0  0  0  0  0  0  0  0  0  0  0
    1.1399    2.0368   -0.2714 H   0  0  0  0  0  0  0  0  0  0  0  0
    1.7327   -0.3224   -0.1199 H   0  0  0  0  0  0  0  0  0  0  0  0
    0.0087   -2.0875    0.1606 H   0  0  0  0  0  0  0  0  0  0  0  0
   -2.4091   -1.4294    0.2900 H   0  0  0  0  0  0  0  0  0  0  0  0
   -3.8852    5.3905    0.5966 S   0  0  0  0  0  0  0  0  0  0  0  0
   -4.7479    5.0815   -1.0270 C   0  0  0  0  0  0  0  0  0  0  0  0
   -3.9904    4.1557    1.3630 O   0  0  0  0  0  0  0  0  0  0  0  0
   -4.3397    6.6733    1.0910 O   0  0  0  0  0  0  0  0  0  0  0  0
   -2.3743    5.5854    0.0627 O   0  0  0  0  0  0  0  0  0  0  0  0
   -4.2403    3.9793   -1.5905 F   0  0  0  0  0  0  0  0  0  0  0  0
   -6.0460    4.9000   -0.7900 F   0  0  0  0  0  0  0  0  0  0  0  0
   -4.5799    6.1161   -1.8439 F   0  0  0  0  0  0  0  0  0  0  0  0
  1  2  1  0  0  0  0
  1  8  2  0  0  0  0
  2  3  1  0  0  0  0
  4  1  1  0  0  0  0
  5  4  2  0  0  0  0
  5  6  1  0  0  0  0
  6  7  2  0  0  0  0
  7 12  1  0  0  0  0
  7  8  1  0  0  0  0
  8 13  1  0  0  0  0
 10  5  1  0  0  0  0
 11  6  1  0  0  0  0
 14 17  2  0  0  0  0
 14 16  2  0  0  0  0
 15 20  1  0  0  0  0
 15 14  1  0  0  0  0
 18  9  1  0  0  0  0
 18 14  1  0  0  0  0
 19 15  1  0  0  0  0
 21 15  1  0  0  0  0
M  RAD  3   2   2   3   3   4   2
M  END
