Coordinates from ORCA-job PhN2+~TfO-_B3LYPG-6-31G_dp-CH-Scan-d09-49-n800
 OpenBabel11261919123D

 21 20  0  0  0  0  0  0  0  0999 V2000
   -1.8266    0.6694   -0.1188 C   0  0  0  0  0  0  0  0  0  0  0  0
   -3.1352    1.1452   -0.1837 N   0  0  0  0  0  0  0  0  0  0  0  0
   -4.1552    1.5969   -0.2732 N   0  0  0  0  0  0  0  0  0  0  0  0
   -0.8902    1.6514   -0.4756 C   0  0  0  0  0  0  0  0  0  0  0  0
    0.4190    1.0928   -0.4017 C   0  0  0  0  0  0  0  0  0  0  0  0
    0.6835   -0.2195   -0.0232 C   0  0  0  0  0  0  0  0  0  0  0  0
   -0.3554   -1.1208    0.3206 C   0  0  0  0  0  0  0  0  0  0  0  0
   -1.6608   -0.6857    0.2774 C   0  0  0  0  0  0  0  0  0  0  0  0
   -1.9046    5.5094    0.2180 H   0  0  0  0  0  0  0  0  0  0  0  0
    1.2731    1.7234   -0.6524 H   0  0  0  0  0  0  0  0  0  0  0  0
    1.7112   -0.5776    0.0155 H   0  0  0  0  0  0  0  0  0  0  0  0
   -0.1238   -2.1393    0.6143 H   0  0  0  0  0  0  0  0  0  0  0  0
   -2.4999   -1.3290    0.5285 H   0  0  0  0  0  0  0  0  0  0  0  0
   -3.9969    5.4392    0.7006 S   0  0  0  0  0  0  0  0  0  0  0  0
   -4.7011    5.0272   -0.9769 C   0  0  0  0  0  0  0  0  0  0  0  0
   -3.6830    4.1751    1.3514 O   0  0  0  0  0  0  0  0  0  0  0  0
   -4.8416    6.4559    1.2909 O   0  0  0  0  0  0  0  0  0  0  0  0
   -2.6220    6.1676    0.2376 O   0  0  0  0  0  0  0  0  0  0  0  0
   -3.8272    4.2699   -1.6448 F   0  0  0  0  0  0  0  0  0  0  0  0
   -5.8341    4.3493   -0.8002 F   0  0  0  0  0  0  0  0  0  0  0  0
   -4.9420    6.1420   -1.6579 F   0  0  0  0  0  0  0  0  0  0  0  0
  1  8  2  0  0  0  0
  2  1  1  0  0  0  0
  3  2  1  0  0  0  0
  4  5  2  0  0  0  0
  4  1  1  0  0  0  0
  5  6  1  0  0  0  0
  6 11  1  0  0  0  0
  6  7  2  0  0  0  0
  7 12  1  0  0  0  0
  8  7  1  0  0  0  0
  8 13  1  0  0  0  0
  9 18  1  0  0  0  0
 10  5  1  0  0  0  0
 14 17  2  0  0  0  0
 14 16  2  0  0  0  0
 15 20  1  0  0  0  0
 15 14  1  0  0  0  0
 18 14  1  0  0  0  0
 19 15  1  0  0  0  0
 21 15  1  0  0  0  0
M  RAD  3   2   2   3   3   4   2
M  END
