Coordinates from ORCA-job PhN2+~TfO-_B3LYPG-6-31G_dp-CH-Scan-d09-49-n800
 OpenBabel11261919123D

 21 20  0  0  0  0  0  0  0  0999 V2000
   -1.7585    0.6313   -0.1814 C   0  0  0  0  0  0  0  0  0  0  0  0
   -3.0474    1.1579   -0.2687 N   0  0  0  0  0  0  0  0  0  0  0  0
   -4.0471    1.6482   -0.3841 N   0  0  0  0  0  0  0  0  0  0  0  0
   -0.7962    1.5279   -0.6668 C   0  0  0  0  0  0  0  0  0  0  0  0
    0.4923    0.9266   -0.5626 C   0  0  0  0  0  0  0  0  0  0  0  0
    0.7148   -0.3477   -0.0512 C   0  0  0  0  0  0  0  0  0  0  0  0
   -0.3492   -1.1620    0.4134 C   0  0  0  0  0  0  0  0  0  0  0  0
   -1.6371   -0.6789    0.3563 C   0  0  0  0  0  0  0  0  0  0  0  0
   -2.0197    5.8128    0.4108 H   0  0  0  0  0  0  0  0  0  0  0  0
    1.3632    1.4902   -0.9002 H   0  0  0  0  0  0  0  0  0  0  0  0
    1.7280   -0.7439    0.0004 H   0  0  0  0  0  0  0  0  0  0  0  0
   -0.1499   -2.1527    0.8081 H   0  0  0  0  0  0  0  0  0  0  0  0
   -2.4935   -1.2548    0.6965 H   0  0  0  0  0  0  0  0  0  0  0  0
   -4.1162    5.4940    0.7419 S   0  0  0  0  0  0  0  0  0  0  0  0
   -4.6991    5.0738   -0.9801 C   0  0  0  0  0  0  0  0  0  0  0  0
   -3.6856    4.2508    1.3662 O   0  0  0  0  0  0  0  0  0  0  0  0
   -5.0926    6.3888    1.3261 O   0  0  0  0  0  0  0  0  0  0  0  0
   -2.8081    6.3818    0.3627 O   0  0  0  0  0  0  0  0  0  0  0  0
   -3.7381    4.4001   -1.6151 F   0  0  0  0  0  0  0  0  0  0  0  0
   -5.7869    4.3120   -0.8790 F   0  0  0  0  0  0  0  0  0  0  0  0
   -4.9858    6.1865   -1.6468 F   0  0  0  0  0  0  0  0  0  0  0  0
  1  8  2  0  0  0  0
  2  1  1  0  0  0  0
  3  2  1  0  0  0  0
  4  5  2  0  0  0  0
  4  1  1  0  0  0  0
  5  6  1  0  0  0  0
  6 11  1  0  0  0  0
  6  7  2  0  0  0  0
  7 12  1  0  0  0  0
  8  7  1  0  0  0  0
  8 13  1  0  0  0  0
 10  5  1  0  0  0  0
 14 17  2  0  0  0  0
 14 16  2  0  0  0  0
 15 20  1  0  0  0  0
 15 14  1  0  0  0  0
 18  9  1  0  0  0  0
 18 14  1  0  0  0  0
 19 15  1  0  0  0  0
 21 15  1  0  0  0  0
M  RAD  3   2   2   3   3   4   2
M  END
