Coordinates from ORCA-job PhN2+~TfO-_B3LYPG-6-31G_dp-CH-Scan-d09-49-n800
 OpenBabel11261919123D

 21 20  0  0  0  0  0  0  0  0999 V2000
   -1.7625    0.6330   -0.1789 C   0  0  0  0  0  0  0  0  0  0  0  0
   -3.0526    1.1568   -0.2654 N   0  0  0  0  0  0  0  0  0  0  0  0
   -4.0533    1.6452   -0.3799 N   0  0  0  0  0  0  0  0  0  0  0  0
   -0.8017    1.5339   -0.6595 C   0  0  0  0  0  0  0  0  0  0  0  0
    0.4881    0.9351   -0.5565 C   0  0  0  0  0  0  0  0  0  0  0  0
    0.7129   -0.3408   -0.0501 C   0  0  0  0  0  0  0  0  0  0  0  0
   -0.3497   -1.1594    0.4101 C   0  0  0  0  0  0  0  0  0  0  0  0
   -1.6386   -0.6790    0.3535 C   0  0  0  0  0  0  0  0  0  0  0  0
   -2.0131    5.7991    0.4035 H   0  0  0  0  0  0  0  0  0  0  0  0
    1.3580    1.5020   -0.8909 H   0  0  0  0  0  0  0  0  0  0  0  0
    1.7270   -0.7348    0.0009 H   0  0  0  0  0  0  0  0  0  0  0  0
   -0.1485   -2.1513    0.8010 H   0  0  0  0  0  0  0  0  0  0  0  0
   -2.4940   -1.2583    0.6905 H   0  0  0  0  0  0  0  0  0  0  0  0
   -4.1104    5.4905    0.7403 S   0  0  0  0  0  0  0  0  0  0  0  0
   -4.6980    5.0712   -0.9802 C   0  0  0  0  0  0  0  0  0  0  0  0
   -3.6848    4.2458    1.3652 O   0  0  0  0  0  0  0  0  0  0  0  0
   -5.0816    6.3904    1.3251 O   0  0  0  0  0  0  0  0  0  0  0  0
   -2.7990    6.3720    0.3583 O   0  0  0  0  0  0  0  0  0  0  0  0
   -3.7409    4.3933   -1.6165 F   0  0  0  0  0  0  0  0  0  0  0  0
   -5.7886    4.3136   -0.8765 F   0  0  0  0  0  0  0  0  0  0  0  0
   -4.9817    6.1844   -1.6474 F   0  0  0  0  0  0  0  0  0  0  0  0
  1  8  2  0  0  0  0
  2  1  1  0  0  0  0
  3  2  1  0  0  0  0
  4  5  2  0  0  0  0
  4  1  1  0  0  0  0
  5  6  1  0  0  0  0
  6 11  1  0  0  0  0
  6  7  2  0  0  0  0
  7 12  1  0  0  0  0
  8  7  1  0  0  0  0
  8 13  1  0  0  0  0
 10  5  1  0  0  0  0
 14 17  2  0  0  0  0
 14 16  2  0  0  0  0
 15 20  1  0  0  0  0
 15 14  1  0  0  0  0
 18  9  1  0  0  0  0
 18 14  1  0  0  0  0
 19 15  1  0  0  0  0
 21 15  1  0  0  0  0
M  RAD  3   2   2   3   3   4   2
M  END
