Coordinates from ORCA-job PhN2+~TfO-_B3LYPG-6-31G_dp-CH-Scan-d09-49-n800
 OpenBabel11261919123D

 21 20  0  0  0  0  0  0  0  0999 V2000
   -1.8655    0.6889    0.0674 C   0  0  0  0  0  0  0  0  0  0  0  0
   -3.1994    1.0759    0.1259 N   0  0  0  0  0  0  0  0  0  0  0  0
   -4.2562    1.4409    0.1576 N   0  0  0  0  0  0  0  0  0  0  0  0
   -0.9818    1.7699   -0.0945 C   0  0  0  0  0  0  0  0  0  0  0  0
    0.3545    1.2846   -0.1552 C   0  0  0  0  0  0  0  0  0  0  0  0
    0.6961   -0.0611   -0.0621 C   0  0  0  0  0  0  0  0  0  0  0  0
   -0.2859   -1.0686    0.1017 C   0  0  0  0  0  0  0  0  0  0  0  0
   -1.6123   -0.7071    0.1703 C   0  0  0  0  0  0  0  0  0  0  0  0
   -1.9141    4.7974    0.0840 H   0  0  0  0  0  0  0  0  0  0  0  0
    1.1664    2.0013   -0.2807 H   0  0  0  0  0  0  0  0  0  0  0  0
    1.7413   -0.3612   -0.1149 H   0  0  0  0  0  0  0  0  0  0  0  0
    0.0039   -2.1119    0.1733 H   0  0  0  0  0  0  0  0  0  0  0  0
   -2.4093   -1.4351    0.2954 H   0  0  0  0  0  0  0  0  0  0  0  0
   -3.9073    5.4136    0.5993 S   0  0  0  0  0  0  0  0  0  0  0  0
   -4.7633    5.0923   -1.0257 C   0  0  0  0  0  0  0  0  0  0  0  0
   -3.9834    4.1740    1.3611 O   0  0  0  0  0  0  0  0  0  0  0  0
   -4.3886    6.6847    1.0984 O   0  0  0  0  0  0  0  0  0  0  0  0
   -2.4003    5.6445    0.0651 O   0  0  0  0  0  0  0  0  0  0  0  0
   -4.2365    4.0004   -1.5911 F   0  0  0  0  0  0  0  0  0  0  0  0
   -6.0581    4.8879   -0.7893 F   0  0  0  0  0  0  0  0  0  0  0  0
   -4.6128    6.1317   -1.8397 F   0  0  0  0  0  0  0  0  0  0  0  0
  1  2  1  0  0  0  0
  1  8  2  0  0  0  0
  2  3  1  0  0  0  0
  4  1  1  0  0  0  0
  5  4  2  0  0  0  0
  5  6  1  0  0  0  0
  6  7  2  0  0  0  0
  7  8  1  0  0  0  0
  7 12  1  0  0  0  0
  8 13  1  0  0  0  0
 10  5  1  0  0  0  0
 11  6  1  0  0  0  0
 14 17  2  0  0  0  0
 14 16  2  0  0  0  0
 15 20  1  0  0  0  0
 15 14  1  0  0  0  0
 18  9  1  0  0  0  0
 18 14  1  0  0  0  0
 19 15  1  0  0  0  0
 21 15  1  0  0  0  0
M  RAD  3   2   2   3   3   4   2
M  END
