Coordinates from ORCA-job PhN2+~TfO-_B3LYPG-6-31G_dp-CH-Scan-d09-49-n800
 OpenBabel11261919123D

 21 20  0  0  0  0  0  0  0  0999 V2000
   -1.7730    0.6250    0.0119 C   0  0  0  0  0  0  0  0  0  0  0  0
   -3.0872    1.0850    0.0392 N   0  0  0  0  0  0  0  0  0  0  0  0
   -4.1199    1.5164    0.0382 N   0  0  0  0  0  0  0  0  0  0  0  0
   -0.8477    1.6574   -0.2103 C   0  0  0  0  0  0  0  0  0  0  0  0
    0.4665    1.1071   -0.2359 C   0  0  0  0  0  0  0  0  0  0  0  0
    0.7472   -0.2438   -0.0582 C   0  0  0  0  0  0  0  0  0  0  0  0
   -0.2793   -1.1960    0.1624 C   0  0  0  0  0  0  0  0  0  0  0  0
   -1.5883   -0.7724    0.2015 C   0  0  0  0  0  0  0  0  0  0  0  0
   -1.9624    5.2791    0.1725 H   0  0  0  0  0  0  0  0  0  0  0  0
    1.3116    1.7765   -0.4019 H   0  0  0  0  0  0  0  0  0  0  0  0
    1.7782   -0.5932   -0.0866 H   0  0  0  0  0  0  0  0  0  0  0  0
   -0.0356   -2.2445    0.3001 H   0  0  0  0  0  0  0  0  0  0  0  0
   -2.4182   -1.4545    0.3665 H   0  0  0  0  0  0  0  0  0  0  0  0
   -4.0439    5.5430    0.6300 S   0  0  0  0  0  0  0  0  0  0  0  0
   -4.8204    5.1363   -1.0161 C   0  0  0  0  0  0  0  0  0  0  0  0
   -3.9143    4.2895    1.3601 O   0  0  0  0  0  0  0  0  0  0  0  0
   -4.7257    6.7076    1.1540 O   0  0  0  0  0  0  0  0  0  0  0  0
   -2.5830    6.0279    0.1193 O   0  0  0  0  0  0  0  0  0  0  0  0
   -4.1395    4.1393   -1.5887 F   0  0  0  0  0  0  0  0  0  0  0  0
   -6.0777    4.7531   -0.8047 F   0  0  0  0  0  0  0  0  0  0  0  0
   -4.8003    6.2040   -1.8070 F   0  0  0  0  0  0  0  0  0  0  0  0
  1  2  1  0  0  0  0
  1  8  2  0  0  0  0
  3  2  1  0  0  0  0
  4  1  1  0  0  0  0
  5  4  2  0  0  0  0
  5  6  1  0  0  0  0
  6  7  2  0  0  0  0
  7  8  1  0  0  0  0
  7 12  1  0  0  0  0
  8 13  1  0  0  0  0
 10  5  1  0  0  0  0
 11  6  1  0  0  0  0
 14 17  2  0  0  0  0
 14 16  2  0  0  0  0
 15 20  1  0  0  0  0
 15 14  1  0  0  0  0
 18  9  1  0  0  0  0
 18 14  1  0  0  0  0
 19 15  1  0  0  0  0
 21 15  1  0  0  0  0
M  RAD  3   2   2   3   3   4   2
M  END
