Coordinates from ORCA-job PhN2+~TfO-_B3LYPG-6-31G_dp-CH-Scan-d09-49-n800
 OpenBabel11261919123D

 21 20  0  0  0  0  0  0  0  0999 V2000
   -1.7827    0.6305    0.0229 C   0  0  0  0  0  0  0  0  0  0  0  0
   -3.0995    1.0815    0.0568 N   0  0  0  0  0  0  0  0  0  0  0  0
   -4.1354    1.5049    0.0618 N   0  0  0  0  0  0  0  0  0  0  0  0
   -0.8628    1.6701   -0.1890 C   0  0  0  0  0  0  0  0  0  0  0  0
    0.4543    1.1276   -0.2224 C   0  0  0  0  0  0  0  0  0  0  0  0
    0.7427   -0.2236   -0.0605 C   0  0  0  0  0  0  0  0  0  0  0  0
   -0.2782   -1.1838    0.1507 C   0  0  0  0  0  0  0  0  0  0  0  0
   -1.5895   -0.7680    0.1965 C   0  0  0  0  0  0  0  0  0  0  0  0
   -1.9558    5.2228    0.1621 H   0  0  0  0  0  0  0  0  0  0  0  0
    1.2953    1.8036   -0.3819 H   0  0  0  0  0  0  0  0  0  0  0  0
    1.7755   -0.5670   -0.0944 H   0  0  0  0  0  0  0  0  0  0  0  0
   -0.0286   -2.2325    0.2761 H   0  0  0  0  0  0  0  0  0  0  0  0
   -2.4153   -1.4565    0.3548 H   0  0  0  0  0  0  0  0  0  0  0  0
   -4.0301    5.5314    0.6247 S   0  0  0  0  0  0  0  0  0  0  0  0
   -4.8159    5.1334   -1.0192 C   0  0  0  0  0  0  0  0  0  0  0  0
   -3.9267    4.2784    1.3597 O   0  0  0  0  0  0  0  0  0  0  0  0
   -4.6880    6.7117    1.1442 O   0  0  0  0  0  0  0  0  0  0  0  0
   -2.5605    5.9849    0.1117 O   0  0  0  0  0  0  0  0  0  0  0  0
   -4.1557    4.1203   -1.5880 F   0  0  0  0  0  0  0  0  0  0  0  0
   -6.0805    4.7764   -0.8054 F   0  0  0  0  0  0  0  0  0  0  0  0
   -4.7751    6.1968   -1.8149 F   0  0  0  0  0  0  0  0  0  0  0  0
  1  2  1  0  0  0  0
  1  8  2  0  0  0  0
  2  3  1  0  0  0  0
  4  1  1  0  0  0  0
  5  4  2  0  0  0  0
  5  6  1  0  0  0  0
  6  7  2  0  0  0  0
  7  8  1  0  0  0  0
  7 12  1  0  0  0  0
  8 13  1  0  0  0  0
 10  5  1  0  0  0  0
 11  6  1  0  0  0  0
 14 17  2  0  0  0  0
 14 16  2  0  0  0  0
 15 20  1  0  0  0  0
 15 14  1  0  0  0  0
 18  9  1  0  0  0  0
 18 14  1  0  0  0  0
 19 15  1  0  0  0  0
 21 15  1  0  0  0  0
M  RAD  3   2   2   3   3   4   2
M  END
