Coordinates from ORCA-job PhN2+~TfO-_B3LYPG-6-31G_dp-CH-Scan-d09-49-n800
 OpenBabel11261919123D

 21 20  0  0  0  0  0  0  0  0999 V2000
   -2.0325    0.8100    0.1305 C   0  0  0  0  0  0  0  0  0  0  0  0
   -3.3890    1.0762    0.2393 N   0  0  0  0  0  0  0  0  0  0  0  0
   -4.4730    1.3344    0.3172 N   0  0  0  0  0  0  0  0  0  0  0  0
   -1.2211    1.9520   -0.0101 C   0  0  0  0  0  0  0  0  0  0  0  0
    0.1422    1.5782   -0.1217 C   0  0  0  0  0  0  0  0  0  0  0  0
    0.5844    0.2581   -0.0937 C   0  0  0  0  0  0  0  0  0  0  0  0
   -0.3165   -0.8216    0.0518 C   0  0  0  0  0  0  0  0  0  0  0  0
   -1.6640   -0.5620    0.1682 C   0  0  0  0  0  0  0  0  0  0  0  0
   -1.8930    4.0479    0.0461 H   0  0  0  0  0  0  0  0  0  0  0  0
    0.8903    2.3612   -0.2357 H   0  0  0  0  0  0  0  0  0  0  0  0
    1.6467    0.0406   -0.1856 H   0  0  0  0  0  0  0  0  0  0  0  0
    0.0479   -1.8434    0.0723 H   0  0  0  0  0  0  0  0  0  0  0  0
   -2.4000   -1.3522    0.2833 H   0  0  0  0  0  0  0  0  0  0  0  0
   -3.6797    5.1495    0.5705 S   0  0  0  0  0  0  0  0  0  0  0  0
   -4.5895    4.9911   -1.0458 C   0  0  0  0  0  0  0  0  0  0  0  0
   -4.0688    3.9831    1.3588 O   0  0  0  0  0  0  0  0  0  0  0  0
   -3.8802    6.5062    1.0408 O   0  0  0  0  0  0  0  0  0  0  0  0
   -2.1793    5.0106    0.0565 O   0  0  0  0  0  0  0  0  0  0  0  0
   -4.3288    3.7890   -1.5827 F   0  0  0  0  0  0  0  0  0  0  0  0
   -5.8996    5.0918   -0.8191 F   0  0  0  0  0  0  0  0  0  0  0  0
   -4.2092    5.9419   -1.8945 F   0  0  0  0  0  0  0  0  0  0  0  0
  1  8  1  0  0  0  0
  1  2  1  0  0  0  0
  2  3  1  0  0  0  0
  4  1  2  0  0  0  0
  5  6  2  0  0  0  0
  5  4  1  0  0  0  0
  6  7  1  0  0  0  0
  7 12  1  0  0  0  0
  7  8  2  0  0  0  0
  8 13  1  0  0  0  0
  9 18  1  0  0  0  0
 10  5  1  0  0  0  0
 11  6  1  0  0  0  0
 14 17  2  0  0  0  0
 14 16  2  0  0  0  0
 15 20  1  0  0  0  0
 15 14  1  0  0  0  0
 18 14  1  0  0  0  0
 19 15  1  0  0  0  0
 21 15  1  0  0  0  0
M  RAD  3   2   2   3   3   4   2
M  END
