Coordinates from ORCA-job PhN2+~TfO-_B3LYPG-6-31G_dp-CH-Scan-d09-49-n800
 OpenBabel11261919123D

 21 20  0  0  0  0  0  0  0  0999 V2000
   -2.0549    0.8278    0.1064 C   0  0  0  0  0  0  0  0  0  0  0  0
   -3.4168    1.0740    0.1846 N   0  0  0  0  0  0  0  0  0  0  0  0
   -4.5055    1.3158    0.2382 N   0  0  0  0  0  0  0  0  0  0  0  0
   -1.2531    1.9762   -0.0387 C   0  0  0  0  0  0  0  0  0  0  0  0
    0.1164    1.6222   -0.1168 C   0  0  0  0  0  0  0  0  0  0  0  0
    0.5761    0.3090   -0.0558 C   0  0  0  0  0  0  0  0  0  0  0  0
   -0.3128   -0.7796    0.0912 C   0  0  0  0  0  0  0  0  0  0  0  0
   -1.6661   -0.5367    0.1757 C   0  0  0  0  0  0  0  0  0  0  0  0
   -1.8874    3.8902   -0.0284 H   0  0  0  0  0  0  0  0  0  0  0  0
    0.8538    2.4150   -0.2297 H   0  0  0  0  0  0  0  0  0  0  0  0
    1.6429    0.1052   -0.1220 H   0  0  0  0  0  0  0  0  0  0  0  0
    0.0643   -1.7958    0.1380 H   0  0  0  0  0  0  0  0  0  0  0  0
   -2.3930   -1.3351    0.2903 H   0  0  0  0  0  0  0  0  0  0  0  0
   -3.6137    5.0803    0.5549 S   0  0  0  0  0  0  0  0  0  0  0  0
   -4.6023    5.0100   -1.0198 C   0  0  0  0  0  0  0  0  0  0  0  0
   -4.0339    3.9153    1.3324 O   0  0  0  0  0  0  0  0  0  0  0  0
   -3.7353    6.4316    1.0686 O   0  0  0  0  0  0  0  0  0  0  0  0
   -2.1545    4.8758   -0.0267 O   0  0  0  0  0  0  0  0  0  0  0  0
   -4.4331    3.8080   -1.5956 F   0  0  0  0  0  0  0  0  0  0  0  0
   -5.8945    5.1753   -0.7337 F   0  0  0  0  0  0  0  0  0  0  0  0
   -4.2094    5.9582   -1.8667 F   0  0  0  0  0  0  0  0  0  0  0  0
  1  8  1  0  0  0  0
  1  2  1  0  0  0  0
  2  3  1  0  0  0  0
  4  1  2  0  0  0  0
  5  6  2  0  0  0  0
  5  4  1  0  0  0  0
  6  7  1  0  0  0  0
  7 12  1  0  0  0  0
  7  8  2  0  0  0  0
  8 13  1  0  0  0  0
  9 18  1  0  0  0  0
 10  5  1  0  0  0  0
 11  6  1  0  0  0  0
 14 17  2  0  0  0  0
 14 16  2  0  0  0  0
 15 20  1  0  0  0  0
 15 14  1  0  0  0  0
 18 14  1  0  0  0  0
 19 15  1  0  0  0  0
 21 15  1  0  0  0  0
M  RAD  3   2   2   3   3   4   2
M  END
