Coordinates from ORCA-job PhN2+~TfO-_B3LYPG-6-31G_dp-CH-Scan-d09-49-n800
 OpenBabel11261919123D

 21 20  0  0  0  0  0  0  0  0999 V2000
   -2.0450    0.8183    0.1163 C   0  0  0  0  0  0  0  0  0  0  0  0
   -3.4051    1.0718    0.2066 N   0  0  0  0  0  0  0  0  0  0  0  0
   -4.4921    1.3196    0.2697 N   0  0  0  0  0  0  0  0  0  0  0  0
   -1.2404    1.9647   -0.0286 C   0  0  0  0  0  0  0  0  0  0  0  0
    0.1270    1.6035   -0.1199 C   0  0  0  0  0  0  0  0  0  0  0  0
    0.5808    0.2879   -0.0704 C   0  0  0  0  0  0  0  0  0  0  0  0
   -0.3120   -0.7977    0.0776 C   0  0  0  0  0  0  0  0  0  0  0  0
   -1.6633   -0.5489    0.1748 C   0  0  0  0  0  0  0  0  0  0  0  0
   -1.8919    3.9519   -0.0014 H   0  0  0  0  0  0  0  0  0  0  0  0
    0.8681    2.3928   -0.2344 H   0  0  0  0  0  0  0  0  0  0  0  0
    1.6460    0.0793   -0.1468 H   0  0  0  0  0  0  0  0  0  0  0  0
    0.0609   -1.8158    0.1153 H   0  0  0  0  0  0  0  0  0  0  0  0
   -2.3932   -1.3445    0.2907 H   0  0  0  0  0  0  0  0  0  0  0  0
   -3.6410    5.1075    0.5609 S   0  0  0  0  0  0  0  0  0  0  0  0
   -4.5996    5.0082   -1.0310 C   0  0  0  0  0  0  0  0  0  0  0  0
   -4.0503    3.9403    1.3395 O   0  0  0  0  0  0  0  0  0  0  0  0
   -3.7913    6.4605    1.0613 O   0  0  0  0  0  0  0  0  0  0  0  0
   -2.1648    4.9277    0.0052 O   0  0  0  0  0  0  0  0  0  0  0  0
   -4.3972    3.8064   -1.5951 F   0  0  0  0  0  0  0  0  0  0  0  0
   -5.8991    5.1509   -0.7678 F   0  0  0  0  0  0  0  0  0  0  0  0
   -4.2094    5.9587   -1.8761 F   0  0  0  0  0  0  0  0  0  0  0  0
  1  8  1  0  0  0  0
  1  2  1  0  0  0  0
  2  3  1  0  0  0  0
  4  1  2  0  0  0  0
  5  6  2  0  0  0  0
  5  4  1  0  0  0  0
  6  7  1  0  0  0  0
  7 12  1  0  0  0  0
  7  8  2  0  0  0  0
  8 13  1  0  0  0  0
  9 18  1  0  0  0  0
 10  5  1  0  0  0  0
 11  6  1  0  0  0  0
 14 17  2  0  0  0  0
 14 16  2  0  0  0  0
 15 20  1  0  0  0  0
 15 14  1  0  0  0  0
 18 14  1  0  0  0  0
 19 15  1  0  0  0  0
 21 15  1  0  0  0  0
M  RAD  3   2   2   3   3   4   2
M  END
