Coordinates from ORCA-job PhN2+~TfO-_B3LYPG-6-31G_dp-CH-Scan-d09-49-n800
 OpenBabel11261919123D

 21 20  0  0  0  0  0  0  0  0999 V2000
   -2.0952    0.9055    0.0438 C   0  0  0  0  0  0  0  0  0  0  0  0
   -3.4610    1.1335    0.0360 N   0  0  0  0  0  0  0  0  0  0  0  0
   -4.5527    1.3578    0.0271 N   0  0  0  0  0  0  0  0  0  0  0  0
   -1.2736    2.0393   -0.0936 C   0  0  0  0  0  0  0  0  0  0  0  0
    0.0962    1.7180   -0.0846 C   0  0  0  0  0  0  0  0  0  0  0  0
    0.5617    0.4103    0.0477 C   0  0  0  0  0  0  0  0  0  0  0  0
   -0.3269   -0.6757    0.1806 C   0  0  0  0  0  0  0  0  0  0  0  0
   -1.6873   -0.4444    0.1793 C   0  0  0  0  0  0  0  0  0  0  0  0
   -1.7966    3.4588   -0.1884 H   0  0  0  0  0  0  0  0  0  0  0  0
    0.8193    2.5241   -0.1820 H   0  0  0  0  0  0  0  0  0  0  0  0
    1.6314    0.2159    0.0499 H   0  0  0  0  0  0  0  0  0  0  0  0
    0.0520   -1.6868    0.2844 H   0  0  0  0  0  0  0  0  0  0  0  0
   -2.4103   -1.2472    0.2797 H   0  0  0  0  0  0  0  0  0  0  0  0
   -3.4580    4.9135    0.4839 S   0  0  0  0  0  0  0  0  0  0  0  0
   -4.6509    5.0278   -0.9362 C   0  0  0  0  0  0  0  0  0  0  0  0
   -3.9195    3.7461    1.2549 O   0  0  0  0  0  0  0  0  0  0  0  0
   -3.4409    6.2300    1.1064 O   0  0  0  0  0  0  0  0  0  0  0  0
   -2.1507    4.5971   -0.2737 O   0  0  0  0  0  0  0  0  0  0  0  0
   -4.6959    3.8420   -1.5799 F   0  0  0  0  0  0  0  0  0  0  0  0
   -5.8759    5.3090   -0.4840 F   0  0  0  0  0  0  0  0  0  0  0  0
   -4.2782    5.9682   -1.8048 F   0  0  0  0  0  0  0  0  0  0  0  0
  1  8  2  0  0  0  0
  2  1  1  0  0  0  0
  3  2  1  0  0  0  0
  4  5  2  0  0  0  0
  4  1  1  0  0  0  0
  5  6  1  0  0  0  0
  6 11  1  0  0  0  0
  6  7  2  0  0  0  0
  7 12  1  0  0  0  0
  8  7  1  0  0  0  0
  8 13  1  0  0  0  0
 10  5  1  0  0  0  0
 14 17  2  0  0  0  0
 14 16  2  0  0  0  0
 15 20  1  0  0  0  0
 15 14  1  0  0  0  0
 18  9  1  0  0  0  0
 18 14  1  0  0  0  0
 19 15  1  0  0  0  0
 21 15  1  0  0  0  0
M  RAD  3   2   2   3   3   4   2
M  END
