Coordinates from ORCA-job PhN2+~TfO-_B3LYPG-6-31G_dp-CH-Scan-d09-49-n800
 OpenBabel11261919123D

 21 20  0  0  0  0  0  0  0  0999 V2000
   -1.7921    0.6477   -0.1573 C   0  0  0  0  0  0  0  0  0  0  0  0
   -3.0906    1.1505   -0.2365 N   0  0  0  0  0  0  0  0  0  0  0  0
   -4.0994    1.6237   -0.3430 N   0  0  0  0  0  0  0  0  0  0  0  0
   -0.8426    1.5822   -0.5954 C   0  0  0  0  0  0  0  0  0  0  0  0
    0.4561    1.0018   -0.5029 C   0  0  0  0  0  0  0  0  0  0  0  0
    0.6991   -0.2875   -0.0404 C   0  0  0  0  0  0  0  0  0  0  0  0
   -0.3528   -1.1403    0.3802 C   0  0  0  0  0  0  0  0  0  0  0  0
   -1.6494   -0.6804    0.3284 C   0  0  0  0  0  0  0  0  0  0  0  0
   -1.9635    5.6850    0.3376 H   0  0  0  0  0  0  0  0  0  0  0  0
    1.3189    1.5951   -0.8088 H   0  0  0  0  0  0  0  0  0  0  0  0
    1.7195   -0.6654    0.0061 H   0  0  0  0  0  0  0  0  0  0  0  0
   -0.1376   -2.1417    0.7379 H   0  0  0  0  0  0  0  0  0  0  0  0
   -2.4974   -1.2862    0.6362 H   0  0  0  0  0  0  0  0  0  0  0  0
   -4.0639    5.4641    0.7264 S   0  0  0  0  0  0  0  0  0  0  0  0
   -4.6934    5.0515   -0.9807 C   0  0  0  0  0  0  0  0  0  0  0  0
   -3.6810    4.2085    1.3569 O   0  0  0  0  0  0  0  0  0  0  0  0
   -4.9897    6.4077    1.3161 O   0  0  0  0  0  0  0  0  0  0  0  0
   -2.7256    6.2906    0.3187 O   0  0  0  0  0  0  0  0  0  0  0  0
   -3.7683    4.3401   -1.6283 F   0  0  0  0  0  0  0  0  0  0  0  0
   -5.8044    4.3280   -0.8531 F   0  0  0  0  0  0  0  0  0  0  0  0
   -4.9546    6.1678   -1.6517 F   0  0  0  0  0  0  0  0  0  0  0  0
  1  8  2  0  0  0  0
  2  1  1  0  0  0  0
  3  2  1  0  0  0  0
  4  5  2  0  0  0  0
  4  1  1  0  0  0  0
  5  6  1  0  0  0  0
  6 11  1  0  0  0  0
  6  7  2  0  0  0  0
  7 12  1  0  0  0  0
  8  7  1  0  0  0  0
  8 13  1  0  0  0  0
 10  5  1  0  0  0  0
 14 17  2  0  0  0  0
 14 16  2  0  0  0  0
 15 20  1  0  0  0  0
 15 14  1  0  0  0  0
 18  9  1  0  0  0  0
 18 14  1  0  0  0  0
 19 15  1  0  0  0  0
 21 15  1  0  0  0  0
M  RAD  3   2   2   3   3   4   2
M  END
