Coordinates from ORCA-job PhN2+~TfO-_B3LYPG-6-31G_dp-CH-Scan-d09-49-n800
 OpenBabel11261919123D

 21 20  0  0  0  0  0  0  0  0999 V2000
   -1.8174    0.6631   -0.1297 C   0  0  0  0  0  0  0  0  0  0  0  0
   -3.1234    1.1462   -0.1989 N   0  0  0  0  0  0  0  0  0  0  0  0
   -4.1403    1.6039   -0.2936 N   0  0  0  0  0  0  0  0  0  0  0  0
   -0.8777    1.6325   -0.5104 C   0  0  0  0  0  0  0  0  0  0  0  0
    0.4288    1.0681   -0.4314 C   0  0  0  0  0  0  0  0  0  0  0  0
    0.6877   -0.2380   -0.0283 C   0  0  0  0  0  0  0  0  0  0  0  0
   -0.3547   -1.1263    0.3382 C   0  0  0  0  0  0  0  0  0  0  0  0
   -1.6578   -0.6847    0.2927 C   0  0  0  0  0  0  0  0  0  0  0  0
   -1.9196    5.5598    0.2524 H   0  0  0  0  0  0  0  0  0  0  0  0
    1.2853    1.6888   -0.6984 H   0  0  0  0  0  0  0  0  0  0  0  0
    1.7135   -0.6013    0.0124 H   0  0  0  0  0  0  0  0  0  0  0  0
   -0.1274   -2.1401    0.6507 H   0  0  0  0  0  0  0  0  0  0  0  0
   -2.4994   -1.3180    0.5605 H   0  0  0  0  0  0  0  0  0  0  0  0
   -4.0158    5.4456    0.7082 S   0  0  0  0  0  0  0  0  0  0  0  0
   -4.6982    5.0339   -0.9784 C   0  0  0  0  0  0  0  0  0  0  0  0
   -3.6822    4.1829    1.3521 O   0  0  0  0  0  0  0  0  0  0  0  0
   -4.8844    6.4414    1.2992 O   0  0  0  0  0  0  0  0  0  0  0  0
   -2.6505    6.2031    0.2621 O   0  0  0  0  0  0  0  0  0  0  0  0
   -3.8099    4.2885   -1.6401 F   0  0  0  0  0  0  0  0  0  0  0  0
   -5.8262    4.3441   -0.8163 F   0  0  0  0  0  0  0  0  0  0  0  0
   -4.9432    6.1494   -1.6567 F   0  0  0  0  0  0  0  0  0  0  0  0
  1  8  2  0  0  0  0
  2  1  1  0  0  0  0
  3  2  1  0  0  0  0
  4  5  2  0  0  0  0
  4  1  1  0  0  0  0
  5  6  1  0  0  0  0
  6 11  1  0  0  0  0
  6  7  2  0  0  0  0
  7 12  1  0  0  0  0
  8  7  1  0  0  0  0
  8 13  1  0  0  0  0
  9 18  1  0  0  0  0
 10  5  1  0  0  0  0
 14 17  2  0  0  0  0
 14 16  2  0  0  0  0
 15 20  1  0  0  0  0
 15 14  1  0  0  0  0
 18 14  1  0  0  0  0
 19 15  1  0  0  0  0
 21 15  1  0  0  0  0
M  RAD  3   2   2   3   3   4   2
M  END
