Coordinates from ORCA-job PhN2+~TfO-_B3LYPG-6-31G_dp-CH-Scan-d09-49-n800
 OpenBabel11261919123D

 21 20  0  0  0  0  0  0  0  0999 V2000
   -2.0366    0.8120    0.1252 C   0  0  0  0  0  0  0  0  0  0  0  0
   -3.3945    1.0733    0.2270 N   0  0  0  0  0  0  0  0  0  0  0  0
   -4.4797    1.3275    0.2992 N   0  0  0  0  0  0  0  0  0  0  0  0
   -1.2281    1.9558   -0.0177 C   0  0  0  0  0  0  0  0  0  0  0  0
    0.1369    1.5869   -0.1214 C   0  0  0  0  0  0  0  0  0  0  0  0
    0.5838    0.2686   -0.0847 C   0  0  0  0  0  0  0  0  0  0  0  0
   -0.3138   -0.8135    0.0624 C   0  0  0  0  0  0  0  0  0  0  0  0
   -1.6628   -0.5582    0.1715 C   0  0  0  0  0  0  0  0  0  0  0  0
   -1.8935    4.0119    0.0272 H   0  0  0  0  0  0  0  0  0  0  0  0
    0.8822    2.3724   -0.2361 H   0  0  0  0  0  0  0  0  0  0  0  0
    1.6473    0.0546   -0.1706 H   0  0  0  0  0  0  0  0  0  0  0  0
    0.0541   -1.8338    0.0900 H   0  0  0  0  0  0  0  0  0  0  0  0
   -2.3963   -1.3505    0.2874 H   0  0  0  0  0  0  0  0  0  0  0  0
   -3.6658    5.1339    0.5668 S   0  0  0  0  0  0  0  0  0  0  0  0
   -4.5946    5.0000   -1.0406 C   0  0  0  0  0  0  0  0  0  0  0  0
   -4.0628    3.9664    1.3501 O   0  0  0  0  0  0  0  0  0  0  0  0
   -3.8466    6.4890    1.0501 O   0  0  0  0  0  0  0  0  0  0  0  0
   -2.1742    4.9793    0.0366 O   0  0  0  0  0  0  0  0  0  0  0  0
   -4.3570    3.7981   -1.5893 F   0  0  0  0  0  0  0  0  0  0  0  0
   -5.9009    5.1177   -0.7998 F   0  0  0  0  0  0  0  0  0  0  0  0
   -4.2098    5.9514   -1.8869 F   0  0  0  0  0  0  0  0  0  0  0  0
  1  8  1  0  0  0  0
  1  2  1  0  0  0  0
  2  3  1  0  0  0  0
  4  1  2  0  0  0  0
  5  6  2  0  0  0  0
  5  4  1  0  0  0  0
  6  7  1  0  0  0  0
  7 12  1  0  0  0  0
  7  8  2  0  0  0  0
  8 13  1  0  0  0  0
  9 18  1  0  0  0  0
 10  5  1  0  0  0  0
 11  6  1  0  0  0  0
 14 17  2  0  0  0  0
 14 16  2  0  0  0  0
 15 20  1  0  0  0  0
 15 14  1  0  0  0  0
 18 14  1  0  0  0  0
 19 15  1  0  0  0  0
 21 15  1  0  0  0  0
M  RAD  3   2   2   3   3   4   2
M  END
