Coordinates from ORCA-job PhN2+~TfO-_B3LYPG-6-31G_dp-CH-Scan-d09-49-n800
 OpenBabel11261919123D

 21 20  0  0  0  0  0  0  0  0999 V2000
   -1.8872    1.0955   -0.5959 C   0  0  0  0  0  0  0  0  0  0  0  0
   -3.0826    1.2361   -1.2894 N   0  0  0  0  0  0  0  0  0  0  0  0
   -4.0277    1.1704   -1.8700 N   0  0  0  0  0  0  0  0  0  0  0  0
   -0.9115    2.0997   -0.6777 C   0  0  0  0  0  0  0  0  0  0  0  0
    0.2784    1.8700    0.0047 C   0  0  0  0  0  0  0  0  0  0  0  0
    0.4679    0.6942    0.7361 C   0  0  0  0  0  0  0  0  0  0  0  0
   -0.5311   -0.2861    0.7987 C   0  0  0  0  0  0  0  0  0  0  0  0
   -1.7304   -0.0998    0.1272 C   0  0  0  0  0  0  0  0  0  0  0  0
   -1.1084    2.9510   -1.1847 H   0  0  0  0  0  0  0  0  0  0  0  0
    1.0528    2.6289   -0.0220 H   0  0  0  0  0  0  0  0  0  0  0  0
    1.3996    0.5405    1.2713 H   0  0  0  0  0  0  0  0  0  0  0  0
   -0.3770   -1.1916    1.3754 H   0  0  0  0  0  0  0  0  0  0  0  0
   -2.5286   -0.8324    0.1639 H   0  0  0  0  0  0  0  0  0  0  0  0
   -3.5058    4.0596   -0.0014 S   0  0  0  0  0  0  0  0  0  0  0  0
   -4.9094    5.2705   -0.0949 C   0  0  0  0  0  0  0  0  0  0  0  0
   -4.1199    2.8301    0.5719 O   0  0  0  0  0  0  0  0  0  0  0  0
   -2.4782    4.7108    0.8288 O   0  0  0  0  0  0  0  0  0  0  0  0
   -3.1192    3.8710   -1.4371 O   0  0  0  0  0  0  0  0  0  0  0  0
   -5.9037    4.7774   -0.8512 F   0  0  0  0  0  0  0  0  0  0  0  0
   -5.3930    5.5221    1.1292 F   0  0  0  0  0  0  0  0  0  0  0  0
   -4.4977    6.4247   -0.6367 F   0  0  0  0  0  0  0  0  0  0  0  0
  1  8  1  0  0  0  0
  2  1  1  0  0  0  0
  3  2  1  0  0  0  0
  4  1  2  0  0  0  0
  4  5  1  0  0  0  0
  5  6  2  0  0  0  0
  6  7  1  0  0  0  0
  6 11  1  0  0  0  0
  7 12  1  0  0  0  0
  8 13  1  0  0  0  0
  8  7  2  0  0  0  0
  9  4  1  0  0  0  0
 10  5  1  0  0  0  0
 14 16  2  0  0  0  0
 14 17  1  0  0  0  0
 15 14  1  0  0  0  0
 15 20  1  0  0  0  0
 18 14  2  0  0  0  0
 19 15  1  0  0  0  0
 21 15  1  0  0  0  0
M  RAD  3   2   2   3   3  17   2
M  END
