Coordinates from ORCA-job PhN2+~TfO-_B3LYPG-6-31G_dp-CH-Scan-d09-49-n800
 OpenBabel11261919123D

 21 20  0  0  0  0  0  0  0  0999 V2000
   -1.9775    0.7667    0.1369 C   0  0  0  0  0  0  0  0  0  0  0  0
   -3.3261    1.0716    0.2569 N   0  0  0  0  0  0  0  0  0  0  0  0
   -4.4017    1.3630    0.3416 N   0  0  0  0  0  0  0  0  0  0  0  0
   -1.1445    1.8922   -0.0035 C   0  0  0  0  0  0  0  0  0  0  0  0
    0.2093    1.4820   -0.1285 C   0  0  0  0  0  0  0  0  0  0  0  0
    0.6186    0.1516   -0.1117 C   0  0  0  0  0  0  0  0  0  0  0  0
   -0.3076   -0.9078    0.0355 C   0  0  0  0  0  0  0  0  0  0  0  0
   -1.6469   -0.6159    0.1648 C   0  0  0  0  0  0  0  0  0  0  0  0
   -1.9010    4.3113    0.1064 H   0  0  0  0  0  0  0  0  0  0  0  0
    0.9780    2.2451   -0.2450 H   0  0  0  0  0  0  0  0  0  0  0  0
    1.6744   -0.0923   -0.2140 H   0  0  0  0  0  0  0  0  0  0  0  0
    0.0327   -1.9380    0.0470 H   0  0  0  0  0  0  0  0  0  0  0  0
   -2.4018   -1.3881    0.2816 H   0  0  0  0  0  0  0  0  0  0  0  0
   -3.7776    5.2564    0.5804 S   0  0  0  0  0  0  0  0  0  0  0  0
   -4.6262    5.0119   -1.0598 C   0  0  0  0  0  0  0  0  0  0  0  0
   -4.0835    4.0696    1.3718 O   0  0  0  0  0  0  0  0  0  0  0  0
   -4.0844    6.5994    1.0287 O   0  0  0  0  0  0  0  0  0  0  0  0
   -2.2480    5.2368    0.1020 O   0  0  0  0  0  0  0  0  0  0  0  0
   -4.2573    3.8305   -1.5734 F   0  0  0  0  0  0  0  0  0  0  0  0
   -5.9449    5.0134   -0.8658 F   0  0  0  0  0  0  0  0  0  0  0  0
   -4.2968    5.9834   -1.9054 F   0  0  0  0  0  0  0  0  0  0  0  0
  1  8  1  0  0  0  0
  1  2  1  0  0  0  0
  2  3  1  0  0  0  0
  4  1  2  0  0  0  0
  5  6  2  0  0  0  0
  5  4  1  0  0  0  0
  6  7  1  0  0  0  0
  7 12  1  0  0  0  0
  7  8  2  0  0  0  0
  8 13  1  0  0  0  0
 10  5  1  0  0  0  0
 11  6  1  0  0  0  0
 14 17  2  0  0  0  0
 14 16  2  0  0  0  0
 15 20  1  0  0  0  0
 15 14  1  0  0  0  0
 18  9  1  0  0  0  0
 18 14  1  0  0  0  0
 19 15  1  0  0  0  0
 21 15  1  0  0  0  0
M  RAD  3   2   2   3   3   4   2
M  END
