Coordinates from ORCA-job PhN2+~TfO-_B3LYPG-6-31G_dp-CH-Scan-d09-49-n800
 OpenBabel11261919123D

 21 20  0  0  0  0  0  0  0  0999 V2000
   -1.8852    1.0825   -0.5747 C   0  0  0  0  0  0  0  0  0  0  0  0
   -3.0849    1.2388   -1.2555 N   0  0  0  0  0  0  0  0  0  0  0  0
   -4.0321    1.2050   -1.8349 N   0  0  0  0  0  0  0  0  0  0  0  0
   -0.9096    2.0872   -0.6496 C   0  0  0  0  0  0  0  0  0  0  0  0
    0.2870    1.8493    0.0172 C   0  0  0  0  0  0  0  0  0  0  0  0
    0.4828    0.6612    0.7273 C   0  0  0  0  0  0  0  0  0  0  0  0
   -0.5152   -0.3207    0.7837 C   0  0  0  0  0  0  0  0  0  0  0  0
   -1.7214   -0.1246    0.1273 C   0  0  0  0  0  0  0  0  0  0  0  0
   -1.1368    3.0052   -1.1716 H   0  0  0  0  0  0  0  0  0  0  0  0
    1.0612    2.6085   -0.0045 H   0  0  0  0  0  0  0  0  0  0  0  0
    1.4196    0.4988    1.2510 H   0  0  0  0  0  0  0  0  0  0  0  0
   -0.3545   -1.2354    1.3438 H   0  0  0  0  0  0  0  0  0  0  0  0
   -2.5183   -0.8590    0.1589 H   0  0  0  0  0  0  0  0  0  0  0  0
   -3.4997    4.1018    0.0001 S   0  0  0  0  0  0  0  0  0  0  0  0
   -4.9330    5.2754   -0.1153 C   0  0  0  0  0  0  0  0  0  0  0  0
   -4.0872    2.8655    0.5870 O   0  0  0  0  0  0  0  0  0  0  0  0
   -2.4928    4.7894    0.8254 O   0  0  0  0  0  0  0  0  0  0  0  0
   -3.1036    3.9037   -1.4320 O   0  0  0  0  0  0  0  0  0  0  0  0
   -5.9133    4.7448   -0.8651 F   0  0  0  0  0  0  0  0  0  0  0  0
   -5.4257    5.5346    1.1035 F   0  0  0  0  0  0  0  0  0  0  0  0
   -4.5500    6.4307   -0.6754 F   0  0  0  0  0  0  0  0  0  0  0  0
  1  8  1  0  0  0  0
  2  1  1  0  0  0  0
  3  2  1  0  0  0  0
  4  1  2  0  0  0  0
  4  5  1  0  0  0  0
  5  6  2  0  0  0  0
  6  7  1  0  0  0  0
  6 11  1  0  0  0  0
  7 12  1  0  0  0  0
  8 13  1  0  0  0  0
  8  7  2  0  0  0  0
  9  4  1  0  0  0  0
 10  5  1  0  0  0  0
 14 16  2  0  0  0  0
 14 17  1  0  0  0  0
 15 14  1  0  0  0  0
 15 20  1  0  0  0  0
 18 14  2  0  0  0  0
 19 15  1  0  0  0  0
 21 15  1  0  0  0  0
M  RAD  3   2   2   3   3  17   2
M  END
