Coordinates from ORCA-job PhN2+~TfO-_B3LYPG-6-31G_dp-CH-Scan-d09-49-n800
 OpenBabel11261919123D

 21 20  0  0  0  0  0  0  0  0999 V2000
   -1.9389    1.1175   -0.3780 C   0  0  0  0  0  0  0  0  0  0  0  0
   -3.1899    1.4409   -0.8842 N   0  0  0  0  0  0  0  0  0  0  0  0
   -4.1825    1.5636   -1.3698 N   0  0  0  0  0  0  0  0  0  0  0  0
   -0.9158    2.0723   -0.4517 C   0  0  0  0  0  0  0  0  0  0  0  0
    0.3333    1.6855    0.0189 C   0  0  0  0  0  0  0  0  0  0  0  0
    0.5281    0.4040    0.5455 C   0  0  0  0  0  0  0  0  0  0  0  0
   -0.5214   -0.5234    0.6085 C   0  0  0  0  0  0  0  0  0  0  0  0
   -1.7818   -0.1799    0.1412 C   0  0  0  0  0  0  0  0  0  0  0  0
   -1.2050    3.1594   -0.8705 H   0  0  0  0  0  0  0  0  0  0  0  0
    1.1544    2.3935   -0.0118 H   0  0  0  0  0  0  0  0  0  0  0  0
    1.5077    0.1222    0.9188 H   0  0  0  0  0  0  0  0  0  0  0  0
   -0.3560   -1.5110    1.0245 H   0  0  0  0  0  0  0  0  0  0  0  0
   -2.6164   -0.8711    0.1778 H   0  0  0  0  0  0  0  0  0  0  0  0
   -3.3048    4.5882    0.1345 S   0  0  0  0  0  0  0  0  0  0  0  0
   -5.0346    5.0458   -0.3642 C   0  0  0  0  0  0  0  0  0  0  0  0
   -3.4972    3.3131    0.8860 O   0  0  0  0  0  0  0  0  0  0  0  0
   -2.8066    5.7318    0.9039 O   0  0  0  0  0  0  0  0  0  0  0  0
   -2.6502    4.3463   -1.1924 O   0  0  0  0  0  0  0  0  0  0  0  0
   -5.5940    4.0314   -1.0634 F   0  0  0  0  0  0  0  0  0  0  0  0
   -5.7979    5.2755    0.7110 F   0  0  0  0  0  0  0  0  0  0  0  0
   -5.0432    6.1370   -1.1382 F   0  0  0  0  0  0  0  0  0  0  0  0
  1  8  1  0  0  0  0
  2  1  1  0  0  0  0
  3  2  1  0  0  0  0
  4  1  2  0  0  0  0
  4  5  1  0  0  0  0
  5  6  2  0  0  0  0
  6  7  1  0  0  0  0
  6 11  1  0  0  0  0
  7 12  1  0  0  0  0
  8 13  1  0  0  0  0
  8  7  2  0  0  0  0
  9  4  1  0  0  0  0
 10  5  1  0  0  0  0
 14 16  2  0  0  0  0
 14 17  1  0  0  0  0
 15 14  1  0  0  0  0
 15 20  1  0  0  0  0
 18 14  2  0  0  0  0
 19 15  1  0  0  0  0
 21 15  1  0  0  0  0
M  RAD  3   2   2   3   3  17   2
M  END
