Coordinates from ORCA-job PhN2+~TfO-_B3LYPG-6-31G_dp-CH-Scan-d09-49-n800
 OpenBabel11261919123D

 21 20  0  0  0  0  0  0  0  0999 V2000
   -1.7666    0.6217    0.0041 C   0  0  0  0  0  0  0  0  0  0  0  0
   -3.0789    1.0877    0.0267 N   0  0  0  0  0  0  0  0  0  0  0  0
   -4.1094    1.5245    0.0212 N   0  0  0  0  0  0  0  0  0  0  0  0
   -0.8375    1.6489   -0.2255 C   0  0  0  0  0  0  0  0  0  0  0  0
    0.4747    1.0934   -0.2455 C   0  0  0  0  0  0  0  0  0  0  0  0
    0.7500   -0.2571   -0.0566 C   0  0  0  0  0  0  0  0  0  0  0  0
   -0.2803   -1.2037    0.1707 C   0  0  0  0  0  0  0  0  0  0  0  0
   -1.5877   -0.7749    0.2052 C   0  0  0  0  0  0  0  0  0  0  0  0
   -1.9673    5.3162    0.1800 H   0  0  0  0  0  0  0  0  0  0  0  0
    1.3224    1.7582   -0.4162 H   0  0  0  0  0  0  0  0  0  0  0  0
    1.7797   -0.6107   -0.0811 H   0  0  0  0  0  0  0  0  0  0  0  0
   -0.0406   -2.2519    0.3171 H   0  0  0  0  0  0  0  0  0  0  0  0
   -2.4204   -1.4524    0.3748 H   0  0  0  0  0  0  0  0  0  0  0  0
   -4.0530    5.5504    0.6339 S   0  0  0  0  0  0  0  0  0  0  0  0
   -4.8230    5.1378   -1.0139 C   0  0  0  0  0  0  0  0  0  0  0  0
   -3.9061    4.2970    1.3607 O   0  0  0  0  0  0  0  0  0  0  0  0
   -4.7506    6.7044    1.1605 O   0  0  0  0  0  0  0  0  0  0  0  0
   -2.5982    6.0561    0.1249 O   0  0  0  0  0  0  0  0  0  0  0  0
   -4.1279    4.1524   -1.5891 F   0  0  0  0  0  0  0  0  0  0  0  0
   -6.0748    4.7365   -0.8041 F   0  0  0  0  0  0  0  0  0  0  0  0
   -4.8174    6.2083   -1.8013 F   0  0  0  0  0  0  0  0  0  0  0  0
  1  2  1  0  0  0  0
  1  8  2  0  0  0  0
  3  2  1  0  0  0  0
  4  1  1  0  0  0  0
  5  4  2  0  0  0  0
  5  6  1  0  0  0  0
  6  7  2  0  0  0  0
  7  8  1  0  0  0  0
  7 12  1  0  0  0  0
  8 13  1  0  0  0  0
 10  5  1  0  0  0  0
 11  6  1  0  0  0  0
 14 17  2  0  0  0  0
 14 16  2  0  0  0  0
 15 20  1  0  0  0  0
 15 14  1  0  0  0  0
 18  9  1  0  0  0  0
 18 14  1  0  0  0  0
 19 15  1  0  0  0  0
 21 15  1  0  0  0  0
M  RAD  3   2   2   3   3   4   2
M  END
