Coordinates from ORCA-job PhN2+~TfO-_B3LYPG-6-31G_dp-CH-Scan-d09-49-n800
 OpenBabel11261919123D

 21 20  0  0  0  0  0  0  0  0999 V2000
   -1.8515    0.6780    0.0635 C   0  0  0  0  0  0  0  0  0  0  0  0
   -3.1831    1.0746    0.1200 N   0  0  0  0  0  0  0  0  0  0  0  0
   -4.2370    1.4485    0.1478 N   0  0  0  0  0  0  0  0  0  0  0  0
   -0.9626    1.7536   -0.1042 C   0  0  0  0  0  0  0  0  0  0  0  0
    0.3710    1.2598   -0.1625 C   0  0  0  0  0  0  0  0  0  0  0  0
    0.7047   -0.0874   -0.0626 C   0  0  0  0  0  0  0  0  0  0  0  0
   -0.2830   -1.0885    0.1066 C   0  0  0  0  0  0  0  0  0  0  0  0
   -1.6072   -0.7191    0.1735 C   0  0  0  0  0  0  0  0  0  0  0  0
   -1.9199    4.8613    0.0955 H   0  0  0  0  0  0  0  0  0  0  0  0
    1.1873    1.9708   -0.2920 H   0  0  0  0  0  0  0  0  0  0  0  0
    1.7482   -0.3938   -0.1140 H   0  0  0  0  0  0  0  0  0  0  0  0
    0.0010   -2.1331    0.1837 H   0  0  0  0  0  0  0  0  0  0  0  0
   -2.4085   -1.4416    0.3025 H   0  0  0  0  0  0  0  0  0  0  0  0
   -3.9279    5.4346    0.6018 S   0  0  0  0  0  0  0  0  0  0  0  0
   -4.7743    5.1015   -1.0259 C   0  0  0  0  0  0  0  0  0  0  0  0
   -3.9786    4.1915    1.3601 O   0  0  0  0  0  0  0  0  0  0  0  0
   -4.4347    6.6946    1.1037 O   0  0  0  0  0  0  0  0  0  0  0  0
   -2.4238    5.6970    0.0705 O   0  0  0  0  0  0  0  0  0  0  0  0
   -4.2290    4.0189   -1.5910 F   0  0  0  0  0  0  0  0  0  0  0  0
   -6.0662    4.8769   -0.7928 F   0  0  0  0  0  0  0  0  0  0  0  0
   -4.6377    6.1445   -1.8379 F   0  0  0  0  0  0  0  0  0  0  0  0
  1  2  1  0  0  0  0
  1  8  2  0  0  0  0
  2  3  1  0  0  0  0
  4  1  1  0  0  0  0
  5  4  2  0  0  0  0
  5  6  1  0  0  0  0
  6  7  2  0  0  0  0
  7  8  1  0  0  0  0
  7 12  1  0  0  0  0
  8 13  1  0  0  0  0
 10  5  1  0  0  0  0
 11  6  1  0  0  0  0
 14 17  2  0  0  0  0
 14 16  2  0  0  0  0
 15 20  1  0  0  0  0
 15 14  1  0  0  0  0
 18  9  1  0  0  0  0
 18 14  1  0  0  0  0
 19 15  1  0  0  0  0
 21 15  1  0  0  0  0
M  RAD  3   2   2   3   3   4   2
M  END
