Coordinates from ORCA-job PhN2+~TfO-_B3LYPG-6-31G_dp-CH-Scan-d09-49-n800
 OpenBabel11261919123D

 21 20  0  0  0  0  0  0  0  0999 V2000
   -2.0312    0.8990    0.0354 C   0  0  0  0  0  0  0  0  0  0  0  0
   -3.3857    1.1888    0.0004 N   0  0  0  0  0  0  0  0  0  0  0  0
   -4.4347    1.5704    0.0102 N   0  0  0  0  0  0  0  0  0  0  0  0
   -1.1542    1.9908   -0.0709 C   0  0  0  0  0  0  0  0  0  0  0  0
    0.2038    1.6671   -0.0255 C   0  0  0  0  0  0  0  0  0  0  0  0
    0.6292    0.3443    0.1175 C   0  0  0  0  0  0  0  0  0  0  0  0
   -0.2911   -0.7137    0.2150 C   0  0  0  0  0  0  0  0  0  0  0  0
   -1.6494   -0.4512    0.1705 C   0  0  0  0  0  0  0  0  0  0  0  0
   -1.6423    3.2199   -0.2170 H   0  0  0  0  0  0  0  0  0  0  0  0
    0.9364    2.4645   -0.1019 H   0  0  0  0  0  0  0  0  0  0  0  0
    1.6924    0.1234    0.1532 H   0  0  0  0  0  0  0  0  0  0  0  0
    0.0579   -1.7346    0.3251 H   0  0  0  0  0  0  0  0  0  0  0  0
   -2.3914   -1.2388    0.2432 H   0  0  0  0  0  0  0  0  0  0  0  0
   -3.4985    4.8909    0.3729 S   0  0  0  0  0  0  0  0  0  0  0  0
   -4.8141    5.1412   -0.9138 C   0  0  0  0  0  0  0  0  0  0  0  0
   -3.9925    3.7134    1.1402 O   0  0  0  0  0  0  0  0  0  0  0  0
   -3.4020    6.1576    1.0959 O   0  0  0  0  0  0  0  0  0  0  0  0
   -2.3024    4.5435   -0.4816 O   0  0  0  0  0  0  0  0  0  0  0  0
   -4.9902    3.9975   -1.6122 F   0  0  0  0  0  0  0  0  0  0  0  0
   -5.9786    5.4611   -0.3389 F   0  0  0  0  0  0  0  0  0  0  0  0
   -4.4746    6.1079   -1.7712 F   0  0  0  0  0  0  0  0  0  0  0  0
  1  8  2  0  0  0  0
  2  3  1  0  0  0  0
  2  1  1  0  0  0  0
  4  5  2  0  0  0  0
  4  1  1  0  0  0  0
  5  6  1  0  0  0  0
  6 11  1  0  0  0  0
  6  7  2  0  0  0  0
  7 12  1  0  0  0  0
  8  7  1  0  0  0  0
  8 13  1  0  0  0  0
  9  4  1  0  0  0  0
 10  5  1  0  0  0  0
 14 17  2  0  0  0  0
 14 16  1  0  0  0  0
 15 20  1  0  0  0  0
 15 14  1  0  0  0  0
 18 14  2  0  0  0  0
 19 15  1  0  0  0  0
 21 15  1  0  0  0  0
M  RAD  3   2   2   3   3  16   2
M  END
