Coordinates from ORCA-job PhN2+~TfO-_B3LYPG-6-31G_dp-CH-Scan-d09-49-n800
 OpenBabel11261919123D

 21 20  0  0  0  0  0  0  0  0999 V2000
   -1.8317    0.6630    0.0570 C   0  0  0  0  0  0  0  0  0  0  0  0
   -3.1596    1.0741    0.1093 N   0  0  0  0  0  0  0  0  0  0  0  0
   -4.2087    1.4618    0.1337 N   0  0  0  0  0  0  0  0  0  0  0  0
   -0.9348    1.7304   -0.1179 C   0  0  0  0  0  0  0  0  0  0  0  0
    0.3946    1.2238   -0.1732 C   0  0  0  0  0  0  0  0  0  0  0  0
    0.7166   -0.1253   -0.0631 C   0  0  0  0  0  0  0  0  0  0  0  0
   -0.2797   -1.1168    0.1137 C   0  0  0  0  0  0  0  0  0  0  0  0
   -1.6007   -0.7354    0.1777 C   0  0  0  0  0  0  0  0  0  0  0  0
   -1.9293    4.9559    0.1111 H   0  0  0  0  0  0  0  0  0  0  0  0
    1.2175    1.9265   -0.3080 H   0  0  0  0  0  0  0  0  0  0  0  0
    1.7574   -0.4413   -0.1122 H   0  0  0  0  0  0  0  0  0  0  0  0
   -0.0046   -2.1631    0.1986 H   0  0  0  0  0  0  0  0  0  0  0  0
   -2.4085   -1.4499    0.3118 H   0  0  0  0  0  0  0  0  0  0  0  0
   -3.9571    5.4646    0.6060 S   0  0  0  0  0  0  0  0  0  0  0  0
   -4.7888    5.1128   -1.0255 C   0  0  0  0  0  0  0  0  0  0  0  0
   -3.9695    4.2182    1.3599 O   0  0  0  0  0  0  0  0  0  0  0  0
   -4.5020    6.7074    1.1108 O   0  0  0  0  0  0  0  0  0  0  0  0
   -2.4590    5.7744    0.0787 O   0  0  0  0  0  0  0  0  0  0  0  0
   -4.2155    4.0446   -1.5896 F   0  0  0  0  0  0  0  0  0  0  0  0
   -6.0756    4.8570   -0.7970 F   0  0  0  0  0  0  0  0  0  0  0  0
   -4.6742    6.1602   -1.8351 F   0  0  0  0  0  0  0  0  0  0  0  0
  1  2  1  0  0  0  0
  1  8  2  0  0  0  0
  2  3  1  0  0  0  0
  4  1  1  0  0  0  0
  5  4  2  0  0  0  0
  5  6  1  0  0  0  0
  6  7  2  0  0  0  0
  7  8  1  0  0  0  0
  7 12  1  0  0  0  0
  8 13  1  0  0  0  0
 10  5  1  0  0  0  0
 11  6  1  0  0  0  0
 14 17  2  0  0  0  0
 14 16  2  0  0  0  0
 15 20  1  0  0  0  0
 15 14  1  0  0  0  0
 18  9  1  0  0  0  0
 18 14  1  0  0  0  0
 19 15  1  0  0  0  0
 21 15  1  0  0  0  0
M  RAD  3   2   2   3   3   4   2
M  END
