Coordinates from ORCA-job PhN2+~TfO-_B3LYPG-6-31G_dp-CH-Scan-d09-49-n800
 OpenBabel11261919123D

 21 20  0  0  0  0  0  0  0  0999 V2000
   -2.0839    0.8634    0.0821 C   0  0  0  0  0  0  0  0  0  0  0  0
   -3.4496    1.0925    0.1297 N   0  0  0  0  0  0  0  0  0  0  0  0
   -4.5420    1.3182    0.1595 N   0  0  0  0  0  0  0  0  0  0  0  0
   -1.2842    2.0139   -0.0591 C   0  0  0  0  0  0  0  0  0  0  0  0
    0.0885    1.6769   -0.1053 C   0  0  0  0  0  0  0  0  0  0  0  0
    0.5595    0.3686   -0.0197 C   0  0  0  0  0  0  0  0  0  0  0  0
   -0.3223   -0.7252    0.1208 C   0  0  0  0  0  0  0  0  0  0  0  0
   -1.6799   -0.4942    0.1743 C   0  0  0  0  0  0  0  0  0  0  0  0
   -1.8628    3.7139   -0.0896 H   0  0  0  0  0  0  0  0  0  0  0  0
    0.8171    2.4783   -0.2113 H   0  0  0  0  0  0  0  0  0  0  0  0
    1.6291    0.1750   -0.0610 H   0  0  0  0  0  0  0  0  0  0  0  0
    0.0623   -1.7374    0.1873 H   0  0  0  0  0  0  0  0  0  0  0  0
   -2.4008   -1.2986    0.2825 H   0  0  0  0  0  0  0  0  0  0  0  0
   -3.5379    5.0043    0.5365 S   0  0  0  0  0  0  0  0  0  0  0  0
   -4.6018    5.0007   -0.9889 C   0  0  0  0  0  0  0  0  0  0  0  0
   -3.9848    3.8475    1.3167 O   0  0  0  0  0  0  0  0  0  0  0  0
   -3.5937    6.3498    1.0801 O   0  0  0  0  0  0  0  0  0  0  0  0
   -2.1303    4.7381   -0.1093 O   0  0  0  0  0  0  0  0  0  0  0  0
   -4.5162    3.7980   -1.5865 F   0  0  0  0  0  0  0  0  0  0  0  0
   -5.8723    5.2201   -0.6452 F   0  0  0  0  0  0  0  0  0  0  0  0
   -4.2069    5.9389   -1.8472 F   0  0  0  0  0  0  0  0  0  0  0  0
  1  2  1  0  0  0  0
  1  8  2  0  0  0  0
  2  3  1  0  0  0  0
  4  1  1  0  0  0  0
  5  4  2  0  0  0  0
  5  6  1  0  0  0  0
  6  7  2  0  0  0  0
  7  8  1  0  0  0  0
  7 12  1  0  0  0  0
  8 13  1  0  0  0  0
 10  5  1  0  0  0  0
 11  6  1  0  0  0  0
 14 17  2  0  0  0  0
 14 16  2  0  0  0  0
 15 20  1  0  0  0  0
 15 14  1  0  0  0  0
 18  9  1  0  0  0  0
 18 14  1  0  0  0  0
 19 15  1  0  0  0  0
 21 15  1  0  0  0  0
M  RAD  3   2   2   3   3   4   2
M  END
