Coordinates from ORCA-job PhN2+~TfO-_B3LYPG-6-31G_dp-CH-Scan-d09-49-n800
 OpenBabel11261919123D

 21 20  0  0  0  0  0  0  0  0999 V2000
   -1.7536    0.6292   -0.1843 C   0  0  0  0  0  0  0  0  0  0  0  0
   -3.0411    1.1592   -0.2726 N   0  0  0  0  0  0  0  0  0  0  0  0
   -4.0395    1.6520   -0.3891 N   0  0  0  0  0  0  0  0  0  0  0  0
   -0.7894    1.5207   -0.6754 C   0  0  0  0  0  0  0  0  0  0  0  0
    0.4975    0.9164   -0.5698 C   0  0  0  0  0  0  0  0  0  0  0  0
    0.7170   -0.3561   -0.0525 C   0  0  0  0  0  0  0  0  0  0  0  0
   -0.3487   -1.1651    0.4174 C   0  0  0  0  0  0  0  0  0  0  0  0
   -1.6353   -0.6787    0.3596 C   0  0  0  0  0  0  0  0  0  0  0  0
   -2.0277    5.8292    0.4193 H   0  0  0  0  0  0  0  0  0  0  0  0
    1.3696    1.4758   -0.9112 H   0  0  0  0  0  0  0  0  0  0  0  0
    1.7292   -0.7549   -0.0003 H   0  0  0  0  0  0  0  0  0  0  0  0
   -0.1517   -2.1545    0.8165 H   0  0  0  0  0  0  0  0  0  0  0  0
   -2.4928   -1.2504    0.7037 H   0  0  0  0  0  0  0  0  0  0  0  0
   -4.1232    5.4983    0.7438 S   0  0  0  0  0  0  0  0  0  0  0  0
   -4.7005    5.0770   -0.9799 C   0  0  0  0  0  0  0  0  0  0  0  0
   -3.6866    4.2568    1.3675 O   0  0  0  0  0  0  0  0  0  0  0  0
   -5.1057    6.3868    1.3272 O   0  0  0  0  0  0  0  0  0  0  0  0
   -2.8192    6.3936    0.3680 O   0  0  0  0  0  0  0  0  0  0  0  0
   -3.7350    4.4085   -1.6134 F   0  0  0  0  0  0  0  0  0  0  0  0
   -5.7850    4.3101   -0.8818 F   0  0  0  0  0  0  0  0  0  0  0  0
   -4.9909    6.1891   -1.6461 F   0  0  0  0  0  0  0  0  0  0  0  0
  1  8  2  0  0  0  0
  2  1  1  0  0  0  0
  3  2  1  0  0  0  0
  4  5  2  0  0  0  0
  4  1  1  0  0  0  0
  5  6  1  0  0  0  0
  6 11  1  0  0  0  0
  6  7  2  0  0  0  0
  7 12  1  0  0  0  0
  8  7  1  0  0  0  0
  8 13  1  0  0  0  0
 10  5  1  0  0  0  0
 14 17  2  0  0  0  0
 14 16  2  0  0  0  0
 15 20  1  0  0  0  0
 15 14  1  0  0  0  0
 18  9  1  0  0  0  0
 18 14  1  0  0  0  0
 19 15  1  0  0  0  0
 21 15  1  0  0  0  0
M  RAD  3   2   2   3   3   4   2
M  END
