Coordinates from ORCA-job PhN2+~TfO-_B3LYPG-6-31G_dp-CH-Scan-d09-49-n800
 OpenBabel11261919123D

 21 20  0  0  0  0  0  0  0  0999 V2000
   -1.8419    0.6706    0.0605 C   0  0  0  0  0  0  0  0  0  0  0  0
   -3.1718    1.0741    0.1154 N   0  0  0  0  0  0  0  0  0  0  0  0
   -4.2235    1.4546    0.1411 N   0  0  0  0  0  0  0  0  0  0  0  0
   -0.9493    1.7423   -0.1108 C   0  0  0  0  0  0  0  0  0  0  0  0
    0.3824    1.2425   -0.1677 C   0  0  0  0  0  0  0  0  0  0  0  0
    0.7106   -0.1056   -0.0629 C   0  0  0  0  0  0  0  0  0  0  0  0
   -0.2812   -1.1023    0.1100 C   0  0  0  0  0  0  0  0  0  0  0  0
   -1.6039   -0.7272    0.1756 C   0  0  0  0  0  0  0  0  0  0  0  0
   -1.9243    4.9066    0.1033 H   0  0  0  0  0  0  0  0  0  0  0  0
    1.2018    1.9496   -0.2998 H   0  0  0  0  0  0  0  0  0  0  0  0
    1.7528   -0.4166   -0.1134 H   0  0  0  0  0  0  0  0  0  0  0  0
   -0.0014   -2.1477    0.1908 H   0  0  0  0  0  0  0  0  0  0  0  0
   -2.4083   -1.4460    0.3071 H   0  0  0  0  0  0  0  0  0  0  0  0
   -3.9421    5.4492    0.6038 S   0  0  0  0  0  0  0  0  0  0  0  0
   -4.7814    5.1073   -1.0259 C   0  0  0  0  0  0  0  0  0  0  0  0
   -3.9746    4.2043    1.3598 O   0  0  0  0  0  0  0  0  0  0  0  0
   -4.4671    6.7011    1.1071 O   0  0  0  0  0  0  0  0  0  0  0  0
   -2.4406    5.7341    0.0745 O   0  0  0  0  0  0  0  0  0  0  0  0
   -4.2228    4.0315   -1.5905 F   0  0  0  0  0  0  0  0  0  0  0  0
   -6.0710    4.8680   -0.7951 F   0  0  0  0  0  0  0  0  0  0  0  0
   -4.6550    6.1525   -1.8366 F   0  0  0  0  0  0  0  0  0  0  0  0
  1  2  1  0  0  0  0
  1  8  2  0  0  0  0
  2  3  1  0  0  0  0
  4  1  1  0  0  0  0
  5  4  2  0  0  0  0
  5  6  1  0  0  0  0
  6  7  2  0  0  0  0
  7  8  1  0  0  0  0
  7 12  1  0  0  0  0
  8 13  1  0  0  0  0
 10  5  1  0  0  0  0
 11  6  1  0  0  0  0
 14 17  2  0  0  0  0
 14 16  2  0  0  0  0
 15 20  1  0  0  0  0
 15 14  1  0  0  0  0
 18  9  1  0  0  0  0
 18 14  1  0  0  0  0
 19 15  1  0  0  0  0
 21 15  1  0  0  0  0
M  RAD  3   2   2   3   3   4   2
M  END
