Coordinates from ORCA-job PhN2+~TfO-_B3LYPG-6-31G_dp-CH-Scan-d09-49-n800
 OpenBabel11261919123D

 21 20  0  0  0  0  0  0  0  0999 V2000
   -1.9999    0.7842    0.1388 C   0  0  0  0  0  0  0  0  0  0  0  0
   -3.3512    1.0742    0.2593 N   0  0  0  0  0  0  0  0  0  0  0  0
   -4.4303    1.3509    0.3461 N   0  0  0  0  0  0  0  0  0  0  0  0
   -1.1757    1.9164   -0.0019 C   0  0  0  0  0  0  0  0  0  0  0  0
    0.1817    1.5207   -0.1265 C   0  0  0  0  0  0  0  0  0  0  0  0
    0.6037    0.1941   -0.1097 C   0  0  0  0  0  0  0  0  0  0  0  0
   -0.3124   -0.8736    0.0373 C   0  0  0  0  0  0  0  0  0  0  0  0
   -1.6546   -0.5945    0.1665 C   0  0  0  0  0  0  0  0  0  0  0  0
   -1.9007    4.2099    0.0835 H   0  0  0  0  0  0  0  0  0  0  0  0
    0.9422    2.2917   -0.2426 H   0  0  0  0  0  0  0  0  0  0  0  0
    1.6617   -0.0395   -0.2119 H   0  0  0  0  0  0  0  0  0  0  0  0
    0.0373   -1.9006    0.0488 H   0  0  0  0  0  0  0  0  0  0  0  0
   -2.4018   -1.3740    0.2833 H   0  0  0  0  0  0  0  0  0  0  0  0
   -3.7424    5.2160    0.5782 S   0  0  0  0  0  0  0  0  0  0  0  0
   -4.6058    5.0007   -1.0579 C   0  0  0  0  0  0  0  0  0  0  0  0
   -4.0850    4.0372    1.3676 O   0  0  0  0  0  0  0  0  0  0  0  0
   -4.0105    6.5659    1.0320 O   0  0  0  0  0  0  0  0  0  0  0  0
   -2.2194    5.1506    0.0953 O   0  0  0  0  0  0  0  0  0  0  0  0
   -4.2710    3.8111   -1.5779 F   0  0  0  0  0  0  0  0  0  0  0  0
   -5.9234    5.0360   -0.8587 F   0  0  0  0  0  0  0  0  0  0  0  0
   -4.2552    5.9654   -1.9031 F   0  0  0  0  0  0  0  0  0  0  0  0
  1  8  1  0  0  0  0
  1  2  1  0  0  0  0
  2  3  1  0  0  0  0
  4  1  2  0  0  0  0
  5  6  2  0  0  0  0
  5  4  1  0  0  0  0
  6  7  1  0  0  0  0
  7 12  1  0  0  0  0
  7  8  2  0  0  0  0
  8 13  1  0  0  0  0
  9 18  1  0  0  0  0
 10  5  1  0  0  0  0
 11  6  1  0  0  0  0
 14 17  2  0  0  0  0
 14 16  2  0  0  0  0
 15 20  1  0  0  0  0
 15 14  1  0  0  0  0
 18 14  1  0  0  0  0
 19 15  1  0  0  0  0
 21 15  1  0  0  0  0
M  RAD  3   2   2   3   3   4   2
M  END
