Coordinates from ORCA-job PhN2+~TfO-_B3LYPG-6-31G_dp-CH-Scan-d09-49-n800
 OpenBabel11261919123D

 21 20  0  0  0  0  0  0  0  0999 V2000
   -1.9548    0.7509    0.1293 C   0  0  0  0  0  0  0  0  0  0  0  0
   -3.3004    1.0724    0.2442 N   0  0  0  0  0  0  0  0  0  0  0  0
   -4.3725    1.3780    0.3259 N   0  0  0  0  0  0  0  0  0  0  0  0
   -1.1114    1.8681   -0.0111 C   0  0  0  0  0  0  0  0  0  0  0  0
    0.2389    1.4426   -0.1302 C   0  0  0  0  0  0  0  0  0  0  0  0
    0.6341    0.1081   -0.1079 C   0  0  0  0  0  0  0  0  0  0  0  0
   -0.3036   -0.9416    0.0388 C   0  0  0  0  0  0  0  0  0  0  0  0
   -1.6402   -0.6356    0.1623 C   0  0  0  0  0  0  0  0  0  0  0  0
   -1.9037    4.4120    0.1113 H   0  0  0  0  0  0  0  0  0  0  0  0
    1.0166    2.1968   -0.2461 H   0  0  0  0  0  0  0  0  0  0  0  0
    1.6877   -0.1473   -0.2053 H   0  0  0  0  0  0  0  0  0  0  0  0
    0.0262   -1.9752    0.0544 H   0  0  0  0  0  0  0  0  0  0  0  0
   -2.4038   -1.3995    0.2783 H   0  0  0  0  0  0  0  0  0  0  0  0
   -3.8092    5.2942    0.5837 S   0  0  0  0  0  0  0  0  0  0  0  0
   -4.6497    5.0237   -1.0572 C   0  0  0  0  0  0  0  0  0  0  0  0
   -4.0743    4.0988    1.3758 O   0  0  0  0  0  0  0  0  0  0  0  0
   -4.1541    6.6280    1.0312 O   0  0  0  0  0  0  0  0  0  0  0  0
   -2.2771    5.3231    0.1030 O   0  0  0  0  0  0  0  0  0  0  0  0
   -4.2446    3.8546   -1.5706 F   0  0  0  0  0  0  0  0  0  0  0  0
   -5.9673    4.9854   -0.8620 F   0  0  0  0  0  0  0  0  0  0  0  0
   -4.3497    6.0055   -1.9016 F   0  0  0  0  0  0  0  0  0  0  0  0
  1  8  1  0  0  0  0
  1  2  1  0  0  0  0
  2  3  1  0  0  0  0
  4  1  2  0  0  0  0
  5  6  2  0  0  0  0
  5  4  1  0  0  0  0
  6  7  1  0  0  0  0
  7 12  1  0  0  0  0
  7  8  2  0  0  0  0
  8 13  1  0  0  0  0
 10  5  1  0  0  0  0
 11  6  1  0  0  0  0
 14 17  2  0  0  0  0
 14 16  2  0  0  0  0
 15 20  1  0  0  0  0
 15 14  1  0  0  0  0
 18  9  1  0  0  0  0
 18 14  1  0  0  0  0
 19 15  1  0  0  0  0
 21 15  1  0  0  0  0
M  RAD  3   2   2   3   3   4   2
M  END
