Coordinates from ORCA-job PhN2+~TfO-_B3LYPG-6-31G_dp-CH-Scan-d09-49-n800
 OpenBabel11261919123D

 21 20  0  0  0  0  0  0  0  0999 V2000
   -1.9796    0.9102    0.0232 C   0  0  0  0  0  0  0  0  0  0  0  0
   -3.3268    1.2350   -0.0396 N   0  0  0  0  0  0  0  0  0  0  0  0
   -4.3533    1.6827   -0.0206 N   0  0  0  0  0  0  0  0  0  0  0  0
   -1.0633    1.9706   -0.0505 C   0  0  0  0  0  0  0  0  0  0  0  0
    0.2846    1.6235    0.0203 C   0  0  0  0  0  0  0  0  0  0  0  0
    0.6722    0.2879    0.1607 C   0  0  0  0  0  0  0  0  0  0  0  0
   -0.2773   -0.7439    0.2254 C   0  0  0  0  0  0  0  0  0  0  0  0
   -1.6290   -0.4466    0.1497 C   0  0  0  0  0  0  0  0  0  0  0  0
   -1.5105    3.1501   -0.2019 H   0  0  0  0  0  0  0  0  0  0  0  0
    1.0350    2.4053   -0.0339 H   0  0  0  0  0  0  0  0  0  0  0  0
    1.7280    0.0396    0.2188 H   0  0  0  0  0  0  0  0  0  0  0  0
    0.0419   -1.7748    0.3332 H   0  0  0  0  0  0  0  0  0  0  0  0
   -2.3910   -1.2168    0.1950 H   0  0  0  0  0  0  0  0  0  0  0  0
   -3.5444    4.8823    0.3060 S   0  0  0  0  0  0  0  0  0  0  0  0
   -4.9265    5.1996   -0.8926 C   0  0  0  0  0  0  0  0  0  0  0  0
   -4.0490    3.7122    1.0958 O   0  0  0  0  0  0  0  0  0  0  0  0
   -3.3759    6.1248    1.0600 O   0  0  0  0  0  0  0  0  0  0  0  0
   -2.4188    4.5015   -0.6071 O   0  0  0  0  0  0  0  0  0  0  0  0
   -5.1767    4.0810   -1.6062 F   0  0  0  0  0  0  0  0  0  0  0  0
   -6.0460    5.5400   -0.2444 F   0  0  0  0  0  0  0  0  0  0  0  0
   -4.6064    6.1786   -1.7449 F   0  0  0  0  0  0  0  0  0  0  0  0
  1  8  2  0  0  0  0
  2  3  1  0  0  0  0
  2  1  1  0  0  0  0
  4  5  2  0  0  0  0
  4  1  1  0  0  0  0
  5  6  1  0  0  0  0
  6 11  1  0  0  0  0
  6  7  2  0  0  0  0
  7 12  1  0  0  0  0
  8 13  1  0  0  0  0
  8  7  1  0  0  0  0
  9  4  1  0  0  0  0
 10  5  1  0  0  0  0
 14 17  2  0  0  0  0
 14 16  1  0  0  0  0
 15 20  1  0  0  0  0
 15 14  1  0  0  0  0
 18 14  2  0  0  0  0
 19 15  1  0  0  0  0
 21 15  1  0  0  0  0
M  RAD  3   2   2   3   3  16   2
M  END
