Coordinates from ORCA-job PhN2+~TfO-_B3LYPG-6-31G_dp-CH-Scan-d09-49-n800
 OpenBabel11261919123D

 21 20  0  0  0  0  0  0  0  0999 V2000
   -1.9263    0.7270    0.1154 C   0  0  0  0  0  0  0  0  0  0  0  0
   -3.2684    1.0679    0.2193 N   0  0  0  0  0  0  0  0  0  0  0  0
   -4.3361    1.3918    0.2919 N   0  0  0  0  0  0  0  0  0  0  0  0
   -1.0722    1.8352   -0.0302 C   0  0  0  0  0  0  0  0  0  0  0  0
    0.2744    1.3925   -0.1365 C   0  0  0  0  0  0  0  0  0  0  0  0
    0.6549    0.0542   -0.0978 C   0  0  0  0  0  0  0  0  0  0  0  0
   -0.2950   -0.9845    0.0531 C   0  0  0  0  0  0  0  0  0  0  0  0
   -1.6289   -0.6630    0.1644 C   0  0  0  0  0  0  0  0  0  0  0  0
   -1.9084    4.5326    0.1077 H   0  0  0  0  0  0  0  0  0  0  0  0
    1.0619    2.1365   -0.2549 H   0  0  0  0  0  0  0  0  0  0  0  0
    1.7064   -0.2138   -0.1852 H   0  0  0  0  0  0  0  0  0  0  0  0
    0.0240   -2.0212    0.0814 H   0  0  0  0  0  0  0  0  0  0  0  0
   -2.4018   -1.4173    0.2828 H   0  0  0  0  0  0  0  0  0  0  0  0
   -3.8451    5.3358    0.5873 S   0  0  0  0  0  0  0  0  0  0  0  0
   -4.6846    5.0500   -1.0521 C   0  0  0  0  0  0  0  0  0  0  0  0
   -4.0557    4.1248    1.3708 O   0  0  0  0  0  0  0  0  0  0  0  0
   -4.2332    6.6528    1.0481 O   0  0  0  0  0  0  0  0  0  0  0  0
   -2.3152    5.4258    0.0953 O   0  0  0  0  0  0  0  0  0  0  0  0
   -4.2423    3.9006   -1.5768 F   0  0  0  0  0  0  0  0  0  0  0  0
   -5.9986    4.9659   -0.8491 F   0  0  0  0  0  0  0  0  0  0  0  0
   -4.4223    6.0492   -1.8885 F   0  0  0  0  0  0  0  0  0  0  0  0
  1  8  1  0  0  0  0
  1  2  1  0  0  0  0
  2  3  1  0  0  0  0
  4  1  2  0  0  0  0
  5  6  2  0  0  0  0
  5  4  1  0  0  0  0
  6  7  1  0  0  0  0
  7 12  1  0  0  0  0
  7  8  2  0  0  0  0
  8 13  1  0  0  0  0
 10  5  1  0  0  0  0
 11  6  1  0  0  0  0
 14 17  2  0  0  0  0
 14 16  2  0  0  0  0
 15 20  1  0  0  0  0
 15 14  1  0  0  0  0
 18  9  1  0  0  0  0
 18 14  1  0  0  0  0
 19 15  1  0  0  0  0
 21 15  1  0  0  0  0
M  RAD  3   2   2   3   3   4   2
M  END
