Coordinates from ORCA-job PhN2+~TfO-_B3LYPG-6-31G_dp-CH-Scan-d09-49-n800
 OpenBabel11261919123D

 21 20  0  0  0  0  0  0  0  0999 V2000
   -1.9178    1.1602   -0.4224 C   0  0  0  0  0  0  0  0  0  0  0  0
   -3.1488    1.4951   -0.9713 N   0  0  0  0  0  0  0  0  0  0  0  0
   -4.1189    1.6162   -1.5005 N   0  0  0  0  0  0  0  0  0  0  0  0
   -0.8706    2.0900   -0.4828 C   0  0  0  0  0  0  0  0  0  0  0  0
    0.3558    1.6849    0.0295 C   0  0  0  0  0  0  0  0  0  0  0  0
    0.5083    0.4100    0.5857 C   0  0  0  0  0  0  0  0  0  0  0  0
   -0.5628   -0.4914    0.6353 C   0  0  0  0  0  0  0  0  0  0  0  0
   -1.8018   -0.1284    0.1249 C   0  0  0  0  0  0  0  0  0  0  0  0
   -1.0885    3.1188   -0.9104 H   0  0  0  0  0  0  0  0  0  0  0  0
    1.1921    2.3752    0.0086 H   0  0  0  0  0  0  0  0  0  0  0  0
    1.4707    0.1148    0.9916 H   0  0  0  0  0  0  0  0  0  0  0  0
   -0.4328   -1.4746    1.0737 H   0  0  0  0  0  0  0  0  0  0  0  0
   -2.6524   -0.8001    0.1511 H   0  0  0  0  0  0  0  0  0  0  0  0
   -3.3059    4.5478    0.0970 S   0  0  0  0  0  0  0  0  0  0  0  0
   -5.0604    5.0134   -0.2957 C   0  0  0  0  0  0  0  0  0  0  0  0
   -3.4612    3.2779    0.8684 O   0  0  0  0  0  0  0  0  0  0  0  0
   -2.7534    5.6908    0.8302 O   0  0  0  0  0  0  0  0  0  0  0  0
   -2.7328    4.2900   -1.2617 O   0  0  0  0  0  0  0  0  0  0  0  0
   -5.6677    3.9957   -0.9482 F   0  0  0  0  0  0  0  0  0  0  0  0
   -5.7541    5.2595    0.8224 F   0  0  0  0  0  0  0  0  0  0  0  0
   -5.1100    6.0971   -1.0789 F   0  0  0  0  0  0  0  0  0  0  0  0
  1  8  1  0  0  0  0
  2  1  1  0  0  0  0
  3  2  1  0  0  0  0
  4  1  2  0  0  0  0
  4  5  1  0  0  0  0
  5  6  2  0  0  0  0
  6  7  1  0  0  0  0
  6 11  1  0  0  0  0
  7 12  1  0  0  0  0
  8 13  1  0  0  0  0
  8  7  2  0  0  0  0
  9  4  1  0  0  0  0
 10  5  1  0  0  0  0
 14 17  2  0  0  0  0
 14 16  1  0  0  0  0
 15 14  1  0  0  0  0
 15 20  1  0  0  0  0
 18 14  2  0  0  0  0
 19 15  1  0  0  0  0
 21 15  1  0  0  0  0
M  RAD  3   2   2   3   3  16   2
M  END
