Coordinates from ORCA-job PhN2+~TfO-_B3LYPG-6-31G_dp-CH-Scan-d09-49-n800
 OpenBabel11261919123D

 21 20  0  0  0  0  0  0  0  0999 V2000
   -2.0481    0.9034    0.0414 C   0  0  0  0  0  0  0  0  0  0  0  0
   -3.4043    1.1833    0.0180 N   0  0  0  0  0  0  0  0  0  0  0  0
   -4.4623    1.5365    0.0290 N   0  0  0  0  0  0  0  0  0  0  0  0
   -1.1795    2.0020   -0.0693 C   0  0  0  0  0  0  0  0  0  0  0  0
    0.1804    1.6806   -0.0361 C   0  0  0  0  0  0  0  0  0  0  0  0
    0.6133    0.3597    0.0985 C   0  0  0  0  0  0  0  0  0  0  0  0
   -0.3012   -0.7035    0.2014 C   0  0  0  0  0  0  0  0  0  0  0  0
   -1.6604   -0.4467    0.1704 C   0  0  0  0  0  0  0  0  0  0  0  0
   -1.6699    3.2480   -0.2017 H   0  0  0  0  0  0  0  0  0  0  0  0
    0.9098    2.4808   -0.1156 H   0  0  0  0  0  0  0  0  0  0  0  0
    1.6778    0.1434    0.1239 H   0  0  0  0  0  0  0  0  0  0  0  0
    0.0534   -1.7231    0.3054 H   0  0  0  0  0  0  0  0  0  0  0  0
   -2.3985   -1.2375    0.2480 H   0  0  0  0  0  0  0  0  0  0  0  0
   -3.4849    4.8991    0.3964 S   0  0  0  0  0  0  0  0  0  0  0  0
   -4.7755    5.1106   -0.9225 C   0  0  0  0  0  0  0  0  0  0  0  0
   -3.9701    3.7213    1.1639 O   0  0  0  0  0  0  0  0  0  0  0  0
   -3.4220    6.1783    1.0996 O   0  0  0  0  0  0  0  0  0  0  0  0
   -2.2624    4.5640   -0.4313 O   0  0  0  0  0  0  0  0  0  0  0  0
   -4.9161    3.9547   -1.6103 F   0  0  0  0  0  0  0  0  0  0  0  0
   -5.9579    5.4164   -0.3777 F   0  0  0  0  0  0  0  0  0  0  0  0
   -4.4344    6.0718   -1.7850 F   0  0  0  0  0  0  0  0  0  0  0  0
  1  8  2  0  0  0  0
  2  3  1  0  0  0  0
  2  1  1  0  0  0  0
  4  5  2  0  0  0  0
  4  1  1  0  0  0  0
  5  6  1  0  0  0  0
  6 11  1  0  0  0  0
  6  7  2  0  0  0  0
  7 12  1  0  0  0  0
  8  7  1  0  0  0  0
  8 13  1  0  0  0  0
  9  4  1  0  0  0  0
 10  5  1  0  0  0  0
 14 17  2  0  0  0  0
 14 16  1  0  0  0  0
 15 20  1  0  0  0  0
 15 14  1  0  0  0  0
 18 14  2  0  0  0  0
 19 15  1  0  0  0  0
 21 15  1  0  0  0  0
M  RAD  3   2   2   3   3  16   2
M  END
