Coordinates from ORCA-job PhN2+~TfO-_B3LYPG-6-31G_dp-CH-Scan-d09-49-n800
 OpenBabel11261919123D

 21 20  0  0  0  0  0  0  0  0999 V2000
   -1.8442    0.6723    0.0612 C   0  0  0  0  0  0  0  0  0  0  0  0
   -3.1745    1.0741    0.1156 N   0  0  0  0  0  0  0  0  0  0  0  0
   -4.2267    1.4530    0.1429 N   0  0  0  0  0  0  0  0  0  0  0  0
   -0.9524    1.7451   -0.1083 C   0  0  0  0  0  0  0  0  0  0  0  0
    0.3797    1.2467   -0.1655 C   0  0  0  0  0  0  0  0  0  0  0  0
    0.7093   -0.1012   -0.0623 C   0  0  0  0  0  0  0  0  0  0  0  0
   -0.2816   -1.0990    0.1091 C   0  0  0  0  0  0  0  0  0  0  0  0
   -1.6047   -0.7253    0.1747 C   0  0  0  0  0  0  0  0  0  0  0  0
   -1.9231    4.8954    0.0997 H   0  0  0  0  0  0  0  0  0  0  0  0
    1.1984    1.9549   -0.2964 H   0  0  0  0  0  0  0  0  0  0  0  0
    1.7518   -0.4110   -0.1128 H   0  0  0  0  0  0  0  0  0  0  0  0
   -0.0008   -2.1442    0.1885 H   0  0  0  0  0  0  0  0  0  0  0  0
   -2.4084   -1.4451    0.3049 H   0  0  0  0  0  0  0  0  0  0  0  0
   -3.9381    5.4456    0.6031 S   0  0  0  0  0  0  0  0  0  0  0  0
   -4.7803    5.1061   -1.0256 C   0  0  0  0  0  0  0  0  0  0  0  0
   -3.9747    4.2012    1.3596 O   0  0  0  0  0  0  0  0  0  0  0  0
   -4.4582    6.6996    1.1064 O   0  0  0  0  0  0  0  0  0  0  0  0
   -2.4363    5.7250    0.0723 O   0  0  0  0  0  0  0  0  0  0  0  0
   -4.2255    4.0285   -1.5907 F   0  0  0  0  0  0  0  0  0  0  0  0
   -6.0704    4.8705   -0.7934 F   0  0  0  0  0  0  0  0  0  0  0  0
   -4.6518    6.1507   -1.8367 F   0  0  0  0  0  0  0  0  0  0  0  0
  1  2  1  0  0  0  0
  1  8  2  0  0  0  0
  2  3  1  0  0  0  0
  4  1  1  0  0  0  0
  5  4  2  0  0  0  0
  5  6  1  0  0  0  0
  6  7  2  0  0  0  0
  7  8  1  0  0  0  0
  7 12  1  0  0  0  0
  8 13  1  0  0  0  0
 10  5  1  0  0  0  0
 11  6  1  0  0  0  0
 14 17  2  0  0  0  0
 14 16  2  0  0  0  0
 15 20  1  0  0  0  0
 15 14  1  0  0  0  0
 18  9  1  0  0  0  0
 18 14  1  0  0  0  0
 19 15  1  0  0  0  0
 21 15  1  0  0  0  0
M  RAD  3   2   2   3   3   4   2
M  END
