Coordinates from ORCA-job PhN2+~TfO-_B3LYPG-6-31G_dp-CH-Scan-d09-49-n800
 OpenBabel11261919123D

 21 20  0  0  0  0  0  0  0  0999 V2000
   -1.7833    0.6431   -0.1644 C   0  0  0  0  0  0  0  0  0  0  0  0
   -3.0794    1.1522   -0.2461 N   0  0  0  0  0  0  0  0  0  0  0  0
   -4.0858    1.6300   -0.3554 N   0  0  0  0  0  0  0  0  0  0  0  0
   -0.8305    1.5670   -0.6169 C   0  0  0  0  0  0  0  0  0  0  0  0
    0.4656    0.9812   -0.5209 C   0  0  0  0  0  0  0  0  0  0  0  0
    0.7031   -0.3037   -0.0436 C   0  0  0  0  0  0  0  0  0  0  0  0
   -0.3519   -1.1458    0.3904 C   0  0  0  0  0  0  0  0  0  0  0  0
   -1.6463   -0.6798    0.3370 C   0  0  0  0  0  0  0  0  0  0  0  0
   -1.9784    5.7215    0.3597 H   0  0  0  0  0  0  0  0  0  0  0  0
    1.3305    1.5663   -0.8364 H   0  0  0  0  0  0  0  0  0  0  0  0
    1.7217   -0.6864    0.0044 H   0  0  0  0  0  0  0  0  0  0  0  0
   -0.1409   -2.1440    0.7593 H   0  0  0  0  0  0  0  0  0  0  0  0
   -2.4965   -1.2773    0.6546 H   0  0  0  0  0  0  0  0  0  0  0  0
   -4.0784    5.4717    0.7310 S   0  0  0  0  0  0  0  0  0  0  0  0
   -4.6939    5.0573   -0.9808 C   0  0  0  0  0  0  0  0  0  0  0  0
   -3.6816    4.2193    1.3593 O   0  0  0  0  0  0  0  0  0  0  0  0
   -5.0193    6.4011    1.3194 O   0  0  0  0  0  0  0  0  0  0  0  0
   -2.7485    6.3165    0.3322 O   0  0  0  0  0  0  0  0  0  0  0  0
   -3.7585    4.3564   -1.6246 F   0  0  0  0  0  0  0  0  0  0  0  0
   -5.7989    4.3232   -0.8614 F   0  0  0  0  0  0  0  0  0  0  0  0
   -4.9617    6.1730   -1.6504 F   0  0  0  0  0  0  0  0  0  0  0  0
  1  8  2  0  0  0  0
  2  1  1  0  0  0  0
  3  2  1  0  0  0  0
  4  5  2  0  0  0  0
  4  1  1  0  0  0  0
  5  6  1  0  0  0  0
  6 11  1  0  0  0  0
  6  7  2  0  0  0  0
  7 12  1  0  0  0  0
  8  7  1  0  0  0  0
  8 13  1  0  0  0  0
 10  5  1  0  0  0  0
 14 17  2  0  0  0  0
 14 16  2  0  0  0  0
 15 20  1  0  0  0  0
 15 14  1  0  0  0  0
 18  9  1  0  0  0  0
 18 14  1  0  0  0  0
 19 15  1  0  0  0  0
 21 15  1  0  0  0  0
M  RAD  3   2   2   3   3   4   2
M  END
