Coordinates from ORCA-job PhN2+~TfO-_B3LYPG-6-31G_dp-CH-Scan-d09-49-n800
 OpenBabel11261919123D

 21 20  0  0  0  0  0  0  0  0999 V2000
   -2.0972    0.8896    0.0624 C   0  0  0  0  0  0  0  0  0  0  0  0
   -3.4641    1.1124    0.0820 N   0  0  0  0  0  0  0  0  0  0  0  0
   -4.5577    1.3309    0.0909 N   0  0  0  0  0  0  0  0  0  0  0  0
   -1.2907    2.0350   -0.0773 C   0  0  0  0  0  0  0  0  0  0  0  0
    0.0818    1.7086   -0.0959 C   0  0  0  0  0  0  0  0  0  0  0  0
    0.5545    0.4021    0.0131 C   0  0  0  0  0  0  0  0  0  0  0  0
   -0.3272   -0.6906    0.1502 C   0  0  0  0  0  0  0  0  0  0  0  0
   -1.6870   -0.4632    0.1765 C   0  0  0  0  0  0  0  0  0  0  0  0
   -1.8336    3.5716   -0.1411 H   0  0  0  0  0  0  0  0  0  0  0  0
    0.8055    2.5144   -0.1974 H   0  0  0  0  0  0  0  0  0  0  0  0
    1.6251    0.2114   -0.0066 H   0  0  0  0  0  0  0  0  0  0  0  0
    0.0577   -1.7012    0.2354 H   0  0  0  0  0  0  0  0  0  0  0  0
   -2.4067   -1.2689    0.2810 H   0  0  0  0  0  0  0  0  0  0  0  0
   -3.4872    4.9487    0.5135 S   0  0  0  0  0  0  0  0  0  0  0  0
   -4.6162    5.0066   -0.9620 C   0  0  0  0  0  0  0  0  0  0  0  0
   -3.9473    3.7903    1.2907 O   0  0  0  0  0  0  0  0  0  0  0  0
   -3.4999    6.2820    1.0941 O   0  0  0  0  0  0  0  0  0  0  0  0
   -2.1303    4.6470   -0.1890 O   0  0  0  0  0  0  0  0  0  0  0  0
   -4.6012    3.8094   -1.5810 F   0  0  0  0  0  0  0  0  0  0  0  0
   -5.8645    5.2652   -0.5654 F   0  0  0  0  0  0  0  0  0  0  0  0
   -4.2266    5.9413   -1.8278 F   0  0  0  0  0  0  0  0  0  0  0  0
  1  2  1  0  0  0  0
  1  8  2  0  0  0  0
  2  3  1  0  0  0  0
  4  1  1  0  0  0  0
  5  4  2  0  0  0  0
  5  6  1  0  0  0  0
  6  7  2  0  0  0  0
  7  8  1  0  0  0  0
  7 12  1  0  0  0  0
  8 13  1  0  0  0  0
 10  5  1  0  0  0  0
 11  6  1  0  0  0  0
 14 17  2  0  0  0  0
 14 16  2  0  0  0  0
 15 20  1  0  0  0  0
 15 14  1  0  0  0  0
 18  9  1  0  0  0  0
 18 14  1  0  0  0  0
 19 15  1  0  0  0  0
 21 15  1  0  0  0  0
M  RAD  3   2   2   3   3   4   2
M  END
