Coordinates from ORCA-job PhN2+~TfO-_B3LYPG-6-31G_dp-CH-Scan-d09-49-n800
 OpenBabel11261919123D

 21 20  0  0  0  0  0  0  0  0999 V2000
   -1.8940    0.7052    0.0819 C   0  0  0  0  0  0  0  0  0  0  0  0
   -3.2318    1.0732    0.1527 N   0  0  0  0  0  0  0  0  0  0  0  0
   -4.2928    1.4241    0.1955 N   0  0  0  0  0  0  0  0  0  0  0  0
   -1.0237    1.7991   -0.0723 C   0  0  0  0  0  0  0  0  0  0  0  0
    0.3184    1.3333   -0.1447 C   0  0  0  0  0  0  0  0  0  0  0  0
    0.6780   -0.0090   -0.0693 C   0  0  0  0  0  0  0  0  0  0  0  0
   -0.2897   -1.0309    0.0873 C   0  0  0  0  0  0  0  0  0  0  0  0
   -1.6205   -0.6880    0.1669 C   0  0  0  0  0  0  0  0  0  0  0  0
   -1.9074    4.6753    0.0778 H   0  0  0  0  0  0  0  0  0  0  0  0
    1.1196    2.0623   -0.2656 H   0  0  0  0  0  0  0  0  0  0  0  0
    1.7268   -0.2944   -0.1309 H   0  0  0  0  0  0  0  0  0  0  0  0
    0.0140   -2.0711    0.1449 H   0  0  0  0  0  0  0  0  0  0  0  0
   -2.4069   -1.4279    0.2875 H   0  0  0  0  0  0  0  0  0  0  0  0
   -3.8727    5.3758    0.5940 S   0  0  0  0  0  0  0  0  0  0  0  0
   -4.7347    5.0757   -1.0316 C   0  0  0  0  0  0  0  0  0  0  0  0
   -4.0025    4.1452    1.3635 O   0  0  0  0  0  0  0  0  0  0  0  0
   -4.3087    6.6671    1.0832 O   0  0  0  0  0  0  0  0  0  0  0  0
   -2.3576    5.5442    0.0658 O   0  0  0  0  0  0  0  0  0  0  0  0
   -4.2422    3.9639   -1.5900 F   0  0  0  0  0  0  0  0  0  0  0  0
   -6.0364    4.9148   -0.7988 F   0  0  0  0  0  0  0  0  0  0  0  0
   -4.5480    6.1049   -1.8513 F   0  0  0  0  0  0  0  0  0  0  0  0
  1  2  1  0  0  0  0
  1  8  2  0  0  0  0
  2  3  1  0  0  0  0
  4  1  1  0  0  0  0
  5  4  2  0  0  0  0
  5  6  1  0  0  0  0
  6  7  2  0  0  0  0
  7 12  1  0  0  0  0
  7  8  1  0  0  0  0
  8 13  1  0  0  0  0
 10  5  1  0  0  0  0
 11  6  1  0  0  0  0
 14 17  2  0  0  0  0
 14 16  2  0  0  0  0
 15 20  1  0  0  0  0
 15 14  1  0  0  0  0
 18  9  1  0  0  0  0
 18 14  1  0  0  0  0
 19 15  1  0  0  0  0
 21 15  1  0  0  0  0
M  RAD  3   2   2   3   3   4   2
M  END
