Coordinates from ORCA-job PhN2+~TfO-_B3LYPG-6-31G_dp-CH-Scan-d09-49-n800
 OpenBabel11261919123D

 21 20  0  0  0  0  0  0  0  0999 V2000
   -1.9385    0.7381    0.1229 C   0  0  0  0  0  0  0  0  0  0  0  0
   -3.2824    1.0700    0.2329 N   0  0  0  0  0  0  0  0  0  0  0  0
   -4.3523    1.3844    0.3116 N   0  0  0  0  0  0  0  0  0  0  0  0
   -1.0888    1.8500   -0.0195 C   0  0  0  0  0  0  0  0  0  0  0  0
    0.2593    1.4146   -0.1330 C   0  0  0  0  0  0  0  0  0  0  0  0
    0.6459    0.0778   -0.1035 C   0  0  0  0  0  0  0  0  0  0  0  0
   -0.2989   -0.9656    0.0450 C   0  0  0  0  0  0  0  0  0  0  0  0
   -1.6339   -0.6505    0.1630 C   0  0  0  0  0  0  0  0  0  0  0  0
   -1.9067    4.4800    0.1105 H   0  0  0  0  0  0  0  0  0  0  0  0
    1.0426    2.1630   -0.2500 H   0  0  0  0  0  0  0  0  0  0  0  0
    1.6982   -0.1849   -0.1965 H   0  0  0  0  0  0  0  0  0  0  0  0
    0.0245   -2.0011    0.0661 H   0  0  0  0  0  0  0  0  0  0  0  0
   -2.4028   -1.4090    0.2800 H   0  0  0  0  0  0  0  0  0  0  0  0
   -3.8304    5.3181    0.5855 S   0  0  0  0  0  0  0  0  0  0  0  0
   -4.6684    5.0378   -1.0552 C   0  0  0  0  0  0  0  0  0  0  0  0
   -4.0666    4.1143    1.3735 O   0  0  0  0  0  0  0  0  0  0  0  0
   -4.1997    6.6431    1.0390 O   0  0  0  0  0  0  0  0  0  0  0  0
   -2.2987    5.3810    0.1004 O   0  0  0  0  0  0  0  0  0  0  0  0
   -4.2437    3.8780   -1.5728 F   0  0  0  0  0  0  0  0  0  0  0  0
   -5.9846    4.9760   -0.8574 F   0  0  0  0  0  0  0  0  0  0  0  0
   -4.3868    6.0278   -1.8961 F   0  0  0  0  0  0  0  0  0  0  0  0
  1  8  1  0  0  0  0
  1  2  1  0  0  0  0
  2  3  1  0  0  0  0
  4  1  2  0  0  0  0
  5  6  2  0  0  0  0
  5  4  1  0  0  0  0
  6  7  1  0  0  0  0
  7 12  1  0  0  0  0
  7  8  2  0  0  0  0
  8 13  1  0  0  0  0
 10  5  1  0  0  0  0
 11  6  1  0  0  0  0
 14 17  2  0  0  0  0
 14 16  2  0  0  0  0
 15 20  1  0  0  0  0
 15 14  1  0  0  0  0
 18  9  1  0  0  0  0
 18 14  1  0  0  0  0
 19 15  1  0  0  0  0
 21 15  1  0  0  0  0
M  RAD  3   2   2   3   3   4   2
M  END
