Coordinates from ORCA-job PhN2+~TfO-_B3LYPG-6-31G_dp-CH-Scan-d09-49-n800
 OpenBabel11261919123D

 21 20  0  0  0  0  0  0  0  0999 V2000
   -1.9287    0.7303    0.1175 C   0  0  0  0  0  0  0  0  0  0  0  0
   -3.2713    1.0692    0.2240 N   0  0  0  0  0  0  0  0  0  0  0  0
   -4.3398    1.3900    0.2969 N   0  0  0  0  0  0  0  0  0  0  0  0
   -1.0752    1.8387   -0.0287 C   0  0  0  0  0  0  0  0  0  0  0  0
    0.2716    1.3972   -0.1369 C   0  0  0  0  0  0  0  0  0  0  0  0
    0.6530    0.0592   -0.1001 C   0  0  0  0  0  0  0  0  0  0  0  0
   -0.2962   -0.9801    0.0510 C   0  0  0  0  0  0  0  0  0  0  0  0
   -1.6301   -0.6595    0.1645 C   0  0  0  0  0  0  0  0  0  0  0  0
   -1.9083    4.5212    0.1114 H   0  0  0  0  0  0  0  0  0  0  0  0
    1.0583    2.1419   -0.2557 H   0  0  0  0  0  0  0  0  0  0  0  0
    1.7045   -0.2081   -0.1893 H   0  0  0  0  0  0  0  0  0  0  0  0
    0.0234   -2.0167    0.0779 H   0  0  0  0  0  0  0  0  0  0  0  0
   -2.4023   -1.4144    0.2834 H   0  0  0  0  0  0  0  0  0  0  0  0
   -3.8429    5.3319    0.5872 S   0  0  0  0  0  0  0  0  0  0  0  0
   -4.6801    5.0468   -1.0533 C   0  0  0  0  0  0  0  0  0  0  0  0
   -4.0606    4.1225    1.3716 O   0  0  0  0  0  0  0  0  0  0  0  0
   -4.2272    6.6509    1.0457 O   0  0  0  0  0  0  0  0  0  0  0  0
   -2.3121    5.4159    0.0986 O   0  0  0  0  0  0  0  0  0  0  0  0
   -4.2415    3.8946   -1.5756 F   0  0  0  0  0  0  0  0  0  0  0  0
   -5.9950    4.9678   -0.8530 F   0  0  0  0  0  0  0  0  0  0  0  0
   -4.4124    6.0436   -1.8907 F   0  0  0  0  0  0  0  0  0  0  0  0
  1  8  1  0  0  0  0
  1  2  1  0  0  0  0
  2  3  1  0  0  0  0
  4  1  2  0  0  0  0
  5  6  2  0  0  0  0
  5  4  1  0  0  0  0
  6  7  1  0  0  0  0
  7 12  1  0  0  0  0
  7  8  2  0  0  0  0
  8 13  1  0  0  0  0
 10  5  1  0  0  0  0
 11  6  1  0  0  0  0
 14 17  2  0  0  0  0
 14 16  2  0  0  0  0
 15 20  1  0  0  0  0
 15 14  1  0  0  0  0
 18  9  1  0  0  0  0
 18 14  1  0  0  0  0
 19 15  1  0  0  0  0
 21 15  1  0  0  0  0
M  RAD  3   2   2   3   3   4   2
M  END
