Coordinates from ORCA-job PhN2+~TfO-_B3LYPG-6-31G_dp-CH-Scan-d09-49-n800
 OpenBabel11261919123D

 21 20  0  0  0  0  0  0  0  0999 V2000
   -2.0683    0.8432    0.0937 C   0  0  0  0  0  0  0  0  0  0  0  0
   -3.4322    1.0810    0.1565 N   0  0  0  0  0  0  0  0  0  0  0  0
   -4.5229    1.3153    0.1979 N   0  0  0  0  0  0  0  0  0  0  0  0
   -1.2684    1.9932   -0.0499 C   0  0  0  0  0  0  0  0  0  0  0  0
    0.1030    1.6474   -0.1115 C   0  0  0  0  0  0  0  0  0  0  0  0
    0.5687    0.3368   -0.0375 C   0  0  0  0  0  0  0  0  0  0  0  0
   -0.3164   -0.7547    0.1066 C   0  0  0  0  0  0  0  0  0  0  0  0
   -1.6720   -0.5180    0.1752 C   0  0  0  0  0  0  0  0  0  0  0  0
   -1.8778    3.8100   -0.0601 H   0  0  0  0  0  0  0  0  0  0  0  0
    0.8363    2.4444   -0.2211 H   0  0  0  0  0  0  0  0  0  0  0  0
    1.6371    0.1383   -0.0909 H   0  0  0  0  0  0  0  0  0  0  0  0
    0.0648   -1.7688    0.1637 H   0  0  0  0  0  0  0  0  0  0  0  0
   -2.3958   -1.3195    0.2867 H   0  0  0  0  0  0  0  0  0  0  0  0
   -3.5776    5.0448    0.5467 S   0  0  0  0  0  0  0  0  0  0  0  0
   -4.6036    5.0071   -1.0046 C   0  0  0  0  0  0  0  0  0  0  0  0
   -4.0099    3.8836    1.3253 O   0  0  0  0  0  0  0  0  0  0  0  0
   -3.6657    6.3939    1.0748 O   0  0  0  0  0  0  0  0  0  0  0  0
   -2.1419    4.8105   -0.0672 O   0  0  0  0  0  0  0  0  0  0  0  0
   -4.4747    3.8047   -1.5920 F   0  0  0  0  0  0  0  0  0  0  0  0
   -5.8857    5.1984   -0.6897 F   0  0  0  0  0  0  0  0  0  0  0  0
   -4.2099    5.9511   -1.8562 F   0  0  0  0  0  0  0  0  0  0  0  0
  1  2  1  0  0  0  0
  1  8  2  0  0  0  0
  2  3  1  0  0  0  0
  4  1  1  0  0  0  0
  5  4  2  0  0  0  0
  5  6  1  0  0  0  0
  6  7  2  0  0  0  0
  7 12  1  0  0  0  0
  7  8  1  0  0  0  0
  8 13  1  0  0  0  0
 10  5  1  0  0  0  0
 11  6  1  0  0  0  0
 14 17  2  0  0  0  0
 14 16  2  0  0  0  0
 15 20  1  0  0  0  0
 15 14  1  0  0  0  0
 18  9  1  0  0  0  0
 18 14  1  0  0  0  0
 19 15  1  0  0  0  0
 21 15  1  0  0  0  0
M  RAD  3   2   2   3   3   4   2
M  END
