Coordinates from ORCA-job PhN2+~TfO-_B3LYPG-6-31G_dp-CH-Scan-d09-49-n800
 OpenBabel11261919123D

 21 20  0  0  0  0  0  0  0  0999 V2000
   -1.8875    1.0964   -0.5967 C   0  0  0  0  0  0  0  0  0  0  0  0
   -3.0829    1.2368   -1.2901 N   0  0  0  0  0  0  0  0  0  0  0  0
   -4.0281    1.1708   -1.8705 N   0  0  0  0  0  0  0  0  0  0  0  0
   -0.9116    2.1007   -0.6792 C   0  0  0  0  0  0  0  0  0  0  0  0
    0.2780    1.8710    0.0038 C   0  0  0  0  0  0  0  0  0  0  0  0
    0.4671    0.6958    0.7361 C   0  0  0  0  0  0  0  0  0  0  0  0
   -0.5319   -0.2844    0.7991 C   0  0  0  0  0  0  0  0  0  0  0  0
   -1.7311   -0.0984    0.1271 C   0  0  0  0  0  0  0  0  0  0  0  0
   -1.1057    2.9426   -1.1830 H   0  0  0  0  0  0  0  0  0  0  0  0
    1.0526    2.6297   -0.0234 H   0  0  0  0  0  0  0  0  0  0  0  0
    1.3986    0.5424    1.2717 H   0  0  0  0  0  0  0  0  0  0  0  0
   -0.3778   -1.1894    1.3764 H   0  0  0  0  0  0  0  0  0  0  0  0
   -2.5294   -0.8308    0.1643 H   0  0  0  0  0  0  0  0  0  0  0  0
   -3.5054    4.0587   -0.0016 S   0  0  0  0  0  0  0  0  0  0  0  0
   -4.9088    5.2698   -0.0942 C   0  0  0  0  0  0  0  0  0  0  0  0
   -4.1198    2.8287    0.5706 O   0  0  0  0  0  0  0  0  0  0  0  0
   -2.4780    4.7089    0.8295 O   0  0  0  0  0  0  0  0  0  0  0  0
   -3.1185    3.8711   -1.4374 O   0  0  0  0  0  0  0  0  0  0  0  0
   -5.9029    4.7778   -0.8514 F   0  0  0  0  0  0  0  0  0  0  0  0
   -5.3928    5.5200    1.1299 F   0  0  0  0  0  0  0  0  0  0  0  0
   -4.4968    6.4246   -0.6345 F   0  0  0  0  0  0  0  0  0  0  0  0
  1  8  1  0  0  0  0
  2  1  1  0  0  0  0
  3  2  1  0  0  0  0
  4  1  2  0  0  0  0
  4  5  1  0  0  0  0
  5  6  2  0  0  0  0
  6  7  1  0  0  0  0
  6 11  1  0  0  0  0
  7 12  1  0  0  0  0
  8 13  1  0  0  0  0
  8  7  2  0  0  0  0
  9  4  1  0  0  0  0
 10  5  1  0  0  0  0
 14 16  2  0  0  0  0
 14 17  1  0  0  0  0
 15 14  1  0  0  0  0
 15 20  1  0  0  0  0
 18 14  2  0  0  0  0
 19 15  1  0  0  0  0
 21 15  1  0  0  0  0
M  RAD  3   2   2   3   3  17   2
M  END
