Coordinates from ORCA-job PhN2+~TfO-_B3LYPG-6-31G_dp-CH-Scan-d09-49-n800
 OpenBabel11261919123D

 21 20  0  0  0  0  0  0  0  0999 V2000
   -2.0950    0.8825    0.0692 C   0  0  0  0  0  0  0  0  0  0  0  0
   -3.4618    1.1057    0.0983 N   0  0  0  0  0  0  0  0  0  0  0  0
   -4.5554    1.3249    0.1143 N   0  0  0  0  0  0  0  0  0  0  0  0
   -1.2917    2.0303   -0.0710 C   0  0  0  0  0  0  0  0  0  0  0  0
    0.0812    1.7015   -0.0990 C   0  0  0  0  0  0  0  0  0  0  0  0
    0.5546    0.3947    0.0020 C   0  0  0  0  0  0  0  0  0  0  0  0
   -0.3263   -0.6990    0.1402 C   0  0  0  0  0  0  0  0  0  0  0  0
   -1.6855   -0.4715    0.1758 C   0  0  0  0  0  0  0  0  0  0  0  0
   -1.8434    3.6120   -0.1244 H   0  0  0  0  0  0  0  0  0  0  0  0
    0.8058    2.5064   -0.2020 H   0  0  0  0  0  0  0  0  0  0  0  0
    1.6250    0.2040   -0.0251 H   0  0  0  0  0  0  0  0  0  0  0  0
    0.0594   -1.7099    0.2190 H   0  0  0  0  0  0  0  0  0  0  0  0
   -2.4049   -1.2774    0.2815 H   0  0  0  0  0  0  0  0  0  0  0  0
   -3.5008    4.9638    0.5214 S   0  0  0  0  0  0  0  0  0  0  0  0
   -4.6088    5.0032   -0.9710 C   0  0  0  0  0  0  0  0  0  0  0  0
   -3.9591    3.8069    1.2996 O   0  0  0  0  0  0  0  0  0  0  0  0
   -3.5256    6.3014    1.0899 O   0  0  0  0  0  0  0  0  0  0  0  0
   -2.1278    4.6705   -0.1626 O   0  0  0  0  0  0  0  0  0  0  0  0
   -4.5718    3.8038   -1.5835 F   0  0  0  0  0  0  0  0  0  0  0  0
   -5.8645    5.2504   -0.5919 F   0  0  0  0  0  0  0  0  0  0  0  0
   -4.2162    5.9386   -1.8342 F   0  0  0  0  0  0  0  0  0  0  0  0
  1  2  1  0  0  0  0
  1  8  2  0  0  0  0
  2  3  1  0  0  0  0
  4  1  1  0  0  0  0
  5  4  2  0  0  0  0
  5  6  1  0  0  0  0
  6  7  2  0  0  0  0
  7  8  1  0  0  0  0
  7 12  1  0  0  0  0
  8 13  1  0  0  0  0
 10  5  1  0  0  0  0
 11  6  1  0  0  0  0
 14 17  2  0  0  0  0
 14 16  2  0  0  0  0
 15 20  1  0  0  0  0
 15 14  1  0  0  0  0
 18  9  1  0  0  0  0
 18 14  1  0  0  0  0
 19 15  1  0  0  0  0
 21 15  1  0  0  0  0
M  RAD  3   2   2   3   3   4   2
M  END
