Coordinates from ORCA-job PhN2+~TfO-_B3LYPG-6-31G_dp-CH-Scan-d09-49-n800
 OpenBabel11261919123D

 21 20  0  0  0  0  0  0  0  0999 V2000
   -1.7867    0.6328    0.0270 C   0  0  0  0  0  0  0  0  0  0  0  0
   -3.1045    1.0804    0.0633 N   0  0  0  0  0  0  0  0  0  0  0  0
   -4.1416    1.5007    0.0707 N   0  0  0  0  0  0  0  0  0  0  0  0
   -0.8688    1.6752   -0.1809 C   0  0  0  0  0  0  0  0  0  0  0  0
    0.4494    1.1358   -0.2173 C   0  0  0  0  0  0  0  0  0  0  0  0
    0.7407   -0.2155   -0.0614 C   0  0  0  0  0  0  0  0  0  0  0  0
   -0.2779   -1.1788    0.1463 C   0  0  0  0  0  0  0  0  0  0  0  0
   -1.5901   -0.7659    0.1945 C   0  0  0  0  0  0  0  0  0  0  0  0
   -1.9533    5.2001    0.1581 H   0  0  0  0  0  0  0  0  0  0  0  0
    1.2887    1.8144   -0.3742 H   0  0  0  0  0  0  0  0  0  0  0  0
    1.7743   -0.5565   -0.0973 H   0  0  0  0  0  0  0  0  0  0  0  0
   -0.0261   -2.2274    0.2670 H   0  0  0  0  0  0  0  0  0  0  0  0
   -2.4143   -1.4569    0.3504 H   0  0  0  0  0  0  0  0  0  0  0  0
   -4.0245    5.5266    0.6227 S   0  0  0  0  0  0  0  0  0  0  0  0
   -4.8139    5.1320   -1.0203 C   0  0  0  0  0  0  0  0  0  0  0  0
   -3.9316    4.2740    1.3598 O   0  0  0  0  0  0  0  0  0  0  0  0
   -4.6728    6.7130    1.1403 O   0  0  0  0  0  0  0  0  0  0  0  0
   -2.5516    5.9674    0.1088 O   0  0  0  0  0  0  0  0  0  0  0  0
   -4.1617    4.1129   -1.5877 F   0  0  0  0  0  0  0  0  0  0  0  0
   -6.0811    4.7850   -0.8055 F   0  0  0  0  0  0  0  0  0  0  0  0
   -4.7653    6.1936   -1.8179 F   0  0  0  0  0  0  0  0  0  0  0  0
  1  2  1  0  0  0  0
  1  8  2  0  0  0  0
  2  3  1  0  0  0  0
  4  1  1  0  0  0  0
  5  4  2  0  0  0  0
  5  6  1  0  0  0  0
  6  7  2  0  0  0  0
  7  8  1  0  0  0  0
  7 12  1  0  0  0  0
  8 13  1  0  0  0  0
 10  5  1  0  0  0  0
 11  6  1  0  0  0  0
 14 17  2  0  0  0  0
 14 16  2  0  0  0  0
 15 20  1  0  0  0  0
 15 14  1  0  0  0  0
 18  9  1  0  0  0  0
 18 14  1  0  0  0  0
 19 15  1  0  0  0  0
 21 15  1  0  0  0  0
M  RAD  3   2   2   3   3   4   2
M  END
