Coordinates from ORCA-job PhN2+~TfO-_B3LYPG-6-31G_dp-CH-Scan-d09-49-n800
 OpenBabel11261919123D

 21 20  0  0  0  0  0  0  0  0999 V2000
   -1.7633    0.6334   -0.1784 C   0  0  0  0  0  0  0  0  0  0  0  0
   -3.0536    1.1567   -0.2647 N   0  0  0  0  0  0  0  0  0  0  0  0
   -4.0546    1.6446   -0.3791 N   0  0  0  0  0  0  0  0  0  0  0  0
   -0.8027    1.5351   -0.6580 C   0  0  0  0  0  0  0  0  0  0  0  0
    0.4872    0.9368   -0.5553 C   0  0  0  0  0  0  0  0  0  0  0  0
    0.7125   -0.3394   -0.0499 C   0  0  0  0  0  0  0  0  0  0  0  0
   -0.3498   -1.1589    0.4094 C   0  0  0  0  0  0  0  0  0  0  0  0
   -1.6389   -0.6791    0.3529 C   0  0  0  0  0  0  0  0  0  0  0  0
   -2.0118    5.7964    0.4020 H   0  0  0  0  0  0  0  0  0  0  0  0
    1.3570    1.5044   -0.8891 H   0  0  0  0  0  0  0  0  0  0  0  0
    1.7268   -0.7330    0.0011 H   0  0  0  0  0  0  0  0  0  0  0  0
   -0.1482   -2.1510    0.7995 H   0  0  0  0  0  0  0  0  0  0  0  0
   -2.4941   -1.2590    0.6892 H   0  0  0  0  0  0  0  0  0  0  0  0
   -4.1092    5.4898    0.7399 S   0  0  0  0  0  0  0  0  0  0  0  0
   -4.6978    5.0706   -0.9803 C   0  0  0  0  0  0  0  0  0  0  0  0
   -3.6846    4.2449    1.3650 O   0  0  0  0  0  0  0  0  0  0  0  0
   -5.0795    6.3908    1.3249 O   0  0  0  0  0  0  0  0  0  0  0  0
   -2.7971    6.3700    0.3574 O   0  0  0  0  0  0  0  0  0  0  0  0
   -3.7414    4.3919   -1.6168 F   0  0  0  0  0  0  0  0  0  0  0  0
   -5.7889    4.3139   -0.8760 F   0  0  0  0  0  0  0  0  0  0  0  0
   -4.9809    6.1839   -1.6475 F   0  0  0  0  0  0  0  0  0  0  0  0
  1  8  2  0  0  0  0
  2  1  1  0  0  0  0
  3  2  1  0  0  0  0
  4  5  2  0  0  0  0
  4  1  1  0  0  0  0
  5  6  1  0  0  0  0
  6 11  1  0  0  0  0
  6  7  2  0  0  0  0
  7 12  1  0  0  0  0
  8  7  1  0  0  0  0
  8 13  1  0  0  0  0
 10  5  1  0  0  0  0
 14 17  2  0  0  0  0
 14 16  2  0  0  0  0
 15 20  1  0  0  0  0
 15 14  1  0  0  0  0
 18  9  1  0  0  0  0
 18 14  1  0  0  0  0
 19 15  1  0  0  0  0
 21 15  1  0  0  0  0
M  RAD  3   2   2   3   3   4   2
M  END
