Coordinates from ORCA-job PhN2+~TfO-_B3LYPG-6-31G_dp-CH-Scan-d09-49-n800
 OpenBabel11261919123D

 21 20  0  0  0  0  0  0  0  0999 V2000
   -2.0502    0.8231    0.1110 C   0  0  0  0  0  0  0  0  0  0  0  0
   -3.4113    1.0726    0.1949 N   0  0  0  0  0  0  0  0  0  0  0  0
   -4.4993    1.3172    0.2528 N   0  0  0  0  0  0  0  0  0  0  0  0
   -1.2473    1.9706   -0.0342 C   0  0  0  0  0  0  0  0  0  0  0  0
    0.1213    1.6134   -0.1184 C   0  0  0  0  0  0  0  0  0  0  0  0
    0.5784    0.2991   -0.0625 C   0  0  0  0  0  0  0  0  0  0  0  0
   -0.3122   -0.7881    0.0851 C   0  0  0  0  0  0  0  0  0  0  0  0
   -1.6646   -0.5426    0.1755 C   0  0  0  0  0  0  0  0  0  0  0  0
   -1.8898    3.9188   -0.0161 H   0  0  0  0  0  0  0  0  0  0  0  0
    0.8604    2.4046   -0.2321 H   0  0  0  0  0  0  0  0  0  0  0  0
    1.6445    0.0932   -0.1335 H   0  0  0  0  0  0  0  0  0  0  0  0
    0.0631   -1.8052    0.1278 H   0  0  0  0  0  0  0  0  0  0  0  0
   -2.3928   -1.3398    0.2908 H   0  0  0  0  0  0  0  0  0  0  0  0
   -3.6265    5.0929    0.5577 S   0  0  0  0  0  0  0  0  0  0  0  0
   -4.6012    5.0097   -1.0251 C   0  0  0  0  0  0  0  0  0  0  0  0
   -4.0418    3.9268    1.3354 O   0  0  0  0  0  0  0  0  0  0  0  0
   -3.7611    6.4450    1.0655 O   0  0  0  0  0  0  0  0  0  0  0  0
   -2.1592    4.8997   -0.0119 O   0  0  0  0  0  0  0  0  0  0  0  0
   -4.4169    3.8078   -1.5958 F   0  0  0  0  0  0  0  0  0  0  0  0
   -5.8969    5.1648   -0.7496 F   0  0  0  0  0  0  0  0  0  0  0  0
   -4.2093    5.9591   -1.8709 F   0  0  0  0  0  0  0  0  0  0  0  0
  1  8  1  0  0  0  0
  1  2  1  0  0  0  0
  2  3  1  0  0  0  0
  4  1  2  0  0  0  0
  5  6  2  0  0  0  0
  5  4  1  0  0  0  0
  6  7  1  0  0  0  0
  7 12  1  0  0  0  0
  7  8  2  0  0  0  0
  8 13  1  0  0  0  0
  9 18  1  0  0  0  0
 10  5  1  0  0  0  0
 11  6  1  0  0  0  0
 14 17  2  0  0  0  0
 14 16  2  0  0  0  0
 15 20  1  0  0  0  0
 15 14  1  0  0  0  0
 18 14  1  0  0  0  0
 19 15  1  0  0  0  0
 21 15  1  0  0  0  0
M  RAD  3   2   2   3   3   4   2
M  END
