Coordinates from ORCA-job PhN2+~TfO-_B3LYPG-6-31G_dp-CH-Scan-d09-49-n800
 OpenBabel11261919123D

 21 20  0  0  0  0  0  0  0  0999 V2000
   -1.9377    0.9243   -0.0309 C   0  0  0  0  0  0  0  0  0  0  0  0
   -3.2785    1.2641   -0.1465 N   0  0  0  0  0  0  0  0  0  0  0  0
   -4.3037    1.7181   -0.1490 N   0  0  0  0  0  0  0  0  0  0  0  0
   -0.9973    1.9647   -0.0704 C   0  0  0  0  0  0  0  0  0  0  0  0
    0.3406    1.5996    0.0560 C   0  0  0  0  0  0  0  0  0  0  0  0
    0.7003    0.2585    0.2184 C   0  0  0  0  0  0  0  0  0  0  0  0
   -0.2684   -0.7555    0.2474 C   0  0  0  0  0  0  0  0  0  0  0  0
   -1.6114   -0.4357    0.1136 C   0  0  0  0  0  0  0  0  0  0  0  0
   -1.4041    3.1084   -0.2383 H   0  0  0  0  0  0  0  0  0  0  0  0
    1.1041    2.3698    0.0294 H   0  0  0  0  0  0  0  0  0  0  0  0
    1.7484   -0.0064    0.3217 H   0  0  0  0  0  0  0  0  0  0  0  0
    0.0276   -1.7913    0.3730 H   0  0  0  0  0  0  0  0  0  0  0  0
   -2.3867   -1.1935    0.1300 H   0  0  0  0  0  0  0  0  0  0  0  0
   -3.5761    4.8316    0.2634 S   0  0  0  0  0  0  0  0  0  0  0  0
   -5.0127    5.2688   -0.8282 C   0  0  0  0  0  0  0  0  0  0  0  0
   -4.1004    3.6655    1.0533 O   0  0  0  0  0  0  0  0  0  0  0  0
   -3.2918    6.0333    1.0496 O   0  0  0  0  0  0  0  0  0  0  0  0
   -2.5367    4.4137   -0.7249 O   0  0  0  0  0  0  0  0  0  0  0  0
   -5.3706    4.1966   -1.5642 F   0  0  0  0  0  0  0  0  0  0  0  0
   -6.0662    5.6445   -0.0945 F   0  0  0  0  0  0  0  0  0  0  0  0
   -4.6915    6.2636   -1.6625 F   0  0  0  0  0  0  0  0  0  0  0  0
  1  8  1  0  0  0  0
  2  1  1  0  0  0  0
  3  2  1  0  0  0  0
  4  1  2  0  0  0  0
  4  5  1  0  0  0  0
  5  6  2  0  0  0  0
  6  7  1  0  0  0  0
  6 11  1  0  0  0  0
  7 12  1  0  0  0  0
  8 13  1  0  0  0  0
  8  7  2  0  0  0  0
  9  4  1  0  0  0  0
 10  5  1  0  0  0  0
 14 17  2  0  0  0  0
 14 16  1  0  0  0  0
 15 20  1  0  0  0  0
 15 14  1  0  0  0  0
 18 14  2  0  0  0  0
 19 15  1  0  0  0  0
 21 15  1  0  0  0  0
M  RAD  3   2   2   3   3  16   2
M  END
