Coordinates from ORCA-job PhN2+~TfO-_B3LYPG-6-31G_dp-CH-Scan-d09-49-n800
 OpenBabel11261919123D

 21 20  0  0  0  0  0  0  0  0999 V2000
   -1.7906    0.6353    0.0310 C   0  0  0  0  0  0  0  0  0  0  0  0
   -3.1094    1.0793    0.0696 N   0  0  0  0  0  0  0  0  0  0  0  0
   -4.1478    1.4966    0.0792 N   0  0  0  0  0  0  0  0  0  0  0  0
   -0.8749    1.6803   -0.1731 C   0  0  0  0  0  0  0  0  0  0  0  0
    0.4444    1.1440   -0.2123 C   0  0  0  0  0  0  0  0  0  0  0  0
    0.7388   -0.2074   -0.0622 C   0  0  0  0  0  0  0  0  0  0  0  0
   -0.2777   -1.1736    0.1420 C   0  0  0  0  0  0  0  0  0  0  0  0
   -1.5908   -0.7637    0.1926 C   0  0  0  0  0  0  0  0  0  0  0  0
   -1.9509    5.1774    0.1542 H   0  0  0  0  0  0  0  0  0  0  0  0
    1.2822    1.8250   -0.3668 H   0  0  0  0  0  0  0  0  0  0  0  0
    1.7730   -0.5460   -0.1001 H   0  0  0  0  0  0  0  0  0  0  0  0
   -0.0236   -2.2222    0.2582 H   0  0  0  0  0  0  0  0  0  0  0  0
   -2.4134   -1.4572    0.3460 H   0  0  0  0  0  0  0  0  0  0  0  0
   -4.0188    5.5218    0.6207 S   0  0  0  0  0  0  0  0  0  0  0  0
   -4.8118    5.1304   -1.0213 C   0  0  0  0  0  0  0  0  0  0  0  0
   -3.9364    4.2696    1.3600 O   0  0  0  0  0  0  0  0  0  0  0  0
   -4.6575    6.7143    1.1363 O   0  0  0  0  0  0  0  0  0  0  0  0
   -2.5428    5.9498    0.1060 O   0  0  0  0  0  0  0  0  0  0  0  0
   -4.1674    4.1056   -1.5874 F   0  0  0  0  0  0  0  0  0  0  0  0
   -6.0815    4.7931   -0.8056 F   0  0  0  0  0  0  0  0  0  0  0  0
   -4.7558    6.1904   -1.8207 F   0  0  0  0  0  0  0  0  0  0  0  0
  1  2  1  0  0  0  0
  1  8  2  0  0  0  0
  2  3  1  0  0  0  0
  4  1  1  0  0  0  0
  5  4  2  0  0  0  0
  5  6  1  0  0  0  0
  6  7  2  0  0  0  0
  7  8  1  0  0  0  0
  7 12  1  0  0  0  0
  8 13  1  0  0  0  0
 10  5  1  0  0  0  0
 11  6  1  0  0  0  0
 14 17  2  0  0  0  0
 14 16  2  0  0  0  0
 15 20  1  0  0  0  0
 15 14  1  0  0  0  0
 18  9  1  0  0  0  0
 18 14  1  0  0  0  0
 19 15  1  0  0  0  0
 21 15  1  0  0  0  0
M  RAD  3   2   2   3   3   4   2
M  END
