Coordinates from ORCA-job PhN2+~TfO-_B3LYPG-6-31G_dp-CH-Scan-d09-49-n800
 OpenBabel11261919123D

 21 20  0  0  0  0  0  0  0  0999 V2000
   -1.8881    1.1030   -0.6152 C   0  0  0  0  0  0  0  0  0  0  0  0
   -3.0775    1.2313   -1.3223 N   0  0  0  0  0  0  0  0  0  0  0  0
   -4.0142    1.1462   -1.9141 N   0  0  0  0  0  0  0  0  0  0  0  0
   -0.9103    2.1042   -0.7057 C   0  0  0  0  0  0  0  0  0  0  0  0
    0.2730    1.8836   -0.0082 C   0  0  0  0  0  0  0  0  0  0  0  0
    0.4535    0.7215    0.7464 C   0  0  0  0  0  0  0  0  0  0  0  0
   -0.5483   -0.2554    0.8176 C   0  0  0  0  0  0  0  0  0  0  0  0
   -1.7407   -0.0788    0.1315 C   0  0  0  0  0  0  0  0  0  0  0  0
   -1.0902    2.9265   -1.2174 H   0  0  0  0  0  0  0  0  0  0  0  0
    1.0489    2.6408   -0.0418 H   0  0  0  0  0  0  0  0  0  0  0  0
    1.3797    0.5760    1.2932 H   0  0  0  0  0  0  0  0  0  0  0  0
   -0.4020   -1.1503    1.4126 H   0  0  0  0  0  0  0  0  0  0  0  0
   -2.5415   -0.8082    0.1751 H   0  0  0  0  0  0  0  0  0  0  0  0
   -3.5094    4.0243   -0.0027 S   0  0  0  0  0  0  0  0  0  0  0  0
   -4.8897    5.2632   -0.0731 C   0  0  0  0  0  0  0  0  0  0  0  0
   -4.1424    2.7984    0.5569 O   0  0  0  0  0  0  0  0  0  0  0  0
   -2.4653    4.6447    0.8313 O   0  0  0  0  0  0  0  0  0  0  0  0
   -3.1317    3.8483   -1.4424 O   0  0  0  0  0  0  0  0  0  0  0  0
   -5.8957    4.8008   -0.8328 F   0  0  0  0  0  0  0  0  0  0  0  0
   -5.3637    5.5056    1.1565 F   0  0  0  0  0  0  0  0  0  0  0  0
   -4.4573    6.4171   -0.5992 F   0  0  0  0  0  0  0  0  0  0  0  0
  1  8  1  0  0  0  0
  2  1  1  0  0  0  0
  3  2  1  0  0  0  0
  4  1  2  0  0  0  0
  4  5  1  0  0  0  0
  5  6  2  0  0  0  0
  6  7  1  0  0  0  0
  6 11  1  0  0  0  0
  7 12  1  0  0  0  0
  8 13  1  0  0  0  0
  8  7  2  0  0  0  0
  9  4  1  0  0  0  0
 10  5  1  0  0  0  0
 14 16  2  0  0  0  0
 14 17  1  0  0  0  0
 15 14  1  0  0  0  0
 15 20  1  0  0  0  0
 18 14  2  0  0  0  0
 19 15  1  0  0  0  0
 21 15  1  0  0  0  0
M  RAD  3   2   2   3   3  17   2
M  END
