Coordinates from ORCA-job PhN2+~TfO-_B3LYPG-6-31G_dp-CH-Scan-d09-49-n800
 OpenBabel11261919123D

 21 20  0  0  0  0  0  0  0  0999 V2000
   -1.8963    0.7068    0.0845 C   0  0  0  0  0  0  0  0  0  0  0  0
   -3.2346    1.0727    0.1580 N   0  0  0  0  0  0  0  0  0  0  0  0
   -4.2962    1.4213    0.2030 N   0  0  0  0  0  0  0  0  0  0  0  0
   -1.0273    1.8019   -0.0691 C   0  0  0  0  0  0  0  0  0  0  0  0
    0.3152    1.3378   -0.1440 C   0  0  0  0  0  0  0  0  0  0  0  0
    0.6764   -0.0042   -0.0713 C   0  0  0  0  0  0  0  0  0  0  0  0
   -0.2899   -1.0274    0.0849 C   0  0  0  0  0  0  0  0  0  0  0  0
   -1.6210   -0.6861    0.1667 C   0  0  0  0  0  0  0  0  0  0  0  0
   -1.9076    4.6635    0.0795 H   0  0  0  0  0  0  0  0  0  0  0  0
    1.1153    2.0680   -0.2646 H   0  0  0  0  0  0  0  0  0  0  0  0
    1.7255   -0.2883   -0.1348 H   0  0  0  0  0  0  0  0  0  0  0  0
    0.0149   -2.0674    0.1402 H   0  0  0  0  0  0  0  0  0  0  0  0
   -2.4064   -1.4271    0.2872 H   0  0  0  0  0  0  0  0  0  0  0  0
   -3.8705    5.3725    0.5933 S   0  0  0  0  0  0  0  0  0  0  0  0
   -4.7312    5.0744   -1.0332 C   0  0  0  0  0  0  0  0  0  0  0  0
   -4.0069    4.1430    1.3636 O   0  0  0  0  0  0  0  0  0  0  0  0
   -4.3023    6.6659    1.0809 O   0  0  0  0  0  0  0  0  0  0  0  0
   -2.3542    5.5344    0.0676 O   0  0  0  0  0  0  0  0  0  0  0  0
   -4.2427    3.9599   -1.5897 F   0  0  0  0  0  0  0  0  0  0  0  0
   -6.0340    4.9193   -0.8024 F   0  0  0  0  0  0  0  0  0  0  0  0
   -4.5390    6.1018   -1.8539 F   0  0  0  0  0  0  0  0  0  0  0  0
  1  2  1  0  0  0  0
  1  8  1  0  0  0  0
  2  3  1  0  0  0  0
  4  1  2  0  0  0  0
  5  6  2  0  0  0  0
  5  4  1  0  0  0  0
  6  7  1  0  0  0  0
  7 12  1  0  0  0  0
  7  8  2  0  0  0  0
  8 13  1  0  0  0  0
 10  5  1  0  0  0  0
 11  6  1  0  0  0  0
 14 17  2  0  0  0  0
 14 16  2  0  0  0  0
 15 20  1  0  0  0  0
 15 14  1  0  0  0  0
 18  9  1  0  0  0  0
 18 14  1  0  0  0  0
 19 15  1  0  0  0  0
 21 15  1  0  0  0  0
M  RAD  3   2   2   3   3   4   2
M  END
