Coordinates from ORCA-job PhN2+~TfO-_B3LYPG-6-31G_dp-CH-Scan-d09-49-n800
 OpenBabel11261919123D

 21 20  0  0  0  0  0  0  0  0999 V2000
   -1.7461    0.6262   -0.1887 C   0  0  0  0  0  0  0  0  0  0  0  0
   -3.0314    1.1613   -0.2785 N   0  0  0  0  0  0  0  0  0  0  0  0
   -4.0278    1.6578   -0.3966 N   0  0  0  0  0  0  0  0  0  0  0  0
   -0.7790    1.5097   -0.6882 C   0  0  0  0  0  0  0  0  0  0  0  0
    0.5056    0.9007   -0.5805 C   0  0  0  0  0  0  0  0  0  0  0  0
    0.7205   -0.3690   -0.0545 C   0  0  0  0  0  0  0  0  0  0  0  0
   -0.3479   -1.1699    0.4233 C   0  0  0  0  0  0  0  0  0  0  0  0
   -1.6324   -0.6783    0.3644 C   0  0  0  0  0  0  0  0  0  0  0  0
   -2.0401    5.8535    0.4317 H   0  0  0  0  0  0  0  0  0  0  0  0
    1.3794    1.4539   -0.9275 H   0  0  0  0  0  0  0  0  0  0  0  0
    1.7310   -0.7719   -0.0013 H   0  0  0  0  0  0  0  0  0  0  0  0
   -0.1545   -2.1574    0.8290 H   0  0  0  0  0  0  0  0  0  0  0  0
   -2.4918   -1.2438    0.7143 H   0  0  0  0  0  0  0  0  0  0  0  0
   -4.1339    5.5047    0.7466 S   0  0  0  0  0  0  0  0  0  0  0  0
   -4.7028    5.0821   -0.9795 C   0  0  0  0  0  0  0  0  0  0  0  0
   -3.6884    4.2659    1.3694 O   0  0  0  0  0  0  0  0  0  0  0  0
   -5.1253    6.3840    1.3289 O   0  0  0  0  0  0  0  0  0  0  0  0
   -2.8360    6.4112    0.3758 O   0  0  0  0  0  0  0  0  0  0  0  0
   -3.7306    4.4214   -1.6109 F   0  0  0  0  0  0  0  0  0  0  0  0
   -5.7822    4.3075   -0.8860 F   0  0  0  0  0  0  0  0  0  0  0  0
   -4.9989    6.1932   -1.6448 F   0  0  0  0  0  0  0  0  0  0  0  0
  1  8  2  0  0  0  0
  2  1  1  0  0  0  0
  3  2  1  0  0  0  0
  4  5  2  0  0  0  0
  4  1  1  0  0  0  0
  5  6  1  0  0  0  0
  6 11  1  0  0  0  0
  6  7  2  0  0  0  0
  7 12  1  0  0  0  0
  8  7  1  0  0  0  0
  8 13  1  0  0  0  0
 10  5  1  0  0  0  0
 14 17  2  0  0  0  0
 14 16  2  0  0  0  0
 15 20  1  0  0  0  0
 15 14  1  0  0  0  0
 18  9  1  0  0  0  0
 18 14  1  0  0  0  0
 19 15  1  0  0  0  0
 21 15  1  0  0  0  0
M  RAD  3   2   2   3   3   4   2
M  END
