Coordinates from ORCA-job PhN2+~TfO-_B3LYPG-6-31G_dp-CH-Scan-d09-49-n800
 OpenBabel11261919123D

 21 20  0  0  0  0  0  0  0  0999 V2000
   -1.7880    0.6336    0.0283 C   0  0  0  0  0  0  0  0  0  0  0  0
   -3.1061    1.0800    0.0654 N   0  0  0  0  0  0  0  0  0  0  0  0
   -4.1437    1.4993    0.0736 N   0  0  0  0  0  0  0  0  0  0  0  0
   -0.8709    1.6769   -0.1783 C   0  0  0  0  0  0  0  0  0  0  0  0
    0.4477    1.1386   -0.2156 C   0  0  0  0  0  0  0  0  0  0  0  0
    0.7401   -0.2128   -0.0617 C   0  0  0  0  0  0  0  0  0  0  0  0
   -0.2779   -1.1770    0.1449 C   0  0  0  0  0  0  0  0  0  0  0  0
   -1.5903   -0.7652    0.1939 C   0  0  0  0  0  0  0  0  0  0  0  0
   -1.9525    5.1925    0.1568 H   0  0  0  0  0  0  0  0  0  0  0  0
    1.2866    1.8179   -0.3717 H   0  0  0  0  0  0  0  0  0  0  0  0
    1.7738   -0.5530   -0.0983 H   0  0  0  0  0  0  0  0  0  0  0  0
   -0.0252   -2.2257    0.2641 H   0  0  0  0  0  0  0  0  0  0  0  0
   -2.4140   -1.4570    0.3489 H   0  0  0  0  0  0  0  0  0  0  0  0
   -4.0226    5.5250    0.6220 S   0  0  0  0  0  0  0  0  0  0  0  0
   -4.8132    5.1315   -1.0206 C   0  0  0  0  0  0  0  0  0  0  0  0
   -3.9332    4.2725    1.3599 O   0  0  0  0  0  0  0  0  0  0  0  0
   -4.6677    6.7135    1.1389 O   0  0  0  0  0  0  0  0  0  0  0  0
   -2.5487    5.9615    0.1079 O   0  0  0  0  0  0  0  0  0  0  0  0
   -4.1636    4.1104   -1.5876 F   0  0  0  0  0  0  0  0  0  0  0  0
   -6.0813    4.7877   -0.8055 F   0  0  0  0  0  0  0  0  0  0  0  0
   -4.7621    6.1926   -1.8189 F   0  0  0  0  0  0  0  0  0  0  0  0
  1  2  1  0  0  0  0
  1  8  2  0  0  0  0
  2  3  1  0  0  0  0
  4  1  1  0  0  0  0
  5  4  2  0  0  0  0
  5  6  1  0  0  0  0
  6  7  2  0  0  0  0
  7  8  1  0  0  0  0
  7 12  1  0  0  0  0
  8 13  1  0  0  0  0
 10  5  1  0  0  0  0
 11  6  1  0  0  0  0
 14 17  2  0  0  0  0
 14 16  2  0  0  0  0
 15 20  1  0  0  0  0
 15 14  1  0  0  0  0
 18  9  1  0  0  0  0
 18 14  1  0  0  0  0
 19 15  1  0  0  0  0
 21 15  1  0  0  0  0
M  RAD  3   2   2   3   3   4   2
M  END
