Coordinates from ORCA-job PhN2+~TfO-_B3LYPG-6-31G_dp-CH-Scan-d09-49-n800
 OpenBabel11261919123D

 21 20  0  0  0  0  0  0  0  0999 V2000
   -1.7914    0.6474   -0.1578 C   0  0  0  0  0  0  0  0  0  0  0  0
   -3.0898    1.1507   -0.2373 N   0  0  0  0  0  0  0  0  0  0  0  0
   -4.0984    1.6242   -0.3440 N   0  0  0  0  0  0  0  0  0  0  0  0
   -0.8417    1.5810   -0.5971 C   0  0  0  0  0  0  0  0  0  0  0  0
    0.4568    1.0002   -0.5043 C   0  0  0  0  0  0  0  0  0  0  0  0
    0.6994   -0.2887   -0.0406 C   0  0  0  0  0  0  0  0  0  0  0  0
   -0.3528   -1.1407    0.3810 C   0  0  0  0  0  0  0  0  0  0  0  0
   -1.6492   -0.6804    0.3291 C   0  0  0  0  0  0  0  0  0  0  0  0
   -1.9646    5.6878    0.3394 H   0  0  0  0  0  0  0  0  0  0  0  0
    1.3198    1.5929   -0.8110 H   0  0  0  0  0  0  0  0  0  0  0  0
    1.7196   -0.6670    0.0060 H   0  0  0  0  0  0  0  0  0  0  0  0
   -0.1379   -2.1419    0.7396 H   0  0  0  0  0  0  0  0  0  0  0  0
   -2.4974   -1.2855    0.6377 H   0  0  0  0  0  0  0  0  0  0  0  0
   -4.0650    5.4646    0.7268 S   0  0  0  0  0  0  0  0  0  0  0  0
   -4.6934    5.0519   -0.9807 C   0  0  0  0  0  0  0  0  0  0  0  0
   -3.6810    4.2093    1.3571 O   0  0  0  0  0  0  0  0  0  0  0  0
   -4.9920    6.4071    1.3164 O   0  0  0  0  0  0  0  0  0  0  0  0
   -2.7273    6.2926    0.3198 O   0  0  0  0  0  0  0  0  0  0  0  0
   -3.7675    4.3414   -1.6280 F   0  0  0  0  0  0  0  0  0  0  0  0
   -5.8040    4.3276   -0.8537 F   0  0  0  0  0  0  0  0  0  0  0  0
   -4.9551    6.1682   -1.6516 F   0  0  0  0  0  0  0  0  0  0  0  0
  1  8  2  0  0  0  0
  2  1  1  0  0  0  0
  3  2  1  0  0  0  0
  4  5  2  0  0  0  0
  4  1  1  0  0  0  0
  5  6  1  0  0  0  0
  6 11  1  0  0  0  0
  6  7  2  0  0  0  0
  7 12  1  0  0  0  0
  8  7  1  0  0  0  0
  8 13  1  0  0  0  0
 10  5  1  0  0  0  0
 14 17  2  0  0  0  0
 14 16  2  0  0  0  0
 15 20  1  0  0  0  0
 15 14  1  0  0  0  0
 18  9  1  0  0  0  0
 18 14  1  0  0  0  0
 19 15  1  0  0  0  0
 21 15  1  0  0  0  0
M  RAD  3   2   2   3   3   4   2
M  END
