Coordinates from ORCA-job PhN2+~TfO-_B3LYPG-6-31G_dp-CH-Scan-d09-49-n800
 OpenBabel11261919123D

 21 20  0  0  0  0  0  0  0  0999 V2000
   -1.7711    0.6240    0.0096 C   0  0  0  0  0  0  0  0  0  0  0  0
   -3.0847    1.0858    0.0355 N   0  0  0  0  0  0  0  0  0  0  0  0
   -4.1167    1.5188    0.0332 N   0  0  0  0  0  0  0  0  0  0  0  0
   -0.8446    1.6549   -0.2148 C   0  0  0  0  0  0  0  0  0  0  0  0
    0.4690    1.1030   -0.2387 C   0  0  0  0  0  0  0  0  0  0  0  0
    0.7481   -0.2478   -0.0577 C   0  0  0  0  0  0  0  0  0  0  0  0
   -0.2795   -1.1983    0.1649 C   0  0  0  0  0  0  0  0  0  0  0  0
   -1.5881   -0.7732    0.2026 C   0  0  0  0  0  0  0  0  0  0  0  0
   -1.9639    5.2902    0.1747 H   0  0  0  0  0  0  0  0  0  0  0  0
    1.3148    1.7710   -0.4061 H   0  0  0  0  0  0  0  0  0  0  0  0
    1.7786   -0.5985   -0.0850 H   0  0  0  0  0  0  0  0  0  0  0  0
   -0.0370   -2.2468    0.3051 H   0  0  0  0  0  0  0  0  0  0  0  0
   -2.4188   -1.4540    0.3689 H   0  0  0  0  0  0  0  0  0  0  0  0
   -4.0466    5.5453    0.6312 S   0  0  0  0  0  0  0  0  0  0  0  0
   -4.8212    5.1368   -1.0155 C   0  0  0  0  0  0  0  0  0  0  0  0
   -3.9118    4.2918    1.3602 O   0  0  0  0  0  0  0  0  0  0  0  0
   -4.7332    6.7067    1.1560 O   0  0  0  0  0  0  0  0  0  0  0  0
   -2.5875    6.0364    0.1209 O   0  0  0  0  0  0  0  0  0  0  0  0
   -4.1361    4.1432   -1.5888 F   0  0  0  0  0  0  0  0  0  0  0  0
   -6.0769    4.7482   -0.8045 F   0  0  0  0  0  0  0  0  0  0  0  0
   -4.8054    6.2053   -1.8053 F   0  0  0  0  0  0  0  0  0  0  0  0
  1  2  1  0  0  0  0
  1  8  2  0  0  0  0
  3  2  1  0  0  0  0
  4  1  1  0  0  0  0
  5  4  2  0  0  0  0
  5  6  1  0  0  0  0
  6  7  2  0  0  0  0
  7  8  1  0  0  0  0
  7 12  1  0  0  0  0
  8 13  1  0  0  0  0
 10  5  1  0  0  0  0
 11  6  1  0  0  0  0
 14 17  2  0  0  0  0
 14 16  2  0  0  0  0
 15 20  1  0  0  0  0
 15 14  1  0  0  0  0
 18  9  1  0  0  0  0
 18 14  1  0  0  0  0
 19 15  1  0  0  0  0
 21 15  1  0  0  0  0
M  RAD  3   2   2   3   3   4   2
M  END
