Coordinates from ORCA-job PhN2+~TfO-_B3LYPG-6-31G_dp-CH-Scan-d09-49-n800
 OpenBabel11261919123D

 21 20  0  0  0  0  0  0  0  0999 V2000
   -1.9316    1.1292   -0.3907 C   0  0  0  0  0  0  0  0  0  0  0  0
   -3.1764    1.4579   -0.9094 N   0  0  0  0  0  0  0  0  0  0  0  0
   -4.1624    1.5827   -1.4077 N   0  0  0  0  0  0  0  0  0  0  0  0
   -0.9014    2.0769   -0.4587 C   0  0  0  0  0  0  0  0  0  0  0  0
    0.3412    1.6845    0.0240 C   0  0  0  0  0  0  0  0  0  0  0  0
    0.5234    0.4038    0.5571 C   0  0  0  0  0  0  0  0  0  0  0  0
   -0.5324   -0.5164    0.6142 C   0  0  0  0  0  0  0  0  0  0  0  0
   -1.7866   -0.1668    0.1343 C   0  0  0  0  0  0  0  0  0  0  0  0
   -1.1737    3.1510   -0.8798 H   0  0  0  0  0  0  0  0  0  0  0  0
    1.1667    2.3875   -0.0023 H   0  0  0  0  0  0  0  0  0  0  0  0
    1.4980    0.1174    0.9399 H   0  0  0  0  0  0  0  0  0  0  0  0
   -0.3771   -1.5035    1.0354 H   0  0  0  0  0  0  0  0  0  0  0  0
   -2.6258   -0.8526    0.1664 H   0  0  0  0  0  0  0  0  0  0  0  0
   -3.3061    4.5780    0.1237 S   0  0  0  0  0  0  0  0  0  0  0  0
   -5.0440    5.0371   -0.3441 C   0  0  0  0  0  0  0  0  0  0  0  0
   -3.4872    3.3065    0.8848 O   0  0  0  0  0  0  0  0  0  0  0  0
   -2.7913    5.7240    0.8787 O   0  0  0  0  0  0  0  0  0  0  0  0
   -2.6762    4.3271   -1.2128 O   0  0  0  0  0  0  0  0  0  0  0  0
   -5.6197    4.0190   -1.0246 F   0  0  0  0  0  0  0  0  0  0  0  0
   -5.7856    5.2771    0.7441 F   0  0  0  0  0  0  0  0  0  0  0  0
   -5.0648    6.1225   -1.1260 F   0  0  0  0  0  0  0  0  0  0  0  0
  1  8  1  0  0  0  0
  2  1  1  0  0  0  0
  3  2  1  0  0  0  0
  4  1  2  0  0  0  0
  4  5  1  0  0  0  0
  5  6  2  0  0  0  0
  6  7  1  0  0  0  0
  6 11  1  0  0  0  0
  7 12  1  0  0  0  0
  8 13  1  0  0  0  0
  8  7  2  0  0  0  0
  9  4  1  0  0  0  0
 10  5  1  0  0  0  0
 14 17  2  0  0  0  0
 14 16  1  0  0  0  0
 15 14  1  0  0  0  0
 15 20  1  0  0  0  0
 18 14  2  0  0  0  0
 19 15  1  0  0  0  0
 21 15  1  0  0  0  0
M  RAD  3   2   2   3   3  16   2
M  END
