Coordinates from ORCA-job PhN2+~TfO-_B3LYPG-6-31G_dp-CH-Scan-d09-49-n800
 OpenBabel11261919123D

 21 20  0  0  0  0  0  0  0  0999 V2000
   -1.8857    1.0866   -0.5790 C   0  0  0  0  0  0  0  0  0  0  0  0
   -3.0852    1.2391   -1.2613 N   0  0  0  0  0  0  0  0  0  0  0  0
   -4.0326    1.2026   -1.8402 N   0  0  0  0  0  0  0  0  0  0  0  0
   -0.9099    2.0911   -0.6569 C   0  0  0  0  0  0  0  0  0  0  0  0
    0.2858    1.8538    0.0122 C   0  0  0  0  0  0  0  0  0  0  0  0
    0.4810    0.6685    0.7269 C   0  0  0  0  0  0  0  0  0  0  0  0
   -0.5176   -0.3125    0.7861 C   0  0  0  0  0  0  0  0  0  0  0  0
   -1.7228   -0.1179    0.1275 C   0  0  0  0  0  0  0  0  0  0  0  0
   -1.1237    2.9782   -1.1666 H   0  0  0  0  0  0  0  0  0  0  0  0
    1.0604    2.6127   -0.0117 H   0  0  0  0  0  0  0  0  0  0  0  0
    1.4173    0.5079    1.2520 H   0  0  0  0  0  0  0  0  0  0  0  0
   -0.3582   -1.2252    1.3497 H   0  0  0  0  0  0  0  0  0  0  0  0
   -2.5204   -0.8514    0.1612 H   0  0  0  0  0  0  0  0  0  0  0  0
   -3.5030    4.0925    0.0018 S   0  0  0  0  0  0  0  0  0  0  0  0
   -4.9290    5.2750   -0.1126 C   0  0  0  0  0  0  0  0  0  0  0  0
   -4.0986    2.8579    0.5842 O   0  0  0  0  0  0  0  0  0  0  0  0
   -2.4937    4.7719    0.8311 O   0  0  0  0  0  0  0  0  0  0  0  0
   -3.1054    3.8960   -1.4299 O   0  0  0  0  0  0  0  0  0  0  0  0
   -5.9105    4.7535   -0.8670 F   0  0  0  0  0  0  0  0  0  0  0  0
   -5.4234    5.5324    1.1060 F   0  0  0  0  0  0  0  0  0  0  0  0
   -4.5374    6.4302   -0.6670 F   0  0  0  0  0  0  0  0  0  0  0  0
  1  8  1  0  0  0  0
  2  1  1  0  0  0  0
  3  2  1  0  0  0  0
  4  1  2  0  0  0  0
  4  5  1  0  0  0  0
  5  6  2  0  0  0  0
  6  7  1  0  0  0  0
  6 11  1  0  0  0  0
  7 12  1  0  0  0  0
  8 13  1  0  0  0  0
  8  7  2  0  0  0  0
  9  4  1  0  0  0  0
 10  5  1  0  0  0  0
 14 16  2  0  0  0  0
 14 17  1  0  0  0  0
 15 14  1  0  0  0  0
 15 20  1  0  0  0  0
 18 14  2  0  0  0  0
 19 15  1  0  0  0  0
 21 15  1  0  0  0  0
M  RAD  3   2   2   3   3  17   2
M  END
