Coordinates from ORCA-job PhN2+~TfO-_B3LYPG-6-31G_dp-CH-Scan-d09-49-n800
 OpenBabel11261919123D

 21 20  0  0  0  0  0  0  0  0999 V2000
   -1.8311    0.6727   -0.1139 C   0  0  0  0  0  0  0  0  0  0  0  0
   -3.1408    1.1451   -0.1769 N   0  0  0  0  0  0  0  0  0  0  0  0
   -4.1623    1.5940   -0.2640 N   0  0  0  0  0  0  0  0  0  0  0  0
   -0.8964    1.6603   -0.4599 C   0  0  0  0  0  0  0  0  0  0  0  0
    0.4141    1.1043   -0.3882 C   0  0  0  0  0  0  0  0  0  0  0  0
    0.6813   -0.2105   -0.0207 C   0  0  0  0  0  0  0  0  0  0  0  0
   -0.3560   -1.1175    0.3127 C   0  0  0  0  0  0  0  0  0  0  0  0
   -1.6624   -0.6854    0.2705 C   0  0  0  0  0  0  0  0  0  0  0  0
   -1.8976    5.4852    0.2022 H   0  0  0  0  0  0  0  0  0  0  0  0
    1.2671    1.7394   -0.6315 H   0  0  0  0  0  0  0  0  0  0  0  0
    1.7099   -0.5662    0.0171 H   0  0  0  0  0  0  0  0  0  0  0  0
   -0.1224   -2.1379    0.5980 H   0  0  0  0  0  0  0  0  0  0  0  0
   -2.5003   -1.3332    0.5140 H   0  0  0  0  0  0  0  0  0  0  0  0
   -3.9878    5.4354    0.6971 S   0  0  0  0  0  0  0  0  0  0  0  0
   -4.7020    5.0238   -0.9763 C   0  0  0  0  0  0  0  0  0  0  0  0
   -3.6829    4.1707    1.3510 O   0  0  0  0  0  0  0  0  0  0  0  0
   -4.8212    6.4615    1.2872 O   0  0  0  0  0  0  0  0  0  0  0  0
   -2.6086    6.1503    0.2265 O   0  0  0  0  0  0  0  0  0  0  0  0
   -3.8348    4.2615   -1.6473 F   0  0  0  0  0  0  0  0  0  0  0  0
   -5.8371    4.3510   -0.7929 F   0  0  0  0  0  0  0  0  0  0  0  0
   -4.9414    6.1384   -1.6579 F   0  0  0  0  0  0  0  0  0  0  0  0
  1  8  2  0  0  0  0
  2  1  1  0  0  0  0
  3  2  1  0  0  0  0
  4  5  2  0  0  0  0
  4  1  1  0  0  0  0
  5  6  1  0  0  0  0
  6 11  1  0  0  0  0
  6  7  2  0  0  0  0
  7 12  1  0  0  0  0
  8  7  1  0  0  0  0
  8 13  1  0  0  0  0
  9 18  1  0  0  0  0
 10  5  1  0  0  0  0
 14 17  2  0  0  0  0
 14 16  2  0  0  0  0
 15 20  1  0  0  0  0
 15 14  1  0  0  0  0
 18 14  1  0  0  0  0
 19 15  1  0  0  0  0
 21 15  1  0  0  0  0
M  RAD  3   2   2   3   3   4   2
M  END
