Coordinates from ORCA-job PhN2+~TfO-_B3LYPG-6-31G_dp-CH-Scan-d09-49-n800
 OpenBabel11261919123D

 21 20  0  0  0  0  0  0  0  0999 V2000
   -1.8402    0.6801   -0.1058 C   0  0  0  0  0  0  0  0  0  0  0  0
   -3.1521    1.1465   -0.1662 N   0  0  0  0  0  0  0  0  0  0  0  0
   -4.1758    1.5909   -0.2496 N   0  0  0  0  0  0  0  0  0  0  0  0
   -0.9086    1.6768   -0.4341 C   0  0  0  0  0  0  0  0  0  0  0  0
    0.4041    1.1261   -0.3657 C   0  0  0  0  0  0  0  0  0  0  0  0
    0.6762   -0.1927   -0.0162 C   0  0  0  0  0  0  0  0  0  0  0  0
   -0.3579   -1.1092    0.3000 C   0  0  0  0  0  0  0  0  0  0  0  0
   -1.6661   -0.6827    0.2592 C   0  0  0  0  0  0  0  0  0  0  0  0
   -1.8846    5.4387    0.1744 H   0  0  0  0  0  0  0  0  0  0  0  0
    1.2550    1.7686   -0.5964 H   0  0  0  0  0  0  0  0  0  0  0  0
    1.7064   -0.5440    0.0204 H   0  0  0  0  0  0  0  0  0  0  0  0
   -0.1205   -2.1326    0.5715 H   0  0  0  0  0  0  0  0  0  0  0  0
   -2.5018   -1.3379    0.4901 H   0  0  0  0  0  0  0  0  0  0  0  0
   -3.9700    5.4252    0.6914 S   0  0  0  0  0  0  0  0  0  0  0  0
   -4.7022    5.0164   -0.9751 C   0  0  0  0  0  0  0  0  0  0  0  0
   -3.6813    4.1589    1.3496 O   0  0  0  0  0  0  0  0  0  0  0  0
   -4.7833    6.4671    1.2818 O   0  0  0  0  0  0  0  0  0  0  0  0
   -2.5836    6.1161    0.2077 O   0  0  0  0  0  0  0  0  0  0  0  0
   -3.8468    4.2465   -1.6529 F   0  0  0  0  0  0  0  0  0  0  0  0
   -5.8407    4.3524   -0.7811 F   0  0  0  0  0  0  0  0  0  0  0  0
   -4.9391    6.1317   -1.6565 F   0  0  0  0  0  0  0  0  0  0  0  0
  1  8  2  0  0  0  0
  2  1  1  0  0  0  0
  3  2  1  0  0  0  0
  4  5  2  0  0  0  0
  4  1  1  0  0  0  0
  5  6  1  0  0  0  0
  6 11  1  0  0  0  0
  6  7  2  0  0  0  0
  7 12  1  0  0  0  0
  8  7  1  0  0  0  0
  8 13  1  0  0  0  0
  9 18  1  0  0  0  0
 10  5  1  0  0  0  0
 14 17  2  0  0  0  0
 14 16  2  0  0  0  0
 15 20  1  0  0  0  0
 15 14  1  0  0  0  0
 18 14  1  0  0  0  0
 19 15  1  0  0  0  0
 21 15  1  0  0  0  0
M  RAD  3   2   2   3   3   4   2
M  END
