Coordinates from ORCA-job PhN2+~TfO-_B3LYPG-6-31G_dp-CH-Scan-d09-49-n800
 OpenBabel11261919123D

 21 20  0  0  0  0  0  0  0  0999 V2000
   -1.7886    0.6340    0.0290 C   0  0  0  0  0  0  0  0  0  0  0  0
   -3.1070    1.0798    0.0665 N   0  0  0  0  0  0  0  0  0  0  0  0
   -4.1447    1.4986    0.0750 N   0  0  0  0  0  0  0  0  0  0  0  0
   -0.8719    1.6778   -0.1770 C   0  0  0  0  0  0  0  0  0  0  0  0
    0.4469    1.1399   -0.2148 C   0  0  0  0  0  0  0  0  0  0  0  0
    0.7398   -0.2115   -0.0618 C   0  0  0  0  0  0  0  0  0  0  0  0
   -0.2778   -1.1762    0.1441 C   0  0  0  0  0  0  0  0  0  0  0  0
   -1.5904   -0.7648    0.1935 C   0  0  0  0  0  0  0  0  0  0  0  0
   -1.9521    5.1888    0.1561 H   0  0  0  0  0  0  0  0  0  0  0  0
    1.2855    1.8197   -0.3705 H   0  0  0  0  0  0  0  0  0  0  0  0
    1.7736   -0.5512   -0.0988 H   0  0  0  0  0  0  0  0  0  0  0  0
   -0.0248   -2.2248    0.2626 H   0  0  0  0  0  0  0  0  0  0  0  0
   -2.4138   -1.4571    0.3482 H   0  0  0  0  0  0  0  0  0  0  0  0
   -4.0217    5.5242    0.6217 S   0  0  0  0  0  0  0  0  0  0  0  0
   -4.8128    5.1312   -1.0208 C   0  0  0  0  0  0  0  0  0  0  0  0
   -3.9340    4.2718    1.3599 O   0  0  0  0  0  0  0  0  0  0  0  0
   -4.6652    6.7137    1.1383 O   0  0  0  0  0  0  0  0  0  0  0  0
   -2.5472    5.9586    0.1074 O   0  0  0  0  0  0  0  0  0  0  0  0
   -4.1646    4.1092   -1.5875 F   0  0  0  0  0  0  0  0  0  0  0  0
   -6.0813    4.7891   -0.8056 F   0  0  0  0  0  0  0  0  0  0  0  0
   -4.7605    6.1920   -1.8193 F   0  0  0  0  0  0  0  0  0  0  0  0
  1  2  1  0  0  0  0
  1  8  2  0  0  0  0
  2  3  1  0  0  0  0
  4  1  1  0  0  0  0
  5  4  2  0  0  0  0
  5  6  1  0  0  0  0
  6  7  2  0  0  0  0
  7  8  1  0  0  0  0
  7 12  1  0  0  0  0
  8 13  1  0  0  0  0
 10  5  1  0  0  0  0
 11  6  1  0  0  0  0
 14 17  2  0  0  0  0
 14 16  2  0  0  0  0
 15 20  1  0  0  0  0
 15 14  1  0  0  0  0
 18  9  1  0  0  0  0
 18 14  1  0  0  0  0
 19 15  1  0  0  0  0
 21 15  1  0  0  0  0
M  RAD  3   2   2   3   3   4   2
M  END
