Coordinates from ORCA-job PhN2+~TfO-_B3LYPG-6-31G_dp-CH-Scan-d09-49-n800
 OpenBabel11261919123D

 21 20  0  0  0  0  0  0  0  0999 V2000
   -1.8037    0.6544   -0.1459 C   0  0  0  0  0  0  0  0  0  0  0  0
   -3.1056    1.1484   -0.2211 N   0  0  0  0  0  0  0  0  0  0  0  0
   -4.1179    1.6150   -0.3231 N   0  0  0  0  0  0  0  0  0  0  0  0
   -0.8587    1.6041   -0.5609 C   0  0  0  0  0  0  0  0  0  0  0  0
    0.4436    1.0309   -0.4740 C   0  0  0  0  0  0  0  0  0  0  0  0
    0.6938   -0.2653   -0.0355 C   0  0  0  0  0  0  0  0  0  0  0  0
   -0.3538   -1.1336    0.3635 C   0  0  0  0  0  0  0  0  0  0  0  0
   -1.6534   -0.6820    0.3143 C   0  0  0  0  0  0  0  0  0  0  0  0
   -1.9435    5.6313    0.3025 H   0  0  0  0  0  0  0  0  0  0  0  0
    1.3036    1.6361   -0.7644 H   0  0  0  0  0  0  0  0  0  0  0  0
    1.7167   -0.6367    0.0086 H   0  0  0  0  0  0  0  0  0  0  0  0
   -0.1331   -2.1401    0.7030 H   0  0  0  0  0  0  0  0  0  0  0  0
   -2.4984   -1.2997    0.6061 H   0  0  0  0  0  0  0  0  0  0  0  0
   -4.0432    5.4549    0.7191 S   0  0  0  0  0  0  0  0  0  0  0  0
   -4.6943    5.0436   -0.9801 C   0  0  0  0  0  0  0  0  0  0  0  0
   -3.6814    4.1955    1.3543 O   0  0  0  0  0  0  0  0  0  0  0  0
   -4.9454    6.4205    1.3099 O   0  0  0  0  0  0  0  0  0  0  0  0
   -2.6928    6.2530    0.2964 O   0  0  0  0  0  0  0  0  0  0  0  0
   -3.7848    4.3173   -1.6335 F   0  0  0  0  0  0  0  0  0  0  0  0
   -5.8134    4.3351   -0.8388 F   0  0  0  0  0  0  0  0  0  0  0  0
   -4.9474    6.1602   -1.6539 F   0  0  0  0  0  0  0  0  0  0  0  0
  1  8  2  0  0  0  0
  2  1  1  0  0  0  0
  3  2  1  0  0  0  0
  4  5  2  0  0  0  0
  4  1  1  0  0  0  0
  5  6  1  0  0  0  0
  6 11  1  0  0  0  0
  6  7  2  0  0  0  0
  7 12  1  0  0  0  0
  8  7  1  0  0  0  0
  8 13  1  0  0  0  0
 10  5  1  0  0  0  0
 14 17  2  0  0  0  0
 14 16  2  0  0  0  0
 15 20  1  0  0  0  0
 15 14  1  0  0  0  0
 18  9  1  0  0  0  0
 18 14  1  0  0  0  0
 19 15  1  0  0  0  0
 21 15  1  0  0  0  0
M  RAD  3   2   2   3   3   4   2
M  END
