Coordinates from ORCA-job PhN2+~TfO-_B3LYPG-6-31G_dp-CH-Scan-d09-49-n800
 OpenBabel11261919123D

 21 20  0  0  0  0  0  0  0  0999 V2000
   -1.8043    0.6547   -0.1453 C   0  0  0  0  0  0  0  0  0  0  0  0
   -3.1063    1.1483   -0.2203 N   0  0  0  0  0  0  0  0  0  0  0  0
   -4.1188    1.6145   -0.3220 N   0  0  0  0  0  0  0  0  0  0  0  0
   -0.8595    1.6052   -0.5590 C   0  0  0  0  0  0  0  0  0  0  0  0
    0.4430    1.0324   -0.4724 C   0  0  0  0  0  0  0  0  0  0  0  0
    0.6935   -0.2642   -0.0352 C   0  0  0  0  0  0  0  0  0  0  0  0
   -0.3538   -1.1333    0.3625 C   0  0  0  0  0  0  0  0  0  0  0  0
   -1.6536   -0.6821    0.3135 C   0  0  0  0  0  0  0  0  0  0  0  0
   -1.9425    5.6285    0.3006 H   0  0  0  0  0  0  0  0  0  0  0  0
    1.3028    1.6383   -0.7619 H   0  0  0  0  0  0  0  0  0  0  0  0
    1.7166   -0.6352    0.0087 H   0  0  0  0  0  0  0  0  0  0  0  0
   -0.1328   -2.1401    0.7011 H   0  0  0  0  0  0  0  0  0  0  0  0
   -2.4985   -1.3004    0.6044 H   0  0  0  0  0  0  0  0  0  0  0  0
   -4.0421    5.4545    0.7187 S   0  0  0  0  0  0  0  0  0  0  0  0
   -4.6944    5.0432   -0.9800 C   0  0  0  0  0  0  0  0  0  0  0  0
   -3.6814    4.1949    1.3542 O   0  0  0  0  0  0  0  0  0  0  0  0
   -4.9430    6.4212    1.3096 O   0  0  0  0  0  0  0  0  0  0  0  0
   -2.6911    6.2510    0.2952 O   0  0  0  0  0  0  0  0  0  0  0  0
   -3.7857    4.3162   -1.6338 F   0  0  0  0  0  0  0  0  0  0  0  0
   -5.8139    4.3355   -0.8380 F   0  0  0  0  0  0  0  0  0  0  0  0
   -4.9471    6.1597   -1.6540 F   0  0  0  0  0  0  0  0  0  0  0  0
  1  8  2  0  0  0  0
  2  1  1  0  0  0  0
  3  2  1  0  0  0  0
  4  5  2  0  0  0  0
  4  1  1  0  0  0  0
  5  6  1  0  0  0  0
  6 11  1  0  0  0  0
  6  7  2  0  0  0  0
  7 12  1  0  0  0  0
  8  7  1  0  0  0  0
  8 13  1  0  0  0  0
 10  5  1  0  0  0  0
 14 17  2  0  0  0  0
 14 16  2  0  0  0  0
 15 20  1  0  0  0  0
 15 14  1  0  0  0  0
 18  9  1  0  0  0  0
 18 14  1  0  0  0  0
 19 15  1  0  0  0  0
 21 15  1  0  0  0  0
M  RAD  3   2   2   3   3   4   2
M  END
