Coordinates from ORCA-job PhN2+~TfO-_B3LYPG-6-31G_dp-CH-Scan-d09-49-n800
 OpenBabel11261919123D

 21 20  0  0  0  0  0  0  0  0999 V2000
   -1.7686    0.6227    0.0065 C   0  0  0  0  0  0  0  0  0  0  0  0
   -3.0814    1.0868    0.0305 N   0  0  0  0  0  0  0  0  0  0  0  0
   -4.1125    1.5220    0.0264 N   0  0  0  0  0  0  0  0  0  0  0  0
   -0.8405    1.6515   -0.2208 C   0  0  0  0  0  0  0  0  0  0  0  0
    0.4722    1.0975   -0.2426 C   0  0  0  0  0  0  0  0  0  0  0  0
    0.7492   -0.2531   -0.0571 C   0  0  0  0  0  0  0  0  0  0  0  0
   -0.2799   -1.2014    0.1682 C   0  0  0  0  0  0  0  0  0  0  0  0
   -1.5879   -0.7742    0.2041 C   0  0  0  0  0  0  0  0  0  0  0  0
   -1.9658    5.3051    0.1777 H   0  0  0  0  0  0  0  0  0  0  0  0
    1.3192    1.7637   -0.4119 H   0  0  0  0  0  0  0  0  0  0  0  0
    1.7793   -0.6055   -0.0828 H   0  0  0  0  0  0  0  0  0  0  0  0
   -0.0391   -2.2497    0.3119 H   0  0  0  0  0  0  0  0  0  0  0  0
   -2.4197   -1.4531    0.3722 H   0  0  0  0  0  0  0  0  0  0  0  0
   -4.0503    5.5482    0.6327 S   0  0  0  0  0  0  0  0  0  0  0  0
   -4.8222    5.1374   -1.0146 C   0  0  0  0  0  0  0  0  0  0  0  0
   -3.9085    4.2948    1.3605 O   0  0  0  0  0  0  0  0  0  0  0  0
   -4.7431    6.7054    1.1586 O   0  0  0  0  0  0  0  0  0  0  0  0
   -2.5936    6.0477    0.1232 O   0  0  0  0  0  0  0  0  0  0  0  0
   -4.1315    4.1484   -1.5890 F   0  0  0  0  0  0  0  0  0  0  0  0
   -6.0758    4.7416   -0.8043 F   0  0  0  0  0  0  0  0  0  0  0  0
   -4.8123    6.2070   -1.8030 F   0  0  0  0  0  0  0  0  0  0  0  0
  1  2  1  0  0  0  0
  1  8  2  0  0  0  0
  3  2  1  0  0  0  0
  4  1  1  0  0  0  0
  5  4  2  0  0  0  0
  5  6  1  0  0  0  0
  6  7  2  0  0  0  0
  7  8  1  0  0  0  0
  7 12  1  0  0  0  0
  8 13  1  0  0  0  0
 10  5  1  0  0  0  0
 11  6  1  0  0  0  0
 14 17  2  0  0  0  0
 14 16  2  0  0  0  0
 15 20  1  0  0  0  0
 15 14  1  0  0  0  0
 18  9  1  0  0  0  0
 18 14  1  0  0  0  0
 19 15  1  0  0  0  0
 21 15  1  0  0  0  0
M  RAD  3   2   2   3   3   4   2
M  END
