Coordinates from ORCA-job PhN2+~TfO-_B3LYPG-6-31G_dp-CH-Scan-d09-49-n800
 OpenBabel11261919123D

 21 20  0  0  0  0  0  0  0  0999 V2000
   -1.9635    0.7559    0.1329 C   0  0  0  0  0  0  0  0  0  0  0  0
   -3.3100    1.0718    0.2507 N   0  0  0  0  0  0  0  0  0  0  0  0
   -4.3829    1.3739    0.3343 N   0  0  0  0  0  0  0  0  0  0  0  0
   -1.1242    1.8767   -0.0072 C   0  0  0  0  0  0  0  0  0  0  0  0
    0.2274    1.4569   -0.1295 C   0  0  0  0  0  0  0  0  0  0  0  0
    0.6279    0.1239   -0.1105 C   0  0  0  0  0  0  0  0  0  0  0  0
   -0.3053   -0.9297    0.0361 C   0  0  0  0  0  0  0  0  0  0  0  0
   -1.6429   -0.6291    0.1626 C   0  0  0  0  0  0  0  0  0  0  0  0
   -1.9027    4.3777    0.1124 H   0  0  0  0  0  0  0  0  0  0  0  0
    1.0017    2.2145   -0.2455 H   0  0  0  0  0  0  0  0  0  0  0  0
    1.6823   -0.1271   -0.2106 H   0  0  0  0  0  0  0  0  0  0  0  0
    0.0286   -1.9620    0.0491 H   0  0  0  0  0  0  0  0  0  0  0  0
   -2.4032   -1.3963    0.2788 H   0  0  0  0  0  0  0  0  0  0  0  0
   -3.7986    5.2820    0.5827 S   0  0  0  0  0  0  0  0  0  0  0  0
   -4.6395    5.0178   -1.0588 C   0  0  0  0  0  0  0  0  0  0  0  0
   -4.0777    4.0904    1.3759 O   0  0  0  0  0  0  0  0  0  0  0  0
   -4.1318    6.6195    1.0281 O   0  0  0  0  0  0  0  0  0  0  0  0
   -2.2663    5.2941    0.1048 O   0  0  0  0  0  0  0  0  0  0  0  0
   -4.2451    3.8440   -1.5699 F   0  0  0  0  0  0  0  0  0  0  0  0
   -5.9579    4.9925   -0.8657 F   0  0  0  0  0  0  0  0  0  0  0  0
   -4.3290    5.9952   -1.9045 F   0  0  0  0  0  0  0  0  0  0  0  0
  1  8  1  0  0  0  0
  1  2  1  0  0  0  0
  2  3  1  0  0  0  0
  4  1  2  0  0  0  0
  5  6  2  0  0  0  0
  5  4  1  0  0  0  0
  6  7  1  0  0  0  0
  7 12  1  0  0  0  0
  7  8  2  0  0  0  0
  8 13  1  0  0  0  0
 10  5  1  0  0  0  0
 11  6  1  0  0  0  0
 14 17  2  0  0  0  0
 14 16  2  0  0  0  0
 15 20  1  0  0  0  0
 15 14  1  0  0  0  0
 18  9  1  0  0  0  0
 18 14  1  0  0  0  0
 19 15  1  0  0  0  0
 21 15  1  0  0  0  0
M  RAD  3   2   2   3   3   4   2
M  END
