Coordinates from ORCA-job PhN2+~TfO-_B3LYPG-6-31G_dp-CH-Scan-d09-49-n800
 OpenBabel11261919123D

 21 20  0  0  0  0  0  0  0  0999 V2000
   -2.0058    0.7890    0.1389 C   0  0  0  0  0  0  0  0  0  0  0  0
   -3.3579    1.0747    0.2591 N   0  0  0  0  0  0  0  0  0  0  0  0
   -4.4379    1.3477    0.3456 N   0  0  0  0  0  0  0  0  0  0  0  0
   -1.1839    1.9229   -0.0017 C   0  0  0  0  0  0  0  0  0  0  0  0
    0.1743    1.5310   -0.1259 C   0  0  0  0  0  0  0  0  0  0  0  0
    0.5998    0.2055   -0.1088 C   0  0  0  0  0  0  0  0  0  0  0  0
   -0.3136   -0.8644    0.0380 C   0  0  0  0  0  0  0  0  0  0  0  0
   -1.6566   -0.5887    0.1667 C   0  0  0  0  0  0  0  0  0  0  0  0
   -1.8996    4.1827    0.0797 H   0  0  0  0  0  0  0  0  0  0  0  0
    0.9327    2.3042   -0.2418 H   0  0  0  0  0  0  0  0  0  0  0  0
    1.6585   -0.0254   -0.2106 H   0  0  0  0  0  0  0  0  0  0  0  0
    0.0386   -1.8906    0.0498 H   0  0  0  0  0  0  0  0  0  0  0  0
   -2.4018   -1.3701    0.2834 H   0  0  0  0  0  0  0  0  0  0  0  0
   -3.7326    5.2052    0.5772 S   0  0  0  0  0  0  0  0  0  0  0  0
   -4.6010    4.9977   -1.0571 C   0  0  0  0  0  0  0  0  0  0  0  0
   -4.0845    4.0288    1.3666 O   0  0  0  0  0  0  0  0  0  0  0  0
   -3.9901    6.5567    1.0324 O   0  0  0  0  0  0  0  0  0  0  0  0
   -2.2122    5.1271    0.0920 O   0  0  0  0  0  0  0  0  0  0  0  0
   -4.2768    3.8056   -1.5786 F   0  0  0  0  0  0  0  0  0  0  0  0
   -5.9180    5.0433   -0.8558 F   0  0  0  0  0  0  0  0  0  0  0  0
   -4.2444    5.9599   -1.9028 F   0  0  0  0  0  0  0  0  0  0  0  0
  1  8  1  0  0  0  0
  1  2  1  0  0  0  0
  2  3  1  0  0  0  0
  4  1  2  0  0  0  0
  5  6  2  0  0  0  0
  5  4  1  0  0  0  0
  6  7  1  0  0  0  0
  7 12  1  0  0  0  0
  7  8  2  0  0  0  0
  8 13  1  0  0  0  0
  9 18  1  0  0  0  0
 10  5  1  0  0  0  0
 11  6  1  0  0  0  0
 14 17  2  0  0  0  0
 14 16  2  0  0  0  0
 15 20  1  0  0  0  0
 15 14  1  0  0  0  0
 18 14  1  0  0  0  0
 19 15  1  0  0  0  0
 21 15  1  0  0  0  0
M  RAD  3   2   2   3   3   4   2
M  END
