Coordinates from ORCA-job PhN2+~TfO-_B3LYPG-6-31G_dp-CH-Scan-d09-49-n800
 OpenBabel11261919123D

 21 20  0  0  0  0  0  0  0  0999 V2000
   -1.9238    1.1458   -0.4064 C   0  0  0  0  0  0  0  0  0  0  0  0
   -3.1611    1.4786   -0.9410 N   0  0  0  0  0  0  0  0  0  0  0  0
   -4.1388    1.6038   -1.4553 N   0  0  0  0  0  0  0  0  0  0  0  0
   -0.8849    2.0847   -0.4674 C   0  0  0  0  0  0  0  0  0  0  0  0
    0.3494    1.6846    0.0296 C   0  0  0  0  0  0  0  0  0  0  0  0
    0.5165    0.4052    0.5709 C   0  0  0  0  0  0  0  0  0  0  0  0
   -0.5470   -0.5058    0.6214 C   0  0  0  0  0  0  0  0  0  0  0  0
   -1.7935   -0.1481    0.1263 C   0  0  0  0  0  0  0  0  0  0  0  0
   -1.1302    3.1372   -0.8898 H   0  0  0  0  0  0  0  0  0  0  0  0
    1.1803    2.3813    0.0084 H   0  0  0  0  0  0  0  0  0  0  0  0
    1.4849    0.1133    0.9650 H   0  0  0  0  0  0  0  0  0  0  0  0
   -0.4045   -1.4921    1.0487 H   0  0  0  0  0  0  0  0  0  0  0  0
   -2.6383   -0.8270    0.1529 H   0  0  0  0  0  0  0  0  0  0  0  0
   -3.3068    4.5624    0.1089 S   0  0  0  0  0  0  0  0  0  0  0  0
   -5.0542    5.0254   -0.3175 C   0  0  0  0  0  0  0  0  0  0  0  0
   -3.4736    3.2939    0.8787 O   0  0  0  0  0  0  0  0  0  0  0  0
   -2.7699    5.7085    0.8486 O   0  0  0  0  0  0  0  0  0  0  0  0
   -2.7091    4.3046   -1.2403 O   0  0  0  0  0  0  0  0  0  0  0  0
   -5.6490    4.0064   -0.9795 F   0  0  0  0  0  0  0  0  0  0  0  0
   -5.7684    5.2723    0.7874 F   0  0  0  0  0  0  0  0  0  0  0  0
   -5.0907    6.1078   -1.1031 F   0  0  0  0  0  0  0  0  0  0  0  0
  1  8  1  0  0  0  0
  2  1  1  0  0  0  0
  3  2  1  0  0  0  0
  4  1  2  0  0  0  0
  4  5  1  0  0  0  0
  5  6  2  0  0  0  0
  6  7  1  0  0  0  0
  6 11  1  0  0  0  0
  7 12  1  0  0  0  0
  8 13  1  0  0  0  0
  8  7  2  0  0  0  0
  9  4  1  0  0  0  0
 10  5  1  0  0  0  0
 14 17  2  0  0  0  0
 14 16  1  0  0  0  0
 15 14  1  0  0  0  0
 15 20  1  0  0  0  0
 18 14  2  0  0  0  0
 19 15  1  0  0  0  0
 21 15  1  0  0  0  0
M  RAD  3   2   2   3   3  16   2
M  END
