Coordinates from ORCA-job PhN2+~TfO-_B3LYPG-6-31G_dp-CH-Scan-d09-49-n800
 OpenBabel11261919123D

 21 20  0  0  0  0  0  0  0  0999 V2000
   -1.9539    0.7504    0.1291 C   0  0  0  0  0  0  0  0  0  0  0  0
   -3.2994    1.0724    0.2442 N   0  0  0  0  0  0  0  0  0  0  0  0
   -4.3715    1.3782    0.3252 N   0  0  0  0  0  0  0  0  0  0  0  0
   -1.1101    1.8672   -0.0120 C   0  0  0  0  0  0  0  0  0  0  0  0
    0.2400    1.4411   -0.1309 C   0  0  0  0  0  0  0  0  0  0  0  0
    0.6347    0.1064   -0.1081 C   0  0  0  0  0  0  0  0  0  0  0  0
   -0.3034   -0.9429    0.0392 C   0  0  0  0  0  0  0  0  0  0  0  0
   -1.6399   -0.6362    0.1625 C   0  0  0  0  0  0  0  0  0  0  0  0
   -1.9038    4.4158    0.1127 H   0  0  0  0  0  0  0  0  0  0  0  0
    1.0180    2.1949   -0.2472 H   0  0  0  0  0  0  0  0  0  0  0  0
    1.6882   -0.1495   -0.2055 H   0  0  0  0  0  0  0  0  0  0  0  0
    0.0260   -1.9766    0.0552 H   0  0  0  0  0  0  0  0  0  0  0  0
   -2.4037   -1.3998    0.2791 H   0  0  0  0  0  0  0  0  0  0  0  0
   -3.8107    5.2955    0.5839 S   0  0  0  0  0  0  0  0  0  0  0  0
   -4.6503    5.0243   -1.0573 C   0  0  0  0  0  0  0  0  0  0  0  0
   -4.0747    4.0996    1.3758 O   0  0  0  0  0  0  0  0  0  0  0  0
   -4.1572    6.6288    1.0315 O   0  0  0  0  0  0  0  0  0  0  0  0
   -2.2784    5.3263    0.1038 O   0  0  0  0  0  0  0  0  0  0  0  0
   -4.2441    3.8556   -1.5707 F   0  0  0  0  0  0  0  0  0  0  0  0
   -5.9680    4.9848   -0.8626 F   0  0  0  0  0  0  0  0  0  0  0  0
   -4.3507    6.0064   -1.9014 F   0  0  0  0  0  0  0  0  0  0  0  0
  1  8  1  0  0  0  0
  1  2  1  0  0  0  0
  2  3  1  0  0  0  0
  4  1  2  0  0  0  0
  5  6  2  0  0  0  0
  5  4  1  0  0  0  0
  6  7  1  0  0  0  0
  7 12  1  0  0  0  0
  7  8  2  0  0  0  0
  8 13  1  0  0  0  0
 10  5  1  0  0  0  0
 11  6  1  0  0  0  0
 14 17  2  0  0  0  0
 14 16  2  0  0  0  0
 15 20  1  0  0  0  0
 15 14  1  0  0  0  0
 18  9  1  0  0  0  0
 18 14  1  0  0  0  0
 19 15  1  0  0  0  0
 21 15  1  0  0  0  0
M  RAD  3   2   2   3   3   4   2
M  END
