Coordinates from ORCA-job PhN2+~TfO-_B3LYPG-6-31G_dp-CH-Scan-d09-49-n800
 OpenBabel11261919123D

 21 20  0  0  0  0  0  0  0  0999 V2000
   -1.7664    0.6348   -0.1763 C   0  0  0  0  0  0  0  0  0  0  0  0
   -3.0576    1.1559   -0.2620 N   0  0  0  0  0  0  0  0  0  0  0  0
   -4.0594    1.6423   -0.3757 N   0  0  0  0  0  0  0  0  0  0  0  0
   -0.8071    1.5399   -0.6521 C   0  0  0  0  0  0  0  0  0  0  0  0
    0.4839    0.9435   -0.5504 C   0  0  0  0  0  0  0  0  0  0  0  0
    0.7111   -0.3340   -0.0490 C   0  0  0  0  0  0  0  0  0  0  0  0
   -0.3501   -1.1569    0.4067 C   0  0  0  0  0  0  0  0  0  0  0  0
   -1.6400   -0.6792    0.3507 C   0  0  0  0  0  0  0  0  0  0  0  0
   -2.0067    5.7854    0.3960 H   0  0  0  0  0  0  0  0  0  0  0  0
    1.3529    1.5138   -0.8815 H   0  0  0  0  0  0  0  0  0  0  0  0
    1.7260   -0.7259    0.0015 H   0  0  0  0  0  0  0  0  0  0  0  0
   -0.1470   -2.1499    0.7938 H   0  0  0  0  0  0  0  0  0  0  0  0
   -2.4945   -1.2618    0.6843 H   0  0  0  0  0  0  0  0  0  0  0  0
   -4.1046    5.4870    0.7387 S   0  0  0  0  0  0  0  0  0  0  0  0
   -4.6970    5.0686   -0.9804 C   0  0  0  0  0  0  0  0  0  0  0  0
   -3.6840    4.2409    1.3641 O   0  0  0  0  0  0  0  0  0  0  0  0
   -5.0706    6.3921    1.3241 O   0  0  0  0  0  0  0  0  0  0  0  0
   -2.7898    6.3622    0.3538 O   0  0  0  0  0  0  0  0  0  0  0  0
   -3.7437    4.3865   -1.6179 F   0  0  0  0  0  0  0  0  0  0  0  0
   -5.7903    4.3152   -0.8740 F   0  0  0  0  0  0  0  0  0  0  0  0
   -4.9777    6.1823   -1.6480 F   0  0  0  0  0  0  0  0  0  0  0  0
  1  8  2  0  0  0  0
  2  1  1  0  0  0  0
  3  2  1  0  0  0  0
  4  5  2  0  0  0  0
  4  1  1  0  0  0  0
  5  6  1  0  0  0  0
  6 11  1  0  0  0  0
  6  7  2  0  0  0  0
  7 12  1  0  0  0  0
  8  7  1  0  0  0  0
  8 13  1  0  0  0  0
 10  5  1  0  0  0  0
 14 17  2  0  0  0  0
 14 16  2  0  0  0  0
 15 20  1  0  0  0  0
 15 14  1  0  0  0  0
 18  9  1  0  0  0  0
 18 14  1  0  0  0  0
 19 15  1  0  0  0  0
 21 15  1  0  0  0  0
M  RAD  3   2   2   3   3   4   2
M  END
