Coordinates from ORCA-job PhN2+~TfO-_B3LYPG-6-31G_dp-CH-Scan-d09-49-n800
 OpenBabel11261919123D

 21 20  0  0  0  0  0  0  0  0999 V2000
   -1.8927    1.1057   -0.6203 C   0  0  0  0  0  0  0  0  0  0  0  0
   -3.0824    1.2293   -1.3279 N   0  0  0  0  0  0  0  0  0  0  0  0
   -4.0186    1.1414   -1.9201 N   0  0  0  0  0  0  0  0  0  0  0  0
   -0.9214    2.1135   -0.7090 C   0  0  0  0  0  0  0  0  0  0  0  0
    0.2612    1.8975   -0.0088 C   0  0  0  0  0  0  0  0  0  0  0  0
    0.4476    0.7363    0.7454 C   0  0  0  0  0  0  0  0  0  0  0  0
   -0.5484   -0.2464    0.8137 C   0  0  0  0  0  0  0  0  0  0  0  0
   -1.7404   -0.0757    0.1253 C   0  0  0  0  0  0  0  0  0  0  0  0
   -1.0841    2.8625   -1.1808 H   0  0  0  0  0  0  0  0  0  0  0  0
    1.0324    2.6596   -0.0407 H   0  0  0  0  0  0  0  0  0  0  0  0
    1.3738    0.5960    1.2937 H   0  0  0  0  0  0  0  0  0  0  0  0
   -0.3983   -1.1411    1.4081 H   0  0  0  0  0  0  0  0  0  0  0  0
   -2.5375   -0.8092    0.1670 H   0  0  0  0  0  0  0  0  0  0  0  0
   -3.5072    4.0161   -0.0032 S   0  0  0  0  0  0  0  0  0  0  0  0
   -4.8796    5.2638   -0.0713 C   0  0  0  0  0  0  0  0  0  0  0  0
   -4.1471    2.7935    0.5557 O   0  0  0  0  0  0  0  0  0  0  0  0
   -2.4585    4.6289    0.8309 O   0  0  0  0  0  0  0  0  0  0  0  0
   -3.1311    3.8390   -1.4430 O   0  0  0  0  0  0  0  0  0  0  0  0
   -5.8893    4.8081   -0.8300 F   0  0  0  0  0  0  0  0  0  0  0  0
   -5.3506    5.5086    1.1590 F   0  0  0  0  0  0  0  0  0  0  0  0
   -4.4404    6.4153   -0.5973 F   0  0  0  0  0  0  0  0  0  0  0  0
  1  8  1  0  0  0  0
  2  1  1  0  0  0  0
  3  2  1  0  0  0  0
  4  1  2  0  0  0  0
  4  5  1  0  0  0  0
  5  6  2  0  0  0  0
  6  7  1  0  0  0  0
  6 11  1  0  0  0  0
  7 12  1  0  0  0  0
  8 13  1  0  0  0  0
  8  7  2  0  0  0  0
  9  4  1  0  0  0  0
 10  5  1  0  0  0  0
 14 16  2  0  0  0  0
 14 17  1  0  0  0  0
 15 14  1  0  0  0  0
 15 20  1  0  0  0  0
 18 14  2  0  0  0  0
 19 15  1  0  0  0  0
 21 15  1  0  0  0  0
M  RAD  3   2   2   3   3  17   2
M  END
