Coordinates from ORCA-job PhN2+~TfO-_B3LYPG-6-31G_dp-CH-Scan-d09-49-n800
 OpenBabel11261919123D

 21 20  0  0  0  0  0  0  0  0999 V2000
   -1.9807    0.7698    0.1358 C   0  0  0  0  0  0  0  0  0  0  0  0
   -3.3297    1.0727    0.2543 N   0  0  0  0  0  0  0  0  0  0  0  0
   -4.4064    1.3597    0.3390 N   0  0  0  0  0  0  0  0  0  0  0  0
   -1.1489    1.8960   -0.0057 C   0  0  0  0  0  0  0  0  0  0  0  0
    0.2057    1.4885   -0.1285 C   0  0  0  0  0  0  0  0  0  0  0  0
    0.6170    0.1586   -0.1092 C   0  0  0  0  0  0  0  0  0  0  0  0
   -0.3077   -0.9019    0.0386 C   0  0  0  0  0  0  0  0  0  0  0  0
   -1.6477   -0.6121    0.1660 C   0  0  0  0  0  0  0  0  0  0  0  0
   -1.9047    4.2897    0.0905 H   0  0  0  0  0  0  0  0  0  0  0  0
    0.9731    2.2528   -0.2451 H   0  0  0  0  0  0  0  0  0  0  0  0
    1.6733   -0.0838   -0.2100 H   0  0  0  0  0  0  0  0  0  0  0  0
    0.0342   -1.9316    0.0520 H   0  0  0  0  0  0  0  0  0  0  0  0
   -2.4013   -1.3855    0.2833 H   0  0  0  0  0  0  0  0  0  0  0  0
   -3.7709    5.2477    0.5807 S   0  0  0  0  0  0  0  0  0  0  0  0
   -4.6247    5.0131   -1.0582 C   0  0  0  0  0  0  0  0  0  0  0  0
   -4.0843    4.0609    1.3693 O   0  0  0  0  0  0  0  0  0  0  0  0
   -4.0682    6.5915    1.0333 O   0  0  0  0  0  0  0  0  0  0  0  0
   -2.2429    5.2193    0.1000 O   0  0  0  0  0  0  0  0  0  0  0  0
   -4.2637    3.8309   -1.5763 F   0  0  0  0  0  0  0  0  0  0  0  0
   -5.9429    5.0214   -0.8616 F   0  0  0  0  0  0  0  0  0  0  0  0
   -4.2915    5.9849   -1.9019 F   0  0  0  0  0  0  0  0  0  0  0  0
  1  8  1  0  0  0  0
  1  2  1  0  0  0  0
  2  3  1  0  0  0  0
  4  1  2  0  0  0  0
  5  6  2  0  0  0  0
  5  4  1  0  0  0  0
  6  7  1  0  0  0  0
  7 12  1  0  0  0  0
  7  8  2  0  0  0  0
  8 13  1  0  0  0  0
  9 18  1  0  0  0  0
 10  5  1  0  0  0  0
 11  6  1  0  0  0  0
 14 17  2  0  0  0  0
 14 16  2  0  0  0  0
 15 20  1  0  0  0  0
 15 14  1  0  0  0  0
 18 14  1  0  0  0  0
 19 15  1  0  0  0  0
 21 15  1  0  0  0  0
M  RAD  3   2   2   3   3   4   2
M  END
