Coordinates from ORCA-job PhN2+~TfO-_B3LYPG-6-31G_dp-CH-Scan-d09-49-n800
 OpenBabel11261919123D

 21 20  0  0  0  0  0  0  0  0999 V2000
   -2.0955    0.8839    0.0679 C   0  0  0  0  0  0  0  0  0  0  0  0
   -3.4624    1.1068    0.0952 N   0  0  0  0  0  0  0  0  0  0  0  0
   -4.5561    1.3256    0.1097 N   0  0  0  0  0  0  0  0  0  0  0  0
   -1.2917    2.0313   -0.0723 C   0  0  0  0  0  0  0  0  0  0  0  0
    0.0811    1.7031   -0.0984 C   0  0  0  0  0  0  0  0  0  0  0  0
    0.5545    0.3965    0.0042 C   0  0  0  0  0  0  0  0  0  0  0  0
   -0.3263   -0.6971    0.1424 C   0  0  0  0  0  0  0  0  0  0  0  0
   -1.6857   -0.4698    0.1761 C   0  0  0  0  0  0  0  0  0  0  0  0
   -1.8415    3.6030   -0.1280 H   0  0  0  0  0  0  0  0  0  0  0  0
    0.8055    2.5083   -0.2012 H   0  0  0  0  0  0  0  0  0  0  0  0
    1.6250    0.2058   -0.0214 H   0  0  0  0  0  0  0  0  0  0  0  0
    0.0593   -1.7079    0.2225 H   0  0  0  0  0  0  0  0  0  0  0  0
   -2.4051   -1.2757    0.2817 H   0  0  0  0  0  0  0  0  0  0  0  0
   -3.4979    4.9604    0.5197 S   0  0  0  0  0  0  0  0  0  0  0  0
   -4.6102    5.0042   -0.9692 C   0  0  0  0  0  0  0  0  0  0  0  0
   -3.9569    3.8032    1.2974 O   0  0  0  0  0  0  0  0  0  0  0  0
   -3.5199    6.2970    1.0910 O   0  0  0  0  0  0  0  0  0  0  0  0
   -2.1284    4.6650   -0.1682 O   0  0  0  0  0  0  0  0  0  0  0  0
   -4.5781    3.8055   -1.5835 F   0  0  0  0  0  0  0  0  0  0  0  0
   -5.8644    5.2540   -0.5865 F   0  0  0  0  0  0  0  0  0  0  0  0
   -4.2181    5.9397   -1.8327 F   0  0  0  0  0  0  0  0  0  0  0  0
  1  2  1  0  0  0  0
  1  8  2  0  0  0  0
  2  3  1  0  0  0  0
  4  1  1  0  0  0  0
  5  4  2  0  0  0  0
  5  6  1  0  0  0  0
  6  7  2  0  0  0  0
  7  8  1  0  0  0  0
  7 12  1  0  0  0  0
  8 13  1  0  0  0  0
 10  5  1  0  0  0  0
 11  6  1  0  0  0  0
 14 17  2  0  0  0  0
 14 16  2  0  0  0  0
 15 20  1  0  0  0  0
 15 14  1  0  0  0  0
 18  9  1  0  0  0  0
 18 14  1  0  0  0  0
 19 15  1  0  0  0  0
 21 15  1  0  0  0  0
M  RAD  3   2   2   3   3   4   2
M  END
