Coordinates from ORCA-job PhN2+~TfO-_B3LYPG-6-31G_dp-CH-Scan-d09-49-n800
 OpenBabel11261919123D

 21 20  0  0  0  0  0  0  0  0999 V2000
   -1.9852    0.7734    0.1367 C   0  0  0  0  0  0  0  0  0  0  0  0
   -3.3348    1.0733    0.2560 N   0  0  0  0  0  0  0  0  0  0  0  0
   -4.4121    1.3576    0.3414 N   0  0  0  0  0  0  0  0  0  0  0  0
   -1.1552    1.9010   -0.0045 C   0  0  0  0  0  0  0  0  0  0  0  0
    0.2001    1.4962   -0.1280 C   0  0  0  0  0  0  0  0  0  0  0  0
    0.6138    0.1671   -0.1096 C   0  0  0  0  0  0  0  0  0  0  0  0
   -0.3089   -0.8951    0.0380 C   0  0  0  0  0  0  0  0  0  0  0  0
   -1.6494   -0.6078    0.1661 C   0  0  0  0  0  0  0  0  0  0  0  0
   -1.9037    4.2708    0.0892 H   0  0  0  0  0  0  0  0  0  0  0  0
    0.9659    2.2621   -0.2444 H   0  0  0  0  0  0  0  0  0  0  0  0
    1.6705   -0.0733   -0.2109 H   0  0  0  0  0  0  0  0  0  0  0  0
    0.0347   -1.9242    0.0507 H   0  0  0  0  0  0  0  0  0  0  0  0
   -2.4015   -1.3826    0.2832 H   0  0  0  0  0  0  0  0  0  0  0  0
   -3.7643    5.2401    0.5801 S   0  0  0  0  0  0  0  0  0  0  0  0
   -4.6200    5.0098   -1.0583 C   0  0  0  0  0  0  0  0  0  0  0  0
   -4.0848    4.0552    1.3690 O   0  0  0  0  0  0  0  0  0  0  0  0
   -4.0548    6.5855    1.0327 O   0  0  0  0  0  0  0  0  0  0  0  0
   -2.2373    5.2030    0.0994 O   0  0  0  0  0  0  0  0  0  0  0  0
   -4.2655    3.8256   -1.5765 F   0  0  0  0  0  0  0  0  0  0  0  0
   -5.9382    5.0251   -0.8614 F   0  0  0  0  0  0  0  0  0  0  0  0
   -4.2821    5.9798   -1.9025 F   0  0  0  0  0  0  0  0  0  0  0  0
  1  8  1  0  0  0  0
  1  2  1  0  0  0  0
  2  3  1  0  0  0  0
  4  1  2  0  0  0  0
  5  6  2  0  0  0  0
  5  4  1  0  0  0  0
  6  7  1  0  0  0  0
  7 12  1  0  0  0  0
  7  8  2  0  0  0  0
  8 13  1  0  0  0  0
  9 18  1  0  0  0  0
 10  5  1  0  0  0  0
 11  6  1  0  0  0  0
 14 17  2  0  0  0  0
 14 16  2  0  0  0  0
 15 20  1  0  0  0  0
 15 14  1  0  0  0  0
 18 14  1  0  0  0  0
 19 15  1  0  0  0  0
 21 15  1  0  0  0  0
M  RAD  3   2   2   3   3   4   2
M  END
