Coordinates from ORCA-job PhN2+~TfO-_B3LYPG-6-31G_dp-CH-Scan-d09-49-n800
 OpenBabel11261919123D

 21 20  0  0  0  0  0  0  0  0999 V2000
   -1.7569    0.6306   -0.1824 C   0  0  0  0  0  0  0  0  0  0  0  0
   -3.0453    1.1583   -0.2700 N   0  0  0  0  0  0  0  0  0  0  0  0
   -4.0446    1.6495   -0.3858 N   0  0  0  0  0  0  0  0  0  0  0  0
   -0.7939    1.5255   -0.6697 C   0  0  0  0  0  0  0  0  0  0  0  0
    0.4940    0.9232   -0.5650 C   0  0  0  0  0  0  0  0  0  0  0  0
    0.7155   -0.3505   -0.0516 C   0  0  0  0  0  0  0  0  0  0  0  0
   -0.3491   -1.1630    0.4147 C   0  0  0  0  0  0  0  0  0  0  0  0
   -1.6365   -0.6788    0.3574 C   0  0  0  0  0  0  0  0  0  0  0  0
   -2.0224    5.8183    0.4136 H   0  0  0  0  0  0  0  0  0  0  0  0
    1.3653    1.4854   -0.9039 H   0  0  0  0  0  0  0  0  0  0  0  0
    1.7284   -0.7475    0.0001 H   0  0  0  0  0  0  0  0  0  0  0  0
   -0.1505   -2.1533    0.8109 H   0  0  0  0  0  0  0  0  0  0  0  0
   -2.4933   -1.2533    0.6989 H   0  0  0  0  0  0  0  0  0  0  0  0
   -4.1185    5.4954    0.7425 S   0  0  0  0  0  0  0  0  0  0  0  0
   -4.6995    5.0749   -0.9800 C   0  0  0  0  0  0  0  0  0  0  0  0
   -3.6859    4.2528    1.3667 O   0  0  0  0  0  0  0  0  0  0  0  0
   -5.0970    6.3881    1.3264 O   0  0  0  0  0  0  0  0  0  0  0  0
   -2.8118    6.3858    0.3645 O   0  0  0  0  0  0  0  0  0  0  0  0
   -3.7371    4.4029   -1.6145 F   0  0  0  0  0  0  0  0  0  0  0  0
   -5.7863    4.3114   -0.8799 F   0  0  0  0  0  0  0  0  0  0  0  0
   -4.9875    6.1874   -1.6466 F   0  0  0  0  0  0  0  0  0  0  0  0
  1  8  2  0  0  0  0
  2  1  1  0  0  0  0
  3  2  1  0  0  0  0
  4  5  2  0  0  0  0
  4  1  1  0  0  0  0
  5  6  1  0  0  0  0
  6 11  1  0  0  0  0
  6  7  2  0  0  0  0
  7 12  1  0  0  0  0
  8  7  1  0  0  0  0
  8 13  1  0  0  0  0
 10  5  1  0  0  0  0
 14 17  2  0  0  0  0
 14 16  2  0  0  0  0
 15 20  1  0  0  0  0
 15 14  1  0  0  0  0
 18  9  1  0  0  0  0
 18 14  1  0  0  0  0
 19 15  1  0  0  0  0
 21 15  1  0  0  0  0
M  RAD  3   2   2   3   3   4   2
M  END
