Coordinates from ORCA-job PhN2+~TfO-_B3LYPG-6-31G_dp-CH-Scan-d09-49-n800
 OpenBabel11261919123D

 21 20  0  0  0  0  0  0  0  0999 V2000
   -1.7702    0.6366   -0.1738 C   0  0  0  0  0  0  0  0  0  0  0  0
   -3.0625    1.1550   -0.2586 N   0  0  0  0  0  0  0  0  0  0  0  0
   -4.0654    1.6395   -0.3714 N   0  0  0  0  0  0  0  0  0  0  0  0
   -0.8124    1.5458   -0.6446 C   0  0  0  0  0  0  0  0  0  0  0  0
    0.4797    0.9518   -0.5441 C   0  0  0  0  0  0  0  0  0  0  0  0
    0.7093   -0.3272   -0.0478 C   0  0  0  0  0  0  0  0  0  0  0  0
   -0.3505   -1.1544    0.4033 C   0  0  0  0  0  0  0  0  0  0  0  0
   -1.6414   -0.6793    0.3478 C   0  0  0  0  0  0  0  0  0  0  0  0
   -2.0003    5.7716    0.3884 H   0  0  0  0  0  0  0  0  0  0  0  0
    1.3478    1.5254   -0.8720 H   0  0  0  0  0  0  0  0  0  0  0  0
    1.7251   -0.7171    0.0021 H   0  0  0  0  0  0  0  0  0  0  0  0
   -0.1456   -2.1485    0.7865 H   0  0  0  0  0  0  0  0  0  0  0  0
   -2.4950   -1.2652    0.6781 H   0  0  0  0  0  0  0  0  0  0  0  0
   -4.0988    5.4836    0.7370 S   0  0  0  0  0  0  0  0  0  0  0  0
   -4.6962    5.0660   -0.9805 C   0  0  0  0  0  0  0  0  0  0  0  0
   -3.6834    4.2361    1.3630 O   0  0  0  0  0  0  0  0  0  0  0  0
   -5.0596    6.3939    1.3232 O   0  0  0  0  0  0  0  0  0  0  0  0
   -2.7807    6.3523    0.3493 O   0  0  0  0  0  0  0  0  0  0  0  0
   -3.7467    4.3798   -1.6194 F   0  0  0  0  0  0  0  0  0  0  0  0
   -5.7921    4.3169   -0.8715 F   0  0  0  0  0  0  0  0  0  0  0  0
   -4.9739    6.1802   -1.6486 F   0  0  0  0  0  0  0  0  0  0  0  0
  1  8  2  0  0  0  0
  2  1  1  0  0  0  0
  3  2  1  0  0  0  0
  4  5  2  0  0  0  0
  4  1  1  0  0  0  0
  5  6  1  0  0  0  0
  6 11  1  0  0  0  0
  6  7  2  0  0  0  0
  7 12  1  0  0  0  0
  8  7  1  0  0  0  0
  8 13  1  0  0  0  0
 10  5  1  0  0  0  0
 14 17  2  0  0  0  0
 14 16  2  0  0  0  0
 15 20  1  0  0  0  0
 15 14  1  0  0  0  0
 18  9  1  0  0  0  0
 18 14  1  0  0  0  0
 19 15  1  0  0  0  0
 21 15  1  0  0  0  0
M  RAD  3   2   2   3   3   4   2
M  END
