Coordinates from ORCA-job PhN2+~TfO-_B3LYPG-6-31G_dp-CH-Scan-d09-49-n800
 OpenBabel11261919123D

 21 20  0  0  0  0  0  0  0  0999 V2000
   -1.8105    0.6486    0.0470 C   0  0  0  0  0  0  0  0  0  0  0  0
   -3.1338    1.0766    0.0951 N   0  0  0  0  0  0  0  0  0  0  0  0
   -4.1772    1.4804    0.1135 N   0  0  0  0  0  0  0  0  0  0  0  0
   -0.9043    1.7053   -0.1409 C   0  0  0  0  0  0  0  0  0  0  0  0
    0.4200    1.1837   -0.1909 C   0  0  0  0  0  0  0  0  0  0  0  0
    0.7281   -0.1672   -0.0648 C   0  0  0  0  0  0  0  0  0  0  0  0
   -0.2783   -1.1466    0.1243 C   0  0  0  0  0  0  0  0  0  0  0  0
   -1.5953   -0.7508    0.1842 C   0  0  0  0  0  0  0  0  0  0  0  0
   -1.9403    5.0668    0.1348 H   0  0  0  0  0  0  0  0  0  0  0  0
    1.2504    1.8759   -0.3347 H   0  0  0  0  0  0  0  0  0  0  0  0
    1.7656   -0.4946   -0.1106 H   0  0  0  0  0  0  0  0  0  0  0  0
   -0.0137   -2.1945    0.2219 H   0  0  0  0  0  0  0  0  0  0  0  0
   -2.4105   -1.4551    0.3272 H   0  0  0  0  0  0  0  0  0  0  0  0
   -3.9901    5.4957    0.6126 S   0  0  0  0  0  0  0  0  0  0  0  0
   -4.8001    5.1212   -1.0248 C   0  0  0  0  0  0  0  0  0  0  0  0
   -3.9570    4.2468    1.3615 O   0  0  0  0  0  0  0  0  0  0  0  0
   -4.5824    6.7155    1.1198 O   0  0  0  0  0  0  0  0  0  0  0  0
   -2.5007    5.8633    0.0935 O   0  0  0  0  0  0  0  0  0  0  0  0
   -4.1907    4.0725   -1.5868 F   0  0  0  0  0  0  0  0  0  0  0  0
   -6.0796    4.8256   -0.8044 F   0  0  0  0  0  0  0  0  0  0  0  0
   -4.7125    6.1736   -1.8312 F   0  0  0  0  0  0  0  0  0  0  0  0
  1  2  1  0  0  0  0
  1  8  2  0  0  0  0
  2  3  1  0  0  0  0
  4  1  1  0  0  0  0
  5  4  2  0  0  0  0
  5  6  1  0  0  0  0
  6  7  2  0  0  0  0
  7  8  1  0  0  0  0
  7 12  1  0  0  0  0
  8 13  1  0  0  0  0
 10  5  1  0  0  0  0
 11  6  1  0  0  0  0
 14 17  2  0  0  0  0
 14 16  2  0  0  0  0
 15 20  1  0  0  0  0
 15 14  1  0  0  0  0
 18  9  1  0  0  0  0
 18 14  1  0  0  0  0
 19 15  1  0  0  0  0
 21 15  1  0  0  0  0
M  RAD  3   2   2   3   3   4   2
M  END
