Coordinates from ORCA-job PhN2+~TfO-_B3LYPG-6-31G_dp-CH-Scan-d09-49-n800
 OpenBabel11261919123D

 21 20  0  0  0  0  0  0  0  0999 V2000
   -2.0971    0.8988    0.0515 C   0  0  0  0  0  0  0  0  0  0  0  0
   -3.4638    1.1229    0.0549 N   0  0  0  0  0  0  0  0  0  0  0  0
   -4.5568    1.3425    0.0527 N   0  0  0  0  0  0  0  0  0  0  0  0
   -1.2832    2.0384   -0.0877 C   0  0  0  0  0  0  0  0  0  0  0  0
    0.0882    1.7158   -0.0901 C   0  0  0  0  0  0  0  0  0  0  0  0
    0.5580    0.4091    0.0333 C   0  0  0  0  0  0  0  0  0  0  0  0
   -0.3267   -0.6804    0.1688 C   0  0  0  0  0  0  0  0  0  0  0  0
   -1.6870   -0.4519    0.1790 C   0  0  0  0  0  0  0  0  0  0  0  0
   -1.8143    3.5038   -0.1703 H   0  0  0  0  0  0  0  0  0  0  0  0
    0.8109    2.5223   -0.1897 H   0  0  0  0  0  0  0  0  0  0  0  0
    1.6283    0.2173    0.0263 H   0  0  0  0  0  0  0  0  0  0  0  0
    0.0557   -1.6909    0.2655 H   0  0  0  0  0  0  0  0  0  0  0  0
   -2.4080   -1.2565    0.2817 H   0  0  0  0  0  0  0  0  0  0  0  0
   -3.4686    4.9259    0.4968 S   0  0  0  0  0  0  0  0  0  0  0  0
   -4.6350    5.0198   -0.9469 C   0  0  0  0  0  0  0  0  0  0  0  0
   -3.9311    3.7625    1.2696 O   0  0  0  0  0  0  0  0  0  0  0  0
   -3.4615    6.2492    1.1026 O   0  0  0  0  0  0  0  0  0  0  0  0
   -2.1410    4.6133   -0.2387 O   0  0  0  0  0  0  0  0  0  0  0  0
   -4.6574    3.8293   -1.5811 F   0  0  0  0  0  0  0  0  0  0  0  0
   -5.8694    5.2943   -0.5178 F   0  0  0  0  0  0  0  0  0  0  0  0
   -4.2531    5.9573   -1.8140 F   0  0  0  0  0  0  0  0  0  0  0  0
  1  2  1  0  0  0  0
  1  8  2  0  0  0  0
  3  2  1  0  0  0  0
  4  1  1  0  0  0  0
  5  4  2  0  0  0  0
  5  6  1  0  0  0  0
  6  7  2  0  0  0  0
  7  8  1  0  0  0  0
  7 12  1  0  0  0  0
  8 13  1  0  0  0  0
 10  5  1  0  0  0  0
 11  6  1  0  0  0  0
 14 17  2  0  0  0  0
 14 16  2  0  0  0  0
 15 20  1  0  0  0  0
 15 14  1  0  0  0  0
 18  9  1  0  0  0  0
 18 14  1  0  0  0  0
 19 15  1  0  0  0  0
 21 15  1  0  0  0  0
M  RAD  3   2   2   3   3   4   2
M  END
