Coordinates from ORCA-job PhN2+~TfO-_B3LYPG-6-31G_dp-CH-Scan-d09-49-n800
 OpenBabel11261919123D

 21 20  0  0  0  0  0  0  0  0999 V2000
   -1.7821    0.6301    0.0222 C   0  0  0  0  0  0  0  0  0  0  0  0
   -3.0987    1.0817    0.0556 N   0  0  0  0  0  0  0  0  0  0  0  0
   -4.1344    1.5056    0.0603 N   0  0  0  0  0  0  0  0  0  0  0  0
   -0.8618    1.6693   -0.1903 C   0  0  0  0  0  0  0  0  0  0  0  0
    0.4551    1.1263   -0.2233 C   0  0  0  0  0  0  0  0  0  0  0  0
    0.7430   -0.2250   -0.0604 C   0  0  0  0  0  0  0  0  0  0  0  0
   -0.2782   -1.1847    0.1515 C   0  0  0  0  0  0  0  0  0  0  0  0
   -1.5894   -0.7683    0.1968 C   0  0  0  0  0  0  0  0  0  0  0  0
   -1.9563    5.2266    0.1627 H   0  0  0  0  0  0  0  0  0  0  0  0
    1.2963    1.8018   -0.3832 H   0  0  0  0  0  0  0  0  0  0  0  0
    1.7757   -0.5688   -0.0939 H   0  0  0  0  0  0  0  0  0  0  0  0
   -0.0290   -2.2333    0.2777 H   0  0  0  0  0  0  0  0  0  0  0  0
   -2.4155   -1.4564    0.3556 H   0  0  0  0  0  0  0  0  0  0  0  0
   -4.0311    5.5322    0.6250 S   0  0  0  0  0  0  0  0  0  0  0  0
   -4.8162    5.1336   -1.0190 C   0  0  0  0  0  0  0  0  0  0  0  0
   -3.9259    4.2791    1.3597 O   0  0  0  0  0  0  0  0  0  0  0  0
   -4.6905    6.7115    1.1448 O   0  0  0  0  0  0  0  0  0  0  0  0
   -2.5620    5.9878    0.1122 O   0  0  0  0  0  0  0  0  0  0  0  0
   -4.1547    4.1215   -1.5880 F   0  0  0  0  0  0  0  0  0  0  0  0
   -6.0804    4.7749   -0.8053 F   0  0  0  0  0  0  0  0  0  0  0  0
   -4.7767    6.1973   -1.8144 F   0  0  0  0  0  0  0  0  0  0  0  0
  1  2  1  0  0  0  0
  1  8  2  0  0  0  0
  2  3  1  0  0  0  0
  4  1  1  0  0  0  0
  5  4  2  0  0  0  0
  5  6  1  0  0  0  0
  6  7  2  0  0  0  0
  7  8  1  0  0  0  0
  7 12  1  0  0  0  0
  8 13  1  0  0  0  0
 10  5  1  0  0  0  0
 11  6  1  0  0  0  0
 14 17  2  0  0  0  0
 14 16  2  0  0  0  0
 15 20  1  0  0  0  0
 15 14  1  0  0  0  0
 18  9  1  0  0  0  0
 18 14  1  0  0  0  0
 19 15  1  0  0  0  0
 21 15  1  0  0  0  0
M  RAD  3   2   2   3   3   4   2
M  END
