Coordinates from ORCA-job PhN2+~TfO-_B3LYPG-6-31G_dp-CH-Scan-d09-49-n800
 OpenBabel11261919123D

 21 20  0  0  0  0  0  0  0  0999 V2000
   -2.0413    0.8152    0.1201 C   0  0  0  0  0  0  0  0  0  0  0  0
   -3.4005    1.0719    0.2153 N   0  0  0  0  0  0  0  0  0  0  0  0
   -4.4868    1.3224    0.2823 N   0  0  0  0  0  0  0  0  0  0  0  0
   -1.2352    1.9606   -0.0242 C   0  0  0  0  0  0  0  0  0  0  0  0
    0.1312    1.5963   -0.1207 C   0  0  0  0  0  0  0  0  0  0  0  0
    0.5823    0.2795   -0.0764 C   0  0  0  0  0  0  0  0  0  0  0  0
   -0.3125   -0.8047    0.0715 C   0  0  0  0  0  0  0  0  0  0  0  0
   -1.6628   -0.5532    0.1737 C   0  0  0  0  0  0  0  0  0  0  0  0
   -1.8929    3.9773    0.0103 H   0  0  0  0  0  0  0  0  0  0  0  0
    0.8741    2.3840   -0.2355 H   0  0  0  0  0  0  0  0  0  0  0  0
    1.6468    0.0688   -0.1568 H   0  0  0  0  0  0  0  0  0  0  0  0
    0.0585   -1.8236    0.1051 H   0  0  0  0  0  0  0  0  0  0  0  0
   -2.3941   -1.3475    0.2898 H   0  0  0  0  0  0  0  0  0  0  0  0
   -3.6517    5.1187    0.5634 S   0  0  0  0  0  0  0  0  0  0  0  0
   -4.5979    5.0056   -1.0352 C   0  0  0  0  0  0  0  0  0  0  0  0
   -4.0559    3.9511    1.3435 O   0  0  0  0  0  0  0  0  0  0  0  0
   -3.8146    6.4725    1.0571 O   0  0  0  0  0  0  0  0  0  0  0  0
   -2.1688    4.9495    0.0183 O   0  0  0  0  0  0  0  0  0  0  0  0
   -4.3810    3.8037   -1.5933 F   0  0  0  0  0  0  0  0  0  0  0  0
   -5.9003    5.1382   -0.7814 F   0  0  0  0  0  0  0  0  0  0  0  0
   -4.2095    5.9567   -1.8805 F   0  0  0  0  0  0  0  0  0  0  0  0
  1  8  1  0  0  0  0
  1  2  1  0  0  0  0
  2  3  1  0  0  0  0
  4  1  2  0  0  0  0
  5  6  2  0  0  0  0
  5  4  1  0  0  0  0
  6  7  1  0  0  0  0
  7 12  1  0  0  0  0
  7  8  2  0  0  0  0
  8 13  1  0  0  0  0
  9 18  1  0  0  0  0
 10  5  1  0  0  0  0
 11  6  1  0  0  0  0
 14 17  2  0  0  0  0
 14 16  2  0  0  0  0
 15 20  1  0  0  0  0
 15 14  1  0  0  0  0
 18 14  1  0  0  0  0
 19 15  1  0  0  0  0
 21 15  1  0  0  0  0
M  RAD  3   2   2   3   3   4   2
M  END
