Coordinates from ORCA-job PhN2+~TfO-_B3LYPG-6-31G_dp-CH-Scan-d09-49-n800
 OpenBabel11261919123D

 21 20  0  0  0  0  0  0  0  0999 V2000
   -1.7718    0.6244    0.0104 C   0  0  0  0  0  0  0  0  0  0  0  0
   -3.0855    1.0855    0.0367 N   0  0  0  0  0  0  0  0  0  0  0  0
   -4.1178    1.5180    0.0348 N   0  0  0  0  0  0  0  0  0  0  0  0
   -0.8456    1.6557   -0.2133 C   0  0  0  0  0  0  0  0  0  0  0  0
    0.4682    1.1044   -0.2378 C   0  0  0  0  0  0  0  0  0  0  0  0
    0.7478   -0.2464   -0.0579 C   0  0  0  0  0  0  0  0  0  0  0  0
   -0.2794   -1.1976    0.1641 C   0  0  0  0  0  0  0  0  0  0  0  0
   -1.5882   -0.7730    0.2023 C   0  0  0  0  0  0  0  0  0  0  0  0
   -1.9634    5.2865    0.1739 H   0  0  0  0  0  0  0  0  0  0  0  0
    1.3137    1.7729   -0.4047 H   0  0  0  0  0  0  0  0  0  0  0  0
    1.7785   -0.5967   -0.0855 H   0  0  0  0  0  0  0  0  0  0  0  0
   -0.0365   -2.2460    0.3035 H   0  0  0  0  0  0  0  0  0  0  0  0
   -2.4186   -1.4541    0.3681 H   0  0  0  0  0  0  0  0  0  0  0  0
   -4.0457    5.5445    0.6308 S   0  0  0  0  0  0  0  0  0  0  0  0
   -4.8209    5.1366   -1.0157 C   0  0  0  0  0  0  0  0  0  0  0  0
   -3.9126    4.2910    1.3602 O   0  0  0  0  0  0  0  0  0  0  0  0
   -4.7307    6.7070    1.1553 O   0  0  0  0  0  0  0  0  0  0  0  0
   -2.5860    6.0336    0.1204 O   0  0  0  0  0  0  0  0  0  0  0  0
   -4.1373    4.1419   -1.5888 F   0  0  0  0  0  0  0  0  0  0  0  0
   -6.0772    4.7499   -0.8045 F   0  0  0  0  0  0  0  0  0  0  0  0
   -4.8037    6.2049   -1.8059 F   0  0  0  0  0  0  0  0  0  0  0  0
  1  2  1  0  0  0  0
  1  8  2  0  0  0  0
  3  2  1  0  0  0  0
  4  1  1  0  0  0  0
  5  4  2  0  0  0  0
  5  6  1  0  0  0  0
  6  7  2  0  0  0  0
  7  8  1  0  0  0  0
  7 12  1  0  0  0  0
  8 13  1  0  0  0  0
 10  5  1  0  0  0  0
 11  6  1  0  0  0  0
 14 17  2  0  0  0  0
 14 16  2  0  0  0  0
 15 20  1  0  0  0  0
 15 14  1  0  0  0  0
 18  9  1  0  0  0  0
 18 14  1  0  0  0  0
 19 15  1  0  0  0  0
 21 15  1  0  0  0  0
M  RAD  3   2   2   3   3   4   2
M  END
