Coordinates from ORCA-job PhN2+~TfO-_B3LYPG-6-31G_dp-CH-Scan-d09-49-n800
 OpenBabel11261919123D

 21 20  0  0  0  0  0  0  0  0999 V2000
   -2.0971    0.8900    0.0619 C   0  0  0  0  0  0  0  0  0  0  0  0
   -3.4641    1.1126    0.0805 N   0  0  0  0  0  0  0  0  0  0  0  0
   -4.5577    1.3309    0.0887 N   0  0  0  0  0  0  0  0  0  0  0  0
   -1.2903    2.0351   -0.0781 C   0  0  0  0  0  0  0  0  0  0  0  0
    0.0821    1.7091   -0.0956 C   0  0  0  0  0  0  0  0  0  0  0  0
    0.5549    0.4027    0.0145 C   0  0  0  0  0  0  0  0  0  0  0  0
   -0.3269   -0.6899    0.1517 C   0  0  0  0  0  0  0  0  0  0  0  0
   -1.6868   -0.4626    0.1770 C   0  0  0  0  0  0  0  0  0  0  0  0
   -1.8326    3.5665   -0.1434 H   0  0  0  0  0  0  0  0  0  0  0  0
    0.8057    2.5150   -0.1972 H   0  0  0  0  0  0  0  0  0  0  0  0
    1.6254    0.2120   -0.0044 H   0  0  0  0  0  0  0  0  0  0  0  0
    0.0580   -1.7004    0.2378 H   0  0  0  0  0  0  0  0  0  0  0  0
   -2.4064   -1.2683    0.2815 H   0  0  0  0  0  0  0  0  0  0  0  0
   -3.4859    4.9469    0.5122 S   0  0  0  0  0  0  0  0  0  0  0  0
   -4.6176    5.0083   -0.9611 C   0  0  0  0  0  0  0  0  0  0  0  0
   -3.9467    3.7880    1.2886 O   0  0  0  0  0  0  0  0  0  0  0  0
   -3.4968    6.2792    1.0951 O   0  0  0  0  0  0  0  0  0  0  0  0
   -2.1312    4.6440   -0.1928 O   0  0  0  0  0  0  0  0  0  0  0  0
   -4.6056    3.8118   -1.5818 F   0  0  0  0  0  0  0  0  0  0  0  0
   -5.8648    5.2683   -0.5621 F   0  0  0  0  0  0  0  0  0  0  0  0
   -4.2282    5.9435   -1.8265 F   0  0  0  0  0  0  0  0  0  0  0  0
  1  2  1  0  0  0  0
  1  8  2  0  0  0  0
  2  3  1  0  0  0  0
  4  1  1  0  0  0  0
  5  4  2  0  0  0  0
  5  6  1  0  0  0  0
  6  7  2  0  0  0  0
  7  8  1  0  0  0  0
  7 12  1  0  0  0  0
  8 13  1  0  0  0  0
 10  5  1  0  0  0  0
 11  6  1  0  0  0  0
 14 17  2  0  0  0  0
 14 16  2  0  0  0  0
 15 20  1  0  0  0  0
 15 14  1  0  0  0  0
 18  9  1  0  0  0  0
 18 14  1  0  0  0  0
 19 15  1  0  0  0  0
 21 15  1  0  0  0  0
M  RAD  3   2   2   3   3   4   2
M  END
