Coordinates from ORCA-job PhN2+~TfO-_B3LYPG-6-31G_dp-CH-Scan-d09-49-n800
 OpenBabel11261919123D

 21 20  0  0  0  0  0  0  0  0999 V2000
   -2.0690    0.8440    0.0931 C   0  0  0  0  0  0  0  0  0  0  0  0
   -3.4330    1.0815    0.1552 N   0  0  0  0  0  0  0  0  0  0  0  0
   -4.5237    1.3154    0.1961 N   0  0  0  0  0  0  0  0  0  0  0  0
   -1.2691    1.9941   -0.0503 C   0  0  0  0  0  0  0  0  0  0  0  0
    0.1023    1.6487   -0.1113 C   0  0  0  0  0  0  0  0  0  0  0  0
    0.5683    0.3381   -0.0367 C   0  0  0  0  0  0  0  0  0  0  0  0
   -0.3167   -0.7534    0.1072 C   0  0  0  0  0  0  0  0  0  0  0  0
   -1.6723   -0.5170    0.1751 C   0  0  0  0  0  0  0  0  0  0  0  0
   -1.8772    3.8060   -0.0615 H   0  0  0  0  0  0  0  0  0  0  0  0
    0.8354    2.4458   -0.2207 H   0  0  0  0  0  0  0  0  0  0  0  0
    1.6368    0.1399   -0.0894 H   0  0  0  0  0  0  0  0  0  0  0  0
    0.0647   -1.7674    0.1649 H   0  0  0  0  0  0  0  0  0  0  0  0
   -2.3960   -1.3186    0.2865 H   0  0  0  0  0  0  0  0  0  0  0  0
   -3.5758    5.0431    0.5463 S   0  0  0  0  0  0  0  0  0  0  0  0
   -4.6036    5.0068   -1.0038 C   0  0  0  0  0  0  0  0  0  0  0  0
   -4.0087    3.8821    1.3250 O   0  0  0  0  0  0  0  0  0  0  0  0
   -3.6624    6.3921    1.0750 O   0  0  0  0  0  0  0  0  0  0  0  0
   -2.1413    4.8074   -0.0691 O   0  0  0  0  0  0  0  0  0  0  0  0
   -4.4765    3.8044   -1.5918 F   0  0  0  0  0  0  0  0  0  0  0  0
   -5.8851    5.1993   -0.6876 F   0  0  0  0  0  0  0  0  0  0  0  0
   -4.2098    5.9506   -1.8558 F   0  0  0  0  0  0  0  0  0  0  0  0
  1  2  1  0  0  0  0
  1  8  2  0  0  0  0
  2  3  1  0  0  0  0
  4  1  1  0  0  0  0
  5  4  2  0  0  0  0
  5  6  1  0  0  0  0
  6  7  2  0  0  0  0
  7 12  1  0  0  0  0
  7  8  1  0  0  0  0
  8 13  1  0  0  0  0
 10  5  1  0  0  0  0
 11  6  1  0  0  0  0
 14 17  2  0  0  0  0
 14 16  2  0  0  0  0
 15 20  1  0  0  0  0
 15 14  1  0  0  0  0
 18  9  1  0  0  0  0
 18 14  1  0  0  0  0
 19 15  1  0  0  0  0
 21 15  1  0  0  0  0
M  RAD  3   2   2   3   3   4   2
M  END
