Coordinates from ORCA-job PhN2+~TfO-_B3LYPG-6-31G_dp-CH-Scan-d09-49-n800
 OpenBabel11261919123D

 21 20  0  0  0  0  0  0  0  0999 V2000
   -1.8027    0.6433    0.0417 C   0  0  0  0  0  0  0  0  0  0  0  0
   -3.1243    1.0773    0.0866 N   0  0  0  0  0  0  0  0  0  0  0  0
   -4.1660    1.4858    0.1021 N   0  0  0  0  0  0  0  0  0  0  0  0
   -0.8929    1.6958   -0.1516 C   0  0  0  0  0  0  0  0  0  0  0  0
    0.4295    1.1685   -0.1982 C   0  0  0  0  0  0  0  0  0  0  0  0
    0.7324   -0.1827   -0.0641 C   0  0  0  0  0  0  0  0  0  0  0  0
   -0.2778   -1.1573    0.1301 C   0  0  0  0  0  0  0  0  0  0  0  0
   -1.5933   -0.7562    0.1870 C   0  0  0  0  0  0  0  0  0  0  0  0
   -1.9442    5.1088    0.1423 H   0  0  0  0  0  0  0  0  0  0  0  0
    1.2628    1.8566   -0.3456 H   0  0  0  0  0  0  0  0  0  0  0  0
    1.7686   -0.5144   -0.1074 H   0  0  0  0  0  0  0  0  0  0  0  0
   -0.0172   -2.2056    0.2338 H   0  0  0  0  0  0  0  0  0  0  0  0
   -2.4113   -1.4565    0.3336 H   0  0  0  0  0  0  0  0  0  0  0  0
   -4.0013    5.5063    0.6153 S   0  0  0  0  0  0  0  0  0  0  0  0
   -4.8049    5.1249   -1.0237 C   0  0  0  0  0  0  0  0  0  0  0  0
   -3.9500    4.2563    1.3612 O   0  0  0  0  0  0  0  0  0  0  0  0
   -4.6111    6.7164    1.1250 O   0  0  0  0  0  0  0  0  0  0  0  0
   -2.5165    5.8964    0.0979 O   0  0  0  0  0  0  0  0  0  0  0  0
   -4.1828    4.0846   -1.5869 F   0  0  0  0  0  0  0  0  0  0  0  0
   -6.0811    4.8145   -0.8049 F   0  0  0  0  0  0  0  0  0  0  0  0
   -4.7287    6.1799   -1.8280 F   0  0  0  0  0  0  0  0  0  0  0  0
  1  2  1  0  0  0  0
  1  8  2  0  0  0  0
  2  3  1  0  0  0  0
  4  1  1  0  0  0  0
  5  4  2  0  0  0  0
  5  6  1  0  0  0  0
  6  7  2  0  0  0  0
  7  8  1  0  0  0  0
  7 12  1  0  0  0  0
  8 13  1  0  0  0  0
 10  5  1  0  0  0  0
 11  6  1  0  0  0  0
 14 17  2  0  0  0  0
 14 16  2  0  0  0  0
 15 20  1  0  0  0  0
 15 14  1  0  0  0  0
 18  9  1  0  0  0  0
 18 14  1  0  0  0  0
 19 15  1  0  0  0  0
 21 15  1  0  0  0  0
M  RAD  3   2   2   3   3   4   2
M  END
