Coordinates from ORCA-job PhN2+~TfO-_B3LYPG-6-31G_dp-CH-Scan-d09-49-n800
 OpenBabel11261919123D

 21 20  0  0  0  0  0  0  0  0999 V2000
   -1.7330    0.6212   -0.1961 C   0  0  0  0  0  0  0  0  0  0  0  0
   -3.0145    1.1652   -0.2883 N   0  0  0  0  0  0  0  0  0  0  0  0
   -4.0074    1.6682   -0.4089 N   0  0  0  0  0  0  0  0  0  0  0  0
   -0.7611    1.4913   -0.7093 C   0  0  0  0  0  0  0  0  0  0  0  0
    0.5193    0.8741   -0.5981 C   0  0  0  0  0  0  0  0  0  0  0  0
    0.7263   -0.3908   -0.0576 C   0  0  0  0  0  0  0  0  0  0  0  0
   -0.3465   -1.1780    0.4330 C   0  0  0  0  0  0  0  0  0  0  0  0
   -1.6275   -0.6774    0.3724 C   0  0  0  0  0  0  0  0  0  0  0  0
   -2.0613    5.8936    0.4514 H   0  0  0  0  0  0  0  0  0  0  0  0
    1.3961    1.4165   -0.9543 H   0  0  0  0  0  0  0  0  0  0  0  0
    1.7339   -0.8008   -0.0029 H   0  0  0  0  0  0  0  0  0  0  0  0
   -0.1593   -2.1620    0.8497 H   0  0  0  0  0  0  0  0  0  0  0  0
   -2.4900   -1.2321    0.7318 H   0  0  0  0  0  0  0  0  0  0  0  0
   -4.1518    5.5154    0.7513 S   0  0  0  0  0  0  0  0  0  0  0  0
   -4.7072    5.0909   -0.9788 C   0  0  0  0  0  0  0  0  0  0  0  0
   -3.6918    4.2810    1.3723 O   0  0  0  0  0  0  0  0  0  0  0  0
   -5.1577    6.3792    1.3320 O   0  0  0  0  0  0  0  0  0  0  0  0
   -2.8644    6.4401    0.3887 O   0  0  0  0  0  0  0  0  0  0  0  0
   -3.7241    4.4436   -1.6070 F   0  0  0  0  0  0  0  0  0  0  0  0
   -5.7778    4.3033   -0.8927 F   0  0  0  0  0  0  0  0  0  0  0  0
   -5.0131    6.2003   -1.6424 F   0  0  0  0  0  0  0  0  0  0  0  0
  1  8  2  0  0  0  0
  2  1  1  0  0  0  0
  3  2  1  0  0  0  0
  4  5  2  0  0  0  0
  4  1  1  0  0  0  0
  5  6  1  0  0  0  0
  6 11  1  0  0  0  0
  6  7  2  0  0  0  0
  7 12  1  0  0  0  0
  8  7  1  0  0  0  0
  8 13  1  0  0  0  0
 10  5  1  0  0  0  0
 14 17  2  0  0  0  0
 14 16  2  0  0  0  0
 15 20  1  0  0  0  0
 15 14  1  0  0  0  0
 18  9  1  0  0  0  0
 18 14  1  0  0  0  0
 19 15  1  0  0  0  0
 21 15  1  0  0  0  0
M  RAD  3   2   2   3   3   4   2
M  END
