Coordinates from ORCA-job PhN2+~TfO-_B3LYPG-6-31G_dp-CH-Scan-d09-49-n800
 OpenBabel11261919123D

 21 20  0  0  0  0  0  0  0  0999 V2000
   -2.0636    0.8374    0.0982 C   0  0  0  0  0  0  0  0  0  0  0  0
   -3.4269    1.0780    0.1665 N   0  0  0  0  0  0  0  0  0  0  0  0
   -4.5169    1.3148    0.2122 N   0  0  0  0  0  0  0  0  0  0  0  0
   -1.2633    1.9871   -0.0461 C   0  0  0  0  0  0  0  0  0  0  0  0
    0.1075    1.6386   -0.1135 C   0  0  0  0  0  0  0  0  0  0  0  0
    0.5714    0.3271   -0.0439 C   0  0  0  0  0  0  0  0  0  0  0  0
   -0.3149   -0.7635    0.1014 C   0  0  0  0  0  0  0  0  0  0  0  0
   -1.6697   -0.5248    0.1756 C   0  0  0  0  0  0  0  0  0  0  0  0
   -1.8817    3.8378   -0.0493 H   0  0  0  0  0  0  0  0  0  0  0  0
    0.8421    2.4342   -0.2244 H   0  0  0  0  0  0  0  0  0  0  0  0
    1.6393    0.1270   -0.1018 H   0  0  0  0  0  0  0  0  0  0  0  0
    0.0652   -1.7782    0.1551 H   0  0  0  0  0  0  0  0  0  0  0  0
   -2.3944   -1.3253    0.2884 H   0  0  0  0  0  0  0  0  0  0  0  0
   -3.5903    5.0572    0.5496 S   0  0  0  0  0  0  0  0  0  0  0  0
   -4.6032    5.0088   -1.0101 C   0  0  0  0  0  0  0  0  0  0  0  0
   -4.0188    3.8946    1.3276 O   0  0  0  0  0  0  0  0  0  0  0  0
   -3.6894    6.4071    1.0730 O   0  0  0  0  0  0  0  0  0  0  0  0
   -2.1462    4.8328   -0.0531 O   0  0  0  0  0  0  0  0  0  0  0  0
   -4.4606    3.8065   -1.5939 F   0  0  0  0  0  0  0  0  0  0  0  0
   -5.8889    5.1914   -0.7052 F   0  0  0  0  0  0  0  0  0  0  0  0
   -4.2093    5.9543   -1.8597 F   0  0  0  0  0  0  0  0  0  0  0  0
  1  2  1  0  0  0  0
  1  8  2  0  0  0  0
  2  3  1  0  0  0  0
  4  1  1  0  0  0  0
  5  4  2  0  0  0  0
  5  6  1  0  0  0  0
  6  7  2  0  0  0  0
  7 12  1  0  0  0  0
  7  8  1  0  0  0  0
  8 13  1  0  0  0  0
 10  5  1  0  0  0  0
 11  6  1  0  0  0  0
 14 17  2  0  0  0  0
 14 16  2  0  0  0  0
 15 20  1  0  0  0  0
 15 14  1  0  0  0  0
 18  9  1  0  0  0  0
 18 14  1  0  0  0  0
 19 15  1  0  0  0  0
 21 15  1  0  0  0  0
M  RAD  3   2   2   3   3   4   2
M  END
