Coordinates from ORCA-job PhN2+~TfO-_B3LYPG-6-31G_dp-CH-Scan-d09-49-n800
 OpenBabel11261919123D

 21 20  0  0  0  0  0  0  0  0999 V2000
   -2.0075    0.7903    0.1388 C   0  0  0  0  0  0  0  0  0  0  0  0
   -3.3598    1.0748    0.2588 N   0  0  0  0  0  0  0  0  0  0  0  0
   -4.4401    1.3468    0.3451 N   0  0  0  0  0  0  0  0  0  0  0  0
   -1.1862    1.9247   -0.0018 C   0  0  0  0  0  0  0  0  0  0  0  0
    0.1723    1.5339   -0.1257 C   0  0  0  0  0  0  0  0  0  0  0  0
    0.5988    0.2087   -0.1084 C   0  0  0  0  0  0  0  0  0  0  0  0
   -0.3139   -0.8618    0.0384 C   0  0  0  0  0  0  0  0  0  0  0  0
   -1.6571   -0.5871    0.1668 C   0  0  0  0  0  0  0  0  0  0  0  0
   -1.8993    4.1749    0.0784 H   0  0  0  0  0  0  0  0  0  0  0  0
    0.9300    2.3076   -0.2416 H   0  0  0  0  0  0  0  0  0  0  0  0
    1.6576   -0.0214   -0.2100 H   0  0  0  0  0  0  0  0  0  0  0  0
    0.0390   -1.8877    0.0503 H   0  0  0  0  0  0  0  0  0  0  0  0
   -2.4017   -1.3691    0.2834 H   0  0  0  0  0  0  0  0  0  0  0  0
   -3.7297    5.2020    0.5769 S   0  0  0  0  0  0  0  0  0  0  0  0
   -4.5998    4.9970   -1.0568 C   0  0  0  0  0  0  0  0  0  0  0  0
   -4.0842    4.0264    1.3663 O   0  0  0  0  0  0  0  0  0  0  0  0
   -3.9841    6.5541    1.0326 O   0  0  0  0  0  0  0  0  0  0  0  0
   -2.2101    5.1203    0.0908 O   0  0  0  0  0  0  0  0  0  0  0  0
   -4.2788    3.8042   -1.5789 F   0  0  0  0  0  0  0  0  0  0  0  0
   -5.9166    5.0456   -0.8546 F   0  0  0  0  0  0  0  0  0  0  0  0
   -4.2416    5.9585   -1.9026 F   0  0  0  0  0  0  0  0  0  0  0  0
  1  8  1  0  0  0  0
  1  2  1  0  0  0  0
  2  3  1  0  0  0  0
  4  1  2  0  0  0  0
  5  6  2  0  0  0  0
  5  4  1  0  0  0  0
  6  7  1  0  0  0  0
  7 12  1  0  0  0  0
  7  8  2  0  0  0  0
  8 13  1  0  0  0  0
  9 18  1  0  0  0  0
 10  5  1  0  0  0  0
 11  6  1  0  0  0  0
 14 17  2  0  0  0  0
 14 16  2  0  0  0  0
 15 20  1  0  0  0  0
 15 14  1  0  0  0  0
 18 14  1  0  0  0  0
 19 15  1  0  0  0  0
 21 15  1  0  0  0  0
M  RAD  3   2   2   3   3   4   2
M  END
