Coordinates from ORCA-job PhN2+~TfO-_B3LYPG-6-31G_dp-CH-Scan-d09-49-n800
 OpenBabel11261919123D

 21 20  0  0  0  0  0  0  0  0999 V2000
   -2.0407    0.8146    0.1208 C   0  0  0  0  0  0  0  0  0  0  0  0
   -3.3997    1.0719    0.2169 N   0  0  0  0  0  0  0  0  0  0  0  0
   -4.4859    1.3228    0.2846 N   0  0  0  0  0  0  0  0  0  0  0  0
   -1.2344    1.9599   -0.0234 C   0  0  0  0  0  0  0  0  0  0  0  0
    0.1319    1.5951   -0.1209 C   0  0  0  0  0  0  0  0  0  0  0  0
    0.5826    0.2782   -0.0774 C   0  0  0  0  0  0  0  0  0  0  0  0
   -0.3125   -0.8058    0.0704 C   0  0  0  0  0  0  0  0  0  0  0  0
   -1.6627   -0.5540    0.1735 C   0  0  0  0  0  0  0  0  0  0  0  0
   -1.8931    3.9815    0.0124 H   0  0  0  0  0  0  0  0  0  0  0  0
    0.8750    2.3825   -0.2357 H   0  0  0  0  0  0  0  0  0  0  0  0
    1.6469    0.0670   -0.1586 H   0  0  0  0  0  0  0  0  0  0  0  0
    0.0581   -1.8250    0.1032 H   0  0  0  0  0  0  0  0  0  0  0  0
   -2.3942   -1.3480    0.2896 H   0  0  0  0  0  0  0  0  0  0  0  0
   -3.6535    5.1206    0.5638 S   0  0  0  0  0  0  0  0  0  0  0  0
   -4.5975    5.0052   -1.0360 C   0  0  0  0  0  0  0  0  0  0  0  0
   -4.0570    3.9530    1.3442 O   0  0  0  0  0  0  0  0  0  0  0  0
   -3.8185    6.4746    1.0563 O   0  0  0  0  0  0  0  0  0  0  0  0
   -2.1696    4.9531    0.0207 O   0  0  0  0  0  0  0  0  0  0  0  0
   -4.3782    3.8033   -1.5930 F   0  0  0  0  0  0  0  0  0  0  0  0
   -5.9004    5.1361   -0.7838 F   0  0  0  0  0  0  0  0  0  0  0  0
   -4.2095    5.9563   -1.8812 F   0  0  0  0  0  0  0  0  0  0  0  0
  1  8  1  0  0  0  0
  1  2  1  0  0  0  0
  2  3  1  0  0  0  0
  4  1  2  0  0  0  0
  5  6  2  0  0  0  0
  5  4  1  0  0  0  0
  6  7  1  0  0  0  0
  7 12  1  0  0  0  0
  7  8  2  0  0  0  0
  8 13  1  0  0  0  0
  9 18  1  0  0  0  0
 10  5  1  0  0  0  0
 11  6  1  0  0  0  0
 14 17  2  0  0  0  0
 14 16  2  0  0  0  0
 15 20  1  0  0  0  0
 15 14  1  0  0  0  0
 18 14  1  0  0  0  0
 19 15  1  0  0  0  0
 21 15  1  0  0  0  0
M  RAD  3   2   2   3   3   4   2
M  END
