Coordinates from ORCA-job PhN2+~TfO-_B3LYPG-6-31G_dp-CH-Scan-d09-49-n800
 OpenBabel11261919123D

 21 20  0  0  0  0  0  0  0  0999 V2000
   -2.0155    0.7966    0.1377 C   0  0  0  0  0  0  0  0  0  0  0  0
   -3.3691    1.0754    0.2557 N   0  0  0  0  0  0  0  0  0  0  0  0
   -4.4506    1.3423    0.3404 N   0  0  0  0  0  0  0  0  0  0  0  0
   -1.1974    1.9335   -0.0028 C   0  0  0  0  0  0  0  0  0  0  0  0
    0.1625    1.5481   -0.1246 C   0  0  0  0  0  0  0  0  0  0  0  0
    0.5939    0.2244   -0.1054 C   0  0  0  0  0  0  0  0  0  0  0  0
   -0.3150   -0.8491    0.0410 C   0  0  0  0  0  0  0  0  0  0  0  0
   -1.6595   -0.5791    0.1673 C   0  0  0  0  0  0  0  0  0  0  0  0
   -1.8979    4.1354    0.0706 H   0  0  0  0  0  0  0  0  0  0  0  0
    0.9171    2.3248   -0.2400 H   0  0  0  0  0  0  0  0  0  0  0  0
    1.6537   -0.0017   -0.2053 H   0  0  0  0  0  0  0  0  0  0  0  0
    0.0415   -1.8737    0.0544 H   0  0  0  0  0  0  0  0  0  0  0  0
   -2.4013   -1.3638    0.2835 H   0  0  0  0  0  0  0  0  0  0  0  0
   -3.7150    5.1862    0.5752 S   0  0  0  0  0  0  0  0  0  0  0  0
   -4.5950    4.9943   -1.0545 C   0  0  0  0  0  0  0  0  0  0  0  0
   -4.0818    4.0138    1.3643 O   0  0  0  0  0  0  0  0  0  0  0  0
   -3.9531    6.5402    1.0342 O   0  0  0  0  0  0  0  0  0  0  0  0
   -2.2002    5.0862    0.0829 O   0  0  0  0  0  0  0  0  0  0  0  0
   -4.2909    3.7982   -1.5802 F   0  0  0  0  0  0  0  0  0  0  0  0
   -5.9103    5.0584   -0.8469 F   0  0  0  0  0  0  0  0  0  0  0  0
   -4.2290    5.9523   -1.9011 F   0  0  0  0  0  0  0  0  0  0  0  0
  1  8  1  0  0  0  0
  1  2  1  0  0  0  0
  2  3  1  0  0  0  0
  4  1  2  0  0  0  0
  5  6  2  0  0  0  0
  5  4  1  0  0  0  0
  6  7  1  0  0  0  0
  7 12  1  0  0  0  0
  7  8  2  0  0  0  0
  8 13  1  0  0  0  0
  9 18  1  0  0  0  0
 10  5  1  0  0  0  0
 11  6  1  0  0  0  0
 14 17  2  0  0  0  0
 14 16  2  0  0  0  0
 15 20  1  0  0  0  0
 15 14  1  0  0  0  0
 18 14  1  0  0  0  0
 19 15  1  0  0  0  0
 21 15  1  0  0  0  0
M  RAD  3   2   2   3   3   4   2
M  END
