Coordinates from ORCA-job PhN2+~TfO-_B3LYPG-6-31G_dp-CH-Scan-d09-49-n800
 OpenBabel11261919123D

 21 20  0  0  0  0  0  0  0  0999 V2000
   -1.7313    0.6205   -0.1970 C   0  0  0  0  0  0  0  0  0  0  0  0
   -3.0122    1.1658   -0.2895 N   0  0  0  0  0  0  0  0  0  0  0  0
   -4.0046    1.6696   -0.4106 N   0  0  0  0  0  0  0  0  0  0  0  0
   -0.7586    1.4888   -0.7121 C   0  0  0  0  0  0  0  0  0  0  0  0
    0.5212    0.8705   -0.6004 C   0  0  0  0  0  0  0  0  0  0  0  0
    0.7271   -0.3938   -0.0580 C   0  0  0  0  0  0  0  0  0  0  0  0
   -0.3464   -1.1790    0.4343 C   0  0  0  0  0  0  0  0  0  0  0  0
   -1.6268   -0.6772    0.3735 C   0  0  0  0  0  0  0  0  0  0  0  0
   -2.0642    5.8989    0.4540 H   0  0  0  0  0  0  0  0  0  0  0  0
    1.3984    1.4115   -0.9579 H   0  0  0  0  0  0  0  0  0  0  0  0
    1.7343   -0.8047   -0.0031 H   0  0  0  0  0  0  0  0  0  0  0  0
   -0.1599   -2.1626    0.8524 H   0  0  0  0  0  0  0  0  0  0  0  0
   -2.4898   -1.2305    0.7341 H   0  0  0  0  0  0  0  0  0  0  0  0
   -4.1542    5.5168    0.7519 S   0  0  0  0  0  0  0  0  0  0  0  0
   -4.7078    5.0921   -0.9787 C   0  0  0  0  0  0  0  0  0  0  0  0
   -3.6922    4.2830    1.3727 O   0  0  0  0  0  0  0  0  0  0  0  0
   -5.1620    6.3785    1.3324 O   0  0  0  0  0  0  0  0  0  0  0  0
   -2.8682    6.4440    0.3904 O   0  0  0  0  0  0  0  0  0  0  0  0
   -3.7232    4.4466   -1.6065 F   0  0  0  0  0  0  0  0  0  0  0  0
   -5.7773    4.3028   -0.8936 F   0  0  0  0  0  0  0  0  0  0  0  0
   -5.0151    6.2013   -1.6420 F   0  0  0  0  0  0  0  0  0  0  0  0
  1  8  2  0  0  0  0
  2  1  1  0  0  0  0
  3  2  1  0  0  0  0
  4  5  2  0  0  0  0
  4  1  1  0  0  0  0
  5  6  1  0  0  0  0
  6 11  1  0  0  0  0
  6  7  2  0  0  0  0
  7 12  1  0  0  0  0
  8  7  1  0  0  0  0
  8 13  1  0  0  0  0
 10  5  1  0  0  0  0
 14 17  2  0  0  0  0
 14 16  2  0  0  0  0
 15 20  1  0  0  0  0
 15 14  1  0  0  0  0
 18  9  1  0  0  0  0
 18 14  1  0  0  0  0
 19 15  1  0  0  0  0
 21 15  1  0  0  0  0
M  RAD  3   2   2   3   3   4   2
M  END
