Coordinates from ORCA-job PhN2+~TfO-_B3LYPG-6-31G_dp-CH-Scan-d09-49-n800
 OpenBabel11261919123D

 21 20  0  0  0  0  0  0  0  0999 V2000
   -1.7528    0.6289   -0.1848 C   0  0  0  0  0  0  0  0  0  0  0  0
   -3.0401    1.1594   -0.2733 N   0  0  0  0  0  0  0  0  0  0  0  0
   -4.0383    1.6526   -0.3900 N   0  0  0  0  0  0  0  0  0  0  0  0
   -0.7883    1.5195   -0.6768 C   0  0  0  0  0  0  0  0  0  0  0  0
    0.4984    0.9146   -0.5710 C   0  0  0  0  0  0  0  0  0  0  0  0
    0.7174   -0.3575   -0.0527 C   0  0  0  0  0  0  0  0  0  0  0  0
   -0.3486   -1.1657    0.4180 C   0  0  0  0  0  0  0  0  0  0  0  0
   -1.6350   -0.6786    0.3601 C   0  0  0  0  0  0  0  0  0  0  0  0
   -2.0291    5.8319    0.4207 H   0  0  0  0  0  0  0  0  0  0  0  0
    1.3706    1.4734   -0.9131 H   0  0  0  0  0  0  0  0  0  0  0  0
    1.7294   -0.7568   -0.0004 H   0  0  0  0  0  0  0  0  0  0  0  0
   -0.1520   -2.1548    0.8179 H   0  0  0  0  0  0  0  0  0  0  0  0
   -2.4927   -1.2497    0.7049 H   0  0  0  0  0  0  0  0  0  0  0  0
   -4.1244    5.4990    0.7441 S   0  0  0  0  0  0  0  0  0  0  0  0
   -4.7007    5.0776   -0.9798 C   0  0  0  0  0  0  0  0  0  0  0  0
   -3.6868    4.2578    1.3677 O   0  0  0  0  0  0  0  0  0  0  0  0
   -5.1079    6.3865    1.3274 O   0  0  0  0  0  0  0  0  0  0  0  0
   -2.8211    6.3955    0.3688 O   0  0  0  0  0  0  0  0  0  0  0  0
   -3.7345    4.4099   -1.6131 F   0  0  0  0  0  0  0  0  0  0  0  0
   -5.7847    4.3098   -0.8823 F   0  0  0  0  0  0  0  0  0  0  0  0
   -4.9917    6.1896   -1.6459 F   0  0  0  0  0  0  0  0  0  0  0  0
  1  8  2  0  0  0  0
  2  1  1  0  0  0  0
  3  2  1  0  0  0  0
  4  5  2  0  0  0  0
  4  1  1  0  0  0  0
  5  6  1  0  0  0  0
  6 11  1  0  0  0  0
  6  7  2  0  0  0  0
  7 12  1  0  0  0  0
  8  7  1  0  0  0  0
  8 13  1  0  0  0  0
 10  5  1  0  0  0  0
 14 17  2  0  0  0  0
 14 16  2  0  0  0  0
 15 20  1  0  0  0  0
 15 14  1  0  0  0  0
 18  9  1  0  0  0  0
 18 14  1  0  0  0  0
 19 15  1  0  0  0  0
 21 15  1  0  0  0  0
M  RAD  3   2   2   3   3   4   2
M  END
