Coordinates from ORCA-job PhN2+~TfO-_B3LYPG-6-31G_dp-CH-Scan-d09-49-n800
 OpenBabel11261919123D

 21 20  0  0  0  0  0  0  0  0999 V2000
   -2.0884    0.8703    0.0782 C   0  0  0  0  0  0  0  0  0  0  0  0
   -3.4545    1.0973    0.1203 N   0  0  0  0  0  0  0  0  0  0  0  0
   -4.5474    1.3206    0.1459 N   0  0  0  0  0  0  0  0  0  0  0  0
   -1.2879    2.0203   -0.0624 C   0  0  0  0  0  0  0  0  0  0  0  0
    0.0849    1.6860   -0.1032 C   0  0  0  0  0  0  0  0  0  0  0  0
    0.5569    0.3782   -0.0135 C   0  0  0  0  0  0  0  0  0  0  0  0
   -0.3243   -0.7158    0.1260 C   0  0  0  0  0  0  0  0  0  0  0  0
   -1.6824   -0.4862    0.1741 C   0  0  0  0  0  0  0  0  0  0  0  0
   -1.8568    3.6813   -0.0996 H   0  0  0  0  0  0  0  0  0  0  0  0
    0.8121    2.4887   -0.2079 H   0  0  0  0  0  0  0  0  0  0  0  0
    1.6269    0.1858   -0.0505 H   0  0  0  0  0  0  0  0  0  0  0  0
    0.0608   -1.7275    0.1957 H   0  0  0  0  0  0  0  0  0  0  0  0
   -2.4027   -1.2912    0.2813 H   0  0  0  0  0  0  0  0  0  0  0  0
   -3.5252    4.9909    0.5324 S   0  0  0  0  0  0  0  0  0  0  0  0
   -4.6022    4.9991   -0.9834 C   0  0  0  0  0  0  0  0  0  0  0  0
   -3.9761    3.8350    1.3130 O   0  0  0  0  0  0  0  0  0  0  0  0
   -3.5712    6.3348    1.0823 O   0  0  0  0  0  0  0  0  0  0  0  0
   -2.1278    4.7153   -0.1244 O   0  0  0  0  0  0  0  0  0  0  0  0
   -4.5314    3.7967   -1.5845 F   0  0  0  0  0  0  0  0  0  0  0  0
   -5.8685    5.2276   -0.6295 F   0  0  0  0  0  0  0  0  0  0  0  0
   -4.2076    5.9355   -1.8440 F   0  0  0  0  0  0  0  0  0  0  0  0
  1  2  1  0  0  0  0
  1  8  2  0  0  0  0
  2  3  1  0  0  0  0
  4  1  1  0  0  0  0
  5  4  2  0  0  0  0
  5  6  1  0  0  0  0
  6  7  2  0  0  0  0
  7  8  1  0  0  0  0
  7 12  1  0  0  0  0
  8 13  1  0  0  0  0
 10  5  1  0  0  0  0
 11  6  1  0  0  0  0
 14 17  2  0  0  0  0
 14 16  2  0  0  0  0
 15 20  1  0  0  0  0
 15 14  1  0  0  0  0
 18  9  1  0  0  0  0
 18 14  1  0  0  0  0
 19 15  1  0  0  0  0
 21 15  1  0  0  0  0
M  RAD  3   2   2   3   3   4   2
M  END
