Coordinates from ORCA-job PhN2+~TfO-_B3LYPG-6-31G_dp-CH-Scan-d09-49-n800
 OpenBabel11261919123D

 21 20  0  0  0  0  0  0  0  0999 V2000
   -2.0976    0.8934    0.0582 C   0  0  0  0  0  0  0  0  0  0  0  0
   -3.4646    1.1162    0.0714 N   0  0  0  0  0  0  0  0  0  0  0  0
   -4.5581    1.3345    0.0758 N   0  0  0  0  0  0  0  0  0  0  0  0
   -1.2886    2.0368   -0.0816 C   0  0  0  0  0  0  0  0  0  0  0  0
    0.0836    1.7122   -0.0938 C   0  0  0  0  0  0  0  0  0  0  0  0
    0.5556    0.4058    0.0211 C   0  0  0  0  0  0  0  0  0  0  0  0
   -0.3269   -0.6859    0.1578 C   0  0  0  0  0  0  0  0  0  0  0  0
   -1.6870   -0.4584    0.1778 C   0  0  0  0  0  0  0  0  0  0  0  0
   -1.8263    3.5429   -0.1531 H   0  0  0  0  0  0  0  0  0  0  0  0
    0.8067    2.5185   -0.1947 H   0  0  0  0  0  0  0  0  0  0  0  0
    1.6262    0.2149    0.0064 H   0  0  0  0  0  0  0  0  0  0  0  0
    0.0573   -1.6963    0.2477 H   0  0  0  0  0  0  0  0  0  0  0  0
   -2.4070   -1.2639    0.2817 H   0  0  0  0  0  0  0  0  0  0  0  0
   -3.4791    4.9387    0.5069 S   0  0  0  0  0  0  0  0  0  0  0  0
   -4.6231    5.0120   -0.9561 C   0  0  0  0  0  0  0  0  0  0  0  0
   -3.9409    3.7785    1.2820 O   0  0  0  0  0  0  0  0  0  0  0  0
   -3.4831    6.2680    1.0979 O   0  0  0  0  0  0  0  0  0  0  0  0
   -2.1341    4.6317   -0.2090 O   0  0  0  0  0  0  0  0  0  0  0  0
   -4.6239    3.8175   -1.5814 F   0  0  0  0  0  0  0  0  0  0  0  0
   -5.8658    5.2780   -0.5464 F   0  0  0  0  0  0  0  0  0  0  0  0
   -4.2359    5.9476   -1.8223 F   0  0  0  0  0  0  0  0  0  0  0  0
  1  2  1  0  0  0  0
  1  8  2  0  0  0  0
  2  3  1  0  0  0  0
  4  1  1  0  0  0  0
  5  4  2  0  0  0  0
  5  6  1  0  0  0  0
  6  7  2  0  0  0  0
  7  8  1  0  0  0  0
  7 12  1  0  0  0  0
  8 13  1  0  0  0  0
 10  5  1  0  0  0  0
 11  6  1  0  0  0  0
 14 17  2  0  0  0  0
 14 16  2  0  0  0  0
 15 20  1  0  0  0  0
 15 14  1  0  0  0  0
 18  9  1  0  0  0  0
 18 14  1  0  0  0  0
 19 15  1  0  0  0  0
 21 15  1  0  0  0  0
M  RAD  3   2   2   3   3   4   2
M  END
