Coordinates from ORCA-job PhN2+~TfO-_B3LYPG-6-31G_dp-CH-Scan-d09-49-n800
 OpenBabel11261919123D

 21 20  0  0  0  0  0  0  0  0999 V2000
   -1.8388    0.6682    0.0595 C   0  0  0  0  0  0  0  0  0  0  0  0
   -3.1680    1.0740    0.1138 N   0  0  0  0  0  0  0  0  0  0  0  0
   -4.2189    1.4567    0.1389 N   0  0  0  0  0  0  0  0  0  0  0  0
   -0.9449    1.7386   -0.1132 C   0  0  0  0  0  0  0  0  0  0  0  0
    0.3861    1.2367   -0.1695 C   0  0  0  0  0  0  0  0  0  0  0  0
    0.7125   -0.1117   -0.0631 C   0  0  0  0  0  0  0  0  0  0  0  0
   -0.2807   -1.1068    0.1111 C   0  0  0  0  0  0  0  0  0  0  0  0
   -1.6029   -0.7298    0.1763 C   0  0  0  0  0  0  0  0  0  0  0  0
   -1.9259    4.9217    0.1061 H   0  0  0  0  0  0  0  0  0  0  0  0
    1.2066    1.9425   -0.3026 H   0  0  0  0  0  0  0  0  0  0  0  0
    1.7542   -0.4242   -0.1132 H   0  0  0  0  0  0  0  0  0  0  0  0
   -0.0023   -2.1524    0.1933 H   0  0  0  0  0  0  0  0  0  0  0  0
   -2.4083   -1.4472    0.3088 H   0  0  0  0  0  0  0  0  0  0  0  0
   -3.9468    5.4540    0.6045 S   0  0  0  0  0  0  0  0  0  0  0  0
   -4.7836    5.1091   -1.0259 C   0  0  0  0  0  0  0  0  0  0  0  0
   -3.9733    4.2086    1.3598 O   0  0  0  0  0  0  0  0  0  0  0  0
   -4.4780    6.7031    1.1082 O   0  0  0  0  0  0  0  0  0  0  0  0
   -2.4462    5.7465    0.0761 O   0  0  0  0  0  0  0  0  0  0  0  0
   -4.2205    4.0355   -1.5902 F   0  0  0  0  0  0  0  0  0  0  0  0
   -6.0724    4.8648   -0.7960 F   0  0  0  0  0  0  0  0  0  0  0  0
   -4.6607    6.1549   -1.8362 F   0  0  0  0  0  0  0  0  0  0  0  0
  1  2  1  0  0  0  0
  1  8  2  0  0  0  0
  2  3  1  0  0  0  0
  4  1  1  0  0  0  0
  5  4  2  0  0  0  0
  5  6  1  0  0  0  0
  6  7  2  0  0  0  0
  7  8  1  0  0  0  0
  7 12  1  0  0  0  0
  8 13  1  0  0  0  0
 10  5  1  0  0  0  0
 11  6  1  0  0  0  0
 14 17  2  0  0  0  0
 14 16  2  0  0  0  0
 15 20  1  0  0  0  0
 15 14  1  0  0  0  0
 18  9  1  0  0  0  0
 18 14  1  0  0  0  0
 19 15  1  0  0  0  0
 21 15  1  0  0  0  0
M  RAD  3   2   2   3   3   4   2
M  END
