Coordinates from ORCA-job PhN2+~TfO-_B3LYPG-6-31G_dp-CH-Scan-d09-49-n800
 OpenBabel11261919123D

 21 20  0  0  0  0  0  0  0  0999 V2000
   -1.8205    0.6552    0.0524 C   0  0  0  0  0  0  0  0  0  0  0  0
   -3.1461    1.0750    0.1031 N   0  0  0  0  0  0  0  0  0  0  0  0
   -4.1923    1.4710    0.1242 N   0  0  0  0  0  0  0  0  0  0  0  0
   -0.9189    1.7172   -0.1292 C   0  0  0  0  0  0  0  0  0  0  0  0
    0.4079    1.2029   -0.1821 C   0  0  0  0  0  0  0  0  0  0  0  0
    0.7228   -0.1472   -0.0644 C   0  0  0  0  0  0  0  0  0  0  0  0
   -0.2787   -1.1326    0.1187 C   0  0  0  0  0  0  0  0  0  0  0  0
   -1.5976   -0.7438    0.1811 C   0  0  0  0  0  0  0  0  0  0  0  0
   -1.9351    5.0131    0.1239 H   0  0  0  0  0  0  0  0  0  0  0  0
    1.2346    1.9003   -0.3216 H   0  0  0  0  0  0  0  0  0  0  0  0
    1.7619   -0.4690   -0.1122 H   0  0  0  0  0  0  0  0  0  0  0  0
   -0.0089   -2.1798    0.2098 H   0  0  0  0  0  0  0  0  0  0  0  0
   -2.4092   -1.4531    0.3198 H   0  0  0  0  0  0  0  0  0  0  0  0
   -3.9746    5.4813    0.6093 S   0  0  0  0  0  0  0  0  0  0  0  0
   -4.7948    5.1176   -1.0255 C   0  0  0  0  0  0  0  0  0  0  0  0
   -3.9641    4.2334    1.3607 O   0  0  0  0  0  0  0  0  0  0  0  0
   -4.5439    6.7126    1.1150 O   0  0  0  0  0  0  0  0  0  0  0  0
   -2.4805    5.8204    0.0866 O   0  0  0  0  0  0  0  0  0  0  0  0
   -4.2031    4.0589   -1.5880 F   0  0  0  0  0  0  0  0  0  0  0  0
   -6.0782    4.8419   -0.8015 F   0  0  0  0  0  0  0  0  0  0  0  0
   -4.6934    6.1674   -1.8336 F   0  0  0  0  0  0  0  0  0  0  0  0
  1  2  1  0  0  0  0
  1  8  2  0  0  0  0
  2  3  1  0  0  0  0
  4  1  1  0  0  0  0
  5  4  2  0  0  0  0
  5  6  1  0  0  0  0
  6  7  2  0  0  0  0
  7  8  1  0  0  0  0
  7 12  1  0  0  0  0
  8 13  1  0  0  0  0
 10  5  1  0  0  0  0
 11  6  1  0  0  0  0
 14 17  2  0  0  0  0
 14 16  2  0  0  0  0
 15 20  1  0  0  0  0
 15 14  1  0  0  0  0
 18  9  1  0  0  0  0
 18 14  1  0  0  0  0
 19 15  1  0  0  0  0
 21 15  1  0  0  0  0
M  RAD  3   2   2   3   3   4   2
M  END
