Coordinates from ORCA-job PhN2+~TfO-_B3LYPG-6-31G_dp-CH-Scan-d09-49-n800
 OpenBabel11261919123D

 21 20  0  0  0  0  0  0  0  0999 V2000
   -1.9013    0.7119    0.0919 C   0  0  0  0  0  0  0  0  0  0  0  0
   -3.2406    1.0724    0.1726 N   0  0  0  0  0  0  0  0  0  0  0  0
   -4.3039    1.4147    0.2248 N   0  0  0  0  0  0  0  0  0  0  0  0
   -1.0344    1.8088   -0.0596 C   0  0  0  0  0  0  0  0  0  0  0  0
    0.3086    1.3482   -0.1419 C   0  0  0  0  0  0  0  0  0  0  0  0
    0.6730    0.0066   -0.0773 C   0  0  0  0  0  0  0  0  0  0  0  0
   -0.2908   -1.0191    0.0775 C   0  0  0  0  0  0  0  0  0  0  0  0
   -1.6222   -0.6808    0.1662 C   0  0  0  0  0  0  0  0  0  0  0  0
   -1.9096    4.6354    0.0859 H   0  0  0  0  0  0  0  0  0  0  0  0
    1.1066    2.0808   -0.2619 H   0  0  0  0  0  0  0  0  0  0  0  0
    1.7223   -0.2749   -0.1463 H   0  0  0  0  0  0  0  0  0  0  0  0
    0.0162   -2.0588    0.1264 H   0  0  0  0  0  0  0  0  0  0  0  0
   -2.4055   -1.4241    0.2861 H   0  0  0  0  0  0  0  0  0  0  0  0
   -3.8666    5.3652    0.5916 S   0  0  0  0  0  0  0  0  0  0  0  0
   -4.7226    5.0707   -1.0380 C   0  0  0  0  0  0  0  0  0  0  0  0
   -4.0195    4.1389    1.3641 O   0  0  0  0  0  0  0  0  0  0  0  0
   -4.2887    6.6637    1.0739 O   0  0  0  0  0  0  0  0  0  0  0  0
   -2.3470    5.5114    0.0734 O   0  0  0  0  0  0  0  0  0  0  0  0
   -4.2440    3.9484   -1.5880 F   0  0  0  0  0  0  0  0  0  0  0  0
   -6.0282    4.9309   -0.8132 F   0  0  0  0  0  0  0  0  0  0  0  0
   -4.5149    6.0926   -1.8617 F   0  0  0  0  0  0  0  0  0  0  0  0
  1  8  1  0  0  0  0
  1  2  1  0  0  0  0
  2  3  1  0  0  0  0
  4  1  2  0  0  0  0
  5  6  2  0  0  0  0
  5  4  1  0  0  0  0
  6  7  1  0  0  0  0
  7 12  1  0  0  0  0
  7  8  2  0  0  0  0
  8 13  1  0  0  0  0
 10  5  1  0  0  0  0
 11  6  1  0  0  0  0
 14 17  2  0  0  0  0
 14 16  2  0  0  0  0
 15 20  1  0  0  0  0
 15 14  1  0  0  0  0
 18  9  1  0  0  0  0
 18 14  1  0  0  0  0
 19 15  1  0  0  0  0
 21 15  1  0  0  0  0
M  RAD  3   2   2   3   3   4   2
M  END
