Coordinates from ORCA-job PhN2+~TfO-_B3LYPG-6-31G_dp-CH-Scan-d09-49-n800
 OpenBabel11261919123D

 21 20  0  0  0  0  0  0  0  0999 V2000
   -1.7984    0.6513   -0.1514 C   0  0  0  0  0  0  0  0  0  0  0  0
   -3.0987    1.1494   -0.2286 N   0  0  0  0  0  0  0  0  0  0  0  0
   -4.1094    1.6190   -0.3329 N   0  0  0  0  0  0  0  0  0  0  0  0
   -0.8513    1.5937   -0.5777 C   0  0  0  0  0  0  0  0  0  0  0  0
    0.4493    1.0172   -0.4881 C   0  0  0  0  0  0  0  0  0  0  0  0
    0.6962   -0.2756   -0.0378 C   0  0  0  0  0  0  0  0  0  0  0  0
   -0.3534   -1.1365    0.3717 C   0  0  0  0  0  0  0  0  0  0  0  0
   -1.6516   -0.6811    0.3212 C   0  0  0  0  0  0  0  0  0  0  0  0
   -1.9527    5.6568    0.3196 H   0  0  0  0  0  0  0  0  0  0  0  0
    1.3106    1.6168   -0.7861 H   0  0  0  0  0  0  0  0  0  0  0  0
    1.7179   -0.6500    0.0074 H   0  0  0  0  0  0  0  0  0  0  0  0
   -0.1352   -2.1406    0.7201 H   0  0  0  0  0  0  0  0  0  0  0  0
   -2.4980   -1.2932    0.6208 H   0  0  0  0  0  0  0  0  0  0  0  0
   -4.0529    5.4589    0.7226 S   0  0  0  0  0  0  0  0  0  0  0  0
   -4.6936    5.0472   -0.9804 C   0  0  0  0  0  0  0  0  0  0  0  0
   -3.6810    4.2012    1.3554 O   0  0  0  0  0  0  0  0  0  0  0  0
   -4.9665    6.4139    1.3131 O   0  0  0  0  0  0  0  0  0  0  0  0
   -2.7082    6.2708    0.3074 O   0  0  0  0  0  0  0  0  0  0  0  0
   -3.7766    4.3280   -1.6311 F   0  0  0  0  0  0  0  0  0  0  0  0
   -5.8090    4.3317   -0.8459 F   0  0  0  0  0  0  0  0  0  0  0  0
   -4.9503    6.1638   -1.6528 F   0  0  0  0  0  0  0  0  0  0  0  0
  1  8  2  0  0  0  0
  2  1  1  0  0  0  0
  3  2  1  0  0  0  0
  4  5  2  0  0  0  0
  4  1  1  0  0  0  0
  5  6  1  0  0  0  0
  6 11  1  0  0  0  0
  6  7  2  0  0  0  0
  7 12  1  0  0  0  0
  8  7  1  0  0  0  0
  8 13  1  0  0  0  0
 10  5  1  0  0  0  0
 14 17  2  0  0  0  0
 14 16  2  0  0  0  0
 15 20  1  0  0  0  0
 15 14  1  0  0  0  0
 18  9  1  0  0  0  0
 18 14  1  0  0  0  0
 19 15  1  0  0  0  0
 21 15  1  0  0  0  0
M  RAD  3   2   2   3   3   4   2
M  END
