Coordinates from ORCA-job PhN2+~TfO-_B3LYPG-6-31G_dp-CH-Scan-d09-49-n800
 OpenBabel11261919123D

 21 20  0  0  0  0  0  0  0  0999 V2000
   -2.0355    0.8113    0.1266 C   0  0  0  0  0  0  0  0  0  0  0  0
   -3.3931    1.0738    0.2302 N   0  0  0  0  0  0  0  0  0  0  0  0
   -4.4780    1.3290    0.3039 N   0  0  0  0  0  0  0  0  0  0  0  0
   -1.2264    1.9547   -0.0158 C   0  0  0  0  0  0  0  0  0  0  0  0
    0.1382    1.5847   -0.1216 C   0  0  0  0  0  0  0  0  0  0  0  0
    0.5840    0.2659   -0.0869 C   0  0  0  0  0  0  0  0  0  0  0  0
   -0.3144   -0.8156    0.0599 C   0  0  0  0  0  0  0  0  0  0  0  0
   -1.6630   -0.5592    0.1708 C   0  0  0  0  0  0  0  0  0  0  0  0
   -1.8935    4.0208    0.0318 H   0  0  0  0  0  0  0  0  0  0  0  0
    0.8842    2.3696   -0.2362 H   0  0  0  0  0  0  0  0  0  0  0  0
    1.6472    0.0511   -0.1744 H   0  0  0  0  0  0  0  0  0  0  0  0
    0.0527   -1.8362    0.0857 H   0  0  0  0  0  0  0  0  0  0  0  0
   -2.3971   -1.3511    0.2866 H   0  0  0  0  0  0  0  0  0  0  0  0
   -3.6693    5.1377    0.5677 S   0  0  0  0  0  0  0  0  0  0  0  0
   -4.5935    4.9982   -1.0420 C   0  0  0  0  0  0  0  0  0  0  0  0
   -4.0645    3.9704    1.3520 O   0  0  0  0  0  0  0  0  0  0  0  0
   -3.8549    6.4932    1.0480 O   0  0  0  0  0  0  0  0  0  0  0  0
   -2.1755    4.9870    0.0416 O   0  0  0  0  0  0  0  0  0  0  0  0
   -4.3502    3.7963   -1.5880 F   0  0  0  0  0  0  0  0  0  0  0  0
   -5.9007    5.1118   -0.8047 F   0  0  0  0  0  0  0  0  0  0  0  0
   -4.2096    5.9495   -1.8887 F   0  0  0  0  0  0  0  0  0  0  0  0
  1  8  1  0  0  0  0
  1  2  1  0  0  0  0
  2  3  1  0  0  0  0
  4  1  2  0  0  0  0
  5  6  2  0  0  0  0
  5  4  1  0  0  0  0
  6  7  1  0  0  0  0
  7 12  1  0  0  0  0
  7  8  2  0  0  0  0
  8 13  1  0  0  0  0
  9 18  1  0  0  0  0
 10  5  1  0  0  0  0
 11  6  1  0  0  0  0
 14 17  2  0  0  0  0
 14 16  2  0  0  0  0
 15 20  1  0  0  0  0
 15 14  1  0  0  0  0
 18 14  1  0  0  0  0
 19 15  1  0  0  0  0
 21 15  1  0  0  0  0
M  RAD  3   2   2   3   3   4   2
M  END
