Coordinates from ORCA-job PhN2+~TfO-_B3LYPG-6-31G_dp-CH-Scan-d09-49-n800
 OpenBabel11261919123D

 21 20  0  0  0  0  0  0  0  0999 V2000
   -1.8347    0.6653    0.0581 C   0  0  0  0  0  0  0  0  0  0  0  0
   -3.1633    1.0740    0.1109 N   0  0  0  0  0  0  0  0  0  0  0  0
   -4.2132    1.4595    0.1361 N   0  0  0  0  0  0  0  0  0  0  0  0
   -0.9392    1.7340   -0.1154 C   0  0  0  0  0  0  0  0  0  0  0  0
    0.3910    1.2295   -0.1712 C   0  0  0  0  0  0  0  0  0  0  0  0
    0.7149   -0.1193   -0.0629 C   0  0  0  0  0  0  0  0  0  0  0  0
   -0.2801   -1.1125    0.1125 C   0  0  0  0  0  0  0  0  0  0  0  0
   -1.6016   -0.7330    0.1769 C   0  0  0  0  0  0  0  0  0  0  0  0
   -1.9278    4.9407    0.1082 H   0  0  0  0  0  0  0  0  0  0  0  0
    1.2128    1.9336   -0.3050 H   0  0  0  0  0  0  0  0  0  0  0  0
    1.7561   -0.4338   -0.1124 H   0  0  0  0  0  0  0  0  0  0  0  0
   -0.0036   -2.1585    0.1959 H   0  0  0  0  0  0  0  0  0  0  0  0
   -2.4084   -1.4488    0.3100 H   0  0  0  0  0  0  0  0  0  0  0  0
   -3.9524    5.4600    0.6052 S   0  0  0  0  0  0  0  0  0  0  0  0
   -4.7868    5.1112   -1.0256 C   0  0  0  0  0  0  0  0  0  0  0  0
   -3.9709    4.2140    1.3598 O   0  0  0  0  0  0  0  0  0  0  0  0
   -4.4910    6.7056    1.1097 O   0  0  0  0  0  0  0  0  0  0  0  0
   -2.4533    5.7620    0.0771 O   0  0  0  0  0  0  0  0  0  0  0  0
   -4.2182    4.0407   -1.5899 F   0  0  0  0  0  0  0  0  0  0  0  0
   -6.0744    4.8606   -0.7961 F   0  0  0  0  0  0  0  0  0  0  0  0
   -4.6687    6.1580   -1.8355 F   0  0  0  0  0  0  0  0  0  0  0  0
  1  2  1  0  0  0  0
  1  8  2  0  0  0  0
  2  3  1  0  0  0  0
  4  1  1  0  0  0  0
  5  4  2  0  0  0  0
  5  6  1  0  0  0  0
  6  7  2  0  0  0  0
  7  8  1  0  0  0  0
  7 12  1  0  0  0  0
  8 13  1  0  0  0  0
 10  5  1  0  0  0  0
 11  6  1  0  0  0  0
 14 17  2  0  0  0  0
 14 16  2  0  0  0  0
 15 20  1  0  0  0  0
 15 14  1  0  0  0  0
 18  9  1  0  0  0  0
 18 14  1  0  0  0  0
 19 15  1  0  0  0  0
 21 15  1  0  0  0  0
M  RAD  3   2   2   3   3   4   2
M  END
