Coordinates from ORCA-job PhN2+~TfO-_B3LYPG-6-31G_dp-CH-Scan-d09-49-n800
 OpenBabel11261919123D

 21 20  0  0  0  0  0  0  0  0999 V2000
   -1.8740    0.6954    0.0699 C   0  0  0  0  0  0  0  0  0  0  0  0
   -3.2093    1.0769    0.1301 N   0  0  0  0  0  0  0  0  0  0  0  0
   -4.2675    1.4373    0.1635 N   0  0  0  0  0  0  0  0  0  0  0  0
   -0.9935    1.7795   -0.0895 C   0  0  0  0  0  0  0  0  0  0  0  0
    0.3444    1.2994   -0.1516 C   0  0  0  0  0  0  0  0  0  0  0  0
    0.6906   -0.0454   -0.0624 C   0  0  0  0  0  0  0  0  0  0  0  0
   -0.2878   -1.0566    0.0988 C   0  0  0  0  0  0  0  0  0  0  0  0
   -1.6155   -0.6999    0.1687 C   0  0  0  0  0  0  0  0  0  0  0  0
   -1.9111    4.7597    0.0789 H   0  0  0  0  0  0  0  0  0  0  0  0
    1.1536    2.0194   -0.2752 H   0  0  0  0  0  0  0  0  0  0  0  0
    1.7369   -0.3416   -0.1163 H   0  0  0  0  0  0  0  0  0  0  0  0
    0.0055   -2.0991    0.1673 H   0  0  0  0  0  0  0  0  0  0  0  0
   -2.4098   -1.4310    0.2920 H   0  0  0  0  0  0  0  0  0  0  0  0
   -3.8954    5.4012    0.5980 S   0  0  0  0  0  0  0  0  0  0  0  0
   -4.7559    5.0862   -1.0258 C   0  0  0  0  0  0  0  0  0  0  0  0
   -3.9866    4.1639    1.3622 O   0  0  0  0  0  0  0  0  0  0  0  0
   -4.3622    6.6785    1.0949 O   0  0  0  0  0  0  0  0  0  0  0  0
   -2.3867    5.6134    0.0631 O   0  0  0  0  0  0  0  0  0  0  0  0
   -4.2393    3.9891   -1.5909 F   0  0  0  0  0  0  0  0  0  0  0  0
   -6.0523    4.8933   -0.7882 F   0  0  0  0  0  0  0  0  0  0  0  0
   -4.5971    6.1233   -1.8412 F   0  0  0  0  0  0  0  0  0  0  0  0
  1  2  1  0  0  0  0
  1  8  2  0  0  0  0
  2  3  1  0  0  0  0
  4  1  1  0  0  0  0
  5  4  2  0  0  0  0
  5  6  1  0  0  0  0
  6  7  2  0  0  0  0
  7 12  1  0  0  0  0
  7  8  1  0  0  0  0
  8 13  1  0  0  0  0
 10  5  1  0  0  0  0
 11  6  1  0  0  0  0
 14 17  2  0  0  0  0
 14 16  2  0  0  0  0
 15 20  1  0  0  0  0
 15 14  1  0  0  0  0
 18  9  1  0  0  0  0
 18 14  1  0  0  0  0
 19 15  1  0  0  0  0
 21 15  1  0  0  0  0
M  RAD  3   2   2   3   3   4   2
M  END
