Coordinates from ORCA-job PhN2+~TfO-_B3LYPG-6-31G_dp-CH-Scan-d09-49-n800
 OpenBabel11261919123D

 21 20  0  0  0  0  0  0  0  0999 V2000
   -1.8239    0.6674   -0.1219 C   0  0  0  0  0  0  0  0  0  0  0  0
   -3.1317    1.1454   -0.1881 N   0  0  0  0  0  0  0  0  0  0  0  0
   -4.1508    1.5989   -0.2791 N   0  0  0  0  0  0  0  0  0  0  0  0
   -0.8865    1.6459   -0.4857 C   0  0  0  0  0  0  0  0  0  0  0  0
    0.4219    1.0855   -0.4104 C   0  0  0  0  0  0  0  0  0  0  0  0
    0.6848   -0.2250   -0.0247 C   0  0  0  0  0  0  0  0  0  0  0  0
   -0.3552   -1.1225    0.3257 C   0  0  0  0  0  0  0  0  0  0  0  0
   -1.6599   -0.6856    0.2818 C   0  0  0  0  0  0  0  0  0  0  0  0
   -1.9089    5.5243    0.2280 H   0  0  0  0  0  0  0  0  0  0  0  0
    1.2768    1.7133   -0.6658 H   0  0  0  0  0  0  0  0  0  0  0  0
    1.7120   -0.5847    0.0145 H   0  0  0  0  0  0  0  0  0  0  0  0
   -0.1248   -2.1397    0.6249 H   0  0  0  0  0  0  0  0  0  0  0  0
   -2.4997   -1.3260    0.5378 H   0  0  0  0  0  0  0  0  0  0  0  0
   -4.0026    5.4413    0.7028 S   0  0  0  0  0  0  0  0  0  0  0  0
   -4.7003    5.0292   -0.9774 C   0  0  0  0  0  0  0  0  0  0  0  0
   -3.6828    4.1776    1.3516 O   0  0  0  0  0  0  0  0  0  0  0  0
   -4.8543    6.4519    1.2934 O   0  0  0  0  0  0  0  0  0  0  0  0
   -2.6304    6.1782    0.2448 O   0  0  0  0  0  0  0  0  0  0  0  0
   -3.8222    4.2753   -1.6433 F   0  0  0  0  0  0  0  0  0  0  0  0
   -5.8319    4.3479   -0.8049 F   0  0  0  0  0  0  0  0  0  0  0  0
   -4.9423    6.1442   -1.6576 F   0  0  0  0  0  0  0  0  0  0  0  0
  1  8  2  0  0  0  0
  2  1  1  0  0  0  0
  3  2  1  0  0  0  0
  4  5  2  0  0  0  0
  4  1  1  0  0  0  0
  5  6  1  0  0  0  0
  6 11  1  0  0  0  0
  6  7  2  0  0  0  0
  7 12  1  0  0  0  0
  8  7  1  0  0  0  0
  8 13  1  0  0  0  0
  9 18  1  0  0  0  0
 10  5  1  0  0  0  0
 14 17  2  0  0  0  0
 14 16  2  0  0  0  0
 15 20  1  0  0  0  0
 15 14  1  0  0  0  0
 18 14  1  0  0  0  0
 19 15  1  0  0  0  0
 21 15  1  0  0  0  0
M  RAD  3   2   2   3   3   4   2
M  END
