Coordinates from ORCA-job PhN2+~TfO-_B3LYPG-6-31G_dp-CH-Scan-d09-49-n800
 OpenBabel11261919123D

 21 20  0  0  0  0  0  0  0  0999 V2000
   -1.8271    0.6698   -0.1181 C   0  0  0  0  0  0  0  0  0  0  0  0
   -3.1359    1.1452   -0.1828 N   0  0  0  0  0  0  0  0  0  0  0  0
   -4.1561    1.5965   -0.2720 N   0  0  0  0  0  0  0  0  0  0  0  0
   -0.8910    1.6525   -0.4736 C   0  0  0  0  0  0  0  0  0  0  0  0
    0.4184    1.0942   -0.4000 C   0  0  0  0  0  0  0  0  0  0  0  0
    0.6832   -0.2184   -0.0229 C   0  0  0  0  0  0  0  0  0  0  0  0
   -0.3555   -1.1204    0.3195 C   0  0  0  0  0  0  0  0  0  0  0  0
   -1.6610   -0.6857    0.2765 C   0  0  0  0  0  0  0  0  0  0  0  0
   -1.9037    5.5064    0.2160 H   0  0  0  0  0  0  0  0  0  0  0  0
    1.2724    1.7254   -0.6497 H   0  0  0  0  0  0  0  0  0  0  0  0
    1.7111   -0.5762    0.0156 H   0  0  0  0  0  0  0  0  0  0  0  0
   -0.1236   -2.1391    0.6122 H   0  0  0  0  0  0  0  0  0  0  0  0
   -2.4999   -1.3296    0.5266 H   0  0  0  0  0  0  0  0  0  0  0  0
   -3.9958    5.4388    0.7002 S   0  0  0  0  0  0  0  0  0  0  0  0
   -4.7012    5.0268   -0.9769 C   0  0  0  0  0  0  0  0  0  0  0  0
   -3.6830    4.1746    1.3513 O   0  0  0  0  0  0  0  0  0  0  0  0
   -4.8390    6.4567    1.2904 O   0  0  0  0  0  0  0  0  0  0  0  0
   -2.6203    6.1655    0.2362 O   0  0  0  0  0  0  0  0  0  0  0  0
   -3.8282    4.2689   -1.6451 F   0  0  0  0  0  0  0  0  0  0  0  0
   -5.8345    4.3495   -0.7993 F   0  0  0  0  0  0  0  0  0  0  0  0
   -4.9419    6.1416   -1.6579 F   0  0  0  0  0  0  0  0  0  0  0  0
  1  8  2  0  0  0  0
  2  1  1  0  0  0  0
  3  2  1  0  0  0  0
  4  5  2  0  0  0  0
  4  1  1  0  0  0  0
  5  6  1  0  0  0  0
  6 11  1  0  0  0  0
  6  7  2  0  0  0  0
  7 12  1  0  0  0  0
  8  7  1  0  0  0  0
  8 13  1  0  0  0  0
  9 18  1  0  0  0  0
 10  5  1  0  0  0  0
 14 17  2  0  0  0  0
 14 16  2  0  0  0  0
 15 20  1  0  0  0  0
 15 14  1  0  0  0  0
 18 14  1  0  0  0  0
 19 15  1  0  0  0  0
 21 15  1  0  0  0  0
M  RAD  3   2   2   3   3   4   2
M  END
