Coordinates from ORCA-job PhN2+~TfO-_B3LYPG-6-31G_dp-CH-Scan-d09-49-n800
 OpenBabel11261919123D

 21 20  0  0  0  0  0  0  0  0999 V2000
   -1.8148    0.6513    0.0495 C   0  0  0  0  0  0  0  0  0  0  0  0
   -3.1390    1.0758    0.0987 N   0  0  0  0  0  0  0  0  0  0  0  0
   -4.1836    1.4763    0.1183 N   0  0  0  0  0  0  0  0  0  0  0  0
   -0.9106    1.7104   -0.1357 C   0  0  0  0  0  0  0  0  0  0  0  0
    0.4149    1.1919   -0.1870 C   0  0  0  0  0  0  0  0  0  0  0  0
    0.7259   -0.1586   -0.0647 C   0  0  0  0  0  0  0  0  0  0  0  0
   -0.2784   -1.1407    0.1218 C   0  0  0  0  0  0  0  0  0  0  0  0
   -1.5962   -0.7479    0.1828 C   0  0  0  0  0  0  0  0  0  0  0  0
   -1.9381    5.0437    0.1301 H   0  0  0  0  0  0  0  0  0  0  0  0
    1.2436    1.8864   -0.3290 H   0  0  0  0  0  0  0  0  0  0  0  0
    1.7640   -0.4837   -0.1114 H   0  0  0  0  0  0  0  0  0  0  0  0
   -0.0116   -2.1883    0.2164 H   0  0  0  0  0  0  0  0  0  0  0  0
   -2.4098   -1.4544    0.3240 H   0  0  0  0  0  0  0  0  0  0  0  0
   -3.9835    5.4897    0.6112 S   0  0  0  0  0  0  0  0  0  0  0  0
   -4.7979    5.1197   -1.0251 C   0  0  0  0  0  0  0  0  0  0  0  0
   -3.9602    4.2412    1.3611 O   0  0  0  0  0  0  0  0  0  0  0  0
   -4.5659    6.7145    1.1176 O   0  0  0  0  0  0  0  0  0  0  0  0
   -2.4920    5.8449    0.0905 O   0  0  0  0  0  0  0  0  0  0  0  0
   -4.1961    4.0666   -1.5872 F   0  0  0  0  0  0  0  0  0  0  0  0
   -6.0792    4.8329   -0.8032 F   0  0  0  0  0  0  0  0  0  0  0  0
   -4.7042    6.1710   -1.8324 F   0  0  0  0  0  0  0  0  0  0  0  0
  1  2  1  0  0  0  0
  1  8  2  0  0  0  0
  2  3  1  0  0  0  0
  4  1  1  0  0  0  0
  5  4  2  0  0  0  0
  5  6  1  0  0  0  0
  6  7  2  0  0  0  0
  7  8  1  0  0  0  0
  7 12  1  0  0  0  0
  8 13  1  0  0  0  0
 10  5  1  0  0  0  0
 11  6  1  0  0  0  0
 14 17  2  0  0  0  0
 14 16  2  0  0  0  0
 15 20  1  0  0  0  0
 15 14  1  0  0  0  0
 18  9  1  0  0  0  0
 18 14  1  0  0  0  0
 19 15  1  0  0  0  0
 21 15  1  0  0  0  0
M  RAD  3   2   2   3   3   4   2
M  END
