Coordinates from ORCA-job PhN2+~TfO-_B3LYPG-6-31G_dp-CH-Scan-d09-49-n800
 OpenBabel11261919123D

 21 20  0  0  0  0  0  0  0  0999 V2000
   -1.7635    0.6201    0.0001 C   0  0  0  0  0  0  0  0  0  0  0  0
   -3.0748    1.0892    0.0202 N   0  0  0  0  0  0  0  0  0  0  0  0
   -4.1041    1.5287    0.0125 N   0  0  0  0  0  0  0  0  0  0  0  0
   -0.8324    1.6447   -0.2334 C   0  0  0  0  0  0  0  0  0  0  0  0
    0.4787    1.0865   -0.2506 C   0  0  0  0  0  0  0  0  0  0  0  0
    0.7514   -0.2637   -0.0558 C   0  0  0  0  0  0  0  0  0  0  0  0
   -0.2808   -1.2074    0.1751 C   0  0  0  0  0  0  0  0  0  0  0  0
   -1.5875   -0.7759    0.2071 C   0  0  0  0  0  0  0  0  0  0  0  0
   -1.9699    5.3345    0.1840 H   0  0  0  0  0  0  0  0  0  0  0  0
    1.3279    1.7489   -0.4237 H   0  0  0  0  0  0  0  0  0  0  0  0
    1.7804   -0.6194   -0.0784 H   0  0  0  0  0  0  0  0  0  0  0  0
   -0.0432   -2.2554    0.3260 H   0  0  0  0  0  0  0  0  0  0  0  0
   -2.4215   -1.4512    0.3792 H   0  0  0  0  0  0  0  0  0  0  0  0
   -4.0576    5.5540    0.6359 S   0  0  0  0  0  0  0  0  0  0  0  0
   -4.8241    5.1385   -1.0128 C   0  0  0  0  0  0  0  0  0  0  0  0
   -3.9021    4.3008    1.3611 O   0  0  0  0  0  0  0  0  0  0  0  0
   -4.7630    6.7026    1.1638 O   0  0  0  0  0  0  0  0  0  0  0  0
   -2.6058    6.0700    0.1279 O   0  0  0  0  0  0  0  0  0  0  0  0
   -4.1219    4.1590   -1.5893 F   0  0  0  0  0  0  0  0  0  0  0  0
   -6.0731    4.7280   -0.8039 F   0  0  0  0  0  0  0  0  0  0  0  0
   -4.8260    6.2102   -1.7984 F   0  0  0  0  0  0  0  0  0  0  0  0
  1  2  1  0  0  0  0
  1  8  2  0  0  0  0
  3  2  1  0  0  0  0
  4  1  1  0  0  0  0
  5  4  2  0  0  0  0
  5  6  1  0  0  0  0
  6  7  2  0  0  0  0
  7  8  1  0  0  0  0
  7 12  1  0  0  0  0
  8 13  1  0  0  0  0
 10  5  1  0  0  0  0
 11  6  1  0  0  0  0
 14 17  2  0  0  0  0
 14 16  2  0  0  0  0
 15 20  1  0  0  0  0
 15 14  1  0  0  0  0
 18  9  1  0  0  0  0
 18 14  1  0  0  0  0
 19 15  1  0  0  0  0
 21 15  1  0  0  0  0
M  RAD  3   2   2   3   3   4   2
M  END
