Coordinates from ORCA-job PhN2+~TfO-_B3LYPG-6-31G_dp-CH-Scan-d09-49-n800
 OpenBabel11261919123D

 21 20  0  0  0  0  0  0  0  0999 V2000
   -1.8647    0.6883    0.0672 C   0  0  0  0  0  0  0  0  0  0  0  0
   -3.1985    1.0758    0.1262 N   0  0  0  0  0  0  0  0  0  0  0  0
   -4.2552    1.4413    0.1570 N   0  0  0  0  0  0  0  0  0  0  0  0
   -0.9808    1.7689   -0.0957 C   0  0  0  0  0  0  0  0  0  0  0  0
    0.3554    1.2832   -0.1562 C   0  0  0  0  0  0  0  0  0  0  0  0
    0.6965   -0.0626   -0.0625 C   0  0  0  0  0  0  0  0  0  0  0  0
   -0.2857   -1.0697    0.1021 C   0  0  0  0  0  0  0  0  0  0  0  0
   -1.6120   -0.7078    0.1707 C   0  0  0  0  0  0  0  0  0  0  0  0
   -1.9145    4.8011    0.0858 H   0  0  0  0  0  0  0  0  0  0  0  0
    1.1675    1.9995   -0.2823 H   0  0  0  0  0  0  0  0  0  0  0  0
    1.7416   -0.3630   -0.1154 H   0  0  0  0  0  0  0  0  0  0  0  0
    0.0038   -2.1131    0.1742 H   0  0  0  0  0  0  0  0  0  0  0  0
   -2.4092   -1.4354    0.2965 H   0  0  0  0  0  0  0  0  0  0  0  0
   -3.9088    5.4148    0.5995 S   0  0  0  0  0  0  0  0  0  0  0  0
   -4.7636    5.0928   -1.0259 C   0  0  0  0  0  0  0  0  0  0  0  0
   -3.9837    4.1750    1.3612 O   0  0  0  0  0  0  0  0  0  0  0  0
   -4.3918    6.6853    1.0987 O   0  0  0  0  0  0  0  0  0  0  0  0
   -2.4018    5.6475    0.0661 O   0  0  0  0  0  0  0  0  0  0  0  0
   -4.2355    4.0014   -1.5911 F   0  0  0  0  0  0  0  0  0  0  0  0
   -6.0583    4.8872   -0.7902 F   0  0  0  0  0  0  0  0  0  0  0  0
   -4.6135    6.1324   -1.8398 F   0  0  0  0  0  0  0  0  0  0  0  0
  1  2  1  0  0  0  0
  1  8  2  0  0  0  0
  2  3  1  0  0  0  0
  4  1  1  0  0  0  0
  5  4  2  0  0  0  0
  5  6  1  0  0  0  0
  6  7  2  0  0  0  0
  7  8  1  0  0  0  0
  7 12  1  0  0  0  0
  8 13  1  0  0  0  0
 10  5  1  0  0  0  0
 11  6  1  0  0  0  0
 14 17  2  0  0  0  0
 14 16  2  0  0  0  0
 15 20  1  0  0  0  0
 15 14  1  0  0  0  0
 18  9  1  0  0  0  0
 18 14  1  0  0  0  0
 19 15  1  0  0  0  0
 21 15  1  0  0  0  0
M  RAD  3   2   2   3   3   4   2
M  END
