Coordinates from ORCA-job PhN2+~TfO-_B3LYPG-6-31G_dp-CH-Scan-d09-49-n800
 OpenBabel11261919123D

 21 20  0  0  0  0  0  0  0  0999 V2000
   -1.7401    0.6238   -0.1922 C   0  0  0  0  0  0  0  0  0  0  0  0
   -3.0236    1.1631   -0.2831 N   0  0  0  0  0  0  0  0  0  0  0  0
   -4.0184    1.6625   -0.4023 N   0  0  0  0  0  0  0  0  0  0  0  0
   -0.7707    1.5012   -0.6981 C   0  0  0  0  0  0  0  0  0  0  0  0
    0.5119    0.8883   -0.5887 C   0  0  0  0  0  0  0  0  0  0  0  0
    0.7232   -0.3791   -0.0559 C   0  0  0  0  0  0  0  0  0  0  0  0
   -0.3473   -1.1737    0.4278 C   0  0  0  0  0  0  0  0  0  0  0  0
   -1.6302   -0.6779    0.3682 C   0  0  0  0  0  0  0  0  0  0  0  0
   -2.0499    5.8723    0.4411 H   0  0  0  0  0  0  0  0  0  0  0  0
    1.3871    1.4366   -0.9401 H   0  0  0  0  0  0  0  0  0  0  0  0
    1.7323   -0.7853   -0.0021 H   0  0  0  0  0  0  0  0  0  0  0  0
   -0.1567   -2.1595    0.8387 H   0  0  0  0  0  0  0  0  0  0  0  0
   -2.4910   -1.2384    0.7225 H   0  0  0  0  0  0  0  0  0  0  0  0
   -4.1422    5.5097    0.7488 S   0  0  0  0  0  0  0  0  0  0  0  0
   -4.7048    5.0861   -0.9791 C   0  0  0  0  0  0  0  0  0  0  0  0
   -3.6899    4.2730    1.3708 O   0  0  0  0  0  0  0  0  0  0  0  0
   -5.1405    6.3818    1.3303 O   0  0  0  0  0  0  0  0  0  0  0  0
   -2.8492    6.4247    0.3818 O   0  0  0  0  0  0  0  0  0  0  0  0
   -3.7275    4.4317   -1.6091 F   0  0  0  0  0  0  0  0  0  0  0  0
   -5.7802    4.3055   -0.8892 F   0  0  0  0  0  0  0  0  0  0  0  0
   -5.0054    6.1964   -1.6437 F   0  0  0  0  0  0  0  0  0  0  0  0
  1  8  2  0  0  0  0
  2  1  1  0  0  0  0
  3  2  1  0  0  0  0
  4  5  2  0  0  0  0
  4  1  1  0  0  0  0
  5  6  1  0  0  0  0
  6 11  1  0  0  0  0
  6  7  2  0  0  0  0
  7 12  1  0  0  0  0
  8  7  1  0  0  0  0
  8 13  1  0  0  0  0
 10  5  1  0  0  0  0
 14 17  2  0  0  0  0
 14 16  2  0  0  0  0
 15 20  1  0  0  0  0
 15 14  1  0  0  0  0
 18  9  1  0  0  0  0
 18 14  1  0  0  0  0
 19 15  1  0  0  0  0
 21 15  1  0  0  0  0
M  RAD  3   2   2   3   3   4   2
M  END
