Coordinates from ORCA-job PhN2+~TfO-_B3LYPG-6-31G_dp-CH-Scan-d09-49-n800
 OpenBabel11261919123D

 21 20  0  0  0  0  0  0  0  0999 V2000
   -1.8340    0.6750   -0.1110 C   0  0  0  0  0  0  0  0  0  0  0  0
   -3.1445    1.1454   -0.1730 N   0  0  0  0  0  0  0  0  0  0  0  0
   -4.1667    1.5926   -0.2587 N   0  0  0  0  0  0  0  0  0  0  0  0
   -0.9003    1.6658   -0.4506 C   0  0  0  0  0  0  0  0  0  0  0  0
    0.4109    1.1116   -0.3802 C   0  0  0  0  0  0  0  0  0  0  0  0
    0.6797   -0.2048   -0.0192 C   0  0  0  0  0  0  0  0  0  0  0  0
   -0.3565   -1.1151    0.3080 C   0  0  0  0  0  0  0  0  0  0  0  0
   -1.6635   -0.6849    0.2664 C   0  0  0  0  0  0  0  0  0  0  0  0
   -1.8933    5.4699    0.1926 H   0  0  0  0  0  0  0  0  0  0  0  0
    1.2632    1.7492   -0.6190 H   0  0  0  0  0  0  0  0  0  0  0  0
    1.7089   -0.5590    0.0181 H   0  0  0  0  0  0  0  0  0  0  0  0
   -0.1216   -2.1367    0.5883 H   0  0  0  0  0  0  0  0  0  0  0  0
   -2.5007   -1.3353    0.5054 H   0  0  0  0  0  0  0  0  0  0  0  0
   -3.9819    5.4326    0.6951 S   0  0  0  0  0  0  0  0  0  0  0  0
   -4.7024    5.0215   -0.9758 C   0  0  0  0  0  0  0  0  0  0  0  0
   -3.6826    4.1674    1.3506 O   0  0  0  0  0  0  0  0  0  0  0  0
   -4.8085    6.4642    1.2851 O   0  0  0  0  0  0  0  0  0  0  0  0
   -2.6003    6.1391    0.2198 O   0  0  0  0  0  0  0  0  0  0  0  0
   -3.8392    4.2564   -1.6490 F   0  0  0  0  0  0  0  0  0  0  0  0
   -5.8387    4.3518   -0.7886 F   0  0  0  0  0  0  0  0  0  0  0  0
   -4.9409    6.1362   -1.6577 F   0  0  0  0  0  0  0  0  0  0  0  0
  1  8  2  0  0  0  0
  2  1  1  0  0  0  0
  3  2  1  0  0  0  0
  4  5  2  0  0  0  0
  4  1  1  0  0  0  0
  5  6  1  0  0  0  0
  6 11  1  0  0  0  0
  6  7  2  0  0  0  0
  7 12  1  0  0  0  0
  8  7  1  0  0  0  0
  8 13  1  0  0  0  0
  9 18  1  0  0  0  0
 10  5  1  0  0  0  0
 14 17  2  0  0  0  0
 14 16  2  0  0  0  0
 15 20  1  0  0  0  0
 15 14  1  0  0  0  0
 18 14  1  0  0  0  0
 19 15  1  0  0  0  0
 21 15  1  0  0  0  0
M  RAD  3   2   2   3   3   4   2
M  END
