Coordinates from ORCA-job PhN2+~TfO-_B3LYPG-6-31G_dp-CH-Scan-d09-49-n800
 OpenBabel11261919123D

 21 20  0  0  0  0  0  0  0  0999 V2000
   -1.7444    0.6255   -0.1897 C   0  0  0  0  0  0  0  0  0  0  0  0
   -3.0291    1.1618   -0.2798 N   0  0  0  0  0  0  0  0  0  0  0  0
   -4.0251    1.6591   -0.3982 N   0  0  0  0  0  0  0  0  0  0  0  0
   -0.7766    1.5073   -0.6910 C   0  0  0  0  0  0  0  0  0  0  0  0
    0.5074    0.8972   -0.5829 C   0  0  0  0  0  0  0  0  0  0  0  0
    0.7212   -0.3719   -0.0549 C   0  0  0  0  0  0  0  0  0  0  0  0
   -0.3477   -1.1710    0.4246 C   0  0  0  0  0  0  0  0  0  0  0  0
   -1.6318   -0.6782    0.3655 C   0  0  0  0  0  0  0  0  0  0  0  0
   -2.0429    5.8589    0.4344 H   0  0  0  0  0  0  0  0  0  0  0  0
    1.3816    1.4490   -0.9311 H   0  0  0  0  0  0  0  0  0  0  0  0
    1.7314   -0.7757   -0.0015 H   0  0  0  0  0  0  0  0  0  0  0  0
   -0.1551   -2.1580    0.8318 H   0  0  0  0  0  0  0  0  0  0  0  0
   -2.4916   -1.2422    0.7167 H   0  0  0  0  0  0  0  0  0  0  0  0
   -4.1363    5.5062    0.7472 S   0  0  0  0  0  0  0  0  0  0  0  0
   -4.7034    5.0832   -0.9794 C   0  0  0  0  0  0  0  0  0  0  0  0
   -3.6888    4.2679    1.3698 O   0  0  0  0  0  0  0  0  0  0  0  0
   -5.1296    6.3834    1.3293 O   0  0  0  0  0  0  0  0  0  0  0  0
   -2.8398    6.4150    0.3775 O   0  0  0  0  0  0  0  0  0  0  0  0
   -3.7297    4.4243   -1.6104 F   0  0  0  0  0  0  0  0  0  0  0  0
   -5.7816    4.3069   -0.8869 F   0  0  0  0  0  0  0  0  0  0  0  0
   -5.0008    6.1941   -1.6445 F   0  0  0  0  0  0  0  0  0  0  0  0
  1  8  2  0  0  0  0
  2  1  1  0  0  0  0
  3  2  1  0  0  0  0
  4  5  2  0  0  0  0
  4  1  1  0  0  0  0
  5  6  1  0  0  0  0
  6 11  1  0  0  0  0
  6  7  2  0  0  0  0
  7 12  1  0  0  0  0
  8  7  1  0  0  0  0
  8 13  1  0  0  0  0
 10  5  1  0  0  0  0
 14 17  2  0  0  0  0
 14 16  2  0  0  0  0
 15 20  1  0  0  0  0
 15 14  1  0  0  0  0
 18  9  1  0  0  0  0
 18 14  1  0  0  0  0
 19 15  1  0  0  0  0
 21 15  1  0  0  0  0
M  RAD  3   2   2   3   3   4   2
M  END
