Coordinates from ORCA-job PhN2+~TfO-_B3LYPG-6-31G_dp-CH-Scan-d09-49-n800
 OpenBabel11261919123D

 21 20  0  0  0  0  0  0  0  0999 V2000
   -2.0878    0.8691    0.0790 C   0  0  0  0  0  0  0  0  0  0  0  0
   -3.4539    1.0960    0.1220 N   0  0  0  0  0  0  0  0  0  0  0  0
   -4.5468    1.3194    0.1484 N   0  0  0  0  0  0  0  0  0  0  0  0
   -1.2876    2.0192   -0.0619 C   0  0  0  0  0  0  0  0  0  0  0  0
    0.0852    1.6848   -0.1036 C   0  0  0  0  0  0  0  0  0  0  0  0
    0.5574    0.3770   -0.0144 C   0  0  0  0  0  0  0  0  0  0  0  0
   -0.3237   -0.7171    0.1254 C   0  0  0  0  0  0  0  0  0  0  0  0
   -1.6818   -0.4875    0.1744 C   0  0  0  0  0  0  0  0  0  0  0  0
   -1.8578    3.6850   -0.0983 H   0  0  0  0  0  0  0  0  0  0  0  0
    0.8125    2.4874   -0.2087 H   0  0  0  0  0  0  0  0  0  0  0  0
    1.6273    0.1846   -0.0522 H   0  0  0  0  0  0  0  0  0  0  0  0
    0.0615   -1.7288    0.1947 H   0  0  0  0  0  0  0  0  0  0  0  0
   -2.4021   -1.2926    0.2819 H   0  0  0  0  0  0  0  0  0  0  0  0
   -3.5270    4.9926    0.5328 S   0  0  0  0  0  0  0  0  0  0  0  0
   -4.6022    5.0002   -0.9844 C   0  0  0  0  0  0  0  0  0  0  0  0
   -3.9780    3.8365    1.3130 O   0  0  0  0  0  0  0  0  0  0  0  0
   -3.5740    6.3365    1.0823 O   0  0  0  0  0  0  0  0  0  0  0  0
   -2.1283    4.7179   -0.1225 O   0  0  0  0  0  0  0  0  0  0  0  0
   -4.5295    3.7979   -1.5856 F   0  0  0  0  0  0  0  0  0  0  0  0
   -5.8690    5.2275   -0.6319 F   0  0  0  0  0  0  0  0  0  0  0  0
   -4.2072    5.9371   -1.8442 F   0  0  0  0  0  0  0  0  0  0  0  0
  1  2  1  0  0  0  0
  1  8  2  0  0  0  0
  2  3  1  0  0  0  0
  4  1  1  0  0  0  0
  5  4  2  0  0  0  0
  5  6  1  0  0  0  0
  6  7  2  0  0  0  0
  7  8  1  0  0  0  0
  7 12  1  0  0  0  0
  8 13  1  0  0  0  0
 10  5  1  0  0  0  0
 11  6  1  0  0  0  0
 14 17  2  0  0  0  0
 14 16  2  0  0  0  0
 15 20  1  0  0  0  0
 15 14  1  0  0  0  0
 18  9  1  0  0  0  0
 18 14  1  0  0  0  0
 19 15  1  0  0  0  0
 21 15  1  0  0  0  0
M  RAD  3   2   2   3   3   4   2
M  END
