Coordinates from ORCA-job PhN2+~TfO-_B3LYPG-6-31G_dp-CH-Scan-d09-49-n800
 OpenBabel11261919123D

 21 20  0  0  0  0  0  0  0  0999 V2000
   -2.0899    0.8726    0.0769 C   0  0  0  0  0  0  0  0  0  0  0  0
   -3.4562    1.0987    0.1170 N   0  0  0  0  0  0  0  0  0  0  0  0
   -4.5492    1.3211    0.1413 N   0  0  0  0  0  0  0  0  0  0  0  0
   -1.2891    2.0224   -0.0636 C   0  0  0  0  0  0  0  0  0  0  0  0
    0.0837    1.6892   -0.1025 C   0  0  0  0  0  0  0  0  0  0  0  0
    0.5562    0.3816   -0.0112 C   0  0  0  0  0  0  0  0  0  0  0  0
   -0.3248   -0.7125    0.1281 C   0  0  0  0  0  0  0  0  0  0  0  0
   -1.6831   -0.4834    0.1744 C   0  0  0  0  0  0  0  0  0  0  0  0
   -1.8546    3.6686   -0.1034 H   0  0  0  0  0  0  0  0  0  0  0  0
    0.8104    2.4924   -0.2069 H   0  0  0  0  0  0  0  0  0  0  0  0
    1.6263    0.1896   -0.0467 H   0  0  0  0  0  0  0  0  0  0  0  0
    0.0606   -1.7240    0.1991 H   0  0  0  0  0  0  0  0  0  0  0  0
   -2.4032   -1.2887    0.2813 H   0  0  0  0  0  0  0  0  0  0  0  0
   -3.5207    4.9860    0.5307 S   0  0  0  0  0  0  0  0  0  0  0  0
   -4.6026    4.9994   -0.9815 C   0  0  0  0  0  0  0  0  0  0  0  0
   -3.9734    3.8302    1.3110 O   0  0  0  0  0  0  0  0  0  0  0  0
   -3.5631    6.3290    1.0835 O   0  0  0  0  0  0  0  0  0  0  0  0
   -2.1273    4.7068   -0.1303 O   0  0  0  0  0  0  0  0  0  0  0  0
   -4.5374    3.7973   -1.5844 F   0  0  0  0  0  0  0  0  0  0  0  0
   -5.8672    5.2311   -0.6237 F   0  0  0  0  0  0  0  0  0  0  0  0
   -4.2081    5.9354   -1.8426 F   0  0  0  0  0  0  0  0  0  0  0  0
  1  2  1  0  0  0  0
  1  8  2  0  0  0  0
  2  3  1  0  0  0  0
  4  1  1  0  0  0  0
  5  4  2  0  0  0  0
  5  6  1  0  0  0  0
  6  7  2  0  0  0  0
  7  8  1  0  0  0  0
  7 12  1  0  0  0  0
  8 13  1  0  0  0  0
 10  5  1  0  0  0  0
 11  6  1  0  0  0  0
 14 17  2  0  0  0  0
 14 16  2  0  0  0  0
 15 20  1  0  0  0  0
 15 14  1  0  0  0  0
 18  9  1  0  0  0  0
 18 14  1  0  0  0  0
 19 15  1  0  0  0  0
 21 15  1  0  0  0  0
M  RAD  3   2   2   3   3   4   2
M  END
