Coordinates from ORCA-job PhN2+~TfO-_B3LYPG-6-31G_dp-CH-Scan-d09-49-n800
 OpenBabel11261919123D

 21 20  0  0  0  0  0  0  0  0999 V2000
   -1.8133    0.6504    0.0487 C   0  0  0  0  0  0  0  0  0  0  0  0
   -3.1373    1.0761    0.0975 N   0  0  0  0  0  0  0  0  0  0  0  0
   -4.1815    1.4776    0.1168 N   0  0  0  0  0  0  0  0  0  0  0  0
   -0.9085    1.7087   -0.1374 C   0  0  0  0  0  0  0  0  0  0  0  0
    0.4166    1.1892   -0.1883 C   0  0  0  0  0  0  0  0  0  0  0  0
    0.7266   -0.1615   -0.0647 C   0  0  0  0  0  0  0  0  0  0  0  0
   -0.2784   -1.1426    0.1226 C   0  0  0  0  0  0  0  0  0  0  0  0
   -1.5959   -0.7489    0.1833 C   0  0  0  0  0  0  0  0  0  0  0  0
   -1.9388    5.0514    0.1317 H   0  0  0  0  0  0  0  0  0  0  0  0
    1.2459    1.8829   -0.3309 H   0  0  0  0  0  0  0  0  0  0  0  0
    1.7646   -0.4873   -0.1111 H   0  0  0  0  0  0  0  0  0  0  0  0
   -0.0123   -2.1904    0.2182 H   0  0  0  0  0  0  0  0  0  0  0  0
   -2.4100   -1.4547    0.3251 H   0  0  0  0  0  0  0  0  0  0  0  0
   -3.9857    5.4917    0.6116 S   0  0  0  0  0  0  0  0  0  0  0  0
   -4.7987    5.1202   -1.0250 C   0  0  0  0  0  0  0  0  0  0  0  0
   -3.9592    4.2431    1.3613 O   0  0  0  0  0  0  0  0  0  0  0  0
   -4.5714    6.7149    1.1183 O   0  0  0  0  0  0  0  0  0  0  0  0
   -2.4949    5.8511    0.0915 O   0  0  0  0  0  0  0  0  0  0  0  0
   -4.1943    4.0686   -1.5871 F   0  0  0  0  0  0  0  0  0  0  0  0
   -6.0794    4.8305   -0.8036 F   0  0  0  0  0  0  0  0  0  0  0  0
   -4.7070    6.1719   -1.8320 F   0  0  0  0  0  0  0  0  0  0  0  0
  1  2  1  0  0  0  0
  1  8  2  0  0  0  0
  2  3  1  0  0  0  0
  4  1  1  0  0  0  0
  5  4  2  0  0  0  0
  5  6  1  0  0  0  0
  6  7  2  0  0  0  0
  7  8  1  0  0  0  0
  7 12  1  0  0  0  0
  8 13  1  0  0  0  0
 10  5  1  0  0  0  0
 11  6  1  0  0  0  0
 14 17  2  0  0  0  0
 14 16  2  0  0  0  0
 15 20  1  0  0  0  0
 15 14  1  0  0  0  0
 18  9  1  0  0  0  0
 18 14  1  0  0  0  0
 19 15  1  0  0  0  0
 21 15  1  0  0  0  0
M  RAD  3   2   2   3   3   4   2
M  END
