Coordinates from ORCA-job PhN2+~TfO-_B3LYPG-6-31G_dp-CH-Scan-d09-49-n800
 OpenBabel11261919123D

 21 20  0  0  0  0  0  0  0  0999 V2000
   -1.9918    0.9067    0.0313 C   0  0  0  0  0  0  0  0  0  0  0  0
   -3.3404    1.2257   -0.0204 N   0  0  0  0  0  0  0  0  0  0  0  0
   -4.3702    1.6636    0.0001 N   0  0  0  0  0  0  0  0  0  0  0  0
   -1.0838    1.9738   -0.0508 C   0  0  0  0  0  0  0  0  0  0  0  0
    0.2666    1.6324    0.0093 C   0  0  0  0  0  0  0  0  0  0  0  0
    0.6627    0.2991    0.1469 C   0  0  0  0  0  0  0  0  0  0  0  0
   -0.2803   -0.7385    0.2203 C   0  0  0  0  0  0  0  0  0  0  0  0
   -1.6339   -0.4487    0.1563 C   0  0  0  0  0  0  0  0  0  0  0  0
   -1.5400    3.1610   -0.1988 H   0  0  0  0  0  0  0  0  0  0  0  0
    1.0128    2.4178   -0.0512 H   0  0  0  0  0  0  0  0  0  0  0  0
    1.7204    0.0567    0.1961 H   0  0  0  0  0  0  0  0  0  0  0  0
    0.0457   -1.7675    0.3259 H   0  0  0  0  0  0  0  0  0  0  0  0
   -2.3915   -1.2228    0.2090 H   0  0  0  0  0  0  0  0  0  0  0  0
   -3.5350    4.8895    0.3208 S   0  0  0  0  0  0  0  0  0  0  0  0
   -4.8998    5.1840   -0.9032 C   0  0  0  0  0  0  0  0  0  0  0  0
   -4.0369    3.7169    1.1055 O   0  0  0  0  0  0  0  0  0  0  0  0
   -3.3924    6.1387    1.0688 O   0  0  0  0  0  0  0  0  0  0  0  0
   -2.3881    4.5209   -0.5738 O   0  0  0  0  0  0  0  0  0  0  0  0
   -5.1263    4.0572   -1.6126 F   0  0  0  0  0  0  0  0  0  0  0  0
   -6.0336    5.5162   -0.2758 F   0  0  0  0  0  0  0  0  0  0  0  0
   -4.5770    6.1600   -1.7575 F   0  0  0  0  0  0  0  0  0  0  0  0
  1  8  2  0  0  0  0
  2  3  1  0  0  0  0
  2  1  1  0  0  0  0
  4  5  2  0  0  0  0
  4  1  1  0  0  0  0
  5  6  1  0  0  0  0
  6 11  1  0  0  0  0
  6  7  2  0  0  0  0
  7 12  1  0  0  0  0
  8 13  1  0  0  0  0
  8  7  1  0  0  0  0
  9  4  1  0  0  0  0
 10  5  1  0  0  0  0
 14 17  2  0  0  0  0
 14 16  1  0  0  0  0
 15 20  1  0  0  0  0
 15 14  1  0  0  0  0
 18 14  2  0  0  0  0
 19 15  1  0  0  0  0
 21 15  1  0  0  0  0
M  RAD  3   2   2   3   3  16   2
M  END
