Coordinates from ORCA-job PhN2+~TfO-_B3LYPG-6-31G_dp-CH-Scan-d09-49-n800
 OpenBabel11261919123D

 21 20  0  0  0  0  0  0  0  0999 V2000
   -1.9209    1.1526   -0.4143 C   0  0  0  0  0  0  0  0  0  0  0  0
   -3.1550    1.4864   -0.9561 N   0  0  0  0  0  0  0  0  0  0  0  0
   -4.1288    1.6097   -1.4780 N   0  0  0  0  0  0  0  0  0  0  0  0
   -0.8780    2.0872   -0.4742 C   0  0  0  0  0  0  0  0  0  0  0  0
    0.3523    1.6849    0.0305 C   0  0  0  0  0  0  0  0  0  0  0  0
    0.5124    0.4074    0.5788 C   0  0  0  0  0  0  0  0  0  0  0  0
   -0.5546   -0.4991    0.6281 C   0  0  0  0  0  0  0  0  0  0  0  0
   -1.7974   -0.1389    0.1252 C   0  0  0  0  0  0  0  0  0  0  0  0
   -1.1100    3.1303   -0.9000 H   0  0  0  0  0  0  0  0  0  0  0  0
    1.1857    2.3786    0.0100 H   0  0  0  0  0  0  0  0  0  0  0  0
    1.4778    0.1140    0.9790 H   0  0  0  0  0  0  0  0  0  0  0  0
   -0.4182   -1.4840    1.0606 H   0  0  0  0  0  0  0  0  0  0  0  0
   -2.6448   -0.8145    0.1510 H   0  0  0  0  0  0  0  0  0  0  0  0
   -3.3061    4.5552    0.1017 S   0  0  0  0  0  0  0  0  0  0  0  0
   -5.0574    5.0197   -0.3062 C   0  0  0  0  0  0  0  0  0  0  0  0
   -3.4667    3.2861    0.8727 O   0  0  0  0  0  0  0  0  0  0  0  0
   -2.7604    5.6996    0.8378 O   0  0  0  0  0  0  0  0  0  0  0  0
   -2.7219    4.2971   -1.2527 O   0  0  0  0  0  0  0  0  0  0  0  0
   -5.6593    4.0013   -0.9627 F   0  0  0  0  0  0  0  0  0  0  0  0
   -5.7603    5.2665    0.8060 F   0  0  0  0  0  0  0  0  0  0  0  0
   -5.1011    6.1026   -1.0908 F   0  0  0  0  0  0  0  0  0  0  0  0
  1  8  1  0  0  0  0
  2  1  1  0  0  0  0
  3  2  1  0  0  0  0
  4  1  2  0  0  0  0
  4  5  1  0  0  0  0
  5  6  2  0  0  0  0
  6  7  1  0  0  0  0
  6 11  1  0  0  0  0
  7 12  1  0  0  0  0
  8 13  1  0  0  0  0
  8  7  2  0  0  0  0
  9  4  1  0  0  0  0
 10  5  1  0  0  0  0
 14 17  2  0  0  0  0
 14 16  1  0  0  0  0
 15 14  1  0  0  0  0
 15 20  1  0  0  0  0
 18 14  2  0  0  0  0
 19 15  1  0  0  0  0
 21 15  1  0  0  0  0
M  RAD  3   2   2   3   3  16   2
M  END
