Coordinates from ORCA-job PhN2+~TfO-_B3LYPG-6-31G_dp-CH-Scan-d09-49-n800
 OpenBabel11261919123D

 21 20  0  0  0  0  0  0  0  0999 V2000
   -1.8212    0.6656   -0.1251 C   0  0  0  0  0  0  0  0  0  0  0  0
   -3.1282    1.1457   -0.1925 N   0  0  0  0  0  0  0  0  0  0  0  0
   -4.1465    1.6009   -0.2851 N   0  0  0  0  0  0  0  0  0  0  0  0
   -0.8828    1.6404   -0.4959 C   0  0  0  0  0  0  0  0  0  0  0  0
    0.4248    1.0783   -0.4191 C   0  0  0  0  0  0  0  0  0  0  0  0
    0.6860   -0.2304   -0.0262 C   0  0  0  0  0  0  0  0  0  0  0  0
   -0.3550   -1.1242    0.3309 C   0  0  0  0  0  0  0  0  0  0  0  0
   -1.6590   -0.6853    0.2863 C   0  0  0  0  0  0  0  0  0  0  0  0
   -1.9133    5.5392    0.2382 H   0  0  0  0  0  0  0  0  0  0  0  0
    1.2803    1.7031   -0.6794 H   0  0  0  0  0  0  0  0  0  0  0  0
    1.7126   -0.5916    0.0136 H   0  0  0  0  0  0  0  0  0  0  0  0
   -0.1259   -2.1400    0.6356 H   0  0  0  0  0  0  0  0  0  0  0  0
   -2.4995   -1.3228    0.5473 H   0  0  0  0  0  0  0  0  0  0  0  0
   -4.0081    5.4431    0.7051 S   0  0  0  0  0  0  0  0  0  0  0  0
   -4.6995    5.0312   -0.9778 C   0  0  0  0  0  0  0  0  0  0  0  0
   -3.6826    4.1798    1.3518 O   0  0  0  0  0  0  0  0  0  0  0  0
   -4.8669    6.4476    1.2958 O   0  0  0  0  0  0  0  0  0  0  0  0
   -2.6387    6.1887    0.2520 O   0  0  0  0  0  0  0  0  0  0  0  0
   -3.8171    4.2807   -1.6420 F   0  0  0  0  0  0  0  0  0  0  0  0
   -5.8296    4.3464   -0.8096 F   0  0  0  0  0  0  0  0  0  0  0  0
   -4.9426    6.1464   -1.6573 F   0  0  0  0  0  0  0  0  0  0  0  0
  1  8  2  0  0  0  0
  2  1  1  0  0  0  0
  3  2  1  0  0  0  0
  4  5  2  0  0  0  0
  4  1  1  0  0  0  0
  5  6  1  0  0  0  0
  6 11  1  0  0  0  0
  6  7  2  0  0  0  0
  7 12  1  0  0  0  0
  8  7  1  0  0  0  0
  8 13  1  0  0  0  0
  9 18  1  0  0  0  0
 10  5  1  0  0  0  0
 14 17  2  0  0  0  0
 14 16  2  0  0  0  0
 15 20  1  0  0  0  0
 15 14  1  0  0  0  0
 18 14  1  0  0  0  0
 19 15  1  0  0  0  0
 21 15  1  0  0  0  0
M  RAD  3   2   2   3   3   4   2
M  END
