Coordinates from ORCA-job PhN2+~TfO-_B3LYPG-6-31G_dp-CH-Scan-d09-49-n800
 OpenBabel11261919123D

 21 20  0  0  0  0  0  0  0  0999 V2000
   -1.8389    0.6790   -0.1068 C   0  0  0  0  0  0  0  0  0  0  0  0
   -3.1505    1.1462   -0.1674 N   0  0  0  0  0  0  0  0  0  0  0  0
   -4.1739    1.5911   -0.2512 N   0  0  0  0  0  0  0  0  0  0  0  0
   -0.9068    1.6746   -0.4371 C   0  0  0  0  0  0  0  0  0  0  0  0
    0.4056    1.1232   -0.3683 C   0  0  0  0  0  0  0  0  0  0  0  0
    0.6770   -0.1952   -0.0168 C   0  0  0  0  0  0  0  0  0  0  0  0
   -0.3575   -1.1105    0.3015 C   0  0  0  0  0  0  0  0  0  0  0  0
   -1.6655   -0.6833    0.2605 C   0  0  0  0  0  0  0  0  0  0  0  0
   -1.8863    5.4450    0.1778 H   0  0  0  0  0  0  0  0  0  0  0  0
    1.2567    1.7647   -0.6006 H   0  0  0  0  0  0  0  0  0  0  0  0
    1.7070   -0.5471    0.0199 H   0  0  0  0  0  0  0  0  0  0  0  0
   -0.1207   -2.1336    0.5745 H   0  0  0  0  0  0  0  0  0  0  0  0
   -2.5015   -1.3375    0.4929 H   0  0  0  0  0  0  0  0  0  0  0  0
   -3.9724    5.4269    0.6920 S   0  0  0  0  0  0  0  0  0  0  0  0
   -4.7024    5.0174   -0.9752 C   0  0  0  0  0  0  0  0  0  0  0  0
   -3.6817    4.1609    1.3498 O   0  0  0  0  0  0  0  0  0  0  0  0
   -4.7883    6.4668    1.2823 O   0  0  0  0  0  0  0  0  0  0  0  0
   -2.5869    6.1208    0.2099 O   0  0  0  0  0  0  0  0  0  0  0  0
   -3.8454    4.2484   -1.6521 F   0  0  0  0  0  0  0  0  0  0  0  0
   -5.8405    4.3523   -0.7824 F   0  0  0  0  0  0  0  0  0  0  0  0
   -4.9396    6.1326   -1.6569 F   0  0  0  0  0  0  0  0  0  0  0  0
  1  8  2  0  0  0  0
  2  1  1  0  0  0  0
  3  2  1  0  0  0  0
  4  5  2  0  0  0  0
  4  1  1  0  0  0  0
  5  6  1  0  0  0  0
  6 11  1  0  0  0  0
  6  7  2  0  0  0  0
  7 12  1  0  0  0  0
  8  7  1  0  0  0  0
  8 13  1  0  0  0  0
  9 18  1  0  0  0  0
 10  5  1  0  0  0  0
 14 17  2  0  0  0  0
 14 16  2  0  0  0  0
 15 20  1  0  0  0  0
 15 14  1  0  0  0  0
 18 14  1  0  0  0  0
 19 15  1  0  0  0  0
 21 15  1  0  0  0  0
M  RAD  3   2   2   3   3   4   2
M  END
