Coordinates from ORCA-job PhN2+~TfO-_B3LYPG-6-31G_dp-CH-Scan-d09-49-n800
 OpenBabel11261919123D

 21 20  0  0  0  0  0  0  0  0999 V2000
   -1.8162    0.6523    0.0502 C   0  0  0  0  0  0  0  0  0  0  0  0
   -3.1408    1.0756    0.0999 N   0  0  0  0  0  0  0  0  0  0  0  0
   -4.1858    1.4749    0.1199 N   0  0  0  0  0  0  0  0  0  0  0  0
   -0.9127    1.7121   -0.1340 C   0  0  0  0  0  0  0  0  0  0  0  0
    0.4131    1.1947   -0.1858 C   0  0  0  0  0  0  0  0  0  0  0  0
    0.7251   -0.1558   -0.0646 C   0  0  0  0  0  0  0  0  0  0  0  0
   -0.2784   -1.1387    0.1210 C   0  0  0  0  0  0  0  0  0  0  0  0
   -1.5965   -0.7469    0.1824 C   0  0  0  0  0  0  0  0  0  0  0  0
   -1.9373    5.0361    0.1286 H   0  0  0  0  0  0  0  0  0  0  0  0
    1.2414    1.8898   -0.3271 H   0  0  0  0  0  0  0  0  0  0  0  0
    1.7635   -0.4800   -0.1116 H   0  0  0  0  0  0  0  0  0  0  0  0
   -0.0109   -2.1862    0.2147 H   0  0  0  0  0  0  0  0  0  0  0  0
   -2.4096   -1.4541    0.3229 H   0  0  0  0  0  0  0  0  0  0  0  0
   -3.9813    5.4876    0.6107 S   0  0  0  0  0  0  0  0  0  0  0  0
   -4.7972    5.1192   -1.0252 C   0  0  0  0  0  0  0  0  0  0  0  0
   -3.9613    4.2393    1.3610 O   0  0  0  0  0  0  0  0  0  0  0  0
   -4.5604    6.7141    1.1169 O   0  0  0  0  0  0  0  0  0  0  0  0
   -2.4891    5.8388    0.0895 O   0  0  0  0  0  0  0  0  0  0  0  0
   -4.1979    4.0647   -1.5874 F   0  0  0  0  0  0  0  0  0  0  0  0
   -6.0790    4.8352   -0.8028 F   0  0  0  0  0  0  0  0  0  0  0  0
   -4.7015    6.1701   -1.8327 F   0  0  0  0  0  0  0  0  0  0  0  0
  1  2  1  0  0  0  0
  1  8  2  0  0  0  0
  2  3  1  0  0  0  0
  4  1  1  0  0  0  0
  5  4  2  0  0  0  0
  5  6  1  0  0  0  0
  6  7  2  0  0  0  0
  7  8  1  0  0  0  0
  7 12  1  0  0  0  0
  8 13  1  0  0  0  0
 10  5  1  0  0  0  0
 11  6  1  0  0  0  0
 14 17  2  0  0  0  0
 14 16  2  0  0  0  0
 15 20  1  0  0  0  0
 15 14  1  0  0  0  0
 18  9  1  0  0  0  0
 18 14  1  0  0  0  0
 19 15  1  0  0  0  0
 21 15  1  0  0  0  0
M  RAD  3   2   2   3   3   4   2
M  END
