Coordinates from ORCA-job PhN2+~TfO-_B3LYPG-6-31G_dp-CH-Scan-d09-49-n800
 OpenBabel11261919123D

 21 20  0  0  0  0  0  0  0  0999 V2000
   -1.7812    0.6420   -0.1660 C   0  0  0  0  0  0  0  0  0  0  0  0
   -3.0767    1.1526   -0.2483 N   0  0  0  0  0  0  0  0  0  0  0  0
   -4.0825    1.6315   -0.3582 N   0  0  0  0  0  0  0  0  0  0  0  0
   -0.8276    1.5635   -0.6216 C   0  0  0  0  0  0  0  0  0  0  0  0
    0.4679    0.9764   -0.5249 C   0  0  0  0  0  0  0  0  0  0  0  0
    0.7041   -0.3075   -0.0443 C   0  0  0  0  0  0  0  0  0  0  0  0
   -0.3517   -1.1472    0.3926 C   0  0  0  0  0  0  0  0  0  0  0  0
   -1.6455   -0.6797    0.3388 C   0  0  0  0  0  0  0  0  0  0  0  0
   -1.9819    5.7299    0.3647 H   0  0  0  0  0  0  0  0  0  0  0  0
    1.3333    1.5596   -0.8425 H   0  0  0  0  0  0  0  0  0  0  0  0
    1.7222   -0.6914    0.0040 H   0  0  0  0  0  0  0  0  0  0  0  0
   -0.1417   -2.1447    0.7640 H   0  0  0  0  0  0  0  0  0  0  0  0
   -2.4963   -1.2753    0.6587 H   0  0  0  0  0  0  0  0  0  0  0  0
   -4.0817    5.4736    0.7321 S   0  0  0  0  0  0  0  0  0  0  0  0
   -4.6942    5.0587   -0.9807 C   0  0  0  0  0  0  0  0  0  0  0  0
   -3.6818    4.2220    1.3599 O   0  0  0  0  0  0  0  0  0  0  0  0
   -5.0261    6.3997    1.3201 O   0  0  0  0  0  0  0  0  0  0  0  0
   -2.7538    6.3225    0.3352 O   0  0  0  0  0  0  0  0  0  0  0  0
   -3.7564    4.3602   -1.6237 F   0  0  0  0  0  0  0  0  0  0  0  0
   -5.7977    4.3221   -0.8632 F   0  0  0  0  0  0  0  0  0  0  0  0
   -4.9636    6.1742   -1.6501 F   0  0  0  0  0  0  0  0  0  0  0  0
  1  8  2  0  0  0  0
  2  1  1  0  0  0  0
  3  2  1  0  0  0  0
  4  5  2  0  0  0  0
  4  1  1  0  0  0  0
  5  6  1  0  0  0  0
  6 11  1  0  0  0  0
  6  7  2  0  0  0  0
  7 12  1  0  0  0  0
  8  7  1  0  0  0  0
  8 13  1  0  0  0  0
 10  5  1  0  0  0  0
 14 17  2  0  0  0  0
 14 16  2  0  0  0  0
 15 20  1  0  0  0  0
 15 14  1  0  0  0  0
 18  9  1  0  0  0  0
 18 14  1  0  0  0  0
 19 15  1  0  0  0  0
 21 15  1  0  0  0  0
M  RAD  3   2   2   3   3   4   2
M  END
