Coordinates from ORCA-job PhN2+~TfO-_B3LYPG-6-31G_dp-CH-Scan-d09-49-n800
 OpenBabel11261919123D

 21 20  0  0  0  0  0  0  0  0999 V2000
   -1.9520    0.7492    0.1285 C   0  0  0  0  0  0  0  0  0  0  0  0
   -3.2974    1.0722    0.2435 N   0  0  0  0  0  0  0  0  0  0  0  0
   -4.3694    1.3787    0.3240 N   0  0  0  0  0  0  0  0  0  0  0  0
   -1.1075    1.8653   -0.0131 C   0  0  0  0  0  0  0  0  0  0  0  0
    0.2423    1.4380   -0.1315 C   0  0  0  0  0  0  0  0  0  0  0  0
    0.6360    0.1031   -0.1079 C   0  0  0  0  0  0  0  0  0  0  0  0
   -0.3030   -0.9455    0.0397 C   0  0  0  0  0  0  0  0  0  0  0  0
   -1.6392   -0.6377    0.1627 C   0  0  0  0  0  0  0  0  0  0  0  0
   -1.9041    4.4234    0.1134 H   0  0  0  0  0  0  0  0  0  0  0  0
    1.0209    2.1912   -0.2481 H   0  0  0  0  0  0  0  0  0  0  0  0
    1.6893   -0.1537   -0.2051 H   0  0  0  0  0  0  0  0  0  0  0  0
    0.0257   -1.9794    0.0563 H   0  0  0  0  0  0  0  0  0  0  0  0
   -2.4037   -1.4006    0.2796 H   0  0  0  0  0  0  0  0  0  0  0  0
   -3.8133    5.2981    0.5842 S   0  0  0  0  0  0  0  0  0  0  0  0
   -4.6520    5.0257   -1.0573 C   0  0  0  0  0  0  0  0  0  0  0  0
   -4.0745    4.1014    1.3757 O   0  0  0  0  0  0  0  0  0  0  0  0
   -4.1627    6.6305    1.0322 O   0  0  0  0  0  0  0  0  0  0  0  0
   -2.2809    5.3327    0.1041 O   0  0  0  0  0  0  0  0  0  0  0  0
   -4.2437    3.8578   -1.5708 F   0  0  0  0  0  0  0  0  0  0  0  0
   -5.9697    4.9839   -0.8628 F   0  0  0  0  0  0  0  0  0  0  0  0
   -4.3540    6.0086   -1.9011 F   0  0  0  0  0  0  0  0  0  0  0  0
  1  8  1  0  0  0  0
  1  2  1  0  0  0  0
  2  3  1  0  0  0  0
  4  1  2  0  0  0  0
  5  6  2  0  0  0  0
  5  4  1  0  0  0  0
  6  7  1  0  0  0  0
  7 12  1  0  0  0  0
  7  8  2  0  0  0  0
  8 13  1  0  0  0  0
 10  5  1  0  0  0  0
 11  6  1  0  0  0  0
 14 17  2  0  0  0  0
 14 16  2  0  0  0  0
 15 20  1  0  0  0  0
 15 14  1  0  0  0  0
 18  9  1  0  0  0  0
 18 14  1  0  0  0  0
 19 15  1  0  0  0  0
 21 15  1  0  0  0  0
M  RAD  3   2   2   3   3   4   2
M  END
