Coordinates from ORCA-job PhN2+~TfO-_B3LYPG-6-31G_dp-CH-Scan-d09-49-n800
 OpenBabel11261919123D

 21 20  0  0  0  0  0  0  0  0999 V2000
   -1.8295    0.6614    0.0562 C   0  0  0  0  0  0  0  0  0  0  0  0
   -3.1569    1.0742    0.1088 N   0  0  0  0  0  0  0  0  0  0  0  0
   -4.2055    1.4636    0.1319 N   0  0  0  0  0  0  0  0  0  0  0  0
   -0.9318    1.7277   -0.1207 C   0  0  0  0  0  0  0  0  0  0  0  0
    0.3972    1.2197   -0.1754 C   0  0  0  0  0  0  0  0  0  0  0  0
    0.7178   -0.1296   -0.0637 C   0  0  0  0  0  0  0  0  0  0  0  0
   -0.2795   -1.1200    0.1147 C   0  0  0  0  0  0  0  0  0  0  0  0
   -1.6001   -0.7371    0.1785 C   0  0  0  0  0  0  0  0  0  0  0  0
   -1.9305    4.9673    0.1147 H   0  0  0  0  0  0  0  0  0  0  0  0
    1.2207    1.9213   -0.3115 H   0  0  0  0  0  0  0  0  0  0  0  0
    1.7583   -0.4467   -0.1128 H   0  0  0  0  0  0  0  0  0  0  0  0
   -0.0054   -2.1664    0.2010 H   0  0  0  0  0  0  0  0  0  0  0  0
   -2.4085   -1.4506    0.3140 H   0  0  0  0  0  0  0  0  0  0  0  0
   -3.9609    5.4680    0.6067 S   0  0  0  0  0  0  0  0  0  0  0  0
   -4.7896    5.1137   -1.0257 C   0  0  0  0  0  0  0  0  0  0  0  0
   -3.9690    4.2212    1.3602 O   0  0  0  0  0  0  0  0  0  0  0  0
   -4.5108    6.7085    1.1114 O   0  0  0  0  0  0  0  0  0  0  0  0
   -2.4633    5.7835    0.0810 O   0  0  0  0  0  0  0  0  0  0  0  0
   -4.2125    4.0474   -1.5892 F   0  0  0  0  0  0  0  0  0  0  0  0
   -6.0759    4.8541   -0.7987 F   0  0  0  0  0  0  0  0  0  0  0  0
   -4.6772    6.1616   -1.8351 F   0  0  0  0  0  0  0  0  0  0  0  0
  1  2  1  0  0  0  0
  1  8  2  0  0  0  0
  2  3  1  0  0  0  0
  4  1  1  0  0  0  0
  5  4  2  0  0  0  0
  5  6  1  0  0  0  0
  6  7  2  0  0  0  0
  7  8  1  0  0  0  0
  7 12  1  0  0  0  0
  8 13  1  0  0  0  0
 10  5  1  0  0  0  0
 11  6  1  0  0  0  0
 14 17  2  0  0  0  0
 14 16  2  0  0  0  0
 15 20  1  0  0  0  0
 15 14  1  0  0  0  0
 18  9  1  0  0  0  0
 18 14  1  0  0  0  0
 19 15  1  0  0  0  0
 21 15  1  0  0  0  0
M  RAD  3   2   2   3   3   4   2
M  END
