Coordinates from ORCA-job PhN2+~TfO-_B3LYPG-6-31G_dp-CH-Scan-d09-49-n800
 OpenBabel11261919123D

 21 20  0  0  0  0  0  0  0  0999 V2000
   -1.8706    0.6928    0.0688 C   0  0  0  0  0  0  0  0  0  0  0  0
   -3.2053    1.0765    0.1284 N   0  0  0  0  0  0  0  0  0  0  0  0
   -4.2630    1.4386    0.1611 N   0  0  0  0  0  0  0  0  0  0  0  0
   -0.9887    1.7757   -0.0915 C   0  0  0  0  0  0  0  0  0  0  0  0
    0.3485    1.2935   -0.1531 C   0  0  0  0  0  0  0  0  0  0  0  0
    0.6928   -0.0517   -0.0622 C   0  0  0  0  0  0  0  0  0  0  0  0
   -0.2870   -1.0614    0.1000 C   0  0  0  0  0  0  0  0  0  0  0  0
   -1.6142   -0.7028    0.1694 C   0  0  0  0  0  0  0  0  0  0  0  0
   -1.9123    4.7748    0.0809 H   0  0  0  0  0  0  0  0  0  0  0  0
    1.1588    2.0121   -0.2774 H   0  0  0  0  0  0  0  0  0  0  0  0
    1.7387   -0.3495   -0.1157 H   0  0  0  0  0  0  0  0  0  0  0  0
    0.0048   -2.1043    0.1697 H   0  0  0  0  0  0  0  0  0  0  0  0
   -2.4096   -1.4326    0.2933 H   0  0  0  0  0  0  0  0  0  0  0  0
   -3.9002    5.4062    0.5985 S   0  0  0  0  0  0  0  0  0  0  0  0
   -4.7590    5.0887   -1.0257 C   0  0  0  0  0  0  0  0  0  0  0  0
   -3.9854    4.1679    1.3618 O   0  0  0  0  0  0  0  0  0  0  0  0
   -4.3727    6.6811    1.0964 O   0  0  0  0  0  0  0  0  0  0  0  0
   -2.3921    5.6258    0.0638 O   0  0  0  0  0  0  0  0  0  0  0  0
   -4.2383    3.9936   -1.5910 F   0  0  0  0  0  0  0  0  0  0  0  0
   -6.0547    4.8912   -0.7886 F   0  0  0  0  0  0  0  0  0  0  0  0
   -4.6034    6.1267   -1.8406 F   0  0  0  0  0  0  0  0  0  0  0  0
  1  2  1  0  0  0  0
  1  8  2  0  0  0  0
  2  3  1  0  0  0  0
  4  1  1  0  0  0  0
  5  4  2  0  0  0  0
  5  6  1  0  0  0  0
  6  7  2  0  0  0  0
  7  8  1  0  0  0  0
  7 12  1  0  0  0  0
  8 13  1  0  0  0  0
 10  5  1  0  0  0  0
 11  6  1  0  0  0  0
 14 17  2  0  0  0  0
 14 16  2  0  0  0  0
 15 20  1  0  0  0  0
 15 14  1  0  0  0  0
 18  9  1  0  0  0  0
 18 14  1  0  0  0  0
 19 15  1  0  0  0  0
 21 15  1  0  0  0  0
M  RAD  3   2   2   3   3   4   2
M  END
