Coordinates from ORCA-job PhN2+~TfO-_B3LYPG-6-31G_dp-CH-Scan-d09-49-n800
 OpenBabel11261919123D

 21 20  0  0  0  0  0  0  0  0999 V2000
   -1.7776    0.6275    0.0172 C   0  0  0  0  0  0  0  0  0  0  0  0
   -3.0929    1.0832    0.0476 N   0  0  0  0  0  0  0  0  0  0  0  0
   -4.1272    1.5109    0.0495 N   0  0  0  0  0  0  0  0  0  0  0  0
   -0.8547    1.6633   -0.2001 C   0  0  0  0  0  0  0  0  0  0  0  0
    0.4608    1.1167   -0.2295 C   0  0  0  0  0  0  0  0  0  0  0  0
    0.7451   -0.2344   -0.0593 C   0  0  0  0  0  0  0  0  0  0  0  0
   -0.2787   -1.1904    0.1569 C   0  0  0  0  0  0  0  0  0  0  0  0
   -1.5888   -0.7705    0.1991 C   0  0  0  0  0  0  0  0  0  0  0  0
   -1.9593    5.2529    0.1675 H   0  0  0  0  0  0  0  0  0  0  0  0
    1.3039    1.7892   -0.3924 H   0  0  0  0  0  0  0  0  0  0  0  0
    1.7770   -0.5810   -0.0903 H   0  0  0  0  0  0  0  0  0  0  0  0
   -0.0322   -2.2390    0.2887 H   0  0  0  0  0  0  0  0  0  0  0  0
   -2.4168   -1.4556    0.3609 H   0  0  0  0  0  0  0  0  0  0  0  0
   -4.0375    5.5377    0.6275 S   0  0  0  0  0  0  0  0  0  0  0  0
   -4.8184    5.1350   -1.0176 C   0  0  0  0  0  0  0  0  0  0  0  0
   -3.9201    4.2843    1.3598 O   0  0  0  0  0  0  0  0  0  0  0  0
   -4.7081    6.7097    1.1494 O   0  0  0  0  0  0  0  0  0  0  0  0
   -2.5725    6.0079    0.1157 O   0  0  0  0  0  0  0  0  0  0  0  0
   -4.1473    4.1303   -1.5883 F   0  0  0  0  0  0  0  0  0  0  0  0
   -6.0792    4.7643   -0.8050 F   0  0  0  0  0  0  0  0  0  0  0  0
   -4.7884    6.2007   -1.8108 F   0  0  0  0  0  0  0  0  0  0  0  0
  1  2  1  0  0  0  0
  1  8  2  0  0  0  0
  2  3  1  0  0  0  0
  4  1  1  0  0  0  0
  5  4  2  0  0  0  0
  5  6  1  0  0  0  0
  6  7  2  0  0  0  0
  7  8  1  0  0  0  0
  7 12  1  0  0  0  0
  8 13  1  0  0  0  0
 10  5  1  0  0  0  0
 11  6  1  0  0  0  0
 14 17  2  0  0  0  0
 14 16  2  0  0  0  0
 15 20  1  0  0  0  0
 15 14  1  0  0  0  0
 18  9  1  0  0  0  0
 18 14  1  0  0  0  0
 19 15  1  0  0  0  0
 21 15  1  0  0  0  0
M  RAD  3   2   2   3   3   4   2
M  END
