Coordinates from ORCA-job PhN2+~TfO-_B3LYPG-6-31G_dp-CH-Scan-d09-49-n800
 OpenBabel11261919123D

 21 20  0  0  0  0  0  0  0  0999 V2000
   -1.8886    1.1035   -0.6160 C   0  0  0  0  0  0  0  0  0  0  0  0
   -3.0781    1.2311   -1.3233 N   0  0  0  0  0  0  0  0  0  0  0  0
   -4.0146    1.1452   -1.9152 N   0  0  0  0  0  0  0  0  0  0  0  0
   -0.9115    2.1054   -0.7064 C   0  0  0  0  0  0  0  0  0  0  0  0
    0.2716    1.8854   -0.0084 C   0  0  0  0  0  0  0  0  0  0  0  0
    0.4526    0.7235    0.7464 C   0  0  0  0  0  0  0  0  0  0  0  0
   -0.5485   -0.2540    0.8174 C   0  0  0  0  0  0  0  0  0  0  0  0
   -1.7408   -0.0781    0.1308 C   0  0  0  0  0  0  0  0  0  0  0  0
   -1.0888    2.9191   -1.2137 H   0  0  0  0  0  0  0  0  0  0  0  0
    1.0470    2.6431   -0.0418 H   0  0  0  0  0  0  0  0  0  0  0  0
    1.3788    0.5787    1.2936 H   0  0  0  0  0  0  0  0  0  0  0  0
   -0.4019   -1.1487    1.4125 H   0  0  0  0  0  0  0  0  0  0  0  0
   -2.5412   -0.8079    0.1743 H   0  0  0  0  0  0  0  0  0  0  0  0
   -3.5093    4.0227   -0.0028 S   0  0  0  0  0  0  0  0  0  0  0  0
   -4.8883    5.2632   -0.0726 C   0  0  0  0  0  0  0  0  0  0  0  0
   -4.1434    2.7974    0.5566 O   0  0  0  0  0  0  0  0  0  0  0  0
   -2.4644    4.6418    0.8312 O   0  0  0  0  0  0  0  0  0  0  0  0
   -3.1320    3.8467   -1.4425 O   0  0  0  0  0  0  0  0  0  0  0  0
   -5.8949    4.8020   -0.8322 F   0  0  0  0  0  0  0  0  0  0  0  0
   -5.3617    5.5059    1.1572 F   0  0  0  0  0  0  0  0  0  0  0  0
   -4.4547    6.4167   -0.5985 F   0  0  0  0  0  0  0  0  0  0  0  0
  1  8  1  0  0  0  0
  2  1  1  0  0  0  0
  3  2  1  0  0  0  0
  4  1  2  0  0  0  0
  4  5  1  0  0  0  0
  5  6  2  0  0  0  0
  6  7  1  0  0  0  0
  6 11  1  0  0  0  0
  7 12  1  0  0  0  0
  8 13  1  0  0  0  0
  8  7  2  0  0  0  0
  9  4  1  0  0  0  0
 10  5  1  0  0  0  0
 14 16  2  0  0  0  0
 14 17  1  0  0  0  0
 15 14  1  0  0  0  0
 15 20  1  0  0  0  0
 18 14  2  0  0  0  0
 19 15  1  0  0  0  0
 21 15  1  0  0  0  0
M  RAD  3   2   2   3   3  17   2
M  END
