Coordinates from ORCA-job PhN2+~TfO-_B3LYPG-6-31G_dp-CH-Scan-d09-49-n800
 OpenBabel11261919123D

 21 20  0  0  0  0  0  0  0  0999 V2000
   -2.0643    0.8382    0.0976 C   0  0  0  0  0  0  0  0  0  0  0  0
   -3.4277    1.0784    0.1650 N   0  0  0  0  0  0  0  0  0  0  0  0
   -4.5178    1.3148    0.2101 N   0  0  0  0  0  0  0  0  0  0  0  0
   -1.2640    1.9880   -0.0466 C   0  0  0  0  0  0  0  0  0  0  0  0
    0.1068    1.6398   -0.1133 C   0  0  0  0  0  0  0  0  0  0  0  0
    0.5710    0.3285   -0.0430 C   0  0  0  0  0  0  0  0  0  0  0  0
   -0.3151   -0.7622    0.1021 C   0  0  0  0  0  0  0  0  0  0  0  0
   -1.6700   -0.5239    0.1756 C   0  0  0  0  0  0  0  0  0  0  0  0
   -1.8812    3.8338   -0.0509 H   0  0  0  0  0  0  0  0  0  0  0  0
    0.8413    2.4356   -0.2240 H   0  0  0  0  0  0  0  0  0  0  0  0
    1.6390    0.1286   -0.1002 H   0  0  0  0  0  0  0  0  0  0  0  0
    0.0652   -1.7769    0.1564 H   0  0  0  0  0  0  0  0  0  0  0  0
   -2.3946   -1.3245    0.2882 H   0  0  0  0  0  0  0  0  0  0  0  0
   -3.5885    5.0554    0.5492 S   0  0  0  0  0  0  0  0  0  0  0  0
   -4.6033    5.0086   -1.0093 C   0  0  0  0  0  0  0  0  0  0  0  0
   -4.0175    3.8930    1.3272 O   0  0  0  0  0  0  0  0  0  0  0  0
   -3.6860    6.4052    1.0733 O   0  0  0  0  0  0  0  0  0  0  0  0
   -2.1456    4.8296   -0.0551 O   0  0  0  0  0  0  0  0  0  0  0  0
   -4.4627    3.8063   -1.5936 F   0  0  0  0  0  0  0  0  0  0  0  0
   -5.8885    5.1925   -0.7030 F   0  0  0  0  0  0  0  0  0  0  0  0
   -4.2094    5.9539   -1.8592 F   0  0  0  0  0  0  0  0  0  0  0  0
  1  2  1  0  0  0  0
  1  8  2  0  0  0  0
  2  3  1  0  0  0  0
  4  1  1  0  0  0  0
  5  4  2  0  0  0  0
  5  6  1  0  0  0  0
  6  7  2  0  0  0  0
  7 12  1  0  0  0  0
  7  8  1  0  0  0  0
  8 13  1  0  0  0  0
 10  5  1  0  0  0  0
 11  6  1  0  0  0  0
 14 17  2  0  0  0  0
 14 16  2  0  0  0  0
 15 20  1  0  0  0  0
 15 14  1  0  0  0  0
 18  9  1  0  0  0  0
 18 14  1  0  0  0  0
 19 15  1  0  0  0  0
 21 15  1  0  0  0  0
M  RAD  3   2   2   3   3   4   2
M  END
