Coordinates from ORCA-job PhN2+~TfO-_B3LYPG-6-31G_dp-CH-Scan-d09-49-n800
 OpenBabel11261919123D

 21 20  0  0  0  0  0  0  0  0999 V2000
   -1.8098    0.6481    0.0466 C   0  0  0  0  0  0  0  0  0  0  0  0
   -3.1329    1.0767    0.0940 N   0  0  0  0  0  0  0  0  0  0  0  0
   -4.1761    1.4811    0.1126 N   0  0  0  0  0  0  0  0  0  0  0  0
   -0.9032    1.7045   -0.1415 C   0  0  0  0  0  0  0  0  0  0  0  0
    0.4210    1.1823   -0.1913 C   0  0  0  0  0  0  0  0  0  0  0  0
    0.7285   -0.1686   -0.0646 C   0  0  0  0  0  0  0  0  0  0  0  0
   -0.2783   -1.1476    0.1248 C   0  0  0  0  0  0  0  0  0  0  0  0
   -1.5951   -0.7513    0.1844 C   0  0  0  0  0  0  0  0  0  0  0  0
   -1.9406    5.0707    0.1350 H   0  0  0  0  0  0  0  0  0  0  0  0
    1.2516    1.8741   -0.3352 H   0  0  0  0  0  0  0  0  0  0  0  0
    1.7659   -0.4965   -0.1101 H   0  0  0  0  0  0  0  0  0  0  0  0
   -0.0141   -2.1956    0.2226 H   0  0  0  0  0  0  0  0  0  0  0  0
   -2.4106   -1.4552    0.3274 H   0  0  0  0  0  0  0  0  0  0  0  0
   -3.9910    5.4968    0.6128 S   0  0  0  0  0  0  0  0  0  0  0  0
   -4.8007    5.1214   -1.0246 C   0  0  0  0  0  0  0  0  0  0  0  0
   -3.9561    4.2478    1.3614 O   0  0  0  0  0  0  0  0  0  0  0  0
   -4.5849    6.7157    1.1202 O   0  0  0  0  0  0  0  0  0  0  0  0
   -2.5021    5.8664    0.0935 O   0  0  0  0  0  0  0  0  0  0  0  0
   -4.1901    4.0736   -1.5867 F   0  0  0  0  0  0  0  0  0  0  0  0
   -6.0799    4.8244   -0.8041 F   0  0  0  0  0  0  0  0  0  0  0  0
   -4.7144    6.1741   -1.8309 F   0  0  0  0  0  0  0  0  0  0  0  0
  1  2  1  0  0  0  0
  1  8  2  0  0  0  0
  2  3  1  0  0  0  0
  4  1  1  0  0  0  0
  5  4  2  0  0  0  0
  5  6  1  0  0  0  0
  6  7  2  0  0  0  0
  7  8  1  0  0  0  0
  7 12  1  0  0  0  0
  8 13  1  0  0  0  0
 10  5  1  0  0  0  0
 11  6  1  0  0  0  0
 14 17  2  0  0  0  0
 14 16  2  0  0  0  0
 15 20  1  0  0  0  0
 15 14  1  0  0  0  0
 18  9  1  0  0  0  0
 18 14  1  0  0  0  0
 19 15  1  0  0  0  0
 21 15  1  0  0  0  0
M  RAD  3   2   2   3   3   4   2
M  END
