Coordinates from ORCA-job PhN2+~TfO-_B3LYPG-6-31G_dp-CH-Scan-d09-49-n800
 OpenBabel11261919123D

 21 20  0  0  0  0  0  0  0  0999 V2000
   -1.9870    0.7748    0.1371 C   0  0  0  0  0  0  0  0  0  0  0  0
   -3.3368    1.0735    0.2566 N   0  0  0  0  0  0  0  0  0  0  0  0
   -4.4144    1.3567    0.3422 N   0  0  0  0  0  0  0  0  0  0  0  0
   -1.1577    1.9030   -0.0040 C   0  0  0  0  0  0  0  0  0  0  0  0
    0.1978    1.4993   -0.1278 C   0  0  0  0  0  0  0  0  0  0  0  0
    0.6126    0.1705   -0.1097 C   0  0  0  0  0  0  0  0  0  0  0  0
   -0.3094   -0.8924    0.0378 C   0  0  0  0  0  0  0  0  0  0  0  0
   -1.6500   -0.6061    0.1661 C   0  0  0  0  0  0  0  0  0  0  0  0
   -1.9033    4.2632    0.0887 H   0  0  0  0  0  0  0  0  0  0  0  0
    0.9629    2.2658   -0.2442 H   0  0  0  0  0  0  0  0  0  0  0  0
    1.6694   -0.0691   -0.2112 H   0  0  0  0  0  0  0  0  0  0  0  0
    0.0350   -1.9212    0.0502 H   0  0  0  0  0  0  0  0  0  0  0  0
   -2.4016   -1.3815    0.2832 H   0  0  0  0  0  0  0  0  0  0  0  0
   -3.7616    5.2371    0.5799 S   0  0  0  0  0  0  0  0  0  0  0  0
   -4.6182    5.0086   -1.0583 C   0  0  0  0  0  0  0  0  0  0  0  0
   -4.0850    4.0530    1.3689 O   0  0  0  0  0  0  0  0  0  0  0  0
   -4.0494    6.5831    1.0325 O   0  0  0  0  0  0  0  0  0  0  0  0
   -2.2350    5.1965    0.0991 O   0  0  0  0  0  0  0  0  0  0  0  0
   -4.2662    3.8236   -1.5766 F   0  0  0  0  0  0  0  0  0  0  0  0
   -5.9363    5.0265   -0.8613 F   0  0  0  0  0  0  0  0  0  0  0  0
   -4.2785    5.9777   -1.9027 F   0  0  0  0  0  0  0  0  0  0  0  0
  1  8  1  0  0  0  0
  1  2  1  0  0  0  0
  2  3  1  0  0  0  0
  4  1  2  0  0  0  0
  5  6  2  0  0  0  0
  5  4  1  0  0  0  0
  6  7  1  0  0  0  0
  7 12  1  0  0  0  0
  7  8  2  0  0  0  0
  8 13  1  0  0  0  0
  9 18  1  0  0  0  0
 10  5  1  0  0  0  0
 11  6  1  0  0  0  0
 14 17  2  0  0  0  0
 14 16  2  0  0  0  0
 15 20  1  0  0  0  0
 15 14  1  0  0  0  0
 18 14  1  0  0  0  0
 19 15  1  0  0  0  0
 21 15  1  0  0  0  0
M  RAD  3   2   2   3   3   4   2
M  END
