Coordinates from ORCA-job PhN2+~TfO-_B3LYPG-6-31G_dp-CH-Scan-d09-49-n800
 OpenBabel11261919123D

 21 20  0  0  0  0  0  0  0  0999 V2000
   -1.8749    0.6960    0.0702 C   0  0  0  0  0  0  0  0  0  0  0  0
   -3.2103    1.0770    0.1311 N   0  0  0  0  0  0  0  0  0  0  0  0
   -4.2687    1.4370    0.1641 N   0  0  0  0  0  0  0  0  0  0  0  0
   -0.9949    1.7805   -0.0894 C   0  0  0  0  0  0  0  0  0  0  0  0
    0.3432    1.3010   -0.1518 C   0  0  0  0  0  0  0  0  0  0  0  0
    0.6900   -0.0437   -0.0627 C   0  0  0  0  0  0  0  0  0  0  0  0
   -0.2880   -1.0553    0.0985 C   0  0  0  0  0  0  0  0  0  0  0  0
   -1.6158   -0.6992    0.1688 C   0  0  0  0  0  0  0  0  0  0  0  0
   -1.9108    4.7559    0.0794 H   0  0  0  0  0  0  0  0  0  0  0  0
    1.1521    2.0213   -0.2755 H   0  0  0  0  0  0  0  0  0  0  0  0
    1.7363   -0.3395   -0.1169 H   0  0  0  0  0  0  0  0  0  0  0  0
    0.0057   -2.0977    0.1669 H   0  0  0  0  0  0  0  0  0  0  0  0
   -2.4098   -1.4306    0.2922 H   0  0  0  0  0  0  0  0  0  0  0  0
   -3.8944    5.3999    0.5979 S   0  0  0  0  0  0  0  0  0  0  0  0
   -4.7548    5.0855   -1.0260 C   0  0  0  0  0  0  0  0  0  0  0  0
   -3.9874    4.1629    1.3624 O   0  0  0  0  0  0  0  0  0  0  0  0
   -4.3600    6.6779    1.0945 O   0  0  0  0  0  0  0  0  0  0  0  0
   -2.3853    5.6103    0.0635 O   0  0  0  0  0  0  0  0  0  0  0  0
   -4.2389    3.9879   -1.5908 F   0  0  0  0  0  0  0  0  0  0  0  0
   -6.0514    4.8937   -0.7887 F   0  0  0  0  0  0  0  0  0  0  0  0
   -4.5949    6.1224   -1.8415 F   0  0  0  0  0  0  0  0  0  0  0  0
  1  2  1  0  0  0  0
  1  8  2  0  0  0  0
  2  3  1  0  0  0  0
  4  1  1  0  0  0  0
  5  4  2  0  0  0  0
  5  6  1  0  0  0  0
  6  7  2  0  0  0  0
  7 12  1  0  0  0  0
  7  8  1  0  0  0  0
  8 13  1  0  0  0  0
 10  5  1  0  0  0  0
 11  6  1  0  0  0  0
 14 17  2  0  0  0  0
 14 16  2  0  0  0  0
 15 20  1  0  0  0  0
 15 14  1  0  0  0  0
 18  9  1  0  0  0  0
 18 14  1  0  0  0  0
 19 15  1  0  0  0  0
 21 15  1  0  0  0  0
M  RAD  3   2   2   3   3   4   2
M  END
