Coordinates from ORCA-job PhN2+~TfO-_B3LYPG-6-31G_dp-CH-Scan-d09-49-n800
 OpenBabel11261919123D

 21 20  0  0  0  0  0  0  0  0999 V2000
   -2.0107    0.7929    0.1385 C   0  0  0  0  0  0  0  0  0  0  0  0
   -3.3636    1.0751    0.2579 N   0  0  0  0  0  0  0  0  0  0  0  0
   -4.4443    1.3450    0.3437 N   0  0  0  0  0  0  0  0  0  0  0  0
   -1.1908    1.9283   -0.0020 C   0  0  0  0  0  0  0  0  0  0  0  0
    0.1683    1.5396   -0.1253 C   0  0  0  0  0  0  0  0  0  0  0  0
    0.5967    0.2150   -0.1074 C   0  0  0  0  0  0  0  0  0  0  0  0
   -0.3144   -0.8567    0.0392 C   0  0  0  0  0  0  0  0  0  0  0  0
   -1.6581   -0.5838    0.1670 C   0  0  0  0  0  0  0  0  0  0  0  0
   -1.8988    4.1592    0.0755 H   0  0  0  0  0  0  0  0  0  0  0  0
    0.9248    2.3146   -0.2410 H   0  0  0  0  0  0  0  0  0  0  0  0
    1.6560   -0.0134   -0.2085 H   0  0  0  0  0  0  0  0  0  0  0  0
    0.0399   -1.8821    0.0516 H   0  0  0  0  0  0  0  0  0  0  0  0
   -2.4016   -1.3669    0.2835 H   0  0  0  0  0  0  0  0  0  0  0  0
   -3.7239    5.1957    0.5763 S   0  0  0  0  0  0  0  0  0  0  0  0
   -4.5976    4.9958   -1.0560 C   0  0  0  0  0  0  0  0  0  0  0  0
   -4.0835    4.0214    1.3655 O   0  0  0  0  0  0  0  0  0  0  0  0
   -3.9719    6.5486    1.0331 O   0  0  0  0  0  0  0  0  0  0  0  0
   -2.2061    5.1067    0.0880 O   0  0  0  0  0  0  0  0  0  0  0  0
   -4.2832    3.8016   -1.5794 F   0  0  0  0  0  0  0  0  0  0  0  0
   -5.9139    5.0505   -0.8520 F   0  0  0  0  0  0  0  0  0  0  0  0
   -4.2362    5.9558   -1.9021 F   0  0  0  0  0  0  0  0  0  0  0  0
  1  8  1  0  0  0  0
  1  2  1  0  0  0  0
  2  3  1  0  0  0  0
  4  1  2  0  0  0  0
  5  6  2  0  0  0  0
  5  4  1  0  0  0  0
  6  7  1  0  0  0  0
  7 12  1  0  0  0  0
  7  8  2  0  0  0  0
  8 13  1  0  0  0  0
  9 18  1  0  0  0  0
 10  5  1  0  0  0  0
 11  6  1  0  0  0  0
 14 17  2  0  0  0  0
 14 16  2  0  0  0  0
 15 20  1  0  0  0  0
 15 14  1  0  0  0  0
 18 14  1  0  0  0  0
 19 15  1  0  0  0  0
 21 15  1  0  0  0  0
M  RAD  3   2   2   3   3   4   2
M  END
