Coordinates from ORCA-job PhN2+~TfO-_B3LYPG-6-31G_dp-CH-Scan-d09-49-n800
 OpenBabel11261919123D

 21 20  0  0  0  0  0  0  0  0999 V2000
   -1.7150    0.6149   -0.2059 C   0  0  0  0  0  0  0  0  0  0  0  0
   -2.9909    1.1713   -0.3014 N   0  0  0  0  0  0  0  0  0  0  0  0
   -3.9789    1.6831   -0.4255 N   0  0  0  0  0  0  0  0  0  0  0  0
   -0.7363    1.4662   -0.7374 C   0  0  0  0  0  0  0  0  0  0  0  0
    0.5381    0.8375   -0.6214 C   0  0  0  0  0  0  0  0  0  0  0  0
    0.7342   -0.4206   -0.0616 C   0  0  0  0  0  0  0  0  0  0  0  0
   -0.3447   -1.1885    0.4462 C   0  0  0  0  0  0  0  0  0  0  0  0
   -1.6206   -0.6754    0.3832 C   0  0  0  0  0  0  0  0  0  0  0  0
   -2.0907    5.9461    0.4762 H   0  0  0  0  0  0  0  0  0  0  0  0
    1.4189    1.3650   -0.9899 H   0  0  0  0  0  0  0  0  0  0  0  0
    1.7376   -0.8403   -0.0046 H   0  0  0  0  0  0  0  0  0  0  0  0
   -0.1660   -2.1677    0.8776 H   0  0  0  0  0  0  0  0  0  0  0  0
   -2.4873   -1.2151    0.7551 H   0  0  0  0  0  0  0  0  0  0  0  0
   -4.1759    5.5291    0.7576 S   0  0  0  0  0  0  0  0  0  0  0  0
   -4.7137    5.1033   -0.9777 C   0  0  0  0  0  0  0  0  0  0  0  0
   -3.6966    4.3004    1.3755 O   0  0  0  0  0  0  0  0  0  0  0  0
   -5.2004    6.3718    1.3367 O   0  0  0  0  0  0  0  0  0  0  0  0
   -2.9029    6.4780    0.4063 O   0  0  0  0  0  0  0  0  0  0  0  0
   -3.7163    4.4746   -1.6024 F   0  0  0  0  0  0  0  0  0  0  0  0
   -5.7722    4.2985   -0.9018 F   0  0  0  0  0  0  0  0  0  0  0  0
   -5.0331    6.2106   -1.6385 F   0  0  0  0  0  0  0  0  0  0  0  0
  1  8  2  0  0  0  0
  2  1  1  0  0  0  0
  3  2  1  0  0  0  0
  4  5  2  0  0  0  0
  4  1  1  0  0  0  0
  5  6  1  0  0  0  0
  6 11  1  0  0  0  0
  6  7  2  0  0  0  0
  7 12  1  0  0  0  0
  8  7  1  0  0  0  0
  8 13  1  0  0  0  0
 10  5  1  0  0  0  0
 14 17  2  0  0  0  0
 14 16  2  0  0  0  0
 15 20  1  0  0  0  0
 15 14  1  0  0  0  0
 18  9  1  0  0  0  0
 18 14  1  0  0  0  0
 19 15  1  0  0  0  0
 21 15  1  0  0  0  0
M  RAD  3   2   2   3   3   4   2
M  END
