Coordinates from ORCA-job PhN2+~TfO-_B3LYPG-6-31G_dp-CH-Scan-d09-49-n800
 OpenBabel11261919123D

 21 20  0  0  0  0  0  0  0  0999 V2000
   -1.7840    0.6313    0.0243 C   0  0  0  0  0  0  0  0  0  0  0  0
   -3.1012    1.0811    0.0590 N   0  0  0  0  0  0  0  0  0  0  0  0
   -4.1375    1.5035    0.0648 N   0  0  0  0  0  0  0  0  0  0  0  0
   -0.8648    1.6718   -0.1863 C   0  0  0  0  0  0  0  0  0  0  0  0
    0.4526    1.1304   -0.2207 C   0  0  0  0  0  0  0  0  0  0  0  0
    0.7420   -0.2209   -0.0608 C   0  0  0  0  0  0  0  0  0  0  0  0
   -0.2781   -1.1822    0.1492 C   0  0  0  0  0  0  0  0  0  0  0  0
   -1.5897   -0.7673    0.1958 C   0  0  0  0  0  0  0  0  0  0  0  0
   -1.9550    5.2152    0.1607 H   0  0  0  0  0  0  0  0  0  0  0  0
    1.2931    1.8072   -0.3793 H   0  0  0  0  0  0  0  0  0  0  0  0
    1.7751   -0.5635   -0.0954 H   0  0  0  0  0  0  0  0  0  0  0  0
   -0.0277   -2.2308    0.2731 H   0  0  0  0  0  0  0  0  0  0  0  0
   -2.4149   -1.4567    0.3534 H   0  0  0  0  0  0  0  0  0  0  0  0
   -4.0283    5.5298    0.6240 S   0  0  0  0  0  0  0  0  0  0  0  0
   -4.8152    5.1329   -1.0195 C   0  0  0  0  0  0  0  0  0  0  0  0
   -3.9284    4.2769    1.3598 O   0  0  0  0  0  0  0  0  0  0  0  0
   -4.6830    6.7122    1.1429 O   0  0  0  0  0  0  0  0  0  0  0  0
   -2.5576    5.9791    0.1108 O   0  0  0  0  0  0  0  0  0  0  0  0
   -4.1577    4.1178   -1.5879 F   0  0  0  0  0  0  0  0  0  0  0  0
   -6.0807    4.7793   -0.8054 F   0  0  0  0  0  0  0  0  0  0  0  0
   -4.7718    6.1958   -1.8159 F   0  0  0  0  0  0  0  0  0  0  0  0
  1  2  1  0  0  0  0
  1  8  2  0  0  0  0
  2  3  1  0  0  0  0
  4  1  1  0  0  0  0
  5  4  2  0  0  0  0
  5  6  1  0  0  0  0
  6  7  2  0  0  0  0
  7  8  1  0  0  0  0
  7 12  1  0  0  0  0
  8 13  1  0  0  0  0
 10  5  1  0  0  0  0
 11  6  1  0  0  0  0
 14 17  2  0  0  0  0
 14 16  2  0  0  0  0
 15 20  1  0  0  0  0
 15 14  1  0  0  0  0
 18  9  1  0  0  0  0
 18 14  1  0  0  0  0
 19 15  1  0  0  0  0
 21 15  1  0  0  0  0
M  RAD  3   2   2   3   3   4   2
M  END
