Coordinates from ORCA-job PhN2+~TfO-_B3LYPG-6-31G_dp-CH-Scan-d09-49-n800
 OpenBabel11261919123D

 21 20  0  0  0  0  0  0  0  0999 V2000
   -2.0066    0.7896    0.1389 C   0  0  0  0  0  0  0  0  0  0  0  0
   -3.3589    1.0748    0.2590 N   0  0  0  0  0  0  0  0  0  0  0  0
   -4.4390    1.3472    0.3454 N   0  0  0  0  0  0  0  0  0  0  0  0
   -1.1851    1.9238   -0.0017 C   0  0  0  0  0  0  0  0  0  0  0  0
    0.1733    1.5325   -0.1258 C   0  0  0  0  0  0  0  0  0  0  0  0
    0.5993    0.2071   -0.1086 C   0  0  0  0  0  0  0  0  0  0  0  0
   -0.3137   -0.8631    0.0382 C   0  0  0  0  0  0  0  0  0  0  0  0
   -1.6568   -0.5879    0.1668 C   0  0  0  0  0  0  0  0  0  0  0  0
   -1.8995    4.1788    0.0790 H   0  0  0  0  0  0  0  0  0  0  0  0
    0.9313    2.3059   -0.2417 H   0  0  0  0  0  0  0  0  0  0  0  0
    1.6580   -0.0234   -0.2103 H   0  0  0  0  0  0  0  0  0  0  0  0
    0.0388   -1.8892    0.0500 H   0  0  0  0  0  0  0  0  0  0  0  0
   -2.4017   -1.3696    0.2834 H   0  0  0  0  0  0  0  0  0  0  0  0
   -3.7312    5.2036    0.5771 S   0  0  0  0  0  0  0  0  0  0  0  0
   -4.6004    4.9974   -1.0569 C   0  0  0  0  0  0  0  0  0  0  0  0
   -4.0843    4.0276    1.3664 O   0  0  0  0  0  0  0  0  0  0  0  0
   -3.9871    6.5554    1.0325 O   0  0  0  0  0  0  0  0  0  0  0  0
   -2.2112    5.1237    0.0914 O   0  0  0  0  0  0  0  0  0  0  0  0
   -4.2778    3.8049   -1.5788 F   0  0  0  0  0  0  0  0  0  0  0  0
   -5.9173    5.0445   -0.8552 F   0  0  0  0  0  0  0  0  0  0  0  0
   -4.2430    5.9592   -1.9027 F   0  0  0  0  0  0  0  0  0  0  0  0
  1  8  1  0  0  0  0
  1  2  1  0  0  0  0
  2  3  1  0  0  0  0
  4  1  2  0  0  0  0
  5  6  2  0  0  0  0
  5  4  1  0  0  0  0
  6  7  1  0  0  0  0
  7 12  1  0  0  0  0
  7  8  2  0  0  0  0
  8 13  1  0  0  0  0
  9 18  1  0  0  0  0
 10  5  1  0  0  0  0
 11  6  1  0  0  0  0
 14 17  2  0  0  0  0
 14 16  2  0  0  0  0
 15 20  1  0  0  0  0
 15 14  1  0  0  0  0
 18 14  1  0  0  0  0
 19 15  1  0  0  0  0
 21 15  1  0  0  0  0
M  RAD  3   2   2   3   3   4   2
M  END
