Coordinates from ORCA-job PhN2+~TfO-_B3LYPG-6-31G_dp-CH-Scan-d09-49-n800
 OpenBabel11261919123D

 21 20  0  0  0  0  0  0  0  0999 V2000
   -1.7366    0.6225   -0.1941 C   0  0  0  0  0  0  0  0  0  0  0  0
   -3.0191    1.1641   -0.2857 N   0  0  0  0  0  0  0  0  0  0  0  0
   -4.0129    1.6653   -0.4056 N   0  0  0  0  0  0  0  0  0  0  0  0
   -0.7659    1.4962   -0.7037 C   0  0  0  0  0  0  0  0  0  0  0  0
    0.5156    0.8812   -0.5934 C   0  0  0  0  0  0  0  0  0  0  0  0
    0.7247   -0.3850   -0.0568 C   0  0  0  0  0  0  0  0  0  0  0  0
   -0.3469   -1.1758    0.4304 C   0  0  0  0  0  0  0  0  0  0  0  0
   -1.6288   -0.6776    0.3703 C   0  0  0  0  0  0  0  0  0  0  0  0
   -2.0556    5.8830    0.4463 H   0  0  0  0  0  0  0  0  0  0  0  0
    1.3916    1.4266   -0.9472 H   0  0  0  0  0  0  0  0  0  0  0  0
    1.7331   -0.7930   -0.0025 H   0  0  0  0  0  0  0  0  0  0  0  0
   -0.1580   -2.1608    0.8442 H   0  0  0  0  0  0  0  0  0  0  0  0
   -2.4905   -1.2353    0.7271 H   0  0  0  0  0  0  0  0  0  0  0  0
   -4.1470    5.5126    0.7500 S   0  0  0  0  0  0  0  0  0  0  0  0
   -4.7060    5.0885   -0.9790 C   0  0  0  0  0  0  0  0  0  0  0  0
   -3.6908    4.2770    1.3716 O   0  0  0  0  0  0  0  0  0  0  0  0
   -5.1491    6.3805    1.3312 O   0  0  0  0  0  0  0  0  0  0  0  0
   -2.8568    6.4324    0.3852 O   0  0  0  0  0  0  0  0  0  0  0  0
   -3.7257    4.4376   -1.6080 F   0  0  0  0  0  0  0  0  0  0  0  0
   -5.7790    4.3044   -0.8910 F   0  0  0  0  0  0  0  0  0  0  0  0
   -5.0092    6.1983   -1.6431 F   0  0  0  0  0  0  0  0  0  0  0  0
  1  8  2  0  0  0  0
  2  1  1  0  0  0  0
  3  2  1  0  0  0  0
  4  5  2  0  0  0  0
  4  1  1  0  0  0  0
  5  6  1  0  0  0  0
  6 11  1  0  0  0  0
  6  7  2  0  0  0  0
  7 12  1  0  0  0  0
  8  7  1  0  0  0  0
  8 13  1  0  0  0  0
 10  5  1  0  0  0  0
 14 17  2  0  0  0  0
 14 16  2  0  0  0  0
 15 20  1  0  0  0  0
 15 14  1  0  0  0  0
 18  9  1  0  0  0  0
 18 14  1  0  0  0  0
 19 15  1  0  0  0  0
 21 15  1  0  0  0  0
M  RAD  3   2   2   3   3   4   2
M  END
