Coordinates from ORCA-job PhN2+~TfO-_B3LYPG-6-31G_dp-CH-Scan-d09-49-n800
 OpenBabel11261919123D

 21 20  0  0  0  0  0  0  0  0999 V2000
   -1.8789    0.6976    0.0713 C   0  0  0  0  0  0  0  0  0  0  0  0
   -3.2147    1.0765    0.1330 N   0  0  0  0  0  0  0  0  0  0  0  0
   -4.2734    1.4357    0.1668 N   0  0  0  0  0  0  0  0  0  0  0  0
   -1.0007    1.7840   -0.0872 C   0  0  0  0  0  0  0  0  0  0  0  0
    0.3383    1.3072   -0.1503 C   0  0  0  0  0  0  0  0  0  0  0  0
    0.6875   -0.0370   -0.0629 C   0  0  0  0  0  0  0  0  0  0  0  0
   -0.2885   -1.0506    0.0973 C   0  0  0  0  0  0  0  0  0  0  0  0
   -1.6169   -0.6970    0.1682 C   0  0  0  0  0  0  0  0  0  0  0  0
   -1.9096    4.7408    0.0776 H   0  0  0  0  0  0  0  0  0  0  0  0
    1.1457    2.0292   -0.2733 H   0  0  0  0  0  0  0  0  0  0  0  0
    1.7345   -0.3307   -0.1177 H   0  0  0  0  0  0  0  0  0  0  0  0
    0.0073   -2.0925    0.1644 H   0  0  0  0  0  0  0  0  0  0  0  0
   -2.4095   -1.4301    0.2910 H   0  0  0  0  0  0  0  0  0  0  0  0
   -3.8893    5.3951    0.5974 S   0  0  0  0  0  0  0  0  0  0  0  0
   -4.7514    5.0833   -1.0261 C   0  0  0  0  0  0  0  0  0  0  0  0
   -3.9879    4.1591    1.3628 O   0  0  0  0  0  0  0  0  0  0  0  0
   -4.3495    6.6754    1.0931 O   0  0  0  0  0  0  0  0  0  0  0  0
   -2.3796    5.5980    0.0626 O   0  0  0  0  0  0  0  0  0  0  0  0
   -4.2395    3.9836   -1.5905 F   0  0  0  0  0  0  0  0  0  0  0  0
   -6.0486    4.8961   -0.7886 F   0  0  0  0  0  0  0  0  0  0  0  0
   -4.5880    6.1191   -1.8423 F   0  0  0  0  0  0  0  0  0  0  0  0
  1  2  1  0  0  0  0
  1  8  2  0  0  0  0
  2  3  1  0  0  0  0
  4  1  1  0  0  0  0
  5  4  2  0  0  0  0
  5  6  1  0  0  0  0
  6  7  2  0  0  0  0
  7 12  1  0  0  0  0
  7  8  1  0  0  0  0
  8 13  1  0  0  0  0
 10  5  1  0  0  0  0
 11  6  1  0  0  0  0
 14 17  2  0  0  0  0
 14 16  2  0  0  0  0
 15 20  1  0  0  0  0
 15 14  1  0  0  0  0
 18  9  1  0  0  0  0
 18 14  1  0  0  0  0
 19 15  1  0  0  0  0
 21 15  1  0  0  0  0
M  RAD  3   2   2   3   3   4   2
M  END
