Coordinates from ORCA-job PhN2+~TfO-_B3LYPG-6-31G_dp-CH-Scan-d09-49-n800
 OpenBabel11261919123D

 21 20  0  0  0  0  0  0  0  0999 V2000
   -1.7520    0.6285   -0.1853 C   0  0  0  0  0  0  0  0  0  0  0  0
   -3.0390    1.1596   -0.2739 N   0  0  0  0  0  0  0  0  0  0  0  0
   -4.0370    1.6532   -0.3908 N   0  0  0  0  0  0  0  0  0  0  0  0
   -0.7871    1.5183   -0.6783 C   0  0  0  0  0  0  0  0  0  0  0  0
    0.4993    0.9129   -0.5722 C   0  0  0  0  0  0  0  0  0  0  0  0
    0.7178   -0.3589   -0.0530 C   0  0  0  0  0  0  0  0  0  0  0  0
   -0.3485   -1.1662    0.4187 C   0  0  0  0  0  0  0  0  0  0  0  0
   -1.6346   -0.6786    0.3606 C   0  0  0  0  0  0  0  0  0  0  0  0
   -2.0304    5.8346    0.4221 H   0  0  0  0  0  0  0  0  0  0  0  0
    1.3717    1.4710   -0.9149 H   0  0  0  0  0  0  0  0  0  0  0  0
    1.7296   -0.7587   -0.0005 H   0  0  0  0  0  0  0  0  0  0  0  0
   -0.1523   -2.1552    0.8193 H   0  0  0  0  0  0  0  0  0  0  0  0
   -2.4926   -1.2490    0.7061 H   0  0  0  0  0  0  0  0  0  0  0  0
   -4.1256    5.4997    0.7444 S   0  0  0  0  0  0  0  0  0  0  0  0
   -4.7010    5.0781   -0.9798 C   0  0  0  0  0  0  0  0  0  0  0  0
   -3.6870    4.2588    1.3679 O   0  0  0  0  0  0  0  0  0  0  0  0
   -5.1101    6.3862    1.3276 O   0  0  0  0  0  0  0  0  0  0  0  0
   -2.8229    6.3975    0.3697 O   0  0  0  0  0  0  0  0  0  0  0  0
   -3.7340    4.4114   -1.6128 F   0  0  0  0  0  0  0  0  0  0  0  0
   -5.7844    4.3095   -0.8828 F   0  0  0  0  0  0  0  0  0  0  0  0
   -4.9926    6.1900   -1.6458 F   0  0  0  0  0  0  0  0  0  0  0  0
  1  8  2  0  0  0  0
  2  1  1  0  0  0  0
  3  2  1  0  0  0  0
  4  5  2  0  0  0  0
  4  1  1  0  0  0  0
  5  6  1  0  0  0  0
  6 11  1  0  0  0  0
  6  7  2  0  0  0  0
  7 12  1  0  0  0  0
  8  7  1  0  0  0  0
  8 13  1  0  0  0  0
 10  5  1  0  0  0  0
 14 17  2  0  0  0  0
 14 16  2  0  0  0  0
 15 20  1  0  0  0  0
 15 14  1  0  0  0  0
 18  9  1  0  0  0  0
 18 14  1  0  0  0  0
 19 15  1  0  0  0  0
 21 15  1  0  0  0  0
M  RAD  3   2   2   3   3   4   2
M  END
