Coordinates from ORCA-job PhN2+~TfO-_B3LYPG-6-31G_dp-CH-Scan-d09-49-n800
 OpenBabel11261919123D

 21 20  0  0  0  0  0  0  0  0999 V2000
   -1.8499    0.6768    0.0630 C   0  0  0  0  0  0  0  0  0  0  0  0
   -3.1812    1.0745    0.1192 N   0  0  0  0  0  0  0  0  0  0  0  0
   -4.2347    1.4495    0.1467 N   0  0  0  0  0  0  0  0  0  0  0  0
   -0.9604    1.7517   -0.1053 C   0  0  0  0  0  0  0  0  0  0  0  0
    0.3729    1.2569   -0.1634 C   0  0  0  0  0  0  0  0  0  0  0  0
    0.7057   -0.0904   -0.0626 C   0  0  0  0  0  0  0  0  0  0  0  0
   -0.2827   -1.0909    0.1072 C   0  0  0  0  0  0  0  0  0  0  0  0
   -1.6067   -0.7204    0.1738 C   0  0  0  0  0  0  0  0  0  0  0  0
   -1.9206    4.8689    0.0968 H   0  0  0  0  0  0  0  0  0  0  0  0
    1.1898    1.9673   -0.2933 H   0  0  0  0  0  0  0  0  0  0  0  0
    1.7490   -0.3976   -0.1139 H   0  0  0  0  0  0  0  0  0  0  0  0
    0.0006   -2.1355    0.1849 H   0  0  0  0  0  0  0  0  0  0  0  0
   -2.4085   -1.4424    0.3032 H   0  0  0  0  0  0  0  0  0  0  0  0
   -3.9303    5.4370    0.6022 S   0  0  0  0  0  0  0  0  0  0  0  0
   -4.7755    5.1025   -1.0259 C   0  0  0  0  0  0  0  0  0  0  0  0
   -3.9779    4.1936    1.3600 O   0  0  0  0  0  0  0  0  0  0  0  0
   -4.4400    6.6957    1.1043 O   0  0  0  0  0  0  0  0  0  0  0  0
   -2.4266    5.7032    0.0711 O   0  0  0  0  0  0  0  0  0  0  0  0
   -4.2281    4.0211   -1.5910 F   0  0  0  0  0  0  0  0  0  0  0  0
   -6.0671    4.8755   -0.7931 F   0  0  0  0  0  0  0  0  0  0  0  0
   -4.6406    6.1459   -1.8376 F   0  0  0  0  0  0  0  0  0  0  0  0
  1  2  1  0  0  0  0
  1  8  2  0  0  0  0
  2  3  1  0  0  0  0
  4  1  1  0  0  0  0
  5  4  2  0  0  0  0
  5  6  1  0  0  0  0
  6  7  2  0  0  0  0
  7  8  1  0  0  0  0
  7 12  1  0  0  0  0
  8 13  1  0  0  0  0
 10  5  1  0  0  0  0
 11  6  1  0  0  0  0
 14 17  2  0  0  0  0
 14 16  2  0  0  0  0
 15 20  1  0  0  0  0
 15 14  1  0  0  0  0
 18  9  1  0  0  0  0
 18 14  1  0  0  0  0
 19 15  1  0  0  0  0
 21 15  1  0  0  0  0
M  RAD  3   2   2   3   3   4   2
M  END
