Coordinates from ORCA-job PhN2+~TfO-_B3LYPG-6-31G_dp-CH-Scan-d09-49-n800
 OpenBabel11261919123D

 21 20  0  0  0  0  0  0  0  0999 V2000
   -1.9624    0.7556    0.1325 C   0  0  0  0  0  0  0  0  0  0  0  0
   -3.3088    1.0722    0.2502 N   0  0  0  0  0  0  0  0  0  0  0  0
   -4.3817    1.3742    0.3336 N   0  0  0  0  0  0  0  0  0  0  0  0
   -1.1225    1.8758   -0.0076 C   0  0  0  0  0  0  0  0  0  0  0  0
    0.2289    1.4553   -0.1298 C   0  0  0  0  0  0  0  0  0  0  0  0
    0.6287    0.1221   -0.1104 C   0  0  0  0  0  0  0  0  0  0  0  0
   -0.3052   -0.9309    0.0363 C   0  0  0  0  0  0  0  0  0  0  0  0
   -1.6427   -0.6296    0.1627 C   0  0  0  0  0  0  0  0  0  0  0  0
   -1.9028    4.3815    0.1128 H   0  0  0  0  0  0  0  0  0  0  0  0
    1.0036    2.2124   -0.2458 H   0  0  0  0  0  0  0  0  0  0  0  0
    1.6829   -0.1296   -0.2103 H   0  0  0  0  0  0  0  0  0  0  0  0
    0.0281   -1.9635    0.0496 H   0  0  0  0  0  0  0  0  0  0  0  0
   -2.4034   -1.3963    0.2790 H   0  0  0  0  0  0  0  0  0  0  0  0
   -3.8000    5.2833    0.5829 S   0  0  0  0  0  0  0  0  0  0  0  0
   -4.6406    5.0183   -1.0587 C   0  0  0  0  0  0  0  0  0  0  0  0
   -4.0779    4.0913    1.3759 O   0  0  0  0  0  0  0  0  0  0  0  0
   -4.1345    6.6204    1.0284 O   0  0  0  0  0  0  0  0  0  0  0  0
   -2.2677    5.2972    0.1050 O   0  0  0  0  0  0  0  0  0  0  0  0
   -4.2450    3.8450   -1.5700 F   0  0  0  0  0  0  0  0  0  0  0  0
   -5.9589    4.9917   -0.8656 F   0  0  0  0  0  0  0  0  0  0  0  0
   -4.3310    5.9962   -1.9042 F   0  0  0  0  0  0  0  0  0  0  0  0
  1  8  1  0  0  0  0
  1  2  1  0  0  0  0
  2  3  1  0  0  0  0
  4  1  2  0  0  0  0
  5  6  2  0  0  0  0
  5  4  1  0  0  0  0
  6  7  1  0  0  0  0
  7 12  1  0  0  0  0
  7  8  2  0  0  0  0
  8 13  1  0  0  0  0
 10  5  1  0  0  0  0
 11  6  1  0  0  0  0
 14 17  2  0  0  0  0
 14 16  2  0  0  0  0
 15 20  1  0  0  0  0
 15 14  1  0  0  0  0
 18  9  1  0  0  0  0
 18 14  1  0  0  0  0
 19 15  1  0  0  0  0
 21 15  1  0  0  0  0
M  RAD  3   2   2   3   3   4   2
M  END
