Coordinates from ORCA-job PhN2+~TfO-_B3LYPG-6-31G_dp-CH-Scan-d09-49-n800
 OpenBabel11261919123D

 21 20  0  0  0  0  0  0  0  0999 V2000
   -1.8894    1.1042   -0.6172 C   0  0  0  0  0  0  0  0  0  0  0  0
   -3.0789    1.2307   -1.3247 N   0  0  0  0  0  0  0  0  0  0  0  0
   -4.0153    1.1438   -1.9167 N   0  0  0  0  0  0  0  0  0  0  0  0
   -0.9135    2.1072   -0.7073 C   0  0  0  0  0  0  0  0  0  0  0  0
    0.2695    1.8880   -0.0086 C   0  0  0  0  0  0  0  0  0  0  0  0
    0.4515    0.7264    0.7464 C   0  0  0  0  0  0  0  0  0  0  0  0
   -0.5487   -0.2520    0.8169 C   0  0  0  0  0  0  0  0  0  0  0  0
   -1.7408   -0.0772    0.1297 C   0  0  0  0  0  0  0  0  0  0  0  0
   -1.0870    2.9079   -1.2078 H   0  0  0  0  0  0  0  0  0  0  0  0
    1.0440    2.6466   -0.0418 H   0  0  0  0  0  0  0  0  0  0  0  0
    1.3775    0.5826    1.2939 H   0  0  0  0  0  0  0  0  0  0  0  0
   -0.4016   -1.1466    1.4121 H   0  0  0  0  0  0  0  0  0  0  0  0
   -2.5406   -0.8077    0.1729 H   0  0  0  0  0  0  0  0  0  0  0  0
   -3.5091    4.0207   -0.0029 S   0  0  0  0  0  0  0  0  0  0  0  0
   -4.8862    5.2632   -0.0720 C   0  0  0  0  0  0  0  0  0  0  0  0
   -4.1448    2.7961    0.5563 O   0  0  0  0  0  0  0  0  0  0  0  0
   -2.4630    4.6380    0.8310 O   0  0  0  0  0  0  0  0  0  0  0  0
   -3.1324    3.8445   -1.4427 O   0  0  0  0  0  0  0  0  0  0  0  0
   -5.8938    4.8038   -0.8314 F   0  0  0  0  0  0  0  0  0  0  0  0
   -5.3590    5.5063    1.1579 F   0  0  0  0  0  0  0  0  0  0  0  0
   -4.4510    6.4163   -0.5978 F   0  0  0  0  0  0  0  0  0  0  0  0
  1  8  1  0  0  0  0
  2  1  1  0  0  0  0
  3  2  1  0  0  0  0
  4  1  2  0  0  0  0
  4  5  1  0  0  0  0
  5  6  2  0  0  0  0
  6  7  1  0  0  0  0
  6 11  1  0  0  0  0
  7 12  1  0  0  0  0
  8 13  1  0  0  0  0
  8  7  2  0  0  0  0
  9  4  1  0  0  0  0
 10  5  1  0  0  0  0
 14 16  2  0  0  0  0
 14 17  1  0  0  0  0
 15 14  1  0  0  0  0
 15 20  1  0  0  0  0
 18 14  2  0  0  0  0
 19 15  1  0  0  0  0
 21 15  1  0  0  0  0
M  RAD  3   2   2   3   3  17   2
M  END
