Coordinates from ORCA-job PhN2+~TfO-_B3LYPG-6-31G_dp-CH-Scan-d09-49-n800
 OpenBabel11261919123D

 21 20  0  0  0  0  0  0  0  0999 V2000
   -1.7854    0.6442   -0.1628 C   0  0  0  0  0  0  0  0  0  0  0  0
   -3.0820    1.1518   -0.2440 N   0  0  0  0  0  0  0  0  0  0  0  0
   -4.0890    1.6285   -0.3526 N   0  0  0  0  0  0  0  0  0  0  0  0
   -0.8334    1.5705   -0.6120 C   0  0  0  0  0  0  0  0  0  0  0  0
    0.4634    0.9860   -0.5168 C   0  0  0  0  0  0  0  0  0  0  0  0
    0.7022   -0.2999   -0.0429 C   0  0  0  0  0  0  0  0  0  0  0  0
   -0.3522   -1.1445    0.3881 C   0  0  0  0  0  0  0  0  0  0  0  0
   -1.6470   -0.6799    0.3351 C   0  0  0  0  0  0  0  0  0  0  0  0
   -1.9749    5.7131    0.3548 H   0  0  0  0  0  0  0  0  0  0  0  0
    1.3278    1.5730   -0.8302 H   0  0  0  0  0  0  0  0  0  0  0  0
    1.7212   -0.6815    0.0048 H   0  0  0  0  0  0  0  0  0  0  0  0
   -0.1401   -2.1434    0.7545 H   0  0  0  0  0  0  0  0  0  0  0  0
   -2.4968   -1.2793    0.6505 H   0  0  0  0  0  0  0  0  0  0  0  0
   -4.0750    5.4699    0.7300 S   0  0  0  0  0  0  0  0  0  0  0  0
   -4.6937    5.0559   -0.9808 C   0  0  0  0  0  0  0  0  0  0  0  0
   -3.6814    4.2167    1.3587 O   0  0  0  0  0  0  0  0  0  0  0  0
   -5.0125    6.4025    1.3187 O   0  0  0  0  0  0  0  0  0  0  0  0
   -2.7432    6.3105    0.3292 O   0  0  0  0  0  0  0  0  0  0  0  0
   -3.7607    4.3526   -1.6255 F   0  0  0  0  0  0  0  0  0  0  0  0
   -5.8002    4.3243   -0.8596 F   0  0  0  0  0  0  0  0  0  0  0  0
   -4.9600    6.1718   -1.6507 F   0  0  0  0  0  0  0  0  0  0  0  0
  1  8  2  0  0  0  0
  2  1  1  0  0  0  0
  3  2  1  0  0  0  0
  4  5  2  0  0  0  0
  4  1  1  0  0  0  0
  5  6  1  0  0  0  0
  6 11  1  0  0  0  0
  6  7  2  0  0  0  0
  7 12  1  0  0  0  0
  8  7  1  0  0  0  0
  8 13  1  0  0  0  0
 10  5  1  0  0  0  0
 14 17  2  0  0  0  0
 14 16  2  0  0  0  0
 15 20  1  0  0  0  0
 15 14  1  0  0  0  0
 18  9  1  0  0  0  0
 18 14  1  0  0  0  0
 19 15  1  0  0  0  0
 21 15  1  0  0  0  0
M  RAD  3   2   2   3   3   4   2
M  END
