Coordinates from ORCA-job PhN2+~TfO-_B3LYPG-6-31G_dp-CH-Scan-d09-49-n800
 OpenBabel11261919123D

 21 20  0  0  0  0  0  0  0  0999 V2000
   -1.8859    0.7029    0.0764 C   0  0  0  0  0  0  0  0  0  0  0  0
   -3.2229    1.0762    0.1423 N   0  0  0  0  0  0  0  0  0  0  0  0
   -4.2831    1.4303    0.1807 N   0  0  0  0  0  0  0  0  0  0  0  0
   -1.0108    1.7923   -0.0795 C   0  0  0  0  0  0  0  0  0  0  0  0
    0.3294    1.3203   -0.1469 C   0  0  0  0  0  0  0  0  0  0  0  0
    0.6831   -0.0232   -0.0656 C   0  0  0  0  0  0  0  0  0  0  0  0
   -0.2895   -1.0403    0.0923 C   0  0  0  0  0  0  0  0  0  0  0  0
   -1.6189   -0.6912    0.1671 C   0  0  0  0  0  0  0  0  0  0  0  0
   -1.9093    4.7056    0.0770 H   0  0  0  0  0  0  0  0  0  0  0  0
    1.1342    2.0454   -0.2684 H   0  0  0  0  0  0  0  0  0  0  0  0
    1.7308   -0.3133   -0.1235 H   0  0  0  0  0  0  0  0  0  0  0  0
    0.0095   -2.0816    0.1545 H   0  0  0  0  0  0  0  0  0  0  0  0
   -2.4089   -1.4273    0.2884 H   0  0  0  0  0  0  0  0  0  0  0  0
   -3.8807    5.3849    0.5955 S   0  0  0  0  0  0  0  0  0  0  0  0
   -4.7438    5.0793   -1.0285 C   0  0  0  0  0  0  0  0  0  0  0  0
   -3.9956    4.1517    1.3631 O   0  0  0  0  0  0  0  0  0  0  0  0
   -4.3275    6.6712    1.0880 O   0  0  0  0  0  0  0  0  0  0  0  0
   -2.3684    5.5692    0.0633 O   0  0  0  0  0  0  0  0  0  0  0  0
   -4.2419    3.9735   -1.5906 F   0  0  0  0  0  0  0  0  0  0  0  0
   -6.0431    4.9051   -0.7925 F   0  0  0  0  0  0  0  0  0  0  0  0
   -4.5694    6.1120   -1.8464 F   0  0  0  0  0  0  0  0  0  0  0  0
  1  2  1  0  0  0  0
  1  8  2  0  0  0  0
  2  3  1  0  0  0  0
  4  1  1  0  0  0  0
  5  4  2  0  0  0  0
  5  6  1  0  0  0  0
  6  7  2  0  0  0  0
  7 12  1  0  0  0  0
  7  8  1  0  0  0  0
  8 13  1  0  0  0  0
 10  5  1  0  0  0  0
 11  6  1  0  0  0  0
 14 17  2  0  0  0  0
 14 16  2  0  0  0  0
 15 20  1  0  0  0  0
 15 14  1  0  0  0  0
 18  9  1  0  0  0  0
 18 14  1  0  0  0  0
 19 15  1  0  0  0  0
 21 15  1  0  0  0  0
M  RAD  3   2   2   3   3   4   2
M  END
