Coordinates from ORCA-job PhN2+~TfO-_B3LYPG-6-31G_dp-CH-Scan-d09-49-n800
 OpenBabel11261919123D

 21 20  0  0  0  0  0  0  0  0999 V2000
   -1.9607    0.7540    0.1316 C   0  0  0  0  0  0  0  0  0  0  0  0
   -3.3069    1.0718    0.2485 N   0  0  0  0  0  0  0  0  0  0  0  0
   -4.3795    1.3754    0.3314 N   0  0  0  0  0  0  0  0  0  0  0  0
   -1.1202    1.8737   -0.0085 C   0  0  0  0  0  0  0  0  0  0  0  0
    0.2310    1.4522   -0.1296 C   0  0  0  0  0  0  0  0  0  0  0  0
    0.6299    0.1187   -0.1095 C   0  0  0  0  0  0  0  0  0  0  0  0
   -0.3047   -0.9337    0.0370 C   0  0  0  0  0  0  0  0  0  0  0  0
   -1.6420   -0.6315    0.1624 C   0  0  0  0  0  0  0  0  0  0  0  0
   -1.9030    4.3892    0.1115 H   0  0  0  0  0  0  0  0  0  0  0  0
    1.0064    2.2087   -0.2455 H   0  0  0  0  0  0  0  0  0  0  0  0
    1.6841   -0.1337   -0.2086 H   0  0  0  0  0  0  0  0  0  0  0  0
    0.0279   -1.9664    0.0509 H   0  0  0  0  0  0  0  0  0  0  0  0
   -2.4033   -1.3976    0.2785 H   0  0  0  0  0  0  0  0  0  0  0  0
   -3.8020    5.2862    0.5831 S   0  0  0  0  0  0  0  0  0  0  0  0
   -4.6429    5.0197   -1.0582 C   0  0  0  0  0  0  0  0  0  0  0  0
   -4.0763    4.0934    1.3761 O   0  0  0  0  0  0  0  0  0  0  0  0
   -4.1392    6.6225    1.0291 O   0  0  0  0  0  0  0  0  0  0  0  0
   -2.2698    5.3039    0.1041 O   0  0  0  0  0  0  0  0  0  0  0  0
   -4.2445    3.8477   -1.5701 F   0  0  0  0  0  0  0  0  0  0  0  0
   -5.9610    4.9897   -0.8642 F   0  0  0  0  0  0  0  0  0  0  0  0
   -4.3362    5.9988   -1.9034 F   0  0  0  0  0  0  0  0  0  0  0  0
  1  8  1  0  0  0  0
  1  2  1  0  0  0  0
  2  3  1  0  0  0  0
  4  1  2  0  0  0  0
  5  6  2  0  0  0  0
  5  4  1  0  0  0  0
  6  7  1  0  0  0  0
  7 12  1  0  0  0  0
  7  8  2  0  0  0  0
  8 13  1  0  0  0  0
 10  5  1  0  0  0  0
 11  6  1  0  0  0  0
 14 17  2  0  0  0  0
 14 16  2  0  0  0  0
 15 20  1  0  0  0  0
 15 14  1  0  0  0  0
 18  9  1  0  0  0  0
 18 14  1  0  0  0  0
 19 15  1  0  0  0  0
 21 15  1  0  0  0  0
M  RAD  3   2   2   3   3   4   2
M  END
