Coordinates from ORCA-job PhN2+~TfO-_B3LYPG-6-31G_dp-CH-Scan-d09-49-n800
 OpenBabel11261919123D

 21 20  0  0  0  0  0  0  0  0999 V2000
   -2.0959    0.8853    0.0666 C   0  0  0  0  0  0  0  0  0  0  0  0
   -3.4628    1.1086    0.0923 N   0  0  0  0  0  0  0  0  0  0  0  0
   -4.5564    1.3276    0.1057 N   0  0  0  0  0  0  0  0  0  0  0  0
   -1.2916    2.0324   -0.0731 C   0  0  0  0  0  0  0  0  0  0  0  0
    0.0811    1.7042   -0.0978 C   0  0  0  0  0  0  0  0  0  0  0  0
    0.5542    0.3975    0.0058 C   0  0  0  0  0  0  0  0  0  0  0  0
   -0.3270   -0.6959    0.1433 C   0  0  0  0  0  0  0  0  0  0  0  0
   -1.6864   -0.4684    0.1755 C   0  0  0  0  0  0  0  0  0  0  0  0
   -1.8401    3.5992   -0.1299 H   0  0  0  0  0  0  0  0  0  0  0  0
    0.8056    2.5093   -0.2000 H   0  0  0  0  0  0  0  0  0  0  0  0
    1.6247    0.2067   -0.0187 H   0  0  0  0  0  0  0  0  0  0  0  0
    0.0584   -1.7067    0.2241 H   0  0  0  0  0  0  0  0  0  0  0  0
   -2.4060   -1.2741    0.2806 H   0  0  0  0  0  0  0  0  0  0  0  0
   -3.4959    4.9588    0.5191 S   0  0  0  0  0  0  0  0  0  0  0  0
   -4.6109    5.0030   -0.9677 C   0  0  0  0  0  0  0  0  0  0  0  0
   -3.9542    3.8017    1.2976 O   0  0  0  0  0  0  0  0  0  0  0  0
   -3.5169    6.2954    1.0908 O   0  0  0  0  0  0  0  0  0  0  0  0
   -2.1280    4.6627   -0.1710 O   0  0  0  0  0  0  0  0  0  0  0  0
   -4.5811    3.8039   -1.5815 F   0  0  0  0  0  0  0  0  0  0  0  0
   -5.8642    5.2542   -0.5829 F   0  0  0  0  0  0  0  0  0  0  0  0
   -4.2195    5.9376   -1.8325 F   0  0  0  0  0  0  0  0  0  0  0  0
  1  2  1  0  0  0  0
  1  8  2  0  0  0  0
  2  3  1  0  0  0  0
  4  1  1  0  0  0  0
  5  4  2  0  0  0  0
  5  6  1  0  0  0  0
  6  7  2  0  0  0  0
  7  8  1  0  0  0  0
  7 12  1  0  0  0  0
  8 13  1  0  0  0  0
 10  5  1  0  0  0  0
 11  6  1  0  0  0  0
 14 17  2  0  0  0  0
 14 16  2  0  0  0  0
 15 20  1  0  0  0  0
 15 14  1  0  0  0  0
 18  9  1  0  0  0  0
 18 14  1  0  0  0  0
 19 15  1  0  0  0  0
 21 15  1  0  0  0  0
M  RAD  3   2   2   3   3   4   2
M  END
