Coordinates from ORCA-job PhN2+~TfO-_B3LYPG-6-31G_dp-CH-Scan-d09-49-n800
 OpenBabel11261919123D

 21 20  0  0  0  0  0  0  0  0999 V2000
   -1.8878    1.1027   -0.6147 C   0  0  0  0  0  0  0  0  0  0  0  0
   -3.0772    1.2315   -1.3218 N   0  0  0  0  0  0  0  0  0  0  0  0
   -4.0141    1.1468   -1.9134 N   0  0  0  0  0  0  0  0  0  0  0  0
   -0.9097    2.1035   -0.7053 C   0  0  0  0  0  0  0  0  0  0  0  0
    0.2737    1.8827   -0.0081 C   0  0  0  0  0  0  0  0  0  0  0  0
    0.4539    0.7204    0.7464 C   0  0  0  0  0  0  0  0  0  0  0  0
   -0.5481   -0.2562    0.8177 C   0  0  0  0  0  0  0  0  0  0  0  0
   -1.7406   -0.0792    0.1319 C   0  0  0  0  0  0  0  0  0  0  0  0
   -1.0909    2.9302   -1.2192 H   0  0  0  0  0  0  0  0  0  0  0  0
    1.0498    2.6396   -0.0418 H   0  0  0  0  0  0  0  0  0  0  0  0
    1.3802    0.5746    1.2930 H   0  0  0  0  0  0  0  0  0  0  0  0
   -0.4020   -1.1511    1.4126 H   0  0  0  0  0  0  0  0  0  0  0  0
   -2.5416   -0.8084    0.1755 H   0  0  0  0  0  0  0  0  0  0  0  0
   -3.5094    4.0251   -0.0026 S   0  0  0  0  0  0  0  0  0  0  0  0
   -4.8904    5.2632   -0.0734 C   0  0  0  0  0  0  0  0  0  0  0  0
   -4.1418    2.7990    0.5570 O   0  0  0  0  0  0  0  0  0  0  0  0
   -2.4658    4.6463    0.8314 O   0  0  0  0  0  0  0  0  0  0  0  0
   -3.1315    3.8492   -1.4423 O   0  0  0  0  0  0  0  0  0  0  0  0
   -5.8961    4.8001   -0.8331 F   0  0  0  0  0  0  0  0  0  0  0  0
   -5.3648    5.5055    1.1562 F   0  0  0  0  0  0  0  0  0  0  0  0
   -4.4586    6.4173   -0.5995 F   0  0  0  0  0  0  0  0  0  0  0  0
  1  8  1  0  0  0  0
  2  1  1  0  0  0  0
  3  2  1  0  0  0  0
  4  1  2  0  0  0  0
  4  5  1  0  0  0  0
  5  6  2  0  0  0  0
  6  7  1  0  0  0  0
  6 11  1  0  0  0  0
  7 12  1  0  0  0  0
  8 13  1  0  0  0  0
  8  7  2  0  0  0  0
  9  4  1  0  0  0  0
 10  5  1  0  0  0  0
 14 16  2  0  0  0  0
 14 17  1  0  0  0  0
 15 14  1  0  0  0  0
 15 20  1  0  0  0  0
 18 14  2  0  0  0  0
 19 15  1  0  0  0  0
 21 15  1  0  0  0  0
M  RAD  3   2   2   3   3  17   2
M  END
