Coordinates from ORCA-job PhN2+~TfO-_B3LYPG-6-31G_dp-CH-Scan-d09-49-n800
 OpenBabel11261919123D

 21 20  0  0  0  0  0  0  0  0999 V2000
   -2.0775    0.8548    0.0865 C   0  0  0  0  0  0  0  0  0  0  0  0
   -3.4426    1.0873    0.1399 N   0  0  0  0  0  0  0  0  0  0  0  0
   -4.5343    1.3165    0.1742 N   0  0  0  0  0  0  0  0  0  0  0  0
   -1.2780    2.0053   -0.0558 C   0  0  0  0  0  0  0  0  0  0  0  0
    0.0942    1.6648   -0.1079 C   0  0  0  0  0  0  0  0  0  0  0  0
    0.5633    0.3557   -0.0266 C   0  0  0  0  0  0  0  0  0  0  0  0
   -0.3197   -0.7373    0.1154 C   0  0  0  0  0  0  0  0  0  0  0  0
   -1.6765   -0.5043    0.1746 C   0  0  0  0  0  0  0  0  0  0  0  0
   -1.8695    3.7541   -0.0784 H   0  0  0  0  0  0  0  0  0  0  0  0
    0.8247    2.4644   -0.2152 H   0  0  0  0  0  0  0  0  0  0  0  0
    1.6325    0.1602   -0.0724 H   0  0  0  0  0  0  0  0  0  0  0  0
    0.0637   -1.7502    0.1783 H   0  0  0  0  0  0  0  0  0  0  0  0
   -2.3985   -1.3075    0.2842 H   0  0  0  0  0  0  0  0  0  0  0  0
   -3.5539    5.0208    0.5408 S   0  0  0  0  0  0  0  0  0  0  0  0
   -4.6029    5.0036   -0.9951 C   0  0  0  0  0  0  0  0  0  0  0  0
   -3.9947    3.8623    1.3205 O   0  0  0  0  0  0  0  0  0  0  0  0
   -3.6220    6.3680    1.0780 O   0  0  0  0  0  0  0  0  0  0  0  0
   -2.1346    4.7674   -0.0926 O   0  0  0  0  0  0  0  0  0  0  0  0
   -4.4998    3.8010   -1.5889 F   0  0  0  0  0  0  0  0  0  0  0  0
   -5.8781    5.2116   -0.6626 F   0  0  0  0  0  0  0  0  0  0  0  0
   -4.2085    5.9443   -1.8505 F   0  0  0  0  0  0  0  0  0  0  0  0
  1  2  1  0  0  0  0
  1  8  2  0  0  0  0
  2  3  1  0  0  0  0
  4  1  1  0  0  0  0
  5  4  2  0  0  0  0
  5  6  1  0  0  0  0
  6  7  2  0  0  0  0
  7  8  1  0  0  0  0
  7 12  1  0  0  0  0
  8 13  1  0  0  0  0
 10  5  1  0  0  0  0
 11  6  1  0  0  0  0
 14 17  2  0  0  0  0
 14 16  2  0  0  0  0
 15 20  1  0  0  0  0
 15 14  1  0  0  0  0
 18  9  1  0  0  0  0
 18 14  1  0  0  0  0
 19 15  1  0  0  0  0
 21 15  1  0  0  0  0
M  RAD  3   2   2   3   3   4   2
M  END
