Coordinates from ORCA-job PhN2+~TfO-_B3LYPG-6-31G_dp-CH-Scan-d09-49-n800
 OpenBabel11261919123D

 21 20  0  0  0  0  0  0  0  0999 V2000
   -1.9446    0.9188   -0.0278 C   0  0  0  0  0  0  0  0  0  0  0  0
   -3.2866    1.2552   -0.1379 N   0  0  0  0  0  0  0  0  0  0  0  0
   -4.3134    1.7046   -0.1425 N   0  0  0  0  0  0  0  0  0  0  0  0
   -1.0094    1.9633   -0.0824 C   0  0  0  0  0  0  0  0  0  0  0  0
    0.3306    1.6034    0.0392 C   0  0  0  0  0  0  0  0  0  0  0  0
    0.6960    0.2651    0.2110 C   0  0  0  0  0  0  0  0  0  0  0  0
   -0.2688   -0.7525    0.2550 C   0  0  0  0  0  0  0  0  0  0  0  0
   -1.6136   -0.4392    0.1269 C   0  0  0  0  0  0  0  0  0  0  0  0
   -1.4292    3.1173   -0.2578 H   0  0  0  0  0  0  0  0  0  0  0  0
    1.0914    2.3758    0.0014 H   0  0  0  0  0  0  0  0  0  0  0  0
    1.7456    0.0048    0.3104 H   0  0  0  0  0  0  0  0  0  0  0  0
    0.0322   -1.7860    0.3878 H   0  0  0  0  0  0  0  0  0  0  0  0
   -2.3861   -1.1995    0.1552 H   0  0  0  0  0  0  0  0  0  0  0  0
   -3.5726    4.8371    0.2780 S   0  0  0  0  0  0  0  0  0  0  0  0
   -4.9956    5.2621   -0.8360 C   0  0  0  0  0  0  0  0  0  0  0  0
   -4.0971    3.6655    1.0574 O   0  0  0  0  0  0  0  0  0  0  0  0
   -3.3097    6.0413    1.0677 O   0  0  0  0  0  0  0  0  0  0  0  0
   -2.5146    4.4316   -0.6974 O   0  0  0  0  0  0  0  0  0  0  0  0
   -5.3333    4.1862   -1.5766 F   0  0  0  0  0  0  0  0  0  0  0  0
   -6.0636    5.6291   -0.1190 F   0  0  0  0  0  0  0  0  0  0  0  0
   -4.6703    6.2589   -1.6662 F   0  0  0  0  0  0  0  0  0  0  0  0
  1  8  1  0  0  0  0
  2  1  1  0  0  0  0
  3  2  1  0  0  0  0
  4  1  2  0  0  0  0
  4  5  1  0  0  0  0
  5  6  2  0  0  0  0
  6  7  1  0  0  0  0
  6 11  1  0  0  0  0
  7 12  1  0  0  0  0
  8 13  1  0  0  0  0
  8  7  2  0  0  0  0
  9  4  1  0  0  0  0
 10  5  1  0  0  0  0
 14 16  2  0  0  0  0
 14 17  1  0  0  0  0
 15 20  1  0  0  0  0
 15 14  1  0  0  0  0
 18 14  2  0  0  0  0
 19 15  1  0  0  0  0
 21 15  1  0  0  0  0
M  RAD  3   2   2   3   3  17   2
M  END
