Coordinates from ORCA-job PhN2+~TfO-_B3LYPG-6-31G_dp-CH-Scan-d09-49-n800
 OpenBabel11261919123D

 21 20  0  0  0  0  0  0  0  0999 V2000
   -1.8403    0.6694    0.0600 C   0  0  0  0  0  0  0  0  0  0  0  0
   -3.1699    1.0740    0.1146 N   0  0  0  0  0  0  0  0  0  0  0  0
   -4.2212    1.4556    0.1400 N   0  0  0  0  0  0  0  0  0  0  0  0
   -0.9471    1.7405   -0.1120 C   0  0  0  0  0  0  0  0  0  0  0  0
    0.3842    1.2396   -0.1686 C   0  0  0  0  0  0  0  0  0  0  0  0
    0.7115   -0.1087   -0.0630 C   0  0  0  0  0  0  0  0  0  0  0  0
   -0.2809   -1.1046    0.1106 C   0  0  0  0  0  0  0  0  0  0  0  0
   -1.6034   -0.7285    0.1759 C   0  0  0  0  0  0  0  0  0  0  0  0
   -1.9251    4.9142    0.1047 H   0  0  0  0  0  0  0  0  0  0  0  0
    1.2042    1.9460   -0.3012 H   0  0  0  0  0  0  0  0  0  0  0  0
    1.7535   -0.4204   -0.1133 H   0  0  0  0  0  0  0  0  0  0  0  0
   -0.0019   -2.1501    0.1920 H   0  0  0  0  0  0  0  0  0  0  0  0
   -2.4083   -1.4466    0.3080 H   0  0  0  0  0  0  0  0  0  0  0  0
   -3.9444    5.4516    0.6041 S   0  0  0  0  0  0  0  0  0  0  0  0
   -4.7825    5.1082   -1.0259 C   0  0  0  0  0  0  0  0  0  0  0  0
   -3.9740    4.2064    1.3598 O   0  0  0  0  0  0  0  0  0  0  0  0
   -4.4725    6.7021    1.1076 O   0  0  0  0  0  0  0  0  0  0  0  0
   -2.4434    5.7403    0.0753 O   0  0  0  0  0  0  0  0  0  0  0  0
   -4.2217    4.0335   -1.5904 F   0  0  0  0  0  0  0  0  0  0  0  0
   -6.0717    4.8664   -0.7955 F   0  0  0  0  0  0  0  0  0  0  0  0
   -4.6579    6.1537   -1.8364 F   0  0  0  0  0  0  0  0  0  0  0  0
  1  2  1  0  0  0  0
  1  8  2  0  0  0  0
  2  3  1  0  0  0  0
  4  1  1  0  0  0  0
  5  4  2  0  0  0  0
  5  6  1  0  0  0  0
  6  7  2  0  0  0  0
  7  8  1  0  0  0  0
  7 12  1  0  0  0  0
  8 13  1  0  0  0  0
 10  5  1  0  0  0  0
 11  6  1  0  0  0  0
 14 17  2  0  0  0  0
 14 16  2  0  0  0  0
 15 20  1  0  0  0  0
 15 14  1  0  0  0  0
 18  9  1  0  0  0  0
 18 14  1  0  0  0  0
 19 15  1  0  0  0  0
 21 15  1  0  0  0  0
M  RAD  3   2   2   3   3   4   2
M  END
