Coordinates from ORCA-job PhN2+~TfO-_B3LYPG-6-31G_dp-CH-Scan-d09-49-n800
 OpenBabel11261919123D

 21 20  0  0  0  0  0  0  0  0999 V2000
   -1.7854    0.6320    0.0256 C   0  0  0  0  0  0  0  0  0  0  0  0
   -3.1028    1.0807    0.0611 N   0  0  0  0  0  0  0  0  0  0  0  0
   -4.1396    1.5021    0.0678 N   0  0  0  0  0  0  0  0  0  0  0  0
   -0.8668    1.6735   -0.1836 C   0  0  0  0  0  0  0  0  0  0  0  0
    0.4510    1.1331   -0.2190 C   0  0  0  0  0  0  0  0  0  0  0  0
    0.7414   -0.2182   -0.0611 C   0  0  0  0  0  0  0  0  0  0  0  0
   -0.2780   -1.1805    0.1478 C   0  0  0  0  0  0  0  0  0  0  0  0
   -1.5899   -0.7666    0.1951 C   0  0  0  0  0  0  0  0  0  0  0  0
   -1.9542    5.2077    0.1594 H   0  0  0  0  0  0  0  0  0  0  0  0
    1.2909    1.8108   -0.3767 H   0  0  0  0  0  0  0  0  0  0  0  0
    1.7747   -0.5600   -0.0964 H   0  0  0  0  0  0  0  0  0  0  0  0
   -0.0269   -2.2291    0.2700 H   0  0  0  0  0  0  0  0  0  0  0  0
   -2.4146   -1.4568    0.3518 H   0  0  0  0  0  0  0  0  0  0  0  0
   -4.0264    5.5282    0.6233 S   0  0  0  0  0  0  0  0  0  0  0  0
   -4.8146    5.1325   -1.0199 C   0  0  0  0  0  0  0  0  0  0  0  0
   -3.9300    4.2755    1.3598 O   0  0  0  0  0  0  0  0  0  0  0  0
   -4.6779    6.7126    1.1416 O   0  0  0  0  0  0  0  0  0  0  0  0
   -2.5546    5.9732    0.1098 O   0  0  0  0  0  0  0  0  0  0  0  0
   -4.1598    4.1153   -1.5878 F   0  0  0  0  0  0  0  0  0  0  0  0
   -6.0810    4.7821   -0.8055 F   0  0  0  0  0  0  0  0  0  0  0  0
   -4.7686    6.1947   -1.8169 F   0  0  0  0  0  0  0  0  0  0  0  0
  1  2  1  0  0  0  0
  1  8  2  0  0  0  0
  2  3  1  0  0  0  0
  4  1  1  0  0  0  0
  5  4  2  0  0  0  0
  5  6  1  0  0  0  0
  6  7  2  0  0  0  0
  7  8  1  0  0  0  0
  7 12  1  0  0  0  0
  8 13  1  0  0  0  0
 10  5  1  0  0  0  0
 11  6  1  0  0  0  0
 14 17  2  0  0  0  0
 14 16  2  0  0  0  0
 15 20  1  0  0  0  0
 15 14  1  0  0  0  0
 18  9  1  0  0  0  0
 18 14  1  0  0  0  0
 19 15  1  0  0  0  0
 21 15  1  0  0  0  0
M  RAD  3   2   2   3   3   4   2
M  END
