Coordinates from ORCA-job PhN2+~TfO-_B3LYPG-6-31G_dp-CH-Scan-d09-49-n800
 OpenBabel11261919123D

 21 20  0  0  0  0  0  0  0  0999 V2000
   -1.7888    0.6460   -0.1601 C   0  0  0  0  0  0  0  0  0  0  0  0
   -3.0864    1.1512   -0.2403 N   0  0  0  0  0  0  0  0  0  0  0  0
   -4.0943    1.6261   -0.3479 N   0  0  0  0  0  0  0  0  0  0  0  0
   -0.8381    1.5764   -0.6038 C   0  0  0  0  0  0  0  0  0  0  0  0
    0.4597    0.9939   -0.5100 C   0  0  0  0  0  0  0  0  0  0  0  0
    0.7006   -0.2936   -0.0416 C   0  0  0  0  0  0  0  0  0  0  0  0
   -0.3525   -1.1423    0.3842 C   0  0  0  0  0  0  0  0  0  0  0  0
   -1.6482   -0.6802    0.3318 C   0  0  0  0  0  0  0  0  0  0  0  0
   -1.9691    5.6991    0.3463 H   0  0  0  0  0  0  0  0  0  0  0  0
    1.3233    1.5841   -0.8197 H   0  0  0  0  0  0  0  0  0  0  0  0
    1.7203   -0.6733    0.0054 H   0  0  0  0  0  0  0  0  0  0  0  0
   -0.1389   -2.1425    0.7463 H   0  0  0  0  0  0  0  0  0  0  0  0
   -2.4971   -1.2827    0.6435 H   0  0  0  0  0  0  0  0  0  0  0  0
   -4.0694    5.4669    0.7282 S   0  0  0  0  0  0  0  0  0  0  0  0
   -4.6935    5.0537   -0.9807 C   0  0  0  0  0  0  0  0  0  0  0  0
   -3.6812    4.2125    1.3578 O   0  0  0  0  0  0  0  0  0  0  0  0
   -5.0012    6.4050    1.3175 O   0  0  0  0  0  0  0  0  0  0  0  0
   -2.7344    6.3006    0.3240 O   0  0  0  0  0  0  0  0  0  0  0  0
   -3.7644    4.3463   -1.6269 F   0  0  0  0  0  0  0  0  0  0  0  0
   -5.8022    4.3261   -0.8564 F   0  0  0  0  0  0  0  0  0  0  0  0
   -4.9572    6.1698   -1.6512 F   0  0  0  0  0  0  0  0  0  0  0  0
  1  8  2  0  0  0  0
  2  1  1  0  0  0  0
  3  2  1  0  0  0  0
  4  5  2  0  0  0  0
  4  1  1  0  0  0  0
  5  6  1  0  0  0  0
  6 11  1  0  0  0  0
  6  7  2  0  0  0  0
  7 12  1  0  0  0  0
  8  7  1  0  0  0  0
  8 13  1  0  0  0  0
 10  5  1  0  0  0  0
 14 17  2  0  0  0  0
 14 16  2  0  0  0  0
 15 20  1  0  0  0  0
 15 14  1  0  0  0  0
 18  9  1  0  0  0  0
 18 14  1  0  0  0  0
 19 15  1  0  0  0  0
 21 15  1  0  0  0  0
M  RAD  3   2   2   3   3   4   2
M  END
