Coordinates from ORCA-job PhN2+~TfO-_B3LYPG-6-31G_dp-CH-Scan-d09-49-n800
 OpenBabel11261919123D

 21 20  0  0  0  0  0  0  0  0999 V2000
   -1.9816    0.7706    0.1360 C   0  0  0  0  0  0  0  0  0  0  0  0
   -3.3307    1.0729    0.2547 N   0  0  0  0  0  0  0  0  0  0  0  0
   -4.4076    1.3593    0.3395 N   0  0  0  0  0  0  0  0  0  0  0  0
   -1.1501    1.8970   -0.0054 C   0  0  0  0  0  0  0  0  0  0  0  0
    0.2046    1.4900   -0.1284 C   0  0  0  0  0  0  0  0  0  0  0  0
    0.6164    0.1603   -0.1093 C   0  0  0  0  0  0  0  0  0  0  0  0
   -0.3079   -0.9005    0.0384 C   0  0  0  0  0  0  0  0  0  0  0  0
   -1.6480   -0.6112    0.1660 C   0  0  0  0  0  0  0  0  0  0  0  0
   -1.9045    4.2859    0.0902 H   0  0  0  0  0  0  0  0  0  0  0  0
    0.9717    2.2546   -0.2450 H   0  0  0  0  0  0  0  0  0  0  0  0
    1.6727   -0.0817   -0.2102 H   0  0  0  0  0  0  0  0  0  0  0  0
    0.0343   -1.9301    0.0517 H   0  0  0  0  0  0  0  0  0  0  0  0
   -2.4014   -1.3849    0.2833 H   0  0  0  0  0  0  0  0  0  0  0  0
   -3.7696    5.2462    0.5806 S   0  0  0  0  0  0  0  0  0  0  0  0
   -4.6238    5.0124   -1.0582 C   0  0  0  0  0  0  0  0  0  0  0  0
   -4.0844    4.0597    1.3693 O   0  0  0  0  0  0  0  0  0  0  0  0
   -4.0655    6.5903    1.0332 O   0  0  0  0  0  0  0  0  0  0  0  0
   -2.2418    5.2160    0.0999 O   0  0  0  0  0  0  0  0  0  0  0  0
   -4.2640    3.8298   -1.5763 F   0  0  0  0  0  0  0  0  0  0  0  0
   -5.9420    5.0221   -0.8616 F   0  0  0  0  0  0  0  0  0  0  0  0
   -4.2896    5.9839   -1.9021 F   0  0  0  0  0  0  0  0  0  0  0  0
  1  8  1  0  0  0  0
  1  2  1  0  0  0  0
  2  3  1  0  0  0  0
  4  1  2  0  0  0  0
  5  6  2  0  0  0  0
  5  4  1  0  0  0  0
  6  7  1  0  0  0  0
  7 12  1  0  0  0  0
  7  8  2  0  0  0  0
  8 13  1  0  0  0  0
  9 18  1  0  0  0  0
 10  5  1  0  0  0  0
 11  6  1  0  0  0  0
 14 17  2  0  0  0  0
 14 16  2  0  0  0  0
 15 20  1  0  0  0  0
 15 14  1  0  0  0  0
 18 14  1  0  0  0  0
 19 15  1  0  0  0  0
 21 15  1  0  0  0  0
M  RAD  3   2   2   3   3   4   2
M  END
