Coordinates from ORCA-job PhN2+~TfO-_B3LYPG-6-31G_dp-CH-Scan-d09-49-n800
 OpenBabel11261919123D

 21 20  0  0  0  0  0  0  0  0999 V2000
   -1.8835    0.7012    0.0745 C   0  0  0  0  0  0  0  0  0  0  0  0
   -3.2201    1.0764    0.1392 N   0  0  0  0  0  0  0  0  0  0  0  0
   -4.2798    1.4321    0.1758 N   0  0  0  0  0  0  0  0  0  0  0  0
   -1.0074    1.7895   -0.0825 C   0  0  0  0  0  0  0  0  0  0  0  0
    0.3324    1.3159   -0.1484 C   0  0  0  0  0  0  0  0  0  0  0  0
    0.6846   -0.0278   -0.0648 C   0  0  0  0  0  0  0  0  0  0  0  0
   -0.2892   -1.0437    0.0941 C   0  0  0  0  0  0  0  0  0  0  0  0
   -1.6183   -0.6931    0.1676 C   0  0  0  0  0  0  0  0  0  0  0  0
   -1.9095    4.7172    0.0777 H   0  0  0  0  0  0  0  0  0  0  0  0
    1.1381    2.0399   -0.2706 H   0  0  0  0  0  0  0  0  0  0  0  0
    1.7320   -0.3192   -0.1216 H   0  0  0  0  0  0  0  0  0  0  0  0
    0.0087   -2.0852    0.1582 H   0  0  0  0  0  0  0  0  0  0  0  0
   -2.4091   -1.4281    0.2896 H   0  0  0  0  0  0  0  0  0  0  0  0
   -3.8837    5.3882    0.5962 S   0  0  0  0  0  0  0  0  0  0  0  0
   -4.7462    5.0806   -1.0277 C   0  0  0  0  0  0  0  0  0  0  0  0
   -3.9931    4.1541    1.3631 O   0  0  0  0  0  0  0  0  0  0  0  0
   -4.3351    6.6725    1.0897 O   0  0  0  0  0  0  0  0  0  0  0  0
   -2.3722    5.5787    0.0633 O   0  0  0  0  0  0  0  0  0  0  0  0
   -4.2409    3.9769   -1.5906 F   0  0  0  0  0  0  0  0  0  0  0  0
   -6.0449    4.9022   -0.7914 F   0  0  0  0  0  0  0  0  0  0  0  0
   -4.5754    6.1144   -1.8450 F   0  0  0  0  0  0  0  0  0  0  0  0
  1  2  1  0  0  0  0
  1  8  2  0  0  0  0
  2  3  1  0  0  0  0
  4  1  1  0  0  0  0
  5  4  2  0  0  0  0
  5  6  1  0  0  0  0
  6  7  2  0  0  0  0
  7 12  1  0  0  0  0
  7  8  1  0  0  0  0
  8 13  1  0  0  0  0
 10  5  1  0  0  0  0
 11  6  1  0  0  0  0
 14 17  2  0  0  0  0
 14 16  2  0  0  0  0
 15 20  1  0  0  0  0
 15 14  1  0  0  0  0
 18  9  1  0  0  0  0
 18 14  1  0  0  0  0
 19 15  1  0  0  0  0
 21 15  1  0  0  0  0
M  RAD  3   2   2   3   3   4   2
M  END
