Coordinates from ORCA-job PhN2+~TfO-_B3LYPG-6-31G_dp-CH-Scan-d09-49-n800
 OpenBabel11261919123D

 21 20  0  0  0  0  0  0  0  0999 V2000
   -1.8244    0.6678   -0.1213 C   0  0  0  0  0  0  0  0  0  0  0  0
   -3.1324    1.1453   -0.1872 N   0  0  0  0  0  0  0  0  0  0  0  0
   -4.1517    1.5984   -0.2779 N   0  0  0  0  0  0  0  0  0  0  0  0
   -0.8872    1.6470   -0.4837 C   0  0  0  0  0  0  0  0  0  0  0  0
    0.4213    1.0870   -0.4086 C   0  0  0  0  0  0  0  0  0  0  0  0
    0.6845   -0.2239   -0.0244 C   0  0  0  0  0  0  0  0  0  0  0  0
   -0.3552   -1.1222    0.3246 C   0  0  0  0  0  0  0  0  0  0  0  0
   -1.6601   -0.6856    0.2809 C   0  0  0  0  0  0  0  0  0  0  0  0
   -1.9080    5.5214    0.2260 H   0  0  0  0  0  0  0  0  0  0  0  0
    1.2760    1.7153   -0.6631 H   0  0  0  0  0  0  0  0  0  0  0  0
    1.7118   -0.5833    0.0147 H   0  0  0  0  0  0  0  0  0  0  0  0
   -0.1246   -2.1397    0.6228 H   0  0  0  0  0  0  0  0  0  0  0  0
   -2.4997   -1.3266    0.5359 H   0  0  0  0  0  0  0  0  0  0  0  0
   -4.0014    5.4409    0.7024 S   0  0  0  0  0  0  0  0  0  0  0  0
   -4.7005    5.0288   -0.9773 C   0  0  0  0  0  0  0  0  0  0  0  0
   -3.6829    4.1771    1.3515 O   0  0  0  0  0  0  0  0  0  0  0  0
   -4.8517    6.4527    1.2929 O   0  0  0  0  0  0  0  0  0  0  0  0
   -2.6287    6.1761    0.2434 O   0  0  0  0  0  0  0  0  0  0  0  0
   -3.8232    4.2742   -1.6436 F   0  0  0  0  0  0  0  0  0  0  0  0
   -5.8324    4.3482   -0.8040 F   0  0  0  0  0  0  0  0  0  0  0  0
   -4.9423    6.1438   -1.6577 F   0  0  0  0  0  0  0  0  0  0  0  0
  1  8  2  0  0  0  0
  2  1  1  0  0  0  0
  3  2  1  0  0  0  0
  4  5  2  0  0  0  0
  4  1  1  0  0  0  0
  5  6  1  0  0  0  0
  6 11  1  0  0  0  0
  6  7  2  0  0  0  0
  7 12  1  0  0  0  0
  8  7  1  0  0  0  0
  8 13  1  0  0  0  0
  9 18  1  0  0  0  0
 10  5  1  0  0  0  0
 14 17  2  0  0  0  0
 14 16  2  0  0  0  0
 15 20  1  0  0  0  0
 15 14  1  0  0  0  0
 18 14  1  0  0  0  0
 19 15  1  0  0  0  0
 21 15  1  0  0  0  0
M  RAD  3   2   2   3   3   4   2
M  END
