Coordinates from ORCA-job PhN2+~TfO-_B3LYPG-6-31G_dp-CH-Scan-d09-49-n800
 OpenBabel11261919123D

 21 20  0  0  0  0  0  0  0  0999 V2000
   -1.7617    0.6327   -0.1794 C   0  0  0  0  0  0  0  0  0  0  0  0
   -3.0515    1.1570   -0.2660 N   0  0  0  0  0  0  0  0  0  0  0  0
   -4.0521    1.6458   -0.3808 N   0  0  0  0  0  0  0  0  0  0  0  0
   -0.8006    1.5327   -0.6609 C   0  0  0  0  0  0  0  0  0  0  0  0
    0.4889    0.9334   -0.5578 C   0  0  0  0  0  0  0  0  0  0  0  0
    0.7133   -0.3422   -0.0503 C   0  0  0  0  0  0  0  0  0  0  0  0
   -0.3496   -1.1599    0.4107 C   0  0  0  0  0  0  0  0  0  0  0  0
   -1.6383   -0.6790    0.3540 C   0  0  0  0  0  0  0  0  0  0  0  0
   -2.0144    5.8019    0.4049 H   0  0  0  0  0  0  0  0  0  0  0  0
    1.3590    1.4997   -0.8928 H   0  0  0  0  0  0  0  0  0  0  0  0
    1.7272   -0.7366    0.0008 H   0  0  0  0  0  0  0  0  0  0  0  0
   -0.1488   -2.1516    0.8024 H   0  0  0  0  0  0  0  0  0  0  0  0
   -2.4939   -1.2576    0.6917 H   0  0  0  0  0  0  0  0  0  0  0  0
   -4.1115    5.4912    0.7406 S   0  0  0  0  0  0  0  0  0  0  0  0
   -4.6982    5.0717   -0.9802 C   0  0  0  0  0  0  0  0  0  0  0  0
   -3.6849    4.2468    1.3654 O   0  0  0  0  0  0  0  0  0  0  0  0
   -5.0838    6.3901    1.3253 O   0  0  0  0  0  0  0  0  0  0  0  0
   -2.8008    6.3740    0.3592 O   0  0  0  0  0  0  0  0  0  0  0  0
   -3.7403    4.3946   -1.6162 F   0  0  0  0  0  0  0  0  0  0  0  0
   -5.7883    4.3133   -0.8770 F   0  0  0  0  0  0  0  0  0  0  0  0
   -4.9825    6.1848   -1.6473 F   0  0  0  0  0  0  0  0  0  0  0  0
  1  8  2  0  0  0  0
  2  1  1  0  0  0  0
  3  2  1  0  0  0  0
  4  5  2  0  0  0  0
  4  1  1  0  0  0  0
  5  6  1  0  0  0  0
  6 11  1  0  0  0  0
  6  7  2  0  0  0  0
  7 12  1  0  0  0  0
  8  7  1  0  0  0  0
  8 13  1  0  0  0  0
 10  5  1  0  0  0  0
 14 17  2  0  0  0  0
 14 16  2  0  0  0  0
 15 20  1  0  0  0  0
 15 14  1  0  0  0  0
 18  9  1  0  0  0  0
 18 14  1  0  0  0  0
 19 15  1  0  0  0  0
 21 15  1  0  0  0  0
M  RAD  3   2   2   3   3   4   2
M  END
