Coordinates from ORCA-job PhN2+~TfO-_B3LYPG-6-31G_dp-CH-Scan-d09-49-n800
 OpenBabel11261919123D

 21 20  0  0  0  0  0  0  0  0999 V2000
   -1.9990    0.7836    0.1387 C   0  0  0  0  0  0  0  0  0  0  0  0
   -3.3502    1.0742    0.2592 N   0  0  0  0  0  0  0  0  0  0  0  0
   -4.4292    1.3513    0.3459 N   0  0  0  0  0  0  0  0  0  0  0  0
   -1.1743    1.9155   -0.0020 C   0  0  0  0  0  0  0  0  0  0  0  0
    0.1829    1.5192   -0.1266 C   0  0  0  0  0  0  0  0  0  0  0  0
    0.6043    0.1924   -0.1097 C   0  0  0  0  0  0  0  0  0  0  0  0
   -0.3122   -0.8749    0.0373 C   0  0  0  0  0  0  0  0  0  0  0  0
   -1.6543   -0.5953    0.1663 C   0  0  0  0  0  0  0  0  0  0  0  0
   -1.9008    4.2138    0.0839 H   0  0  0  0  0  0  0  0  0  0  0  0
    0.9437    2.2899   -0.2426 H   0  0  0  0  0  0  0  0  0  0  0  0
    1.6623   -0.0417   -0.2118 H   0  0  0  0  0  0  0  0  0  0  0  0
    0.0370   -1.9021    0.0488 H   0  0  0  0  0  0  0  0  0  0  0  0
   -2.4018   -1.3745    0.2832 H   0  0  0  0  0  0  0  0  0  0  0  0
   -3.7438    5.2175    0.5783 S   0  0  0  0  0  0  0  0  0  0  0  0
   -4.6067    5.0012   -1.0579 C   0  0  0  0  0  0  0  0  0  0  0  0
   -4.0850    4.0384    1.3677 O   0  0  0  0  0  0  0  0  0  0  0  0
   -4.0133    6.5672    1.0319 O   0  0  0  0  0  0  0  0  0  0  0  0
   -2.2205    5.1538    0.0957 O   0  0  0  0  0  0  0  0  0  0  0  0
   -4.2708    3.8118   -1.5778 F   0  0  0  0  0  0  0  0  0  0  0  0
   -5.9243    5.0354   -0.8590 F   0  0  0  0  0  0  0  0  0  0  0  0
   -4.2567    5.9660   -1.9031 F   0  0  0  0  0  0  0  0  0  0  0  0
  1  8  1  0  0  0  0
  1  2  1  0  0  0  0
  2  3  1  0  0  0  0
  4  1  2  0  0  0  0
  5  6  2  0  0  0  0
  5  4  1  0  0  0  0
  6  7  1  0  0  0  0
  7 12  1  0  0  0  0
  7  8  2  0  0  0  0
  8 13  1  0  0  0  0
  9 18  1  0  0  0  0
 10  5  1  0  0  0  0
 11  6  1  0  0  0  0
 14 17  2  0  0  0  0
 14 16  2  0  0  0  0
 15 20  1  0  0  0  0
 15 14  1  0  0  0  0
 18 14  1  0  0  0  0
 19 15  1  0  0  0  0
 21 15  1  0  0  0  0
M  RAD  3   2   2   3   3   4   2
M  END
