Coordinates from ORCA-job PhN2+~TfO-_B3LYPG-6-31G_dp-CH-Scan-d09-49-n800
 OpenBabel11261919123D

 21 20  0  0  0  0  0  0  0  0999 V2000
   -1.8034    0.6437    0.0422 C   0  0  0  0  0  0  0  0  0  0  0  0
   -3.1252    1.0773    0.0875 N   0  0  0  0  0  0  0  0  0  0  0  0
   -4.1670    1.4853    0.1032 N   0  0  0  0  0  0  0  0  0  0  0  0
   -0.8939    1.6966   -0.1506 C   0  0  0  0  0  0  0  0  0  0  0  0
    0.4287    1.1699   -0.1975 C   0  0  0  0  0  0  0  0  0  0  0  0
    0.7320   -0.1813   -0.0642 C   0  0  0  0  0  0  0  0  0  0  0  0
   -0.2779   -1.1563    0.1296 C   0  0  0  0  0  0  0  0  0  0  0  0
   -1.5935   -0.7557    0.1868 C   0  0  0  0  0  0  0  0  0  0  0  0
   -1.9439    5.1050    0.1417 H   0  0  0  0  0  0  0  0  0  0  0  0
    1.2616    1.8584   -0.3447 H   0  0  0  0  0  0  0  0  0  0  0  0
    1.7684   -0.5126   -0.1078 H   0  0  0  0  0  0  0  0  0  0  0  0
   -0.0169   -2.2046    0.2327 H   0  0  0  0  0  0  0  0  0  0  0  0
   -2.4112   -1.4564    0.3330 H   0  0  0  0  0  0  0  0  0  0  0  0
   -4.0004    5.5054    0.6151 S   0  0  0  0  0  0  0  0  0  0  0  0
   -4.8045    5.1246   -1.0239 C   0  0  0  0  0  0  0  0  0  0  0  0
   -3.9508    4.2555    1.3613 O   0  0  0  0  0  0  0  0  0  0  0  0
   -4.6086    6.7164    1.1245 O   0  0  0  0  0  0  0  0  0  0  0  0
   -2.5151    5.8933    0.0976 O   0  0  0  0  0  0  0  0  0  0  0  0
   -4.1835    4.0834   -1.5869 F   0  0  0  0  0  0  0  0  0  0  0  0
   -6.0809    4.8155   -0.8049 F   0  0  0  0  0  0  0  0  0  0  0  0
   -4.7271    6.1793   -1.8283 F   0  0  0  0  0  0  0  0  0  0  0  0
  1  2  1  0  0  0  0
  1  8  2  0  0  0  0
  2  3  1  0  0  0  0
  4  1  1  0  0  0  0
  5  4  2  0  0  0  0
  5  6  1  0  0  0  0
  6  7  2  0  0  0  0
  7  8  1  0  0  0  0
  7 12  1  0  0  0  0
  8 13  1  0  0  0  0
 10  5  1  0  0  0  0
 11  6  1  0  0  0  0
 14 17  2  0  0  0  0
 14 16  2  0  0  0  0
 15 20  1  0  0  0  0
 15 14  1  0  0  0  0
 18  9  1  0  0  0  0
 18 14  1  0  0  0  0
 19 15  1  0  0  0  0
 21 15  1  0  0  0  0
M  RAD  3   2   2   3   3   4   2
M  END
