Coordinates from ORCA-job PhN2+~TfO-_B3LYPG-6-31G_dp-CH-Scan-d09-49-n800
 OpenBabel11261919123D

 21 20  0  0  0  0  0  0  0  0999 V2000
   -1.7901    0.6467   -0.1589 C   0  0  0  0  0  0  0  0  0  0  0  0
   -3.0881    1.1509   -0.2388 N   0  0  0  0  0  0  0  0  0  0  0  0
   -4.0964    1.6251   -0.3460 N   0  0  0  0  0  0  0  0  0  0  0  0
   -0.8399    1.5787   -0.6005 C   0  0  0  0  0  0  0  0  0  0  0  0
    0.4583    0.9970   -0.5071 C   0  0  0  0  0  0  0  0  0  0  0  0
    0.7000   -0.2912   -0.0411 C   0  0  0  0  0  0  0  0  0  0  0  0
   -0.3526   -1.1415    0.3826 C   0  0  0  0  0  0  0  0  0  0  0  0
   -1.6487   -0.6803    0.3304 C   0  0  0  0  0  0  0  0  0  0  0  0
   -1.9669    5.6935    0.3429 H   0  0  0  0  0  0  0  0  0  0  0  0
    1.3216    1.5885   -0.8154 H   0  0  0  0  0  0  0  0  0  0  0  0
    1.7200   -0.6702    0.0057 H   0  0  0  0  0  0  0  0  0  0  0  0
   -0.1384   -2.1422    0.7430 H   0  0  0  0  0  0  0  0  0  0  0  0
   -2.4972   -1.2841    0.6406 H   0  0  0  0  0  0  0  0  0  0  0  0
   -4.0672    5.4657    0.7275 S   0  0  0  0  0  0  0  0  0  0  0  0
   -4.6934    5.0528   -0.9807 C   0  0  0  0  0  0  0  0  0  0  0  0
   -3.6811    4.2109    1.3574 O   0  0  0  0  0  0  0  0  0  0  0  0
   -4.9966    6.4060    1.3170 O   0  0  0  0  0  0  0  0  0  0  0  0
   -2.7309    6.2966    0.3219 O   0  0  0  0  0  0  0  0  0  0  0  0
   -3.7659    4.3438   -1.6275 F   0  0  0  0  0  0  0  0  0  0  0  0
   -5.8031    4.3269   -0.8551 F   0  0  0  0  0  0  0  0  0  0  0  0
   -4.9561    6.1690   -1.6514 F   0  0  0  0  0  0  0  0  0  0  0  0
  1  8  2  0  0  0  0
  2  1  1  0  0  0  0
  3  2  1  0  0  0  0
  4  5  2  0  0  0  0
  4  1  1  0  0  0  0
  5  6  1  0  0  0  0
  6 11  1  0  0  0  0
  6  7  2  0  0  0  0
  7 12  1  0  0  0  0
  8  7  1  0  0  0  0
  8 13  1  0  0  0  0
 10  5  1  0  0  0  0
 14 17  2  0  0  0  0
 14 16  2  0  0  0  0
 15 20  1  0  0  0  0
 15 14  1  0  0  0  0
 18  9  1  0  0  0  0
 18 14  1  0  0  0  0
 19 15  1  0  0  0  0
 21 15  1  0  0  0  0
M  RAD  3   2   2   3   3   4   2
M  END
