Coordinates from ORCA-job PhN2+~TfO-_B3LYPG-6-31G_dp-CH-Scan-d09-49-n800
 OpenBabel11261919123D

 21 20  0  0  0  0  0  0  0  0999 V2000
   -1.7322    0.6209   -0.1966 C   0  0  0  0  0  0  0  0  0  0  0  0
   -3.0133    1.1655   -0.2889 N   0  0  0  0  0  0  0  0  0  0  0  0
   -4.0060    1.6689   -0.4097 N   0  0  0  0  0  0  0  0  0  0  0  0
   -0.7598    1.4900   -0.7107 C   0  0  0  0  0  0  0  0  0  0  0  0
    0.5202    0.8723   -0.5992 C   0  0  0  0  0  0  0  0  0  0  0  0
    0.7267   -0.3923   -0.0578 C   0  0  0  0  0  0  0  0  0  0  0  0
   -0.3465   -1.1785    0.4337 C   0  0  0  0  0  0  0  0  0  0  0  0
   -1.6272   -0.6773    0.3730 C   0  0  0  0  0  0  0  0  0  0  0  0
   -2.0627    5.8962    0.4527 H   0  0  0  0  0  0  0  0  0  0  0  0
    1.3972    1.4140   -0.9561 H   0  0  0  0  0  0  0  0  0  0  0  0
    1.7341   -0.8027   -0.0030 H   0  0  0  0  0  0  0  0  0  0  0  0
   -0.1596   -2.1623    0.8511 H   0  0  0  0  0  0  0  0  0  0  0  0
   -2.4899   -1.2313    0.7329 H   0  0  0  0  0  0  0  0  0  0  0  0
   -4.1530    5.5161    0.7516 S   0  0  0  0  0  0  0  0  0  0  0  0
   -4.7075    5.0915   -0.9787 C   0  0  0  0  0  0  0  0  0  0  0  0
   -3.6920    4.2820    1.3725 O   0  0  0  0  0  0  0  0  0  0  0  0
   -5.1598    6.3789    1.3322 O   0  0  0  0  0  0  0  0  0  0  0  0
   -2.8663    6.4420    0.3896 O   0  0  0  0  0  0  0  0  0  0  0  0
   -3.7236    4.4451   -1.6068 F   0  0  0  0  0  0  0  0  0  0  0  0
   -5.7775    4.3031   -0.8932 F   0  0  0  0  0  0  0  0  0  0  0  0
   -5.0141    6.2008   -1.6422 F   0  0  0  0  0  0  0  0  0  0  0  0
  1  8  2  0  0  0  0
  2  1  1  0  0  0  0
  3  2  1  0  0  0  0
  4  5  2  0  0  0  0
  4  1  1  0  0  0  0
  5  6  1  0  0  0  0
  6 11  1  0  0  0  0
  6  7  2  0  0  0  0
  7 12  1  0  0  0  0
  8  7  1  0  0  0  0
  8 13  1  0  0  0  0
 10  5  1  0  0  0  0
 14 17  2  0  0  0  0
 14 16  2  0  0  0  0
 15 20  1  0  0  0  0
 15 14  1  0  0  0  0
 18  9  1  0  0  0  0
 18 14  1  0  0  0  0
 19 15  1  0  0  0  0
 21 15  1  0  0  0  0
M  RAD  3   2   2   3   3   4   2
M  END
