Coordinates from ORCA-job PhN2+~TfO-_B3LYPG-6-31G_dp-CH-Scan-d09-49-n800
 OpenBabel11261919123D

 21 20  0  0  0  0  0  0  0  0999 V2000
   -1.7679    0.6224    0.0057 C   0  0  0  0  0  0  0  0  0  0  0  0
   -3.0806    1.0871    0.0292 N   0  0  0  0  0  0  0  0  0  0  0  0
   -4.1115    1.5228    0.0247 N   0  0  0  0  0  0  0  0  0  0  0  0
   -0.8395    1.6506   -0.2224 C   0  0  0  0  0  0  0  0  0  0  0  0
    0.4731    1.0961   -0.2436 C   0  0  0  0  0  0  0  0  0  0  0  0
    0.7495   -0.2544   -0.0569 C   0  0  0  0  0  0  0  0  0  0  0  0
   -0.2800   -1.2022    0.1691 C   0  0  0  0  0  0  0  0  0  0  0  0
   -1.5878   -0.7744    0.2044 C   0  0  0  0  0  0  0  0  0  0  0  0
   -1.9663    5.3088    0.1785 H   0  0  0  0  0  0  0  0  0  0  0  0
    1.3203    1.7618   -0.4133 H   0  0  0  0  0  0  0  0  0  0  0  0
    1.7794   -0.6072   -0.0822 H   0  0  0  0  0  0  0  0  0  0  0  0
   -0.0396   -2.2505    0.3137 H   0  0  0  0  0  0  0  0  0  0  0  0
   -2.4199   -1.4529    0.3731 H   0  0  0  0  0  0  0  0  0  0  0  0
   -4.0512    5.5490    0.6331 S   0  0  0  0  0  0  0  0  0  0  0  0
   -4.8225    5.1375   -1.0144 C   0  0  0  0  0  0  0  0  0  0  0  0
   -3.9077    4.2955    1.3605 O   0  0  0  0  0  0  0  0  0  0  0  0
   -4.7456    6.7051    1.1592 O   0  0  0  0  0  0  0  0  0  0  0  0
   -2.5951    6.0505    0.1237 O   0  0  0  0  0  0  0  0  0  0  0  0
   -4.1303    4.1498   -1.5890 F   0  0  0  0  0  0  0  0  0  0  0  0
   -6.0755    4.7399   -0.8042 F   0  0  0  0  0  0  0  0  0  0  0  0
   -4.8140    6.2074   -1.8024 F   0  0  0  0  0  0  0  0  0  0  0  0
  1  2  1  0  0  0  0
  1  8  2  0  0  0  0
  3  2  1  0  0  0  0
  4  1  1  0  0  0  0
  5  4  2  0  0  0  0
  5  6  1  0  0  0  0
  6  7  2  0  0  0  0
  7  8  1  0  0  0  0
  7 12  1  0  0  0  0
  8 13  1  0  0  0  0
 10  5  1  0  0  0  0
 11  6  1  0  0  0  0
 14 17  2  0  0  0  0
 14 16  2  0  0  0  0
 15 20  1  0  0  0  0
 15 14  1  0  0  0  0
 18  9  1  0  0  0  0
 18 14  1  0  0  0  0
 19 15  1  0  0  0  0
 21 15  1  0  0  0  0
M  RAD  3   2   2   3   3   4   2
M  END
