Coordinates from ORCA-job PhN2+~TfO-_B3LYPG-6-31G_dp-CH-Scan-d09-49-n800
 OpenBabel11261919123D

 21 20  0  0  0  0  0  0  0  0999 V2000
   -1.8255    0.6686   -0.1200 C   0  0  0  0  0  0  0  0  0  0  0  0
   -3.1338    1.1453   -0.1854 N   0  0  0  0  0  0  0  0  0  0  0  0
   -4.1534    1.5976   -0.2755 N   0  0  0  0  0  0  0  0  0  0  0  0
   -0.8887    1.6492   -0.4796 C   0  0  0  0  0  0  0  0  0  0  0  0
    0.4202    1.0899   -0.4052 C   0  0  0  0  0  0  0  0  0  0  0  0
    0.6840   -0.2217   -0.0238 C   0  0  0  0  0  0  0  0  0  0  0  0
   -0.3553   -1.1215    0.3226 C   0  0  0  0  0  0  0  0  0  0  0  0
   -1.6604   -0.6857    0.2791 C   0  0  0  0  0  0  0  0  0  0  0  0
   -1.9063    5.5154    0.2220 H   0  0  0  0  0  0  0  0  0  0  0  0
    1.2746    1.7193   -0.6577 H   0  0  0  0  0  0  0  0  0  0  0  0
    1.7115   -0.5805    0.0151 H   0  0  0  0  0  0  0  0  0  0  0  0
   -0.1242   -2.1395    0.6185 H   0  0  0  0  0  0  0  0  0  0  0  0
   -2.4998   -1.3278    0.5322 H   0  0  0  0  0  0  0  0  0  0  0  0
   -3.9992    5.4401    0.7015 S   0  0  0  0  0  0  0  0  0  0  0  0
   -4.7008    5.0280   -0.9771 C   0  0  0  0  0  0  0  0  0  0  0  0
   -3.6829    4.1761    1.3515 O   0  0  0  0  0  0  0  0  0  0  0  0
   -4.8467    6.4543    1.2919 O   0  0  0  0  0  0  0  0  0  0  0  0
   -2.6253    6.1719    0.2405 O   0  0  0  0  0  0  0  0  0  0  0  0
   -3.8252    4.2721   -1.6442 F   0  0  0  0  0  0  0  0  0  0  0  0
   -5.8332    4.3487   -0.8021 F   0  0  0  0  0  0  0  0  0  0  0  0
   -4.9421    6.1429   -1.6578 F   0  0  0  0  0  0  0  0  0  0  0  0
  1  8  2  0  0  0  0
  2  1  1  0  0  0  0
  3  2  1  0  0  0  0
  4  5  2  0  0  0  0
  4  1  1  0  0  0  0
  5  6  1  0  0  0  0
  6 11  1  0  0  0  0
  6  7  2  0  0  0  0
  7 12  1  0  0  0  0
  8  7  1  0  0  0  0
  8 13  1  0  0  0  0
  9 18  1  0  0  0  0
 10  5  1  0  0  0  0
 14 17  2  0  0  0  0
 14 16  2  0  0  0  0
 15 20  1  0  0  0  0
 15 14  1  0  0  0  0
 18 14  1  0  0  0  0
 19 15  1  0  0  0  0
 21 15  1  0  0  0  0
M  RAD  3   2   2   3   3   4   2
M  END
