Coordinates from ORCA-job PhN2+~TfO-_B3LYPG-6-31G_dp-CH-Scan-d09-49-n800
 OpenBabel11261919123D

 21 20  0  0  0  0  0  0  0  0999 V2000
   -2.0522    0.8250    0.1091 C   0  0  0  0  0  0  0  0  0  0  0  0
   -3.4137    1.0730    0.1907 N   0  0  0  0  0  0  0  0  0  0  0  0
   -4.5020    1.3163    0.2468 N   0  0  0  0  0  0  0  0  0  0  0  0
   -1.2498    1.9730   -0.0361 C   0  0  0  0  0  0  0  0  0  0  0  0
    0.1191    1.6172   -0.1178 C   0  0  0  0  0  0  0  0  0  0  0  0
    0.5775    0.3033   -0.0597 C   0  0  0  0  0  0  0  0  0  0  0  0
   -0.3124   -0.7845    0.0877 C   0  0  0  0  0  0  0  0  0  0  0  0
   -1.6652   -0.5402    0.1757 C   0  0  0  0  0  0  0  0  0  0  0  0
   -1.8889    3.9064   -0.0214 H   0  0  0  0  0  0  0  0  0  0  0  0
    0.8575    2.4091   -0.2312 H   0  0  0  0  0  0  0  0  0  0  0  0
    1.6439    0.0984   -0.1287 H   0  0  0  0  0  0  0  0  0  0  0  0
    0.0638   -1.8011    0.1322 H   0  0  0  0  0  0  0  0  0  0  0  0
   -2.3928   -1.3379    0.2908 H   0  0  0  0  0  0  0  0  0  0  0  0
   -3.6211    5.0874    0.5565 S   0  0  0  0  0  0  0  0  0  0  0  0
   -4.6017    5.0101   -1.0229 C   0  0  0  0  0  0  0  0  0  0  0  0
   -4.0387    3.9217    1.3339 O   0  0  0  0  0  0  0  0  0  0  0  0
   -3.7500    6.4392    1.0670 O   0  0  0  0  0  0  0  0  0  0  0  0
   -2.1572    4.8893   -0.0182 O   0  0  0  0  0  0  0  0  0  0  0  0
   -4.4239    3.8082   -1.5960 F   0  0  0  0  0  0  0  0  0  0  0  0
   -5.8959    5.1697   -0.7430 F   0  0  0  0  0  0  0  0  0  0  0  0
   -4.2092    5.9591   -1.8690 F   0  0  0  0  0  0  0  0  0  0  0  0
  1  8  1  0  0  0  0
  1  2  1  0  0  0  0
  2  3  1  0  0  0  0
  4  1  2  0  0  0  0
  5  6  2  0  0  0  0
  5  4  1  0  0  0  0
  6  7  1  0  0  0  0
  7 12  1  0  0  0  0
  7  8  2  0  0  0  0
  8 13  1  0  0  0  0
  9 18  1  0  0  0  0
 10  5  1  0  0  0  0
 11  6  1  0  0  0  0
 14 17  2  0  0  0  0
 14 16  2  0  0  0  0
 15 20  1  0  0  0  0
 15 14  1  0  0  0  0
 18 14  1  0  0  0  0
 19 15  1  0  0  0  0
 21 15  1  0  0  0  0
M  RAD  3   2   2   3   3   4   2
M  END
