Coordinates from ORCA-job PhN2+~TfO-_B3LYPG-6-31G_dp-CH-Scan-d09-49-n800
 OpenBabel11261919123D

 21 20  0  0  0  0  0  0  0  0999 V2000
   -2.0960    0.9030    0.0468 C   0  0  0  0  0  0  0  0  0  0  0  0
   -3.4622    1.1292    0.0431 N   0  0  0  0  0  0  0  0  0  0  0  0
   -4.5545    1.3513    0.0366 N   0  0  0  0  0  0  0  0  0  0  0  0
   -1.2774    2.0390   -0.0916 C   0  0  0  0  0  0  0  0  0  0  0  0
    0.0931    1.7175   -0.0868 C   0  0  0  0  0  0  0  0  0  0  0  0
    0.5604    0.4103    0.0425 C   0  0  0  0  0  0  0  0  0  0  0  0
   -0.3266   -0.6772    0.1766 C   0  0  0  0  0  0  0  0  0  0  0  0
   -1.6870   -0.4471    0.1795 C   0  0  0  0  0  0  0  0  0  0  0  0
   -1.8032    3.4737   -0.1822 H   0  0  0  0  0  0  0  0  0  0  0  0
    0.8158    2.5239   -0.1851 H   0  0  0  0  0  0  0  0  0  0  0  0
    1.6304    0.2170    0.0413 H   0  0  0  0  0  0  0  0  0  0  0  0
    0.0538   -1.6879    0.2779 H   0  0  0  0  0  0  0  0  0  0  0  0
   -2.4091   -1.2507    0.2810 H   0  0  0  0  0  0  0  0  0  0  0  0
   -3.4616    4.9174    0.4884 S   0  0  0  0  0  0  0  0  0  0  0  0
   -4.6451    5.0256   -0.9402 C   0  0  0  0  0  0  0  0  0  0  0  0
   -3.9242    3.7514    1.2596 O   0  0  0  0  0  0  0  0  0  0  0  0
   -3.4475    6.2361    1.1055 O   0  0  0  0  0  0  0  0  0  0  0  0
   -2.1473    4.6019   -0.2614 O   0  0  0  0  0  0  0  0  0  0  0  0
   -4.6825    3.8384   -1.5811 F   0  0  0  0  0  0  0  0  0  0  0  0
   -5.8734    5.3048   -0.4961 F   0  0  0  0  0  0  0  0  0  0  0  0
   -4.2687    5.9653   -1.8078 F   0  0  0  0  0  0  0  0  0  0  0  0
  1  8  2  0  0  0  0
  2  1  1  0  0  0  0
  3  2  1  0  0  0  0
  4  5  2  0  0  0  0
  4  1  1  0  0  0  0
  5  6  1  0  0  0  0
  6  7  2  0  0  0  0
  7  8  1  0  0  0  0
  7 12  1  0  0  0  0
  8 13  1  0  0  0  0
 10  5  1  0  0  0  0
 11  6  1  0  0  0  0
 14 17  2  0  0  0  0
 14 16  2  0  0  0  0
 15 20  1  0  0  0  0
 15 14  1  0  0  0  0
 18  9  1  0  0  0  0
 18 14  1  0  0  0  0
 19 15  1  0  0  0  0
 21 15  1  0  0  0  0
M  RAD  3   2   2   3   3   4   2
M  END
