Coordinates from ORCA-job PhN2+~TfO-_B3LYPG-6-31G_dp-CH-Scan-d09-49-n800
 OpenBabel11261919123D

 21 20  0  0  0  0  0  0  0  0999 V2000
   -1.8927    1.1140   -0.4771 C   0  0  0  0  0  0  0  0  0  0  0  0
   -3.1176    1.3651   -1.0815 N   0  0  0  0  0  0  0  0  0  0  0  0
   -4.0868    1.4084   -1.6227 N   0  0  0  0  0  0  0  0  0  0  0  0
   -0.8879    2.0909   -0.5209 C   0  0  0  0  0  0  0  0  0  0  0  0
    0.3331    1.7595    0.0548 C   0  0  0  0  0  0  0  0  0  0  0  0
    0.5247    0.5079    0.6491 C   0  0  0  0  0  0  0  0  0  0  0  0
   -0.5023   -0.4441    0.6764 C   0  0  0  0  0  0  0  0  0  0  0  0
   -1.7343   -0.1546    0.1063 C   0  0  0  0  0  0  0  0  0  0  0  0
   -1.1171    3.0623   -0.9598 H   0  0  0  0  0  0  0  0  0  0  0  0
    1.1331    2.4918    0.0520 H   0  0  0  0  0  0  0  0  0  0  0  0
    1.4819    0.2717    1.1031 H   0  0  0  0  0  0  0  0  0  0  0  0
   -0.3439   -1.4094    1.1443 H   0  0  0  0  0  0  0  0  0  0  0  0
   -2.5516   -0.8668    0.1148 H   0  0  0  0  0  0  0  0  0  0  0  0
   -3.4166    4.3342    0.0482 S   0  0  0  0  0  0  0  0  0  0  0  0
   -5.0381    5.1922   -0.2337 C   0  0  0  0  0  0  0  0  0  0  0  0
   -3.8019    3.0795    0.7566 O   0  0  0  0  0  0  0  0  0  0  0  0
   -2.5926    5.2823    0.8094 O   0  0  0  0  0  0  0  0  0  0  0  0
   -2.9477    4.0493   -1.3473 O   0  0  0  0  0  0  0  0  0  0  0  0
   -5.8740    4.3853   -0.9136 F   0  0  0  0  0  0  0  0  0  0  0  0
   -5.6155    5.5095    0.9325 F   0  0  0  0  0  0  0  0  0  0  0  0
   -4.8650    6.3138   -0.9443 F   0  0  0  0  0  0  0  0  0  0  0  0
  1  8  1  0  0  0  0
  2  1  1  0  0  0  0
  3  2  1  0  0  0  0
  4  1  2  0  0  0  0
  4  5  1  0  0  0  0
  5  6  2  0  0  0  0
  6  7  1  0  0  0  0
  6 11  1  0  0  0  0
  7 12  1  0  0  0  0
  8 13  1  0  0  0  0
  8  7  2  0  0  0  0
  9  4  1  0  0  0  0
 10  5  1  0  0  0  0
 14 16  2  0  0  0  0
 14 17  1  0  0  0  0
 15 14  1  0  0  0  0
 15 20  1  0  0  0  0
 18 14  2  0  0  0  0
 19 15  1  0  0  0  0
 21 15  1  0  0  0  0
M  RAD  3   2   2   3   3  17   2
M  END
