Coordinates from ORCA-job PhN2+~TfO-_B3LYPG-6-31G_dp-CH-Scan-d09-49-n800
 OpenBabel11261919123D

 21 20  0  0  0  0  0  0  0  0999 V2000
   -2.0083    0.7909    0.1388 C   0  0  0  0  0  0  0  0  0  0  0  0
   -3.3608    1.0749    0.2586 N   0  0  0  0  0  0  0  0  0  0  0  0
   -4.4411    1.3463    0.3448 N   0  0  0  0  0  0  0  0  0  0  0  0
   -1.1874    1.9256   -0.0018 C   0  0  0  0  0  0  0  0  0  0  0  0
    0.1713    1.5353   -0.1256 C   0  0  0  0  0  0  0  0  0  0  0  0
    0.5982    0.2103   -0.1082 C   0  0  0  0  0  0  0  0  0  0  0  0
   -0.3140   -0.8605    0.0386 C   0  0  0  0  0  0  0  0  0  0  0  0
   -1.6573   -0.5862    0.1669 C   0  0  0  0  0  0  0  0  0  0  0  0
   -1.8992    4.1710    0.0777 H   0  0  0  0  0  0  0  0  0  0  0  0
    0.9287    2.3094   -0.2414 H   0  0  0  0  0  0  0  0  0  0  0  0
    1.6572   -0.0194   -0.2097 H   0  0  0  0  0  0  0  0  0  0  0  0
    0.0392   -1.8863    0.0506 H   0  0  0  0  0  0  0  0  0  0  0  0
   -2.4017   -1.3685    0.2835 H   0  0  0  0  0  0  0  0  0  0  0  0
   -3.7283    5.2005    0.5768 S   0  0  0  0  0  0  0  0  0  0  0  0
   -4.5992    4.9967   -1.0566 C   0  0  0  0  0  0  0  0  0  0  0  0
   -4.0841    4.0251    1.3661 O   0  0  0  0  0  0  0  0  0  0  0  0
   -3.9811    6.5527    1.0327 O   0  0  0  0  0  0  0  0  0  0  0  0
   -2.2091    5.1169    0.0902 O   0  0  0  0  0  0  0  0  0  0  0  0
   -4.2798    3.8035   -1.5790 F   0  0  0  0  0  0  0  0  0  0  0  0
   -5.9159    5.0468   -0.8540 F   0  0  0  0  0  0  0  0  0  0  0  0
   -4.2402    5.9578   -1.9025 F   0  0  0  0  0  0  0  0  0  0  0  0
  1  8  1  0  0  0  0
  1  2  1  0  0  0  0
  2  3  1  0  0  0  0
  4  1  2  0  0  0  0
  5  6  2  0  0  0  0
  5  4  1  0  0  0  0
  6  7  1  0  0  0  0
  7 12  1  0  0  0  0
  7  8  2  0  0  0  0
  8 13  1  0  0  0  0
  9 18  1  0  0  0  0
 10  5  1  0  0  0  0
 11  6  1  0  0  0  0
 14 17  2  0  0  0  0
 14 16  2  0  0  0  0
 15 20  1  0  0  0  0
 15 14  1  0  0  0  0
 18 14  1  0  0  0  0
 19 15  1  0  0  0  0
 21 15  1  0  0  0  0
M  RAD  3   2   2   3   3   4   2
M  END
