Coordinates from ORCA-job PhN2+~TfO-_B3LYPG-6-31G_dp-CH-Scan-d09-49-n800
 OpenBabel11261919123D

 21 20  0  0  0  0  0  0  0  0999 V2000
   -1.9450    0.7432    0.1259 C   0  0  0  0  0  0  0  0  0  0  0  0
   -3.2895    1.0708    0.2393 N   0  0  0  0  0  0  0  0  0  0  0  0
   -4.3606    1.3813    0.3180 N   0  0  0  0  0  0  0  0  0  0  0  0
   -1.0980    1.8572   -0.0172 C   0  0  0  0  0  0  0  0  0  0  0  0
    0.2509    1.4257   -0.1334 C   0  0  0  0  0  0  0  0  0  0  0  0
    0.6411    0.0899   -0.1065 C   0  0  0  0  0  0  0  0  0  0  0  0
   -0.3008   -0.9561    0.0423 C   0  0  0  0  0  0  0  0  0  0  0  0
   -1.6363   -0.6446    0.1633 C   0  0  0  0  0  0  0  0  0  0  0  0
   -1.9055    4.4536    0.1146 H   0  0  0  0  0  0  0  0  0  0  0  0
    1.0318    2.1765   -0.2509 H   0  0  0  0  0  0  0  0  0  0  0  0
    1.6938   -0.1699   -0.2020 H   0  0  0  0  0  0  0  0  0  0  0  0
    0.0253   -1.9908    0.0615 H   0  0  0  0  0  0  0  0  0  0  0  0
   -2.4030   -1.4052    0.2810 H   0  0  0  0  0  0  0  0  0  0  0  0
   -3.8231    5.3088    0.5852 S   0  0  0  0  0  0  0  0  0  0  0  0
   -4.6597    5.0319   -1.0567 C   0  0  0  0  0  0  0  0  0  0  0  0
   -4.0717    4.1084    1.3748 O   0  0  0  0  0  0  0  0  0  0  0  0
   -4.1836    6.6374    1.0355 O   0  0  0  0  0  0  0  0  0  0  0  0
   -2.2904    5.3585    0.1040 O   0  0  0  0  0  0  0  0  0  0  0  0
   -4.2424    3.8680   -1.5715 F   0  0  0  0  0  0  0  0  0  0  0  0
   -5.9769    4.9799   -0.8618 F   0  0  0  0  0  0  0  0  0  0  0  0
   -4.3692    6.0182   -1.8990 F   0  0  0  0  0  0  0  0  0  0  0  0
  1  8  1  0  0  0  0
  1  2  1  0  0  0  0
  2  3  1  0  0  0  0
  4  1  2  0  0  0  0
  5  6  2  0  0  0  0
  5  4  1  0  0  0  0
  6  7  1  0  0  0  0
  7 12  1  0  0  0  0
  7  8  2  0  0  0  0
  8 13  1  0  0  0  0
 10  5  1  0  0  0  0
 11  6  1  0  0  0  0
 14 17  2  0  0  0  0
 14 16  2  0  0  0  0
 15 20  1  0  0  0  0
 15 14  1  0  0  0  0
 18  9  1  0  0  0  0
 18 14  1  0  0  0  0
 19 15  1  0  0  0  0
 21 15  1  0  0  0  0
M  RAD  3   2   2   3   3   4   2
M  END
