Coordinates from ORCA-job PhN2+~TfO-_B3LYPG-6-31G_dp-CH-Scan-d09-49-n800
 OpenBabel11261919123D

 21 20  0  0  0  0  0  0  0  0999 V2000
   -2.0041    0.7877    0.1389 C   0  0  0  0  0  0  0  0  0  0  0  0
   -3.3560    1.0746    0.2593 N   0  0  0  0  0  0  0  0  0  0  0  0
   -4.4358    1.3486    0.3459 N   0  0  0  0  0  0  0  0  0  0  0  0
   -1.1816    1.9211   -0.0017 C   0  0  0  0  0  0  0  0  0  0  0  0
    0.1764    1.5281   -0.1261 C   0  0  0  0  0  0  0  0  0  0  0  0
    0.6009    0.2022   -0.1091 C   0  0  0  0  0  0  0  0  0  0  0  0
   -0.3133   -0.8670    0.0378 C   0  0  0  0  0  0  0  0  0  0  0  0
   -1.6560   -0.5903    0.1667 C   0  0  0  0  0  0  0  0  0  0  0  0
   -1.8999    4.1906    0.0809 H   0  0  0  0  0  0  0  0  0  0  0  0
    0.9353    2.3006   -0.2421 H   0  0  0  0  0  0  0  0  0  0  0  0
    1.6594   -0.0294   -0.2111 H   0  0  0  0  0  0  0  0  0  0  0  0
    0.0382   -1.8934    0.0494 H   0  0  0  0  0  0  0  0  0  0  0  0
   -2.4018   -1.3712    0.2834 H   0  0  0  0  0  0  0  0  0  0  0  0
   -3.7354    5.2083    0.5775 S   0  0  0  0  0  0  0  0  0  0  0  0
   -4.6023    4.9985   -1.0574 C   0  0  0  0  0  0  0  0  0  0  0  0
   -4.0847    4.0312    1.3669 O   0  0  0  0  0  0  0  0  0  0  0  0
   -3.9960    6.5594    1.0322 O   0  0  0  0  0  0  0  0  0  0  0  0
   -2.2142    5.1338    0.0931 O   0  0  0  0  0  0  0  0  0  0  0  0
   -4.2749    3.8071   -1.5784 F   0  0  0  0  0  0  0  0  0  0  0  0
   -5.9195    5.0411   -0.8568 F   0  0  0  0  0  0  0  0  0  0  0  0
   -4.2473    5.9613   -1.9029 F   0  0  0  0  0  0  0  0  0  0  0  0
  1  8  1  0  0  0  0
  1  2  1  0  0  0  0
  2  3  1  0  0  0  0
  4  1  2  0  0  0  0
  5  6  2  0  0  0  0
  5  4  1  0  0  0  0
  6  7  1  0  0  0  0
  7 12  1  0  0  0  0
  7  8  2  0  0  0  0
  8 13  1  0  0  0  0
  9 18  1  0  0  0  0
 10  5  1  0  0  0  0
 11  6  1  0  0  0  0
 14 17  2  0  0  0  0
 14 16  2  0  0  0  0
 15 20  1  0  0  0  0
 15 14  1  0  0  0  0
 18 14  1  0  0  0  0
 19 15  1  0  0  0  0
 21 15  1  0  0  0  0
M  RAD  3   2   2   3   3   4   2
M  END
