Coordinates from ORCA-job PhN2+~TfO-_B3LYPG-6-31G_dp-CH-Scan-d09-49-n800
 OpenBabel11261919123D

 21 20  0  0  0  0  0  0  0  0999 V2000
   -1.8356    0.6659    0.0585 C   0  0  0  0  0  0  0  0  0  0  0  0
   -3.1642    1.0740    0.1122 N   0  0  0  0  0  0  0  0  0  0  0  0
   -4.2144    1.4589    0.1366 N   0  0  0  0  0  0  0  0  0  0  0  0
   -0.9405    1.7350   -0.1156 C   0  0  0  0  0  0  0  0  0  0  0  0
    0.3899    1.2310   -0.1714 C   0  0  0  0  0  0  0  0  0  0  0  0
    0.7143   -0.1177   -0.0633 C   0  0  0  0  0  0  0  0  0  0  0  0
   -0.2802   -1.1113    0.1123 C   0  0  0  0  0  0  0  0  0  0  0  0
   -1.6019   -0.7323    0.1770 C   0  0  0  0  0  0  0  0  0  0  0  0
   -1.9274    4.9368    0.1090 H   0  0  0  0  0  0  0  0  0  0  0  0
    1.2114    1.9354   -0.3055 H   0  0  0  0  0  0  0  0  0  0  0  0
    1.7556   -0.4318   -0.1131 H   0  0  0  0  0  0  0  0  0  0  0  0
   -0.0033   -2.1572    0.1958 H   0  0  0  0  0  0  0  0  0  0  0  0
   -2.4083   -1.4484    0.3105 H   0  0  0  0  0  0  0  0  0  0  0  0
   -3.9516    5.4587    0.6052 S   0  0  0  0  0  0  0  0  0  0  0  0
   -4.7857    5.1107   -1.0258 C   0  0  0  0  0  0  0  0  0  0  0  0
   -3.9720    4.2129    1.3599 O   0  0  0  0  0  0  0  0  0  0  0  0
   -4.4889    6.7051    1.1092 O   0  0  0  0  0  0  0  0  0  0  0  0
   -2.4519    5.7588    0.0777 O   0  0  0  0  0  0  0  0  0  0  0  0
   -4.2179    4.0396   -1.5899 F   0  0  0  0  0  0  0  0  0  0  0  0
   -6.0737    4.8614   -0.7969 F   0  0  0  0  0  0  0  0  0  0  0  0
   -4.6663    6.1573   -1.8359 F   0  0  0  0  0  0  0  0  0  0  0  0
  1  2  1  0  0  0  0
  1  8  2  0  0  0  0
  2  3  1  0  0  0  0
  4  1  1  0  0  0  0
  5  4  2  0  0  0  0
  5  6  1  0  0  0  0
  6  7  2  0  0  0  0
  7  8  1  0  0  0  0
  7 12  1  0  0  0  0
  8 13  1  0  0  0  0
 10  5  1  0  0  0  0
 11  6  1  0  0  0  0
 14 17  2  0  0  0  0
 14 16  2  0  0  0  0
 15 20  1  0  0  0  0
 15 14  1  0  0  0  0
 18  9  1  0  0  0  0
 18 14  1  0  0  0  0
 19 15  1  0  0  0  0
 21 15  1  0  0  0  0
M  RAD  3   2   2   3   3   4   2
M  END
