Coordinates from ORCA-job PhN2+~TfO-_B3LYPG-6-31G_dp-CH-Scan-d09-49-n800
 OpenBabel11261919123D

 21 20  0  0  0  0  0  0  0  0999 V2000
   -1.9342    0.7345    0.1207 C   0  0  0  0  0  0  0  0  0  0  0  0
   -3.2774    1.0695    0.2299 N   0  0  0  0  0  0  0  0  0  0  0  0
   -4.3468    1.3868    0.3051 N   0  0  0  0  0  0  0  0  0  0  0  0
   -1.0829    1.8449   -0.0244 C   0  0  0  0  0  0  0  0  0  0  0  0
    0.2646    1.4068   -0.1357 C   0  0  0  0  0  0  0  0  0  0  0  0
    0.6490    0.0695   -0.1027 C   0  0  0  0  0  0  0  0  0  0  0  0
   -0.2977   -0.9721    0.0477 C   0  0  0  0  0  0  0  0  0  0  0  0
   -1.6321   -0.6546    0.1640 C   0  0  0  0  0  0  0  0  0  0  0  0
   -1.9074    4.4987    0.1131 H   0  0  0  0  0  0  0  0  0  0  0  0
    1.0493    2.1536   -0.2540 H   0  0  0  0  0  0  0  0  0  0  0  0
    1.7009   -0.1952   -0.1942 H   0  0  0  0  0  0  0  0  0  0  0  0
    0.0242   -2.0081    0.0717 H   0  0  0  0  0  0  0  0  0  0  0  0
   -2.4024   -1.4115    0.2825 H   0  0  0  0  0  0  0  0  0  0  0  0
   -3.8365    5.3244    0.5865 S   0  0  0  0  0  0  0  0  0  0  0  0
   -4.6730    5.0417   -1.0547 C   0  0  0  0  0  0  0  0  0  0  0  0
   -4.0649    4.1181    1.3728 O   0  0  0  0  0  0  0  0  0  0  0  0
   -4.2130    6.6468    1.0418 O   0  0  0  0  0  0  0  0  0  0  0  0
   -2.3048    5.3968    0.1009 O   0  0  0  0  0  0  0  0  0  0  0  0
   -4.2417    3.8852   -1.5739 F   0  0  0  0  0  0  0  0  0  0  0  0
   -5.9888    4.9723   -0.8567 F   0  0  0  0  0  0  0  0  0  0  0  0
   -4.3970    6.0347   -1.8940 F   0  0  0  0  0  0  0  0  0  0  0  0
  1  8  1  0  0  0  0
  1  2  1  0  0  0  0
  2  3  1  0  0  0  0
  4  1  2  0  0  0  0
  5  6  2  0  0  0  0
  5  4  1  0  0  0  0
  6  7  1  0  0  0  0
  7 12  1  0  0  0  0
  7  8  2  0  0  0  0
  8 13  1  0  0  0  0
 10  5  1  0  0  0  0
 11  6  1  0  0  0  0
 14 17  2  0  0  0  0
 14 16  2  0  0  0  0
 15 20  1  0  0  0  0
 15 14  1  0  0  0  0
 18  9  1  0  0  0  0
 18 14  1  0  0  0  0
 19 15  1  0  0  0  0
 21 15  1  0  0  0  0
M  RAD  3   2   2   3   3   4   2
M  END
