Coordinates from ORCA-job PhN2+~TfO-_B3LYPG-6-31G_dp-CH-Scan-d09-49-n800
 OpenBabel11261919123D

 21 20  0  0  0  0  0  0  0  0999 V2000
   -2.0676    0.9121    0.0382 C   0  0  0  0  0  0  0  0  0  0  0  0
   -3.4258    1.1789    0.0153 N   0  0  0  0  0  0  0  0  0  0  0  0
   -4.4961    1.4893    0.0130 N   0  0  0  0  0  0  0  0  0  0  0  0
   -1.2070    2.0159   -0.0850 C   0  0  0  0  0  0  0  0  0  0  0  0
    0.1547    1.6960   -0.0558 C   0  0  0  0  0  0  0  0  0  0  0  0
    0.5942    0.3785    0.0859 C   0  0  0  0  0  0  0  0  0  0  0  0
   -0.3153   -0.6883    0.2025 C   0  0  0  0  0  0  0  0  0  0  0  0
   -1.6748   -0.4369    0.1772 C   0  0  0  0  0  0  0  0  0  0  0  0
   -1.6941    3.2799   -0.2120 H   0  0  0  0  0  0  0  0  0  0  0  0
    0.8816    2.4979   -0.1436 H   0  0  0  0  0  0  0  0  0  0  0  0
    1.6598    0.1668    0.1071 H   0  0  0  0  0  0  0  0  0  0  0  0
    0.0440   -1.7056    0.3129 H   0  0  0  0  0  0  0  0  0  0  0  0
   -2.4097   -1.2298    0.2653 H   0  0  0  0  0  0  0  0  0  0  0  0
   -3.4645    4.9009    0.4226 S   0  0  0  0  0  0  0  0  0  0  0  0
   -4.7348    5.0782   -0.9210 C   0  0  0  0  0  0  0  0  0  0  0  0
   -3.9322    3.7151    1.1827 O   0  0  0  0  0  0  0  0  0  0  0  0
   -3.4368    6.1870    1.1141 O   0  0  0  0  0  0  0  0  0  0  0  0
   -2.2178    4.5901   -0.3854 O   0  0  0  0  0  0  0  0  0  0  0  0
   -4.8386    3.9144   -1.6035 F   0  0  0  0  0  0  0  0  0  0  0  0
   -5.9333    5.3620   -0.3999 F   0  0  0  0  0  0  0  0  0  0  0  0
   -4.3988    6.0402   -1.7841 F   0  0  0  0  0  0  0  0  0  0  0  0
  1  8  2  0  0  0  0
  2  1  1  0  0  0  0
  3  2  1  0  0  0  0
  4  5  2  0  0  0  0
  4  1  1  0  0  0  0
  5  6  1  0  0  0  0
  6 11  1  0  0  0  0
  6  7  2  0  0  0  0
  7 12  1  0  0  0  0
  8  7  1  0  0  0  0
  8 13  1  0  0  0  0
  9  4  1  0  0  0  0
 10  5  1  0  0  0  0
 14 17  2  0  0  0  0
 14 16  1  0  0  0  0
 15 20  1  0  0  0  0
 15 14  1  0  0  0  0
 18 14  2  0  0  0  0
 19 15  1  0  0  0  0
 21 15  1  0  0  0  0
M  RAD  3   2   2   3   3  16   2
M  END
