Coordinates from ORCA-job PhN2+~TfO-_B3LYPG-6-31G_dp-CH-Scan-d09-49-n800
 OpenBabel11261919123D

 21 20  0  0  0  0  0  0  0  0999 V2000
   -2.0917    0.9092    0.0377 C   0  0  0  0  0  0  0  0  0  0  0  0
   -3.4565    1.1416    0.0208 N   0  0  0  0  0  0  0  0  0  0  0  0
   -4.5466    1.3723    0.0075 N   0  0  0  0  0  0  0  0  0  0  0  0
   -1.2629    2.0375   -0.0981 C   0  0  0  0  0  0  0  0  0  0  0  0
    0.1055    1.7173   -0.0794 C   0  0  0  0  0  0  0  0  0  0  0  0
    0.5665    0.4085    0.0606 C   0  0  0  0  0  0  0  0  0  0  0  0
   -0.3258   -0.6741    0.1911 C   0  0  0  0  0  0  0  0  0  0  0  0
   -1.6861   -0.4399    0.1799 C   0  0  0  0  0  0  0  0  0  0  0  0
   -1.7795    3.4212   -0.2037 H   0  0  0  0  0  0  0  0  0  0  0  0
    0.8290    2.5228   -0.1748 H   0  0  0  0  0  0  0  0  0  0  0  0
    1.6356    0.2115    0.0708 H   0  0  0  0  0  0  0  0  0  0  0  0
    0.0497   -1.6858    0.3010 H   0  0  0  0  0  0  0  0  0  0  0  0
   -2.4112   -1.2410    0.2783 H   0  0  0  0  0  0  0  0  0  0  0  0
   -3.4515    4.9049    0.4708 S   0  0  0  0  0  0  0  0  0  0  0  0
   -4.6676    5.0382   -0.9275 C   0  0  0  0  0  0  0  0  0  0  0  0
   -3.9118    3.7332    1.2395 O   0  0  0  0  0  0  0  0  0  0  0  0
   -3.4254    6.2145    1.1091 O   0  0  0  0  0  0  0  0  0  0  0  0
   -2.1622    4.5868   -0.3062 O   0  0  0  0  0  0  0  0  0  0  0  0
   -4.7311    3.8582   -1.5817 F   0  0  0  0  0  0  0  0  0  0  0  0
   -5.8843    5.3222   -0.4540 F   0  0  0  0  0  0  0  0  0  0  0  0
   -4.3048    5.9838   -1.7952 F   0  0  0  0  0  0  0  0  0  0  0  0
  1  8  2  0  0  0  0
  2  1  1  0  0  0  0
  3  2  1  0  0  0  0
  4  5  2  0  0  0  0
  4  1  1  0  0  0  0
  5  6  1  0  0  0  0
  6 11  1  0  0  0  0
  6  7  2  0  0  0  0
  7 12  1  0  0  0  0
  8  7  1  0  0  0  0
  8 13  1  0  0  0  0
 10  5  1  0  0  0  0
 14 17  2  0  0  0  0
 14 16  2  0  0  0  0
 15 20  1  0  0  0  0
 15 14  1  0  0  0  0
 18  9  1  0  0  0  0
 18 14  1  0  0  0  0
 19 15  1  0  0  0  0
 21 15  1  0  0  0  0
M  RAD  3   2   2   3   3   4   2
M  END
