Coordinates from ORCA-job PhN2+~TfO-_B3LYPG-6-31G_dp-CH-Scan-d09-49-n800
 OpenBabel11261919123D

 21 20  0  0  0  0  0  0  0  0999 V2000
   -1.9043    0.7110    0.0931 C   0  0  0  0  0  0  0  0  0  0  0  0
   -3.2436    1.0703    0.1748 N   0  0  0  0  0  0  0  0  0  0  0  0
   -4.3067    1.4131    0.2275 N   0  0  0  0  0  0  0  0  0  0  0  0
   -1.0398    1.8101   -0.0581 C   0  0  0  0  0  0  0  0  0  0  0  0
    0.3041    1.3521   -0.1415 C   0  0  0  0  0  0  0  0  0  0  0  0
    0.6710    0.0111   -0.0780 C   0  0  0  0  0  0  0  0  0  0  0  0
   -0.2905   -1.0167    0.0766 C   0  0  0  0  0  0  0  0  0  0  0  0
   -1.6226   -0.6812    0.1663 C   0  0  0  0  0  0  0  0  0  0  0  0
   -1.9077    4.6286    0.0856 H   0  0  0  0  0  0  0  0  0  0  0  0
    1.1007    2.0863   -0.2615 H   0  0  0  0  0  0  0  0  0  0  0  0
    1.7209   -0.2683   -0.1479 H   0  0  0  0  0  0  0  0  0  0  0  0
    0.0186   -2.0557    0.1245 H   0  0  0  0  0  0  0  0  0  0  0  0
   -2.4044   -1.4261    0.2861 H   0  0  0  0  0  0  0  0  0  0  0  0
   -3.8638    5.3629    0.5913 S   0  0  0  0  0  0  0  0  0  0  0  0
   -4.7196    5.0697   -1.0386 C   0  0  0  0  0  0  0  0  0  0  0  0
   -4.0197    4.1374    1.3644 O   0  0  0  0  0  0  0  0  0  0  0  0
   -4.2837    6.6625    1.0729 O   0  0  0  0  0  0  0  0  0  0  0  0
   -2.3435    5.5057    0.0738 O   0  0  0  0  0  0  0  0  0  0  0  0
   -4.2432    3.9461   -1.5877 F   0  0  0  0  0  0  0  0  0  0  0  0
   -6.0257    4.9331   -0.8145 F   0  0  0  0  0  0  0  0  0  0  0  0
   -4.5091    6.0908   -1.8627 F   0  0  0  0  0  0  0  0  0  0  0  0
  1  8  1  0  0  0  0
  1  2  1  0  0  0  0
  2  3  1  0  0  0  0
  4  1  2  0  0  0  0
  5  6  2  0  0  0  0
  5  4  1  0  0  0  0
  6  7  1  0  0  0  0
  7 12  1  0  0  0  0
  7  8  2  0  0  0  0
  8 13  1  0  0  0  0
 10  5  1  0  0  0  0
 11  6  1  0  0  0  0
 14 17  2  0  0  0  0
 14 16  2  0  0  0  0
 15 20  1  0  0  0  0
 15 14  1  0  0  0  0
 18  9  1  0  0  0  0
 18 14  1  0  0  0  0
 19 15  1  0  0  0  0
 21 15  1  0  0  0  0
M  RAD  3   2   2   3   3   4   2
M  END
