Coordinates from ORCA-job PhN2+~TfO-_B3LYPG-6-31G_dp-CH-Scan-d09-49-n800
 OpenBabel11261919123D

 21 20  0  0  0  0  0  0  0  0999 V2000
   -1.7214    0.6170   -0.2024 C   0  0  0  0  0  0  0  0  0  0  0  0
   -2.9993    1.1691   -0.2967 N   0  0  0  0  0  0  0  0  0  0  0  0
   -3.9890    1.6777   -0.4197 N   0  0  0  0  0  0  0  0  0  0  0  0
   -0.7451    1.4750   -0.7275 C   0  0  0  0  0  0  0  0  0  0  0  0
    0.5315    0.8504   -0.6132 C   0  0  0  0  0  0  0  0  0  0  0  0
    0.7314   -0.4102   -0.0602 C   0  0  0  0  0  0  0  0  0  0  0  0
   -0.3454   -1.1849    0.4415 C   0  0  0  0  0  0  0  0  0  0  0  0
   -1.6231   -0.6762    0.3794 C   0  0  0  0  0  0  0  0  0  0  0  0
   -2.0803    5.9278    0.4677 H   0  0  0  0  0  0  0  0  0  0  0  0
    1.4109    1.3833   -0.9774 H   0  0  0  0  0  0  0  0  0  0  0  0
    1.7364   -0.8264   -0.0040 H   0  0  0  0  0  0  0  0  0  0  0  0
   -0.1636   -2.1659    0.8677 H   0  0  0  0  0  0  0  0  0  0  0  0
   -2.4883   -1.2213    0.7469 H   0  0  0  0  0  0  0  0  0  0  0  0
   -4.1674    5.5244    0.7554 S   0  0  0  0  0  0  0  0  0  0  0  0
   -4.7114    5.0988   -0.9781 C   0  0  0  0  0  0  0  0  0  0  0  0
   -3.6949    4.2938    1.3745 O   0  0  0  0  0  0  0  0  0  0  0  0
   -5.1855    6.3746    1.3349 O   0  0  0  0  0  0  0  0  0  0  0  0
   -2.8893    6.4649    0.4000 O   0  0  0  0  0  0  0  0  0  0  0  0
   -3.7189    4.4636   -1.6039 F   0  0  0  0  0  0  0  0  0  0  0  0
   -5.7742    4.3001   -0.8985 F   0  0  0  0  0  0  0  0  0  0  0  0
   -5.0260    6.2069   -1.6400 F   0  0  0  0  0  0  0  0  0  0  0  0
  1  8  2  0  0  0  0
  2  1  1  0  0  0  0
  3  2  1  0  0  0  0
  4  5  2  0  0  0  0
  4  1  1  0  0  0  0
  5  6  1  0  0  0  0
  6 11  1  0  0  0  0
  6  7  2  0  0  0  0
  7 12  1  0  0  0  0
  8  7  1  0  0  0  0
  8 13  1  0  0  0  0
 10  5  1  0  0  0  0
 14 17  2  0  0  0  0
 14 16  2  0  0  0  0
 15 20  1  0  0  0  0
 15 14  1  0  0  0  0
 18  9  1  0  0  0  0
 18 14  1  0  0  0  0
 19 15  1  0  0  0  0
 21 15  1  0  0  0  0
M  RAD  3   2   2   3   3   4   2
M  END
