Coordinates from ORCA-job PhN2+~TfO-_B3LYPG-6-31G_dp-CH-Scan-d09-49-n800
 OpenBabel11261919123D

 21 20  0  0  0  0  0  0  0  0999 V2000
   -1.8223    0.6663   -0.1239 C   0  0  0  0  0  0  0  0  0  0  0  0
   -3.1296    1.1455   -0.1908 N   0  0  0  0  0  0  0  0  0  0  0  0
   -4.1482    1.6001   -0.2827 N   0  0  0  0  0  0  0  0  0  0  0  0
   -0.8843    1.6426   -0.4918 C   0  0  0  0  0  0  0  0  0  0  0  0
    0.4237    1.0812   -0.4156 C   0  0  0  0  0  0  0  0  0  0  0  0
    0.6855   -0.2282   -0.0256 C   0  0  0  0  0  0  0  0  0  0  0  0
   -0.3551   -1.1235    0.3288 C   0  0  0  0  0  0  0  0  0  0  0  0
   -1.6594   -0.6854    0.2845 C   0  0  0  0  0  0  0  0  0  0  0  0
   -1.9115    5.5333    0.2341 H   0  0  0  0  0  0  0  0  0  0  0  0
    1.2789    1.7072   -0.6739 H   0  0  0  0  0  0  0  0  0  0  0  0
    1.7124   -0.5888    0.0140 H   0  0  0  0  0  0  0  0  0  0  0  0
   -0.1255   -2.1399    0.6313 H   0  0  0  0  0  0  0  0  0  0  0  0
   -2.4996   -1.3241    0.5435 H   0  0  0  0  0  0  0  0  0  0  0  0
   -4.0059    5.4424    0.7042 S   0  0  0  0  0  0  0  0  0  0  0  0
   -4.6998    5.0304   -0.9776 C   0  0  0  0  0  0  0  0  0  0  0  0
   -3.6827    4.1789    1.3517 O   0  0  0  0  0  0  0  0  0  0  0  0
   -4.8618    6.4493    1.2948 O   0  0  0  0  0  0  0  0  0  0  0  0
   -2.6354    6.1845    0.2491 O   0  0  0  0  0  0  0  0  0  0  0  0
   -3.8192    4.2786   -1.6425 F   0  0  0  0  0  0  0  0  0  0  0  0
   -5.8306    4.3470   -0.8077 F   0  0  0  0  0  0  0  0  0  0  0  0
   -4.9425    6.1455   -1.6574 F   0  0  0  0  0  0  0  0  0  0  0  0
  1  8  2  0  0  0  0
  2  1  1  0  0  0  0
  3  2  1  0  0  0  0
  4  5  2  0  0  0  0
  4  1  1  0  0  0  0
  5  6  1  0  0  0  0
  6 11  1  0  0  0  0
  6  7  2  0  0  0  0
  7 12  1  0  0  0  0
  8  7  1  0  0  0  0
  8 13  1  0  0  0  0
  9 18  1  0  0  0  0
 10  5  1  0  0  0  0
 14 17  2  0  0  0  0
 14 16  2  0  0  0  0
 15 20  1  0  0  0  0
 15 14  1  0  0  0  0
 18 14  1  0  0  0  0
 19 15  1  0  0  0  0
 21 15  1  0  0  0  0
M  RAD  3   2   2   3   3   4   2
M  END
