Coordinates from ORCA-job PhN2+~TfO-_B3LYPG-6-31G_dp-CH-Scan-d09-49-n800
 OpenBabel11261919123D

 21 20  0  0  0  0  0  0  0  0999 V2000
   -2.0496    0.8225    0.1116 C   0  0  0  0  0  0  0  0  0  0  0  0
   -3.4105    1.0725    0.1962 N   0  0  0  0  0  0  0  0  0  0  0  0
   -4.4984    1.3175    0.2548 N   0  0  0  0  0  0  0  0  0  0  0  0
   -1.2464    1.9699   -0.0335 C   0  0  0  0  0  0  0  0  0  0  0  0
    0.1220    1.6122   -0.1186 C   0  0  0  0  0  0  0  0  0  0  0  0
    0.5788    0.2977   -0.0635 C   0  0  0  0  0  0  0  0  0  0  0  0
   -0.3122   -0.7893    0.0842 C   0  0  0  0  0  0  0  0  0  0  0  0
   -1.6644   -0.5434    0.1754 C   0  0  0  0  0  0  0  0  0  0  0  0
   -1.8901    3.9229   -0.0143 H   0  0  0  0  0  0  0  0  0  0  0  0
    0.8614    2.4032   -0.2324 H   0  0  0  0  0  0  0  0  0  0  0  0
    1.6447    0.0915   -0.1351 H   0  0  0  0  0  0  0  0  0  0  0  0
    0.0629   -1.8065    0.1263 H   0  0  0  0  0  0  0  0  0  0  0  0
   -2.3928   -1.3404    0.2908 H   0  0  0  0  0  0  0  0  0  0  0  0
   -3.6283    5.0947    0.5581 S   0  0  0  0  0  0  0  0  0  0  0  0
   -4.6011    5.0096   -1.0258 C   0  0  0  0  0  0  0  0  0  0  0  0
   -4.0428    3.9284    1.3359 O   0  0  0  0  0  0  0  0  0  0  0  0
   -3.7648    6.4470    1.0650 O   0  0  0  0  0  0  0  0  0  0  0  0
   -2.1599    4.9032   -0.0099 O   0  0  0  0  0  0  0  0  0  0  0  0
   -4.4146    3.8076   -1.5958 F   0  0  0  0  0  0  0  0  0  0  0  0
   -5.8972    5.1632   -0.7518 F   0  0  0  0  0  0  0  0  0  0  0  0
   -4.2093    5.9591   -1.8715 F   0  0  0  0  0  0  0  0  0  0  0  0
  1  8  1  0  0  0  0
  1  2  1  0  0  0  0
  2  3  1  0  0  0  0
  4  1  2  0  0  0  0
  5  6  2  0  0  0  0
  5  4  1  0  0  0  0
  6  7  1  0  0  0  0
  7 12  1  0  0  0  0
  7  8  2  0  0  0  0
  8 13  1  0  0  0  0
  9 18  1  0  0  0  0
 10  5  1  0  0  0  0
 11  6  1  0  0  0  0
 14 17  2  0  0  0  0
 14 16  2  0  0  0  0
 15 20  1  0  0  0  0
 15 14  1  0  0  0  0
 18 14  1  0  0  0  0
 19 15  1  0  0  0  0
 21 15  1  0  0  0  0
M  RAD  3   2   2   3   3   4   2
M  END
