Coordinates from ORCA-job PhN2+~TfO-_B3LYPG-6-31G_dp-CH-Scan-d09-49-n800
 OpenBabel11261919123D

 21 20  0  0  0  0  0  0  0  0999 V2000
   -2.0800    0.8578    0.0850 C   0  0  0  0  0  0  0  0  0  0  0  0
   -3.4454    1.0887    0.1362 N   0  0  0  0  0  0  0  0  0  0  0  0
   -4.5375    1.3162    0.1689 N   0  0  0  0  0  0  0  0  0  0  0  0
   -1.2807    2.0085   -0.0571 C   0  0  0  0  0  0  0  0  0  0  0  0
    0.0917    1.6696   -0.1070 C   0  0  0  0  0  0  0  0  0  0  0  0
    0.5618    0.3609   -0.0240 C   0  0  0  0  0  0  0  0  0  0  0  0
   -0.3204   -0.7326    0.1176 C   0  0  0  0  0  0  0  0  0  0  0  0
   -1.6776   -0.5006    0.1747 C   0  0  0  0  0  0  0  0  0  0  0  0
   -1.8672    3.7377   -0.0829 H   0  0  0  0  0  0  0  0  0  0  0  0
    0.8214    2.4701   -0.2139 H   0  0  0  0  0  0  0  0  0  0  0  0
    1.6313    0.1664   -0.0681 H   0  0  0  0  0  0  0  0  0  0  0  0
    0.0636   -1.7451    0.1821 H   0  0  0  0  0  0  0  0  0  0  0  0
   -2.3990   -1.3044    0.2840 H   0  0  0  0  0  0  0  0  0  0  0  0
   -3.5476    5.0142    0.5390 S   0  0  0  0  0  0  0  0  0  0  0  0
   -4.6025    5.0033   -0.9928 C   0  0  0  0  0  0  0  0  0  0  0  0
   -3.9914    3.8563    1.3185 O   0  0  0  0  0  0  0  0  0  0  0  0
   -3.6103    6.3606    1.0792 O   0  0  0  0  0  0  0  0  0  0  0  0
   -2.1330    4.7553   -0.0994 O   0  0  0  0  0  0  0  0  0  0  0  0
   -4.5066    3.8009   -1.5887 F   0  0  0  0  0  0  0  0  0  0  0  0
   -5.8758    5.2160   -0.6559 F   0  0  0  0  0  0  0  0  0  0  0  0
   -4.2076    5.9432   -1.8489 F   0  0  0  0  0  0  0  0  0  0  0  0
  1  2  1  0  0  0  0
  1  8  2  0  0  0  0
  2  3  1  0  0  0  0
  4  1  1  0  0  0  0
  5  4  2  0  0  0  0
  5  6  1  0  0  0  0
  6  7  2  0  0  0  0
  7  8  1  0  0  0  0
  7 12  1  0  0  0  0
  8 13  1  0  0  0  0
 10  5  1  0  0  0  0
 11  6  1  0  0  0  0
 14 17  2  0  0  0  0
 14 16  2  0  0  0  0
 15 20  1  0  0  0  0
 15 14  1  0  0  0  0
 18  9  1  0  0  0  0
 18 14  1  0  0  0  0
 19 15  1  0  0  0  0
 21 15  1  0  0  0  0
M  RAD  3   2   2   3   3   4   2
M  END
