Coordinates from ORCA-job PhN2+~TfO-_B3LYPG-6-31G_dp-CH-Scan-d09-49-n800
 OpenBabel11261919123D

 21 20  0  0  0  0  0  0  0  0999 V2000
   -1.9529    0.7498    0.1287 C   0  0  0  0  0  0  0  0  0  0  0  0
   -3.2984    1.0723    0.2432 N   0  0  0  0  0  0  0  0  0  0  0  0
   -4.3703    1.3785    0.3248 N   0  0  0  0  0  0  0  0  0  0  0  0
   -1.1086    1.8662   -0.0118 C   0  0  0  0  0  0  0  0  0  0  0  0
    0.2414    1.4395   -0.1304 C   0  0  0  0  0  0  0  0  0  0  0  0
    0.6355    0.1047   -0.1075 C   0  0  0  0  0  0  0  0  0  0  0  0
   -0.3032   -0.9443    0.0393 C   0  0  0  0  0  0  0  0  0  0  0  0
   -1.6395   -0.6370    0.1623 C   0  0  0  0  0  0  0  0  0  0  0  0
   -1.9040    4.4196    0.1113 H   0  0  0  0  0  0  0  0  0  0  0  0
    1.0197    2.1930   -0.2464 H   0  0  0  0  0  0  0  0  0  0  0  0
    1.6889   -0.1517   -0.2046 H   0  0  0  0  0  0  0  0  0  0  0  0
    0.0258   -1.9781    0.0554 H   0  0  0  0  0  0  0  0  0  0  0  0
   -2.4038   -1.4003    0.2784 H   0  0  0  0  0  0  0  0  0  0  0  0
   -3.8117    5.2968    0.5839 S   0  0  0  0  0  0  0  0  0  0  0  0
   -4.6517    5.0251   -1.0571 C   0  0  0  0  0  0  0  0  0  0  0  0
   -4.0738    4.1005    1.3757 O   0  0  0  0  0  0  0  0  0  0  0  0
   -4.1593    6.6297    1.0319 O   0  0  0  0  0  0  0  0  0  0  0  0
   -2.2796    5.3296    0.1029 O   0  0  0  0  0  0  0  0  0  0  0  0
   -4.2447    3.8568   -1.5708 F   0  0  0  0  0  0  0  0  0  0  0  0
   -5.9693    4.9845   -0.8618 F   0  0  0  0  0  0  0  0  0  0  0  0
   -4.3533    6.0076   -1.9011 F   0  0  0  0  0  0  0  0  0  0  0  0
  1  8  1  0  0  0  0
  1  2  1  0  0  0  0
  2  3  1  0  0  0  0
  4  1  2  0  0  0  0
  5  6  2  0  0  0  0
  5  4  1  0  0  0  0
  6  7  1  0  0  0  0
  7 12  1  0  0  0  0
  7  8  2  0  0  0  0
  8 13  1  0  0  0  0
 10  5  1  0  0  0  0
 11  6  1  0  0  0  0
 14 17  2  0  0  0  0
 14 16  2  0  0  0  0
 15 20  1  0  0  0  0
 15 14  1  0  0  0  0
 18  9  1  0  0  0  0
 18 14  1  0  0  0  0
 19 15  1  0  0  0  0
 21 15  1  0  0  0  0
M  RAD  3   2   2   3   3   4   2
M  END
