Coordinates from ORCA-job PhN2+~TfO-_B3LYPG-6-31G_dp-CH-Scan-d09-49-n800
 OpenBabel11261919123D

 21 20  0  0  0  0  0  0  0  0999 V2000
   -1.8768    0.6970    0.0707 C   0  0  0  0  0  0  0  0  0  0  0  0
   -3.2124    1.0770    0.1320 N   0  0  0  0  0  0  0  0  0  0  0  0
   -4.2710    1.4364    0.1654 N   0  0  0  0  0  0  0  0  0  0  0  0
   -0.9975    1.7823   -0.0883 C   0  0  0  0  0  0  0  0  0  0  0  0
    0.3409    1.3040   -0.1510 C   0  0  0  0  0  0  0  0  0  0  0  0
    0.6888   -0.0405   -0.0628 C   0  0  0  0  0  0  0  0  0  0  0  0
   -0.2883   -1.0529    0.0979 C   0  0  0  0  0  0  0  0  0  0  0  0
   -1.6164   -0.6979    0.1685 C   0  0  0  0  0  0  0  0  0  0  0  0
   -1.9102    4.7483    0.0785 H   0  0  0  0  0  0  0  0  0  0  0  0
    1.1492    2.0251   -0.2744 H   0  0  0  0  0  0  0  0  0  0  0  0
    1.7354   -0.3353   -0.1172 H   0  0  0  0  0  0  0  0  0  0  0  0
    0.0063   -2.0951    0.1657 H   0  0  0  0  0  0  0  0  0  0  0  0
   -2.4098   -1.4301    0.2915 H   0  0  0  0  0  0  0  0  0  0  0  0
   -3.8919    5.3974    0.5977 S   0  0  0  0  0  0  0  0  0  0  0  0
   -4.7532    5.0843   -1.0260 C   0  0  0  0  0  0  0  0  0  0  0  0
   -3.9877    4.1609    1.3626 O   0  0  0  0  0  0  0  0  0  0  0  0
   -4.3547    6.6766    1.0938 O   0  0  0  0  0  0  0  0  0  0  0  0
   -2.3825    5.6041    0.0631 O   0  0  0  0  0  0  0  0  0  0  0  0
   -4.2393    3.9856   -1.5907 F   0  0  0  0  0  0  0  0  0  0  0  0
   -6.0501    4.8948   -0.7886 F   0  0  0  0  0  0  0  0  0  0  0  0
   -4.5916    6.1207   -1.8419 F   0  0  0  0  0  0  0  0  0  0  0  0
  1  2  1  0  0  0  0
  1  8  2  0  0  0  0
  2  3  1  0  0  0  0
  4  1  1  0  0  0  0
  5  4  2  0  0  0  0
  5  6  1  0  0  0  0
  6  7  2  0  0  0  0
  7 12  1  0  0  0  0
  7  8  1  0  0  0  0
  8 13  1  0  0  0  0
 10  5  1  0  0  0  0
 11  6  1  0  0  0  0
 14 17  2  0  0  0  0
 14 16  2  0  0  0  0
 15 20  1  0  0  0  0
 15 14  1  0  0  0  0
 18  9  1  0  0  0  0
 18 14  1  0  0  0  0
 19 15  1  0  0  0  0
 21 15  1  0  0  0  0
M  RAD  3   2   2   3   3   4   2
M  END
