Coordinates from ORCA-job PhN2+~TfO-_B3LYPG-6-31G_dp-CH-Scan-d09-49-n800
 OpenBabel11261919123D

 21 20  0  0  0  0  0  0  0  0999 V2000
   -1.8435    0.6718    0.0610 C   0  0  0  0  0  0  0  0  0  0  0  0
   -3.1737    1.0741    0.1162 N   0  0  0  0  0  0  0  0  0  0  0  0
   -4.2257    1.4535    0.1423 N   0  0  0  0  0  0  0  0  0  0  0  0
   -0.9516    1.7442   -0.1097 C   0  0  0  0  0  0  0  0  0  0  0  0
    0.3805    1.2453   -0.1668 C   0  0  0  0  0  0  0  0  0  0  0  0
    0.7096   -0.1026   -0.0629 C   0  0  0  0  0  0  0  0  0  0  0  0
   -0.2815   -1.1000    0.1094 C   0  0  0  0  0  0  0  0  0  0  0  0
   -1.6045   -0.7259    0.1752 C   0  0  0  0  0  0  0  0  0  0  0  0
   -1.9236    4.8991    0.1020 H   0  0  0  0  0  0  0  0  0  0  0  0
    1.1994    1.9531   -0.2984 H   0  0  0  0  0  0  0  0  0  0  0  0
    1.7521   -0.4128   -0.1135 H   0  0  0  0  0  0  0  0  0  0  0  0
   -0.0010   -2.1453    0.1896 H   0  0  0  0  0  0  0  0  0  0  0  0
   -2.4083   -1.4453    0.3063 H   0  0  0  0  0  0  0  0  0  0  0  0
   -3.9397    5.4468    0.6034 S   0  0  0  0  0  0  0  0  0  0  0  0
   -4.7803    5.1064   -1.0259 C   0  0  0  0  0  0  0  0  0  0  0  0
   -3.9753    4.2022    1.3598 O   0  0  0  0  0  0  0  0  0  0  0  0
   -4.4616    6.7001    1.1065 O   0  0  0  0  0  0  0  0  0  0  0  0
   -2.4378    5.7280    0.0738 O   0  0  0  0  0  0  0  0  0  0  0  0
   -4.2240    4.0294   -1.5906 F   0  0  0  0  0  0  0  0  0  0  0  0
   -6.0703    4.8696   -0.7947 F   0  0  0  0  0  0  0  0  0  0  0  0
   -4.6522    6.1512   -1.8368 F   0  0  0  0  0  0  0  0  0  0  0  0
  1  2  1  0  0  0  0
  1  8  2  0  0  0  0
  2  3  1  0  0  0  0
  4  1  1  0  0  0  0
  5  4  2  0  0  0  0
  5  6  1  0  0  0  0
  6  7  2  0  0  0  0
  7  8  1  0  0  0  0
  7 12  1  0  0  0  0
  8 13  1  0  0  0  0
 10  5  1  0  0  0  0
 11  6  1  0  0  0  0
 14 17  2  0  0  0  0
 14 16  2  0  0  0  0
 15 20  1  0  0  0  0
 15 14  1  0  0  0  0
 18  9  1  0  0  0  0
 18 14  1  0  0  0  0
 19 15  1  0  0  0  0
 21 15  1  0  0  0  0
M  RAD  3   2   2   3   3   4   2
M  END
