Coordinates from ORCA-job PhN2+~TfO-_B3LYPG-6-31G_dp-CH-Scan-d09-49-n800
 OpenBabel11261919123D

 21 20  0  0  0  0  0  0  0  0999 V2000
   -1.7971    0.6506   -0.1526 C   0  0  0  0  0  0  0  0  0  0  0  0
   -3.0972    1.1496   -0.2303 N   0  0  0  0  0  0  0  0  0  0  0  0
   -4.1074    1.6200   -0.3349 N   0  0  0  0  0  0  0  0  0  0  0  0
   -0.8496    1.5914   -0.5814 C   0  0  0  0  0  0  0  0  0  0  0  0
    0.4507    1.0142   -0.4911 C   0  0  0  0  0  0  0  0  0  0  0  0
    0.6967   -0.2780   -0.0384 C   0  0  0  0  0  0  0  0  0  0  0  0
   -0.3533   -1.1372    0.3734 C   0  0  0  0  0  0  0  0  0  0  0  0
   -1.6512   -0.6810    0.3227 C   0  0  0  0  0  0  0  0  0  0  0  0
   -1.9548    5.6624    0.3233 H   0  0  0  0  0  0  0  0  0  0  0  0
    1.3122    1.6125   -0.7908 H   0  0  0  0  0  0  0  0  0  0  0  0
    1.7182   -0.6530    0.0071 H   0  0  0  0  0  0  0  0  0  0  0  0
   -0.1357   -2.1408    0.7238 H   0  0  0  0  0  0  0  0  0  0  0  0
   -2.4979   -1.2918    0.6240 H   0  0  0  0  0  0  0  0  0  0  0  0
   -4.0551    5.4599    0.7234 S   0  0  0  0  0  0  0  0  0  0  0  0
   -4.6935    5.0481   -0.9805 C   0  0  0  0  0  0  0  0  0  0  0  0
   -3.6810    4.2026    1.3557 O   0  0  0  0  0  0  0  0  0  0  0  0
   -4.9712    6.4126    1.3138 O   0  0  0  0  0  0  0  0  0  0  0  0
   -2.7117    6.2748    0.3097 O   0  0  0  0  0  0  0  0  0  0  0  0
   -3.7749    4.3304   -1.6305 F   0  0  0  0  0  0  0  0  0  0  0  0
   -5.8080    4.3310   -0.8474 F   0  0  0  0  0  0  0  0  0  0  0  0
   -4.9511    6.1646   -1.6526 F   0  0  0  0  0  0  0  0  0  0  0  0
  1  8  2  0  0  0  0
  2  1  1  0  0  0  0
  3  2  1  0  0  0  0
  4  5  2  0  0  0  0
  4  1  1  0  0  0  0
  5  6  1  0  0  0  0
  6 11  1  0  0  0  0
  6  7  2  0  0  0  0
  7 12  1  0  0  0  0
  8  7  1  0  0  0  0
  8 13  1  0  0  0  0
 10  5  1  0  0  0  0
 14 17  2  0  0  0  0
 14 16  2  0  0  0  0
 15 20  1  0  0  0  0
 15 14  1  0  0  0  0
 18  9  1  0  0  0  0
 18 14  1  0  0  0  0
 19 15  1  0  0  0  0
 21 15  1  0  0  0  0
M  RAD  3   2   2   3   3   4   2
M  END
