Coordinates from ORCA-job PhN2+~TfO-_B3LYPG-6-31G_dp-CH-Scan-d09-49-n800
 OpenBabel11261919123D

 21 20  0  0  0  0  0  0  0  0999 V2000
   -2.0582    0.8313    0.1032 C   0  0  0  0  0  0  0  0  0  0  0  0
   -3.4207    1.0753    0.1776 N   0  0  0  0  0  0  0  0  0  0  0  0
   -4.5100    1.3151    0.2282 N   0  0  0  0  0  0  0  0  0  0  0  0
   -1.2571    1.9803   -0.0416 C   0  0  0  0  0  0  0  0  0  0  0  0
    0.1129    1.6285   -0.1156 C   0  0  0  0  0  0  0  0  0  0  0  0
    0.5744    0.3160   -0.0512 C   0  0  0  0  0  0  0  0  0  0  0  0
   -0.3135   -0.7734    0.0952 C   0  0  0  0  0  0  0  0  0  0  0  0
   -1.6674   -0.5323    0.1758 C   0  0  0  0  0  0  0  0  0  0  0  0
   -1.8854    3.8699   -0.0367 H   0  0  0  0  0  0  0  0  0  0  0  0
    0.8492    2.4224   -0.2278 H   0  0  0  0  0  0  0  0  0  0  0  0
    1.6416    0.1137   -0.1142 H   0  0  0  0  0  0  0  0  0  0  0  0
    0.0649   -1.7890    0.1448 H   0  0  0  0  0  0  0  0  0  0  0  0
   -2.3934   -1.3315    0.2897 H   0  0  0  0  0  0  0  0  0  0  0  0
   -3.6047    5.0713    0.5529 S   0  0  0  0  0  0  0  0  0  0  0  0
   -4.6028    5.0099   -1.0161 C   0  0  0  0  0  0  0  0  0  0  0  0
   -4.0282    3.9072    1.3303 O   0  0  0  0  0  0  0  0  0  0  0  0
   -3.7173    6.4221    1.0705 O   0  0  0  0  0  0  0  0  0  0  0  0
   -2.1512    4.8590   -0.0370 O   0  0  0  0  0  0  0  0  0  0  0  0
   -4.4440    3.8078   -1.5952 F   0  0  0  0  0  0  0  0  0  0  0  0
   -5.8924    5.1820   -0.7227 F   0  0  0  0  0  0  0  0  0  0  0  0
   -4.2093    5.9571   -1.8639 F   0  0  0  0  0  0  0  0  0  0  0  0
  1  8  1  0  0  0  0
  1  2  1  0  0  0  0
  2  3  1  0  0  0  0
  4  1  2  0  0  0  0
  5  6  2  0  0  0  0
  5  4  1  0  0  0  0
  6  7  1  0  0  0  0
  7 12  1  0  0  0  0
  7  8  2  0  0  0  0
  8 13  1  0  0  0  0
 10  5  1  0  0  0  0
 11  6  1  0  0  0  0
 14 17  2  0  0  0  0
 14 16  2  0  0  0  0
 15 20  1  0  0  0  0
 15 14  1  0  0  0  0
 18  9  1  0  0  0  0
 18 14  1  0  0  0  0
 19 15  1  0  0  0  0
 21 15  1  0  0  0  0
M  RAD  3   2   2   3   3   4   2
M  END
