Coordinates from ORCA-job PhN2+~TfO-_B3LYPG-6-31G_dp-CH-Scan-d09-49-n800
 OpenBabel11261919123D

 21 20  0  0  0  0  0  0  0  0999 V2000
   -1.8849    1.0844   -0.5772 C   0  0  0  0  0  0  0  0  0  0  0  0
   -3.0844    1.2393   -1.2589 N   0  0  0  0  0  0  0  0  0  0  0  0
   -4.0315    1.2032   -1.8384 N   0  0  0  0  0  0  0  0  0  0  0  0
   -0.9090    2.0886   -0.6529 C   0  0  0  0  0  0  0  0  0  0  0  0
    0.2868    1.8512    0.0155 C   0  0  0  0  0  0  0  0  0  0  0  0
    0.4816    0.6644    0.7282 C   0  0  0  0  0  0  0  0  0  0  0  0
   -0.5170   -0.3169    0.7855 C   0  0  0  0  0  0  0  0  0  0  0  0
   -1.7224   -0.1214    0.1274 C   0  0  0  0  0  0  0  0  0  0  0  0
   -1.1314    2.9971   -1.1731 H   0  0  0  0  0  0  0  0  0  0  0  0
    1.0613    2.6100   -0.0070 H   0  0  0  0  0  0  0  0  0  0  0  0
    1.4178    0.5027    1.2531 H   0  0  0  0  0  0  0  0  0  0  0  0
   -0.3574   -1.2305    1.3476 H   0  0  0  0  0  0  0  0  0  0  0  0
   -2.5198   -0.8551    0.1599 H   0  0  0  0  0  0  0  0  0  0  0  0
   -3.5010    4.0972   -0.0001 S   0  0  0  0  0  0  0  0  0  0  0  0
   -4.9312    5.2748   -0.1131 C   0  0  0  0  0  0  0  0  0  0  0  0
   -4.0917    2.8617    0.5853 O   0  0  0  0  0  0  0  0  0  0  0  0
   -2.4919    4.7808    0.8259 O   0  0  0  0  0  0  0  0  0  0  0  0
   -3.1059    3.9001   -1.4326 O   0  0  0  0  0  0  0  0  0  0  0  0
   -5.9129    4.7483   -0.8637 F   0  0  0  0  0  0  0  0  0  0  0  0
   -5.4229    5.5331    1.1063 F   0  0  0  0  0  0  0  0  0  0  0  0
   -4.5451    6.4301   -0.6711 F   0  0  0  0  0  0  0  0  0  0  0  0
  1  8  1  0  0  0  0
  2  1  1  0  0  0  0
  3  2  1  0  0  0  0
  4  1  2  0  0  0  0
  4  5  1  0  0  0  0
  5  6  2  0  0  0  0
  6  7  1  0  0  0  0
  6 11  1  0  0  0  0
  7 12  1  0  0  0  0
  8 13  1  0  0  0  0
  8  7  2  0  0  0  0
  9  4  1  0  0  0  0
 10  5  1  0  0  0  0
 14 16  2  0  0  0  0
 14 17  1  0  0  0  0
 15 14  1  0  0  0  0
 15 20  1  0  0  0  0
 18 14  2  0  0  0  0
 19 15  1  0  0  0  0
 21 15  1  0  0  0  0
M  RAD  3   2   2   3   3  17   2
M  END
