Coordinates from ORCA-job PhN2+~TfO-_B3LYPG-6-31G_dp-CH-Scan-d09-49-n800
 OpenBabel11261919123D

 21 20  0  0  0  0  0  0  0  0999 V2000
   -1.7418    0.6245   -0.1912 C   0  0  0  0  0  0  0  0  0  0  0  0
   -3.0258    1.1626   -0.2818 N   0  0  0  0  0  0  0  0  0  0  0  0
   -4.0211    1.6612   -0.4007 N   0  0  0  0  0  0  0  0  0  0  0  0
   -0.7731    1.5036   -0.6952 C   0  0  0  0  0  0  0  0  0  0  0  0
    0.5101    0.8919   -0.5864 C   0  0  0  0  0  0  0  0  0  0  0  0
    0.7224   -0.3762   -0.0555 C   0  0  0  0  0  0  0  0  0  0  0  0
   -0.3475   -1.1726    0.4265 C   0  0  0  0  0  0  0  0  0  0  0  0
   -1.6308   -0.6780    0.3671 C   0  0  0  0  0  0  0  0  0  0  0  0
   -2.0471    5.8669    0.4384 H   0  0  0  0  0  0  0  0  0  0  0  0
    1.3849    1.4415   -0.9365 H   0  0  0  0  0  0  0  0  0  0  0  0
    1.7319   -0.7814   -0.0018 H   0  0  0  0  0  0  0  0  0  0  0  0
   -0.1560   -2.1589    0.8359 H   0  0  0  0  0  0  0  0  0  0  0  0
   -2.4913   -1.2400    0.7202 H   0  0  0  0  0  0  0  0  0  0  0  0
   -4.1398    5.5083    0.7482 S   0  0  0  0  0  0  0  0  0  0  0  0
   -4.7042    5.0850   -0.9792 C   0  0  0  0  0  0  0  0  0  0  0  0
   -3.6895    4.2710    1.3704 O   0  0  0  0  0  0  0  0  0  0  0  0
   -5.1361    6.3824    1.3299 O   0  0  0  0  0  0  0  0  0  0  0  0
   -2.8454    6.4209    0.3801 O   0  0  0  0  0  0  0  0  0  0  0  0
   -3.7284    4.4287   -1.6096 F   0  0  0  0  0  0  0  0  0  0  0  0
   -5.7807    4.3060   -0.8883 F   0  0  0  0  0  0  0  0  0  0  0  0
   -5.0036    6.1955   -1.6440 F   0  0  0  0  0  0  0  0  0  0  0  0
  1  8  2  0  0  0  0
  2  1  1  0  0  0  0
  3  2  1  0  0  0  0
  4  5  2  0  0  0  0
  4  1  1  0  0  0  0
  5  6  1  0  0  0  0
  6 11  1  0  0  0  0
  6  7  2  0  0  0  0
  7 12  1  0  0  0  0
  8  7  1  0  0  0  0
  8 13  1  0  0  0  0
 10  5  1  0  0  0  0
 14 17  2  0  0  0  0
 14 16  2  0  0  0  0
 15 20  1  0  0  0  0
 15 14  1  0  0  0  0
 18  9  1  0  0  0  0
 18 14  1  0  0  0  0
 19 15  1  0  0  0  0
 21 15  1  0  0  0  0
M  RAD  3   2   2   3   3   4   2
M  END
