Coordinates from ORCA-job PhN2+~TfO-_B3LYPG-6-31G_dp-CH-Scan-d09-49-n800
 OpenBabel11261919123D

 21 20  0  0  0  0  0  0  0  0999 V2000
   -1.8852    1.0860   -0.5785 C   0  0  0  0  0  0  0  0  0  0  0  0
   -3.0847    1.2396   -1.2606 N   0  0  0  0  0  0  0  0  0  0  0  0
   -4.0321    1.2030   -1.8396 N   0  0  0  0  0  0  0  0  0  0  0  0
   -0.9092    2.0902   -0.6555 C   0  0  0  0  0  0  0  0  0  0  0  0
    0.2864    1.8528    0.0135 C   0  0  0  0  0  0  0  0  0  0  0  0
    0.4811    0.6670    0.7276 C   0  0  0  0  0  0  0  0  0  0  0  0
   -0.5177   -0.3140    0.7860 C   0  0  0  0  0  0  0  0  0  0  0  0
   -1.7228   -0.1189    0.1274 C   0  0  0  0  0  0  0  0  0  0  0  0
   -1.1261    2.9856   -1.1699 H   0  0  0  0  0  0  0  0  0  0  0  0
    1.0611    2.6115   -0.0099 H   0  0  0  0  0  0  0  0  0  0  0  0
    1.4173    0.5058    1.2528 H   0  0  0  0  0  0  0  0  0  0  0  0
   -0.3585   -1.2270    1.3492 H   0  0  0  0  0  0  0  0  0  0  0  0
   -2.5205   -0.8523    0.1607 H   0  0  0  0  0  0  0  0  0  0  0  0
   -3.5023    4.0940    0.0009 S   0  0  0  0  0  0  0  0  0  0  0  0
   -4.9299    5.2747   -0.1125 C   0  0  0  0  0  0  0  0  0  0  0  0
   -4.0960    2.8591    0.5846 O   0  0  0  0  0  0  0  0  0  0  0  0
   -2.4927    4.7749    0.8286 O   0  0  0  0  0  0  0  0  0  0  0  0
   -3.1060    3.8973   -1.4312 O   0  0  0  0  0  0  0  0  0  0  0  0
   -5.9117    4.7513   -0.8652 F   0  0  0  0  0  0  0  0  0  0  0  0
   -5.4229    5.5324    1.1065 F   0  0  0  0  0  0  0  0  0  0  0  0
   -4.5405    6.4299   -0.6684 F   0  0  0  0  0  0  0  0  0  0  0  0
  1  8  1  0  0  0  0
  2  1  1  0  0  0  0
  3  2  1  0  0  0  0
  4  1  2  0  0  0  0
  4  5  1  0  0  0  0
  5  6  2  0  0  0  0
  6  7  1  0  0  0  0
  6 11  1  0  0  0  0
  7 12  1  0  0  0  0
  8 13  1  0  0  0  0
  8  7  2  0  0  0  0
  9  4  1  0  0  0  0
 10  5  1  0  0  0  0
 14 16  2  0  0  0  0
 14 17  1  0  0  0  0
 15 14  1  0  0  0  0
 15 20  1  0  0  0  0
 18 14  2  0  0  0  0
 19 15  1  0  0  0  0
 21 15  1  0  0  0  0
M  RAD  3   2   2   3   3  17   2
M  END
