Coordinates from ORCA-job PhN2+~TfO-_B3LYPG-6-31G_dp-CH-Scan-d09-49-n800
 OpenBabel11261919123D

 21 20  0  0  0  0  0  0  0  0999 V2000
   -1.7966    0.6391    0.0366 C   0  0  0  0  0  0  0  0  0  0  0  0
   -3.1169    1.0781    0.0785 N   0  0  0  0  0  0  0  0  0  0  0  0
   -4.1569    1.4909    0.0912 N   0  0  0  0  0  0  0  0  0  0  0  0
   -0.8839    1.6880   -0.1619 C   0  0  0  0  0  0  0  0  0  0  0  0
    0.4370    1.1563   -0.2050 C   0  0  0  0  0  0  0  0  0  0  0  0
    0.7357   -0.1951   -0.0633 C   0  0  0  0  0  0  0  0  0  0  0  0
   -0.2777   -1.1656    0.1358 C   0  0  0  0  0  0  0  0  0  0  0  0
   -1.5919   -0.7602    0.1897 C   0  0  0  0  0  0  0  0  0  0  0  0
   -1.9475    5.1431    0.1483 H   0  0  0  0  0  0  0  0  0  0  0  0
    1.2725    1.8409   -0.3559 H   0  0  0  0  0  0  0  0  0  0  0  0
    1.7709   -0.5302   -0.1040 H   0  0  0  0  0  0  0  0  0  0  0  0
   -0.0202   -2.2141    0.2455 H   0  0  0  0  0  0  0  0  0  0  0  0
   -2.4122   -1.4571    0.3396 H   0  0  0  0  0  0  0  0  0  0  0  0
   -4.0102    5.5143    0.6179 S   0  0  0  0  0  0  0  0  0  0  0  0
   -4.8084    5.1278   -1.0226 C   0  0  0  0  0  0  0  0  0  0  0  0
   -3.9435    4.2632    1.3606 O   0  0  0  0  0  0  0  0  0  0  0  0
   -4.6344    6.7157    1.1304 O   0  0  0  0  0  0  0  0  0  0  0  0
   -2.5296    5.9232    0.1019 O   0  0  0  0  0  0  0  0  0  0  0  0
   -4.1754    4.0949   -1.5871 F   0  0  0  0  0  0  0  0  0  0  0  0
   -6.0816    4.8043   -0.8054 F   0  0  0  0  0  0  0  0  0  0  0  0
   -4.7419    6.1852   -1.8246 F   0  0  0  0  0  0  0  0  0  0  0  0
  1  2  1  0  0  0  0
  1  8  2  0  0  0  0
  2  3  1  0  0  0  0
  4  1  1  0  0  0  0
  5  4  2  0  0  0  0
  5  6  1  0  0  0  0
  6  7  2  0  0  0  0
  7  8  1  0  0  0  0
  7 12  1  0  0  0  0
  8 13  1  0  0  0  0
 10  5  1  0  0  0  0
 11  6  1  0  0  0  0
 14 17  2  0  0  0  0
 14 16  2  0  0  0  0
 15 20  1  0  0  0  0
 15 14  1  0  0  0  0
 18  9  1  0  0  0  0
 18 14  1  0  0  0  0
 19 15  1  0  0  0  0
 21 15  1  0  0  0  0
M  RAD  3   2   2   3   3   4   2
M  END
