Coordinates from ORCA-job PhN2+~TfO-_B3LYPG-6-31G_dp-CH-Scan-d09-49-n800
 OpenBabel11261919123D

 21 20  0  0  0  0  0  0  0  0999 V2000
   -1.8869    1.0945   -0.5945 C   0  0  0  0  0  0  0  0  0  0  0  0
   -3.0823    1.2359   -1.2877 N   0  0  0  0  0  0  0  0  0  0  0  0
   -4.0275    1.1710   -1.8682 N   0  0  0  0  0  0  0  0  0  0  0  0
   -0.9112    2.0987   -0.6757 C   0  0  0  0  0  0  0  0  0  0  0  0
    0.2792    1.8686    0.0059 C   0  0  0  0  0  0  0  0  0  0  0  0
    0.4689    0.6920    0.7359 C   0  0  0  0  0  0  0  0  0  0  0  0
   -0.5300   -0.2884    0.7980 C   0  0  0  0  0  0  0  0  0  0  0  0
   -1.7297   -0.1016    0.1273 C   0  0  0  0  0  0  0  0  0  0  0  0
   -1.1116    2.9590   -1.1860 H   0  0  0  0  0  0  0  0  0  0  0  0
    1.0535    2.6276   -0.0204 H   0  0  0  0  0  0  0  0  0  0  0  0
    1.4009    0.5378    1.2705 H   0  0  0  0  0  0  0  0  0  0  0  0
   -0.3755   -1.1944    1.3737 H   0  0  0  0  0  0  0  0  0  0  0  0
   -2.5278   -0.8344    0.1636 H   0  0  0  0  0  0  0  0  0  0  0  0
   -3.5061    4.0615   -0.0013 S   0  0  0  0  0  0  0  0  0  0  0  0
   -4.9106    5.2712   -0.0960 C   0  0  0  0  0  0  0  0  0  0  0  0
   -4.1191    2.8320    0.5730 O   0  0  0  0  0  0  0  0  0  0  0  0
   -2.4789    4.7144    0.8281 O   0  0  0  0  0  0  0  0  0  0  0  0
   -3.1193    3.8720   -1.4370 O   0  0  0  0  0  0  0  0  0  0  0  0
   -5.9046    4.7766   -0.8516 F   0  0  0  0  0  0  0  0  0  0  0  0
   -5.3942    5.5237    1.1279 F   0  0  0  0  0  0  0  0  0  0  0  0
   -4.4998    6.4252   -0.6390 F   0  0  0  0  0  0  0  0  0  0  0  0
  1  8  1  0  0  0  0
  2  1  1  0  0  0  0
  3  2  1  0  0  0  0
  4  1  2  0  0  0  0
  4  5  1  0  0  0  0
  5  6  2  0  0  0  0
  6  7  1  0  0  0  0
  6 11  1  0  0  0  0
  7 12  1  0  0  0  0
  8 13  1  0  0  0  0
  8  7  2  0  0  0  0
  9  4  1  0  0  0  0
 10  5  1  0  0  0  0
 14 16  2  0  0  0  0
 14 17  1  0  0  0  0
 15 14  1  0  0  0  0
 15 20  1  0  0  0  0
 18 14  2  0  0  0  0
 19 15  1  0  0  0  0
 21 15  1  0  0  0  0
M  RAD  3   2   2   3   3  17   2
M  END
