Coordinates from ORCA-job PhN2+~TfO-_B3LYPG-6-31G_dp-CH-Scan-d09-49-n800
 OpenBabel11261919123D

 21 20  0  0  0  0  0  0  0  0999 V2000
   -2.0123    0.7941    0.1383 C   0  0  0  0  0  0  0  0  0  0  0  0
   -3.3654    1.0752    0.2573 N   0  0  0  0  0  0  0  0  0  0  0  0
   -4.4464    1.3441    0.3428 N   0  0  0  0  0  0  0  0  0  0  0  0
   -1.1930    1.9300   -0.0022 C   0  0  0  0  0  0  0  0  0  0  0  0
    0.1664    1.5425   -0.1251 C   0  0  0  0  0  0  0  0  0  0  0  0
    0.5958    0.2182   -0.1068 C   0  0  0  0  0  0  0  0  0  0  0  0
   -0.3146   -0.8541    0.0398 C   0  0  0  0  0  0  0  0  0  0  0  0
   -1.6585   -0.5823    0.1671 C   0  0  0  0  0  0  0  0  0  0  0  0
   -1.8985    4.1513    0.0740 H   0  0  0  0  0  0  0  0  0  0  0  0
    0.9222    2.3180   -0.2407 H   0  0  0  0  0  0  0  0  0  0  0  0
    1.6552   -0.0095   -0.2075 H   0  0  0  0  0  0  0  0  0  0  0  0
    0.0404   -1.8793    0.0525 H   0  0  0  0  0  0  0  0  0  0  0  0
   -2.4015   -1.3659    0.2835 H   0  0  0  0  0  0  0  0  0  0  0  0
   -3.7210    5.1926    0.5759 S   0  0  0  0  0  0  0  0  0  0  0  0
   -4.5967    4.9952   -1.0555 C   0  0  0  0  0  0  0  0  0  0  0  0
   -4.0830    4.0189    1.3651 O   0  0  0  0  0  0  0  0  0  0  0  0
   -3.9657    6.5459    1.0334 O   0  0  0  0  0  0  0  0  0  0  0  0
   -2.2042    5.0999    0.0864 O   0  0  0  0  0  0  0  0  0  0  0  0
   -4.2856    3.8004   -1.5797 F   0  0  0  0  0  0  0  0  0  0  0  0
   -5.9127    5.0530   -0.8504 F   0  0  0  0  0  0  0  0  0  0  0  0
   -4.2337    5.9546   -1.9018 F   0  0  0  0  0  0  0  0  0  0  0  0
  1  8  1  0  0  0  0
  1  2  1  0  0  0  0
  2  3  1  0  0  0  0
  4  1  2  0  0  0  0
  5  6  2  0  0  0  0
  5  4  1  0  0  0  0
  6  7  1  0  0  0  0
  7 12  1  0  0  0  0
  7  8  2  0  0  0  0
  8 13  1  0  0  0  0
  9 18  1  0  0  0  0
 10  5  1  0  0  0  0
 11  6  1  0  0  0  0
 14 17  2  0  0  0  0
 14 16  2  0  0  0  0
 15 20  1  0  0  0  0
 15 14  1  0  0  0  0
 18 14  1  0  0  0  0
 19 15  1  0  0  0  0
 21 15  1  0  0  0  0
M  RAD  3   2   2   3   3   4   2
M  END
