Coordinates from ORCA-job PhN2+~TfO-_B3LYPG-6-31G_dp-CH-Scan-d09-49-n800
 OpenBabel11261919123D

 21 20  0  0  0  0  0  0  0  0999 V2000
   -1.9432    0.7419    0.1253 C   0  0  0  0  0  0  0  0  0  0  0  0
   -3.2875    1.0707    0.2386 N   0  0  0  0  0  0  0  0  0  0  0  0
   -4.3583    1.3820    0.3163 N   0  0  0  0  0  0  0  0  0  0  0  0
   -1.0955    1.8552   -0.0186 C   0  0  0  0  0  0  0  0  0  0  0  0
    0.2532    1.4226   -0.1342 C   0  0  0  0  0  0  0  0  0  0  0  0
    0.6423    0.0865   -0.1064 C   0  0  0  0  0  0  0  0  0  0  0  0
   -0.3003   -0.9587    0.0430 C   0  0  0  0  0  0  0  0  0  0  0  0
   -1.6356   -0.6461    0.1636 C   0  0  0  0  0  0  0  0  0  0  0  0
   -1.9058    4.4611    0.1156 H   0  0  0  0  0  0  0  0  0  0  0  0
    1.0347    2.1727   -0.2521 H   0  0  0  0  0  0  0  0  0  0  0  0
    1.6949   -0.1741   -0.2014 H   0  0  0  0  0  0  0  0  0  0  0  0
    0.0250   -1.9936    0.0630 H   0  0  0  0  0  0  0  0  0  0  0  0
   -2.4029   -1.4061    0.2817 H   0  0  0  0  0  0  0  0  0  0  0  0
   -3.8257    5.3114    0.5855 S   0  0  0  0  0  0  0  0  0  0  0  0
   -4.6615    5.0333   -1.0567 C   0  0  0  0  0  0  0  0  0  0  0  0
   -4.0714    4.1101    1.3746 O   0  0  0  0  0  0  0  0  0  0  0  0
   -4.1890    6.6391    1.0363 O   0  0  0  0  0  0  0  0  0  0  0  0
   -2.2929    5.3648    0.1044 O   0  0  0  0  0  0  0  0  0  0  0  0
   -4.2419    3.8705   -1.5718 F   0  0  0  0  0  0  0  0  0  0  0  0
   -5.9786    4.9788   -0.8619 F   0  0  0  0  0  0  0  0  0  0  0  0
   -4.3727    6.0206   -1.8985 F   0  0  0  0  0  0  0  0  0  0  0  0
  1  8  1  0  0  0  0
  1  2  1  0  0  0  0
  2  3  1  0  0  0  0
  4  1  2  0  0  0  0
  5  6  2  0  0  0  0
  5  4  1  0  0  0  0
  6  7  1  0  0  0  0
  7 12  1  0  0  0  0
  7  8  2  0  0  0  0
  8 13  1  0  0  0  0
 10  5  1  0  0  0  0
 11  6  1  0  0  0  0
 14 17  2  0  0  0  0
 14 16  2  0  0  0  0
 15 20  1  0  0  0  0
 15 14  1  0  0  0  0
 18  9  1  0  0  0  0
 18 14  1  0  0  0  0
 19 15  1  0  0  0  0
 21 15  1  0  0  0  0
M  RAD  3   2   2   3   3   4   2
M  END
