Coordinates from ORCA-job PhN2+~TfO-_B3LYPG-6-31G_dp-CH-Scan-d09-49-n800
 OpenBabel11261919123D

 21 20  0  0  0  0  0  0  0  0999 V2000
   -1.8852    1.0847   -0.5776 C   0  0  0  0  0  0  0  0  0  0  0  0
   -3.0846    1.2392   -1.2596 N   0  0  0  0  0  0  0  0  0  0  0  0
   -4.0317    1.2030   -1.8390 N   0  0  0  0  0  0  0  0  0  0  0  0
   -0.9095    2.0892   -0.6537 C   0  0  0  0  0  0  0  0  0  0  0  0
    0.2863    1.8520    0.0150 C   0  0  0  0  0  0  0  0  0  0  0  0
    0.4812    0.6655    0.7281 C   0  0  0  0  0  0  0  0  0  0  0  0
   -0.5173   -0.3159    0.7856 C   0  0  0  0  0  0  0  0  0  0  0  0
   -1.7225   -0.1208    0.1273 C   0  0  0  0  0  0  0  0  0  0  0  0
   -1.1302    2.9934   -1.1719 H   0  0  0  0  0  0  0  0  0  0  0  0
    1.0607    2.6110   -0.0077 H   0  0  0  0  0  0  0  0  0  0  0  0
    1.4173    0.5042    1.2532 H   0  0  0  0  0  0  0  0  0  0  0  0
   -0.3576   -1.2293    1.3480 H   0  0  0  0  0  0  0  0  0  0  0  0
   -2.5199   -0.8546    0.1599 H   0  0  0  0  0  0  0  0  0  0  0  0
   -3.5011    4.0960    0.0001 S   0  0  0  0  0  0  0  0  0  0  0  0
   -4.9304    5.2747   -0.1128 C   0  0  0  0  0  0  0  0  0  0  0  0
   -4.0927    2.8607    0.5851 O   0  0  0  0  0  0  0  0  0  0  0  0
   -2.4917    4.7787    0.8265 O   0  0  0  0  0  0  0  0  0  0  0  0
   -3.1058    3.8991   -1.4323 O   0  0  0  0  0  0  0  0  0  0  0  0
   -5.9123    4.7492   -0.8639 F   0  0  0  0  0  0  0  0  0  0  0  0
   -5.4224    5.5329    1.1065 F   0  0  0  0  0  0  0  0  0  0  0  0
   -4.5434    6.4299   -0.6703 F   0  0  0  0  0  0  0  0  0  0  0  0
  1  8  1  0  0  0  0
  2  1  1  0  0  0  0
  3  2  1  0  0  0  0
  4  1  2  0  0  0  0
  4  5  1  0  0  0  0
  5  6  2  0  0  0  0
  6  7  1  0  0  0  0
  6 11  1  0  0  0  0
  7 12  1  0  0  0  0
  8 13  1  0  0  0  0
  8  7  2  0  0  0  0
  9  4  1  0  0  0  0
 10  5  1  0  0  0  0
 14 16  2  0  0  0  0
 14 17  1  0  0  0  0
 15 14  1  0  0  0  0
 15 20  1  0  0  0  0
 18 14  2  0  0  0  0
 19 15  1  0  0  0  0
 21 15  1  0  0  0  0
M  RAD  3   2   2   3   3  17   2
M  END
