Coordinates from ORCA-job PhN2+~TfO-_B3LYPG-6-31G_dp-CH-Scan-d09-49-n800
 OpenBabel11261919123D

 21 20  0  0  0  0  0  0  0  0999 V2000
   -1.7469    0.6265   -0.1883 C   0  0  0  0  0  0  0  0  0  0  0  0
   -3.0325    1.1611   -0.2778 N   0  0  0  0  0  0  0  0  0  0  0  0
   -4.0291    1.6571   -0.3957 N   0  0  0  0  0  0  0  0  0  0  0  0
   -0.7801    1.5110   -0.6868 C   0  0  0  0  0  0  0  0  0  0  0  0
    0.5047    0.9024   -0.5793 C   0  0  0  0  0  0  0  0  0  0  0  0
    0.7201   -0.3676   -0.0543 C   0  0  0  0  0  0  0  0  0  0  0  0
   -0.3480   -1.1694    0.4226 C   0  0  0  0  0  0  0  0  0  0  0  0
   -1.6327   -0.6783    0.3639 C   0  0  0  0  0  0  0  0  0  0  0  0
   -2.0387    5.8508    0.4303 H   0  0  0  0  0  0  0  0  0  0  0  0
    1.3783    1.4563   -0.9257 H   0  0  0  0  0  0  0  0  0  0  0  0
    1.7308   -0.7700   -0.0012 H   0  0  0  0  0  0  0  0  0  0  0  0
   -0.1542   -2.1570    0.8276 H   0  0  0  0  0  0  0  0  0  0  0  0
   -2.4920   -1.2445    0.7132 H   0  0  0  0  0  0  0  0  0  0  0  0
   -4.1327    5.5040    0.7463 S   0  0  0  0  0  0  0  0  0  0  0  0
   -4.7025    5.0815   -0.9795 C   0  0  0  0  0  0  0  0  0  0  0  0
   -3.6882    4.2649    1.3692 O   0  0  0  0  0  0  0  0  0  0  0  0
   -5.1232    6.3843    1.3287 O   0  0  0  0  0  0  0  0  0  0  0  0
   -2.8342    6.4092    0.3749 O   0  0  0  0  0  0  0  0  0  0  0  0
   -3.7311    4.4200   -1.6112 F   0  0  0  0  0  0  0  0  0  0  0  0
   -5.7825    4.3077   -0.8855 F   0  0  0  0  0  0  0  0  0  0  0  0
   -4.9980    6.1927   -1.6449 F   0  0  0  0  0  0  0  0  0  0  0  0
  1  8  2  0  0  0  0
  2  1  1  0  0  0  0
  3  2  1  0  0  0  0
  4  5  2  0  0  0  0
  4  1  1  0  0  0  0
  5  6  1  0  0  0  0
  6 11  1  0  0  0  0
  6  7  2  0  0  0  0
  7 12  1  0  0  0  0
  8  7  1  0  0  0  0
  8 13  1  0  0  0  0
 10  5  1  0  0  0  0
 14 17  2  0  0  0  0
 14 16  2  0  0  0  0
 15 20  1  0  0  0  0
 15 14  1  0  0  0  0
 18  9  1  0  0  0  0
 18 14  1  0  0  0  0
 19 15  1  0  0  0  0
 21 15  1  0  0  0  0
M  RAD  3   2   2   3   3   4   2
M  END
