Coordinates from ORCA-job PhN2+~TfO-_B3LYPG-6-31G_dp-CH-Scan-d09-49-n800
 OpenBabel11261919123D

 21 20  0  0  0  0  0  0  0  0999 V2000
   -2.0974    0.8913    0.0604 C   0  0  0  0  0  0  0  0  0  0  0  0
   -3.4644    1.1135    0.0764 N   0  0  0  0  0  0  0  0  0  0  0  0
   -4.5580    1.3313    0.0828 N   0  0  0  0  0  0  0  0  0  0  0  0
   -1.2895    2.0356   -0.0799 C   0  0  0  0  0  0  0  0  0  0  0  0
    0.0828    1.7108   -0.0949 C   0  0  0  0  0  0  0  0  0  0  0  0
    0.5556    0.4045    0.0180 C   0  0  0  0  0  0  0  0  0  0  0  0
   -0.3263   -0.6877    0.1554 C   0  0  0  0  0  0  0  0  0  0  0  0
   -1.6864   -0.4607    0.1781 C   0  0  0  0  0  0  0  0  0  0  0  0
   -1.8294    3.5517   -0.1489 H   0  0  0  0  0  0  0  0  0  0  0  0
    0.8058    2.5171   -0.1965 H   0  0  0  0  0  0  0  0  0  0  0  0
    1.6261    0.2140    0.0011 H   0  0  0  0  0  0  0  0  0  0  0  0
    0.0584   -1.6981    0.2437 H   0  0  0  0  0  0  0  0  0  0  0  0
   -2.4059   -1.2664    0.2827 H   0  0  0  0  0  0  0  0  0  0  0  0
   -3.4824    4.9420    0.5088 S   0  0  0  0  0  0  0  0  0  0  0  0
   -4.6208    5.0121   -0.9588 C   0  0  0  0  0  0  0  0  0  0  0  0
   -3.9449    3.7821    1.2836 O   0  0  0  0  0  0  0  0  0  0  0  0
   -3.4888    6.2721    1.0975 O   0  0  0  0  0  0  0  0  0  0  0  0
   -2.1334    4.6362   -0.2022 O   0  0  0  0  0  0  0  0  0  0  0  0
   -4.6164    3.8174   -1.5835 F   0  0  0  0  0  0  0  0  0  0  0  0
   -5.8655    5.2756   -0.5538 F   0  0  0  0  0  0  0  0  0  0  0  0
   -4.2321    5.9483   -1.8237 F   0  0  0  0  0  0  0  0  0  0  0  0
  1  2  1  0  0  0  0
  1  8  2  0  0  0  0
  2  3  1  0  0  0  0
  4  1  1  0  0  0  0
  5  4  2  0  0  0  0
  5  6  1  0  0  0  0
  6  7  2  0  0  0  0
  7  8  1  0  0  0  0
  7 12  1  0  0  0  0
  8 13  1  0  0  0  0
 10  5  1  0  0  0  0
 11  6  1  0  0  0  0
 14 17  2  0  0  0  0
 14 16  2  0  0  0  0
 15 20  1  0  0  0  0
 15 14  1  0  0  0  0
 18  9  1  0  0  0  0
 18 14  1  0  0  0  0
 19 15  1  0  0  0  0
 21 15  1  0  0  0  0
M  RAD  3   2   2   3   3   4   2
M  END
