Coordinates from ORCA-job PhN2+~TfO-_B3LYPG-6-31G_dp-CH-Scan-d09-49-n800
 OpenBabel11261919123D

 21 20  0  0  0  0  0  0  0  0999 V2000
   -1.9992    0.9032    0.0301 C   0  0  0  0  0  0  0  0  0  0  0  0
   -3.3493    1.2155   -0.0191 N   0  0  0  0  0  0  0  0  0  0  0  0
   -4.3821    1.6447   -0.0021 N   0  0  0  0  0  0  0  0  0  0  0  0
   -1.0980    1.9756   -0.0609 C   0  0  0  0  0  0  0  0  0  0  0  0
    0.2541    1.6389   -0.0010 C   0  0  0  0  0  0  0  0  0  0  0  0
    0.6569    0.3085    0.1439 C   0  0  0  0  0  0  0  0  0  0  0  0
   -0.2810   -0.7335    0.2255 C   0  0  0  0  0  0  0  0  0  0  0  0
   -1.6357   -0.4503    0.1632 C   0  0  0  0  0  0  0  0  0  0  0  0
   -1.5640    3.1745   -0.2156 H   0  0  0  0  0  0  0  0  0  0  0  0
    0.9971    2.4269   -0.0676 H   0  0  0  0  0  0  0  0  0  0  0  0
    1.7159    0.0714    0.1924 H   0  0  0  0  0  0  0  0  0  0  0  0
    0.0503   -1.7603    0.3367 H   0  0  0  0  0  0  0  0  0  0  0  0
   -2.3897   -1.2275    0.2229 H   0  0  0  0  0  0  0  0  0  0  0  0
   -3.5280    4.8874    0.3308 S   0  0  0  0  0  0  0  0  0  0  0  0
   -4.8837    5.1790   -0.9041 C   0  0  0  0  0  0  0  0  0  0  0  0
   -4.0302    3.7129    1.1094 O   0  0  0  0  0  0  0  0  0  0  0  0
   -3.3913    6.1381    1.0768 O   0  0  0  0  0  0  0  0  0  0  0  0
   -2.3730    4.5228   -0.5582 O   0  0  0  0  0  0  0  0  0  0  0  0
   -5.1023    4.0512   -1.6148 F   0  0  0  0  0  0  0  0  0  0  0  0
   -6.0229    5.5087   -0.2853 F   0  0  0  0  0  0  0  0  0  0  0  0
   -4.5567    6.1552   -1.7564 F   0  0  0  0  0  0  0  0  0  0  0  0
  1  8  2  0  0  0  0
  2  3  1  0  0  0  0
  2  1  1  0  0  0  0
  4  5  2  0  0  0  0
  4  1  1  0  0  0  0
  5  6  1  0  0  0  0
  6 11  1  0  0  0  0
  6  7  2  0  0  0  0
  7 12  1  0  0  0  0
  8 13  1  0  0  0  0
  8  7  1  0  0  0  0
  9  4  1  0  0  0  0
 10  5  1  0  0  0  0
 14 17  2  0  0  0  0
 14 16  1  0  0  0  0
 15 20  1  0  0  0  0
 15 14  1  0  0  0  0
 18 14  2  0  0  0  0
 19 15  1  0  0  0  0
 21 15  1  0  0  0  0
M  RAD  3   2   2   3   3  16   2
M  END
