Coordinates from ORCA-job PhN2+~TfO-_B3LYPG-6-31G_dp-CH-Scan-d09-49-n800
 OpenBabel11261919123D

 21 20  0  0  0  0  0  0  0  0999 V2000
   -2.0736    0.8498    0.0894 C   0  0  0  0  0  0  0  0  0  0  0  0
   -3.4382    1.0845    0.1467 N   0  0  0  0  0  0  0  0  0  0  0  0
   -4.5295    1.3158    0.1839 N   0  0  0  0  0  0  0  0  0  0  0  0
   -1.2740    2.0002   -0.0534 C   0  0  0  0  0  0  0  0  0  0  0  0
    0.0978    1.6574   -0.1094 C   0  0  0  0  0  0  0  0  0  0  0  0
    0.5656    0.3477   -0.0311 C   0  0  0  0  0  0  0  0  0  0  0  0
   -0.3183   -0.7447    0.1117 C   0  0  0  0  0  0  0  0  0  0  0  0
   -1.6745   -0.5102    0.1748 C   0  0  0  0  0  0  0  0  0  0  0  0
   -1.8732    3.7781   -0.0709 H   0  0  0  0  0  0  0  0  0  0  0  0
    0.8295    2.4559   -0.2177 H   0  0  0  0  0  0  0  0  0  0  0  0
    1.6345    0.1510   -0.0800 H   0  0  0  0  0  0  0  0  0  0  0  0
    0.0643   -1.7581    0.1723 H   0  0  0  0  0  0  0  0  0  0  0  0
   -2.3973   -1.3127    0.2852 H   0  0  0  0  0  0  0  0  0  0  0  0
   -3.5638    5.0310    0.5433 S   0  0  0  0  0  0  0  0  0  0  0  0
   -4.6033    5.0051   -0.9990 C   0  0  0  0  0  0  0  0  0  0  0  0
   -4.0010    3.8714    1.3226 O   0  0  0  0  0  0  0  0  0  0  0  0
   -3.6402    6.3791    1.0766 O   0  0  0  0  0  0  0  0  0  0  0  0
   -2.1376    4.7856   -0.0820 O   0  0  0  0  0  0  0  0  0  0  0  0
   -4.4893    3.8026   -1.5902 F   0  0  0  0  0  0  0  0  0  0  0  0
   -5.8814    5.2061   -0.6738 F   0  0  0  0  0  0  0  0  0  0  0  0
   -4.2092    5.9472   -1.8528 F   0  0  0  0  0  0  0  0  0  0  0  0
  1  2  1  0  0  0  0
  1  8  2  0  0  0  0
  2  3  1  0  0  0  0
  4  1  1  0  0  0  0
  5  4  2  0  0  0  0
  5  6  1  0  0  0  0
  6  7  2  0  0  0  0
  7 12  1  0  0  0  0
  7  8  1  0  0  0  0
  8 13  1  0  0  0  0
 10  5  1  0  0  0  0
 11  6  1  0  0  0  0
 14 17  2  0  0  0  0
 14 16  2  0  0  0  0
 15 20  1  0  0  0  0
 15 14  1  0  0  0  0
 18  9  1  0  0  0  0
 18 14  1  0  0  0  0
 19 15  1  0  0  0  0
 21 15  1  0  0  0  0
M  RAD  3   2   2   3   3   4   2
M  END
