Coordinates from ORCA-job PhN2+~TfO-_B3LYPG-6-31G_dp-CH-Scan-d09-49-n800
 OpenBabel11261919123D

 21 20  0  0  0  0  0  0  0  0999 V2000
   -1.8839    0.6989    0.0736 C   0  0  0  0  0  0  0  0  0  0  0  0
   -3.2202    1.0748    0.1368 N   0  0  0  0  0  0  0  0  0  0  0  0
   -4.2792    1.4326    0.1729 N   0  0  0  0  0  0  0  0  0  0  0  0
   -1.0086    1.7882   -0.0833 C   0  0  0  0  0  0  0  0  0  0  0  0
    0.3316    1.3151   -0.1483 C   0  0  0  0  0  0  0  0  0  0  0  0
    0.6845   -0.0283   -0.0638 C   0  0  0  0  0  0  0  0  0  0  0  0
   -0.2887   -1.0449    0.0951 C   0  0  0  0  0  0  0  0  0  0  0  0
   -1.6181   -0.6951    0.1676 C   0  0  0  0  0  0  0  0  0  0  0  0
   -1.9081    4.7220    0.0757 H   0  0  0  0  0  0  0  0  0  0  0  0
    1.1370    2.0395   -0.2704 H   0  0  0  0  0  0  0  0  0  0  0  0
    1.7321   -0.3191   -0.1199 H   0  0  0  0  0  0  0  0  0  0  0  0
    0.0099   -2.0861    0.1598 H   0  0  0  0  0  0  0  0  0  0  0  0
   -2.4086   -1.4305    0.2894 H   0  0  0  0  0  0  0  0  0  0  0  0
   -3.8834    5.3894    0.5964 S   0  0  0  0  0  0  0  0  0  0  0  0
   -4.7469    5.0812   -1.0270 C   0  0  0  0  0  0  0  0  0  0  0  0
   -3.9897    4.1549    1.3631 O   0  0  0  0  0  0  0  0  0  0  0  0
   -4.3366    6.6727    1.0908 O   0  0  0  0  0  0  0  0  0  0  0  0
   -2.3724    5.5826    0.0620 O   0  0  0  0  0  0  0  0  0  0  0  0
   -4.2405    3.9784   -1.5905 F   0  0  0  0  0  0  0  0  0  0  0  0
   -6.0451    4.9010   -0.7896 F   0  0  0  0  0  0  0  0  0  0  0  0
   -4.5780    6.1155   -1.8440 F   0  0  0  0  0  0  0  0  0  0  0  0
  1  2  1  0  0  0  0
  1  8  2  0  0  0  0
  2  3  1  0  0  0  0
  4  1  1  0  0  0  0
  5  4  2  0  0  0  0
  5  6  1  0  0  0  0
  6  7  2  0  0  0  0
  7 12  1  0  0  0  0
  7  8  1  0  0  0  0
  8 13  1  0  0  0  0
 10  5  1  0  0  0  0
 11  6  1  0  0  0  0
 14 17  2  0  0  0  0
 14 16  2  0  0  0  0
 15 20  1  0  0  0  0
 15 14  1  0  0  0  0
 18  9  1  0  0  0  0
 18 14  1  0  0  0  0
 19 15  1  0  0  0  0
 21 15  1  0  0  0  0
M  RAD  3   2   2   3   3   4   2
M  END
