Coordinates from ORCA-job PhN2+~TfO-_B3LYPG-6-31G_dp-CH-Scan-d09-49-n800
 OpenBabel11261919123D

 21 20  0  0  0  0  0  0  0  0999 V2000
   -1.8892    1.1040   -0.6168 C   0  0  0  0  0  0  0  0  0  0  0  0
   -3.0786    1.2308   -1.3243 N   0  0  0  0  0  0  0  0  0  0  0  0
   -4.0151    1.1443   -1.9163 N   0  0  0  0  0  0  0  0  0  0  0  0
   -0.9128    2.1066   -0.7070 C   0  0  0  0  0  0  0  0  0  0  0  0
    0.2702    1.8871   -0.0085 C   0  0  0  0  0  0  0  0  0  0  0  0
    0.4518    0.7255    0.7464 C   0  0  0  0  0  0  0  0  0  0  0  0
   -0.5487   -0.2526    0.8171 C   0  0  0  0  0  0  0  0  0  0  0  0
   -1.7408   -0.0775    0.1301 C   0  0  0  0  0  0  0  0  0  0  0  0
   -1.0876    2.9116   -1.2098 H   0  0  0  0  0  0  0  0  0  0  0  0
    1.0450    2.6454   -0.0418 H   0  0  0  0  0  0  0  0  0  0  0  0
    1.3780    0.5813    1.2938 H   0  0  0  0  0  0  0  0  0  0  0  0
   -0.4017   -1.1473    1.4122 H   0  0  0  0  0  0  0  0  0  0  0  0
   -2.5408   -0.8077    0.1734 H   0  0  0  0  0  0  0  0  0  0  0  0
   -3.5092    4.0213   -0.0029 S   0  0  0  0  0  0  0  0  0  0  0  0
   -4.8869    5.2632   -0.0722 C   0  0  0  0  0  0  0  0  0  0  0  0
   -4.1444    2.7965    0.5564 O   0  0  0  0  0  0  0  0  0  0  0  0
   -2.4635    4.6392    0.8311 O   0  0  0  0  0  0  0  0  0  0  0  0
   -3.1323    3.8452   -1.4427 O   0  0  0  0  0  0  0  0  0  0  0  0
   -5.8942    4.8032   -0.8316 F   0  0  0  0  0  0  0  0  0  0  0  0
   -5.3599    5.5062    1.1577 F   0  0  0  0  0  0  0  0  0  0  0  0
   -4.4522    6.4164   -0.5980 F   0  0  0  0  0  0  0  0  0  0  0  0
  1  8  1  0  0  0  0
  2  1  1  0  0  0  0
  3  2  1  0  0  0  0
  4  1  2  0  0  0  0
  4  5  1  0  0  0  0
  5  6  2  0  0  0  0
  6  7  1  0  0  0  0
  6 11  1  0  0  0  0
  7 12  1  0  0  0  0
  8 13  1  0  0  0  0
  8  7  2  0  0  0  0
  9  4  1  0  0  0  0
 10  5  1  0  0  0  0
 14 16  2  0  0  0  0
 14 17  1  0  0  0  0
 15 14  1  0  0  0  0
 15 20  1  0  0  0  0
 18 14  2  0  0  0  0
 19 15  1  0  0  0  0
 21 15  1  0  0  0  0
M  RAD  3   2   2   3   3  17   2
M  END
