Coordinates from ORCA-job PhN2+~TfO-_B3LYPG-6-31G_dp-CH-Scan-d09-49-n800
 OpenBabel11261919123D

 21 20  0  0  0  0  0  0  0  0999 V2000
   -1.8876    1.1024   -0.6143 C   0  0  0  0  0  0  0  0  0  0  0  0
   -3.0770    1.2316   -1.3212 N   0  0  0  0  0  0  0  0  0  0  0  0
   -4.0139    1.1474   -1.9127 N   0  0  0  0  0  0  0  0  0  0  0  0
   -0.9091    2.1029   -0.7049 C   0  0  0  0  0  0  0  0  0  0  0  0
    0.2744    1.8818   -0.0080 C   0  0  0  0  0  0  0  0  0  0  0  0
    0.4543    0.7193    0.7463 C   0  0  0  0  0  0  0  0  0  0  0  0
   -0.5479   -0.2570    0.8178 C   0  0  0  0  0  0  0  0  0  0  0  0
   -1.7405   -0.0796    0.1322 C   0  0  0  0  0  0  0  0  0  0  0  0
   -1.0917    2.9340   -1.2209 H   0  0  0  0  0  0  0  0  0  0  0  0
    1.0507    2.6384   -0.0417 H   0  0  0  0  0  0  0  0  0  0  0  0
    1.3807    0.5732    1.2928 H   0  0  0  0  0  0  0  0  0  0  0  0
   -0.4019   -1.1520    1.4126 H   0  0  0  0  0  0  0  0  0  0  0  0
   -2.5417   -0.8086    0.1759 H   0  0  0  0  0  0  0  0  0  0  0  0
   -3.5094    4.0260   -0.0026 S   0  0  0  0  0  0  0  0  0  0  0  0
   -4.8912    5.2632   -0.0737 C   0  0  0  0  0  0  0  0  0  0  0  0
   -4.1412    2.7996    0.5571 O   0  0  0  0  0  0  0  0  0  0  0  0
   -2.4663    4.6479    0.8314 O   0  0  0  0  0  0  0  0  0  0  0  0
   -3.1313    3.8500   -1.4422 O   0  0  0  0  0  0  0  0  0  0  0  0
   -5.8964    4.7994   -0.8335 F   0  0  0  0  0  0  0  0  0  0  0  0
   -5.3658    5.5054    1.1558 F   0  0  0  0  0  0  0  0  0  0  0  0
   -4.4600    6.4175   -0.5999 F   0  0  0  0  0  0  0  0  0  0  0  0
  1  8  1  0  0  0  0
  2  1  1  0  0  0  0
  3  2  1  0  0  0  0
  4  1  2  0  0  0  0
  4  5  1  0  0  0  0
  5  6  2  0  0  0  0
  6  7  1  0  0  0  0
  6 11  1  0  0  0  0
  7 12  1  0  0  0  0
  8 13  1  0  0  0  0
  8  7  2  0  0  0  0
  9  4  1  0  0  0  0
 10  5  1  0  0  0  0
 14 16  2  0  0  0  0
 14 17  1  0  0  0  0
 15 14  1  0  0  0  0
 15 20  1  0  0  0  0
 18 14  2  0  0  0  0
 19 15  1  0  0  0  0
 21 15  1  0  0  0  0
M  RAD  3   2   2   3   3  17   2
M  END
