Coordinates from ORCA-job PhN2+~TfO-_B3LYPG-6-31G_dp-CH-Scan-d09-49-n800
 OpenBabel11261919123D

 21 20  0  0  0  0  0  0  0  0999 V2000
   -1.9459    0.7437    0.1261 C   0  0  0  0  0  0  0  0  0  0  0  0
   -3.2905    1.0707    0.2387 N   0  0  0  0  0  0  0  0  0  0  0  0
   -4.3615    1.3811    0.3191 N   0  0  0  0  0  0  0  0  0  0  0  0
   -1.0991    1.8581   -0.0154 C   0  0  0  0  0  0  0  0  0  0  0  0
    0.2500    1.4272   -0.1319 C   0  0  0  0  0  0  0  0  0  0  0  0
    0.6406    0.0914   -0.1059 C   0  0  0  0  0  0  0  0  0  0  0  0
   -0.3010   -0.9549    0.0418 C   0  0  0  0  0  0  0  0  0  0  0  0
   -1.6366   -0.6440    0.1627 C   0  0  0  0  0  0  0  0  0  0  0  0
   -1.9054    4.4498    0.1116 H   0  0  0  0  0  0  0  0  0  0  0  0
    1.0307    2.1783   -0.2484 H   0  0  0  0  0  0  0  0  0  0  0  0
    1.6934   -0.1679   -0.2012 H   0  0  0  0  0  0  0  0  0  0  0  0
    0.0254   -1.9896    0.0602 H   0  0  0  0  0  0  0  0  0  0  0  0
   -2.4031   -1.4050    0.2794 H   0  0  0  0  0  0  0  0  0  0  0  0
   -3.8212    5.3076    0.5848 S   0  0  0  0  0  0  0  0  0  0  0  0
   -4.6596    5.0314   -1.0564 C   0  0  0  0  0  0  0  0  0  0  0  0
   -4.0706    4.1076    1.3748 O   0  0  0  0  0  0  0  0  0  0  0  0
   -4.1800    6.6367    1.0352 O   0  0  0  0  0  0  0  0  0  0  0  0
   -2.2891    5.3554    0.1022 O   0  0  0  0  0  0  0  0  0  0  0  0
   -4.2439    3.8670   -1.5715 F   0  0  0  0  0  0  0  0  0  0  0  0
   -5.9766    4.9808   -0.8604 F   0  0  0  0  0  0  0  0  0  0  0  0
   -4.3688    6.0174   -1.8990 F   0  0  0  0  0  0  0  0  0  0  0  0
  1  8  1  0  0  0  0
  1  2  1  0  0  0  0
  2  3  1  0  0  0  0
  4  1  2  0  0  0  0
  5  6  2  0  0  0  0
  5  4  1  0  0  0  0
  6  7  1  0  0  0  0
  7 12  1  0  0  0  0
  7  8  2  0  0  0  0
  8 13  1  0  0  0  0
 10  5  1  0  0  0  0
 11  6  1  0  0  0  0
 14 17  2  0  0  0  0
 14 16  2  0  0  0  0
 15 20  1  0  0  0  0
 15 14  1  0  0  0  0
 18  9  1  0  0  0  0
 18 14  1  0  0  0  0
 19 15  1  0  0  0  0
 21 15  1  0  0  0  0
M  RAD  3   2   2   3   3   4   2
M  END
