Coordinates from ORCA-job PhN2+~TfO-_B3LYPG-6-31G_dp-CH-Scan-d09-49-n800
 OpenBabel11261919123D

 21 20  0  0  0  0  0  0  0  0999 V2000
   -1.7847    0.6316    0.0250 C   0  0  0  0  0  0  0  0  0  0  0  0
   -3.1020    1.0809    0.0601 N   0  0  0  0  0  0  0  0  0  0  0  0
   -4.1385    1.5028    0.0663 N   0  0  0  0  0  0  0  0  0  0  0  0
   -0.8658    1.6727   -0.1849 C   0  0  0  0  0  0  0  0  0  0  0  0
    0.4518    1.1317   -0.2198 C   0  0  0  0  0  0  0  0  0  0  0  0
    0.7417   -0.2196   -0.0610 C   0  0  0  0  0  0  0  0  0  0  0  0
   -0.2780   -1.1813    0.1485 C   0  0  0  0  0  0  0  0  0  0  0  0
   -1.5898   -0.7670    0.1955 C   0  0  0  0  0  0  0  0  0  0  0  0
   -1.9546    5.2115    0.1600 H   0  0  0  0  0  0  0  0  0  0  0  0
    1.2920    1.8090   -0.3780 H   0  0  0  0  0  0  0  0  0  0  0  0
    1.7749   -0.5618   -0.0959 H   0  0  0  0  0  0  0  0  0  0  0  0
   -0.0273   -2.2300    0.2715 H   0  0  0  0  0  0  0  0  0  0  0  0
   -2.4148   -1.4568    0.3526 H   0  0  0  0  0  0  0  0  0  0  0  0
   -4.0273    5.5290    0.6237 S   0  0  0  0  0  0  0  0  0  0  0  0
   -4.8149    5.1327   -1.0197 C   0  0  0  0  0  0  0  0  0  0  0  0
   -3.9292    4.2762    1.3598 O   0  0  0  0  0  0  0  0  0  0  0  0
   -4.6804    6.7124    1.1422 O   0  0  0  0  0  0  0  0  0  0  0  0
   -2.5561    5.9761    0.1103 O   0  0  0  0  0  0  0  0  0  0  0  0
   -4.1588    4.1166   -1.5878 F   0  0  0  0  0  0  0  0  0  0  0  0
   -6.0809    4.7807   -0.8054 F   0  0  0  0  0  0  0  0  0  0  0  0
   -4.7702    6.1952   -1.8164 F   0  0  0  0  0  0  0  0  0  0  0  0
  1  2  1  0  0  0  0
  1  8  2  0  0  0  0
  2  3  1  0  0  0  0
  4  1  1  0  0  0  0
  5  4  2  0  0  0  0
  5  6  1  0  0  0  0
  6  7  2  0  0  0  0
  7  8  1  0  0  0  0
  7 12  1  0  0  0  0
  8 13  1  0  0  0  0
 10  5  1  0  0  0  0
 11  6  1  0  0  0  0
 14 17  2  0  0  0  0
 14 16  2  0  0  0  0
 15 20  1  0  0  0  0
 15 14  1  0  0  0  0
 18  9  1  0  0  0  0
 18 14  1  0  0  0  0
 19 15  1  0  0  0  0
 21 15  1  0  0  0  0
M  RAD  3   2   2   3   3   4   2
M  END
