Coordinates from ORCA-job PhN2+~TfO-_B3LYPG-6-31G_dp-CH-Scan-d09-49-n800
 OpenBabel11261919123D

 21 20  0  0  0  0  0  0  0  0999 V2000
   -1.7777    0.6402   -0.1687 C   0  0  0  0  0  0  0  0  0  0  0  0
   -3.0721    1.1534   -0.2518 N   0  0  0  0  0  0  0  0  0  0  0  0
   -4.0769    1.6341   -0.3627 N   0  0  0  0  0  0  0  0  0  0  0  0
   -0.8226    1.5576   -0.6295 C   0  0  0  0  0  0  0  0  0  0  0  0
    0.4717    0.9683   -0.5314 C   0  0  0  0  0  0  0  0  0  0  0  0
    0.7058   -0.3140   -0.0455 C   0  0  0  0  0  0  0  0  0  0  0  0
   -0.3513   -1.1495    0.3962 C   0  0  0  0  0  0  0  0  0  0  0  0
   -1.6442   -0.6796    0.3419 C   0  0  0  0  0  0  0  0  0  0  0  0
   -1.9879    5.7439    0.3727 H   0  0  0  0  0  0  0  0  0  0  0  0
    1.3381    1.5483   -0.8526 H   0  0  0  0  0  0  0  0  0  0  0  0
    1.7232   -0.6998    0.0034 H   0  0  0  0  0  0  0  0  0  0  0  0
   -0.1430   -2.1459    0.7716 H   0  0  0  0  0  0  0  0  0  0  0  0
   -2.4959   -1.2720    0.6653 H   0  0  0  0  0  0  0  0  0  0  0  0
   -4.0874    5.4768    0.7337 S   0  0  0  0  0  0  0  0  0  0  0  0
   -4.6948    5.0611   -0.9807 C   0  0  0  0  0  0  0  0  0  0  0  0
   -3.6822    4.2266    1.3609 O   0  0  0  0  0  0  0  0  0  0  0  0
   -5.0373    6.3977    1.3212 O   0  0  0  0  0  0  0  0  0  0  0  0
   -2.7627    6.3324    0.3400 O   0  0  0  0  0  0  0  0  0  0  0  0
   -3.7530    4.3667   -1.6223 F   0  0  0  0  0  0  0  0  0  0  0  0
   -5.7958    4.3204   -0.8660 F   0  0  0  0  0  0  0  0  0  0  0  0
   -4.9669    6.1762   -1.6496 F   0  0  0  0  0  0  0  0  0  0  0  0
  1  8  2  0  0  0  0
  2  1  1  0  0  0  0
  3  2  1  0  0  0  0
  4  5  2  0  0  0  0
  4  1  1  0  0  0  0
  5  6  1  0  0  0  0
  6 11  1  0  0  0  0
  6  7  2  0  0  0  0
  7 12  1  0  0  0  0
  8  7  1  0  0  0  0
  8 13  1  0  0  0  0
 10  5  1  0  0  0  0
 14 17  2  0  0  0  0
 14 16  2  0  0  0  0
 15 20  1  0  0  0  0
 15 14  1  0  0  0  0
 18  9  1  0  0  0  0
 18 14  1  0  0  0  0
 19 15  1  0  0  0  0
 21 15  1  0  0  0  0
M  RAD  3   2   2   3   3   4   2
M  END
