Coordinates from ORCA-job PhN2+~TfO-_B3LYPG-6-31G_dp-CH-Scan-d09-49-n800
 OpenBabel11261919123D

 21 20  0  0  0  0  0  0  0  0999 V2000
   -1.8191    0.6542    0.0517 C   0  0  0  0  0  0  0  0  0  0  0  0
   -3.1443    1.0752    0.1021 N   0  0  0  0  0  0  0  0  0  0  0  0
   -4.1901    1.4723    0.1228 N   0  0  0  0  0  0  0  0  0  0  0  0
   -0.9168    1.7155   -0.1308 C   0  0  0  0  0  0  0  0  0  0  0  0
    0.4097    1.2002   -0.1833 C   0  0  0  0  0  0  0  0  0  0  0  0
    0.7236   -0.1501   -0.0645 C   0  0  0  0  0  0  0  0  0  0  0  0
   -0.2786   -1.1346    0.1195 C   0  0  0  0  0  0  0  0  0  0  0  0
   -1.5972   -0.7449    0.1815 C   0  0  0  0  0  0  0  0  0  0  0  0
   -1.9359    5.0207    0.1254 H   0  0  0  0  0  0  0  0  0  0  0  0
    1.2369    1.8968   -0.3234 H   0  0  0  0  0  0  0  0  0  0  0  0
    1.7624   -0.4727   -0.1120 H   0  0  0  0  0  0  0  0  0  0  0  0
   -0.0096   -2.1819    0.2114 H   0  0  0  0  0  0  0  0  0  0  0  0
   -2.4093   -1.4535    0.3208 H   0  0  0  0  0  0  0  0  0  0  0  0
   -3.9769    5.4834    0.6098 S   0  0  0  0  0  0  0  0  0  0  0  0
   -4.7956    5.1181   -1.0254 C   0  0  0  0  0  0  0  0  0  0  0  0
   -3.9632    4.2354    1.3608 O   0  0  0  0  0  0  0  0  0  0  0  0
   -4.5495    6.7132    1.1156 O   0  0  0  0  0  0  0  0  0  0  0  0
   -2.4834    5.8266    0.0876 O   0  0  0  0  0  0  0  0  0  0  0  0
   -4.2014    4.0609   -1.5878 F   0  0  0  0  0  0  0  0  0  0  0  0
   -6.0785    4.8397   -0.8020 F   0  0  0  0  0  0  0  0  0  0  0  0
   -4.6961    6.1684   -1.8333 F   0  0  0  0  0  0  0  0  0  0  0  0
  1  2  1  0  0  0  0
  1  8  2  0  0  0  0
  2  3  1  0  0  0  0
  4  1  1  0  0  0  0
  5  4  2  0  0  0  0
  5  6  1  0  0  0  0
  6  7  2  0  0  0  0
  7  8  1  0  0  0  0
  7 12  1  0  0  0  0
  8 13  1  0  0  0  0
 10  5  1  0  0  0  0
 11  6  1  0  0  0  0
 14 17  2  0  0  0  0
 14 16  2  0  0  0  0
 15 20  1  0  0  0  0
 15 14  1  0  0  0  0
 18  9  1  0  0  0  0
 18 14  1  0  0  0  0
 19 15  1  0  0  0  0
 21 15  1  0  0  0  0
M  RAD  3   2   2   3   3   4   2
M  END
