Coordinates from ORCA-job PhN2+~TfO-_B3LYPG-6-31G_dp-CH-Scan-d09-49-n800
 OpenBabel11261919123D

 21 20  0  0  0  0  0  0  0  0999 V2000
   -2.0857    0.9128    0.0307 C   0  0  0  0  0  0  0  0  0  0  0  0
   -3.4488    1.1530    0.0036 N   0  0  0  0  0  0  0  0  0  0  0  0
   -4.5357    1.3972   -0.0135 N   0  0  0  0  0  0  0  0  0  0  0  0
   -1.2470    2.0335   -0.1020 C   0  0  0  0  0  0  0  0  0  0  0  0
    0.1192    1.7139   -0.0718 C   0  0  0  0  0  0  0  0  0  0  0  0
    0.5736    0.4032    0.0763 C   0  0  0  0  0  0  0  0  0  0  0  0
   -0.3242   -0.6745    0.2027 C   0  0  0  0  0  0  0  0  0  0  0  0
   -1.6842   -0.4357    0.1795 C   0  0  0  0  0  0  0  0  0  0  0  0
   -1.7552    3.3764   -0.2198 H   0  0  0  0  0  0  0  0  0  0  0  0
    0.8439    2.5183   -0.1641 H   0  0  0  0  0  0  0  0  0  0  0  0
    1.6416    0.2022    0.0962 H   0  0  0  0  0  0  0  0  0  0  0  0
    0.0462   -1.6873    0.3189 H   0  0  0  0  0  0  0  0  0  0  0  0
   -2.4124   -1.2342    0.2746 H   0  0  0  0  0  0  0  0  0  0  0  0
   -3.4462    4.8973    0.4534 S   0  0  0  0  0  0  0  0  0  0  0  0
   -4.6906    5.0510   -0.9174 C   0  0  0  0  0  0  0  0  0  0  0  0
   -3.9039    3.7202    1.2200 O   0  0  0  0  0  0  0  0  0  0  0  0
   -3.4114    6.1985    1.1107 O   0  0  0  0  0  0  0  0  0  0  0  0
   -2.1783    4.5797   -0.3459 O   0  0  0  0  0  0  0  0  0  0  0  0
   -4.7749    3.8779   -1.5835 F   0  0  0  0  0  0  0  0  0  0  0  0
   -5.8971    5.3361   -0.4180 F   0  0  0  0  0  0  0  0  0  0  0  0
   -4.3417    6.0033   -1.7843 F   0  0  0  0  0  0  0  0  0  0  0  0
  1  8  2  0  0  0  0
  2  1  1  0  0  0  0
  3  2  1  0  0  0  0
  4  5  2  0  0  0  0
  4  1  1  0  0  0  0
  5  6  1  0  0  0  0
  6 11  1  0  0  0  0
  6  7  2  0  0  0  0
  7 12  1  0  0  0  0
  8  7  1  0  0  0  0
  8 13  1  0  0  0  0
 10  5  1  0  0  0  0
 14 17  2  0  0  0  0
 14 16  2  0  0  0  0
 15 20  1  0  0  0  0
 15 14  1  0  0  0  0
 18  9  1  0  0  0  0
 18 14  1  0  0  0  0
 19 15  1  0  0  0  0
 21 15  1  0  0  0  0
M  RAD  3   2   2   3   3   4   2
M  END
