Coordinates from ORCA-job PhN2+~TfO-_B3LYPG-6-31G_dp-CH-Scan-d09-49-n800
 OpenBabel11261919123D

 21 20  0  0  0  0  0  0  0  0999 V2000
   -1.8778    0.6974    0.0710 C   0  0  0  0  0  0  0  0  0  0  0  0
   -3.2135    1.0768    0.1320 N   0  0  0  0  0  0  0  0  0  0  0  0
   -4.2721    1.4361    0.1661 N   0  0  0  0  0  0  0  0  0  0  0  0
   -0.9989    1.7832   -0.0873 C   0  0  0  0  0  0  0  0  0  0  0  0
    0.3398    1.3056   -0.1503 C   0  0  0  0  0  0  0  0  0  0  0  0
    0.6883   -0.0388   -0.0626 C   0  0  0  0  0  0  0  0  0  0  0  0
   -0.2884   -1.0518    0.0976 C   0  0  0  0  0  0  0  0  0  0  0  0
   -1.6167   -0.6975    0.1682 C   0  0  0  0  0  0  0  0  0  0  0  0
   -1.9099    4.7446    0.0772 H   0  0  0  0  0  0  0  0  0  0  0  0
    1.1477    2.0271   -0.2732 H   0  0  0  0  0  0  0  0  0  0  0  0
    1.7350   -0.3332   -0.1170 H   0  0  0  0  0  0  0  0  0  0  0  0
    0.0067   -2.0939    0.1648 H   0  0  0  0  0  0  0  0  0  0  0  0
   -2.4097   -1.4301    0.2907 H   0  0  0  0  0  0  0  0  0  0  0  0
   -3.8904    5.3963    0.5974 S   0  0  0  0  0  0  0  0  0  0  0  0
   -4.7526    5.0838   -1.0259 C   0  0  0  0  0  0  0  0  0  0  0  0
   -3.9874    4.1600    1.3626 O   0  0  0  0  0  0  0  0  0  0  0  0
   -4.3518    6.6760    1.0935 O   0  0  0  0  0  0  0  0  0  0  0  0
   -2.3810    5.6011    0.0623 O   0  0  0  0  0  0  0  0  0  0  0  0
   -4.2399    3.9846   -1.5906 F   0  0  0  0  0  0  0  0  0  0  0  0
   -6.0496    4.8955   -0.7880 F   0  0  0  0  0  0  0  0  0  0  0  0
   -4.5904    6.1200   -1.8419 F   0  0  0  0  0  0  0  0  0  0  0  0
  1  2  1  0  0  0  0
  1  8  2  0  0  0  0
  2  3  1  0  0  0  0
  4  1  1  0  0  0  0
  5  4  2  0  0  0  0
  5  6  1  0  0  0  0
  6  7  2  0  0  0  0
  7 12  1  0  0  0  0
  7  8  1  0  0  0  0
  8 13  1  0  0  0  0
 10  5  1  0  0  0  0
 11  6  1  0  0  0  0
 14 17  2  0  0  0  0
 14 16  2  0  0  0  0
 15 20  1  0  0  0  0
 15 14  1  0  0  0  0
 18  9  1  0  0  0  0
 18 14  1  0  0  0  0
 19 15  1  0  0  0  0
 21 15  1  0  0  0  0
M  RAD  3   2   2   3   3   4   2
M  END
