Coordinates from ORCA-job PhN2+~TfO-_B3LYPG-6-31G_dp-CH-Scan-d09-49-n800
 OpenBabel11261919123D

 21 20  0  0  0  0  0  0  0  0999 V2000
   -1.8013    0.6423    0.0406 C   0  0  0  0  0  0  0  0  0  0  0  0
   -3.1227    1.0775    0.0849 N   0  0  0  0  0  0  0  0  0  0  0  0
   -4.1640    1.4869    0.0998 N   0  0  0  0  0  0  0  0  0  0  0  0
   -0.8909    1.6940   -0.1538 C   0  0  0  0  0  0  0  0  0  0  0  0
    0.4312    1.1658   -0.1996 C   0  0  0  0  0  0  0  0  0  0  0  0
    0.7332   -0.1855   -0.0640 C   0  0  0  0  0  0  0  0  0  0  0  0
   -0.2778   -1.1591    0.1313 C   0  0  0  0  0  0  0  0  0  0  0  0
   -1.5930   -0.7571    0.1876 C   0  0  0  0  0  0  0  0  0  0  0  0
   -1.9449    5.1164    0.1436 H   0  0  0  0  0  0  0  0  0  0  0  0
    1.2649    1.8531   -0.3478 H   0  0  0  0  0  0  0  0  0  0  0  0
    1.7692   -0.5179   -0.1067 H   0  0  0  0  0  0  0  0  0  0  0  0
   -0.0179   -2.2075    0.2363 H   0  0  0  0  0  0  0  0  0  0  0  0
   -2.4115   -1.4567    0.3349 H   0  0  0  0  0  0  0  0  0  0  0  0
   -4.0033    5.5081    0.6159 S   0  0  0  0  0  0  0  0  0  0  0  0
   -4.8057    5.1256   -1.0235 C   0  0  0  0  0  0  0  0  0  0  0  0
   -3.9486    4.2579    1.3611 O   0  0  0  0  0  0  0  0  0  0  0  0
   -4.6163    6.7163    1.1262 O   0  0  0  0  0  0  0  0  0  0  0  0
   -2.5194    5.9023    0.0988 O   0  0  0  0  0  0  0  0  0  0  0  0
   -4.1812    4.0868   -1.5869 F   0  0  0  0  0  0  0  0  0  0  0  0
   -6.0812    4.8123   -0.8050 F   0  0  0  0  0  0  0  0  0  0  0  0
   -4.7316    6.1811   -1.8273 F   0  0  0  0  0  0  0  0  0  0  0  0
  1  2  1  0  0  0  0
  1  8  2  0  0  0  0
  2  3  1  0  0  0  0
  4  1  1  0  0  0  0
  5  4  2  0  0  0  0
  5  6  1  0  0  0  0
  6  7  2  0  0  0  0
  7  8  1  0  0  0  0
  7 12  1  0  0  0  0
  8 13  1  0  0  0  0
 10  5  1  0  0  0  0
 11  6  1  0  0  0  0
 14 17  2  0  0  0  0
 14 16  2  0  0  0  0
 15 20  1  0  0  0  0
 15 14  1  0  0  0  0
 18  9  1  0  0  0  0
 18 14  1  0  0  0  0
 19 15  1  0  0  0  0
 21 15  1  0  0  0  0
M  RAD  3   2   2   3   3   4   2
M  END
