Coordinates from ORCA-job PhN2+~TfO-_B3LYPG-6-31G_dp-CH-Scan-d09-49-n800
 OpenBabel11261919123D

 21 20  0  0  0  0  0  0  0  0999 V2000
   -2.0756    0.8522    0.0879 C   0  0  0  0  0  0  0  0  0  0  0  0
   -3.4404    1.0858    0.1433 N   0  0  0  0  0  0  0  0  0  0  0  0
   -4.5319    1.3161    0.1790 N   0  0  0  0  0  0  0  0  0  0  0  0
   -1.2761    2.0027   -0.0546 C   0  0  0  0  0  0  0  0  0  0  0  0
    0.0960    1.6611   -0.1086 C   0  0  0  0  0  0  0  0  0  0  0  0
    0.5644    0.3517   -0.0288 C   0  0  0  0  0  0  0  0  0  0  0  0
   -0.3190   -0.7410    0.1136 C   0  0  0  0  0  0  0  0  0  0  0  0
   -1.6755   -0.5073    0.1747 C   0  0  0  0  0  0  0  0  0  0  0  0
   -1.8714    3.7660   -0.0747 H   0  0  0  0  0  0  0  0  0  0  0  0
    0.8271    2.4602   -0.2164 H   0  0  0  0  0  0  0  0  0  0  0  0
    1.6335    0.1557   -0.0762 H   0  0  0  0  0  0  0  0  0  0  0  0
    0.0640   -1.7542    0.1754 H   0  0  0  0  0  0  0  0  0  0  0  0
   -2.3979   -1.3102    0.2847 H   0  0  0  0  0  0  0  0  0  0  0  0
   -3.5588    5.0259    0.5421 S   0  0  0  0  0  0  0  0  0  0  0  0
   -4.6031    5.0044   -0.9970 C   0  0  0  0  0  0  0  0  0  0  0  0
   -3.9978    3.8669    1.3215 O   0  0  0  0  0  0  0  0  0  0  0  0
   -3.6310    6.3735    1.0773 O   0  0  0  0  0  0  0  0  0  0  0  0
   -2.1361    4.7764   -0.0874 O   0  0  0  0  0  0  0  0  0  0  0  0
   -4.4947    3.8019   -1.5896 F   0  0  0  0  0  0  0  0  0  0  0  0
   -5.8798    5.2090   -0.6681 F   0  0  0  0  0  0  0  0  0  0  0  0
   -4.2089    5.9458   -1.8516 F   0  0  0  0  0  0  0  0  0  0  0  0
  1  2  1  0  0  0  0
  1  8  2  0  0  0  0
  2  3  1  0  0  0  0
  4  1  1  0  0  0  0
  5  4  2  0  0  0  0
  5  6  1  0  0  0  0
  6  7  2  0  0  0  0
  7  8  1  0  0  0  0
  7 12  1  0  0  0  0
  8 13  1  0  0  0  0
 10  5  1  0  0  0  0
 11  6  1  0  0  0  0
 14 17  2  0  0  0  0
 14 16  2  0  0  0  0
 15 20  1  0  0  0  0
 15 14  1  0  0  0  0
 18  9  1  0  0  0  0
 18 14  1  0  0  0  0
 19 15  1  0  0  0  0
 21 15  1  0  0  0  0
M  RAD  3   2   2   3   3   4   2
M  END
