Coordinates from ORCA-job PhN2+~TfO-_B3LYPG-6-31G_dp-CH-Scan-d09-49-n800
 OpenBabel11261919123D

 21 20  0  0  0  0  0  0  0  0999 V2000
   -1.7926    0.6365    0.0329 C   0  0  0  0  0  0  0  0  0  0  0  0
   -3.1119    1.0789    0.0727 N   0  0  0  0  0  0  0  0  0  0  0  0
   -4.1508    1.4946    0.0833 N   0  0  0  0  0  0  0  0  0  0  0  0
   -0.8779    1.6829   -0.1693 C   0  0  0  0  0  0  0  0  0  0  0  0
    0.4419    1.1481   -0.2098 C   0  0  0  0  0  0  0  0  0  0  0  0
    0.7377   -0.2033   -0.0626 C   0  0  0  0  0  0  0  0  0  0  0  0
   -0.2777   -1.1709    0.1399 C   0  0  0  0  0  0  0  0  0  0  0  0
   -1.5911   -0.7626    0.1916 C   0  0  0  0  0  0  0  0  0  0  0  0
   -1.9498    5.1660    0.1523 H   0  0  0  0  0  0  0  0  0  0  0  0
    1.2790    1.8303   -0.3631 H   0  0  0  0  0  0  0  0  0  0  0  0
    1.7723   -0.5407   -0.1015 H   0  0  0  0  0  0  0  0  0  0  0  0
   -0.0224   -2.2195    0.2539 H   0  0  0  0  0  0  0  0  0  0  0  0
   -2.4130   -1.4572    0.3439 H   0  0  0  0  0  0  0  0  0  0  0  0
   -4.0160    5.5193    0.6198 S   0  0  0  0  0  0  0  0  0  0  0  0
   -4.8107    5.1296   -1.0218 C   0  0  0  0  0  0  0  0  0  0  0  0
   -3.9388    4.2675    1.3602 O   0  0  0  0  0  0  0  0  0  0  0  0
   -4.6498    6.7148    1.1343 O   0  0  0  0  0  0  0  0  0  0  0  0
   -2.5384    5.9410    0.1047 O   0  0  0  0  0  0  0  0  0  0  0  0
   -4.1701    4.1020   -1.5873 F   0  0  0  0  0  0  0  0  0  0  0  0
   -6.0816    4.7969   -0.8055 F   0  0  0  0  0  0  0  0  0  0  0  0
   -4.7511    6.1887   -1.8221 F   0  0  0  0  0  0  0  0  0  0  0  0
  1  2  1  0  0  0  0
  1  8  2  0  0  0  0
  2  3  1  0  0  0  0
  4  1  1  0  0  0  0
  5  4  2  0  0  0  0
  5  6  1  0  0  0  0
  6  7  2  0  0  0  0
  7  8  1  0  0  0  0
  7 12  1  0  0  0  0
  8 13  1  0  0  0  0
 10  5  1  0  0  0  0
 11  6  1  0  0  0  0
 14 17  2  0  0  0  0
 14 16  2  0  0  0  0
 15 20  1  0  0  0  0
 15 14  1  0  0  0  0
 18  9  1  0  0  0  0
 18 14  1  0  0  0  0
 19 15  1  0  0  0  0
 21 15  1  0  0  0  0
M  RAD  3   2   2   3   3   4   2
M  END
