Coordinates from ORCA-job PhN2+~TfO-_B3LYPG-6-31G_dp-CH-Scan-d09-49-n800
 OpenBabel11261919123D

 21 20  0  0  0  0  0  0  0  0999 V2000
   -2.0115    0.7935    0.1384 C   0  0  0  0  0  0  0  0  0  0  0  0
   -3.3645    1.0751    0.2576 N   0  0  0  0  0  0  0  0  0  0  0  0
   -4.4454    1.3445    0.3433 N   0  0  0  0  0  0  0  0  0  0  0  0
   -1.1919    1.9292   -0.0021 C   0  0  0  0  0  0  0  0  0  0  0  0
    0.1673    1.5411   -0.1252 C   0  0  0  0  0  0  0  0  0  0  0  0
    0.5962    0.2166   -0.1071 C   0  0  0  0  0  0  0  0  0  0  0  0
   -0.3145   -0.8554    0.0395 C   0  0  0  0  0  0  0  0  0  0  0  0
   -1.6583   -0.5830    0.1671 C   0  0  0  0  0  0  0  0  0  0  0  0
   -1.8986    4.1552    0.0748 H   0  0  0  0  0  0  0  0  0  0  0  0
    0.9235    2.3163   -0.2409 H   0  0  0  0  0  0  0  0  0  0  0  0
    1.6556   -0.0115   -0.2080 H   0  0  0  0  0  0  0  0  0  0  0  0
    0.0402   -1.8807    0.0520 H   0  0  0  0  0  0  0  0  0  0  0  0
   -2.4015   -1.3664    0.2835 H   0  0  0  0  0  0  0  0  0  0  0  0
   -3.7225    5.1942    0.5761 S   0  0  0  0  0  0  0  0  0  0  0  0
   -4.5972    4.9955   -1.0558 C   0  0  0  0  0  0  0  0  0  0  0  0
   -4.0832    4.0202    1.3653 O   0  0  0  0  0  0  0  0  0  0  0  0
   -3.9688    6.5472    1.0333 O   0  0  0  0  0  0  0  0  0  0  0  0
   -2.2051    5.1033    0.0872 O   0  0  0  0  0  0  0  0  0  0  0  0
   -4.2844    3.8010   -1.5795 F   0  0  0  0  0  0  0  0  0  0  0  0
   -5.9133    5.0517   -0.8512 F   0  0  0  0  0  0  0  0  0  0  0  0
   -4.2349    5.9552   -1.9019 F   0  0  0  0  0  0  0  0  0  0  0  0
  1  8  1  0  0  0  0
  1  2  1  0  0  0  0
  2  3  1  0  0  0  0
  4  1  2  0  0  0  0
  5  6  2  0  0  0  0
  5  4  1  0  0  0  0
  6  7  1  0  0  0  0
  7 12  1  0  0  0  0
  7  8  2  0  0  0  0
  8 13  1  0  0  0  0
  9 18  1  0  0  0  0
 10  5  1  0  0  0  0
 11  6  1  0  0  0  0
 14 17  2  0  0  0  0
 14 16  2  0  0  0  0
 15 20  1  0  0  0  0
 15 14  1  0  0  0  0
 18 14  1  0  0  0  0
 19 15  1  0  0  0  0
 21 15  1  0  0  0  0
M  RAD  3   2   2   3   3   4   2
M  END
