Coordinates from ORCA-job PhN2+~TfO-_B3LYPG-6-31G_dp-CH-Scan-d09-49-n800
 OpenBabel11261919123D

 21 20  0  0  0  0  0  0  0  0999 V2000
   -1.8925    1.1057   -0.6201 C   0  0  0  0  0  0  0  0  0  0  0  0
   -3.0823    1.2293   -1.3277 N   0  0  0  0  0  0  0  0  0  0  0  0
   -4.0185    1.1414   -1.9198 N   0  0  0  0  0  0  0  0  0  0  0  0
   -0.9209    2.1131   -0.7089 C   0  0  0  0  0  0  0  0  0  0  0  0
    0.2617    1.8969   -0.0088 C   0  0  0  0  0  0  0  0  0  0  0  0
    0.4479    0.7357    0.7455 C   0  0  0  0  0  0  0  0  0  0  0  0
   -0.5484   -0.2467    0.8140 C   0  0  0  0  0  0  0  0  0  0  0  0
   -1.7405   -0.0757    0.1257 C   0  0  0  0  0  0  0  0  0  0  0  0
   -1.0839    2.8664   -1.1833 H   0  0  0  0  0  0  0  0  0  0  0  0
    1.0332    2.6587   -0.0408 H   0  0  0  0  0  0  0  0  0  0  0  0
    1.3740    0.5951    1.2938 H   0  0  0  0  0  0  0  0  0  0  0  0
   -0.3986   -1.1413    1.4085 H   0  0  0  0  0  0  0  0  0  0  0  0
   -2.5378   -0.8090    0.1675 H   0  0  0  0  0  0  0  0  0  0  0  0
   -3.5074    4.0161   -0.0032 S   0  0  0  0  0  0  0  0  0  0  0  0
   -4.8799    5.2637   -0.0713 C   0  0  0  0  0  0  0  0  0  0  0  0
   -4.1471    2.7935    0.5557 O   0  0  0  0  0  0  0  0  0  0  0  0
   -2.4588    4.6291    0.8309 O   0  0  0  0  0  0  0  0  0  0  0  0
   -3.1314    3.8391   -1.4430 O   0  0  0  0  0  0  0  0  0  0  0  0
   -5.8895    4.8081   -0.8303 F   0  0  0  0  0  0  0  0  0  0  0  0
   -5.3512    5.5082    1.1590 F   0  0  0  0  0  0  0  0  0  0  0  0
   -4.4408    6.4153   -0.5970 F   0  0  0  0  0  0  0  0  0  0  0  0
  1  8  1  0  0  0  0
  2  1  1  0  0  0  0
  3  2  1  0  0  0  0
  4  1  2  0  0  0  0
  4  5  1  0  0  0  0
  5  6  2  0  0  0  0
  6  7  1  0  0  0  0
  6 11  1  0  0  0  0
  7 12  1  0  0  0  0
  8 13  1  0  0  0  0
  8  7  2  0  0  0  0
  9  4  1  0  0  0  0
 10  5  1  0  0  0  0
 14 16  2  0  0  0  0
 14 17  1  0  0  0  0
 15 14  1  0  0  0  0
 15 20  1  0  0  0  0
 18 14  2  0  0  0  0
 19 15  1  0  0  0  0
 21 15  1  0  0  0  0
M  RAD  3   2   2   3   3  17   2
M  END
