Coordinates from ORCA-job PhN2+~TfO-_B3LYPG-6-31G_dp-CH-Scan-d09-49-n800
 OpenBabel11261919123D

 21 20  0  0  0  0  0  0  0  0999 V2000
   -1.9513    0.9145   -0.0190 C   0  0  0  0  0  0  0  0  0  0  0  0
   -3.2945    1.2475   -0.1238 N   0  0  0  0  0  0  0  0  0  0  0  0
   -4.3206    1.6983   -0.1224 N   0  0  0  0  0  0  0  0  0  0  0  0
   -1.0213    1.9636   -0.0740 C   0  0  0  0  0  0  0  0  0  0  0  0
    0.3206    1.6083    0.0410 C   0  0  0  0  0  0  0  0  0  0  0  0
    0.6920    0.2708    0.2064 C   0  0  0  0  0  0  0  0  0  0  0  0
   -0.2684   -0.7512    0.2511 C   0  0  0  0  0  0  0  0  0  0  0  0
   -1.6148   -0.4428    0.1297 C   0  0  0  0  0  0  0  0  0  0  0  0
   -1.4485    3.1209   -0.2451 H   0  0  0  0  0  0  0  0  0  0  0  0
    1.0785    2.3836    0.0027 H   0  0  0  0  0  0  0  0  0  0  0  0
    1.7432    0.0144    0.3002 H   0  0  0  0  0  0  0  0  0  0  0  0
    0.0375   -1.7838    0.3792 H   0  0  0  0  0  0  0  0  0  0  0  0
   -2.3843   -1.2064    0.1584 H   0  0  0  0  0  0  0  0  0  0  0  0
   -3.5633    4.8431    0.2746 S   0  0  0  0  0  0  0  0  0  0  0  0
   -4.9865    5.2549   -0.8439 C   0  0  0  0  0  0  0  0  0  0  0  0
   -4.0819    3.6718    1.0579 O   0  0  0  0  0  0  0  0  0  0  0  0
   -3.3086    6.0521    1.0594 O   0  0  0  0  0  0  0  0  0  0  0  0
   -2.5003    4.4409   -0.6978 O   0  0  0  0  0  0  0  0  0  0  0  0
   -5.3176    4.1734   -1.5793 F   0  0  0  0  0  0  0  0  0  0  0  0
   -6.0575    5.6200   -0.1302 F   0  0  0  0  0  0  0  0  0  0  0  0
   -4.6653    6.2490   -1.6788 F   0  0  0  0  0  0  0  0  0  0  0  0
  1  8  1  0  0  0  0
  2  3  1  0  0  0  0
  2  1  1  0  0  0  0
  4  1  2  0  0  0  0
  4  5  1  0  0  0  0
  5  6  2  0  0  0  0
  6  7  1  0  0  0  0
  6 11  1  0  0  0  0
  7 12  1  0  0  0  0
  8 13  1  0  0  0  0
  8  7  2  0  0  0  0
  9  4  1  0  0  0  0
 10  5  1  0  0  0  0
 14 16  2  0  0  0  0
 14 17  1  0  0  0  0
 15 20  1  0  0  0  0
 15 14  1  0  0  0  0
 18 14  2  0  0  0  0
 19 15  1  0  0  0  0
 21 15  1  0  0  0  0
M  RAD  3   2   2   3   3  17   2
M  END
