Coordinates from ORCA-job PhN2+~TfO-_B3LYPG-6-31G_dp-CH-Scan-d09-49-n800
 OpenBabel11261919123D

 21 20  0  0  0  0  0  0  0  0999 V2000
   -1.7259    0.6186   -0.2000 C   0  0  0  0  0  0  0  0  0  0  0  0
   -3.0052    1.1676   -0.2935 N   0  0  0  0  0  0  0  0  0  0  0  0
   -3.9962    1.6740   -0.4155 N   0  0  0  0  0  0  0  0  0  0  0  0
   -0.7512    1.4813   -0.7204 C   0  0  0  0  0  0  0  0  0  0  0  0
    0.5268    0.8596   -0.6074 C   0  0  0  0  0  0  0  0  0  0  0  0
    0.7295   -0.4027   -0.0592 C   0  0  0  0  0  0  0  0  0  0  0  0
   -0.3458   -1.1823    0.4382 C   0  0  0  0  0  0  0  0  0  0  0  0
   -1.6248   -0.6767    0.3767 C   0  0  0  0  0  0  0  0  0  0  0  0
   -2.0729    5.9147    0.4615 H   0  0  0  0  0  0  0  0  0  0  0  0
    1.4052    1.3962   -0.9685 H   0  0  0  0  0  0  0  0  0  0  0  0
    1.7354   -0.8165   -0.0036 H   0  0  0  0  0  0  0  0  0  0  0  0
   -0.1619   -2.1644    0.8607 H   0  0  0  0  0  0  0  0  0  0  0  0
   -2.4890   -1.2256    0.7411 H   0  0  0  0  0  0  0  0  0  0  0  0
   -4.1614    5.5210    0.7538 S   0  0  0  0  0  0  0  0  0  0  0  0
   -4.7097    5.0957   -0.9784 C   0  0  0  0  0  0  0  0  0  0  0  0
   -3.6937    4.2889    1.3737 O   0  0  0  0  0  0  0  0  0  0  0  0
   -5.1748    6.3765    1.3338 O   0  0  0  0  0  0  0  0  0  0  0  0
   -2.8797    6.4554    0.3956 O   0  0  0  0  0  0  0  0  0  0  0  0
   -3.7208    4.4558   -1.6051 F   0  0  0  0  0  0  0  0  0  0  0  0
   -5.7756    4.3013   -0.8963 F   0  0  0  0  0  0  0  0  0  0  0  0
   -5.0210    6.2043   -1.6409 F   0  0  0  0  0  0  0  0  0  0  0  0
  1  8  2  0  0  0  0
  2  1  1  0  0  0  0
  3  2  1  0  0  0  0
  4  5  2  0  0  0  0
  4  1  1  0  0  0  0
  5  6  1  0  0  0  0
  6 11  1  0  0  0  0
  6  7  2  0  0  0  0
  7 12  1  0  0  0  0
  8  7  1  0  0  0  0
  8 13  1  0  0  0  0
 10  5  1  0  0  0  0
 14 17  2  0  0  0  0
 14 16  2  0  0  0  0
 15 20  1  0  0  0  0
 15 14  1  0  0  0  0
 18  9  1  0  0  0  0
 18 14  1  0  0  0  0
 19 15  1  0  0  0  0
 21 15  1  0  0  0  0
M  RAD  3   2   2   3   3   4   2
M  END
