Coordinates from ORCA-job PhN2+~TfO-_B3LYPG-6-31G_dp-CH-Scan-d09-49-n800
 OpenBabel11261919123D

 21 20  0  0  0  0  0  0  0  0999 V2000
   -1.7953    0.6382    0.0354 C   0  0  0  0  0  0  0  0  0  0  0  0
   -3.1152    1.0784    0.0766 N   0  0  0  0  0  0  0  0  0  0  0  0
   -4.1549    1.4921    0.0886 N   0  0  0  0  0  0  0  0  0  0  0  0
   -0.8819    1.6863   -0.1644 C   0  0  0  0  0  0  0  0  0  0  0  0
    0.4386    1.1536   -0.2066 C   0  0  0  0  0  0  0  0  0  0  0  0
    0.7364   -0.1978   -0.0631 C   0  0  0  0  0  0  0  0  0  0  0  0
   -0.2777   -1.1674    0.1372 C   0  0  0  0  0  0  0  0  0  0  0  0
   -1.5916   -0.7610    0.1904 C   0  0  0  0  0  0  0  0  0  0  0  0
   -1.9483    5.1508    0.1497 H   0  0  0  0  0  0  0  0  0  0  0  0
    1.2746    1.8374   -0.3583 H   0  0  0  0  0  0  0  0  0  0  0  0
    1.7714   -0.5337   -0.1032 H   0  0  0  0  0  0  0  0  0  0  0  0
   -0.0209   -2.2159    0.2483 H   0  0  0  0  0  0  0  0  0  0  0  0
   -2.4124   -1.4572    0.3410 H   0  0  0  0  0  0  0  0  0  0  0  0
   -4.0121    5.5160    0.6185 S   0  0  0  0  0  0  0  0  0  0  0  0
   -4.8092    5.1284   -1.0223 C   0  0  0  0  0  0  0  0  0  0  0  0
   -3.9420    4.2646    1.3605 O   0  0  0  0  0  0  0  0  0  0  0  0
   -4.6396    6.7155    1.1317 O   0  0  0  0  0  0  0  0  0  0  0  0
   -2.5325    5.9291    0.1028 O   0  0  0  0  0  0  0  0  0  0  0  0
   -4.1737    4.0972   -1.5871 F   0  0  0  0  0  0  0  0  0  0  0  0
   -6.0816    4.8019   -0.8054 F   0  0  0  0  0  0  0  0  0  0  0  0
   -4.7449    6.1864   -1.8238 F   0  0  0  0  0  0  0  0  0  0  0  0
  1  2  1  0  0  0  0
  1  8  2  0  0  0  0
  2  3  1  0  0  0  0
  4  1  1  0  0  0  0
  5  4  2  0  0  0  0
  5  6  1  0  0  0  0
  6  7  2  0  0  0  0
  7  8  1  0  0  0  0
  7 12  1  0  0  0  0
  8 13  1  0  0  0  0
 10  5  1  0  0  0  0
 11  6  1  0  0  0  0
 14 17  2  0  0  0  0
 14 16  2  0  0  0  0
 15 20  1  0  0  0  0
 15 14  1  0  0  0  0
 18  9  1  0  0  0  0
 18 14  1  0  0  0  0
 19 15  1  0  0  0  0
 21 15  1  0  0  0  0
M  RAD  3   2   2   3   3   4   2
M  END
