Coordinates from ORCA-job PhN2+~TfO-_B3LYPG-6-31G_dp-CH-Scan-d09-49-n800
 OpenBabel11261919123D

 21 20  0  0  0  0  0  0  0  0999 V2000
   -1.9974    0.9033    0.0297 C   0  0  0  0  0  0  0  0  0  0  0  0
   -3.3473    1.2166   -0.0215 N   0  0  0  0  0  0  0  0  0  0  0  0
   -4.3796    1.6474   -0.0053 N   0  0  0  0  0  0  0  0  0  0  0  0
   -1.0953    1.9752   -0.0598 C   0  0  0  0  0  0  0  0  0  0  0  0
    0.2564    1.6379    0.0012 C   0  0  0  0  0  0  0  0  0  0  0  0
    0.6583    0.3073    0.1461 C   0  0  0  0  0  0  0  0  0  0  0  0
   -0.2802   -0.7343    0.2263 C   0  0  0  0  0  0  0  0  0  0  0  0
   -1.6349   -0.4504    0.1625 C   0  0  0  0  0  0  0  0  0  0  0  0
   -1.5602    3.1691   -0.2144 H   0  0  0  0  0  0  0  0  0  0  0  0
    1.0000    2.4256   -0.0643 H   0  0  0  0  0  0  0  0  0  0  0  0
    1.7171    0.0695    0.1957 H   0  0  0  0  0  0  0  0  0  0  0  0
    0.0504   -1.7612    0.3374 H   0  0  0  0  0  0  0  0  0  0  0  0
   -2.3893   -1.2272    0.2208 H   0  0  0  0  0  0  0  0  0  0  0  0
   -3.5290    4.8866    0.3275 S   0  0  0  0  0  0  0  0  0  0  0  0
   -4.8881    5.1820   -0.9027 C   0  0  0  0  0  0  0  0  0  0  0  0
   -4.0311    3.7124    1.1067 O   0  0  0  0  0  0  0  0  0  0  0  0
   -3.3875    6.1364    1.0743 O   0  0  0  0  0  0  0  0  0  0  0  0
   -2.3776    4.5199   -0.5651 O   0  0  0  0  0  0  0  0  0  0  0  0
   -5.1110    4.0551   -1.6135 F   0  0  0  0  0  0  0  0  0  0  0  0
   -6.0247    5.5133   -0.2801 F   0  0  0  0  0  0  0  0  0  0  0  0
   -4.5620    6.1583   -1.7552 F   0  0  0  0  0  0  0  0  0  0  0  0
  1  8  2  0  0  0  0
  2  3  1  0  0  0  0
  2  1  1  0  0  0  0
  4  5  2  0  0  0  0
  4  1  1  0  0  0  0
  5  6  1  0  0  0  0
  6 11  1  0  0  0  0
  6  7  2  0  0  0  0
  7 12  1  0  0  0  0
  8 13  1  0  0  0  0
  8  7  1  0  0  0  0
  9  4  1  0  0  0  0
 10  5  1  0  0  0  0
 14 17  2  0  0  0  0
 14 16  1  0  0  0  0
 15 20  1  0  0  0  0
 15 14  1  0  0  0  0
 18 14  2  0  0  0  0
 19 15  1  0  0  0  0
 21 15  1  0  0  0  0
M  RAD  3   2   2   3   3  16   2
M  END
