Coordinates from ORCA-job PhN2+~TfO-_B3LYPG-6-31G_dp-CH-Scan-d09-49-n800
 OpenBabel11261919123D

 21 20  0  0  0  0  0  0  0  0999 V2000
   -1.7452    0.6258   -0.1892 C   0  0  0  0  0  0  0  0  0  0  0  0
   -3.0303    1.1615   -0.2791 N   0  0  0  0  0  0  0  0  0  0  0  0
   -4.0264    1.6585   -0.3974 N   0  0  0  0  0  0  0  0  0  0  0  0
   -0.7778    1.5085   -0.6896 C   0  0  0  0  0  0  0  0  0  0  0  0
    0.5065    0.8989   -0.5817 C   0  0  0  0  0  0  0  0  0  0  0  0
    0.7208   -0.3704   -0.0547 C   0  0  0  0  0  0  0  0  0  0  0  0
   -0.3478   -1.1705    0.4239 C   0  0  0  0  0  0  0  0  0  0  0  0
   -1.6321   -0.6782    0.3650 C   0  0  0  0  0  0  0  0  0  0  0  0
   -2.0415    5.8562    0.4331 H   0  0  0  0  0  0  0  0  0  0  0  0
    1.3805    1.4514   -0.9293 H   0  0  0  0  0  0  0  0  0  0  0  0
    1.7312   -0.7738   -0.0014 H   0  0  0  0  0  0  0  0  0  0  0  0
   -0.1548   -2.1577    0.8304 H   0  0  0  0  0  0  0  0  0  0  0  0
   -2.4917   -1.2430    0.7155 H   0  0  0  0  0  0  0  0  0  0  0  0
   -4.1351    5.5054    0.7469 S   0  0  0  0  0  0  0  0  0  0  0  0
   -4.7031    5.0827   -0.9794 C   0  0  0  0  0  0  0  0  0  0  0  0
   -3.6886    4.2669    1.3696 O   0  0  0  0  0  0  0  0  0  0  0  0
   -5.1275    6.3837    1.3291 O   0  0  0  0  0  0  0  0  0  0  0  0
   -2.8379    6.4131    0.3766 O   0  0  0  0  0  0  0  0  0  0  0  0
   -3.7302    4.4229   -1.6107 F   0  0  0  0  0  0  0  0  0  0  0  0
   -5.7819    4.3072   -0.8865 F   0  0  0  0  0  0  0  0  0  0  0  0
   -4.9999    6.1936   -1.6447 F   0  0  0  0  0  0  0  0  0  0  0  0
  1  8  2  0  0  0  0
  2  1  1  0  0  0  0
  3  2  1  0  0  0  0
  4  5  2  0  0  0  0
  4  1  1  0  0  0  0
  5  6  1  0  0  0  0
  6 11  1  0  0  0  0
  6  7  2  0  0  0  0
  7 12  1  0  0  0  0
  8  7  1  0  0  0  0
  8 13  1  0  0  0  0
 10  5  1  0  0  0  0
 14 17  2  0  0  0  0
 14 16  2  0  0  0  0
 15 20  1  0  0  0  0
 15 14  1  0  0  0  0
 18  9  1  0  0  0  0
 18 14  1  0  0  0  0
 19 15  1  0  0  0  0
 21 15  1  0  0  0  0
M  RAD  3   2   2   3   3   4   2
M  END
