Coordinates from ORCA-job PhN2+~TfO-_B3LYPG-6-31G_dp-CH-Scan-d09-49-n800
 OpenBabel11261919123D

 21 20  0  0  0  0  0  0  0  0999 V2000
   -1.9362    0.7354    0.1215 C   0  0  0  0  0  0  0  0  0  0  0  0
   -3.2796    1.0692    0.2312 N   0  0  0  0  0  0  0  0  0  0  0  0
   -4.3491    1.3859    0.3073 N   0  0  0  0  0  0  0  0  0  0  0  0
   -1.0860    1.8467   -0.0230 C   0  0  0  0  0  0  0  0  0  0  0  0
    0.2619    1.4100   -0.1351 C   0  0  0  0  0  0  0  0  0  0  0  0
    0.6476    0.0731   -0.1031 C   0  0  0  0  0  0  0  0  0  0  0  0
   -0.2980   -0.9695    0.0468 C   0  0  0  0  0  0  0  0  0  0  0  0
   -1.6328   -0.6534    0.1639 C   0  0  0  0  0  0  0  0  0  0  0  0
   -1.9071    4.4912    0.1127 H   0  0  0  0  0  0  0  0  0  0  0  0
    1.0458    2.1577   -0.2532 H   0  0  0  0  0  0  0  0  0  0  0  0
    1.6997   -0.1906   -0.1953 H   0  0  0  0  0  0  0  0  0  0  0  0
    0.0248   -2.0052    0.0699 H   0  0  0  0  0  0  0  0  0  0  0  0
   -2.4023   -1.4111    0.2821 H   0  0  0  0  0  0  0  0  0  0  0  0
   -3.8341    5.3220    0.5862 S   0  0  0  0  0  0  0  0  0  0  0  0
   -4.6708    5.0403   -1.0550 C   0  0  0  0  0  0  0  0  0  0  0  0
   -4.0654    4.1167    1.3732 O   0  0  0  0  0  0  0  0  0  0  0  0
   -4.2080    6.6454    1.0407 O   0  0  0  0  0  0  0  0  0  0  0  0
   -2.3022    5.3905    0.1010 O   0  0  0  0  0  0  0  0  0  0  0  0
   -4.2418    3.8826   -1.5734 F   0  0  0  0  0  0  0  0  0  0  0  0
   -5.9868    4.9737   -0.8573 F   0  0  0  0  0  0  0  0  0  0  0  0
   -4.3926    6.0322   -1.8948 F   0  0  0  0  0  0  0  0  0  0  0  0
  1  8  1  0  0  0  0
  1  2  1  0  0  0  0
  2  3  1  0  0  0  0
  4  1  2  0  0  0  0
  5  6  2  0  0  0  0
  5  4  1  0  0  0  0
  6  7  1  0  0  0  0
  7 12  1  0  0  0  0
  7  8  2  0  0  0  0
  8 13  1  0  0  0  0
 10  5  1  0  0  0  0
 11  6  1  0  0  0  0
 14 17  2  0  0  0  0
 14 16  2  0  0  0  0
 15 20  1  0  0  0  0
 15 14  1  0  0  0  0
 18  9  1  0  0  0  0
 18 14  1  0  0  0  0
 19 15  1  0  0  0  0
 21 15  1  0  0  0  0
M  RAD  3   2   2   3   3   4   2
M  END
