Coordinates from ORCA-job PhN2+~TfO-_B3LYPG-6-31G_dp-CH-Scan-d09-49-n800
 OpenBabel11261919123D

 21 20  0  0  0  0  0  0  0  0999 V2000
   -1.7840    0.6434   -0.1639 C   0  0  0  0  0  0  0  0  0  0  0  0
   -3.0803    1.1521   -0.2454 N   0  0  0  0  0  0  0  0  0  0  0  0
   -4.0868    1.6295   -0.3545 N   0  0  0  0  0  0  0  0  0  0  0  0
   -0.8315    1.5682   -0.6153 C   0  0  0  0  0  0  0  0  0  0  0  0
    0.4648    0.9828   -0.5195 C   0  0  0  0  0  0  0  0  0  0  0  0
    0.7028   -0.3024   -0.0433 C   0  0  0  0  0  0  0  0  0  0  0  0
   -0.3520   -1.1454    0.3896 C   0  0  0  0  0  0  0  0  0  0  0  0
   -1.6465   -0.6799    0.3363 C   0  0  0  0  0  0  0  0  0  0  0  0
   -1.9772    5.7187    0.3581 H   0  0  0  0  0  0  0  0  0  0  0  0
    1.3296    1.5685   -0.8344 H   0  0  0  0  0  0  0  0  0  0  0  0
    1.7215   -0.6847    0.0045 H   0  0  0  0  0  0  0  0  0  0  0  0
   -0.1406   -2.1438    0.7577 H   0  0  0  0  0  0  0  0  0  0  0  0
   -2.4966   -1.2780    0.6532 H   0  0  0  0  0  0  0  0  0  0  0  0
   -4.0772    5.4711    0.7307 S   0  0  0  0  0  0  0  0  0  0  0  0
   -4.6939    5.0569   -0.9808 C   0  0  0  0  0  0  0  0  0  0  0  0
   -3.6815    4.2185    1.3591 O   0  0  0  0  0  0  0  0  0  0  0  0
   -5.0171    6.4015    1.3192 O   0  0  0  0  0  0  0  0  0  0  0  0
   -2.7467    6.3145    0.3312 O   0  0  0  0  0  0  0  0  0  0  0  0
   -3.7592    4.3551   -1.6249 F   0  0  0  0  0  0  0  0  0  0  0  0
   -5.7993    4.3236   -0.8608 F   0  0  0  0  0  0  0  0  0  0  0  0
   -4.9611    6.1726   -1.6505 F   0  0  0  0  0  0  0  0  0  0  0  0
  1  8  2  0  0  0  0
  2  1  1  0  0  0  0
  3  2  1  0  0  0  0
  4  5  2  0  0  0  0
  4  1  1  0  0  0  0
  5  6  1  0  0  0  0
  6 11  1  0  0  0  0
  6  7  2  0  0  0  0
  7 12  1  0  0  0  0
  8  7  1  0  0  0  0
  8 13  1  0  0  0  0
 10  5  1  0  0  0  0
 14 17  2  0  0  0  0
 14 16  2  0  0  0  0
 15 20  1  0  0  0  0
 15 14  1  0  0  0  0
 18  9  1  0  0  0  0
 18 14  1  0  0  0  0
 19 15  1  0  0  0  0
 21 15  1  0  0  0  0
M  RAD  3   2   2   3   3   4   2
M  END
