Coordinates from ORCA-job PhN2+~TfO-_B3LYPG-6-31G_dp-CH-Scan-d09-49-n800
 OpenBabel11261919123D

 21 20  0  0  0  0  0  0  0  0999 V2000
   -1.7881    0.6456   -0.1606 C   0  0  0  0  0  0  0  0  0  0  0  0
   -3.0855    1.1513   -0.2410 N   0  0  0  0  0  0  0  0  0  0  0  0
   -4.0932    1.6265   -0.3489 N   0  0  0  0  0  0  0  0  0  0  0  0
   -0.8371    1.5752   -0.6055 C   0  0  0  0  0  0  0  0  0  0  0  0
    0.4604    0.9923   -0.5113 C   0  0  0  0  0  0  0  0  0  0  0  0
    0.7009   -0.2949   -0.0419 C   0  0  0  0  0  0  0  0  0  0  0  0
   -0.3524   -1.1427    0.3850 C   0  0  0  0  0  0  0  0  0  0  0  0
   -1.6480   -0.6801    0.3324 C   0  0  0  0  0  0  0  0  0  0  0  0
   -1.9703    5.7019    0.3480 H   0  0  0  0  0  0  0  0  0  0  0  0
    1.3242    1.5819   -0.8218 H   0  0  0  0  0  0  0  0  0  0  0  0
    1.7205   -0.6750    0.0053 H   0  0  0  0  0  0  0  0  0  0  0  0
   -0.1391   -2.1427    0.7480 H   0  0  0  0  0  0  0  0  0  0  0  0
   -2.4970   -1.2821    0.6449 H   0  0  0  0  0  0  0  0  0  0  0  0
   -4.0705    5.4675    0.7286 S   0  0  0  0  0  0  0  0  0  0  0  0
   -4.6935    5.0541   -0.9808 C   0  0  0  0  0  0  0  0  0  0  0  0
   -3.6812    4.2133    1.3579 O   0  0  0  0  0  0  0  0  0  0  0  0
   -5.0034    6.4045    1.3177 O   0  0  0  0  0  0  0  0  0  0  0  0
   -2.7361    6.3026    0.3251 O   0  0  0  0  0  0  0  0  0  0  0  0
   -3.7636    4.3476   -1.6266 F   0  0  0  0  0  0  0  0  0  0  0  0
   -5.8018    4.3258   -0.8570 F   0  0  0  0  0  0  0  0  0  0  0  0
   -4.9577    6.1702   -1.6511 F   0  0  0  0  0  0  0  0  0  0  0  0
  1  8  2  0  0  0  0
  2  1  1  0  0  0  0
  3  2  1  0  0  0  0
  4  5  2  0  0  0  0
  4  1  1  0  0  0  0
  5  6  1  0  0  0  0
  6 11  1  0  0  0  0
  6  7  2  0  0  0  0
  7 12  1  0  0  0  0
  8  7  1  0  0  0  0
  8 13  1  0  0  0  0
 10  5  1  0  0  0  0
 14 17  2  0  0  0  0
 14 16  2  0  0  0  0
 15 20  1  0  0  0  0
 15 14  1  0  0  0  0
 18  9  1  0  0  0  0
 18 14  1  0  0  0  0
 19 15  1  0  0  0  0
 21 15  1  0  0  0  0
M  RAD  3   2   2   3   3   4   2
M  END
