Coordinates from ORCA-job PhN2+~TfO-_B3LYPG-6-31G_dp-CH-Scan-d09-49-n800
 OpenBabel11261919123D

 21 20  0  0  0  0  0  0  0  0999 V2000
   -2.0663    0.8408    0.0954 C   0  0  0  0  0  0  0  0  0  0  0  0
   -3.4300    1.0798    0.1603 N   0  0  0  0  0  0  0  0  0  0  0  0
   -4.5203    1.3152    0.2034 N   0  0  0  0  0  0  0  0  0  0  0  0
   -1.2662    1.9906   -0.0484 C   0  0  0  0  0  0  0  0  0  0  0  0
    0.1049    1.6436   -0.1123 C   0  0  0  0  0  0  0  0  0  0  0  0
    0.5699    0.3326   -0.0400 C   0  0  0  0  0  0  0  0  0  0  0  0
   -0.3158   -0.7584    0.1045 C   0  0  0  0  0  0  0  0  0  0  0  0
   -1.6710   -0.5209    0.1753 C   0  0  0  0  0  0  0  0  0  0  0  0
   -1.8794    3.8220   -0.0559 H   0  0  0  0  0  0  0  0  0  0  0  0
    0.8388    2.4400   -0.2224 H   0  0  0  0  0  0  0  0  0  0  0  0
    1.6380    0.1334   -0.0951 H   0  0  0  0  0  0  0  0  0  0  0  0
    0.0649   -1.7728    0.1603 H   0  0  0  0  0  0  0  0  0  0  0  0
   -2.3953   -1.3219    0.2873 H   0  0  0  0  0  0  0  0  0  0  0  0
   -3.5828    5.0501    0.5479 S   0  0  0  0  0  0  0  0  0  0  0  0
   -4.6036    5.0078   -1.0067 C   0  0  0  0  0  0  0  0  0  0  0  0
   -4.0133    3.8882    1.3263 O   0  0  0  0  0  0  0  0  0  0  0  0
   -3.6755    6.3995    1.0740 O   0  0  0  0  0  0  0  0  0  0  0  0
   -2.1437    4.8200   -0.0616 O   0  0  0  0  0  0  0  0  0  0  0  0
   -4.4690    3.8054   -1.5927 F   0  0  0  0  0  0  0  0  0  0  0  0
   -5.8872    5.1954   -0.6958 F   0  0  0  0  0  0  0  0  0  0  0  0
   -4.2100    5.9524   -1.8576 F   0  0  0  0  0  0  0  0  0  0  0  0
  1  2  1  0  0  0  0
  1  8  2  0  0  0  0
  2  3  1  0  0  0  0
  4  1  1  0  0  0  0
  5  4  2  0  0  0  0
  5  6  1  0  0  0  0
  6  7  2  0  0  0  0
  7 12  1  0  0  0  0
  7  8  1  0  0  0  0
  8 13  1  0  0  0  0
 10  5  1  0  0  0  0
 11  6  1  0  0  0  0
 14 17  2  0  0  0  0
 14 16  2  0  0  0  0
 15 20  1  0  0  0  0
 15 14  1  0  0  0  0
 18  9  1  0  0  0  0
 18 14  1  0  0  0  0
 19 15  1  0  0  0  0
 21 15  1  0  0  0  0
M  RAD  3   2   2   3   3   4   2
M  END
