Coordinates from ORCA-job PhN2+~TfO-_B3LYPG-6-31G_dp-CH-Scan-d09-49-n800
 OpenBabel11261919123D

 21 20  0  0  0  0  0  0  0  0999 V2000
   -1.8212    0.6557    0.0527 C   0  0  0  0  0  0  0  0  0  0  0  0
   -3.1469    1.0749    0.1030 N   0  0  0  0  0  0  0  0  0  0  0  0
   -4.1933    1.4704    0.1249 N   0  0  0  0  0  0  0  0  0  0  0  0
   -0.9198    1.7181   -0.1279 C   0  0  0  0  0  0  0  0  0  0  0  0
    0.4072    1.2043   -0.1810 C   0  0  0  0  0  0  0  0  0  0  0  0
    0.7225   -0.1458   -0.0640 C   0  0  0  0  0  0  0  0  0  0  0  0
   -0.2787   -1.1316    0.1183 C   0  0  0  0  0  0  0  0  0  0  0  0
   -1.5978   -0.7433    0.1806 C   0  0  0  0  0  0  0  0  0  0  0  0
   -1.9347    5.0093    0.1220 H   0  0  0  0  0  0  0  0  0  0  0  0
    1.2337    1.9020   -0.3198 H   0  0  0  0  0  0  0  0  0  0  0  0
    1.7617   -0.4673   -0.1118 H   0  0  0  0  0  0  0  0  0  0  0  0
   -0.0087   -2.1788    0.2087 H   0  0  0  0  0  0  0  0  0  0  0  0
   -2.4091   -1.4530    0.3186 H   0  0  0  0  0  0  0  0  0  0  0  0
   -3.9733    5.4802    0.6089 S   0  0  0  0  0  0  0  0  0  0  0  0
   -4.7948    5.1173   -1.0253 C   0  0  0  0  0  0  0  0  0  0  0  0
   -3.9640    4.2325    1.3605 O   0  0  0  0  0  0  0  0  0  0  0  0
   -4.5407    6.7124    1.1148 O   0  0  0  0  0  0  0  0  0  0  0  0
   -2.4790    5.8174    0.0854 O   0  0  0  0  0  0  0  0  0  0  0  0
   -4.2045    4.0581   -1.5882 F   0  0  0  0  0  0  0  0  0  0  0  0
   -6.0784    4.8430   -0.8006 F   0  0  0  0  0  0  0  0  0  0  0  0
   -4.6928    6.1671   -1.8336 F   0  0  0  0  0  0  0  0  0  0  0  0
  1  2  1  0  0  0  0
  1  8  2  0  0  0  0
  2  3  1  0  0  0  0
  4  1  1  0  0  0  0
  5  4  2  0  0  0  0
  5  6  1  0  0  0  0
  6  7  2  0  0  0  0
  7  8  1  0  0  0  0
  7 12  1  0  0  0  0
  8 13  1  0  0  0  0
 10  5  1  0  0  0  0
 11  6  1  0  0  0  0
 14 17  2  0  0  0  0
 14 16  2  0  0  0  0
 15 20  1  0  0  0  0
 15 14  1  0  0  0  0
 18  9  1  0  0  0  0
 18 14  1  0  0  0  0
 19 15  1  0  0  0  0
 21 15  1  0  0  0  0
M  RAD  3   2   2   3   3   4   2
M  END
