Coordinates from ORCA-job PhN2+~TfO-_B3LYPG-6-31G_dp-CH-Scan-d09-49-n800
 OpenBabel11261919123D

 21 20  0  0  0  0  0  0  0  0999 V2000
   -1.7113    0.6137   -0.2078 C   0  0  0  0  0  0  0  0  0  0  0  0
   -2.9861    1.1726   -0.3040 N   0  0  0  0  0  0  0  0  0  0  0  0
   -3.9730    1.6863   -0.4289 N   0  0  0  0  0  0  0  0  0  0  0  0
   -0.7313    1.4611   -0.7430 C   0  0  0  0  0  0  0  0  0  0  0  0
    0.5419    0.8301   -0.6261 C   0  0  0  0  0  0  0  0  0  0  0  0
    0.7357   -0.4267   -0.0623 C   0  0  0  0  0  0  0  0  0  0  0  0
   -0.3444   -1.1905    0.4489 C   0  0  0  0  0  0  0  0  0  0  0  0
   -1.6192   -0.6748    0.3854 C   0  0  0  0  0  0  0  0  0  0  0  0
   -2.0967    5.9564    0.4811 H   0  0  0  0  0  0  0  0  0  0  0  0
    1.4235    1.3545   -0.9972 H   0  0  0  0  0  0  0  0  0  0  0  0
    1.7383   -0.8483   -0.0050 H   0  0  0  0  0  0  0  0  0  0  0  0
   -0.1674   -2.1687    0.8833 H   0  0  0  0  0  0  0  0  0  0  0  0
   -2.4867   -1.2115    0.7599 H   0  0  0  0  0  0  0  0  0  0  0  0
   -4.1807    5.5317    0.7588 S   0  0  0  0  0  0  0  0  0  0  0  0
   -4.7151    5.1058   -0.9776 C   0  0  0  0  0  0  0  0  0  0  0  0
   -3.6976    4.3041    1.3760 O   0  0  0  0  0  0  0  0  0  0  0  0
   -5.2088    6.3701    1.3377 O   0  0  0  0  0  0  0  0  0  0  0  0
   -2.9106    6.4855    0.4100 O   0  0  0  0  0  0  0  0  0  0  0  0
   -3.7149    4.4810   -1.6015 F   0  0  0  0  0  0  0  0  0  0  0  0
   -5.7711    4.2976   -0.9036 F   0  0  0  0  0  0  0  0  0  0  0  0
   -5.0372    6.2128   -1.6376 F   0  0  0  0  0  0  0  0  0  0  0  0
  1  8  2  0  0  0  0
  2  1  1  0  0  0  0
  3  2  1  0  0  0  0
  4  5  2  0  0  0  0
  4  1  1  0  0  0  0
  5  6  1  0  0  0  0
  6 11  1  0  0  0  0
  6  7  2  0  0  0  0
  7 12  1  0  0  0  0
  8  7  1  0  0  0  0
  8 13  1  0  0  0  0
 10  5  1  0  0  0  0
 14 17  2  0  0  0  0
 14 16  2  0  0  0  0
 15 20  1  0  0  0  0
 15 14  1  0  0  0  0
 18  9  1  0  0  0  0
 18 14  1  0  0  0  0
 19 15  1  0  0  0  0
 21 15  1  0  0  0  0
M  RAD  3   2   2   3   3   4   2
M  END
