Coordinates from ORCA-job PhN2+~TfO-_B3LYPG-6-31G_dp-CH-Scan-d09-49-n800
 OpenBabel11261919123D

 21 20  0  0  0  0  0  0  0  0999 V2000
   -2.0904    0.9102    0.0357 C   0  0  0  0  0  0  0  0  0  0  0  0
   -3.4548    1.1442    0.0159 N   0  0  0  0  0  0  0  0  0  0  0  0
   -4.5442    1.3776    0.0013 N   0  0  0  0  0  0  0  0  0  0  0  0
   -1.2592    2.0367   -0.0995 C   0  0  0  0  0  0  0  0  0  0  0  0
    0.1086    1.7167   -0.0776 C   0  0  0  0  0  0  0  0  0  0  0  0
    0.5681    0.4075    0.0647 C   0  0  0  0  0  0  0  0  0  0  0  0
   -0.3254   -0.6740    0.1943 C   0  0  0  0  0  0  0  0  0  0  0  0
   -1.6857   -0.4387    0.1799 C   0  0  0  0  0  0  0  0  0  0  0  0
   -1.7739    3.4101   -0.2083 H   0  0  0  0  0  0  0  0  0  0  0  0
    0.8324    2.5219   -0.1723 H   0  0  0  0  0  0  0  0  0  0  0  0
    1.6370    0.2096    0.0775 H   0  0  0  0  0  0  0  0  0  0  0  0
    0.0489   -1.6858    0.3061 H   0  0  0  0  0  0  0  0  0  0  0  0
   -2.4115   -1.2393    0.2776 H   0  0  0  0  0  0  0  0  0  0  0  0
   -3.4498    4.9026    0.4666 S   0  0  0  0  0  0  0  0  0  0  0  0
   -4.6732    5.0415   -0.9247 C   0  0  0  0  0  0  0  0  0  0  0  0
   -3.9094    3.7296    1.2347 O   0  0  0  0  0  0  0  0  0  0  0  0
   -3.4210    6.2101    1.1097 O   0  0  0  0  0  0  0  0  0  0  0  0
   -2.1660    4.5843   -0.3165 O   0  0  0  0  0  0  0  0  0  0  0  0
   -4.7423    3.8632   -1.5820 F   0  0  0  0  0  0  0  0  0  0  0  0
   -5.8873    5.3260   -0.4445 F   0  0  0  0  0  0  0  0  0  0  0  0
   -4.3138    5.9887   -1.7922 F   0  0  0  0  0  0  0  0  0  0  0  0
  1  8  2  0  0  0  0
  2  1  1  0  0  0  0
  3  2  1  0  0  0  0
  4  5  2  0  0  0  0
  4  1  1  0  0  0  0
  5  6  1  0  0  0  0
  6 11  1  0  0  0  0
  6  7  2  0  0  0  0
  7 12  1  0  0  0  0
  8  7  1  0  0  0  0
  8 13  1  0  0  0  0
 10  5  1  0  0  0  0
 14 17  2  0  0  0  0
 14 16  2  0  0  0  0
 15 20  1  0  0  0  0
 15 14  1  0  0  0  0
 18  9  1  0  0  0  0
 18 14  1  0  0  0  0
 19 15  1  0  0  0  0
 21 15  1  0  0  0  0
M  RAD  3   2   2   3   3   4   2
M  END
