Coordinates from ORCA-job PhN2+~TfO-_B3LYPG-6-31G_dp-CH-Scan-d09-49-n800
 OpenBabel11261919123D

 21 20  0  0  0  0  0  0  0  0999 V2000
   -1.9345    1.1226   -0.3817 C   0  0  0  0  0  0  0  0  0  0  0  0
   -3.1826    1.4486   -0.8933 N   0  0  0  0  0  0  0  0  0  0  0  0
   -4.1725    1.5752   -1.3831 N   0  0  0  0  0  0  0  0  0  0  0  0
   -0.9091    2.0756   -0.4481 C   0  0  0  0  0  0  0  0  0  0  0  0
    0.3372    1.6854    0.0268 C   0  0  0  0  0  0  0  0  0  0  0  0
    0.5274    0.4022    0.5509 C   0  0  0  0  0  0  0  0  0  0  0  0
   -0.5240   -0.5233    0.6070 C   0  0  0  0  0  0  0  0  0  0  0  0
   -1.7817   -0.1763    0.1347 C   0  0  0  0  0  0  0  0  0  0  0  0
   -1.1903    3.1550   -0.8638 H   0  0  0  0  0  0  0  0  0  0  0  0
    1.1596    2.3920    0.0016 H   0  0  0  0  0  0  0  0  0  0  0  0
    1.5050    0.1176    0.9276 H   0  0  0  0  0  0  0  0  0  0  0  0
   -0.3624   -1.5122    1.0212 H   0  0  0  0  0  0  0  0  0  0  0  0
   -2.6176   -0.8661    0.1656 H   0  0  0  0  0  0  0  0  0  0  0  0
   -3.3074    4.5842    0.1255 S   0  0  0  0  0  0  0  0  0  0  0  0
   -5.0414    5.0441   -0.3555 C   0  0  0  0  0  0  0  0  0  0  0  0
   -3.4942    3.3154    0.8886 O   0  0  0  0  0  0  0  0  0  0  0  0
   -2.7958    5.7321    0.8800 O   0  0  0  0  0  0  0  0  0  0  0  0
   -2.6691    4.3301   -1.2071 O   0  0  0  0  0  0  0  0  0  0  0  0
   -5.6136    4.0257   -1.0383 F   0  0  0  0  0  0  0  0  0  0  0  0
   -5.7903    5.2867    0.7272 F   0  0  0  0  0  0  0  0  0  0  0  0
   -5.0555    6.1283   -1.1393 F   0  0  0  0  0  0  0  0  0  0  0  0
  1  8  1  0  0  0  0
  2  1  1  0  0  0  0
  3  2  1  0  0  0  0
  4  1  2  0  0  0  0
  4  5  1  0  0  0  0
  5  6  2  0  0  0  0
  6  7  1  0  0  0  0
  6 11  1  0  0  0  0
  7 12  1  0  0  0  0
  8 13  1  0  0  0  0
  8  7  2  0  0  0  0
  9  4  1  0  0  0  0
 10  5  1  0  0  0  0
 14 17  2  0  0  0  0
 14 16  1  0  0  0  0
 15 14  1  0  0  0  0
 15 20  1  0  0  0  0
 18 14  2  0  0  0  0
 19 15  1  0  0  0  0
 21 15  1  0  0  0  0
M  RAD  3   2   2   3   3  16   2
M  END
