Coordinates from ORCA-job PhN2+~TfO-_B3LYPG-6-31G_dp-CH-Scan-d09-49-n800
 OpenBabel11261919123D

 21 20  0  0  0  0  0  0  0  0999 V2000
   -1.9503    0.7478    0.1280 C   0  0  0  0  0  0  0  0  0  0  0  0
   -3.2954    1.0719    0.2429 N   0  0  0  0  0  0  0  0  0  0  0  0
   -4.3672    1.3791    0.3227 N   0  0  0  0  0  0  0  0  0  0  0  0
   -1.1051    1.8633   -0.0142 C   0  0  0  0  0  0  0  0  0  0  0  0
    0.2445    1.4349   -0.1322 C   0  0  0  0  0  0  0  0  0  0  0  0
    0.6373    0.0998   -0.1078 C   0  0  0  0  0  0  0  0  0  0  0  0
   -0.3025   -0.9481    0.0403 C   0  0  0  0  0  0  0  0  0  0  0  0
   -1.6385   -0.6393    0.1630 C   0  0  0  0  0  0  0  0  0  0  0  0
   -1.9044    4.4310    0.1144 H   0  0  0  0  0  0  0  0  0  0  0  0
    1.0237    2.1875   -0.2492 H   0  0  0  0  0  0  0  0  0  0  0  0
    1.6904   -0.1578   -0.2047 H   0  0  0  0  0  0  0  0  0  0  0  0
    0.0255   -1.9822    0.0576 H   0  0  0  0  0  0  0  0  0  0  0  0
   -2.4035   -1.4017    0.2802 H   0  0  0  0  0  0  0  0  0  0  0  0
   -3.8160    5.3007    0.5845 S   0  0  0  0  0  0  0  0  0  0  0  0
   -4.6537    5.0271   -1.0573 C   0  0  0  0  0  0  0  0  0  0  0  0
   -4.0743    4.1031    1.3755 O   0  0  0  0  0  0  0  0  0  0  0  0
   -4.1682    6.6323    1.0330 O   0  0  0  0  0  0  0  0  0  0  0  0
   -2.2834    5.3392    0.1046 O   0  0  0  0  0  0  0  0  0  0  0  0
   -4.2432    3.8602   -1.5709 F   0  0  0  0  0  0  0  0  0  0  0  0
   -5.9713    4.9830   -0.8631 F   0  0  0  0  0  0  0  0  0  0  0  0
   -4.3572    6.0108   -1.9007 F   0  0  0  0  0  0  0  0  0  0  0  0
  1  8  1  0  0  0  0
  1  2  1  0  0  0  0
  2  3  1  0  0  0  0
  4  1  2  0  0  0  0
  5  6  2  0  0  0  0
  5  4  1  0  0  0  0
  6  7  1  0  0  0  0
  7 12  1  0  0  0  0
  7  8  2  0  0  0  0
  8 13  1  0  0  0  0
 10  5  1  0  0  0  0
 11  6  1  0  0  0  0
 14 17  2  0  0  0  0
 14 16  2  0  0  0  0
 15 20  1  0  0  0  0
 15 14  1  0  0  0  0
 18  9  1  0  0  0  0
 18 14  1  0  0  0  0
 19 15  1  0  0  0  0
 21 15  1  0  0  0  0
M  RAD  3   2   2   3   3   4   2
M  END
