Coordinates from ORCA-job PhN2+~TfO-_B3LYPG-6-31G_dp-CH-Scan-d09-49-n800
 OpenBabel11261919123D

 21 20  0  0  0  0  0  0  0  0999 V2000
   -1.9240    0.7266    0.1144 C   0  0  0  0  0  0  0  0  0  0  0  0
   -3.2662    1.0688    0.2172 N   0  0  0  0  0  0  0  0  0  0  0  0
   -4.3338    1.3930    0.2892 N   0  0  0  0  0  0  0  0  0  0  0  0
   -1.0685    1.8335   -0.0314 C   0  0  0  0  0  0  0  0  0  0  0  0
    0.2777    1.3891   -0.1366 C   0  0  0  0  0  0  0  0  0  0  0  0
    0.6565    0.0504   -0.0969 C   0  0  0  0  0  0  0  0  0  0  0  0
   -0.2948   -0.9870    0.0541 C   0  0  0  0  0  0  0  0  0  0  0  0
   -1.6284   -0.6637    0.1644 C   0  0  0  0  0  0  0  0  0  0  0  0
   -1.9090    4.5400    0.1068 H   0  0  0  0  0  0  0  0  0  0  0  0
    1.0661    2.1320   -0.2551 H   0  0  0  0  0  0  0  0  0  0  0  0
    1.7077   -0.2190   -0.1834 H   0  0  0  0  0  0  0  0  0  0  0  0
    0.0229   -2.0241    0.0832 H   0  0  0  0  0  0  0  0  0  0  0  0
   -2.4023   -1.4169    0.2828 H   0  0  0  0  0  0  0  0  0  0  0  0
   -3.8473    5.3381    0.5875 S   0  0  0  0  0  0  0  0  0  0  0  0
   -4.6871    5.0513   -1.0515 C   0  0  0  0  0  0  0  0  0  0  0  0
   -4.0549    4.1259    1.3702 O   0  0  0  0  0  0  0  0  0  0  0  0
   -4.2377    6.6540    1.0494 O   0  0  0  0  0  0  0  0  0  0  0  0
   -2.3179    5.4319    0.0944 O   0  0  0  0  0  0  0  0  0  0  0  0
   -4.2428    3.9031   -1.5773 F   0  0  0  0  0  0  0  0  0  0  0  0
   -6.0009    4.9639   -0.8476 F   0  0  0  0  0  0  0  0  0  0  0  0
   -4.4278    6.0517   -1.8873 F   0  0  0  0  0  0  0  0  0  0  0  0
  1  8  1  0  0  0  0
  1  2  1  0  0  0  0
  2  3  1  0  0  0  0
  4  1  2  0  0  0  0
  5  6  2  0  0  0  0
  5  4  1  0  0  0  0
  6  7  1  0  0  0  0
  7 12  1  0  0  0  0
  7  8  2  0  0  0  0
  8 13  1  0  0  0  0
 10  5  1  0  0  0  0
 11  6  1  0  0  0  0
 14 17  2  0  0  0  0
 14 16  2  0  0  0  0
 15 20  1  0  0  0  0
 15 14  1  0  0  0  0
 18  9  1  0  0  0  0
 18 14  1  0  0  0  0
 19 15  1  0  0  0  0
 21 15  1  0  0  0  0
M  RAD  3   2   2   3   3   4   2
M  END
