Coordinates from ORCA-job PhN2+~TfO-_B3LYPG-6-31G_dp-CH-Scan-d09-49-n800
 OpenBabel11261919123D

 21 20  0  0  0  0  0  0  0  0999 V2000
   -2.0929    0.9081    0.0397 C   0  0  0  0  0  0  0  0  0  0  0  0
   -3.4580    1.1389    0.0256 N   0  0  0  0  0  0  0  0  0  0  0  0
   -4.5487    1.3673    0.0136 N   0  0  0  0  0  0  0  0  0  0  0  0
   -1.2663    2.0381   -0.0968 C   0  0  0  0  0  0  0  0  0  0  0  0
    0.1025    1.7177   -0.0811 C   0  0  0  0  0  0  0  0  0  0  0  0
    0.5650    0.4092    0.0566 C   0  0  0  0  0  0  0  0  0  0  0  0
   -0.3260   -0.6744    0.1880 C   0  0  0  0  0  0  0  0  0  0  0  0
   -1.6864   -0.4412    0.1799 C   0  0  0  0  0  0  0  0  0  0  0  0
   -1.7849    3.4320   -0.1991 H   0  0  0  0  0  0  0  0  0  0  0  0
    0.8258    2.5234   -0.1772 H   0  0  0  0  0  0  0  0  0  0  0  0
    1.6343    0.2132    0.0643 H   0  0  0  0  0  0  0  0  0  0  0  0
    0.0505   -1.6859    0.2960 H   0  0  0  0  0  0  0  0  0  0  0  0
   -2.4108   -1.2429    0.2790 H   0  0  0  0  0  0  0  0  0  0  0  0
   -3.4534    4.9072    0.4748 S   0  0  0  0  0  0  0  0  0  0  0  0
   -4.6624    5.0353   -0.9302 C   0  0  0  0  0  0  0  0  0  0  0  0
   -3.9144    3.7369    1.2440 O   0  0  0  0  0  0  0  0  0  0  0  0
   -3.4298    6.2188    1.1085 O   0  0  0  0  0  0  0  0  0  0  0  0
   -2.1587    4.5894   -0.2963 O   0  0  0  0  0  0  0  0  0  0  0  0
   -4.7205    3.8536   -1.5815 F   0  0  0  0  0  0  0  0  0  0  0  0
   -5.8816    5.3186   -0.4632 F   0  0  0  0  0  0  0  0  0  0  0  0
   -4.2964    5.9794   -1.7981 F   0  0  0  0  0  0  0  0  0  0  0  0
  1  8  2  0  0  0  0
  2  1  1  0  0  0  0
  3  2  1  0  0  0  0
  4  5  2  0  0  0  0
  4  1  1  0  0  0  0
  5  6  1  0  0  0  0
  6 11  1  0  0  0  0
  6  7  2  0  0  0  0
  7 12  1  0  0  0  0
  8  7  1  0  0  0  0
  8 13  1  0  0  0  0
 10  5  1  0  0  0  0
 14 17  2  0  0  0  0
 14 16  2  0  0  0  0
 15 20  1  0  0  0  0
 15 14  1  0  0  0  0
 18  9  1  0  0  0  0
 18 14  1  0  0  0  0
 19 15  1  0  0  0  0
 21 15  1  0  0  0  0
M  RAD  3   2   2   3   3   4   2
M  END
