Coordinates from ORCA-job PhN2+~TfO-_B3LYPG-6-31G_dp-CH-Scan-d09-49-n800
 OpenBabel11261919123D

 21 20  0  0  0  0  0  0  0  0999 V2000
   -1.8698    0.6922    0.0687 C   0  0  0  0  0  0  0  0  0  0  0  0
   -3.2044    1.0764    0.1286 N   0  0  0  0  0  0  0  0  0  0  0  0
   -4.2620    1.4390    0.1605 N   0  0  0  0  0  0  0  0  0  0  0  0
   -0.9877    1.7747   -0.0926 C   0  0  0  0  0  0  0  0  0  0  0  0
    0.3494    1.2921   -0.1540 C   0  0  0  0  0  0  0  0  0  0  0  0
    0.6933   -0.0532   -0.0625 C   0  0  0  0  0  0  0  0  0  0  0  0
   -0.2868   -1.0626    0.1003 C   0  0  0  0  0  0  0  0  0  0  0  0
   -1.6139   -0.7035    0.1697 C   0  0  0  0  0  0  0  0  0  0  0  0
   -1.9126    4.7785    0.0825 H   0  0  0  0  0  0  0  0  0  0  0  0
    1.1599    2.0103   -0.2788 H   0  0  0  0  0  0  0  0  0  0  0  0
    1.7390   -0.3513   -0.1160 H   0  0  0  0  0  0  0  0  0  0  0  0
    0.0047   -2.1054    0.1706 H   0  0  0  0  0  0  0  0  0  0  0  0
   -2.4095   -1.4330    0.2943 H   0  0  0  0  0  0  0  0  0  0  0  0
   -3.9016    5.4074    0.5987 S   0  0  0  0  0  0  0  0  0  0  0  0
   -4.7593    5.0892   -1.0259 C   0  0  0  0  0  0  0  0  0  0  0  0
   -3.9857    4.1689    1.3618 O   0  0  0  0  0  0  0  0  0  0  0  0
   -4.3758    6.6817    1.0966 O   0  0  0  0  0  0  0  0  0  0  0  0
   -2.3935    5.6289    0.0648 O   0  0  0  0  0  0  0  0  0  0  0  0
   -4.2374    3.9947   -1.5910 F   0  0  0  0  0  0  0  0  0  0  0  0
   -6.0550    4.8906   -0.7894 F   0  0  0  0  0  0  0  0  0  0  0  0
   -4.6042    6.1275   -1.8406 F   0  0  0  0  0  0  0  0  0  0  0  0
  1  2  1  0  0  0  0
  1  8  2  0  0  0  0
  2  3  1  0  0  0  0
  4  1  1  0  0  0  0
  5  4  2  0  0  0  0
  5  6  1  0  0  0  0
  6  7  2  0  0  0  0
  7  8  1  0  0  0  0
  7 12  1  0  0  0  0
  8 13  1  0  0  0  0
 10  5  1  0  0  0  0
 11  6  1  0  0  0  0
 14 17  2  0  0  0  0
 14 16  2  0  0  0  0
 15 20  1  0  0  0  0
 15 14  1  0  0  0  0
 18  9  1  0  0  0  0
 18 14  1  0  0  0  0
 19 15  1  0  0  0  0
 21 15  1  0  0  0  0
M  RAD  3   2   2   3   3   4   2
M  END
