Coordinates from ORCA-job PhN2+~TfO-_B3LYPG-6-31G_dp-CH-Scan-d09-49-n800
 OpenBabel11261919123D

 21 20  0  0  0  0  0  0  0  0999 V2000
   -1.8975    0.7088    0.0866 C   0  0  0  0  0  0  0  0  0  0  0  0
   -3.2361    1.0732    0.1624 N   0  0  0  0  0  0  0  0  0  0  0  0
   -4.2983    1.4196    0.2088 N   0  0  0  0  0  0  0  0  0  0  0  0
   -1.0287    1.8040   -0.0670 C   0  0  0  0  0  0  0  0  0  0  0  0
    0.3138    1.3405   -0.1439 C   0  0  0  0  0  0  0  0  0  0  0  0
    0.6756   -0.0014   -0.0732 C   0  0  0  0  0  0  0  0  0  0  0  0
   -0.2903   -1.0250    0.0829 C   0  0  0  0  0  0  0  0  0  0  0  0
   -1.6214   -0.6841    0.1668 C   0  0  0  0  0  0  0  0  0  0  0  0
   -1.9086    4.6551    0.0823 H   0  0  0  0  0  0  0  0  0  0  0  0
    1.1135    2.0712   -0.2647 H   0  0  0  0  0  0  0  0  0  0  0  0
    1.7246   -0.2850   -0.1384 H   0  0  0  0  0  0  0  0  0  0  0  0
    0.0149   -2.0649    0.1367 H   0  0  0  0  0  0  0  0  0  0  0  0
   -2.4063   -1.4256    0.2875 H   0  0  0  0  0  0  0  0  0  0  0  0
   -3.8698    5.3703    0.5930 S   0  0  0  0  0  0  0  0  0  0  0  0
   -4.7287    5.0733   -1.0346 C   0  0  0  0  0  0  0  0  0  0  0  0
   -4.0112    4.1417    1.3638 O   0  0  0  0  0  0  0  0  0  0  0  0
   -4.2989    6.6652    1.0789 O   0  0  0  0  0  0  0  0  0  0  0  0
   -2.3524    5.5277    0.0698 O   0  0  0  0  0  0  0  0  0  0  0  0
   -4.2427    3.9566   -1.5893 F   0  0  0  0  0  0  0  0  0  0  0  0
   -6.0323    4.9223   -0.8059 F   0  0  0  0  0  0  0  0  0  0  0  0
   -4.5319    6.0992   -1.8561 F   0  0  0  0  0  0  0  0  0  0  0  0
  1  2  1  0  0  0  0
  1  8  1  0  0  0  0
  2  3  1  0  0  0  0
  4  1  2  0  0  0  0
  5  6  2  0  0  0  0
  5  4  1  0  0  0  0
  6  7  1  0  0  0  0
  7 12  1  0  0  0  0
  7  8  2  0  0  0  0
  8 13  1  0  0  0  0
 10  5  1  0  0  0  0
 11  6  1  0  0  0  0
 14 17  2  0  0  0  0
 14 16  2  0  0  0  0
 15 20  1  0  0  0  0
 15 14  1  0  0  0  0
 18  9  1  0  0  0  0
 18 14  1  0  0  0  0
 19 15  1  0  0  0  0
 21 15  1  0  0  0  0
M  RAD  3   2   2   3   3   4   2
M  END
