Coordinates from ORCA-job PhN2+~TfO-_B3LYPG-6-31G_dp-CH-Scan-d09-49-n800
 OpenBabel11261919123D

 21 20  0  0  0  0  0  0  0  0999 V2000
   -1.9265    1.1389   -0.4002 C   0  0  0  0  0  0  0  0  0  0  0  0
   -3.1668    1.4696   -0.9287 N   0  0  0  0  0  0  0  0  0  0  0  0
   -4.1478    1.5960   -1.4360 N   0  0  0  0  0  0  0  0  0  0  0  0
   -0.8917    2.0820   -0.4619 C   0  0  0  0  0  0  0  0  0  0  0  0
    0.3459    1.6850    0.0294 C   0  0  0  0  0  0  0  0  0  0  0  0
    0.5197    0.4044    0.5658 C   0  0  0  0  0  0  0  0  0  0  0  0
   -0.5402   -0.5110    0.6170 C   0  0  0  0  0  0  0  0  0  0  0  0
   -1.7897   -0.1565    0.1278 C   0  0  0  0  0  0  0  0  0  0  0  0
   -1.1472    3.1436   -0.8832 H   0  0  0  0  0  0  0  0  0  0  0  0
    1.1742    2.3848    0.0077 H   0  0  0  0  0  0  0  0  0  0  0  0
    1.4906    0.1147    0.9554 H   0  0  0  0  0  0  0  0  0  0  0  0
   -0.3923   -1.4982    1.0405 H   0  0  0  0  0  0  0  0  0  0  0  0
   -2.6318   -0.8388    0.1550 H   0  0  0  0  0  0  0  0  0  0  0  0
   -3.3073    4.5678    0.1133 S   0  0  0  0  0  0  0  0  0  0  0  0
   -5.0510    5.0314   -0.3272 C   0  0  0  0  0  0  0  0  0  0  0  0
   -3.4802    3.2995    0.8817 O   0  0  0  0  0  0  0  0  0  0  0  0
   -2.7757    5.7141    0.8566 O   0  0  0  0  0  0  0  0  0  0  0  0
   -2.6993    4.3102   -1.2318 O   0  0  0  0  0  0  0  0  0  0  0  0
   -5.6411    4.0130   -0.9944 F   0  0  0  0  0  0  0  0  0  0  0  0
   -5.7739    5.2780    0.7722 F   0  0  0  0  0  0  0  0  0  0  0  0
   -5.0807    6.1142   -1.1125 F   0  0  0  0  0  0  0  0  0  0  0  0
  1  8  1  0  0  0  0
  2  1  1  0  0  0  0
  3  2  1  0  0  0  0
  4  1  2  0  0  0  0
  4  5  1  0  0  0  0
  5  6  2  0  0  0  0
  6  7  1  0  0  0  0
  6 11  1  0  0  0  0
  7 12  1  0  0  0  0
  8 13  1  0  0  0  0
  8  7  2  0  0  0  0
  9  4  1  0  0  0  0
 10  5  1  0  0  0  0
 14 17  2  0  0  0  0
 14 16  1  0  0  0  0
 15 14  1  0  0  0  0
 15 20  1  0  0  0  0
 18 14  2  0  0  0  0
 19 15  1  0  0  0  0
 21 15  1  0  0  0  0
M  RAD  3   2   2   3   3  16   2
M  END
