Coordinates from ORCA-job PhN2+~TfO-_B3LYPG-6-31G_dp-CH-Scan-d09-49-n800
 OpenBabel11261919123D

 21 20  0  0  0  0  0  0  0  0999 V2000
   -1.8991    0.7081    0.0871 C   0  0  0  0  0  0  0  0  0  0  0  0
   -3.2376    1.0718    0.1627 N   0  0  0  0  0  0  0  0  0  0  0  0
   -4.2997    1.4188    0.2103 N   0  0  0  0  0  0  0  0  0  0  0  0
   -1.0315    1.8046   -0.0654 C   0  0  0  0  0  0  0  0  0  0  0  0
    0.3114    1.3425   -0.1428 C   0  0  0  0  0  0  0  0  0  0  0  0
    0.6747    0.0009   -0.0730 C   0  0  0  0  0  0  0  0  0  0  0  0
   -0.2901   -1.0239    0.0824 C   0  0  0  0  0  0  0  0  0  0  0  0
   -1.6216   -0.6846    0.1665 C   0  0  0  0  0  0  0  0  0  0  0  0
   -1.9074    4.6519    0.0803 H   0  0  0  0  0  0  0  0  0  0  0  0
    1.1104    2.0741   -0.2630 H   0  0  0  0  0  0  0  0  0  0  0  0
    1.7240   -0.2816   -0.1384 H   0  0  0  0  0  0  0  0  0  0  0  0
    0.0162   -2.0635    0.1354 H   0  0  0  0  0  0  0  0  0  0  0  0
   -2.4058   -1.4269    0.2865 H   0  0  0  0  0  0  0  0  0  0  0  0
   -3.8679    5.3693    0.5927 S   0  0  0  0  0  0  0  0  0  0  0  0
   -4.7278    5.0730   -1.0347 C   0  0  0  0  0  0  0  0  0  0  0  0
   -4.0103    4.1410    1.3638 O   0  0  0  0  0  0  0  0  0  0  0  0
   -4.2956    6.6646    1.0785 O   0  0  0  0  0  0  0  0  0  0  0  0
   -2.3505    5.5249    0.0688 O   0  0  0  0  0  0  0  0  0  0  0  0
   -4.2432    3.9557   -1.5892 F   0  0  0  0  0  0  0  0  0  0  0  0
   -6.0315    4.9236   -0.8054 F   0  0  0  0  0  0  0  0  0  0  0  0
   -4.5301    6.0986   -1.8563 F   0  0  0  0  0  0  0  0  0  0  0  0
  1  2  1  0  0  0  0
  1  8  1  0  0  0  0
  2  3  1  0  0  0  0
  4  1  2  0  0  0  0
  5  6  2  0  0  0  0
  5  4  1  0  0  0  0
  6  7  1  0  0  0  0
  7 12  1  0  0  0  0
  7  8  2  0  0  0  0
  8 13  1  0  0  0  0
 10  5  1  0  0  0  0
 11  6  1  0  0  0  0
 14 17  2  0  0  0  0
 14 16  2  0  0  0  0
 15 20  1  0  0  0  0
 15 14  1  0  0  0  0
 18  9  1  0  0  0  0
 18 14  1  0  0  0  0
 19 15  1  0  0  0  0
 21 15  1  0  0  0  0
M  RAD  3   2   2   3   3   4   2
M  END
