Coordinates from ORCA-job PhN2+~TfO-_B3LYPG-6-31G_dp-CH-Scan-d09-49-n800
 OpenBabel11261919123D

 21 20  0  0  0  0  0  0  0  0999 V2000
   -1.8474    0.6748    0.0622 C   0  0  0  0  0  0  0  0  0  0  0  0
   -3.1783    1.0743    0.1172 N   0  0  0  0  0  0  0  0  0  0  0  0
   -4.2313    1.4510    0.1451 N   0  0  0  0  0  0  0  0  0  0  0  0
   -0.9569    1.7489   -0.1061 C   0  0  0  0  0  0  0  0  0  0  0  0
    0.3759    1.2525   -0.1638 C   0  0  0  0  0  0  0  0  0  0  0  0
    0.7073   -0.0951   -0.0622 C   0  0  0  0  0  0  0  0  0  0  0  0
   -0.2822   -1.0944    0.1080 C   0  0  0  0  0  0  0  0  0  0  0  0
   -1.6058   -0.7226    0.1740 C   0  0  0  0  0  0  0  0  0  0  0  0
   -1.9217    4.8803    0.0971 H   0  0  0  0  0  0  0  0  0  0  0  0
    1.1936    1.9619   -0.2938 H   0  0  0  0  0  0  0  0  0  0  0  0
    1.7503   -0.4035   -0.1130 H   0  0  0  0  0  0  0  0  0  0  0  0
   -0.0000   -2.1394    0.1862 H   0  0  0  0  0  0  0  0  0  0  0  0
   -2.4084   -1.4436    0.3034 H   0  0  0  0  0  0  0  0  0  0  0  0
   -3.9334    5.4408    0.6024 S   0  0  0  0  0  0  0  0  0  0  0  0
   -4.7779    5.1041   -1.0256 C   0  0  0  0  0  0  0  0  0  0  0  0
   -3.9761    4.1969    1.3597 O   0  0  0  0  0  0  0  0  0  0  0  0
   -4.4474    6.6974    1.1053 O   0  0  0  0  0  0  0  0  0  0  0  0
   -2.4307    5.7126    0.0710 O   0  0  0  0  0  0  0  0  0  0  0  0
   -4.2276    4.0244   -1.5909 F   0  0  0  0  0  0  0  0  0  0  0  0
   -6.0688    4.8735   -0.7926 F   0  0  0  0  0  0  0  0  0  0  0  0
   -4.6461    6.1481   -1.8371 F   0  0  0  0  0  0  0  0  0  0  0  0
  1  2  1  0  0  0  0
  1  8  2  0  0  0  0
  2  3  1  0  0  0  0
  4  1  1  0  0  0  0
  5  4  2  0  0  0  0
  5  6  1  0  0  0  0
  6  7  2  0  0  0  0
  7  8  1  0  0  0  0
  7 12  1  0  0  0  0
  8 13  1  0  0  0  0
 10  5  1  0  0  0  0
 11  6  1  0  0  0  0
 14 17  2  0  0  0  0
 14 16  2  0  0  0  0
 15 20  1  0  0  0  0
 15 14  1  0  0  0  0
 18  9  1  0  0  0  0
 18 14  1  0  0  0  0
 19 15  1  0  0  0  0
 21 15  1  0  0  0  0
M  RAD  3   2   2   3   3   4   2
M  END
