Coordinates from ORCA-job PhN2+~TfO-_B3LYPG-6-31G_dp-CH-Scan-d09-49-n800
 OpenBabel11261919123D

 21 20  0  0  0  0  0  0  0  0999 V2000
   -1.8196    0.6645   -0.1271 C   0  0  0  0  0  0  0  0  0  0  0  0
   -3.1262    1.1459   -0.1952 N   0  0  0  0  0  0  0  0  0  0  0  0
   -4.1438    1.6022   -0.2887 N   0  0  0  0  0  0  0  0  0  0  0  0
   -0.8806    1.6370   -0.5021 C   0  0  0  0  0  0  0  0  0  0  0  0
    0.4265    1.0739   -0.4244 C   0  0  0  0  0  0  0  0  0  0  0  0
    0.6867   -0.2336   -0.0271 C   0  0  0  0  0  0  0  0  0  0  0  0
   -0.3549   -1.1251    0.3340 C   0  0  0  0  0  0  0  0  0  0  0  0
   -1.6585   -0.6851    0.2890 C   0  0  0  0  0  0  0  0  0  0  0  0
   -1.9160    5.5481    0.2442 H   0  0  0  0  0  0  0  0  0  0  0  0
    1.2825    1.6970   -0.6875 H   0  0  0  0  0  0  0  0  0  0  0  0
    1.7130   -0.5958    0.0130 H   0  0  0  0  0  0  0  0  0  0  0  0
   -0.1265   -2.1401    0.6421 H   0  0  0  0  0  0  0  0  0  0  0  0
   -2.4995   -1.3208    0.5530 H   0  0  0  0  0  0  0  0  0  0  0  0
   -4.0114    5.4442    0.7064 S   0  0  0  0  0  0  0  0  0  0  0  0
   -4.6989    5.0323   -0.9781 C   0  0  0  0  0  0  0  0  0  0  0  0
   -3.6824    4.1812    1.3519 O   0  0  0  0  0  0  0  0  0  0  0  0
   -4.8744    6.4450    1.2973 O   0  0  0  0  0  0  0  0  0  0  0  0
   -2.6438    6.1949    0.2563 O   0  0  0  0  0  0  0  0  0  0  0  0
   -3.8140    4.2840   -1.6411 F   0  0  0  0  0  0  0  0  0  0  0  0
   -5.8281    4.3454   -0.8125 F   0  0  0  0  0  0  0  0  0  0  0  0
   -4.9428    6.1477   -1.6570 F   0  0  0  0  0  0  0  0  0  0  0  0
  1  8  2  0  0  0  0
  2  1  1  0  0  0  0
  3  2  1  0  0  0  0
  4  5  2  0  0  0  0
  4  1  1  0  0  0  0
  5  6  1  0  0  0  0
  6 11  1  0  0  0  0
  6  7  2  0  0  0  0
  7 12  1  0  0  0  0
  8  7  1  0  0  0  0
  8 13  1  0  0  0  0
  9 18  1  0  0  0  0
 10  5  1  0  0  0  0
 14 17  2  0  0  0  0
 14 16  2  0  0  0  0
 15 20  1  0  0  0  0
 15 14  1  0  0  0  0
 18 14  1  0  0  0  0
 19 15  1  0  0  0  0
 21 15  1  0  0  0  0
M  RAD  3   2   2   3   3   4   2
M  END
