Coordinates from ORCA-job 4-MeOPhN2+~Cl-_B3LYPG-6-31G_dp-CH-Scan-d09-49-n800
 OpenBabel11261919403D

 18 17  0  0  0  0  0  0  0  0999 V2000
   -1.4595   -0.2178   -0.0313 C   0  0  0  0  0  0  0  0  0  0  0  0
   -2.8228   -0.3256    0.0791 N   0  0  0  0  0  0  0  0  0  0  0  0
   -3.9411   -0.3605    0.1714 N   0  0  0  0  0  0  0  0  0  0  0  0
   -0.9803    1.1162   -0.0247 C   0  0  0  0  0  0  0  0  0  0  0  0
    0.4186    1.1372   -0.1408 C   0  0  0  0  0  0  0  0  0  0  0  0
    1.2145   -0.0152   -0.2465 C   0  0  0  0  0  0  0  0  0  0  0  0
    2.5469    0.1860   -0.3489 O   0  0  0  0  0  0  0  0  0  0  0  0
    3.4282   -0.9272   -0.4565 C   0  0  0  0  0  0  0  0  0  0  0  0
    0.6342   -1.3172   -0.2437 C   0  0  0  0  0  0  0  0  0  0  0  0
   -0.7303   -1.4336   -0.1345 C   0  0  0  0  0  0  0  0  0  0  0  0
   -2.6445    3.3083    0.2106 H   0  0  0  0  0  0  0  0  0  0  0  0
    0.9569    2.0847   -0.1523 H   0  0  0  0  0  0  0  0  0  0  0  0
    4.4317   -0.5054   -0.5193 H   0  0  0  0  0  0  0  0  0  0  0  0
    3.2271   -1.5146   -1.3604 H   0  0  0  0  0  0  0  0  0  0  0  0
    3.3646   -1.5775    0.4243 H   0  0  0  0  0  0  0  0  0  0  0  0
    1.2469   -2.2060   -0.3249 H   0  0  0  0  0  0  0  0  0  0  0  0
   -1.2177   -2.4054   -0.1282 H   0  0  0  0  0  0  0  0  0  0  0  0
   -3.5440    4.2368    0.3316 Cl  0  0  0  0  0  0  0  0  0  0  0  0
  1  4  1  0  0  0  0
  1  2  1  0  0  0  0
  2  3  1  0  0  0  0
  5  4  2  0  0  0  0
  6  9  2  0  0  0  0
  6  5  1  0  0  0  0
  7  6  1  0  0  0  0
  8  7  1  0  0  0  0
  8 15  1  0  0  0  0
  9 10  1  0  0  0  0
 10 17  1  0  0  0  0
 10  1  2  0  0  0  0
 11 18  1  0  0  0  0
 12  5  1  0  0  0  0
 13  8  1  0  0  0  0
 14  8  1  0  0  0  0
 16  9  1  0  0  0  0
M  RAD  3   2   2   3   3   4   2
M  END
