Coordinates from ORCA-job 4-MeOPhN2+~Cl-_B3LYPG-6-31G_dp-CH-Scan-d09-49-n800
 OpenBabel11261919403D

 18 18  0  0  0  0  0  0  0  0999 V2000
   -1.5656    0.0196   -0.0146 C   0  0  0  0  0  0  0  0  0  0  0  0
   -2.9523   -0.1201    0.0961 N   0  0  0  0  0  0  0  0  0  0  0  0
   -3.9552    0.4736    0.2090 N   0  0  0  0  0  0  0  0  0  0  0  0
   -0.9143    1.2717   -0.0221 C   0  0  0  0  0  0  0  0  0  0  0  0
    0.4638    1.2924   -0.1358 C   0  0  0  0  0  0  0  0  0  0  0  0
    1.2046    0.0987   -0.2408 C   0  0  0  0  0  0  0  0  0  0  0  0
    2.5418    0.2522   -0.3440 O   0  0  0  0  0  0  0  0  0  0  0  0
    3.3654   -0.9058   -0.4481 C   0  0  0  0  0  0  0  0  0  0  0  0
    0.5445   -1.1423   -0.2329 C   0  0  0  0  0  0  0  0  0  0  0  0
   -0.8389   -1.1734   -0.1202 C   0  0  0  0  0  0  0  0  0  0  0  0
   -1.4314    2.0950    0.0525 H   0  0  0  0  0  0  0  0  0  0  0  0
    1.0034    2.2335   -0.1450 H   0  0  0  0  0  0  0  0  0  0  0  0
    4.3889   -0.5364   -0.5131 H   0  0  0  0  0  0  0  0  0  0  0  0
    3.1301   -1.4840   -1.3496 H   0  0  0  0  0  0  0  0  0  0  0  0
    3.2651   -1.5472    0.4355 H   0  0  0  0  0  0  0  0  0  0  0  0
    1.0951   -2.0712   -0.3128 H   0  0  0  0  0  0  0  0  0  0  0  0
   -1.3725   -2.1177   -0.1118 H   0  0  0  0  0  0  0  0  0  0  0  0
   -3.8432    2.6249    0.3028 Cl  0  0  0  0  0  0  0  0  0  0  0  0
  1  2  1  0  0  0  0
  2  3  2  0  0  0  0
  3 18  1  0  0  0  0
  4  1  1  0  0  0  0
  4 11  1  0  0  0  0
  5  4  2  0  0  0  0
  6  9  2  0  0  0  0
  6  5  1  0  0  0  0
  7  6  1  0  0  0  0
  8  7  1  0  0  0  0
  8 15  1  0  0  0  0
  9 10  1  0  0  0  0
 10 17  1  0  0  0  0
 10  1  2  0  0  0  0
 12  5  1  0  0  0  0
 13  8  1  0  0  0  0
 14  8  1  0  0  0  0
 16  9  1  0  0  0  0
M  END
