Coordinates from ORCA-job 4-MeOPhN2+~Cl-_B3LYPG-6-31G_dp-CH-Scan-d09-49-n800
 OpenBabel11261919403D

 18 17  0  0  0  0  0  0  0  0999 V2000
   -1.4051   -0.4668   -0.0562 C   0  0  0  0  0  0  0  0  0  0  0  0
   -2.7677   -0.6285    0.0474 N   0  0  0  0  0  0  0  0  0  0  0  0
   -3.8859   -0.6915    0.1340 N   0  0  0  0  0  0  0  0  0  0  0  0
   -1.0045    0.8907   -0.0529 C   0  0  0  0  0  0  0  0  0  0  0  0
    0.3969    0.9734   -0.1626 C   0  0  0  0  0  0  0  0  0  0  0  0
    1.2477   -0.1385   -0.2595 C   0  0  0  0  0  0  0  0  0  0  0  0
    2.5722    0.1256   -0.3583 O   0  0  0  0  0  0  0  0  0  0  0  0
    3.5036   -0.9451   -0.4588 C   0  0  0  0  0  0  0  0  0  0  0  0
    0.7331   -1.4688   -0.2524 C   0  0  0  0  0  0  0  0  0  0  0  0
   -0.6247   -1.6510   -0.1488 C   0  0  0  0  0  0  0  0  0  0  0  0
   -3.1693    4.4584    0.3134 H   0  0  0  0  0  0  0  0  0  0  0  0
    0.8932    1.9447   -0.1767 H   0  0  0  0  0  0  0  0  0  0  0  0
    4.4871   -0.4785   -0.5233 H   0  0  0  0  0  0  0  0  0  0  0  0
    3.3317   -1.5474   -1.3593 H   0  0  0  0  0  0  0  0  0  0  0  0
    3.4706   -1.5939    0.4252 H   0  0  0  0  0  0  0  0  0  0  0  0
    1.3897   -2.3264   -0.3260 H   0  0  0  0  0  0  0  0  0  0  0  0
   -1.0657   -2.6451   -0.1392 H   0  0  0  0  0  0  0  0  0  0  0  0
   -3.9734    5.4519    0.4588 Cl  0  0  0  0  0  0  0  0  0  0  0  0
  1  4  1  0  0  0  0
  1  2  1  0  0  0  0
  2  3  1  0  0  0  0
  5  4  2  0  0  0  0
  6  9  2  0  0  0  0
  6  5  1  0  0  0  0
  7  6  1  0  0  0  0
  8  7  1  0  0  0  0
  8 15  1  0  0  0  0
  9 10  1  0  0  0  0
 10 17  1  0  0  0  0
 10  1  2  0  0  0  0
 11 18  1  0  0  0  0
 12  5  1  0  0  0  0
 13  8  1  0  0  0  0
 14  8  1  0  0  0  0
 16  9  1  0  0  0  0
M  RAD  3   2   2   3   3   4   2
M  END
