Coordinates from ORCA-job 4-MeOPhN2+~Cl-_B3LYPG-6-31G_dp-CH-Scan-d09-49-n800
 OpenBabel11261919403D

 18 17  0  0  0  0  0  0  0  0999 V2000
   -1.4849   -0.1438   -0.0238 C   0  0  0  0  0  0  0  0  0  0  0  0
   -2.8487   -0.2358    0.0882 N   0  0  0  0  0  0  0  0  0  0  0  0
   -3.9664   -0.2574    0.1819 N   0  0  0  0  0  0  0  0  0  0  0  0
   -0.9811    1.1808   -0.0168 C   0  0  0  0  0  0  0  0  0  0  0  0
    0.4147    1.1909   -0.1340 C   0  0  0  0  0  0  0  0  0  0  0  0
    1.1961    0.0278   -0.2420 C   0  0  0  0  0  0  0  0  0  0  0  0
    2.5291    0.2135   -0.3452 O   0  0  0  0  0  0  0  0  0  0  0  0
    3.3983   -0.9100   -0.4544 C   0  0  0  0  0  0  0  0  0  0  0  0
    0.5984   -1.2655   -0.2400 C   0  0  0  0  0  0  0  0  0  0  0  0
   -0.7677   -1.3654   -0.1295 C   0  0  0  0  0  0  0  0  0  0  0  0
   -2.4042    2.9220    0.1724 H   0  0  0  0  0  0  0  0  0  0  0  0
    0.9607    2.1332   -0.1445 H   0  0  0  0  0  0  0  0  0  0  0  0
    4.4061   -0.4990   -0.5173 H   0  0  0  0  0  0  0  0  0  0  0  0
    3.1896   -1.4936   -1.3590 H   0  0  0  0  0  0  0  0  0  0  0  0
    3.3271   -1.5598    0.4260 H   0  0  0  0  0  0  0  0  0  0  0  0
    1.1993   -2.1621   -0.3229 H   0  0  0  0  0  0  0  0  0  0  0  0
   -1.2662   -2.3312   -0.1239 H   0  0  0  0  0  0  0  0  0  0  0  0
   -3.3707    3.8185    0.2899 Cl  0  0  0  0  0  0  0  0  0  0  0  0
  1  4  1  0  0  0  0
  1  2  1  0  0  0  0
  2  3  1  0  0  0  0
  5  4  2  0  0  0  0
  6  9  2  0  0  0  0
  6  5  1  0  0  0  0
  7  6  1  0  0  0  0
  8  7  1  0  0  0  0
  8 15  1  0  0  0  0
  9 10  1  0  0  0  0
 10 17  1  0  0  0  0
 10  1  2  0  0  0  0
 11 18  1  0  0  0  0
 12  5  1  0  0  0  0
 13  8  1  0  0  0  0
 14  8  1  0  0  0  0
 16  9  1  0  0  0  0
M  RAD  3   2   2   3   3   4   2
M  END
