Coordinates from ORCA-job 4-MeOPhN2+~Cl-_B3LYPG-6-31G_dp-CH-Scan-d09-49-n800
 OpenBabel11261919403D

 18 17  0  0  0  0  0  0  0  0999 V2000
   -1.4049   -0.5615   -0.0644 C   0  0  0  0  0  0  0  0  0  0  0  0
   -2.7640   -0.7550    0.0364 N   0  0  0  0  0  0  0  0  0  0  0  0
   -3.8808   -0.8427    0.1202 N   0  0  0  0  0  0  0  0  0  0  0  0
   -1.0385    0.8053   -0.0624 C   0  0  0  0  0  0  0  0  0  0  0  0
    0.3610    0.9220   -0.1693 C   0  0  0  0  0  0  0  0  0  0  0  0
    1.2389   -0.1688   -0.2623 C   0  0  0  0  0  0  0  0  0  0  0  0
    2.5571    0.1273   -0.3591 O   0  0  0  0  0  0  0  0  0  0  0  0
    3.5141   -0.9207   -0.4564 C   0  0  0  0  0  0  0  0  0  0  0  0
    0.7571   -1.5114   -0.2538 C   0  0  0  0  0  0  0  0  0  0  0  0
   -0.5962   -1.7267   -0.1529 C   0  0  0  0  0  0  0  0  0  0  0  0
   -3.2324    4.7822    0.3384 H   0  0  0  0  0  0  0  0  0  0  0  0
    0.8336    1.9052   -0.1839 H   0  0  0  0  0  0  0  0  0  0  0  0
    4.4860   -0.4307   -0.5221 H   0  0  0  0  0  0  0  0  0  0  0  0
    3.3570   -1.5296   -1.3551 H   0  0  0  0  0  0  0  0  0  0  0  0
    3.4968   -1.5675    0.4296 H   0  0  0  0  0  0  0  0  0  0  0  0
    1.4345   -2.3528   -0.3243 H   0  0  0  0  0  0  0  0  0  0  0  0
   -1.0127   -2.7313   -0.1424 H   0  0  0  0  0  0  0  0  0  0  0  0
   -3.9773    5.8200    0.4886 Cl  0  0  0  0  0  0  0  0  0  0  0  0
  1  4  1  0  0  0  0
  1  2  1  0  0  0  0
  2  3  1  0  0  0  0
  5  4  2  0  0  0  0
  6  9  2  0  0  0  0
  6  5  1  0  0  0  0
  7  6  1  0  0  0  0
  8  7  1  0  0  0  0
  8 15  1  0  0  0  0
  9 10  1  0  0  0  0
 10 17  1  0  0  0  0
 10  1  2  0  0  0  0
 11 18  1  0  0  0  0
 12  5  1  0  0  0  0
 13  8  1  0  0  0  0
 14  8  1  0  0  0  0
 16  9  1  0  0  0  0
M  RAD  3   2   2   3   3   4   2
M  END
