Coordinates from ORCA-job 4-MeOPhN2+~Cl-_B3LYPG-6-31G_dp-CH-Scan-d09-49-n800
 OpenBabel11261919403D

 18 17  0  0  0  0  0  0  0  0999 V2000
   -1.5459   -0.0098   -0.0149 C   0  0  0  0  0  0  0  0  0  0  0  0
   -2.9338   -0.1116    0.0974 N   0  0  0  0  0  0  0  0  0  0  0  0
   -3.9379    0.4642    0.2058 N   0  0  0  0  0  0  0  0  0  0  0  0
   -0.8988    1.2381   -0.0211 C   0  0  0  0  0  0  0  0  0  0  0  0
    0.4749    1.2798   -0.1338 C   0  0  0  0  0  0  0  0  0  0  0  0
    1.2152    0.0834   -0.2403 C   0  0  0  0  0  0  0  0  0  0  0  0
    2.5516    0.2374   -0.3442 O   0  0  0  0  0  0  0  0  0  0  0  0
    3.3789   -0.9180   -0.4522 C   0  0  0  0  0  0  0  0  0  0  0  0
    0.5596   -1.1629   -0.2337 C   0  0  0  0  0  0  0  0  0  0  0  0
   -0.8229   -1.2058   -0.1209 C   0  0  0  0  0  0  0  0  0  0  0  0
   -1.6673    2.2944    0.0842 H   0  0  0  0  0  0  0  0  0  0  0  0
    1.0135    2.2210   -0.1423 H   0  0  0  0  0  0  0  0  0  0  0  0
    4.4010   -0.5448   -0.5177 H   0  0  0  0  0  0  0  0  0  0  0  0
    3.1442   -1.4944   -1.3549 H   0  0  0  0  0  0  0  0  0  0  0  0
    3.2821   -1.5616    0.4301 H   0  0  0  0  0  0  0  0  0  0  0  0
    1.1170   -2.0875   -0.3150 H   0  0  0  0  0  0  0  0  0  0  0  0
   -1.3510   -2.1536   -0.1135 H   0  0  0  0  0  0  0  0  0  0  0  0
   -3.8511    2.6950    0.2918 Cl  0  0  0  0  0  0  0  0  0  0  0  0
  1  2  1  0  0  0  0
  2  3  2  0  0  0  0
  4  1  1  0  0  0  0
  4 11  1  0  0  0  0
  5  4  2  0  0  0  0
  6  9  2  0  0  0  0
  6  5  1  0  0  0  0
  7  6  1  0  0  0  0
  8  7  1  0  0  0  0
  8 15  1  0  0  0  0
  9 10  1  0  0  0  0
 10 17  1  0  0  0  0
 10  1  2  0  0  0  0
 12  5  1  0  0  0  0
 13  8  1  0  0  0  0
 14  8  1  0  0  0  0
 16  9  1  0  0  0  0
M  RAD  2   3   2  18   2
M  END
