Coordinates from ORCA-job 4-MeOPhN2+~Cl-_B3LYPG-6-31G_dp-CH-Scan-d09-49-n800
 OpenBabel11261919403D

 18 17  0  0  0  0  0  0  0  0999 V2000
   -1.4039   -0.5316   -0.0588 C   0  0  0  0  0  0  0  0  0  0  0  0
   -2.7644   -0.7139    0.0429 N   0  0  0  0  0  0  0  0  0  0  0  0
   -3.8818   -0.7924    0.1280 N   0  0  0  0  0  0  0  0  0  0  0  0
   -1.0257    0.8319   -0.0514 C   0  0  0  0  0  0  0  0  0  0  0  0
    0.3745    0.9378   -0.1593 C   0  0  0  0  0  0  0  0  0  0  0  0
    1.2431   -0.1601   -0.2588 C   0  0  0  0  0  0  0  0  0  0  0  0
    2.5634    0.1254   -0.3563 O   0  0  0  0  0  0  0  0  0  0  0  0
    3.5116   -0.9301   -0.4595 C   0  0  0  0  0  0  0  0  0  0  0  0
    0.7500   -1.4985   -0.2554 C   0  0  0  0  0  0  0  0  0  0  0  0
   -0.6049   -1.7030   -0.1534 C   0  0  0  0  0  0  0  0  0  0  0  0
   -3.2178    4.6855    0.3249 H   0  0  0  0  0  0  0  0  0  0  0  0
    0.8552    1.9170   -0.1702 H   0  0  0  0  0  0  0  0  0  0  0  0
    4.4875   -0.4479   -0.5237 H   0  0  0  0  0  0  0  0  0  0  0  0
    3.3486   -1.5334   -1.3609 H   0  0  0  0  0  0  0  0  0  0  0  0
    3.4895   -1.5810    0.4234 H   0  0  0  0  0  0  0  0  0  0  0  0
    1.4203   -2.3451   -0.3306 H   0  0  0  0  0  0  0  0  0  0  0  0
   -1.0297   -2.7042   -0.1465 H   0  0  0  0  0  0  0  0  0  0  0  0
   -3.9861    5.7069    0.4705 Cl  0  0  0  0  0  0  0  0  0  0  0  0
  1  4  1  0  0  0  0
  1  2  1  0  0  0  0
  2  3  1  0  0  0  0
  5  4  2  0  0  0  0
  6  9  2  0  0  0  0
  6  5  1  0  0  0  0
  7  6  1  0  0  0  0
  8  7  1  0  0  0  0
  8 15  1  0  0  0  0
  9 10  1  0  0  0  0
 10 17  1  0  0  0  0
 10  1  2  0  0  0  0
 11 18  1  0  0  0  0
 12  5  1  0  0  0  0
 13  8  1  0  0  0  0
 14  8  1  0  0  0  0
 16  9  1  0  0  0  0
M  RAD  3   2   2   3   3   4   2
M  END
