Coordinates from ORCA-job 4-MeOPhN2+~Cl-_B3LYPG-6-31G_dp-CH-Scan-d09-49-n800
 OpenBabel11261919403D

 18 17  0  0  0  0  0  0  0  0999 V2000
   -1.4047   -0.5575   -0.0630 C   0  0  0  0  0  0  0  0  0  0  0  0
   -2.7641   -0.7491    0.0381 N   0  0  0  0  0  0  0  0  0  0  0  0
   -3.8810   -0.8349    0.1225 N   0  0  0  0  0  0  0  0  0  0  0  0
   -1.0365    0.8087   -0.0593 C   0  0  0  0  0  0  0  0  0  0  0  0
    0.3631    0.9242   -0.1665 C   0  0  0  0  0  0  0  0  0  0  0  0
    1.2396   -0.1676   -0.2614 C   0  0  0  0  0  0  0  0  0  0  0  0
    2.5581    0.1270   -0.3582 O   0  0  0  0  0  0  0  0  0  0  0  0
    3.5138   -0.9221   -0.4571 C   0  0  0  0  0  0  0  0  0  0  0  0
    0.7561   -1.5096   -0.2546 C   0  0  0  0  0  0  0  0  0  0  0  0
   -0.5974   -1.7235   -0.1535 C   0  0  0  0  0  0  0  0  0  0  0  0
   -3.2308    4.7688    0.3354 H   0  0  0  0  0  0  0  0  0  0  0  0
    0.8368    1.9068   -0.1799 H   0  0  0  0  0  0  0  0  0  0  0  0
    4.4863   -0.4332   -0.5222 H   0  0  0  0  0  0  0  0  0  0  0  0
    3.3558   -1.5296   -1.3566 H   0  0  0  0  0  0  0  0  0  0  0  0
    3.4958   -1.5701    0.4279 H   0  0  0  0  0  0  0  0  0  0  0  0
    1.4325   -2.3517   -0.3266 H   0  0  0  0  0  0  0  0  0  0  0  0
   -1.0150   -2.7276   -0.1443 H   0  0  0  0  0  0  0  0  0  0  0  0
   -3.9792    5.8043    0.4842 Cl  0  0  0  0  0  0  0  0  0  0  0  0
  1  4  1  0  0  0  0
  1  2  1  0  0  0  0
  2  3  1  0  0  0  0
  5  4  2  0  0  0  0
  6  9  2  0  0  0  0
  6  5  1  0  0  0  0
  7  6  1  0  0  0  0
  8  7  1  0  0  0  0
  8 15  1  0  0  0  0
  9 10  1  0  0  0  0
 10 17  1  0  0  0  0
 10  1  2  0  0  0  0
 11 18  1  0  0  0  0
 12  5  1  0  0  0  0
 13  8  1  0  0  0  0
 14  8  1  0  0  0  0
 16  9  1  0  0  0  0
M  RAD  3   2   2   3   3   4   2
M  END
