Coordinates from ORCA-job 4-MeOPhN2+~Cl-_B3LYPG-6-31G_dp-CH-Scan-d09-49-n800
 OpenBabel11261919403D

 18 17  0  0  0  0  0  0  0  0999 V2000
   -1.4376   -0.2791   -0.0409 C   0  0  0  0  0  0  0  0  0  0  0  0
   -2.8016   -0.3967    0.0679 N   0  0  0  0  0  0  0  0  0  0  0  0
   -3.9202   -0.4342    0.1586 N   0  0  0  0  0  0  0  0  0  0  0  0
   -0.9777    1.0612   -0.0384 C   0  0  0  0  0  0  0  0  0  0  0  0
    0.4231    1.0928   -0.1529 C   0  0  0  0  0  0  0  0  0  0  0  0
    1.2306   -0.0514   -0.2527 C   0  0  0  0  0  0  0  0  0  0  0  0
    2.5623    0.1625   -0.3542 O   0  0  0  0  0  0  0  0  0  0  0  0
    3.4537   -0.9425   -0.4563 C   0  0  0  0  0  0  0  0  0  0  0  0
    0.6644   -1.3601   -0.2455 C   0  0  0  0  0  0  0  0  0  0  0  0
   -0.6989   -1.4898   -0.1379 C   0  0  0  0  0  0  0  0  0  0  0  0
   -2.8339    3.6310    0.2466 H   0  0  0  0  0  0  0  0  0  0  0  0
    0.9540    2.0449   -0.1678 H   0  0  0  0  0  0  0  0  0  0  0  0
    4.4535   -0.5120   -0.5200 H   0  0  0  0  0  0  0  0  0  0  0  0
    3.2593   -1.5360   -1.3579 H   0  0  0  0  0  0  0  0  0  0  0  0
    3.3958   -1.5903    0.4269 H   0  0  0  0  0  0  0  0  0  0  0  0
    1.2868   -2.2425   -0.3220 H   0  0  0  0  0  0  0  0  0  0  0  0
   -1.1771   -2.4663   -0.1283 H   0  0  0  0  0  0  0  0  0  0  0  0
   -3.7070    4.5721    0.3795 Cl  0  0  0  0  0  0  0  0  0  0  0  0
  1  4  1  0  0  0  0
  1  2  1  0  0  0  0
  2  3  1  0  0  0  0
  5  4  2  0  0  0  0
  6  9  2  0  0  0  0
  6  5  1  0  0  0  0
  7  6  1  0  0  0  0
  8  7  1  0  0  0  0
  8 15  1  0  0  0  0
  9 10  1  0  0  0  0
 10 17  1  0  0  0  0
 10  1  2  0  0  0  0
 11 18  1  0  0  0  0
 12  5  1  0  0  0  0
 13  8  1  0  0  0  0
 14  8  1  0  0  0  0
 16  9  1  0  0  0  0
M  RAD  3   2   2   3   3   4   2
M  END
