Coordinates from ORCA-job 4-MeOPhN2+~Cl-_B3LYPG-6-31G_dp-CH-Scan-d09-49-n800
 OpenBabel11261919403D

 18 17  0  0  0  0  0  0  0  0999 V2000
   -1.4045   -0.5545   -0.0622 C   0  0  0  0  0  0  0  0  0  0  0  0
   -2.7640   -0.7455    0.0391 N   0  0  0  0  0  0  0  0  0  0  0  0
   -3.8808   -0.8312    0.1240 N   0  0  0  0  0  0  0  0  0  0  0  0
   -1.0353    0.8115   -0.0574 C   0  0  0  0  0  0  0  0  0  0  0  0
    0.3645    0.9256   -0.1649 C   0  0  0  0  0  0  0  0  0  0  0  0
    1.2401   -0.1669   -0.2608 C   0  0  0  0  0  0  0  0  0  0  0  0
    2.5587    0.1268   -0.3576 O   0  0  0  0  0  0  0  0  0  0  0  0
    3.5136   -0.9231   -0.4575 C   0  0  0  0  0  0  0  0  0  0  0  0
    0.7555   -1.5085   -0.2550 C   0  0  0  0  0  0  0  0  0  0  0  0
   -0.5982   -1.7212   -0.1538 C   0  0  0  0  0  0  0  0  0  0  0  0
   -3.2298    4.7603    0.3335 H   0  0  0  0  0  0  0  0  0  0  0  0
    0.8390    1.9078   -0.1775 H   0  0  0  0  0  0  0  0  0  0  0  0
    4.4865   -0.4349   -0.5223 H   0  0  0  0  0  0  0  0  0  0  0  0
    3.3550   -1.5296   -1.3576 H   0  0  0  0  0  0  0  0  0  0  0  0
    3.4951   -1.5718    0.4270 H   0  0  0  0  0  0  0  0  0  0  0  0
    1.4311   -2.3511   -0.3279 H   0  0  0  0  0  0  0  0  0  0  0  0
   -1.0168   -2.7249   -0.1454 H   0  0  0  0  0  0  0  0  0  0  0  0
   -3.9803    5.7944    0.4815 Cl  0  0  0  0  0  0  0  0  0  0  0  0
  1  4  1  0  0  0  0
  1  2  1  0  0  0  0
  2  3  1  0  0  0  0
  5  4  2  0  0  0  0
  6  9  2  0  0  0  0
  6  5  1  0  0  0  0
  7  6  1  0  0  0  0
  8  7  1  0  0  0  0
  8 15  1  0  0  0  0
  9 10  1  0  0  0  0
 10 17  1  0  0  0  0
 10  1  2  0  0  0  0
 11 18  1  0  0  0  0
 12  5  1  0  0  0  0
 13  8  1  0  0  0  0
 14  8  1  0  0  0  0
 16  9  1  0  0  0  0
M  RAD  3   2   2   3   3   4   2
M  END
