Coordinates from ORCA-job 4-MeOPhN2+~Cl-_B3LYPG-6-31G_dp-CH-Scan-d09-49-n800
 OpenBabel11261919403D

 18 17  0  0  0  0  0  0  0  0999 V2000
   -1.4045   -0.4875   -0.0573 C   0  0  0  0  0  0  0  0  0  0  0  0
   -2.7665   -0.6556    0.0456 N   0  0  0  0  0  0  0  0  0  0  0  0
   -3.8845   -0.7230    0.1316 N   0  0  0  0  0  0  0  0  0  0  0  0
   -1.0111    0.8720   -0.0532 C   0  0  0  0  0  0  0  0  0  0  0  0
    0.3901    0.9619   -0.1622 C   0  0  0  0  0  0  0  0  0  0  0  0
    1.2465   -0.1457   -0.2595 C   0  0  0  0  0  0  0  0  0  0  0  0
    2.5698    0.1252   -0.3579 O   0  0  0  0  0  0  0  0  0  0  0  0
    3.5065   -0.9408   -0.4589 C   0  0  0  0  0  0  0  0  0  0  0  0
    0.7387   -1.4786   -0.2531 C   0  0  0  0  0  0  0  0  0  0  0  0
   -0.6183   -1.6677   -0.1501 C   0  0  0  0  0  0  0  0  0  0  0  0
   -3.1858    4.5329    0.3177 H   0  0  0  0  0  0  0  0  0  0  0  0
    0.8815    1.9356   -0.1756 H   0  0  0  0  0  0  0  0  0  0  0  0
    4.4876   -0.4692   -0.5235 H   0  0  0  0  0  0  0  0  0  0  0  0
    3.3374   -1.5437   -1.3595 H   0  0  0  0  0  0  0  0  0  0  0  0
    3.4769   -1.5899    0.4249 H   0  0  0  0  0  0  0  0  0  0  0  0
    1.3996   -2.3327   -0.3269 H   0  0  0  0  0  0  0  0  0  0  0  0
   -1.0542   -2.6640   -0.1410 H   0  0  0  0  0  0  0  0  0  0  0  0
   -3.9804    5.5340    0.4638 Cl  0  0  0  0  0  0  0  0  0  0  0  0
  1  4  1  0  0  0  0
  1  2  1  0  0  0  0
  2  3  1  0  0  0  0
  5  4  2  0  0  0  0
  6  9  2  0  0  0  0
  6  5  1  0  0  0  0
  7  6  1  0  0  0  0
  8  7  1  0  0  0  0
  8 15  1  0  0  0  0
  9 10  1  0  0  0  0
 10 17  1  0  0  0  0
 10  1  2  0  0  0  0
 11 18  1  0  0  0  0
 12  5  1  0  0  0  0
 13  8  1  0  0  0  0
 14  8  1  0  0  0  0
 16  9  1  0  0  0  0
M  RAD  3   2   2   3   3   4   2
M  END
