Coordinates from ORCA-job 4-MeOPhN2+~Cl-_B3LYPG-6-31G_dp-CH-Scan-d09-49-n800
 OpenBabel11261919403D

 18 17  0  0  0  0  0  0  0  0999 V2000
   -1.4071   -0.4483   -0.0548 C   0  0  0  0  0  0  0  0  0  0  0  0
   -2.7701   -0.6049    0.0496 N   0  0  0  0  0  0  0  0  0  0  0  0
   -3.8884   -0.6643    0.1366 N   0  0  0  0  0  0  0  0  0  0  0  0
   -1.0006    0.9076   -0.0515 C   0  0  0  0  0  0  0  0  0  0  0  0
    0.4010    0.9846   -0.1618 C   0  0  0  0  0  0  0  0  0  0  0  0
    1.2472   -0.1309   -0.2590 C   0  0  0  0  0  0  0  0  0  0  0  0
    2.5727    0.1279   -0.3580 O   0  0  0  0  0  0  0  0  0  0  0  0
    3.4998   -0.9466   -0.4587 C   0  0  0  0  0  0  0  0  0  0  0  0
    0.7272   -1.4590   -0.2519 C   0  0  0  0  0  0  0  0  0  0  0  0
   -0.6314   -1.6356   -0.1478 C   0  0  0  0  0  0  0  0  0  0  0  0
   -3.1447    4.3825    0.3078 H   0  0  0  0  0  0  0  0  0  0  0  0
    0.9012    1.9538   -0.1760 H   0  0  0  0  0  0  0  0  0  0  0  0
    4.4851   -0.4839   -0.5231 H   0  0  0  0  0  0  0  0  0  0  0  0
    3.3255   -1.5480   -1.3594 H   0  0  0  0  0  0  0  0  0  0  0  0
    3.4640   -1.5954    0.4252 H   0  0  0  0  0  0  0  0  0  0  0  0
    1.3801   -2.3192   -0.3258 H   0  0  0  0  0  0  0  0  0  0  0  0
   -1.0765   -2.6278   -0.1382 H   0  0  0  0  0  0  0  0  0  0  0  0
   -3.9556    5.3709    0.4516 Cl  0  0  0  0  0  0  0  0  0  0  0  0
  1  4  1  0  0  0  0
  1  2  1  0  0  0  0
  2  3  1  0  0  0  0
  5  4  2  0  0  0  0
  6  9  2  0  0  0  0
  6  5  1  0  0  0  0
  7  6  1  0  0  0  0
  8  7  1  0  0  0  0
  8 15  1  0  0  0  0
  9 10  1  0  0  0  0
 10 17  1  0  0  0  0
 10  1  2  0  0  0  0
 11 18  1  0  0  0  0
 12  5  1  0  0  0  0
 13  8  1  0  0  0  0
 14  8  1  0  0  0  0
 16  9  1  0  0  0  0
M  RAD  3   2   2   3   3   4   2
M  END
