Coordinates from ORCA-job 4-MeOPhN2+~Cl-_B3LYPG-6-31G_dp-CH-Scan-d09-49-n800
 OpenBabel11261919403D

 18 17  0  0  0  0  0  0  0  0999 V2000
   -1.4221   -0.3486   -0.0453 C   0  0  0  0  0  0  0  0  0  0  0  0
   -2.7863   -0.4805    0.0622 N   0  0  0  0  0  0  0  0  0  0  0  0
   -3.9050   -0.5243    0.1520 N   0  0  0  0  0  0  0  0  0  0  0  0
   -0.9841    0.9982   -0.0406 C   0  0  0  0  0  0  0  0  0  0  0  0
    0.4176    1.0470   -0.1540 C   0  0  0  0  0  0  0  0  0  0  0  0
    1.2401   -0.0860   -0.2546 C   0  0  0  0  0  0  0  0  0  0  0  0
    2.5698    0.1452   -0.3552 O   0  0  0  0  0  0  0  0  0  0  0  0
    3.4749   -0.9480   -0.4585 C   0  0  0  0  0  0  0  0  0  0  0  0
    0.6919   -1.4026   -0.2492 C   0  0  0  0  0  0  0  0  0  0  0  0
   -0.6698   -1.5507   -0.1428 C   0  0  0  0  0  0  0  0  0  0  0  0
   -2.9842    3.9488    0.2720 H   0  0  0  0  0  0  0  0  0  0  0  0
    0.9371    2.0057   -0.1674 H   0  0  0  0  0  0  0  0  0  0  0  0
    4.4694   -0.5051   -0.5218 H   0  0  0  0  0  0  0  0  0  0  0  0
    3.2882   -1.5434   -1.3605 H   0  0  0  0  0  0  0  0  0  0  0  0
    3.4256   -1.5977    0.4240 H   0  0  0  0  0  0  0  0  0  0  0  0
    1.3263   -2.2763   -0.3263 H   0  0  0  0  0  0  0  0  0  0  0  0
   -1.1353   -2.5335   -0.1345 H   0  0  0  0  0  0  0  0  0  0  0  0
   -3.8248    4.9152    0.4054 Cl  0  0  0  0  0  0  0  0  0  0  0  0
  1  4  1  0  0  0  0
  1  2  1  0  0  0  0
  2  3  1  0  0  0  0
  5  4  2  0  0  0  0
  6  9  2  0  0  0  0
  6  5  1  0  0  0  0
  7  6  1  0  0  0  0
  8  7  1  0  0  0  0
  8 15  1  0  0  0  0
  9 10  1  0  0  0  0
 10 17  1  0  0  0  0
 10  1  2  0  0  0  0
 11 18  1  0  0  0  0
 12  5  1  0  0  0  0
 13  8  1  0  0  0  0
 14  8  1  0  0  0  0
 16  9  1  0  0  0  0
M  RAD  3   2   2   3   3   4   2
M  END
