Coordinates from ORCA-job 4-MeOPhN2+~Cl-_B3LYPG-6-31G_dp-CH-Scan-d09-49-n800
 OpenBabel11261919403D

 18 17  0  0  0  0  0  0  0  0999 V2000
   -1.4067   -0.4524   -0.0551 C   0  0  0  0  0  0  0  0  0  0  0  0
   -2.7695   -0.6101    0.0491 N   0  0  0  0  0  0  0  0  0  0  0  0
   -3.8879   -0.6703    0.1360 N   0  0  0  0  0  0  0  0  0  0  0  0
   -1.0014    0.9039   -0.0518 C   0  0  0  0  0  0  0  0  0  0  0  0
    0.4001    0.9821   -0.1620 C   0  0  0  0  0  0  0  0  0  0  0  0
    1.2473   -0.1326   -0.2591 C   0  0  0  0  0  0  0  0  0  0  0  0
    2.5726    0.1274   -0.3581 O   0  0  0  0  0  0  0  0  0  0  0  0
    3.5006   -0.9463   -0.4588 C   0  0  0  0  0  0  0  0  0  0  0  0
    0.7285   -1.4612   -0.2520 C   0  0  0  0  0  0  0  0  0  0  0  0
   -0.6299   -1.6390   -0.1480 C   0  0  0  0  0  0  0  0  0  0  0  0
   -3.1503    4.3994    0.3091 H   0  0  0  0  0  0  0  0  0  0  0  0
    0.8995    1.9518   -0.1762 H   0  0  0  0  0  0  0  0  0  0  0  0
    4.4856   -0.4827   -0.5231 H   0  0  0  0  0  0  0  0  0  0  0  0
    3.3269   -1.5479   -1.3593 H   0  0  0  0  0  0  0  0  0  0  0  0
    3.4655   -1.5951    0.4252 H   0  0  0  0  0  0  0  0  0  0  0  0
    1.3823   -2.3208   -0.3258 H   0  0  0  0  0  0  0  0  0  0  0  0
   -1.0741   -2.6316   -0.1384 H   0  0  0  0  0  0  0  0  0  0  0  0
   -3.9598    5.3888    0.4533 Cl  0  0  0  0  0  0  0  0  0  0  0  0
  1  4  1  0  0  0  0
  1  2  1  0  0  0  0
  2  3  1  0  0  0  0
  5  4  2  0  0  0  0
  6  9  2  0  0  0  0
  6  5  1  0  0  0  0
  7  6  1  0  0  0  0
  8  7  1  0  0  0  0
  8 15  1  0  0  0  0
  9 10  1  0  0  0  0
 10 17  1  0  0  0  0
 10  1  2  0  0  0  0
 11 18  1  0  0  0  0
 12  5  1  0  0  0  0
 13  8  1  0  0  0  0
 14  8  1  0  0  0  0
 16  9  1  0  0  0  0
M  RAD  3   2   2   3   3   4   2
M  END
