Coordinates from ORCA-job 4-MeOPhN2+~Cl-_B3LYPG-6-31G_dp-CH-Scan-d09-49-n800
 OpenBabel11261919403D

 18 17  0  0  0  0  0  0  0  0999 V2000
   -1.4049   -0.4689   -0.0564 C   0  0  0  0  0  0  0  0  0  0  0  0
   -2.7675   -0.6312    0.0472 N   0  0  0  0  0  0  0  0  0  0  0  0
   -3.8857   -0.6946    0.1337 N   0  0  0  0  0  0  0  0  0  0  0  0
   -1.0050    0.8888   -0.0530 C   0  0  0  0  0  0  0  0  0  0  0  0
    0.3964    0.9722   -0.1627 C   0  0  0  0  0  0  0  0  0  0  0  0
    1.2477   -0.1394   -0.2595 C   0  0  0  0  0  0  0  0  0  0  0  0
    2.5721    0.1254   -0.3583 O   0  0  0  0  0  0  0  0  0  0  0  0
    3.5040   -0.9449   -0.4588 C   0  0  0  0  0  0  0  0  0  0  0  0
    0.7338   -1.4699   -0.2524 C   0  0  0  0  0  0  0  0  0  0  0  0
   -0.6240   -1.6527   -0.1489 C   0  0  0  0  0  0  0  0  0  0  0  0
   -3.1720    4.4668    0.3140 H   0  0  0  0  0  0  0  0  0  0  0  0
    0.8923    1.9437   -0.1767 H   0  0  0  0  0  0  0  0  0  0  0  0
    4.4873   -0.4778   -0.5233 H   0  0  0  0  0  0  0  0  0  0  0  0
    3.3324   -1.5473   -1.3593 H   0  0  0  0  0  0  0  0  0  0  0  0
    3.4713   -1.5937    0.4252 H   0  0  0  0  0  0  0  0  0  0  0  0
    1.3907   -2.3271   -0.3260 H   0  0  0  0  0  0  0  0  0  0  0  0
   -1.0645   -2.6470   -0.1393 H   0  0  0  0  0  0  0  0  0  0  0  0
   -3.9753    5.4610    0.4596 Cl  0  0  0  0  0  0  0  0  0  0  0  0
  1  4  1  0  0  0  0
  1  2  1  0  0  0  0
  2  3  1  0  0  0  0
  5  4  2  0  0  0  0
  6  9  2  0  0  0  0
  6  5  1  0  0  0  0
  7  6  1  0  0  0  0
  8  7  1  0  0  0  0
  8 15  1  0  0  0  0
  9 10  1  0  0  0  0
 10 17  1  0  0  0  0
 10  1  2  0  0  0  0
 11 18  1  0  0  0  0
 12  5  1  0  0  0  0
 13  8  1  0  0  0  0
 14  8  1  0  0  0  0
 16  9  1  0  0  0  0
M  RAD  3   2   2   3   3   4   2
M  END
