Coordinates from ORCA-job 4-MeOPhN2+~Cl-_B3LYPG-6-31G_dp-CH-Scan-d09-49-n800
 OpenBabel11261919403D

 18 17  0  0  0  0  0  0  0  0999 V2000
   -1.4719   -0.1790   -0.0274 C   0  0  0  0  0  0  0  0  0  0  0  0
   -2.8354   -0.2791    0.0839 N   0  0  0  0  0  0  0  0  0  0  0  0
   -3.9534   -0.3089    0.1768 N   0  0  0  0  0  0  0  0  0  0  0  0
   -0.9801    1.1504   -0.0205 C   0  0  0  0  0  0  0  0  0  0  0  0
    0.4174    1.1648   -0.1373 C   0  0  0  0  0  0  0  0  0  0  0  0
    1.2056    0.0068   -0.2442 C   0  0  0  0  0  0  0  0  0  0  0  0
    2.5385    0.1996   -0.3471 O   0  0  0  0  0  0  0  0  0  0  0  0
    3.4132   -0.9192   -0.4555 C   0  0  0  0  0  0  0  0  0  0  0  0
    0.6161   -1.2907   -0.2419 C   0  0  0  0  0  0  0  0  0  0  0  0
   -0.7493   -1.3981   -0.1320 C   0  0  0  0  0  0  0  0  0  0  0  0
   -2.5260    3.1126    0.1913 H   0  0  0  0  0  0  0  0  0  0  0  0
    0.9603    2.1094   -0.1482 H   0  0  0  0  0  0  0  0  0  0  0  0
    4.4191   -0.5033   -0.5183 H   0  0  0  0  0  0  0  0  0  0  0  0
    3.2080   -1.5046   -1.3598 H   0  0  0  0  0  0  0  0  0  0  0  0
    3.3454   -1.5693    0.4250 H   0  0  0  0  0  0  0  0  0  0  0  0
    1.2225   -2.1837   -0.3240 H   0  0  0  0  0  0  0  0  0  0  0  0
   -1.2427   -2.3667   -0.1261 H   0  0  0  0  0  0  0  0  0  0  0  0
   -3.4579    4.0222    0.3101 Cl  0  0  0  0  0  0  0  0  0  0  0  0
  1  4  1  0  0  0  0
  1  2  1  0  0  0  0
  2  3  1  0  0  0  0
  5  4  2  0  0  0  0
  6  9  2  0  0  0  0
  6  5  1  0  0  0  0
  7  6  1  0  0  0  0
  8  7  1  0  0  0  0
  8 15  1  0  0  0  0
  9 10  1  0  0  0  0
 10 17  1  0  0  0  0
 10  1  2  0  0  0  0
 11 18  1  0  0  0  0
 12  5  1  0  0  0  0
 13  8  1  0  0  0  0
 14  8  1  0  0  0  0
 16  9  1  0  0  0  0
M  RAD  3   2   2   3   3   4   2
M  END
