Coordinates from ORCA-job 4-MeOPhN2+~Cl-_B3LYPG-6-31G_dp-CH-Scan-d09-49-n800
 OpenBabel11261919403D

 18 17  0  0  0  0  0  0  0  0999 V2000
   -1.5396   -0.0242   -0.0155 C   0  0  0  0  0  0  0  0  0  0  0  0
   -2.9285   -0.1067    0.0975 N   0  0  0  0  0  0  0  0  0  0  0  0
   -3.9277    0.4692    0.2045 N   0  0  0  0  0  0  0  0  0  0  0  0
   -0.9033    1.2275   -0.0203 C   0  0  0  0  0  0  0  0  0  0  0  0
    0.4699    1.2752   -0.1327 C   0  0  0  0  0  0  0  0  0  0  0  0
    1.2131    0.0801   -0.2400 C   0  0  0  0  0  0  0  0  0  0  0  0
    2.5490    0.2372   -0.3440 O   0  0  0  0  0  0  0  0  0  0  0  0
    3.3803   -0.9154   -0.4527 C   0  0  0  0  0  0  0  0  0  0  0  0
    0.5630   -1.1705   -0.2341 C   0  0  0  0  0  0  0  0  0  0  0  0
   -0.8189   -1.2214   -0.1215 C   0  0  0  0  0  0  0  0  0  0  0  0
   -1.7487    2.3067    0.0933 H   0  0  0  0  0  0  0  0  0  0  0  0
    1.0073    2.2173   -0.1410 H   0  0  0  0  0  0  0  0  0  0  0  0
    4.4010   -0.5386   -0.5183 H   0  0  0  0  0  0  0  0  0  0  0  0
    3.1475   -1.4922   -1.3556 H   0  0  0  0  0  0  0  0  0  0  0  0
    3.2860   -1.5597    0.4294 H   0  0  0  0  0  0  0  0  0  0  0  0
    1.1255   -2.0918   -0.3157 H   0  0  0  0  0  0  0  0  0  0  0  0
   -1.3432   -2.1714   -0.1145 H   0  0  0  0  0  0  0  0  0  0  0  0
   -3.8032    2.7420    0.2862 Cl  0  0  0  0  0  0  0  0  0  0  0  0
  1  2  1  0  0  0  0
  2  3  2  0  0  0  0
  4  1  1  0  0  0  0
  4 11  1  0  0  0  0
  5  4  2  0  0  0  0
  6  9  2  0  0  0  0
  6  5  1  0  0  0  0
  7  6  1  0  0  0  0
  8  7  1  0  0  0  0
  8 15  1  0  0  0  0
  9 10  1  0  0  0  0
 10 17  1  0  0  0  0
 10  1  2  0  0  0  0
 12  5  1  0  0  0  0
 13  8  1  0  0  0  0
 14  8  1  0  0  0  0
 16  9  1  0  0  0  0
M  RAD  2   3   2  18   2
M  END
