Coordinates from ORCA-job 4-MeOPhN2+~Cl-_B3LYPG-6-31G_dp-CH-Scan-d09-49-n800
 OpenBabel11261919403D

 18 17  0  0  0  0  0  0  0  0999 V2000
   -1.4039   -0.5434   -0.0589 C   0  0  0  0  0  0  0  0  0  0  0  0
   -2.7640   -0.7298    0.0424 N   0  0  0  0  0  0  0  0  0  0  0  0
   -3.8811   -0.8114    0.1273 N   0  0  0  0  0  0  0  0  0  0  0  0
   -1.0299    0.8212   -0.0504 C   0  0  0  0  0  0  0  0  0  0  0  0
    0.3701    0.9314   -0.1580 C   0  0  0  0  0  0  0  0  0  0  0  0
    1.2419   -0.1637   -0.2584 C   0  0  0  0  0  0  0  0  0  0  0  0
    2.5614    0.1258   -0.3557 O   0  0  0  0  0  0  0  0  0  0  0  0
    3.5127   -0.9269   -0.4597 C   0  0  0  0  0  0  0  0  0  0  0  0
    0.7528   -1.5037   -0.2561 C   0  0  0  0  0  0  0  0  0  0  0  0
   -0.6014   -1.7124   -0.1544 C   0  0  0  0  0  0  0  0  0  0  0  0
   -3.2257    4.7246    0.3263 H   0  0  0  0  0  0  0  0  0  0  0  0
    0.8478    1.9121   -0.1681 H   0  0  0  0  0  0  0  0  0  0  0  0
    4.4872   -0.4417   -0.5237 H   0  0  0  0  0  0  0  0  0  0  0  0
    3.3514   -1.5300   -1.3615 H   0  0  0  0  0  0  0  0  0  0  0  0
    3.4928   -1.5784    0.4227 H   0  0  0  0  0  0  0  0  0  0  0  0
    1.4257   -2.3482   -0.3319 H   0  0  0  0  0  0  0  0  0  0  0  0
   -1.0232   -2.7148   -0.1484 H   0  0  0  0  0  0  0  0  0  0  0  0
   -3.9852    5.7526    0.4714 Cl  0  0  0  0  0  0  0  0  0  0  0  0
  1  4  1  0  0  0  0
  1  2  1  0  0  0  0
  2  3  1  0  0  0  0
  5  4  2  0  0  0  0
  6  9  2  0  0  0  0
  6  5  1  0  0  0  0
  7  6  1  0  0  0  0
  8  7  1  0  0  0  0
  8 15  1  0  0  0  0
  9 10  1  0  0  0  0
 10 17  1  0  0  0  0
 10  1  2  0  0  0  0
 11 18  1  0  0  0  0
 12  5  1  0  0  0  0
 13  8  1  0  0  0  0
 14  8  1  0  0  0  0
 16  9  1  0  0  0  0
M  RAD  3   2   2   3   3   4   2
M  END
