Coordinates from ORCA-job 4-MeOPhN2+~Cl-_B3LYPG-6-31G_dp-CH-Scan-d09-49-n800
 OpenBabel11261919403D

 18 17  0  0  0  0  0  0  0  0999 V2000
   -1.4912   -0.1324   -0.0223 C   0  0  0  0  0  0  0  0  0  0  0  0
   -2.8550   -0.2222    0.0899 N   0  0  0  0  0  0  0  0  0  0  0  0
   -3.9726   -0.2415    0.1838 N   0  0  0  0  0  0  0  0  0  0  0  0
   -0.9834    1.1905   -0.0151 C   0  0  0  0  0  0  0  0  0  0  0  0
    0.4116    1.2003   -0.1323 C   0  0  0  0  0  0  0  0  0  0  0  0
    1.1913    0.0359   -0.2409 C   0  0  0  0  0  0  0  0  0  0  0  0
    2.5241    0.2198   -0.3442 O   0  0  0  0  0  0  0  0  0  0  0  0
    3.3920   -0.9048   -0.4540 C   0  0  0  0  0  0  0  0  0  0  0  0
    0.5914   -1.2561   -0.2393 C   0  0  0  0  0  0  0  0  0  0  0  0
   -0.7750   -1.3542   -0.1286 C   0  0  0  0  0  0  0  0  0  0  0  0
   -2.3513    2.8481    0.1644 H   0  0  0  0  0  0  0  0  0  0  0  0
    0.9578    2.1424   -0.1424 H   0  0  0  0  0  0  0  0  0  0  0  0
    4.4002   -0.4948   -0.5168 H   0  0  0  0  0  0  0  0  0  0  0  0
    3.1824   -1.4875   -1.3588 H   0  0  0  0  0  0  0  0  0  0  0  0
    3.3200   -1.5547    0.4262 H   0  0  0  0  0  0  0  0  0  0  0  0
    1.1907   -2.1537   -0.3226 H   0  0  0  0  0  0  0  0  0  0  0  0
   -1.2748   -2.3192   -0.1232 H   0  0  0  0  0  0  0  0  0  0  0  0
   -3.3287    3.7472    0.2810 Cl  0  0  0  0  0  0  0  0  0  0  0  0
  1  4  1  0  0  0  0
  1  2  1  0  0  0  0
  2  3  1  0  0  0  0
  5  4  2  0  0  0  0
  6  9  2  0  0  0  0
  6  5  1  0  0  0  0
  7  6  1  0  0  0  0
  8  7  1  0  0  0  0
  8 15  1  0  0  0  0
  9 10  1  0  0  0  0
 10 17  1  0  0  0  0
 10  1  2  0  0  0  0
 11 18  1  0  0  0  0
 12  5  1  0  0  0  0
 13  8  1  0  0  0  0
 14  8  1  0  0  0  0
 16  9  1  0  0  0  0
M  RAD  3   2   2   3   3   4   2
M  END
