Coordinates from ORCA-job 4-MeOPhN2+~Cl-_B3LYPG-6-31G_dp-CH-Scan-d09-49-n800
 OpenBabel11261919403D

 18 17  0  0  0  0  0  0  0  0999 V2000
   -1.4840   -0.1457   -0.0241 C   0  0  0  0  0  0  0  0  0  0  0  0
   -2.8477   -0.2379    0.0879 N   0  0  0  0  0  0  0  0  0  0  0  0
   -3.9655   -0.2599    0.1816 N   0  0  0  0  0  0  0  0  0  0  0  0
   -0.9809    1.1792   -0.0171 C   0  0  0  0  0  0  0  0  0  0  0  0
    0.4151    1.1894   -0.1343 C   0  0  0  0  0  0  0  0  0  0  0  0
    1.1968    0.0266   -0.2421 C   0  0  0  0  0  0  0  0  0  0  0  0
    2.5298    0.2125   -0.3454 O   0  0  0  0  0  0  0  0  0  0  0  0
    3.3992   -0.9107   -0.4545 C   0  0  0  0  0  0  0  0  0  0  0  0
    0.5995   -1.2669   -0.2401 C   0  0  0  0  0  0  0  0  0  0  0  0
   -0.7666   -1.3671   -0.1296 C   0  0  0  0  0  0  0  0  0  0  0  0
   -2.4120    2.9331    0.1735 H   0  0  0  0  0  0  0  0  0  0  0  0
    0.9610    2.1318   -0.1448 H   0  0  0  0  0  0  0  0  0  0  0  0
    4.4069   -0.4995   -0.5173 H   0  0  0  0  0  0  0  0  0  0  0  0
    3.1907   -1.4944   -1.3590 H   0  0  0  0  0  0  0  0  0  0  0  0
    3.3282   -1.5605    0.4259 H   0  0  0  0  0  0  0  0  0  0  0  0
    1.2006   -2.1634   -0.3230 H   0  0  0  0  0  0  0  0  0  0  0  0
   -1.2649   -2.3330   -0.1240 H   0  0  0  0  0  0  0  0  0  0  0  0
   -3.3768    3.8297    0.2912 Cl  0  0  0  0  0  0  0  0  0  0  0  0
  1  4  1  0  0  0  0
  1  2  1  0  0  0  0
  2  3  1  0  0  0  0
  5  4  2  0  0  0  0
  6  9  2  0  0  0  0
  6  5  1  0  0  0  0
  7  6  1  0  0  0  0
  8  7  1  0  0  0  0
  8 15  1  0  0  0  0
  9 10  1  0  0  0  0
 10 17  1  0  0  0  0
 10  1  2  0  0  0  0
 11 18  1  0  0  0  0
 12  5  1  0  0  0  0
 13  8  1  0  0  0  0
 14  8  1  0  0  0  0
 16  9  1  0  0  0  0
M  RAD  3   2   2   3   3   4   2
M  END
