Coordinates from ORCA-job 4-MeOPhN2+~Cl-_B3LYPG-6-31G_dp-CH-Scan-d09-49-n800
 OpenBabel11261919403D

 18 17  0  0  0  0  0  0  0  0999 V2000
   -1.5481   -0.0051   -0.0147 C   0  0  0  0  0  0  0  0  0  0  0  0
   -2.9355   -0.1134    0.0972 N   0  0  0  0  0  0  0  0  0  0  0  0
   -3.9413    0.4621    0.2061 N   0  0  0  0  0  0  0  0  0  0  0  0
   -0.8984    1.2422   -0.0214 C   0  0  0  0  0  0  0  0  0  0  0  0
    0.4758    1.2813   -0.1341 C   0  0  0  0  0  0  0  0  0  0  0  0
    1.2154    0.0847   -0.2404 C   0  0  0  0  0  0  0  0  0  0  0  0
    2.5519    0.2379   -0.3441 O   0  0  0  0  0  0  0  0  0  0  0  0
    3.3780   -0.9184   -0.4519 C   0  0  0  0  0  0  0  0  0  0  0  0
    0.5583   -1.1603   -0.2335 C   0  0  0  0  0  0  0  0  0  0  0  0
   -0.8244   -1.2007   -0.1207 C   0  0  0  0  0  0  0  0  0  0  0  0
   -1.6398    2.2874    0.0808 H   0  0  0  0  0  0  0  0  0  0  0  0
    1.0148    2.2222   -0.1428 H   0  0  0  0  0  0  0  0  0  0  0  0
    4.4005   -0.5463   -0.5173 H   0  0  0  0  0  0  0  0  0  0  0  0
    3.1428   -1.4946   -1.3545 H   0  0  0  0  0  0  0  0  0  0  0  0
    3.2804   -1.5618    0.4305 H   0  0  0  0  0  0  0  0  0  0  0  0
    1.1140   -2.0859   -0.3146 H   0  0  0  0  0  0  0  0  0  0  0  0
   -1.3538   -2.1478   -0.1131 H   0  0  0  0  0  0  0  0  0  0  0  0
   -3.8613    2.6797    0.2935 Cl  0  0  0  0  0  0  0  0  0  0  0  0
  1  2  1  0  0  0  0
  2  3  2  0  0  0  0
  4  1  1  0  0  0  0
  4 11  1  0  0  0  0
  5  4  2  0  0  0  0
  6  9  2  0  0  0  0
  6  5  1  0  0  0  0
  7  6  1  0  0  0  0
  8  7  1  0  0  0  0
  8 15  1  0  0  0  0
  9 10  1  0  0  0  0
 10 17  1  0  0  0  0
 10  1  2  0  0  0  0
 12  5  1  0  0  0  0
 13  8  1  0  0  0  0
 14  8  1  0  0  0  0
 16  9  1  0  0  0  0
M  RAD  2   3   2  18   2
M  END
