Coordinates from ORCA-job 4-MeOPhN2+~Cl-_B3LYPG-6-31G_dp-CH-Scan-d09-49-n800
 OpenBabel11261919403D

 18 17  0  0  0  0  0  0  0  0999 V2000
   -1.4064   -0.5980   -0.0750 C   0  0  0  0  0  0  0  0  0  0  0  0
   -2.7639   -0.8043    0.0233 N   0  0  0  0  0  0  0  0  0  0  0  0
   -3.8801   -0.9022    0.1045 N   0  0  0  0  0  0  0  0  0  0  0  0
   -1.0545    0.7724   -0.0856 C   0  0  0  0  0  0  0  0  0  0  0  0
    0.3440    0.9031   -0.1895 C   0  0  0  0  0  0  0  0  0  0  0  0
    1.2336   -0.1794   -0.2692 C   0  0  0  0  0  0  0  0  0  0  0  0
    2.5489    0.1297   -0.3656 O   0  0  0  0  0  0  0  0  0  0  0  0
    3.5170   -0.9091   -0.4509 C   0  0  0  0  0  0  0  0  0  0  0  0
    0.7659   -1.5269   -0.2484 C   0  0  0  0  0  0  0  0  0  0  0  0
   -0.5853   -1.7554   -0.1494 C   0  0  0  0  0  0  0  0  0  0  0  0
   -3.2491    4.8986    0.3611 H   0  0  0  0  0  0  0  0  0  0  0  0
    0.8062    1.8910   -0.2127 H   0  0  0  0  0  0  0  0  0  0  0  0
    4.4838   -0.4096   -0.5206 H   0  0  0  0  0  0  0  0  0  0  0  0
    3.3674   -1.5291   -1.3433 H   0  0  0  0  0  0  0  0  0  0  0  0
    3.5056   -1.5467    0.4419 H   0  0  0  0  0  0  0  0  0  0  0  0
    1.4523   -2.3617   -0.3086 H   0  0  0  0  0  0  0  0  0  0  0  0
   -0.9913   -2.7642   -0.1299 H   0  0  0  0  0  0  0  0  0  0  0  0
   -3.9647    5.9551    0.5228 Cl  0  0  0  0  0  0  0  0  0  0  0  0
  1  2  1  0  0  0  0
  2  3  1  0  0  0  0
  4  1  1  0  0  0  0
  5  4  2  0  0  0  0
  6  9  2  0  0  0  0
  6  5  1  0  0  0  0
  7  6  1  0  0  0  0
  8  7  1  0  0  0  0
  8 15  1  0  0  0  0
  9 10  1  0  0  0  0
 10 17  1  0  0  0  0
 10  1  2  0  0  0  0
 11 18  1  0  0  0  0
 12  5  1  0  0  0  0
 13  8  1  0  0  0  0
 14  8  1  0  0  0  0
 16  9  1  0  0  0  0
M  RAD  3   2   2   3   3   4   2
M  END
