Coordinates from ORCA-job 4-MeOPhN2+~Cl-_B3LYPG-6-31G_dp-CH-Scan-d09-49-n800
 OpenBabel11261919403D

 18 17  0  0  0  0  0  0  0  0999 V2000
   -1.5109   -0.0940   -0.0179 C   0  0  0  0  0  0  0  0  0  0  0  0
   -2.8756   -0.1730    0.0950 N   0  0  0  0  0  0  0  0  0  0  0  0
   -3.9923   -0.1761    0.1896 N   0  0  0  0  0  0  0  0  0  0  0  0
   -0.9859    1.2210   -0.0113 C   0  0  0  0  0  0  0  0  0  0  0  0
    0.4051    1.2320   -0.1283 C   0  0  0  0  0  0  0  0  0  0  0  0
    1.1781    0.0619   -0.2379 C   0  0  0  0  0  0  0  0  0  0  0  0
    2.5100    0.2390   -0.3414 O   0  0  0  0  0  0  0  0  0  0  0  0
    3.3731   -0.8902   -0.4526 C   0  0  0  0  0  0  0  0  0  0  0  0
    0.5690   -1.2249   -0.2366 C   0  0  0  0  0  0  0  0  0  0  0  0
   -0.7986   -1.3160   -0.1253 C   0  0  0  0  0  0  0  0  0  0  0  0
   -2.1722    2.6013    0.1386 H   0  0  0  0  0  0  0  0  0  0  0  0
    0.9512    2.1735   -0.1375 H   0  0  0  0  0  0  0  0  0  0  0  0
    4.3828   -0.4843   -0.5154 H   0  0  0  0  0  0  0  0  0  0  0  0
    3.1597   -1.4703   -1.3580 H   0  0  0  0  0  0  0  0  0  0  0  0
    3.2977   -1.5397    0.4274 H   0  0  0  0  0  0  0  0  0  0  0  0
    1.1623   -2.1263   -0.3207 H   0  0  0  0  0  0  0  0  0  0  0  0
   -1.3029   -2.2783   -0.1203 H   0  0  0  0  0  0  0  0  0  0  0  0
   -3.2212    3.5078    0.2574 Cl  0  0  0  0  0  0  0  0  0  0  0  0
  1  4  1  0  0  0  0
  1  2  1  0  0  0  0
  2  3  1  0  0  0  0
  5  4  2  0  0  0  0
  6  9  2  0  0  0  0
  6  5  1  0  0  0  0
  7  6  1  0  0  0  0
  8  7  1  0  0  0  0
  8 15  1  0  0  0  0
  9 10  1  0  0  0  0
 10 17  1  0  0  0  0
 10  1  2  0  0  0  0
 11 18  1  0  0  0  0
 12  5  1  0  0  0  0
 13  8  1  0  0  0  0
 14  8  1  0  0  0  0
 16  9  1  0  0  0  0
M  RAD  3   2   2   3   3   4   2
M  END
