Coordinates from ORCA-job 4-MeOPhN2+~Cl-_B3LYPG-6-31G_dp-CH-Scan-d09-49-n800
 OpenBabel11261919403D

 18 17  0  0  0  0  0  0  0  0999 V2000
   -1.4076   -0.4443   -0.0544 C   0  0  0  0  0  0  0  0  0  0  0  0
   -2.7706   -0.5998    0.0500 N   0  0  0  0  0  0  0  0  0  0  0  0
   -3.8890   -0.6584    0.1372 N   0  0  0  0  0  0  0  0  0  0  0  0
   -0.9998    0.9113   -0.0511 C   0  0  0  0  0  0  0  0  0  0  0  0
    0.4018    0.9870   -0.1616 C   0  0  0  0  0  0  0  0  0  0  0  0
    1.2471   -0.1292   -0.2588 C   0  0  0  0  0  0  0  0  0  0  0  0
    2.5727    0.1284   -0.3580 O   0  0  0  0  0  0  0  0  0  0  0  0
    3.4989   -0.9469   -0.4587 C   0  0  0  0  0  0  0  0  0  0  0  0
    0.7258   -1.4569   -0.2517 C   0  0  0  0  0  0  0  0  0  0  0  0
   -0.6329   -1.6322   -0.1476 C   0  0  0  0  0  0  0  0  0  0  0  0
   -3.1391    4.3657    0.3065 H   0  0  0  0  0  0  0  0  0  0  0  0
    0.9029    1.9558   -0.1758 H   0  0  0  0  0  0  0  0  0  0  0  0
    4.4846   -0.4850   -0.5230 H   0  0  0  0  0  0  0  0  0  0  0  0
    3.3241   -1.5480   -1.3594 H   0  0  0  0  0  0  0  0  0  0  0  0
    3.4626   -1.5957    0.4251 H   0  0  0  0  0  0  0  0  0  0  0  0
    1.3780   -2.3176   -0.3258 H   0  0  0  0  0  0  0  0  0  0  0  0
   -1.0788   -2.6241   -0.1381 H   0  0  0  0  0  0  0  0  0  0  0  0
   -3.9514    5.3531    0.4500 Cl  0  0  0  0  0  0  0  0  0  0  0  0
  1  4  1  0  0  0  0
  1  2  1  0  0  0  0
  2  3  1  0  0  0  0
  5  4  2  0  0  0  0
  6  9  2  0  0  0  0
  6  5  1  0  0  0  0
  7  6  1  0  0  0  0
  8  7  1  0  0  0  0
  8 15  1  0  0  0  0
  9 10  1  0  0  0  0
 10 17  1  0  0  0  0
 10  1  2  0  0  0  0
 11 18  1  0  0  0  0
 12  5  1  0  0  0  0
 13  8  1  0  0  0  0
 14  8  1  0  0  0  0
 16  9  1  0  0  0  0
M  RAD  3   2   2   3   3   4   2
M  END
