Coordinates from ORCA-job 4-MeOPhN2+~Cl-_B3LYPG-6-31G_dp-CH-Scan-d09-49-n800
 OpenBabel11261919403D

 18 17  0  0  0  0  0  0  0  0999 V2000
   -1.4086   -0.4362   -0.0537 C   0  0  0  0  0  0  0  0  0  0  0  0
   -2.7717   -0.5897    0.0510 N   0  0  0  0  0  0  0  0  0  0  0  0
   -3.8902   -0.6469    0.1384 N   0  0  0  0  0  0  0  0  0  0  0  0
   -0.9982    0.9186   -0.0503 C   0  0  0  0  0  0  0  0  0  0  0  0
    0.4035    0.9919   -0.1611 C   0  0  0  0  0  0  0  0  0  0  0  0
    1.2467   -0.1258   -0.2586 C   0  0  0  0  0  0  0  0  0  0  0  0
    2.5728    0.1295   -0.3578 O   0  0  0  0  0  0  0  0  0  0  0  0
    3.4971   -0.9473   -0.4587 C   0  0  0  0  0  0  0  0  0  0  0  0
    0.7232   -1.4525   -0.2515 C   0  0  0  0  0  0  0  0  0  0  0  0
   -0.6358   -1.6255   -0.1472 C   0  0  0  0  0  0  0  0  0  0  0  0
   -3.1277    4.3322    0.3039 H   0  0  0  0  0  0  0  0  0  0  0  0
    0.9062    1.9598   -0.1753 H   0  0  0  0  0  0  0  0  0  0  0  0
    4.4837   -0.4871   -0.5229 H   0  0  0  0  0  0  0  0  0  0  0  0
    3.3213   -1.5480   -1.3595 H   0  0  0  0  0  0  0  0  0  0  0  0
    3.4596   -1.5962    0.4250 H   0  0  0  0  0  0  0  0  0  0  0  0
    1.3738   -2.3144   -0.3258 H   0  0  0  0  0  0  0  0  0  0  0  0
   -1.0835   -2.6165   -0.1377 H   0  0  0  0  0  0  0  0  0  0  0  0
   -3.9427    5.3175    0.4465 Cl  0  0  0  0  0  0  0  0  0  0  0  0
  1  4  1  0  0  0  0
  1  2  1  0  0  0  0
  2  3  1  0  0  0  0
  5  4  2  0  0  0  0
  6  9  2  0  0  0  0
  6  5  1  0  0  0  0
  7  6  1  0  0  0  0
  8  7  1  0  0  0  0
  8 15  1  0  0  0  0
  9 10  1  0  0  0  0
 10 17  1  0  0  0  0
 10  1  2  0  0  0  0
 11 18  1  0  0  0  0
 12  5  1  0  0  0  0
 13  8  1  0  0  0  0
 14  8  1  0  0  0  0
 16  9  1  0  0  0  0
M  RAD  3   2   2   3   3   4   2
M  END
