Coordinates from ORCA-job 4-MeOPhN2+~Cl-_B3LYPG-6-31G_dp-CH-Scan-d09-49-n800
 OpenBabel11261919403D

 18 17  0  0  0  0  0  0  0  0999 V2000
   -1.4757   -0.1657   -0.0262 C   0  0  0  0  0  0  0  0  0  0  0  0
   -2.8393   -0.2624    0.0855 N   0  0  0  0  0  0  0  0  0  0  0  0
   -3.9573   -0.2887    0.1787 N   0  0  0  0  0  0  0  0  0  0  0  0
   -0.9794    1.1619   -0.0192 C   0  0  0  0  0  0  0  0  0  0  0  0
    0.4177    1.1742   -0.1362 C   0  0  0  0  0  0  0  0  0  0  0  0
    1.2030    0.0141   -0.2435 C   0  0  0  0  0  0  0  0  0  0  0  0
    2.5361    0.2038   -0.3465 O   0  0  0  0  0  0  0  0  0  0  0  0
    3.4083   -0.9169   -0.4552 C   0  0  0  0  0  0  0  0  0  0  0  0
    0.6101   -1.2817   -0.2413 C   0  0  0  0  0  0  0  0  0  0  0  0
   -0.7555   -1.3860   -0.1311 C   0  0  0  0  0  0  0  0  0  0  0  0
   -2.4868    3.0465    0.1849 H   0  0  0  0  0  0  0  0  0  0  0  0
    0.9621    2.1177   -0.1470 H   0  0  0  0  0  0  0  0  0  0  0  0
    4.4150   -0.5032   -0.5180 H   0  0  0  0  0  0  0  0  0  0  0  0
    3.2017   -1.5016   -1.3596 H   0  0  0  0  0  0  0  0  0  0  0  0
    3.3391   -1.5670    0.4253 H   0  0  0  0  0  0  0  0  0  0  0  0
    1.2142   -2.1762   -0.3237 H   0  0  0  0  0  0  0  0  0  0  0  0
   -1.2512   -2.3534   -0.1253 H   0  0  0  0  0  0  0  0  0  0  0  0
   -3.4326    3.9480    0.3033 Cl  0  0  0  0  0  0  0  0  0  0  0  0
  1  4  1  0  0  0  0
  1  2  1  0  0  0  0
  2  3  1  0  0  0  0
  5  4  2  0  0  0  0
  6  9  2  0  0  0  0
  6  5  1  0  0  0  0
  7  6  1  0  0  0  0
  8  7  1  0  0  0  0
  8 15  1  0  0  0  0
  9 10  1  0  0  0  0
 10 17  1  0  0  0  0
 10  1  2  0  0  0  0
 11 18  1  0  0  0  0
 12  5  1  0  0  0  0
 13  8  1  0  0  0  0
 14  8  1  0  0  0  0
 16  9  1  0  0  0  0
M  RAD  3   2   2   3   3   4   2
M  END
