Coordinates from ORCA-job 4-MeOPhN2+~Cl-_B3LYPG-6-31G_dp-CH-Scan-d09-49-n800
 OpenBabel11261919403D

 18 17  0  0  0  0  0  0  0  0999 V2000
   -1.4126   -0.4070   -0.0510 C   0  0  0  0  0  0  0  0  0  0  0  0
   -2.7762   -0.5530    0.0547 N   0  0  0  0  0  0  0  0  0  0  0  0
   -3.8948   -0.6052    0.1429 N   0  0  0  0  0  0  0  0  0  0  0  0
   -0.9931    0.9452   -0.0472 C   0  0  0  0  0  0  0  0  0  0  0  0
    0.4087    1.0100   -0.1589 C   0  0  0  0  0  0  0  0  0  0  0  0
    1.2450   -0.1129   -0.2574 C   0  0  0  0  0  0  0  0  0  0  0  0
    2.5724    0.1342   -0.3571 O   0  0  0  0  0  0  0  0  0  0  0  0
    3.4902   -0.9482   -0.4587 C   0  0  0  0  0  0  0  0  0  0  0  0
    0.7131   -1.4363   -0.2508 C   0  0  0  0  0  0  0  0  0  0  0  0
   -0.6469   -1.6008   -0.1457 C   0  0  0  0  0  0  0  0  0  0  0  0
   -3.0829    4.2069    0.2938 H   0  0  0  0  0  0  0  0  0  0  0  0
    0.9173    1.9748   -0.1729 H   0  0  0  0  0  0  0  0  0  0  0  0
    4.4795   -0.4939   -0.5225 H   0  0  0  0  0  0  0  0  0  0  0  0
    3.3107   -1.5472   -1.3598 H   0  0  0  0  0  0  0  0  0  0  0  0
    3.4486   -1.5973    0.4247 H   0  0  0  0  0  0  0  0  0  0  0  0
    1.3583   -2.3022   -0.3259 H   0  0  0  0  0  0  0  0  0  0  0  0
   -1.1007   -2.5890   -0.1366 H   0  0  0  0  0  0  0  0  0  0  0  0
   -3.9071    5.1852    0.4333 Cl  0  0  0  0  0  0  0  0  0  0  0  0
  1  4  1  0  0  0  0
  1  2  1  0  0  0  0
  2  3  1  0  0  0  0
  5  4  2  0  0  0  0
  6  9  2  0  0  0  0
  6  5  1  0  0  0  0
  7  6  1  0  0  0  0
  8  7  1  0  0  0  0
  8 15  1  0  0  0  0
  9 10  1  0  0  0  0
 10 17  1  0  0  0  0
 10  1  2  0  0  0  0
 11 18  1  0  0  0  0
 12  5  1  0  0  0  0
 13  8  1  0  0  0  0
 14  8  1  0  0  0  0
 16  9  1  0  0  0  0
M  RAD  3   2   2   3   3   4   2
M  END
