Coordinates from ORCA-job 4-MeOPhN2+~Cl-_B3LYPG-6-31G_dp-CH-Scan-d09-49-n800
 OpenBabel11261919403D

 18 17  0  0  0  0  0  0  0  0999 V2000
   -1.5007   -0.1158   -0.0200 C   0  0  0  0  0  0  0  0  0  0  0  0
   -2.8647   -0.2022    0.0925 N   0  0  0  0  0  0  0  0  0  0  0  0
   -3.9820   -0.2169    0.1867 N   0  0  0  0  0  0  0  0  0  0  0  0
   -0.9865    1.2043   -0.0127 C   0  0  0  0  0  0  0  0  0  0  0  0
    0.4070    1.2143   -0.1299 C   0  0  0  0  0  0  0  0  0  0  0  0
    1.1843    0.0479   -0.2393 C   0  0  0  0  0  0  0  0  0  0  0  0
    2.5167    0.2293   -0.3427 O   0  0  0  0  0  0  0  0  0  0  0  0
    3.3828   -0.8970   -0.4534 C   0  0  0  0  0  0  0  0  0  0  0  0
    0.5809   -1.2422   -0.2381 C   0  0  0  0  0  0  0  0  0  0  0  0
   -0.7859   -1.3376   -0.1271 C   0  0  0  0  0  0  0  0  0  0  0  0
   -2.2701    2.7375    0.1524 H   0  0  0  0  0  0  0  0  0  0  0  0
    0.9533    2.1562   -0.1394 H   0  0  0  0  0  0  0  0  0  0  0  0
    4.3916   -0.4884   -0.5161 H   0  0  0  0  0  0  0  0  0  0  0  0
    3.1718   -1.4784   -1.3586 H   0  0  0  0  0  0  0  0  0  0  0  0
    3.3096   -1.5471    0.4265 H   0  0  0  0  0  0  0  0  0  0  0  0
    1.1779   -2.1413   -0.3221 H   0  0  0  0  0  0  0  0  0  0  0  0
   -1.2874   -2.3017   -0.1222 H   0  0  0  0  0  0  0  0  0  0  0  0
   -3.2691    3.6424    0.2684 Cl  0  0  0  0  0  0  0  0  0  0  0  0
  1  4  1  0  0  0  0
  1  2  1  0  0  0  0
  2  3  1  0  0  0  0
  5  4  2  0  0  0  0
  6  9  2  0  0  0  0
  6  5  1  0  0  0  0
  7  6  1  0  0  0  0
  8  7  1  0  0  0  0
  8 15  1  0  0  0  0
  9 10  1  0  0  0  0
 10 17  1  0  0  0  0
 10  1  2  0  0  0  0
 11 18  1  0  0  0  0
 12  5  1  0  0  0  0
 13  8  1  0  0  0  0
 14  8  1  0  0  0  0
 16  9  1  0  0  0  0
M  RAD  3   2   2   3   3   4   2
M  END
