Coordinates from ORCA-job 4-MeOPhN2+~Cl-_B3LYPG-6-31G_dp-CH-Scan-d09-49-n800
 OpenBabel11261919403D

 18 18  0  0  0  0  0  0  0  0999 V2000
   -1.5639    0.0184   -0.0152 C   0  0  0  0  0  0  0  0  0  0  0  0
   -2.9505   -0.1199    0.0953 N   0  0  0  0  0  0  0  0  0  0  0  0
   -3.9549    0.4701    0.2088 N   0  0  0  0  0  0  0  0  0  0  0  0
   -0.9118    1.2697   -0.0230 C   0  0  0  0  0  0  0  0  0  0  0  0
    0.4661    1.2914   -0.1364 C   0  0  0  0  0  0  0  0  0  0  0  0
    1.2064    0.0972   -0.2411 C   0  0  0  0  0  0  0  0  0  0  0  0
    2.5436    0.2502   -0.3441 O   0  0  0  0  0  0  0  0  0  0  0  0
    3.3670   -0.9081   -0.4481 C   0  0  0  0  0  0  0  0  0  0  0  0
    0.5460   -1.1438   -0.2330 C   0  0  0  0  0  0  0  0  0  0  0  0
   -0.8373   -1.1749   -0.1206 C   0  0  0  0  0  0  0  0  0  0  0  0
   -1.4498    2.1212    0.0540 H   0  0  0  0  0  0  0  0  0  0  0  0
    1.0061    2.2322   -0.1459 H   0  0  0  0  0  0  0  0  0  0  0  0
    4.3905   -0.5389   -0.5130 H   0  0  0  0  0  0  0  0  0  0  0  0
    3.1316   -1.4862   -1.3496 H   0  0  0  0  0  0  0  0  0  0  0  0
    3.2664   -1.5494    0.4356 H   0  0  0  0  0  0  0  0  0  0  0  0
    1.0966   -2.0727   -0.3127 H   0  0  0  0  0  0  0  0  0  0  0  0
   -1.3710   -2.1193   -0.1121 H   0  0  0  0  0  0  0  0  0  0  0  0
   -3.8518    2.6258    0.3058 Cl  0  0  0  0  0  0  0  0  0  0  0  0
  1  2  1  0  0  0  0
  2  3  2  0  0  0  0
  3 18  1  0  0  0  0
  4  1  1  0  0  0  0
  4 11  1  0  0  0  0
  5  4  2  0  0  0  0
  6  9  2  0  0  0  0
  6  5  1  0  0  0  0
  7  6  1  0  0  0  0
  8  7  1  0  0  0  0
  8 15  1  0  0  0  0
  9 10  1  0  0  0  0
 10 17  1  0  0  0  0
 10  1  2  0  0  0  0
 12  5  1  0  0  0  0
 13  8  1  0  0  0  0
 14  8  1  0  0  0  0
 16  9  1  0  0  0  0
M  END
