Coordinates from ORCA-job 4-MeOPhN2+~Cl-_B3LYPG-6-31G_dp-CH-Scan-d09-49-n800
 OpenBabel11261919403D

 18 17  0  0  0  0  0  0  0  0999 V2000
   -1.4103   -0.4235   -0.0525 C   0  0  0  0  0  0  0  0  0  0  0  0
   -2.7737   -0.5736    0.0526 N   0  0  0  0  0  0  0  0  0  0  0  0
   -3.8922   -0.6286    0.1404 N   0  0  0  0  0  0  0  0  0  0  0  0
   -0.9959    0.9302   -0.0490 C   0  0  0  0  0  0  0  0  0  0  0  0
    0.4058    0.9998   -0.1602 C   0  0  0  0  0  0  0  0  0  0  0  0
    1.2460   -0.1202   -0.2580 C   0  0  0  0  0  0  0  0  0  0  0  0
    2.5727    0.1315   -0.3575 O   0  0  0  0  0  0  0  0  0  0  0  0
    3.4942   -0.9478   -0.4587 C   0  0  0  0  0  0  0  0  0  0  0  0
    0.7188   -1.4455   -0.2512 C   0  0  0  0  0  0  0  0  0  0  0  0
   -0.6406   -1.6147   -0.1466 C   0  0  0  0  0  0  0  0  0  0  0  0
   -3.1086    4.2778    0.2996 H   0  0  0  0  0  0  0  0  0  0  0  0
    0.9111    1.9663   -0.1743 H   0  0  0  0  0  0  0  0  0  0  0  0
    4.4819   -0.4902   -0.5228 H   0  0  0  0  0  0  0  0  0  0  0  0
    3.3167   -1.5477   -1.3596 H   0  0  0  0  0  0  0  0  0  0  0  0
    3.4549   -1.5968    0.4249 H   0  0  0  0  0  0  0  0  0  0  0  0
    1.3671   -2.3092   -0.3258 H   0  0  0  0  0  0  0  0  0  0  0  0
   -1.0910   -2.6046   -0.1372 H   0  0  0  0  0  0  0  0  0  0  0  0
   -3.9276    5.2601    0.4408 Cl  0  0  0  0  0  0  0  0  0  0  0  0
  1  4  1  0  0  0  0
  1  2  1  0  0  0  0
  2  3  1  0  0  0  0
  5  4  2  0  0  0  0
  6  9  2  0  0  0  0
  6  5  1  0  0  0  0
  7  6  1  0  0  0  0
  8  7  1  0  0  0  0
  8 15  1  0  0  0  0
  9 10  1  0  0  0  0
 10 17  1  0  0  0  0
 10  1  2  0  0  0  0
 11 18  1  0  0  0  0
 12  5  1  0  0  0  0
 13  8  1  0  0  0  0
 14  8  1  0  0  0  0
 16  9  1  0  0  0  0
M  RAD  3   2   2   3   3   4   2
M  END
