Coordinates from ORCA-job 4-MeOPhN2+~Cl-_B3LYPG-6-31G_dp-CH-Scan-d09-49-n800
 OpenBabel11261919403D

 18 17  0  0  0  0  0  0  0  0999 V2000
   -1.4195   -0.3608   -0.0465 C   0  0  0  0  0  0  0  0  0  0  0  0
   -2.7836   -0.4955    0.0606 N   0  0  0  0  0  0  0  0  0  0  0  0
   -3.9023   -0.5408    0.1500 N   0  0  0  0  0  0  0  0  0  0  0  0
   -0.9853    0.9871   -0.0421 C   0  0  0  0  0  0  0  0  0  0  0  0
    0.4165    1.0389   -0.1551 C   0  0  0  0  0  0  0  0  0  0  0  0
    1.2417   -0.0922   -0.2553 C   0  0  0  0  0  0  0  0  0  0  0  0
    2.5710    0.1422   -0.3557 O   0  0  0  0  0  0  0  0  0  0  0  0
    3.4786   -0.9489   -0.4586 C   0  0  0  0  0  0  0  0  0  0  0  0
    0.6967   -1.4101   -0.2496 C   0  0  0  0  0  0  0  0  0  0  0  0
   -0.6646   -1.5614   -0.1434 C   0  0  0  0  0  0  0  0  0  0  0  0
   -3.0086    4.0063    0.2771 H   0  0  0  0  0  0  0  0  0  0  0  0
    0.9339    1.9987   -0.1688 H   0  0  0  0  0  0  0  0  0  0  0  0
    4.4721   -0.5038   -0.5220 H   0  0  0  0  0  0  0  0  0  0  0  0
    3.2933   -1.5450   -1.3604 H   0  0  0  0  0  0  0  0  0  0  0  0
    3.4308   -1.5984    0.4241 H   0  0  0  0  0  0  0  0  0  0  0  0
    1.3333   -2.2823   -0.3262 H   0  0  0  0  0  0  0  0  0  0  0  0
   -1.1279   -2.5451   -0.1349 H   0  0  0  0  0  0  0  0  0  0  0  0
   -3.8466    4.9744    0.4117 Cl  0  0  0  0  0  0  0  0  0  0  0  0
  1  4  1  0  0  0  0
  1  2  1  0  0  0  0
  2  3  1  0  0  0  0
  5  4  2  0  0  0  0
  6  9  2  0  0  0  0
  6  5  1  0  0  0  0
  7  6  1  0  0  0  0
  8  7  1  0  0  0  0
  8 15  1  0  0  0  0
  9 10  1  0  0  0  0
 10 17  1  0  0  0  0
 10  1  2  0  0  0  0
 11 18  1  0  0  0  0
 12  5  1  0  0  0  0
 13  8  1  0  0  0  0
 14  8  1  0  0  0  0
 16  9  1  0  0  0  0
M  RAD  3   2   2   3   3   4   2
M  END
