Coordinates from ORCA-job 4-MeOPhN2+~Cl-_B3LYPG-6-31G_dp-CH-Scan-d09-49-n800
 OpenBabel11261919403D

 18 17  0  0  0  0  0  0  0  0999 V2000
   -1.4710   -0.1822   -0.0277 C   0  0  0  0  0  0  0  0  0  0  0  0
   -2.8344   -0.2831    0.0835 N   0  0  0  0  0  0  0  0  0  0  0  0
   -3.9525   -0.3136    0.1764 N   0  0  0  0  0  0  0  0  0  0  0  0
   -0.9803    1.1476   -0.0208 C   0  0  0  0  0  0  0  0  0  0  0  0
    0.4173    1.1626   -0.1375 C   0  0  0  0  0  0  0  0  0  0  0  0
    1.2062    0.0051   -0.2444 C   0  0  0  0  0  0  0  0  0  0  0  0
    2.5391    0.1986   -0.3472 O   0  0  0  0  0  0  0  0  0  0  0  0
    3.4143   -0.9196   -0.4556 C   0  0  0  0  0  0  0  0  0  0  0  0
    0.6175   -1.2928   -0.2420 C   0  0  0  0  0  0  0  0  0  0  0  0
   -0.7478   -1.4010   -0.1322 C   0  0  0  0  0  0  0  0  0  0  0  0
   -2.5351    3.1282    0.1928 H   0  0  0  0  0  0  0  0  0  0  0  0
    0.9598    2.1074   -0.1485 H   0  0  0  0  0  0  0  0  0  0  0  0
    4.4200   -0.5032   -0.5184 H   0  0  0  0  0  0  0  0  0  0  0  0
    3.2095   -1.5052   -1.3598 H   0  0  0  0  0  0  0  0  0  0  0  0
    3.3470   -1.5698    0.4250 H   0  0  0  0  0  0  0  0  0  0  0  0
    1.2244   -2.1854   -0.3241 H   0  0  0  0  0  0  0  0  0  0  0  0
   -1.2407   -2.3699   -0.1263 H   0  0  0  0  0  0  0  0  0  0  0  0
   -3.4637    4.0398    0.3118 Cl  0  0  0  0  0  0  0  0  0  0  0  0
  1  4  1  0  0  0  0
  1  2  1  0  0  0  0
  2  3  1  0  0  0  0
  5  4  2  0  0  0  0
  6  9  2  0  0  0  0
  6  5  1  0  0  0  0
  7  6  1  0  0  0  0
  8  7  1  0  0  0  0
  8 15  1  0  0  0  0
  9 10  1  0  0  0  0
 10 17  1  0  0  0  0
 10  1  2  0  0  0  0
 11 18  1  0  0  0  0
 12  5  1  0  0  0  0
 13  8  1  0  0  0  0
 14  8  1  0  0  0  0
 16  9  1  0  0  0  0
M  RAD  3   2   2   3   3   4   2
M  END
