Coordinates from ORCA-job 4-MeOPhN2+~Cl-_B3LYPG-6-31G_dp-CH-Scan-d09-49-n800
 OpenBabel11261919403D

 18 17  0  0  0  0  0  0  0  0999 V2000
   -1.5357   -0.0346   -0.0161 C   0  0  0  0  0  0  0  0  0  0  0  0
   -2.9252   -0.1039    0.0976 N   0  0  0  0  0  0  0  0  0  0  0  0
   -3.9207    0.4717    0.2041 N   0  0  0  0  0  0  0  0  0  0  0  0
   -0.9090    1.2211   -0.0199 C   0  0  0  0  0  0  0  0  0  0  0  0
    0.4644    1.2719   -0.1322 C   0  0  0  0  0  0  0  0  0  0  0  0
    1.2103    0.0782   -0.2398 C   0  0  0  0  0  0  0  0  0  0  0  0
    2.5459    0.2380   -0.3436 O   0  0  0  0  0  0  0  0  0  0  0  0
    3.3805   -0.9121   -0.4528 C   0  0  0  0  0  0  0  0  0  0  0  0
    0.5646   -1.1758   -0.2344 C   0  0  0  0  0  0  0  0  0  0  0  0
   -0.8167   -1.2326   -0.1220 C   0  0  0  0  0  0  0  0  0  0  0  0
   -1.8025    2.3063    0.0981 H   0  0  0  0  0  0  0  0  0  0  0  0
    1.0010    2.2146   -0.1402 H   0  0  0  0  0  0  0  0  0  0  0  0
    4.4001   -0.5323   -0.5180 H   0  0  0  0  0  0  0  0  0  0  0  0
    3.1496   -1.4893   -1.3559 H   0  0  0  0  0  0  0  0  0  0  0  0
    3.2881   -1.5571    0.4290 H   0  0  0  0  0  0  0  0  0  0  0  0
    1.1312   -2.0946   -0.3164 H   0  0  0  0  0  0  0  0  0  0  0  0
   -1.3381   -2.1844   -0.1154 H   0  0  0  0  0  0  0  0  0  0  0  0
   -3.7585    2.7782    0.2829 Cl  0  0  0  0  0  0  0  0  0  0  0  0
  1  2  1  0  0  0  0
  2  3  2  0  0  0  0
  4  1  1  0  0  0  0
  4 11  1  0  0  0  0
  5  4  2  0  0  0  0
  6  9  2  0  0  0  0
  6  5  1  0  0  0  0
  7  6  1  0  0  0  0
  8  7  1  0  0  0  0
  8 15  1  0  0  0  0
  9 10  1  0  0  0  0
 10 17  1  0  0  0  0
 10  1  2  0  0  0  0
 12  5  1  0  0  0  0
 13  8  1  0  0  0  0
 14  8  1  0  0  0  0
 16  9  1  0  0  0  0
M  RAD  2   3   2  18   2
M  END
