Coordinates from ORCA-job 4-MeOPhN2+~Cl-_B3LYPG-6-31G_dp-CH-Scan-d09-49-n800
 OpenBabel11261919403D

 18 18  0  0  0  0  0  0  0  0999 V2000
   -1.5576    0.0122   -0.0154 C   0  0  0  0  0  0  0  0  0  0  0  0
   -2.9442   -0.1187    0.0953 N   0  0  0  0  0  0  0  0  0  0  0  0
   -3.9522    0.4616    0.2078 N   0  0  0  0  0  0  0  0  0  0  0  0
   -0.9037    1.2609   -0.0233 C   0  0  0  0  0  0  0  0  0  0  0  0
    0.4729    1.2879   -0.1363 C   0  0  0  0  0  0  0  0  0  0  0  0
    1.2118    0.0921   -0.2410 C   0  0  0  0  0  0  0  0  0  0  0  0
    2.5489    0.2439   -0.3443 O   0  0  0  0  0  0  0  0  0  0  0  0
    3.3720   -0.9147   -0.4494 C   0  0  0  0  0  0  0  0  0  0  0  0
    0.5513   -1.1495   -0.2331 C   0  0  0  0  0  0  0  0  0  0  0  0
   -0.8319   -1.1821   -0.1207 C   0  0  0  0  0  0  0  0  0  0  0  0
   -1.5187    2.2052    0.0634 H   0  0  0  0  0  0  0  0  0  0  0  0
    1.0134    2.2281   -0.1459 H   0  0  0  0  0  0  0  0  0  0  0  0
    4.3956   -0.5457   -0.5144 H   0  0  0  0  0  0  0  0  0  0  0  0
    3.1361   -1.4920   -1.3512 H   0  0  0  0  0  0  0  0  0  0  0  0
    3.2717   -1.5565    0.4339 H   0  0  0  0  0  0  0  0  0  0  0  0
    1.1024   -2.0780   -0.3131 H   0  0  0  0  0  0  0  0  0  0  0  0
   -1.3651   -2.1268   -0.1125 H   0  0  0  0  0  0  0  0  0  0  0  0
   -3.8733    2.6353    0.3052 Cl  0  0  0  0  0  0  0  0  0  0  0  0
  1  2  1  0  0  0  0
  2  3  2  0  0  0  0
  3 18  1  0  0  0  0
  4  1  1  0  0  0  0
  4 11  1  0  0  0  0
  5  4  2  0  0  0  0
  6  9  2  0  0  0  0
  6  5  1  0  0  0  0
  7  6  1  0  0  0  0
  8  7  1  0  0  0  0
  8 15  1  0  0  0  0
  9 10  1  0  0  0  0
 10 17  1  0  0  0  0
 10  1  2  0  0  0  0
 12  5  1  0  0  0  0
 13  8  1  0  0  0  0
 14  8  1  0  0  0  0
 16  9  1  0  0  0  0
M  END
