Coordinates from ORCA-job 4-MeOPhN2+~Cl-_B3LYPG-6-31G_dp-CH-Scan-d09-49-n800
 OpenBabel11261919403D

 18 17  0  0  0  0  0  0  0  0999 V2000
   -1.4548   -0.2298   -0.0327 C   0  0  0  0  0  0  0  0  0  0  0  0
   -2.8183   -0.3395    0.0775 N   0  0  0  0  0  0  0  0  0  0  0  0
   -3.9366   -0.3751    0.1696 N   0  0  0  0  0  0  0  0  0  0  0  0
   -0.9794    1.1054   -0.0262 C   0  0  0  0  0  0  0  0  0  0  0  0
    0.4199    1.1283   -0.1422 C   0  0  0  0  0  0  0  0  0  0  0  0
    1.2179   -0.0225   -0.2474 C   0  0  0  0  0  0  0  0  0  0  0  0
    2.5503    0.1811   -0.3497 O   0  0  0  0  0  0  0  0  0  0  0  0
    3.4334   -0.9306   -0.4568 C   0  0  0  0  0  0  0  0  0  0  0  0
    0.6403   -1.3258   -0.2443 C   0  0  0  0  0  0  0  0  0  0  0  0
   -0.7240   -1.4447   -0.1353 C   0  0  0  0  0  0  0  0  0  0  0  0
   -2.6847    3.3727    0.2172 H   0  0  0  0  0  0  0  0  0  0  0  0
    0.9569    2.0767   -0.1539 H   0  0  0  0  0  0  0  0  0  0  0  0
    4.4363   -0.5073   -0.5197 H   0  0  0  0  0  0  0  0  0  0  0  0
    3.2335   -1.5188   -1.3605 H   0  0  0  0  0  0  0  0  0  0  0  0
    3.3709   -1.5809    0.4241 H   0  0  0  0  0  0  0  0  0  0  0  0
    1.2548   -2.2133   -0.3251 H   0  0  0  0  0  0  0  0  0  0  0  0
   -1.2097   -2.4173   -0.1288 H   0  0  0  0  0  0  0  0  0  0  0  0
   -3.5773    4.3047    0.3390 Cl  0  0  0  0  0  0  0  0  0  0  0  0
  1  4  1  0  0  0  0
  1  2  1  0  0  0  0
  2  3  1  0  0  0  0
  5  4  2  0  0  0  0
  6  9  2  0  0  0  0
  6  5  1  0  0  0  0
  7  6  1  0  0  0  0
  8  7  1  0  0  0  0
  8 15  1  0  0  0  0
  9 10  1  0  0  0  0
 10 17  1  0  0  0  0
 10  1  2  0  0  0  0
 11 18  1  0  0  0  0
 12  5  1  0  0  0  0
 13  8  1  0  0  0  0
 14  8  1  0  0  0  0
 16  9  1  0  0  0  0
M  RAD  3   2   2   3   3   4   2
M  END
