Coordinates from ORCA-job 4-MeOPhN2+~Cl-_B3LYPG-6-31G_dp-CH-Scan-d09-49-n800
 OpenBabel11261919403D

 18 17  0  0  0  0  0  0  0  0999 V2000
   -1.4321   -0.3173   -0.0422 C   0  0  0  0  0  0  0  0  0  0  0  0
   -2.7961   -0.4441    0.0660 N   0  0  0  0  0  0  0  0  0  0  0  0
   -3.9147   -0.4867    0.1558 N   0  0  0  0  0  0  0  0  0  0  0  0
   -0.9849    1.0267   -0.0373 C   0  0  0  0  0  0  0  0  0  0  0  0
    0.4163    1.0695   -0.1513 C   0  0  0  0  0  0  0  0  0  0  0  0
    1.2330   -0.0680   -0.2528 C   0  0  0  0  0  0  0  0  0  0  0  0
    2.5634    0.1563   -0.3537 O   0  0  0  0  0  0  0  0  0  0  0  0
    3.4631   -0.9415   -0.4577 C   0  0  0  0  0  0  0  0  0  0  0  0
    0.6775   -1.3815   -0.2476 C   0  0  0  0  0  0  0  0  0  0  0  0
   -0.6848   -1.5226   -0.1406 C   0  0  0  0  0  0  0  0  0  0  0  0
   -2.9010    3.7870    0.2572 H   0  0  0  0  0  0  0  0  0  0  0  0
    0.9401    2.0257   -0.1646 H   0  0  0  0  0  0  0  0  0  0  0  0
    4.4597   -0.5035   -0.5209 H   0  0  0  0  0  0  0  0  0  0  0  0
    3.2732   -1.5353   -1.3601 H   0  0  0  0  0  0  0  0  0  0  0  0
    3.4105   -1.5912    0.4245 H   0  0  0  0  0  0  0  0  0  0  0  0
    1.3072   -2.2586   -0.3253 H   0  0  0  0  0  0  0  0  0  0  0  0
   -1.1551   -2.5030   -0.1326 H   0  0  0  0  0  0  0  0  0  0  0  0
   -3.7461    4.7514    0.3881 Cl  0  0  0  0  0  0  0  0  0  0  0  0
  1  4  1  0  0  0  0
  1  2  1  0  0  0  0
  2  3  1  0  0  0  0
  5  4  2  0  0  0  0
  6  9  2  0  0  0  0
  6  5  1  0  0  0  0
  7  6  1  0  0  0  0
  8  7  1  0  0  0  0
  8 15  1  0  0  0  0
  9 10  1  0  0  0  0
 10 17  1  0  0  0  0
 10  1  2  0  0  0  0
 11 18  1  0  0  0  0
 12  5  1  0  0  0  0
 13  8  1  0  0  0  0
 14  8  1  0  0  0  0
 16  9  1  0  0  0  0
M  RAD  3   2   2   3   3   4   2
M  END
