Coordinates from ORCA-job 4-MeOPhN2+~Cl-_B3LYPG-6-31G_dp-CH-Scan-d09-49-n800
 OpenBabel11261919403D

 18 17  0  0  0  0  0  0  0  0999 V2000
   -1.4058   -0.4606   -0.0558 C   0  0  0  0  0  0  0  0  0  0  0  0
   -2.7685   -0.6206    0.0481 N   0  0  0  0  0  0  0  0  0  0  0  0
   -3.8867   -0.6823    0.1348 N   0  0  0  0  0  0  0  0  0  0  0  0
   -1.0031    0.8964   -0.0525 C   0  0  0  0  0  0  0  0  0  0  0  0
    0.3983    0.9772   -0.1624 C   0  0  0  0  0  0  0  0  0  0  0  0
    1.2476   -0.1360   -0.2593 C   0  0  0  0  0  0  0  0  0  0  0  0
    2.5724    0.1263   -0.3582 O   0  0  0  0  0  0  0  0  0  0  0  0
    3.5024   -0.9457   -0.4588 C   0  0  0  0  0  0  0  0  0  0  0  0
    0.7311   -1.4656   -0.2522 C   0  0  0  0  0  0  0  0  0  0  0  0
   -0.6269   -1.6458   -0.1485 C   0  0  0  0  0  0  0  0  0  0  0  0
   -3.1612    4.4331    0.3116 H   0  0  0  0  0  0  0  0  0  0  0  0
    0.8960    1.9477   -0.1765 H   0  0  0  0  0  0  0  0  0  0  0  0
    4.4865   -0.4804   -0.5232 H   0  0  0  0  0  0  0  0  0  0  0  0
    3.3296   -1.5477   -1.3593 H   0  0  0  0  0  0  0  0  0  0  0  0
    3.4684   -1.5944    0.4252 H   0  0  0  0  0  0  0  0  0  0  0  0
    1.3865   -2.3240   -0.3259 H   0  0  0  0  0  0  0  0  0  0  0  0
   -1.0693   -2.6393   -0.1389 H   0  0  0  0  0  0  0  0  0  0  0  0
   -3.9677    5.4248    0.4565 Cl  0  0  0  0  0  0  0  0  0  0  0  0
  1  4  1  0  0  0  0
  1  2  1  0  0  0  0
  2  3  1  0  0  0  0
  5  4  2  0  0  0  0
  6  9  2  0  0  0  0
  6  5  1  0  0  0  0
  7  6  1  0  0  0  0
  8  7  1  0  0  0  0
  8 15  1  0  0  0  0
  9 10  1  0  0  0  0
 10 17  1  0  0  0  0
 10  1  2  0  0  0  0
 11 18  1  0  0  0  0
 12  5  1  0  0  0  0
 13  8  1  0  0  0  0
 14  8  1  0  0  0  0
 16  9  1  0  0  0  0
M  RAD  3   2   2   3   3   4   2
M  END
