Coordinates from ORCA-job 4-MeOPhN2+~Cl-_B3LYPG-6-31G_dp-CH-Scan-d09-49-n800
 OpenBabel11261919403D

 18 18  0  0  0  0  0  0  0  0999 V2000
   -1.5644    0.0188   -0.0151 C   0  0  0  0  0  0  0  0  0  0  0  0
   -2.9510   -0.1199    0.0955 N   0  0  0  0  0  0  0  0  0  0  0  0
   -3.9550    0.4711    0.2089 N   0  0  0  0  0  0  0  0  0  0  0  0
   -0.9125    1.2703   -0.0228 C   0  0  0  0  0  0  0  0  0  0  0  0
    0.4655    1.2917   -0.1363 C   0  0  0  0  0  0  0  0  0  0  0  0
    1.2059    0.0977   -0.2410 C   0  0  0  0  0  0  0  0  0  0  0  0
    2.5431    0.2508   -0.3441 O   0  0  0  0  0  0  0  0  0  0  0  0
    3.3665   -0.9075   -0.4481 C   0  0  0  0  0  0  0  0  0  0  0  0
    0.5456   -1.1434   -0.2329 C   0  0  0  0  0  0  0  0  0  0  0  0
   -0.8378   -1.1745   -0.1205 C   0  0  0  0  0  0  0  0  0  0  0  0
   -1.4445    2.1138    0.0535 H   0  0  0  0  0  0  0  0  0  0  0  0
    1.0053    2.2326   -0.1457 H   0  0  0  0  0  0  0  0  0  0  0  0
    4.3901   -0.5382   -0.5130 H   0  0  0  0  0  0  0  0  0  0  0  0
    3.1312   -1.4856   -1.3496 H   0  0  0  0  0  0  0  0  0  0  0  0
    3.2661   -1.5488    0.4356 H   0  0  0  0  0  0  0  0  0  0  0  0
    1.0962   -2.0723   -0.3127 H   0  0  0  0  0  0  0  0  0  0  0  0
   -1.3715   -2.1188   -0.1120 H   0  0  0  0  0  0  0  0  0  0  0  0
   -3.8494    2.6255    0.3051 Cl  0  0  0  0  0  0  0  0  0  0  0  0
  1  2  1  0  0  0  0
  2  3  2  0  0  0  0
  3 18  1  0  0  0  0
  4  1  1  0  0  0  0
  4 11  1  0  0  0  0
  5  4  2  0  0  0  0
  6  9  2  0  0  0  0
  6  5  1  0  0  0  0
  7  6  1  0  0  0  0
  8  7  1  0  0  0  0
  8 15  1  0  0  0  0
  9 10  1  0  0  0  0
 10 17  1  0  0  0  0
 10  1  2  0  0  0  0
 12  5  1  0  0  0  0
 13  8  1  0  0  0  0
 14  8  1  0  0  0  0
 16  9  1  0  0  0  0
M  END
