Coordinates from ORCA-job 4-MeOPhN2+~Cl-_B3LYPG-6-31G_dp-CH-Scan-d09-49-n800
 OpenBabel11261919403D

 18 17  0  0  0  0  0  0  0  0999 V2000
   -1.4365   -0.2983   -0.0411 C   0  0  0  0  0  0  0  0  0  0  0  0
   -2.8004   -0.4213    0.0674 N   0  0  0  0  0  0  0  0  0  0  0  0
   -3.9189   -0.4623    0.1578 N   0  0  0  0  0  0  0  0  0  0  0  0
   -0.9835    1.0441   -0.0369 C   0  0  0  0  0  0  0  0  0  0  0  0
    0.4174    1.0818   -0.1511 C   0  0  0  0  0  0  0  0  0  0  0  0
    1.2300   -0.0586   -0.2523 C   0  0  0  0  0  0  0  0  0  0  0  0
    2.5609    0.1613   -0.3534 O   0  0  0  0  0  0  0  0  0  0  0  0
    3.4571   -0.9396   -0.4570 C   0  0  0  0  0  0  0  0  0  0  0  0
    0.6699   -1.3699   -0.2466 C   0  0  0  0  0  0  0  0  0  0  0  0
   -0.6929   -1.5059   -0.1393 C   0  0  0  0  0  0  0  0  0  0  0  0
   -2.8568    3.7003    0.2499 H   0  0  0  0  0  0  0  0  0  0  0  0
    0.9443    2.0362   -0.1648 H   0  0  0  0  0  0  0  0  0  0  0  0
    4.4551   -0.5047   -0.5203 H   0  0  0  0  0  0  0  0  0  0  0  0
    3.2652   -1.5329   -1.3592 H   0  0  0  0  0  0  0  0  0  0  0  0
    3.4023   -1.5887    0.4254 H   0  0  0  0  0  0  0  0  0  0  0  0
    1.2963   -2.2494   -0.3241 H   0  0  0  0  0  0  0  0  0  0  0  0
   -1.1668   -2.4846   -0.1308 H   0  0  0  0  0  0  0  0  0  0  0  0
   -3.7133    4.6557    0.3812 Cl  0  0  0  0  0  0  0  0  0  0  0  0
  1  4  1  0  0  0  0
  1  2  1  0  0  0  0
  2  3  1  0  0  0  0
  5  4  2  0  0  0  0
  6  9  2  0  0  0  0
  6  5  1  0  0  0  0
  7  6  1  0  0  0  0
  8  7  1  0  0  0  0
  8 15  1  0  0  0  0
  9 10  1  0  0  0  0
 10 17  1  0  0  0  0
 10  1  2  0  0  0  0
 11 18  1  0  0  0  0
 12  5  1  0  0  0  0
 13  8  1  0  0  0  0
 14  8  1  0  0  0  0
 16  9  1  0  0  0  0
M  RAD  3   2   2   3   3   4   2
M  END
