Coordinates from ORCA-job 4-MeOPhN2+~Cl-_B3LYPG-6-31G_dp-CH-Scan-d09-49-n800
 OpenBabel11261919403D

 18 17  0  0  0  0  0  0  0  0999 V2000
   -1.5010   -0.1151   -0.0200 C   0  0  0  0  0  0  0  0  0  0  0  0
   -2.8650   -0.2013    0.0926 N   0  0  0  0  0  0  0  0  0  0  0  0
   -3.9823   -0.2156    0.1868 N   0  0  0  0  0  0  0  0  0  0  0  0
   -0.9864    1.2048   -0.0126 C   0  0  0  0  0  0  0  0  0  0  0  0
    0.4070    1.2149   -0.1298 C   0  0  0  0  0  0  0  0  0  0  0  0
    1.1841    0.0482   -0.2392 C   0  0  0  0  0  0  0  0  0  0  0  0
    2.5165    0.2295   -0.3426 O   0  0  0  0  0  0  0  0  0  0  0  0
    3.3826   -0.8968   -0.4534 C   0  0  0  0  0  0  0  0  0  0  0  0
    0.5806   -1.2417   -0.2381 C   0  0  0  0  0  0  0  0  0  0  0  0
   -0.7863   -1.3370   -0.1271 C   0  0  0  0  0  0  0  0  0  0  0  0
   -2.2675    2.7336    0.1520 H   0  0  0  0  0  0  0  0  0  0  0  0
    0.9533    2.1567   -0.1393 H   0  0  0  0  0  0  0  0  0  0  0  0
    4.3914   -0.4884   -0.5161 H   0  0  0  0  0  0  0  0  0  0  0  0
    3.1714   -1.4782   -1.3587 H   0  0  0  0  0  0  0  0  0  0  0  0
    3.3093   -1.5469    0.4265 H   0  0  0  0  0  0  0  0  0  0  0  0
    1.1775   -2.1408   -0.3220 H   0  0  0  0  0  0  0  0  0  0  0  0
   -1.2879   -2.3009   -0.1222 H   0  0  0  0  0  0  0  0  0  0  0  0
   -3.2680    3.6385    0.2680 Cl  0  0  0  0  0  0  0  0  0  0  0  0
  1  4  1  0  0  0  0
  1  2  1  0  0  0  0
  2  3  1  0  0  0  0
  5  4  2  0  0  0  0
  6  9  2  0  0  0  0
  6  5  1  0  0  0  0
  7  6  1  0  0  0  0
  8  7  1  0  0  0  0
  8 15  1  0  0  0  0
  9 10  1  0  0  0  0
 10 17  1  0  0  0  0
 10  1  2  0  0  0  0
 11 18  1  0  0  0  0
 12  5  1  0  0  0  0
 13  8  1  0  0  0  0
 14  8  1  0  0  0  0
 16  9  1  0  0  0  0
M  RAD  3   2   2   3   3   4   2
M  END
