Coordinates from ORCA-job 4-MeOPhN2+~Cl-_B3LYPG-6-31G_dp-CH-Scan-d09-49-n800
 OpenBabel11261919403D

 18 17  0  0  0  0  0  0  0  0999 V2000
   -1.4416   -0.2567   -0.0376 C   0  0  0  0  0  0  0  0  0  0  0  0
   -2.8058   -0.3689    0.0712 N   0  0  0  0  0  0  0  0  0  0  0  0
   -3.9244   -0.4034    0.1622 N   0  0  0  0  0  0  0  0  0  0  0  0
   -0.9739    1.0809   -0.0339 C   0  0  0  0  0  0  0  0  0  0  0  0
    0.4263    1.1071   -0.1489 C   0  0  0  0  0  0  0  0  0  0  0  0
    1.2284   -0.0409   -0.2509 C   0  0  0  0  0  0  0  0  0  0  0  0
    2.5607    0.1670   -0.3531 O   0  0  0  0  0  0  0  0  0  0  0  0
    3.4473   -0.9419   -0.4571 C   0  0  0  0  0  0  0  0  0  0  0  0
    0.6559   -1.3467   -0.2449 C   0  0  0  0  0  0  0  0  0  0  0  0
   -0.7080   -1.4703   -0.1365 C   0  0  0  0  0  0  0  0  0  0  0  0
   -2.7886    3.5332    0.2367 H   0  0  0  0  0  0  0  0  0  0  0  0
    0.9610    2.0570   -0.1626 H   0  0  0  0  0  0  0  0  0  0  0  0
    4.4489   -0.5158   -0.5207 H   0  0  0  0  0  0  0  0  0  0  0  0
    3.2497   -1.5332   -1.3593 H   0  0  0  0  0  0  0  0  0  0  0  0
    3.3867   -1.5905    0.4253 H   0  0  0  0  0  0  0  0  0  0  0  0
    1.2740   -2.2320   -0.3228 H   0  0  0  0  0  0  0  0  0  0  0  0
   -1.1905   -2.4446   -0.1275 H   0  0  0  0  0  0  0  0  0  0  0  0
   -3.6768    4.4629    0.3651 Cl  0  0  0  0  0  0  0  0  0  0  0  0
  1  4  1  0  0  0  0
  1  2  1  0  0  0  0
  2  3  1  0  0  0  0
  5  4  2  0  0  0  0
  6  9  2  0  0  0  0
  6  5  1  0  0  0  0
  7  6  1  0  0  0  0
  8  7  1  0  0  0  0
  8 15  1  0  0  0  0
  9 10  1  0  0  0  0
 10 17  1  0  0  0  0
 10  1  2  0  0  0  0
 11 18  1  0  0  0  0
 12  5  1  0  0  0  0
 13  8  1  0  0  0  0
 14  8  1  0  0  0  0
 16  9  1  0  0  0  0
M  RAD  3   2   2   3   3   4   2
M  END
