Coordinates from ORCA-job 4-MeOPhN2+~Cl-_B3LYPG-6-31G_dp-CH-Scan-d09-49-n800
 OpenBabel11261919403D

 18 17  0  0  0  0  0  0  0  0999 V2000
   -1.5245   -0.0650   -0.0162 C   0  0  0  0  0  0  0  0  0  0  0  0
   -2.8913   -0.1188    0.0971 N   0  0  0  0  0  0  0  0  0  0  0  0
   -4.0046   -0.0540    0.1935 N   0  0  0  0  0  0  0  0  0  0  0  0
   -0.9752    1.2377   -0.0121 C   0  0  0  0  0  0  0  0  0  0  0  0
    0.4096    1.2574   -0.1272 C   0  0  0  0  0  0  0  0  0  0  0  0
    1.1746    0.0799   -0.2360 C   0  0  0  0  0  0  0  0  0  0  0  0
    2.5051    0.2499   -0.3394 O   0  0  0  0  0  0  0  0  0  0  0  0
    3.3631   -0.8844   -0.4521 C   0  0  0  0  0  0  0  0  0  0  0  0
    0.5548   -1.2001   -0.2335 C   0  0  0  0  0  0  0  0  0  0  0  0
   -0.8150   -1.2842   -0.1223 C   0  0  0  0  0  0  0  0  0  0  0  0
   -2.0083    2.3872    0.1159 H   0  0  0  0  0  0  0  0  0  0  0  0
    0.9520    2.1999   -0.1357 H   0  0  0  0  0  0  0  0  0  0  0  0
    4.3742   -0.4828   -0.5166 H   0  0  0  0  0  0  0  0  0  0  0  0
    3.1441   -1.4624   -1.3573 H   0  0  0  0  0  0  0  0  0  0  0  0
    3.2850   -1.5324    0.4285 H   0  0  0  0  0  0  0  0  0  0  0  0
    1.1415   -2.1058   -0.3165 H   0  0  0  0  0  0  0  0  0  0  0  0
   -1.3236   -2.2437   -0.1164 H   0  0  0  0  0  0  0  0  0  0  0  0
   -3.2320    3.2848    0.2509 Cl  0  0  0  0  0  0  0  0  0  0  0  0
  1  4  1  0  0  0  0
  1  2  1  0  0  0  0
  2  3  1  0  0  0  0
  5  4  2  0  0  0  0
  6  9  2  0  0  0  0
  6  5  1  0  0  0  0
  7  6  1  0  0  0  0
  8  7  1  0  0  0  0
  8 15  1  0  0  0  0
  9 10  1  0  0  0  0
 10 17  1  0  0  0  0
 10  1  2  0  0  0  0
 11 18  1  0  0  0  0
 12  5  1  0  0  0  0
 13  8  1  0  0  0  0
 14  8  1  0  0  0  0
 16  9  1  0  0  0  0
M  RAD  3   2   2   3   3   4   2
M  END
