Coordinates from ORCA-job 4-MeOPhN2+~Cl-_B3LYPG-6-31G_dp-CH-Scan-d09-49-n800
 OpenBabel11261919403D

 18 17  0  0  0  0  0  0  0  0999 V2000
   -1.5170   -0.0721   -0.0188 C   0  0  0  0  0  0  0  0  0  0  0  0
   -2.9058   -0.0897    0.0977 N   0  0  0  0  0  0  0  0  0  0  0  0
   -3.9197    0.4103    0.2030 N   0  0  0  0  0  0  0  0  0  0  0  0
   -0.9462    1.2104   -0.0169 C   0  0  0  0  0  0  0  0  0  0  0  0
    0.4330    1.2557   -0.1300 C   0  0  0  0  0  0  0  0  0  0  0  0
    1.1927    0.0718   -0.2386 C   0  0  0  0  0  0  0  0  0  0  0  0
    2.5264    0.2438   -0.3416 O   0  0  0  0  0  0  0  0  0  0  0  0
    3.3775   -0.8940   -0.4519 C   0  0  0  0  0  0  0  0  0  0  0  0
    0.5680   -1.1990   -0.2360 C   0  0  0  0  0  0  0  0  0  0  0  0
   -0.8088   -1.2788   -0.1246 C   0  0  0  0  0  0  0  0  0  0  0  0
   -1.9954    2.2965    0.1136 H   0  0  0  0  0  0  0  0  0  0  0  0
    0.9709    2.1995   -0.1379 H   0  0  0  0  0  0  0  0  0  0  0  0
    4.3915   -0.4992   -0.5149 H   0  0  0  0  0  0  0  0  0  0  0  0
    3.1569   -1.4726   -1.3566 H   0  0  0  0  0  0  0  0  0  0  0  0
    3.2941   -1.5421    0.4285 H   0  0  0  0  0  0  0  0  0  0  0  0
    1.1514   -2.1070   -0.3192 H   0  0  0  0  0  0  0  0  0  0  0  0
   -1.3201   -2.2365   -0.1191 H   0  0  0  0  0  0  0  0  0  0  0  0
   -3.5198    2.9663    0.2682 Cl  0  0  0  0  0  0  0  0  0  0  0  0
  1  4  1  0  0  0  0
  1  2  1  0  0  0  0
  2  3  2  0  0  0  0
  4 11  1  0  0  0  0
  5  4  2  0  0  0  0
  6  9  2  0  0  0  0
  6  5  1  0  0  0  0
  7  6  1  0  0  0  0
  8  7  1  0  0  0  0
  8 15  1  0  0  0  0
  9 10  1  0  0  0  0
 10 17  1  0  0  0  0
 10  1  2  0  0  0  0
 12  5  1  0  0  0  0
 13  8  1  0  0  0  0
 14  8  1  0  0  0  0
 16  9  1  0  0  0  0
M  RAD  2   3   2  18   2
M  END
