Coordinates from ORCA-job 4-MeOPhN2+~Cl-_B3LYPG-6-31G_dp-CH-Scan-d09-49-n800
 OpenBabel11261919403D

 18 17  0  0  0  0  0  0  0  0999 V2000
   -1.4053   -0.5686   -0.0665 C   0  0  0  0  0  0  0  0  0  0  0  0
   -2.7642   -0.7641    0.0338 N   0  0  0  0  0  0  0  0  0  0  0  0
   -3.8810   -0.8529    0.1173 N   0  0  0  0  0  0  0  0  0  0  0  0
   -1.0416    0.7987   -0.0670 C   0  0  0  0  0  0  0  0  0  0  0  0
    0.3577    0.9186   -0.1733 C   0  0  0  0  0  0  0  0  0  0  0  0
    1.2379   -0.1707   -0.2637 C   0  0  0  0  0  0  0  0  0  0  0  0
    2.5555    0.1278   -0.3604 O   0  0  0  0  0  0  0  0  0  0  0  0
    3.5147   -0.9185   -0.4553 C   0  0  0  0  0  0  0  0  0  0  0  0
    0.7588   -1.5143   -0.2527 C   0  0  0  0  0  0  0  0  0  0  0  0
   -0.5941   -1.7323   -0.1522 C   0  0  0  0  0  0  0  0  0  0  0  0
   -3.2352    4.8036    0.3429 H   0  0  0  0  0  0  0  0  0  0  0  0
    0.8283    1.9027   -0.1896 H   0  0  0  0  0  0  0  0  0  0  0  0
    4.4856   -0.4266   -0.5218 H   0  0  0  0  0  0  0  0  0  0  0  0
    3.3590   -1.5296   -1.3527 H   0  0  0  0  0  0  0  0  0  0  0  0
    3.4985   -1.5635    0.4320 H   0  0  0  0  0  0  0  0  0  0  0  0
    1.4380   -2.3543   -0.3212 H   0  0  0  0  0  0  0  0  0  0  0  0
   -1.0085   -2.7377   -0.1399 H   0  0  0  0  0  0  0  0  0  0  0  0
   -3.9748    5.8449    0.4952 Cl  0  0  0  0  0  0  0  0  0  0  0  0
  1  2  1  0  0  0  0
  2  3  1  0  0  0  0
  4  1  1  0  0  0  0
  5  4  2  0  0  0  0
  6  9  2  0  0  0  0
  6  5  1  0  0  0  0
  7  6  1  0  0  0  0
  8  7  1  0  0  0  0
  8 15  1  0  0  0  0
  9 10  1  0  0  0  0
 10 17  1  0  0  0  0
 10  1  2  0  0  0  0
 11 18  1  0  0  0  0
 12  5  1  0  0  0  0
 13  8  1  0  0  0  0
 14  8  1  0  0  0  0
 16  9  1  0  0  0  0
M  RAD  3   2   2   3   3   4   2
M  END
