Coordinates from ORCA-job 4-MeOPhN2+~Cl-_B3LYPG-6-31G_dp-CH-Scan-d09-49-n800
 OpenBabel11261919403D

 18 17  0  0  0  0  0  0  0  0999 V2000
   -1.4192   -0.3627   -0.0467 C   0  0  0  0  0  0  0  0  0  0  0  0
   -2.7833   -0.4977    0.0604 N   0  0  0  0  0  0  0  0  0  0  0  0
   -3.9019   -0.5433    0.1498 N   0  0  0  0  0  0  0  0  0  0  0  0
   -0.9855    0.9855   -0.0423 C   0  0  0  0  0  0  0  0  0  0  0  0
    0.4162    1.0377   -0.1553 C   0  0  0  0  0  0  0  0  0  0  0  0
    1.2419   -0.0930   -0.2554 C   0  0  0  0  0  0  0  0  0  0  0  0
    2.5711    0.1419   -0.3558 O   0  0  0  0  0  0  0  0  0  0  0  0
    3.4791   -0.9489   -0.4586 C   0  0  0  0  0  0  0  0  0  0  0  0
    0.6974   -1.4112   -0.2497 C   0  0  0  0  0  0  0  0  0  0  0  0
   -0.6639   -1.5630   -0.1435 C   0  0  0  0  0  0  0  0  0  0  0  0
   -3.0119    4.0146    0.2778 H   0  0  0  0  0  0  0  0  0  0  0  0
    0.9334    1.9978   -0.1689 H   0  0  0  0  0  0  0  0  0  0  0  0
    4.4724   -0.5035   -0.5220 H   0  0  0  0  0  0  0  0  0  0  0  0
    3.2940   -1.5452   -1.3604 H   0  0  0  0  0  0  0  0  0  0  0  0
    3.4315   -1.5984    0.4241 H   0  0  0  0  0  0  0  0  0  0  0  0
    1.3343   -2.2832   -0.3262 H   0  0  0  0  0  0  0  0  0  0  0  0
   -1.1268   -2.5469   -0.1350 H   0  0  0  0  0  0  0  0  0  0  0  0
   -3.8494    4.9830    0.4127 Cl  0  0  0  0  0  0  0  0  0  0  0  0
  1  4  1  0  0  0  0
  1  2  1  0  0  0  0
  2  3  1  0  0  0  0
  5  4  2  0  0  0  0
  6  9  2  0  0  0  0
  6  5  1  0  0  0  0
  7  6  1  0  0  0  0
  8  7  1  0  0  0  0
  8 15  1  0  0  0  0
  9 10  1  0  0  0  0
 10 17  1  0  0  0  0
 10  1  2  0  0  0  0
 11 18  1  0  0  0  0
 12  5  1  0  0  0  0
 13  8  1  0  0  0  0
 14  8  1  0  0  0  0
 16  9  1  0  0  0  0
M  RAD  3   2   2   3   3   4   2
M  END
