Coordinates from ORCA-job 4-MeOPhN2+~Cl-_B3LYPG-6-31G_dp-CH-Scan-d09-49-n800
 OpenBabel11261919403D

 18 17  0  0  0  0  0  0  0  0999 V2000
   -1.5568    0.0112   -0.0153 C   0  0  0  0  0  0  0  0  0  0  0  0
   -2.9434   -0.1184    0.0954 N   0  0  0  0  0  0  0  0  0  0  0  0
   -3.9516    0.4609    0.2076 N   0  0  0  0  0  0  0  0  0  0  0  0
   -0.9028    1.2595   -0.0231 C   0  0  0  0  0  0  0  0  0  0  0  0
    0.4736    1.2874   -0.1361 C   0  0  0  0  0  0  0  0  0  0  0  0
    1.2124    0.0914   -0.2410 C   0  0  0  0  0  0  0  0  0  0  0  0
    2.5495    0.2431   -0.3442 O   0  0  0  0  0  0  0  0  0  0  0  0
    3.3726   -0.9154   -0.4497 C   0  0  0  0  0  0  0  0  0  0  0  0
    0.5519   -1.1503   -0.2331 C   0  0  0  0  0  0  0  0  0  0  0  0
   -0.8312   -1.1832   -0.1207 C   0  0  0  0  0  0  0  0  0  0  0  0
   -1.5282    2.2150    0.0649 H   0  0  0  0  0  0  0  0  0  0  0  0
    1.0140    2.2276   -0.1456 H   0  0  0  0  0  0  0  0  0  0  0  0
    4.3962   -0.5463   -0.5147 H   0  0  0  0  0  0  0  0  0  0  0  0
    3.1366   -1.4925   -1.3516 H   0  0  0  0  0  0  0  0  0  0  0  0
    3.2724   -1.5574    0.4335 H   0  0  0  0  0  0  0  0  0  0  0  0
    1.1033   -2.0787   -0.3132 H   0  0  0  0  0  0  0  0  0  0  0  0
   -1.3642   -2.1281   -0.1125 H   0  0  0  0  0  0  0  0  0  0  0  0
   -3.8749    2.6374    0.3041 Cl  0  0  0  0  0  0  0  0  0  0  0  0
  1  2  1  0  0  0  0
  2  3  2  0  0  0  0
  4  1  1  0  0  0  0
  4 11  1  0  0  0  0
  5  4  2  0  0  0  0
  6  9  2  0  0  0  0
  6  5  1  0  0  0  0
  7  6  1  0  0  0  0
  8  7  1  0  0  0  0
  8 15  1  0  0  0  0
  9 10  1  0  0  0  0
 10 17  1  0  0  0  0
 10  1  2  0  0  0  0
 12  5  1  0  0  0  0
 13  8  1  0  0  0  0
 14  8  1  0  0  0  0
 16  9  1  0  0  0  0
M  RAD  2   3   2  18   2
M  END
