Coordinates from ORCA-job 4-MeOPhN2+~Cl-_B3LYPG-6-31G_dp-CH-Scan-d09-49-n800
 OpenBabel11261919403D

 18 17  0  0  0  0  0  0  0  0999 V2000
   -1.4616   -0.2121   -0.0307 C   0  0  0  0  0  0  0  0  0  0  0  0
   -2.8250   -0.3191    0.0798 N   0  0  0  0  0  0  0  0  0  0  0  0
   -3.9432   -0.3536    0.1722 N   0  0  0  0  0  0  0  0  0  0  0  0
   -0.9807    1.1212   -0.0240 C   0  0  0  0  0  0  0  0  0  0  0  0
    0.4180    1.1414   -0.1402 C   0  0  0  0  0  0  0  0  0  0  0  0
    1.2128   -0.0117   -0.2462 C   0  0  0  0  0  0  0  0  0  0  0  0
    2.5453    0.1884   -0.3486 O   0  0  0  0  0  0  0  0  0  0  0  0
    3.4258   -0.9256   -0.4563 C   0  0  0  0  0  0  0  0  0  0  0  0
    0.6313   -1.3132   -0.2434 C   0  0  0  0  0  0  0  0  0  0  0  0
   -0.7333   -1.4284   -0.1341 C   0  0  0  0  0  0  0  0  0  0  0  0
   -2.6254    3.2781    0.2075 H   0  0  0  0  0  0  0  0  0  0  0  0
    0.9568    2.0885   -0.1517 H   0  0  0  0  0  0  0  0  0  0  0  0
    4.4296   -0.5046   -0.5191 H   0  0  0  0  0  0  0  0  0  0  0  0
    3.2241   -1.5127   -1.3603 H   0  0  0  0  0  0  0  0  0  0  0  0
    3.3616   -1.5759    0.4244 H   0  0  0  0  0  0  0  0  0  0  0  0
    1.2432   -2.2025   -0.3247 H   0  0  0  0  0  0  0  0  0  0  0  0
   -1.2215   -2.3997   -0.1279 H   0  0  0  0  0  0  0  0  0  0  0  0
   -3.5284    4.2048    0.3281 Cl  0  0  0  0  0  0  0  0  0  0  0  0
  1  4  1  0  0  0  0
  1  2  1  0  0  0  0
  2  3  1  0  0  0  0
  5  4  2  0  0  0  0
  6  9  2  0  0  0  0
  6  5  1  0  0  0  0
  7  6  1  0  0  0  0
  8  7  1  0  0  0  0
  8 15  1  0  0  0  0
  9 10  1  0  0  0  0
 10 17  1  0  0  0  0
 10  1  2  0  0  0  0
 11 18  1  0  0  0  0
 12  5  1  0  0  0  0
 13  8  1  0  0  0  0
 14  8  1  0  0  0  0
 16  9  1  0  0  0  0
M  RAD  3   2   2   3   3   4   2
M  END
