Coordinates from ORCA-job 4-MeOPhN2+~Cl-_B3LYPG-6-31G_dp-CH-Scan-d09-49-n800
 OpenBabel11261919403D

 18 17  0  0  0  0  0  0  0  0999 V2000
   -1.4372   -0.2919   -0.0408 C   0  0  0  0  0  0  0  0  0  0  0  0
   -2.8012   -0.4130    0.0677 N   0  0  0  0  0  0  0  0  0  0  0  0
   -3.9198   -0.4525    0.1580 N   0  0  0  0  0  0  0  0  0  0  0  0
   -0.9819    1.0497   -0.0370 C   0  0  0  0  0  0  0  0  0  0  0  0
    0.4189    1.0858   -0.1514 C   0  0  0  0  0  0  0  0  0  0  0  0
    1.2299   -0.0559   -0.2522 C   0  0  0  0  0  0  0  0  0  0  0  0
    2.5611    0.1620   -0.3535 O   0  0  0  0  0  0  0  0  0  0  0  0
    3.4558   -0.9401   -0.4569 C   0  0  0  0  0  0  0  0  0  0  0  0
    0.6678   -1.3663   -0.2462 C   0  0  0  0  0  0  0  0  0  0  0  0
   -0.6952   -1.5005   -0.1387 C   0  0  0  0  0  0  0  0  0  0  0  0
   -2.8469    3.6750    0.2483 H   0  0  0  0  0  0  0  0  0  0  0  0
    0.9471    2.0394   -0.1654 H   0  0  0  0  0  0  0  0  0  0  0  0
    4.4543   -0.5067   -0.5203 H   0  0  0  0  0  0  0  0  0  0  0  0
    3.2630   -1.5334   -1.3589 H   0  0  0  0  0  0  0  0  0  0  0  0
    3.4000   -1.5889    0.4257 H   0  0  0  0  0  0  0  0  0  0  0  0
    1.2929   -2.2467   -0.3235 H   0  0  0  0  0  0  0  0  0  0  0  0
   -1.1703   -2.4785   -0.1300 H   0  0  0  0  0  0  0  0  0  0  0  0
   -3.7089    4.6258    0.3799 Cl  0  0  0  0  0  0  0  0  0  0  0  0
  1  4  1  0  0  0  0
  1  2  1  0  0  0  0
  2  3  1  0  0  0  0
  5  4  2  0  0  0  0
  6  9  2  0  0  0  0
  6  5  1  0  0  0  0
  7  6  1  0  0  0  0
  8  7  1  0  0  0  0
  8 15  1  0  0  0  0
  9 10  1  0  0  0  0
 10 17  1  0  0  0  0
 10  1  2  0  0  0  0
 11 18  1  0  0  0  0
 12  5  1  0  0  0  0
 13  8  1  0  0  0  0
 14  8  1  0  0  0  0
 16  9  1  0  0  0  0
M  RAD  3   2   2   3   3   4   2
M  END
