Coordinates from ORCA-job 4-MeOPhN2+~Cl-_B3LYPG-6-31G_dp-CH-Scan-d09-49-n800
 OpenBabel11261919403D

 18 17  0  0  0  0  0  0  0  0999 V2000
   -1.4136   -0.6623   -0.0877 C   0  0  0  0  0  0  0  0  0  0  0  0
   -2.7672   -0.8947    0.0066 N   0  0  0  0  0  0  0  0  0  0  0  0
   -3.8816   -1.0139    0.0838 N   0  0  0  0  0  0  0  0  0  0  0  0
   -1.0892    0.7145   -0.1102 C   0  0  0  0  0  0  0  0  0  0  0  0
    0.3070    0.8721   -0.2097 C   0  0  0  0  0  0  0  0  0  0  0  0
    1.2184   -0.1931   -0.2757 C   0  0  0  0  0  0  0  0  0  0  0  0
    2.5276    0.1412   -0.3708 O   0  0  0  0  0  0  0  0  0  0  0  0
    3.5164   -0.8789   -0.4435 C   0  0  0  0  0  0  0  0  0  0  0  0
    0.7776   -1.5494   -0.2432 C   0  0  0  0  0  0  0  0  0  0  0  0
   -0.5693   -1.8039   -0.1472 C   0  0  0  0  0  0  0  0  0  0  0  0
   -3.2390    5.0729    0.3851 H   0  0  0  0  0  0  0  0  0  0  0  0
    0.7499    1.8686   -0.2408 H   0  0  0  0  0  0  0  0  0  0  0  0
    4.4731   -0.3608   -0.5174 H   0  0  0  0  0  0  0  0  0  0  0  0
    3.3806   -1.5113   -1.3293 H   0  0  0  0  0  0  0  0  0  0  0  0
    3.5166   -1.5068    0.4562 H   0  0  0  0  0  0  0  0  0  0  0  0
    1.4807   -2.3710   -0.2923 H   0  0  0  0  0  0  0  0  0  0  0  0
   -0.9551   -2.8204   -0.1189 H   0  0  0  0  0  0  0  0  0  0  0  0
   -3.9034    6.1603    0.5600 Cl  0  0  0  0  0  0  0  0  0  0  0  0
  1  2  1  0  0  0  0
  2  3  1  0  0  0  0
  4  1  1  0  0  0  0
  5  4  2  0  0  0  0
  6  9  2  0  0  0  0
  6  5  1  0  0  0  0
  7  6  1  0  0  0  0
  8  7  1  0  0  0  0
  8 15  1  0  0  0  0
  9 10  1  0  0  0  0
 10 17  1  0  0  0  0
 10  1  2  0  0  0  0
 11 18  1  0  0  0  0
 12  5  1  0  0  0  0
 13  8  1  0  0  0  0
 14  8  1  0  0  0  0
 16  9  1  0  0  0  0
M  RAD  3   2   2   3   3   4   2
M  END
