Coordinates from ORCA-job 4-MeOPhN2+~Cl-_B3LYPG-6-31G_dp-CH-Scan-d09-49-n800
 OpenBabel11261919403D

 18 17  0  0  0  0  0  0  0  0999 V2000
   -1.4120   -0.6506   -0.0860 C   0  0  0  0  0  0  0  0  0  0  0  0
   -2.7664   -0.8781    0.0090 N   0  0  0  0  0  0  0  0  0  0  0  0
   -3.8811   -0.9933    0.0867 N   0  0  0  0  0  0  0  0  0  0  0  0
   -1.0824    0.7250   -0.1073 C   0  0  0  0  0  0  0  0  0  0  0  0
    0.3143    0.8775   -0.2076 C   0  0  0  0  0  0  0  0  0  0  0  0
    1.2217   -0.1910   -0.2751 C   0  0  0  0  0  0  0  0  0  0  0  0
    2.5320    0.1384   -0.3705 O   0  0  0  0  0  0  0  0  0  0  0  0
    3.5170   -0.8852   -0.4446 C   0  0  0  0  0  0  0  0  0  0  0  0
    0.7758   -1.5457   -0.2437 C   0  0  0  0  0  0  0  0  0  0  0  0
   -0.5719   -1.7953   -0.1471 C   0  0  0  0  0  0  0  0  0  0  0  0
   -3.2445    5.0442    0.3822 H   0  0  0  0  0  0  0  0  0  0  0  0
    0.7609    1.8724   -0.2380 H   0  0  0  0  0  0  0  0  0  0  0  0
    4.4757   -0.3707   -0.5181 H   0  0  0  0  0  0  0  0  0  0  0  0
    3.3787   -1.5161   -1.3311 H   0  0  0  0  0  0  0  0  0  0  0  0
    3.5150   -1.5142    0.4543 H   0  0  0  0  0  0  0  0  0  0  0  0
    1.4758   -2.3699   -0.2941 H   0  0  0  0  0  0  0  0  0  0  0  0
   -0.9615   -2.8103   -0.1197 H   0  0  0  0  0  0  0  0  0  0  0  0
   -3.9179    6.1263    0.5556 Cl  0  0  0  0  0  0  0  0  0  0  0  0
  1  2  1  0  0  0  0
  2  3  1  0  0  0  0
  4  1  1  0  0  0  0
  5  4  2  0  0  0  0
  6  9  2  0  0  0  0
  6  5  1  0  0  0  0
  7  6  1  0  0  0  0
  8  7  1  0  0  0  0
  8 15  1  0  0  0  0
  9 10  1  0  0  0  0
 10 17  1  0  0  0  0
 10  1  2  0  0  0  0
 11 18  1  0  0  0  0
 12  5  1  0  0  0  0
 13  8  1  0  0  0  0
 14  8  1  0  0  0  0
 16  9  1  0  0  0  0
M  RAD  3   2   2   3   3   4   2
M  END
