Coordinates from ORCA-job 4-MeOPhN2+~Cl-_B3LYPG-6-31G_dp-CH-Scan-d09-49-n800
 OpenBabel11261919403D

 18 17  0  0  0  0  0  0  0  0999 V2000
   -1.4377   -0.2740   -0.0410 C   0  0  0  0  0  0  0  0  0  0  0  0
   -2.8019   -0.3902    0.0672 N   0  0  0  0  0  0  0  0  0  0  0  0
   -3.9197   -0.4259    0.1677 N   0  0  0  0  0  0  0  0  0  0  0  0
   -0.9756    1.0656   -0.0368 C   0  0  0  0  0  0  0  0  0  0  0  0
    0.4251    1.0956   -0.1510 C   0  0  0  0  0  0  0  0  0  0  0  0
    1.2310   -0.0496   -0.2521 C   0  0  0  0  0  0  0  0  0  0  0  0
    2.5630    0.1625   -0.3530 O   0  0  0  0  0  0  0  0  0  0  0  0
    3.4529   -0.9436   -0.4563 C   0  0  0  0  0  0  0  0  0  0  0  0
    0.6630   -1.3574   -0.2465 C   0  0  0  0  0  0  0  0  0  0  0  0
   -0.7006   -1.4855   -0.1392 C   0  0  0  0  0  0  0  0  0  0  0  0
   -2.8295    3.6128    0.2431 H   0  0  0  0  0  0  0  0  0  0  0  0
    0.9571    2.0471   -0.1645 H   0  0  0  0  0  0  0  0  0  0  0  0
    4.4533   -0.5144   -0.5193 H   0  0  0  0  0  0  0  0  0  0  0  0
    3.2578   -1.5357   -1.3586 H   0  0  0  0  0  0  0  0  0  0  0  0
    3.3939   -1.5923    0.4261 H   0  0  0  0  0  0  0  0  0  0  0  0
    1.2842   -2.2406   -0.3240 H   0  0  0  0  0  0  0  0  0  0  0  0
   -1.1800   -2.4614   -0.1309 H   0  0  0  0  0  0  0  0  0  0  0  0
   -3.7070    4.5504    0.3739 Cl  0  0  0  0  0  0  0  0  0  0  0  0
  1  4  1  0  0  0  0
  1  2  1  0  0  0  0
  2  3  1  0  0  0  0
  5  4  2  0  0  0  0
  6  9  2  0  0  0  0
  6  5  1  0  0  0  0
  7  6  1  0  0  0  0
  8  7  1  0  0  0  0
  8 15  1  0  0  0  0
  9 10  1  0  0  0  0
 10 17  1  0  0  0  0
 10  1  2  0  0  0  0
 11 18  1  0  0  0  0
 12  5  1  0  0  0  0
 13  8  1  0  0  0  0
 14  8  1  0  0  0  0
 16  9  1  0  0  0  0
M  RAD  3   2   2   3   3   4   2
M  END
