Coordinates from ORCA-job 4-MeOPhN2+~Cl-_B3LYPG-6-31G_dp-CH-Scan-d09-49-n800
 OpenBabel11261919403D

 18 17  0  0  0  0  0  0  0  0999 V2000
   -1.4048   -0.5603   -0.0638 C   0  0  0  0  0  0  0  0  0  0  0  0
   -2.7641   -0.7528    0.0371 N   0  0  0  0  0  0  0  0  0  0  0  0
   -3.8810   -0.8393    0.1212 N   0  0  0  0  0  0  0  0  0  0  0  0
   -1.0377    0.8062   -0.0611 C   0  0  0  0  0  0  0  0  0  0  0  0
    0.3618    0.9229   -0.1682 C   0  0  0  0  0  0  0  0  0  0  0  0
    1.2392   -0.1684   -0.2619 C   0  0  0  0  0  0  0  0  0  0  0  0
    2.5574    0.1272   -0.3587 O   0  0  0  0  0  0  0  0  0  0  0  0
    3.5140   -0.9212   -0.4567 C   0  0  0  0  0  0  0  0  0  0  0  0
    0.7568   -1.5108   -0.2541 C   0  0  0  0  0  0  0  0  0  0  0  0
   -0.5965   -1.7257   -0.1532 C   0  0  0  0  0  0  0  0  0  0  0  0
   -3.2319    4.7775    0.3372 H   0  0  0  0  0  0  0  0  0  0  0  0
    0.8347    1.9058   -0.1822 H   0  0  0  0  0  0  0  0  0  0  0  0
    4.4862   -0.4316   -0.5221 H   0  0  0  0  0  0  0  0  0  0  0  0
    3.3566   -1.5296   -1.3557 H   0  0  0  0  0  0  0  0  0  0  0  0
    3.4965   -1.5685    0.4289 H   0  0  0  0  0  0  0  0  0  0  0  0
    1.4339   -2.3523   -0.3253 H   0  0  0  0  0  0  0  0  0  0  0  0
   -1.0134   -2.7302   -0.1432 H   0  0  0  0  0  0  0  0  0  0  0  0
   -3.9782    5.8144    0.4868 Cl  0  0  0  0  0  0  0  0  0  0  0  0
  1  4  1  0  0  0  0
  1  2  1  0  0  0  0
  2  3  1  0  0  0  0
  5  4  2  0  0  0  0
  6  9  2  0  0  0  0
  6  5  1  0  0  0  0
  7  6  1  0  0  0  0
  8  7  1  0  0  0  0
  8 15  1  0  0  0  0
  9 10  1  0  0  0  0
 10 17  1  0  0  0  0
 10  1  2  0  0  0  0
 11 18  1  0  0  0  0
 12  5  1  0  0  0  0
 13  8  1  0  0  0  0
 14  8  1  0  0  0  0
 16  9  1  0  0  0  0
M  RAD  3   2   2   3   3   4   2
M  END
