Coordinates from ORCA-job 4-MeOPhN2+~Cl-_B3LYPG-6-31G_dp-CH-Scan-d09-49-n800
 OpenBabel11261919403D

 18 17  0  0  0  0  0  0  0  0999 V2000
   -1.5482   -0.0045   -0.0147 C   0  0  0  0  0  0  0  0  0  0  0  0
   -2.9357   -0.1132    0.0972 N   0  0  0  0  0  0  0  0  0  0  0  0
   -3.9417    0.4621    0.2062 N   0  0  0  0  0  0  0  0  0  0  0  0
   -0.8983    1.2427   -0.0214 C   0  0  0  0  0  0  0  0  0  0  0  0
    0.4759    1.2816   -0.1341 C   0  0  0  0  0  0  0  0  0  0  0  0
    1.2154    0.0850   -0.2404 C   0  0  0  0  0  0  0  0  0  0  0  0
    2.5519    0.2381   -0.3441 O   0  0  0  0  0  0  0  0  0  0  0  0
    3.3779   -0.9183   -0.4519 C   0  0  0  0  0  0  0  0  0  0  0  0
    0.5582   -1.1600   -0.2335 C   0  0  0  0  0  0  0  0  0  0  0  0
   -0.8245   -1.2002   -0.1207 C   0  0  0  0  0  0  0  0  0  0  0  0
   -1.6363    2.2842    0.0803 H   0  0  0  0  0  0  0  0  0  0  0  0
    1.0150    2.2224   -0.1428 H   0  0  0  0  0  0  0  0  0  0  0  0
    4.4004   -0.5464   -0.5173 H   0  0  0  0  0  0  0  0  0  0  0  0
    3.1426   -1.4946   -1.3545 H   0  0  0  0  0  0  0  0  0  0  0  0
    3.2802   -1.5617    0.4305 H   0  0  0  0  0  0  0  0  0  0  0  0
    1.1138   -2.0857   -0.3146 H   0  0  0  0  0  0  0  0  0  0  0  0
   -1.3540   -2.1472   -0.1131 H   0  0  0  0  0  0  0  0  0  0  0  0
   -3.8632    2.6792    0.2937 Cl  0  0  0  0  0  0  0  0  0  0  0  0
  1  2  1  0  0  0  0
  2  3  2  0  0  0  0
  4  1  1  0  0  0  0
  4 11  1  0  0  0  0
  5  4  2  0  0  0  0
  6  9  2  0  0  0  0
  6  5  1  0  0  0  0
  7  6  1  0  0  0  0
  8  7  1  0  0  0  0
  8 15  1  0  0  0  0
  9 10  1  0  0  0  0
 10 17  1  0  0  0  0
 10  1  2  0  0  0  0
 12  5  1  0  0  0  0
 13  8  1  0  0  0  0
 14  8  1  0  0  0  0
 16  9  1  0  0  0  0
M  RAD  2   3   2  18   2
M  END
