Coordinates from ORCA-job 4-MeOPhN2+~Cl-_B3LYPG-6-31G_dp-CH-Scan-d09-49-n800
 OpenBabel11261919403D

 18 17  0  0  0  0  0  0  0  0999 V2000
   -1.4717   -0.1798   -0.0275 C   0  0  0  0  0  0  0  0  0  0  0  0
   -2.8351   -0.2801    0.0838 N   0  0  0  0  0  0  0  0  0  0  0  0
   -3.9531   -0.3101    0.1767 N   0  0  0  0  0  0  0  0  0  0  0  0
   -0.9802    1.1497   -0.0205 C   0  0  0  0  0  0  0  0  0  0  0  0
    0.4174    1.1643   -0.1373 C   0  0  0  0  0  0  0  0  0  0  0  0
    1.2058    0.0064   -0.2443 C   0  0  0  0  0  0  0  0  0  0  0  0
    2.5386    0.1994   -0.3471 O   0  0  0  0  0  0  0  0  0  0  0  0
    3.4134   -0.9193   -0.4555 C   0  0  0  0  0  0  0  0  0  0  0  0
    0.6164   -1.2912   -0.2419 C   0  0  0  0  0  0  0  0  0  0  0  0
   -0.7489   -1.3989   -0.1320 C   0  0  0  0  0  0  0  0  0  0  0  0
   -2.5283    3.1165    0.1916 H   0  0  0  0  0  0  0  0  0  0  0  0
    0.9602    2.1089   -0.1483 H   0  0  0  0  0  0  0  0  0  0  0  0
    4.4193   -0.5033   -0.5183 H   0  0  0  0  0  0  0  0  0  0  0  0
    3.2084   -1.5047   -1.3598 H   0  0  0  0  0  0  0  0  0  0  0  0
    3.3458   -1.5694    0.4250 H   0  0  0  0  0  0  0  0  0  0  0  0
    1.2229   -2.1841   -0.3240 H   0  0  0  0  0  0  0  0  0  0  0  0
   -1.2422   -2.3675   -0.1261 H   0  0  0  0  0  0  0  0  0  0  0  0
   -3.4593    4.0266    0.3105 Cl  0  0  0  0  0  0  0  0  0  0  0  0
  1  4  1  0  0  0  0
  1  2  1  0  0  0  0
  2  3  1  0  0  0  0
  5  4  2  0  0  0  0
  6  9  2  0  0  0  0
  6  5  1  0  0  0  0
  7  6  1  0  0  0  0
  8  7  1  0  0  0  0
  8 15  1  0  0  0  0
  9 10  1  0  0  0  0
 10 17  1  0  0  0  0
 10  1  2  0  0  0  0
 11 18  1  0  0  0  0
 12  5  1  0  0  0  0
 13  8  1  0  0  0  0
 14  8  1  0  0  0  0
 16  9  1  0  0  0  0
M  RAD  3   2   2   3   3   4   2
M  END
