Coordinates from ORCA-job 4-MeOPhN2+~Cl-_B3LYPG-6-31G_dp-CH-Scan-d09-49-n800
 OpenBabel11261919403D

 18 17  0  0  0  0  0  0  0  0999 V2000
   -1.4068   -0.6076   -0.0778 C   0  0  0  0  0  0  0  0  0  0  0  0
   -2.7641   -0.8171    0.0198 N   0  0  0  0  0  0  0  0  0  0  0  0
   -3.8801   -0.9169    0.1002 N   0  0  0  0  0  0  0  0  0  0  0  0
   -1.0588    0.7635   -0.0918 C   0  0  0  0  0  0  0  0  0  0  0  0
    0.3395    0.8982   -0.1949 C   0  0  0  0  0  0  0  0  0  0  0  0
    1.2322   -0.1820   -0.2711 C   0  0  0  0  0  0  0  0  0  0  0  0
    2.5466    0.1303   -0.3674 O   0  0  0  0  0  0  0  0  0  0  0  0
    3.5177   -0.9060   -0.4494 C   0  0  0  0  0  0  0  0  0  0  0  0
    0.7682   -1.5307   -0.2469 C   0  0  0  0  0  0  0  0  0  0  0  0
   -0.5825   -1.7630   -0.1484 C   0  0  0  0  0  0  0  0  0  0  0  0
   -3.2533    4.9282    0.3669 H   0  0  0  0  0  0  0  0  0  0  0  0
    0.7989    1.8873   -0.2205 H   0  0  0  0  0  0  0  0  0  0  0  0
    4.4831   -0.4039   -0.5202 H   0  0  0  0  0  0  0  0  0  0  0  0
    3.3701   -1.5289   -1.3401 H   0  0  0  0  0  0  0  0  0  0  0  0
    3.5078   -1.5411    0.4451 H   0  0  0  0  0  0  0  0  0  0  0  0
    1.4570   -2.3638   -0.3042 H   0  0  0  0  0  0  0  0  0  0  0  0
   -0.9855   -2.7729   -0.1264 H   0  0  0  0  0  0  0  0  0  0  0  0
   -3.9606    5.9897    0.5320 Cl  0  0  0  0  0  0  0  0  0  0  0  0
  1  2  1  0  0  0  0
  2  3  1  0  0  0  0
  4  1  1  0  0  0  0
  5  4  2  0  0  0  0
  6  9  2  0  0  0  0
  6  5  1  0  0  0  0
  7  6  1  0  0  0  0
  8  7  1  0  0  0  0
  8 15  1  0  0  0  0
  9 10  1  0  0  0  0
 10 17  1  0  0  0  0
 10  1  2  0  0  0  0
 11 18  1  0  0  0  0
 12  5  1  0  0  0  0
 13  8  1  0  0  0  0
 14  8  1  0  0  0  0
 16  9  1  0  0  0  0
M  RAD  3   2   2   3   3   4   2
M  END
