Coordinates from ORCA-job 4-MeOPhN2+~Cl-_B3LYPG-6-31G_dp-CH-Scan-d09-49-n800
 OpenBabel11261919403D

 18 17  0  0  0  0  0  0  0  0999 V2000
   -1.5338   -0.0394   -0.0165 C   0  0  0  0  0  0  0  0  0  0  0  0
   -2.9238   -0.1019    0.0977 N   0  0  0  0  0  0  0  0  0  0  0  0
   -3.9179    0.4728    0.2041 N   0  0  0  0  0  0  0  0  0  0  0  0
   -0.9124    1.2185   -0.0198 C   0  0  0  0  0  0  0  0  0  0  0  0
    0.4612    1.2702   -0.1321 C   0  0  0  0  0  0  0  0  0  0  0  0
    1.2086    0.0774   -0.2398 C   0  0  0  0  0  0  0  0  0  0  0  0
    2.5439    0.2387   -0.3435 O   0  0  0  0  0  0  0  0  0  0  0  0
    3.3804   -0.9101   -0.4526 C   0  0  0  0  0  0  0  0  0  0  0  0
    0.5652   -1.1784   -0.2347 C   0  0  0  0  0  0  0  0  0  0  0  0
   -0.8158   -1.2380   -0.1224 C   0  0  0  0  0  0  0  0  0  0  0  0
   -1.8248    2.3009    0.0996 H   0  0  0  0  0  0  0  0  0  0  0  0
    0.9976    2.2132   -0.1401 H   0  0  0  0  0  0  0  0  0  0  0  0
    4.3994   -0.5285   -0.5176 H   0  0  0  0  0  0  0  0  0  0  0  0
    3.1508   -1.4874   -1.3560 H   0  0  0  0  0  0  0  0  0  0  0  0
    3.2889   -1.5554    0.4290 H   0  0  0  0  0  0  0  0  0  0  0  0
    1.1337   -2.0959   -0.3167 H   0  0  0  0  0  0  0  0  0  0  0  0
   -1.3359   -2.1906   -0.1159 H   0  0  0  0  0  0  0  0  0  0  0  0
   -3.7360    2.7973    0.2819 Cl  0  0  0  0  0  0  0  0  0  0  0  0
  1  2  1  0  0  0  0
  2  3  2  0  0  0  0
  4  1  1  0  0  0  0
  4 11  1  0  0  0  0
  5  4  2  0  0  0  0
  6  9  2  0  0  0  0
  6  5  1  0  0  0  0
  7  6  1  0  0  0  0
  8  7  1  0  0  0  0
  8 15  1  0  0  0  0
  9 10  1  0  0  0  0
 10 17  1  0  0  0  0
 10  1  2  0  0  0  0
 12  5  1  0  0  0  0
 13  8  1  0  0  0  0
 14  8  1  0  0  0  0
 16  9  1  0  0  0  0
M  RAD  2   3   2  18   2
M  END
