Coordinates from ORCA-job 4-MeOPhN2+~Cl-_B3LYPG-6-31G_dp-CH-Scan-d09-49-n800
 OpenBabel11261919403D

 18 17  0  0  0  0  0  0  0  0999 V2000
   -1.5152   -0.0740   -0.0191 C   0  0  0  0  0  0  0  0  0  0  0  0
   -2.9028   -0.0884    0.0974 N   0  0  0  0  0  0  0  0  0  0  0  0
   -3.9248    0.3896    0.2025 N   0  0  0  0  0  0  0  0  0  0  0  0
   -0.9498    1.2114   -0.0166 C   0  0  0  0  0  0  0  0  0  0  0  0
    0.4303    1.2545   -0.1299 C   0  0  0  0  0  0  0  0  0  0  0  0
    1.1911    0.0715   -0.2385 C   0  0  0  0  0  0  0  0  0  0  0  0
    2.5246    0.2441   -0.3415 O   0  0  0  0  0  0  0  0  0  0  0  0
    3.3769   -0.8928   -0.4517 C   0  0  0  0  0  0  0  0  0  0  0  0
    0.5680   -1.2009   -0.2361 C   0  0  0  0  0  0  0  0  0  0  0  0
   -0.8081   -1.2821   -0.1248 C   0  0  0  0  0  0  0  0  0  0  0  0
   -2.0094    2.3014    0.1150 H   0  0  0  0  0  0  0  0  0  0  0  0
    0.9689    2.1981   -0.1379 H   0  0  0  0  0  0  0  0  0  0  0  0
    4.3906   -0.4968   -0.5148 H   0  0  0  0  0  0  0  0  0  0  0  0
    3.1571   -1.4716   -1.3566 H   0  0  0  0  0  0  0  0  0  0  0  0
    3.2943   -1.5410    0.4286 H   0  0  0  0  0  0  0  0  0  0  0  0
    1.1527   -2.1080   -0.3193 H   0  0  0  0  0  0  0  0  0  0  0  0
   -1.3188   -2.2401   -0.1194 H   0  0  0  0  0  0  0  0  0  0  0  0
   -3.4962    2.9884    0.2674 Cl  0  0  0  0  0  0  0  0  0  0  0  0
  1  4  1  0  0  0  0
  1  2  1  0  0  0  0
  2  3  2  0  0  0  0
  5  4  2  0  0  0  0
  6  9  2  0  0  0  0
  6  5  1  0  0  0  0
  7  6  1  0  0  0  0
  8  7  1  0  0  0  0
  8 15  1  0  0  0  0
  9 10  1  0  0  0  0
 10 17  1  0  0  0  0
 10  1  2  0  0  0  0
 11 18  1  0  0  0  0
 12  5  1  0  0  0  0
 13  8  1  0  0  0  0
 14  8  1  0  0  0  0
 16  9  1  0  0  0  0
M  RAD  2   3   2   4   2
M  END
