Coordinates from ORCA-job 4-MeOPhN2+~Cl-_B3LYPG-6-31G_dp-CH-Scan-d09-49-n800
 OpenBabel11261919403D

 18 17  0  0  0  0  0  0  0  0999 V2000
   -1.4570   -0.2241   -0.0320 C   0  0  0  0  0  0  0  0  0  0  0  0
   -2.8204   -0.3329    0.0783 N   0  0  0  0  0  0  0  0  0  0  0  0
   -3.9387   -0.3682    0.1705 N   0  0  0  0  0  0  0  0  0  0  0  0
   -0.9798    1.1105   -0.0255 C   0  0  0  0  0  0  0  0  0  0  0  0
    0.4193    1.1325   -0.1415 C   0  0  0  0  0  0  0  0  0  0  0  0
    1.2163   -0.0190   -0.2470 C   0  0  0  0  0  0  0  0  0  0  0  0
    2.5487    0.1834   -0.3493 O   0  0  0  0  0  0  0  0  0  0  0  0
    3.4310   -0.9290   -0.4566 C   0  0  0  0  0  0  0  0  0  0  0  0
    0.6374   -1.3217   -0.2440 C   0  0  0  0  0  0  0  0  0  0  0  0
   -0.7270   -1.4394   -0.1350 C   0  0  0  0  0  0  0  0  0  0  0  0
   -2.6659    3.3423    0.2141 H   0  0  0  0  0  0  0  0  0  0  0  0
    0.9569    2.0805   -0.1532 H   0  0  0  0  0  0  0  0  0  0  0  0
    4.4341   -0.5064   -0.5195 H   0  0  0  0  0  0  0  0  0  0  0  0
    3.2305   -1.5168   -1.3605 H   0  0  0  0  0  0  0  0  0  0  0  0
    3.3679   -1.5793    0.4242 H   0  0  0  0  0  0  0  0  0  0  0  0
    1.2511   -2.2099   -0.3250 H   0  0  0  0  0  0  0  0  0  0  0  0
   -1.2135   -2.4117   -0.1285 H   0  0  0  0  0  0  0  0  0  0  0  0
   -3.5616    4.2726    0.3355 Cl  0  0  0  0  0  0  0  0  0  0  0  0
  1  4  1  0  0  0  0
  1  2  1  0  0  0  0
  2  3  1  0  0  0  0
  5  4  2  0  0  0  0
  6  9  2  0  0  0  0
  6  5  1  0  0  0  0
  7  6  1  0  0  0  0
  8  7  1  0  0  0  0
  8 15  1  0  0  0  0
  9 10  1  0  0  0  0
 10 17  1  0  0  0  0
 10  1  2  0  0  0  0
 11 18  1  0  0  0  0
 12  5  1  0  0  0  0
 13  8  1  0  0  0  0
 14  8  1  0  0  0  0
 16  9  1  0  0  0  0
M  RAD  3   2   2   3   3   4   2
M  END
