Coordinates from ORCA-job 4-MeOPhN2+~Cl-_B3LYPG-6-31G_dp-CH-Scan-d09-49-n800
 OpenBabel11261919403D

 18 17  0  0  0  0  0  0  0  0999 V2000
   -1.4699   -0.1862   -0.0281 C   0  0  0  0  0  0  0  0  0  0  0  0
   -2.8333   -0.2881    0.0830 N   0  0  0  0  0  0  0  0  0  0  0  0
   -3.9514   -0.3195    0.1758 N   0  0  0  0  0  0  0  0  0  0  0  0
   -0.9806    1.1441   -0.0212 C   0  0  0  0  0  0  0  0  0  0  0  0
    0.4172    1.1598   -0.1378 C   0  0  0  0  0  0  0  0  0  0  0  0
    1.2069    0.0029   -0.2446 C   0  0  0  0  0  0  0  0  0  0  0  0
    2.5397    0.1974   -0.3474 O   0  0  0  0  0  0  0  0  0  0  0  0
    3.4157   -0.9202   -0.4556 C   0  0  0  0  0  0  0  0  0  0  0  0
    0.6192   -1.2955   -0.2422 C   0  0  0  0  0  0  0  0  0  0  0  0
   -0.7460   -1.4047   -0.1324 C   0  0  0  0  0  0  0  0  0  0  0  0
   -2.5465    3.1477    0.1946 H   0  0  0  0  0  0  0  0  0  0  0  0
    0.9592    2.1050   -0.1489 H   0  0  0  0  0  0  0  0  0  0  0  0
    4.4211   -0.5032   -0.5184 H   0  0  0  0  0  0  0  0  0  0  0  0
    3.2114   -1.5060   -1.3599 H   0  0  0  0  0  0  0  0  0  0  0  0
    3.3488   -1.5704    0.4249 H   0  0  0  0  0  0  0  0  0  0  0  0
    1.2269   -2.1876   -0.3242 H   0  0  0  0  0  0  0  0  0  0  0  0
   -1.2382   -2.3739   -0.1265 H   0  0  0  0  0  0  0  0  0  0  0  0
   -3.4710    4.0618    0.3138 Cl  0  0  0  0  0  0  0  0  0  0  0  0
  1  4  1  0  0  0  0
  1  2  1  0  0  0  0
  2  3  1  0  0  0  0
  5  4  2  0  0  0  0
  6  9  2  0  0  0  0
  6  5  1  0  0  0  0
  7  6  1  0  0  0  0
  8  7  1  0  0  0  0
  8 15  1  0  0  0  0
  9 10  1  0  0  0  0
 10 17  1  0  0  0  0
 10  1  2  0  0  0  0
 11 18  1  0  0  0  0
 12  5  1  0  0  0  0
 13  8  1  0  0  0  0
 14  8  1  0  0  0  0
 16  9  1  0  0  0  0
M  RAD  3   2   2   3   3   4   2
M  END
