Coordinates from ORCA-job 4-MeOPhN2+~Cl-_B3LYPG-6-31G_dp-CH-Scan-d09-49-n800
 OpenBabel11261919403D

 18 17  0  0  0  0  0  0  0  0999 V2000
   -1.4538   -0.2326   -0.0330 C   0  0  0  0  0  0  0  0  0  0  0  0
   -2.8172   -0.3428    0.0771 N   0  0  0  0  0  0  0  0  0  0  0  0
   -3.9356   -0.3786    0.1691 N   0  0  0  0  0  0  0  0  0  0  0  0
   -0.9792    1.1029   -0.0266 C   0  0  0  0  0  0  0  0  0  0  0  0
    0.4202    1.1262   -0.1425 C   0  0  0  0  0  0  0  0  0  0  0  0
    1.2187   -0.0242   -0.2476 C   0  0  0  0  0  0  0  0  0  0  0  0
    2.5511    0.1799   -0.3499 O   0  0  0  0  0  0  0  0  0  0  0  0
    3.4346   -0.9314   -0.4569 C   0  0  0  0  0  0  0  0  0  0  0  0
    0.6417   -1.3278   -0.2445 C   0  0  0  0  0  0  0  0  0  0  0  0
   -0.7225   -1.4473   -0.1355 C   0  0  0  0  0  0  0  0  0  0  0  0
   -2.6941    3.3879    0.2188 H   0  0  0  0  0  0  0  0  0  0  0  0
    0.9569    2.0748   -0.1543 H   0  0  0  0  0  0  0  0  0  0  0  0
    4.4373   -0.5077   -0.5198 H   0  0  0  0  0  0  0  0  0  0  0  0
    3.2350   -1.5197   -1.3605 H   0  0  0  0  0  0  0  0  0  0  0  0
    3.3724   -1.5816    0.4241 H   0  0  0  0  0  0  0  0  0  0  0  0
    1.2566   -2.2151   -0.3251 H   0  0  0  0  0  0  0  0  0  0  0  0
   -1.2078   -2.4202   -0.1289 H   0  0  0  0  0  0  0  0  0  0  0  0
   -3.5851    4.3207    0.3409 Cl  0  0  0  0  0  0  0  0  0  0  0  0
  1  4  1  0  0  0  0
  1  2  1  0  0  0  0
  2  3  1  0  0  0  0
  5  4  2  0  0  0  0
  6  9  2  0  0  0  0
  6  5  1  0  0  0  0
  7  6  1  0  0  0  0
  8  7  1  0  0  0  0
  8 15  1  0  0  0  0
  9 10  1  0  0  0  0
 10 17  1  0  0  0  0
 10  1  2  0  0  0  0
 11 18  1  0  0  0  0
 12  5  1  0  0  0  0
 13  8  1  0  0  0  0
 14  8  1  0  0  0  0
 16  9  1  0  0  0  0
M  RAD  3   2   2   3   3   4   2
M  END
