Coordinates from ORCA-job 4-MeOPhN2+~Cl-_B3LYPG-6-31G_dp-CH-Scan-d09-49-n800
 OpenBabel11261919403D

 18 17  0  0  0  0  0  0  0  0999 V2000
   -1.4915   -0.1318   -0.0222 C   0  0  0  0  0  0  0  0  0  0  0  0
   -2.8553   -0.2216    0.0900 N   0  0  0  0  0  0  0  0  0  0  0  0
   -3.9729   -0.2407    0.1839 N   0  0  0  0  0  0  0  0  0  0  0  0
   -0.9835    1.1910   -0.0150 C   0  0  0  0  0  0  0  0  0  0  0  0
    0.4114    1.2008   -0.1322 C   0  0  0  0  0  0  0  0  0  0  0  0
    1.1911    0.0363   -0.2408 C   0  0  0  0  0  0  0  0  0  0  0  0
    2.5239    0.2202   -0.3442 O   0  0  0  0  0  0  0  0  0  0  0  0
    3.3917   -0.9045   -0.4540 C   0  0  0  0  0  0  0  0  0  0  0  0
    0.5910   -1.2556   -0.2392 C   0  0  0  0  0  0  0  0  0  0  0  0
   -0.7754   -1.3536   -0.1285 C   0  0  0  0  0  0  0  0  0  0  0  0
   -2.3486    2.8444    0.1640 H   0  0  0  0  0  0  0  0  0  0  0  0
    0.9577    2.1429   -0.1423 H   0  0  0  0  0  0  0  0  0  0  0  0
    4.3999   -0.4946   -0.5168 H   0  0  0  0  0  0  0  0  0  0  0  0
    3.1820   -1.4872   -1.3588 H   0  0  0  0  0  0  0  0  0  0  0  0
    3.3197   -1.5544    0.4262 H   0  0  0  0  0  0  0  0  0  0  0  0
    1.1902   -2.1533   -0.3226 H   0  0  0  0  0  0  0  0  0  0  0  0
   -1.2752   -2.3186   -0.1232 H   0  0  0  0  0  0  0  0  0  0  0  0
   -3.3266    3.7437    0.2806 Cl  0  0  0  0  0  0  0  0  0  0  0  0
  1  4  1  0  0  0  0
  1  2  1  0  0  0  0
  2  3  1  0  0  0  0
  5  4  2  0  0  0  0
  6  9  2  0  0  0  0
  6  5  1  0  0  0  0
  7  6  1  0  0  0  0
  8  7  1  0  0  0  0
  8 15  1  0  0  0  0
  9 10  1  0  0  0  0
 10 17  1  0  0  0  0
 10  1  2  0  0  0  0
 11 18  1  0  0  0  0
 12  5  1  0  0  0  0
 13  8  1  0  0  0  0
 14  8  1  0  0  0  0
 16  9  1  0  0  0  0
M  RAD  3   2   2   3   3   4   2
M  END
