Coordinates from ORCA-job 4-MeOPhN2+~Cl-_B3LYPG-6-31G_dp-CH-Scan-d09-49-n800
 OpenBabel11261919403D

 18 17  0  0  0  0  0  0  0  0999 V2000
   -1.5044   -0.1079   -0.0191 C   0  0  0  0  0  0  0  0  0  0  0  0
   -2.8687   -0.1919    0.0935 N   0  0  0  0  0  0  0  0  0  0  0  0
   -3.9858   -0.2031    0.1879 N   0  0  0  0  0  0  0  0  0  0  0  0
   -0.9865    1.2105   -0.0118 C   0  0  0  0  0  0  0  0  0  0  0  0
    0.4061    1.2207   -0.1291 C   0  0  0  0  0  0  0  0  0  0  0  0
    1.1819    0.0530   -0.2386 C   0  0  0  0  0  0  0  0  0  0  0  0
    2.5141    0.2329   -0.3421 O   0  0  0  0  0  0  0  0  0  0  0  0
    3.3792   -0.8944   -0.4532 C   0  0  0  0  0  0  0  0  0  0  0  0
    0.5765   -1.2360   -0.2376 C   0  0  0  0  0  0  0  0  0  0  0  0
   -0.7905   -1.3298   -0.1265 C   0  0  0  0  0  0  0  0  0  0  0  0
   -2.2353    2.6883    0.1473 H   0  0  0  0  0  0  0  0  0  0  0  0
    0.9524    2.1624   -0.1384 H   0  0  0  0  0  0  0  0  0  0  0  0
    4.3883   -0.4868   -0.5158 H   0  0  0  0  0  0  0  0  0  0  0  0
    3.1673   -1.4752   -1.3586 H   0  0  0  0  0  0  0  0  0  0  0  0
    3.3053   -1.5444    0.4267 H   0  0  0  0  0  0  0  0  0  0  0  0
    1.1723   -2.1358   -0.3217 H   0  0  0  0  0  0  0  0  0  0  0  0
   -1.2930   -2.2932   -0.1216 H   0  0  0  0  0  0  0  0  0  0  0  0
   -3.2497    3.5940    0.2636 Cl  0  0  0  0  0  0  0  0  0  0  0  0
  1  4  1  0  0  0  0
  1  2  1  0  0  0  0
  2  3  1  0  0  0  0
  5  4  2  0  0  0  0
  6  9  2  0  0  0  0
  6  5  1  0  0  0  0
  7  6  1  0  0  0  0
  8  7  1  0  0  0  0
  8 15  1  0  0  0  0
  9 10  1  0  0  0  0
 10 17  1  0  0  0  0
 10  1  2  0  0  0  0
 11 18  1  0  0  0  0
 12  5  1  0  0  0  0
 13  8  1  0  0  0  0
 14  8  1  0  0  0  0
 16  9  1  0  0  0  0
M  RAD  3   2   2   3   3   4   2
M  END
