Coordinates from ORCA-job 4-MeOPhN2+~Cl-_B3LYPG-6-31G_dp-CH-Scan-d09-49-n800
 OpenBabel11261919403D

 18 17  0  0  0  0  0  0  0  0999 V2000
   -1.4040   -0.5096   -0.0582 C   0  0  0  0  0  0  0  0  0  0  0  0
   -2.7653   -0.6849    0.0441 N   0  0  0  0  0  0  0  0  0  0  0  0
   -3.8829   -0.7580    0.1296 N   0  0  0  0  0  0  0  0  0  0  0  0
   -1.0182    0.8520   -0.0527 C   0  0  0  0  0  0  0  0  0  0  0  0
    0.3825    0.9496   -0.1611 C   0  0  0  0  0  0  0  0  0  0  0  0
    1.2450   -0.1531   -0.2593 C   0  0  0  0  0  0  0  0  0  0  0  0
    2.5669    0.1250   -0.3573 O   0  0  0  0  0  0  0  0  0  0  0  0
    3.5093   -0.9358   -0.4591 C   0  0  0  0  0  0  0  0  0  0  0  0
    0.7445   -1.4889   -0.2542 C   0  0  0  0  0  0  0  0  0  0  0  0
   -0.6114   -1.6855   -0.1517 C   0  0  0  0  0  0  0  0  0  0  0  0
   -3.2029    4.6116    0.3217 H   0  0  0  0  0  0  0  0  0  0  0  0
    0.8687    1.9261   -0.1734 H   0  0  0  0  0  0  0  0  0  0  0  0
    4.4878   -0.4589   -0.5236 H   0  0  0  0  0  0  0  0  0  0  0  0
    3.3433   -1.5390   -1.3601 H   0  0  0  0  0  0  0  0  0  0  0  0
    3.4834   -1.5857    0.4243 H   0  0  0  0  0  0  0  0  0  0  0  0
    1.4101   -2.3393   -0.3285 H   0  0  0  0  0  0  0  0  0  0  0  0
   -1.0419   -2.6842   -0.1435 H   0  0  0  0  0  0  0  0  0  0  0  0
   -3.9855    5.6220    0.4679 Cl  0  0  0  0  0  0  0  0  0  0  0  0
  1  4  1  0  0  0  0
  1  2  1  0  0  0  0
  2  3  1  0  0  0  0
  5  4  2  0  0  0  0
  6  9  2  0  0  0  0
  6  5  1  0  0  0  0
  7  6  1  0  0  0  0
  8  7  1  0  0  0  0
  8 15  1  0  0  0  0
  9 10  1  0  0  0  0
 10 17  1  0  0  0  0
 10  1  2  0  0  0  0
 11 18  1  0  0  0  0
 12  5  1  0  0  0  0
 13  8  1  0  0  0  0
 14  8  1  0  0  0  0
 16  9  1  0  0  0  0
M  RAD  3   2   2   3   3   4   2
M  END
