Coordinates from ORCA-job 4-MeOPhN2+~Cl-_B3LYPG-6-31G_dp-CH-Scan-d09-49-n800
 OpenBabel11261919403D

 18 18  0  0  0  0  0  0  0  0999 V2000
   -1.5674    0.0205   -0.0139 C   0  0  0  0  0  0  0  0  0  0  0  0
   -2.9541   -0.1201    0.0970 N   0  0  0  0  0  0  0  0  0  0  0  0
   -3.9553    0.4774    0.2093 N   0  0  0  0  0  0  0  0  0  0  0  0
   -0.9169    1.2733   -0.0210 C   0  0  0  0  0  0  0  0  0  0  0  0
    0.4613    1.2933   -0.1350 C   0  0  0  0  0  0  0  0  0  0  0  0
    1.2027    0.1002   -0.2406 C   0  0  0  0  0  0  0  0  0  0  0  0
    2.5398    0.2543   -0.3441 O   0  0  0  0  0  0  0  0  0  0  0  0
    3.3638   -0.9034   -0.4482 C   0  0  0  0  0  0  0  0  0  0  0  0
    0.5430   -1.1409   -0.2328 C   0  0  0  0  0  0  0  0  0  0  0  0
   -0.8404   -1.1721   -0.1199 C   0  0  0  0  0  0  0  0  0  0  0  0
   -1.4137    2.0681    0.0512 H   0  0  0  0  0  0  0  0  0  0  0  0
    1.0004    2.2347   -0.1440 H   0  0  0  0  0  0  0  0  0  0  0  0
    4.3872   -0.5337   -0.5131 H   0  0  0  0  0  0  0  0  0  0  0  0
    3.1288   -1.4816   -1.3498 H   0  0  0  0  0  0  0  0  0  0  0  0
    3.2637   -1.5450    0.4354 H   0  0  0  0  0  0  0  0  0  0  0  0
    1.0937   -2.0697   -0.3131 H   0  0  0  0  0  0  0  0  0  0  0  0
   -1.3740   -2.1165   -0.1115 H   0  0  0  0  0  0  0  0  0  0  0  0
   -3.8335    2.6247    0.2990 Cl  0  0  0  0  0  0  0  0  0  0  0  0
  1  2  1  0  0  0  0
  2  3  2  0  0  0  0
  3 18  1  0  0  0  0
  4  1  1  0  0  0  0
  4 11  1  0  0  0  0
  5  4  2  0  0  0  0
  6  9  2  0  0  0  0
  6  5  1  0  0  0  0
  7  6  1  0  0  0  0
  8  7  1  0  0  0  0
  8 15  1  0  0  0  0
  9 10  1  0  0  0  0
 10 17  1  0  0  0  0
 10  1  2  0  0  0  0
 12  5  1  0  0  0  0
 13  8  1  0  0  0  0
 14  8  1  0  0  0  0
 16  9  1  0  0  0  0
M  END
