Coordinates from ORCA-job 4-MeOPhN2+~Cl-_B3LYPG-6-31G_dp-CH-Scan-d09-49-n800
 OpenBabel11261919403D

 18 17  0  0  0  0  0  0  0  0999 V2000
   -1.4120   -0.4109   -0.0513 C   0  0  0  0  0  0  0  0  0  0  0  0
   -2.7756   -0.5579    0.0542 N   0  0  0  0  0  0  0  0  0  0  0  0
   -3.8942   -0.6108    0.1423 N   0  0  0  0  0  0  0  0  0  0  0  0
   -0.9938    0.9417   -0.0476 C   0  0  0  0  0  0  0  0  0  0  0  0
    0.4080    1.0076   -0.1592 C   0  0  0  0  0  0  0  0  0  0  0  0
    1.2452   -0.1146   -0.2575 C   0  0  0  0  0  0  0  0  0  0  0  0
    2.5724    0.1336   -0.3572 O   0  0  0  0  0  0  0  0  0  0  0  0
    3.4911   -0.9481   -0.4587 C   0  0  0  0  0  0  0  0  0  0  0  0
    0.7144   -1.4385   -0.2509 C   0  0  0  0  0  0  0  0  0  0  0  0
   -0.6454   -1.6041   -0.1459 C   0  0  0  0  0  0  0  0  0  0  0  0
   -3.0889    4.2236    0.2951 H   0  0  0  0  0  0  0  0  0  0  0  0
    0.9158    1.9728   -0.1732 H   0  0  0  0  0  0  0  0  0  0  0  0
    4.4800   -0.4930   -0.5226 H   0  0  0  0  0  0  0  0  0  0  0  0
    3.3121   -1.5473   -1.3598 H   0  0  0  0  0  0  0  0  0  0  0  0
    3.4501   -1.5972    0.4247 H   0  0  0  0  0  0  0  0  0  0  0  0
    1.3603   -2.3039   -0.3259 H   0  0  0  0  0  0  0  0  0  0  0  0
   -1.0984   -2.5927   -0.1367 H   0  0  0  0  0  0  0  0  0  0  0  0
   -3.9119    5.2029    0.4351 Cl  0  0  0  0  0  0  0  0  0  0  0  0
  1  4  1  0  0  0  0
  1  2  1  0  0  0  0
  2  3  1  0  0  0  0
  5  4  2  0  0  0  0
  6  9  2  0  0  0  0
  6  5  1  0  0  0  0
  7  6  1  0  0  0  0
  8  7  1  0  0  0  0
  8 15  1  0  0  0  0
  9 10  1  0  0  0  0
 10 17  1  0  0  0  0
 10  1  2  0  0  0  0
 11 18  1  0  0  0  0
 12  5  1  0  0  0  0
 13  8  1  0  0  0  0
 14  8  1  0  0  0  0
 16  9  1  0  0  0  0
M  RAD  3   2   2   3   3   4   2
M  END
