Coordinates from ORCA-job 4-MeOPhN2+~Cl-_B3LYPG-6-31G_dp-CH-Scan-d09-49-n800
 OpenBabel11261919403D

 18 17  0  0  0  0  0  0  0  0999 V2000
   -1.4083   -0.4382   -0.0539 C   0  0  0  0  0  0  0  0  0  0  0  0
   -2.7715   -0.5922    0.0508 N   0  0  0  0  0  0  0  0  0  0  0  0
   -3.8899   -0.6497    0.1381 N   0  0  0  0  0  0  0  0  0  0  0  0
   -0.9986    0.9168   -0.0505 C   0  0  0  0  0  0  0  0  0  0  0  0
    0.4031    0.9907   -0.1612 C   0  0  0  0  0  0  0  0  0  0  0  0
    1.2468   -0.1266   -0.2586 C   0  0  0  0  0  0  0  0  0  0  0  0
    2.5728    0.1293   -0.3579 O   0  0  0  0  0  0  0  0  0  0  0  0
    3.4976   -0.9472   -0.4587 C   0  0  0  0  0  0  0  0  0  0  0  0
    0.7238   -1.4536   -0.2516 C   0  0  0  0  0  0  0  0  0  0  0  0
   -0.6351   -1.6272   -0.1473 C   0  0  0  0  0  0  0  0  0  0  0  0
   -3.1306    4.3405    0.3046 H   0  0  0  0  0  0  0  0  0  0  0  0
    0.9054    1.9588   -0.1754 H   0  0  0  0  0  0  0  0  0  0  0  0
    4.4839   -0.4866   -0.5229 H   0  0  0  0  0  0  0  0  0  0  0  0
    3.3220   -1.5480   -1.3594 H   0  0  0  0  0  0  0  0  0  0  0  0
    3.4604   -1.5960    0.4251 H   0  0  0  0  0  0  0  0  0  0  0  0
    1.3749   -2.3152   -0.3258 H   0  0  0  0  0  0  0  0  0  0  0  0
   -1.0823   -2.6184   -0.1378 H   0  0  0  0  0  0  0  0  0  0  0  0
   -3.9449    5.3263    0.4474 Cl  0  0  0  0  0  0  0  0  0  0  0  0
  1  4  1  0  0  0  0
  1  2  1  0  0  0  0
  2  3  1  0  0  0  0
  5  4  2  0  0  0  0
  6  9  2  0  0  0  0
  6  5  1  0  0  0  0
  7  6  1  0  0  0  0
  8  7  1  0  0  0  0
  8 15  1  0  0  0  0
  9 10  1  0  0  0  0
 10 17  1  0  0  0  0
 10  1  2  0  0  0  0
 11 18  1  0  0  0  0
 12  5  1  0  0  0  0
 13  8  1  0  0  0  0
 14  8  1  0  0  0  0
 16  9  1  0  0  0  0
M  RAD  3   2   2   3   3   4   2
M  END
