Coordinates from ORCA-job 4-MeOPhN2+~Cl-_B3LYPG-6-31G_dp-CH-Scan-d09-49-n800
 OpenBabel11261919403D

 18 17  0  0  0  0  0  0  0  0999 V2000
   -1.4114   -0.6467   -0.0854 C   0  0  0  0  0  0  0  0  0  0  0  0
   -2.7660   -0.8725    0.0098 N   0  0  0  0  0  0  0  0  0  0  0  0
   -3.8809   -0.9863    0.0877 N   0  0  0  0  0  0  0  0  0  0  0  0
   -1.0800    0.7285   -0.1064 C   0  0  0  0  0  0  0  0  0  0  0  0
    0.3168    0.8793   -0.2069 C   0  0  0  0  0  0  0  0  0  0  0  0
    1.2228   -0.1904   -0.2749 C   0  0  0  0  0  0  0  0  0  0  0  0
    2.5336    0.1375   -0.3704 O   0  0  0  0  0  0  0  0  0  0  0  0
    3.5172   -0.8874   -0.4449 C   0  0  0  0  0  0  0  0  0  0  0  0
    0.7753   -1.5445   -0.2439 C   0  0  0  0  0  0  0  0  0  0  0  0
   -0.5728   -1.7923   -0.1471 C   0  0  0  0  0  0  0  0  0  0  0  0
   -3.2464    5.0346    0.3812 H   0  0  0  0  0  0  0  0  0  0  0  0
    0.7647    1.8736   -0.2371 H   0  0  0  0  0  0  0  0  0  0  0  0
    4.4765   -0.3740   -0.5183 H   0  0  0  0  0  0  0  0  0  0  0  0
    3.3781   -1.5178   -1.3317 H   0  0  0  0  0  0  0  0  0  0  0  0
    3.5145   -1.5167    0.4537 H   0  0  0  0  0  0  0  0  0  0  0  0
    1.4742   -2.3695   -0.2946 H   0  0  0  0  0  0  0  0  0  0  0  0
   -0.9637   -2.8069   -0.1200 H   0  0  0  0  0  0  0  0  0  0  0  0
   -3.9229    6.1148    0.5542 Cl  0  0  0  0  0  0  0  0  0  0  0  0
  1  2  1  0  0  0  0
  2  3  1  0  0  0  0
  4  1  1  0  0  0  0
  5  4  2  0  0  0  0
  6  9  2  0  0  0  0
  6  5  1  0  0  0  0
  7  6  1  0  0  0  0
  8  7  1  0  0  0  0
  8 15  1  0  0  0  0
  9 10  1  0  0  0  0
 10 17  1  0  0  0  0
 10  1  2  0  0  0  0
 11 18  1  0  0  0  0
 12  5  1  0  0  0  0
 13  8  1  0  0  0  0
 14  8  1  0  0  0  0
 16  9  1  0  0  0  0
M  RAD  3   2   2   3   3   4   2
M  END
