Coordinates from ORCA-job 4-MeOPhN2+~Cl-_B3LYPG-6-31G_dp-CH-Scan-d09-49-n800
 OpenBabel11261919403D

 18 17  0  0  0  0  0  0  0  0999 V2000
   -1.4479   -0.2410   -0.0337 C   0  0  0  0  0  0  0  0  0  0  0  0
   -2.8118   -0.3510    0.0766 N   0  0  0  0  0  0  0  0  0  0  0  0
   -3.9303   -0.3847    0.1674 N   0  0  0  0  0  0  0  0  0  0  0  0
   -0.9753    1.0949   -0.0272 C   0  0  0  0  0  0  0  0  0  0  0  0
    0.4244    1.1189   -0.1432 C   0  0  0  0  0  0  0  0  0  0  0  0
    1.2236   -0.0310   -0.2483 C   0  0  0  0  0  0  0  0  0  0  0  0
    2.5561    0.1739   -0.3506 O   0  0  0  0  0  0  0  0  0  0  0  0
    3.4400   -0.9369   -0.4577 C   0  0  0  0  0  0  0  0  0  0  0  0
    0.6476   -1.3351   -0.2451 C   0  0  0  0  0  0  0  0  0  0  0  0
   -0.7166   -1.4556   -0.1361 C   0  0  0  0  0  0  0  0  0  0  0  0
   -2.7361    3.4452    0.2246 H   0  0  0  0  0  0  0  0  0  0  0  0
    0.9608    2.0677   -0.1550 H   0  0  0  0  0  0  0  0  0  0  0  0
    4.4426   -0.5129   -0.5206 H   0  0  0  0  0  0  0  0  0  0  0  0
    3.2406   -1.5255   -1.3613 H   0  0  0  0  0  0  0  0  0  0  0  0
    3.3782   -1.5874    0.4233 H   0  0  0  0  0  0  0  0  0  0  0  0
    1.2633   -2.2219   -0.3258 H   0  0  0  0  0  0  0  0  0  0  0  0
   -1.2013   -2.4288   -0.1295 H   0  0  0  0  0  0  0  0  0  0  0  0
   -3.6286    4.3744    0.3470 Cl  0  0  0  0  0  0  0  0  0  0  0  0
  1  4  1  0  0  0  0
  1  2  1  0  0  0  0
  2  3  1  0  0  0  0
  5  4  2  0  0  0  0
  6  9  2  0  0  0  0
  6  5  1  0  0  0  0
  7  6  1  0  0  0  0
  8  7  1  0  0  0  0
  8 15  1  0  0  0  0
  9 10  1  0  0  0  0
 10 17  1  0  0  0  0
 10  1  2  0  0  0  0
 11 18  1  0  0  0  0
 12  5  1  0  0  0  0
 13  8  1  0  0  0  0
 14  8  1  0  0  0  0
 16  9  1  0  0  0  0
M  RAD  3   2   2   3   3   4   2
M  END
