Coordinates from ORCA-job 4-MeOPhN2+~Cl-_B3LYPG-6-31G_dp-CH-Scan-d09-49-n800
 OpenBabel11261919403D

 18 17  0  0  0  0  0  0  0  0999 V2000
   -1.5129   -0.0898   -0.0177 C   0  0  0  0  0  0  0  0  0  0  0  0
   -2.8777   -0.1671    0.0953 N   0  0  0  0  0  0  0  0  0  0  0  0
   -3.9943   -0.1669    0.1901 N   0  0  0  0  0  0  0  0  0  0  0  0
   -0.9854    1.2240   -0.0112 C   0  0  0  0  0  0  0  0  0  0  0  0
    0.4050    1.2354   -0.1282 C   0  0  0  0  0  0  0  0  0  0  0  0
    1.1771    0.0645   -0.2377 C   0  0  0  0  0  0  0  0  0  0  0  0
    2.5089    0.2407   -0.3413 O   0  0  0  0  0  0  0  0  0  0  0  0
    3.3714   -0.8891   -0.4524 C   0  0  0  0  0  0  0  0  0  0  0  0
    0.5668   -1.2216   -0.2362 C   0  0  0  0  0  0  0  0  0  0  0  0
   -0.8010   -1.3117   -0.1249 C   0  0  0  0  0  0  0  0  0  0  0  0
   -2.1525    2.5747    0.1360 H   0  0  0  0  0  0  0  0  0  0  0  0
    0.9509    2.1769   -0.1374 H   0  0  0  0  0  0  0  0  0  0  0  0
    4.3813   -0.4837   -0.5152 H   0  0  0  0  0  0  0  0  0  0  0  0
    3.1575   -1.4691   -1.3578 H   0  0  0  0  0  0  0  0  0  0  0  0
    3.2955   -1.5384    0.4277 H   0  0  0  0  0  0  0  0  0  0  0  0
    1.1594   -2.1235   -0.3203 H   0  0  0  0  0  0  0  0  0  0  0  0
   -1.3058   -2.2738   -0.1199 H   0  0  0  0  0  0  0  0  0  0  0  0
   -3.2148    3.4816    0.2560 Cl  0  0  0  0  0  0  0  0  0  0  0  0
  1  4  1  0  0  0  0
  1  2  1  0  0  0  0
  2  3  1  0  0  0  0
  5  4  2  0  0  0  0
  6  9  2  0  0  0  0
  6  5  1  0  0  0  0
  7  6  1  0  0  0  0
  8  7  1  0  0  0  0
  8 15  1  0  0  0  0
  9 10  1  0  0  0  0
 10 17  1  0  0  0  0
 10  1  2  0  0  0  0
 11 18  1  0  0  0  0
 12  5  1  0  0  0  0
 13  8  1  0  0  0  0
 14  8  1  0  0  0  0
 16  9  1  0  0  0  0
M  RAD  3   2   2   3   3   4   2
M  END
