Coordinates from ORCA-job 4-MeOPhN2+~Cl-_B3LYPG-6-31G_dp-CH-Scan-d09-49-n800
 OpenBabel11261919403D

 18 17  0  0  0  0  0  0  0  0999 V2000
   -1.5382   -0.0281   -0.0157 C   0  0  0  0  0  0  0  0  0  0  0  0
   -2.9272   -0.1058    0.0975 N   0  0  0  0  0  0  0  0  0  0  0  0
   -3.9250    0.4702    0.2043 N   0  0  0  0  0  0  0  0  0  0  0  0
   -0.9051    1.2249   -0.0201 C   0  0  0  0  0  0  0  0  0  0  0  0
    0.4681    1.2741   -0.1325 C   0  0  0  0  0  0  0  0  0  0  0  0
    1.2122    0.0794   -0.2399 C   0  0  0  0  0  0  0  0  0  0  0  0
    2.5480    0.2374   -0.3439 O   0  0  0  0  0  0  0  0  0  0  0  0
    3.3804   -0.9144   -0.4528 C   0  0  0  0  0  0  0  0  0  0  0  0
    0.5637   -1.1724   -0.2342 C   0  0  0  0  0  0  0  0  0  0  0  0
   -0.8180   -1.2255   -0.1216 C   0  0  0  0  0  0  0  0  0  0  0  0
   -1.7693    2.3083    0.0953 H   0  0  0  0  0  0  0  0  0  0  0  0
    1.0052    2.2164   -0.1406 H   0  0  0  0  0  0  0  0  0  0  0  0
    4.4008   -0.5365   -0.5183 H   0  0  0  0  0  0  0  0  0  0  0  0
    3.1482   -1.4913   -1.3558 H   0  0  0  0  0  0  0  0  0  0  0  0
    3.2868   -1.5589    0.4292 H   0  0  0  0  0  0  0  0  0  0  0  0
    1.1277   -2.0928   -0.3159 H   0  0  0  0  0  0  0  0  0  0  0  0
   -1.3413   -2.1762   -0.1148 H   0  0  0  0  0  0  0  0  0  0  0  0
   -3.7876    2.7546    0.2848 Cl  0  0  0  0  0  0  0  0  0  0  0  0
  1  2  1  0  0  0  0
  2  3  2  0  0  0  0
  4  1  1  0  0  0  0
  4 11  1  0  0  0  0
  5  4  2  0  0  0  0
  6  9  2  0  0  0  0
  6  5  1  0  0  0  0
  7  6  1  0  0  0  0
  8  7  1  0  0  0  0
  8 15  1  0  0  0  0
  9 10  1  0  0  0  0
 10 17  1  0  0  0  0
 10  1  2  0  0  0  0
 12  5  1  0  0  0  0
 13  8  1  0  0  0  0
 14  8  1  0  0  0  0
 16  9  1  0  0  0  0
M  RAD  2   3   2  18   2
M  END
