Coordinates from ORCA-job 4-MeOPhN2+~Cl-_B3LYPG-6-31G_dp-CH-Scan-d09-49-n800
 OpenBabel11261919403D

 18 17  0  0  0  0  0  0  0  0999 V2000
   -1.4046   -0.4720   -0.0566 C   0  0  0  0  0  0  0  0  0  0  0  0
   -2.7671   -0.6352    0.0469 N   0  0  0  0  0  0  0  0  0  0  0  0
   -3.8852   -0.6992    0.1333 N   0  0  0  0  0  0  0  0  0  0  0  0
   -1.0056    0.8860   -0.0532 C   0  0  0  0  0  0  0  0  0  0  0  0
    0.3957    0.9703   -0.1628 C   0  0  0  0  0  0  0  0  0  0  0  0
    1.2478   -0.1406   -0.2596 C   0  0  0  0  0  0  0  0  0  0  0  0
    2.5720    0.1250   -0.3583 O   0  0  0  0  0  0  0  0  0  0  0  0
    3.5046   -0.9446   -0.4588 C   0  0  0  0  0  0  0  0  0  0  0  0
    0.7348   -1.4716   -0.2525 C   0  0  0  0  0  0  0  0  0  0  0  0
   -0.6229   -1.6553   -0.1491 C   0  0  0  0  0  0  0  0  0  0  0  0
   -3.1760    4.4795    0.3149 H   0  0  0  0  0  0  0  0  0  0  0  0
    0.8909    1.9422   -0.1768 H   0  0  0  0  0  0  0  0  0  0  0  0
    4.4876   -0.4769   -0.5234 H   0  0  0  0  0  0  0  0  0  0  0  0
    3.3334   -1.5471   -1.3593 H   0  0  0  0  0  0  0  0  0  0  0  0
    3.4724   -1.5934    0.4252 H   0  0  0  0  0  0  0  0  0  0  0  0
    1.3923   -2.3283   -0.3261 H   0  0  0  0  0  0  0  0  0  0  0  0
   -1.0627   -2.6499   -0.1395 H   0  0  0  0  0  0  0  0  0  0  0  0
   -3.9781    5.4746    0.4608 Cl  0  0  0  0  0  0  0  0  0  0  0  0
  1  4  1  0  0  0  0
  1  2  1  0  0  0  0
  2  3  1  0  0  0  0
  5  4  2  0  0  0  0
  6  9  2  0  0  0  0
  6  5  1  0  0  0  0
  7  6  1  0  0  0  0
  8  7  1  0  0  0  0
  8 15  1  0  0  0  0
  9 10  1  0  0  0  0
 10 17  1  0  0  0  0
 10  1  2  0  0  0  0
 11 18  1  0  0  0  0
 12  5  1  0  0  0  0
 13  8  1  0  0  0  0
 14  8  1  0  0  0  0
 16  9  1  0  0  0  0
M  RAD  3   2   2   3   3   4   2
M  END
