Coordinates from ORCA-job 4-MeOPhN2+~Cl-_B3LYPG-6-31G_dp-CH-Scan-d09-49-n800
 OpenBabel11261919403D

 18 17  0  0  0  0  0  0  0  0999 V2000
   -1.5036   -0.1098   -0.0193 C   0  0  0  0  0  0  0  0  0  0  0  0
   -2.8678   -0.1944    0.0933 N   0  0  0  0  0  0  0  0  0  0  0  0
   -3.9850   -0.2066    0.1876 N   0  0  0  0  0  0  0  0  0  0  0  0
   -0.9867    1.2091   -0.0120 C   0  0  0  0  0  0  0  0  0  0  0  0
    0.4062    1.2192   -0.1293 C   0  0  0  0  0  0  0  0  0  0  0  0
    1.1823    0.0518   -0.2388 C   0  0  0  0  0  0  0  0  0  0  0  0
    2.5146    0.2321   -0.3422 O   0  0  0  0  0  0  0  0  0  0  0  0
    3.3800   -0.8949   -0.4532 C   0  0  0  0  0  0  0  0  0  0  0  0
    0.5775   -1.2374   -0.2377 C   0  0  0  0  0  0  0  0  0  0  0  0
   -0.7895   -1.3317   -0.1266 C   0  0  0  0  0  0  0  0  0  0  0  0
   -2.2432    2.6999    0.1485 H   0  0  0  0  0  0  0  0  0  0  0  0
    0.9525    2.1609   -0.1386 H   0  0  0  0  0  0  0  0  0  0  0  0
    4.3890   -0.4870   -0.5159 H   0  0  0  0  0  0  0  0  0  0  0  0
    3.1683   -1.4759   -1.3586 H   0  0  0  0  0  0  0  0  0  0  0  0
    3.3063   -1.5450    0.4266 H   0  0  0  0  0  0  0  0  0  0  0  0
    1.1736   -2.1371   -0.3218 H   0  0  0  0  0  0  0  0  0  0  0  0
   -1.2917   -2.2953   -0.1218 H   0  0  0  0  0  0  0  0  0  0  0  0
   -3.2534    3.6054    0.2646 Cl  0  0  0  0  0  0  0  0  0  0  0  0
  1  4  1  0  0  0  0
  1  2  1  0  0  0  0
  2  3  1  0  0  0  0
  5  4  2  0  0  0  0
  6  9  2  0  0  0  0
  6  5  1  0  0  0  0
  7  6  1  0  0  0  0
  8  7  1  0  0  0  0
  8 15  1  0  0  0  0
  9 10  1  0  0  0  0
 10 17  1  0  0  0  0
 10  1  2  0  0  0  0
 11 18  1  0  0  0  0
 12  5  1  0  0  0  0
 13  8  1  0  0  0  0
 14  8  1  0  0  0  0
 16  9  1  0  0  0  0
M  RAD  3   2   2   3   3   4   2
M  END
