Coordinates from ORCA-job 4-MeOPhN2+~Cl-_B3LYPG-6-31G_dp-CH-Scan-d09-49-n800
 OpenBabel11261919403D

 18 17  0  0  0  0  0  0  0  0999 V2000
   -1.4060   -0.5862   -0.0717 C   0  0  0  0  0  0  0  0  0  0  0  0
   -2.7643   -0.7879    0.0275 N   0  0  0  0  0  0  0  0  0  0  0  0
   -3.8807   -0.8814    0.1096 N   0  0  0  0  0  0  0  0  0  0  0  0
   -1.0494    0.7828   -0.0783 C   0  0  0  0  0  0  0  0  0  0  0  0
    0.3494    0.9095   -0.1831 C   0  0  0  0  0  0  0  0  0  0  0  0
    1.2353   -0.1758   -0.2670 C   0  0  0  0  0  0  0  0  0  0  0  0
    2.5515    0.1290   -0.3635 O   0  0  0  0  0  0  0  0  0  0  0  0
    3.5160   -0.9128   -0.4526 C   0  0  0  0  0  0  0  0  0  0  0  0
    0.7630   -1.5217   -0.2501 C   0  0  0  0  0  0  0  0  0  0  0  0
   -0.5889   -1.7462   -0.1505 C   0  0  0  0  0  0  0  0  0  0  0  0
   -3.2431    4.8596    0.3539 H   0  0  0  0  0  0  0  0  0  0  0  0
    0.8149    1.8958   -0.2037 H   0  0  0  0  0  0  0  0  0  0  0  0
    4.4845   -0.4163   -0.5211 H   0  0  0  0  0  0  0  0  0  0  0  0
    3.3640   -1.5293   -1.3470 H   0  0  0  0  0  0  0  0  0  0  0  0
    3.5028   -1.5533    0.4380 H   0  0  0  0  0  0  0  0  0  0  0  0
    1.4466   -2.3586   -0.3135 H   0  0  0  0  0  0  0  0  0  0  0  0
   -0.9981   -2.7537   -0.1338 H   0  0  0  0  0  0  0  0  0  0  0  0
   -3.9684    5.9100    0.5118 Cl  0  0  0  0  0  0  0  0  0  0  0  0
  1  2  1  0  0  0  0
  2  3  1  0  0  0  0
  4  1  1  0  0  0  0
  5  4  2  0  0  0  0
  6  9  2  0  0  0  0
  6  5  1  0  0  0  0
  7  6  1  0  0  0  0
  8  7  1  0  0  0  0
  8 15  1  0  0  0  0
  9 10  1  0  0  0  0
 10 17  1  0  0  0  0
 10  1  2  0  0  0  0
 11 18  1  0  0  0  0
 12  5  1  0  0  0  0
 13  8  1  0  0  0  0
 14  8  1  0  0  0  0
 16  9  1  0  0  0  0
M  RAD  3   2   2   3   3   4   2
M  END
