Coordinates from ORCA-job 4-MeOPhN2+~Cl-_B3LYPG-6-31G_dp-CH-Scan-d09-49-n800
 OpenBabel11261919403D

 18 17  0  0  0  0  0  0  0  0999 V2000
   -1.5154   -0.0846   -0.0173 C   0  0  0  0  0  0  0  0  0  0  0  0
   -2.8804   -0.1594    0.0957 N   0  0  0  0  0  0  0  0  0  0  0  0
   -3.9968   -0.1545    0.1907 N   0  0  0  0  0  0  0  0  0  0  0  0
   -0.9846    1.2276   -0.0113 C   0  0  0  0  0  0  0  0  0  0  0  0
    0.4050    1.2398   -0.1281 C   0  0  0  0  0  0  0  0  0  0  0  0
    1.1759    0.0678   -0.2375 C   0  0  0  0  0  0  0  0  0  0  0  0
    2.5075    0.2428   -0.3411 O   0  0  0  0  0  0  0  0  0  0  0  0
    3.3693   -0.8877   -0.4521 C   0  0  0  0  0  0  0  0  0  0  0  0
    0.5640   -1.2173   -0.2358 C   0  0  0  0  0  0  0  0  0  0  0  0
   -0.8040   -1.3063   -0.1244 C   0  0  0  0  0  0  0  0  0  0  0  0
   -2.1265    2.5406    0.1327 H   0  0  0  0  0  0  0  0  0  0  0  0
    0.9505    2.1813   -0.1373 H   0  0  0  0  0  0  0  0  0  0  0  0
    4.3794   -0.4830   -0.5150 H   0  0  0  0  0  0  0  0  0  0  0  0
    3.1547   -1.4675   -1.3575 H   0  0  0  0  0  0  0  0  0  0  0  0
    3.2928   -1.5367    0.4281 H   0  0  0  0  0  0  0  0  0  0  0  0
    1.1556   -2.1199   -0.3198 H   0  0  0  0  0  0  0  0  0  0  0  0
   -1.3095   -2.2680   -0.1193 H   0  0  0  0  0  0  0  0  0  0  0  0
   -3.2080    3.4483    0.2545 Cl  0  0  0  0  0  0  0  0  0  0  0  0
  1  4  1  0  0  0  0
  1  2  1  0  0  0  0
  2  3  1  0  0  0  0
  5  4  2  0  0  0  0
  6  9  2  0  0  0  0
  6  5  1  0  0  0  0
  7  6  1  0  0  0  0
  8  7  1  0  0  0  0
  8 15  1  0  0  0  0
  9 10  1  0  0  0  0
 10 17  1  0  0  0  0
 10  1  2  0  0  0  0
 11 18  1  0  0  0  0
 12  5  1  0  0  0  0
 13  8  1  0  0  0  0
 14  8  1  0  0  0  0
 16  9  1  0  0  0  0
M  RAD  3   2   2   3   3   4   2
M  END
