Coordinates from ORCA-job 4-MeOPhN2+~Cl-_B3LYPG-6-31G_dp-CH-Scan-d09-49-n800
 OpenBabel11261919403D

 18 17  0  0  0  0  0  0  0  0999 V2000
   -1.5121   -0.0767   -0.0193 C   0  0  0  0  0  0  0  0  0  0  0  0
   -2.8951   -0.0862    0.0968 N   0  0  0  0  0  0  0  0  0  0  0  0
   -3.9435    0.3154    0.2009 N   0  0  0  0  0  0  0  0  0  0  0  0
   -0.9579    1.2160   -0.0156 C   0  0  0  0  0  0  0  0  0  0  0  0
    0.4244    1.2525   -0.1294 C   0  0  0  0  0  0  0  0  0  0  0  0
    1.1872    0.0716   -0.2382 C   0  0  0  0  0  0  0  0  0  0  0  0
    2.5200    0.2449   -0.3410 O   0  0  0  0  0  0  0  0  0  0  0  0
    3.3751   -0.8903   -0.4516 C   0  0  0  0  0  0  0  0  0  0  0  0
    0.5672   -1.2042   -0.2361 C   0  0  0  0  0  0  0  0  0  0  0  0
   -0.8071   -1.2883   -0.1250 C   0  0  0  0  0  0  0  0  0  0  0  0
   -2.0337    2.3180    0.1178 H   0  0  0  0  0  0  0  0  0  0  0  0
    0.9645    2.1956   -0.1375 H   0  0  0  0  0  0  0  0  0  0  0  0
    4.3877   -0.4918   -0.5144 H   0  0  0  0  0  0  0  0  0  0  0  0
    3.1568   -1.4692   -1.3567 H   0  0  0  0  0  0  0  0  0  0  0  0
    3.2941   -1.5387    0.4287 H   0  0  0  0  0  0  0  0  0  0  0  0
    1.1542   -2.1098   -0.3194 H   0  0  0  0  0  0  0  0  0  0  0  0
   -1.3169   -2.2470   -0.1197 H   0  0  0  0  0  0  0  0  0  0  0  0
   -3.4354    3.0516    0.2646 Cl  0  0  0  0  0  0  0  0  0  0  0  0
  1  4  1  0  0  0  0
  1  2  1  0  0  0  0
  2  3  1  0  0  0  0
  5  4  2  0  0  0  0
  6  9  2  0  0  0  0
  6  5  1  0  0  0  0
  7  6  1  0  0  0  0
  8  7  1  0  0  0  0
  8 15  1  0  0  0  0
  9 10  1  0  0  0  0
 10 17  1  0  0  0  0
 10  1  2  0  0  0  0
 11 18  1  0  0  0  0
 12  5  1  0  0  0  0
 13  8  1  0  0  0  0
 14  8  1  0  0  0  0
 16  9  1  0  0  0  0
M  RAD  3   2   2   3   3   4   2
M  END
