Coordinates from ORCA-job 4-MeOPhN2+~Cl-_B3LYPG-6-31G_dp-CH-Scan-d09-49-n800
 OpenBabel11261919403D

 18 17  0  0  0  0  0  0  0  0999 V2000
   -1.4046   -0.5561   -0.0625 C   0  0  0  0  0  0  0  0  0  0  0  0
   -2.7641   -0.7472    0.0386 N   0  0  0  0  0  0  0  0  0  0  0  0
   -3.8810   -0.8325    0.1230 N   0  0  0  0  0  0  0  0  0  0  0  0
   -1.0358    0.8099   -0.0583 C   0  0  0  0  0  0  0  0  0  0  0  0
    0.3638    0.9250   -0.1656 C   0  0  0  0  0  0  0  0  0  0  0  0
    1.2398   -0.1672   -0.2611 C   0  0  0  0  0  0  0  0  0  0  0  0
    2.5584    0.1269   -0.3579 O   0  0  0  0  0  0  0  0  0  0  0  0
    3.5137   -0.9226   -0.4574 C   0  0  0  0  0  0  0  0  0  0  0  0
    0.7558   -1.5090   -0.2548 C   0  0  0  0  0  0  0  0  0  0  0  0
   -0.5978   -1.7224   -0.1536 C   0  0  0  0  0  0  0  0  0  0  0  0
   -3.2303    4.7643    0.3344 H   0  0  0  0  0  0  0  0  0  0  0  0
    0.8379    1.9074   -0.1786 H   0  0  0  0  0  0  0  0  0  0  0  0
    4.4864   -0.4340   -0.5223 H   0  0  0  0  0  0  0  0  0  0  0  0
    3.3554   -1.5295   -1.3572 H   0  0  0  0  0  0  0  0  0  0  0  0
    3.4955   -1.5710    0.4274 H   0  0  0  0  0  0  0  0  0  0  0  0
    1.4319   -2.3513   -0.3273 H   0  0  0  0  0  0  0  0  0  0  0  0
   -1.0159   -2.7264   -0.1448 H   0  0  0  0  0  0  0  0  0  0  0  0
   -3.9797    5.7991    0.4827 Cl  0  0  0  0  0  0  0  0  0  0  0  0
  1  4  1  0  0  0  0
  1  2  1  0  0  0  0
  2  3  1  0  0  0  0
  5  4  2  0  0  0  0
  6  9  2  0  0  0  0
  6  5  1  0  0  0  0
  7  6  1  0  0  0  0
  8  7  1  0  0  0  0
  8 15  1  0  0  0  0
  9 10  1  0  0  0  0
 10 17  1  0  0  0  0
 10  1  2  0  0  0  0
 11 18  1  0  0  0  0
 12  5  1  0  0  0  0
 13  8  1  0  0  0  0
 14  8  1  0  0  0  0
 16  9  1  0  0  0  0
M  RAD  3   2   2   3   3   4   2
M  END
