Coordinates from ORCA-job 4-MeOPhN2+~Cl-_B3LYPG-6-31G_dp-CH-Scan-d09-49-n800
 OpenBabel11261919403D

 18 17  0  0  0  0  0  0  0  0999 V2000
   -1.4922   -0.1307   -0.0221 C   0  0  0  0  0  0  0  0  0  0  0  0
   -2.8560   -0.2203    0.0902 N   0  0  0  0  0  0  0  0  0  0  0  0
   -3.9736   -0.2391    0.1841 N   0  0  0  0  0  0  0  0  0  0  0  0
   -0.9838    1.1919   -0.0148 C   0  0  0  0  0  0  0  0  0  0  0  0
    0.4111    1.2017   -0.1321 C   0  0  0  0  0  0  0  0  0  0  0  0
    1.1906    0.0371   -0.2407 C   0  0  0  0  0  0  0  0  0  0  0  0
    2.5234    0.2208   -0.3440 O   0  0  0  0  0  0  0  0  0  0  0  0
    3.3911   -0.9040   -0.4540 C   0  0  0  0  0  0  0  0  0  0  0  0
    0.5903   -1.2547   -0.2392 C   0  0  0  0  0  0  0  0  0  0  0  0
   -0.7761   -1.3525   -0.1284 C   0  0  0  0  0  0  0  0  0  0  0  0
   -2.3433    2.8370    0.1632 H   0  0  0  0  0  0  0  0  0  0  0  0
    0.9574    2.1438   -0.1420 H   0  0  0  0  0  0  0  0  0  0  0  0
    4.3993   -0.4941   -0.5167 H   0  0  0  0  0  0  0  0  0  0  0  0
    3.1813   -1.4865   -1.3588 H   0  0  0  0  0  0  0  0  0  0  0  0
    3.3190   -1.5539    0.4262 H   0  0  0  0  0  0  0  0  0  0  0  0
    1.1894   -2.1524   -0.3226 H   0  0  0  0  0  0  0  0  0  0  0  0
   -1.2761   -2.3175   -0.1231 H   0  0  0  0  0  0  0  0  0  0  0  0
   -3.3224    3.7367    0.2797 Cl  0  0  0  0  0  0  0  0  0  0  0  0
  1  4  1  0  0  0  0
  1  2  1  0  0  0  0
  2  3  1  0  0  0  0
  5  4  2  0  0  0  0
  6  9  2  0  0  0  0
  6  5  1  0  0  0  0
  7  6  1  0  0  0  0
  8  7  1  0  0  0  0
  8 15  1  0  0  0  0
  9 10  1  0  0  0  0
 10 17  1  0  0  0  0
 10  1  2  0  0  0  0
 11 18  1  0  0  0  0
 12  5  1  0  0  0  0
 13  8  1  0  0  0  0
 14  8  1  0  0  0  0
 16  9  1  0  0  0  0
M  RAD  3   2   2   3   3   4   2
M  END
