Coordinates from ORCA-job 4-MeOPhN2+~Cl-_B3LYPG-6-31G_dp-CH-Scan-d09-49-n800
 OpenBabel11261919403D

 18 17  0  0  0  0  0  0  0  0999 V2000
   -1.4038   -0.5236   -0.0586 C   0  0  0  0  0  0  0  0  0  0  0  0
   -2.7647   -0.7033    0.0432 N   0  0  0  0  0  0  0  0  0  0  0  0
   -3.8822   -0.7798    0.1287 N   0  0  0  0  0  0  0  0  0  0  0  0
   -1.0228    0.8391   -0.0521 C   0  0  0  0  0  0  0  0  0  0  0  0
    0.3775    0.9421   -0.1601 C   0  0  0  0  0  0  0  0  0  0  0  0
    1.2439   -0.1576   -0.2590 C   0  0  0  0  0  0  0  0  0  0  0  0
    2.5648    0.1252   -0.3567 O   0  0  0  0  0  0  0  0  0  0  0  0
    3.5108   -0.9324   -0.4593 C   0  0  0  0  0  0  0  0  0  0  0  0
    0.7480   -1.4951   -0.2549 C   0  0  0  0  0  0  0  0  0  0  0  0
   -0.6072   -1.6967   -0.1528 C   0  0  0  0  0  0  0  0  0  0  0  0
   -3.2128    4.6593    0.3238 H   0  0  0  0  0  0  0  0  0  0  0  0
    0.8603    1.9203   -0.1716 H   0  0  0  0  0  0  0  0  0  0  0  0
    4.4878   -0.4521   -0.5236 H   0  0  0  0  0  0  0  0  0  0  0  0
    3.3468   -1.5357   -1.3605 H   0  0  0  0  0  0  0  0  0  0  0  0
    3.4873   -1.5828    0.4238 H   0  0  0  0  0  0  0  0  0  0  0  0
    1.4166   -2.3431   -0.3298 H   0  0  0  0  0  0  0  0  0  0  0  0
   -1.0341   -2.6969   -0.1454 H   0  0  0  0  0  0  0  0  0  0  0  0
   -3.9868    5.6763    0.4698 Cl  0  0  0  0  0  0  0  0  0  0  0  0
  1  4  1  0  0  0  0
  1  2  1  0  0  0  0
  2  3  1  0  0  0  0
  5  4  2  0  0  0  0
  6  9  2  0  0  0  0
  6  5  1  0  0  0  0
  7  6  1  0  0  0  0
  8  7  1  0  0  0  0
  8 15  1  0  0  0  0
  9 10  1  0  0  0  0
 10 17  1  0  0  0  0
 10  1  2  0  0  0  0
 11 18  1  0  0  0  0
 12  5  1  0  0  0  0
 13  8  1  0  0  0  0
 14  8  1  0  0  0  0
 16  9  1  0  0  0  0
M  RAD  3   2   2   3   3   4   2
M  END
