Coordinates from ORCA-job 4-MeOPhN2+~Cl-_B3LYPG-6-31G_dp-CH-Scan-d09-49-n800
 OpenBabel11261919403D

 18 17  0  0  0  0  0  0  0  0999 V2000
   -1.4589   -0.2192   -0.0315 C   0  0  0  0  0  0  0  0  0  0  0  0
   -2.8223   -0.3272    0.0789 N   0  0  0  0  0  0  0  0  0  0  0  0
   -3.9405   -0.3622    0.1712 N   0  0  0  0  0  0  0  0  0  0  0  0
   -0.9802    1.1149   -0.0249 C   0  0  0  0  0  0  0  0  0  0  0  0
    0.4188    1.1362   -0.1410 C   0  0  0  0  0  0  0  0  0  0  0  0
    1.2149   -0.0160   -0.2466 C   0  0  0  0  0  0  0  0  0  0  0  0
    2.5473    0.1855   -0.3490 O   0  0  0  0  0  0  0  0  0  0  0  0
    3.4288   -0.9276   -0.4565 C   0  0  0  0  0  0  0  0  0  0  0  0
    0.6349   -1.3182   -0.2438 C   0  0  0  0  0  0  0  0  0  0  0  0
   -0.7296   -1.4349   -0.1346 C   0  0  0  0  0  0  0  0  0  0  0  0
   -2.6493    3.3159    0.2114 H   0  0  0  0  0  0  0  0  0  0  0  0
    0.9569    2.0838   -0.1525 H   0  0  0  0  0  0  0  0  0  0  0  0
    4.4323   -0.5057   -0.5193 H   0  0  0  0  0  0  0  0  0  0  0  0
    3.2279   -1.5151   -1.3604 H   0  0  0  0  0  0  0  0  0  0  0  0
    3.3653   -1.5779    0.4243 H   0  0  0  0  0  0  0  0  0  0  0  0
    1.2478   -2.2068   -0.3249 H   0  0  0  0  0  0  0  0  0  0  0  0
   -1.2168   -2.4068   -0.1283 H   0  0  0  0  0  0  0  0  0  0  0  0
   -3.5479    4.2447    0.3324 Cl  0  0  0  0  0  0  0  0  0  0  0  0
  1  4  1  0  0  0  0
  1  2  1  0  0  0  0
  2  3  1  0  0  0  0
  5  4  2  0  0  0  0
  6  9  2  0  0  0  0
  6  5  1  0  0  0  0
  7  6  1  0  0  0  0
  8  7  1  0  0  0  0
  8 15  1  0  0  0  0
  9 10  1  0  0  0  0
 10 17  1  0  0  0  0
 10  1  2  0  0  0  0
 11 18  1  0  0  0  0
 12  5  1  0  0  0  0
 13  8  1  0  0  0  0
 14  8  1  0  0  0  0
 16  9  1  0  0  0  0
M  RAD  3   2   2   3   3   4   2
M  END
