Coordinates from ORCA-job 4-MeOPhN2+~Cl-_B3LYPG-6-31G_dp-CH-Scan-d09-49-n800
 OpenBabel11261919403D

 18 17  0  0  0  0  0  0  0  0999 V2000
   -1.5107   -0.0946   -0.0180 C   0  0  0  0  0  0  0  0  0  0  0  0
   -2.8753   -0.1739    0.0949 N   0  0  0  0  0  0  0  0  0  0  0  0
   -3.9921   -0.1774    0.1895 N   0  0  0  0  0  0  0  0  0  0  0  0
   -0.9860    1.2206   -0.0113 C   0  0  0  0  0  0  0  0  0  0  0  0
    0.4051    1.2315   -0.1283 C   0  0  0  0  0  0  0  0  0  0  0  0
    1.1782    0.0615   -0.2379 C   0  0  0  0  0  0  0  0  0  0  0  0
    2.5101    0.2387   -0.3414 O   0  0  0  0  0  0  0  0  0  0  0  0
    3.3734   -0.8904   -0.4526 C   0  0  0  0  0  0  0  0  0  0  0  0
    0.5693   -1.2254   -0.2366 C   0  0  0  0  0  0  0  0  0  0  0  0
   -0.7982   -1.3166   -0.1253 C   0  0  0  0  0  0  0  0  0  0  0  0
   -2.1750    2.6051    0.1390 H   0  0  0  0  0  0  0  0  0  0  0  0
    0.9512    2.1730   -0.1375 H   0  0  0  0  0  0  0  0  0  0  0  0
    4.3830   -0.4844   -0.5154 H   0  0  0  0  0  0  0  0  0  0  0  0
    3.1600   -1.4705   -1.3580 H   0  0  0  0  0  0  0  0  0  0  0  0
    3.2980   -1.5399    0.4274 H   0  0  0  0  0  0  0  0  0  0  0  0
    1.1628   -2.1267   -0.3208 H   0  0  0  0  0  0  0  0  0  0  0  0
   -1.3024   -2.2790   -0.1204 H   0  0  0  0  0  0  0  0  0  0  0  0
   -3.2222    3.5117    0.2576 Cl  0  0  0  0  0  0  0  0  0  0  0  0
  1  4  1  0  0  0  0
  1  2  1  0  0  0  0
  2  3  1  0  0  0  0
  5  4  2  0  0  0  0
  6  9  2  0  0  0  0
  6  5  1  0  0  0  0
  7  6  1  0  0  0  0
  8  7  1  0  0  0  0
  8 15  1  0  0  0  0
  9 10  1  0  0  0  0
 10 17  1  0  0  0  0
 10  1  2  0  0  0  0
 11 18  1  0  0  0  0
 12  5  1  0  0  0  0
 13  8  1  0  0  0  0
 14  8  1  0  0  0  0
 16  9  1  0  0  0  0
M  RAD  3   2   2   3   3   4   2
M  END
