Coordinates from ORCA-job 4-MeOPhN2+~Cl-_B3LYPG-6-31G_dp-CH-Scan-d09-49-n800
 OpenBabel11261919403D

 18 18  0  0  0  0  0  0  0  0999 V2000
   -1.5592    0.0141   -0.0156 C   0  0  0  0  0  0  0  0  0  0  0  0
   -2.9458   -0.1190    0.0950 N   0  0  0  0  0  0  0  0  0  0  0  0
   -3.9531    0.4632    0.2081 N   0  0  0  0  0  0  0  0  0  0  0  0
   -0.9055    1.2635   -0.0236 C   0  0  0  0  0  0  0  0  0  0  0  0
    0.4714    1.2888   -0.1366 C   0  0  0  0  0  0  0  0  0  0  0  0
    1.2106    0.0934   -0.2412 C   0  0  0  0  0  0  0  0  0  0  0  0
    2.5477    0.2454   -0.3443 O   0  0  0  0  0  0  0  0  0  0  0  0
    3.3708   -0.9132   -0.4489 C   0  0  0  0  0  0  0  0  0  0  0  0
    0.5499   -1.1480   -0.2331 C   0  0  0  0  0  0  0  0  0  0  0  0
   -0.8333   -1.1799   -0.1208 C   0  0  0  0  0  0  0  0  0  0  0  0
   -1.5004    2.1852    0.0605 H   0  0  0  0  0  0  0  0  0  0  0  0
    1.0119    2.2292   -0.1463 H   0  0  0  0  0  0  0  0  0  0  0  0
    4.3944   -0.5443   -0.5138 H   0  0  0  0  0  0  0  0  0  0  0  0
    3.1350   -1.4908   -1.3506 H   0  0  0  0  0  0  0  0  0  0  0  0
    3.2702   -1.5548    0.4346 H   0  0  0  0  0  0  0  0  0  0  0  0
    1.1008   -2.0767   -0.3129 H   0  0  0  0  0  0  0  0  0  0  0  0
   -1.3667   -2.1245   -0.1124 H   0  0  0  0  0  0  0  0  0  0  0  0
   -3.8694    2.6318    0.3068 Cl  0  0  0  0  0  0  0  0  0  0  0  0
  1  2  1  0  0  0  0
  2  3  2  0  0  0  0
  3 18  1  0  0  0  0
  4  1  1  0  0  0  0
  4 11  1  0  0  0  0
  5  4  2  0  0  0  0
  6  9  2  0  0  0  0
  6  5  1  0  0  0  0
  7  6  1  0  0  0  0
  8  7  1  0  0  0  0
  8 15  1  0  0  0  0
  9 10  1  0  0  0  0
 10 17  1  0  0  0  0
 10  1  2  0  0  0  0
 12  5  1  0  0  0  0
 13  8  1  0  0  0  0
 14  8  1  0  0  0  0
 16  9  1  0  0  0  0
M  END
