Coordinates from ORCA-job 4-MeOPhN2+~Cl-_B3LYPG-6-31G_dp-CH-Scan-d09-49-n800
 OpenBabel11261919403D

 18 17  0  0  0  0  0  0  0  0999 V2000
   -1.4050   -0.5644   -0.0652 C   0  0  0  0  0  0  0  0  0  0  0  0
   -2.7641   -0.7586    0.0353 N   0  0  0  0  0  0  0  0  0  0  0  0
   -3.8809   -0.8464    0.1190 N   0  0  0  0  0  0  0  0  0  0  0  0
   -1.0397    0.8025   -0.0643 C   0  0  0  0  0  0  0  0  0  0  0  0
    0.3596    0.9207   -0.1709 C   0  0  0  0  0  0  0  0  0  0  0  0
    1.2385   -0.1696   -0.2629 C   0  0  0  0  0  0  0  0  0  0  0  0
    2.5564    0.1276   -0.3596 O   0  0  0  0  0  0  0  0  0  0  0  0
    3.5143   -0.9198   -0.4559 C   0  0  0  0  0  0  0  0  0  0  0  0
    0.7578   -1.5126   -0.2533 C   0  0  0  0  0  0  0  0  0  0  0  0
   -0.5953   -1.7290   -0.1526 C   0  0  0  0  0  0  0  0  0  0  0  0
   -3.2334    4.7906    0.3402 H   0  0  0  0  0  0  0  0  0  0  0  0
    0.8313    1.9042   -0.1862 H   0  0  0  0  0  0  0  0  0  0  0  0
    4.4859   -0.4289   -0.5220 H   0  0  0  0  0  0  0  0  0  0  0  0
    3.3578   -1.5296   -1.3541 H   0  0  0  0  0  0  0  0  0  0  0  0
    3.4975   -1.5658    0.4306 H   0  0  0  0  0  0  0  0  0  0  0  0
    1.4359   -2.3534   -0.3231 H   0  0  0  0  0  0  0  0  0  0  0  0
   -1.0110   -2.7340   -0.1414 H   0  0  0  0  0  0  0  0  0  0  0  0
   -3.9762    5.8298    0.4912 Cl  0  0  0  0  0  0  0  0  0  0  0  0
  1  4  1  0  0  0  0
  1  2  1  0  0  0  0
  2  3  1  0  0  0  0
  5  4  2  0  0  0  0
  6  9  2  0  0  0  0
  6  5  1  0  0  0  0
  7  6  1  0  0  0  0
  8  7  1  0  0  0  0
  8 15  1  0  0  0  0
  9 10  1  0  0  0  0
 10 17  1  0  0  0  0
 10  1  2  0  0  0  0
 11 18  1  0  0  0  0
 12  5  1  0  0  0  0
 13  8  1  0  0  0  0
 14  8  1  0  0  0  0
 16  9  1  0  0  0  0
M  RAD  3   2   2   3   3   4   2
M  END
