Coordinates from ORCA-job 4-MeOPhN2+~Cl-_B3LYPG-6-31G_dp-CH-Scan-d09-49-n800
 OpenBabel11261919403D

 18 17  0  0  0  0  0  0  0  0999 V2000
   -1.4069   -0.6088   -0.0783 C   0  0  0  0  0  0  0  0  0  0  0  0
   -2.7639   -0.8191    0.0192 N   0  0  0  0  0  0  0  0  0  0  0  0
   -3.8798   -0.9201    0.0996 N   0  0  0  0  0  0  0  0  0  0  0  0
   -1.0594    0.7627   -0.0929 C   0  0  0  0  0  0  0  0  0  0  0  0
    0.3389    0.8974   -0.1959 C   0  0  0  0  0  0  0  0  0  0  0  0
    1.2319   -0.1825   -0.2714 C   0  0  0  0  0  0  0  0  0  0  0  0
    2.5463    0.1304   -0.3677 O   0  0  0  0  0  0  0  0  0  0  0  0
    3.5177   -0.9056   -0.4491 C   0  0  0  0  0  0  0  0  0  0  0  0
    0.7685   -1.5314   -0.2467 C   0  0  0  0  0  0  0  0  0  0  0  0
   -0.5821   -1.7639   -0.1482 C   0  0  0  0  0  0  0  0  0  0  0  0
   -3.2540    4.9328    0.3679 H   0  0  0  0  0  0  0  0  0  0  0  0
    0.7979    1.8867   -0.2218 H   0  0  0  0  0  0  0  0  0  0  0  0
    4.4830   -0.4032   -0.5202 H   0  0  0  0  0  0  0  0  0  0  0  0
    3.3705   -1.5289   -1.3395 H   0  0  0  0  0  0  0  0  0  0  0  0
    3.5081   -1.5402    0.4457 H   0  0  0  0  0  0  0  0  0  0  0  0
    1.4576   -2.3642   -0.3035 H   0  0  0  0  0  0  0  0  0  0  0  0
   -0.9849   -2.7739   -0.1258 H   0  0  0  0  0  0  0  0  0  0  0  0
   -3.9600    5.9951    0.5335 Cl  0  0  0  0  0  0  0  0  0  0  0  0
  1  2  1  0  0  0  0
  2  3  1  0  0  0  0
  4  1  1  0  0  0  0
  5  4  2  0  0  0  0
  6  9  2  0  0  0  0
  6  5  1  0  0  0  0
  7  6  1  0  0  0  0
  8  7  1  0  0  0  0
  8 15  1  0  0  0  0
  9 10  1  0  0  0  0
 10 17  1  0  0  0  0
 10  1  2  0  0  0  0
 11 18  1  0  0  0  0
 12  5  1  0  0  0  0
 13  8  1  0  0  0  0
 14  8  1  0  0  0  0
 16  9  1  0  0  0  0
M  RAD  3   2   2   3   3   4   2
M  END
