Coordinates from ORCA-job 4-MeOPhN2+~Cl-_B3LYPG-6-31G_dp-CH-Scan-d09-49-n800
 OpenBabel11261919403D

 18 17  0  0  0  0  0  0  0  0999 V2000
   -1.4970   -0.1226   -0.0209 C   0  0  0  0  0  0  0  0  0  0  0  0
   -2.8609   -0.2105    0.0915 N   0  0  0  0  0  0  0  0  0  0  0  0
   -3.9783   -0.2274    0.1856 N   0  0  0  0  0  0  0  0  0  0  0  0
   -0.9855    1.1987   -0.0136 C   0  0  0  0  0  0  0  0  0  0  0  0
    0.4086    1.2087   -0.1308 C   0  0  0  0  0  0  0  0  0  0  0  0
    1.1870    0.0431   -0.2399 C   0  0  0  0  0  0  0  0  0  0  0  0
    2.5195    0.2256   -0.3433 O   0  0  0  0  0  0  0  0  0  0  0  0
    3.3864   -0.8999   -0.4536 C   0  0  0  0  0  0  0  0  0  0  0  0
    0.5850   -1.2478   -0.2386 C   0  0  0  0  0  0  0  0  0  0  0  0
   -0.7816   -1.3443   -0.1277 C   0  0  0  0  0  0  0  0  0  0  0  0
   -2.3026    2.7819    0.1572 H   0  0  0  0  0  0  0  0  0  0  0  0
    0.9549    2.1506   -0.1405 H   0  0  0  0  0  0  0  0  0  0  0  0
    4.3949   -0.4908   -0.5164 H   0  0  0  0  0  0  0  0  0  0  0  0
    3.1760   -1.4819   -1.3587 H   0  0  0  0  0  0  0  0  0  0  0  0
    3.3138   -1.5500    0.4264 H   0  0  0  0  0  0  0  0  0  0  0  0
    1.1830   -2.1462   -0.3223 H   0  0  0  0  0  0  0  0  0  0  0  0
   -1.2823   -2.3088   -0.1226 H   0  0  0  0  0  0  0  0  0  0  0  0
   -3.2915    3.6849    0.2733 Cl  0  0  0  0  0  0  0  0  0  0  0  0
  1  4  1  0  0  0  0
  1  2  1  0  0  0  0
  2  3  1  0  0  0  0
  5  4  2  0  0  0  0
  6  9  2  0  0  0  0
  6  5  1  0  0  0  0
  7  6  1  0  0  0  0
  8  7  1  0  0  0  0
  8 15  1  0  0  0  0
  9 10  1  0  0  0  0
 10 17  1  0  0  0  0
 10  1  2  0  0  0  0
 11 18  1  0  0  0  0
 12  5  1  0  0  0  0
 13  8  1  0  0  0  0
 14  8  1  0  0  0  0
 16  9  1  0  0  0  0
M  RAD  3   2   2   3   3   4   2
M  END
