Coordinates from ORCA-job 4-MeOPhN2+~Cl-_B3LYPG-6-31G_dp-CH-Scan-d09-49-n800
 OpenBabel11261919403D

 18 17  0  0  0  0  0  0  0  0999 V2000
   -1.4081   -0.4402   -0.0541 C   0  0  0  0  0  0  0  0  0  0  0  0
   -2.7712   -0.5947    0.0505 N   0  0  0  0  0  0  0  0  0  0  0  0
   -3.8896   -0.6526    0.1378 N   0  0  0  0  0  0  0  0  0  0  0  0
   -0.9990    0.9149   -0.0507 C   0  0  0  0  0  0  0  0  0  0  0  0
    0.4027    0.9895   -0.1613 C   0  0  0  0  0  0  0  0  0  0  0  0
    1.2469   -0.1275   -0.2587 C   0  0  0  0  0  0  0  0  0  0  0  0
    2.5728    0.1290   -0.3579 O   0  0  0  0  0  0  0  0  0  0  0  0
    3.4980   -0.9471   -0.4587 C   0  0  0  0  0  0  0  0  0  0  0  0
    0.7245   -1.4547   -0.2516 C   0  0  0  0  0  0  0  0  0  0  0  0
   -0.6343   -1.6288   -0.1474 C   0  0  0  0  0  0  0  0  0  0  0  0
   -3.1335    4.3489    0.3052 H   0  0  0  0  0  0  0  0  0  0  0  0
    0.9046    1.9578   -0.1755 H   0  0  0  0  0  0  0  0  0  0  0  0
    4.4842   -0.4861   -0.5230 H   0  0  0  0  0  0  0  0  0  0  0  0
    3.3227   -1.5480   -1.3594 H   0  0  0  0  0  0  0  0  0  0  0  0
    3.4611   -1.5959    0.4251 H   0  0  0  0  0  0  0  0  0  0  0  0
    1.3759   -2.3160   -0.3258 H   0  0  0  0  0  0  0  0  0  0  0  0
   -1.0812   -2.6203   -0.1379 H   0  0  0  0  0  0  0  0  0  0  0  0
   -3.9471    5.3352    0.4483 Cl  0  0  0  0  0  0  0  0  0  0  0  0
  1  4  1  0  0  0  0
  1  2  1  0  0  0  0
  2  3  1  0  0  0  0
  5  4  2  0  0  0  0
  6  9  2  0  0  0  0
  6  5  1  0  0  0  0
  7  6  1  0  0  0  0
  8  7  1  0  0  0  0
  8 15  1  0  0  0  0
  9 10  1  0  0  0  0
 10 17  1  0  0  0  0
 10  1  2  0  0  0  0
 11 18  1  0  0  0  0
 12  5  1  0  0  0  0
 13  8  1  0  0  0  0
 14  8  1  0  0  0  0
 16  9  1  0  0  0  0
M  RAD  3   2   2   3   3   4   2
M  END
