Coordinates from ORCA-job 4-MeOPhN2+~Cl-_B3LYPG-6-31G_dp-CH-Scan-d09-49-n800
 OpenBabel11261919403D

 18 17  0  0  0  0  0  0  0  0999 V2000
   -1.4472   -0.2420   -0.0343 C   0  0  0  0  0  0  0  0  0  0  0  0
   -2.8112   -0.3522    0.0757 N   0  0  0  0  0  0  0  0  0  0  0  0
   -3.9295   -0.3856    0.1689 N   0  0  0  0  0  0  0  0  0  0  0  0
   -0.9749    1.0940   -0.0279 C   0  0  0  0  0  0  0  0  0  0  0  0
    0.4249    1.1180   -0.1437 C   0  0  0  0  0  0  0  0  0  0  0  0
    1.2242   -0.0318   -0.2485 C   0  0  0  0  0  0  0  0  0  0  0  0
    2.5567    0.1731   -0.3506 O   0  0  0  0  0  0  0  0  0  0  0  0
    3.4407   -0.9376   -0.4575 C   0  0  0  0  0  0  0  0  0  0  0  0
    0.6483   -1.3360   -0.2453 C   0  0  0  0  0  0  0  0  0  0  0  0
   -0.7158   -1.4567   -0.1365 C   0  0  0  0  0  0  0  0  0  0  0  0
   -2.7413    3.4526    0.2254 H   0  0  0  0  0  0  0  0  0  0  0  0
    0.9613    2.0668   -0.1555 H   0  0  0  0  0  0  0  0  0  0  0  0
    4.4433   -0.5135   -0.5204 H   0  0  0  0  0  0  0  0  0  0  0  0
    3.2415   -1.5263   -1.3611 H   0  0  0  0  0  0  0  0  0  0  0  0
    3.3789   -1.5880    0.4235 H   0  0  0  0  0  0  0  0  0  0  0  0
    1.2641   -2.2227   -0.3258 H   0  0  0  0  0  0  0  0  0  0  0  0
   -1.2005   -2.4299   -0.1299 H   0  0  0  0  0  0  0  0  0  0  0  0
   -3.6340    4.3812    0.3483 Cl  0  0  0  0  0  0  0  0  0  0  0  0
  1  4  1  0  0  0  0
  1  2  1  0  0  0  0
  2  3  1  0  0  0  0
  5  4  2  0  0  0  0
  6  9  2  0  0  0  0
  6  5  1  0  0  0  0
  7  6  1  0  0  0  0
  8  7  1  0  0  0  0
  8 15  1  0  0  0  0
  9 10  1  0  0  0  0
 10 17  1  0  0  0  0
 10  1  2  0  0  0  0
 11 18  1  0  0  0  0
 12  5  1  0  0  0  0
 13  8  1  0  0  0  0
 14  8  1  0  0  0  0
 16  9  1  0  0  0  0
M  RAD  3   2   2   3   3   4   2
M  END
