Coordinates from ORCA-job 4-MeOPhN2+~Cl-_B3LYPG-6-31G_dp-CH-Scan-d09-49-n800
 OpenBabel11261919403D

 18 17  0  0  0  0  0  0  0  0999 V2000
   -1.4333   -0.3135   -0.0419 C   0  0  0  0  0  0  0  0  0  0  0  0
   -2.7972   -0.4398    0.0662 N   0  0  0  0  0  0  0  0  0  0  0  0
   -3.9158   -0.4824    0.1564 N   0  0  0  0  0  0  0  0  0  0  0  0
   -0.9851    1.0302   -0.0371 C   0  0  0  0  0  0  0  0  0  0  0  0
    0.4160    1.0720   -0.1511 C   0  0  0  0  0  0  0  0  0  0  0  0
    1.2319   -0.0660   -0.2526 C   0  0  0  0  0  0  0  0  0  0  0  0
    2.5624    0.1577   -0.3536 O   0  0  0  0  0  0  0  0  0  0  0  0
    3.4617   -0.9406   -0.4575 C   0  0  0  0  0  0  0  0  0  0  0  0
    0.6758   -1.3790   -0.2474 C   0  0  0  0  0  0  0  0  0  0  0  0
   -0.6866   -1.5192   -0.1403 C   0  0  0  0  0  0  0  0  0  0  0  0
   -2.8901    3.7679    0.2554 H   0  0  0  0  0  0  0  0  0  0  0  0
    0.9404    2.0279   -0.1644 H   0  0  0  0  0  0  0  0  0  0  0  0
    4.4584   -0.5030   -0.5208 H   0  0  0  0  0  0  0  0  0  0  0  0
    3.2714   -1.5342   -1.3599 H   0  0  0  0  0  0  0  0  0  0  0  0
    3.4087   -1.5902    0.4246 H   0  0  0  0  0  0  0  0  0  0  0  0
    1.3049   -2.2565   -0.3251 H   0  0  0  0  0  0  0  0  0  0  0  0
   -1.1576   -2.4993   -0.1323 H   0  0  0  0  0  0  0  0  0  0  0  0
   -3.7366    4.7314    0.3862 Cl  0  0  0  0  0  0  0  0  0  0  0  0
  1  4  1  0  0  0  0
  1  2  1  0  0  0  0
  2  3  1  0  0  0  0
  5  4  2  0  0  0  0
  6  9  2  0  0  0  0
  6  5  1  0  0  0  0
  7  6  1  0  0  0  0
  8  7  1  0  0  0  0
  8 15  1  0  0  0  0
  9 10  1  0  0  0  0
 10 17  1  0  0  0  0
 10  1  2  0  0  0  0
 11 18  1  0  0  0  0
 12  5  1  0  0  0  0
 13  8  1  0  0  0  0
 14  8  1  0  0  0  0
 16  9  1  0  0  0  0
M  RAD  3   2   2   3   3   4   2
M  END
