Coordinates from ORCA-job 4-MeOPhN2+~Cl-_B3LYPG-6-31G_dp-CH-Scan-d09-49-n800
 OpenBabel11261919403D

 18 18  0  0  0  0  0  0  0  0999 V2000
   -1.5671    0.0204   -0.0140 C   0  0  0  0  0  0  0  0  0  0  0  0
   -2.9538   -0.1201    0.0969 N   0  0  0  0  0  0  0  0  0  0  0  0
   -3.9553    0.4768    0.2093 N   0  0  0  0  0  0  0  0  0  0  0  0
   -0.9165    1.2731   -0.0212 C   0  0  0  0  0  0  0  0  0  0  0  0
    0.4617    1.2931   -0.1351 C   0  0  0  0  0  0  0  0  0  0  0  0
    1.2030    0.1000   -0.2406 C   0  0  0  0  0  0  0  0  0  0  0  0
    2.5401    0.2540   -0.3440 O   0  0  0  0  0  0  0  0  0  0  0  0
    3.3641   -0.9038   -0.4482 C   0  0  0  0  0  0  0  0  0  0  0  0
    0.5432   -1.1411   -0.2328 C   0  0  0  0  0  0  0  0  0  0  0  0
   -0.8402   -1.1723   -0.1199 C   0  0  0  0  0  0  0  0  0  0  0  0
   -1.4161    2.0720    0.0514 H   0  0  0  0  0  0  0  0  0  0  0  0
    1.0009    2.2345   -0.1441 H   0  0  0  0  0  0  0  0  0  0  0  0
    4.3875   -0.5342   -0.5131 H   0  0  0  0  0  0  0  0  0  0  0  0
    3.1290   -1.4820   -1.3498 H   0  0  0  0  0  0  0  0  0  0  0  0
    3.2640   -1.5453    0.4354 H   0  0  0  0  0  0  0  0  0  0  0  0
    1.0939   -2.0699   -0.3131 H   0  0  0  0  0  0  0  0  0  0  0  0
   -1.3738   -2.1167   -0.1116 H   0  0  0  0  0  0  0  0  0  0  0  0
   -3.8352    2.6247    0.2995 Cl  0  0  0  0  0  0  0  0  0  0  0  0
  1  2  1  0  0  0  0
  2  3  2  0  0  0  0
  3 18  1  0  0  0  0
  4  1  1  0  0  0  0
  4 11  1  0  0  0  0
  5  4  2  0  0  0  0
  6  9  2  0  0  0  0
  6  5  1  0  0  0  0
  7  6  1  0  0  0  0
  8  7  1  0  0  0  0
  8 15  1  0  0  0  0
  9 10  1  0  0  0  0
 10 17  1  0  0  0  0
 10  1  2  0  0  0  0
 12  5  1  0  0  0  0
 13  8  1  0  0  0  0
 14  8  1  0  0  0  0
 16  9  1  0  0  0  0
M  END
