Coordinates from ORCA-job 4-MeOPhN2+~Cl-_B3LYPG-6-31G_dp-CH-Scan-d09-49-n800
 OpenBabel11261919403D

 18 17  0  0  0  0  0  0  0  0999 V2000
   -1.4046   -0.4785   -0.0570 C   0  0  0  0  0  0  0  0  0  0  0  0
   -2.7670   -0.6438    0.0462 N   0  0  0  0  0  0  0  0  0  0  0  0
   -3.8851   -0.7082    0.1329 N   0  0  0  0  0  0  0  0  0  0  0  0
   -1.0081    0.8801   -0.0533 C   0  0  0  0  0  0  0  0  0  0  0  0
    0.3935    0.9669   -0.1626 C   0  0  0  0  0  0  0  0  0  0  0  0
    1.2473   -0.1427   -0.2596 C   0  0  0  0  0  0  0  0  0  0  0  0
    2.5712    0.1250   -0.3582 O   0  0  0  0  0  0  0  0  0  0  0  0
    3.5055   -0.9431   -0.4589 C   0  0  0  0  0  0  0  0  0  0  0  0
    0.7364   -1.4744   -0.2528 C   0  0  0  0  0  0  0  0  0  0  0  0
   -0.6209   -1.6605   -0.1496 C   0  0  0  0  0  0  0  0  0  0  0  0
   -3.1803    4.5017    0.3161 H   0  0  0  0  0  0  0  0  0  0  0  0
    0.8872    1.9394   -0.1764 H   0  0  0  0  0  0  0  0  0  0  0  0
    4.4877   -0.4738   -0.5234 H   0  0  0  0  0  0  0  0  0  0  0  0
    3.3352   -1.5458   -1.3593 H   0  0  0  0  0  0  0  0  0  0  0  0
    3.4744   -1.5920    0.4252 H   0  0  0  0  0  0  0  0  0  0  0  0
    1.3954   -2.3300   -0.3263 H   0  0  0  0  0  0  0  0  0  0  0  0
   -1.0590   -2.6559   -0.1402 H   0  0  0  0  0  0  0  0  0  0  0  0
   -3.9794    5.4991    0.4622 Cl  0  0  0  0  0  0  0  0  0  0  0  0
  1  4  1  0  0  0  0
  1  2  1  0  0  0  0
  2  3  1  0  0  0  0
  5  4  2  0  0  0  0
  6  9  2  0  0  0  0
  6  5  1  0  0  0  0
  7  6  1  0  0  0  0
  8  7  1  0  0  0  0
  8 15  1  0  0  0  0
  9 10  1  0  0  0  0
 10 17  1  0  0  0  0
 10  1  2  0  0  0  0
 11 18  1  0  0  0  0
 12  5  1  0  0  0  0
 13  8  1  0  0  0  0
 14  8  1  0  0  0  0
 16  9  1  0  0  0  0
M  RAD  3   2   2   3   3   4   2
M  END
