Coordinates from ORCA-job 4-MeOPhN2+~Cl-_B3LYPG-6-31G_dp-CH-Scan-d09-49-n800
 OpenBabel11261919403D

 18 17  0  0  0  0  0  0  0  0999 V2000
   -1.4831   -0.1475   -0.0243 C   0  0  0  0  0  0  0  0  0  0  0  0
   -2.8468   -0.2402    0.0877 N   0  0  0  0  0  0  0  0  0  0  0  0
   -3.9646   -0.2625    0.1813 N   0  0  0  0  0  0  0  0  0  0  0  0
   -0.9806    1.1776   -0.0173 C   0  0  0  0  0  0  0  0  0  0  0  0
    0.4155    1.1879   -0.1345 C   0  0  0  0  0  0  0  0  0  0  0  0
    1.1975    0.0254   -0.2423 C   0  0  0  0  0  0  0  0  0  0  0  0
    2.5305    0.2116   -0.3455 O   0  0  0  0  0  0  0  0  0  0  0  0
    3.4001   -0.9114   -0.4546 C   0  0  0  0  0  0  0  0  0  0  0  0
    0.6006   -1.2683   -0.2402 C   0  0  0  0  0  0  0  0  0  0  0  0
   -0.7655   -1.3689   -0.1298 C   0  0  0  0  0  0  0  0  0  0  0  0
   -2.4197    2.9443    0.1747 H   0  0  0  0  0  0  0  0  0  0  0  0
    0.9613    2.1305   -0.1450 H   0  0  0  0  0  0  0  0  0  0  0  0
    4.4078   -0.5000   -0.5174 H   0  0  0  0  0  0  0  0  0  0  0  0
    3.1918   -1.4952   -1.3591 H   0  0  0  0  0  0  0  0  0  0  0  0
    3.3292   -1.5613    0.4259 H   0  0  0  0  0  0  0  0  0  0  0  0
    1.2019   -2.1646   -0.3230 H   0  0  0  0  0  0  0  0  0  0  0  0
   -1.2636   -2.3349   -0.1241 H   0  0  0  0  0  0  0  0  0  0  0  0
   -3.3828    3.8410    0.2925 Cl  0  0  0  0  0  0  0  0  0  0  0  0
  1  4  1  0  0  0  0
  1  2  1  0  0  0  0
  2  3  1  0  0  0  0
  5  4  2  0  0  0  0
  6  9  2  0  0  0  0
  6  5  1  0  0  0  0
  7  6  1  0  0  0  0
  8  7  1  0  0  0  0
  8 15  1  0  0  0  0
  9 10  1  0  0  0  0
 10 17  1  0  0  0  0
 10  1  2  0  0  0  0
 11 18  1  0  0  0  0
 12  5  1  0  0  0  0
 13  8  1  0  0  0  0
 14  8  1  0  0  0  0
 16  9  1  0  0  0  0
M  RAD  3   2   2   3   3   4   2
M  END
