Coordinates from ORCA-job 4-MeOPhN2+~Cl-_B3LYPG-6-31G_dp-CH-Scan-d09-49-n800
 OpenBabel11261919403D

 18 17  0  0  0  0  0  0  0  0999 V2000
   -1.4619   -0.2114   -0.0306 C   0  0  0  0  0  0  0  0  0  0  0  0
   -2.8252   -0.3182    0.0799 N   0  0  0  0  0  0  0  0  0  0  0  0
   -3.9434   -0.3527    0.1723 N   0  0  0  0  0  0  0  0  0  0  0  0
   -0.9808    1.1218   -0.0239 C   0  0  0  0  0  0  0  0  0  0  0  0
    0.4179    1.1419   -0.1402 C   0  0  0  0  0  0  0  0  0  0  0  0
    1.2126   -0.0113   -0.2461 C   0  0  0  0  0  0  0  0  0  0  0  0
    2.5451    0.1887   -0.3486 O   0  0  0  0  0  0  0  0  0  0  0  0
    3.4255   -0.9254   -0.4563 C   0  0  0  0  0  0  0  0  0  0  0  0
    0.6310   -1.3127   -0.2434 C   0  0  0  0  0  0  0  0  0  0  0  0
   -0.7337   -1.4277   -0.1341 C   0  0  0  0  0  0  0  0  0  0  0  0
   -2.6231    3.2743    0.2072 H   0  0  0  0  0  0  0  0  0  0  0  0
    0.9569    2.0890   -0.1516 H   0  0  0  0  0  0  0  0  0  0  0  0
    4.4293   -0.5045   -0.5191 H   0  0  0  0  0  0  0  0  0  0  0  0
    3.2238   -1.5125   -1.3603 H   0  0  0  0  0  0  0  0  0  0  0  0
    3.3612   -1.5757    0.4244 H   0  0  0  0  0  0  0  0  0  0  0  0
    1.2427   -2.2020   -0.3247 H   0  0  0  0  0  0  0  0  0  0  0  0
   -1.2220   -2.3990   -0.1278 H   0  0  0  0  0  0  0  0  0  0  0  0
   -3.5265    4.2008    0.3277 Cl  0  0  0  0  0  0  0  0  0  0  0  0
  1  4  1  0  0  0  0
  1  2  1  0  0  0  0
  2  3  1  0  0  0  0
  5  4  2  0  0  0  0
  6  9  2  0  0  0  0
  6  5  1  0  0  0  0
  7  6  1  0  0  0  0
  8  7  1  0  0  0  0
  8 15  1  0  0  0  0
  9 10  1  0  0  0  0
 10 17  1  0  0  0  0
 10  1  2  0  0  0  0
 11 18  1  0  0  0  0
 12  5  1  0  0  0  0
 13  8  1  0  0  0  0
 14  8  1  0  0  0  0
 16  9  1  0  0  0  0
M  RAD  3   2   2   3   3   4   2
M  END
