Coordinates from ORCA-job 4-MeOPhN2+~Cl-_B3LYPG-6-31G_dp-CH-Scan-d09-49-n800
 OpenBabel11261919403D

 18 17  0  0  0  0  0  0  0  0999 V2000
   -1.5558    0.0098   -0.0151 C   0  0  0  0  0  0  0  0  0  0  0  0
   -2.9424   -0.1175    0.0958 N   0  0  0  0  0  0  0  0  0  0  0  0
   -3.9509    0.4603    0.2074 N   0  0  0  0  0  0  0  0  0  0  0  0
   -0.9019    1.2579   -0.0228 C   0  0  0  0  0  0  0  0  0  0  0  0
    0.4742    1.2869   -0.1357 C   0  0  0  0  0  0  0  0  0  0  0  0
    1.2129    0.0907   -0.2408 C   0  0  0  0  0  0  0  0  0  0  0  0
    2.5499    0.2424   -0.3442 O   0  0  0  0  0  0  0  0  0  0  0  0
    3.3732   -0.9160   -0.4500 C   0  0  0  0  0  0  0  0  0  0  0  0
    0.5526   -1.1512   -0.2331 C   0  0  0  0  0  0  0  0  0  0  0  0
   -0.8305   -1.1848   -0.1206 C   0  0  0  0  0  0  0  0  0  0  0  0
   -1.5390    2.2235    0.0667 H   0  0  0  0  0  0  0  0  0  0  0  0
    1.0147    2.2271   -0.1451 H   0  0  0  0  0  0  0  0  0  0  0  0
    4.3967   -0.5467   -0.5152 H   0  0  0  0  0  0  0  0  0  0  0  0
    3.1371   -1.4929   -1.3521 H   0  0  0  0  0  0  0  0  0  0  0  0
    3.2733   -1.5582    0.4330 H   0  0  0  0  0  0  0  0  0  0  0  0
    1.1043   -2.0794   -0.3133 H   0  0  0  0  0  0  0  0  0  0  0  0
   -1.3632   -2.1299   -0.1124 H   0  0  0  0  0  0  0  0  0  0  0  0
   -3.8761    2.6411    0.3025 Cl  0  0  0  0  0  0  0  0  0  0  0  0
  1  2  1  0  0  0  0
  2  3  2  0  0  0  0
  4  1  1  0  0  0  0
  4 11  1  0  0  0  0
  5  4  2  0  0  0  0
  6  9  2  0  0  0  0
  6  5  1  0  0  0  0
  7  6  1  0  0  0  0
  8  7  1  0  0  0  0
  8 15  1  0  0  0  0
  9 10  1  0  0  0  0
 10 17  1  0  0  0  0
 10  1  2  0  0  0  0
 12  5  1  0  0  0  0
 13  8  1  0  0  0  0
 14  8  1  0  0  0  0
 16  9  1  0  0  0  0
M  RAD  2   3   2  18   2
M  END
