Coordinates from ORCA-job 4-MeOPhN2+~Cl-_B3LYPG-6-31G_dp-CH-Scan-d09-49-n800
 OpenBabel11261919403D

 18 18  0  0  0  0  0  0  0  0999 V2000
   -1.5684    0.0209   -0.0135 C   0  0  0  0  0  0  0  0  0  0  0  0
   -2.9551   -0.1200    0.0976 N   0  0  0  0  0  0  0  0  0  0  0  0
   -3.9552    0.4797    0.2096 N   0  0  0  0  0  0  0  0  0  0  0  0
   -0.9185    1.2740   -0.0205 C   0  0  0  0  0  0  0  0  0  0  0  0
    0.4598    1.2938   -0.1347 C   0  0  0  0  0  0  0  0  0  0  0  0
    1.2016    0.1010   -0.2406 C   0  0  0  0  0  0  0  0  0  0  0  0
    2.5386    0.2555   -0.3443 O   0  0  0  0  0  0  0  0  0  0  0  0
    3.3629   -0.9020   -0.4482 C   0  0  0  0  0  0  0  0  0  0  0  0
    0.5421   -1.1401   -0.2329 C   0  0  0  0  0  0  0  0  0  0  0  0
   -0.8413   -1.1716   -0.1197 C   0  0  0  0  0  0  0  0  0  0  0  0
   -1.4040    2.0523    0.0504 H   0  0  0  0  0  0  0  0  0  0  0  0
    0.9987    2.2354   -0.1435 H   0  0  0  0  0  0  0  0  0  0  0  0
    4.3863   -0.5321   -0.5128 H   0  0  0  0  0  0  0  0  0  0  0  0
    3.1283   -1.4803   -1.3498 H   0  0  0  0  0  0  0  0  0  0  0  0
    3.2627   -1.5435    0.4354 H   0  0  0  0  0  0  0  0  0  0  0  0
    1.0930   -2.0688   -0.3134 H   0  0  0  0  0  0  0  0  0  0  0  0
   -1.3747   -2.1160   -0.1114 H   0  0  0  0  0  0  0  0  0  0  0  0
   -3.8275    2.6249    0.2972 Cl  0  0  0  0  0  0  0  0  0  0  0  0
  1  2  1  0  0  0  0
  2  3  2  0  0  0  0
  3 18  1  0  0  0  0
  4  1  1  0  0  0  0
  4 11  1  0  0  0  0
  5  4  2  0  0  0  0
  6  9  2  0  0  0  0
  6  5  1  0  0  0  0
  7  6  1  0  0  0  0
  8  7  1  0  0  0  0
  8 15  1  0  0  0  0
  9 10  1  0  0  0  0
 10 17  1  0  0  0  0
 10  1  2  0  0  0  0
 12  5  1  0  0  0  0
 13  8  1  0  0  0  0
 14  8  1  0  0  0  0
 16  9  1  0  0  0  0
M  END
