Coordinates from ORCA-job 4-MeOPhN2+~Cl-_B3LYPG-6-31G_dp-CH-Scan-d09-49-n800
 OpenBabel11261919403D

 18 17  0  0  0  0  0  0  0  0999 V2000
   -1.4072   -0.4473   -0.0547 C   0  0  0  0  0  0  0  0  0  0  0  0
   -2.7702   -0.6037    0.0497 N   0  0  0  0  0  0  0  0  0  0  0  0
   -3.8886   -0.6628    0.1368 N   0  0  0  0  0  0  0  0  0  0  0  0
   -1.0004    0.9085   -0.0514 C   0  0  0  0  0  0  0  0  0  0  0  0
    0.4012    0.9852   -0.1617 C   0  0  0  0  0  0  0  0  0  0  0  0
    1.2472   -0.1305   -0.2589 C   0  0  0  0  0  0  0  0  0  0  0  0
    2.5727    0.1280   -0.3580 O   0  0  0  0  0  0  0  0  0  0  0  0
    3.4996   -0.9467   -0.4587 C   0  0  0  0  0  0  0  0  0  0  0  0
    0.7268   -1.4585   -0.2518 C   0  0  0  0  0  0  0  0  0  0  0  0
   -0.6317   -1.6348   -0.1478 C   0  0  0  0  0  0  0  0  0  0  0  0
   -3.1433    4.3783    0.3075 H   0  0  0  0  0  0  0  0  0  0  0  0
    0.9017    1.9543   -0.1759 H   0  0  0  0  0  0  0  0  0  0  0  0
    4.4850   -0.4842   -0.5231 H   0  0  0  0  0  0  0  0  0  0  0  0
    3.3251   -1.5480   -1.3594 H   0  0  0  0  0  0  0  0  0  0  0  0
    3.4637   -1.5954    0.4251 H   0  0  0  0  0  0  0  0  0  0  0  0
    1.3796   -2.3188   -0.3258 H   0  0  0  0  0  0  0  0  0  0  0  0
   -1.0771   -2.6269   -0.1382 H   0  0  0  0  0  0  0  0  0  0  0  0
   -3.9546    5.3665    0.4512 Cl  0  0  0  0  0  0  0  0  0  0  0  0
  1  4  1  0  0  0  0
  1  2  1  0  0  0  0
  2  3  1  0  0  0  0
  5  4  2  0  0  0  0
  6  9  2  0  0  0  0
  6  5  1  0  0  0  0
  7  6  1  0  0  0  0
  8  7  1  0  0  0  0
  8 15  1  0  0  0  0
  9 10  1  0  0  0  0
 10 17  1  0  0  0  0
 10  1  2  0  0  0  0
 11 18  1  0  0  0  0
 12  5  1  0  0  0  0
 13  8  1  0  0  0  0
 14  8  1  0  0  0  0
 16  9  1  0  0  0  0
M  RAD  3   2   2   3   3   4   2
M  END
