Coordinates from ORCA-job 4-MeOPhN2+~Cl-_B3LYPG-6-31G_dp-CH-Scan-d09-49-n800
 OpenBabel11261919403D

 18 17  0  0  0  0  0  0  0  0999 V2000
   -1.4565   -0.2255   -0.0322 C   0  0  0  0  0  0  0  0  0  0  0  0
   -2.8199   -0.3346    0.0781 N   0  0  0  0  0  0  0  0  0  0  0  0
   -3.9382   -0.3699    0.1702 N   0  0  0  0  0  0  0  0  0  0  0  0
   -0.9797    1.1092   -0.0257 C   0  0  0  0  0  0  0  0  0  0  0  0
    0.4195    1.1315   -0.1417 C   0  0  0  0  0  0  0  0  0  0  0  0
    1.2167   -0.0199   -0.2471 C   0  0  0  0  0  0  0  0  0  0  0  0
    2.5491    0.1828   -0.3494 O   0  0  0  0  0  0  0  0  0  0  0  0
    3.4316   -0.9294   -0.4567 C   0  0  0  0  0  0  0  0  0  0  0  0
    0.6381   -1.3228   -0.2441 C   0  0  0  0  0  0  0  0  0  0  0  0
   -0.7263   -1.4408   -0.1351 C   0  0  0  0  0  0  0  0  0  0  0  0
   -2.6706    3.3499    0.2149 H   0  0  0  0  0  0  0  0  0  0  0  0
    0.9569    2.0795   -0.1533 H   0  0  0  0  0  0  0  0  0  0  0  0
    4.4347   -0.5066   -0.5195 H   0  0  0  0  0  0  0  0  0  0  0  0
    3.2312   -1.5173   -1.3605 H   0  0  0  0  0  0  0  0  0  0  0  0
    3.3687   -1.5797    0.4242 H   0  0  0  0  0  0  0  0  0  0  0  0
    1.2520   -2.2107   -0.3250 H   0  0  0  0  0  0  0  0  0  0  0  0
   -1.2126   -2.4131   -0.1286 H   0  0  0  0  0  0  0  0  0  0  0  0
   -3.5656    4.2806    0.3364 Cl  0  0  0  0  0  0  0  0  0  0  0  0
  1  4  1  0  0  0  0
  1  2  1  0  0  0  0
  2  3  1  0  0  0  0
  5  4  2  0  0  0  0
  6  9  2  0  0  0  0
  6  5  1  0  0  0  0
  7  6  1  0  0  0  0
  8  7  1  0  0  0  0
  8 15  1  0  0  0  0
  9 10  1  0  0  0  0
 10 17  1  0  0  0  0
 10  1  2  0  0  0  0
 11 18  1  0  0  0  0
 12  5  1  0  0  0  0
 13  8  1  0  0  0  0
 14  8  1  0  0  0  0
 16  9  1  0  0  0  0
M  RAD  3   2   2   3   3   4   2
M  END
