Coordinates from ORCA-job 4-MeOPhN2+~Cl-_B3LYPG-6-31G_dp-CH-Scan-d09-49-n800
 OpenBabel11261919403D

 18 17  0  0  0  0  0  0  0  0999 V2000
   -1.5238   -0.0668   -0.0169 C   0  0  0  0  0  0  0  0  0  0  0  0
   -2.8903   -0.1239    0.0971 N   0  0  0  0  0  0  0  0  0  0  0  0
   -4.0042   -0.0676    0.1938 N   0  0  0  0  0  0  0  0  0  0  0  0
   -0.9770    1.2373   -0.0133 C   0  0  0  0  0  0  0  0  0  0  0  0
    0.4084    1.2556   -0.1291 C   0  0  0  0  0  0  0  0  0  0  0  0
    1.1741    0.0788   -0.2374 C   0  0  0  0  0  0  0  0  0  0  0  0
    2.5048    0.2494   -0.3410 O   0  0  0  0  0  0  0  0  0  0  0  0
    3.3636   -0.8844   -0.4511 C   0  0  0  0  0  0  0  0  0  0  0  0
    0.5553   -1.2018   -0.2344 C   0  0  0  0  0  0  0  0  0  0  0  0
   -0.8142   -1.2865   -0.1229 C   0  0  0  0  0  0  0  0  0  0  0  0
   -2.0211    2.4034    0.1191 H   0  0  0  0  0  0  0  0  0  0  0  0
    0.9513    2.1980   -0.1384 H   0  0  0  0  0  0  0  0  0  0  0  0
    4.3746   -0.4824   -0.5143 H   0  0  0  0  0  0  0  0  0  0  0  0
    3.1465   -1.4635   -1.3561 H   0  0  0  0  0  0  0  0  0  0  0  0
    3.2845   -1.5317    0.4300 H   0  0  0  0  0  0  0  0  0  0  0  0
    1.1428   -2.1071   -0.3175 H   0  0  0  0  0  0  0  0  0  0  0  0
   -1.3222   -2.2464   -0.1170 H   0  0  0  0  0  0  0  0  0  0  0  0
   -3.2237    3.3028    0.2541 Cl  0  0  0  0  0  0  0  0  0  0  0  0
  1  4  1  0  0  0  0
  1  2  1  0  0  0  0
  2  3  1  0  0  0  0
  5  4  2  0  0  0  0
  6  9  2  0  0  0  0
  6  5  1  0  0  0  0
  7  6  1  0  0  0  0
  8  7  1  0  0  0  0
  8 15  1  0  0  0  0
  9 10  1  0  0  0  0
 10 17  1  0  0  0  0
 10  1  2  0  0  0  0
 11 18  1  0  0  0  0
 12  5  1  0  0  0  0
 13  8  1  0  0  0  0
 14  8  1  0  0  0  0
 16  9  1  0  0  0  0
M  RAD  3   2   2   3   3   4   2
M  END
