Coordinates from ORCA-job 4-MeOPhN2+~Cl-_B3LYPG-6-31G_dp-CH-Scan-d09-49-n800
 OpenBabel11261919403D

 18 17  0  0  0  0  0  0  0  0999 V2000
   -1.5511    0.0017   -0.0146 C   0  0  0  0  0  0  0  0  0  0  0  0
   -2.9381   -0.1155    0.0968 N   0  0  0  0  0  0  0  0  0  0  0  0
   -3.9459    0.4599    0.2066 N   0  0  0  0  0  0  0  0  0  0  0  0
   -0.8987    1.2488   -0.0218 C   0  0  0  0  0  0  0  0  0  0  0  0
    0.4762    1.2836   -0.1346 C   0  0  0  0  0  0  0  0  0  0  0  0
    1.2151    0.0870   -0.2404 C   0  0  0  0  0  0  0  0  0  0  0  0
    2.5519    0.2392   -0.3441 O   0  0  0  0  0  0  0  0  0  0  0  0
    3.3764   -0.9182   -0.4514 C   0  0  0  0  0  0  0  0  0  0  0  0
    0.5562   -1.1565   -0.2333 C   0  0  0  0  0  0  0  0  0  0  0  0
   -0.8267   -1.1935   -0.1205 C   0  0  0  0  0  0  0  0  0  0  0  0
   -1.5982    2.2685    0.0755 H   0  0  0  0  0  0  0  0  0  0  0  0
    1.0160    2.2241   -0.1435 H   0  0  0  0  0  0  0  0  0  0  0  0
    4.3994   -0.5476   -0.5168 H   0  0  0  0  0  0  0  0  0  0  0  0
    3.1405   -1.4945   -1.3539 H   0  0  0  0  0  0  0  0  0  0  0  0
    3.2777   -1.5613    0.4311 H   0  0  0  0  0  0  0  0  0  0  0  0
    1.1099   -2.0834   -0.3141 H   0  0  0  0  0  0  0  0  0  0  0  0
   -1.3577   -2.1396   -0.1127 H   0  0  0  0  0  0  0  0  0  0  0  0
   -3.8733    2.6607    0.2964 Cl  0  0  0  0  0  0  0  0  0  0  0  0
  1  2  1  0  0  0  0
  2  3  2  0  0  0  0
  4  1  1  0  0  0  0
  4 11  1  0  0  0  0
  5  4  2  0  0  0  0
  6  9  2  0  0  0  0
  6  5  1  0  0  0  0
  7  6  1  0  0  0  0
  8  7  1  0  0  0  0
  8 15  1  0  0  0  0
  9 10  1  0  0  0  0
 10 17  1  0  0  0  0
 10  1  2  0  0  0  0
 12  5  1  0  0  0  0
 13  8  1  0  0  0  0
 14  8  1  0  0  0  0
 16  9  1  0  0  0  0
M  RAD  2   3   2  18   2
M  END
