Coordinates from ORCA-job 4-MeOPhN2+~Cl-_B3LYPG-6-31G_dp-CH-Scan-d09-49-n800
 OpenBabel11261919403D

 18 17  0  0  0  0  0  0  0  0999 V2000
   -1.4045   -0.4770   -0.0569 C   0  0  0  0  0  0  0  0  0  0  0  0
   -2.7669   -0.6417    0.0464 N   0  0  0  0  0  0  0  0  0  0  0  0
   -3.8850   -0.7068    0.1326 N   0  0  0  0  0  0  0  0  0  0  0  0
   -1.0073    0.8814   -0.0533 C   0  0  0  0  0  0  0  0  0  0  0  0
    0.3939    0.9675   -0.1627 C   0  0  0  0  0  0  0  0  0  0  0  0
    1.2474   -0.1423   -0.2596 C   0  0  0  0  0  0  0  0  0  0  0  0
    2.5714    0.1250   -0.3582 O   0  0  0  0  0  0  0  0  0  0  0  0
    3.5053   -0.9435   -0.4589 C   0  0  0  0  0  0  0  0  0  0  0  0
    0.7361   -1.4739   -0.2527 C   0  0  0  0  0  0  0  0  0  0  0  0
   -0.6213   -1.6594   -0.1494 C   0  0  0  0  0  0  0  0  0  0  0  0
   -3.1795    4.4971    0.3159 H   0  0  0  0  0  0  0  0  0  0  0  0
    0.8880    1.9400   -0.1766 H   0  0  0  0  0  0  0  0  0  0  0  0
    4.4877   -0.4745   -0.5234 H   0  0  0  0  0  0  0  0  0  0  0  0
    3.3347   -1.5461   -1.3593 H   0  0  0  0  0  0  0  0  0  0  0  0
    3.4739   -1.5923    0.4252 H   0  0  0  0  0  0  0  0  0  0  0  0
    1.3947   -2.3298   -0.3262 H   0  0  0  0  0  0  0  0  0  0  0  0
   -1.0599   -2.6545   -0.1399 H   0  0  0  0  0  0  0  0  0  0  0  0
   -3.9793    5.4941    0.4620 Cl  0  0  0  0  0  0  0  0  0  0  0  0
  1  4  1  0  0  0  0
  1  2  1  0  0  0  0
  2  3  1  0  0  0  0
  5  4  2  0  0  0  0
  6  9  2  0  0  0  0
  6  5  1  0  0  0  0
  7  6  1  0  0  0  0
  8  7  1  0  0  0  0
  8 15  1  0  0  0  0
  9 10  1  0  0  0  0
 10 17  1  0  0  0  0
 10  1  2  0  0  0  0
 11 18  1  0  0  0  0
 12  5  1  0  0  0  0
 13  8  1  0  0  0  0
 14  8  1  0  0  0  0
 16  9  1  0  0  0  0
M  RAD  3   2   2   3   3   4   2
M  END
