Coordinates from ORCA-job 4-MeOPhN2+~Cl-_B3LYPG-6-31G_dp-CH-Scan-d09-49-n800
 OpenBabel11261919403D

 18 17  0  0  0  0  0  0  0  0999 V2000
   -1.4748   -0.1687   -0.0264 C   0  0  0  0  0  0  0  0  0  0  0  0
   -2.8383   -0.2661    0.0851 N   0  0  0  0  0  0  0  0  0  0  0  0
   -3.9563   -0.2933    0.1783 N   0  0  0  0  0  0  0  0  0  0  0  0
   -0.9794    1.1593   -0.0195 C   0  0  0  0  0  0  0  0  0  0  0  0
    0.4177    1.1720   -0.1364 C   0  0  0  0  0  0  0  0  0  0  0  0
    1.2037    0.0124   -0.2437 C   0  0  0  0  0  0  0  0  0  0  0  0
    2.5367    0.2028   -0.3467 O   0  0  0  0  0  0  0  0  0  0  0  0
    3.4095   -0.9175   -0.4553 C   0  0  0  0  0  0  0  0  0  0  0  0
    0.6115   -1.2838   -0.2414 C   0  0  0  0  0  0  0  0  0  0  0  0
   -0.7541   -1.3888   -0.1313 C   0  0  0  0  0  0  0  0  0  0  0  0
   -2.4963    3.0619    0.1864 H   0  0  0  0  0  0  0  0  0  0  0  0
    0.9618    2.1157   -0.1473 H   0  0  0  0  0  0  0  0  0  0  0  0
    4.4160   -0.5033   -0.5181 H   0  0  0  0  0  0  0  0  0  0  0  0
    3.2032   -1.5024   -1.3596 H   0  0  0  0  0  0  0  0  0  0  0  0
    3.3406   -1.5676    0.4252 H   0  0  0  0  0  0  0  0  0  0  0  0
    1.2161   -2.1780   -0.3238 H   0  0  0  0  0  0  0  0  0  0  0  0
   -1.2492   -2.3564   -0.1255 H   0  0  0  0  0  0  0  0  0  0  0  0
   -3.4390    3.9650    0.3049 Cl  0  0  0  0  0  0  0  0  0  0  0  0
  1  4  1  0  0  0  0
  1  2  1  0  0  0  0
  2  3  1  0  0  0  0
  5  4  2  0  0  0  0
  6  9  2  0  0  0  0
  6  5  1  0  0  0  0
  7  6  1  0  0  0  0
  8  7  1  0  0  0  0
  8 15  1  0  0  0  0
  9 10  1  0  0  0  0
 10 17  1  0  0  0  0
 10  1  2  0  0  0  0
 11 18  1  0  0  0  0
 12  5  1  0  0  0  0
 13  8  1  0  0  0  0
 14  8  1  0  0  0  0
 16  9  1  0  0  0  0
M  RAD  3   2   2   3   3   4   2
M  END
