Coordinates from ORCA-job 4-MeOPhN2+~Cl-_B3LYPG-6-31G_dp-CH-Scan-d09-49-n800
 OpenBabel11261919403D

 18 17  0  0  0  0  0  0  0  0999 V2000
   -1.4052   -0.5672   -0.0661 C   0  0  0  0  0  0  0  0  0  0  0  0
   -2.7642   -0.7623    0.0343 N   0  0  0  0  0  0  0  0  0  0  0  0
   -3.8809   -0.8508    0.1177 N   0  0  0  0  0  0  0  0  0  0  0  0
   -1.0409    0.8000   -0.0661 C   0  0  0  0  0  0  0  0  0  0  0  0
    0.3583    0.9192   -0.1725 C   0  0  0  0  0  0  0  0  0  0  0  0
    1.2381   -0.1704   -0.2634 C   0  0  0  0  0  0  0  0  0  0  0  0
    2.5558    0.1278   -0.3601 O   0  0  0  0  0  0  0  0  0  0  0  0
    3.5145   -0.9189   -0.4555 C   0  0  0  0  0  0  0  0  0  0  0  0
    0.7584   -1.5138   -0.2529 C   0  0  0  0  0  0  0  0  0  0  0  0
   -0.5945   -1.7312   -0.1523 C   0  0  0  0  0  0  0  0  0  0  0  0
   -3.2345    4.7993    0.3420 H   0  0  0  0  0  0  0  0  0  0  0  0
    0.8293    1.9032   -0.1885 H   0  0  0  0  0  0  0  0  0  0  0  0
    4.4857   -0.4273   -0.5218 H   0  0  0  0  0  0  0  0  0  0  0  0
    3.3586   -1.5296   -1.3532 H   0  0  0  0  0  0  0  0  0  0  0  0
    3.4982   -1.5642    0.4316 H   0  0  0  0  0  0  0  0  0  0  0  0
    1.4373   -2.3541   -0.3218 H   0  0  0  0  0  0  0  0  0  0  0  0
   -1.0094   -2.7365   -0.1404 H   0  0  0  0  0  0  0  0  0  0  0  0
   -3.9752    5.8399    0.4939 Cl  0  0  0  0  0  0  0  0  0  0  0  0
  1  2  1  0  0  0  0
  2  3  1  0  0  0  0
  4  1  1  0  0  0  0
  5  4  2  0  0  0  0
  6  9  2  0  0  0  0
  6  5  1  0  0  0  0
  7  6  1  0  0  0  0
  8  7  1  0  0  0  0
  8 15  1  0  0  0  0
  9 10  1  0  0  0  0
 10 17  1  0  0  0  0
 10  1  2  0  0  0  0
 11 18  1  0  0  0  0
 12  5  1  0  0  0  0
 13  8  1  0  0  0  0
 14  8  1  0  0  0  0
 16  9  1  0  0  0  0
M  RAD  3   2   2   3   3   4   2
M  END
