Coordinates from ORCA-job 4-MeOPhN2+~Cl-_B3LYPG-6-31G_dp-CH-Scan-d09-49-n800
 OpenBabel11261919403D

 18 17  0  0  0  0  0  0  0  0999 V2000
   -1.5137   -0.0880   -0.0175 C   0  0  0  0  0  0  0  0  0  0  0  0
   -2.8786   -0.1645    0.0955 N   0  0  0  0  0  0  0  0  0  0  0  0
   -3.9951   -0.1629    0.1903 N   0  0  0  0  0  0  0  0  0  0  0  0
   -0.9852    1.2252   -0.0113 C   0  0  0  0  0  0  0  0  0  0  0  0
    0.4050    1.2369   -0.1282 C   0  0  0  0  0  0  0  0  0  0  0  0
    1.1767    0.0656   -0.2376 C   0  0  0  0  0  0  0  0  0  0  0  0
    2.5084    0.2414   -0.3412 O   0  0  0  0  0  0  0  0  0  0  0  0
    3.3707   -0.8886   -0.4523 C   0  0  0  0  0  0  0  0  0  0  0  0
    0.5659   -1.2201   -0.2361 C   0  0  0  0  0  0  0  0  0  0  0  0
   -0.8020   -1.3099   -0.1248 C   0  0  0  0  0  0  0  0  0  0  0  0
   -2.1439    2.5633    0.1349 H   0  0  0  0  0  0  0  0  0  0  0  0
    0.9508    2.1784   -0.1373 H   0  0  0  0  0  0  0  0  0  0  0  0
    4.3806   -0.4835   -0.5152 H   0  0  0  0  0  0  0  0  0  0  0  0
    3.1566   -1.4685   -1.3577 H   0  0  0  0  0  0  0  0  0  0  0  0
    3.2946   -1.5378    0.4278 H   0  0  0  0  0  0  0  0  0  0  0  0
    1.1581   -2.1223   -0.3201 H   0  0  0  0  0  0  0  0  0  0  0  0
   -1.3070   -2.2718   -0.1197 H   0  0  0  0  0  0  0  0  0  0  0  0
   -3.2123    3.4705    0.2554 Cl  0  0  0  0  0  0  0  0  0  0  0  0
  1  4  1  0  0  0  0
  1  2  1  0  0  0  0
  2  3  1  0  0  0  0
  5  4  2  0  0  0  0
  6  9  2  0  0  0  0
  6  5  1  0  0  0  0
  7  6  1  0  0  0  0
  8  7  1  0  0  0  0
  8 15  1  0  0  0  0
  9 10  1  0  0  0  0
 10 17  1  0  0  0  0
 10  1  2  0  0  0  0
 11 18  1  0  0  0  0
 12  5  1  0  0  0  0
 13  8  1  0  0  0  0
 14  8  1  0  0  0  0
 16  9  1  0  0  0  0
M  RAD  3   2   2   3   3   4   2
M  END
