Coordinates from ORCA-job 4-MeOPhN2+~Cl-_B3LYPG-6-31G_dp-CH-Scan-d09-49-n800
 OpenBabel11261919403D

 18 17  0  0  0  0  0  0  0  0999 V2000
   -1.4367   -0.2962   -0.0410 C   0  0  0  0  0  0  0  0  0  0  0  0
   -2.8006   -0.4185    0.0675 N   0  0  0  0  0  0  0  0  0  0  0  0
   -3.9192   -0.4589    0.1581 N   0  0  0  0  0  0  0  0  0  0  0  0
   -0.9830    1.0460   -0.0369 C   0  0  0  0  0  0  0  0  0  0  0  0
    0.4179    1.0831   -0.1512 C   0  0  0  0  0  0  0  0  0  0  0  0
    1.2299   -0.0577   -0.2523 C   0  0  0  0  0  0  0  0  0  0  0  0
    2.5610    0.1616   -0.3534 O   0  0  0  0  0  0  0  0  0  0  0  0
    3.4567   -0.9397   -0.4569 C   0  0  0  0  0  0  0  0  0  0  0  0
    0.6692   -1.3687   -0.2465 C   0  0  0  0  0  0  0  0  0  0  0  0
   -0.6937   -1.5041   -0.1391 C   0  0  0  0  0  0  0  0  0  0  0  0
   -2.8534    3.6919    0.2494 H   0  0  0  0  0  0  0  0  0  0  0  0
    0.9452    2.0372   -0.1650 H   0  0  0  0  0  0  0  0  0  0  0  0
    4.4548   -0.5053   -0.5203 H   0  0  0  0  0  0  0  0  0  0  0  0
    3.2645   -1.5331   -1.3591 H   0  0  0  0  0  0  0  0  0  0  0  0
    3.4015   -1.5888    0.4256 H   0  0  0  0  0  0  0  0  0  0  0  0
    1.2952   -2.2485   -0.3239 H   0  0  0  0  0  0  0  0  0  0  0  0
   -1.1680   -2.4826   -0.1306 H   0  0  0  0  0  0  0  0  0  0  0  0
   -3.7119    4.6457    0.3807 Cl  0  0  0  0  0  0  0  0  0  0  0  0
  1  4  1  0  0  0  0
  1  2  1  0  0  0  0
  2  3  1  0  0  0  0
  5  4  2  0  0  0  0
  6  9  2  0  0  0  0
  6  5  1  0  0  0  0
  7  6  1  0  0  0  0
  8  7  1  0  0  0  0
  8 15  1  0  0  0  0
  9 10  1  0  0  0  0
 10 17  1  0  0  0  0
 10  1  2  0  0  0  0
 11 18  1  0  0  0  0
 12  5  1  0  0  0  0
 13  8  1  0  0  0  0
 14  8  1  0  0  0  0
 16  9  1  0  0  0  0
M  RAD  3   2   2   3   3   4   2
M  END
