Coordinates from ORCA-job 4-MeOPhN2+~Cl-_B3LYPG-6-31G_dp-CH-Scan-d09-49-n800
 OpenBabel11261919403D

 18 18  0  0  0  0  0  0  0  0999 V2000
   -1.5666    0.0202   -0.0142 C   0  0  0  0  0  0  0  0  0  0  0  0
   -2.9533   -0.1201    0.0966 N   0  0  0  0  0  0  0  0  0  0  0  0
   -3.9553    0.4757    0.2092 N   0  0  0  0  0  0  0  0  0  0  0  0
   -0.9158    1.2726   -0.0215 C   0  0  0  0  0  0  0  0  0  0  0  0
    0.4624    1.2929   -0.1353 C   0  0  0  0  0  0  0  0  0  0  0  0
    1.2036    0.0996   -0.2407 C   0  0  0  0  0  0  0  0  0  0  0  0
    2.5407    0.2534   -0.3440 O   0  0  0  0  0  0  0  0  0  0  0  0
    3.3645   -0.9045   -0.4482 C   0  0  0  0  0  0  0  0  0  0  0  0
    0.5437   -1.1415   -0.2328 C   0  0  0  0  0  0  0  0  0  0  0  0
   -0.8397   -1.1726   -0.1200 C   0  0  0  0  0  0  0  0  0  0  0  0
   -1.4212    2.0797    0.0517 H   0  0  0  0  0  0  0  0  0  0  0  0
    1.0018    2.2342   -0.1444 H   0  0  0  0  0  0  0  0  0  0  0  0
    4.3880   -0.5350   -0.5131 H   0  0  0  0  0  0  0  0  0  0  0  0
    3.1293   -1.4827   -1.3497 H   0  0  0  0  0  0  0  0  0  0  0  0
    3.2644   -1.5460    0.4354 H   0  0  0  0  0  0  0  0  0  0  0  0
    1.0943   -2.0703   -0.3130 H   0  0  0  0  0  0  0  0  0  0  0  0
   -1.3733   -2.1170   -0.1117 H   0  0  0  0  0  0  0  0  0  0  0  0
   -3.8379    2.6247    0.3006 Cl  0  0  0  0  0  0  0  0  0  0  0  0
  1  2  1  0  0  0  0
  2  3  2  0  0  0  0
  3 18  1  0  0  0  0
  4  1  1  0  0  0  0
  4 11  1  0  0  0  0
  5  4  2  0  0  0  0
  6  9  2  0  0  0  0
  6  5  1  0  0  0  0
  7  6  1  0  0  0  0
  8  7  1  0  0  0  0
  8 15  1  0  0  0  0
  9 10  1  0  0  0  0
 10 17  1  0  0  0  0
 10  1  2  0  0  0  0
 12  5  1  0  0  0  0
 13  8  1  0  0  0  0
 14  8  1  0  0  0  0
 16  9  1  0  0  0  0
M  END
