Coordinates from ORCA-job 4-MeOPhN2+~Cl-_B3LYPG-6-31G_dp-CH-Scan-d09-49-n800
 OpenBabel11261919403D

 18 17  0  0  0  0  0  0  0  0999 V2000
   -1.4762   -0.1642   -0.0260 C   0  0  0  0  0  0  0  0  0  0  0  0
   -2.8398   -0.2605    0.0856 N   0  0  0  0  0  0  0  0  0  0  0  0
   -3.9578   -0.2865    0.1789 N   0  0  0  0  0  0  0  0  0  0  0  0
   -0.9794    1.1632   -0.0191 C   0  0  0  0  0  0  0  0  0  0  0  0
    0.4176    1.1752   -0.1361 C   0  0  0  0  0  0  0  0  0  0  0  0
    1.2026    0.0149   -0.2434 C   0  0  0  0  0  0  0  0  0  0  0  0
    2.5357    0.2044   -0.3464 O   0  0  0  0  0  0  0  0  0  0  0  0
    3.4077   -0.9166   -0.4551 C   0  0  0  0  0  0  0  0  0  0  0  0
    0.6094   -1.2807   -0.2412 C   0  0  0  0  0  0  0  0  0  0  0  0
   -0.7563   -1.3847   -0.1310 C   0  0  0  0  0  0  0  0  0  0  0  0
   -2.4821    3.0388    0.1841 H   0  0  0  0  0  0  0  0  0  0  0  0
    0.9622    2.1187   -0.1469 H   0  0  0  0  0  0  0  0  0  0  0  0
    4.4145   -0.5031   -0.5179 H   0  0  0  0  0  0  0  0  0  0  0  0
    3.2010   -1.5012   -1.3595 H   0  0  0  0  0  0  0  0  0  0  0  0
    3.3384   -1.5666    0.4253 H   0  0  0  0  0  0  0  0  0  0  0  0
    1.2133   -2.1754   -0.3237 H   0  0  0  0  0  0  0  0  0  0  0  0
   -1.2521   -2.3519   -0.1252 H   0  0  0  0  0  0  0  0  0  0  0  0
   -3.4293    3.9396    0.3025 Cl  0  0  0  0  0  0  0  0  0  0  0  0
  1  4  1  0  0  0  0
  1  2  1  0  0  0  0
  2  3  1  0  0  0  0
  5  4  2  0  0  0  0
  6  9  2  0  0  0  0
  6  5  1  0  0  0  0
  7  6  1  0  0  0  0
  8  7  1  0  0  0  0
  8 15  1  0  0  0  0
  9 10  1  0  0  0  0
 10 17  1  0  0  0  0
 10  1  2  0  0  0  0
 11 18  1  0  0  0  0
 12  5  1  0  0  0  0
 13  8  1  0  0  0  0
 14  8  1  0  0  0  0
 16  9  1  0  0  0  0
M  RAD  3   2   2   3   3   4   2
M  END
