Coordinates from ORCA-job 4-MeOPhN2+~Cl-_B3LYPG-6-31G_dp-CH-Scan-d09-49-n800
 OpenBabel11261919403D

 18 17  0  0  0  0  0  0  0  0999 V2000
   -1.4041   -0.5061   -0.0581 C   0  0  0  0  0  0  0  0  0  0  0  0
   -2.7656   -0.6800    0.0443 N   0  0  0  0  0  0  0  0  0  0  0  0
   -3.8833   -0.7518    0.1300 N   0  0  0  0  0  0  0  0  0  0  0  0
   -1.0170    0.8550   -0.0528 C   0  0  0  0  0  0  0  0  0  0  0  0
    0.3837    0.9517   -0.1613 C   0  0  0  0  0  0  0  0  0  0  0  0
    1.2452   -0.1519   -0.2593 C   0  0  0  0  0  0  0  0  0  0  0  0
    2.5673    0.1252   -0.3574 O   0  0  0  0  0  0  0  0  0  0  0  0
    3.5088   -0.9365   -0.4591 C   0  0  0  0  0  0  0  0  0  0  0  0
    0.7436   -1.4872   -0.2540 C   0  0  0  0  0  0  0  0  0  0  0  0
   -0.6126   -1.6827   -0.1514 C   0  0  0  0  0  0  0  0  0  0  0  0
   -3.1997    4.5984    0.3210 H   0  0  0  0  0  0  0  0  0  0  0  0
    0.8706    1.9278   -0.1738 H   0  0  0  0  0  0  0  0  0  0  0  0
    4.4878   -0.4605   -0.5235 H   0  0  0  0  0  0  0  0  0  0  0  0
    3.3423   -1.5397   -1.3600 H   0  0  0  0  0  0  0  0  0  0  0  0
    3.4823   -1.5863    0.4244 H   0  0  0  0  0  0  0  0  0  0  0  0
    1.4084   -2.3382   -0.3282 H   0  0  0  0  0  0  0  0  0  0  0  0
   -1.0439   -2.6811   -0.1431 H   0  0  0  0  0  0  0  0  0  0  0  0
   -3.9843    5.6072    0.4672 Cl  0  0  0  0  0  0  0  0  0  0  0  0
  1  4  1  0  0  0  0
  1  2  1  0  0  0  0
  2  3  1  0  0  0  0
  5  4  2  0  0  0  0
  6  9  2  0  0  0  0
  6  5  1  0  0  0  0
  7  6  1  0  0  0  0
  8  7  1  0  0  0  0
  8 15  1  0  0  0  0
  9 10  1  0  0  0  0
 10 17  1  0  0  0  0
 10  1  2  0  0  0  0
 11 18  1  0  0  0  0
 12  5  1  0  0  0  0
 13  8  1  0  0  0  0
 14  8  1  0  0  0  0
 16  9  1  0  0  0  0
M  RAD  3   2   2   3   3   4   2
M  END
