Coordinates from ORCA-job 4-MeOPhN2+~Cl-_B3LYPG-6-31G_dp-CH-Scan-d09-49-n800
 OpenBabel11261919403D

 18 17  0  0  0  0  0  0  0  0999 V2000
   -1.4893   -0.1358   -0.0228 C   0  0  0  0  0  0  0  0  0  0  0  0
   -2.8531   -0.2262    0.0894 N   0  0  0  0  0  0  0  0  0  0  0  0
   -3.9707   -0.2462    0.1832 N   0  0  0  0  0  0  0  0  0  0  0  0
   -0.9827    1.1877   -0.0156 C   0  0  0  0  0  0  0  0  0  0  0  0
    0.4125    1.1975   -0.1329 C   0  0  0  0  0  0  0  0  0  0  0  0
    1.1928    0.0335   -0.2412 C   0  0  0  0  0  0  0  0  0  0  0  0
    2.5256    0.2179   -0.3445 O   0  0  0  0  0  0  0  0  0  0  0  0
    3.3939   -0.9064   -0.4541 C   0  0  0  0  0  0  0  0  0  0  0  0
    0.5935   -1.2589   -0.2395 C   0  0  0  0  0  0  0  0  0  0  0  0
   -0.7728   -1.3575   -0.1288 C   0  0  0  0  0  0  0  0  0  0  0  0
   -2.3673    2.8702    0.1668 H   0  0  0  0  0  0  0  0  0  0  0  0
    0.9588    2.1397   -0.1430 H   0  0  0  0  0  0  0  0  0  0  0  0
    4.4020   -0.4961   -0.5169 H   0  0  0  0  0  0  0  0  0  0  0  0
    3.1845   -1.4893   -1.3589 H   0  0  0  0  0  0  0  0  0  0  0  0
    3.3221   -1.5562    0.4261 H   0  0  0  0  0  0  0  0  0  0  0  0
    1.1932   -2.1562   -0.3227 H   0  0  0  0  0  0  0  0  0  0  0  0
   -1.2722   -2.3228   -0.1234 H   0  0  0  0  0  0  0  0  0  0  0  0
   -3.3413    3.7683    0.2837 Cl  0  0  0  0  0  0  0  0  0  0  0  0
  1  4  1  0  0  0  0
  1  2  1  0  0  0  0
  2  3  1  0  0  0  0
  5  4  2  0  0  0  0
  6  9  2  0  0  0  0
  6  5  1  0  0  0  0
  7  6  1  0  0  0  0
  8  7  1  0  0  0  0
  8 15  1  0  0  0  0
  9 10  1  0  0  0  0
 10 17  1  0  0  0  0
 10  1  2  0  0  0  0
 11 18  1  0  0  0  0
 12  5  1  0  0  0  0
 13  8  1  0  0  0  0
 14  8  1  0  0  0  0
 16  9  1  0  0  0  0
M  RAD  3   2   2   3   3   4   2
M  END
