Coordinates from ORCA-job 4-MeOPhN2+~Cl-_B3LYPG-6-31G_dp-CH-Scan-d09-49-n800
 OpenBabel11261919403D

 18 17  0  0  0  0  0  0  0  0999 V2000
   -1.5206   -0.0742   -0.0168 C   0  0  0  0  0  0  0  0  0  0  0  0
   -2.8861   -0.1422    0.0966 N   0  0  0  0  0  0  0  0  0  0  0  0
   -4.0018   -0.1213    0.1921 N   0  0  0  0  0  0  0  0  0  0  0  0
   -0.9816    1.2340   -0.0119 C   0  0  0  0  0  0  0  0  0  0  0  0
    0.4059    1.2487   -0.1283 C   0  0  0  0  0  0  0  0  0  0  0  0
    1.1741    0.0743   -0.2373 C   0  0  0  0  0  0  0  0  0  0  0  0
    2.5052    0.2469   -0.3409 O   0  0  0  0  0  0  0  0  0  0  0  0
    3.3654   -0.8854   -0.4516 C   0  0  0  0  0  0  0  0  0  0  0  0
    0.5586   -1.2085   -0.2350 C   0  0  0  0  0  0  0  0  0  0  0  0
   -0.8101   -1.2951   -0.1235 C   0  0  0  0  0  0  0  0  0  0  0  0
   -2.0698    2.4680    0.1254 H   0  0  0  0  0  0  0  0  0  0  0  0
    0.9502    2.1906   -0.1375 H   0  0  0  0  0  0  0  0  0  0  0  0
    4.3760   -0.4821   -0.5146 H   0  0  0  0  0  0  0  0  0  0  0  0
    3.1495   -1.4647   -1.3568 H   0  0  0  0  0  0  0  0  0  0  0  0
    3.2876   -1.5336    0.4290 H   0  0  0  0  0  0  0  0  0  0  0  0
    1.1480   -2.1125   -0.3186 H   0  0  0  0  0  0  0  0  0  0  0  0
   -1.3169   -2.2559   -0.1181 H   0  0  0  0  0  0  0  0  0  0  0  0
   -3.2040    3.3761    0.2527 Cl  0  0  0  0  0  0  0  0  0  0  0  0
  1  4  1  0  0  0  0
  1  2  1  0  0  0  0
  2  3  1  0  0  0  0
  5  4  2  0  0  0  0
  6  9  2  0  0  0  0
  6  5  1  0  0  0  0
  7  6  1  0  0  0  0
  8  7  1  0  0  0  0
  8 15  1  0  0  0  0
  9 10  1  0  0  0  0
 10 17  1  0  0  0  0
 10  1  2  0  0  0  0
 11 18  1  0  0  0  0
 12  5  1  0  0  0  0
 13  8  1  0  0  0  0
 14  8  1  0  0  0  0
 16  9  1  0  0  0  0
M  RAD  3   2   2   3   3   4   2
M  END
