Coordinates from ORCA-job 4-MeOPhN2+~Cl-_B3LYPG-6-31G_dp-CH-Scan-d09-49-n800
 OpenBabel11261919403D

 18 17  0  0  0  0  0  0  0  0999 V2000
   -1.5185   -0.0785   -0.0170 C   0  0  0  0  0  0  0  0  0  0  0  0
   -2.8838   -0.1498    0.0962 N   0  0  0  0  0  0  0  0  0  0  0  0
   -3.9998   -0.1371    0.1915 N   0  0  0  0  0  0  0  0  0  0  0  0
   -0.9831    1.2315   -0.0116 C   0  0  0  0  0  0  0  0  0  0  0  0
    0.4053    1.2450   -0.1281 C   0  0  0  0  0  0  0  0  0  0  0  0
    1.1747    0.0717   -0.2373 C   0  0  0  0  0  0  0  0  0  0  0  0
    2.5060    0.2453   -0.3409 O   0  0  0  0  0  0  0  0  0  0  0  0
    3.3669   -0.8862   -0.4518 C   0  0  0  0  0  0  0  0  0  0  0  0
    0.5608   -1.2121   -0.2353 C   0  0  0  0  0  0  0  0  0  0  0  0
   -0.8076   -1.2998   -0.1239 C   0  0  0  0  0  0  0  0  0  0  0  0
   -2.0940    2.4987    0.1285 H   0  0  0  0  0  0  0  0  0  0  0  0
    0.9502    2.1867   -0.1373 H   0  0  0  0  0  0  0  0  0  0  0  0
    4.3773   -0.4823   -0.5148 H   0  0  0  0  0  0  0  0  0  0  0  0
    3.1516   -1.4657   -1.3571 H   0  0  0  0  0  0  0  0  0  0  0  0
    3.2897   -1.5348    0.4286 H   0  0  0  0  0  0  0  0  0  0  0  0
    1.1511   -2.1155   -0.3191 H   0  0  0  0  0  0  0  0  0  0  0  0
   -1.3139   -2.2610   -0.1186 H   0  0  0  0  0  0  0  0  0  0  0  0
   -3.2034    3.4073    0.2531 Cl  0  0  0  0  0  0  0  0  0  0  0  0
  1  4  1  0  0  0  0
  1  2  1  0  0  0  0
  2  3  1  0  0  0  0
  5  4  2  0  0  0  0
  6  9  2  0  0  0  0
  6  5  1  0  0  0  0
  7  6  1  0  0  0  0
  8  7  1  0  0  0  0
  8 15  1  0  0  0  0
  9 10  1  0  0  0  0
 10 17  1  0  0  0  0
 10  1  2  0  0  0  0
 11 18  1  0  0  0  0
 12  5  1  0  0  0  0
 13  8  1  0  0  0  0
 14  8  1  0  0  0  0
 16  9  1  0  0  0  0
M  RAD  3   2   2   3   3   4   2
M  END
