Coordinates from ORCA-job 4-MeOPhN2+~Cl-_B3LYPG-6-31G_dp-CH-Scan-d09-49-n800
 OpenBabel11261919403D

 18 17  0  0  0  0  0  0  0  0999 V2000
   -1.4038   -0.5168   -0.0585 C   0  0  0  0  0  0  0  0  0  0  0  0
   -2.7648   -0.6945    0.0436 N   0  0  0  0  0  0  0  0  0  0  0  0
   -3.8824   -0.7695    0.1290 N   0  0  0  0  0  0  0  0  0  0  0  0
   -1.0205    0.8455   -0.0525 C   0  0  0  0  0  0  0  0  0  0  0  0
    0.3801    0.9455   -0.1608 C   0  0  0  0  0  0  0  0  0  0  0  0
    1.2446   -0.1556   -0.2592 C   0  0  0  0  0  0  0  0  0  0  0  0
    2.5659    0.1249   -0.3571 O   0  0  0  0  0  0  0  0  0  0  0  0
    3.5102   -0.9343   -0.4592 C   0  0  0  0  0  0  0  0  0  0  0  0
    0.7465   -1.4922   -0.2545 C   0  0  0  0  0  0  0  0  0  0  0  0
   -0.6092   -1.6913   -0.1522 C   0  0  0  0  0  0  0  0  0  0  0  0
   -3.2090    4.6375    0.3230 H   0  0  0  0  0  0  0  0  0  0  0  0
    0.8646    1.9229   -0.1727 H   0  0  0  0  0  0  0  0  0  0  0  0
    4.4879   -0.4557   -0.5236 H   0  0  0  0  0  0  0  0  0  0  0  0
    3.3452   -1.5376   -1.3603 H   0  0  0  0  0  0  0  0  0  0  0  0
    3.4856   -1.5844    0.4241 H   0  0  0  0  0  0  0  0  0  0  0  0
    1.4135   -2.3415   -0.3290 H   0  0  0  0  0  0  0  0  0  0  0  0
   -1.0379   -2.6908   -0.1444 H   0  0  0  0  0  0  0  0  0  0  0  0
   -3.9874    5.6511    0.4693 Cl  0  0  0  0  0  0  0  0  0  0  0  0
  1  4  1  0  0  0  0
  1  2  1  0  0  0  0
  2  3  1  0  0  0  0
  5  4  2  0  0  0  0
  6  9  2  0  0  0  0
  6  5  1  0  0  0  0
  7  6  1  0  0  0  0
  8  7  1  0  0  0  0
  8 15  1  0  0  0  0
  9 10  1  0  0  0  0
 10 17  1  0  0  0  0
 10  1  2  0  0  0  0
 11 18  1  0  0  0  0
 12  5  1  0  0  0  0
 13  8  1  0  0  0  0
 14  8  1  0  0  0  0
 16  9  1  0  0  0  0
M  RAD  3   2   2   3   3   4   2
M  END
