Coordinates from ORCA-job 4-MeOPhN2+~Cl-_B3LYPG-6-31G_dp-CH-Scan-d09-49-n800
 OpenBabel11261919403D

 18 17  0  0  0  0  0  0  0  0999 V2000
   -1.4450   -0.2470   -0.0368 C   0  0  0  0  0  0  0  0  0  0  0  0
   -2.8090   -0.3576    0.0727 N   0  0  0  0  0  0  0  0  0  0  0  0
   -3.9273   -0.3913    0.1668 N   0  0  0  0  0  0  0  0  0  0  0  0
   -0.9742    1.0895   -0.0322 C   0  0  0  0  0  0  0  0  0  0  0  0
    0.4258    1.1141   -0.1475 C   0  0  0  0  0  0  0  0  0  0  0  0
    1.2260   -0.0352   -0.2501 C   0  0  0  0  0  0  0  0  0  0  0  0
    2.5585    0.1706   -0.3520 O   0  0  0  0  0  0  0  0  0  0  0  0
    3.4434   -0.9397   -0.4566 C   0  0  0  0  0  0  0  0  0  0  0  0
    0.6513   -1.3400   -0.2450 C   0  0  0  0  0  0  0  0  0  0  0  0
   -0.7129   -1.4614   -0.1366 C   0  0  0  0  0  0  0  0  0  0  0  0
   -2.7600    3.4827    0.2309 H   0  0  0  0  0  0  0  0  0  0  0  0
    0.9616    2.0632   -0.1607 H   0  0  0  0  0  0  0  0  0  0  0  0
    4.4456   -0.5150   -0.5199 H   0  0  0  0  0  0  0  0  0  0  0  0
    3.2449   -1.5301   -1.3593 H   0  0  0  0  0  0  0  0  0  0  0  0
    3.3817   -1.5886    0.4254 H   0  0  0  0  0  0  0  0  0  0  0  0
    1.2678   -2.2263   -0.3237 H   0  0  0  0  0  0  0  0  0  0  0  0
   -1.1969   -2.4350   -0.1286 H   0  0  0  0  0  0  0  0  0  0  0  0
   -3.6519    4.4105    0.3580 Cl  0  0  0  0  0  0  0  0  0  0  0  0
  1  4  1  0  0  0  0
  1  2  1  0  0  0  0
  2  3  1  0  0  0  0
  5  4  2  0  0  0  0
  6  9  2  0  0  0  0
  6  5  1  0  0  0  0
  7  6  1  0  0  0  0
  8  7  1  0  0  0  0
  8 15  1  0  0  0  0
  9 10  1  0  0  0  0
 10 17  1  0  0  0  0
 10  1  2  0  0  0  0
 11 18  1  0  0  0  0
 12  5  1  0  0  0  0
 13  8  1  0  0  0  0
 14  8  1  0  0  0  0
 16  9  1  0  0  0  0
M  RAD  3   2   2   3   3   4   2
M  END
