Coordinates from ORCA-job 4-MeOPhN2+~Cl-_B3LYPG-6-31G_dp-CH-Scan-d09-49-n800
 OpenBabel11261919403D

 18 17  0  0  0  0  0  0  0  0999 V2000
   -1.4125   -0.4080   -0.0511 C   0  0  0  0  0  0  0  0  0  0  0  0
   -2.7761   -0.5542    0.0546 N   0  0  0  0  0  0  0  0  0  0  0  0
   -3.8946   -0.6066    0.1428 N   0  0  0  0  0  0  0  0  0  0  0  0
   -0.9933    0.9443   -0.0473 C   0  0  0  0  0  0  0  0  0  0  0  0
    0.4085    1.0094   -0.1590 C   0  0  0  0  0  0  0  0  0  0  0  0
    1.2450   -0.1133   -0.2574 C   0  0  0  0  0  0  0  0  0  0  0  0
    2.5724    0.1341   -0.3571 O   0  0  0  0  0  0  0  0  0  0  0  0
    3.4904   -0.9482   -0.4587 C   0  0  0  0  0  0  0  0  0  0  0  0
    0.7134   -1.4368   -0.2508 C   0  0  0  0  0  0  0  0  0  0  0  0
   -0.6465   -1.6016   -0.1458 C   0  0  0  0  0  0  0  0  0  0  0  0
   -3.0844    4.2111    0.2941 H   0  0  0  0  0  0  0  0  0  0  0  0
    0.9169    1.9743   -0.1730 H   0  0  0  0  0  0  0  0  0  0  0  0
    4.4796   -0.4937   -0.5226 H   0  0  0  0  0  0  0  0  0  0  0  0
    3.3110   -1.5472   -1.3598 H   0  0  0  0  0  0  0  0  0  0  0  0
    3.4490   -1.5973    0.4247 H   0  0  0  0  0  0  0  0  0  0  0  0
    1.3588   -2.3027   -0.3259 H   0  0  0  0  0  0  0  0  0  0  0  0
   -1.1001   -2.5899   -0.1366 H   0  0  0  0  0  0  0  0  0  0  0  0
   -3.9082    5.1897    0.4337 Cl  0  0  0  0  0  0  0  0  0  0  0  0
  1  4  1  0  0  0  0
  1  2  1  0  0  0  0
  2  3  1  0  0  0  0
  5  4  2  0  0  0  0
  6  9  2  0  0  0  0
  6  5  1  0  0  0  0
  7  6  1  0  0  0  0
  8  7  1  0  0  0  0
  8 15  1  0  0  0  0
  9 10  1  0  0  0  0
 10 17  1  0  0  0  0
 10  1  2  0  0  0  0
 11 18  1  0  0  0  0
 12  5  1  0  0  0  0
 13  8  1  0  0  0  0
 14  8  1  0  0  0  0
 16  9  1  0  0  0  0
M  RAD  3   2   2   3   3   4   2
M  END
