Coordinates from ORCA-job 4-MeOPhN2+~Cl-_B3LYPG-6-31G_dp-CH-Scan-d09-49-n800
 OpenBabel11261919403D

 18 17  0  0  0  0  0  0  0  0999 V2000
   -1.4189   -0.3645   -0.0469 C   0  0  0  0  0  0  0  0  0  0  0  0
   -2.7829   -0.5000    0.0601 N   0  0  0  0  0  0  0  0  0  0  0  0
   -3.9016   -0.5458    0.1495 N   0  0  0  0  0  0  0  0  0  0  0  0
   -0.9858    0.9838   -0.0425 C   0  0  0  0  0  0  0  0  0  0  0  0
    0.4160    1.0365   -0.1555 C   0  0  0  0  0  0  0  0  0  0  0  0
    1.2420   -0.0939   -0.2555 C   0  0  0  0  0  0  0  0  0  0  0  0
    2.5712    0.1415   -0.3559 O   0  0  0  0  0  0  0  0  0  0  0  0
    3.4796   -0.9490   -0.4586 C   0  0  0  0  0  0  0  0  0  0  0  0
    0.6981   -1.4123   -0.2497 C   0  0  0  0  0  0  0  0  0  0  0  0
   -0.6631   -1.5645   -0.1436 C   0  0  0  0  0  0  0  0  0  0  0  0
   -3.0152    4.0229    0.2785 H   0  0  0  0  0  0  0  0  0  0  0  0
    0.9328    1.9968   -0.1691 H   0  0  0  0  0  0  0  0  0  0  0  0
    4.4728   -0.5032   -0.5221 H   0  0  0  0  0  0  0  0  0  0  0  0
    3.2948   -1.5453   -1.3604 H   0  0  0  0  0  0  0  0  0  0  0  0
    3.4323   -1.5985    0.4241 H   0  0  0  0  0  0  0  0  0  0  0  0
    1.3353   -2.2840   -0.3262 H   0  0  0  0  0  0  0  0  0  0  0  0
   -1.1257   -2.5487   -0.1350 H   0  0  0  0  0  0  0  0  0  0  0  0
   -3.8522    4.9916    0.4136 Cl  0  0  0  0  0  0  0  0  0  0  0  0
  1  4  1  0  0  0  0
  1  2  1  0  0  0  0
  2  3  1  0  0  0  0
  5  4  2  0  0  0  0
  6  9  2  0  0  0  0
  6  5  1  0  0  0  0
  7  6  1  0  0  0  0
  8  7  1  0  0  0  0
  8 15  1  0  0  0  0
  9 10  1  0  0  0  0
 10 17  1  0  0  0  0
 10  1  2  0  0  0  0
 11 18  1  0  0  0  0
 12  5  1  0  0  0  0
 13  8  1  0  0  0  0
 14  8  1  0  0  0  0
 16  9  1  0  0  0  0
M  RAD  3   2   2   3   3   4   2
M  END
