Coordinates from ORCA-job 4-MeOPhN2+~Cl-_B3LYPG-6-31G_dp-CH-Scan-d09-49-n800
 OpenBabel11261919403D

 18 17  0  0  0  0  0  0  0  0999 V2000
   -1.4743   -0.1702   -0.0266 C   0  0  0  0  0  0  0  0  0  0  0  0
   -2.8379   -0.2681    0.0849 N   0  0  0  0  0  0  0  0  0  0  0  0
   -3.9558   -0.2956    0.1781 N   0  0  0  0  0  0  0  0  0  0  0  0
   -0.9795    1.1580   -0.0196 C   0  0  0  0  0  0  0  0  0  0  0  0
    0.4177    1.1709   -0.1366 C   0  0  0  0  0  0  0  0  0  0  0  0
    1.2040    0.0115   -0.2438 C   0  0  0  0  0  0  0  0  0  0  0  0
    2.5370    0.2023   -0.3467 O   0  0  0  0  0  0  0  0  0  0  0  0
    3.4100   -0.9178   -0.4553 C   0  0  0  0  0  0  0  0  0  0  0  0
    0.6122   -1.2849   -0.2415 C   0  0  0  0  0  0  0  0  0  0  0  0
   -0.7533   -1.3902   -0.1314 C   0  0  0  0  0  0  0  0  0  0  0  0
   -2.5009    3.0697    0.1871 H   0  0  0  0  0  0  0  0  0  0  0  0
    0.9616    2.1148   -0.1474 H   0  0  0  0  0  0  0  0  0  0  0  0
    4.4165   -0.5034   -0.5181 H   0  0  0  0  0  0  0  0  0  0  0  0
    3.2039   -1.5027   -1.3596 H   0  0  0  0  0  0  0  0  0  0  0  0
    3.3413   -1.5679    0.4252 H   0  0  0  0  0  0  0  0  0  0  0  0
    1.2171   -2.1788   -0.3238 H   0  0  0  0  0  0  0  0  0  0  0  0
   -1.2482   -2.3580   -0.1256 H   0  0  0  0  0  0  0  0  0  0  0  0
   -3.4420    3.9737    0.3057 Cl  0  0  0  0  0  0  0  0  0  0  0  0
  1  4  1  0  0  0  0
  1  2  1  0  0  0  0
  2  3  1  0  0  0  0
  5  4  2  0  0  0  0
  6  9  2  0  0  0  0
  6  5  1  0  0  0  0
  7  6  1  0  0  0  0
  8  7  1  0  0  0  0
  8 15  1  0  0  0  0
  9 10  1  0  0  0  0
 10 17  1  0  0  0  0
 10  1  2  0  0  0  0
 11 18  1  0  0  0  0
 12  5  1  0  0  0  0
 13  8  1  0  0  0  0
 14  8  1  0  0  0  0
 16  9  1  0  0  0  0
M  RAD  3   2   2   3   3   4   2
M  END
