Coordinates from ORCA-job 4-MeOPhN2+~Cl-_B3LYPG-6-31G_dp-CH-Scan-d09-49-n800
 OpenBabel11261919403D

 18 17  0  0  0  0  0  0  0  0999 V2000
   -1.4176   -0.3720   -0.0476 C   0  0  0  0  0  0  0  0  0  0  0  0
   -2.7816   -0.5092    0.0592 N   0  0  0  0  0  0  0  0  0  0  0  0
   -3.9003   -0.5560    0.1483 N   0  0  0  0  0  0  0  0  0  0  0  0
   -0.9869    0.9770   -0.0434 C   0  0  0  0  0  0  0  0  0  0  0  0
    0.4149    1.0318   -0.1561 C   0  0  0  0  0  0  0  0  0  0  0  0
    1.2427   -0.0974   -0.2559 C   0  0  0  0  0  0  0  0  0  0  0  0
    2.5716    0.1400   -0.3561 O   0  0  0  0  0  0  0  0  0  0  0  0
    3.4816   -0.9491   -0.4586 C   0  0  0  0  0  0  0  0  0  0  0  0
    0.7008   -1.4166   -0.2499 C   0  0  0  0  0  0  0  0  0  0  0  0
   -0.6602   -1.5710   -0.1440 C   0  0  0  0  0  0  0  0  0  0  0  0
   -3.0281    4.0561    0.2813 H   0  0  0  0  0  0  0  0  0  0  0  0
    0.9303    1.9928   -0.1699 H   0  0  0  0  0  0  0  0  0  0  0  0
    4.4741   -0.5018   -0.5222 H   0  0  0  0  0  0  0  0  0  0  0  0
    3.2977   -1.5459   -1.3603 H   0  0  0  0  0  0  0  0  0  0  0  0
    3.4353   -1.5985    0.4242 H   0  0  0  0  0  0  0  0  0  0  0  0
    1.3394   -2.2874   -0.3262 H   0  0  0  0  0  0  0  0  0  0  0  0
   -1.1213   -2.5558   -0.1353 H   0  0  0  0  0  0  0  0  0  0  0  0
   -3.8632    5.0263    0.4173 Cl  0  0  0  0  0  0  0  0  0  0  0  0
  1  4  1  0  0  0  0
  1  2  1  0  0  0  0
  2  3  1  0  0  0  0
  5  4  2  0  0  0  0
  6  9  2  0  0  0  0
  6  5  1  0  0  0  0
  7  6  1  0  0  0  0
  8  7  1  0  0  0  0
  8 15  1  0  0  0  0
  9 10  1  0  0  0  0
 10 17  1  0  0  0  0
 10  1  2  0  0  0  0
 11 18  1  0  0  0  0
 12  5  1  0  0  0  0
 13  8  1  0  0  0  0
 14  8  1  0  0  0  0
 16  9  1  0  0  0  0
M  RAD  3   2   2   3   3   4   2
M  END
