Coordinates from ORCA-job 4-MeOPhN2+~Cl-_B3LYPG-6-31G_dp-CH-Scan-d09-49-n800
 OpenBabel11261919403D

 18 17  0  0  0  0  0  0  0  0999 V2000
   -1.4674   -0.1949   -0.0289 C   0  0  0  0  0  0  0  0  0  0  0  0
   -2.8308   -0.2988    0.0819 N   0  0  0  0  0  0  0  0  0  0  0  0
   -3.9488   -0.3316    0.1746 N   0  0  0  0  0  0  0  0  0  0  0  0
   -0.9810    1.1364   -0.0221 C   0  0  0  0  0  0  0  0  0  0  0  0
    0.4171    1.1537   -0.1386 C   0  0  0  0  0  0  0  0  0  0  0  0
    1.2086   -0.0018   -0.2451 C   0  0  0  0  0  0  0  0  0  0  0  0
    2.5413    0.1947   -0.3477 O   0  0  0  0  0  0  0  0  0  0  0  0
    3.4189   -0.9217   -0.4558 C   0  0  0  0  0  0  0  0  0  0  0  0
    0.6231   -1.3013   -0.2426 C   0  0  0  0  0  0  0  0  0  0  0  0
   -0.7419   -1.4126   -0.1330 C   0  0  0  0  0  0  0  0  0  0  0  0
   -2.5716    3.1903    0.1988 H   0  0  0  0  0  0  0  0  0  0  0  0
    0.9580    2.0996   -0.1498 H   0  0  0  0  0  0  0  0  0  0  0  0
    4.4237   -0.5032   -0.5186 H   0  0  0  0  0  0  0  0  0  0  0  0
    3.2155   -1.5079   -1.3600 H   0  0  0  0  0  0  0  0  0  0  0  0
    3.3530   -1.5720    0.4248 H   0  0  0  0  0  0  0  0  0  0  0  0
    1.2322   -2.1924   -0.3243 H   0  0  0  0  0  0  0  0  0  0  0  0
   -1.2327   -2.3826   -0.1269 H   0  0  0  0  0  0  0  0  0  0  0  0
   -3.4879    4.1095    0.3184 Cl  0  0  0  0  0  0  0  0  0  0  0  0
  1  4  1  0  0  0  0
  1  2  1  0  0  0  0
  2  3  1  0  0  0  0
  5  4  2  0  0  0  0
  6  9  2  0  0  0  0
  6  5  1  0  0  0  0
  7  6  1  0  0  0  0
  8  7  1  0  0  0  0
  8 15  1  0  0  0  0
  9 10  1  0  0  0  0
 10 17  1  0  0  0  0
 10  1  2  0  0  0  0
 11 18  1  0  0  0  0
 12  5  1  0  0  0  0
 13  8  1  0  0  0  0
 14  8  1  0  0  0  0
 16  9  1  0  0  0  0
M  RAD  3   2   2   3   3   4   2
M  END
