Coordinates from ORCA-job 4-MeOPhN2+~Cl-_B3LYPG-6-31G_dp-CH-Scan-d09-49-n800
 OpenBabel11261919403D

 18 17  0  0  0  0  0  0  0  0999 V2000
   -1.5244   -0.0606   -0.0177 C   0  0  0  0  0  0  0  0  0  0  0  0
   -2.9152   -0.0950    0.0981 N   0  0  0  0  0  0  0  0  0  0  0  0
   -3.9110    0.4577    0.2039 N   0  0  0  0  0  0  0  0  0  0  0  0
   -0.9313    1.2105   -0.0180 C   0  0  0  0  0  0  0  0  0  0  0  0
    0.4447    1.2617   -0.1305 C   0  0  0  0  0  0  0  0  0  0  0  0
    1.1994    0.0738   -0.2389 C   0  0  0  0  0  0  0  0  0  0  0  0
    2.5339    0.2419   -0.3422 O   0  0  0  0  0  0  0  0  0  0  0  0
    3.3790   -0.9002   -0.4524 C   0  0  0  0  0  0  0  0  0  0  0  0
    0.5672   -1.1906   -0.2355 C   0  0  0  0  0  0  0  0  0  0  0  0
   -0.8117   -1.2629   -0.1236 C   0  0  0  0  0  0  0  0  0  0  0  0
   -1.9297    2.2899    0.1080 H   0  0  0  0  0  0  0  0  0  0  0  0
    0.9812    2.2056   -0.1383 H   0  0  0  0  0  0  0  0  0  0  0  0
    4.3951   -0.5108   -0.5161 H   0  0  0  0  0  0  0  0  0  0  0  0
    3.1547   -1.4781   -1.3567 H   0  0  0  0  0  0  0  0  0  0  0  0
    3.2923   -1.5475    0.4283 H   0  0  0  0  0  0  0  0  0  0  0  0
    1.1449   -2.1023   -0.3183 H   0  0  0  0  0  0  0  0  0  0  0  0
   -1.3260   -2.2188   -0.1179 H   0  0  0  0  0  0  0  0  0  0  0  0
   -3.6137    2.8891    0.2726 Cl  0  0  0  0  0  0  0  0  0  0  0  0
  1  2  1  0  0  0  0
  2  3  2  0  0  0  0
  4  1  1  0  0  0  0
  4 11  1  0  0  0  0
  5  4  2  0  0  0  0
  6  9  2  0  0  0  0
  6  5  1  0  0  0  0
  7  6  1  0  0  0  0
  8  7  1  0  0  0  0
  8 15  1  0  0  0  0
  9 10  1  0  0  0  0
 10 17  1  0  0  0  0
 10  1  2  0  0  0  0
 12  5  1  0  0  0  0
 13  8  1  0  0  0  0
 14  8  1  0  0  0  0
 16  9  1  0  0  0  0
M  RAD  2   3   2  18   2
M  END
