Coordinates from ORCA-job 4-MeOPhN2+~Cl-_B3LYPG-6-31G_dp-CH-Scan-d09-49-n800
 OpenBabel11261919403D

 18 17  0  0  0  0  0  0  0  0999 V2000
   -1.4046   -0.4836   -0.0572 C   0  0  0  0  0  0  0  0  0  0  0  0
   -2.7667   -0.6506    0.0459 N   0  0  0  0  0  0  0  0  0  0  0  0
   -3.8847   -0.7172    0.1321 N   0  0  0  0  0  0  0  0  0  0  0  0
   -1.0098    0.8755   -0.0532 C   0  0  0  0  0  0  0  0  0  0  0  0
    0.3914    0.9640   -0.1624 C   0  0  0  0  0  0  0  0  0  0  0  0
    1.2468   -0.1444   -0.2596 C   0  0  0  0  0  0  0  0  0  0  0  0
    2.5703    0.1252   -0.3580 O   0  0  0  0  0  0  0  0  0  0  0  0
    3.5060   -0.9417   -0.4589 C   0  0  0  0  0  0  0  0  0  0  0  0
    0.7377   -1.4769   -0.2530 C   0  0  0  0  0  0  0  0  0  0  0  0
   -0.6194   -1.6646   -0.1499 C   0  0  0  0  0  0  0  0  0  0  0  0
   -3.1832    4.5197    0.3170 H   0  0  0  0  0  0  0  0  0  0  0  0
    0.8838    1.9373   -0.1760 H   0  0  0  0  0  0  0  0  0  0  0  0
    4.4876   -0.4711   -0.5234 H   0  0  0  0  0  0  0  0  0  0  0  0
    3.3364   -1.5445   -1.3594 H   0  0  0  0  0  0  0  0  0  0  0  0
    3.4758   -1.5907    0.4251 H   0  0  0  0  0  0  0  0  0  0  0  0
    1.3978   -2.3316   -0.3266 H   0  0  0  0  0  0  0  0  0  0  0  0
   -1.0563   -2.6605   -0.1406 H   0  0  0  0  0  0  0  0  0  0  0  0
   -3.9797    5.5192    0.4631 Cl  0  0  0  0  0  0  0  0  0  0  0  0
  1  4  1  0  0  0  0
  1  2  1  0  0  0  0
  2  3  1  0  0  0  0
  5  4  2  0  0  0  0
  6  9  2  0  0  0  0
  6  5  1  0  0  0  0
  7  6  1  0  0  0  0
  8  7  1  0  0  0  0
  8 15  1  0  0  0  0
  9 10  1  0  0  0  0
 10 17  1  0  0  0  0
 10  1  2  0  0  0  0
 11 18  1  0  0  0  0
 12  5  1  0  0  0  0
 13  8  1  0  0  0  0
 14  8  1  0  0  0  0
 16  9  1  0  0  0  0
M  RAD  3   2   2   3   3   4   2
M  END
