Coordinates from ORCA-job 4-MeOPhN2+~Cl-_B3LYPG-6-31G_dp-CH-Scan-d09-49-n800
 OpenBabel11261919403D

 18 17  0  0  0  0  0  0  0  0999 V2000
   -1.4436   -0.2506   -0.0368 C   0  0  0  0  0  0  0  0  0  0  0  0
   -2.8076   -0.3619    0.0729 N   0  0  0  0  0  0  0  0  0  0  0  0
   -3.9262   -0.3957    0.1644 N   0  0  0  0  0  0  0  0  0  0  0  0
   -0.9740    1.0864   -0.0325 C   0  0  0  0  0  0  0  0  0  0  0  0
    0.4261    1.1114   -0.1479 C   0  0  0  0  0  0  0  0  0  0  0  0
    1.2270   -0.0374   -0.2503 C   0  0  0  0  0  0  0  0  0  0  0  0
    2.5594    0.1691   -0.3524 O   0  0  0  0  0  0  0  0  0  0  0  0
    3.4449   -0.9407   -0.4569 C   0  0  0  0  0  0  0  0  0  0  0  0
    0.6531   -1.3425   -0.2450 C   0  0  0  0  0  0  0  0  0  0  0  0
   -0.7110   -1.4648   -0.1365 C   0  0  0  0  0  0  0  0  0  0  0  0
   -2.7712    3.5022    0.2329 H   0  0  0  0  0  0  0  0  0  0  0  0
    0.9616    2.0608   -0.1613 H   0  0  0  0  0  0  0  0  0  0  0  0
    4.4469   -0.5154   -0.5203 H   0  0  0  0  0  0  0  0  0  0  0  0
    3.2467   -1.5314   -1.3594 H   0  0  0  0  0  0  0  0  0  0  0  0
    3.3837   -1.5895    0.4253 H   0  0  0  0  0  0  0  0  0  0  0  0
    1.2702   -2.2285   -0.3236 H   0  0  0  0  0  0  0  0  0  0  0  0
   -1.1944   -2.4386   -0.1283 H   0  0  0  0  0  0  0  0  0  0  0  0
   -3.6621    4.4303    0.3605 Cl  0  0  0  0  0  0  0  0  0  0  0  0
  1  4  1  0  0  0  0
  1  2  1  0  0  0  0
  2  3  1  0  0  0  0
  5  4  2  0  0  0  0
  6  9  2  0  0  0  0
  6  5  1  0  0  0  0
  7  6  1  0  0  0  0
  8  7  1  0  0  0  0
  8 15  1  0  0  0  0
  9 10  1  0  0  0  0
 10 17  1  0  0  0  0
 10  1  2  0  0  0  0
 11 18  1  0  0  0  0
 12  5  1  0  0  0  0
 13  8  1  0  0  0  0
 14  8  1  0  0  0  0
 16  9  1  0  0  0  0
M  RAD  3   2   2   3   3   4   2
M  END
