Coordinates from ORCA-job 4-MeOPhN2+~Cl-_B3LYPG-6-31G_dp-CH-Scan-d09-49-n800
 OpenBabel11261919403D

 18 17  0  0  0  0  0  0  0  0999 V2000
   -1.4082   -0.6263   -0.0825 C   0  0  0  0  0  0  0  0  0  0  0  0
   -2.7642   -0.8432    0.0138 N   0  0  0  0  0  0  0  0  0  0  0  0
   -3.8798   -0.9496    0.0928 N   0  0  0  0  0  0  0  0  0  0  0  0
   -1.0678    0.7467   -0.1018 C   0  0  0  0  0  0  0  0  0  0  0  0
    0.3299    0.8885   -0.2035 C   0  0  0  0  0  0  0  0  0  0  0  0
    1.2287   -0.1870   -0.2739 C   0  0  0  0  0  0  0  0  0  0  0  0
    2.5415    0.1323   -0.3700 O   0  0  0  0  0  0  0  0  0  0  0  0
    3.5184   -0.8989   -0.4468 C   0  0  0  0  0  0  0  0  0  0  0  0
    0.7723   -1.5382   -0.2447 C   0  0  0  0  0  0  0  0  0  0  0  0
   -0.5773   -1.7773   -0.1470 C   0  0  0  0  0  0  0  0  0  0  0  0
   -3.2577    4.9854    0.3765 H   0  0  0  0  0  0  0  0  0  0  0  0
    0.7842    1.8799   -0.2326 H   0  0  0  0  0  0  0  0  0  0  0  0
    4.4811   -0.3917   -0.5194 H   0  0  0  0  0  0  0  0  0  0  0  0
    3.3749   -1.5265   -1.3348 H   0  0  0  0  0  0  0  0  0  0  0  0
    3.5117   -1.5299    0.4505 H   0  0  0  0  0  0  0  0  0  0  0  0
    1.4657   -2.3677   -0.2975 H   0  0  0  0  0  0  0  0  0  0  0  0
   -0.9748   -2.7894   -0.1212 H   0  0  0  0  0  0  0  0  0  0  0  0
   -3.9495    6.0562    0.5471 Cl  0  0  0  0  0  0  0  0  0  0  0  0
  1  2  1  0  0  0  0
  2  3  1  0  0  0  0
  4  1  1  0  0  0  0
  5  4  2  0  0  0  0
  6  9  2  0  0  0  0
  6  5  1  0  0  0  0
  7  6  1  0  0  0  0
  8  7  1  0  0  0  0
  8 15  1  0  0  0  0
  9 10  1  0  0  0  0
 10 17  1  0  0  0  0
 10  1  2  0  0  0  0
 11 18  1  0  0  0  0
 12  5  1  0  0  0  0
 13  8  1  0  0  0  0
 14  8  1  0  0  0  0
 16  9  1  0  0  0  0
M  RAD  3   2   2   3   3   4   2
M  END
