Coordinates from ORCA-job 4-MeOPhN2+~Cl-_B3LYPG-6-31G_dp-CH-Scan-d09-49-n800
 OpenBabel11261919403D

 18 17  0  0  0  0  0  0  0  0999 V2000
   -1.4605   -0.2149   -0.0310 C   0  0  0  0  0  0  0  0  0  0  0  0
   -2.8239   -0.3223    0.0795 N   0  0  0  0  0  0  0  0  0  0  0  0
   -3.9421   -0.3571    0.1718 N   0  0  0  0  0  0  0  0  0  0  0  0
   -0.9805    1.1187   -0.0243 C   0  0  0  0  0  0  0  0  0  0  0  0
    0.4183    1.1393   -0.1405 C   0  0  0  0  0  0  0  0  0  0  0  0
    1.2136   -0.0135   -0.2463 C   0  0  0  0  0  0  0  0  0  0  0  0
    2.5461    0.1872   -0.3488 O   0  0  0  0  0  0  0  0  0  0  0  0
    3.4270   -0.9264   -0.4564 C   0  0  0  0  0  0  0  0  0  0  0  0
    0.6327   -1.3152   -0.2436 C   0  0  0  0  0  0  0  0  0  0  0  0
   -0.7318   -1.4310   -0.1343 C   0  0  0  0  0  0  0  0  0  0  0  0
   -2.6350    3.2932    0.2091 H   0  0  0  0  0  0  0  0  0  0  0  0
    0.9569    2.0866   -0.1520 H   0  0  0  0  0  0  0  0  0  0  0  0
    4.4306   -0.5050   -0.5192 H   0  0  0  0  0  0  0  0  0  0  0  0
    3.2256   -1.5137   -1.3603 H   0  0  0  0  0  0  0  0  0  0  0  0
    3.3631   -1.5767    0.4244 H   0  0  0  0  0  0  0  0  0  0  0  0
    1.2450   -2.2042   -0.3248 H   0  0  0  0  0  0  0  0  0  0  0  0
   -1.2196   -2.4026   -0.1280 H   0  0  0  0  0  0  0  0  0  0  0  0
   -3.5361    4.2208    0.3298 Cl  0  0  0  0  0  0  0  0  0  0  0  0
  1  4  1  0  0  0  0
  1  2  1  0  0  0  0
  2  3  1  0  0  0  0
  5  4  2  0  0  0  0
  6  9  2  0  0  0  0
  6  5  1  0  0  0  0
  7  6  1  0  0  0  0
  8  7  1  0  0  0  0
  8 15  1  0  0  0  0
  9 10  1  0  0  0  0
 10 17  1  0  0  0  0
 10  1  2  0  0  0  0
 11 18  1  0  0  0  0
 12  5  1  0  0  0  0
 13  8  1  0  0  0  0
 14  8  1  0  0  0  0
 16  9  1  0  0  0  0
M  RAD  3   2   2   3   3   4   2
M  END
