Coordinates from ORCA-job 4-MeOPhN2+~Cl-_B3LYPG-6-31G_dp-CH-Scan-d09-49-n800
 OpenBabel11261919403D

 18 17  0  0  0  0  0  0  0  0999 V2000
   -1.4909   -0.1330   -0.0224 C   0  0  0  0  0  0  0  0  0  0  0  0
   -2.8547   -0.2229    0.0899 N   0  0  0  0  0  0  0  0  0  0  0  0
   -3.9723   -0.2423    0.1837 N   0  0  0  0  0  0  0  0  0  0  0  0
   -0.9833    1.1900   -0.0151 C   0  0  0  0  0  0  0  0  0  0  0  0
    0.4117    1.1999   -0.1324 C   0  0  0  0  0  0  0  0  0  0  0  0
    1.1916    0.0355   -0.2409 C   0  0  0  0  0  0  0  0  0  0  0  0
    2.5244    0.2195   -0.3443 O   0  0  0  0  0  0  0  0  0  0  0  0
    3.3923   -0.9050   -0.4540 C   0  0  0  0  0  0  0  0  0  0  0  0
    0.5917   -1.2566   -0.2393 C   0  0  0  0  0  0  0  0  0  0  0  0
   -0.7747   -1.3547   -0.1286 C   0  0  0  0  0  0  0  0  0  0  0  0
   -2.3540    2.8517    0.1648 H   0  0  0  0  0  0  0  0  0  0  0  0
    0.9580    2.1419   -0.1425 H   0  0  0  0  0  0  0  0  0  0  0  0
    4.4005   -0.4950   -0.5168 H   0  0  0  0  0  0  0  0  0  0  0  0
    3.1827   -1.4878   -1.3589 H   0  0  0  0  0  0  0  0  0  0  0  0
    3.3204   -1.5550    0.4262 H   0  0  0  0  0  0  0  0  0  0  0  0
    1.1911   -2.1541   -0.3226 H   0  0  0  0  0  0  0  0  0  0  0  0
   -1.2744   -2.3198   -0.1233 H   0  0  0  0  0  0  0  0  0  0  0  0
   -3.3308    3.7507    0.2815 Cl  0  0  0  0  0  0  0  0  0  0  0  0
  1  4  1  0  0  0  0
  1  2  1  0  0  0  0
  2  3  1  0  0  0  0
  5  4  2  0  0  0  0
  6  9  2  0  0  0  0
  6  5  1  0  0  0  0
  7  6  1  0  0  0  0
  8  7  1  0  0  0  0
  8 15  1  0  0  0  0
  9 10  1  0  0  0  0
 10 17  1  0  0  0  0
 10  1  2  0  0  0  0
 11 18  1  0  0  0  0
 12  5  1  0  0  0  0
 13  8  1  0  0  0  0
 14  8  1  0  0  0  0
 16  9  1  0  0  0  0
M  RAD  3   2   2   3   3   4   2
M  END
