Coordinates from ORCA-job 4-MeOPhN2+~Cl-_B3LYPG-6-31G_dp-CH-Scan-d09-49-n800
 OpenBabel11261919403D

 18 17  0  0  0  0  0  0  0  0999 V2000
   -1.4753   -0.1672   -0.0263 C   0  0  0  0  0  0  0  0  0  0  0  0
   -2.8388   -0.2642    0.0853 N   0  0  0  0  0  0  0  0  0  0  0  0
   -3.9568   -0.2910    0.1785 N   0  0  0  0  0  0  0  0  0  0  0  0
   -0.9794    1.1606   -0.0194 C   0  0  0  0  0  0  0  0  0  0  0  0
    0.4177    1.1731   -0.1363 C   0  0  0  0  0  0  0  0  0  0  0  0
    1.2033    0.0132   -0.2436 C   0  0  0  0  0  0  0  0  0  0  0  0
    2.5364    0.2033   -0.3466 O   0  0  0  0  0  0  0  0  0  0  0  0
    3.4089   -0.9173   -0.4552 C   0  0  0  0  0  0  0  0  0  0  0  0
    0.6108   -1.2828   -0.2414 C   0  0  0  0  0  0  0  0  0  0  0  0
   -0.7548   -1.3874   -0.1312 C   0  0  0  0  0  0  0  0  0  0  0  0
   -2.4916    3.0542    0.1856 H   0  0  0  0  0  0  0  0  0  0  0  0
    0.9620    2.1167   -0.1472 H   0  0  0  0  0  0  0  0  0  0  0  0
    4.4155   -0.5033   -0.5180 H   0  0  0  0  0  0  0  0  0  0  0  0
    3.2024   -1.5020   -1.3596 H   0  0  0  0  0  0  0  0  0  0  0  0
    3.3398   -1.5673    0.4253 H   0  0  0  0  0  0  0  0  0  0  0  0
    1.2152   -2.1771   -0.3238 H   0  0  0  0  0  0  0  0  0  0  0  0
   -1.2502   -2.3549   -0.1254 H   0  0  0  0  0  0  0  0  0  0  0  0
   -3.4359    3.9565    0.3041 Cl  0  0  0  0  0  0  0  0  0  0  0  0
  1  4  1  0  0  0  0
  1  2  1  0  0  0  0
  2  3  1  0  0  0  0
  5  4  2  0  0  0  0
  6  9  2  0  0  0  0
  6  5  1  0  0  0  0
  7  6  1  0  0  0  0
  8  7  1  0  0  0  0
  8 15  1  0  0  0  0
  9 10  1  0  0  0  0
 10 17  1  0  0  0  0
 10  1  2  0  0  0  0
 11 18  1  0  0  0  0
 12  5  1  0  0  0  0
 13  8  1  0  0  0  0
 14  8  1  0  0  0  0
 16  9  1  0  0  0  0
M  RAD  3   2   2   3   3   4   2
M  END
