Coordinates from ORCA-job 4-MeOPhN2+~Cl-_B3LYPG-6-31G_dp-CH-Scan-d09-49-n800
 OpenBabel11261919403D

 18 17  0  0  0  0  0  0  0  0999 V2000
   -1.4089   -0.6304   -0.0831 C   0  0  0  0  0  0  0  0  0  0  0  0
   -2.7646   -0.8493    0.0130 N   0  0  0  0  0  0  0  0  0  0  0  0
   -3.8800   -0.9574    0.0917 N   0  0  0  0  0  0  0  0  0  0  0  0
   -1.0704    0.7430   -0.1027 C   0  0  0  0  0  0  0  0  0  0  0  0
    0.3272    0.8866   -0.2042 C   0  0  0  0  0  0  0  0  0  0  0  0
    1.2275   -0.1877   -0.2742 C   0  0  0  0  0  0  0  0  0  0  0  0
    2.5399    0.1334   -0.3701 O   0  0  0  0  0  0  0  0  0  0  0  0
    3.5182   -0.8965   -0.4464 C   0  0  0  0  0  0  0  0  0  0  0  0
    0.7729   -1.5395   -0.2445 C   0  0  0  0  0  0  0  0  0  0  0  0
   -0.5764   -1.7804   -0.1470 C   0  0  0  0  0  0  0  0  0  0  0  0
   -3.2552    4.9954    0.3774 H   0  0  0  0  0  0  0  0  0  0  0  0
    0.7802    1.8786   -0.2335 H   0  0  0  0  0  0  0  0  0  0  0  0
    4.4801   -0.3880   -0.5192 H   0  0  0  0  0  0  0  0  0  0  0  0
    3.3755   -1.5247   -1.3342 H   0  0  0  0  0  0  0  0  0  0  0  0
    3.5123   -1.5272    0.4512 H   0  0  0  0  0  0  0  0  0  0  0  0
    1.4674   -2.3680   -0.2969 H   0  0  0  0  0  0  0  0  0  0  0  0
   -0.9725   -2.7929   -0.1209 H   0  0  0  0  0  0  0  0  0  0  0  0
   -3.9439    6.0682    0.5485 Cl  0  0  0  0  0  0  0  0  0  0  0  0
  1  2  1  0  0  0  0
  2  3  1  0  0  0  0
  4  1  1  0  0  0  0
  5  4  2  0  0  0  0
  6  9  2  0  0  0  0
  6  5  1  0  0  0  0
  7  6  1  0  0  0  0
  8  7  1  0  0  0  0
  8 15  1  0  0  0  0
  9 10  1  0  0  0  0
 10 17  1  0  0  0  0
 10  1  2  0  0  0  0
 11 18  1  0  0  0  0
 12  5  1  0  0  0  0
 13  8  1  0  0  0  0
 14  8  1  0  0  0  0
 16  9  1  0  0  0  0
M  RAD  3   2   2   3   3   4   2
M  END
