Coordinates from ORCA-job 4-MeOPhN2+~Cl-_B3LYPG-6-31G_dp-CH-Scan-d09-49-n800
 OpenBabel11261919403D

 18 17  0  0  0  0  0  0  0  0999 V2000
   -1.4059   -0.5807   -0.0702 C   0  0  0  0  0  0  0  0  0  0  0  0
   -2.7641   -0.7811    0.0292 N   0  0  0  0  0  0  0  0  0  0  0  0
   -3.8806   -0.8742    0.1113 N   0  0  0  0  0  0  0  0  0  0  0  0
   -1.0472    0.7881   -0.0754 C   0  0  0  0  0  0  0  0  0  0  0  0
    0.3519    0.9122   -0.1806 C   0  0  0  0  0  0  0  0  0  0  0  0
    1.2360   -0.1743   -0.2662 C   0  0  0  0  0  0  0  0  0  0  0  0
    2.5526    0.1287   -0.3628 O   0  0  0  0  0  0  0  0  0  0  0  0
    3.5156   -0.9145   -0.4533 C   0  0  0  0  0  0  0  0  0  0  0  0
    0.7617   -1.5195   -0.2507 C   0  0  0  0  0  0  0  0  0  0  0  0
   -0.5905   -1.7418   -0.1508 C   0  0  0  0  0  0  0  0  0  0  0  0
   -3.2405    4.8429    0.3510 H   0  0  0  0  0  0  0  0  0  0  0  0
    0.8189    1.8978   -0.2002 H   0  0  0  0  0  0  0  0  0  0  0  0
    4.4848   -0.4194   -0.5213 H   0  0  0  0  0  0  0  0  0  0  0  0
    3.3625   -1.5296   -1.3485 H   0  0  0  0  0  0  0  0  0  0  0  0
    3.5015   -1.5561    0.4365 H   0  0  0  0  0  0  0  0  0  0  0  0
    1.4440   -2.3574   -0.3154 H   0  0  0  0  0  0  0  0  0  0  0  0
   -1.0014   -2.7487   -0.1352 H   0  0  0  0  0  0  0  0  0  0  0  0
   -3.9698    5.8908    0.5074 Cl  0  0  0  0  0  0  0  0  0  0  0  0
  1  2  1  0  0  0  0
  2  3  1  0  0  0  0
  4  1  1  0  0  0  0
  5  4  2  0  0  0  0
  6  9  2  0  0  0  0
  6  5  1  0  0  0  0
  7  6  1  0  0  0  0
  8  7  1  0  0  0  0
  8 15  1  0  0  0  0
  9 10  1  0  0  0  0
 10 17  1  0  0  0  0
 10  1  2  0  0  0  0
 11 18  1  0  0  0  0
 12  5  1  0  0  0  0
 13  8  1  0  0  0  0
 14  8  1  0  0  0  0
 16  9  1  0  0  0  0
M  RAD  3   2   2   3   3   4   2
M  END
