Coordinates from ORCA-job 4-MeOPhN2+~Cl-_B3LYPG-6-31G_dp-CH-Scan-d09-49-n800
 OpenBabel11261919403D

 18 17  0  0  0  0  0  0  0  0999 V2000
   -1.4299   -0.3230   -0.0426 C   0  0  0  0  0  0  0  0  0  0  0  0
   -2.7940   -0.4506    0.0656 N   0  0  0  0  0  0  0  0  0  0  0  0
   -3.9127   -0.4928    0.1546 N   0  0  0  0  0  0  0  0  0  0  0  0
   -0.9843    1.0214   -0.0377 C   0  0  0  0  0  0  0  0  0  0  0  0
    0.4170    1.0653   -0.1517 C   0  0  0  0  0  0  0  0  0  0  0  0
    1.2346   -0.0715   -0.2531 C   0  0  0  0  0  0  0  0  0  0  0  0
    2.5649    0.1539   -0.3540 O   0  0  0  0  0  0  0  0  0  0  0  0
    3.4655   -0.9432   -0.4580 C   0  0  0  0  0  0  0  0  0  0  0  0
    0.6804   -1.3855   -0.2479 C   0  0  0  0  0  0  0  0  0  0  0  0
   -0.6818   -1.5278   -0.1409 C   0  0  0  0  0  0  0  0  0  0  0  0
   -2.9186    3.8178    0.2601 H   0  0  0  0  0  0  0  0  0  0  0  0
    0.9402    2.0219   -0.1649 H   0  0  0  0  0  0  0  0  0  0  0  0
    4.4618   -0.5044   -0.5212 H   0  0  0  0  0  0  0  0  0  0  0  0
    3.2761   -1.5372   -1.3603 H   0  0  0  0  0  0  0  0  0  0  0  0
    3.4135   -1.5929    0.4242 H   0  0  0  0  0  0  0  0  0  0  0  0
    1.3108   -2.2620   -0.3256 H   0  0  0  0  0  0  0  0  0  0  0  0
   -1.1513   -2.5086   -0.1329 H   0  0  0  0  0  0  0  0  0  0  0  0
   -3.7627    4.7825    0.3912 Cl  0  0  0  0  0  0  0  0  0  0  0  0
  1  4  1  0  0  0  0
  1  2  1  0  0  0  0
  2  3  1  0  0  0  0
  5  4  2  0  0  0  0
  6  9  2  0  0  0  0
  6  5  1  0  0  0  0
  7  6  1  0  0  0  0
  8  7  1  0  0  0  0
  8 15  1  0  0  0  0
  9 10  1  0  0  0  0
 10 17  1  0  0  0  0
 10  1  2  0  0  0  0
 11 18  1  0  0  0  0
 12  5  1  0  0  0  0
 13  8  1  0  0  0  0
 14  8  1  0  0  0  0
 16  9  1  0  0  0  0
M  RAD  3   2   2   3   3   4   2
M  END
