Coordinates from ORCA-job 4-MeOPhN2+~Cl-_B3LYPG-6-31G_dp-CH-Scan-d09-49-n800
 OpenBabel11261919403D

 18 17  0  0  0  0  0  0  0  0999 V2000
   -1.4114   -0.4158   -0.0518 C   0  0  0  0  0  0  0  0  0  0  0  0
   -2.7749   -0.5639    0.0536 N   0  0  0  0  0  0  0  0  0  0  0  0
   -3.8934   -0.6176    0.1416 N   0  0  0  0  0  0  0  0  0  0  0  0
   -0.9946    0.9372   -0.0482 C   0  0  0  0  0  0  0  0  0  0  0  0
    0.4072    1.0046   -0.1596 C   0  0  0  0  0  0  0  0  0  0  0  0
    1.2455   -0.1168   -0.2577 C   0  0  0  0  0  0  0  0  0  0  0  0
    2.5725    0.1328   -0.3573 O   0  0  0  0  0  0  0  0  0  0  0  0
    3.4923   -0.9480   -0.4587 C   0  0  0  0  0  0  0  0  0  0  0  0
    0.7161   -1.4412   -0.2510 C   0  0  0  0  0  0  0  0  0  0  0  0
   -0.6436   -1.6082   -0.1462 C   0  0  0  0  0  0  0  0  0  0  0  0
   -3.0965    4.2445    0.2968 H   0  0  0  0  0  0  0  0  0  0  0  0
    0.9140    1.9703   -0.1737 H   0  0  0  0  0  0  0  0  0  0  0  0
    4.4808   -0.4919   -0.5227 H   0  0  0  0  0  0  0  0  0  0  0  0
    3.3139   -1.5475   -1.3597 H   0  0  0  0  0  0  0  0  0  0  0  0
    3.4520   -1.5970    0.4248 H   0  0  0  0  0  0  0  0  0  0  0  0
    1.3629   -2.3059   -0.3259 H   0  0  0  0  0  0  0  0  0  0  0  0
   -1.0956   -2.5973   -0.1369 H   0  0  0  0  0  0  0  0  0  0  0  0
   -3.9179    5.2249    0.4373 Cl  0  0  0  0  0  0  0  0  0  0  0  0
  1  4  1  0  0  0  0
  1  2  1  0  0  0  0
  2  3  1  0  0  0  0
  5  4  2  0  0  0  0
  6  9  2  0  0  0  0
  6  5  1  0  0  0  0
  7  6  1  0  0  0  0
  8  7  1  0  0  0  0
  8 15  1  0  0  0  0
  9 10  1  0  0  0  0
 10 17  1  0  0  0  0
 10  1  2  0  0  0  0
 11 18  1  0  0  0  0
 12  5  1  0  0  0  0
 13  8  1  0  0  0  0
 14  8  1  0  0  0  0
 16  9  1  0  0  0  0
M  RAD  3   2   2   3   3   4   2
M  END
