Coordinates from ORCA-job 4-MeOPhN2+~Cl-_B3LYPG-6-31G_dp-CH-Scan-d09-49-n800
 OpenBabel11261919403D

 18 17  0  0  0  0  0  0  0  0999 V2000
   -1.5074   -0.1020   -0.0186 C   0  0  0  0  0  0  0  0  0  0  0  0
   -2.8717   -0.1841    0.0942 N   0  0  0  0  0  0  0  0  0  0  0  0
   -3.9887   -0.1924    0.1887 N   0  0  0  0  0  0  0  0  0  0  0  0
   -0.9867    1.2151   -0.0115 C   0  0  0  0  0  0  0  0  0  0  0  0
    0.4054    1.2255   -0.1286 C   0  0  0  0  0  0  0  0  0  0  0  0
    1.1800    0.0569   -0.2383 C   0  0  0  0  0  0  0  0  0  0  0  0
    2.5121    0.2356   -0.3418 O   0  0  0  0  0  0  0  0  0  0  0  0
    3.3764   -0.8924   -0.4529 C   0  0  0  0  0  0  0  0  0  0  0  0
    0.5732   -1.2312   -0.2371 C   0  0  0  0  0  0  0  0  0  0  0  0
   -0.7941   -1.3239   -0.1259 C   0  0  0  0  0  0  0  0  0  0  0  0
   -2.2079    2.6508    0.1435 H   0  0  0  0  0  0  0  0  0  0  0  0
    0.9516    2.1671   -0.1379 H   0  0  0  0  0  0  0  0  0  0  0  0
    4.3858   -0.4854   -0.5156 H   0  0  0  0  0  0  0  0  0  0  0  0
    3.1639   -1.4729   -1.3583 H   0  0  0  0  0  0  0  0  0  0  0  0
    3.3019   -1.5422    0.4269 H   0  0  0  0  0  0  0  0  0  0  0  0
    1.1680   -2.1317   -0.3213 H   0  0  0  0  0  0  0  0  0  0  0  0
   -1.2973   -2.2869   -0.1211 H   0  0  0  0  0  0  0  0  0  0  0  0
   -3.2352    3.5573    0.2606 Cl  0  0  0  0  0  0  0  0  0  0  0  0
  1  4  1  0  0  0  0
  1  2  1  0  0  0  0
  2  3  1  0  0  0  0
  5  4  2  0  0  0  0
  6  9  2  0  0  0  0
  6  5  1  0  0  0  0
  7  6  1  0  0  0  0
  8  7  1  0  0  0  0
  8 15  1  0  0  0  0
  9 10  1  0  0  0  0
 10 17  1  0  0  0  0
 10  1  2  0  0  0  0
 11 18  1  0  0  0  0
 12  5  1  0  0  0  0
 13  8  1  0  0  0  0
 14  8  1  0  0  0  0
 16  9  1  0  0  0  0
M  RAD  3   2   2   3   3   4   2
M  END
