Coordinates from ORCA-job 4-MeOPhN2+~Cl-_B3LYPG-6-31G_dp-CH-Scan-d09-49-n800
 OpenBabel11261919403D

 18 17  0  0  0  0  0  0  0  0999 V2000
   -1.4174   -0.3729   -0.0477 C   0  0  0  0  0  0  0  0  0  0  0  0
   -2.7814   -0.5103    0.0590 N   0  0  0  0  0  0  0  0  0  0  0  0
   -3.9001   -0.5573    0.1482 N   0  0  0  0  0  0  0  0  0  0  0  0
   -0.9870    0.9762   -0.0435 C   0  0  0  0  0  0  0  0  0  0  0  0
    0.4148    1.0312   -0.1562 C   0  0  0  0  0  0  0  0  0  0  0  0
    1.2428   -0.0978   -0.2559 C   0  0  0  0  0  0  0  0  0  0  0  0
    2.5717    0.1398   -0.3561 O   0  0  0  0  0  0  0  0  0  0  0  0
    3.4819   -0.9491   -0.4586 C   0  0  0  0  0  0  0  0  0  0  0  0
    0.7012   -1.4172   -0.2499 C   0  0  0  0  0  0  0  0  0  0  0  0
   -0.6598   -1.5718   -0.1440 C   0  0  0  0  0  0  0  0  0  0  0  0
   -3.0298    4.0602    0.2817 H   0  0  0  0  0  0  0  0  0  0  0  0
    0.9300    1.9923   -0.1700 H   0  0  0  0  0  0  0  0  0  0  0  0
    4.4743   -0.5017   -0.5222 H   0  0  0  0  0  0  0  0  0  0  0  0
    3.2981   -1.5460   -1.3603 H   0  0  0  0  0  0  0  0  0  0  0  0
    3.4356   -1.5985    0.4243 H   0  0  0  0  0  0  0  0  0  0  0  0
    1.3399   -2.2878   -0.3261 H   0  0  0  0  0  0  0  0  0  0  0  0
   -1.1207   -2.5567   -0.1353 H   0  0  0  0  0  0  0  0  0  0  0  0
   -3.8646    5.0306    0.4177 Cl  0  0  0  0  0  0  0  0  0  0  0  0
  1  4  1  0  0  0  0
  1  2  1  0  0  0  0
  2  3  1  0  0  0  0
  5  4  2  0  0  0  0
  6  9  2  0  0  0  0
  6  5  1  0  0  0  0
  7  6  1  0  0  0  0
  8  7  1  0  0  0  0
  8 15  1  0  0  0  0
  9 10  1  0  0  0  0
 10 17  1  0  0  0  0
 10  1  2  0  0  0  0
 11 18  1  0  0  0  0
 12  5  1  0  0  0  0
 13  8  1  0  0  0  0
 14  8  1  0  0  0  0
 16  9  1  0  0  0  0
M  RAD  3   2   2   3   3   4   2
M  END
