Coordinates from ORCA-job 4-MeOPhN2+~Cl-_B3LYPG-6-31G_dp-CH-Scan-d09-49-n800
 OpenBabel11261919403D

 18 17  0  0  0  0  0  0  0  0999 V2000
   -1.4931   -0.1291   -0.0218 C   0  0  0  0  0  0  0  0  0  0  0  0
   -2.8570   -0.2183    0.0905 N   0  0  0  0  0  0  0  0  0  0  0  0
   -3.9745   -0.2368    0.1844 N   0  0  0  0  0  0  0  0  0  0  0  0
   -0.9841    1.1933   -0.0145 C   0  0  0  0  0  0  0  0  0  0  0  0
    0.4106    1.2031   -0.1318 C   0  0  0  0  0  0  0  0  0  0  0  0
    1.1899    0.0383   -0.2405 C   0  0  0  0  0  0  0  0  0  0  0  0
    2.5226    0.2218   -0.3439 O   0  0  0  0  0  0  0  0  0  0  0  0
    3.3902   -0.9032   -0.4539 C   0  0  0  0  0  0  0  0  0  0  0  0
    0.5892   -1.2533   -0.2390 C   0  0  0  0  0  0  0  0  0  0  0  0
   -0.7772   -1.3509   -0.1283 C   0  0  0  0  0  0  0  0  0  0  0  0
   -2.3352    2.8259    0.1620 H   0  0  0  0  0  0  0  0  0  0  0  0
    0.9569    2.1451   -0.1417 H   0  0  0  0  0  0  0  0  0  0  0  0
    4.3985   -0.4935   -0.5167 H   0  0  0  0  0  0  0  0  0  0  0  0
    3.1802   -1.4856   -1.3588 H   0  0  0  0  0  0  0  0  0  0  0  0
    3.3179   -1.5531    0.4262 H   0  0  0  0  0  0  0  0  0  0  0  0
    1.1881   -2.1512   -0.3225 H   0  0  0  0  0  0  0  0  0  0  0  0
   -1.2773   -2.3157   -0.1230 H   0  0  0  0  0  0  0  0  0  0  0  0
   -3.3162    3.7263    0.2783 Cl  0  0  0  0  0  0  0  0  0  0  0  0
  1  4  1  0  0  0  0
  1  2  1  0  0  0  0
  2  3  1  0  0  0  0
  5  4  2  0  0  0  0
  6  9  2  0  0  0  0
  6  5  1  0  0  0  0
  7  6  1  0  0  0  0
  8  7  1  0  0  0  0
  8 15  1  0  0  0  0
  9 10  1  0  0  0  0
 10 17  1  0  0  0  0
 10  1  2  0  0  0  0
 11 18  1  0  0  0  0
 12  5  1  0  0  0  0
 13  8  1  0  0  0  0
 14  8  1  0  0  0  0
 16  9  1  0  0  0  0
M  RAD  3   2   2   3   3   4   2
M  END
