Coordinates from ORCA-job 4-MeOPhN2+~Cl-_B3LYPG-6-31G_dp-CH-Scan-d09-49-n800
 OpenBabel11261919403D

 18 17  0  0  0  0  0  0  0  0999 V2000
   -1.4562   -0.2262   -0.0323 C   0  0  0  0  0  0  0  0  0  0  0  0
   -2.8196   -0.3354    0.0780 N   0  0  0  0  0  0  0  0  0  0  0  0
   -3.9379   -0.3708    0.1701 N   0  0  0  0  0  0  0  0  0  0  0  0
   -0.9796    1.1086   -0.0258 C   0  0  0  0  0  0  0  0  0  0  0  0
    0.4196    1.1310   -0.1418 C   0  0  0  0  0  0  0  0  0  0  0  0
    1.2169   -0.0203   -0.2472 C   0  0  0  0  0  0  0  0  0  0  0  0
    2.5493    0.1825   -0.3494 O   0  0  0  0  0  0  0  0  0  0  0  0
    3.4319   -0.9296   -0.4567 C   0  0  0  0  0  0  0  0  0  0  0  0
    0.6385   -1.3233   -0.2441 C   0  0  0  0  0  0  0  0  0  0  0  0
   -0.7259   -1.4414   -0.1351 C   0  0  0  0  0  0  0  0  0  0  0  0
   -2.6729    3.3537    0.2153 H   0  0  0  0  0  0  0  0  0  0  0  0
    0.9569    2.0790   -0.1534 H   0  0  0  0  0  0  0  0  0  0  0  0
    4.4349   -0.5067   -0.5196 H   0  0  0  0  0  0  0  0  0  0  0  0
    3.2316   -1.5176   -1.3605 H   0  0  0  0  0  0  0  0  0  0  0  0
    3.3690   -1.5799    0.4242 H   0  0  0  0  0  0  0  0  0  0  0  0
    1.2525   -2.2112   -0.3250 H   0  0  0  0  0  0  0  0  0  0  0  0
   -1.2121   -2.4138   -0.1286 H   0  0  0  0  0  0  0  0  0  0  0  0
   -3.5675    4.2846    0.3368 Cl  0  0  0  0  0  0  0  0  0  0  0  0
  1  4  1  0  0  0  0
  1  2  1  0  0  0  0
  2  3  1  0  0  0  0
  5  4  2  0  0  0  0
  6  9  2  0  0  0  0
  6  5  1  0  0  0  0
  7  6  1  0  0  0  0
  8  7  1  0  0  0  0
  8 15  1  0  0  0  0
  9 10  1  0  0  0  0
 10 17  1  0  0  0  0
 10  1  2  0  0  0  0
 11 18  1  0  0  0  0
 12  5  1  0  0  0  0
 13  8  1  0  0  0  0
 14  8  1  0  0  0  0
 16  9  1  0  0  0  0
M  RAD  3   2   2   3   3   4   2
M  END
