Coordinates from ORCA-job 4-MeOPhN2+~Cl-_B3LYPG-6-31G_dp-CH-Scan-d09-49-n800
 OpenBabel11261919403D

 18 17  0  0  0  0  0  0  0  0999 V2000
   -1.5174   -0.0807   -0.0171 C   0  0  0  0  0  0  0  0  0  0  0  0
   -2.8826   -0.1533    0.0961 N   0  0  0  0  0  0  0  0  0  0  0  0
   -3.9987   -0.1438    0.1912 N   0  0  0  0  0  0  0  0  0  0  0  0
   -0.9837    1.2301   -0.0115 C   0  0  0  0  0  0  0  0  0  0  0  0
    0.4051    1.2431   -0.1281 C   0  0  0  0  0  0  0  0  0  0  0  0
    1.1751    0.0703   -0.2374 C   0  0  0  0  0  0  0  0  0  0  0  0
    2.5065    0.2444   -0.3410 O   0  0  0  0  0  0  0  0  0  0  0  0
    3.3677   -0.8868   -0.4519 C   0  0  0  0  0  0  0  0  0  0  0  0
    0.5619   -1.2140   -0.2355 C   0  0  0  0  0  0  0  0  0  0  0  0
   -0.8063   -1.3022   -0.1241 C   0  0  0  0  0  0  0  0  0  0  0  0
   -2.1059    2.5140    0.1300 H   0  0  0  0  0  0  0  0  0  0  0  0
    0.9503    2.1848   -0.1373 H   0  0  0  0  0  0  0  0  0  0  0  0
    4.3780   -0.4825   -0.5149 H   0  0  0  0  0  0  0  0  0  0  0  0
    3.1527   -1.4663   -1.3572 H   0  0  0  0  0  0  0  0  0  0  0  0
    3.2908   -1.5355    0.4284 H   0  0  0  0  0  0  0  0  0  0  0  0
    1.1527   -2.1171   -0.3194 H   0  0  0  0  0  0  0  0  0  0  0  0
   -1.3123   -2.2635   -0.1189 H   0  0  0  0  0  0  0  0  0  0  0  0
   -3.2045    3.4223    0.2535 Cl  0  0  0  0  0  0  0  0  0  0  0  0
  1  4  1  0  0  0  0
  1  2  1  0  0  0  0
  2  3  1  0  0  0  0
  5  4  2  0  0  0  0
  6  9  2  0  0  0  0
  6  5  1  0  0  0  0
  7  6  1  0  0  0  0
  8  7  1  0  0  0  0
  8 15  1  0  0  0  0
  9 10  1  0  0  0  0
 10 17  1  0  0  0  0
 10  1  2  0  0  0  0
 11 18  1  0  0  0  0
 12  5  1  0  0  0  0
 13  8  1  0  0  0  0
 14  8  1  0  0  0  0
 16  9  1  0  0  0  0
M  RAD  3   2   2   3   3   4   2
M  END
