Coordinates from ORCA-job 4-MeOPhN2+~Cl-_B3LYPG-6-31G_dp-CH-Scan-d09-49-n800
 OpenBabel11261919403D

 18 17  0  0  0  0  0  0  0  0999 V2000
   -1.4317   -0.3181   -0.0423 C   0  0  0  0  0  0  0  0  0  0  0  0
   -2.7957   -0.4450    0.0658 N   0  0  0  0  0  0  0  0  0  0  0  0
   -3.9143   -0.4877    0.1559 N   0  0  0  0  0  0  0  0  0  0  0  0
   -0.9849    1.0261   -0.0374 C   0  0  0  0  0  0  0  0  0  0  0  0
    0.4163    1.0687   -0.1514 C   0  0  0  0  0  0  0  0  0  0  0  0
    1.2330   -0.0686   -0.2528 C   0  0  0  0  0  0  0  0  0  0  0  0
    2.5635    0.1560   -0.3537 O   0  0  0  0  0  0  0  0  0  0  0  0
    3.4634   -0.9416   -0.4577 C   0  0  0  0  0  0  0  0  0  0  0  0
    0.6779   -1.3821   -0.2477 C   0  0  0  0  0  0  0  0  0  0  0  0
   -0.6844   -1.5233   -0.1407 C   0  0  0  0  0  0  0  0  0  0  0  0
   -2.9032    3.7911    0.2576 H   0  0  0  0  0  0  0  0  0  0  0  0
    0.9401    2.0249   -0.1646 H   0  0  0  0  0  0  0  0  0  0  0  0
    4.4599   -0.5033   -0.5209 H   0  0  0  0  0  0  0  0  0  0  0  0
    3.2736   -1.5354   -1.3601 H   0  0  0  0  0  0  0  0  0  0  0  0
    3.4109   -1.5913    0.4245 H   0  0  0  0  0  0  0  0  0  0  0  0
    1.3077   -2.2592   -0.3254 H   0  0  0  0  0  0  0  0  0  0  0  0
   -1.1547   -2.5037   -0.1327 H   0  0  0  0  0  0  0  0  0  0  0  0
   -3.7479    4.7557    0.3884 Cl  0  0  0  0  0  0  0  0  0  0  0  0
  1  4  1  0  0  0  0
  1  2  1  0  0  0  0
  2  3  1  0  0  0  0
  5  4  2  0  0  0  0
  6  9  2  0  0  0  0
  6  5  1  0  0  0  0
  7  6  1  0  0  0  0
  8  7  1  0  0  0  0
  8 15  1  0  0  0  0
  9 10  1  0  0  0  0
 10 17  1  0  0  0  0
 10  1  2  0  0  0  0
 11 18  1  0  0  0  0
 12  5  1  0  0  0  0
 13  8  1  0  0  0  0
 14  8  1  0  0  0  0
 16  9  1  0  0  0  0
M  RAD  3   2   2   3   3   4   2
M  END
