Coordinates from ORCA-job 4-MeOPhN2+~Cl-_B3LYPG-6-31G_dp-CH-Scan-d09-49-n800
 OpenBabel11261919403D

 18 17  0  0  0  0  0  0  0  0999 V2000
   -1.5526    0.0045   -0.0147 C   0  0  0  0  0  0  0  0  0  0  0  0
   -2.9394   -0.1161    0.0966 N   0  0  0  0  0  0  0  0  0  0  0  0
   -3.9477    0.4597    0.2069 N   0  0  0  0  0  0  0  0  0  0  0  0
   -0.8994    1.2518   -0.0220 C   0  0  0  0  0  0  0  0  0  0  0  0
    0.4758    1.2848   -0.1349 C   0  0  0  0  0  0  0  0  0  0  0  0
    1.2145    0.0882   -0.2405 C   0  0  0  0  0  0  0  0  0  0  0  0
    2.5514    0.2401   -0.3441 O   0  0  0  0  0  0  0  0  0  0  0  0
    3.3754   -0.9177   -0.4510 C   0  0  0  0  0  0  0  0  0  0  0  0
    0.5551   -1.1548   -0.2332 C   0  0  0  0  0  0  0  0  0  0  0  0
   -0.8278   -1.1906   -0.1204 C   0  0  0  0  0  0  0  0  0  0  0  0
   -1.5788    2.2551    0.0728 H   0  0  0  0  0  0  0  0  0  0  0  0
    1.0159    2.2251   -0.1439 H   0  0  0  0  0  0  0  0  0  0  0  0
    4.3986   -0.5476   -0.5164 H   0  0  0  0  0  0  0  0  0  0  0  0
    3.1394   -1.4941   -1.3534 H   0  0  0  0  0  0  0  0  0  0  0  0
    3.2763   -1.5605    0.4316 H   0  0  0  0  0  0  0  0  0  0  0  0
    1.1081   -2.0821   -0.3139 H   0  0  0  0  0  0  0  0  0  0  0  0
   -1.3595   -2.1363   -0.1126 H   0  0  0  0  0  0  0  0  0  0  0  0
   -3.8759    2.6538    0.2981 Cl  0  0  0  0  0  0  0  0  0  0  0  0
  1  2  1  0  0  0  0
  2  3  2  0  0  0  0
  4  1  1  0  0  0  0
  4 11  1  0  0  0  0
  5  4  2  0  0  0  0
  6  9  2  0  0  0  0
  6  5  1  0  0  0  0
  7  6  1  0  0  0  0
  8  7  1  0  0  0  0
  8 15  1  0  0  0  0
  9 10  1  0  0  0  0
 10 17  1  0  0  0  0
 10  1  2  0  0  0  0
 12  5  1  0  0  0  0
 13  8  1  0  0  0  0
 14  8  1  0  0  0  0
 16  9  1  0  0  0  0
M  RAD  2   3   2  18   2
M  END
