Coordinates from ORCA-job 4-MeOPhN2+~Cl-_B3LYPG-6-31G_dp-CH-Scan-d09-49-n800
 OpenBabel11261919403D

 18 17  0  0  0  0  0  0  0  0999 V2000
   -1.4078   -0.4422   -0.0542 C   0  0  0  0  0  0  0  0  0  0  0  0
   -2.7709   -0.5973    0.0503 N   0  0  0  0  0  0  0  0  0  0  0  0
   -3.8893   -0.6555    0.1375 N   0  0  0  0  0  0  0  0  0  0  0  0
   -0.9994    0.9131   -0.0509 C   0  0  0  0  0  0  0  0  0  0  0  0
    0.4023    0.9883   -0.1614 C   0  0  0  0  0  0  0  0  0  0  0  0
    1.2470   -0.1283   -0.2588 C   0  0  0  0  0  0  0  0  0  0  0  0
    2.5728    0.1287   -0.3579 O   0  0  0  0  0  0  0  0  0  0  0  0
    3.4985   -0.9470   -0.4587 C   0  0  0  0  0  0  0  0  0  0  0  0
    0.7252   -1.4558   -0.2517 C   0  0  0  0  0  0  0  0  0  0  0  0
   -0.6336   -1.6305   -0.1475 C   0  0  0  0  0  0  0  0  0  0  0  0
   -3.1363    4.3573    0.3059 H   0  0  0  0  0  0  0  0  0  0  0  0
    0.9038    1.9568   -0.1757 H   0  0  0  0  0  0  0  0  0  0  0  0
    4.4844   -0.4855   -0.5230 H   0  0  0  0  0  0  0  0  0  0  0  0
    3.3234   -1.5480   -1.3594 H   0  0  0  0  0  0  0  0  0  0  0  0
    3.4618   -1.5958    0.4251 H   0  0  0  0  0  0  0  0  0  0  0  0
    1.3770   -2.3168   -0.3258 H   0  0  0  0  0  0  0  0  0  0  0  0
   -1.0800   -2.6222   -0.1380 H   0  0  0  0  0  0  0  0  0  0  0  0
   -3.9493    5.3441    0.4491 Cl  0  0  0  0  0  0  0  0  0  0  0  0
  1  4  1  0  0  0  0
  1  2  1  0  0  0  0
  2  3  1  0  0  0  0
  5  4  2  0  0  0  0
  6  9  2  0  0  0  0
  6  5  1  0  0  0  0
  7  6  1  0  0  0  0
  8  7  1  0  0  0  0
  8 15  1  0  0  0  0
  9 10  1  0  0  0  0
 10 17  1  0  0  0  0
 10  1  2  0  0  0  0
 11 18  1  0  0  0  0
 12  5  1  0  0  0  0
 13  8  1  0  0  0  0
 14  8  1  0  0  0  0
 16  9  1  0  0  0  0
M  RAD  3   2   2   3   3   4   2
M  END
