Coordinates from ORCA-job 4-MeOPhN2+~Cl-_B3LYPG-6-31G_dp-CH-Scan-d09-49-n800
 OpenBabel11261919403D

 18 17  0  0  0  0  0  0  0  0999 V2000
   -1.4880   -0.1380   -0.0231 C   0  0  0  0  0  0  0  0  0  0  0  0
   -2.8518   -0.2289    0.0890 N   0  0  0  0  0  0  0  0  0  0  0  0
   -3.9695   -0.2494    0.1828 N   0  0  0  0  0  0  0  0  0  0  0  0
   -0.9823    1.1857   -0.0160 C   0  0  0  0  0  0  0  0  0  0  0  0
    0.4132    1.1956   -0.1332 C   0  0  0  0  0  0  0  0  0  0  0  0
    1.1937    0.0319   -0.2414 C   0  0  0  0  0  0  0  0  0  0  0  0
    2.5266    0.2166   -0.3447 O   0  0  0  0  0  0  0  0  0  0  0  0
    3.3951   -0.9074   -0.4542 C   0  0  0  0  0  0  0  0  0  0  0  0
    0.5949   -1.2608   -0.2396 C   0  0  0  0  0  0  0  0  0  0  0  0
   -0.7714   -1.3597   -0.1290 C   0  0  0  0  0  0  0  0  0  0  0  0
   -2.3779    2.8850    0.1684 H   0  0  0  0  0  0  0  0  0  0  0  0
    0.9593    2.1378   -0.1435 H   0  0  0  0  0  0  0  0  0  0  0  0
    4.4031   -0.4969   -0.5170 H   0  0  0  0  0  0  0  0  0  0  0  0
    3.1860   -1.4906   -1.3589 H   0  0  0  0  0  0  0  0  0  0  0  0
    3.3235   -1.5573    0.4261 H   0  0  0  0  0  0  0  0  0  0  0  0
    1.1950   -2.1579   -0.3227 H   0  0  0  0  0  0  0  0  0  0  0  0
   -1.2705   -2.3251   -0.1235 H   0  0  0  0  0  0  0  0  0  0  0  0
   -3.3497    3.7826    0.2855 Cl  0  0  0  0  0  0  0  0  0  0  0  0
  1  4  1  0  0  0  0
  1  2  1  0  0  0  0
  2  3  1  0  0  0  0
  5  4  2  0  0  0  0
  6  9  2  0  0  0  0
  6  5  1  0  0  0  0
  7  6  1  0  0  0  0
  8  7  1  0  0  0  0
  8 15  1  0  0  0  0
  9 10  1  0  0  0  0
 10 17  1  0  0  0  0
 10  1  2  0  0  0  0
 11 18  1  0  0  0  0
 12  5  1  0  0  0  0
 13  8  1  0  0  0  0
 14  8  1  0  0  0  0
 16  9  1  0  0  0  0
M  RAD  3   2   2   3   3   4   2
M  END
