Coordinates from ORCA-job 4-MeOPhN2+~Cl-_B3LYPG-6-31G_dp-CH-Scan-d09-49-n800
 OpenBabel11261919403D

 18 17  0  0  0  0  0  0  0  0999 V2000
   -1.5560    0.0100   -0.0151 C   0  0  0  0  0  0  0  0  0  0  0  0
   -2.9426   -0.1175    0.0958 N   0  0  0  0  0  0  0  0  0  0  0  0
   -3.9511    0.4606    0.2075 N   0  0  0  0  0  0  0  0  0  0  0  0
   -0.9022    1.2583   -0.0228 C   0  0  0  0  0  0  0  0  0  0  0  0
    0.4740    1.2871   -0.1358 C   0  0  0  0  0  0  0  0  0  0  0  0
    1.2127    0.0910   -0.2408 C   0  0  0  0  0  0  0  0  0  0  0  0
    2.5497    0.2427   -0.3441 O   0  0  0  0  0  0  0  0  0  0  0  0
    3.3730   -0.9157   -0.4500 C   0  0  0  0  0  0  0  0  0  0  0  0
    0.5524   -1.1510   -0.2331 C   0  0  0  0  0  0  0  0  0  0  0  0
   -0.8307   -1.1846   -0.1206 C   0  0  0  0  0  0  0  0  0  0  0  0
   -1.5362    2.2200    0.0662 H   0  0  0  0  0  0  0  0  0  0  0  0
    1.0144    2.2273   -0.1452 H   0  0  0  0  0  0  0  0  0  0  0  0
    4.3965   -0.5464   -0.5151 H   0  0  0  0  0  0  0  0  0  0  0  0
    3.1369   -1.4926   -1.3520 H   0  0  0  0  0  0  0  0  0  0  0  0
    3.2731   -1.5579    0.4331 H   0  0  0  0  0  0  0  0  0  0  0  0
    1.1041   -2.0791   -0.3133 H   0  0  0  0  0  0  0  0  0  0  0  0
   -1.3634   -2.1296   -0.1124 H   0  0  0  0  0  0  0  0  0  0  0  0
   -3.8753    2.6407    0.3026 Cl  0  0  0  0  0  0  0  0  0  0  0  0
  1  2  1  0  0  0  0
  2  3  2  0  0  0  0
  4  1  1  0  0  0  0
  4 11  1  0  0  0  0
  5  4  2  0  0  0  0
  6  9  2  0  0  0  0
  6  5  1  0  0  0  0
  7  6  1  0  0  0  0
  8  7  1  0  0  0  0
  8 15  1  0  0  0  0
  9 10  1  0  0  0  0
 10 17  1  0  0  0  0
 10  1  2  0  0  0  0
 12  5  1  0  0  0  0
 13  8  1  0  0  0  0
 14  8  1  0  0  0  0
 16  9  1  0  0  0  0
M  RAD  2   3   2  18   2
M  END
