Coordinates from ORCA-job 4-MeOPhN2+~Cl-_B3LYPG-6-31G_dp-CH-Scan-d09-49-n800
 OpenBabel11261919403D

 18 17  0  0  0  0  0  0  0  0999 V2000
   -1.4073   -0.6221   -0.0820 C   0  0  0  0  0  0  0  0  0  0  0  0
   -2.7638   -0.8367    0.0147 N   0  0  0  0  0  0  0  0  0  0  0  0
   -3.8795   -0.9409    0.0939 N   0  0  0  0  0  0  0  0  0  0  0  0
   -1.0649    0.7504   -0.1010 C   0  0  0  0  0  0  0  0  0  0  0  0
    0.3328    0.8904   -0.2029 C   0  0  0  0  0  0  0  0  0  0  0  0
    1.2300   -0.1863   -0.2738 C   0  0  0  0  0  0  0  0  0  0  0  0
    2.5433    0.1312   -0.3700 O   0  0  0  0  0  0  0  0  0  0  0  0
    3.5187   -0.9014   -0.4472 C   0  0  0  0  0  0  0  0  0  0  0  0
    0.7717   -1.5369   -0.2449 C   0  0  0  0  0  0  0  0  0  0  0  0
   -0.5782   -1.7743   -0.1470 C   0  0  0  0  0  0  0  0  0  0  0  0
   -3.2606    4.9750    0.3756 H   0  0  0  0  0  0  0  0  0  0  0  0
    0.7881    1.8814   -0.2318 H   0  0  0  0  0  0  0  0  0  0  0  0
    4.4821   -0.3956   -0.5196 H   0  0  0  0  0  0  0  0  0  0  0  0
    3.3743   -1.5286   -1.3354 H   0  0  0  0  0  0  0  0  0  0  0  0
    3.5111   -1.5328    0.4499 H   0  0  0  0  0  0  0  0  0  0  0  0
    1.4640   -2.3673   -0.2980 H   0  0  0  0  0  0  0  0  0  0  0  0
   -0.9770   -2.7858   -0.1214 H   0  0  0  0  0  0  0  0  0  0  0  0
   -3.9556    6.0438    0.5458 Cl  0  0  0  0  0  0  0  0  0  0  0  0
  1  2  1  0  0  0  0
  2  3  1  0  0  0  0
  4  1  1  0  0  0  0
  5  4  2  0  0  0  0
  6  9  2  0  0  0  0
  6  5  1  0  0  0  0
  7  6  1  0  0  0  0
  8  7  1  0  0  0  0
  8 15  1  0  0  0  0
  9 10  1  0  0  0  0
 10 17  1  0  0  0  0
 10  1  2  0  0  0  0
 11 18  1  0  0  0  0
 12  5  1  0  0  0  0
 13  8  1  0  0  0  0
 14  8  1  0  0  0  0
 16  9  1  0  0  0  0
M  RAD  3   2   2   3   3   4   2
M  END
