Coordinates from ORCA-job 4-MeOPhN2+~Cl-_B3LYPG-6-31G_dp-CH-Scan-d09-49-n800
 OpenBabel11261919403D

 18 17  0  0  0  0  0  0  0  0999 V2000
   -1.4045   -0.4953   -0.0578 C   0  0  0  0  0  0  0  0  0  0  0  0
   -2.7663   -0.6659    0.0451 N   0  0  0  0  0  0  0  0  0  0  0  0
   -3.8842   -0.7351    0.1313 N   0  0  0  0  0  0  0  0  0  0  0  0
   -1.0138    0.8648   -0.0532 C   0  0  0  0  0  0  0  0  0  0  0  0
    0.3872    0.9577   -0.1620 C   0  0  0  0  0  0  0  0  0  0  0  0
    1.2458   -0.1481   -0.2595 C   0  0  0  0  0  0  0  0  0  0  0  0
    2.5685    0.1254   -0.3577 O   0  0  0  0  0  0  0  0  0  0  0  0
    3.5073   -0.9388   -0.4589 C   0  0  0  0  0  0  0  0  0  0  0  0
    0.7406   -1.4820   -0.2536 C   0  0  0  0  0  0  0  0  0  0  0  0
   -0.6160   -1.6740   -0.1508 C   0  0  0  0  0  0  0  0  0  0  0  0
   -3.1905    4.5594    0.3189 H   0  0  0  0  0  0  0  0  0  0  0  0
    0.8767    1.9325   -0.1749 H   0  0  0  0  0  0  0  0  0  0  0  0
    4.4876   -0.4653   -0.5233 H   0  0  0  0  0  0  0  0  0  0  0  0
    3.3395   -1.5418   -1.3596 H   0  0  0  0  0  0  0  0  0  0  0  0
    3.4790   -1.5881    0.4249 H   0  0  0  0  0  0  0  0  0  0  0  0
    1.4033   -2.3348   -0.3275 H   0  0  0  0  0  0  0  0  0  0  0  0
   -1.0499   -2.6712   -0.1420 H   0  0  0  0  0  0  0  0  0  0  0  0
   -3.9808    5.5638    0.4652 Cl  0  0  0  0  0  0  0  0  0  0  0  0
  1  4  1  0  0  0  0
  1  2  1  0  0  0  0
  2  3  1  0  0  0  0
  5  4  2  0  0  0  0
  6  9  2  0  0  0  0
  6  5  1  0  0  0  0
  7  6  1  0  0  0  0
  8  7  1  0  0  0  0
  8 15  1  0  0  0  0
  9 10  1  0  0  0  0
 10 17  1  0  0  0  0
 10  1  2  0  0  0  0
 11 18  1  0  0  0  0
 12  5  1  0  0  0  0
 13  8  1  0  0  0  0
 14  8  1  0  0  0  0
 16  9  1  0  0  0  0
M  RAD  3   2   2   3   3   4   2
M  END
