Coordinates from ORCA-job 4-MeOPhN2+~Cl-_B3LYPG-6-31G_dp-CH-Scan-d09-49-n800
 OpenBabel11261919403D

 18 17  0  0  0  0  0  0  0  0999 V2000
   -1.4375   -0.2844   -0.0407 C   0  0  0  0  0  0  0  0  0  0  0  0
   -2.8015   -0.4033    0.0680 N   0  0  0  0  0  0  0  0  0  0  0  0
   -3.9201   -0.4413    0.1585 N   0  0  0  0  0  0  0  0  0  0  0  0
   -0.9794    1.0563   -0.0376 C   0  0  0  0  0  0  0  0  0  0  0  0
    0.4214    1.0900   -0.1520 C   0  0  0  0  0  0  0  0  0  0  0  0
    1.2303   -0.0532   -0.2524 C   0  0  0  0  0  0  0  0  0  0  0  0
    2.5618    0.1623   -0.3539 O   0  0  0  0  0  0  0  0  0  0  0  0
    3.4545   -0.9415   -0.4566 C   0  0  0  0  0  0  0  0  0  0  0  0
    0.6658   -1.3625   -0.2458 C   0  0  0  0  0  0  0  0  0  0  0  0
   -0.6974   -1.4942   -0.1382 C   0  0  0  0  0  0  0  0  0  0  0  0
   -2.8389    3.6486    0.2470 H   0  0  0  0  0  0  0  0  0  0  0  0
    0.9508    2.0429   -0.1664 H   0  0  0  0  0  0  0  0  0  0  0  0
    4.4538   -0.5099   -0.5202 H   0  0  0  0  0  0  0  0  0  0  0  0
    3.2607   -1.5348   -1.3584 H   0  0  0  0  0  0  0  0  0  0  0  0
    3.3975   -1.5898    0.4263 H   0  0  0  0  0  0  0  0  0  0  0  0
    1.2893   -2.2441   -0.3228 H   0  0  0  0  0  0  0  0  0  0  0  0
   -1.1742   -2.4714   -0.1291 H   0  0  0  0  0  0  0  0  0  0  0  0
   -3.7076    4.5936    0.3793 Cl  0  0  0  0  0  0  0  0  0  0  0  0
  1  4  1  0  0  0  0
  1  2  1  0  0  0  0
  2  3  1  0  0  0  0
  5  4  2  0  0  0  0
  6  9  2  0  0  0  0
  6  5  1  0  0  0  0
  7  6  1  0  0  0  0
  8  7  1  0  0  0  0
  8 15  1  0  0  0  0
  9 10  1  0  0  0  0
 10 17  1  0  0  0  0
 10  1  2  0  0  0  0
 11 18  1  0  0  0  0
 12  5  1  0  0  0  0
 13  8  1  0  0  0  0
 14  8  1  0  0  0  0
 16  9  1  0  0  0  0
M  RAD  3   2   2   3   3   4   2
M  END
