Coordinates from ORCA-job 4-MeOPhN2+~Cl-_B3LYPG-6-31G_dp-CH-Scan-d09-49-n800
 OpenBabel11261919403D

 18 17  0  0  0  0  0  0  0  0999 V2000
   -1.4070   -0.6130   -0.0792 C   0  0  0  0  0  0  0  0  0  0  0  0
   -2.7640   -0.8242    0.0182 N   0  0  0  0  0  0  0  0  0  0  0  0
   -3.8800   -0.9253    0.0975 N   0  0  0  0  0  0  0  0  0  0  0  0
   -1.0610    0.7587   -0.0949 C   0  0  0  0  0  0  0  0  0  0  0  0
    0.3370    0.8953   -0.1976 C   0  0  0  0  0  0  0  0  0  0  0  0
    1.2314   -0.1836   -0.2720 C   0  0  0  0  0  0  0  0  0  0  0  0
    2.5454    0.1307   -0.3683 O   0  0  0  0  0  0  0  0  0  0  0  0
    3.5180   -0.9043   -0.4487 C   0  0  0  0  0  0  0  0  0  0  0  0
    0.7695   -1.5330   -0.2462 C   0  0  0  0  0  0  0  0  0  0  0  0
   -0.5809   -1.7672   -0.1478 C   0  0  0  0  0  0  0  0  0  0  0  0
   -3.2559    4.9452    0.3700 H   0  0  0  0  0  0  0  0  0  0  0  0
    0.7949    1.8851   -0.2244 H   0  0  0  0  0  0  0  0  0  0  0  0
    4.4827   -0.4009   -0.5201 H   0  0  0  0  0  0  0  0  0  0  0  0
    3.3716   -1.5287   -1.3385 H   0  0  0  0  0  0  0  0  0  0  0  0
    3.5090   -1.5381    0.4468 H   0  0  0  0  0  0  0  0  0  0  0  0
    1.4596   -2.3651   -0.3021 H   0  0  0  0  0  0  0  0  0  0  0  0
   -0.9823   -2.7777   -0.1246 H   0  0  0  0  0  0  0  0  0  0  0  0
   -3.9588    6.0094    0.5368 Cl  0  0  0  0  0  0  0  0  0  0  0  0
  1  2  1  0  0  0  0
  2  3  1  0  0  0  0
  4  1  1  0  0  0  0
  5  4  2  0  0  0  0
  6  9  2  0  0  0  0
  6  5  1  0  0  0  0
  7  6  1  0  0  0  0
  8  7  1  0  0  0  0
  8 15  1  0  0  0  0
  9 10  1  0  0  0  0
 10 17  1  0  0  0  0
 10  1  2  0  0  0  0
 11 18  1  0  0  0  0
 12  5  1  0  0  0  0
 13  8  1  0  0  0  0
 14  8  1  0  0  0  0
 16  9  1  0  0  0  0
M  RAD  3   2   2   3   3   4   2
M  END
