Coordinates from ORCA-job 4-MeOPhN2+~Cl-_B3LYPG-6-31G_dp-CH-Scan-d09-49-n800
 OpenBabel11261919403D

 18 17  0  0  0  0  0  0  0  0999 V2000
   -1.4786   -0.1579   -0.0254 C   0  0  0  0  0  0  0  0  0  0  0  0
   -2.8422   -0.2527    0.0864 N   0  0  0  0  0  0  0  0  0  0  0  0
   -3.9601   -0.2772    0.1798 N   0  0  0  0  0  0  0  0  0  0  0  0
   -0.9795    1.1687   -0.0185 C   0  0  0  0  0  0  0  0  0  0  0  0
    0.4171    1.1799   -0.1355 C   0  0  0  0  0  0  0  0  0  0  0  0
    1.2009    0.0187   -0.2430 C   0  0  0  0  0  0  0  0  0  0  0  0
    2.5340    0.2069   -0.3461 O   0  0  0  0  0  0  0  0  0  0  0  0
    3.4050   -0.9150   -0.4549 C   0  0  0  0  0  0  0  0  0  0  0  0
    0.6062   -1.2762   -0.2409 C   0  0  0  0  0  0  0  0  0  0  0  0
   -0.7596   -1.3787   -0.1306 C   0  0  0  0  0  0  0  0  0  0  0  0
   -2.4602    3.0044    0.1808 H   0  0  0  0  0  0  0  0  0  0  0  0
    0.9623    2.1230   -0.1463 H   0  0  0  0  0  0  0  0  0  0  0  0
    4.4122   -0.5023   -0.5177 H   0  0  0  0  0  0  0  0  0  0  0  0
    3.1976   -1.4993   -1.3594 H   0  0  0  0  0  0  0  0  0  0  0  0
    3.3350   -1.5649    0.4255 H   0  0  0  0  0  0  0  0  0  0  0  0
    1.2091   -2.1715   -0.3234 H   0  0  0  0  0  0  0  0  0  0  0  0
   -1.2563   -2.3455   -0.1248 H   0  0  0  0  0  0  0  0  0  0  0  0
   -3.4136    3.9028    0.2989 Cl  0  0  0  0  0  0  0  0  0  0  0  0
  1  4  1  0  0  0  0
  1  2  1  0  0  0  0
  2  3  1  0  0  0  0
  5  4  2  0  0  0  0
  6  9  2  0  0  0  0
  6  5  1  0  0  0  0
  7  6  1  0  0  0  0
  8  7  1  0  0  0  0
  8 15  1  0  0  0  0
  9 10  1  0  0  0  0
 10 17  1  0  0  0  0
 10  1  2  0  0  0  0
 11 18  1  0  0  0  0
 12  5  1  0  0  0  0
 13  8  1  0  0  0  0
 14  8  1  0  0  0  0
 16  9  1  0  0  0  0
M  RAD  3   2   2   3   3   4   2
M  END
