Coordinates from ORCA-job 4-MeOPhN2+~Cl-_B3LYPG-6-31G_dp-CH-Scan-d09-49-n800
 OpenBabel11261919403D

 18 17  0  0  0  0  0  0  0  0999 V2000
   -1.4455   -0.2456   -0.0364 C   0  0  0  0  0  0  0  0  0  0  0  0
   -2.8096   -0.3560    0.0732 N   0  0  0  0  0  0  0  0  0  0  0  0
   -3.9281   -0.3897    0.1647 N   0  0  0  0  0  0  0  0  0  0  0  0
   -0.9743    1.0907   -0.0323 C   0  0  0  0  0  0  0  0  0  0  0  0
    0.4256    1.1152   -0.1477 C   0  0  0  0  0  0  0  0  0  0  0  0
    1.2256   -0.0343   -0.2501 C   0  0  0  0  0  0  0  0  0  0  0  0
    2.5581    0.1712   -0.3522 O   0  0  0  0  0  0  0  0  0  0  0  0
    3.4427   -0.9393   -0.4567 C   0  0  0  0  0  0  0  0  0  0  0  0
    0.6506   -1.3389   -0.2446 C   0  0  0  0  0  0  0  0  0  0  0  0
   -0.7136   -1.4601   -0.1361 C   0  0  0  0  0  0  0  0  0  0  0  0
   -2.7553    3.4750    0.2308 H   0  0  0  0  0  0  0  0  0  0  0  0
    0.9615    2.0642   -0.1612 H   0  0  0  0  0  0  0  0  0  0  0  0
    4.4451   -0.5148   -0.5201 H   0  0  0  0  0  0  0  0  0  0  0  0
    3.2441   -1.5299   -1.3592 H   0  0  0  0  0  0  0  0  0  0  0  0
    3.3810   -1.5880    0.4255 H   0  0  0  0  0  0  0  0  0  0  0  0
    1.2669   -2.2254   -0.3231 H   0  0  0  0  0  0  0  0  0  0  0  0
   -1.1977   -2.4336   -0.1277 H   0  0  0  0  0  0  0  0  0  0  0  0
   -3.6476    4.4027    0.3579 Cl  0  0  0  0  0  0  0  0  0  0  0  0
  1  4  1  0  0  0  0
  1  2  1  0  0  0  0
  2  3  1  0  0  0  0
  5  4  2  0  0  0  0
  6  9  2  0  0  0  0
  6  5  1  0  0  0  0
  7  6  1  0  0  0  0
  8  7  1  0  0  0  0
  8 15  1  0  0  0  0
  9 10  1  0  0  0  0
 10 17  1  0  0  0  0
 10  1  2  0  0  0  0
 11 18  1  0  0  0  0
 12  5  1  0  0  0  0
 13  8  1  0  0  0  0
 14  8  1  0  0  0  0
 16  9  1  0  0  0  0
M  RAD  3   2   2   3   3   4   2
M  END
