Coordinates from ORCA-job 4-MeOPhN2+~Cl-_B3LYPG-6-31G_dp-CH-Scan-d09-49-n800
 OpenBabel11261919403D

 18 17  0  0  0  0  0  0  0  0999 V2000
   -1.4640   -0.2056   -0.0300 C   0  0  0  0  0  0  0  0  0  0  0  0
   -2.8273   -0.3115    0.0806 N   0  0  0  0  0  0  0  0  0  0  0  0
   -3.9455   -0.3456    0.1731 N   0  0  0  0  0  0  0  0  0  0  0  0
   -0.9811    1.1270   -0.0233 C   0  0  0  0  0  0  0  0  0  0  0  0
    0.4174    1.1461   -0.1396 C   0  0  0  0  0  0  0  0  0  0  0  0
    1.2111   -0.0079   -0.2457 C   0  0  0  0  0  0  0  0  0  0  0  0
    2.5436    0.1909   -0.3482 O   0  0  0  0  0  0  0  0  0  0  0  0
    3.4230   -0.9239   -0.4561 C   0  0  0  0  0  0  0  0  0  0  0  0
    0.6281   -1.3086   -0.2431 C   0  0  0  0  0  0  0  0  0  0  0  0
   -0.7367   -1.4224   -0.1337 C   0  0  0  0  0  0  0  0  0  0  0  0
   -2.6041    3.2440    0.2041 H   0  0  0  0  0  0  0  0  0  0  0  0
    0.9570    2.0928   -0.1509 H   0  0  0  0  0  0  0  0  0  0  0  0
    4.4272   -0.5038   -0.5189 H   0  0  0  0  0  0  0  0  0  0  0  0
    3.2208   -1.5107   -1.3601 H   0  0  0  0  0  0  0  0  0  0  0  0
    3.3582   -1.5742    0.4246 H   0  0  0  0  0  0  0  0  0  0  0  0
    1.2390   -2.1986   -0.3246 H   0  0  0  0  0  0  0  0  0  0  0  0
   -1.2258   -2.3932   -0.1275 H   0  0  0  0  0  0  0  0  0  0  0  0
   -3.5116    4.1683    0.3243 Cl  0  0  0  0  0  0  0  0  0  0  0  0
  1  4  1  0  0  0  0
  1  2  1  0  0  0  0
  2  3  1  0  0  0  0
  5  4  2  0  0  0  0
  6  9  2  0  0  0  0
  6  5  1  0  0  0  0
  7  6  1  0  0  0  0
  8  7  1  0  0  0  0
  8 15  1  0  0  0  0
  9 10  1  0  0  0  0
 10 17  1  0  0  0  0
 10  1  2  0  0  0  0
 11 18  1  0  0  0  0
 12  5  1  0  0  0  0
 13  8  1  0  0  0  0
 14  8  1  0  0  0  0
 16  9  1  0  0  0  0
M  RAD  3   2   2   3   3   4   2
M  END
