Coordinates from ORCA-job 4-MeOPhN2+~Cl-_B3LYPG-6-31G_dp-CH-Scan-d09-49-n800
 OpenBabel11261919403D

 18 17  0  0  0  0  0  0  0  0999 V2000
   -1.4925   -0.1302   -0.0220 C   0  0  0  0  0  0  0  0  0  0  0  0
   -2.8563   -0.2196    0.0903 N   0  0  0  0  0  0  0  0  0  0  0  0
   -3.9739   -0.2383    0.1842 N   0  0  0  0  0  0  0  0  0  0  0  0
   -0.9839    1.1924   -0.0147 C   0  0  0  0  0  0  0  0  0  0  0  0
    0.4109    1.2022   -0.1320 C   0  0  0  0  0  0  0  0  0  0  0  0
    1.1903    0.0375   -0.2407 C   0  0  0  0  0  0  0  0  0  0  0  0
    2.5231    0.2211   -0.3440 O   0  0  0  0  0  0  0  0  0  0  0  0
    3.3908   -0.9037   -0.4539 C   0  0  0  0  0  0  0  0  0  0  0  0
    0.5899   -1.2542   -0.2391 C   0  0  0  0  0  0  0  0  0  0  0  0
   -0.7765   -1.3520   -0.1284 C   0  0  0  0  0  0  0  0  0  0  0  0
   -2.3406    2.8333    0.1628 H   0  0  0  0  0  0  0  0  0  0  0  0
    0.9572    2.1442   -0.1419 H   0  0  0  0  0  0  0  0  0  0  0  0
    4.3990   -0.4939   -0.5167 H   0  0  0  0  0  0  0  0  0  0  0  0
    3.1809   -1.4862   -1.3588 H   0  0  0  0  0  0  0  0  0  0  0  0
    3.3186   -1.5537    0.4262 H   0  0  0  0  0  0  0  0  0  0  0  0
    1.1890   -2.1520   -0.3226 H   0  0  0  0  0  0  0  0  0  0  0  0
   -1.2765   -2.3169   -0.1231 H   0  0  0  0  0  0  0  0  0  0  0  0
   -3.3204    3.7333    0.2792 Cl  0  0  0  0  0  0  0  0  0  0  0  0
  1  4  1  0  0  0  0
  1  2  1  0  0  0  0
  2  3  1  0  0  0  0
  5  4  2  0  0  0  0
  6  9  2  0  0  0  0
  6  5  1  0  0  0  0
  7  6  1  0  0  0  0
  8  7  1  0  0  0  0
  8 15  1  0  0  0  0
  9 10  1  0  0  0  0
 10 17  1  0  0  0  0
 10  1  2  0  0  0  0
 11 18  1  0  0  0  0
 12  5  1  0  0  0  0
 13  8  1  0  0  0  0
 14  8  1  0  0  0  0
 16  9  1  0  0  0  0
M  RAD  3   2   2   3   3   4   2
M  END
