Coordinates from ORCA-job 4-MeOPhN2+~Cl-_B3LYPG-6-31G_dp-CH-Scan-d09-49-n800
 OpenBabel11261919403D

 18 17  0  0  0  0  0  0  0  0999 V2000
   -1.4496   -0.2384   -0.0329 C   0  0  0  0  0  0  0  0  0  0  0  0
   -2.8134   -0.3483    0.0775 N   0  0  0  0  0  0  0  0  0  0  0  0
   -3.9318   -0.3826    0.1697 N   0  0  0  0  0  0  0  0  0  0  0  0
   -0.9763    1.0973   -0.0255 C   0  0  0  0  0  0  0  0  0  0  0  0
    0.4233    1.1212   -0.1415 C   0  0  0  0  0  0  0  0  0  0  0  0
    1.2221   -0.0289   -0.2476 C   0  0  0  0  0  0  0  0  0  0  0  0
    2.5546    0.1757   -0.3498 O   0  0  0  0  0  0  0  0  0  0  0  0
    3.4383   -0.9352   -0.4578 C   0  0  0  0  0  0  0  0  0  0  0  0
    0.6457   -1.3328   -0.2453 C   0  0  0  0  0  0  0  0  0  0  0  0
   -0.7185   -1.4530   -0.1363 C   0  0  0  0  0  0  0  0  0  0  0  0
   -2.7234    3.4271    0.2214 H   0  0  0  0  0  0  0  0  0  0  0  0
    0.9598    2.0699   -0.1527 H   0  0  0  0  0  0  0  0  0  0  0  0
    4.4410   -0.5113   -0.5205 H   0  0  0  0  0  0  0  0  0  0  0  0
    3.2388   -1.5230   -1.3619 H   0  0  0  0  0  0  0  0  0  0  0  0
    3.3764   -1.5863    0.4227 H   0  0  0  0  0  0  0  0  0  0  0  0
    1.2611   -2.2197   -0.3267 H   0  0  0  0  0  0  0  0  0  0  0  0
   -1.2034   -2.4261   -0.1304 H   0  0  0  0  0  0  0  0  0  0  0  0
   -3.6152    4.3577    0.3424 Cl  0  0  0  0  0  0  0  0  0  0  0  0
  1  4  1  0  0  0  0
  1  2  1  0  0  0  0
  2  3  1  0  0  0  0
  5  4  2  0  0  0  0
  6  9  2  0  0  0  0
  6  5  1  0  0  0  0
  7  6  1  0  0  0  0
  8  7  1  0  0  0  0
  8 15  1  0  0  0  0
  9 10  1  0  0  0  0
 10 17  1  0  0  0  0
 10  1  2  0  0  0  0
 11 18  1  0  0  0  0
 12  5  1  0  0  0  0
 13  8  1  0  0  0  0
 14  8  1  0  0  0  0
 16  9  1  0  0  0  0
M  RAD  3   2   2   3   3   4   2
M  END
