Coordinates from ORCA-job 4-MeOPhN2+~Cl-_B3LYPG-6-31G_dp-CH-Scan-d09-49-n800
 OpenBabel11261919403D

 18 17  0  0  0  0  0  0  0  0999 V2000
   -1.4067   -0.6036   -0.0767 C   0  0  0  0  0  0  0  0  0  0  0  0
   -2.7641   -0.8116    0.0213 N   0  0  0  0  0  0  0  0  0  0  0  0
   -3.8802   -0.9104    0.1021 N   0  0  0  0  0  0  0  0  0  0  0  0
   -1.0570    0.7672   -0.0892 C   0  0  0  0  0  0  0  0  0  0  0  0
    0.3414    0.9003   -0.1927 C   0  0  0  0  0  0  0  0  0  0  0  0
    1.2328   -0.1809   -0.2703 C   0  0  0  0  0  0  0  0  0  0  0  0
    2.5476    0.1301   -0.3666 O   0  0  0  0  0  0  0  0  0  0  0  0
    3.5174   -0.9073   -0.4500 C   0  0  0  0  0  0  0  0  0  0  0  0
    0.7672   -1.5291   -0.2476 C   0  0  0  0  0  0  0  0  0  0  0  0
   -0.5837   -1.7598   -0.1488 C   0  0  0  0  0  0  0  0  0  0  0  0
   -3.2514    4.9154    0.3644 H   0  0  0  0  0  0  0  0  0  0  0  0
    0.8019    1.8889   -0.2172 H   0  0  0  0  0  0  0  0  0  0  0  0
    4.4834   -0.4063   -0.5204 H   0  0  0  0  0  0  0  0  0  0  0  0
    3.3690   -1.5289   -1.3414 H   0  0  0  0  0  0  0  0  0  0  0  0
    3.5068   -1.5435    0.4438 H   0  0  0  0  0  0  0  0  0  0  0  0
    1.4551   -2.3629   -0.3061 H   0  0  0  0  0  0  0  0  0  0  0  0
   -0.9879   -2.7693   -0.1278 H   0  0  0  0  0  0  0  0  0  0  0  0
   -3.9622    5.9748    0.5281 Cl  0  0  0  0  0  0  0  0  0  0  0  0
  1  2  1  0  0  0  0
  2  3  1  0  0  0  0
  4  1  1  0  0  0  0
  5  4  2  0  0  0  0
  6  9  2  0  0  0  0
  6  5  1  0  0  0  0
  7  6  1  0  0  0  0
  8  7  1  0  0  0  0
  8 15  1  0  0  0  0
  9 10  1  0  0  0  0
 10 17  1  0  0  0  0
 10  1  2  0  0  0  0
 11 18  1  0  0  0  0
 12  5  1  0  0  0  0
 13  8  1  0  0  0  0
 14  8  1  0  0  0  0
 16  9  1  0  0  0  0
M  RAD  3   2   2   3   3   4   2
M  END
