Coordinates from ORCA-job 4-MeOPhN2+~Cl-_B3LYPG-6-31G_dp-CH-Scan-d09-49-n800
 OpenBabel11261919403D

 18 17  0  0  0  0  0  0  0  0999 V2000
   -1.4780   -0.1592   -0.0255 C   0  0  0  0  0  0  0  0  0  0  0  0
   -2.8417   -0.2544    0.0862 N   0  0  0  0  0  0  0  0  0  0  0  0
   -3.9596   -0.2792    0.1796 N   0  0  0  0  0  0  0  0  0  0  0  0
   -0.9795    1.1675   -0.0186 C   0  0  0  0  0  0  0  0  0  0  0  0
    0.4172    1.1789   -0.1357 C   0  0  0  0  0  0  0  0  0  0  0  0
    1.2013    0.0179   -0.2431 C   0  0  0  0  0  0  0  0  0  0  0  0
    2.5344    0.2063   -0.3462 O   0  0  0  0  0  0  0  0  0  0  0  0
    3.4056   -0.9154   -0.4550 C   0  0  0  0  0  0  0  0  0  0  0  0
    0.6069   -1.2772   -0.2409 C   0  0  0  0  0  0  0  0  0  0  0  0
   -0.7589   -1.3800   -0.1307 C   0  0  0  0  0  0  0  0  0  0  0  0
   -2.4651    3.0120    0.1815 H   0  0  0  0  0  0  0  0  0  0  0  0
    0.9623    2.1220   -0.1464 H   0  0  0  0  0  0  0  0  0  0  0  0
    4.4127   -0.5025   -0.5178 H   0  0  0  0  0  0  0  0  0  0  0  0
    3.1984   -1.4997   -1.3594 H   0  0  0  0  0  0  0  0  0  0  0  0
    3.3358   -1.5653    0.4255 H   0  0  0  0  0  0  0  0  0  0  0  0
    1.2100   -2.1723   -0.3235 H   0  0  0  0  0  0  0  0  0  0  0  0
   -1.2554   -2.3469   -0.1249 H   0  0  0  0  0  0  0  0  0  0  0  0
   -3.4172    3.9109    0.2997 Cl  0  0  0  0  0  0  0  0  0  0  0  0
  1  4  1  0  0  0  0
  1  2  1  0  0  0  0
  2  3  1  0  0  0  0
  5  4  2  0  0  0  0
  6  9  2  0  0  0  0
  6  5  1  0  0  0  0
  7  6  1  0  0  0  0
  8  7  1  0  0  0  0
  8 15  1  0  0  0  0
  9 10  1  0  0  0  0
 10 17  1  0  0  0  0
 10  1  2  0  0  0  0
 11 18  1  0  0  0  0
 12  5  1  0  0  0  0
 13  8  1  0  0  0  0
 14  8  1  0  0  0  0
 16  9  1  0  0  0  0
M  RAD  3   2   2   3   3   4   2
M  END
