Coordinates from ORCA-job 4-MeOPhN2+~Cl-_B3LYPG-6-31G_dp-CH-Scan-d09-49-n800
 OpenBabel11261919403D

 18 17  0  0  0  0  0  0  0  0999 V2000
   -1.5001   -0.1168   -0.0202 C   0  0  0  0  0  0  0  0  0  0  0  0
   -2.8641   -0.2034    0.0923 N   0  0  0  0  0  0  0  0  0  0  0  0
   -3.9814   -0.2184    0.1865 N   0  0  0  0  0  0  0  0  0  0  0  0
   -0.9862    1.2034   -0.0128 C   0  0  0  0  0  0  0  0  0  0  0  0
    0.4074    1.2134   -0.1301 C   0  0  0  0  0  0  0  0  0  0  0  0
    1.1848    0.0471   -0.2393 C   0  0  0  0  0  0  0  0  0  0  0  0
    2.5172    0.2286   -0.3428 O   0  0  0  0  0  0  0  0  0  0  0  0
    3.3835   -0.8976   -0.4535 C   0  0  0  0  0  0  0  0  0  0  0  0
    0.5816   -1.2431   -0.2382 C   0  0  0  0  0  0  0  0  0  0  0  0
   -0.7852   -1.3387   -0.1272 C   0  0  0  0  0  0  0  0  0  0  0  0
   -2.2756    2.7447    0.1532 H   0  0  0  0  0  0  0  0  0  0  0  0
    0.9536    2.1553   -0.1396 H   0  0  0  0  0  0  0  0  0  0  0  0
    4.3922   -0.4889   -0.5161 H   0  0  0  0  0  0  0  0  0  0  0  0
    3.1725   -1.4790   -1.3587 H   0  0  0  0  0  0  0  0  0  0  0  0
    3.3103   -1.5476    0.4264 H   0  0  0  0  0  0  0  0  0  0  0  0
    1.1788   -2.1421   -0.3221 H   0  0  0  0  0  0  0  0  0  0  0  0
   -1.2866   -2.3028   -0.1223 H   0  0  0  0  0  0  0  0  0  0  0  0
   -3.2733    3.6492    0.2691 Cl  0  0  0  0  0  0  0  0  0  0  0  0
  1  4  1  0  0  0  0
  1  2  1  0  0  0  0
  2  3  1  0  0  0  0
  5  4  2  0  0  0  0
  6  9  2  0  0  0  0
  6  5  1  0  0  0  0
  7  6  1  0  0  0  0
  8  7  1  0  0  0  0
  8 15  1  0  0  0  0
  9 10  1  0  0  0  0
 10 17  1  0  0  0  0
 10  1  2  0  0  0  0
 11 18  1  0  0  0  0
 12  5  1  0  0  0  0
 13  8  1  0  0  0  0
 14  8  1  0  0  0  0
 16  9  1  0  0  0  0
M  RAD  3   2   2   3   3   4   2
M  END
