Coordinates from ORCA-job 4-MeOPhN2+~Cl-_B3LYPG-6-31G_dp-CH-Scan-d09-49-n800
 OpenBabel11261919403D

 18 17  0  0  0  0  0  0  0  0999 V2000
   -1.5191   -0.0774   -0.0169 C   0  0  0  0  0  0  0  0  0  0  0  0
   -2.8844   -0.1479    0.0963 N   0  0  0  0  0  0  0  0  0  0  0  0
   -4.0003   -0.1335    0.1916 N   0  0  0  0  0  0  0  0  0  0  0  0
   -0.9828    1.2321   -0.0117 C   0  0  0  0  0  0  0  0  0  0  0  0
    0.4054    1.2459   -0.1282 C   0  0  0  0  0  0  0  0  0  0  0  0
    1.1745    0.0724   -0.2373 C   0  0  0  0  0  0  0  0  0  0  0  0
    2.5058    0.2457   -0.3409 O   0  0  0  0  0  0  0  0  0  0  0  0
    3.3665   -0.8860   -0.4517 C   0  0  0  0  0  0  0  0  0  0  0  0
    0.5602   -1.2112   -0.2352 C   0  0  0  0  0  0  0  0  0  0  0  0
   -0.8082   -1.2987   -0.1238 C   0  0  0  0  0  0  0  0  0  0  0  0
   -2.0879    2.4911    0.1277 H   0  0  0  0  0  0  0  0  0  0  0  0
    0.9502    2.1877   -0.1374 H   0  0  0  0  0  0  0  0  0  0  0  0
    4.3769   -0.4822   -0.5148 H   0  0  0  0  0  0  0  0  0  0  0  0
    3.1511   -1.4654   -1.3570 H   0  0  0  0  0  0  0  0  0  0  0  0
    3.2891   -1.5345    0.4287 H   0  0  0  0  0  0  0  0  0  0  0  0
    1.1503   -2.1148   -0.3190 H   0  0  0  0  0  0  0  0  0  0  0  0
   -1.3146   -2.2597   -0.1185 H   0  0  0  0  0  0  0  0  0  0  0  0
   -3.2032    3.3997    0.2530 Cl  0  0  0  0  0  0  0  0  0  0  0  0
  1  4  1  0  0  0  0
  1  2  1  0  0  0  0
  2  3  1  0  0  0  0
  5  4  2  0  0  0  0
  6  9  2  0  0  0  0
  6  5  1  0  0  0  0
  7  6  1  0  0  0  0
  8  7  1  0  0  0  0
  8 15  1  0  0  0  0
  9 10  1  0  0  0  0
 10 17  1  0  0  0  0
 10  1  2  0  0  0  0
 11 18  1  0  0  0  0
 12  5  1  0  0  0  0
 13  8  1  0  0  0  0
 14  8  1  0  0  0  0
 16  9  1  0  0  0  0
M  RAD  3   2   2   3   3   4   2
M  END
