Coordinates from ORCA-job 4-MeOPhN2+~Cl-_B3LYPG-6-31G_dp-CH-Scan-d09-49-n800
 OpenBabel11261919403D

 18 17  0  0  0  0  0  0  0  0999 V2000
   -1.4650   -0.2027   -0.0297 C   0  0  0  0  0  0  0  0  0  0  0  0
   -2.8283   -0.3080    0.0810 N   0  0  0  0  0  0  0  0  0  0  0  0
   -3.9465   -0.3418    0.1735 N   0  0  0  0  0  0  0  0  0  0  0  0
   -0.9811    1.1296   -0.0229 C   0  0  0  0  0  0  0  0  0  0  0  0
    0.4172    1.1483   -0.1393 C   0  0  0  0  0  0  0  0  0  0  0  0
    1.2103   -0.0061   -0.2455 C   0  0  0  0  0  0  0  0  0  0  0  0
    2.5429    0.1920   -0.3481 O   0  0  0  0  0  0  0  0  0  0  0  0
    3.4218   -0.9232   -0.4560 C   0  0  0  0  0  0  0  0  0  0  0  0
    0.6267   -1.3065   -0.2430 C   0  0  0  0  0  0  0  0  0  0  0  0
   -0.7382   -1.4197   -0.1335 C   0  0  0  0  0  0  0  0  0  0  0  0
   -2.5947    3.2287    0.2026 H   0  0  0  0  0  0  0  0  0  0  0  0
    0.9572    2.0947   -0.1506 H   0  0  0  0  0  0  0  0  0  0  0  0
    4.4262   -0.5035   -0.5188 H   0  0  0  0  0  0  0  0  0  0  0  0
    3.2193   -1.5098   -1.3601 H   0  0  0  0  0  0  0  0  0  0  0  0
    3.3567   -1.5735    0.4246 H   0  0  0  0  0  0  0  0  0  0  0  0
    1.2371   -2.1968   -0.3245 H   0  0  0  0  0  0  0  0  0  0  0  0
   -1.2277   -2.3903   -0.1274 H   0  0  0  0  0  0  0  0  0  0  0  0
   -3.5044    4.1518    0.3226 Cl  0  0  0  0  0  0  0  0  0  0  0  0
  1  4  1  0  0  0  0
  1  2  1  0  0  0  0
  2  3  1  0  0  0  0
  5  4  2  0  0  0  0
  6  9  2  0  0  0  0
  6  5  1  0  0  0  0
  7  6  1  0  0  0  0
  8  7  1  0  0  0  0
  8 15  1  0  0  0  0
  9 10  1  0  0  0  0
 10 17  1  0  0  0  0
 10  1  2  0  0  0  0
 11 18  1  0  0  0  0
 12  5  1  0  0  0  0
 13  8  1  0  0  0  0
 14  8  1  0  0  0  0
 16  9  1  0  0  0  0
M  RAD  3   2   2   3   3   4   2
M  END
