Coordinates from ORCA-job 4-MeOPhN2+~Cl-_B3LYPG-6-31G_dp-CH-Scan-d09-49-n800
 OpenBabel11261919403D

 18 17  0  0  0  0  0  0  0  0999 V2000
   -1.5126   -0.0904   -0.0177 C   0  0  0  0  0  0  0  0  0  0  0  0
   -2.8774   -0.1679    0.0953 N   0  0  0  0  0  0  0  0  0  0  0  0
   -3.9940   -0.1682    0.1900 N   0  0  0  0  0  0  0  0  0  0  0  0
   -0.9855    1.2236   -0.0112 C   0  0  0  0  0  0  0  0  0  0  0  0
    0.4050    1.2349   -0.1282 C   0  0  0  0  0  0  0  0  0  0  0  0
    1.1772    0.0641   -0.2377 C   0  0  0  0  0  0  0  0  0  0  0  0
    2.5090    0.2404   -0.3413 O   0  0  0  0  0  0  0  0  0  0  0  0
    3.3716   -0.8893   -0.4524 C   0  0  0  0  0  0  0  0  0  0  0  0
    0.5671   -1.2220   -0.2363 C   0  0  0  0  0  0  0  0  0  0  0  0
   -0.8006   -1.3123   -0.1250 C   0  0  0  0  0  0  0  0  0  0  0  0
   -2.1553    2.5785    0.1364 H   0  0  0  0  0  0  0  0  0  0  0  0
    0.9510    2.1764   -0.1374 H   0  0  0  0  0  0  0  0  0  0  0  0
    4.3815   -0.4838   -0.5152 H   0  0  0  0  0  0  0  0  0  0  0  0
    3.1578   -1.4692   -1.3578 H   0  0  0  0  0  0  0  0  0  0  0  0
    3.2959   -1.5386    0.4276 H   0  0  0  0  0  0  0  0  0  0  0  0
    1.1598   -2.1239   -0.3204 H   0  0  0  0  0  0  0  0  0  0  0  0
   -1.3054   -2.2744   -0.1200 H   0  0  0  0  0  0  0  0  0  0  0  0
   -3.2157    3.4853    0.2562 Cl  0  0  0  0  0  0  0  0  0  0  0  0
  1  4  1  0  0  0  0
  1  2  1  0  0  0  0
  2  3  1  0  0  0  0
  5  4  2  0  0  0  0
  6  9  2  0  0  0  0
  6  5  1  0  0  0  0
  7  6  1  0  0  0  0
  8  7  1  0  0  0  0
  8 15  1  0  0  0  0
  9 10  1  0  0  0  0
 10 17  1  0  0  0  0
 10  1  2  0  0  0  0
 11 18  1  0  0  0  0
 12  5  1  0  0  0  0
 13  8  1  0  0  0  0
 14  8  1  0  0  0  0
 16  9  1  0  0  0  0
M  RAD  3   2   2   3   3   4   2
M  END
