Coordinates from ORCA-job 4-MeOPhN2+~Cl-_B3LYPG-6-31G_dp-CH-Scan-d09-49-n800
 OpenBabel11261919403D

 18 17  0  0  0  0  0  0  0  0999 V2000
   -1.4096   -0.6346   -0.0837 C   0  0  0  0  0  0  0  0  0  0  0  0
   -2.7650   -0.8552    0.0122 N   0  0  0  0  0  0  0  0  0  0  0  0
   -3.8802   -0.9648    0.0907 N   0  0  0  0  0  0  0  0  0  0  0  0
   -1.0728    0.7394   -0.1036 C   0  0  0  0  0  0  0  0  0  0  0  0
    0.3245    0.8848   -0.2048 C   0  0  0  0  0  0  0  0  0  0  0  0
    1.2263   -0.1883   -0.2743 C   0  0  0  0  0  0  0  0  0  0  0  0
    2.5383    0.1345   -0.3702 O   0  0  0  0  0  0  0  0  0  0  0  0
    3.5179   -0.8941   -0.4461 C   0  0  0  0  0  0  0  0  0  0  0  0
    0.7735   -1.5407   -0.2444 C   0  0  0  0  0  0  0  0  0  0  0  0
   -0.5755   -1.7834   -0.1471 C   0  0  0  0  0  0  0  0  0  0  0  0
   -3.2529    5.0053    0.3784 H   0  0  0  0  0  0  0  0  0  0  0  0
    0.7763    1.8773   -0.2344 H   0  0  0  0  0  0  0  0  0  0  0  0
    4.4792   -0.3844   -0.5190 H   0  0  0  0  0  0  0  0  0  0  0  0
    3.3762   -1.5229   -1.3336 H   0  0  0  0  0  0  0  0  0  0  0  0
    3.5128   -1.5245    0.4518 H   0  0  0  0  0  0  0  0  0  0  0  0
    1.4691   -2.3684   -0.2964 H   0  0  0  0  0  0  0  0  0  0  0  0
   -0.9703   -2.7965   -0.1207 H   0  0  0  0  0  0  0  0  0  0  0  0
   -3.9385    6.0800    0.5499 Cl  0  0  0  0  0  0  0  0  0  0  0  0
  1  2  1  0  0  0  0
  2  3  1  0  0  0  0
  4  1  1  0  0  0  0
  5  4  2  0  0  0  0
  6  9  2  0  0  0  0
  6  5  1  0  0  0  0
  7  6  1  0  0  0  0
  8  7  1  0  0  0  0
  8 15  1  0  0  0  0
  9 10  1  0  0  0  0
 10 17  1  0  0  0  0
 10  1  2  0  0  0  0
 11 18  1  0  0  0  0
 12  5  1  0  0  0  0
 13  8  1  0  0  0  0
 14  8  1  0  0  0  0
 16  9  1  0  0  0  0
M  RAD  3   2   2   3   3   4   2
M  END
