Coordinates from ORCA-job 4-MeOPhN2+~Cl-_B3LYPG-6-31G_dp-CH-Scan-d09-49-n800
 OpenBabel11261919403D

 18 17  0  0  0  0  0  0  0  0999 V2000
   -1.4706   -0.1838   -0.0279 C   0  0  0  0  0  0  0  0  0  0  0  0
   -2.8340   -0.2851    0.0833 N   0  0  0  0  0  0  0  0  0  0  0  0
   -3.9520   -0.3160    0.1762 N   0  0  0  0  0  0  0  0  0  0  0  0
   -0.9804    1.1462   -0.0209 C   0  0  0  0  0  0  0  0  0  0  0  0
    0.4173    1.1615   -0.1377 C   0  0  0  0  0  0  0  0  0  0  0  0
    1.2065    0.0042   -0.2445 C   0  0  0  0  0  0  0  0  0  0  0  0
    2.5393    0.1981   -0.3473 O   0  0  0  0  0  0  0  0  0  0  0  0
    3.4149   -0.9199   -0.4556 C   0  0  0  0  0  0  0  0  0  0  0  0
    0.6182   -1.2939   -0.2421 C   0  0  0  0  0  0  0  0  0  0  0  0
   -0.7471   -1.4025   -0.1323 C   0  0  0  0  0  0  0  0  0  0  0  0
   -2.5397    3.1360    0.1935 H   0  0  0  0  0  0  0  0  0  0  0  0
    0.9595    2.1064   -0.1487 H   0  0  0  0  0  0  0  0  0  0  0  0
    4.4204   -0.5032   -0.5184 H   0  0  0  0  0  0  0  0  0  0  0  0
    3.2103   -1.5055   -1.3598 H   0  0  0  0  0  0  0  0  0  0  0  0
    3.3477   -1.5701    0.4249 H   0  0  0  0  0  0  0  0  0  0  0  0
    1.2254   -2.1863   -0.3241 H   0  0  0  0  0  0  0  0  0  0  0  0
   -1.2397   -2.3715   -0.1263 H   0  0  0  0  0  0  0  0  0  0  0  0
   -3.4666    4.0486    0.3126 Cl  0  0  0  0  0  0  0  0  0  0  0  0
  1  4  1  0  0  0  0
  1  2  1  0  0  0  0
  2  3  1  0  0  0  0
  5  4  2  0  0  0  0
  6  9  2  0  0  0  0
  6  5  1  0  0  0  0
  7  6  1  0  0  0  0
  8  7  1  0  0  0  0
  8 15  1  0  0  0  0
  9 10  1  0  0  0  0
 10 17  1  0  0  0  0
 10  1  2  0  0  0  0
 11 18  1  0  0  0  0
 12  5  1  0  0  0  0
 13  8  1  0  0  0  0
 14  8  1  0  0  0  0
 16  9  1  0  0  0  0
M  RAD  3   2   2   3   3   4   2
M  END
