Coordinates from ORCA-job 4-MeOPhN2+~Cl-_B3LYPG-6-31G_dp-CH-Scan-d09-49-n800
 OpenBabel11261919403D

 18 17  0  0  0  0  0  0  0  0999 V2000
   -1.4791   -0.1565   -0.0253 C   0  0  0  0  0  0  0  0  0  0  0  0
   -2.8428   -0.2510    0.0865 N   0  0  0  0  0  0  0  0  0  0  0  0
   -3.9607   -0.2752    0.1800 N   0  0  0  0  0  0  0  0  0  0  0  0
   -0.9796    1.1699   -0.0183 C   0  0  0  0  0  0  0  0  0  0  0  0
    0.4169    1.1809   -0.1354 C   0  0  0  0  0  0  0  0  0  0  0  0
    1.2005    0.0196   -0.2429 C   0  0  0  0  0  0  0  0  0  0  0  0
    2.5336    0.2074   -0.3461 O   0  0  0  0  0  0  0  0  0  0  0  0
    3.4044   -0.9146   -0.4549 C   0  0  0  0  0  0  0  0  0  0  0  0
    0.6055   -1.2752   -0.2408 C   0  0  0  0  0  0  0  0  0  0  0  0
   -0.7603   -1.3775   -0.1305 C   0  0  0  0  0  0  0  0  0  0  0  0
   -2.4552    2.9969    0.1800 H   0  0  0  0  0  0  0  0  0  0  0  0
    0.9622    2.1239   -0.1461 H   0  0  0  0  0  0  0  0  0  0  0  0
    4.4117   -0.5021   -0.5177 H   0  0  0  0  0  0  0  0  0  0  0  0
    3.1969   -1.4988   -1.3593 H   0  0  0  0  0  0  0  0  0  0  0  0
    3.3343   -1.5645    0.4256 H   0  0  0  0  0  0  0  0  0  0  0  0
    1.2082   -2.1706   -0.3234 H   0  0  0  0  0  0  0  0  0  0  0  0
   -1.2573   -2.3442   -0.1247 H   0  0  0  0  0  0  0  0  0  0  0  0
   -3.4100    3.8949    0.2981 Cl  0  0  0  0  0  0  0  0  0  0  0  0
  1  4  1  0  0  0  0
  1  2  1  0  0  0  0
  2  3  1  0  0  0  0
  5  4  2  0  0  0  0
  6  9  2  0  0  0  0
  6  5  1  0  0  0  0
  7  6  1  0  0  0  0
  8  7  1  0  0  0  0
  8 15  1  0  0  0  0
  9 10  1  0  0  0  0
 10 17  1  0  0  0  0
 10  1  2  0  0  0  0
 11 18  1  0  0  0  0
 12  5  1  0  0  0  0
 13  8  1  0  0  0  0
 14  8  1  0  0  0  0
 16  9  1  0  0  0  0
M  RAD  3   2   2   3   3   4   2
M  END
