Coordinates from ORCA-job 4-MeOPhN2+~Cl-_B3LYPG-6-31G_dp-CH-Scan-d09-49-n800
 OpenBabel11261919403D

 18 17  0  0  0  0  0  0  0  0999 V2000
   -1.5232   -0.0684   -0.0168 C   0  0  0  0  0  0  0  0  0  0  0  0
   -2.8894   -0.1289    0.0970 N   0  0  0  0  0  0  0  0  0  0  0  0
   -4.0039   -0.0844    0.1933 N   0  0  0  0  0  0  0  0  0  0  0  0
   -0.9783    1.2367   -0.0129 C   0  0  0  0  0  0  0  0  0  0  0  0
    0.4076    1.2540   -0.1288 C   0  0  0  0  0  0  0  0  0  0  0  0
    1.1740    0.0778   -0.2374 C   0  0  0  0  0  0  0  0  0  0  0  0
    2.5047    0.2489   -0.3409 O   0  0  0  0  0  0  0  0  0  0  0  0
    3.3639   -0.8846   -0.4512 C   0  0  0  0  0  0  0  0  0  0  0  0
    0.5560   -1.2033   -0.2345 C   0  0  0  0  0  0  0  0  0  0  0  0
   -0.8133   -1.2885   -0.1230 C   0  0  0  0  0  0  0  0  0  0  0  0
   -2.0332    2.4200    0.1207 H   0  0  0  0  0  0  0  0  0  0  0  0
    0.9508    2.1963   -0.1382 H   0  0  0  0  0  0  0  0  0  0  0  0
    4.3748   -0.4822   -0.5143 H   0  0  0  0  0  0  0  0  0  0  0  0
    3.1471   -1.4637   -1.3562 H   0  0  0  0  0  0  0  0  0  0  0  0
    3.2850   -1.5321    0.4298 H   0  0  0  0  0  0  0  0  0  0  0  0
    1.1439   -2.1083   -0.3178 H   0  0  0  0  0  0  0  0  0  0  0  0
   -1.3210   -2.2486   -0.1172 H   0  0  0  0  0  0  0  0  0  0  0  0
   -3.2161    3.3226    0.2536 Cl  0  0  0  0  0  0  0  0  0  0  0  0
  1  4  1  0  0  0  0
  1  2  1  0  0  0  0
  2  3  1  0  0  0  0
  5  4  2  0  0  0  0
  6  9  2  0  0  0  0
  6  5  1  0  0  0  0
  7  6  1  0  0  0  0
  8  7  1  0  0  0  0
  8 15  1  0  0  0  0
  9 10  1  0  0  0  0
 10 17  1  0  0  0  0
 10  1  2  0  0  0  0
 11 18  1  0  0  0  0
 12  5  1  0  0  0  0
 13  8  1  0  0  0  0
 14  8  1  0  0  0  0
 16  9  1  0  0  0  0
M  RAD  3   2   2   3   3   4   2
M  END
