Coordinates from ORCA-job 4-MeOPhN2+~Cl-_B3LYPG-6-31G_dp-CH-Scan-d09-49-n800
 OpenBabel11261919403D

 18 17  0  0  0  0  0  0  0  0999 V2000
   -1.5458   -0.0105   -0.0149 C   0  0  0  0  0  0  0  0  0  0  0  0
   -2.9337   -0.1118    0.0974 N   0  0  0  0  0  0  0  0  0  0  0  0
   -3.9375    0.4644    0.2057 N   0  0  0  0  0  0  0  0  0  0  0  0
   -0.8990    1.2375   -0.0211 C   0  0  0  0  0  0  0  0  0  0  0  0
    0.4747    1.2795   -0.1338 C   0  0  0  0  0  0  0  0  0  0  0  0
    1.2152    0.0832   -0.2403 C   0  0  0  0  0  0  0  0  0  0  0  0
    2.5515    0.2374   -0.3441 O   0  0  0  0  0  0  0  0  0  0  0  0
    3.3790   -0.9179   -0.4522 C   0  0  0  0  0  0  0  0  0  0  0  0
    0.5598   -1.1633   -0.2337 C   0  0  0  0  0  0  0  0  0  0  0  0
   -0.8228   -1.2064   -0.1209 C   0  0  0  0  0  0  0  0  0  0  0  0
   -1.6711    2.2973    0.0846 H   0  0  0  0  0  0  0  0  0  0  0  0
    1.0131    2.2208   -0.1423 H   0  0  0  0  0  0  0  0  0  0  0  0
    4.4010   -0.5445   -0.5176 H   0  0  0  0  0  0  0  0  0  0  0  0
    3.1444   -1.4943   -1.3549 H   0  0  0  0  0  0  0  0  0  0  0  0
    3.2823   -1.5615    0.4301 H   0  0  0  0  0  0  0  0  0  0  0  0
    1.1172   -2.0878   -0.3150 H   0  0  0  0  0  0  0  0  0  0  0  0
   -1.3508   -2.1543   -0.1135 H   0  0  0  0  0  0  0  0  0  0  0  0
   -3.8481    2.6958    0.2915 Cl  0  0  0  0  0  0  0  0  0  0  0  0
  1  2  1  0  0  0  0
  2  3  2  0  0  0  0
  4  1  1  0  0  0  0
  4 11  1  0  0  0  0
  5  4  2  0  0  0  0
  6  9  2  0  0  0  0
  6  5  1  0  0  0  0
  7  6  1  0  0  0  0
  8  7  1  0  0  0  0
  8 15  1  0  0  0  0
  9 10  1  0  0  0  0
 10 17  1  0  0  0  0
 10  1  2  0  0  0  0
 12  5  1  0  0  0  0
 13  8  1  0  0  0  0
 14  8  1  0  0  0  0
 16  9  1  0  0  0  0
M  RAD  2   3   2  18   2
M  END
