Coordinates from ORCA-job 4-MeOPhN2+~Cl-_B3LYPG-6-31G_dp-CH-Scan-d09-49-n800
 OpenBabel11261919403D

 18 17  0  0  0  0  0  0  0  0999 V2000
   -1.4811   -0.1519   -0.0248 C   0  0  0  0  0  0  0  0  0  0  0  0
   -2.8448   -0.2454    0.0871 N   0  0  0  0  0  0  0  0  0  0  0  0
   -3.9626   -0.2687    0.1807 N   0  0  0  0  0  0  0  0  0  0  0  0
   -0.9801    1.1738   -0.0178 C   0  0  0  0  0  0  0  0  0  0  0  0
    0.4163    1.1845   -0.1350 C   0  0  0  0  0  0  0  0  0  0  0  0
    1.1991    0.0225   -0.2426 C   0  0  0  0  0  0  0  0  0  0  0  0
    2.5321    0.2095   -0.3458 O   0  0  0  0  0  0  0  0  0  0  0  0
    3.4023   -0.9131   -0.4547 C   0  0  0  0  0  0  0  0  0  0  0  0
    0.6030   -1.2717   -0.2405 C   0  0  0  0  0  0  0  0  0  0  0  0
   -0.7629   -1.3731   -0.1301 C   0  0  0  0  0  0  0  0  0  0  0  0
   -2.4376    2.9705    0.1774 H   0  0  0  0  0  0  0  0  0  0  0  0
    0.9619    2.1272   -0.1456 H   0  0  0  0  0  0  0  0  0  0  0  0
    4.4097   -0.5011   -0.5175 H   0  0  0  0  0  0  0  0  0  0  0  0
    3.1943   -1.4971   -1.3592 H   0  0  0  0  0  0  0  0  0  0  0  0
    3.3318   -1.5629    0.4257 H   0  0  0  0  0  0  0  0  0  0  0  0
    1.2050   -2.1676   -0.3232 H   0  0  0  0  0  0  0  0  0  0  0  0
   -1.2605   -2.3395   -0.1244 H   0  0  0  0  0  0  0  0  0  0  0  0
   -3.3966    3.8675    0.2953 Cl  0  0  0  0  0  0  0  0  0  0  0  0
  1  4  1  0  0  0  0
  1  2  1  0  0  0  0
  2  3  1  0  0  0  0
  5  4  2  0  0  0  0
  6  9  2  0  0  0  0
  6  5  1  0  0  0  0
  7  6  1  0  0  0  0
  8  7  1  0  0  0  0
  8 15  1  0  0  0  0
  9 10  1  0  0  0  0
 10 17  1  0  0  0  0
 10  1  2  0  0  0  0
 11 18  1  0  0  0  0
 12  5  1  0  0  0  0
 13  8  1  0  0  0  0
 14  8  1  0  0  0  0
 16  9  1  0  0  0  0
M  RAD  3   2   2   3   3   4   2
M  END
