Coordinates from ORCA-job 4-MeOPhN2+~Cl-_B3LYPG-6-31G_dp-CH-Scan-d09-49-n800
 OpenBabel11261919403D

 18 17  0  0  0  0  0  0  0  0999 V2000
   -1.5179   -0.0709   -0.0186 C   0  0  0  0  0  0  0  0  0  0  0  0
   -2.9072   -0.0904    0.0978 N   0  0  0  0  0  0  0  0  0  0  0  0
   -3.9177    0.4189    0.2032 N   0  0  0  0  0  0  0  0  0  0  0  0
   -0.9444    1.2100   -0.0170 C   0  0  0  0  0  0  0  0  0  0  0  0
    0.4343    1.2564   -0.1300 C   0  0  0  0  0  0  0  0  0  0  0  0
    1.1935    0.0720   -0.2386 C   0  0  0  0  0  0  0  0  0  0  0  0
    2.5273    0.2436   -0.3416 O   0  0  0  0  0  0  0  0  0  0  0  0
    3.3777   -0.8946   -0.4519 C   0  0  0  0  0  0  0  0  0  0  0  0
    0.5679   -1.1981   -0.2360 C   0  0  0  0  0  0  0  0  0  0  0  0
   -0.8091   -1.2770   -0.1244 C   0  0  0  0  0  0  0  0  0  0  0  0
   -1.9881    2.2946    0.1129 H   0  0  0  0  0  0  0  0  0  0  0  0
    0.9720    2.2002   -0.1379 H   0  0  0  0  0  0  0  0  0  0  0  0
    4.3920   -0.5004   -0.5151 H   0  0  0  0  0  0  0  0  0  0  0  0
    3.1567   -1.4732   -1.3567 H   0  0  0  0  0  0  0  0  0  0  0  0
    3.2939   -1.5427    0.4285 H   0  0  0  0  0  0  0  0  0  0  0  0
    1.1507   -2.1064   -0.3191 H   0  0  0  0  0  0  0  0  0  0  0  0
   -1.3207   -2.2345   -0.1190 H   0  0  0  0  0  0  0  0  0  0  0  0
   -3.5315    2.9559    0.2685 Cl  0  0  0  0  0  0  0  0  0  0  0  0
  1  4  1  0  0  0  0
  1  2  1  0  0  0  0
  2  3  2  0  0  0  0
  4 11  1  0  0  0  0
  5  4  2  0  0  0  0
  6  9  2  0  0  0  0
  6  5  1  0  0  0  0
  7  6  1  0  0  0  0
  8  7  1  0  0  0  0
  8 15  1  0  0  0  0
  9 10  1  0  0  0  0
 10 17  1  0  0  0  0
 10  1  2  0  0  0  0
 12  5  1  0  0  0  0
 13  8  1  0  0  0  0
 14  8  1  0  0  0  0
 16  9  1  0  0  0  0
M  RAD  2   3   2  18   2
M  END
