Coordinates from ORCA-job 4-MeOPhN2+~Cl-_B3LYPG-6-31G_dp-CH-Scan-d09-49-n800
 OpenBabel11261919403D

 18 17  0  0  0  0  0  0  0  0999 V2000
   -1.4045   -0.4966   -0.0578 C   0  0  0  0  0  0  0  0  0  0  0  0
   -2.7663   -0.6675    0.0450 N   0  0  0  0  0  0  0  0  0  0  0  0
   -3.8842   -0.7368    0.1310 N   0  0  0  0  0  0  0  0  0  0  0  0
   -1.0142    0.8637   -0.0531 C   0  0  0  0  0  0  0  0  0  0  0  0
    0.3868    0.9571   -0.1619 C   0  0  0  0  0  0  0  0  0  0  0  0
    1.2457   -0.1485   -0.2594 C   0  0  0  0  0  0  0  0  0  0  0  0
    2.5684    0.1254   -0.3577 O   0  0  0  0  0  0  0  0  0  0  0  0
    3.5075   -0.9385   -0.4589 C   0  0  0  0  0  0  0  0  0  0  0  0
    0.7410   -1.4826   -0.2536 C   0  0  0  0  0  0  0  0  0  0  0  0
   -0.6156   -1.6750   -0.1508 C   0  0  0  0  0  0  0  0  0  0  0  0
   -3.1915    4.5638    0.3192 H   0  0  0  0  0  0  0  0  0  0  0  0
    0.8760    1.9320   -0.1748 H   0  0  0  0  0  0  0  0  0  0  0  0
    4.4876   -0.4647   -0.5234 H   0  0  0  0  0  0  0  0  0  0  0  0
    3.3398   -1.5416   -1.3597 H   0  0  0  0  0  0  0  0  0  0  0  0
    3.4794   -1.5879    0.4248 H   0  0  0  0  0  0  0  0  0  0  0  0
    1.4039   -2.3352   -0.3275 H   0  0  0  0  0  0  0  0  0  0  0  0
   -1.0491   -2.6724   -0.1421 H   0  0  0  0  0  0  0  0  0  0  0  0
   -3.9812    5.5686    0.4654 Cl  0  0  0  0  0  0  0  0  0  0  0  0
  1  4  1  0  0  0  0
  1  2  1  0  0  0  0
  2  3  1  0  0  0  0
  5  4  2  0  0  0  0
  6  9  2  0  0  0  0
  6  5  1  0  0  0  0
  7  6  1  0  0  0  0
  8  7  1  0  0  0  0
  8 15  1  0  0  0  0
  9 10  1  0  0  0  0
 10 17  1  0  0  0  0
 10  1  2  0  0  0  0
 11 18  1  0  0  0  0
 12  5  1  0  0  0  0
 13  8  1  0  0  0  0
 14  8  1  0  0  0  0
 16  9  1  0  0  0  0
M  RAD  3   2   2   3   3   4   2
M  END
