Coordinates from ORCA-job 4-MeOPhN2+~Cl-_B3LYPG-6-31G_dp-CH-Scan-d09-49-n800
 OpenBabel11261919403D

 18 17  0  0  0  0  0  0  0  0999 V2000
   -1.4868   -0.1403   -0.0234 C   0  0  0  0  0  0  0  0  0  0  0  0
   -2.8505   -0.2316    0.0887 N   0  0  0  0  0  0  0  0  0  0  0  0
   -3.9682   -0.2525    0.1824 N   0  0  0  0  0  0  0  0  0  0  0  0
   -0.9818    1.1838   -0.0163 C   0  0  0  0  0  0  0  0  0  0  0  0
    0.4138    1.1937   -0.1335 C   0  0  0  0  0  0  0  0  0  0  0  0
    1.1947    0.0303   -0.2417 C   0  0  0  0  0  0  0  0  0  0  0  0
    2.5277    0.2154   -0.3449 O   0  0  0  0  0  0  0  0  0  0  0  0
    3.3964   -0.9085   -0.4543 C   0  0  0  0  0  0  0  0  0  0  0  0
    0.5963   -1.2626   -0.2398 C   0  0  0  0  0  0  0  0  0  0  0  0
   -0.7699   -1.3620   -0.1292 C   0  0  0  0  0  0  0  0  0  0  0  0
   -2.3885    2.8997    0.1700 H   0  0  0  0  0  0  0  0  0  0  0  0
    0.9599    2.1360   -0.1439 H   0  0  0  0  0  0  0  0  0  0  0  0
    4.4043   -0.4978   -0.5171 H   0  0  0  0  0  0  0  0  0  0  0  0
    3.1874   -1.4918   -1.3589 H   0  0  0  0  0  0  0  0  0  0  0  0
    3.3250   -1.5583    0.4260 H   0  0  0  0  0  0  0  0  0  0  0  0
    1.1967   -2.1596   -0.3228 H   0  0  0  0  0  0  0  0  0  0  0  0
   -1.2688   -2.3275   -0.1237 H   0  0  0  0  0  0  0  0  0  0  0  0
   -3.3582    3.7968    0.2873 Cl  0  0  0  0  0  0  0  0  0  0  0  0
  1  4  1  0  0  0  0
  1  2  1  0  0  0  0
  2  3  1  0  0  0  0
  5  4  2  0  0  0  0
  6  9  2  0  0  0  0
  6  5  1  0  0  0  0
  7  6  1  0  0  0  0
  8  7  1  0  0  0  0
  8 15  1  0  0  0  0
  9 10  1  0  0  0  0
 10 17  1  0  0  0  0
 10  1  2  0  0  0  0
 11 18  1  0  0  0  0
 12  5  1  0  0  0  0
 13  8  1  0  0  0  0
 14  8  1  0  0  0  0
 16  9  1  0  0  0  0
M  RAD  3   2   2   3   3   4   2
M  END
