Coordinates from ORCA-job 4-MeOPhN2+~Cl-_B3LYPG-6-31G_dp-CH-Scan-d09-49-n800
 OpenBabel11261919403D

 18 18  0  0  0  0  0  0  0  0999 V2000
   -1.5595    0.0144   -0.0156 C   0  0  0  0  0  0  0  0  0  0  0  0
   -2.9460   -0.1191    0.0949 N   0  0  0  0  0  0  0  0  0  0  0  0
   -3.9533    0.4635    0.2081 N   0  0  0  0  0  0  0  0  0  0  0  0
   -0.9059    1.2639   -0.0236 C   0  0  0  0  0  0  0  0  0  0  0  0
    0.4711    1.2890   -0.1367 C   0  0  0  0  0  0  0  0  0  0  0  0
    1.2104    0.0936   -0.2412 C   0  0  0  0  0  0  0  0  0  0  0  0
    2.5475    0.2456   -0.3443 O   0  0  0  0  0  0  0  0  0  0  0  0
    3.3706   -0.9130   -0.4488 C   0  0  0  0  0  0  0  0  0  0  0  0
    0.5497   -1.1477   -0.2331 C   0  0  0  0  0  0  0  0  0  0  0  0
   -0.8335   -1.1796   -0.1208 C   0  0  0  0  0  0  0  0  0  0  0  0
   -1.4974    2.1818    0.0601 H   0  0  0  0  0  0  0  0  0  0  0  0
    1.0116    2.2293   -0.1463 H   0  0  0  0  0  0  0  0  0  0  0  0
    4.3942   -0.5440   -0.5137 H   0  0  0  0  0  0  0  0  0  0  0  0
    3.1348   -1.4906   -1.3505 H   0  0  0  0  0  0  0  0  0  0  0  0
    3.2700   -1.5545    0.4347 H   0  0  0  0  0  0  0  0  0  0  0  0
    1.1006   -2.0764   -0.3129 H   0  0  0  0  0  0  0  0  0  0  0  0
   -1.3670   -2.1242   -0.1124 H   0  0  0  0  0  0  0  0  0  0  0  0
   -3.8686    2.6313    0.3070 Cl  0  0  0  0  0  0  0  0  0  0  0  0
  1  2  1  0  0  0  0
  2  3  2  0  0  0  0
  3 18  1  0  0  0  0
  4  1  1  0  0  0  0
  4 11  1  0  0  0  0
  5  4  2  0  0  0  0
  6  9  2  0  0  0  0
  6  5  1  0  0  0  0
  7  6  1  0  0  0  0
  8  7  1  0  0  0  0
  8 15  1  0  0  0  0
  9 10  1  0  0  0  0
 10 17  1  0  0  0  0
 10  1  2  0  0  0  0
 12  5  1  0  0  0  0
 13  8  1  0  0  0  0
 14  8  1  0  0  0  0
 16  9  1  0  0  0  0
M  END
