Coordinates from ORCA-job 4-MeOPhN2+~Cl-_B3LYPG-6-31G_dp-CH-Scan-d09-49-n800
 OpenBabel11261919403D

 18 17  0  0  0  0  0  0  0  0999 V2000
   -1.4273   -0.3303   -0.0434 C   0  0  0  0  0  0  0  0  0  0  0  0
   -2.7914   -0.4591    0.0644 N   0  0  0  0  0  0  0  0  0  0  0  0
   -3.9100   -0.5019    0.1544 N   0  0  0  0  0  0  0  0  0  0  0  0
   -0.9839    1.0149   -0.0385 C   0  0  0  0  0  0  0  0  0  0  0  0
    0.4175    1.0597   -0.1523 C   0  0  0  0  0  0  0  0  0  0  0  0
    1.2364   -0.0760   -0.2535 C   0  0  0  0  0  0  0  0  0  0  0  0
    2.5666    0.1511   -0.3543 O   0  0  0  0  0  0  0  0  0  0  0  0
    3.4684   -0.9449   -0.4581 C   0  0  0  0  0  0  0  0  0  0  0  0
    0.6839   -1.3907   -0.2484 C   0  0  0  0  0  0  0  0  0  0  0  0
   -0.6782   -1.5345   -0.1416 C   0  0  0  0  0  0  0  0  0  0  0  0
   -2.9394    3.8571    0.2637 H   0  0  0  0  0  0  0  0  0  0  0  0
    0.9398    2.0168   -0.1656 H   0  0  0  0  0  0  0  0  0  0  0  0
    4.4642   -0.5050   -0.5214 H   0  0  0  0  0  0  0  0  0  0  0  0
    3.2798   -1.5392   -1.3604 H   0  0  0  0  0  0  0  0  0  0  0  0
    3.4171   -1.5947    0.4241 H   0  0  0  0  0  0  0  0  0  0  0  0
    1.3154   -2.2665   -0.3259 H   0  0  0  0  0  0  0  0  0  0  0  0
   -1.1467   -2.5157   -0.1335 H   0  0  0  0  0  0  0  0  0  0  0  0
   -3.7827    4.8221    0.3953 Cl  0  0  0  0  0  0  0  0  0  0  0  0
  1  4  1  0  0  0  0
  1  2  1  0  0  0  0
  2  3  1  0  0  0  0
  5  4  2  0  0  0  0
  6  9  2  0  0  0  0
  6  5  1  0  0  0  0
  7  6  1  0  0  0  0
  8  7  1  0  0  0  0
  8 15  1  0  0  0  0
  9 10  1  0  0  0  0
 10 17  1  0  0  0  0
 10  1  2  0  0  0  0
 11 18  1  0  0  0  0
 12  5  1  0  0  0  0
 13  8  1  0  0  0  0
 14  8  1  0  0  0  0
 16  9  1  0  0  0  0
M  RAD  3   2   2   3   3   4   2
M  END
