Coordinates from ORCA-job 4-MeOPhN2+~Cl-_B3LYPG-6-31G_dp-CH-Scan-d09-49-n800
 OpenBabel11261919403D

 18 17  0  0  0  0  0  0  0  0999 V2000
   -1.5513    0.0021   -0.0146 C   0  0  0  0  0  0  0  0  0  0  0  0
   -2.9383   -0.1154    0.0968 N   0  0  0  0  0  0  0  0  0  0  0  0
   -3.9462    0.4599    0.2066 N   0  0  0  0  0  0  0  0  0  0  0  0
   -0.8988    1.2493   -0.0218 C   0  0  0  0  0  0  0  0  0  0  0  0
    0.4761    1.2839   -0.1346 C   0  0  0  0  0  0  0  0  0  0  0  0
    1.2149    0.0872   -0.2404 C   0  0  0  0  0  0  0  0  0  0  0  0
    2.5517    0.2394   -0.3441 O   0  0  0  0  0  0  0  0  0  0  0  0
    3.3762   -0.9181   -0.4514 C   0  0  0  0  0  0  0  0  0  0  0  0
    0.5560   -1.1562   -0.2333 C   0  0  0  0  0  0  0  0  0  0  0  0
   -0.8269   -1.1931   -0.1205 C   0  0  0  0  0  0  0  0  0  0  0  0
   -1.5948    2.2654    0.0750 H   0  0  0  0  0  0  0  0  0  0  0  0
    1.0160    2.2243   -0.1436 H   0  0  0  0  0  0  0  0  0  0  0  0
    4.3992   -0.5476   -0.5167 H   0  0  0  0  0  0  0  0  0  0  0  0
    3.1403   -1.4944   -1.3538 H   0  0  0  0  0  0  0  0  0  0  0  0
    3.2774   -1.5611    0.4312 H   0  0  0  0  0  0  0  0  0  0  0  0
    1.1096   -2.0831   -0.3141 H   0  0  0  0  0  0  0  0  0  0  0  0
   -1.3580   -2.1391   -0.1127 H   0  0  0  0  0  0  0  0  0  0  0  0
   -3.8737    2.6598    0.2966 Cl  0  0  0  0  0  0  0  0  0  0  0  0
  1  2  1  0  0  0  0
  2  3  2  0  0  0  0
  4  1  1  0  0  0  0
  4 11  1  0  0  0  0
  5  4  2  0  0  0  0
  6  9  2  0  0  0  0
  6  5  1  0  0  0  0
  7  6  1  0  0  0  0
  8  7  1  0  0  0  0
  8 15  1  0  0  0  0
  9 10  1  0  0  0  0
 10 17  1  0  0  0  0
 10  1  2  0  0  0  0
 12  5  1  0  0  0  0
 13  8  1  0  0  0  0
 14  8  1  0  0  0  0
 16  9  1  0  0  0  0
M  RAD  2   3   2  18   2
M  END
