Coordinates from ORCA-job 4-MeOPhN2+~Cl-_B3LYPG-6-31G_dp-CH-Scan-d09-49-n800
 OpenBabel11261919403D

 18 17  0  0  0  0  0  0  0  0999 V2000
   -1.4366   -0.2973   -0.0410 C   0  0  0  0  0  0  0  0  0  0  0  0
   -2.8005   -0.4198    0.0675 N   0  0  0  0  0  0  0  0  0  0  0  0
   -3.9191   -0.4603    0.1579 N   0  0  0  0  0  0  0  0  0  0  0  0
   -0.9832    1.0449   -0.0369 C   0  0  0  0  0  0  0  0  0  0  0  0
    0.4177    1.0825   -0.1512 C   0  0  0  0  0  0  0  0  0  0  0  0
    1.2300   -0.0581   -0.2523 C   0  0  0  0  0  0  0  0  0  0  0  0
    2.5610    0.1614   -0.3534 O   0  0  0  0  0  0  0  0  0  0  0  0
    3.4569   -0.9397   -0.4570 C   0  0  0  0  0  0  0  0  0  0  0  0
    0.6695   -1.3693   -0.2465 C   0  0  0  0  0  0  0  0  0  0  0  0
   -0.6933   -1.5050   -0.1392 C   0  0  0  0  0  0  0  0  0  0  0  0
   -2.8551    3.6960    0.2497 H   0  0  0  0  0  0  0  0  0  0  0  0
    0.9448    2.0368   -0.1649 H   0  0  0  0  0  0  0  0  0  0  0  0
    4.4550   -0.5051   -0.5203 H   0  0  0  0  0  0  0  0  0  0  0  0
    3.2649   -1.5330   -1.3592 H   0  0  0  0  0  0  0  0  0  0  0  0
    3.4019   -1.5888    0.4255 H   0  0  0  0  0  0  0  0  0  0  0  0
    1.2957   -2.2489   -0.3240 H   0  0  0  0  0  0  0  0  0  0  0  0
   -1.1673   -2.4836   -0.1307 H   0  0  0  0  0  0  0  0  0  0  0  0
   -3.7127    4.6505    0.3809 Cl  0  0  0  0  0  0  0  0  0  0  0  0
  1  4  1  0  0  0  0
  1  2  1  0  0  0  0
  2  3  1  0  0  0  0
  5  4  2  0  0  0  0
  6  9  2  0  0  0  0
  6  5  1  0  0  0  0
  7  6  1  0  0  0  0
  8  7  1  0  0  0  0
  8 15  1  0  0  0  0
  9 10  1  0  0  0  0
 10 17  1  0  0  0  0
 10  1  2  0  0  0  0
 11 18  1  0  0  0  0
 12  5  1  0  0  0  0
 13  8  1  0  0  0  0
 14  8  1  0  0  0  0
 16  9  1  0  0  0  0
M  RAD  3   2   2   3   3   4   2
M  END
