Coordinates from ORCA-job 4-MeOPhN2+~Cl-_B3LYPG-6-31G_dp-CH-Scan-d09-49-n800
 OpenBabel11261919403D

 18 17  0  0  0  0  0  0  0  0999 V2000
   -1.4135   -0.4001   -0.0503 C   0  0  0  0  0  0  0  0  0  0  0  0
   -2.7772   -0.5443    0.0556 N   0  0  0  0  0  0  0  0  0  0  0  0
   -3.8958   -0.5954    0.1440 N   0  0  0  0  0  0  0  0  0  0  0  0
   -0.9918    0.9515   -0.0465 C   0  0  0  0  0  0  0  0  0  0  0  0
    0.4100    1.0143   -0.1584 C   0  0  0  0  0  0  0  0  0  0  0  0
    1.2446   -0.1099   -0.2571 C   0  0  0  0  0  0  0  0  0  0  0  0
    2.5723    0.1353   -0.3569 O   0  0  0  0  0  0  0  0  0  0  0  0
    3.4886   -0.9485   -0.4587 C   0  0  0  0  0  0  0  0  0  0  0  0
    0.7107   -1.4325   -0.2506 C   0  0  0  0  0  0  0  0  0  0  0  0
   -0.6495   -1.5949   -0.1454 C   0  0  0  0  0  0  0  0  0  0  0  0
   -3.0725    4.1775    0.2914 H   0  0  0  0  0  0  0  0  0  0  0  0
    0.9200    1.9783   -0.1724 H   0  0  0  0  0  0  0  0  0  0  0  0
    4.4785   -0.4956   -0.5225 H   0  0  0  0  0  0  0  0  0  0  0  0
    3.3082   -1.5470   -1.3599 H   0  0  0  0  0  0  0  0  0  0  0  0
    3.4460   -1.5977    0.4246 H   0  0  0  0  0  0  0  0  0  0  0  0
    1.3546   -2.2994   -0.3260 H   0  0  0  0  0  0  0  0  0  0  0  0
   -1.1048   -2.5825   -0.1363 H   0  0  0  0  0  0  0  0  0  0  0  0
   -3.8990    5.1541    0.4302 Cl  0  0  0  0  0  0  0  0  0  0  0  0
  1  4  1  0  0  0  0
  1  2  1  0  0  0  0
  2  3  1  0  0  0  0
  5  4  2  0  0  0  0
  6  9  2  0  0  0  0
  6  5  1  0  0  0  0
  7  6  1  0  0  0  0
  8  7  1  0  0  0  0
  8 15  1  0  0  0  0
  9 10  1  0  0  0  0
 10 17  1  0  0  0  0
 10  1  2  0  0  0  0
 11 18  1  0  0  0  0
 12  5  1  0  0  0  0
 13  8  1  0  0  0  0
 14  8  1  0  0  0  0
 16  9  1  0  0  0  0
M  RAD  3   2   2   3   3   4   2
M  END
