Coordinates from ORCA-job 4-MeOPhN2+~Cl-_B3LYPG-6-31G_dp-CH-Scan-d09-49-n800
 OpenBabel11261919403D

 18 18  0  0  0  0  0  0  0  0999 V2000
   -1.5626    0.0174   -0.0155 C   0  0  0  0  0  0  0  0  0  0  0  0
   -2.9492   -0.1197    0.0950 N   0  0  0  0  0  0  0  0  0  0  0  0
   -3.9546    0.4679    0.2086 N   0  0  0  0  0  0  0  0  0  0  0  0
   -0.9100    1.2682   -0.0234 C   0  0  0  0  0  0  0  0  0  0  0  0
    0.4677    1.2908   -0.1367 C   0  0  0  0  0  0  0  0  0  0  0  0
    1.2076    0.0962   -0.2412 C   0  0  0  0  0  0  0  0  0  0  0  0
    2.5448    0.2488   -0.3442 O   0  0  0  0  0  0  0  0  0  0  0  0
    3.3680   -0.9096   -0.4482 C   0  0  0  0  0  0  0  0  0  0  0  0
    0.5471   -1.1449   -0.2330 C   0  0  0  0  0  0  0  0  0  0  0  0
   -0.8362   -1.1761   -0.1207 C   0  0  0  0  0  0  0  0  0  0  0  0
   -1.4633    2.1395    0.0555 H   0  0  0  0  0  0  0  0  0  0  0  0
    1.0079    2.2314   -0.1463 H   0  0  0  0  0  0  0  0  0  0  0  0
    4.3917   -0.5406   -0.5131 H   0  0  0  0  0  0  0  0  0  0  0  0
    3.1326   -1.4877   -1.3497 H   0  0  0  0  0  0  0  0  0  0  0  0
    3.2674   -1.5509    0.4355 H   0  0  0  0  0  0  0  0  0  0  0  0
    1.0977   -2.0738   -0.3127 H   0  0  0  0  0  0  0  0  0  0  0  0
   -1.3699   -2.1205   -0.1123 H   0  0  0  0  0  0  0  0  0  0  0  0
   -3.8574    2.6269    0.3071 Cl  0  0  0  0  0  0  0  0  0  0  0  0
  1  2  1  0  0  0  0
  2  3  2  0  0  0  0
  3 18  1  0  0  0  0
  4  1  1  0  0  0  0
  4 11  1  0  0  0  0
  5  4  2  0  0  0  0
  6  9  2  0  0  0  0
  6  5  1  0  0  0  0
  7  6  1  0  0  0  0
  8  7  1  0  0  0  0
  8 15  1  0  0  0  0
  9 10  1  0  0  0  0
 10 17  1  0  0  0  0
 10  1  2  0  0  0  0
 12  5  1  0  0  0  0
 13  8  1  0  0  0  0
 14  8  1  0  0  0  0
 16  9  1  0  0  0  0
M  END
