Coordinates from ORCA-job 4-MeOPhN2+~Cl-_B3LYPG-6-31G_dp-CH-Scan-d09-49-n800
 OpenBabel11261919403D

 18 17  0  0  0  0  0  0  0  0999 V2000
   -1.4883   -0.1375   -0.0230 C   0  0  0  0  0  0  0  0  0  0  0  0
   -2.8521   -0.2282    0.0891 N   0  0  0  0  0  0  0  0  0  0  0  0
   -3.9698   -0.2486    0.1829 N   0  0  0  0  0  0  0  0  0  0  0  0
   -0.9824    1.1862   -0.0159 C   0  0  0  0  0  0  0  0  0  0  0  0
    0.4130    1.1961   -0.1331 C   0  0  0  0  0  0  0  0  0  0  0  0
    1.1935    0.0323   -0.2414 C   0  0  0  0  0  0  0  0  0  0  0  0
    2.5264    0.2170   -0.3447 O   0  0  0  0  0  0  0  0  0  0  0  0
    3.3948   -0.9072   -0.4542 C   0  0  0  0  0  0  0  0  0  0  0  0
    0.5945   -1.2603   -0.2396 C   0  0  0  0  0  0  0  0  0  0  0  0
   -0.7717   -1.3592   -0.1290 C   0  0  0  0  0  0  0  0  0  0  0  0
   -2.3753    2.8813    0.1680 H   0  0  0  0  0  0  0  0  0  0  0  0
    0.9592    2.1383   -0.1434 H   0  0  0  0  0  0  0  0  0  0  0  0
    4.4029   -0.4967   -0.5170 H   0  0  0  0  0  0  0  0  0  0  0  0
    3.1856   -1.4903   -1.3589 H   0  0  0  0  0  0  0  0  0  0  0  0
    3.3232   -1.5570    0.4261 H   0  0  0  0  0  0  0  0  0  0  0  0
    1.1945   -2.1575   -0.3227 H   0  0  0  0  0  0  0  0  0  0  0  0
   -1.2710   -2.3245   -0.1235 H   0  0  0  0  0  0  0  0  0  0  0  0
   -3.3476    3.7790    0.2851 Cl  0  0  0  0  0  0  0  0  0  0  0  0
  1  4  1  0  0  0  0
  1  2  1  0  0  0  0
  2  3  1  0  0  0  0
  5  4  2  0  0  0  0
  6  9  2  0  0  0  0
  6  5  1  0  0  0  0
  7  6  1  0  0  0  0
  8  7  1  0  0  0  0
  8 15  1  0  0  0  0
  9 10  1  0  0  0  0
 10 17  1  0  0  0  0
 10  1  2  0  0  0  0
 11 18  1  0  0  0  0
 12  5  1  0  0  0  0
 13  8  1  0  0  0  0
 14  8  1  0  0  0  0
 16  9  1  0  0  0  0
M  RAD  3   2   2   3   3   4   2
M  END
