Coordinates from ORCA-job 4-MeOPhN2+~Cl-_B3LYPG-6-31G_dp-CH-Scan-d09-49-n800
 OpenBabel11261919403D

 18 17  0  0  0  0  0  0  0  0999 V2000
   -1.4115   -0.4148   -0.0517 C   0  0  0  0  0  0  0  0  0  0  0  0
   -2.7750   -0.5627    0.0537 N   0  0  0  0  0  0  0  0  0  0  0  0
   -3.8936   -0.6163    0.1417 N   0  0  0  0  0  0  0  0  0  0  0  0
   -0.9944    0.9381   -0.0481 C   0  0  0  0  0  0  0  0  0  0  0  0
    0.4073    1.0052   -0.1595 C   0  0  0  0  0  0  0  0  0  0  0  0
    1.2454   -0.1163   -0.2577 C   0  0  0  0  0  0  0  0  0  0  0  0
    2.5725    0.1330   -0.3573 O   0  0  0  0  0  0  0  0  0  0  0  0
    3.4921   -0.9480   -0.4587 C   0  0  0  0  0  0  0  0  0  0  0  0
    0.7158   -1.4406   -0.2510 C   0  0  0  0  0  0  0  0  0  0  0  0
   -0.6439   -1.6074   -0.1461 C   0  0  0  0  0  0  0  0  0  0  0  0
   -3.0950    4.2403    0.2965 H   0  0  0  0  0  0  0  0  0  0  0  0
    0.9144    1.9708   -0.1736 H   0  0  0  0  0  0  0  0  0  0  0  0
    4.4806   -0.4921   -0.5226 H   0  0  0  0  0  0  0  0  0  0  0  0
    3.3135   -1.5474   -1.3597 H   0  0  0  0  0  0  0  0  0  0  0  0
    3.4516   -1.5971    0.4248 H   0  0  0  0  0  0  0  0  0  0  0  0
    1.3624   -2.3055   -0.3259 H   0  0  0  0  0  0  0  0  0  0  0  0
   -1.0961   -2.5964   -0.1369 H   0  0  0  0  0  0  0  0  0  0  0  0
   -3.9167    5.2205    0.4368 Cl  0  0  0  0  0  0  0  0  0  0  0  0
  1  4  1  0  0  0  0
  1  2  1  0  0  0  0
  2  3  1  0  0  0  0
  5  4  2  0  0  0  0
  6  9  2  0  0  0  0
  6  5  1  0  0  0  0
  7  6  1  0  0  0  0
  8  7  1  0  0  0  0
  8 15  1  0  0  0  0
  9 10  1  0  0  0  0
 10 17  1  0  0  0  0
 10  1  2  0  0  0  0
 11 18  1  0  0  0  0
 12  5  1  0  0  0  0
 13  8  1  0  0  0  0
 14  8  1  0  0  0  0
 16  9  1  0  0  0  0
M  RAD  3   2   2   3   3   4   2
M  END
