Coordinates from ORCA-job 4-MeOPhN2+~Cl-_B3LYPG-6-31G_dp-CH-Scan-d09-49-n800
 OpenBabel11261919403D

 18 17  0  0  0  0  0  0  0  0999 V2000
   -1.5235   -0.0675   -0.0169 C   0  0  0  0  0  0  0  0  0  0  0  0
   -2.8898   -0.1262    0.0970 N   0  0  0  0  0  0  0  0  0  0  0  0
   -4.0040   -0.0756    0.1936 N   0  0  0  0  0  0  0  0  0  0  0  0
   -0.9775    1.2370   -0.0131 C   0  0  0  0  0  0  0  0  0  0  0  0
    0.4081    1.2549   -0.1290 C   0  0  0  0  0  0  0  0  0  0  0  0
    1.1741    0.0783   -0.2374 C   0  0  0  0  0  0  0  0  0  0  0  0
    2.5048    0.2491   -0.3410 O   0  0  0  0  0  0  0  0  0  0  0  0
    3.3637   -0.8846   -0.4511 C   0  0  0  0  0  0  0  0  0  0  0  0
    0.5557   -1.2025   -0.2345 C   0  0  0  0  0  0  0  0  0  0  0  0
   -0.8137   -1.2874   -0.1230 C   0  0  0  0  0  0  0  0  0  0  0  0
   -2.0272    2.4116    0.1199 H   0  0  0  0  0  0  0  0  0  0  0  0
    0.9511    2.1972   -0.1383 H   0  0  0  0  0  0  0  0  0  0  0  0
    4.3747   -0.4824   -0.5143 H   0  0  0  0  0  0  0  0  0  0  0  0
    3.1469   -1.4637   -1.3561 H   0  0  0  0  0  0  0  0  0  0  0  0
    3.2847   -1.5319    0.4299 H   0  0  0  0  0  0  0  0  0  0  0  0
    1.1433   -2.1076   -0.3177 H   0  0  0  0  0  0  0  0  0  0  0  0
   -1.3216   -2.2475   -0.1171 H   0  0  0  0  0  0  0  0  0  0  0  0
   -3.2203    3.3122    0.2539 Cl  0  0  0  0  0  0  0  0  0  0  0  0
  1  4  1  0  0  0  0
  1  2  1  0  0  0  0
  2  3  1  0  0  0  0
  5  4  2  0  0  0  0
  6  9  2  0  0  0  0
  6  5  1  0  0  0  0
  7  6  1  0  0  0  0
  8  7  1  0  0  0  0
  8 15  1  0  0  0  0
  9 10  1  0  0  0  0
 10 17  1  0  0  0  0
 10  1  2  0  0  0  0
 11 18  1  0  0  0  0
 12  5  1  0  0  0  0
 13  8  1  0  0  0  0
 14  8  1  0  0  0  0
 16  9  1  0  0  0  0
M  RAD  3   2   2   3   3   4   2
M  END
