Coordinates from ORCA-job 4-MeOPhN2+~Cl-_B3LYPG-6-31G_dp-CH-Scan-d09-49-n800
 OpenBabel11261919403D

 18 17  0  0  0  0  0  0  0  0999 V2000
   -1.5135   -0.0756   -0.0193 C   0  0  0  0  0  0  0  0  0  0  0  0
   -2.8994   -0.0872    0.0971 N   0  0  0  0  0  0  0  0  0  0  0  0
   -3.9318    0.3617    0.2018 N   0  0  0  0  0  0  0  0  0  0  0  0
   -0.9535    1.2131   -0.0162 C   0  0  0  0  0  0  0  0  0  0  0  0
    0.4276    1.2534   -0.1297 C   0  0  0  0  0  0  0  0  0  0  0  0
    1.1894    0.0714   -0.2384 C   0  0  0  0  0  0  0  0  0  0  0  0
    2.5226    0.2444   -0.3413 O   0  0  0  0  0  0  0  0  0  0  0  0
    3.3763   -0.8916   -0.4517 C   0  0  0  0  0  0  0  0  0  0  0  0
    0.5679   -1.2026   -0.2361 C   0  0  0  0  0  0  0  0  0  0  0  0
   -0.8075   -1.2852   -0.1249 C   0  0  0  0  0  0  0  0  0  0  0  0
   -2.0223    2.3080    0.1164 H   0  0  0  0  0  0  0  0  0  0  0  0
    0.9668    2.1968   -0.1378 H   0  0  0  0  0  0  0  0  0  0  0  0
    4.3894   -0.4945   -0.5146 H   0  0  0  0  0  0  0  0  0  0  0  0
    3.1571   -1.4705   -1.3566 H   0  0  0  0  0  0  0  0  0  0  0  0
    3.2943   -1.5400    0.4287 H   0  0  0  0  0  0  0  0  0  0  0  0
    1.1537   -2.1090   -0.3193 H   0  0  0  0  0  0  0  0  0  0  0  0
   -1.3177   -2.2436   -0.1195 H   0  0  0  0  0  0  0  0  0  0  0  0
   -3.4701    3.0143    0.2663 Cl  0  0  0  0  0  0  0  0  0  0  0  0
  1  4  1  0  0  0  0
  1  2  1  0  0  0  0
  2  3  1  0  0  0  0
  5  4  2  0  0  0  0
  6  9  2  0  0  0  0
  6  5  1  0  0  0  0
  7  6  1  0  0  0  0
  8  7  1  0  0  0  0
  8 15  1  0  0  0  0
  9 10  1  0  0  0  0
 10 17  1  0  0  0  0
 10  1  2  0  0  0  0
 11 18  1  0  0  0  0
 12  5  1  0  0  0  0
 13  8  1  0  0  0  0
 14  8  1  0  0  0  0
 16  9  1  0  0  0  0
M  RAD  3   2   2   3   3   4   2
M  END
