Coordinates from ORCA-job 4-MeOPhN2+~Cl-_B3LYPG-6-31G_dp-CH-Scan-d09-49-n800
 OpenBabel11261919403D

 18 17  0  0  0  0  0  0  0  0999 V2000
   -1.4843   -0.1450   -0.0240 C   0  0  0  0  0  0  0  0  0  0  0  0
   -2.8480   -0.2372    0.0880 N   0  0  0  0  0  0  0  0  0  0  0  0
   -3.9658   -0.2591    0.1817 N   0  0  0  0  0  0  0  0  0  0  0  0
   -0.9810    1.1797   -0.0170 C   0  0  0  0  0  0  0  0  0  0  0  0
    0.4149    1.1899   -0.1342 C   0  0  0  0  0  0  0  0  0  0  0  0
    1.1966    0.0270   -0.2421 C   0  0  0  0  0  0  0  0  0  0  0  0
    2.5296    0.2128   -0.3453 O   0  0  0  0  0  0  0  0  0  0  0  0
    3.3989   -0.9105   -0.4545 C   0  0  0  0  0  0  0  0  0  0  0  0
    0.5991   -1.2664   -0.2401 C   0  0  0  0  0  0  0  0  0  0  0  0
   -0.7670   -1.3665   -0.1296 C   0  0  0  0  0  0  0  0  0  0  0  0
   -2.4094    2.9294    0.1731 H   0  0  0  0  0  0  0  0  0  0  0  0
    0.9609    2.1323   -0.1447 H   0  0  0  0  0  0  0  0  0  0  0  0
    4.4066   -0.4993   -0.5173 H   0  0  0  0  0  0  0  0  0  0  0  0
    3.1903   -1.4941   -1.3590 H   0  0  0  0  0  0  0  0  0  0  0  0
    3.3278   -1.5603    0.4259 H   0  0  0  0  0  0  0  0  0  0  0  0
    1.2002   -2.1629   -0.3229 H   0  0  0  0  0  0  0  0  0  0  0  0
   -1.2654   -2.3324   -0.1239 H   0  0  0  0  0  0  0  0  0  0  0  0
   -3.3748    3.8260    0.2908 Cl  0  0  0  0  0  0  0  0  0  0  0  0
  1  4  1  0  0  0  0
  1  2  1  0  0  0  0
  2  3  1  0  0  0  0
  5  4  2  0  0  0  0
  6  9  2  0  0  0  0
  6  5  1  0  0  0  0
  7  6  1  0  0  0  0
  8  7  1  0  0  0  0
  8 15  1  0  0  0  0
  9 10  1  0  0  0  0
 10 17  1  0  0  0  0
 10  1  2  0  0  0  0
 11 18  1  0  0  0  0
 12  5  1  0  0  0  0
 13  8  1  0  0  0  0
 14  8  1  0  0  0  0
 16  9  1  0  0  0  0
M  RAD  3   2   2   3   3   4   2
M  END
