Coordinates from ORCA-job 4-MeOPhN2+~Cl-_B3LYPG-6-31G_dp-CH-Scan-d09-49-n800
 OpenBabel11261919403D

 18 17  0  0  0  0  0  0  0  0999 V2000
   -1.4648   -0.2034   -0.0298 C   0  0  0  0  0  0  0  0  0  0  0  0
   -2.8281   -0.3089    0.0809 N   0  0  0  0  0  0  0  0  0  0  0  0
   -3.9462   -0.3428    0.1734 N   0  0  0  0  0  0  0  0  0  0  0  0
   -0.9811    1.1290   -0.0230 C   0  0  0  0  0  0  0  0  0  0  0  0
    0.4173    1.1477   -0.1394 C   0  0  0  0  0  0  0  0  0  0  0  0
    1.2105   -0.0066   -0.2456 C   0  0  0  0  0  0  0  0  0  0  0  0
    2.5431    0.1918   -0.3481 O   0  0  0  0  0  0  0  0  0  0  0  0
    3.4221   -0.9233   -0.4560 C   0  0  0  0  0  0  0  0  0  0  0  0
    0.6270   -1.3070   -0.2430 C   0  0  0  0  0  0  0  0  0  0  0  0
   -0.7378   -1.4203   -0.1335 C   0  0  0  0  0  0  0  0  0  0  0  0
   -2.5971    3.2325    0.2030 H   0  0  0  0  0  0  0  0  0  0  0  0
    0.9571    2.0942   -0.1507 H   0  0  0  0  0  0  0  0  0  0  0  0
    4.4265   -0.5036   -0.5188 H   0  0  0  0  0  0  0  0  0  0  0  0
    3.2196   -1.5101   -1.3601 H   0  0  0  0  0  0  0  0  0  0  0  0
    3.3571   -1.5737    0.4246 H   0  0  0  0  0  0  0  0  0  0  0  0
    1.2375   -2.1972   -0.3245 H   0  0  0  0  0  0  0  0  0  0  0  0
   -1.2272   -2.3910   -0.1274 H   0  0  0  0  0  0  0  0  0  0  0  0
   -3.5062    4.1560    0.3230 Cl  0  0  0  0  0  0  0  0  0  0  0  0
  1  4  1  0  0  0  0
  1  2  1  0  0  0  0
  2  3  1  0  0  0  0
  5  4  2  0  0  0  0
  6  9  2  0  0  0  0
  6  5  1  0  0  0  0
  7  6  1  0  0  0  0
  8  7  1  0  0  0  0
  8 15  1  0  0  0  0
  9 10  1  0  0  0  0
 10 17  1  0  0  0  0
 10  1  2  0  0  0  0
 11 18  1  0  0  0  0
 12  5  1  0  0  0  0
 13  8  1  0  0  0  0
 14  8  1  0  0  0  0
 16  9  1  0  0  0  0
M  RAD  3   2   2   3   3   4   2
M  END
