Coordinates from ORCA-job 4-MeOPhN2+~Cl-_B3LYPG-6-31G_dp-CH-Scan-d09-49-n800
 OpenBabel11261919403D

 18 17  0  0  0  0  0  0  0  0999 V2000
   -1.4575   -0.2227   -0.0319 C   0  0  0  0  0  0  0  0  0  0  0  0
   -2.8209   -0.3313    0.0785 N   0  0  0  0  0  0  0  0  0  0  0  0
   -3.9392   -0.3665    0.1707 N   0  0  0  0  0  0  0  0  0  0  0  0
   -0.9799    1.1118   -0.0253 C   0  0  0  0  0  0  0  0  0  0  0  0
    0.4192    1.1336   -0.1414 C   0  0  0  0  0  0  0  0  0  0  0  0
    1.2159   -0.0182   -0.2469 C   0  0  0  0  0  0  0  0  0  0  0  0
    2.5483    0.1840   -0.3492 O   0  0  0  0  0  0  0  0  0  0  0  0
    3.4304   -0.9286   -0.4566 C   0  0  0  0  0  0  0  0  0  0  0  0
    0.6367   -1.3207   -0.2440 C   0  0  0  0  0  0  0  0  0  0  0  0
   -0.7277   -1.4381   -0.1349 C   0  0  0  0  0  0  0  0  0  0  0  0
   -2.6611    3.3348    0.2133 H   0  0  0  0  0  0  0  0  0  0  0  0
    0.9569    2.0814   -0.1530 H   0  0  0  0  0  0  0  0  0  0  0  0
    4.4336   -0.5062   -0.5194 H   0  0  0  0  0  0  0  0  0  0  0  0
    3.2297   -1.5164   -1.3604 H   0  0  0  0  0  0  0  0  0  0  0  0
    3.3672   -1.5789    0.4242 H   0  0  0  0  0  0  0  0  0  0  0  0
    1.2501   -2.2090   -0.3250 H   0  0  0  0  0  0  0  0  0  0  0  0
   -1.2144   -2.4103   -0.1285 H   0  0  0  0  0  0  0  0  0  0  0  0
   -3.5577    4.2647    0.3346 Cl  0  0  0  0  0  0  0  0  0  0  0  0
  1  4  1  0  0  0  0
  1  2  1  0  0  0  0
  2  3  1  0  0  0  0
  5  4  2  0  0  0  0
  6  9  2  0  0  0  0
  6  5  1  0  0  0  0
  7  6  1  0  0  0  0
  8  7  1  0  0  0  0
  8 15  1  0  0  0  0
  9 10  1  0  0  0  0
 10 17  1  0  0  0  0
 10  1  2  0  0  0  0
 11 18  1  0  0  0  0
 12  5  1  0  0  0  0
 13  8  1  0  0  0  0
 14  8  1  0  0  0  0
 16  9  1  0  0  0  0
M  RAD  3   2   2   3   3   4   2
M  END
