Coordinates from ORCA-job 4-MeOPhN2+~Cl-_B3LYPG-6-31G_dp-CH-Scan-d09-49-n800
 OpenBabel11261919403D

 18 17  0  0  0  0  0  0  0  0999 V2000
   -1.4151   -0.3882   -0.0492 C   0  0  0  0  0  0  0  0  0  0  0  0
   -2.7789   -0.5294    0.0571 N   0  0  0  0  0  0  0  0  0  0  0  0
   -3.8976   -0.5785    0.1458 N   0  0  0  0  0  0  0  0  0  0  0  0
   -0.9895    0.9623   -0.0452 C   0  0  0  0  0  0  0  0  0  0  0  0
    0.4123    1.0216   -0.1575 C   0  0  0  0  0  0  0  0  0  0  0  0
    1.2440   -0.1047   -0.2566 C   0  0  0  0  0  0  0  0  0  0  0  0
    2.5722    0.1371   -0.3566 O   0  0  0  0  0  0  0  0  0  0  0  0
    3.4858   -0.9490   -0.4586 C   0  0  0  0  0  0  0  0  0  0  0  0
    0.7066   -1.4259   -0.2503 C   0  0  0  0  0  0  0  0  0  0  0  0
   -0.6539   -1.5848   -0.1448 C   0  0  0  0  0  0  0  0  0  0  0  0
   -3.0547    4.1271    0.2873 H   0  0  0  0  0  0  0  0  0  0  0  0
    0.9246    1.9843   -0.1714 H   0  0  0  0  0  0  0  0  0  0  0  0
    4.4768   -0.4985   -0.5223 H   0  0  0  0  0  0  0  0  0  0  0  0
    3.3039   -1.5468   -1.3601 H   0  0  0  0  0  0  0  0  0  0  0  0
    3.4416   -1.5982    0.4244 H   0  0  0  0  0  0  0  0  0  0  0  0
    1.3482   -2.2945   -0.3260 H   0  0  0  0  0  0  0  0  0  0  0  0
   -1.1117   -2.5712   -0.1359 H   0  0  0  0  0  0  0  0  0  0  0  0
   -3.8851    5.1007    0.4249 Cl  0  0  0  0  0  0  0  0  0  0  0  0
  1  4  1  0  0  0  0
  1  2  1  0  0  0  0
  2  3  1  0  0  0  0
  5  4  2  0  0  0  0
  6  9  2  0  0  0  0
  6  5  1  0  0  0  0
  7  6  1  0  0  0  0
  8  7  1  0  0  0  0
  8 15  1  0  0  0  0
  9 10  1  0  0  0  0
 10 17  1  0  0  0  0
 10  1  2  0  0  0  0
 11 18  1  0  0  0  0
 12  5  1  0  0  0  0
 13  8  1  0  0  0  0
 14  8  1  0  0  0  0
 16  9  1  0  0  0  0
M  RAD  3   2   2   3   3   4   2
M  END
