Coordinates from ORCA-job 4-MeOPhN2+~Cl-_B3LYPG-6-31G_dp-CH-Scan-d09-49-n800
 OpenBabel11261919403D

 18 17  0  0  0  0  0  0  0  0999 V2000
   -1.5048   -0.1073   -0.0191 C   0  0  0  0  0  0  0  0  0  0  0  0
   -2.8690   -0.1912    0.0936 N   0  0  0  0  0  0  0  0  0  0  0  0
   -3.9861   -0.2023    0.1880 N   0  0  0  0  0  0  0  0  0  0  0  0
   -0.9867    1.2110   -0.0118 C   0  0  0  0  0  0  0  0  0  0  0  0
    0.4059    1.2212   -0.1290 C   0  0  0  0  0  0  0  0  0  0  0  0
    1.1816    0.0534   -0.2386 C   0  0  0  0  0  0  0  0  0  0  0  0
    2.5139    0.2332   -0.3421 O   0  0  0  0  0  0  0  0  0  0  0  0
    3.3789   -0.8941   -0.4531 C   0  0  0  0  0  0  0  0  0  0  0  0
    0.5762   -1.2355   -0.2375 C   0  0  0  0  0  0  0  0  0  0  0  0
   -0.7909   -1.3293   -0.1264 C   0  0  0  0  0  0  0  0  0  0  0  0
   -2.2325    2.6848    0.1469 H   0  0  0  0  0  0  0  0  0  0  0  0
    0.9522    2.1628   -0.1383 H   0  0  0  0  0  0  0  0  0  0  0  0
    4.3880   -0.4866   -0.5158 H   0  0  0  0  0  0  0  0  0  0  0  0
    3.1670   -1.4750   -1.3585 H   0  0  0  0  0  0  0  0  0  0  0  0
    3.3049   -1.5441    0.4267 H   0  0  0  0  0  0  0  0  0  0  0  0
    1.1718   -2.1354   -0.3217 H   0  0  0  0  0  0  0  0  0  0  0  0
   -1.2935   -2.2927   -0.1216 H   0  0  0  0  0  0  0  0  0  0  0  0
   -3.2477    3.5905    0.2633 Cl  0  0  0  0  0  0  0  0  0  0  0  0
  1  4  1  0  0  0  0
  1  2  1  0  0  0  0
  2  3  1  0  0  0  0
  5  4  2  0  0  0  0
  6  9  2  0  0  0  0
  6  5  1  0  0  0  0
  7  6  1  0  0  0  0
  8  7  1  0  0  0  0
  8 15  1  0  0  0  0
  9 10  1  0  0  0  0
 10 17  1  0  0  0  0
 10  1  2  0  0  0  0
 11 18  1  0  0  0  0
 12  5  1  0  0  0  0
 13  8  1  0  0  0  0
 14  8  1  0  0  0  0
 16  9  1  0  0  0  0
M  RAD  3   2   2   3   3   4   2
M  END
