Coordinates from ORCA-job 4-MeOPhN2+~Cl-_B3LYPG-6-31G_dp-CH-Scan-d09-49-n800
 OpenBabel11261919403D

 18 17  0  0  0  0  0  0  0  0999 V2000
   -1.4038   -0.5446   -0.0589 C   0  0  0  0  0  0  0  0  0  0  0  0
   -2.7638   -0.7315    0.0423 N   0  0  0  0  0  0  0  0  0  0  0  0
   -3.8810   -0.8137    0.1271 N   0  0  0  0  0  0  0  0  0  0  0  0
   -1.0303    0.8202   -0.0503 C   0  0  0  0  0  0  0  0  0  0  0  0
    0.3696    0.9307   -0.1578 C   0  0  0  0  0  0  0  0  0  0  0  0
    1.2418   -0.1642   -0.2583 C   0  0  0  0  0  0  0  0  0  0  0  0
    2.5612    0.1258   -0.3556 O   0  0  0  0  0  0  0  0  0  0  0  0
    3.5128   -0.9266   -0.4597 C   0  0  0  0  0  0  0  0  0  0  0  0
    0.7531   -1.5043   -0.2561 C   0  0  0  0  0  0  0  0  0  0  0  0
   -0.6010   -1.7133   -0.1545 C   0  0  0  0  0  0  0  0  0  0  0  0
   -3.2267    4.7291    0.3265 H   0  0  0  0  0  0  0  0  0  0  0  0
    0.8471    1.9115   -0.1678 H   0  0  0  0  0  0  0  0  0  0  0  0
    4.4872   -0.4411   -0.5238 H   0  0  0  0  0  0  0  0  0  0  0  0
    3.3517   -1.5297   -1.3616 H   0  0  0  0  0  0  0  0  0  0  0  0
    3.4931   -1.5782    0.4226 H   0  0  0  0  0  0  0  0  0  0  0  0
    1.4263   -2.3486   -0.3321 H   0  0  0  0  0  0  0  0  0  0  0  0
   -1.0226   -2.7159   -0.1485 H   0  0  0  0  0  0  0  0  0  0  0  0
   -3.9853    5.7577    0.4715 Cl  0  0  0  0  0  0  0  0  0  0  0  0
  1  4  1  0  0  0  0
  1  2  1  0  0  0  0
  2  3  1  0  0  0  0
  5  4  2  0  0  0  0
  6  9  2  0  0  0  0
  6  5  1  0  0  0  0
  7  6  1  0  0  0  0
  8  7  1  0  0  0  0
  8 15  1  0  0  0  0
  9 10  1  0  0  0  0
 10 17  1  0  0  0  0
 10  1  2  0  0  0  0
 11 18  1  0  0  0  0
 12  5  1  0  0  0  0
 13  8  1  0  0  0  0
 14  8  1  0  0  0  0
 16  9  1  0  0  0  0
M  RAD  3   2   2   3   3   4   2
M  END
