Coordinates from ORCA-job 4-MeOPhN2+~Cl-_B3LYPG-6-31G_dp-CH-Scan-d09-49-n800
 OpenBabel11261919403D

 18 18  0  0  0  0  0  0  0  0999 V2000
   -1.5659    0.0197   -0.0145 C   0  0  0  0  0  0  0  0  0  0  0  0
   -2.9526   -0.1201    0.0962 N   0  0  0  0  0  0  0  0  0  0  0  0
   -3.9552    0.4741    0.2091 N   0  0  0  0  0  0  0  0  0  0  0  0
   -0.9147    1.2719   -0.0220 C   0  0  0  0  0  0  0  0  0  0  0  0
    0.4635    1.2925   -0.1357 C   0  0  0  0  0  0  0  0  0  0  0  0
    1.2044    0.0989   -0.2408 C   0  0  0  0  0  0  0  0  0  0  0  0
    2.5415    0.2525   -0.3440 O   0  0  0  0  0  0  0  0  0  0  0  0
    3.3652   -0.9055   -0.4481 C   0  0  0  0  0  0  0  0  0  0  0  0
    0.5443   -1.1421   -0.2328 C   0  0  0  0  0  0  0  0  0  0  0  0
   -0.8391   -1.1732   -0.1202 C   0  0  0  0  0  0  0  0  0  0  0  0
   -1.4288    2.0912    0.0523 H   0  0  0  0  0  0  0  0  0  0  0  0
    1.0030    2.2336   -0.1449 H   0  0  0  0  0  0  0  0  0  0  0  0
    4.3887   -0.5361   -0.5131 H   0  0  0  0  0  0  0  0  0  0  0  0
    3.1299   -1.4836   -1.3496 H   0  0  0  0  0  0  0  0  0  0  0  0
    3.2649   -1.5469    0.4355 H   0  0  0  0  0  0  0  0  0  0  0  0
    1.0949   -2.0710   -0.3129 H   0  0  0  0  0  0  0  0  0  0  0  0
   -1.3727   -2.1176   -0.1118 H   0  0  0  0  0  0  0  0  0  0  0  0
   -3.8418    2.6248    0.3023 Cl  0  0  0  0  0  0  0  0  0  0  0  0
  1  2  1  0  0  0  0
  2  3  2  0  0  0  0
  3 18  1  0  0  0  0
  4  1  1  0  0  0  0
  4 11  1  0  0  0  0
  5  4  2  0  0  0  0
  6  9  2  0  0  0  0
  6  5  1  0  0  0  0
  7  6  1  0  0  0  0
  8  7  1  0  0  0  0
  8 15  1  0  0  0  0
  9 10  1  0  0  0  0
 10 17  1  0  0  0  0
 10  1  2  0  0  0  0
 12  5  1  0  0  0  0
 13  8  1  0  0  0  0
 14  8  1  0  0  0  0
 16  9  1  0  0  0  0
M  END
