Coordinates from ORCA-job 4-MeOPhN2+~Cl-_B3LYPG-6-31G_dp-CH-Scan-d09-49-n800
 OpenBabel11261919403D

 18 17  0  0  0  0  0  0  0  0999 V2000
   -1.4532   -0.2340   -0.0332 C   0  0  0  0  0  0  0  0  0  0  0  0
   -2.8167   -0.3445    0.0769 N   0  0  0  0  0  0  0  0  0  0  0  0
   -3.9350   -0.3803    0.1689 N   0  0  0  0  0  0  0  0  0  0  0  0
   -0.9791    1.1016   -0.0268 C   0  0  0  0  0  0  0  0  0  0  0  0
    0.4204    1.1252   -0.1427 C   0  0  0  0  0  0  0  0  0  0  0  0
    1.2191   -0.0251   -0.2477 C   0  0  0  0  0  0  0  0  0  0  0  0
    2.5515    0.1794   -0.3499 O   0  0  0  0  0  0  0  0  0  0  0  0
    3.4352   -0.9318   -0.4569 C   0  0  0  0  0  0  0  0  0  0  0  0
    0.6424   -1.3288   -0.2445 C   0  0  0  0  0  0  0  0  0  0  0  0
   -0.7218   -1.4486   -0.1356 C   0  0  0  0  0  0  0  0  0  0  0  0
   -2.6987    3.3955    0.2196 H   0  0  0  0  0  0  0  0  0  0  0  0
    0.9569    2.0738   -0.1546 H   0  0  0  0  0  0  0  0  0  0  0  0
    4.4378   -0.5078   -0.5198 H   0  0  0  0  0  0  0  0  0  0  0  0
    3.2357   -1.5202   -1.3605 H   0  0  0  0  0  0  0  0  0  0  0  0
    3.3731   -1.5820    0.4241 H   0  0  0  0  0  0  0  0  0  0  0  0
    1.2576   -2.2160   -0.3251 H   0  0  0  0  0  0  0  0  0  0  0  0
   -1.2069   -2.4216   -0.1290 H   0  0  0  0  0  0  0  0  0  0  0  0
   -3.5890    4.3287    0.3418 Cl  0  0  0  0  0  0  0  0  0  0  0  0
  1  4  1  0  0  0  0
  1  2  1  0  0  0  0
  2  3  1  0  0  0  0
  5  4  2  0  0  0  0
  6  9  2  0  0  0  0
  6  5  1  0  0  0  0
  7  6  1  0  0  0  0
  8  7  1  0  0  0  0
  8 15  1  0  0  0  0
  9 10  1  0  0  0  0
 10 17  1  0  0  0  0
 10  1  2  0  0  0  0
 11 18  1  0  0  0  0
 12  5  1  0  0  0  0
 13  8  1  0  0  0  0
 14  8  1  0  0  0  0
 16  9  1  0  0  0  0
M  RAD  3   2   2   3   3   4   2
M  END
