Coordinates from ORCA-job 4-MeOPhN2+~Cl-_B3LYPG-6-31G_dp-CH-Scan-d09-49-n800
 OpenBabel11261919403D

 18 18  0  0  0  0  0  0  0  0999 V2000
   -1.5649    0.0191   -0.0149 C   0  0  0  0  0  0  0  0  0  0  0  0
   -2.9515   -0.1200    0.0957 N   0  0  0  0  0  0  0  0  0  0  0  0
   -3.9551    0.4721    0.2089 N   0  0  0  0  0  0  0  0  0  0  0  0
   -0.9132    1.2709   -0.0225 C   0  0  0  0  0  0  0  0  0  0  0  0
    0.4648    1.2920   -0.1361 C   0  0  0  0  0  0  0  0  0  0  0  0
    1.2054    0.0981   -0.2409 C   0  0  0  0  0  0  0  0  0  0  0  0
    2.5426    0.2513   -0.3441 O   0  0  0  0  0  0  0  0  0  0  0  0
    3.3661   -0.9068   -0.4481 C   0  0  0  0  0  0  0  0  0  0  0  0
    0.5452   -1.1429   -0.2329 C   0  0  0  0  0  0  0  0  0  0  0  0
   -0.8382   -1.1740   -0.1204 C   0  0  0  0  0  0  0  0  0  0  0  0
   -1.4392    2.1063    0.0531 H   0  0  0  0  0  0  0  0  0  0  0  0
    1.0046    2.2329   -0.1454 H   0  0  0  0  0  0  0  0  0  0  0  0
    4.3896   -0.5375   -0.5130 H   0  0  0  0  0  0  0  0  0  0  0  0
    3.1307   -1.4850   -1.3496 H   0  0  0  0  0  0  0  0  0  0  0  0
    3.2657   -1.5482    0.4356 H   0  0  0  0  0  0  0  0  0  0  0  0
    1.0957   -2.0718   -0.3128 H   0  0  0  0  0  0  0  0  0  0  0  0
   -1.3719   -2.1184   -0.1120 H   0  0  0  0  0  0  0  0  0  0  0  0
   -3.8469    2.6252    0.3042 Cl  0  0  0  0  0  0  0  0  0  0  0  0
  1  2  1  0  0  0  0
  2  3  2  0  0  0  0
  3 18  1  0  0  0  0
  4  1  1  0  0  0  0
  4 11  1  0  0  0  0
  5  4  2  0  0  0  0
  6  9  2  0  0  0  0
  6  5  1  0  0  0  0
  7  6  1  0  0  0  0
  8  7  1  0  0  0  0
  8 15  1  0  0  0  0
  9 10  1  0  0  0  0
 10 17  1  0  0  0  0
 10  1  2  0  0  0  0
 12  5  1  0  0  0  0
 13  8  1  0  0  0  0
 14  8  1  0  0  0  0
 16  9  1  0  0  0  0
M  END
