Coordinates from ORCA-job 4-MeOPhN2+~Cl-_B3LYPG-6-31G_dp-CH-Scan-d09-49-n800
 OpenBabel11261919403D

 18 17  0  0  0  0  0  0  0  0999 V2000
   -1.4069   -0.4503   -0.0549 C   0  0  0  0  0  0  0  0  0  0  0  0
   -2.7698   -0.6075    0.0493 N   0  0  0  0  0  0  0  0  0  0  0  0
   -3.8882   -0.6673    0.1363 N   0  0  0  0  0  0  0  0  0  0  0  0
   -1.0010    0.9057   -0.0516 C   0  0  0  0  0  0  0  0  0  0  0  0
    0.4006    0.9833   -0.1619 C   0  0  0  0  0  0  0  0  0  0  0  0
    1.2473   -0.1317   -0.2590 C   0  0  0  0  0  0  0  0  0  0  0  0
    2.5726    0.1276   -0.3581 O   0  0  0  0  0  0  0  0  0  0  0  0
    3.5002   -0.9465   -0.4588 C   0  0  0  0  0  0  0  0  0  0  0  0
    0.7278   -1.4601   -0.2519 C   0  0  0  0  0  0  0  0  0  0  0  0
   -0.6306   -1.6373   -0.1479 C   0  0  0  0  0  0  0  0  0  0  0  0
   -3.1475    4.3910    0.3084 H   0  0  0  0  0  0  0  0  0  0  0  0
    0.9004    1.9528   -0.1761 H   0  0  0  0  0  0  0  0  0  0  0  0
    4.4854   -0.4833   -0.5231 H   0  0  0  0  0  0  0  0  0  0  0  0
    3.3262   -1.5479   -1.3593 H   0  0  0  0  0  0  0  0  0  0  0  0
    3.4648   -1.5952    0.4252 H   0  0  0  0  0  0  0  0  0  0  0  0
    1.3812   -2.3200   -0.3258 H   0  0  0  0  0  0  0  0  0  0  0  0
   -1.0753   -2.6297   -0.1383 H   0  0  0  0  0  0  0  0  0  0  0  0
   -3.9577    5.3799    0.4525 Cl  0  0  0  0  0  0  0  0  0  0  0  0
  1  4  1  0  0  0  0
  1  2  1  0  0  0  0
  2  3  1  0  0  0  0
  5  4  2  0  0  0  0
  6  9  2  0  0  0  0
  6  5  1  0  0  0  0
  7  6  1  0  0  0  0
  8  7  1  0  0  0  0
  8 15  1  0  0  0  0
  9 10  1  0  0  0  0
 10 17  1  0  0  0  0
 10  1  2  0  0  0  0
 11 18  1  0  0  0  0
 12  5  1  0  0  0  0
 13  8  1  0  0  0  0
 14  8  1  0  0  0  0
 16  9  1  0  0  0  0
M  RAD  3   2   2   3   3   4   2
M  END
