Coordinates from ORCA-job 4-MeOPhN2+~Cl-_B3LYPG-6-31G_dp-CH-Scan-d09-49-n800
 OpenBabel11261919403D

 18 17  0  0  0  0  0  0  0  0999 V2000
   -1.5087   -0.0989   -0.0183 C   0  0  0  0  0  0  0  0  0  0  0  0
   -2.8732   -0.1799    0.0945 N   0  0  0  0  0  0  0  0  0  0  0  0
   -3.9901   -0.1863    0.1891 N   0  0  0  0  0  0  0  0  0  0  0  0
   -0.9864    1.2174   -0.0114 C   0  0  0  0  0  0  0  0  0  0  0  0
    0.4052    1.2280   -0.1285 C   0  0  0  0  0  0  0  0  0  0  0  0
    1.1792    0.0588   -0.2381 C   0  0  0  0  0  0  0  0  0  0  0  0
    2.5113    0.2369   -0.3416 O   0  0  0  0  0  0  0  0  0  0  0  0
    3.3751   -0.8915   -0.4528 C   0  0  0  0  0  0  0  0  0  0  0  0
    0.5716   -1.2288   -0.2369 C   0  0  0  0  0  0  0  0  0  0  0  0
   -0.7958   -1.3209   -0.1257 C   0  0  0  0  0  0  0  0  0  0  0  0
   -2.1943    2.6318    0.1416 H   0  0  0  0  0  0  0  0  0  0  0  0
    0.9514    2.1696   -0.1377 H   0  0  0  0  0  0  0  0  0  0  0  0
    4.3846   -0.4850   -0.5155 H   0  0  0  0  0  0  0  0  0  0  0  0
    3.1623   -1.4719   -1.3582 H   0  0  0  0  0  0  0  0  0  0  0  0
    3.3003   -1.5413    0.4271 H   0  0  0  0  0  0  0  0  0  0  0  0
    1.1658   -2.1296   -0.3211 H   0  0  0  0  0  0  0  0  0  0  0  0
   -1.2995   -2.2836   -0.1208 H   0  0  0  0  0  0  0  0  0  0  0  0
   -3.2295    3.5383    0.2592 Cl  0  0  0  0  0  0  0  0  0  0  0  0
  1  4  1  0  0  0  0
  1  2  1  0  0  0  0
  2  3  1  0  0  0  0
  5  4  2  0  0  0  0
  6  9  2  0  0  0  0
  6  5  1  0  0  0  0
  7  6  1  0  0  0  0
  8  7  1  0  0  0  0
  8 15  1  0  0  0  0
  9 10  1  0  0  0  0
 10 17  1  0  0  0  0
 10  1  2  0  0  0  0
 11 18  1  0  0  0  0
 12  5  1  0  0  0  0
 13  8  1  0  0  0  0
 14  8  1  0  0  0  0
 16  9  1  0  0  0  0
M  RAD  3   2   2   3   3   4   2
M  END
