Coordinates from ORCA-job 4-MeOPhN2+~Cl-_B3LYPG-6-31G_dp-CH-Scan-d09-49-n800
 OpenBabel11261919403D

 18 17  0  0  0  0  0  0  0  0999 V2000
   -1.4356   -0.3059   -0.0414 C   0  0  0  0  0  0  0  0  0  0  0  0
   -2.7996   -0.4302    0.0669 N   0  0  0  0  0  0  0  0  0  0  0  0
   -3.9182   -0.4710    0.1575 N   0  0  0  0  0  0  0  0  0  0  0  0
   -0.9851    1.0371   -0.0368 C   0  0  0  0  0  0  0  0  0  0  0  0
    0.4159    1.0775   -0.1509 C   0  0  0  0  0  0  0  0  0  0  0  0
    1.2303   -0.0616   -0.2523 C   0  0  0  0  0  0  0  0  0  0  0  0
    2.5610    0.1603   -0.3533 O   0  0  0  0  0  0  0  0  0  0  0  0
    3.4589   -0.9392   -0.4572 C   0  0  0  0  0  0  0  0  0  0  0  0
    0.6723   -1.3738   -0.2470 C   0  0  0  0  0  0  0  0  0  0  0  0
   -0.6903   -1.5123   -0.1398 C   0  0  0  0  0  0  0  0  0  0  0  0
   -2.8687    3.7288    0.2520 H   0  0  0  0  0  0  0  0  0  0  0  0
    0.9413    2.0328   -0.1643 H   0  0  0  0  0  0  0  0  0  0  0  0
    4.4562   -0.5028   -0.5204 H   0  0  0  0  0  0  0  0  0  0  0  0
    3.2678   -1.5326   -1.3595 H   0  0  0  0  0  0  0  0  0  0  0  0
    3.4050   -1.5887    0.4251 H   0  0  0  0  0  0  0  0  0  0  0  0
    1.3002   -2.2522   -0.3247 H   0  0  0  0  0  0  0  0  0  0  0  0
   -1.1624   -2.4918   -0.1317 H   0  0  0  0  0  0  0  0  0  0  0  0
   -3.7196    4.6888    0.3828 Cl  0  0  0  0  0  0  0  0  0  0  0  0
  1  4  1  0  0  0  0
  1  2  1  0  0  0  0
  2  3  1  0  0  0  0
  5  4  2  0  0  0  0
  6  9  2  0  0  0  0
  6  5  1  0  0  0  0
  7  6  1  0  0  0  0
  8  7  1  0  0  0  0
  8 15  1  0  0  0  0
  9 10  1  0  0  0  0
 10 17  1  0  0  0  0
 10  1  2  0  0  0  0
 11 18  1  0  0  0  0
 12  5  1  0  0  0  0
 13  8  1  0  0  0  0
 14  8  1  0  0  0  0
 16  9  1  0  0  0  0
M  RAD  3   2   2   3   3   4   2
M  END
