Coordinates from ORCA-job 4-MeOPhN2+~Cl-_B3LYPG-6-31G_dp-CH-Scan-d09-49-n800
 OpenBabel11261919403D

 18 18  0  0  0  0  0  0  0  0999 V2000
   -1.5623    0.0172   -0.0155 C   0  0  0  0  0  0  0  0  0  0  0  0
   -2.9489   -0.1196    0.0950 N   0  0  0  0  0  0  0  0  0  0  0  0
   -3.9545    0.4675    0.2086 N   0  0  0  0  0  0  0  0  0  0  0  0
   -0.9096    1.2679   -0.0234 C   0  0  0  0  0  0  0  0  0  0  0  0
    0.4680    1.2906   -0.1367 C   0  0  0  0  0  0  0  0  0  0  0  0
    1.2079    0.0960   -0.2412 C   0  0  0  0  0  0  0  0  0  0  0  0
    2.5450    0.2485   -0.3442 O   0  0  0  0  0  0  0  0  0  0  0  0
    3.3682   -0.9099   -0.4482 C   0  0  0  0  0  0  0  0  0  0  0  0
    0.5473   -1.1451   -0.2330 C   0  0  0  0  0  0  0  0  0  0  0  0
   -0.8360   -1.1764   -0.1207 C   0  0  0  0  0  0  0  0  0  0  0  0
   -1.4660    2.1431    0.0558 H   0  0  0  0  0  0  0  0  0  0  0  0
    1.0082    2.2312   -0.1463 H   0  0  0  0  0  0  0  0  0  0  0  0
    4.3919   -0.5409   -0.5131 H   0  0  0  0  0  0  0  0  0  0  0  0
    3.1328   -1.4879   -1.3497 H   0  0  0  0  0  0  0  0  0  0  0  0
    3.2676   -1.5512    0.4355 H   0  0  0  0  0  0  0  0  0  0  0  0
    1.0979   -2.0740   -0.3127 H   0  0  0  0  0  0  0  0  0  0  0  0
   -1.3697   -2.1208   -0.1123 H   0  0  0  0  0  0  0  0  0  0  0  0
   -3.8585    2.6272    0.3072 Cl  0  0  0  0  0  0  0  0  0  0  0  0
  1  2  1  0  0  0  0
  2  3  2  0  0  0  0
  3 18  1  0  0  0  0
  4  1  1  0  0  0  0
  4 11  1  0  0  0  0
  5  4  2  0  0  0  0
  6  9  2  0  0  0  0
  6  5  1  0  0  0  0
  7  6  1  0  0  0  0
  8  7  1  0  0  0  0
  8 15  1  0  0  0  0
  9 10  1  0  0  0  0
 10 17  1  0  0  0  0
 10  1  2  0  0  0  0
 12  5  1  0  0  0  0
 13  8  1  0  0  0  0
 14  8  1  0  0  0  0
 16  9  1  0  0  0  0
M  END
