Coordinates from ORCA-job 4-MeOPhN2+~Cl-_B3LYPG-6-31G_dp-CH-Scan-d09-49-n800
 OpenBabel11261919403D

 18 17  0  0  0  0  0  0  0  0999 V2000
   -1.4976   -0.1215   -0.0208 C   0  0  0  0  0  0  0  0  0  0  0  0
   -2.8616   -0.2093    0.0916 N   0  0  0  0  0  0  0  0  0  0  0  0
   -3.9790   -0.2259    0.1857 N   0  0  0  0  0  0  0  0  0  0  0  0
   -0.9858    1.1996   -0.0134 C   0  0  0  0  0  0  0  0  0  0  0  0
    0.4082    1.2096   -0.1307 C   0  0  0  0  0  0  0  0  0  0  0  0
    1.1864    0.0439   -0.2398 C   0  0  0  0  0  0  0  0  0  0  0  0
    2.5190    0.2262   -0.3432 O   0  0  0  0  0  0  0  0  0  0  0  0
    3.3858   -0.8994   -0.4536 C   0  0  0  0  0  0  0  0  0  0  0  0
    0.5843   -1.2469   -0.2385 C   0  0  0  0  0  0  0  0  0  0  0  0
   -0.7823   -1.3433   -0.1276 C   0  0  0  0  0  0  0  0  0  0  0  0
   -2.2971    2.7747    0.1564 H   0  0  0  0  0  0  0  0  0  0  0  0
    0.9545    2.1515   -0.1404 H   0  0  0  0  0  0  0  0  0  0  0  0
    4.3943   -0.4903   -0.5163 H   0  0  0  0  0  0  0  0  0  0  0  0
    3.1753   -1.4813   -1.3587 H   0  0  0  0  0  0  0  0  0  0  0  0
    3.3131   -1.5494    0.4264 H   0  0  0  0  0  0  0  0  0  0  0  0
    1.1822   -2.1454   -0.3223 H   0  0  0  0  0  0  0  0  0  0  0  0
   -1.2832   -2.3077   -0.1226 H   0  0  0  0  0  0  0  0  0  0  0  0
   -3.2872    3.6781    0.2725 Cl  0  0  0  0  0  0  0  0  0  0  0  0
  1  4  1  0  0  0  0
  1  2  1  0  0  0  0
  2  3  1  0  0  0  0
  5  4  2  0  0  0  0
  6  9  2  0  0  0  0
  6  5  1  0  0  0  0
  7  6  1  0  0  0  0
  8  7  1  0  0  0  0
  8 15  1  0  0  0  0
  9 10  1  0  0  0  0
 10 17  1  0  0  0  0
 10  1  2  0  0  0  0
 11 18  1  0  0  0  0
 12  5  1  0  0  0  0
 13  8  1  0  0  0  0
 14  8  1  0  0  0  0
 16  9  1  0  0  0  0
M  RAD  3   2   2   3   3   4   2
M  END
