Coordinates from ORCA-job 4-MeOPhN2+~Cl-_B3LYPG-6-31G_dp-CH-Scan-d09-49-n800
 OpenBabel11261919403D

 18 17  0  0  0  0  0  0  0  0999 V2000
   -1.4684   -0.1918   -0.0286 C   0  0  0  0  0  0  0  0  0  0  0  0
   -2.8317   -0.2950    0.0823 N   0  0  0  0  0  0  0  0  0  0  0  0
   -3.9498   -0.3273    0.1750 N   0  0  0  0  0  0  0  0  0  0  0  0
   -0.9809    1.1392   -0.0218 C   0  0  0  0  0  0  0  0  0  0  0  0
    0.4171    1.1559   -0.1383 C   0  0  0  0  0  0  0  0  0  0  0  0
    1.2080   -0.0001   -0.2449 C   0  0  0  0  0  0  0  0  0  0  0  0
    2.5407    0.1957   -0.3476 O   0  0  0  0  0  0  0  0  0  0  0  0
    3.4177   -0.9211   -0.4558 C   0  0  0  0  0  0  0  0  0  0  0  0
    0.6217   -1.2992   -0.2425 C   0  0  0  0  0  0  0  0  0  0  0  0
   -0.7434   -1.4097   -0.1328 C   0  0  0  0  0  0  0  0  0  0  0  0
   -2.5624    3.1748    0.1973 H   0  0  0  0  0  0  0  0  0  0  0  0
    0.9584    2.1015   -0.1495 H   0  0  0  0  0  0  0  0  0  0  0  0
    4.4228   -0.5032   -0.5186 H   0  0  0  0  0  0  0  0  0  0  0  0
    3.2140   -1.5072   -1.3599 H   0  0  0  0  0  0  0  0  0  0  0  0
    3.3515   -1.5714    0.4248 H   0  0  0  0  0  0  0  0  0  0  0  0
    1.2303   -2.1907   -0.3243 H   0  0  0  0  0  0  0  0  0  0  0  0
   -1.2347   -2.3795   -0.1268 H   0  0  0  0  0  0  0  0  0  0  0  0
   -3.4816    4.0923    0.3167 Cl  0  0  0  0  0  0  0  0  0  0  0  0
  1  4  1  0  0  0  0
  1  2  1  0  0  0  0
  2  3  1  0  0  0  0
  5  4  2  0  0  0  0
  6  9  2  0  0  0  0
  6  5  1  0  0  0  0
  7  6  1  0  0  0  0
  8  7  1  0  0  0  0
  8 15  1  0  0  0  0
  9 10  1  0  0  0  0
 10 17  1  0  0  0  0
 10  1  2  0  0  0  0
 11 18  1  0  0  0  0
 12  5  1  0  0  0  0
 13  8  1  0  0  0  0
 14  8  1  0  0  0  0
 16  9  1  0  0  0  0
M  RAD  3   2   2   3   3   4   2
M  END
