Coordinates from ORCA-job 4-MeOPhN2+~Cl-_B3LYPG-6-31G_dp-CH-Scan-d09-49-n800
 OpenBabel11261919403D

 18 17  0  0  0  0  0  0  0  0999 V2000
   -1.4164   -0.3795   -0.0484 C   0  0  0  0  0  0  0  0  0  0  0  0
   -2.7803   -0.5185    0.0582 N   0  0  0  0  0  0  0  0  0  0  0  0
   -3.8990   -0.5663    0.1472 N   0  0  0  0  0  0  0  0  0  0  0  0
   -0.9880    0.9702   -0.0443 C   0  0  0  0  0  0  0  0  0  0  0  0
    0.4138    1.0270   -0.1568 C   0  0  0  0  0  0  0  0  0  0  0  0
    1.2434   -0.1008   -0.2562 C   0  0  0  0  0  0  0  0  0  0  0  0
    2.5720    0.1386   -0.3564 O   0  0  0  0  0  0  0  0  0  0  0  0
    3.4836   -0.9492   -0.4586 C   0  0  0  0  0  0  0  0  0  0  0  0
    0.7036   -1.4209   -0.2501 C   0  0  0  0  0  0  0  0  0  0  0  0
   -0.6572   -1.5774   -0.1444 C   0  0  0  0  0  0  0  0  0  0  0  0
   -3.0410    4.0894    0.2842 H   0  0  0  0  0  0  0  0  0  0  0  0
    0.9278    1.9888   -0.1706 H   0  0  0  0  0  0  0  0  0  0  0  0
    4.4754   -0.5005   -0.5222 H   0  0  0  0  0  0  0  0  0  0  0  0
    3.3006   -1.5465   -1.3602 H   0  0  0  0  0  0  0  0  0  0  0  0
    3.4382   -1.5985    0.4243 H   0  0  0  0  0  0  0  0  0  0  0  0
    1.3435   -2.2907   -0.3261 H   0  0  0  0  0  0  0  0  0  0  0  0
   -1.1168   -2.5629   -0.1356 H   0  0  0  0  0  0  0  0  0  0  0  0
   -3.8740    5.0610    0.4209 Cl  0  0  0  0  0  0  0  0  0  0  0  0
  1  4  1  0  0  0  0
  1  2  1  0  0  0  0
  2  3  1  0  0  0  0
  5  4  2  0  0  0  0
  6  9  2  0  0  0  0
  6  5  1  0  0  0  0
  7  6  1  0  0  0  0
  8  7  1  0  0  0  0
  8 15  1  0  0  0  0
  9 10  1  0  0  0  0
 10 17  1  0  0  0  0
 10  1  2  0  0  0  0
 11 18  1  0  0  0  0
 12  5  1  0  0  0  0
 13  8  1  0  0  0  0
 14  8  1  0  0  0  0
 16  9  1  0  0  0  0
M  RAD  3   2   2   3   3   4   2
M  END
