Coordinates from ORCA-job 4-MeOPhN2+~Cl-_B3LYPG-6-31G_dp-CH-Scan-d09-49-n800
 OpenBabel11261919403D

 18 17  0  0  0  0  0  0  0  0999 V2000
   -1.4057   -0.4616   -0.0558 C   0  0  0  0  0  0  0  0  0  0  0  0
   -2.7684   -0.6219    0.0480 N   0  0  0  0  0  0  0  0  0  0  0  0
   -3.8866   -0.6838    0.1347 N   0  0  0  0  0  0  0  0  0  0  0  0
   -1.0034    0.8955   -0.0525 C   0  0  0  0  0  0  0  0  0  0  0  0
    0.3981    0.9765   -0.1624 C   0  0  0  0  0  0  0  0  0  0  0  0
    1.2476   -0.1364   -0.2594 C   0  0  0  0  0  0  0  0  0  0  0  0
    2.5724    0.1262   -0.3582 O   0  0  0  0  0  0  0  0  0  0  0  0
    3.5026   -0.9456   -0.4588 C   0  0  0  0  0  0  0  0  0  0  0  0
    0.7315   -1.4661   -0.2522 C   0  0  0  0  0  0  0  0  0  0  0  0
   -0.6266   -1.6467   -0.1485 C   0  0  0  0  0  0  0  0  0  0  0  0
   -3.1626    4.4373    0.3119 H   0  0  0  0  0  0  0  0  0  0  0  0
    0.8955    1.9472   -0.1765 H   0  0  0  0  0  0  0  0  0  0  0  0
    4.4866   -0.4801   -0.5232 H   0  0  0  0  0  0  0  0  0  0  0  0
    3.3300   -1.5476   -1.3593 H   0  0  0  0  0  0  0  0  0  0  0  0
    3.4688   -1.5943    0.4252 H   0  0  0  0  0  0  0  0  0  0  0  0
    1.3870   -2.3244   -0.3259 H   0  0  0  0  0  0  0  0  0  0  0  0
   -1.0687   -2.6402   -0.1389 H   0  0  0  0  0  0  0  0  0  0  0  0
   -3.9687    5.4293    0.4569 Cl  0  0  0  0  0  0  0  0  0  0  0  0
  1  4  1  0  0  0  0
  1  2  1  0  0  0  0
  2  3  1  0  0  0  0
  5  4  2  0  0  0  0
  6  9  2  0  0  0  0
  6  5  1  0  0  0  0
  7  6  1  0  0  0  0
  8  7  1  0  0  0  0
  8 15  1  0  0  0  0
  9 10  1  0  0  0  0
 10 17  1  0  0  0  0
 10  1  2  0  0  0  0
 11 18  1  0  0  0  0
 12  5  1  0  0  0  0
 13  8  1  0  0  0  0
 14  8  1  0  0  0  0
 16  9  1  0  0  0  0
M  RAD  3   2   2   3   3   4   2
M  END
