Coordinates from ORCA-job 4-MeOPhN2+~Cl-_B3LYPG-6-31G_dp-CH-Scan-d09-49-n800
 OpenBabel11261919403D

 18 17  0  0  0  0  0  0  0  0999 V2000
   -1.5433   -0.0160   -0.0151 C   0  0  0  0  0  0  0  0  0  0  0  0
   -2.9316   -0.1097    0.0975 N   0  0  0  0  0  0  0  0  0  0  0  0
   -3.9335    0.4668    0.2052 N   0  0  0  0  0  0  0  0  0  0  0  0
   -0.9001    1.2331   -0.0208 C   0  0  0  0  0  0  0  0  0  0  0  0
    0.4732    1.2778   -0.1333 C   0  0  0  0  0  0  0  0  0  0  0  0
    1.2147    0.0819   -0.2402 C   0  0  0  0  0  0  0  0  0  0  0  0
    2.5508    0.2371   -0.3442 O   0  0  0  0  0  0  0  0  0  0  0  0
    3.3797   -0.9172   -0.4525 C   0  0  0  0  0  0  0  0  0  0  0  0
    0.5612   -1.1661   -0.2339 C   0  0  0  0  0  0  0  0  0  0  0  0
   -0.8211   -1.2123   -0.1211 C   0  0  0  0  0  0  0  0  0  0  0  0
   -1.7021    2.3018    0.0883 H   0  0  0  0  0  0  0  0  0  0  0  0
    1.0111    2.2195   -0.1417 H   0  0  0  0  0  0  0  0  0  0  0  0
    4.4012   -0.5425   -0.5180 H   0  0  0  0  0  0  0  0  0  0  0  0
    3.1458   -1.4938   -1.3552 H   0  0  0  0  0  0  0  0  0  0  0  0
    3.2839   -1.5610    0.4298 H   0  0  0  0  0  0  0  0  0  0  0  0
    1.1206   -2.0894   -0.3153 H   0  0  0  0  0  0  0  0  0  0  0  0
   -1.3477   -2.1611   -0.1139 H   0  0  0  0  0  0  0  0  0  0  0  0
   -3.8334    2.7143    0.2894 Cl  0  0  0  0  0  0  0  0  0  0  0  0
  1  2  1  0  0  0  0
  2  3  2  0  0  0  0
  4  1  1  0  0  0  0
  4 11  1  0  0  0  0
  5  4  2  0  0  0  0
  6  9  2  0  0  0  0
  6  5  1  0  0  0  0
  7  6  1  0  0  0  0
  8  7  1  0  0  0  0
  8 15  1  0  0  0  0
  9 10  1  0  0  0  0
 10 17  1  0  0  0  0
 10  1  2  0  0  0  0
 12  5  1  0  0  0  0
 13  8  1  0  0  0  0
 14  8  1  0  0  0  0
 16  9  1  0  0  0  0
M  RAD  2   3   2  18   2
M  END
