Coordinates from ORCA-job 4-MeOPhN2+~Cl-_B3LYPG-6-31G_dp-CH-Scan-d09-49-n800
 OpenBabel11261919403D

 18 17  0  0  0  0  0  0  0  0999 V2000
   -1.4508   -0.2372   -0.0323 C   0  0  0  0  0  0  0  0  0  0  0  0
   -2.8144   -0.3473    0.0788 N   0  0  0  0  0  0  0  0  0  0  0  0
   -3.9328   -0.3819    0.1716 N   0  0  0  0  0  0  0  0  0  0  0  0
   -0.9773    1.0985   -0.0242 C   0  0  0  0  0  0  0  0  0  0  0  0
    0.4222    1.1224   -0.1406 C   0  0  0  0  0  0  0  0  0  0  0  0
    1.2211   -0.0277   -0.2471 C   0  0  0  0  0  0  0  0  0  0  0  0
    2.5535    0.1770   -0.3491 O   0  0  0  0  0  0  0  0  0  0  0  0
    3.4373   -0.9339   -0.4577 C   0  0  0  0  0  0  0  0  0  0  0  0
    0.6446   -1.3315   -0.2457 C   0  0  0  0  0  0  0  0  0  0  0  0
   -0.7196   -1.4517   -0.1366 C   0  0  0  0  0  0  0  0  0  0  0  0
   -2.7152    3.4167    0.2191 H   0  0  0  0  0  0  0  0  0  0  0  0
    0.9588    2.0710   -0.1514 H   0  0  0  0  0  0  0  0  0  0  0  0
    4.4399   -0.5099   -0.5201 H   0  0  0  0  0  0  0  0  0  0  0  0
    3.2377   -1.5212   -1.3621 H   0  0  0  0  0  0  0  0  0  0  0  0
    3.3753   -1.5854    0.4224 H   0  0  0  0  0  0  0  0  0  0  0  0
    1.2599   -2.2184   -0.3278 H   0  0  0  0  0  0  0  0  0  0  0  0
   -1.2046   -2.4247   -0.1315 H   0  0  0  0  0  0  0  0  0  0  0  0
   -3.6062    4.3486    0.3391 Cl  0  0  0  0  0  0  0  0  0  0  0  0
  1  4  1  0  0  0  0
  1  2  1  0  0  0  0
  2  3  1  0  0  0  0
  5  4  2  0  0  0  0
  6  9  2  0  0  0  0
  6  5  1  0  0  0  0
  7  6  1  0  0  0  0
  8  7  1  0  0  0  0
  8 15  1  0  0  0  0
  9 10  1  0  0  0  0
 10 17  1  0  0  0  0
 10  1  2  0  0  0  0
 11 18  1  0  0  0  0
 12  5  1  0  0  0  0
 13  8  1  0  0  0  0
 14  8  1  0  0  0  0
 16  9  1  0  0  0  0
M  RAD  3   2   2   3   3   4   2
M  END
