Coordinates from ORCA-job 4-MeOPhN2+~Cl-_B3LYPG-6-31G_dp-CH-Scan-d09-49-n800
 OpenBabel11261919403D

 18 17  0  0  0  0  0  0  0  0999 V2000
   -1.4335   -0.3128   -0.0418 C   0  0  0  0  0  0  0  0  0  0  0  0
   -2.7974   -0.4389    0.0664 N   0  0  0  0  0  0  0  0  0  0  0  0
   -3.9160   -0.4812    0.1565 N   0  0  0  0  0  0  0  0  0  0  0  0
   -0.9849    1.0306   -0.0371 C   0  0  0  0  0  0  0  0  0  0  0  0
    0.4158    1.0724   -0.1511 C   0  0  0  0  0  0  0  0  0  0  0  0
    1.2317   -0.0655   -0.2525 C   0  0  0  0  0  0  0  0  0  0  0  0
    2.5622    0.1581   -0.3535 O   0  0  0  0  0  0  0  0  0  0  0  0
    3.4613   -0.9402   -0.4575 C   0  0  0  0  0  0  0  0  0  0  0  0
    0.6754   -1.3786   -0.2474 C   0  0  0  0  0  0  0  0  0  0  0  0
   -0.6871   -1.5186   -0.1403 C   0  0  0  0  0  0  0  0  0  0  0  0
   -2.8876    3.7638    0.2550 H   0  0  0  0  0  0  0  0  0  0  0  0
    0.9401    2.0283   -0.1643 H   0  0  0  0  0  0  0  0  0  0  0  0
    4.4581   -0.5027   -0.5207 H   0  0  0  0  0  0  0  0  0  0  0  0
    3.2710   -1.5339   -1.3599 H   0  0  0  0  0  0  0  0  0  0  0  0
    3.4083   -1.5899    0.4247 H   0  0  0  0  0  0  0  0  0  0  0  0
    1.3044   -2.2562   -0.3251 H   0  0  0  0  0  0  0  0  0  0  0  0
   -1.1582   -2.4986   -0.1322 H   0  0  0  0  0  0  0  0  0  0  0  0
   -3.7343    4.7271    0.3858 Cl  0  0  0  0  0  0  0  0  0  0  0  0
  1  4  1  0  0  0  0
  1  2  1  0  0  0  0
  2  3  1  0  0  0  0
  5  4  2  0  0  0  0
  6  9  2  0  0  0  0
  6  5  1  0  0  0  0
  7  6  1  0  0  0  0
  8  7  1  0  0  0  0
  8 15  1  0  0  0  0
  9 10  1  0  0  0  0
 10 17  1  0  0  0  0
 10  1  2  0  0  0  0
 11 18  1  0  0  0  0
 12  5  1  0  0  0  0
 13  8  1  0  0  0  0
 14  8  1  0  0  0  0
 16  9  1  0  0  0  0
M  RAD  3   2   2   3   3   4   2
M  END
