Coordinates from ORCA-job 4-MeOPhN2+~Cl-_B3LYPG-6-31G_dp-CH-Scan-d09-49-n800
 OpenBabel11261919403D

 18 17  0  0  0  0  0  0  0  0999 V2000
   -1.4064   -0.4544   -0.0553 C   0  0  0  0  0  0  0  0  0  0  0  0
   -2.7693   -0.6127    0.0488 N   0  0  0  0  0  0  0  0  0  0  0  0
   -3.8876   -0.6732    0.1357 N   0  0  0  0  0  0  0  0  0  0  0  0
   -1.0018    0.9020   -0.0520 C   0  0  0  0  0  0  0  0  0  0  0  0
    0.3997    0.9809   -0.1621 C   0  0  0  0  0  0  0  0  0  0  0  0
    1.2474   -0.1334   -0.2592 C   0  0  0  0  0  0  0  0  0  0  0  0
    2.5726    0.1271   -0.3581 O   0  0  0  0  0  0  0  0  0  0  0  0
    3.5011   -0.9462   -0.4588 C   0  0  0  0  0  0  0  0  0  0  0  0
    0.7292   -1.4623   -0.2520 C   0  0  0  0  0  0  0  0  0  0  0  0
   -0.6292   -1.6407   -0.1481 C   0  0  0  0  0  0  0  0  0  0  0  0
   -3.1530    4.4078    0.3097 H   0  0  0  0  0  0  0  0  0  0  0  0
    0.8987    1.9508   -0.1763 H   0  0  0  0  0  0  0  0  0  0  0  0
    4.4858   -0.4822   -0.5231 H   0  0  0  0  0  0  0  0  0  0  0  0
    3.3275   -1.5478   -1.3593 H   0  0  0  0  0  0  0  0  0  0  0  0
    3.4662   -1.5949    0.4252 H   0  0  0  0  0  0  0  0  0  0  0  0
    1.3833   -2.3216   -0.3258 H   0  0  0  0  0  0  0  0  0  0  0  0
   -1.0729   -2.6335   -0.1385 H   0  0  0  0  0  0  0  0  0  0  0  0
   -3.9618    5.3978    0.4541 Cl  0  0  0  0  0  0  0  0  0  0  0  0
  1  4  1  0  0  0  0
  1  2  1  0  0  0  0
  2  3  1  0  0  0  0
  5  4  2  0  0  0  0
  6  9  2  0  0  0  0
  6  5  1  0  0  0  0
  7  6  1  0  0  0  0
  8  7  1  0  0  0  0
  8 15  1  0  0  0  0
  9 10  1  0  0  0  0
 10 17  1  0  0  0  0
 10  1  2  0  0  0  0
 11 18  1  0  0  0  0
 12  5  1  0  0  0  0
 13  8  1  0  0  0  0
 14  8  1  0  0  0  0
 16  9  1  0  0  0  0
M  RAD  3   2   2   3   3   4   2
M  END
