Coordinates from ORCA-job 4-MeOPhN2+~Cl-_B3LYPG-6-31G_dp-CH-Scan-d09-49-n800
 OpenBabel11261919403D

 18 17  0  0  0  0  0  0  0  0999 V2000
   -1.4039   -0.5144   -0.0584 C   0  0  0  0  0  0  0  0  0  0  0  0
   -2.7649   -0.6913    0.0437 N   0  0  0  0  0  0  0  0  0  0  0  0
   -3.8826   -0.7657    0.1291 N   0  0  0  0  0  0  0  0  0  0  0  0
   -1.0197    0.8476   -0.0526 C   0  0  0  0  0  0  0  0  0  0  0  0
    0.3809    0.9469   -0.1609 C   0  0  0  0  0  0  0  0  0  0  0  0
    1.2447   -0.1548   -0.2592 C   0  0  0  0  0  0  0  0  0  0  0  0
    2.5662    0.1250   -0.3571 O   0  0  0  0  0  0  0  0  0  0  0  0
    3.5099   -0.9348   -0.4592 C   0  0  0  0  0  0  0  0  0  0  0  0
    0.7458   -1.4911   -0.2544 C   0  0  0  0  0  0  0  0  0  0  0  0
   -0.6099   -1.6894   -0.1520 C   0  0  0  0  0  0  0  0  0  0  0  0
   -3.2069    4.6289    0.3226 H   0  0  0  0  0  0  0  0  0  0  0  0
    0.8659    1.9240   -0.1730 H   0  0  0  0  0  0  0  0  0  0  0  0
    4.4879   -0.4568   -0.5236 H   0  0  0  0  0  0  0  0  0  0  0  0
    3.3446   -1.5381   -1.3602 H   0  0  0  0  0  0  0  0  0  0  0  0
    3.4849   -1.5848    0.4242 H   0  0  0  0  0  0  0  0  0  0  0  0
    1.4124   -2.3408   -0.3288 H   0  0  0  0  0  0  0  0  0  0  0  0
   -1.0392   -2.6886   -0.1440 H   0  0  0  0  0  0  0  0  0  0  0  0
   -3.9867    5.6414    0.4688 Cl  0  0  0  0  0  0  0  0  0  0  0  0
  1  4  1  0  0  0  0
  1  2  1  0  0  0  0
  2  3  1  0  0  0  0
  5  4  2  0  0  0  0
  6  9  2  0  0  0  0
  6  5  1  0  0  0  0
  7  6  1  0  0  0  0
  8  7  1  0  0  0  0
  8 15  1  0  0  0  0
  9 10  1  0  0  0  0
 10 17  1  0  0  0  0
 10  1  2  0  0  0  0
 11 18  1  0  0  0  0
 12  5  1  0  0  0  0
 13  8  1  0  0  0  0
 14  8  1  0  0  0  0
 16  9  1  0  0  0  0
M  RAD  3   2   2   3   3   4   2
M  END
