Coordinates from ORCA-job 4-MeOPhN2+~Cl-_B3LYPG-6-31G_dp-CH-Scan-d09-49-n800
 OpenBabel11261919403D

 18 17  0  0  0  0  0  0  0  0999 V2000
   -1.4543   -0.2312   -0.0328 C   0  0  0  0  0  0  0  0  0  0  0  0
   -2.8178   -0.3411    0.0773 N   0  0  0  0  0  0  0  0  0  0  0  0
   -3.9361   -0.3769    0.1694 N   0  0  0  0  0  0  0  0  0  0  0  0
   -0.9793    1.1041   -0.0264 C   0  0  0  0  0  0  0  0  0  0  0  0
    0.4201    1.1273   -0.1424 C   0  0  0  0  0  0  0  0  0  0  0  0
    1.2183   -0.0234   -0.2475 C   0  0  0  0  0  0  0  0  0  0  0  0
    2.5507    0.1805   -0.3498 O   0  0  0  0  0  0  0  0  0  0  0  0
    3.4340   -0.9310   -0.4568 C   0  0  0  0  0  0  0  0  0  0  0  0
    0.6410   -1.3268   -0.2444 C   0  0  0  0  0  0  0  0  0  0  0  0
   -0.7233   -1.4460   -0.1354 C   0  0  0  0  0  0  0  0  0  0  0  0
   -2.6894    3.3803    0.2180 H   0  0  0  0  0  0  0  0  0  0  0  0
    0.9569    2.0757   -0.1541 H   0  0  0  0  0  0  0  0  0  0  0  0
    4.4368   -0.5075   -0.5197 H   0  0  0  0  0  0  0  0  0  0  0  0
    3.2342   -1.5193   -1.3605 H   0  0  0  0  0  0  0  0  0  0  0  0
    3.3716   -1.5813    0.4241 H   0  0  0  0  0  0  0  0  0  0  0  0
    1.2557   -2.2142   -0.3251 H   0  0  0  0  0  0  0  0  0  0  0  0
   -1.2088   -2.4188   -0.1289 H   0  0  0  0  0  0  0  0  0  0  0  0
   -3.5812    4.3127    0.3400 Cl  0  0  0  0  0  0  0  0  0  0  0  0
  1  4  1  0  0  0  0
  1  2  1  0  0  0  0
  2  3  1  0  0  0  0
  5  4  2  0  0  0  0
  6  9  2  0  0  0  0
  6  5  1  0  0  0  0
  7  6  1  0  0  0  0
  8  7  1  0  0  0  0
  8 15  1  0  0  0  0
  9 10  1  0  0  0  0
 10 17  1  0  0  0  0
 10  1  2  0  0  0  0
 11 18  1  0  0  0  0
 12  5  1  0  0  0  0
 13  8  1  0  0  0  0
 14  8  1  0  0  0  0
 16  9  1  0  0  0  0
M  RAD  3   2   2   3   3   4   2
M  END
