Coordinates from ORCA-job 4-MeOPhN2+~Cl-_B3LYPG-6-31G_dp-CH-Scan-d09-49-n800
 OpenBabel11261919403D

 18 17  0  0  0  0  0  0  0  0999 V2000
   -1.4695   -0.1878   -0.0282 C   0  0  0  0  0  0  0  0  0  0  0  0
   -2.8329   -0.2901    0.0828 N   0  0  0  0  0  0  0  0  0  0  0  0
   -3.9509   -0.3218    0.1756 N   0  0  0  0  0  0  0  0  0  0  0  0
   -0.9807    1.1427   -0.0213 C   0  0  0  0  0  0  0  0  0  0  0  0
    0.4172    1.1587   -0.1380 C   0  0  0  0  0  0  0  0  0  0  0  0
    1.2072    0.0021   -0.2447 C   0  0  0  0  0  0  0  0  0  0  0  0
    2.5400    0.1969   -0.3474 O   0  0  0  0  0  0  0  0  0  0  0  0
    3.4163   -0.9205   -0.4557 C   0  0  0  0  0  0  0  0  0  0  0  0
    0.6199   -1.2965   -0.2423 C   0  0  0  0  0  0  0  0  0  0  0  0
   -0.7452   -1.4061   -0.1325 C   0  0  0  0  0  0  0  0  0  0  0  0
   -2.5510    3.1555    0.1954 H   0  0  0  0  0  0  0  0  0  0  0  0
    0.9589    2.1040   -0.1491 H   0  0  0  0  0  0  0  0  0  0  0  0
    4.4216   -0.5032   -0.5185 H   0  0  0  0  0  0  0  0  0  0  0  0
    3.2121   -1.5064   -1.3599 H   0  0  0  0  0  0  0  0  0  0  0  0
    3.3496   -1.5707    0.4249 H   0  0  0  0  0  0  0  0  0  0  0  0
    1.2278   -2.1885   -0.3242 H   0  0  0  0  0  0  0  0  0  0  0  0
   -1.2372   -2.3755   -0.1266 H   0  0  0  0  0  0  0  0  0  0  0  0
   -3.4740    4.0706    0.3146 Cl  0  0  0  0  0  0  0  0  0  0  0  0
  1  4  1  0  0  0  0
  1  2  1  0  0  0  0
  2  3  1  0  0  0  0
  5  4  2  0  0  0  0
  6  9  2  0  0  0  0
  6  5  1  0  0  0  0
  7  6  1  0  0  0  0
  8  7  1  0  0  0  0
  8 15  1  0  0  0  0
  9 10  1  0  0  0  0
 10 17  1  0  0  0  0
 10  1  2  0  0  0  0
 11 18  1  0  0  0  0
 12  5  1  0  0  0  0
 13  8  1  0  0  0  0
 14  8  1  0  0  0  0
 16  9  1  0  0  0  0
M  RAD  3   2   2   3   3   4   2
M  END
