Coordinates from ORCA-job 4-MeOPhN2+~Cl-_B3LYPG-6-31G_dp-CH-Scan-d09-49-n800
 OpenBabel11261919403D

 18 17  0  0  0  0  0  0  0  0999 V2000
   -1.4708   -0.1830   -0.0278 C   0  0  0  0  0  0  0  0  0  0  0  0
   -2.8342   -0.2841    0.0834 N   0  0  0  0  0  0  0  0  0  0  0  0
   -3.9522   -0.3148    0.1763 N   0  0  0  0  0  0  0  0  0  0  0  0
   -0.9804    1.1469   -0.0209 C   0  0  0  0  0  0  0  0  0  0  0  0
    0.4173    1.1620   -0.1376 C   0  0  0  0  0  0  0  0  0  0  0  0
    1.2063    0.0047   -0.2444 C   0  0  0  0  0  0  0  0  0  0  0  0
    2.5392    0.1984   -0.3472 O   0  0  0  0  0  0  0  0  0  0  0  0
    3.4146   -0.9198   -0.4556 C   0  0  0  0  0  0  0  0  0  0  0  0
    0.6178   -1.2933   -0.2421 C   0  0  0  0  0  0  0  0  0  0  0  0
   -0.7474   -1.4018   -0.1322 C   0  0  0  0  0  0  0  0  0  0  0  0
   -2.5374    3.1321    0.1931 H   0  0  0  0  0  0  0  0  0  0  0  0
    0.9597    2.1069   -0.1486 H   0  0  0  0  0  0  0  0  0  0  0  0
    4.4202   -0.5032   -0.5184 H   0  0  0  0  0  0  0  0  0  0  0  0
    3.2099   -1.5054   -1.3598 H   0  0  0  0  0  0  0  0  0  0  0  0
    3.3473   -1.5699    0.4250 H   0  0  0  0  0  0  0  0  0  0  0  0
    1.2249   -2.1859   -0.3241 H   0  0  0  0  0  0  0  0  0  0  0  0
   -1.2402   -2.3707   -0.1263 H   0  0  0  0  0  0  0  0  0  0  0  0
   -3.4652    4.0442    0.3122 Cl  0  0  0  0  0  0  0  0  0  0  0  0
  1  4  1  0  0  0  0
  1  2  1  0  0  0  0
  2  3  1  0  0  0  0
  5  4  2  0  0  0  0
  6  9  2  0  0  0  0
  6  5  1  0  0  0  0
  7  6  1  0  0  0  0
  8  7  1  0  0  0  0
  8 15  1  0  0  0  0
  9 10  1  0  0  0  0
 10 17  1  0  0  0  0
 10  1  2  0  0  0  0
 11 18  1  0  0  0  0
 12  5  1  0  0  0  0
 13  8  1  0  0  0  0
 14  8  1  0  0  0  0
 16  9  1  0  0  0  0
M  RAD  3   2   2   3   3   4   2
M  END
