Coordinates from ORCA-job 4-MeOPhN2+~Cl-_B3LYPG-6-31G_dp-CH-Scan-d09-49-n800
 OpenBabel11261919403D

 18 17  0  0  0  0  0  0  0  0999 V2000
   -1.5104   -0.0952   -0.0180 C   0  0  0  0  0  0  0  0  0  0  0  0
   -2.8750   -0.1748    0.0948 N   0  0  0  0  0  0  0  0  0  0  0  0
   -3.9918   -0.1787    0.1895 N   0  0  0  0  0  0  0  0  0  0  0  0
   -0.9861    1.2202   -0.0113 C   0  0  0  0  0  0  0  0  0  0  0  0
    0.4051    1.2310   -0.1283 C   0  0  0  0  0  0  0  0  0  0  0  0
    1.1783    0.0611   -0.2379 C   0  0  0  0  0  0  0  0  0  0  0  0
    2.5103    0.2385   -0.3415 O   0  0  0  0  0  0  0  0  0  0  0  0
    3.3736   -0.8905   -0.4526 C   0  0  0  0  0  0  0  0  0  0  0  0
    0.5696   -1.2259   -0.2366 C   0  0  0  0  0  0  0  0  0  0  0  0
   -0.7979   -1.3172   -0.1254 C   0  0  0  0  0  0  0  0  0  0  0  0
   -2.1778    2.6090    0.1394 H   0  0  0  0  0  0  0  0  0  0  0  0
    0.9512    2.1725   -0.1375 H   0  0  0  0  0  0  0  0  0  0  0  0
    4.3832   -0.4845   -0.5154 H   0  0  0  0  0  0  0  0  0  0  0  0
    3.1603   -1.4707   -1.3581 H   0  0  0  0  0  0  0  0  0  0  0  0
    3.2984   -1.5401    0.4273 H   0  0  0  0  0  0  0  0  0  0  0  0
    1.1632   -2.1272   -0.3208 H   0  0  0  0  0  0  0  0  0  0  0  0
   -1.3020   -2.2797   -0.1205 H   0  0  0  0  0  0  0  0  0  0  0  0
   -3.2231    3.5155    0.2578 Cl  0  0  0  0  0  0  0  0  0  0  0  0
  1  4  1  0  0  0  0
  1  2  1  0  0  0  0
  2  3  1  0  0  0  0
  5  4  2  0  0  0  0
  6  9  2  0  0  0  0
  6  5  1  0  0  0  0
  7  6  1  0  0  0  0
  8  7  1  0  0  0  0
  8 15  1  0  0  0  0
  9 10  1  0  0  0  0
 10 17  1  0  0  0  0
 10  1  2  0  0  0  0
 11 18  1  0  0  0  0
 12  5  1  0  0  0  0
 13  8  1  0  0  0  0
 14  8  1  0  0  0  0
 16  9  1  0  0  0  0
M  RAD  3   2   2   3   3   4   2
M  END
