Coordinates from ORCA-job 4-MeOPhN2+~Cl-_B3LYPG-6-31G_dp-CH-Scan-d09-49-n800
 OpenBabel11261919403D

 18 17  0  0  0  0  0  0  0  0999 V2000
   -1.5330   -0.0416   -0.0166 C   0  0  0  0  0  0  0  0  0  0  0  0
   -2.9232   -0.1013    0.0977 N   0  0  0  0  0  0  0  0  0  0  0  0
   -3.9167    0.4730    0.2041 N   0  0  0  0  0  0  0  0  0  0  0  0
   -0.9140    1.2174   -0.0197 C   0  0  0  0  0  0  0  0  0  0  0  0
    0.4597    1.2694   -0.1321 C   0  0  0  0  0  0  0  0  0  0  0  0
    1.2078    0.0770   -0.2397 C   0  0  0  0  0  0  0  0  0  0  0  0
    2.5430    0.2390   -0.3434 O   0  0  0  0  0  0  0  0  0  0  0  0
    3.3804   -0.9091   -0.4525 C   0  0  0  0  0  0  0  0  0  0  0  0
    0.5654   -1.1795   -0.2348 C   0  0  0  0  0  0  0  0  0  0  0  0
   -0.8155   -1.2404   -0.1225 C   0  0  0  0  0  0  0  0  0  0  0  0
   -1.8347    2.2993    0.1004 H   0  0  0  0  0  0  0  0  0  0  0  0
    0.9960    2.2125   -0.1400 H   0  0  0  0  0  0  0  0  0  0  0  0
    4.3991   -0.5268   -0.5173 H   0  0  0  0  0  0  0  0  0  0  0  0
    3.1513   -1.4866   -1.3560 H   0  0  0  0  0  0  0  0  0  0  0  0
    3.2893   -1.5546    0.4290 H   0  0  0  0  0  0  0  0  0  0  0  0
    1.1348   -2.0965   -0.3169 H   0  0  0  0  0  0  0  0  0  0  0  0
   -1.3350   -2.1933   -0.1161 H   0  0  0  0  0  0  0  0  0  0  0  0
   -3.7252    2.8055    0.2814 Cl  0  0  0  0  0  0  0  0  0  0  0  0
  1  2  1  0  0  0  0
  2  3  2  0  0  0  0
  4  1  1  0  0  0  0
  4 11  1  0  0  0  0
  5  4  2  0  0  0  0
  6  9  2  0  0  0  0
  6  5  1  0  0  0  0
  7  6  1  0  0  0  0
  8  7  1  0  0  0  0
  8 15  1  0  0  0  0
  9 10  1  0  0  0  0
 10 17  1  0  0  0  0
 10  1  2  0  0  0  0
 12  5  1  0  0  0  0
 13  8  1  0  0  0  0
 14  8  1  0  0  0  0
 16  9  1  0  0  0  0
M  RAD  2   3   2  18   2
M  END
