Coordinates from ORCA-job 4-MeOPhN2+~Cl-_B3LYPG-6-31G_dp-CH-Scan-d09-49-n800
 OpenBabel11261919403D

 18 17  0  0  0  0  0  0  0  0999 V2000
   -1.4368   -0.2953   -0.0410 C   0  0  0  0  0  0  0  0  0  0  0  0
   -2.8010   -0.4165    0.0675 N   0  0  0  0  0  0  0  0  0  0  0  0
   -3.9196   -0.4558    0.1581 N   0  0  0  0  0  0  0  0  0  0  0  0
   -0.9825    1.0463   -0.0370 C   0  0  0  0  0  0  0  0  0  0  0  0
    0.4181    1.0840   -0.1513 C   0  0  0  0  0  0  0  0  0  0  0  0
    1.2300   -0.0571   -0.2523 C   0  0  0  0  0  0  0  0  0  0  0  0
    2.5610    0.1617   -0.3535 O   0  0  0  0  0  0  0  0  0  0  0  0
    3.4565   -0.9399   -0.4569 C   0  0  0  0  0  0  0  0  0  0  0  0
    0.6688   -1.3680   -0.2464 C   0  0  0  0  0  0  0  0  0  0  0  0
   -0.6941   -1.5034   -0.1390 C   0  0  0  0  0  0  0  0  0  0  0  0
   -2.8517    3.6870    0.2491 H   0  0  0  0  0  0  0  0  0  0  0  0
    0.9456    2.0381   -0.1651 H   0  0  0  0  0  0  0  0  0  0  0  0
    4.4547   -0.5057   -0.5203 H   0  0  0  0  0  0  0  0  0  0  0  0
    3.2641   -1.5332   -1.3591 H   0  0  0  0  0  0  0  0  0  0  0  0
    3.4011   -1.5888    0.4256 H   0  0  0  0  0  0  0  0  0  0  0  0
    1.2947   -2.2479   -0.3238 H   0  0  0  0  0  0  0  0  0  0  0  0
   -1.1684   -2.4818   -0.1304 H   0  0  0  0  0  0  0  0  0  0  0  0
   -3.7113    4.6398    0.3806 Cl  0  0  0  0  0  0  0  0  0  0  0  0
  1  4  1  0  0  0  0
  1  2  1  0  0  0  0
  2  3  1  0  0  0  0
  5  4  2  0  0  0  0
  6  9  2  0  0  0  0
  6  5  1  0  0  0  0
  7  6  1  0  0  0  0
  8  7  1  0  0  0  0
  8 15  1  0  0  0  0
  9 10  1  0  0  0  0
 10 17  1  0  0  0  0
 10  1  2  0  0  0  0
 11 18  1  0  0  0  0
 12  5  1  0  0  0  0
 13  8  1  0  0  0  0
 14  8  1  0  0  0  0
 16  9  1  0  0  0  0
M  RAD  3   2   2   3   3   4   2
M  END
