Coordinates from ORCA-job 4-MeOPhN2+~Cl-_B3LYPG-6-31G_dp-CH-Scan-d09-49-n800
 OpenBabel11261919403D

 18 17  0  0  0  0  0  0  0  0999 V2000
   -1.4732   -0.1742   -0.0270 C   0  0  0  0  0  0  0  0  0  0  0  0
   -2.8367   -0.2731    0.0844 N   0  0  0  0  0  0  0  0  0  0  0  0
   -3.9547   -0.3016    0.1775 N   0  0  0  0  0  0  0  0  0  0  0  0
   -0.9798    1.1546   -0.0200 C   0  0  0  0  0  0  0  0  0  0  0  0
    0.4176    1.1681   -0.1369 C   0  0  0  0  0  0  0  0  0  0  0  0
    1.2047    0.0094   -0.2440 C   0  0  0  0  0  0  0  0  0  0  0  0
    2.5377    0.2011   -0.3469 O   0  0  0  0  0  0  0  0  0  0  0  0
    3.4115   -0.9184   -0.4554 C   0  0  0  0  0  0  0  0  0  0  0  0
    0.6140   -1.2875   -0.2417 C   0  0  0  0  0  0  0  0  0  0  0  0
   -0.7515   -1.3938   -0.1317 C   0  0  0  0  0  0  0  0  0  0  0  0
   -2.5124    3.0892    0.1890 H   0  0  0  0  0  0  0  0  0  0  0  0
    0.9611    2.1123   -0.1478 H   0  0  0  0  0  0  0  0  0  0  0  0
    4.4177   -0.5034   -0.5182 H   0  0  0  0  0  0  0  0  0  0  0  0
    3.2058   -1.5036   -1.3597 H   0  0  0  0  0  0  0  0  0  0  0  0
    3.3432   -1.5686    0.4251 H   0  0  0  0  0  0  0  0  0  0  0  0
    1.2195   -2.1810   -0.3239 H   0  0  0  0  0  0  0  0  0  0  0  0
   -1.2457   -2.3619   -0.1258 H   0  0  0  0  0  0  0  0  0  0  0  0
   -3.4493    3.9956    0.3077 Cl  0  0  0  0  0  0  0  0  0  0  0  0
  1  4  1  0  0  0  0
  1  2  1  0  0  0  0
  2  3  1  0  0  0  0
  5  4  2  0  0  0  0
  6  9  2  0  0  0  0
  6  5  1  0  0  0  0
  7  6  1  0  0  0  0
  8  7  1  0  0  0  0
  8 15  1  0  0  0  0
  9 10  1  0  0  0  0
 10 17  1  0  0  0  0
 10  1  2  0  0  0  0
 11 18  1  0  0  0  0
 12  5  1  0  0  0  0
 13  8  1  0  0  0  0
 14  8  1  0  0  0  0
 16  9  1  0  0  0  0
M  RAD  3   2   2   3   3   4   2
M  END
