Coordinates from ORCA-job 4-MeOPhN2+~Cl-_B3LYPG-6-31G_dp-CH-Scan-d09-49-n800
 OpenBabel11261919403D

 18 17  0  0  0  0  0  0  0  0999 V2000
   -1.4578   -0.2220   -0.0318 C   0  0  0  0  0  0  0  0  0  0  0  0
   -2.8212   -0.3305    0.0786 N   0  0  0  0  0  0  0  0  0  0  0  0
   -3.9395   -0.3656    0.1708 N   0  0  0  0  0  0  0  0  0  0  0  0
   -0.9800    1.1124   -0.0252 C   0  0  0  0  0  0  0  0  0  0  0  0
    0.4191    1.1341   -0.1413 C   0  0  0  0  0  0  0  0  0  0  0  0
    1.2157   -0.0178   -0.2468 C   0  0  0  0  0  0  0  0  0  0  0  0
    2.5481    0.1843   -0.3492 O   0  0  0  0  0  0  0  0  0  0  0  0
    3.4301   -0.9284   -0.4566 C   0  0  0  0  0  0  0  0  0  0  0  0
    0.6363   -1.3202   -0.2439 C   0  0  0  0  0  0  0  0  0  0  0  0
   -0.7281   -1.4375   -0.1348 C   0  0  0  0  0  0  0  0  0  0  0  0
   -2.6588    3.3310    0.2129 H   0  0  0  0  0  0  0  0  0  0  0  0
    0.9569    2.0819   -0.1529 H   0  0  0  0  0  0  0  0  0  0  0  0
    4.4333   -0.5061   -0.5194 H   0  0  0  0  0  0  0  0  0  0  0  0
    3.2294   -1.5161   -1.3604 H   0  0  0  0  0  0  0  0  0  0  0  0
    3.3668   -1.5787    0.4242 H   0  0  0  0  0  0  0  0  0  0  0  0
    1.2497   -2.2086   -0.3250 H   0  0  0  0  0  0  0  0  0  0  0  0
   -1.2149   -2.4096   -0.1284 H   0  0  0  0  0  0  0  0  0  0  0  0
   -3.5557    4.2607    0.3342 Cl  0  0  0  0  0  0  0  0  0  0  0  0
  1  4  1  0  0  0  0
  1  2  1  0  0  0  0
  2  3  1  0  0  0  0
  5  4  2  0  0  0  0
  6  9  2  0  0  0  0
  6  5  1  0  0  0  0
  7  6  1  0  0  0  0
  8  7  1  0  0  0  0
  8 15  1  0  0  0  0
  9 10  1  0  0  0  0
 10 17  1  0  0  0  0
 10  1  2  0  0  0  0
 11 18  1  0  0  0  0
 12  5  1  0  0  0  0
 13  8  1  0  0  0  0
 14  8  1  0  0  0  0
 16  9  1  0  0  0  0
M  RAD  3   2   2   3   3   4   2
M  END
