Coordinates from ORCA-job 4-MeOPhN2+~Cl-_B3LYPG-6-31G_dp-CH-Scan-d09-49-n800
 OpenBabel11261919403D

 18 17  0  0  0  0  0  0  0  0999 V2000
   -1.4877   -0.1386   -0.0232 C   0  0  0  0  0  0  0  0  0  0  0  0
   -2.8515   -0.2296    0.0890 N   0  0  0  0  0  0  0  0  0  0  0  0
   -3.9692   -0.2502    0.1827 N   0  0  0  0  0  0  0  0  0  0  0  0
   -0.9821    1.1852   -0.0161 C   0  0  0  0  0  0  0  0  0  0  0  0
    0.4133    1.1952   -0.1333 C   0  0  0  0  0  0  0  0  0  0  0  0
    1.1940    0.0315   -0.2415 C   0  0  0  0  0  0  0  0  0  0  0  0
    2.5269    0.2163   -0.3448 O   0  0  0  0  0  0  0  0  0  0  0  0
    3.3955   -0.9077   -0.4542 C   0  0  0  0  0  0  0  0  0  0  0  0
    0.5952   -1.2612   -0.2397 C   0  0  0  0  0  0  0  0  0  0  0  0
   -0.7710   -1.3603   -0.1291 C   0  0  0  0  0  0  0  0  0  0  0  0
   -2.3806    2.8887    0.1688 H   0  0  0  0  0  0  0  0  0  0  0  0
    0.9595    2.1374   -0.1436 H   0  0  0  0  0  0  0  0  0  0  0  0
    4.4034   -0.4971   -0.5171 H   0  0  0  0  0  0  0  0  0  0  0  0
    3.1863   -1.4909   -1.3589 H   0  0  0  0  0  0  0  0  0  0  0  0
    3.3239   -1.5575    0.4261 H   0  0  0  0  0  0  0  0  0  0  0  0
    1.1954   -2.1583   -0.3228 H   0  0  0  0  0  0  0  0  0  0  0  0
   -1.2701   -2.3257   -0.1236 H   0  0  0  0  0  0  0  0  0  0  0  0
   -3.3518    3.7861    0.2860 Cl  0  0  0  0  0  0  0  0  0  0  0  0
  1  4  1  0  0  0  0
  1  2  1  0  0  0  0
  2  3  1  0  0  0  0
  5  4  2  0  0  0  0
  6  9  2  0  0  0  0
  6  5  1  0  0  0  0
  7  6  1  0  0  0  0
  8  7  1  0  0  0  0
  8 15  1  0  0  0  0
  9 10  1  0  0  0  0
 10 17  1  0  0  0  0
 10  1  2  0  0  0  0
 11 18  1  0  0  0  0
 12  5  1  0  0  0  0
 13  8  1  0  0  0  0
 14  8  1  0  0  0  0
 16  9  1  0  0  0  0
M  RAD  3   2   2   3   3   4   2
M  END
