Coordinates from ORCA-job 4-MeOPhN2+~Cl-_B3LYPG-6-31G_dp-CH-Scan-d09-49-n800
 OpenBabel11261919403D

 18 17  0  0  0  0  0  0  0  0999 V2000
   -1.4407   -0.2600   -0.0379 C   0  0  0  0  0  0  0  0  0  0  0  0
   -2.8048   -0.3730    0.0716 N   0  0  0  0  0  0  0  0  0  0  0  0
   -3.9234   -0.4075    0.1628 N   0  0  0  0  0  0  0  0  0  0  0  0
   -0.9741    1.0781   -0.0339 C   0  0  0  0  0  0  0  0  0  0  0  0
    0.4263    1.1048   -0.1490 C   0  0  0  0  0  0  0  0  0  0  0  0
    1.2290   -0.0426   -0.2510 C   0  0  0  0  0  0  0  0  0  0  0  0
    2.5613    0.1660   -0.3529 O   0  0  0  0  0  0  0  0  0  0  0  0
    3.4484   -0.9424   -0.4570 C   0  0  0  0  0  0  0  0  0  0  0  0
    0.6574   -1.3488   -0.2453 C   0  0  0  0  0  0  0  0  0  0  0  0
   -0.7065   -1.4732   -0.1371 C   0  0  0  0  0  0  0  0  0  0  0  0
   -2.7973    3.5490    0.2376 H   0  0  0  0  0  0  0  0  0  0  0  0
    0.9605    2.0550   -0.1628 H   0  0  0  0  0  0  0  0  0  0  0  0
    4.4499   -0.5157   -0.5205 H   0  0  0  0  0  0  0  0  0  0  0  0
    3.2513   -1.5338   -1.3593 H   0  0  0  0  0  0  0  0  0  0  0  0
    3.3882   -1.5911    0.4253 H   0  0  0  0  0  0  0  0  0  0  0  0
    1.2760   -2.2337   -0.3235 H   0  0  0  0  0  0  0  0  0  0  0  0
   -1.1885   -2.4478   -0.1286 H   0  0  0  0  0  0  0  0  0  0  0  0
   -3.6837    4.4800    0.3663 Cl  0  0  0  0  0  0  0  0  0  0  0  0
  1  4  1  0  0  0  0
  1  2  1  0  0  0  0
  2  3  1  0  0  0  0
  5  4  2  0  0  0  0
  6  9  2  0  0  0  0
  6  5  1  0  0  0  0
  7  6  1  0  0  0  0
  8  7  1  0  0  0  0
  8 15  1  0  0  0  0
  9 10  1  0  0  0  0
 10 17  1  0  0  0  0
 10  1  2  0  0  0  0
 11 18  1  0  0  0  0
 12  5  1  0  0  0  0
 13  8  1  0  0  0  0
 14  8  1  0  0  0  0
 16  9  1  0  0  0  0
M  RAD  3   2   2   3   3   4   2
M  END
