Coordinates from ORCA-job 4-MeOPhN2+~Cl-_B3LYPG-6-31G_dp-CH-Scan-d09-49-n800
 OpenBabel11261919403D

 18 17  0  0  0  0  0  0  0  0999 V2000
   -1.4044   -0.4741   -0.0568 C   0  0  0  0  0  0  0  0  0  0  0  0
   -2.7668   -0.6379    0.0466 N   0  0  0  0  0  0  0  0  0  0  0  0
   -3.8850   -0.7023    0.1330 N   0  0  0  0  0  0  0  0  0  0  0  0
   -1.0061    0.8841   -0.0534 C   0  0  0  0  0  0  0  0  0  0  0  0
    0.3952    0.9691   -0.1629 C   0  0  0  0  0  0  0  0  0  0  0  0
    1.2478   -0.1415   -0.2597 C   0  0  0  0  0  0  0  0  0  0  0  0
    2.5720    0.1248   -0.3583 O   0  0  0  0  0  0  0  0  0  0  0  0
    3.5051   -0.9444   -0.4589 C   0  0  0  0  0  0  0  0  0  0  0  0
    0.7354   -1.4727   -0.2526 C   0  0  0  0  0  0  0  0  0  0  0  0
   -0.6221   -1.6571   -0.1492 C   0  0  0  0  0  0  0  0  0  0  0  0
   -3.1786    4.4879    0.3155 H   0  0  0  0  0  0  0  0  0  0  0  0
    0.8900    1.9411   -0.1768 H   0  0  0  0  0  0  0  0  0  0  0  0
    4.4878   -0.4762   -0.5234 H   0  0  0  0  0  0  0  0  0  0  0  0
    3.3341   -1.5470   -1.3593 H   0  0  0  0  0  0  0  0  0  0  0  0
    3.4731   -1.5932    0.4252 H   0  0  0  0  0  0  0  0  0  0  0  0
    1.3934   -2.3291   -0.3261 H   0  0  0  0  0  0  0  0  0  0  0  0
   -1.0615   -2.6519   -0.1397 H   0  0  0  0  0  0  0  0  0  0  0  0
   -3.9799    5.4836    0.4615 Cl  0  0  0  0  0  0  0  0  0  0  0  0
  1  4  1  0  0  0  0
  1  2  1  0  0  0  0
  2  3  1  0  0  0  0
  5  4  2  0  0  0  0
  6  9  2  0  0  0  0
  6  5  1  0  0  0  0
  7  6  1  0  0  0  0
  8  7  1  0  0  0  0
  8 15  1  0  0  0  0
  9 10  1  0  0  0  0
 10 17  1  0  0  0  0
 10  1  2  0  0  0  0
 11 18  1  0  0  0  0
 12  5  1  0  0  0  0
 13  8  1  0  0  0  0
 14  8  1  0  0  0  0
 16  9  1  0  0  0  0
M  RAD  3   2   2   3   3   4   2
M  END
