Coordinates from ORCA-job 4-MeOPhN2+~Cl-_B3LYPG-6-31G_dp-CH-Scan-d09-49-n800
 OpenBabel11261919403D

 18 17  0  0  0  0  0  0  0  0999 V2000
   -1.5171   -0.0812   -0.0171 C   0  0  0  0  0  0  0  0  0  0  0  0
   -2.8823   -0.1542    0.0960 N   0  0  0  0  0  0  0  0  0  0  0  0
   -3.9985   -0.1454    0.1911 N   0  0  0  0  0  0  0  0  0  0  0  0
   -0.9839    1.2298   -0.0114 C   0  0  0  0  0  0  0  0  0  0  0  0
    0.4051    1.2426   -0.1281 C   0  0  0  0  0  0  0  0  0  0  0  0
    1.1752    0.0700   -0.2374 C   0  0  0  0  0  0  0  0  0  0  0  0
    2.5066    0.2442   -0.3410 O   0  0  0  0  0  0  0  0  0  0  0  0
    3.3679   -0.8869   -0.4520 C   0  0  0  0  0  0  0  0  0  0  0  0
    0.5622   -1.2145   -0.2355 C   0  0  0  0  0  0  0  0  0  0  0  0
   -0.8060   -1.3028   -0.1242 C   0  0  0  0  0  0  0  0  0  0  0  0
   -2.1089    2.5178    0.1304 H   0  0  0  0  0  0  0  0  0  0  0  0
    0.9503    2.1843   -0.1373 H   0  0  0  0  0  0  0  0  0  0  0  0
    4.3782   -0.4826   -0.5149 H   0  0  0  0  0  0  0  0  0  0  0  0
    3.1530   -1.4665   -1.3573 H   0  0  0  0  0  0  0  0  0  0  0  0
    3.2911   -1.5357    0.4284 H   0  0  0  0  0  0  0  0  0  0  0  0
    1.1531   -2.1175   -0.3194 H   0  0  0  0  0  0  0  0  0  0  0  0
   -1.3119   -2.2641   -0.1189 H   0  0  0  0  0  0  0  0  0  0  0  0
   -3.2049    3.4260    0.2536 Cl  0  0  0  0  0  0  0  0  0  0  0  0
  1  4  1  0  0  0  0
  1  2  1  0  0  0  0
  2  3  1  0  0  0  0
  5  4  2  0  0  0  0
  6  9  2  0  0  0  0
  6  5  1  0  0  0  0
  7  6  1  0  0  0  0
  8  7  1  0  0  0  0
  8 15  1  0  0  0  0
  9 10  1  0  0  0  0
 10 17  1  0  0  0  0
 10  1  2  0  0  0  0
 11 18  1  0  0  0  0
 12  5  1  0  0  0  0
 13  8  1  0  0  0  0
 14  8  1  0  0  0  0
 16  9  1  0  0  0  0
M  RAD  3   2   2   3   3   4   2
M  END
