Coordinates from ORCA-job 4-MeOPhN2+~Cl-_B3LYPG-6-31G_dp-CH-Scan-d09-49-n800
 OpenBabel11261919403D

 18 17  0  0  0  0  0  0  0  0999 V2000
   -1.5472   -0.0072   -0.0148 C   0  0  0  0  0  0  0  0  0  0  0  0
   -2.9348   -0.1125    0.0973 N   0  0  0  0  0  0  0  0  0  0  0  0
   -3.9398    0.4632    0.2060 N   0  0  0  0  0  0  0  0  0  0  0  0
   -0.8985    1.2404   -0.0213 C   0  0  0  0  0  0  0  0  0  0  0  0
    0.4754    1.2807   -0.1339 C   0  0  0  0  0  0  0  0  0  0  0  0
    1.2153    0.0842   -0.2403 C   0  0  0  0  0  0  0  0  0  0  0  0
    2.5518    0.2378   -0.3441 O   0  0  0  0  0  0  0  0  0  0  0  0
    3.3784   -0.9182   -0.4520 C   0  0  0  0  0  0  0  0  0  0  0  0
    0.5589   -1.1614   -0.2336 C   0  0  0  0  0  0  0  0  0  0  0  0
   -0.8237   -1.2029   -0.1208 C   0  0  0  0  0  0  0  0  0  0  0  0
   -1.6514    2.2896    0.0822 H   0  0  0  0  0  0  0  0  0  0  0  0
    1.0142    2.2217   -0.1426 H   0  0  0  0  0  0  0  0  0  0  0  0
    4.4007   -0.5456   -0.5175 H   0  0  0  0  0  0  0  0  0  0  0  0
    3.1434   -1.4945   -1.3547 H   0  0  0  0  0  0  0  0  0  0  0  0
    3.2811   -1.5617    0.4303 H   0  0  0  0  0  0  0  0  0  0  0  0
    1.1153   -2.0866   -0.3148 H   0  0  0  0  0  0  0  0  0  0  0  0
   -1.3526   -2.1503   -0.1133 H   0  0  0  0  0  0  0  0  0  0  0  0
   -3.8569    2.6866    0.2927 Cl  0  0  0  0  0  0  0  0  0  0  0  0
  1  2  1  0  0  0  0
  2  3  2  0  0  0  0
  4  1  1  0  0  0  0
  4 11  1  0  0  0  0
  5  4  2  0  0  0  0
  6  9  2  0  0  0  0
  6  5  1  0  0  0  0
  7  6  1  0  0  0  0
  8  7  1  0  0  0  0
  8 15  1  0  0  0  0
  9 10  1  0  0  0  0
 10 17  1  0  0  0  0
 10  1  2  0  0  0  0
 12  5  1  0  0  0  0
 13  8  1  0  0  0  0
 14  8  1  0  0  0  0
 16  9  1  0  0  0  0
M  RAD  2   3   2  18   2
M  END
