Coordinates from ORCA-job 4-MeOPhN2+~Cl-_B3LYPG-6-31G_dp-CH-Scan-d09-49-n800
 OpenBabel11261919403D

 18 17  0  0  0  0  0  0  0  0999 V2000
   -1.4235   -0.3438   -0.0448 C   0  0  0  0  0  0  0  0  0  0  0  0
   -2.7875   -0.4749    0.0628 N   0  0  0  0  0  0  0  0  0  0  0  0
   -3.9062   -0.5186    0.1527 N   0  0  0  0  0  0  0  0  0  0  0  0
   -0.9840    1.0027   -0.0400 C   0  0  0  0  0  0  0  0  0  0  0  0
    0.4176    1.0502   -0.1535 C   0  0  0  0  0  0  0  0  0  0  0  0
    1.2391   -0.0835   -0.2544 C   0  0  0  0  0  0  0  0  0  0  0  0
    2.5690    0.1467   -0.3550 O   0  0  0  0  0  0  0  0  0  0  0  0
    3.4732   -0.9472   -0.4584 C   0  0  0  0  0  0  0  0  0  0  0  0
    0.6898   -1.3996   -0.2490 C   0  0  0  0  0  0  0  0  0  0  0  0
   -0.6720   -1.5464   -0.1425 C   0  0  0  0  0  0  0  0  0  0  0  0
   -2.9726    3.9250    0.2698 H   0  0  0  0  0  0  0  0  0  0  0  0
    0.9379    2.0085   -0.1669 H   0  0  0  0  0  0  0  0  0  0  0  0
    4.4680   -0.5051   -0.5217 H   0  0  0  0  0  0  0  0  0  0  0  0
    3.2860   -1.5423   -1.3605 H   0  0  0  0  0  0  0  0  0  0  0  0
    3.4234   -1.5969    0.4240 H   0  0  0  0  0  0  0  0  0  0  0  0
    1.3234   -2.2739   -0.3262 H   0  0  0  0  0  0  0  0  0  0  0  0
   -1.1384   -2.5287   -0.1342 H   0  0  0  0  0  0  0  0  0  0  0  0
   -3.8140    4.8910    0.4027 Cl  0  0  0  0  0  0  0  0  0  0  0  0
  1  4  1  0  0  0  0
  1  2  1  0  0  0  0
  2  3  1  0  0  0  0
  5  4  2  0  0  0  0
  6  9  2  0  0  0  0
  6  5  1  0  0  0  0
  7  6  1  0  0  0  0
  8  7  1  0  0  0  0
  8 15  1  0  0  0  0
  9 10  1  0  0  0  0
 10 17  1  0  0  0  0
 10  1  2  0  0  0  0
 11 18  1  0  0  0  0
 12  5  1  0  0  0  0
 13  8  1  0  0  0  0
 14  8  1  0  0  0  0
 16  9  1  0  0  0  0
M  RAD  3   2   2   3   3   4   2
M  END
