Coordinates from ORCA-job 4-MeOPhN2+~Cl-_B3LYPG-6-31G_dp-CH-Scan-d09-49-n800
 OpenBabel11261919403D

 18 17  0  0  0  0  0  0  0  0999 V2000
   -1.4073   -0.6208   -0.0817 C   0  0  0  0  0  0  0  0  0  0  0  0
   -2.7639   -0.8350    0.0151 N   0  0  0  0  0  0  0  0  0  0  0  0
   -3.8796   -0.9386    0.0946 N   0  0  0  0  0  0  0  0  0  0  0  0
   -1.0644    0.7516   -0.1001 C   0  0  0  0  0  0  0  0  0  0  0  0
    0.3334    0.8912   -0.2022 C   0  0  0  0  0  0  0  0  0  0  0  0
    1.2303   -0.1859   -0.2735 C   0  0  0  0  0  0  0  0  0  0  0  0
    2.5437    0.1311   -0.3697 O   0  0  0  0  0  0  0  0  0  0  0  0
    3.5186   -0.9019   -0.4474 C   0  0  0  0  0  0  0  0  0  0  0  0
    0.7714   -1.5363   -0.2451 C   0  0  0  0  0  0  0  0  0  0  0  0
   -0.5785   -1.7733   -0.1471 C   0  0  0  0  0  0  0  0  0  0  0  0
   -3.2599    4.9707    0.3748 H   0  0  0  0  0  0  0  0  0  0  0  0
    0.7891    1.8819   -0.2308 H   0  0  0  0  0  0  0  0  0  0  0  0
    4.4822   -0.3964   -0.5197 H   0  0  0  0  0  0  0  0  0  0  0  0
    3.3739   -1.5286   -1.3358 H   0  0  0  0  0  0  0  0  0  0  0  0
    3.5108   -1.5336    0.4495 H   0  0  0  0  0  0  0  0  0  0  0  0
    1.4634   -2.3669   -0.2986 H   0  0  0  0  0  0  0  0  0  0  0  0
   -0.9777   -2.7847   -0.1219 H   0  0  0  0  0  0  0  0  0  0  0  0
   -3.9560    6.0389    0.5445 Cl  0  0  0  0  0  0  0  0  0  0  0  0
  1  2  1  0  0  0  0
  2  3  1  0  0  0  0
  4  1  1  0  0  0  0
  5  4  2  0  0  0  0
  6  9  2  0  0  0  0
  6  5  1  0  0  0  0
  7  6  1  0  0  0  0
  8  7  1  0  0  0  0
  8 15  1  0  0  0  0
  9 10  1  0  0  0  0
 10 17  1  0  0  0  0
 10  1  2  0  0  0  0
 11 18  1  0  0  0  0
 12  5  1  0  0  0  0
 13  8  1  0  0  0  0
 14  8  1  0  0  0  0
 16  9  1  0  0  0  0
M  RAD  3   2   2   3   3   4   2
M  END
