Coordinates from ORCA-job 4-MeOPhN2+~Cl-_B3LYPG-6-31G_dp-CH-Scan-d09-49-n800
 OpenBabel11261919403D

 18 17  0  0  0  0  0  0  0  0999 V2000
   -1.4726   -0.1766   -0.0272 C   0  0  0  0  0  0  0  0  0  0  0  0
   -2.8360   -0.2761    0.0842 N   0  0  0  0  0  0  0  0  0  0  0  0
   -3.9540   -0.3052    0.1772 N   0  0  0  0  0  0  0  0  0  0  0  0
   -0.9799    1.1525   -0.0202 C   0  0  0  0  0  0  0  0  0  0  0  0
    0.4175    1.1665   -0.1371 C   0  0  0  0  0  0  0  0  0  0  0  0
    1.2052    0.0081   -0.2441 C   0  0  0  0  0  0  0  0  0  0  0  0
    2.5381    0.2003   -0.3470 O   0  0  0  0  0  0  0  0  0  0  0  0
    3.4123   -0.9188   -0.4554 C   0  0  0  0  0  0  0  0  0  0  0  0
    0.6150   -1.2891   -0.2418 C   0  0  0  0  0  0  0  0  0  0  0  0
   -0.7504   -1.3960   -0.1318 C   0  0  0  0  0  0  0  0  0  0  0  0
   -2.5192    3.1009    0.1901 H   0  0  0  0  0  0  0  0  0  0  0  0
    0.9607    2.1108   -0.1480 H   0  0  0  0  0  0  0  0  0  0  0  0
    4.4184   -0.5033   -0.5182 H   0  0  0  0  0  0  0  0  0  0  0  0
    3.2069   -1.5041   -1.3597 H   0  0  0  0  0  0  0  0  0  0  0  0
    3.3443   -1.5689    0.4251 H   0  0  0  0  0  0  0  0  0  0  0  0
    1.2210   -2.1823   -0.3240 H   0  0  0  0  0  0  0  0  0  0  0  0
   -1.2442   -2.3643   -0.1259 H   0  0  0  0  0  0  0  0  0  0  0  0
   -3.4536    4.0089    0.3089 Cl  0  0  0  0  0  0  0  0  0  0  0  0
  1  4  1  0  0  0  0
  1  2  1  0  0  0  0
  2  3  1  0  0  0  0
  5  4  2  0  0  0  0
  6  9  2  0  0  0  0
  6  5  1  0  0  0  0
  7  6  1  0  0  0  0
  8  7  1  0  0  0  0
  8 15  1  0  0  0  0
  9 10  1  0  0  0  0
 10 17  1  0  0  0  0
 10  1  2  0  0  0  0
 11 18  1  0  0  0  0
 12  5  1  0  0  0  0
 13  8  1  0  0  0  0
 14  8  1  0  0  0  0
 16  9  1  0  0  0  0
M  RAD  3   2   2   3   3   4   2
M  END
