Coordinates from ORCA-job 4-MeOPhN2+~Cl-_B3LYPG-6-31G_dp-CH-Scan-d09-49-n800
 OpenBabel11261919403D

 18 17  0  0  0  0  0  0  0  0999 V2000
   -1.5509    0.0012   -0.0146 C   0  0  0  0  0  0  0  0  0  0  0  0
   -2.9379   -0.1155    0.0969 N   0  0  0  0  0  0  0  0  0  0  0  0
   -3.9456    0.4599    0.2066 N   0  0  0  0  0  0  0  0  0  0  0  0
   -0.8986    1.2482   -0.0217 C   0  0  0  0  0  0  0  0  0  0  0  0
    0.4762    1.2833   -0.1345 C   0  0  0  0  0  0  0  0  0  0  0  0
    1.2152    0.0867   -0.2404 C   0  0  0  0  0  0  0  0  0  0  0  0
    2.5520    0.2390   -0.3441 O   0  0  0  0  0  0  0  0  0  0  0  0
    3.3766   -0.9183   -0.4515 C   0  0  0  0  0  0  0  0  0  0  0  0
    0.5564   -1.1569   -0.2333 C   0  0  0  0  0  0  0  0  0  0  0  0
   -0.8264   -1.1940   -0.1205 C   0  0  0  0  0  0  0  0  0  0  0  0
   -1.6019    2.2714    0.0760 H   0  0  0  0  0  0  0  0  0  0  0  0
    1.0160    2.2239   -0.1435 H   0  0  0  0  0  0  0  0  0  0  0  0
    4.3996   -0.5477   -0.5168 H   0  0  0  0  0  0  0  0  0  0  0  0
    3.1407   -1.4946   -1.3539 H   0  0  0  0  0  0  0  0  0  0  0  0
    3.2779   -1.5614    0.4311 H   0  0  0  0  0  0  0  0  0  0  0  0
    1.1102   -2.0836   -0.3141 H   0  0  0  0  0  0  0  0  0  0  0  0
   -1.3574   -2.1401   -0.1127 H   0  0  0  0  0  0  0  0  0  0  0  0
   -3.8727    2.6618    0.2961 Cl  0  0  0  0  0  0  0  0  0  0  0  0
  1  2  1  0  0  0  0
  2  3  2  0  0  0  0
  4  1  1  0  0  0  0
  4 11  1  0  0  0  0
  5  4  2  0  0  0  0
  6  9  2  0  0  0  0
  6  5  1  0  0  0  0
  7  6  1  0  0  0  0
  8  7  1  0  0  0  0
  8 15  1  0  0  0  0
  9 10  1  0  0  0  0
 10 17  1  0  0  0  0
 10  1  2  0  0  0  0
 12  5  1  0  0  0  0
 13  8  1  0  0  0  0
 14  8  1  0  0  0  0
 16  9  1  0  0  0  0
M  RAD  2   3   2  18   2
M  END
