Coordinates from ORCA-job 4-MeOPhN2+~Cl-_B3LYPG-6-31G_dp-CH-Scan-d09-49-n800
 OpenBabel11261919403D

 18 17  0  0  0  0  0  0  0  0999 V2000
   -1.4171   -0.3748   -0.0479 C   0  0  0  0  0  0  0  0  0  0  0  0
   -2.7811   -0.5126    0.0588 N   0  0  0  0  0  0  0  0  0  0  0  0
   -3.8998   -0.5598    0.1479 N   0  0  0  0  0  0  0  0  0  0  0  0
   -0.9873    0.9745   -0.0437 C   0  0  0  0  0  0  0  0  0  0  0  0
    0.4145    1.0300   -0.1564 C   0  0  0  0  0  0  0  0  0  0  0  0
    1.2430   -0.0987   -0.2560 C   0  0  0  0  0  0  0  0  0  0  0  0
    2.5718    0.1395   -0.3562 O   0  0  0  0  0  0  0  0  0  0  0  0
    3.4824   -0.9491   -0.4586 C   0  0  0  0  0  0  0  0  0  0  0  0
    0.7019   -1.4182   -0.2500 C   0  0  0  0  0  0  0  0  0  0  0  0
   -0.6591   -1.5734   -0.1441 C   0  0  0  0  0  0  0  0  0  0  0  0
   -3.0330    4.0686    0.2824 H   0  0  0  0  0  0  0  0  0  0  0  0
    0.9294    1.9913   -0.1702 H   0  0  0  0  0  0  0  0  0  0  0  0
    4.4746   -0.5013   -0.5222 H   0  0  0  0  0  0  0  0  0  0  0  0
    3.2988   -1.5461   -1.3602 H   0  0  0  0  0  0  0  0  0  0  0  0
    3.4364   -1.5985    0.4243 H   0  0  0  0  0  0  0  0  0  0  0  0
    1.3410   -2.2886   -0.3261 H   0  0  0  0  0  0  0  0  0  0  0  0
   -1.1196   -2.5585   -0.1354 H   0  0  0  0  0  0  0  0  0  0  0  0
   -3.8673    5.0393    0.4186 Cl  0  0  0  0  0  0  0  0  0  0  0  0
  1  4  1  0  0  0  0
  1  2  1  0  0  0  0
  2  3  1  0  0  0  0
  5  4  2  0  0  0  0
  6  9  2  0  0  0  0
  6  5  1  0  0  0  0
  7  6  1  0  0  0  0
  8  7  1  0  0  0  0
  8 15  1  0  0  0  0
  9 10  1  0  0  0  0
 10 17  1  0  0  0  0
 10  1  2  0  0  0  0
 11 18  1  0  0  0  0
 12  5  1  0  0  0  0
 13  8  1  0  0  0  0
 14  8  1  0  0  0  0
 16  9  1  0  0  0  0
M  RAD  3   2   2   3   3   4   2
M  END
