Coordinates from ORCA-job 4-MeOPhN2+~Cl-_B3LYPG-6-31G_dp-CH-Scan-d09-49-n800
 OpenBabel11261919403D

 18 17  0  0  0  0  0  0  0  0999 V2000
   -1.5235   -0.0622   -0.0178 C   0  0  0  0  0  0  0  0  0  0  0  0
   -2.9142   -0.0944    0.0980 N   0  0  0  0  0  0  0  0  0  0  0  0
   -3.9113    0.4540    0.2035 N   0  0  0  0  0  0  0  0  0  0  0  0
   -0.9332    1.2102   -0.0179 C   0  0  0  0  0  0  0  0  0  0  0  0
    0.4433    1.2610   -0.1305 C   0  0  0  0  0  0  0  0  0  0  0  0
    1.1986    0.0735   -0.2389 C   0  0  0  0  0  0  0  0  0  0  0  0
    2.5330    0.2422   -0.3421 O   0  0  0  0  0  0  0  0  0  0  0  0
    3.3789   -0.8994   -0.4523 C   0  0  0  0  0  0  0  0  0  0  0  0
    0.5674   -1.1917   -0.2355 C   0  0  0  0  0  0  0  0  0  0  0  0
   -0.8113   -1.2650   -0.1236 C   0  0  0  0  0  0  0  0  0  0  0  0
   -1.9385    2.2899    0.1088 H   0  0  0  0  0  0  0  0  0  0  0  0
    0.9798    2.2048   -0.1382 H   0  0  0  0  0  0  0  0  0  0  0  0
    4.3947   -0.5093   -0.5160 H   0  0  0  0  0  0  0  0  0  0  0  0
    3.1550   -1.4774   -1.3567 H   0  0  0  0  0  0  0  0  0  0  0  0
    3.2926   -1.5468    0.4283 H   0  0  0  0  0  0  0  0  0  0  0  0
    1.1458   -2.1029   -0.3184 H   0  0  0  0  0  0  0  0  0  0  0  0
   -1.3252   -2.2211   -0.1180 H   0  0  0  0  0  0  0  0  0  0  0  0
   -3.6023    2.8979    0.2722 Cl  0  0  0  0  0  0  0  0  0  0  0  0
  1  2  1  0  0  0  0
  2  3  2  0  0  0  0
  4  1  1  0  0  0  0
  4 11  1  0  0  0  0
  5  4  2  0  0  0  0
  6  9  2  0  0  0  0
  6  5  1  0  0  0  0
  7  6  1  0  0  0  0
  8  7  1  0  0  0  0
  8 15  1  0  0  0  0
  9 10  1  0  0  0  0
 10 17  1  0  0  0  0
 10  1  2  0  0  0  0
 12  5  1  0  0  0  0
 13  8  1  0  0  0  0
 14  8  1  0  0  0  0
 16  9  1  0  0  0  0
M  RAD  2   3   2  18   2
M  END
