Coordinates from ORCA-job 4-MeOPhN2+~Cl-_B3LYPG-6-31G_dp-CH-Scan-d09-49-n800
 OpenBabel11261919403D

 18 17  0  0  0  0  0  0  0  0999 V2000
   -1.5272   -0.0555   -0.0175 C   0  0  0  0  0  0  0  0  0  0  0  0
   -2.9181   -0.0972    0.0979 N   0  0  0  0  0  0  0  0  0  0  0  0
   -3.9114    0.4659    0.2038 N   0  0  0  0  0  0  0  0  0  0  0  0
   -0.9261    1.2117   -0.0187 C   0  0  0  0  0  0  0  0  0  0  0  0
    0.4491    1.2639   -0.1311 C   0  0  0  0  0  0  0  0  0  0  0  0
    1.2019    0.0747   -0.2393 C   0  0  0  0  0  0  0  0  0  0  0  0
    2.5366    0.2412   -0.3426 O   0  0  0  0  0  0  0  0  0  0  0  0
    3.3795   -0.9027   -0.4523 C   0  0  0  0  0  0  0  0  0  0  0  0
    0.5667   -1.1874   -0.2353 C   0  0  0  0  0  0  0  0  0  0  0  0
   -0.8129   -1.2565   -0.1233 C   0  0  0  0  0  0  0  0  0  0  0  0
   -1.9025    2.2909    0.1058 H   0  0  0  0  0  0  0  0  0  0  0  0
    0.9853    2.2077   -0.1390 H   0  0  0  0  0  0  0  0  0  0  0  0
    4.3964   -0.5153   -0.5164 H   0  0  0  0  0  0  0  0  0  0  0  0
    3.1539   -1.4806   -1.3564 H   0  0  0  0  0  0  0  0  0  0  0  0
    3.2916   -1.5494    0.4287 H   0  0  0  0  0  0  0  0  0  0  0  0
    1.1420   -2.1006   -0.3179 H   0  0  0  0  0  0  0  0  0  0  0  0
   -1.3285   -2.2116   -0.1173 H   0  0  0  0  0  0  0  0  0  0  0  0
   -3.6468    2.8639    0.2757 Cl  0  0  0  0  0  0  0  0  0  0  0  0
  1  2  1  0  0  0  0
  2  3  2  0  0  0  0
  4  1  1  0  0  0  0
  4 11  1  0  0  0  0
  5  4  2  0  0  0  0
  6  9  2  0  0  0  0
  6  5  1  0  0  0  0
  7  6  1  0  0  0  0
  8  7  1  0  0  0  0
  8 15  1  0  0  0  0
  9 10  1  0  0  0  0
 10 17  1  0  0  0  0
 10  1  2  0  0  0  0
 12  5  1  0  0  0  0
 13  8  1  0  0  0  0
 14  8  1  0  0  0  0
 16  9  1  0  0  0  0
M  RAD  2   3   2  18   2
M  END
