Coordinates from ORCA-job 4-MeOPhN2+~Cl-_B3LYPG-6-31G_dp-CH-Scan-d09-49-n800
 OpenBabel11261919403D

 18 17  0  0  0  0  0  0  0  0999 V2000
   -1.5031   -0.1110   -0.0195 C   0  0  0  0  0  0  0  0  0  0  0  0
   -2.8672   -0.1960    0.0931 N   0  0  0  0  0  0  0  0  0  0  0  0
   -3.9844   -0.2088    0.1874 N   0  0  0  0  0  0  0  0  0  0  0  0
   -0.9867    1.2081   -0.0121 C   0  0  0  0  0  0  0  0  0  0  0  0
    0.4063    1.2182   -0.1294 C   0  0  0  0  0  0  0  0  0  0  0  0
    1.1827    0.0510   -0.2389 C   0  0  0  0  0  0  0  0  0  0  0  0
    2.5150    0.2315   -0.3423 O   0  0  0  0  0  0  0  0  0  0  0  0
    3.3806   -0.8953   -0.4533 C   0  0  0  0  0  0  0  0  0  0  0  0
    0.5782   -1.2384   -0.2378 C   0  0  0  0  0  0  0  0  0  0  0  0
   -0.7888   -1.3329   -0.1267 C   0  0  0  0  0  0  0  0  0  0  0  0
   -2.2486    2.7074    0.1492 H   0  0  0  0  0  0  0  0  0  0  0  0
    0.9526    2.1599   -0.1387 H   0  0  0  0  0  0  0  0  0  0  0  0
    4.3895   -0.4873   -0.5159 H   0  0  0  0  0  0  0  0  0  0  0  0
    3.1690   -1.4764   -1.3586 H   0  0  0  0  0  0  0  0  0  0  0  0
    3.3069   -1.5454    0.4266 H   0  0  0  0  0  0  0  0  0  0  0  0
    1.1745   -2.1379   -0.3219 H   0  0  0  0  0  0  0  0  0  0  0  0
   -1.2909   -2.2966   -0.1219 H   0  0  0  0  0  0  0  0  0  0  0  0
   -3.2564    3.6129    0.2654 Cl  0  0  0  0  0  0  0  0  0  0  0  0
  1  4  1  0  0  0  0
  1  2  1  0  0  0  0
  2  3  1  0  0  0  0
  5  4  2  0  0  0  0
  6  9  2  0  0  0  0
  6  5  1  0  0  0  0
  7  6  1  0  0  0  0
  8  7  1  0  0  0  0
  8 15  1  0  0  0  0
  9 10  1  0  0  0  0
 10 17  1  0  0  0  0
 10  1  2  0  0  0  0
 11 18  1  0  0  0  0
 12  5  1  0  0  0  0
 13  8  1  0  0  0  0
 14  8  1  0  0  0  0
 16  9  1  0  0  0  0
M  RAD  3   2   2   3   3   4   2
M  END
