Coordinates from ORCA-job 4-MeOPhN2+~Cl-_B3LYPG-6-31G_dp-CH-Scan-d09-49-n800
 OpenBabel11261919403D

 18 18  0  0  0  0  0  0  0  0999 V2000
   -1.5573    0.0119   -0.0153 C   0  0  0  0  0  0  0  0  0  0  0  0
   -2.9439   -0.1186    0.0953 N   0  0  0  0  0  0  0  0  0  0  0  0
   -3.9520    0.4613    0.2077 N   0  0  0  0  0  0  0  0  0  0  0  0
   -0.9034    1.2605   -0.0233 C   0  0  0  0  0  0  0  0  0  0  0  0
    0.4731    1.2877   -0.1363 C   0  0  0  0  0  0  0  0  0  0  0  0
    1.2120    0.0919   -0.2410 C   0  0  0  0  0  0  0  0  0  0  0  0
    2.5491    0.2436   -0.3443 O   0  0  0  0  0  0  0  0  0  0  0  0
    3.3722   -0.9149   -0.4495 C   0  0  0  0  0  0  0  0  0  0  0  0
    0.5515   -1.1498   -0.2331 C   0  0  0  0  0  0  0  0  0  0  0  0
   -0.8316   -1.1824   -0.1207 C   0  0  0  0  0  0  0  0  0  0  0  0
   -1.5218    2.2085    0.0639 H   0  0  0  0  0  0  0  0  0  0  0  0
    1.0136    2.2279   -0.1458 H   0  0  0  0  0  0  0  0  0  0  0  0
    4.3958   -0.5459   -0.5145 H   0  0  0  0  0  0  0  0  0  0  0  0
    3.1362   -1.4921   -1.3514 H   0  0  0  0  0  0  0  0  0  0  0  0
    3.2719   -1.5568    0.4338 H   0  0  0  0  0  0  0  0  0  0  0  0
    1.1027   -2.0782   -0.3131 H   0  0  0  0  0  0  0  0  0  0  0  0
   -1.3648   -2.1272   -0.1125 H   0  0  0  0  0  0  0  0  0  0  0  0
   -3.8739    2.6360    0.3049 Cl  0  0  0  0  0  0  0  0  0  0  0  0
  1  2  1  0  0  0  0
  2  3  2  0  0  0  0
  3 18  1  0  0  0  0
  4  1  1  0  0  0  0
  4 11  1  0  0  0  0
  5  4  2  0  0  0  0
  6  9  2  0  0  0  0
  6  5  1  0  0  0  0
  7  6  1  0  0  0  0
  8  7  1  0  0  0  0
  8 15  1  0  0  0  0
  9 10  1  0  0  0  0
 10 17  1  0  0  0  0
 10  1  2  0  0  0  0
 12  5  1  0  0  0  0
 13  8  1  0  0  0  0
 14  8  1  0  0  0  0
 16  9  1  0  0  0  0
M  END
