Coordinates from ORCA-job 4-MeOPhN2+~Cl-_B3LYPG-6-31G_dp-CH-Scan-d09-49-n800
 OpenBabel11261919403D

 18 17  0  0  0  0  0  0  0  0999 V2000
   -1.4455   -0.2469   -0.0363 C   0  0  0  0  0  0  0  0  0  0  0  0
   -2.8094   -0.3578    0.0734 N   0  0  0  0  0  0  0  0  0  0  0  0
   -3.9279   -0.3917    0.1648 N   0  0  0  0  0  0  0  0  0  0  0  0
   -0.9748    1.0899   -0.0320 C   0  0  0  0  0  0  0  0  0  0  0  0
    0.4251    1.1144   -0.1474 C   0  0  0  0  0  0  0  0  0  0  0  0
    1.2255   -0.0349   -0.2500 C   0  0  0  0  0  0  0  0  0  0  0  0
    2.5579    0.1711   -0.3521 O   0  0  0  0  0  0  0  0  0  0  0  0
    3.4429   -0.9390   -0.4567 C   0  0  0  0  0  0  0  0  0  0  0  0
    0.6509   -1.3397   -0.2447 C   0  0  0  0  0  0  0  0  0  0  0  0
   -0.7132   -1.4612   -0.1362 C   0  0  0  0  0  0  0  0  0  0  0  0
   -2.7566    3.4799    0.2308 H   0  0  0  0  0  0  0  0  0  0  0  0
    0.9609    2.0635   -0.1608 H   0  0  0  0  0  0  0  0  0  0  0  0
    4.4451   -0.5142   -0.5201 H   0  0  0  0  0  0  0  0  0  0  0  0
    3.2445   -1.5296   -1.3593 H   0  0  0  0  0  0  0  0  0  0  0  0
    3.3815   -1.5879    0.4254 H   0  0  0  0  0  0  0  0  0  0  0  0
    1.2675   -2.2259   -0.3234 H   0  0  0  0  0  0  0  0  0  0  0  0
   -1.1971   -2.4348   -0.1280 H   0  0  0  0  0  0  0  0  0  0  0  0
   -3.6480    4.4082    0.3578 Cl  0  0  0  0  0  0  0  0  0  0  0  0
  1  4  1  0  0  0  0
  1  2  1  0  0  0  0
  2  3  1  0  0  0  0
  5  4  2  0  0  0  0
  6  9  2  0  0  0  0
  6  5  1  0  0  0  0
  7  6  1  0  0  0  0
  8  7  1  0  0  0  0
  8 15  1  0  0  0  0
  9 10  1  0  0  0  0
 10 17  1  0  0  0  0
 10  1  2  0  0  0  0
 11 18  1  0  0  0  0
 12  5  1  0  0  0  0
 13  8  1  0  0  0  0
 14  8  1  0  0  0  0
 16  9  1  0  0  0  0
M  RAD  3   2   2   3   3   4   2
M  END
