Coordinates from ORCA-job 4-MeOPhN2+~Cl-_B3LYPG-6-31G_dp-CH-Scan-d09-49-n800
 OpenBabel11261919403D

 18 17  0  0  0  0  0  0  0  0999 V2000
   -1.5115   -0.0928   -0.0179 C   0  0  0  0  0  0  0  0  0  0  0  0
   -2.8762   -0.1713    0.0951 N   0  0  0  0  0  0  0  0  0  0  0  0
   -3.9929   -0.1735    0.1898 N   0  0  0  0  0  0  0  0  0  0  0  0
   -0.9858    1.2219   -0.0112 C   0  0  0  0  0  0  0  0  0  0  0  0
    0.4051    1.2330   -0.1283 C   0  0  0  0  0  0  0  0  0  0  0  0
    1.1778    0.0626   -0.2378 C   0  0  0  0  0  0  0  0  0  0  0  0
    2.5097    0.2395   -0.3414 O   0  0  0  0  0  0  0  0  0  0  0  0
    3.3726   -0.8899   -0.4525 C   0  0  0  0  0  0  0  0  0  0  0  0
    0.5684   -1.2240   -0.2365 C   0  0  0  0  0  0  0  0  0  0  0  0
   -0.7993   -1.3147   -0.1252 C   0  0  0  0  0  0  0  0  0  0  0  0
   -2.1666    2.5937    0.1379 H   0  0  0  0  0  0  0  0  0  0  0  0
    0.9511    2.1744   -0.1375 H   0  0  0  0  0  0  0  0  0  0  0  0
    4.3824   -0.4841   -0.5153 H   0  0  0  0  0  0  0  0  0  0  0  0
    3.1591   -1.4700   -1.3579 H   0  0  0  0  0  0  0  0  0  0  0  0
    3.2971   -1.5394    0.4275 H   0  0  0  0  0  0  0  0  0  0  0  0
    1.1615   -2.1255   -0.3206 H   0  0  0  0  0  0  0  0  0  0  0  0
   -1.3037   -2.2770   -0.1202 H   0  0  0  0  0  0  0  0  0  0  0  0
   -3.2193    3.5003    0.2570 Cl  0  0  0  0  0  0  0  0  0  0  0  0
  1  4  1  0  0  0  0
  1  2  1  0  0  0  0
  2  3  1  0  0  0  0
  5  4  2  0  0  0  0
  6  9  2  0  0  0  0
  6  5  1  0  0  0  0
  7  6  1  0  0  0  0
  8  7  1  0  0  0  0
  8 15  1  0  0  0  0
  9 10  1  0  0  0  0
 10 17  1  0  0  0  0
 10  1  2  0  0  0  0
 11 18  1  0  0  0  0
 12  5  1  0  0  0  0
 13  8  1  0  0  0  0
 14  8  1  0  0  0  0
 16  9  1  0  0  0  0
M  RAD  3   2   2   3   3   4   2
M  END
