Coordinates from ORCA-job 4-MeOPhN2+~Cl-_B3LYPG-6-31G_dp-CH-Scan-d09-49-n800
 OpenBabel11261919403D

 18 17  0  0  0  0  0  0  0  0999 V2000
   -1.4158   -0.3833   -0.0488 C   0  0  0  0  0  0  0  0  0  0  0  0
   -2.7797   -0.5232    0.0577 N   0  0  0  0  0  0  0  0  0  0  0  0
   -3.8983   -0.5716    0.1466 N   0  0  0  0  0  0  0  0  0  0  0  0
   -0.9886    0.9667   -0.0447 C   0  0  0  0  0  0  0  0  0  0  0  0
    0.4132    1.0246   -0.1571 C   0  0  0  0  0  0  0  0  0  0  0  0
    1.2437   -0.1026   -0.2564 C   0  0  0  0  0  0  0  0  0  0  0  0
    2.5721    0.1379   -0.3565 O   0  0  0  0  0  0  0  0  0  0  0  0
    3.4846   -0.9492   -0.4586 C   0  0  0  0  0  0  0  0  0  0  0  0
    0.7049   -1.4231   -0.2502 C   0  0  0  0  0  0  0  0  0  0  0  0
   -0.6558   -1.5806   -0.1446 C   0  0  0  0  0  0  0  0  0  0  0  0
   -3.0472    4.1060    0.2856 H   0  0  0  0  0  0  0  0  0  0  0  0
    0.9265    1.9868   -0.1710 H   0  0  0  0  0  0  0  0  0  0  0  0
    4.4761   -0.4997   -0.5223 H   0  0  0  0  0  0  0  0  0  0  0  0
    3.3021   -1.5467   -1.3601 H   0  0  0  0  0  0  0  0  0  0  0  0
    3.4397   -1.5984    0.4244 H   0  0  0  0  0  0  0  0  0  0  0  0
    1.3456   -2.2924   -0.3261 H   0  0  0  0  0  0  0  0  0  0  0  0
   -1.1146   -2.5666   -0.1357 H   0  0  0  0  0  0  0  0  0  0  0  0
   -3.8792    5.0785    0.4227 Cl  0  0  0  0  0  0  0  0  0  0  0  0
  1  4  1  0  0  0  0
  1  2  1  0  0  0  0
  2  3  1  0  0  0  0
  5  4  2  0  0  0  0
  6  9  2  0  0  0  0
  6  5  1  0  0  0  0
  7  6  1  0  0  0  0
  8  7  1  0  0  0  0
  8 15  1  0  0  0  0
  9 10  1  0  0  0  0
 10 17  1  0  0  0  0
 10  1  2  0  0  0  0
 11 18  1  0  0  0  0
 12  5  1  0  0  0  0
 13  8  1  0  0  0  0
 14  8  1  0  0  0  0
 16  9  1  0  0  0  0
M  RAD  3   2   2   3   3   4   2
M  END
