Coordinates from ORCA-job 4-MeOPhN2+~Cl-_B3LYPG-6-31G_dp-CH-Scan-d09-49-n800
 OpenBabel11261919403D

 18 17  0  0  0  0  0  0  0  0999 V2000
   -1.4190   -0.3636   -0.0468 C   0  0  0  0  0  0  0  0  0  0  0  0
   -2.7831   -0.4989    0.0602 N   0  0  0  0  0  0  0  0  0  0  0  0
   -3.9018   -0.5446    0.1496 N   0  0  0  0  0  0  0  0  0  0  0  0
   -0.9857    0.9846   -0.0424 C   0  0  0  0  0  0  0  0  0  0  0  0
    0.4161    1.0371   -0.1554 C   0  0  0  0  0  0  0  0  0  0  0  0
    1.2420   -0.0935   -0.2554 C   0  0  0  0  0  0  0  0  0  0  0  0
    2.5712    0.1417   -0.3558 O   0  0  0  0  0  0  0  0  0  0  0  0
    3.4794   -0.9490   -0.4586 C   0  0  0  0  0  0  0  0  0  0  0  0
    0.6977   -1.4117   -0.2497 C   0  0  0  0  0  0  0  0  0  0  0  0
   -0.6635   -1.5637   -0.1436 C   0  0  0  0  0  0  0  0  0  0  0  0
   -3.0136    4.0187    0.2782 H   0  0  0  0  0  0  0  0  0  0  0  0
    0.9331    1.9973   -0.1690 H   0  0  0  0  0  0  0  0  0  0  0  0
    4.4726   -0.5033   -0.5221 H   0  0  0  0  0  0  0  0  0  0  0  0
    3.2944   -1.5453   -1.3604 H   0  0  0  0  0  0  0  0  0  0  0  0
    3.4319   -1.5984    0.4241 H   0  0  0  0  0  0  0  0  0  0  0  0
    1.3348   -2.2836   -0.3262 H   0  0  0  0  0  0  0  0  0  0  0  0
   -1.1263   -2.5478   -0.1350 H   0  0  0  0  0  0  0  0  0  0  0  0
   -3.8508    4.9873    0.4131 Cl  0  0  0  0  0  0  0  0  0  0  0  0
  1  4  1  0  0  0  0
  1  2  1  0  0  0  0
  2  3  1  0  0  0  0
  5  4  2  0  0  0  0
  6  9  2  0  0  0  0
  6  5  1  0  0  0  0
  7  6  1  0  0  0  0
  8  7  1  0  0  0  0
  8 15  1  0  0  0  0
  9 10  1  0  0  0  0
 10 17  1  0  0  0  0
 10  1  2  0  0  0  0
 11 18  1  0  0  0  0
 12  5  1  0  0  0  0
 13  8  1  0  0  0  0
 14  8  1  0  0  0  0
 16  9  1  0  0  0  0
M  RAD  3   2   2   3   3   4   2
M  END
