Coordinates from ORCA-job 4-MeOPhN2+~Cl-_B3LYPG-6-31G_dp-CH-Scan-d09-49-n800
 OpenBabel11261919403D

 18 17  0  0  0  0  0  0  0  0999 V2000
   -1.4918   -0.1313   -0.0221 C   0  0  0  0  0  0  0  0  0  0  0  0
   -2.8557   -0.2209    0.0901 N   0  0  0  0  0  0  0  0  0  0  0  0
   -3.9732   -0.2399    0.1840 N   0  0  0  0  0  0  0  0  0  0  0  0
   -0.9836    1.1914   -0.0149 C   0  0  0  0  0  0  0  0  0  0  0  0
    0.4112    1.2013   -0.1322 C   0  0  0  0  0  0  0  0  0  0  0  0
    1.1908    0.0367   -0.2408 C   0  0  0  0  0  0  0  0  0  0  0  0
    2.5236    0.2205   -0.3441 O   0  0  0  0  0  0  0  0  0  0  0  0
    3.3914   -0.9042   -0.4540 C   0  0  0  0  0  0  0  0  0  0  0  0
    0.5906   -1.2552   -0.2392 C   0  0  0  0  0  0  0  0  0  0  0  0
   -0.7758   -1.3531   -0.1285 C   0  0  0  0  0  0  0  0  0  0  0  0
   -2.3459    2.8407    0.1636 H   0  0  0  0  0  0  0  0  0  0  0  0
    0.9575    2.1433   -0.1422 H   0  0  0  0  0  0  0  0  0  0  0  0
    4.3996   -0.4943   -0.5167 H   0  0  0  0  0  0  0  0  0  0  0  0
    3.1816   -1.4869   -1.3588 H   0  0  0  0  0  0  0  0  0  0  0  0
    3.3193   -1.5542    0.4262 H   0  0  0  0  0  0  0  0  0  0  0  0
    1.1898   -2.1529   -0.3226 H   0  0  0  0  0  0  0  0  0  0  0  0
   -1.2756   -2.3181   -0.1232 H   0  0  0  0  0  0  0  0  0  0  0  0
   -3.3245    3.7402    0.2801 Cl  0  0  0  0  0  0  0  0  0  0  0  0
  1  4  1  0  0  0  0
  1  2  1  0  0  0  0
  2  3  1  0  0  0  0
  5  4  2  0  0  0  0
  6  9  2  0  0  0  0
  6  5  1  0  0  0  0
  7  6  1  0  0  0  0
  8  7  1  0  0  0  0
  8 15  1  0  0  0  0
  9 10  1  0  0  0  0
 10 17  1  0  0  0  0
 10  1  2  0  0  0  0
 11 18  1  0  0  0  0
 12  5  1  0  0  0  0
 13  8  1  0  0  0  0
 14  8  1  0  0  0  0
 16  9  1  0  0  0  0
M  RAD  3   2   2   3   3   4   2
M  END
