Coordinates from ORCA-job 4-MeOPhN2+~Cl-_B3LYPG-6-31G_dp-CH-Scan-d09-49-n800
 OpenBabel11261919403D

 18 17  0  0  0  0  0  0  0  0999 V2000
   -1.4247   -0.3389   -0.0441 C   0  0  0  0  0  0  0  0  0  0  0  0
   -2.7888   -0.4690    0.0637 N   0  0  0  0  0  0  0  0  0  0  0  0
   -3.9076   -0.5121    0.1526 N   0  0  0  0  0  0  0  0  0  0  0  0
   -0.9838    1.0071   -0.0394 C   0  0  0  0  0  0  0  0  0  0  0  0
    0.4178    1.0537   -0.1530 C   0  0  0  0  0  0  0  0  0  0  0  0
    1.2383   -0.0808   -0.2540 C   0  0  0  0  0  0  0  0  0  0  0  0
    2.5683    0.1481   -0.3548 O   0  0  0  0  0  0  0  0  0  0  0  0
    3.4716   -0.9466   -0.4584 C   0  0  0  0  0  0  0  0  0  0  0  0
    0.6877   -1.3963   -0.2487 C   0  0  0  0  0  0  0  0  0  0  0  0
   -0.6741   -1.5421   -0.1420 C   0  0  0  0  0  0  0  0  0  0  0  0
   -2.9614    3.9007    0.2677 H   0  0  0  0  0  0  0  0  0  0  0  0
    0.9388    2.0115   -0.1664 H   0  0  0  0  0  0  0  0  0  0  0  0
    4.4667   -0.5053   -0.5217 H   0  0  0  0  0  0  0  0  0  0  0  0
    3.2838   -1.5414   -1.3606 H   0  0  0  0  0  0  0  0  0  0  0  0
    3.4212   -1.5963    0.4239 H   0  0  0  0  0  0  0  0  0  0  0  0
    1.3206   -2.2712   -0.3261 H   0  0  0  0  0  0  0  0  0  0  0  0
   -1.1413   -2.5240   -0.1338 H   0  0  0  0  0  0  0  0  0  0  0  0
   -3.8036    4.8662    0.4001 Cl  0  0  0  0  0  0  0  0  0  0  0  0
  1  4  1  0  0  0  0
  1  2  1  0  0  0  0
  2  3  1  0  0  0  0
  5  4  2  0  0  0  0
  6  9  2  0  0  0  0
  6  5  1  0  0  0  0
  7  6  1  0  0  0  0
  8  7  1  0  0  0  0
  8 15  1  0  0  0  0
  9 10  1  0  0  0  0
 10 17  1  0  0  0  0
 10  1  2  0  0  0  0
 11 18  1  0  0  0  0
 12  5  1  0  0  0  0
 13  8  1  0  0  0  0
 14  8  1  0  0  0  0
 16  9  1  0  0  0  0
M  RAD  3   2   2   3   3   4   2
M  END
