Coordinates from ORCA-job 4-MeOPhN2+~Cl-_B3LYPG-6-31G_dp-CH-Scan-d09-49-n800
 OpenBabel11261919403D

 18 17  0  0  0  0  0  0  0  0999 V2000
   -1.4375   -0.2857   -0.0407 C   0  0  0  0  0  0  0  0  0  0  0  0
   -2.8014   -0.4053    0.0681 N   0  0  0  0  0  0  0  0  0  0  0  0
   -3.9201   -0.4441    0.1583 N   0  0  0  0  0  0  0  0  0  0  0  0
   -0.9801    1.0553   -0.0374 C   0  0  0  0  0  0  0  0  0  0  0  0
    0.4208    1.0892   -0.1519 C   0  0  0  0  0  0  0  0  0  0  0  0
    1.2301   -0.0537   -0.2524 C   0  0  0  0  0  0  0  0  0  0  0  0
    2.5615    0.1624   -0.3538 O   0  0  0  0  0  0  0  0  0  0  0  0
    3.4547   -0.9411   -0.4567 C   0  0  0  0  0  0  0  0  0  0  0  0
    0.6661   -1.3633   -0.2459 C   0  0  0  0  0  0  0  0  0  0  0  0
   -0.6971   -1.4953   -0.1383 C   0  0  0  0  0  0  0  0  0  0  0  0
   -2.8399    3.6535    0.2471 H   0  0  0  0  0  0  0  0  0  0  0  0
    0.9502    2.0421   -0.1662 H   0  0  0  0  0  0  0  0  0  0  0  0
    4.4538   -0.5091   -0.5202 H   0  0  0  0  0  0  0  0  0  0  0  0
    3.2611   -1.5344   -1.3585 H   0  0  0  0  0  0  0  0  0  0  0  0
    3.3979   -1.5895    0.4262 H   0  0  0  0  0  0  0  0  0  0  0  0
    1.2899   -2.2446   -0.3230 H   0  0  0  0  0  0  0  0  0  0  0  0
   -1.1736   -2.4726   -0.1293 H   0  0  0  0  0  0  0  0  0  0  0  0
   -3.7072    4.5998    0.3793 Cl  0  0  0  0  0  0  0  0  0  0  0  0
  1  4  1  0  0  0  0
  1  2  1  0  0  0  0
  2  3  1  0  0  0  0
  5  4  2  0  0  0  0
  6  9  2  0  0  0  0
  6  5  1  0  0  0  0
  7  6  1  0  0  0  0
  8  7  1  0  0  0  0
  8 15  1  0  0  0  0
  9 10  1  0  0  0  0
 10 17  1  0  0  0  0
 10  1  2  0  0  0  0
 11 18  1  0  0  0  0
 12  5  1  0  0  0  0
 13  8  1  0  0  0  0
 14  8  1  0  0  0  0
 16  9  1  0  0  0  0
M  RAD  3   2   2   3   3   4   2
M  END
