Coordinates from ORCA-job 4-MeOPhN2+~Cl-_B3LYPG-6-31G_dp-CH-Scan-d09-49-n800
 OpenBabel11261919403D

 18 17  0  0  0  0  0  0  0  0999 V2000
   -1.4323   -0.3166   -0.0422 C   0  0  0  0  0  0  0  0  0  0  0  0
   -2.7961   -0.4434    0.0659 N   0  0  0  0  0  0  0  0  0  0  0  0
   -3.9147   -0.4863    0.1561 N   0  0  0  0  0  0  0  0  0  0  0  0
   -0.9851    1.0276   -0.0373 C   0  0  0  0  0  0  0  0  0  0  0  0
    0.4161    1.0697   -0.1513 C   0  0  0  0  0  0  0  0  0  0  0  0
    1.2326   -0.0678   -0.2527 C   0  0  0  0  0  0  0  0  0  0  0  0
    2.5631    0.1566   -0.3536 O   0  0  0  0  0  0  0  0  0  0  0  0
    3.4628   -0.9412   -0.4576 C   0  0  0  0  0  0  0  0  0  0  0  0
    0.6772   -1.3812   -0.2476 C   0  0  0  0  0  0  0  0  0  0  0  0
   -0.6851   -1.5220   -0.1406 C   0  0  0  0  0  0  0  0  0  0  0  0
   -2.8988    3.7836    0.2568 H   0  0  0  0  0  0  0  0  0  0  0  0
    0.9401    2.0258   -0.1645 H   0  0  0  0  0  0  0  0  0  0  0  0
    4.4594   -0.5031   -0.5208 H   0  0  0  0  0  0  0  0  0  0  0  0
    3.2729   -1.5349   -1.3600 H   0  0  0  0  0  0  0  0  0  0  0  0
    3.4102   -1.5909    0.4245 H   0  0  0  0  0  0  0  0  0  0  0  0
    1.3067   -2.2584   -0.3253 H   0  0  0  0  0  0  0  0  0  0  0  0
   -1.1557   -2.5022   -0.1326 H   0  0  0  0  0  0  0  0  0  0  0  0
   -3.7440    4.7479    0.3877 Cl  0  0  0  0  0  0  0  0  0  0  0  0
  1  4  1  0  0  0  0
  1  2  1  0  0  0  0
  2  3  1  0  0  0  0
  5  4  2  0  0  0  0
  6  9  2  0  0  0  0
  6  5  1  0  0  0  0
  7  6  1  0  0  0  0
  8  7  1  0  0  0  0
  8 15  1  0  0  0  0
  9 10  1  0  0  0  0
 10 17  1  0  0  0  0
 10  1  2  0  0  0  0
 11 18  1  0  0  0  0
 12  5  1  0  0  0  0
 13  8  1  0  0  0  0
 14  8  1  0  0  0  0
 16  9  1  0  0  0  0
M  RAD  3   2   2   3   3   4   2
M  END
