Coordinates from ORCA-job 4-MeOPhN2+~Cl-_B3LYPG-6-31G_dp-CH-Scan-d09-49-n800
 OpenBabel11261919403D

 18 17  0  0  0  0  0  0  0  0999 V2000
   -1.4039   -0.5327   -0.0588 C   0  0  0  0  0  0  0  0  0  0  0  0
   -2.7642   -0.7159    0.0428 N   0  0  0  0  0  0  0  0  0  0  0  0
   -3.8815   -0.7954    0.1279 N   0  0  0  0  0  0  0  0  0  0  0  0
   -1.0262    0.8310   -0.0513 C   0  0  0  0  0  0  0  0  0  0  0  0
    0.3740    0.9370   -0.1592 C   0  0  0  0  0  0  0  0  0  0  0  0
    1.2429   -0.1605   -0.2587 C   0  0  0  0  0  0  0  0  0  0  0  0
    2.5632    0.1255   -0.3562 O   0  0  0  0  0  0  0  0  0  0  0  0
    3.5117   -0.9298   -0.4595 C   0  0  0  0  0  0  0  0  0  0  0  0
    0.7503   -1.4992   -0.2555 C   0  0  0  0  0  0  0  0  0  0  0  0
   -0.6045   -1.7039   -0.1535 C   0  0  0  0  0  0  0  0  0  0  0  0
   -3.2187    4.6902    0.3250 H   0  0  0  0  0  0  0  0  0  0  0  0
    0.8544    1.9164   -0.1700 H   0  0  0  0  0  0  0  0  0  0  0  0
    4.4875   -0.4472   -0.5237 H   0  0  0  0  0  0  0  0  0  0  0  0
    3.3490   -1.5330   -1.3610 H   0  0  0  0  0  0  0  0  0  0  0  0
    3.4899   -1.5807    0.4233 H   0  0  0  0  0  0  0  0  0  0  0  0
    1.4208   -2.3456   -0.3307 H   0  0  0  0  0  0  0  0  0  0  0  0
   -1.0291   -2.7052   -0.1467 H   0  0  0  0  0  0  0  0  0  0  0  0
   -3.9860    5.7123    0.4707 Cl  0  0  0  0  0  0  0  0  0  0  0  0
  1  4  1  0  0  0  0
  1  2  1  0  0  0  0
  2  3  1  0  0  0  0
  5  4  2  0  0  0  0
  6  9  2  0  0  0  0
  6  5  1  0  0  0  0
  7  6  1  0  0  0  0
  8  7  1  0  0  0  0
  8 15  1  0  0  0  0
  9 10  1  0  0  0  0
 10 17  1  0  0  0  0
 10  1  2  0  0  0  0
 11 18  1  0  0  0  0
 12  5  1  0  0  0  0
 13  8  1  0  0  0  0
 14  8  1  0  0  0  0
 16  9  1  0  0  0  0
M  RAD  3   2   2   3   3   4   2
M  END
