Coordinates from ORCA-job 4-MeOPhN2+~Cl-_B3LYPG-6-31G_dp-CH-Scan-d09-49-n800
 OpenBabel11261919403D

 18 17  0  0  0  0  0  0  0  0999 V2000
   -1.4670   -0.1965   -0.0291 C   0  0  0  0  0  0  0  0  0  0  0  0
   -2.8303   -0.3007    0.0818 N   0  0  0  0  0  0  0  0  0  0  0  0
   -3.9484   -0.3338    0.1744 N   0  0  0  0  0  0  0  0  0  0  0  0
   -0.9811    1.1350   -0.0222 C   0  0  0  0  0  0  0  0  0  0  0  0
    0.4171    1.1526   -0.1387 C   0  0  0  0  0  0  0  0  0  0  0  0
    1.2090   -0.0027   -0.2452 C   0  0  0  0  0  0  0  0  0  0  0  0
    2.5416    0.1942   -0.3478 O   0  0  0  0  0  0  0  0  0  0  0  0
    3.4195   -0.9219   -0.4559 C   0  0  0  0  0  0  0  0  0  0  0  0
    0.6238   -1.3023   -0.2427 C   0  0  0  0  0  0  0  0  0  0  0  0
   -0.7411   -1.4140   -0.1331 C   0  0  0  0  0  0  0  0  0  0  0  0
   -2.5762    3.1980    0.1995 H   0  0  0  0  0  0  0  0  0  0  0  0
    0.9578    2.0986   -0.1499 H   0  0  0  0  0  0  0  0  0  0  0  0
    4.4242   -0.5032   -0.5187 H   0  0  0  0  0  0  0  0  0  0  0  0
    3.2163   -1.5083   -1.3600 H   0  0  0  0  0  0  0  0  0  0  0  0
    3.3537   -1.5722    0.4247 H   0  0  0  0  0  0  0  0  0  0  0  0
    1.2332   -2.1933   -0.3244 H   0  0  0  0  0  0  0  0  0  0  0  0
   -1.2317   -2.3842   -0.1270 H   0  0  0  0  0  0  0  0  0  0  0  0
   -3.4910    4.1181    0.3192 Cl  0  0  0  0  0  0  0  0  0  0  0  0
  1  4  1  0  0  0  0
  1  2  1  0  0  0  0
  2  3  1  0  0  0  0
  5  4  2  0  0  0  0
  6  9  2  0  0  0  0
  6  5  1  0  0  0  0
  7  6  1  0  0  0  0
  8  7  1  0  0  0  0
  8 15  1  0  0  0  0
  9 10  1  0  0  0  0
 10 17  1  0  0  0  0
 10  1  2  0  0  0  0
 11 18  1  0  0  0  0
 12  5  1  0  0  0  0
 13  8  1  0  0  0  0
 14  8  1  0  0  0  0
 16  9  1  0  0  0  0
M  RAD  3   2   2   3   3   4   2
M  END
