Coordinates from ORCA-job 4-MeOPhN2+~Cl-_B3LYPG-6-31G_dp-CH-Scan-d09-49-n800
 OpenBabel11261919403D

 18 17  0  0  0  0  0  0  0  0999 V2000
   -1.4200   -0.3581   -0.0462 C   0  0  0  0  0  0  0  0  0  0  0  0
   -2.7841   -0.4921    0.0610 N   0  0  0  0  0  0  0  0  0  0  0  0
   -3.9028   -0.5371    0.1505 N   0  0  0  0  0  0  0  0  0  0  0  0
   -0.9849    0.9896   -0.0417 C   0  0  0  0  0  0  0  0  0  0  0  0
    0.4168    1.0406   -0.1549 C   0  0  0  0  0  0  0  0  0  0  0  0
    1.2414   -0.0909   -0.2552 C   0  0  0  0  0  0  0  0  0  0  0  0
    2.5708    0.1428   -0.3556 O   0  0  0  0  0  0  0  0  0  0  0  0
    3.4778   -0.9488   -0.4586 C   0  0  0  0  0  0  0  0  0  0  0  0
    0.6957   -1.4085   -0.2495 C   0  0  0  0  0  0  0  0  0  0  0  0
   -0.6657   -1.5590   -0.1433 C   0  0  0  0  0  0  0  0  0  0  0  0
   -3.0037    3.9938    0.2760 H   0  0  0  0  0  0  0  0  0  0  0  0
    0.9348    2.0002   -0.1685 H   0  0  0  0  0  0  0  0  0  0  0  0
    4.4715   -0.5042   -0.5220 H   0  0  0  0  0  0  0  0  0  0  0  0
    3.2922   -1.5447   -1.3605 H   0  0  0  0  0  0  0  0  0  0  0  0
    3.4297   -1.5983    0.4241 H   0  0  0  0  0  0  0  0  0  0  0  0
    1.3317   -2.2811   -0.3263 H   0  0  0  0  0  0  0  0  0  0  0  0
   -1.1296   -2.5425   -0.1348 H   0  0  0  0  0  0  0  0  0  0  0  0
   -3.8423    4.9615    0.4103 Cl  0  0  0  0  0  0  0  0  0  0  0  0
  1  4  1  0  0  0  0
  1  2  1  0  0  0  0
  2  3  1  0  0  0  0
  5  4  2  0  0  0  0
  6  9  2  0  0  0  0
  6  5  1  0  0  0  0
  7  6  1  0  0  0  0
  8  7  1  0  0  0  0
  8 15  1  0  0  0  0
  9 10  1  0  0  0  0
 10 17  1  0  0  0  0
 10  1  2  0  0  0  0
 11 18  1  0  0  0  0
 12  5  1  0  0  0  0
 13  8  1  0  0  0  0
 14  8  1  0  0  0  0
 16  9  1  0  0  0  0
M  RAD  3   2   2   3   3   4   2
M  END
