Coordinates from ORCA-job 4-MeOPhN2+~Cl-_B3LYPG-6-31G_dp-CH-Scan-d09-49-n800
 OpenBabel11261919403D

 18 17  0  0  0  0  0  0  0  0999 V2000
   -1.5199   -0.0757   -0.0169 C   0  0  0  0  0  0  0  0  0  0  0  0
   -2.8853   -0.1451    0.0964 N   0  0  0  0  0  0  0  0  0  0  0  0
   -4.0011   -0.1277    0.1918 N   0  0  0  0  0  0  0  0  0  0  0  0
   -0.9823    1.2331   -0.0118 C   0  0  0  0  0  0  0  0  0  0  0  0
    0.4056    1.2474   -0.1282 C   0  0  0  0  0  0  0  0  0  0  0  0
    1.1743    0.0734   -0.2373 C   0  0  0  0  0  0  0  0  0  0  0  0
    2.5055    0.2463   -0.3409 O   0  0  0  0  0  0  0  0  0  0  0  0
    3.3659   -0.8857   -0.4517 C   0  0  0  0  0  0  0  0  0  0  0  0
    0.5594   -1.2098   -0.2351 C   0  0  0  0  0  0  0  0  0  0  0  0
   -0.8091   -1.2969   -0.1237 C   0  0  0  0  0  0  0  0  0  0  0  0
   -2.0789    2.4796    0.1266 H   0  0  0  0  0  0  0  0  0  0  0  0
    0.9502    2.1892   -0.1374 H   0  0  0  0  0  0  0  0  0  0  0  0
    4.3764   -0.4821   -0.5147 H   0  0  0  0  0  0  0  0  0  0  0  0
    3.1503   -1.4650   -1.3569 H   0  0  0  0  0  0  0  0  0  0  0  0
    3.2883   -1.5340    0.4289 H   0  0  0  0  0  0  0  0  0  0  0  0
    1.1491   -2.1136   -0.3188 H   0  0  0  0  0  0  0  0  0  0  0  0
   -1.3158   -2.2578   -0.1183 H   0  0  0  0  0  0  0  0  0  0  0  0
   -3.2033    3.3880    0.2528 Cl  0  0  0  0  0  0  0  0  0  0  0  0
  1  4  1  0  0  0  0
  1  2  1  0  0  0  0
  2  3  1  0  0  0  0
  5  4  2  0  0  0  0
  6  9  2  0  0  0  0
  6  5  1  0  0  0  0
  7  6  1  0  0  0  0
  8  7  1  0  0  0  0
  8 15  1  0  0  0  0
  9 10  1  0  0  0  0
 10 17  1  0  0  0  0
 10  1  2  0  0  0  0
 11 18  1  0  0  0  0
 12  5  1  0  0  0  0
 13  8  1  0  0  0  0
 14  8  1  0  0  0  0
 16  9  1  0  0  0  0
M  RAD  3   2   2   3   3   4   2
M  END
