Coordinates from ORCA-job 4-MeOPhN2+~Cl-_B3LYPG-6-31G_dp-CH-Scan-d09-49-n800
 OpenBabel11261919403D

 18 17  0  0  0  0  0  0  0  0999 V2000
   -1.5161   -0.0731   -0.0189 C   0  0  0  0  0  0  0  0  0  0  0  0
   -2.9043   -0.0890    0.0976 N   0  0  0  0  0  0  0  0  0  0  0  0
   -3.9221    0.4006    0.2028 N   0  0  0  0  0  0  0  0  0  0  0  0
   -0.9480    1.2108   -0.0168 C   0  0  0  0  0  0  0  0  0  0  0  0
    0.4316    1.2551   -0.1300 C   0  0  0  0  0  0  0  0  0  0  0  0
    1.1919    0.0716   -0.2386 C   0  0  0  0  0  0  0  0  0  0  0  0
    2.5255    0.2440   -0.3415 O   0  0  0  0  0  0  0  0  0  0  0  0
    3.3772   -0.8934   -0.4518 C   0  0  0  0  0  0  0  0  0  0  0  0
    0.5680   -1.2000   -0.2361 C   0  0  0  0  0  0  0  0  0  0  0  0
   -0.8084   -1.2804   -0.1247 C   0  0  0  0  0  0  0  0  0  0  0  0
   -2.0025    2.2987    0.1143 H   0  0  0  0  0  0  0  0  0  0  0  0
    0.9699    2.1988   -0.1379 H   0  0  0  0  0  0  0  0  0  0  0  0
    4.3911   -0.4980   -0.5148 H   0  0  0  0  0  0  0  0  0  0  0  0
    3.1570   -1.4721   -1.3566 H   0  0  0  0  0  0  0  0  0  0  0  0
    3.2942   -1.5416    0.4286 H   0  0  0  0  0  0  0  0  0  0  0  0
    1.1521   -2.1075   -0.3192 H   0  0  0  0  0  0  0  0  0  0  0  0
   -1.3194   -2.2383   -0.1193 H   0  0  0  0  0  0  0  0  0  0  0  0
   -3.5082    2.9770    0.2678 Cl  0  0  0  0  0  0  0  0  0  0  0  0
  1  4  1  0  0  0  0
  1  2  1  0  0  0  0
  2  3  2  0  0  0  0
  5  4  2  0  0  0  0
  6  9  2  0  0  0  0
  6  5  1  0  0  0  0
  7  6  1  0  0  0  0
  8  7  1  0  0  0  0
  8 15  1  0  0  0  0
  9 10  1  0  0  0  0
 10 17  1  0  0  0  0
 10  1  2  0  0  0  0
 11 18  1  0  0  0  0
 12  5  1  0  0  0  0
 13  8  1  0  0  0  0
 14  8  1  0  0  0  0
 16  9  1  0  0  0  0
M  RAD  2   3   2   4   2
M  END
