Coordinates from ORCA-job 4-MeOPhN2+~Cl-_B3LYPG-6-31G_dp-CH-Scan-d09-49-n800
 OpenBabel11261919403D

 18 17  0  0  0  0  0  0  0  0999 V2000
   -1.5489   -0.0032   -0.0147 C   0  0  0  0  0  0  0  0  0  0  0  0
   -2.9362   -0.1142    0.0972 N   0  0  0  0  0  0  0  0  0  0  0  0
   -3.9426    0.4613    0.2063 N   0  0  0  0  0  0  0  0  0  0  0  0
   -0.8983    1.2439   -0.0215 C   0  0  0  0  0  0  0  0  0  0  0  0
    0.4760    1.2818   -0.1342 C   0  0  0  0  0  0  0  0  0  0  0  0
    1.2154    0.0852   -0.2404 C   0  0  0  0  0  0  0  0  0  0  0  0
    2.5520    0.2382   -0.3441 O   0  0  0  0  0  0  0  0  0  0  0  0
    3.3777   -0.9185   -0.4518 C   0  0  0  0  0  0  0  0  0  0  0  0
    0.5578   -1.1594   -0.2335 C   0  0  0  0  0  0  0  0  0  0  0  0
   -0.8249   -1.1987   -0.1206 C   0  0  0  0  0  0  0  0  0  0  0  0
   -1.6292    2.2843    0.0795 H   0  0  0  0  0  0  0  0  0  0  0  0
    1.0152    2.2226   -0.1430 H   0  0  0  0  0  0  0  0  0  0  0  0
    4.4003   -0.5468   -0.5172 H   0  0  0  0  0  0  0  0  0  0  0  0
    3.1422   -1.4947   -1.3544 H   0  0  0  0  0  0  0  0  0  0  0  0
    3.2797   -1.5618    0.4306 H   0  0  0  0  0  0  0  0  0  0  0  0
    1.1129   -2.0853   -0.3145 H   0  0  0  0  0  0  0  0  0  0  0  0
   -1.3548   -2.1455   -0.1130 H   0  0  0  0  0  0  0  0  0  0  0  0
   -3.8650    2.6740    0.2942 Cl  0  0  0  0  0  0  0  0  0  0  0  0
  1  2  1  0  0  0  0
  2  3  2  0  0  0  0
  4  1  1  0  0  0  0
  4 11  1  0  0  0  0
  5  4  2  0  0  0  0
  6  9  2  0  0  0  0
  6  5  1  0  0  0  0
  7  6  1  0  0  0  0
  8  7  1  0  0  0  0
  8 15  1  0  0  0  0
  9 10  1  0  0  0  0
 10 17  1  0  0  0  0
 10  1  2  0  0  0  0
 12  5  1  0  0  0  0
 13  8  1  0  0  0  0
 14  8  1  0  0  0  0
 16  9  1  0  0  0  0
M  RAD  2   3   2  18   2
M  END
