Coordinates from ORCA-job 4-MeOPhN2+~Cl-_B3LYPG-6-31G_dp-CH-Scan-d09-49-n800
 OpenBabel11261919403D

 18 17  0  0  0  0  0  0  0  0999 V2000
   -1.4054   -0.4637   -0.0560 C   0  0  0  0  0  0  0  0  0  0  0  0
   -2.7681   -0.6245    0.0478 N   0  0  0  0  0  0  0  0  0  0  0  0
   -3.8863   -0.6869    0.1344 N   0  0  0  0  0  0  0  0  0  0  0  0
   -1.0038    0.8936   -0.0527 C   0  0  0  0  0  0  0  0  0  0  0  0
    0.3976    0.9753   -0.1625 C   0  0  0  0  0  0  0  0  0  0  0  0
    1.2476   -0.1373   -0.2594 C   0  0  0  0  0  0  0  0  0  0  0  0
    2.5723    0.1260   -0.3582 O   0  0  0  0  0  0  0  0  0  0  0  0
    3.5030   -0.9454   -0.4588 C   0  0  0  0  0  0  0  0  0  0  0  0
    0.7321   -1.4672   -0.2523 C   0  0  0  0  0  0  0  0  0  0  0  0
   -0.6258   -1.6484   -0.1486 C   0  0  0  0  0  0  0  0  0  0  0  0
   -3.1653    4.4457    0.3125 H   0  0  0  0  0  0  0  0  0  0  0  0
    0.8946    1.9462   -0.1766 H   0  0  0  0  0  0  0  0  0  0  0  0
    4.4868   -0.4794   -0.5233 H   0  0  0  0  0  0  0  0  0  0  0  0
    3.3306   -1.5475   -1.3593 H   0  0  0  0  0  0  0  0  0  0  0  0
    3.4695   -1.5941    0.4252 H   0  0  0  0  0  0  0  0  0  0  0  0
    1.3881   -2.3252   -0.3259 H   0  0  0  0  0  0  0  0  0  0  0  0
   -1.0675   -2.6422   -0.1390 H   0  0  0  0  0  0  0  0  0  0  0  0
   -3.9706    5.4384    0.4577 Cl  0  0  0  0  0  0  0  0  0  0  0  0
  1  4  1  0  0  0  0
  1  2  1  0  0  0  0
  2  3  1  0  0  0  0
  5  4  2  0  0  0  0
  6  9  2  0  0  0  0
  6  5  1  0  0  0  0
  7  6  1  0  0  0  0
  8  7  1  0  0  0  0
  8 15  1  0  0  0  0
  9 10  1  0  0  0  0
 10 17  1  0  0  0  0
 10  1  2  0  0  0  0
 11 18  1  0  0  0  0
 12  5  1  0  0  0  0
 13  8  1  0  0  0  0
 14  8  1  0  0  0  0
 16  9  1  0  0  0  0
M  RAD  3   2   2   3   3   4   2
M  END
