Coordinates from ORCA-job 4-MeOPhN2+~Cl-_B3LYPG-6-31G_dp-CH-Scan-d09-49-n800
 OpenBabel11261919403D

 18 17  0  0  0  0  0  0  0  0999 V2000
   -1.4374   -0.2774   -0.0410 C   0  0  0  0  0  0  0  0  0  0  0  0
   -2.8015   -0.3942    0.0678 N   0  0  0  0  0  0  0  0  0  0  0  0
   -3.9202   -0.4308    0.1584 N   0  0  0  0  0  0  0  0  0  0  0  0
   -0.9768    1.0625   -0.0388 C   0  0  0  0  0  0  0  0  0  0  0  0
    0.4240    1.0938   -0.1533 C   0  0  0  0  0  0  0  0  0  0  0  0
    1.2309   -0.0509   -0.2529 C   0  0  0  0  0  0  0  0  0  0  0  0
    2.5627    0.1623   -0.3544 O   0  0  0  0  0  0  0  0  0  0  0  0
    3.4536   -0.9432   -0.4563 C   0  0  0  0  0  0  0  0  0  0  0  0
    0.6641   -1.3592   -0.2453 C   0  0  0  0  0  0  0  0  0  0  0  0
   -0.6993   -1.4884   -0.1376 C   0  0  0  0  0  0  0  0  0  0  0  0
   -2.8336    3.6256    0.2467 H   0  0  0  0  0  0  0  0  0  0  0  0
    0.9550    2.0457   -0.1684 H   0  0  0  0  0  0  0  0  0  0  0  0
    4.4537   -0.5133   -0.5201 H   0  0  0  0  0  0  0  0  0  0  0  0
    3.2589   -1.5368   -1.3577 H   0  0  0  0  0  0  0  0  0  0  0  0
    3.3954   -1.5907    0.4271 H   0  0  0  0  0  0  0  0  0  0  0  0
    1.2861   -2.2420   -0.3216 H   0  0  0  0  0  0  0  0  0  0  0  0
   -1.1778   -2.4648   -0.1278 H   0  0  0  0  0  0  0  0  0  0  0  0
   -3.7084    4.5652    0.3799 Cl  0  0  0  0  0  0  0  0  0  0  0  0
  1  4  1  0  0  0  0
  1  2  1  0  0  0  0
  2  3  1  0  0  0  0
  5  4  2  0  0  0  0
  6  9  2  0  0  0  0
  6  5  1  0  0  0  0
  7  6  1  0  0  0  0
  8  7  1  0  0  0  0
  8 15  1  0  0  0  0
  9 10  1  0  0  0  0
 10 17  1  0  0  0  0
 10  1  2  0  0  0  0
 11 18  1  0  0  0  0
 12  5  1  0  0  0  0
 13  8  1  0  0  0  0
 14  8  1  0  0  0  0
 16  9  1  0  0  0  0
M  RAD  3   2   2   3   3   4   2
M  END
