Coordinates from ORCA-job 4-MeOPhN2+~Cl-_B3LYPG-6-31G_dp-CH-Scan-d09-49-n800
 OpenBabel11261919403D

 18 17  0  0  0  0  0  0  0  0999 V2000
   -1.4307   -0.3209   -0.0425 C   0  0  0  0  0  0  0  0  0  0  0  0
   -2.7946   -0.4482    0.0655 N   0  0  0  0  0  0  0  0  0  0  0  0
   -3.9133   -0.4908    0.1558 N   0  0  0  0  0  0  0  0  0  0  0  0
   -0.9846    1.0236   -0.0376 C   0  0  0  0  0  0  0  0  0  0  0  0
    0.4167    1.0666   -0.1516 C   0  0  0  0  0  0  0  0  0  0  0  0
    1.2339   -0.0704   -0.2530 C   0  0  0  0  0  0  0  0  0  0  0  0
    2.5643    0.1548   -0.3539 O   0  0  0  0  0  0  0  0  0  0  0  0
    3.4646   -0.9424   -0.4578 C   0  0  0  0  0  0  0  0  0  0  0  0
    0.6793   -1.3841   -0.2479 C   0  0  0  0  0  0  0  0  0  0  0  0
   -0.6829   -1.5259   -0.1410 C   0  0  0  0  0  0  0  0  0  0  0  0
   -2.9120    3.8064    0.2590 H   0  0  0  0  0  0  0  0  0  0  0  0
    0.9401    2.0230   -0.1648 H   0  0  0  0  0  0  0  0  0  0  0  0
    4.4609   -0.5038   -0.5210 H   0  0  0  0  0  0  0  0  0  0  0  0
    3.2751   -1.5363   -1.3602 H   0  0  0  0  0  0  0  0  0  0  0  0
    3.4124   -1.5922    0.4244 H   0  0  0  0  0  0  0  0  0  0  0  0
    1.3095   -2.2609   -0.3256 H   0  0  0  0  0  0  0  0  0  0  0  0
   -1.1529   -2.5065   -0.1330 H   0  0  0  0  0  0  0  0  0  0  0  0
   -3.7563    4.7712    0.3900 Cl  0  0  0  0  0  0  0  0  0  0  0  0
  1  4  1  0  0  0  0
  1  2  1  0  0  0  0
  2  3  1  0  0  0  0
  5  4  2  0  0  0  0
  6  9  2  0  0  0  0
  6  5  1  0  0  0  0
  7  6  1  0  0  0  0
  8  7  1  0  0  0  0
  8 15  1  0  0  0  0
  9 10  1  0  0  0  0
 10 17  1  0  0  0  0
 10  1  2  0  0  0  0
 11 18  1  0  0  0  0
 12  5  1  0  0  0  0
 13  8  1  0  0  0  0
 14  8  1  0  0  0  0
 16  9  1  0  0  0  0
M  RAD  3   2   2   3   3   4   2
M  END
