Coordinates from ORCA-job 4-MeOPhN2+~Cl-_B3LYPG-6-31G_dp-CH-Scan-d09-49-n800
 OpenBabel11261919403D

 18 17  0  0  0  0  0  0  0  0999 V2000
   -1.4061   -0.5877   -0.0724 C   0  0  0  0  0  0  0  0  0  0  0  0
   -2.7644   -0.7895    0.0264 N   0  0  0  0  0  0  0  0  0  0  0  0
   -3.8807   -0.8827    0.1113 N   0  0  0  0  0  0  0  0  0  0  0  0
   -1.0499    0.7813   -0.0791 C   0  0  0  0  0  0  0  0  0  0  0  0
    0.3489    0.9089   -0.1837 C   0  0  0  0  0  0  0  0  0  0  0  0
    1.2352   -0.1761   -0.2672 C   0  0  0  0  0  0  0  0  0  0  0  0
    2.5513    0.1291   -0.3636 O   0  0  0  0  0  0  0  0  0  0  0  0
    3.5162   -0.9125   -0.4523 C   0  0  0  0  0  0  0  0  0  0  0  0
    0.7634   -1.5222   -0.2502 C   0  0  0  0  0  0  0  0  0  0  0  0
   -0.5885   -1.7473   -0.1508 C   0  0  0  0  0  0  0  0  0  0  0  0
   -3.2437    4.8636    0.3544 H   0  0  0  0  0  0  0  0  0  0  0  0
    0.8140    1.8954   -0.2042 H   0  0  0  0  0  0  0  0  0  0  0  0
    4.4845   -0.4157   -0.5207 H   0  0  0  0  0  0  0  0  0  0  0  0
    3.3645   -1.5292   -1.3466 H   0  0  0  0  0  0  0  0  0  0  0  0
    3.5029   -1.5528    0.4384 H   0  0  0  0  0  0  0  0  0  0  0  0
    1.4474   -2.3588   -0.3133 H   0  0  0  0  0  0  0  0  0  0  0  0
   -0.9972   -2.7551   -0.1341 H   0  0  0  0  0  0  0  0  0  0  0  0
   -3.9683    5.9146    0.5126 Cl  0  0  0  0  0  0  0  0  0  0  0  0
  1  2  1  0  0  0  0
  2  3  1  0  0  0  0
  4  1  1  0  0  0  0
  5  4  2  0  0  0  0
  6  9  2  0  0  0  0
  6  5  1  0  0  0  0
  7  6  1  0  0  0  0
  8  7  1  0  0  0  0
  8 15  1  0  0  0  0
  9 10  1  0  0  0  0
 10 17  1  0  0  0  0
 10  1  2  0  0  0  0
 11 18  1  0  0  0  0
 12  5  1  0  0  0  0
 13  8  1  0  0  0  0
 14  8  1  0  0  0  0
 16  9  1  0  0  0  0
M  RAD  3   2   2   3   3   4   2
M  END
