Coordinates from ORCA-job 4-MeOPhN2+~Cl-_B3LYPG-6-31G_dp-CH-Scan-d09-49-n800
 OpenBabel11261919403D

 18 17  0  0  0  0  0  0  0  0999 V2000
   -1.4822   -0.1494   -0.0245 C   0  0  0  0  0  0  0  0  0  0  0  0
   -2.8459   -0.2424    0.0874 N   0  0  0  0  0  0  0  0  0  0  0  0
   -3.9638   -0.2651    0.1810 N   0  0  0  0  0  0  0  0  0  0  0  0
   -0.9804    1.1760   -0.0175 C   0  0  0  0  0  0  0  0  0  0  0  0
    0.4158    1.1865   -0.1347 C   0  0  0  0  0  0  0  0  0  0  0  0
    1.1982    0.0241   -0.2424 C   0  0  0  0  0  0  0  0  0  0  0  0
    2.5312    0.2107   -0.3456 O   0  0  0  0  0  0  0  0  0  0  0  0
    3.4011   -0.9121   -0.4546 C   0  0  0  0  0  0  0  0  0  0  0  0
    0.6016   -1.2698   -0.2404 C   0  0  0  0  0  0  0  0  0  0  0  0
   -0.7644   -1.3707   -0.1299 C   0  0  0  0  0  0  0  0  0  0  0  0
   -2.4274    2.9555    0.1758 H   0  0  0  0  0  0  0  0  0  0  0  0
    0.9616    2.1291   -0.1453 H   0  0  0  0  0  0  0  0  0  0  0  0
    4.4086   -0.5005   -0.5175 H   0  0  0  0  0  0  0  0  0  0  0  0
    3.1929   -1.4960   -1.3591 H   0  0  0  0  0  0  0  0  0  0  0  0
    3.3303   -1.5620    0.4258 H   0  0  0  0  0  0  0  0  0  0  0  0
    1.2032   -2.1659   -0.3231 H   0  0  0  0  0  0  0  0  0  0  0  0
   -1.2623   -2.3369   -0.1242 H   0  0  0  0  0  0  0  0  0  0  0  0
   -3.3888    3.8523    0.2937 Cl  0  0  0  0  0  0  0  0  0  0  0  0
  1  4  1  0  0  0  0
  1  2  1  0  0  0  0
  2  3  1  0  0  0  0
  5  4  2  0  0  0  0
  6  9  2  0  0  0  0
  6  5  1  0  0  0  0
  7  6  1  0  0  0  0
  8  7  1  0  0  0  0
  8 15  1  0  0  0  0
  9 10  1  0  0  0  0
 10 17  1  0  0  0  0
 10  1  2  0  0  0  0
 11 18  1  0  0  0  0
 12  5  1  0  0  0  0
 13  8  1  0  0  0  0
 14  8  1  0  0  0  0
 16  9  1  0  0  0  0
M  RAD  3   2   2   3   3   4   2
M  END
