Coordinates from ORCA-job 4-MeOPhN2+~Cl-_B3LYPG-6-31G_dp-CH-Scan-d09-49-n800
 OpenBabel11261919403D

 18 17  0  0  0  0  0  0  0  0999 V2000
   -1.4094   -0.4293   -0.0531 C   0  0  0  0  0  0  0  0  0  0  0  0
   -2.7728   -0.5810    0.0519 N   0  0  0  0  0  0  0  0  0  0  0  0
   -3.8912   -0.6369    0.1395 N   0  0  0  0  0  0  0  0  0  0  0  0
   -0.9969    0.9249   -0.0496 C   0  0  0  0  0  0  0  0  0  0  0  0
    0.4048    0.9962   -0.1606 C   0  0  0  0  0  0  0  0  0  0  0  0
    1.2464   -0.1228   -0.2583 C   0  0  0  0  0  0  0  0  0  0  0  0
    2.5728    0.1306   -0.3576 O   0  0  0  0  0  0  0  0  0  0  0  0
    3.4955   -0.9476   -0.4587 C   0  0  0  0  0  0  0  0  0  0  0  0
    0.7208   -1.4487   -0.2514 C   0  0  0  0  0  0  0  0  0  0  0  0
   -0.6384   -1.6197   -0.1469 C   0  0  0  0  0  0  0  0  0  0  0  0
   -3.1175    4.3029    0.3016 H   0  0  0  0  0  0  0  0  0  0  0  0
    0.9089    1.9633   -0.1748 H   0  0  0  0  0  0  0  0  0  0  0  0
    4.4827   -0.4888   -0.5228 H   0  0  0  0  0  0  0  0  0  0  0  0
    3.3188   -1.5479   -1.3596 H   0  0  0  0  0  0  0  0  0  0  0  0
    3.4571   -1.5965    0.4250 H   0  0  0  0  0  0  0  0  0  0  0  0
    1.3702   -2.3116   -0.3258 H   0  0  0  0  0  0  0  0  0  0  0  0
   -1.0876   -2.6101   -0.1374 H   0  0  0  0  0  0  0  0  0  0  0  0
   -3.9347    5.2865    0.4435 Cl  0  0  0  0  0  0  0  0  0  0  0  0
  1  4  1  0  0  0  0
  1  2  1  0  0  0  0
  2  3  1  0  0  0  0
  5  4  2  0  0  0  0
  6  9  2  0  0  0  0
  6  5  1  0  0  0  0
  7  6  1  0  0  0  0
  8  7  1  0  0  0  0
  8 15  1  0  0  0  0
  9 10  1  0  0  0  0
 10 17  1  0  0  0  0
 10  1  2  0  0  0  0
 11 18  1  0  0  0  0
 12  5  1  0  0  0  0
 13  8  1  0  0  0  0
 14  8  1  0  0  0  0
 16  9  1  0  0  0  0
M  RAD  3   2   2   3   3   4   2
M  END
