Coordinates from ORCA-job 4-MeOPhN2+~Cl-_B3LYPG-6-31G_dp-CH-Scan-d09-49-n800
 OpenBabel11261919403D

 18 17  0  0  0  0  0  0  0  0999 V2000
   -1.5218   -0.0716   -0.0168 C   0  0  0  0  0  0  0  0  0  0  0  0
   -2.8876   -0.1370    0.0967 N   0  0  0  0  0  0  0  0  0  0  0  0
   -4.0029   -0.1088    0.1925 N   0  0  0  0  0  0  0  0  0  0  0  0
   -0.9804    1.2353   -0.0123 C   0  0  0  0  0  0  0  0  0  0  0  0
    0.4064    1.2510   -0.1285 C   0  0  0  0  0  0  0  0  0  0  0  0
    1.1739    0.0759   -0.2373 C   0  0  0  0  0  0  0  0  0  0  0  0
    2.5049    0.2478   -0.3409 O   0  0  0  0  0  0  0  0  0  0  0  0
    3.3646   -0.8850   -0.4514 C   0  0  0  0  0  0  0  0  0  0  0  0
    0.5574   -1.2062   -0.2348 C   0  0  0  0  0  0  0  0  0  0  0  0
   -0.8115   -1.2923   -0.1233 C   0  0  0  0  0  0  0  0  0  0  0  0
   -2.0545    2.4484    0.1235 H   0  0  0  0  0  0  0  0  0  0  0  0
    0.9503    2.1930   -0.1377 H   0  0  0  0  0  0  0  0  0  0  0  0
    4.3753   -0.4820   -0.5145 H   0  0  0  0  0  0  0  0  0  0  0  0
    3.1484   -1.4642   -1.3566 H   0  0  0  0  0  0  0  0  0  0  0  0
    3.2864   -1.5329    0.4293 H   0  0  0  0  0  0  0  0  0  0  0  0
    1.1461   -2.1107   -0.3183 H   0  0  0  0  0  0  0  0  0  0  0  0
   -1.3187   -2.2528   -0.1177 H   0  0  0  0  0  0  0  0  0  0  0  0
   -3.2070    3.3553    0.2528 Cl  0  0  0  0  0  0  0  0  0  0  0  0
  1  4  1  0  0  0  0
  1  2  1  0  0  0  0
  2  3  1  0  0  0  0
  5  4  2  0  0  0  0
  6  9  2  0  0  0  0
  6  5  1  0  0  0  0
  7  6  1  0  0  0  0
  8  7  1  0  0  0  0
  8 15  1  0  0  0  0
  9 10  1  0  0  0  0
 10 17  1  0  0  0  0
 10  1  2  0  0  0  0
 11 18  1  0  0  0  0
 12  5  1  0  0  0  0
 13  8  1  0  0  0  0
 14  8  1  0  0  0  0
 16  9  1  0  0  0  0
M  RAD  3   2   2   3   3   4   2
M  END
