Coordinates from ORCA-job 4-MeOPhN2+~Cl-_B3LYPG-6-31G_dp-CH-Scan-d09-49-n800
 OpenBabel11261919403D

 18 17  0  0  0  0  0  0  0  0999 V2000
   -1.4045   -0.4797   -0.0570 C   0  0  0  0  0  0  0  0  0  0  0  0
   -2.7668   -0.6451    0.0462 N   0  0  0  0  0  0  0  0  0  0  0  0
   -3.8850   -0.7102    0.1324 N   0  0  0  0  0  0  0  0  0  0  0  0
   -1.0083    0.8789   -0.0533 C   0  0  0  0  0  0  0  0  0  0  0  0
    0.3930    0.9661   -0.1626 C   0  0  0  0  0  0  0  0  0  0  0  0
    1.2472   -0.1432   -0.2596 C   0  0  0  0  0  0  0  0  0  0  0  0
    2.5710    0.1251   -0.3582 O   0  0  0  0  0  0  0  0  0  0  0  0
    3.5056   -0.9428   -0.4589 C   0  0  0  0  0  0  0  0  0  0  0  0
    0.7368   -1.4751   -0.2528 C   0  0  0  0  0  0  0  0  0  0  0  0
   -0.6205   -1.6616   -0.1496 C   0  0  0  0  0  0  0  0  0  0  0  0
   -3.1811    4.5059    0.3164 H   0  0  0  0  0  0  0  0  0  0  0  0
    0.8863    1.9389   -0.1763 H   0  0  0  0  0  0  0  0  0  0  0  0
    4.4877   -0.4732   -0.5234 H   0  0  0  0  0  0  0  0  0  0  0  0
    3.3354   -1.5455   -1.3594 H   0  0  0  0  0  0  0  0  0  0  0  0
    3.4747   -1.5917    0.4251 H   0  0  0  0  0  0  0  0  0  0  0  0
    1.3960   -2.3305   -0.3264 H   0  0  0  0  0  0  0  0  0  0  0  0
   -1.0584   -2.6570   -0.1402 H   0  0  0  0  0  0  0  0  0  0  0  0
   -3.9796    5.5038    0.4624 Cl  0  0  0  0  0  0  0  0  0  0  0  0
  1  4  1  0  0  0  0
  1  2  1  0  0  0  0
  2  3  1  0  0  0  0
  5  4  2  0  0  0  0
  6  9  2  0  0  0  0
  6  5  1  0  0  0  0
  7  6  1  0  0  0  0
  8  7  1  0  0  0  0
  8 15  1  0  0  0  0
  9 10  1  0  0  0  0
 10 17  1  0  0  0  0
 10  1  2  0  0  0  0
 11 18  1  0  0  0  0
 12  5  1  0  0  0  0
 13  8  1  0  0  0  0
 14  8  1  0  0  0  0
 16  9  1  0  0  0  0
M  RAD  3   2   2   3   3   4   2
M  END
