Coordinates from ORCA-job 4-MeOPhN2+~Cl-_B3LYPG-6-31G_dp-CH-Scan-d09-49-n800
 OpenBabel11261919403D

 18 17  0  0  0  0  0  0  0  0999 V2000
   -1.4039   -0.5261   -0.0586 C   0  0  0  0  0  0  0  0  0  0  0  0
   -2.7645   -0.7071    0.0431 N   0  0  0  0  0  0  0  0  0  0  0  0
   -3.8819   -0.7848    0.1282 N   0  0  0  0  0  0  0  0  0  0  0  0
   -1.0239    0.8370   -0.0518 C   0  0  0  0  0  0  0  0  0  0  0  0
    0.3765    0.9406   -0.1599 C   0  0  0  0  0  0  0  0  0  0  0  0
    1.2436   -0.1585   -0.2589 C   0  0  0  0  0  0  0  0  0  0  0  0
    2.5643    0.1253   -0.3566 O   0  0  0  0  0  0  0  0  0  0  0  0
    3.5111   -0.9316   -0.4594 C   0  0  0  0  0  0  0  0  0  0  0  0
    0.7487   -1.4963   -0.2551 C   0  0  0  0  0  0  0  0  0  0  0  0
   -0.6065   -1.6987   -0.1529 C   0  0  0  0  0  0  0  0  0  0  0  0
   -3.2145    4.6684    0.3242 H   0  0  0  0  0  0  0  0  0  0  0  0
    0.8586    1.9191   -0.1712 H   0  0  0  0  0  0  0  0  0  0  0  0
    4.4877   -0.4507   -0.5237 H   0  0  0  0  0  0  0  0  0  0  0  0
    3.3474   -1.5349   -1.3607 H   0  0  0  0  0  0  0  0  0  0  0  0
    3.4881   -1.5822    0.4237 H   0  0  0  0  0  0  0  0  0  0  0  0
    1.4178   -2.3439   -0.3300 H   0  0  0  0  0  0  0  0  0  0  0  0
   -1.0328   -2.6992   -0.1457 H   0  0  0  0  0  0  0  0  0  0  0  0
   -3.9865    5.6869    0.4701 Cl  0  0  0  0  0  0  0  0  0  0  0  0
  1  4  1  0  0  0  0
  1  2  1  0  0  0  0
  2  3  1  0  0  0  0
  5  4  2  0  0  0  0
  6  9  2  0  0  0  0
  6  5  1  0  0  0  0
  7  6  1  0  0  0  0
  8  7  1  0  0  0  0
  8 15  1  0  0  0  0
  9 10  1  0  0  0  0
 10 17  1  0  0  0  0
 10  1  2  0  0  0  0
 11 18  1  0  0  0  0
 12  5  1  0  0  0  0
 13  8  1  0  0  0  0
 14  8  1  0  0  0  0
 16  9  1  0  0  0  0
M  RAD  3   2   2   3   3   4   2
M  END
