Coordinates from ORCA-job 4-MeOPhN2+~Cl-_B3LYPG-6-31G_dp-CH-Scan-d09-49-n800
 OpenBabel11261919403D

 18 17  0  0  0  0  0  0  0  0999 V2000
   -1.4060   -0.5838   -0.0712 C   0  0  0  0  0  0  0  0  0  0  0  0
   -2.7645   -0.7842    0.0279 N   0  0  0  0  0  0  0  0  0  0  0  0
   -3.8809   -0.8764    0.1121 N   0  0  0  0  0  0  0  0  0  0  0  0
   -1.0482    0.7849   -0.0769 C   0  0  0  0  0  0  0  0  0  0  0  0
    0.3506    0.9110   -0.1818 C   0  0  0  0  0  0  0  0  0  0  0  0
    1.2357   -0.1749   -0.2666 C   0  0  0  0  0  0  0  0  0  0  0  0
    2.5521    0.1289   -0.3630 O   0  0  0  0  0  0  0  0  0  0  0  0
    3.5158   -0.9137   -0.4528 C   0  0  0  0  0  0  0  0  0  0  0  0
    0.7624   -1.5205   -0.2506 C   0  0  0  0  0  0  0  0  0  0  0  0
   -0.5896   -1.7442   -0.1510 C   0  0  0  0  0  0  0  0  0  0  0  0
   -3.2417    4.8508    0.3522 H   0  0  0  0  0  0  0  0  0  0  0  0
    0.8168    1.8970   -0.2017 H   0  0  0  0  0  0  0  0  0  0  0  0
    4.4847   -0.4179   -0.5209 H   0  0  0  0  0  0  0  0  0  0  0  0
    3.3633   -1.5293   -1.3477 H   0  0  0  0  0  0  0  0  0  0  0  0
    3.5020   -1.5548    0.4373 H   0  0  0  0  0  0  0  0  0  0  0  0
    1.4454   -2.3578   -0.3147 H   0  0  0  0  0  0  0  0  0  0  0  0
   -0.9995   -2.7515   -0.1350 H   0  0  0  0  0  0  0  0  0  0  0  0
   -3.9691    5.8998    0.5093 Cl  0  0  0  0  0  0  0  0  0  0  0  0
  1  2  1  0  0  0  0
  2  3  1  0  0  0  0
  4  1  1  0  0  0  0
  5  4  2  0  0  0  0
  6  9  2  0  0  0  0
  6  5  1  0  0  0  0
  7  6  1  0  0  0  0
  8  7  1  0  0  0  0
  8 15  1  0  0  0  0
  9 10  1  0  0  0  0
 10 17  1  0  0  0  0
 10  1  2  0  0  0  0
 11 18  1  0  0  0  0
 12  5  1  0  0  0  0
 13  8  1  0  0  0  0
 14  8  1  0  0  0  0
 16  9  1  0  0  0  0
M  RAD  3   2   2   3   3   4   2
M  END
