Coordinates from ORCA-job 4-MeOPhN2+~Cl-_B3LYPG-6-31G_dp-CH-Scan-d09-49-n800
 OpenBabel11261919403D

 18 17  0  0  0  0  0  0  0  0999 V2000
   -1.4935   -0.1285   -0.0217 C   0  0  0  0  0  0  0  0  0  0  0  0
   -2.8573   -0.2176    0.0906 N   0  0  0  0  0  0  0  0  0  0  0  0
   -3.9748   -0.2360    0.1845 N   0  0  0  0  0  0  0  0  0  0  0  0
   -0.9842    1.1938   -0.0144 C   0  0  0  0  0  0  0  0  0  0  0  0
    0.4104    1.2036   -0.1317 C   0  0  0  0  0  0  0  0  0  0  0  0
    1.1896    0.0387   -0.2405 C   0  0  0  0  0  0  0  0  0  0  0  0
    2.5223    0.2221   -0.3438 O   0  0  0  0  0  0  0  0  0  0  0  0
    3.3898   -0.9029   -0.4539 C   0  0  0  0  0  0  0  0  0  0  0  0
    0.5889   -1.2529   -0.2390 C   0  0  0  0  0  0  0  0  0  0  0  0
   -0.7776   -1.3503   -0.1282 C   0  0  0  0  0  0  0  0  0  0  0  0
   -2.3325    2.8223    0.1616 H   0  0  0  0  0  0  0  0  0  0  0  0
    0.9567    2.1456   -0.1416 H   0  0  0  0  0  0  0  0  0  0  0  0
    4.3982   -0.4932   -0.5166 H   0  0  0  0  0  0  0  0  0  0  0  0
    3.1799   -1.4853   -1.3588 H   0  0  0  0  0  0  0  0  0  0  0  0
    3.3176   -1.5529    0.4262 H   0  0  0  0  0  0  0  0  0  0  0  0
    1.1877   -2.1508   -0.3225 H   0  0  0  0  0  0  0  0  0  0  0  0
   -1.2777   -2.3151   -0.1230 H   0  0  0  0  0  0  0  0  0  0  0  0
   -3.3141    3.7228    0.2779 Cl  0  0  0  0  0  0  0  0  0  0  0  0
  1  4  1  0  0  0  0
  1  2  1  0  0  0  0
  2  3  1  0  0  0  0
  5  4  2  0  0  0  0
  6  9  2  0  0  0  0
  6  5  1  0  0  0  0
  7  6  1  0  0  0  0
  8  7  1  0  0  0  0
  8 15  1  0  0  0  0
  9 10  1  0  0  0  0
 10 17  1  0  0  0  0
 10  1  2  0  0  0  0
 11 18  1  0  0  0  0
 12  5  1  0  0  0  0
 13  8  1  0  0  0  0
 14  8  1  0  0  0  0
 16  9  1  0  0  0  0
M  RAD  3   2   2   3   3   4   2
M  END
