Coordinates from ORCA-job 4-MeOPhN2+~Cl-_B3LYPG-6-31G_dp-CH-Scan-d09-49-n800
 OpenBabel11261919403D

 18 17  0  0  0  0  0  0  0  0999 V2000
   -1.4233   -0.3446   -0.0449 C   0  0  0  0  0  0  0  0  0  0  0  0
   -2.7873   -0.4759    0.0627 N   0  0  0  0  0  0  0  0  0  0  0  0
   -3.9060   -0.5197    0.1525 N   0  0  0  0  0  0  0  0  0  0  0  0
   -0.9841    1.0019   -0.0401 C   0  0  0  0  0  0  0  0  0  0  0  0
    0.4175    1.0497   -0.1536 C   0  0  0  0  0  0  0  0  0  0  0  0
    1.2393   -0.0839   -0.2544 C   0  0  0  0  0  0  0  0  0  0  0  0
    2.5691    0.1465   -0.3550 O   0  0  0  0  0  0  0  0  0  0  0  0
    3.4735   -0.9473   -0.4584 C   0  0  0  0  0  0  0  0  0  0  0  0
    0.6901   -1.4001   -0.2490 C   0  0  0  0  0  0  0  0  0  0  0  0
   -0.6716   -1.5472   -0.1425 C   0  0  0  0  0  0  0  0  0  0  0  0
   -2.9744    3.9290    0.2702 H   0  0  0  0  0  0  0  0  0  0  0  0
    0.9377    2.0080   -0.1670 H   0  0  0  0  0  0  0  0  0  0  0  0
    4.4682   -0.5050   -0.5217 H   0  0  0  0  0  0  0  0  0  0  0  0
    3.2864   -1.5424   -1.3605 H   0  0  0  0  0  0  0  0  0  0  0  0
    3.4238   -1.5970    0.4240 H   0  0  0  0  0  0  0  0  0  0  0  0
    1.3239   -2.2743   -0.3262 H   0  0  0  0  0  0  0  0  0  0  0  0
   -1.1378   -2.5295   -0.1343 H   0  0  0  0  0  0  0  0  0  0  0  0
   -3.8156    4.8951    0.4032 Cl  0  0  0  0  0  0  0  0  0  0  0  0
  1  4  1  0  0  0  0
  1  2  1  0  0  0  0
  2  3  1  0  0  0  0
  5  4  2  0  0  0  0
  6  9  2  0  0  0  0
  6  5  1  0  0  0  0
  7  6  1  0  0  0  0
  8  7  1  0  0  0  0
  8 15  1  0  0  0  0
  9 10  1  0  0  0  0
 10 17  1  0  0  0  0
 10  1  2  0  0  0  0
 11 18  1  0  0  0  0
 12  5  1  0  0  0  0
 13  8  1  0  0  0  0
 14  8  1  0  0  0  0
 16  9  1  0  0  0  0
M  RAD  3   2   2   3   3   4   2
M  END
