Coordinates from ORCA-job 4-MeOPhN2+~Cl-_B3LYPG-6-31G_dp-CH-Scan-d09-49-n800
 OpenBabel11261919403D

 18 17  0  0  0  0  0  0  0  0999 V2000
   -1.5059   -0.1049   -0.0188 C   0  0  0  0  0  0  0  0  0  0  0  0
   -2.8702   -0.1880    0.0939 N   0  0  0  0  0  0  0  0  0  0  0  0
   -3.9873   -0.1979    0.1883 N   0  0  0  0  0  0  0  0  0  0  0  0
   -0.9867    1.2128   -0.0116 C   0  0  0  0  0  0  0  0  0  0  0  0
    0.4057    1.2231   -0.1288 C   0  0  0  0  0  0  0  0  0  0  0  0
    1.1809    0.0549   -0.2384 C   0  0  0  0  0  0  0  0  0  0  0  0
    2.5131    0.2343   -0.3419 O   0  0  0  0  0  0  0  0  0  0  0  0
    3.3778   -0.8933   -0.4530 C   0  0  0  0  0  0  0  0  0  0  0  0
    0.5748   -1.2336   -0.2374 C   0  0  0  0  0  0  0  0  0  0  0  0
   -0.7923   -1.3269   -0.1262 C   0  0  0  0  0  0  0  0  0  0  0  0
   -2.2216    2.6697    0.1454 H   0  0  0  0  0  0  0  0  0  0  0  0
    0.9520    2.1647   -0.1381 H   0  0  0  0  0  0  0  0  0  0  0  0
    4.3870   -0.4861   -0.5157 H   0  0  0  0  0  0  0  0  0  0  0  0
    3.1656   -1.4740   -1.3585 H   0  0  0  0  0  0  0  0  0  0  0  0
    3.3036   -1.5433    0.4268 H   0  0  0  0  0  0  0  0  0  0  0  0
    1.1701   -2.1337   -0.3215 H   0  0  0  0  0  0  0  0  0  0  0  0
   -1.2952   -2.2901   -0.1214 H   0  0  0  0  0  0  0  0  0  0  0  0
   -3.2421    3.5756    0.2620 Cl  0  0  0  0  0  0  0  0  0  0  0  0
  1  4  1  0  0  0  0
  1  2  1  0  0  0  0
  2  3  1  0  0  0  0
  5  4  2  0  0  0  0
  6  9  2  0  0  0  0
  6  5  1  0  0  0  0
  7  6  1  0  0  0  0
  8  7  1  0  0  0  0
  8 15  1  0  0  0  0
  9 10  1  0  0  0  0
 10 17  1  0  0  0  0
 10  1  2  0  0  0  0
 11 18  1  0  0  0  0
 12  5  1  0  0  0  0
 13  8  1  0  0  0  0
 14  8  1  0  0  0  0
 16  9  1  0  0  0  0
M  RAD  3   2   2   3   3   4   2
M  END
