Coordinates from ORCA-job 4-MeOPhN2+~Cl-_B3LYPG-6-31G_dp-CH-Scan-d09-49-n800
 OpenBabel11261919403D

 18 17  0  0  0  0  0  0  0  0999 V2000
   -1.4070   -0.4493   -0.0548 C   0  0  0  0  0  0  0  0  0  0  0  0
   -2.7700   -0.6062    0.0494 N   0  0  0  0  0  0  0  0  0  0  0  0
   -3.8883   -0.6658    0.1365 N   0  0  0  0  0  0  0  0  0  0  0  0
   -1.0008    0.9066   -0.0515 C   0  0  0  0  0  0  0  0  0  0  0  0
    0.4008    0.9840   -0.1618 C   0  0  0  0  0  0  0  0  0  0  0  0
    1.2472   -0.1313   -0.2590 C   0  0  0  0  0  0  0  0  0  0  0  0
    2.5727    0.1277   -0.3581 O   0  0  0  0  0  0  0  0  0  0  0  0
    3.5000   -0.9465   -0.4587 C   0  0  0  0  0  0  0  0  0  0  0  0
    0.7275   -1.4596   -0.2519 C   0  0  0  0  0  0  0  0  0  0  0  0
   -0.6310   -1.6365   -0.1479 C   0  0  0  0  0  0  0  0  0  0  0  0
   -3.1461    4.3868    0.3081 H   0  0  0  0  0  0  0  0  0  0  0  0
    0.9008    1.9533   -0.1760 H   0  0  0  0  0  0  0  0  0  0  0  0
    4.4852   -0.4836   -0.5231 H   0  0  0  0  0  0  0  0  0  0  0  0
    3.3258   -1.5479   -1.3593 H   0  0  0  0  0  0  0  0  0  0  0  0
    3.4644   -1.5953    0.4252 H   0  0  0  0  0  0  0  0  0  0  0  0
    1.3807   -2.3196   -0.3258 H   0  0  0  0  0  0  0  0  0  0  0  0
   -1.0759   -2.6288   -0.1383 H   0  0  0  0  0  0  0  0  0  0  0  0
   -3.9567    5.3754    0.4520 Cl  0  0  0  0  0  0  0  0  0  0  0  0
  1  4  1  0  0  0  0
  1  2  1  0  0  0  0
  2  3  1  0  0  0  0
  5  4  2  0  0  0  0
  6  9  2  0  0  0  0
  6  5  1  0  0  0  0
  7  6  1  0  0  0  0
  8  7  1  0  0  0  0
  8 15  1  0  0  0  0
  9 10  1  0  0  0  0
 10 17  1  0  0  0  0
 10  1  2  0  0  0  0
 11 18  1  0  0  0  0
 12  5  1  0  0  0  0
 13  8  1  0  0  0  0
 14  8  1  0  0  0  0
 16  9  1  0  0  0  0
M  RAD  3   2   2   3   3   4   2
M  END
