Coordinates from ORCA-job 4-MeOPhN2+~Cl-_B3LYPG-6-31G_dp-CH-Scan-d09-49-n800
 OpenBabel11261919403D

 18 17  0  0  0  0  0  0  0  0999 V2000
   -1.4417   -0.2580   -0.0377 C   0  0  0  0  0  0  0  0  0  0  0  0
   -2.8057   -0.3709    0.0717 N   0  0  0  0  0  0  0  0  0  0  0  0
   -3.9243   -0.4054    0.1630 N   0  0  0  0  0  0  0  0  0  0  0  0
   -0.9744    1.0798   -0.0338 C   0  0  0  0  0  0  0  0  0  0  0  0
    0.4258    1.1063   -0.1489 C   0  0  0  0  0  0  0  0  0  0  0  0
    1.2283   -0.0413   -0.2509 C   0  0  0  0  0  0  0  0  0  0  0  0
    2.5606    0.1670   -0.3528 O   0  0  0  0  0  0  0  0  0  0  0  0
    3.4475   -0.9416   -0.4569 C   0  0  0  0  0  0  0  0  0  0  0  0
    0.6563   -1.3473   -0.2452 C   0  0  0  0  0  0  0  0  0  0  0  0
   -0.7076   -1.4714   -0.1369 C   0  0  0  0  0  0  0  0  0  0  0  0
   -2.7899    3.5379    0.2367 H   0  0  0  0  0  0  0  0  0  0  0  0
    0.9602    2.0564   -0.1627 H   0  0  0  0  0  0  0  0  0  0  0  0
    4.4490   -0.5152   -0.5204 H   0  0  0  0  0  0  0  0  0  0  0  0
    3.2501   -1.5330   -1.3592 H   0  0  0  0  0  0  0  0  0  0  0  0
    3.3871   -1.5903    0.4255 H   0  0  0  0  0  0  0  0  0  0  0  0
    1.2746   -2.2324   -0.3234 H   0  0  0  0  0  0  0  0  0  0  0  0
   -1.1898   -2.4458   -0.1284 H   0  0  0  0  0  0  0  0  0  0  0  0
   -3.6769    4.4686    0.3651 Cl  0  0  0  0  0  0  0  0  0  0  0  0
  1  4  1  0  0  0  0
  1  2  1  0  0  0  0
  2  3  1  0  0  0  0
  5  4  2  0  0  0  0
  6  9  2  0  0  0  0
  6  5  1  0  0  0  0
  7  6  1  0  0  0  0
  8  7  1  0  0  0  0
  8 15  1  0  0  0  0
  9 10  1  0  0  0  0
 10 17  1  0  0  0  0
 10  1  2  0  0  0  0
 11 18  1  0  0  0  0
 12  5  1  0  0  0  0
 13  8  1  0  0  0  0
 14  8  1  0  0  0  0
 16  9  1  0  0  0  0
M  RAD  3   2   2   3   3   4   2
M  END
