Coordinates from ORCA-job 4-MeOPhN2+~Cl-_B3LYPG-6-31G_dp-CH-Scan-d09-49-n800
 OpenBabel11261919403D

 18 17  0  0  0  0  0  0  0  0999 V2000
   -1.4250   -0.3380   -0.0442 C   0  0  0  0  0  0  0  0  0  0  0  0
   -2.7891   -0.4680    0.0635 N   0  0  0  0  0  0  0  0  0  0  0  0
   -3.9077   -0.5112    0.1535 N   0  0  0  0  0  0  0  0  0  0  0  0
   -0.9837    1.0077   -0.0394 C   0  0  0  0  0  0  0  0  0  0  0  0
    0.4177    1.0542   -0.1530 C   0  0  0  0  0  0  0  0  0  0  0  0
    1.2381   -0.0804   -0.2540 C   0  0  0  0  0  0  0  0  0  0  0  0
    2.5681    0.1485   -0.3547 O   0  0  0  0  0  0  0  0  0  0  0  0
    3.4713   -0.9464   -0.4583 C   0  0  0  0  0  0  0  0  0  0  0  0
    0.6874   -1.3959   -0.2488 C   0  0  0  0  0  0  0  0  0  0  0  0
   -0.6745   -1.5414   -0.1421 C   0  0  0  0  0  0  0  0  0  0  0  0
   -2.9593    3.8967    0.2673 H   0  0  0  0  0  0  0  0  0  0  0  0
    0.9388    2.0120   -0.1663 H   0  0  0  0  0  0  0  0  0  0  0  0
    4.4665   -0.5053   -0.5216 H   0  0  0  0  0  0  0  0  0  0  0  0
    3.2834   -1.5411   -1.3605 H   0  0  0  0  0  0  0  0  0  0  0  0
    3.4208   -1.5962    0.4240 H   0  0  0  0  0  0  0  0  0  0  0  0
    1.3201   -2.2708   -0.3261 H   0  0  0  0  0  0  0  0  0  0  0  0
   -1.1419   -2.5232   -0.1340 H   0  0  0  0  0  0  0  0  0  0  0  0
   -3.8016    4.8621    0.3996 Cl  0  0  0  0  0  0  0  0  0  0  0  0
  1  4  1  0  0  0  0
  1  2  1  0  0  0  0
  2  3  1  0  0  0  0
  5  4  2  0  0  0  0
  6  9  2  0  0  0  0
  6  5  1  0  0  0  0
  7  6  1  0  0  0  0
  8  7  1  0  0  0  0
  8 15  1  0  0  0  0
  9 10  1  0  0  0  0
 10 17  1  0  0  0  0
 10  1  2  0  0  0  0
 11 18  1  0  0  0  0
 12  5  1  0  0  0  0
 13  8  1  0  0  0  0
 14  8  1  0  0  0  0
 16  9  1  0  0  0  0
M  RAD  3   2   2   3   3   4   2
M  END
