Coordinates from ORCA-job 4-MeOPhN2+~Cl-_B3LYPG-6-31G_dp-CH-Scan-d09-49-n800
 OpenBabel11261919403D

 18 17  0  0  0  0  0  0  0  0999 V2000
   -1.4150   -0.3892   -0.0493 C   0  0  0  0  0  0  0  0  0  0  0  0
   -2.7788   -0.5306    0.0570 N   0  0  0  0  0  0  0  0  0  0  0  0
   -3.8974   -0.5799    0.1457 N   0  0  0  0  0  0  0  0  0  0  0  0
   -0.9897    0.9614   -0.0453 C   0  0  0  0  0  0  0  0  0  0  0  0
    0.4121    1.0210   -0.1576 C   0  0  0  0  0  0  0  0  0  0  0  0
    1.2440   -0.1052   -0.2566 C   0  0  0  0  0  0  0  0  0  0  0  0
    2.5722    0.1370   -0.3566 O   0  0  0  0  0  0  0  0  0  0  0  0
    3.4860   -0.9489   -0.4586 C   0  0  0  0  0  0  0  0  0  0  0  0
    0.7070   -1.4264   -0.2504 C   0  0  0  0  0  0  0  0  0  0  0  0
   -0.6535   -1.5857   -0.1449 C   0  0  0  0  0  0  0  0  0  0  0  0
   -3.0562    4.1313    0.2876 H   0  0  0  0  0  0  0  0  0  0  0  0
    0.9242    1.9838   -0.1715 H   0  0  0  0  0  0  0  0  0  0  0  0
    4.4769   -0.4983   -0.5224 H   0  0  0  0  0  0  0  0  0  0  0  0
    3.3042   -1.5468   -1.3601 H   0  0  0  0  0  0  0  0  0  0  0  0
    3.4420   -1.5982    0.4245 H   0  0  0  0  0  0  0  0  0  0  0  0
    1.3488   -2.2949   -0.3260 H   0  0  0  0  0  0  0  0  0  0  0  0
   -1.1111   -2.5722   -0.1359 H   0  0  0  0  0  0  0  0  0  0  0  0
   -3.8863    5.1051    0.4254 Cl  0  0  0  0  0  0  0  0  0  0  0  0
  1  4  1  0  0  0  0
  1  2  1  0  0  0  0
  2  3  1  0  0  0  0
  5  4  2  0  0  0  0
  6  9  2  0  0  0  0
  6  5  1  0  0  0  0
  7  6  1  0  0  0  0
  8  7  1  0  0  0  0
  8 15  1  0  0  0  0
  9 10  1  0  0  0  0
 10 17  1  0  0  0  0
 10  1  2  0  0  0  0
 11 18  1  0  0  0  0
 12  5  1  0  0  0  0
 13  8  1  0  0  0  0
 14  8  1  0  0  0  0
 16  9  1  0  0  0  0
M  RAD  3   2   2   3   3   4   2
M  END
