Coordinates from ORCA-job 4-MeOPhN2+~Cl-_B3LYPG-6-31G_dp-CH-Scan-d09-49-n800
 OpenBabel11261919403D

 18 17  0  0  0  0  0  0  0  0999 V2000
   -1.4038   -0.5193   -0.0585 C   0  0  0  0  0  0  0  0  0  0  0  0
   -2.7646   -0.6980    0.0444 N   0  0  0  0  0  0  0  0  0  0  0  0
   -3.8820   -0.7740    0.1304 N   0  0  0  0  0  0  0  0  0  0  0  0
   -1.0213    0.8431   -0.0520 C   0  0  0  0  0  0  0  0  0  0  0  0
    0.3792    0.9442   -0.1607 C   0  0  0  0  0  0  0  0  0  0  0  0
    1.2443   -0.1564   -0.2592 C   0  0  0  0  0  0  0  0  0  0  0  0
    2.5656    0.1250   -0.3566 O   0  0  0  0  0  0  0  0  0  0  0  0
    3.5105   -0.9336   -0.4589 C   0  0  0  0  0  0  0  0  0  0  0  0
    0.7470   -1.4934   -0.2552 C   0  0  0  0  0  0  0  0  0  0  0  0
   -0.6085   -1.6933   -0.1530 C   0  0  0  0  0  0  0  0  0  0  0  0
   -3.2106    4.6463    0.3230 H   0  0  0  0  0  0  0  0  0  0  0  0
    0.8629    1.9218   -0.1726 H   0  0  0  0  0  0  0  0  0  0  0  0
    4.4879   -0.4544   -0.5229 H   0  0  0  0  0  0  0  0  0  0  0  0
    3.3461   -1.5367   -1.3602 H   0  0  0  0  0  0  0  0  0  0  0  0
    3.4860   -1.5840    0.4242 H   0  0  0  0  0  0  0  0  0  0  0  0
    1.4146   -2.3422   -0.3304 H   0  0  0  0  0  0  0  0  0  0  0  0
   -1.0366   -2.6930   -0.1460 H   0  0  0  0  0  0  0  0  0  0  0  0
   -3.9874    5.6612    0.4690 Cl  0  0  0  0  0  0  0  0  0  0  0  0
  1  4  1  0  0  0  0
  1  2  1  0  0  0  0
  2  3  1  0  0  0  0
  5  4  2  0  0  0  0
  6  9  2  0  0  0  0
  6  5  1  0  0  0  0
  7  6  1  0  0  0  0
  8  7  1  0  0  0  0
  8 15  1  0  0  0  0
  9 10  1  0  0  0  0
 10 17  1  0  0  0  0
 10  1  2  0  0  0  0
 11 18  1  0  0  0  0
 12  5  1  0  0  0  0
 13  8  1  0  0  0  0
 14  8  1  0  0  0  0
 16  9  1  0  0  0  0
M  RAD  3   2   2   3   3   4   2
M  END
