Coordinates from ORCA-job 4-MeOPhN2+~Cl-_B3LYPG-6-31G_dp-CH-Scan-d09-49-n800
 OpenBabel11261919403D

 18 17  0  0  0  0  0  0  0  0999 V2000
   -1.5263   -0.0573   -0.0175 C   0  0  0  0  0  0  0  0  0  0  0  0
   -2.9171   -0.0963    0.0980 N   0  0  0  0  0  0  0  0  0  0  0  0
   -3.9111    0.4636    0.2038 N   0  0  0  0  0  0  0  0  0  0  0  0
   -0.9277    1.2112   -0.0185 C   0  0  0  0  0  0  0  0  0  0  0  0
    0.4477    1.2632   -0.1309 C   0  0  0  0  0  0  0  0  0  0  0  0
    1.2011    0.0744   -0.2391 C   0  0  0  0  0  0  0  0  0  0  0  0
    2.5357    0.2414   -0.3425 O   0  0  0  0  0  0  0  0  0  0  0  0
    3.3794   -0.9019   -0.4524 C   0  0  0  0  0  0  0  0  0  0  0  0
    0.5669   -1.1884   -0.2354 C   0  0  0  0  0  0  0  0  0  0  0  0
   -0.8125   -1.2587   -0.1234 C   0  0  0  0  0  0  0  0  0  0  0  0
   -1.9116    2.2904    0.1065 H   0  0  0  0  0  0  0  0  0  0  0  0
    0.9839    2.2071   -0.1387 H   0  0  0  0  0  0  0  0  0  0  0  0
    4.3960   -0.5138   -0.5163 H   0  0  0  0  0  0  0  0  0  0  0  0
    3.1542   -1.4798   -1.3565 H   0  0  0  0  0  0  0  0  0  0  0  0
    3.2918   -1.5488    0.4285 H   0  0  0  0  0  0  0  0  0  0  0  0
    1.1430   -2.1011   -0.3180 H   0  0  0  0  0  0  0  0  0  0  0  0
   -1.3277   -2.2141   -0.1175 H   0  0  0  0  0  0  0  0  0  0  0  0
   -3.6362    2.8721    0.2747 Cl  0  0  0  0  0  0  0  0  0  0  0  0
  1  2  1  0  0  0  0
  2  3  2  0  0  0  0
  4  1  1  0  0  0  0
  4 11  1  0  0  0  0
  5  4  2  0  0  0  0
  6  9  2  0  0  0  0
  6  5  1  0  0  0  0
  7  6  1  0  0  0  0
  8  7  1  0  0  0  0
  8 15  1  0  0  0  0
  9 10  1  0  0  0  0
 10 17  1  0  0  0  0
 10  1  2  0  0  0  0
 12  5  1  0  0  0  0
 13  8  1  0  0  0  0
 14  8  1  0  0  0  0
 16  9  1  0  0  0  0
M  RAD  2   3   2  18   2
M  END
