Coordinates from ORCA-job 4-MeOPhN2+~Cl-_B3LYPG-6-31G_dp-CH-Scan-d09-49-n800
 OpenBabel11261919403D

 18 17  0  0  0  0  0  0  0  0999 V2000
   -1.4778   -0.1599   -0.0256 C   0  0  0  0  0  0  0  0  0  0  0  0
   -2.8414   -0.2552    0.0861 N   0  0  0  0  0  0  0  0  0  0  0  0
   -3.9593   -0.2802    0.1795 N   0  0  0  0  0  0  0  0  0  0  0  0
   -0.9794    1.1669   -0.0187 C   0  0  0  0  0  0  0  0  0  0  0  0
    0.4173    1.1784   -0.1357 C   0  0  0  0  0  0  0  0  0  0  0  0
    1.2015    0.0175   -0.2432 C   0  0  0  0  0  0  0  0  0  0  0  0
    2.5346    0.2060   -0.3462 O   0  0  0  0  0  0  0  0  0  0  0  0
    3.4059   -0.9155   -0.4550 C   0  0  0  0  0  0  0  0  0  0  0  0
    0.6073   -1.2777   -0.2410 C   0  0  0  0  0  0  0  0  0  0  0  0
   -0.7585   -1.3807   -0.1307 C   0  0  0  0  0  0  0  0  0  0  0  0
   -2.4675    3.0158    0.1819 H   0  0  0  0  0  0  0  0  0  0  0  0
    0.9623    2.1215   -0.1465 H   0  0  0  0  0  0  0  0  0  0  0  0
    4.4130   -0.5026   -0.5178 H   0  0  0  0  0  0  0  0  0  0  0  0
    3.1987   -1.5000   -1.3594 H   0  0  0  0  0  0  0  0  0  0  0  0
    3.3361   -1.5655    0.4255 H   0  0  0  0  0  0  0  0  0  0  0  0
    1.2105   -2.1728   -0.3235 H   0  0  0  0  0  0  0  0  0  0  0  0
   -1.2550   -2.3476   -0.1249 H   0  0  0  0  0  0  0  0  0  0  0  0
   -3.4190    3.9149    0.3001 Cl  0  0  0  0  0  0  0  0  0  0  0  0
  1  4  1  0  0  0  0
  1  2  1  0  0  0  0
  2  3  1  0  0  0  0
  5  4  2  0  0  0  0
  6  9  2  0  0  0  0
  6  5  1  0  0  0  0
  7  6  1  0  0  0  0
  8  7  1  0  0  0  0
  8 15  1  0  0  0  0
  9 10  1  0  0  0  0
 10 17  1  0  0  0  0
 10  1  2  0  0  0  0
 11 18  1  0  0  0  0
 12  5  1  0  0  0  0
 13  8  1  0  0  0  0
 14  8  1  0  0  0  0
 16  9  1  0  0  0  0
M  RAD  3   2   2   3   3   4   2
M  END
