Coordinates from ORCA-job 4-MeOPhN2+~Cl-_B3LYPG-6-31G_dp-CH-Scan-d09-49-n800
 OpenBabel11261919403D

 18 17  0  0  0  0  0  0  0  0999 V2000
   -1.4814   -0.1513   -0.0247 C   0  0  0  0  0  0  0  0  0  0  0  0
   -2.8451   -0.2447    0.0872 N   0  0  0  0  0  0  0  0  0  0  0  0
   -3.9629   -0.2678    0.1807 N   0  0  0  0  0  0  0  0  0  0  0  0
   -0.9801    1.1744   -0.0178 C   0  0  0  0  0  0  0  0  0  0  0  0
    0.4162    1.1850   -0.1349 C   0  0  0  0  0  0  0  0  0  0  0  0
    1.1988    0.0229   -0.2426 C   0  0  0  0  0  0  0  0  0  0  0  0
    2.5319    0.2098   -0.3457 O   0  0  0  0  0  0  0  0  0  0  0  0
    3.4020   -0.9128   -0.4547 C   0  0  0  0  0  0  0  0  0  0  0  0
    0.6027   -1.2712   -0.2405 C   0  0  0  0  0  0  0  0  0  0  0  0
   -0.7633   -1.3725   -0.1301 C   0  0  0  0  0  0  0  0  0  0  0  0
   -2.4351    2.9667    0.1770 H   0  0  0  0  0  0  0  0  0  0  0  0
    0.9618    2.1277   -0.1455 H   0  0  0  0  0  0  0  0  0  0  0  0
    4.4095   -0.5010   -0.5175 H   0  0  0  0  0  0  0  0  0  0  0  0
    3.1940   -1.4968   -1.3592 H   0  0  0  0  0  0  0  0  0  0  0  0
    3.3314   -1.5627    0.4258 H   0  0  0  0  0  0  0  0  0  0  0  0
    1.2046   -2.1672   -0.3232 H   0  0  0  0  0  0  0  0  0  0  0  0
   -1.2609   -2.3388   -0.1244 H   0  0  0  0  0  0  0  0  0  0  0  0
   -3.3947    3.8637    0.2949 Cl  0  0  0  0  0  0  0  0  0  0  0  0
  1  4  1  0  0  0  0
  1  2  1  0  0  0  0
  2  3  1  0  0  0  0
  5  4  2  0  0  0  0
  6  9  2  0  0  0  0
  6  5  1  0  0  0  0
  7  6  1  0  0  0  0
  8  7  1  0  0  0  0
  8 15  1  0  0  0  0
  9 10  1  0  0  0  0
 10 17  1  0  0  0  0
 10  1  2  0  0  0  0
 11 18  1  0  0  0  0
 12  5  1  0  0  0  0
 13  8  1  0  0  0  0
 14  8  1  0  0  0  0
 16  9  1  0  0  0  0
M  RAD  3   2   2   3   3   4   2
M  END
