Coordinates from ORCA-job 4-MeOPhN2+~Cl-_B3LYPG-6-31G_dp-CH-Scan-d09-49-n800
 OpenBabel11261919403D

 18 17  0  0  0  0  0  0  0  0999 V2000
   -1.5090   -0.0983   -0.0183 C   0  0  0  0  0  0  0  0  0  0  0  0
   -2.8735   -0.1790    0.0946 N   0  0  0  0  0  0  0  0  0  0  0  0
   -3.9904   -0.1851    0.1891 N   0  0  0  0  0  0  0  0  0  0  0  0
   -0.9864    1.2179   -0.0113 C   0  0  0  0  0  0  0  0  0  0  0  0
    0.4052    1.2285   -0.1285 C   0  0  0  0  0  0  0  0  0  0  0  0
    1.1791    0.0592   -0.2381 C   0  0  0  0  0  0  0  0  0  0  0  0
    2.5111    0.2372   -0.3416 O   0  0  0  0  0  0  0  0  0  0  0  0
    3.3749   -0.8913   -0.4528 C   0  0  0  0  0  0  0  0  0  0  0  0
    0.5712   -1.2283   -0.2369 C   0  0  0  0  0  0  0  0  0  0  0  0
   -0.7962   -1.3202   -0.1256 C   0  0  0  0  0  0  0  0  0  0  0  0
   -2.1915    2.6280    0.1412 H   0  0  0  0  0  0  0  0  0  0  0  0
    0.9514    2.1700   -0.1377 H   0  0  0  0  0  0  0  0  0  0  0  0
    4.3844   -0.4849   -0.5155 H   0  0  0  0  0  0  0  0  0  0  0  0
    3.1620   -1.4717   -1.3582 H   0  0  0  0  0  0  0  0  0  0  0  0
    3.3000   -1.5411    0.4271 H   0  0  0  0  0  0  0  0  0  0  0  0
    1.1654   -2.1292   -0.3211 H   0  0  0  0  0  0  0  0  0  0  0  0
   -1.2999   -2.2830   -0.1208 H   0  0  0  0  0  0  0  0  0  0  0  0
   -3.2284    3.5345    0.2590 Cl  0  0  0  0  0  0  0  0  0  0  0  0
  1  4  1  0  0  0  0
  1  2  1  0  0  0  0
  2  3  1  0  0  0  0
  5  4  2  0  0  0  0
  6  9  2  0  0  0  0
  6  5  1  0  0  0  0
  7  6  1  0  0  0  0
  8  7  1  0  0  0  0
  8 15  1  0  0  0  0
  9 10  1  0  0  0  0
 10 17  1  0  0  0  0
 10  1  2  0  0  0  0
 11 18  1  0  0  0  0
 12  5  1  0  0  0  0
 13  8  1  0  0  0  0
 14  8  1  0  0  0  0
 16  9  1  0  0  0  0
M  RAD  3   2   2   3   3   4   2
M  END
