Coordinates from ORCA-job 4-MeOPhN2+~Cl-_B3LYPG-6-31G_dp-CH-Scan-d09-49-n800
 OpenBabel11261919403D

 18 17  0  0  0  0  0  0  0  0999 V2000
   -1.4624   -0.2100   -0.0305 C   0  0  0  0  0  0  0  0  0  0  0  0
   -2.8258   -0.3166    0.0801 N   0  0  0  0  0  0  0  0  0  0  0  0
   -3.9439   -0.3510    0.1725 N   0  0  0  0  0  0  0  0  0  0  0  0
   -0.9809    1.1231   -0.0238 C   0  0  0  0  0  0  0  0  0  0  0  0
    0.4178    1.1430   -0.1400 C   0  0  0  0  0  0  0  0  0  0  0  0
    1.2122   -0.0104   -0.2460 C   0  0  0  0  0  0  0  0  0  0  0  0
    2.5448    0.1892   -0.3485 O   0  0  0  0  0  0  0  0  0  0  0  0
    3.4249   -0.9250   -0.4562 C   0  0  0  0  0  0  0  0  0  0  0  0
    0.6302   -1.3116   -0.2433 C   0  0  0  0  0  0  0  0  0  0  0  0
   -0.7344   -1.4264   -0.1340 C   0  0  0  0  0  0  0  0  0  0  0  0
   -2.6183    3.2667    0.2064 H   0  0  0  0  0  0  0  0  0  0  0  0
    0.9569    2.0899   -0.1514 H   0  0  0  0  0  0  0  0  0  0  0  0
    4.4288   -0.5043   -0.5190 H   0  0  0  0  0  0  0  0  0  0  0  0
    3.2230   -1.5120   -1.3602 H   0  0  0  0  0  0  0  0  0  0  0  0
    3.3605   -1.5753    0.4245 H   0  0  0  0  0  0  0  0  0  0  0  0
    1.2418   -2.2012   -0.3247 H   0  0  0  0  0  0  0  0  0  0  0  0
   -1.2229   -2.3976   -0.1278 H   0  0  0  0  0  0  0  0  0  0  0  0
   -3.5227    4.1927    0.3268 Cl  0  0  0  0  0  0  0  0  0  0  0  0
  1  4  1  0  0  0  0
  1  2  1  0  0  0  0
  2  3  1  0  0  0  0
  5  4  2  0  0  0  0
  6  9  2  0  0  0  0
  6  5  1  0  0  0  0
  7  6  1  0  0  0  0
  8  7  1  0  0  0  0
  8 15  1  0  0  0  0
  9 10  1  0  0  0  0
 10 17  1  0  0  0  0
 10  1  2  0  0  0  0
 11 18  1  0  0  0  0
 12  5  1  0  0  0  0
 13  8  1  0  0  0  0
 14  8  1  0  0  0  0
 16  9  1  0  0  0  0
M  RAD  3   2   2   3   3   4   2
M  END
