Coordinates from ORCA-job 4-MeOPhN2+~Cl-_B3LYPG-6-31G_dp-CH-Scan-d09-49-n800
 OpenBabel11261919403D

 18 17  0  0  0  0  0  0  0  0999 V2000
   -1.5079   -0.1007   -0.0185 C   0  0  0  0  0  0  0  0  0  0  0  0
   -2.8723   -0.1824    0.0943 N   0  0  0  0  0  0  0  0  0  0  0  0
   -3.9893   -0.1900    0.1888 N   0  0  0  0  0  0  0  0  0  0  0  0
   -0.9866    1.2160   -0.0114 C   0  0  0  0  0  0  0  0  0  0  0  0
    0.4053    1.2265   -0.1286 C   0  0  0  0  0  0  0  0  0  0  0  0
    1.1797    0.0577   -0.2382 C   0  0  0  0  0  0  0  0  0  0  0  0
    2.5118    0.2362   -0.3417 O   0  0  0  0  0  0  0  0  0  0  0  0
    3.3759   -0.8920   -0.4529 C   0  0  0  0  0  0  0  0  0  0  0  0
    0.5725   -1.2302   -0.2370 C   0  0  0  0  0  0  0  0  0  0  0  0
   -0.7948   -1.3227   -0.1258 C   0  0  0  0  0  0  0  0  0  0  0  0
   -2.2025    2.6432    0.1427 H   0  0  0  0  0  0  0  0  0  0  0  0
    0.9515    2.1681   -0.1378 H   0  0  0  0  0  0  0  0  0  0  0  0
    4.3853   -0.4852   -0.5156 H   0  0  0  0  0  0  0  0  0  0  0  0
    3.1633   -1.4725   -1.3583 H   0  0  0  0  0  0  0  0  0  0  0  0
    3.3013   -1.5419    0.4270 H   0  0  0  0  0  0  0  0  0  0  0  0
    1.1671   -2.1309   -0.3212 H   0  0  0  0  0  0  0  0  0  0  0  0
   -1.2982   -2.2856   -0.1210 H   0  0  0  0  0  0  0  0  0  0  0  0
   -3.2329    3.5497    0.2600 Cl  0  0  0  0  0  0  0  0  0  0  0  0
  1  4  1  0  0  0  0
  1  2  1  0  0  0  0
  2  3  1  0  0  0  0
  5  4  2  0  0  0  0
  6  9  2  0  0  0  0
  6  5  1  0  0  0  0
  7  6  1  0  0  0  0
  8  7  1  0  0  0  0
  8 15  1  0  0  0  0
  9 10  1  0  0  0  0
 10 17  1  0  0  0  0
 10  1  2  0  0  0  0
 11 18  1  0  0  0  0
 12  5  1  0  0  0  0
 13  8  1  0  0  0  0
 14  8  1  0  0  0  0
 16  9  1  0  0  0  0
M  RAD  3   2   2   3   3   4   2
M  END
