Coordinates from ORCA-job 4-MeOPhN2+~Cl-_B3LYPG-6-31G_dp-CH-Scan-d09-49-n800
 OpenBabel11261919403D

 18 17  0  0  0  0  0  0  0  0999 V2000
   -1.5369   -0.0312   -0.0159 C   0  0  0  0  0  0  0  0  0  0  0  0
   -2.9262   -0.1049    0.0976 N   0  0  0  0  0  0  0  0  0  0  0  0
   -3.9229    0.4710    0.2042 N   0  0  0  0  0  0  0  0  0  0  0  0
   -0.9069    1.2231   -0.0200 C   0  0  0  0  0  0  0  0  0  0  0  0
    0.4664    1.2731   -0.1323 C   0  0  0  0  0  0  0  0  0  0  0  0
    1.2114    0.0788   -0.2399 C   0  0  0  0  0  0  0  0  0  0  0  0
    2.5470    0.2376   -0.3438 O   0  0  0  0  0  0  0  0  0  0  0  0
    3.3805   -0.9134   -0.4528 C   0  0  0  0  0  0  0  0  0  0  0  0
    0.5642   -1.1740   -0.2343 C   0  0  0  0  0  0  0  0  0  0  0  0
   -0.8174   -1.2289   -0.1218 C   0  0  0  0  0  0  0  0  0  0  0  0
   -1.7854    2.3076    0.0967 H   0  0  0  0  0  0  0  0  0  0  0  0
    1.0033    2.2156   -0.1404 H   0  0  0  0  0  0  0  0  0  0  0  0
    4.4005   -0.5346   -0.5182 H   0  0  0  0  0  0  0  0  0  0  0  0
    3.1488   -1.4904   -1.3559 H   0  0  0  0  0  0  0  0  0  0  0  0
    3.2874   -1.5581    0.4291 H   0  0  0  0  0  0  0  0  0  0  0  0
    1.1294   -2.0937   -0.3161 H   0  0  0  0  0  0  0  0  0  0  0  0
   -1.3397   -2.1801   -0.1151 H   0  0  0  0  0  0  0  0  0  0  0  0
   -3.7740    2.7657    0.2838 Cl  0  0  0  0  0  0  0  0  0  0  0  0
  1  2  1  0  0  0  0
  2  3  2  0  0  0  0
  4  1  1  0  0  0  0
  4 11  1  0  0  0  0
  5  4  2  0  0  0  0
  6  9  2  0  0  0  0
  6  5  1  0  0  0  0
  7  6  1  0  0  0  0
  8  7  1  0  0  0  0
  8 15  1  0  0  0  0
  9 10  1  0  0  0  0
 10 17  1  0  0  0  0
 10  1  2  0  0  0  0
 12  5  1  0  0  0  0
 13  8  1  0  0  0  0
 14  8  1  0  0  0  0
 16  9  1  0  0  0  0
M  RAD  2   3   2  18   2
M  END
