Coordinates from ORCA-job 4-MeOPhN2+~Cl-_B3LYPG-6-31G_dp-CH-Scan-d09-49-n800
 OpenBabel11261919403D

 18 17  0  0  0  0  0  0  0  0999 V2000
   -1.4715   -0.1806   -0.0276 C   0  0  0  0  0  0  0  0  0  0  0  0
   -2.8349   -0.2811    0.0837 N   0  0  0  0  0  0  0  0  0  0  0  0
   -3.9529   -0.3113    0.1766 N   0  0  0  0  0  0  0  0  0  0  0  0
   -0.9802    1.1490   -0.0206 C   0  0  0  0  0  0  0  0  0  0  0  0
    0.4174    1.1637   -0.1374 C   0  0  0  0  0  0  0  0  0  0  0  0
    1.2059    0.0059   -0.2443 C   0  0  0  0  0  0  0  0  0  0  0  0
    2.5388    0.1991   -0.3471 O   0  0  0  0  0  0  0  0  0  0  0  0
    3.4137   -0.9194   -0.4555 C   0  0  0  0  0  0  0  0  0  0  0  0
    0.6168   -1.2917   -0.2420 C   0  0  0  0  0  0  0  0  0  0  0  0
   -0.7485   -1.3996   -0.1321 C   0  0  0  0  0  0  0  0  0  0  0  0
   -2.5306    3.1204    0.1920 H   0  0  0  0  0  0  0  0  0  0  0  0
    0.9601    2.1084   -0.1484 H   0  0  0  0  0  0  0  0  0  0  0  0
    4.4195   -0.5033   -0.5183 H   0  0  0  0  0  0  0  0  0  0  0  0
    3.2088   -1.5049   -1.3598 H   0  0  0  0  0  0  0  0  0  0  0  0
    3.3462   -1.5696    0.4250 H   0  0  0  0  0  0  0  0  0  0  0  0
    1.2234   -2.1845   -0.3241 H   0  0  0  0  0  0  0  0  0  0  0  0
   -1.2417   -2.3683   -0.1262 H   0  0  0  0  0  0  0  0  0  0  0  0
   -3.4608    4.0310    0.3109 Cl  0  0  0  0  0  0  0  0  0  0  0  0
  1  4  1  0  0  0  0
  1  2  1  0  0  0  0
  2  3  1  0  0  0  0
  5  4  2  0  0  0  0
  6  9  2  0  0  0  0
  6  5  1  0  0  0  0
  7  6  1  0  0  0  0
  8  7  1  0  0  0  0
  8 15  1  0  0  0  0
  9 10  1  0  0  0  0
 10 17  1  0  0  0  0
 10  1  2  0  0  0  0
 11 18  1  0  0  0  0
 12  5  1  0  0  0  0
 13  8  1  0  0  0  0
 14  8  1  0  0  0  0
 16  9  1  0  0  0  0
M  RAD  3   2   2   3   3   4   2
M  END
