Coordinates from ORCA-job 4-MeOPhN2+~Cl-_B3LYPG-6-31G_dp-CH-Scan-d09-49-n800
 OpenBabel11261919403D

 18 17  0  0  0  0  0  0  0  0999 V2000
   -1.5193   -0.0768   -0.0169 C   0  0  0  0  0  0  0  0  0  0  0  0
   -2.8847   -0.1470    0.0964 N   0  0  0  0  0  0  0  0  0  0  0  0
   -4.0006   -0.1316    0.1917 N   0  0  0  0  0  0  0  0  0  0  0  0
   -0.9826    1.2325   -0.0117 C   0  0  0  0  0  0  0  0  0  0  0  0
    0.4055    1.2464   -0.1282 C   0  0  0  0  0  0  0  0  0  0  0  0
    1.1745    0.0727   -0.2373 C   0  0  0  0  0  0  0  0  0  0  0  0
    2.5057    0.2459   -0.3409 O   0  0  0  0  0  0  0  0  0  0  0  0
    3.3663   -0.8859   -0.4517 C   0  0  0  0  0  0  0  0  0  0  0  0
    0.5599   -1.2108   -0.2352 C   0  0  0  0  0  0  0  0  0  0  0  0
   -0.8085   -1.2981   -0.1238 C   0  0  0  0  0  0  0  0  0  0  0  0
   -2.0849    2.4872    0.1273 H   0  0  0  0  0  0  0  0  0  0  0  0
    0.9502    2.1882   -0.1374 H   0  0  0  0  0  0  0  0  0  0  0  0
    4.3767   -0.4822   -0.5147 H   0  0  0  0  0  0  0  0  0  0  0  0
    3.1508   -1.4653   -1.3570 H   0  0  0  0  0  0  0  0  0  0  0  0
    3.2888   -1.5343    0.4288 H   0  0  0  0  0  0  0  0  0  0  0  0
    1.1499   -2.1144   -0.3190 H   0  0  0  0  0  0  0  0  0  0  0  0
   -1.3150   -2.2591   -0.1184 H   0  0  0  0  0  0  0  0  0  0  0  0
   -3.2031    3.3958    0.2529 Cl  0  0  0  0  0  0  0  0  0  0  0  0
  1  4  1  0  0  0  0
  1  2  1  0  0  0  0
  2  3  1  0  0  0  0
  5  4  2  0  0  0  0
  6  9  2  0  0  0  0
  6  5  1  0  0  0  0
  7  6  1  0  0  0  0
  8  7  1  0  0  0  0
  8 15  1  0  0  0  0
  9 10  1  0  0  0  0
 10 17  1  0  0  0  0
 10  1  2  0  0  0  0
 11 18  1  0  0  0  0
 12  5  1  0  0  0  0
 13  8  1  0  0  0  0
 14  8  1  0  0  0  0
 16  9  1  0  0  0  0
M  RAD  3   2   2   3   3   4   2
M  END
