Coordinates from ORCA-job 4-MeOPhN2+~Cl-_B3LYPG-6-31G_dp-CH-Scan-d09-49-n800
 OpenBabel11261919403D

 18 17  0  0  0  0  0  0  0  0999 V2000
   -1.4861   -0.1415   -0.0235 C   0  0  0  0  0  0  0  0  0  0  0  0
   -2.8499   -0.2329    0.0885 N   0  0  0  0  0  0  0  0  0  0  0  0
   -3.9676   -0.2541    0.1822 N   0  0  0  0  0  0  0  0  0  0  0  0
   -0.9816    1.1828   -0.0165 C   0  0  0  0  0  0  0  0  0  0  0  0
    0.4141    1.1928   -0.1337 C   0  0  0  0  0  0  0  0  0  0  0  0
    1.1952    0.0295   -0.2418 C   0  0  0  0  0  0  0  0  0  0  0  0
    2.5282    0.2147   -0.3450 O   0  0  0  0  0  0  0  0  0  0  0  0
    3.3970   -0.9090   -0.4543 C   0  0  0  0  0  0  0  0  0  0  0  0
    0.5970   -1.2636   -0.2399 C   0  0  0  0  0  0  0  0  0  0  0  0
   -0.7692   -1.3631   -0.1293 C   0  0  0  0  0  0  0  0  0  0  0  0
   -2.3938    2.9071    0.1708 H   0  0  0  0  0  0  0  0  0  0  0  0
    0.9602    2.1351   -0.1441 H   0  0  0  0  0  0  0  0  0  0  0  0
    4.4049   -0.4982   -0.5172 H   0  0  0  0  0  0  0  0  0  0  0  0
    3.1881   -1.4924   -1.3590 H   0  0  0  0  0  0  0  0  0  0  0  0
    3.3257   -1.5588    0.4260 H   0  0  0  0  0  0  0  0  0  0  0  0
    1.1975   -2.1604   -0.3228 H   0  0  0  0  0  0  0  0  0  0  0  0
   -1.2680   -2.3287   -0.1237 H   0  0  0  0  0  0  0  0  0  0  0  0
   -3.3624    3.8040    0.2882 Cl  0  0  0  0  0  0  0  0  0  0  0  0
  1  4  1  0  0  0  0
  1  2  1  0  0  0  0
  2  3  1  0  0  0  0
  5  4  2  0  0  0  0
  6  9  2  0  0  0  0
  6  5  1  0  0  0  0
  7  6  1  0  0  0  0
  8  7  1  0  0  0  0
  8 15  1  0  0  0  0
  9 10  1  0  0  0  0
 10 17  1  0  0  0  0
 10  1  2  0  0  0  0
 11 18  1  0  0  0  0
 12  5  1  0  0  0  0
 13  8  1  0  0  0  0
 14  8  1  0  0  0  0
 16  9  1  0  0  0  0
M  RAD  3   2   2   3   3   4   2
M  END
