Coordinates from ORCA-job 4-MeOPhN2+~Cl-_B3LYPG-6-31G_dp-CH-Scan-d09-49-n800
 OpenBabel11261919403D

 18 17  0  0  0  0  0  0  0  0999 V2000
   -1.4237   -0.3429   -0.0447 C   0  0  0  0  0  0  0  0  0  0  0  0
   -2.7878   -0.4738    0.0629 N   0  0  0  0  0  0  0  0  0  0  0  0
   -3.9065   -0.5173    0.1527 N   0  0  0  0  0  0  0  0  0  0  0  0
   -0.9839    1.0033   -0.0399 C   0  0  0  0  0  0  0  0  0  0  0  0
    0.4177    1.0509   -0.1534 C   0  0  0  0  0  0  0  0  0  0  0  0
    1.2390   -0.0830   -0.2543 C   0  0  0  0  0  0  0  0  0  0  0  0
    2.5689    0.1469   -0.3549 O   0  0  0  0  0  0  0  0  0  0  0  0
    3.4730   -0.9472   -0.4584 C   0  0  0  0  0  0  0  0  0  0  0  0
    0.6894   -1.3990   -0.2490 C   0  0  0  0  0  0  0  0  0  0  0  0
   -0.6723   -1.5457   -0.1424 C   0  0  0  0  0  0  0  0  0  0  0  0
   -2.9708    3.9208    0.2695 H   0  0  0  0  0  0  0  0  0  0  0  0
    0.9381    2.0091   -0.1668 H   0  0  0  0  0  0  0  0  0  0  0  0
    4.4678   -0.5052   -0.5217 H   0  0  0  0  0  0  0  0  0  0  0  0
    3.2856   -1.5422   -1.3605 H   0  0  0  0  0  0  0  0  0  0  0  0
    3.4230   -1.5969    0.4240 H   0  0  0  0  0  0  0  0  0  0  0  0
    1.3230   -2.2734   -0.3262 H   0  0  0  0  0  0  0  0  0  0  0  0
   -1.1388   -2.5279   -0.1342 H   0  0  0  0  0  0  0  0  0  0  0  0
   -3.8123    4.8867    0.4022 Cl  0  0  0  0  0  0  0  0  0  0  0  0
  1  4  1  0  0  0  0
  1  2  1  0  0  0  0
  2  3  1  0  0  0  0
  5  4  2  0  0  0  0
  6  9  2  0  0  0  0
  6  5  1  0  0  0  0
  7  6  1  0  0  0  0
  8  7  1  0  0  0  0
  8 15  1  0  0  0  0
  9 10  1  0  0  0  0
 10 17  1  0  0  0  0
 10  1  2  0  0  0  0
 11 18  1  0  0  0  0
 12  5  1  0  0  0  0
 13  8  1  0  0  0  0
 14  8  1  0  0  0  0
 16  9  1  0  0  0  0
M  RAD  3   2   2   3   3   4   2
M  END
