Coordinates from ORCA-job 4-MeOPhN2+~Cl-_B3LYPG-6-31G_dp-CH-Scan-d09-49-n800
 OpenBabel11261919403D

 18 17  0  0  0  0  0  0  0  0999 V2000
   -1.4123   -0.6528   -0.0862 C   0  0  0  0  0  0  0  0  0  0  0  0
   -2.7666   -0.8810    0.0087 N   0  0  0  0  0  0  0  0  0  0  0  0
   -3.8813   -0.9967    0.0864 N   0  0  0  0  0  0  0  0  0  0  0  0
   -1.0832    0.7228   -0.1076 C   0  0  0  0  0  0  0  0  0  0  0  0
    0.3129    0.8767   -0.2077 C   0  0  0  0  0  0  0  0  0  0  0  0
    1.2209   -0.1913   -0.2751 C   0  0  0  0  0  0  0  0  0  0  0  0
    2.5311    0.1390   -0.3705 O   0  0  0  0  0  0  0  0  0  0  0  0
    3.5168   -0.8839   -0.4444 C   0  0  0  0  0  0  0  0  0  0  0  0
    0.7761   -1.5463   -0.2437 C   0  0  0  0  0  0  0  0  0  0  0  0
   -0.5715   -1.7969   -0.1472 C   0  0  0  0  0  0  0  0  0  0  0  0
   -3.2429    5.0489    0.3825 H   0  0  0  0  0  0  0  0  0  0  0  0
    0.7592    1.8718   -0.2381 H   0  0  0  0  0  0  0  0  0  0  0  0
    4.4751   -0.3687   -0.5179 H   0  0  0  0  0  0  0  0  0  0  0  0
    3.3789   -1.5150   -1.3309 H   0  0  0  0  0  0  0  0  0  0  0  0
    3.5152   -1.5128    0.4545 H   0  0  0  0  0  0  0  0  0  0  0  0
    1.4767   -2.3700   -0.2939 H   0  0  0  0  0  0  0  0  0  0  0  0
   -0.9604   -2.8122   -0.1198 H   0  0  0  0  0  0  0  0  0  0  0  0
   -3.9150    6.1317    0.5560 Cl  0  0  0  0  0  0  0  0  0  0  0  0
  1  2  1  0  0  0  0
  2  3  1  0  0  0  0
  4  1  1  0  0  0  0
  5  4  2  0  0  0  0
  6  9  2  0  0  0  0
  6  5  1  0  0  0  0
  7  6  1  0  0  0  0
  8  7  1  0  0  0  0
  8 15  1  0  0  0  0
  9 10  1  0  0  0  0
 10 17  1  0  0  0  0
 10  1  2  0  0  0  0
 11 18  1  0  0  0  0
 12  5  1  0  0  0  0
 13  8  1  0  0  0  0
 14  8  1  0  0  0  0
 16  9  1  0  0  0  0
M  RAD  3   2   2   3   3   4   2
M  END
