Coordinates from ORCA-job 4-MeOPhN2+~Cl-_B3LYPG-6-31G_dp-CH-Scan-d09-49-n800
 OpenBabel11261919403D

 18 17  0  0  0  0  0  0  0  0999 V2000
   -1.5416   -0.0200   -0.0153 C   0  0  0  0  0  0  0  0  0  0  0  0
   -2.9301   -0.1084    0.0975 N   0  0  0  0  0  0  0  0  0  0  0  0
   -3.9307    0.4676    0.2049 N   0  0  0  0  0  0  0  0  0  0  0  0
   -0.9014    1.2302   -0.0206 C   0  0  0  0  0  0  0  0  0  0  0  0
    0.4718    1.2765   -0.1331 C   0  0  0  0  0  0  0  0  0  0  0  0
    1.2140    0.0809   -0.2402 C   0  0  0  0  0  0  0  0  0  0  0  0
    2.5501    0.2370   -0.3441 O   0  0  0  0  0  0  0  0  0  0  0  0
    3.3801   -0.9165   -0.4526 C   0  0  0  0  0  0  0  0  0  0  0  0
    0.5621   -1.1683   -0.2340 C   0  0  0  0  0  0  0  0  0  0  0  0
   -0.8201   -1.2167   -0.1213 C   0  0  0  0  0  0  0  0  0  0  0  0
   -1.7254    2.3071    0.0909 H   0  0  0  0  0  0  0  0  0  0  0  0
    1.0095    2.2183   -0.1414 H   0  0  0  0  0  0  0  0  0  0  0  0
    4.4012   -0.5407   -0.5182 H   0  0  0  0  0  0  0  0  0  0  0  0
    3.1467   -1.4932   -1.3554 H   0  0  0  0  0  0  0  0  0  0  0  0
    3.2851   -1.5605    0.4296 H   0  0  0  0  0  0  0  0  0  0  0  0
    1.1230   -2.0907   -0.3155 H   0  0  0  0  0  0  0  0  0  0  0  0
   -1.3455   -2.1661   -0.1142 H   0  0  0  0  0  0  0  0  0  0  0  0
   -3.8193    2.7268    0.2880 Cl  0  0  0  0  0  0  0  0  0  0  0  0
  1  2  1  0  0  0  0
  2  3  2  0  0  0  0
  4  1  1  0  0  0  0
  4 11  1  0  0  0  0
  5  4  2  0  0  0  0
  6  9  2  0  0  0  0
  6  5  1  0  0  0  0
  7  6  1  0  0  0  0
  8  7  1  0  0  0  0
  8 15  1  0  0  0  0
  9 10  1  0  0  0  0
 10 17  1  0  0  0  0
 10  1  2  0  0  0  0
 12  5  1  0  0  0  0
 13  8  1  0  0  0  0
 14  8  1  0  0  0  0
 16  9  1  0  0  0  0
M  RAD  2   3   2  18   2
M  END
