Coordinates from ORCA-job 4-MeOPhN2+~Cl-_B3LYPG-6-31G_dp-CH-Scan-d09-49-n800
 OpenBabel11261919403D

 18 17  0  0  0  0  0  0  0  0999 V2000
   -1.4979   -0.1208   -0.0207 C   0  0  0  0  0  0  0  0  0  0  0  0
   -2.8619   -0.2083    0.0918 N   0  0  0  0  0  0  0  0  0  0  0  0
   -3.9792   -0.2246    0.1859 N   0  0  0  0  0  0  0  0  0  0  0  0
   -0.9857    1.2001   -0.0133 C   0  0  0  0  0  0  0  0  0  0  0  0
    0.4083    1.2101   -0.1306 C   0  0  0  0  0  0  0  0  0  0  0  0
    1.1863    0.0443   -0.2397 C   0  0  0  0  0  0  0  0  0  0  0  0
    2.5188    0.2265   -0.3431 O   0  0  0  0  0  0  0  0  0  0  0  0
    3.3856   -0.8992   -0.4536 C   0  0  0  0  0  0  0  0  0  0  0  0
    0.5840   -1.2464   -0.2385 C   0  0  0  0  0  0  0  0  0  0  0  0
   -0.7827   -1.3426   -0.1276 C   0  0  0  0  0  0  0  0  0  0  0  0
   -2.2946    2.7707    0.1559 H   0  0  0  0  0  0  0  0  0  0  0  0
    0.9545    2.1520   -0.1402 H   0  0  0  0  0  0  0  0  0  0  0  0
    4.3941   -0.4902   -0.5163 H   0  0  0  0  0  0  0  0  0  0  0  0
    3.1749   -1.4810   -1.3587 H   0  0  0  0  0  0  0  0  0  0  0  0
    3.3127   -1.5493    0.4264 H   0  0  0  0  0  0  0  0  0  0  0  0
    1.1817   -2.1450   -0.3223 H   0  0  0  0  0  0  0  0  0  0  0  0
   -1.2836   -2.3070   -0.1225 H   0  0  0  0  0  0  0  0  0  0  0  0
   -3.2861    3.6742    0.2720 Cl  0  0  0  0  0  0  0  0  0  0  0  0
  1  4  1  0  0  0  0
  1  2  1  0  0  0  0
  2  3  1  0  0  0  0
  5  4  2  0  0  0  0
  6  9  2  0  0  0  0
  6  5  1  0  0  0  0
  7  6  1  0  0  0  0
  8  7  1  0  0  0  0
  8 15  1  0  0  0  0
  9 10  1  0  0  0  0
 10 17  1  0  0  0  0
 10  1  2  0  0  0  0
 11 18  1  0  0  0  0
 12  5  1  0  0  0  0
 13  8  1  0  0  0  0
 14  8  1  0  0  0  0
 16  9  1  0  0  0  0
M  RAD  3   2   2   3   3   4   2
M  END
