Coordinates from ORCA-job 4-MeOPhN2+~Cl-_B3LYPG-6-31G_dp-CH-Scan-d09-49-n800
 OpenBabel11261919403D

 18 18  0  0  0  0  0  0  0  0999 V2000
   -1.5690    0.0213   -0.0133 C   0  0  0  0  0  0  0  0  0  0  0  0
   -2.9557   -0.1196    0.0979 N   0  0  0  0  0  0  0  0  0  0  0  0
   -3.9553    0.4813    0.2099 N   0  0  0  0  0  0  0  0  0  0  0  0
   -0.9195    1.2746   -0.0202 C   0  0  0  0  0  0  0  0  0  0  0  0
    0.4588    1.2942   -0.1347 C   0  0  0  0  0  0  0  0  0  0  0  0
    1.2008    0.1017   -0.2409 C   0  0  0  0  0  0  0  0  0  0  0  0
    2.5378    0.2564   -0.3449 O   0  0  0  0  0  0  0  0  0  0  0  0
    3.3623   -0.9010   -0.4480 C   0  0  0  0  0  0  0  0  0  0  0  0
    0.5415   -1.1395   -0.2331 C   0  0  0  0  0  0  0  0  0  0  0  0
   -0.8420   -1.1711   -0.1197 C   0  0  0  0  0  0  0  0  0  0  0  0
   -1.3968    2.0403    0.0497 H   0  0  0  0  0  0  0  0  0  0  0  0
    0.9976    2.2359   -0.1435 H   0  0  0  0  0  0  0  0  0  0  0  0
    4.3856   -0.5309   -0.5121 H   0  0  0  0  0  0  0  0  0  0  0  0
    3.1282   -1.4795   -1.3496 H   0  0  0  0  0  0  0  0  0  0  0  0
    3.2617   -1.5423    0.4357 H   0  0  0  0  0  0  0  0  0  0  0  0
    1.0925   -2.0681   -0.3138 H   0  0  0  0  0  0  0  0  0  0  0  0
   -1.3754   -2.1156   -0.1114 H   0  0  0  0  0  0  0  0  0  0  0  0
   -3.8239    2.6254    0.2967 Cl  0  0  0  0  0  0  0  0  0  0  0  0
  1  2  1  0  0  0  0
  2  3  2  0  0  0  0
  3 18  1  0  0  0  0
  4  1  1  0  0  0  0
  4 11  1  0  0  0  0
  5  4  2  0  0  0  0
  6  9  2  0  0  0  0
  6  5  1  0  0  0  0
  7  6  1  0  0  0  0
  8  7  1  0  0  0  0
  8 15  1  0  0  0  0
  9 10  1  0  0  0  0
 10 17  1  0  0  0  0
 10  1  2  0  0  0  0
 12  5  1  0  0  0  0
 13  8  1  0  0  0  0
 14  8  1  0  0  0  0
 16  9  1  0  0  0  0
M  END
