Coordinates from ORCA-job 4-MeOPhN2+~Cl-_B3LYPG-6-31G_dp-CH-Scan-d09-49-n800
 OpenBabel11261919403D

 18 17  0  0  0  0  0  0  0  0999 V2000
   -1.4730   -0.1750   -0.0270 C   0  0  0  0  0  0  0  0  0  0  0  0
   -2.8365   -0.2741    0.0843 N   0  0  0  0  0  0  0  0  0  0  0  0
   -3.9545   -0.3028    0.1774 N   0  0  0  0  0  0  0  0  0  0  0  0
   -0.9798    1.1539   -0.0201 C   0  0  0  0  0  0  0  0  0  0  0  0
    0.4176    1.1676   -0.1369 C   0  0  0  0  0  0  0  0  0  0  0  0
    1.2049    0.0090   -0.2440 C   0  0  0  0  0  0  0  0  0  0  0  0
    2.5378    0.2008   -0.3469 O   0  0  0  0  0  0  0  0  0  0  0  0
    3.4117   -0.9186   -0.4554 C   0  0  0  0  0  0  0  0  0  0  0  0
    0.6143   -1.2880   -0.2417 C   0  0  0  0  0  0  0  0  0  0  0  0
   -0.7511   -1.3945   -0.1317 C   0  0  0  0  0  0  0  0  0  0  0  0
   -2.5147    3.0931    0.1894 H   0  0  0  0  0  0  0  0  0  0  0  0
    0.9610    2.1118   -0.1479 H   0  0  0  0  0  0  0  0  0  0  0  0
    4.4179   -0.5033   -0.5182 H   0  0  0  0  0  0  0  0  0  0  0  0
    3.2062   -1.5038   -1.3597 H   0  0  0  0  0  0  0  0  0  0  0  0
    3.3436   -1.5687    0.4251 H   0  0  0  0  0  0  0  0  0  0  0  0
    1.2200   -2.1815   -0.3239 H   0  0  0  0  0  0  0  0  0  0  0  0
   -1.2452   -2.3627   -0.1259 H   0  0  0  0  0  0  0  0  0  0  0  0
   -3.4508    4.0001    0.3081 Cl  0  0  0  0  0  0  0  0  0  0  0  0
  1  4  1  0  0  0  0
  1  2  1  0  0  0  0
  2  3  1  0  0  0  0
  5  4  2  0  0  0  0
  6  9  2  0  0  0  0
  6  5  1  0  0  0  0
  7  6  1  0  0  0  0
  8  7  1  0  0  0  0
  8 15  1  0  0  0  0
  9 10  1  0  0  0  0
 10 17  1  0  0  0  0
 10  1  2  0  0  0  0
 11 18  1  0  0  0  0
 12  5  1  0  0  0  0
 13  8  1  0  0  0  0
 14  8  1  0  0  0  0
 16  9  1  0  0  0  0
M  RAD  3   2   2   3   3   4   2
M  END
