Coordinates from ORCA-job 4-MeOPhN2+~Cl-_B3LYPG-6-31G_dp-CH-Scan-d09-49-n800
 OpenBabel11261919403D

 18 17  0  0  0  0  0  0  0  0999 V2000
   -1.4041   -0.5487   -0.0601 C   0  0  0  0  0  0  0  0  0  0  0  0
   -2.7638   -0.7375    0.0416 N   0  0  0  0  0  0  0  0  0  0  0  0
   -3.8807   -0.8215    0.1268 N   0  0  0  0  0  0  0  0  0  0  0  0
   -1.0324    0.8167   -0.0528 C   0  0  0  0  0  0  0  0  0  0  0  0
    0.3675    0.9285   -0.1608 C   0  0  0  0  0  0  0  0  0  0  0  0
    1.2411   -0.1654   -0.2594 C   0  0  0  0  0  0  0  0  0  0  0  0
    2.5602    0.1262   -0.3563 O   0  0  0  0  0  0  0  0  0  0  0  0
    3.5132   -0.9251   -0.4587 C   0  0  0  0  0  0  0  0  0  0  0  0
    0.7541   -1.5061   -0.2561 C   0  0  0  0  0  0  0  0  0  0  0  0
   -0.5999   -1.7166   -0.1546 C   0  0  0  0  0  0  0  0  0  0  0  0
   -3.2283    4.7426    0.3291 H   0  0  0  0  0  0  0  0  0  0  0  0
    0.8438    1.9098   -0.1717 H   0  0  0  0  0  0  0  0  0  0  0  0
    4.4870   -0.4385   -0.5227 H   0  0  0  0  0  0  0  0  0  0  0  0
    3.3533   -1.5295   -1.3599 H   0  0  0  0  0  0  0  0  0  0  0  0
    3.4937   -1.5758    0.4244 H   0  0  0  0  0  0  0  0  0  0  0  0
    1.4282   -2.3497   -0.3311 H   0  0  0  0  0  0  0  0  0  0  0  0
   -1.0203   -2.7196   -0.1480 H   0  0  0  0  0  0  0  0  0  0  0  0
   -3.9834    5.7736    0.4752 Cl  0  0  0  0  0  0  0  0  0  0  0  0
  1  4  1  0  0  0  0
  1  2  1  0  0  0  0
  2  3  1  0  0  0  0
  5  4  2  0  0  0  0
  6  9  2  0  0  0  0
  6  5  1  0  0  0  0
  7  6  1  0  0  0  0
  8  7  1  0  0  0  0
  8 15  1  0  0  0  0
  9 10  1  0  0  0  0
 10 17  1  0  0  0  0
 10  1  2  0  0  0  0
 11 18  1  0  0  0  0
 12  5  1  0  0  0  0
 13  8  1  0  0  0  0
 14  8  1  0  0  0  0
 16  9  1  0  0  0  0
M  RAD  3   2   2   3   3   4   2
M  END
