Coordinates from ORCA-job 4-MeOPhN2+~Cl-_B3LYPG-6-31G_dp-CH-Scan-d09-49-n800
 OpenBabel11261919403D

 18 17  0  0  0  0  0  0  0  0999 V2000
   -1.4672   -0.1957   -0.0290 C   0  0  0  0  0  0  0  0  0  0  0  0
   -2.8305   -0.2997    0.0819 N   0  0  0  0  0  0  0  0  0  0  0  0
   -3.9486   -0.3327    0.1745 N   0  0  0  0  0  0  0  0  0  0  0  0
   -0.9810    1.1357   -0.0222 C   0  0  0  0  0  0  0  0  0  0  0  0
    0.4171    1.1532   -0.1387 C   0  0  0  0  0  0  0  0  0  0  0  0
    1.2088   -0.0023   -0.2451 C   0  0  0  0  0  0  0  0  0  0  0  0
    2.5415    0.1944   -0.3478 O   0  0  0  0  0  0  0  0  0  0  0  0
    3.4192   -0.9218   -0.4559 C   0  0  0  0  0  0  0  0  0  0  0  0
    0.6235   -1.3018   -0.2426 C   0  0  0  0  0  0  0  0  0  0  0  0
   -0.7415   -1.4133   -0.1330 C   0  0  0  0  0  0  0  0  0  0  0  0
   -2.5739    3.1942    0.1992 H   0  0  0  0  0  0  0  0  0  0  0  0
    0.9579    2.0991   -0.1498 H   0  0  0  0  0  0  0  0  0  0  0  0
    4.4240   -0.5032   -0.5187 H   0  0  0  0  0  0  0  0  0  0  0  0
    3.2159   -1.5081   -1.3600 H   0  0  0  0  0  0  0  0  0  0  0  0
    3.3533   -1.5721    0.4247 H   0  0  0  0  0  0  0  0  0  0  0  0
    1.2327   -2.1929   -0.3244 H   0  0  0  0  0  0  0  0  0  0  0  0
   -1.2322   -2.3834   -0.1270 H   0  0  0  0  0  0  0  0  0  0  0  0
   -3.4895    4.1138    0.3188 Cl  0  0  0  0  0  0  0  0  0  0  0  0
  1  4  1  0  0  0  0
  1  2  1  0  0  0  0
  2  3  1  0  0  0  0
  5  4  2  0  0  0  0
  6  9  2  0  0  0  0
  6  5  1  0  0  0  0
  7  6  1  0  0  0  0
  8  7  1  0  0  0  0
  8 15  1  0  0  0  0
  9 10  1  0  0  0  0
 10 17  1  0  0  0  0
 10  1  2  0  0  0  0
 11 18  1  0  0  0  0
 12  5  1  0  0  0  0
 13  8  1  0  0  0  0
 14  8  1  0  0  0  0
 16  9  1  0  0  0  0
M  RAD  3   2   2   3   3   4   2
M  END
