Coordinates from ORCA-job 4-MeOPhN2+~Cl-_B3LYPG-6-31G_dp-CH-Scan-d09-49-n800
 OpenBabel11261919403D

 18 17  0  0  0  0  0  0  0  0999 V2000
   -1.5344   -0.0373   -0.0163 C   0  0  0  0  0  0  0  0  0  0  0  0
   -2.9243   -0.1024    0.0977 N   0  0  0  0  0  0  0  0  0  0  0  0
   -3.9190    0.4727    0.2041 N   0  0  0  0  0  0  0  0  0  0  0  0
   -0.9109    1.2197   -0.0198 C   0  0  0  0  0  0  0  0  0  0  0  0
    0.4627    1.2709   -0.1322 C   0  0  0  0  0  0  0  0  0  0  0  0
    1.2094    0.0777   -0.2398 C   0  0  0  0  0  0  0  0  0  0  0  0
    2.5448    0.2384   -0.3435 O   0  0  0  0  0  0  0  0  0  0  0  0
    3.3805   -0.9109   -0.4527 C   0  0  0  0  0  0  0  0  0  0  0  0
    0.5650   -1.1773   -0.2346 C   0  0  0  0  0  0  0  0  0  0  0  0
   -0.8162   -1.2358   -0.1222 C   0  0  0  0  0  0  0  0  0  0  0  0
   -1.8153    2.3022    0.0989 H   0  0  0  0  0  0  0  0  0  0  0  0
    0.9992    2.2138   -0.1402 H   0  0  0  0  0  0  0  0  0  0  0  0
    4.3997   -0.5302   -0.5178 H   0  0  0  0  0  0  0  0  0  0  0  0
    3.1503   -1.4882   -1.3560 H   0  0  0  0  0  0  0  0  0  0  0  0
    3.2886   -1.5561    0.4290 H   0  0  0  0  0  0  0  0  0  0  0  0
    1.1327   -2.0954   -0.3166 H   0  0  0  0  0  0  0  0  0  0  0  0
   -1.3369   -2.1879   -0.1157 H   0  0  0  0  0  0  0  0  0  0  0  0
   -3.7465    2.7895    0.2824 Cl  0  0  0  0  0  0  0  0  0  0  0  0
  1  2  1  0  0  0  0
  2  3  2  0  0  0  0
  4  1  1  0  0  0  0
  4 11  1  0  0  0  0
  5  4  2  0  0  0  0
  6  9  2  0  0  0  0
  6  5  1  0  0  0  0
  7  6  1  0  0  0  0
  8  7  1  0  0  0  0
  8 15  1  0  0  0  0
  9 10  1  0  0  0  0
 10 17  1  0  0  0  0
 10  1  2  0  0  0  0
 12  5  1  0  0  0  0
 13  8  1  0  0  0  0
 14  8  1  0  0  0  0
 16  9  1  0  0  0  0
M  RAD  2   3   2  18   2
M  END
