Coordinates from ORCA-job 4-MeOPhN2+~Cl-_B3LYPG-6-31G_dp-CH-Scan-d09-49-n800
 OpenBabel11261919403D

 18 17  0  0  0  0  0  0  0  0999 V2000
   -1.4131   -0.4031   -0.0506 C   0  0  0  0  0  0  0  0  0  0  0  0
   -2.7768   -0.5480    0.0552 N   0  0  0  0  0  0  0  0  0  0  0  0
   -3.8954   -0.5996    0.1435 N   0  0  0  0  0  0  0  0  0  0  0  0
   -0.9923    0.9488   -0.0468 C   0  0  0  0  0  0  0  0  0  0  0  0
    0.4095    1.0124   -0.1586 C   0  0  0  0  0  0  0  0  0  0  0  0
    1.2447   -0.1112   -0.2572 C   0  0  0  0  0  0  0  0  0  0  0  0
    2.5723    0.1349   -0.3570 O   0  0  0  0  0  0  0  0  0  0  0  0
    3.4893   -0.9484   -0.4587 C   0  0  0  0  0  0  0  0  0  0  0  0
    0.7117   -1.4341   -0.2507 C   0  0  0  0  0  0  0  0  0  0  0  0
   -0.6484   -1.5974   -0.1455 C   0  0  0  0  0  0  0  0  0  0  0  0
   -3.0770    4.1901    0.2924 H   0  0  0  0  0  0  0  0  0  0  0  0
    0.9188    1.9768   -0.1726 H   0  0  0  0  0  0  0  0  0  0  0  0
    4.4789   -0.4949   -0.5225 H   0  0  0  0  0  0  0  0  0  0  0  0
    3.3093   -1.5471   -1.3599 H   0  0  0  0  0  0  0  0  0  0  0  0
    3.4472   -1.5975    0.4246 H   0  0  0  0  0  0  0  0  0  0  0  0
    1.3562   -2.3006   -0.3260 H   0  0  0  0  0  0  0  0  0  0  0  0
   -1.1030   -2.5853   -0.1364 H   0  0  0  0  0  0  0  0  0  0  0  0
   -3.9025    5.1674    0.4315 Cl  0  0  0  0  0  0  0  0  0  0  0  0
  1  4  1  0  0  0  0
  1  2  1  0  0  0  0
  2  3  1  0  0  0  0
  5  4  2  0  0  0  0
  6  9  2  0  0  0  0
  6  5  1  0  0  0  0
  7  6  1  0  0  0  0
  8  7  1  0  0  0  0
  8 15  1  0  0  0  0
  9 10  1  0  0  0  0
 10 17  1  0  0  0  0
 10  1  2  0  0  0  0
 11 18  1  0  0  0  0
 12  5  1  0  0  0  0
 13  8  1  0  0  0  0
 14  8  1  0  0  0  0
 16  9  1  0  0  0  0
M  RAD  3   2   2   3   3   4   2
M  END
