Coordinates from ORCA-job 4-MeOPhN2+~Cl-_B3LYPG-6-31G_dp-CH-Scan-d09-49-n800
 OpenBabel11261919403D

 18 17  0  0  0  0  0  0  0  0999 V2000
   -1.4056   -0.5754   -0.0687 C   0  0  0  0  0  0  0  0  0  0  0  0
   -2.7643   -0.7735    0.0311 N   0  0  0  0  0  0  0  0  0  0  0  0
   -3.8809   -0.8644    0.1140 N   0  0  0  0  0  0  0  0  0  0  0  0
   -1.0447    0.7926   -0.0719 C   0  0  0  0  0  0  0  0  0  0  0  0
    0.3544    0.9151   -0.1776 C   0  0  0  0  0  0  0  0  0  0  0  0
    1.2368   -0.1727   -0.2651 C   0  0  0  0  0  0  0  0  0  0  0  0
    2.5539    0.1284   -0.3618 O   0  0  0  0  0  0  0  0  0  0  0  0
    3.5152   -0.9162   -0.4541 C   0  0  0  0  0  0  0  0  0  0  0  0
    0.7604   -1.5172   -0.2515 C   0  0  0  0  0  0  0  0  0  0  0  0
   -0.5921   -1.7377   -0.1514 C   0  0  0  0  0  0  0  0  0  0  0  0
   -3.2380    4.8253    0.3475 H   0  0  0  0  0  0  0  0  0  0  0  0
    0.8229    1.9001   -0.1957 H   0  0  0  0  0  0  0  0  0  0  0  0
    4.4852   -0.4225   -0.5215 H   0  0  0  0  0  0  0  0  0  0  0  0
    3.3610   -1.5296   -1.3503 H   0  0  0  0  0  0  0  0  0  0  0  0
    3.5001   -1.5592    0.4346 H   0  0  0  0  0  0  0  0  0  0  0  0
    1.4414   -2.3560   -0.3178 H   0  0  0  0  0  0  0  0  0  0  0  0
   -1.0044   -2.7440   -0.1372 H   0  0  0  0  0  0  0  0  0  0  0  0
   -3.9718    5.8703    0.5021 Cl  0  0  0  0  0  0  0  0  0  0  0  0
  1  2  1  0  0  0  0
  2  3  1  0  0  0  0
  4  1  1  0  0  0  0
  5  4  2  0  0  0  0
  6  9  2  0  0  0  0
  6  5  1  0  0  0  0
  7  6  1  0  0  0  0
  8  7  1  0  0  0  0
  8 15  1  0  0  0  0
  9 10  1  0  0  0  0
 10 17  1  0  0  0  0
 10  1  2  0  0  0  0
 11 18  1  0  0  0  0
 12  5  1  0  0  0  0
 13  8  1  0  0  0  0
 14  8  1  0  0  0  0
 16  9  1  0  0  0  0
M  RAD  3   2   2   3   3   4   2
M  END
