Coordinates from ORCA-job 4-MeOPhN2+~Cl-_B3LYPG-6-31G_dp-CH-Scan-d09-49-n800
 OpenBabel11261919403D

 18 17  0  0  0  0  0  0  0  0999 V2000
   -1.4219   -0.3494   -0.0454 C   0  0  0  0  0  0  0  0  0  0  0  0
   -2.7860   -0.4816    0.0620 N   0  0  0  0  0  0  0  0  0  0  0  0
   -3.9047   -0.5257    0.1519 N   0  0  0  0  0  0  0  0  0  0  0  0
   -0.9842    0.9975   -0.0407 C   0  0  0  0  0  0  0  0  0  0  0  0
    0.4175    1.0463   -0.1541 C   0  0  0  0  0  0  0  0  0  0  0  0
    1.2402   -0.0865   -0.2547 C   0  0  0  0  0  0  0  0  0  0  0  0
    2.5699    0.1450   -0.3553 O   0  0  0  0  0  0  0  0  0  0  0  0
    3.4752   -0.9481   -0.4585 C   0  0  0  0  0  0  0  0  0  0  0  0
    0.6922   -1.4032   -0.2492 C   0  0  0  0  0  0  0  0  0  0  0  0
   -0.6694   -1.5514   -0.1428 C   0  0  0  0  0  0  0  0  0  0  0  0
   -2.9860    3.9530    0.2724 H   0  0  0  0  0  0  0  0  0  0  0  0
    0.9369    2.0051   -0.1675 H   0  0  0  0  0  0  0  0  0  0  0  0
    4.4696   -0.5050   -0.5218 H   0  0  0  0  0  0  0  0  0  0  0  0
    3.2886   -1.5435   -1.3605 H   0  0  0  0  0  0  0  0  0  0  0  0
    3.4260   -1.5977    0.4240 H   0  0  0  0  0  0  0  0  0  0  0  0
    1.3268   -2.2768   -0.3263 H   0  0  0  0  0  0  0  0  0  0  0  0
   -1.1348   -2.5342   -0.1345 H   0  0  0  0  0  0  0  0  0  0  0  0
   -3.8263    4.9196    0.4058 Cl  0  0  0  0  0  0  0  0  0  0  0  0
  1  4  1  0  0  0  0
  1  2  1  0  0  0  0
  2  3  1  0  0  0  0
  5  4  2  0  0  0  0
  6  9  2  0  0  0  0
  6  5  1  0  0  0  0
  7  6  1  0  0  0  0
  8  7  1  0  0  0  0
  8 15  1  0  0  0  0
  9 10  1  0  0  0  0
 10 17  1  0  0  0  0
 10  1  2  0  0  0  0
 11 18  1  0  0  0  0
 12  5  1  0  0  0  0
 13  8  1  0  0  0  0
 14  8  1  0  0  0  0
 16  9  1  0  0  0  0
M  RAD  3   2   2   3   3   4   2
M  END
