Coordinates from ORCA-job 4-MeOPhN2+~Cl-_B3LYPG-6-31G_dp-CH-Scan-d09-49-n800
 OpenBabel11261919403D

 18 17  0  0  0  0  0  0  0  0999 V2000
   -1.5076   -0.1013   -0.0185 C   0  0  0  0  0  0  0  0  0  0  0  0
   -2.8720   -0.1833    0.0943 N   0  0  0  0  0  0  0  0  0  0  0  0
   -3.9890   -0.1912    0.1888 N   0  0  0  0  0  0  0  0  0  0  0  0
   -0.9866    1.2156   -0.0114 C   0  0  0  0  0  0  0  0  0  0  0  0
    0.4053    1.2260   -0.1286 C   0  0  0  0  0  0  0  0  0  0  0  0
    1.1799    0.0573   -0.2382 C   0  0  0  0  0  0  0  0  0  0  0  0
    2.5120    0.2359   -0.3417 O   0  0  0  0  0  0  0  0  0  0  0  0
    3.3762   -0.8922   -0.4529 C   0  0  0  0  0  0  0  0  0  0  0  0
    0.5729   -1.2307   -0.2371 C   0  0  0  0  0  0  0  0  0  0  0  0
   -0.7944   -1.3233   -0.1259 C   0  0  0  0  0  0  0  0  0  0  0  0
   -2.2052    2.6470    0.1431 H   0  0  0  0  0  0  0  0  0  0  0  0
    0.9516    2.1676   -0.1378 H   0  0  0  0  0  0  0  0  0  0  0  0
    4.3855   -0.4853   -0.5156 H   0  0  0  0  0  0  0  0  0  0  0  0
    3.1636   -1.4727   -1.3583 H   0  0  0  0  0  0  0  0  0  0  0  0
    3.3016   -1.5420    0.4270 H   0  0  0  0  0  0  0  0  0  0  0  0
    1.1675   -2.1313   -0.3213 H   0  0  0  0  0  0  0  0  0  0  0  0
   -1.2977   -2.2863   -0.1211 H   0  0  0  0  0  0  0  0  0  0  0  0
   -3.2341    3.5535    0.2603 Cl  0  0  0  0  0  0  0  0  0  0  0  0
  1  4  1  0  0  0  0
  1  2  1  0  0  0  0
  2  3  1  0  0  0  0
  5  4  2  0  0  0  0
  6  9  2  0  0  0  0
  6  5  1  0  0  0  0
  7  6  1  0  0  0  0
  8  7  1  0  0  0  0
  8 15  1  0  0  0  0
  9 10  1  0  0  0  0
 10 17  1  0  0  0  0
 10  1  2  0  0  0  0
 11 18  1  0  0  0  0
 12  5  1  0  0  0  0
 13  8  1  0  0  0  0
 14  8  1  0  0  0  0
 16  9  1  0  0  0  0
M  RAD  3   2   2   3   3   4   2
M  END
