Coordinates from ORCA-job 4-MeOPhN2+~Cl-_B3LYPG-6-31G_dp-CH-Scan-d09-49-n800
 OpenBabel11261919403D

 18 17  0  0  0  0  0  0  0  0999 V2000
   -1.4101   -0.4245   -0.0526 C   0  0  0  0  0  0  0  0  0  0  0  0
   -2.7735   -0.5749    0.0525 N   0  0  0  0  0  0  0  0  0  0  0  0
   -3.8920   -0.6300    0.1402 N   0  0  0  0  0  0  0  0  0  0  0  0
   -0.9961    0.9293   -0.0491 C   0  0  0  0  0  0  0  0  0  0  0  0
    0.4057    0.9992   -0.1602 C   0  0  0  0  0  0  0  0  0  0  0  0
    1.2461   -0.1206   -0.2581 C   0  0  0  0  0  0  0  0  0  0  0  0
    2.5727    0.1314   -0.3575 O   0  0  0  0  0  0  0  0  0  0  0  0
    3.4944   -0.9478   -0.4587 C   0  0  0  0  0  0  0  0  0  0  0  0
    0.7191   -1.4460   -0.2512 C   0  0  0  0  0  0  0  0  0  0  0  0
   -0.6402   -1.6156   -0.1466 C   0  0  0  0  0  0  0  0  0  0  0  0
   -3.1101    4.2820    0.2999 H   0  0  0  0  0  0  0  0  0  0  0  0
    0.9108    1.9658   -0.1744 H   0  0  0  0  0  0  0  0  0  0  0  0
    4.4820   -0.4900   -0.5228 H   0  0  0  0  0  0  0  0  0  0  0  0
    3.3171   -1.5478   -1.3596 H   0  0  0  0  0  0  0  0  0  0  0  0
    3.4553   -1.5967    0.4249 H   0  0  0  0  0  0  0  0  0  0  0  0
    1.3676   -2.3096   -0.3258 H   0  0  0  0  0  0  0  0  0  0  0  0
   -1.0904   -2.6055   -0.1372 H   0  0  0  0  0  0  0  0  0  0  0  0
   -3.9288    5.2645    0.4413 Cl  0  0  0  0  0  0  0  0  0  0  0  0
  1  4  1  0  0  0  0
  1  2  1  0  0  0  0
  2  3  1  0  0  0  0
  5  4  2  0  0  0  0
  6  9  2  0  0  0  0
  6  5  1  0  0  0  0
  7  6  1  0  0  0  0
  8  7  1  0  0  0  0
  8 15  1  0  0  0  0
  9 10  1  0  0  0  0
 10 17  1  0  0  0  0
 10  1  2  0  0  0  0
 11 18  1  0  0  0  0
 12  5  1  0  0  0  0
 13  8  1  0  0  0  0
 14  8  1  0  0  0  0
 16  9  1  0  0  0  0
M  RAD  3   2   2   3   3   4   2
M  END
