Coordinates from ORCA-job 4-MeOPhN2+~Cl-_B3LYPG-6-31G_dp-CH-Scan-d09-49-n800
 OpenBabel11261919403D

 18 17  0  0  0  0  0  0  0  0999 V2000
   -1.4056   -0.5739   -0.0683 C   0  0  0  0  0  0  0  0  0  0  0  0
   -2.7642   -0.7718    0.0315 N   0  0  0  0  0  0  0  0  0  0  0  0
   -3.8807   -0.8630    0.1145 N   0  0  0  0  0  0  0  0  0  0  0  0
   -1.0442    0.7941   -0.0711 C   0  0  0  0  0  0  0  0  0  0  0  0
    0.3550    0.9157   -0.1769 C   0  0  0  0  0  0  0  0  0  0  0  0
    1.2370   -0.1723   -0.2649 C   0  0  0  0  0  0  0  0  0  0  0  0
    2.5542    0.1283   -0.3615 O   0  0  0  0  0  0  0  0  0  0  0  0
    3.5151   -0.9166   -0.4543 C   0  0  0  0  0  0  0  0  0  0  0  0
    0.7601   -1.5166   -0.2517 C   0  0  0  0  0  0  0  0  0  0  0  0
   -0.5925   -1.7365   -0.1515 C   0  0  0  0  0  0  0  0  0  0  0  0
   -3.2374    4.8212    0.3467 H   0  0  0  0  0  0  0  0  0  0  0  0
    0.8240    1.9005   -0.1947 H   0  0  0  0  0  0  0  0  0  0  0  0
    4.4852   -0.4233   -0.5215 H   0  0  0  0  0  0  0  0  0  0  0  0
    3.3606   -1.5296   -1.3507 H   0  0  0  0  0  0  0  0  0  0  0  0
    3.4998   -1.5600    0.4342 H   0  0  0  0  0  0  0  0  0  0  0  0
    1.4406   -2.3558   -0.3183 H   0  0  0  0  0  0  0  0  0  0  0  0
   -1.0054   -2.7426   -0.1376 H   0  0  0  0  0  0  0  0  0  0  0  0
   -3.9722    5.8656    0.5010 Cl  0  0  0  0  0  0  0  0  0  0  0  0
  1  2  1  0  0  0  0
  2  3  1  0  0  0  0
  4  1  1  0  0  0  0
  5  4  2  0  0  0  0
  6  9  2  0  0  0  0
  6  5  1  0  0  0  0
  7  6  1  0  0  0  0
  8  7  1  0  0  0  0
  8 15  1  0  0  0  0
  9 10  1  0  0  0  0
 10 17  1  0  0  0  0
 10  1  2  0  0  0  0
 11 18  1  0  0  0  0
 12  5  1  0  0  0  0
 13  8  1  0  0  0  0
 14  8  1  0  0  0  0
 16  9  1  0  0  0  0
M  RAD  3   2   2   3   3   4   2
M  END
