Coordinates from ORCA-job 4-MeOPhN2+~Cl-_B3LYPG-6-31G_dp-CH-Scan-d09-49-n800
 OpenBabel11261919403D

 18 17  0  0  0  0  0  0  0  0999 V2000
   -1.5042   -0.1085   -0.0192 C   0  0  0  0  0  0  0  0  0  0  0  0
   -2.8684   -0.1928    0.0934 N   0  0  0  0  0  0  0  0  0  0  0  0
   -3.9855   -0.2045    0.1878 N   0  0  0  0  0  0  0  0  0  0  0  0
   -0.9867    1.2100   -0.0119 C   0  0  0  0  0  0  0  0  0  0  0  0
    0.4061    1.2202   -0.1292 C   0  0  0  0  0  0  0  0  0  0  0  0
    1.1820    0.0526   -0.2387 C   0  0  0  0  0  0  0  0  0  0  0  0
    2.5143    0.2326   -0.3421 O   0  0  0  0  0  0  0  0  0  0  0  0
    3.3795   -0.8945   -0.4532 C   0  0  0  0  0  0  0  0  0  0  0  0
    0.5768   -1.2365   -0.2376 C   0  0  0  0  0  0  0  0  0  0  0  0
   -0.7902   -1.3305   -0.1265 C   0  0  0  0  0  0  0  0  0  0  0  0
   -2.2379    2.6923    0.1477 H   0  0  0  0  0  0  0  0  0  0  0  0
    0.9524    2.1619   -0.1385 H   0  0  0  0  0  0  0  0  0  0  0  0
    4.3885   -0.4868   -0.5158 H   0  0  0  0  0  0  0  0  0  0  0  0
    3.1676   -1.4754   -1.3585 H   0  0  0  0  0  0  0  0  0  0  0  0
    3.3056   -1.5445    0.4267 H   0  0  0  0  0  0  0  0  0  0  0  0
    1.1727   -2.1362   -0.3217 H   0  0  0  0  0  0  0  0  0  0  0  0
   -1.2926   -2.2940   -0.1217 H   0  0  0  0  0  0  0  0  0  0  0  0
   -3.2505    3.5980    0.2640 Cl  0  0  0  0  0  0  0  0  0  0  0  0
  1  4  1  0  0  0  0
  1  2  1  0  0  0  0
  2  3  1  0  0  0  0
  5  4  2  0  0  0  0
  6  9  2  0  0  0  0
  6  5  1  0  0  0  0
  7  6  1  0  0  0  0
  8  7  1  0  0  0  0
  8 15  1  0  0  0  0
  9 10  1  0  0  0  0
 10 17  1  0  0  0  0
 10  1  2  0  0  0  0
 11 18  1  0  0  0  0
 12  5  1  0  0  0  0
 13  8  1  0  0  0  0
 14  8  1  0  0  0  0
 16  9  1  0  0  0  0
M  RAD  3   2   2   3   3   4   2
M  END
