Coordinates from ORCA-job 4-MeOPhN2+~Cl-_B3LYPG-6-31G_dp-CH-Scan-d09-49-n800
 OpenBabel11261919403D

 18 17  0  0  0  0  0  0  0  0999 V2000
   -1.4039   -0.5380   -0.0588 C   0  0  0  0  0  0  0  0  0  0  0  0
   -2.7641   -0.7231    0.0426 N   0  0  0  0  0  0  0  0  0  0  0  0
   -3.8813   -0.8042    0.1273 N   0  0  0  0  0  0  0  0  0  0  0  0
   -1.0282    0.8263   -0.0509 C   0  0  0  0  0  0  0  0  0  0  0  0
    0.3720    0.9342   -0.1586 C   0  0  0  0  0  0  0  0  0  0  0  0
    1.2424   -0.1621   -0.2585 C   0  0  0  0  0  0  0  0  0  0  0  0
    2.5623    0.1257   -0.3560 O   0  0  0  0  0  0  0  0  0  0  0  0
    3.5122   -0.9283   -0.4596 C   0  0  0  0  0  0  0  0  0  0  0  0
    0.7516   -1.5015   -0.2557 C   0  0  0  0  0  0  0  0  0  0  0  0
   -0.6030   -1.7081   -0.1539 C   0  0  0  0  0  0  0  0  0  0  0  0
   -3.2221    4.7077    0.3257 H   0  0  0  0  0  0  0  0  0  0  0  0
    0.8511    1.9141   -0.1691 H   0  0  0  0  0  0  0  0  0  0  0  0
    4.4873   -0.4444   -0.5237 H   0  0  0  0  0  0  0  0  0  0  0  0
    3.3502   -1.5315   -1.3613 H   0  0  0  0  0  0  0  0  0  0  0  0
    3.4913   -1.5795    0.4230 H   0  0  0  0  0  0  0  0  0  0  0  0
    1.4233   -2.3470   -0.3313 H   0  0  0  0  0  0  0  0  0  0  0  0
   -1.0262   -2.7099   -0.1474 H   0  0  0  0  0  0  0  0  0  0  0  0
   -3.9853    5.7329    0.4711 Cl  0  0  0  0  0  0  0  0  0  0  0  0
  1  4  1  0  0  0  0
  1  2  1  0  0  0  0
  2  3  1  0  0  0  0
  5  4  2  0  0  0  0
  6  9  2  0  0  0  0
  6  5  1  0  0  0  0
  7  6  1  0  0  0  0
  8  7  1  0  0  0  0
  8 15  1  0  0  0  0
  9 10  1  0  0  0  0
 10 17  1  0  0  0  0
 10  1  2  0  0  0  0
 11 18  1  0  0  0  0
 12  5  1  0  0  0  0
 13  8  1  0  0  0  0
 14  8  1  0  0  0  0
 16  9  1  0  0  0  0
M  RAD  3   2   2   3   3   4   2
M  END
