Coordinates from ORCA-job 4-MeOPhN2+~Cl-_B3LYPG-6-31G_dp-CH-Scan-d09-49-n800
 OpenBabel11261919403D

 18 18  0  0  0  0  0  0  0  0999 V2000
   -1.5584    0.0132   -0.0155 C   0  0  0  0  0  0  0  0  0  0  0  0
   -2.9450   -0.1189    0.0951 N   0  0  0  0  0  0  0  0  0  0  0  0
   -3.9527    0.4623    0.2079 N   0  0  0  0  0  0  0  0  0  0  0  0
   -0.9046    1.2622   -0.0235 C   0  0  0  0  0  0  0  0  0  0  0  0
    0.4722    1.2884   -0.1365 C   0  0  0  0  0  0  0  0  0  0  0  0
    1.2112    0.0927   -0.2411 C   0  0  0  0  0  0  0  0  0  0  0  0
    2.5483    0.2446   -0.3443 O   0  0  0  0  0  0  0  0  0  0  0  0
    3.3714   -0.9140   -0.4491 C   0  0  0  0  0  0  0  0  0  0  0  0
    0.5506   -1.1487   -0.2331 C   0  0  0  0  0  0  0  0  0  0  0  0
   -0.8326   -1.1810   -0.1208 C   0  0  0  0  0  0  0  0  0  0  0  0
   -1.5094    2.1953    0.0619 H   0  0  0  0  0  0  0  0  0  0  0  0
    1.0126    2.2286   -0.1461 H   0  0  0  0  0  0  0  0  0  0  0  0
    4.3950   -0.5450   -0.5141 H   0  0  0  0  0  0  0  0  0  0  0  0
    3.1355   -1.4914   -1.3509 H   0  0  0  0  0  0  0  0  0  0  0  0
    3.2709   -1.5557    0.4342 H   0  0  0  0  0  0  0  0  0  0  0  0
    1.1016   -2.0773   -0.3130 H   0  0  0  0  0  0  0  0  0  0  0  0
   -1.3659   -2.1256   -0.1125 H   0  0  0  0  0  0  0  0  0  0  0  0
   -3.8715    2.6335    0.3061 Cl  0  0  0  0  0  0  0  0  0  0  0  0
  1  2  1  0  0  0  0
  2  3  2  0  0  0  0
  3 18  1  0  0  0  0
  4  1  1  0  0  0  0
  4 11  1  0  0  0  0
  5  4  2  0  0  0  0
  6  9  2  0  0  0  0
  6  5  1  0  0  0  0
  7  6  1  0  0  0  0
  8  7  1  0  0  0  0
  8 15  1  0  0  0  0
  9 10  1  0  0  0  0
 10 17  1  0  0  0  0
 10  1  2  0  0  0  0
 12  5  1  0  0  0  0
 13  8  1  0  0  0  0
 14  8  1  0  0  0  0
 16  9  1  0  0  0  0
M  END
