Coordinates from ORCA-job 4-MeOPhN2+~Cl-_B3LYPG-6-31G_dp-CH-Scan-d09-49-n800
 OpenBabel11261919403D

 18 18  0  0  0  0  0  0  0  0999 V2000
   -1.5603    0.0153   -0.0156 C   0  0  0  0  0  0  0  0  0  0  0  0
   -2.9468   -0.1193    0.0949 N   0  0  0  0  0  0  0  0  0  0  0  0
   -3.9537    0.4645    0.2083 N   0  0  0  0  0  0  0  0  0  0  0  0
   -0.9068    1.2650   -0.0236 C   0  0  0  0  0  0  0  0  0  0  0  0
    0.4703    1.2895   -0.1368 C   0  0  0  0  0  0  0  0  0  0  0  0
    1.2097    0.0943   -0.2412 C   0  0  0  0  0  0  0  0  0  0  0  0
    2.5469    0.2464   -0.3443 O   0  0  0  0  0  0  0  0  0  0  0  0
    3.3699   -0.9122   -0.4486 C   0  0  0  0  0  0  0  0  0  0  0  0
    0.5491   -1.1470   -0.2331 C   0  0  0  0  0  0  0  0  0  0  0  0
   -0.8342   -1.1787   -0.1208 C   0  0  0  0  0  0  0  0  0  0  0  0
   -1.4886    2.1715    0.0588 H   0  0  0  0  0  0  0  0  0  0  0  0
    1.0107    2.2298   -0.1464 H   0  0  0  0  0  0  0  0  0  0  0  0
    4.3936   -0.5432   -0.5135 H   0  0  0  0  0  0  0  0  0  0  0  0
    3.1343   -1.4899   -1.3502 H   0  0  0  0  0  0  0  0  0  0  0  0
    3.2693   -1.5536    0.4350 H   0  0  0  0  0  0  0  0  0  0  0  0
    1.0998   -2.0758   -0.3128 H   0  0  0  0  0  0  0  0  0  0  0  0
   -1.3677   -2.1231   -0.1124 H   0  0  0  0  0  0  0  0  0  0  0  0
   -3.8662    2.6300    0.3074 Cl  0  0  0  0  0  0  0  0  0  0  0  0
  1  2  1  0  0  0  0
  2  3  2  0  0  0  0
  3 18  1  0  0  0  0
  4  1  1  0  0  0  0
  4 11  1  0  0  0  0
  5  4  2  0  0  0  0
  6  9  2  0  0  0  0
  6  5  1  0  0  0  0
  7  6  1  0  0  0  0
  8  7  1  0  0  0  0
  8 15  1  0  0  0  0
  9 10  1  0  0  0  0
 10 17  1  0  0  0  0
 10  1  2  0  0  0  0
 12  5  1  0  0  0  0
 13  8  1  0  0  0  0
 14  8  1  0  0  0  0
 16  9  1  0  0  0  0
M  END
