Coordinates from ORCA-job 4-MeOPhN2+~Cl-_B3LYPG-6-31G_dp-CH-Scan-d09-49-n800
 OpenBabel11261919403D

 18 17  0  0  0  0  0  0  0  0999 V2000
   -1.4039   -0.5354   -0.0588 C   0  0  0  0  0  0  0  0  0  0  0  0
   -2.7642   -0.7196    0.0427 N   0  0  0  0  0  0  0  0  0  0  0  0
   -3.8814   -0.7999    0.1276 N   0  0  0  0  0  0  0  0  0  0  0  0
   -1.0272    0.8286   -0.0511 C   0  0  0  0  0  0  0  0  0  0  0  0
    0.3729    0.9356   -0.1589 C   0  0  0  0  0  0  0  0  0  0  0  0
    1.2426   -0.1613   -0.2586 C   0  0  0  0  0  0  0  0  0  0  0  0
    2.5627    0.1256   -0.3561 O   0  0  0  0  0  0  0  0  0  0  0  0
    3.5119   -0.9290   -0.4595 C   0  0  0  0  0  0  0  0  0  0  0  0
    0.7509   -1.5003   -0.2556 C   0  0  0  0  0  0  0  0  0  0  0  0
   -0.6038   -1.7061   -0.1537 C   0  0  0  0  0  0  0  0  0  0  0  0
   -3.2203    4.6990    0.3254 H   0  0  0  0  0  0  0  0  0  0  0  0
    0.8527    1.9153   -0.1696 H   0  0  0  0  0  0  0  0  0  0  0  0
    4.4874   -0.4457   -0.5237 H   0  0  0  0  0  0  0  0  0  0  0  0
    3.3496   -1.5322   -1.3611 H   0  0  0  0  0  0  0  0  0  0  0  0
    3.4906   -1.5801    0.4232 H   0  0  0  0  0  0  0  0  0  0  0  0
    1.4221   -2.3463   -0.3310 H   0  0  0  0  0  0  0  0  0  0  0  0
   -1.0277   -2.7076   -0.1471 H   0  0  0  0  0  0  0  0  0  0  0  0
   -3.9855    5.7227    0.4709 Cl  0  0  0  0  0  0  0  0  0  0  0  0
  1  4  1  0  0  0  0
  1  2  1  0  0  0  0
  2  3  1  0  0  0  0
  5  4  2  0  0  0  0
  6  9  2  0  0  0  0
  6  5  1  0  0  0  0
  7  6  1  0  0  0  0
  8  7  1  0  0  0  0
  8 15  1  0  0  0  0
  9 10  1  0  0  0  0
 10 17  1  0  0  0  0
 10  1  2  0  0  0  0
 11 18  1  0  0  0  0
 12  5  1  0  0  0  0
 13  8  1  0  0  0  0
 14  8  1  0  0  0  0
 16  9  1  0  0  0  0
M  RAD  3   2   2   3   3   4   2
M  END
