Coordinates from ORCA-job 4-MeOPhN2+~Cl-_B3LYPG-6-31G_dp-CH-Scan-d09-49-n800
 OpenBabel11261919403D

 18 17  0  0  0  0  0  0  0  0999 V2000
   -1.4159   -0.3823   -0.0487 C   0  0  0  0  0  0  0  0  0  0  0  0
   -2.7798   -0.5220    0.0578 N   0  0  0  0  0  0  0  0  0  0  0  0
   -3.8985   -0.5702    0.1467 N   0  0  0  0  0  0  0  0  0  0  0  0
   -0.9884    0.9676   -0.0446 C   0  0  0  0  0  0  0  0  0  0  0  0
    0.4134    1.0252   -0.1570 C   0  0  0  0  0  0  0  0  0  0  0  0
    1.2436   -0.1021   -0.2564 C   0  0  0  0  0  0  0  0  0  0  0  0
    2.5721    0.1381   -0.3564 O   0  0  0  0  0  0  0  0  0  0  0  0
    3.4843   -0.9492   -0.4586 C   0  0  0  0  0  0  0  0  0  0  0  0
    0.7046   -1.4226   -0.2502 C   0  0  0  0  0  0  0  0  0  0  0  0
   -0.6561   -1.5798   -0.1445 C   0  0  0  0  0  0  0  0  0  0  0  0
   -3.0457    4.1019    0.2852 H   0  0  0  0  0  0  0  0  0  0  0  0
    0.9269    1.9873   -0.1709 H   0  0  0  0  0  0  0  0  0  0  0  0
    4.4759   -0.4999   -0.5223 H   0  0  0  0  0  0  0  0  0  0  0  0
    3.3017   -1.5466   -1.3601 H   0  0  0  0  0  0  0  0  0  0  0  0
    3.4393   -1.5985    0.4244 H   0  0  0  0  0  0  0  0  0  0  0  0
    1.3451   -2.2920   -0.3261 H   0  0  0  0  0  0  0  0  0  0  0  0
   -1.1152   -2.5656   -0.1357 H   0  0  0  0  0  0  0  0  0  0  0  0
   -3.8779    5.0741    0.4223 Cl  0  0  0  0  0  0  0  0  0  0  0  0
  1  4  1  0  0  0  0
  1  2  1  0  0  0  0
  2  3  1  0  0  0  0
  5  4  2  0  0  0  0
  6  9  2  0  0  0  0
  6  5  1  0  0  0  0
  7  6  1  0  0  0  0
  8  7  1  0  0  0  0
  8 15  1  0  0  0  0
  9 10  1  0  0  0  0
 10 17  1  0  0  0  0
 10  1  2  0  0  0  0
 11 18  1  0  0  0  0
 12  5  1  0  0  0  0
 13  8  1  0  0  0  0
 14  8  1  0  0  0  0
 16  9  1  0  0  0  0
M  RAD  3   2   2   3   3   4   2
M  END
