Coordinates from ORCA-job 4-MeOPhN2+~Cl-_B3LYPG-6-31G_dp-CH-Scan-d09-49-n800
 OpenBabel11261919403D

 18 18  0  0  0  0  0  0  0  0999 V2000
   -1.5610    0.0160   -0.0156 C   0  0  0  0  0  0  0  0  0  0  0  0
   -2.9476   -0.1194    0.0949 N   0  0  0  0  0  0  0  0  0  0  0  0
   -3.9540    0.4655    0.2084 N   0  0  0  0  0  0  0  0  0  0  0  0
   -0.9079    1.2661   -0.0236 C   0  0  0  0  0  0  0  0  0  0  0  0
    0.4695    1.2899   -0.1368 C   0  0  0  0  0  0  0  0  0  0  0  0
    1.2090    0.0949   -0.2412 C   0  0  0  0  0  0  0  0  0  0  0  0
    2.5462    0.2472   -0.3443 O   0  0  0  0  0  0  0  0  0  0  0  0
    3.3693   -0.9114   -0.4484 C   0  0  0  0  0  0  0  0  0  0  0  0
    0.5484   -1.1463   -0.2331 C   0  0  0  0  0  0  0  0  0  0  0  0
   -0.8348   -1.1778   -0.1208 C   0  0  0  0  0  0  0  0  0  0  0  0
   -1.4800    2.1610    0.0576 H   0  0  0  0  0  0  0  0  0  0  0  0
    1.0098    2.2304   -0.1464 H   0  0  0  0  0  0  0  0  0  0  0  0
    4.3930   -0.5424   -0.5133 H   0  0  0  0  0  0  0  0  0  0  0  0
    3.1337   -1.4892   -1.3500 H   0  0  0  0  0  0  0  0  0  0  0  0
    3.2687   -1.5527    0.4352 H   0  0  0  0  0  0  0  0  0  0  0  0
    1.0991   -2.0751   -0.3128 H   0  0  0  0  0  0  0  0  0  0  0  0
   -1.3685   -2.1222   -0.1124 H   0  0  0  0  0  0  0  0  0  0  0  0
   -3.8635    2.6288    0.3075 Cl  0  0  0  0  0  0  0  0  0  0  0  0
  1  2  1  0  0  0  0
  2  3  2  0  0  0  0
  3 18  1  0  0  0  0
  4  1  1  0  0  0  0
  4 11  1  0  0  0  0
  5  4  2  0  0  0  0
  6  9  2  0  0  0  0
  6  5  1  0  0  0  0
  7  6  1  0  0  0  0
  8  7  1  0  0  0  0
  8 15  1  0  0  0  0
  9 10  1  0  0  0  0
 10 17  1  0  0  0  0
 10  1  2  0  0  0  0
 12  5  1  0  0  0  0
 13  8  1  0  0  0  0
 14  8  1  0  0  0  0
 16  9  1  0  0  0  0
M  END
