Coordinates from ORCA-job 4-MeOPhN2+~Cl-_B3LYPG-6-31G_dp-CH-Scan-d09-49-n800
 OpenBabel11261919403D

 18 17  0  0  0  0  0  0  0  0999 V2000
   -1.5033   -0.1103   -0.0194 C   0  0  0  0  0  0  0  0  0  0  0  0
   -2.8674   -0.1951    0.0932 N   0  0  0  0  0  0  0  0  0  0  0  0
   -3.9846   -0.2074    0.1876 N   0  0  0  0  0  0  0  0  0  0  0  0
   -0.9865    1.2086   -0.0121 C   0  0  0  0  0  0  0  0  0  0  0  0
    0.4064    1.2188   -0.1293 C   0  0  0  0  0  0  0  0  0  0  0  0
    1.1826    0.0514   -0.2388 C   0  0  0  0  0  0  0  0  0  0  0  0
    2.5149    0.2318   -0.3423 O   0  0  0  0  0  0  0  0  0  0  0  0
    3.3803   -0.8952   -0.4532 C   0  0  0  0  0  0  0  0  0  0  0  0
    0.5779   -1.2379   -0.2377 C   0  0  0  0  0  0  0  0  0  0  0  0
   -0.7891   -1.3322   -0.1267 C   0  0  0  0  0  0  0  0  0  0  0  0
   -2.2460    2.7035    0.1488 H   0  0  0  0  0  0  0  0  0  0  0  0
    0.9527    2.1605   -0.1386 H   0  0  0  0  0  0  0  0  0  0  0  0
    4.3893   -0.4873   -0.5159 H   0  0  0  0  0  0  0  0  0  0  0  0
    3.1687   -1.4762   -1.3586 H   0  0  0  0  0  0  0  0  0  0  0  0
    3.3066   -1.5452    0.4266 H   0  0  0  0  0  0  0  0  0  0  0  0
    1.1740   -2.1375   -0.3218 H   0  0  0  0  0  0  0  0  0  0  0  0
   -1.2913   -2.2958   -0.1218 H   0  0  0  0  0  0  0  0  0  0  0  0
   -3.2555    3.6089    0.2650 Cl  0  0  0  0  0  0  0  0  0  0  0  0
  1  4  1  0  0  0  0
  1  2  1  0  0  0  0
  2  3  1  0  0  0  0
  5  4  2  0  0  0  0
  6  9  2  0  0  0  0
  6  5  1  0  0  0  0
  7  6  1  0  0  0  0
  8  7  1  0  0  0  0
  8 15  1  0  0  0  0
  9 10  1  0  0  0  0
 10 17  1  0  0  0  0
 10  1  2  0  0  0  0
 11 18  1  0  0  0  0
 12  5  1  0  0  0  0
 13  8  1  0  0  0  0
 14  8  1  0  0  0  0
 16  9  1  0  0  0  0
M  RAD  3   2   2   3   3   4   2
M  END
