Coordinates from ORCA-job 4-MeOPhN2+~Cl-_B3LYPG-6-31G_dp-CH-Scan-d09-49-n800
 OpenBabel11261919403D

 18 17  0  0  0  0  0  0  0  0999 V2000
   -1.4951   -0.1258   -0.0214 C   0  0  0  0  0  0  0  0  0  0  0  0
   -2.8589   -0.2143    0.0910 N   0  0  0  0  0  0  0  0  0  0  0  0
   -3.9764   -0.2320    0.1850 N   0  0  0  0  0  0  0  0  0  0  0  0
   -0.9848    1.1960   -0.0140 C   0  0  0  0  0  0  0  0  0  0  0  0
    0.4097    1.2059   -0.1313 C   0  0  0  0  0  0  0  0  0  0  0  0
    1.1884    0.0407   -0.2402 C   0  0  0  0  0  0  0  0  0  0  0  0
    2.5211    0.2237   -0.3436 O   0  0  0  0  0  0  0  0  0  0  0  0
    3.3883   -0.9016   -0.4538 C   0  0  0  0  0  0  0  0  0  0  0  0
    0.5871   -1.2505   -0.2388 C   0  0  0  0  0  0  0  0  0  0  0  0
   -0.7794   -1.3476   -0.1280 C   0  0  0  0  0  0  0  0  0  0  0  0
   -2.3190    2.8038    0.1596 H   0  0  0  0  0  0  0  0  0  0  0  0
    0.9559    2.1479   -0.1411 H   0  0  0  0  0  0  0  0  0  0  0  0
    4.3967   -0.4921   -0.5165 H   0  0  0  0  0  0  0  0  0  0  0  0
    3.1781   -1.4838   -1.3588 H   0  0  0  0  0  0  0  0  0  0  0  0
    3.3158   -1.5516    0.4263 H   0  0  0  0  0  0  0  0  0  0  0  0
    1.1856   -2.1487   -0.3224 H   0  0  0  0  0  0  0  0  0  0  0  0
   -1.2798   -2.3122   -0.1228 H   0  0  0  0  0  0  0  0  0  0  0  0
   -3.3039    3.7054    0.2758 Cl  0  0  0  0  0  0  0  0  0  0  0  0
  1  4  1  0  0  0  0
  1  2  1  0  0  0  0
  2  3  1  0  0  0  0
  5  4  2  0  0  0  0
  6  9  2  0  0  0  0
  6  5  1  0  0  0  0
  7  6  1  0  0  0  0
  8  7  1  0  0  0  0
  8 15  1  0  0  0  0
  9 10  1  0  0  0  0
 10 17  1  0  0  0  0
 10  1  2  0  0  0  0
 11 18  1  0  0  0  0
 12  5  1  0  0  0  0
 13  8  1  0  0  0  0
 14  8  1  0  0  0  0
 16  9  1  0  0  0  0
M  RAD  3   2   2   3   3   4   2
M  END
