Coordinates from ORCA-job 4-MeOPhN2+~Cl-_B3LYPG-6-31G_dp-CH-Scan-d09-49-n800
 OpenBabel11261919403D

 18 17  0  0  0  0  0  0  0  0999 V2000
   -1.4828   -0.1481   -0.0244 C   0  0  0  0  0  0  0  0  0  0  0  0
   -2.8465   -0.2409    0.0876 N   0  0  0  0  0  0  0  0  0  0  0  0
   -3.9643   -0.2634    0.1812 N   0  0  0  0  0  0  0  0  0  0  0  0
   -0.9805    1.1771   -0.0174 C   0  0  0  0  0  0  0  0  0  0  0  0
    0.4156    1.1874   -0.1346 C   0  0  0  0  0  0  0  0  0  0  0  0
    1.1977    0.0250   -0.2423 C   0  0  0  0  0  0  0  0  0  0  0  0
    2.5308    0.2113   -0.3455 O   0  0  0  0  0  0  0  0  0  0  0  0
    3.4004   -0.9117   -0.4546 C   0  0  0  0  0  0  0  0  0  0  0  0
    0.6009   -1.2688   -0.2403 C   0  0  0  0  0  0  0  0  0  0  0  0
   -0.7651   -1.3695   -0.1298 C   0  0  0  0  0  0  0  0  0  0  0  0
   -2.4223    2.9480    0.1751 H   0  0  0  0  0  0  0  0  0  0  0  0
    0.9614    2.1300   -0.1451 H   0  0  0  0  0  0  0  0  0  0  0  0
    4.4081   -0.5002   -0.5174 H   0  0  0  0  0  0  0  0  0  0  0  0
    3.1921   -1.4955   -1.3591 H   0  0  0  0  0  0  0  0  0  0  0  0
    3.3296   -1.5615    0.4259 H   0  0  0  0  0  0  0  0  0  0  0  0
    1.2024   -2.1651   -0.3231 H   0  0  0  0  0  0  0  0  0  0  0  0
   -1.2631   -2.3356   -0.1241 H   0  0  0  0  0  0  0  0  0  0  0  0
   -3.3848    3.8447    0.2929 Cl  0  0  0  0  0  0  0  0  0  0  0  0
  1  4  1  0  0  0  0
  1  2  1  0  0  0  0
  2  3  1  0  0  0  0
  5  4  2  0  0  0  0
  6  9  2  0  0  0  0
  6  5  1  0  0  0  0
  7  6  1  0  0  0  0
  8  7  1  0  0  0  0
  8 15  1  0  0  0  0
  9 10  1  0  0  0  0
 10 17  1  0  0  0  0
 10  1  2  0  0  0  0
 11 18  1  0  0  0  0
 12  5  1  0  0  0  0
 13  8  1  0  0  0  0
 14  8  1  0  0  0  0
 16  9  1  0  0  0  0
M  RAD  3   2   2   3   3   4   2
M  END
