Coordinates from ORCA-job 4-MeOPhN2+~Cl-_B3LYPG-6-31G_dp-CH-Scan-d09-49-n800
 OpenBabel11261919403D

 18 17  0  0  0  0  0  0  0  0999 V2000
   -1.4039   -0.5341   -0.0588 C   0  0  0  0  0  0  0  0  0  0  0  0
   -2.7642   -0.7177    0.0427 N   0  0  0  0  0  0  0  0  0  0  0  0
   -3.8815   -0.7977    0.1278 N   0  0  0  0  0  0  0  0  0  0  0  0
   -1.0267    0.8298   -0.0512 C   0  0  0  0  0  0  0  0  0  0  0  0
    0.3735    0.9363   -0.1590 C   0  0  0  0  0  0  0  0  0  0  0  0
    1.2428   -0.1609   -0.2587 C   0  0  0  0  0  0  0  0  0  0  0  0
    2.5629    0.1256   -0.3562 O   0  0  0  0  0  0  0  0  0  0  0  0
    3.5118   -0.9294   -0.4595 C   0  0  0  0  0  0  0  0  0  0  0  0
    0.7506   -1.4998   -0.2555 C   0  0  0  0  0  0  0  0  0  0  0  0
   -0.6041   -1.7050   -0.1536 C   0  0  0  0  0  0  0  0  0  0  0  0
   -3.2195    4.6946    0.3252 H   0  0  0  0  0  0  0  0  0  0  0  0
    0.8536    1.9158   -0.1698 H   0  0  0  0  0  0  0  0  0  0  0  0
    4.4874   -0.4465   -0.5237 H   0  0  0  0  0  0  0  0  0  0  0  0
    3.3492   -1.5326   -1.3611 H   0  0  0  0  0  0  0  0  0  0  0  0
    3.4902   -1.5804    0.4233 H   0  0  0  0  0  0  0  0  0  0  0  0
    1.4214   -2.3459   -0.3309 H   0  0  0  0  0  0  0  0  0  0  0  0
   -1.0284   -2.7064   -0.1469 H   0  0  0  0  0  0  0  0  0  0  0  0
   -3.9857    5.7175    0.4708 Cl  0  0  0  0  0  0  0  0  0  0  0  0
  1  4  1  0  0  0  0
  1  2  1  0  0  0  0
  2  3  1  0  0  0  0
  5  4  2  0  0  0  0
  6  9  2  0  0  0  0
  6  5  1  0  0  0  0
  7  6  1  0  0  0  0
  8  7  1  0  0  0  0
  8 15  1  0  0  0  0
  9 10  1  0  0  0  0
 10 17  1  0  0  0  0
 10  1  2  0  0  0  0
 11 18  1  0  0  0  0
 12  5  1  0  0  0  0
 13  8  1  0  0  0  0
 14  8  1  0  0  0  0
 16  9  1  0  0  0  0
M  RAD  3   2   2   3   3   4   2
M  END
