Coordinates from ORCA-job 4-MeOPhN2+~Cl-_B3LYPG-6-31G_dp-CH-Scan-d09-49-n800
 OpenBabel11261919403D

 18 17  0  0  0  0  0  0  0  0999 V2000
   -1.5207   -0.0669   -0.0182 C   0  0  0  0  0  0  0  0  0  0  0  0
   -2.9109   -0.0924    0.0981 N   0  0  0  0  0  0  0  0  0  0  0  0
   -3.9134    0.4394    0.2036 N   0  0  0  0  0  0  0  0  0  0  0  0
   -0.9389    1.2097   -0.0174 C   0  0  0  0  0  0  0  0  0  0  0  0
    0.4387    1.2586   -0.1301 C   0  0  0  0  0  0  0  0  0  0  0  0
    1.1960    0.0727   -0.2387 C   0  0  0  0  0  0  0  0  0  0  0  0
    2.5301    0.2430   -0.3418 O   0  0  0  0  0  0  0  0  0  0  0  0
    3.3783   -0.8969   -0.4522 C   0  0  0  0  0  0  0  0  0  0  0  0
    0.5677   -1.1950   -0.2358 C   0  0  0  0  0  0  0  0  0  0  0  0
   -0.8102   -1.2712   -0.1241 C   0  0  0  0  0  0  0  0  0  0  0  0
   -1.9643    2.2910    0.1108 H   0  0  0  0  0  0  0  0  0  0  0  0
    0.9757    2.2025   -0.1379 H   0  0  0  0  0  0  0  0  0  0  0  0
    4.3934   -0.5047   -0.5155 H   0  0  0  0  0  0  0  0  0  0  0  0
    3.1559   -1.4751   -1.3568 H   0  0  0  0  0  0  0  0  0  0  0  0
    3.2933   -1.5447    0.4283 H   0  0  0  0  0  0  0  0  0  0  0  0
    1.1484   -2.1047   -0.3189 H   0  0  0  0  0  0  0  0  0  0  0  0
   -1.3229   -2.2281   -0.1186 H   0  0  0  0  0  0  0  0  0  0  0  0
   -3.5667    2.9261    0.2698 Cl  0  0  0  0  0  0  0  0  0  0  0  0
  1  4  1  0  0  0  0
  1  2  1  0  0  0  0
  2  3  2  0  0  0  0
  4 11  1  0  0  0  0
  5  4  2  0  0  0  0
  6  9  2  0  0  0  0
  6  5  1  0  0  0  0
  7  6  1  0  0  0  0
  8  7  1  0  0  0  0
  8 15  1  0  0  0  0
  9 10  1  0  0  0  0
 10 17  1  0  0  0  0
 10  1  2  0  0  0  0
 12  5  1  0  0  0  0
 13  8  1  0  0  0  0
 14  8  1  0  0  0  0
 16  9  1  0  0  0  0
M  RAD  2   3   2  18   2
M  END
