Coordinates from ORCA-job 4-MeOPhN2+~Cl-_B3LYPG-6-31G_dp-CH-Scan-d09-49-n800
 OpenBabel11261919403D

 18 17  0  0  0  0  0  0  0  0999 V2000
   -1.4592   -0.2185   -0.0314 C   0  0  0  0  0  0  0  0  0  0  0  0
   -2.8226   -0.3264    0.0790 N   0  0  0  0  0  0  0  0  0  0  0  0
   -3.9408   -0.3614    0.1713 N   0  0  0  0  0  0  0  0  0  0  0  0
   -0.9802    1.1155   -0.0248 C   0  0  0  0  0  0  0  0  0  0  0  0
    0.4187    1.1367   -0.1409 C   0  0  0  0  0  0  0  0  0  0  0  0
    1.2147   -0.0156   -0.2466 C   0  0  0  0  0  0  0  0  0  0  0  0
    2.5471    0.1858   -0.3490 O   0  0  0  0  0  0  0  0  0  0  0  0
    3.4285   -0.9274   -0.4565 C   0  0  0  0  0  0  0  0  0  0  0  0
    0.6345   -1.3177   -0.2438 C   0  0  0  0  0  0  0  0  0  0  0  0
   -0.7300   -1.4342   -0.1346 C   0  0  0  0  0  0  0  0  0  0  0  0
   -2.6469    3.3121    0.2110 H   0  0  0  0  0  0  0  0  0  0  0  0
    0.9569    2.0843   -0.1524 H   0  0  0  0  0  0  0  0  0  0  0  0
    4.4320   -0.5055   -0.5193 H   0  0  0  0  0  0  0  0  0  0  0  0
    3.2275   -1.5149   -1.3604 H   0  0  0  0  0  0  0  0  0  0  0  0
    3.3649   -1.5777    0.4243 H   0  0  0  0  0  0  0  0  0  0  0  0
    1.2474   -2.2064   -0.3249 H   0  0  0  0  0  0  0  0  0  0  0  0
   -1.2173   -2.4061   -0.1282 H   0  0  0  0  0  0  0  0  0  0  0  0
   -3.5459    4.2408    0.3320 Cl  0  0  0  0  0  0  0  0  0  0  0  0
  1  4  1  0  0  0  0
  1  2  1  0  0  0  0
  2  3  1  0  0  0  0
  5  4  2  0  0  0  0
  6  9  2  0  0  0  0
  6  5  1  0  0  0  0
  7  6  1  0  0  0  0
  8  7  1  0  0  0  0
  8 15  1  0  0  0  0
  9 10  1  0  0  0  0
 10 17  1  0  0  0  0
 10  1  2  0  0  0  0
 11 18  1  0  0  0  0
 12  5  1  0  0  0  0
 13  8  1  0  0  0  0
 14  8  1  0  0  0  0
 16  9  1  0  0  0  0
M  RAD  3   2   2   3   3   4   2
M  END
