Coordinates from ORCA-job 4-MeOPhN2+~Cl-_B3LYPG-6-31G_dp-CH-Scan-d09-49-n800
 OpenBabel11261919403D

 18 17  0  0  0  0  0  0  0  0999 V2000
   -1.5198   -0.0683   -0.0183 C   0  0  0  0  0  0  0  0  0  0  0  0
   -2.9097   -0.0917    0.0980 N   0  0  0  0  0  0  0  0  0  0  0  0
   -3.9146    0.4333    0.2035 N   0  0  0  0  0  0  0  0  0  0  0  0
   -0.9407    1.2097   -0.0173 C   0  0  0  0  0  0  0  0  0  0  0  0
    0.4372    1.2578   -0.1301 C   0  0  0  0  0  0  0  0  0  0  0  0
    1.1951    0.0724   -0.2387 C   0  0  0  0  0  0  0  0  0  0  0  0
    2.5291    0.2432   -0.3417 O   0  0  0  0  0  0  0  0  0  0  0  0
    3.3781   -0.8961   -0.4521 C   0  0  0  0  0  0  0  0  0  0  0  0
    0.5678   -1.1960   -0.2358 C   0  0  0  0  0  0  0  0  0  0  0  0
   -0.8099   -1.2732   -0.1242 C   0  0  0  0  0  0  0  0  0  0  0  0
   -1.9725    2.2919    0.1115 H   0  0  0  0  0  0  0  0  0  0  0  0
    0.9744    2.2017   -0.1379 H   0  0  0  0  0  0  0  0  0  0  0  0
    4.3929   -0.5032   -0.5153 H   0  0  0  0  0  0  0  0  0  0  0  0
    3.1562   -1.4744   -1.3567 H   0  0  0  0  0  0  0  0  0  0  0  0
    3.2935   -1.5440    0.4283 H   0  0  0  0  0  0  0  0  0  0  0  0
    1.1492   -2.1053   -0.3190 H   0  0  0  0  0  0  0  0  0  0  0  0
   -1.3221   -2.2303   -0.1187 H   0  0  0  0  0  0  0  0  0  0  0  0
   -3.5550    2.9359    0.2694 Cl  0  0  0  0  0  0  0  0  0  0  0  0
  1  4  1  0  0  0  0
  1  2  1  0  0  0  0
  2  3  2  0  0  0  0
  4 11  1  0  0  0  0
  5  4  2  0  0  0  0
  6  9  2  0  0  0  0
  6  5  1  0  0  0  0
  7  6  1  0  0  0  0
  8  7  1  0  0  0  0
  8 15  1  0  0  0  0
  9 10  1  0  0  0  0
 10 17  1  0  0  0  0
 10  1  2  0  0  0  0
 12  5  1  0  0  0  0
 13  8  1  0  0  0  0
 14  8  1  0  0  0  0
 16  9  1  0  0  0  0
M  RAD  2   3   2  18   2
M  END
