Coordinates from ORCA-job 4-MeOPhN2+~Cl-_B3LYPG-6-31G_dp-CH-Scan-d09-49-n800
 OpenBabel11261919403D

 18 17  0  0  0  0  0  0  0  0999 V2000
   -1.4153   -0.3862   -0.0490 C   0  0  0  0  0  0  0  0  0  0  0  0
   -2.7792   -0.5269    0.0573 N   0  0  0  0  0  0  0  0  0  0  0  0
   -3.8979   -0.5757    0.1461 N   0  0  0  0  0  0  0  0  0  0  0  0
   -0.9891    0.9641   -0.0450 C   0  0  0  0  0  0  0  0  0  0  0  0
    0.4127    1.0228   -0.1573 C   0  0  0  0  0  0  0  0  0  0  0  0
    1.2439   -0.1039   -0.2565 C   0  0  0  0  0  0  0  0  0  0  0  0
    2.5722    0.1374   -0.3565 O   0  0  0  0  0  0  0  0  0  0  0  0
    3.4853   -0.9491   -0.4586 C   0  0  0  0  0  0  0  0  0  0  0  0
    0.7059   -1.4248   -0.2503 C   0  0  0  0  0  0  0  0  0  0  0  0
   -0.6546   -1.5832   -0.1447 C   0  0  0  0  0  0  0  0  0  0  0  0
   -3.0517    4.1187    0.2866 H   0  0  0  0  0  0  0  0  0  0  0  0
    0.9254    1.9853   -0.1712 H   0  0  0  0  0  0  0  0  0  0  0  0
    4.4765   -0.4990   -0.5223 H   0  0  0  0  0  0  0  0  0  0  0  0
    3.3031   -1.5468   -1.3601 H   0  0  0  0  0  0  0  0  0  0  0  0
    3.4408   -1.5983    0.4244 H   0  0  0  0  0  0  0  0  0  0  0  0
    1.3472   -2.2936   -0.3261 H   0  0  0  0  0  0  0  0  0  0  0  0
   -1.1129   -2.5694   -0.1358 H   0  0  0  0  0  0  0  0  0  0  0  0
   -3.8828    5.0918    0.4240 Cl  0  0  0  0  0  0  0  0  0  0  0  0
  1  4  1  0  0  0  0
  1  2  1  0  0  0  0
  2  3  1  0  0  0  0
  5  4  2  0  0  0  0
  6  9  2  0  0  0  0
  6  5  1  0  0  0  0
  7  6  1  0  0  0  0
  8  7  1  0  0  0  0
  8 15  1  0  0  0  0
  9 10  1  0  0  0  0
 10 17  1  0  0  0  0
 10  1  2  0  0  0  0
 11 18  1  0  0  0  0
 12  5  1  0  0  0  0
 13  8  1  0  0  0  0
 14  8  1  0  0  0  0
 16  9  1  0  0  0  0
M  RAD  3   2   2   3   3   4   2
M  END
