Coordinates from ORCA-job 4-MeOPhN2+~Cl-_B3LYPG-6-31G_dp-CH-Scan-d09-49-n800
 OpenBabel11261919403D

 18 17  0  0  0  0  0  0  0  0999 V2000
   -1.4755   -0.1664   -0.0262 C   0  0  0  0  0  0  0  0  0  0  0  0
   -2.8391   -0.2633    0.0854 N   0  0  0  0  0  0  0  0  0  0  0  0
   -3.9570   -0.2898    0.1786 N   0  0  0  0  0  0  0  0  0  0  0  0
   -0.9794    1.1613   -0.0193 C   0  0  0  0  0  0  0  0  0  0  0  0
    0.4177    1.1736   -0.1363 C   0  0  0  0  0  0  0  0  0  0  0  0
    1.2032    0.0137   -0.2435 C   0  0  0  0  0  0  0  0  0  0  0  0
    2.5362    0.2036   -0.3465 O   0  0  0  0  0  0  0  0  0  0  0  0
    3.4086   -0.9171   -0.4552 C   0  0  0  0  0  0  0  0  0  0  0  0
    0.6105   -1.2822   -0.2413 C   0  0  0  0  0  0  0  0  0  0  0  0
   -0.7552   -1.3867   -0.1312 C   0  0  0  0  0  0  0  0  0  0  0  0
   -2.4892    3.0503    0.1853 H   0  0  0  0  0  0  0  0  0  0  0  0
    0.9620    2.1172   -0.1471 H   0  0  0  0  0  0  0  0  0  0  0  0
    4.4153   -0.5032   -0.5180 H   0  0  0  0  0  0  0  0  0  0  0  0
    3.2021   -1.5018   -1.3596 H   0  0  0  0  0  0  0  0  0  0  0  0
    3.3395   -1.5671    0.4253 H   0  0  0  0  0  0  0  0  0  0  0  0
    1.2147   -2.1767   -0.3237 H   0  0  0  0  0  0  0  0  0  0  0  0
   -1.2507   -2.3542   -0.1254 H   0  0  0  0  0  0  0  0  0  0  0  0
   -3.4343    3.9522    0.3037 Cl  0  0  0  0  0  0  0  0  0  0  0  0
  1  4  1  0  0  0  0
  1  2  1  0  0  0  0
  2  3  1  0  0  0  0
  5  4  2  0  0  0  0
  6  9  2  0  0  0  0
  6  5  1  0  0  0  0
  7  6  1  0  0  0  0
  8  7  1  0  0  0  0
  8 15  1  0  0  0  0
  9 10  1  0  0  0  0
 10 17  1  0  0  0  0
 10  1  2  0  0  0  0
 11 18  1  0  0  0  0
 12  5  1  0  0  0  0
 13  8  1  0  0  0  0
 14  8  1  0  0  0  0
 16  9  1  0  0  0  0
M  RAD  3   2   2   3   3   4   2
M  END
