Coordinates from ORCA-job 4-MeOPhN2+~Cl-_B3LYPG-6-31G_dp-CH-Scan-d09-49-n800
 OpenBabel11261919403D

 18 17  0  0  0  0  0  0  0  0999 V2000
   -1.4371   -0.2930   -0.0409 C   0  0  0  0  0  0  0  0  0  0  0  0
   -2.8011   -0.4144    0.0676 N   0  0  0  0  0  0  0  0  0  0  0  0
   -3.9197   -0.4540    0.1582 N   0  0  0  0  0  0  0  0  0  0  0  0
   -0.9822    1.0487   -0.0370 C   0  0  0  0  0  0  0  0  0  0  0  0
    0.4186    1.0851   -0.1514 C   0  0  0  0  0  0  0  0  0  0  0  0
    1.2299   -0.0563   -0.2523 C   0  0  0  0  0  0  0  0  0  0  0  0
    2.5610    0.1619   -0.3535 O   0  0  0  0  0  0  0  0  0  0  0  0
    3.4560   -0.9400   -0.4569 C   0  0  0  0  0  0  0  0  0  0  0  0
    0.6682   -1.3669   -0.2463 C   0  0  0  0  0  0  0  0  0  0  0  0
   -0.6948   -1.5014   -0.1389 C   0  0  0  0  0  0  0  0  0  0  0  0
   -2.8485    3.6792    0.2486 H   0  0  0  0  0  0  0  0  0  0  0  0
    0.9466    2.0389   -0.1653 H   0  0  0  0  0  0  0  0  0  0  0  0
    4.4544   -0.5063   -0.5203 H   0  0  0  0  0  0  0  0  0  0  0  0
    3.2634   -1.5333   -1.3590 H   0  0  0  0  0  0  0  0  0  0  0  0
    3.4003   -1.5889    0.4257 H   0  0  0  0  0  0  0  0  0  0  0  0
    1.2935   -2.2471   -0.3236 H   0  0  0  0  0  0  0  0  0  0  0  0
   -1.1697   -2.4795   -0.1302 H   0  0  0  0  0  0  0  0  0  0  0  0
   -3.7095    4.6308    0.3801 Cl  0  0  0  0  0  0  0  0  0  0  0  0
  1  4  1  0  0  0  0
  1  2  1  0  0  0  0
  2  3  1  0  0  0  0
  5  4  2  0  0  0  0
  6  9  2  0  0  0  0
  6  5  1  0  0  0  0
  7  6  1  0  0  0  0
  8  7  1  0  0  0  0
  8 15  1  0  0  0  0
  9 10  1  0  0  0  0
 10 17  1  0  0  0  0
 10  1  2  0  0  0  0
 11 18  1  0  0  0  0
 12  5  1  0  0  0  0
 13  8  1  0  0  0  0
 14  8  1  0  0  0  0
 16  9  1  0  0  0  0
M  RAD  3   2   2   3   3   4   2
M  END
