Coordinates from ORCA-job 4-MeOPhN2+~Cl-_B3LYPG-6-31G_dp-CH-Scan-d09-49-n800
 OpenBabel11261919403D

 18 17  0  0  0  0  0  0  0  0999 V2000
   -1.4182   -0.3682   -0.0473 C   0  0  0  0  0  0  0  0  0  0  0  0
   -2.7823   -0.5046    0.0596 N   0  0  0  0  0  0  0  0  0  0  0  0
   -3.9009   -0.5509    0.1489 N   0  0  0  0  0  0  0  0  0  0  0  0
   -0.9863    0.9804   -0.0429 C   0  0  0  0  0  0  0  0  0  0  0  0
    0.4155    1.0341   -0.1558 C   0  0  0  0  0  0  0  0  0  0  0  0
    1.2424   -0.0956   -0.2557 C   0  0  0  0  0  0  0  0  0  0  0  0
    2.5714    0.1407   -0.3560 O   0  0  0  0  0  0  0  0  0  0  0  0
    3.4806   -0.9490   -0.4586 C   0  0  0  0  0  0  0  0  0  0  0  0
    0.6995   -1.4144   -0.2498 C   0  0  0  0  0  0  0  0  0  0  0  0
   -0.6617   -1.5677   -0.1438 C   0  0  0  0  0  0  0  0  0  0  0  0
   -3.0217    4.0395    0.2799 H   0  0  0  0  0  0  0  0  0  0  0  0
    0.9316    1.9948   -0.1695 H   0  0  0  0  0  0  0  0  0  0  0  0
    4.4734   -0.5025   -0.5221 H   0  0  0  0  0  0  0  0  0  0  0  0
    3.2962   -1.5456   -1.3603 H   0  0  0  0  0  0  0  0  0  0  0  0
    3.4338   -1.5985    0.4242 H   0  0  0  0  0  0  0  0  0  0  0  0
    1.3374   -2.2857   -0.3262 H   0  0  0  0  0  0  0  0  0  0  0  0
   -1.1235   -2.5522   -0.1352 H   0  0  0  0  0  0  0  0  0  0  0  0
   -3.8577    5.0089    0.4154 Cl  0  0  0  0  0  0  0  0  0  0  0  0
  1  4  1  0  0  0  0
  1  2  1  0  0  0  0
  2  3  1  0  0  0  0
  5  4  2  0  0  0  0
  6  9  2  0  0  0  0
  6  5  1  0  0  0  0
  7  6  1  0  0  0  0
  8  7  1  0  0  0  0
  8 15  1  0  0  0  0
  9 10  1  0  0  0  0
 10 17  1  0  0  0  0
 10  1  2  0  0  0  0
 11 18  1  0  0  0  0
 12  5  1  0  0  0  0
 13  8  1  0  0  0  0
 14  8  1  0  0  0  0
 16  9  1  0  0  0  0
M  RAD  3   2   2   3   3   4   2
M  END
