Coordinates from ORCA-job 4-MeOPhN2+~Cl-_B3LYPG-6-31G_dp-CH-Scan-d09-49-n800
 OpenBabel11261919403D

 18 17  0  0  0  0  0  0  0  0999 V2000
   -1.4630   -0.2085   -0.0303 C   0  0  0  0  0  0  0  0  0  0  0  0
   -2.8263   -0.3149    0.0803 N   0  0  0  0  0  0  0  0  0  0  0  0
   -3.9445   -0.3492    0.1727 N   0  0  0  0  0  0  0  0  0  0  0  0
   -0.9809    1.1244   -0.0236 C   0  0  0  0  0  0  0  0  0  0  0  0
    0.4176    1.1440   -0.1399 C   0  0  0  0  0  0  0  0  0  0  0  0
    1.2118   -0.0096   -0.2459 C   0  0  0  0  0  0  0  0  0  0  0  0
    2.5444    0.1898   -0.3484 O   0  0  0  0  0  0  0  0  0  0  0  0
    3.4242   -0.9246   -0.4562 C   0  0  0  0  0  0  0  0  0  0  0  0
    0.6295   -1.3106   -0.2432 C   0  0  0  0  0  0  0  0  0  0  0  0
   -0.7352   -1.4251   -0.1339 C   0  0  0  0  0  0  0  0  0  0  0  0
   -2.6136    3.2591    0.2056 H   0  0  0  0  0  0  0  0  0  0  0  0
    0.9569    2.0909   -0.1512 H   0  0  0  0  0  0  0  0  0  0  0  0
    4.4283   -0.5041   -0.5190 H   0  0  0  0  0  0  0  0  0  0  0  0
    3.2223   -1.5116   -1.3602 H   0  0  0  0  0  0  0  0  0  0  0  0
    3.3597   -1.5749    0.4245 H   0  0  0  0  0  0  0  0  0  0  0  0
    1.2408   -2.2003   -0.3246 H   0  0  0  0  0  0  0  0  0  0  0  0
   -1.2239   -2.3961   -0.1277 H   0  0  0  0  0  0  0  0  0  0  0  0
   -3.5189    4.1846    0.3260 Cl  0  0  0  0  0  0  0  0  0  0  0  0
  1  4  1  0  0  0  0
  1  2  1  0  0  0  0
  2  3  1  0  0  0  0
  5  4  2  0  0  0  0
  6  9  2  0  0  0  0
  6  5  1  0  0  0  0
  7  6  1  0  0  0  0
  8  7  1  0  0  0  0
  8 15  1  0  0  0  0
  9 10  1  0  0  0  0
 10 17  1  0  0  0  0
 10  1  2  0  0  0  0
 11 18  1  0  0  0  0
 12  5  1  0  0  0  0
 13  8  1  0  0  0  0
 14  8  1  0  0  0  0
 16  9  1  0  0  0  0
M  RAD  3   2   2   3   3   4   2
M  END
