Coordinates from ORCA-job 4-MeOPhN2+~Cl-_B3LYPG-6-31G_dp-CH-Scan-d09-49-n800
 OpenBabel11261919403D

 18 17  0  0  0  0  0  0  0  0999 V2000
   -1.4092   -0.6327   -0.0833 C   0  0  0  0  0  0  0  0  0  0  0  0
   -2.7648   -0.8522    0.0127 N   0  0  0  0  0  0  0  0  0  0  0  0
   -3.8802   -0.9609    0.0914 N   0  0  0  0  0  0  0  0  0  0  0  0
   -1.0713    0.7409   -0.1030 C   0  0  0  0  0  0  0  0  0  0  0  0
    0.3257    0.8858   -0.2043 C   0  0  0  0  0  0  0  0  0  0  0  0
    1.2267   -0.1879   -0.2742 C   0  0  0  0  0  0  0  0  0  0  0  0
    2.5389    0.1341   -0.3701 O   0  0  0  0  0  0  0  0  0  0  0  0
    3.5179   -0.8951   -0.4463 C   0  0  0  0  0  0  0  0  0  0  0  0
    0.7731   -1.5401   -0.2445 C   0  0  0  0  0  0  0  0  0  0  0  0
   -0.5760   -1.7820   -0.1471 C   0  0  0  0  0  0  0  0  0  0  0  0
   -3.2536    5.0002    0.3777 H   0  0  0  0  0  0  0  0  0  0  0  0
    0.7784    1.8780   -0.2336 H   0  0  0  0  0  0  0  0  0  0  0  0
    4.4795   -0.3860   -0.5190 H   0  0  0  0  0  0  0  0  0  0  0  0
    3.3758   -1.5236   -1.3340 H   0  0  0  0  0  0  0  0  0  0  0  0
    3.5124   -1.5258    0.4514 H   0  0  0  0  0  0  0  0  0  0  0  0
    1.4683   -2.3682   -0.2968 H   0  0  0  0  0  0  0  0  0  0  0  0
   -0.9714   -2.7949   -0.1210 H   0  0  0  0  0  0  0  0  0  0  0  0
   -3.9409    6.0738    0.5489 Cl  0  0  0  0  0  0  0  0  0  0  0  0
  1  2  1  0  0  0  0
  2  3  1  0  0  0  0
  4  1  1  0  0  0  0
  5  4  2  0  0  0  0
  6  9  2  0  0  0  0
  6  5  1  0  0  0  0
  7  6  1  0  0  0  0
  8  7  1  0  0  0  0
  8 15  1  0  0  0  0
  9 10  1  0  0  0  0
 10 17  1  0  0  0  0
 10  1  2  0  0  0  0
 11 18  1  0  0  0  0
 12  5  1  0  0  0  0
 13  8  1  0  0  0  0
 14  8  1  0  0  0  0
 16  9  1  0  0  0  0
M  RAD  3   2   2   3   3   4   2
M  END
