Coordinates from ORCA-job 4-MeOPhN2+~Cl-_B3LYPG-6-31G_dp-CH-Scan-d09-49-n800
 OpenBabel11261919403D

 18 17  0  0  0  0  0  0  0  0999 V2000
   -1.4046   -0.4939   -0.0576 C   0  0  0  0  0  0  0  0  0  0  0  0
   -2.7663   -0.6644    0.0452 N   0  0  0  0  0  0  0  0  0  0  0  0
   -3.8842   -0.7337    0.1309 N   0  0  0  0  0  0  0  0  0  0  0  0
   -1.0134    0.8662   -0.0531 C   0  0  0  0  0  0  0  0  0  0  0  0
    0.3876    0.9584   -0.1620 C   0  0  0  0  0  0  0  0  0  0  0  0
    1.2459   -0.1477   -0.2595 C   0  0  0  0  0  0  0  0  0  0  0  0
    2.5687    0.1254   -0.3577 O   0  0  0  0  0  0  0  0  0  0  0  0
    3.5072   -0.9391   -0.4589 C   0  0  0  0  0  0  0  0  0  0  0  0
    0.7403   -1.4815   -0.2534 C   0  0  0  0  0  0  0  0  0  0  0  0
   -0.6163   -1.6729   -0.1505 C   0  0  0  0  0  0  0  0  0  0  0  0
   -3.1897    4.5553    0.3188 H   0  0  0  0  0  0  0  0  0  0  0  0
    0.8775    1.9330   -0.1751 H   0  0  0  0  0  0  0  0  0  0  0  0
    4.4875   -0.4659   -0.5234 H   0  0  0  0  0  0  0  0  0  0  0  0
    3.3391   -1.5421   -1.3596 H   0  0  0  0  0  0  0  0  0  0  0  0
    3.4787   -1.5884    0.4248 H   0  0  0  0  0  0  0  0  0  0  0  0
    1.4026   -2.3345   -0.3273 H   0  0  0  0  0  0  0  0  0  0  0  0
   -1.0507   -2.6699   -0.1417 H   0  0  0  0  0  0  0  0  0  0  0  0
   -3.9806    5.5591    0.4650 Cl  0  0  0  0  0  0  0  0  0  0  0  0
  1  4  1  0  0  0  0
  1  2  1  0  0  0  0
  2  3  1  0  0  0  0
  5  4  2  0  0  0  0
  6  9  2  0  0  0  0
  6  5  1  0  0  0  0
  7  6  1  0  0  0  0
  8  7  1  0  0  0  0
  8 15  1  0  0  0  0
  9 10  1  0  0  0  0
 10 17  1  0  0  0  0
 10  1  2  0  0  0  0
 11 18  1  0  0  0  0
 12  5  1  0  0  0  0
 13  8  1  0  0  0  0
 14  8  1  0  0  0  0
 16  9  1  0  0  0  0
M  RAD  3   2   2   3   3   4   2
M  END
