Coordinates from ORCA-job 4-MeOPhN2+~Cl-_B3LYPG-6-31G_dp-CH-Scan-d09-49-n800
 OpenBabel11261919403D

 18 17  0  0  0  0  0  0  0  0999 V2000
   -1.5233   -0.0680   -0.0169 C   0  0  0  0  0  0  0  0  0  0  0  0
   -2.8896   -0.1276    0.0970 N   0  0  0  0  0  0  0  0  0  0  0  0
   -4.0040   -0.0800    0.1935 N   0  0  0  0  0  0  0  0  0  0  0  0
   -0.9779    1.2369   -0.0130 C   0  0  0  0  0  0  0  0  0  0  0  0
    0.4079    1.2545   -0.1289 C   0  0  0  0  0  0  0  0  0  0  0  0
    1.1740    0.0781   -0.2374 C   0  0  0  0  0  0  0  0  0  0  0  0
    2.5047    0.2490   -0.3410 O   0  0  0  0  0  0  0  0  0  0  0  0
    3.3638   -0.8846   -0.4512 C   0  0  0  0  0  0  0  0  0  0  0  0
    0.5558   -1.2029   -0.2345 C   0  0  0  0  0  0  0  0  0  0  0  0
   -0.8135   -1.2879   -0.1230 C   0  0  0  0  0  0  0  0  0  0  0  0
   -2.0302    2.4158    0.1203 H   0  0  0  0  0  0  0  0  0  0  0  0
    0.9510    2.1967   -0.1382 H   0  0  0  0  0  0  0  0  0  0  0  0
    4.3747   -0.4823   -0.5143 H   0  0  0  0  0  0  0  0  0  0  0  0
    3.1470   -1.4637   -1.3562 H   0  0  0  0  0  0  0  0  0  0  0  0
    3.2849   -1.5320    0.4298 H   0  0  0  0  0  0  0  0  0  0  0  0
    1.1436   -2.1080   -0.3177 H   0  0  0  0  0  0  0  0  0  0  0  0
   -1.3213   -2.2480   -0.1172 H   0  0  0  0  0  0  0  0  0  0  0  0
   -3.2181    3.3174    0.2538 Cl  0  0  0  0  0  0  0  0  0  0  0  0
  1  4  1  0  0  0  0
  1  2  1  0  0  0  0
  2  3  1  0  0  0  0
  5  4  2  0  0  0  0
  6  9  2  0  0  0  0
  6  5  1  0  0  0  0
  7  6  1  0  0  0  0
  8  7  1  0  0  0  0
  8 15  1  0  0  0  0
  9 10  1  0  0  0  0
 10 17  1  0  0  0  0
 10  1  2  0  0  0  0
 11 18  1  0  0  0  0
 12  5  1  0  0  0  0
 13  8  1  0  0  0  0
 14  8  1  0  0  0  0
 16  9  1  0  0  0  0
M  RAD  3   2   2   3   3   4   2
M  END
