Coordinates from ORCA-job 4-MeOPhN2+~Cl-_B3LYPG-6-31G_dp-CH-Scan-d09-49-n800
 OpenBabel11261919403D

 18 17  0  0  0  0  0  0  0  0999 V2000
   -1.4228   -0.3462   -0.0450 C   0  0  0  0  0  0  0  0  0  0  0  0
   -2.7869   -0.4776    0.0625 N   0  0  0  0  0  0  0  0  0  0  0  0
   -3.9056   -0.5213    0.1523 N   0  0  0  0  0  0  0  0  0  0  0  0
   -0.9840    1.0004   -0.0403 C   0  0  0  0  0  0  0  0  0  0  0  0
    0.4176    1.0487   -0.1537 C   0  0  0  0  0  0  0  0  0  0  0  0
    1.2396   -0.0847   -0.2545 C   0  0  0  0  0  0  0  0  0  0  0  0
    2.5694    0.1459   -0.3551 O   0  0  0  0  0  0  0  0  0  0  0  0
    3.4741   -0.9477   -0.4584 C   0  0  0  0  0  0  0  0  0  0  0  0
    0.6908   -1.4010   -0.2491 C   0  0  0  0  0  0  0  0  0  0  0  0
   -0.6709   -1.5486   -0.1426 C   0  0  0  0  0  0  0  0  0  0  0  0
   -2.9784    3.9368    0.2709 H   0  0  0  0  0  0  0  0  0  0  0  0
    0.9375    2.0072   -0.1672 H   0  0  0  0  0  0  0  0  0  0  0  0
    4.4687   -0.5052   -0.5218 H   0  0  0  0  0  0  0  0  0  0  0  0
    3.2871   -1.5429   -1.3605 H   0  0  0  0  0  0  0  0  0  0  0  0
    3.4245   -1.5973    0.4240 H   0  0  0  0  0  0  0  0  0  0  0  0
    1.3249   -2.2750   -0.3262 H   0  0  0  0  0  0  0  0  0  0  0  0
   -1.1368   -2.5311   -0.1344 H   0  0  0  0  0  0  0  0  0  0  0  0
   -3.8194    4.9030    0.4040 Cl  0  0  0  0  0  0  0  0  0  0  0  0
  1  4  1  0  0  0  0
  1  2  1  0  0  0  0
  2  3  1  0  0  0  0
  5  4  2  0  0  0  0
  6  9  2  0  0  0  0
  6  5  1  0  0  0  0
  7  6  1  0  0  0  0
  8  7  1  0  0  0  0
  8 15  1  0  0  0  0
  9 10  1  0  0  0  0
 10 17  1  0  0  0  0
 10  1  2  0  0  0  0
 11 18  1  0  0  0  0
 12  5  1  0  0  0  0
 13  8  1  0  0  0  0
 14  8  1  0  0  0  0
 16  9  1  0  0  0  0
M  RAD  3   2   2   3   3   4   2
M  END
