Coordinates from ORCA-job 4-MeOPhN2+~Cl-_B3LYPG-6-31G_dp-CH-Scan-d09-49-n800
 OpenBabel11261919403D

 18 17  0  0  0  0  0  0  0  0999 V2000
   -1.4393   -0.2660   -0.0380 C   0  0  0  0  0  0  0  0  0  0  0  0
   -2.8033   -0.3803    0.0717 N   0  0  0  0  0  0  0  0  0  0  0  0
   -3.9223   -0.4151    0.1587 N   0  0  0  0  0  0  0  0  0  0  0  0
   -0.9745    1.0726   -0.0344 C   0  0  0  0  0  0  0  0  0  0  0  0
    0.4259    1.1009   -0.1497 C   0  0  0  0  0  0  0  0  0  0  0  0
    1.2300   -0.0457   -0.2513 C   0  0  0  0  0  0  0  0  0  0  0  0
    2.5621    0.1644   -0.3534 O   0  0  0  0  0  0  0  0  0  0  0  0
    3.4504   -0.9430   -0.4573 C   0  0  0  0  0  0  0  0  0  0  0  0
    0.6599   -1.3526   -0.2452 C   0  0  0  0  0  0  0  0  0  0  0  0
   -0.7038   -1.4785   -0.1368 C   0  0  0  0  0  0  0  0  0  0  0  0
   -2.8116    3.5766    0.2405 H   0  0  0  0  0  0  0  0  0  0  0  0
    0.9591    2.0516   -0.1638 H   0  0  0  0  0  0  0  0  0  0  0  0
    4.4514   -0.5153   -0.5211 H   0  0  0  0  0  0  0  0  0  0  0  0
    3.2537   -1.5349   -1.3594 H   0  0  0  0  0  0  0  0  0  0  0  0
    3.3910   -1.5915    0.4252 H   0  0  0  0  0  0  0  0  0  0  0  0
    1.2796   -2.2368   -0.3231 H   0  0  0  0  0  0  0  0  0  0  0  0
   -1.1847   -2.4537   -0.1279 H   0  0  0  0  0  0  0  0  0  0  0  0
   -3.6942    4.5104    0.3702 Cl  0  0  0  0  0  0  0  0  0  0  0  0
  1  4  1  0  0  0  0
  1  2  1  0  0  0  0
  2  3  1  0  0  0  0
  5  4  2  0  0  0  0
  6  9  2  0  0  0  0
  6  5  1  0  0  0  0
  7  6  1  0  0  0  0
  8  7  1  0  0  0  0
  8 15  1  0  0  0  0
  9 10  1  0  0  0  0
 10 17  1  0  0  0  0
 10  1  2  0  0  0  0
 11 18  1  0  0  0  0
 12  5  1  0  0  0  0
 13  8  1  0  0  0  0
 14  8  1  0  0  0  0
 16  9  1  0  0  0  0
M  RAD  3   2   2   3   3   4   2
M  END
