Coordinates from ORCA-job 4-MeOPhN2+~Cl-_B3LYPG-6-31G_dp-CH-Scan-d09-49-n800
 OpenBabel11261919403D

 18 17  0  0  0  0  0  0  0  0999 V2000
   -1.4399   -0.2633   -0.0387 C   0  0  0  0  0  0  0  0  0  0  0  0
   -2.8040   -0.3770    0.0705 N   0  0  0  0  0  0  0  0  0  0  0  0
   -3.9226   -0.4119    0.1616 N   0  0  0  0  0  0  0  0  0  0  0  0
   -0.9744    1.0751   -0.0353 C   0  0  0  0  0  0  0  0  0  0  0  0
    0.4260    1.1026   -0.1502 C   0  0  0  0  0  0  0  0  0  0  0  0
    1.2296   -0.0444   -0.2515 C   0  0  0  0  0  0  0  0  0  0  0  0
    2.5618    0.1651   -0.3534 O   0  0  0  0  0  0  0  0  0  0  0  0
    3.4496   -0.9428   -0.4568 C   0  0  0  0  0  0  0  0  0  0  0  0
    0.6588   -1.3509   -0.2452 C   0  0  0  0  0  0  0  0  0  0  0  0
   -0.7050   -1.4762   -0.1371 C   0  0  0  0  0  0  0  0  0  0  0  0
   -2.8054    3.5647    0.2398 H   0  0  0  0  0  0  0  0  0  0  0  0
    0.9597    2.0531   -0.1644 H   0  0  0  0  0  0  0  0  0  0  0  0
    4.4508   -0.5155   -0.5204 H   0  0  0  0  0  0  0  0  0  0  0  0
    3.2528   -1.5348   -1.3588 H   0  0  0  0  0  0  0  0  0  0  0  0
    3.3897   -1.5911    0.4259 H   0  0  0  0  0  0  0  0  0  0  0  0
    1.2780   -2.2355   -0.3228 H   0  0  0  0  0  0  0  0  0  0  0  0
   -1.1863   -2.4511   -0.1281 H   0  0  0  0  0  0  0  0  0  0  0  0
   -3.6898    4.4972    0.3698 Cl  0  0  0  0  0  0  0  0  0  0  0  0
  1  4  1  0  0  0  0
  1  2  1  0  0  0  0
  2  3  1  0  0  0  0
  5  4  2  0  0  0  0
  6  9  2  0  0  0  0
  6  5  1  0  0  0  0
  7  6  1  0  0  0  0
  8  7  1  0  0  0  0
  8 15  1  0  0  0  0
  9 10  1  0  0  0  0
 10 17  1  0  0  0  0
 10  1  2  0  0  0  0
 11 18  1  0  0  0  0
 12  5  1  0  0  0  0
 13  8  1  0  0  0  0
 14  8  1  0  0  0  0
 16  9  1  0  0  0  0
M  RAD  3   2   2   3   3   4   2
M  END
