Coordinates from ORCA-job 4-MeOPhN2+~Cl-_B3LYPG-6-31G_dp-CH-Scan-d09-49-n800
 OpenBabel11261919403D

 18 18  0  0  0  0  0  0  0  0999 V2000
   -1.5636    0.0182   -0.0153 C   0  0  0  0  0  0  0  0  0  0  0  0
   -2.9502   -0.1198    0.0953 N   0  0  0  0  0  0  0  0  0  0  0  0
   -3.9548    0.4697    0.2088 N   0  0  0  0  0  0  0  0  0  0  0  0
   -0.9114    1.2694   -0.0231 C   0  0  0  0  0  0  0  0  0  0  0  0
    0.4664    1.2913   -0.1365 C   0  0  0  0  0  0  0  0  0  0  0  0
    1.2067    0.0970   -0.2411 C   0  0  0  0  0  0  0  0  0  0  0  0
    2.5438    0.2499   -0.3441 O   0  0  0  0  0  0  0  0  0  0  0  0
    3.3672   -0.9084   -0.4481 C   0  0  0  0  0  0  0  0  0  0  0  0
    0.5463   -1.1440   -0.2330 C   0  0  0  0  0  0  0  0  0  0  0  0
   -0.8371   -1.1751   -0.1206 C   0  0  0  0  0  0  0  0  0  0  0  0
   -1.4524    2.1249    0.0543 H   0  0  0  0  0  0  0  0  0  0  0  0
    1.0064    2.2321   -0.1460 H   0  0  0  0  0  0  0  0  0  0  0  0
    4.3908   -0.5393   -0.5130 H   0  0  0  0  0  0  0  0  0  0  0  0
    3.1318   -1.4865   -1.3496 H   0  0  0  0  0  0  0  0  0  0  0  0
    3.2666   -1.5497    0.4356 H   0  0  0  0  0  0  0  0  0  0  0  0
    1.0968   -2.0729   -0.3127 H   0  0  0  0  0  0  0  0  0  0  0  0
   -1.3708   -2.1195   -0.1122 H   0  0  0  0  0  0  0  0  0  0  0  0
   -3.8530    2.6260    0.3061 Cl  0  0  0  0  0  0  0  0  0  0  0  0
  1  2  1  0  0  0  0
  2  3  2  0  0  0  0
  3 18  1  0  0  0  0
  4  1  1  0  0  0  0
  4 11  1  0  0  0  0
  5  4  2  0  0  0  0
  6  9  2  0  0  0  0
  6  5  1  0  0  0  0
  7  6  1  0  0  0  0
  8  7  1  0  0  0  0
  8 15  1  0  0  0  0
  9 10  1  0  0  0  0
 10 17  1  0  0  0  0
 10  1  2  0  0  0  0
 12  5  1  0  0  0  0
 13  8  1  0  0  0  0
 14  8  1  0  0  0  0
 16  9  1  0  0  0  0
M  END
