Coordinates from ORCA-job 4-MeOPhN2+~TsO-_B3LYPG-6-31G_dp-CH-Scan-d09-49-n800
 OpenBabel11261919313D

 35 35  0  0  0  0  0  0  0  0999 V2000
   -2.5241   -0.4514   -0.2139 C   0  0  0  0  0  0  0  0  0  0  0  0
   -3.7613   -1.0057    0.0193 N   0  0  0  0  0  0  0  0  0  0  0  0
   -4.7850   -1.4239    0.1920 N   0  0  0  0  0  0  0  0  0  0  0  0
   -2.5063    0.7918   -0.8932 C   0  0  0  0  0  0  0  0  0  0  0  0
   -1.2021    1.2621   -1.0782 C   0  0  0  0  0  0  0  0  0  0  0  0
   -0.0558    0.5759   -0.6402 C   0  0  0  0  0  0  0  0  0  0  0  0
    1.1275    1.1707   -0.9015 O   0  0  0  0  0  0  0  0  0  0  0  0
    2.3409    0.5408   -0.4993 C   0  0  0  0  0  0  0  0  0  0  0  0
   -0.1625   -0.6699    0.0339 C   0  0  0  0  0  0  0  0  0  0  0  0
   -1.4139   -1.1988    0.2538 C   0  0  0  0  0  0  0  0  0  0  0  0
   -3.9442    1.7082   -1.5040 H   0  0  0  0  0  0  0  0  0  0  0  0
   -1.0278    2.2080   -1.5872 H   0  0  0  0  0  0  0  0  0  0  0  0
    3.1409    1.2076   -0.8215 H   0  0  0  0  0  0  0  0  0  0  0  0
    2.4660   -0.4342   -0.9841 H   0  0  0  0  0  0  0  0  0  0  0  0
    2.3874    0.4185    0.5893 H   0  0  0  0  0  0  0  0  0  0  0  0
    0.7150   -1.2050    0.3723 H   0  0  0  0  0  0  0  0  0  0  0  0
   -1.5411   -2.1499    0.7627 H   0  0  0  0  0  0  0  0  0  0  0  0
   -7.7871    3.3122   -0.9087 C   0  0  0  0  0  0  0  0  0  0  0  0
   -8.7311    4.3281   -1.0320 C   0  0  0  0  0  0  0  0  0  0  0  0
   -9.1896    4.7434   -2.2915 C   0  0  0  0  0  0  0  0  0  0  0  0
   -8.6751    4.1118   -3.4314 C   0  0  0  0  0  0  0  0  0  0  0  0
   -7.7296    3.0924   -3.3265 C   0  0  0  0  0  0  0  0  0  0  0  0
   -7.2895    2.7040   -2.0623 C   0  0  0  0  0  0  0  0  0  0  0  0
   -7.4426    2.9820    0.0650 H   0  0  0  0  0  0  0  0  0  0  0  0
   -9.1218    4.8052   -0.1370 H   0  0  0  0  0  0  0  0  0  0  0  0
   -9.0210    4.4196   -4.4146 H   0  0  0  0  0  0  0  0  0  0  0  0
   -7.3398    2.5939   -4.2070 H   0  0  0  0  0  0  0  0  0  0  0  0
   -6.0707    1.4060   -1.9198 S   0  0  0  0  0  0  0  0  0  0  0  0
   -6.2513    0.7334   -0.6199 O   0  0  0  0  0  0  0  0  0  0  0  0
   -4.7419    2.2778   -1.8758 O   0  0  0  0  0  0  0  0  0  0  0  0
   -6.1148    0.5881   -3.1357 O   0  0  0  0  0  0  0  0  0  0  0  0
  -10.2362    5.8253   -2.4098 C   0  0  0  0  0  0  0  0  0  0  0  0
  -11.2394    5.4254   -2.2156 H   0  0  0  0  0  0  0  0  0  0  0  0
  -10.0645    6.6292   -1.6870 H   0  0  0  0  0  0  0  0  0  0  0  0
  -10.2472    6.2645   -3.4110 H   0  0  0  0  0  0  0  0  0  0  0  0
  1  2  1  0  0  0  0
  1 10  2  0  0  0  0
  2  3  1  0  0  0  0
  4  1  1  0  0  0  0
  5  4  2  0  0  0  0
  5  6  1  0  0  0  0
  6  9  2  0  0  0  0
  7  6  1  0  0  0  0
  7  8  1  0  0  0  0
  8 15  1  0  0  0  0
  9 10  1  0  0  0  0
  9 16  1  0  0  0  0
 10 17  1  0  0  0  0
 12  5  1  0  0  0  0
 13  8  1  0  0  0  0
 14  8  1  0  0  0  0
 18 24  1  0  0  0  0
 19 18  1  0  0  0  0
 19 25  1  0  0  0  0
 20 19  2  0  0  0  0
 21 22  2  0  0  0  0
 21 20  1  0  0  0  0
 22 23  1  0  0  0  0
 23 28  1  0  0  0  0
 23 18  2  0  0  0  0
 26 21  1  0  0  0  0
 27 22  1  0  0  0  0
 28 30  1  0  0  0  0
 28 29  2  0  0  0  0
 30 11  1  0  0  0  0
 31 28  2  0  0  0  0
 32 20  1  0  0  0  0
 32 33  1  0  0  0  0
 32 34  1  0  0  0  0
 35 32  1  0  0  0  0
M  RAD  3   2   2   3   3   4   2
M  END
