Coordinates from ORCA-job 4-MeOPhN2+~TsO-_B3LYPG-6-31G_dp-CH-Scan-d09-49-n800
 OpenBabel11261919313D

 35 35  0  0  0  0  0  0  0  0999 V2000
   -1.7809   -0.2332   -0.2103 C   0  0  0  0  0  0  0  0  0  0  0  0
   -3.1534   -0.3749   -0.1612 N   0  0  0  0  0  0  0  0  0  0  0  0
   -4.2723   -0.4461   -0.1306 N   0  0  0  0  0  0  0  0  0  0  0  0
   -1.3452    1.0561   -0.5966 C   0  0  0  0  0  0  0  0  0  0  0  0
    0.0631    1.0958   -0.6161 C   0  0  0  0  0  0  0  0  0  0  0  0
    0.8905    0.0077   -0.3008 C   0  0  0  0  0  0  0  0  0  0  0  0
    2.2276    0.2254   -0.3789 O   0  0  0  0  0  0  0  0  0  0  0  0
    3.1319   -0.8318   -0.0867 C   0  0  0  0  0  0  0  0  0  0  0  0
    0.3430   -1.2517    0.0790 C   0  0  0  0  0  0  0  0  0  0  0  0
   -1.0246   -1.3870    0.1291 C   0  0  0  0  0  0  0  0  0  0  0  0
   -4.2511    3.7659   -1.9704 H   0  0  0  0  0  0  0  0  0  0  0  0
    0.5839    2.0136   -0.8931 H   0  0  0  0  0  0  0  0  0  0  0  0
    4.1311   -0.4174   -0.2285 H   0  0  0  0  0  0  0  0  0  0  0  0
    2.9955   -1.6813   -0.7669 H   0  0  0  0  0  0  0  0  0  0  0  0
    3.0308   -1.1770    0.9497 H   0  0  0  0  0  0  0  0  0  0  0  0
    0.9790   -2.0922    0.3261 H   0  0  0  0  0  0  0  0  0  0  0  0
   -1.4903   -2.3274    0.4147 H   0  0  0  0  0  0  0  0  0  0  0  0
   -8.2289    3.8446   -1.0837 C   0  0  0  0  0  0  0  0  0  0  0  0
   -9.4829    4.4450   -1.1322 C   0  0  0  0  0  0  0  0  0  0  0  0
  -10.1716    4.5924   -2.3475 C   0  0  0  0  0  0  0  0  0  0  0  0
   -9.5695    4.1181   -3.5202 C   0  0  0  0  0  0  0  0  0  0  0  0
   -8.3135    3.5133   -3.4932 C   0  0  0  0  0  0  0  0  0  0  0  0
   -7.6541    3.3874   -2.2716 C   0  0  0  0  0  0  0  0  0  0  0  0
   -7.7028    3.7205   -0.1435 H   0  0  0  0  0  0  0  0  0  0  0  0
   -9.9376    4.8042   -0.2130 H   0  0  0  0  0  0  0  0  0  0  0  0
  -10.0907    4.2208   -4.4680 H   0  0  0  0  0  0  0  0  0  0  0  0
   -7.8508    3.1366   -4.3984 H   0  0  0  0  0  0  0  0  0  0  0  0
   -6.0491    2.6196   -2.2240 S   0  0  0  0  0  0  0  0  0  0  0  0
   -5.8140    2.0282   -0.9052 O   0  0  0  0  0  0  0  0  0  0  0  0
   -5.1319    3.9804   -2.3254 O   0  0  0  0  0  0  0  0  0  0  0  0
   -5.8570    1.8241   -3.4326 O   0  0  0  0  0  0  0  0  0  0  0  0
  -11.5400    5.2294   -2.3784 C   0  0  0  0  0  0  0  0  0  0  0  0
  -12.2924    4.5626   -1.9404 H   0  0  0  0  0  0  0  0  0  0  0  0
  -11.5586    6.1592   -1.8014 H   0  0  0  0  0  0  0  0  0  0  0  0
  -11.8531    5.4566   -3.4003 H   0  0  0  0  0  0  0  0  0  0  0  0
  1  2  1  0  0  0  0
  1 10  2  0  0  0  0
  2  3  1  0  0  0  0
  4  1  1  0  0  0  0
  5  4  2  0  0  0  0
  5  6  1  0  0  0  0
  6  9  2  0  0  0  0
  7  6  1  0  0  0  0
  7  8  1  0  0  0  0
  8 15  1  0  0  0  0
  9 10  1  0  0  0  0
  9 16  1  0  0  0  0
 10 17  1  0  0  0  0
 12  5  1  0  0  0  0
 13  8  1  0  0  0  0
 14  8  1  0  0  0  0
 18 24  1  0  0  0  0
 19 18  1  0  0  0  0
 19 25  1  0  0  0  0
 20 19  2  0  0  0  0
 21 22  2  0  0  0  0
 21 20  1  0  0  0  0
 22 23  1  0  0  0  0
 23 28  1  0  0  0  0
 23 18  2  0  0  0  0
 26 21  1  0  0  0  0
 27 22  1  0  0  0  0
 28 29  2  0  0  0  0
 30 28  1  0  0  0  0
 30 11  1  0  0  0  0
 31 28  2  0  0  0  0
 32 20  1  0  0  0  0
 32 33  1  0  0  0  0
 32 34  1  0  0  0  0
 35 32  1  0  0  0  0
M  RAD  3   2   2   3   3   4   2
M  END
