Coordinates from ORCA-job 4-MeOPhN2+~TsO-_B3LYPG-6-31G_dp-CH-Scan-d09-49-n800
 OpenBabel11261919303D

 35 35  0  0  0  0  0  0  0  0999 V2000
   -2.5930   -0.3802   -0.6637 C   0  0  0  0  0  0  0  0  0  0  0  0
   -3.8784   -0.8654   -0.7906 N   0  0  0  0  0  0  0  0  0  0  0  0
   -4.9946   -0.9778   -0.9092 N   0  0  0  0  0  0  0  0  0  0  0  0
   -2.3326    0.9706   -0.9810 C   0  0  0  0  0  0  0  0  0  0  0  0
   -1.0299    1.4076   -0.8387 C   0  0  0  0  0  0  0  0  0  0  0  0
   -0.0119    0.5395   -0.3921 C   0  0  0  0  0  0  0  0  0  0  0  0
    1.2128    1.0854   -0.2932 O   0  0  0  0  0  0  0  0  0  0  0  0
    2.3102    0.2808    0.1391 C   0  0  0  0  0  0  0  0  0  0  0  0
   -0.3018   -0.8085   -0.0871 C   0  0  0  0  0  0  0  0  0  0  0  0
   -1.5975   -1.2726   -0.2304 C   0  0  0  0  0  0  0  0  0  0  0  0
   -3.2401    1.7167   -1.4091 H   0  0  0  0  0  0  0  0  0  0  0  0
   -0.7631    2.4317   -1.0755 H   0  0  0  0  0  0  0  0  0  0  0  0
    3.1785    0.9392    0.1298 H   0  0  0  0  0  0  0  0  0  0  0  0
    2.4807   -0.5577   -0.5452 H   0  0  0  0  0  0  0  0  0  0  0  0
    2.1496   -0.0962    1.1551 H   0  0  0  0  0  0  0  0  0  0  0  0
    0.4714   -1.4851    0.2526 H   0  0  0  0  0  0  0  0  0  0  0  0
   -1.8476   -2.3037   -0.0047 H   0  0  0  0  0  0  0  0  0  0  0  0
   -7.0606    4.1304   -1.5270 C   0  0  0  0  0  0  0  0  0  0  0  0
   -8.1576    4.9874   -1.5529 C   0  0  0  0  0  0  0  0  0  0  0  0
   -9.3364    4.6369   -2.2297 C   0  0  0  0  0  0  0  0  0  0  0  0
   -9.3812    3.4035   -2.8912 C   0  0  0  0  0  0  0  0  0  0  0  0
   -8.2889    2.5345   -2.8741 C   0  0  0  0  0  0  0  0  0  0  0  0
   -7.1332    2.9015   -2.1874 C   0  0  0  0  0  0  0  0  0  0  0  0
   -6.1445    4.4117   -1.0191 H   0  0  0  0  0  0  0  0  0  0  0  0
   -8.0987    5.9474   -1.0456 H   0  0  0  0  0  0  0  0  0  0  0  0
  -10.2811    3.1196   -3.4316 H   0  0  0  0  0  0  0  0  0  0  0  0
   -8.3160    1.5855   -3.3978 H   0  0  0  0  0  0  0  0  0  0  0  0
   -5.7459    1.7646   -2.1216 S   0  0  0  0  0  0  0  0  0  0  0  0
   -5.8562    1.0801   -0.7727 O   0  0  0  0  0  0  0  0  0  0  0  0
   -4.5184    2.6281   -2.1622 O   0  0  0  0  0  0  0  0  0  0  0  0
   -5.8855    0.8229   -3.2515 O   0  0  0  0  0  0  0  0  0  0  0  0
  -10.5266    5.5673   -2.2319 C   0  0  0  0  0  0  0  0  0  0  0  0
  -11.0256    5.5757   -1.2546 H   0  0  0  0  0  0  0  0  0  0  0  0
  -10.2282    6.5989   -2.4480 H   0  0  0  0  0  0  0  0  0  0  0  0
  -11.2678    5.2669   -2.9778 H   0  0  0  0  0  0  0  0  0  0  0  0
  1 10  2  0  0  0  0
  2  1  1  0  0  0  0
  3  2  1  0  0  0  0
  4  5  2  0  0  0  0
  4  1  1  0  0  0  0
  5  6  1  0  0  0  0
  6  7  1  0  0  0  0
  6  9  2  0  0  0  0
  7  8  1  0  0  0  0
  8 15  1  0  0  0  0
  9 16  1  0  0  0  0
 10  9  1  0  0  0  0
 10 17  1  0  0  0  0
 11  4  1  0  0  0  0
 12  5  1  0  0  0  0
 13  8  1  0  0  0  0
 14  8  1  0  0  0  0
 18 24  1  0  0  0  0
 19 18  1  0  0  0  0
 19 25  1  0  0  0  0
 20 19  2  0  0  0  0
 21 22  2  0  0  0  0
 21 20  1  0  0  0  0
 22 23  1  0  0  0  0
 23 28  1  0  0  0  0
 23 18  2  0  0  0  0
 26 21  1  0  0  0  0
 27 22  1  0  0  0  0
 28 29  1  0  0  0  0
 30 28  2  0  0  0  0
 31 28  2  0  0  0  0
 32 20  1  0  0  0  0
 32 33  1  0  0  0  0
 34 32  1  0  0  0  0
 35 32  1  0  0  0  0
M  RAD  3   2   2   3   3  29   2
M  END
