Coordinates from ORCA-job 4-MeOPhN2+~TsO-_B3LYPG-6-31G_dp-CH-Scan-d09-49-n800
 OpenBabel11261919313D

 35 35  0  0  0  0  0  0  0  0999 V2000
   -2.0003   -0.2539   -0.1124 C   0  0  0  0  0  0  0  0  0  0  0  0
   -3.3490   -0.4781    0.0725 N   0  0  0  0  0  0  0  0  0  0  0  0
   -4.4515   -0.6232    0.2152 N   0  0  0  0  0  0  0  0  0  0  0  0
   -1.6769    1.0395   -0.5867 C   0  0  0  0  0  0  0  0  0  0  0  0
   -0.2826    1.1614   -0.7368 C   0  0  0  0  0  0  0  0  0  0  0  0
    0.6356    0.1379   -0.4565 C   0  0  0  0  0  0  0  0  0  0  0  0
    1.9437    0.4308   -0.6625 O   0  0  0  0  0  0  0  0  0  0  0  0
    2.9348   -0.5589   -0.4155 C   0  0  0  0  0  0  0  0  0  0  0  0
    0.2024   -1.1330    0.0179 C   0  0  0  0  0  0  0  0  0  0  0  0
   -1.1445   -1.3443    0.1981 C   0  0  0  0  0  0  0  0  0  0  0  0
   -4.0999    3.4084   -1.6050 H   0  0  0  0  0  0  0  0  0  0  0  0
    0.1533    2.0947   -1.0954 H   0  0  0  0  0  0  0  0  0  0  0  0
    3.8898   -0.0916   -0.6595 H   0  0  0  0  0  0  0  0  0  0  0  0
    2.7931   -1.4405   -1.0520 H   0  0  0  0  0  0  0  0  0  0  0  0
    2.9444   -0.8683    0.6367 H   0  0  0  0  0  0  0  0  0  0  0  0
    0.9077   -1.9245    0.2369 H   0  0  0  0  0  0  0  0  0  0  0  0
   -1.5242   -2.2970    0.5595 H   0  0  0  0  0  0  0  0  0  0  0  0
   -8.2103    3.7047   -0.9677 C   0  0  0  0  0  0  0  0  0  0  0  0
   -9.4180    4.3730   -1.1442 C   0  0  0  0  0  0  0  0  0  0  0  0
   -9.9457    4.5934   -2.4267 C   0  0  0  0  0  0  0  0  0  0  0  0
   -9.2295    4.1237   -3.5357 C   0  0  0  0  0  0  0  0  0  0  0  0
   -8.0180    3.4517   -3.3803 C   0  0  0  0  0  0  0  0  0  0  0  0
   -7.5189    3.2533   -2.0938 C   0  0  0  0  0  0  0  0  0  0  0  0
   -7.8079    3.5241    0.0229 H   0  0  0  0  0  0  0  0  0  0  0  0
   -9.9629    4.7280   -0.2737 H   0  0  0  0  0  0  0  0  0  0  0  0
   -9.6258    4.2836   -4.5345 H   0  0  0  0  0  0  0  0  0  0  0  0
   -7.4680    3.0783   -4.2367 H   0  0  0  0  0  0  0  0  0  0  0  0
   -5.9739    2.3942   -1.8839 S   0  0  0  0  0  0  0  0  0  0  0  0
   -5.9289    1.7748   -0.5576 O   0  0  0  0  0  0  0  0  0  0  0  0
   -4.9883    3.7051   -1.8744 O   0  0  0  0  0  0  0  0  0  0  0  0
   -5.6955    1.5926   -3.0730 O   0  0  0  0  0  0  0  0  0  0  0  0
  -11.2682    5.3008   -2.5987 C   0  0  0  0  0  0  0  0  0  0  0  0
  -12.1013    4.6494   -2.3085 H   0  0  0  0  0  0  0  0  0  0  0  0
  -11.3251    6.1960   -1.9719 H   0  0  0  0  0  0  0  0  0  0  0  0
  -11.4296    5.6015   -3.6368 H   0  0  0  0  0  0  0  0  0  0  0  0
  1  2  1  0  0  0  0
  1 10  2  0  0  0  0
  2  3  1  0  0  0  0
  4  1  1  0  0  0  0
  5  4  2  0  0  0  0
  5  6  1  0  0  0  0
  6  9  2  0  0  0  0
  7  6  1  0  0  0  0
  7  8  1  0  0  0  0
  8 15  1  0  0  0  0
  9 10  1  0  0  0  0
  9 16  1  0  0  0  0
 10 17  1  0  0  0  0
 12  5  1  0  0  0  0
 13  8  1  0  0  0  0
 14  8  1  0  0  0  0
 18 24  1  0  0  0  0
 19 18  1  0  0  0  0
 19 25  1  0  0  0  0
 20 19  2  0  0  0  0
 21 22  2  0  0  0  0
 21 20  1  0  0  0  0
 22 23  1  0  0  0  0
 23 28  1  0  0  0  0
 23 18  2  0  0  0  0
 26 21  1  0  0  0  0
 27 22  1  0  0  0  0
 28 30  1  0  0  0  0
 28 29  2  0  0  0  0
 30 11  1  0  0  0  0
 31 28  2  0  0  0  0
 32 20  1  0  0  0  0
 32 33  1  0  0  0  0
 32 34  1  0  0  0  0
 35 32  1  0  0  0  0
M  RAD  3   2   2   3   3   4   2
M  END
