Coordinates from ORCA-job 4-MeOPhN2+~TsO-_B3LYPG-6-31G_dp-CH-Scan-d09-49-n800
 OpenBabel11261919313D

 35 35  0  0  0  0  0  0  0  0999 V2000
   -2.5736   -0.4671   -0.2446 C   0  0  0  0  0  0  0  0  0  0  0  0
   -3.8003   -1.0484   -0.0236 N   0  0  0  0  0  0  0  0  0  0  0  0
   -4.8177   -1.4854    0.1368 N   0  0  0  0  0  0  0  0  0  0  0  0
   -2.5670    0.7605   -0.9513 C   0  0  0  0  0  0  0  0  0  0  0  0
   -1.2746    1.2618   -1.1233 C   0  0  0  0  0  0  0  0  0  0  0  0
   -0.1203    0.6147   -0.6472 C   0  0  0  0  0  0  0  0  0  0  0  0
    1.0515    1.2330   -0.8996 O   0  0  0  0  0  0  0  0  0  0  0  0
    2.2728    0.6444   -0.4588 C   0  0  0  0  0  0  0  0  0  0  0  0
   -0.2109   -0.6174    0.0529 C   0  0  0  0  0  0  0  0  0  0  0  0
   -1.4534   -1.1727    0.2602 C   0  0  0  0  0  0  0  0  0  0  0  0
   -3.9057    1.5621   -1.5632 H   0  0  0  0  0  0  0  0  0  0  0  0
   -1.1177    2.2001   -1.6511 H   0  0  0  0  0  0  0  0  0  0  0  0
    3.0616    1.3232   -0.7833 H   0  0  0  0  0  0  0  0  0  0  0  0
    2.4313   -0.3389   -0.9163 H   0  0  0  0  0  0  0  0  0  0  0  0
    2.3007    0.5509    0.6331 H   0  0  0  0  0  0  0  0  0  0  0  0
    0.6722   -1.1228    0.4209 H   0  0  0  0  0  0  0  0  0  0  0  0
   -1.5669   -2.1150    0.7880 H   0  0  0  0  0  0  0  0  0  0  0  0
   -7.7004    3.2916   -0.9170 C   0  0  0  0  0  0  0  0  0  0  0  0
   -8.6193    4.3330   -1.0158 C   0  0  0  0  0  0  0  0  0  0  0  0
   -9.1142    4.7481   -2.2615 C   0  0  0  0  0  0  0  0  0  0  0  0
   -8.6621    4.0894   -3.4124 C   0  0  0  0  0  0  0  0  0  0  0  0
   -7.7428    3.0441   -3.3313 C   0  0  0  0  0  0  0  0  0  0  0  0
   -7.2649    2.6559   -2.0807 C   0  0  0  0  0  0  0  0  0  0  0  0
   -7.3285    2.9618    0.0468 H   0  0  0  0  0  0  0  0  0  0  0  0
   -8.9617    4.8307   -0.1120 H   0  0  0  0  0  0  0  0  0  0  0  0
   -9.0369    4.3962   -4.3853 H   0  0  0  0  0  0  0  0  0  0  0  0
   -7.4020    2.5245   -4.2199 H   0  0  0  0  0  0  0  0  0  0  0  0
   -6.0742    1.3265   -1.9710 S   0  0  0  0  0  0  0  0  0  0  0  0
   -6.2331    0.6709   -0.6567 O   0  0  0  0  0  0  0  0  0  0  0  0
   -4.7218    2.1402   -1.9858 O   0  0  0  0  0  0  0  0  0  0  0  0
   -6.2012    0.4943   -3.1726 O   0  0  0  0  0  0  0  0  0  0  0  0
  -10.1342    5.8578   -2.3529 C   0  0  0  0  0  0  0  0  0  0  0  0
  -11.1411    5.4876   -2.1227 H   0  0  0  0  0  0  0  0  0  0  0  0
   -9.9165    6.6615   -1.6424 H   0  0  0  0  0  0  0  0  0  0  0  0
  -10.1666    6.2904   -3.3566 H   0  0  0  0  0  0  0  0  0  0  0  0
  1  2  1  0  0  0  0
  1 10  2  0  0  0  0
  2  3  1  0  0  0  0
  4  1  1  0  0  0  0
  5  4  2  0  0  0  0
  5  6  1  0  0  0  0
  6  9  2  0  0  0  0
  7  6  1  0  0  0  0
  7  8  1  0  0  0  0
  8 15  1  0  0  0  0
  9 10  1  0  0  0  0
  9 16  1  0  0  0  0
 10 17  1  0  0  0  0
 12  5  1  0  0  0  0
 13  8  1  0  0  0  0
 14  8  1  0  0  0  0
 18 24  1  0  0  0  0
 19 18  1  0  0  0  0
 19 25  1  0  0  0  0
 20 19  2  0  0  0  0
 21 22  2  0  0  0  0
 21 20  1  0  0  0  0
 22 23  1  0  0  0  0
 23 28  1  0  0  0  0
 23 18  2  0  0  0  0
 26 21  1  0  0  0  0
 27 22  1  0  0  0  0
 28 29  2  0  0  0  0
 30 28  1  0  0  0  0
 30 11  1  0  0  0  0
 31 28  2  0  0  0  0
 32 20  1  0  0  0  0
 32 33  1  0  0  0  0
 32 34  1  0  0  0  0
 35 32  1  0  0  0  0
M  RAD  3   2   2   3   3   4   2
M  END
