Coordinates from ORCA-job 4-MeOPhN2+~TsO-_B3LYPG-6-31G_dp-CH-Scan-d09-49-n800
 OpenBabel11261919303D

 35 35  0  0  0  0  0  0  0  0999 V2000
   -2.6102   -0.3532   -0.6846 C   0  0  0  0  0  0  0  0  0  0  0  0
   -3.9014   -0.8233   -0.8404 N   0  0  0  0  0  0  0  0  0  0  0  0
   -5.0262   -0.8251   -0.9818 N   0  0  0  0  0  0  0  0  0  0  0  0
   -2.3163    1.0006   -0.9561 C   0  0  0  0  0  0  0  0  0  0  0  0
   -1.0094    1.4136   -0.7883 C   0  0  0  0  0  0  0  0  0  0  0  0
   -0.0110    0.5155   -0.3565 C   0  0  0  0  0  0  0  0  0  0  0  0
    1.2211    1.0390   -0.2270 O   0  0  0  0  0  0  0  0  0  0  0  0
    2.2991    0.2029    0.1931 C   0  0  0  0  0  0  0  0  0  0  0  0
   -0.3281   -0.8344   -0.0976 C   0  0  0  0  0  0  0  0  0  0  0  0
   -1.6313   -1.2703   -0.2710 C   0  0  0  0  0  0  0  0  0  0  0  0
   -3.1522    1.7425   -1.3511 H   0  0  0  0  0  0  0  0  0  0  0  0
   -0.7255    2.4397   -0.9934 H   0  0  0  0  0  0  0  0  0  0  0  0
    3.1777    0.8470    0.2190 H   0  0  0  0  0  0  0  0  0  0  0  0
    2.4666   -0.6147   -0.5169 H   0  0  0  0  0  0  0  0  0  0  0  0
    2.1174   -0.2060    1.1932 H   0  0  0  0  0  0  0  0  0  0  0  0
    0.4290   -1.5352    0.2290 H   0  0  0  0  0  0  0  0  0  0  0  0
   -1.9012   -2.3036   -0.0816 H   0  0  0  0  0  0  0  0  0  0  0  0
   -7.0209    4.2290   -1.6673 C   0  0  0  0  0  0  0  0  0  0  0  0
   -8.1515    5.0425   -1.6602 C   0  0  0  0  0  0  0  0  0  0  0  0
   -9.3649    4.6027   -2.2106 C   0  0  0  0  0  0  0  0  0  0  0  0
   -9.4115    3.3242   -2.7818 C   0  0  0  0  0  0  0  0  0  0  0  0
   -8.2871    2.4984   -2.7961 C   0  0  0  0  0  0  0  0  0  0  0  0
   -7.0958    2.9548   -2.2334 C   0  0  0  0  0  0  0  0  0  0  0  0
   -6.0785    4.5772   -1.2587 H   0  0  0  0  0  0  0  0  0  0  0  0
   -8.0914    6.0377   -1.2265 H   0  0  0  0  0  0  0  0  0  0  0  0
  -10.3387    2.9719   -3.2274 H   0  0  0  0  0  0  0  0  0  0  0  0
   -8.3175    1.5156   -3.2530 H   0  0  0  0  0  0  0  0  0  0  0  0
   -5.6588    1.8794   -2.2097 S   0  0  0  0  0  0  0  0  0  0  0  0
   -5.7027    1.2099   -0.8367 O   0  0  0  0  0  0  0  0  0  0  0  0
   -4.4682    2.7746   -2.2968 O   0  0  0  0  0  0  0  0  0  0  0  0
   -5.8132    0.9012   -3.3058 O   0  0  0  0  0  0  0  0  0  0  0  0
  -10.5915    5.4839   -2.1732 C   0  0  0  0  0  0  0  0  0  0  0  0
  -11.0678    5.4579   -1.1847 H   0  0  0  0  0  0  0  0  0  0  0  0
  -10.3402    6.5292   -2.3812 H   0  0  0  0  0  0  0  0  0  0  0  0
  -11.3378    5.1623   -2.9052 H   0  0  0  0  0  0  0  0  0  0  0  0
  1 10  2  0  0  0  0
  2  1  1  0  0  0  0
  3  2  1  0  0  0  0
  4  5  2  0  0  0  0
  4  1  1  0  0  0  0
  5  6  1  0  0  0  0
  6  7  1  0  0  0  0
  6  9  2  0  0  0  0
  7  8  1  0  0  0  0
  8 13  1  0  0  0  0
  8 15  1  0  0  0  0
  9 16  1  0  0  0  0
 10  9  1  0  0  0  0
 10 17  1  0  0  0  0
 11  4  1  0  0  0  0
 12  5  1  0  0  0  0
 14  8  1  0  0  0  0
 18 19  1  0  0  0  0
 18 24  1  0  0  0  0
 19 25  1  0  0  0  0
 20 32  1  0  0  0  0
 20 19  2  0  0  0  0
 21 20  1  0  0  0  0
 22 21  2  0  0  0  0
 22 23  1  0  0  0  0
 23 28  1  0  0  0  0
 23 18  2  0  0  0  0
 26 21  1  0  0  0  0
 27 22  1  0  0  0  0
 28 29  1  0  0  0  0
 30 28  2  0  0  0  0
 31 28  2  0  0  0  0
 32 33  1  0  0  0  0
 34 32  1  0  0  0  0
 35 32  1  0  0  0  0
M  RAD  3   2   2   3   3  29   2
M  END
