Coordinates from ORCA-job 4-MeOPhN2+~TsO-_B3LYPG-6-31G_dp-CH-Scan-d09-49-n800
 OpenBabel11261919313D

 35 35  0  0  0  0  0  0  0  0999 V2000
   -1.8607   -0.2278   -0.1497 C   0  0  0  0  0  0  0  0  0  0  0  0
   -3.2272   -0.3857   -0.0359 N   0  0  0  0  0  0  0  0  0  0  0  0
   -4.3423   -0.4712    0.0473 N   0  0  0  0  0  0  0  0  0  0  0  0
   -1.4574    1.0631   -0.5654 C   0  0  0  0  0  0  0  0  0  0  0  0
   -0.0523    1.1188   -0.6501 C   0  0  0  0  0  0  0  0  0  0  0  0
    0.8014    0.0425   -0.3657 C   0  0  0  0  0  0  0  0  0  0  0  0
    2.1306    0.2750   -0.5075 O   0  0  0  0  0  0  0  0  0  0  0  0
    3.0600   -0.7702   -0.2524 C   0  0  0  0  0  0  0  0  0  0  0  0
    0.2867   -1.2197    0.0482 C   0  0  0  0  0  0  0  0  0  0  0  0
   -1.0755   -1.3697    0.1627 C   0  0  0  0  0  0  0  0  0  0  0  0
   -4.1885    3.7177   -1.7841 H   0  0  0  0  0  0  0  0  0  0  0  0
    0.4444    2.0401   -0.9578 H   0  0  0  0  0  0  0  0  0  0  0  0
    4.0464   -0.3455   -0.4442 H   0  0  0  0  0  0  0  0  0  0  0  0
    2.9011   -1.6253   -0.9204 H   0  0  0  0  0  0  0  0  0  0  0  0
    3.0121   -1.1099    0.7895 H   0  0  0  0  0  0  0  0  0  0  0  0
    0.9430   -2.0512    0.2717 H   0  0  0  0  0  0  0  0  0  0  0  0
   -1.5166   -2.3130    0.4765 H   0  0  0  0  0  0  0  0  0  0  0  0
   -8.2344    3.8105   -1.0296 C   0  0  0  0  0  0  0  0  0  0  0  0
   -9.4827    4.4143   -1.1442 C   0  0  0  0  0  0  0  0  0  0  0  0
  -10.1011    4.5730   -2.3951 C   0  0  0  0  0  0  0  0  0  0  0  0
   -9.4343    4.1070   -3.5360 C   0  0  0  0  0  0  0  0  0  0  0  0
   -8.1831    3.4991   -3.4427 C   0  0  0  0  0  0  0  0  0  0  0  0
   -7.5941    3.3617   -2.1867 C   0  0  0  0  0  0  0  0  0  0  0  0
   -7.7622    3.6777   -0.0624 H   0  0  0  0  0  0  0  0  0  0  0  0
   -9.9880    4.7672   -0.2494 H   0  0  0  0  0  0  0  0  0  0  0  0
   -9.9007    4.2189   -4.5108 H   0  0  0  0  0  0  0  0  0  0  0  0
   -7.6704    3.1289   -4.3233 H   0  0  0  0  0  0  0  0  0  0  0  0
   -5.9967    2.5882   -2.0550 S   0  0  0  0  0  0  0  0  0  0  0  0
   -5.8374    1.9923   -0.7271 O   0  0  0  0  0  0  0  0  0  0  0  0
   -5.0770    3.9490   -2.1083 O   0  0  0  0  0  0  0  0  0  0  0  0
   -5.7418    1.7919   -3.2521 O   0  0  0  0  0  0  0  0  0  0  0  0
  -11.4648    5.2122   -2.4987 C   0  0  0  0  0  0  0  0  0  0  0  0
  -12.2448    4.5319   -2.1361 H   0  0  0  0  0  0  0  0  0  0  0  0
  -11.5239    6.1224   -1.8940 H   0  0  0  0  0  0  0  0  0  0  0  0
  -11.7076    5.4731   -3.5317 H   0  0  0  0  0  0  0  0  0  0  0  0
  1  2  1  0  0  0  0
  1 10  2  0  0  0  0
  2  3  1  0  0  0  0
  4  1  1  0  0  0  0
  5  4  2  0  0  0  0
  5  6  1  0  0  0  0
  6  9  2  0  0  0  0
  7  6  1  0  0  0  0
  7  8  1  0  0  0  0
  8 15  1  0  0  0  0
  9 10  1  0  0  0  0
  9 16  1  0  0  0  0
 10 17  1  0  0  0  0
 12  5  1  0  0  0  0
 13  8  1  0  0  0  0
 14  8  1  0  0  0  0
 18 24  1  0  0  0  0
 19 18  1  0  0  0  0
 19 25  1  0  0  0  0
 20 19  2  0  0  0  0
 21 22  2  0  0  0  0
 21 20  1  0  0  0  0
 22 23  1  0  0  0  0
 23 28  1  0  0  0  0
 23 18  2  0  0  0  0
 26 21  1  0  0  0  0
 27 22  1  0  0  0  0
 28 29  2  0  0  0  0
 30 28  1  0  0  0  0
 30 11  1  0  0  0  0
 31 28  2  0  0  0  0
 32 20  1  0  0  0  0
 32 33  1  0  0  0  0
 32 34  1  0  0  0  0
 35 32  1  0  0  0  0
M  RAD  3   2   2   3   3   4   2
M  END
