Coordinates from ORCA-job 4-MeOPhN2+~TsO-_B3LYPG-6-31G_dp-CH-Scan-d09-49-n800
 OpenBabel11261919313D

 35 35  0  0  0  0  0  0  0  0999 V2000
   -1.9282   -0.2375   -0.1300 C   0  0  0  0  0  0  0  0  0  0  0  0
   -3.2875   -0.4223    0.0214 N   0  0  0  0  0  0  0  0  0  0  0  0
   -4.3976   -0.5318    0.1352 N   0  0  0  0  0  0  0  0  0  0  0  0
   -1.5603    1.0528   -0.5795 C   0  0  0  0  0  0  0  0  0  0  0  0
   -0.1595    1.1356   -0.6988 C   0  0  0  0  0  0  0  0  0  0  0  0
    0.7228    0.0824   -0.4144 C   0  0  0  0  0  0  0  0  0  0  0  0
    2.0431    0.3396   -0.5909 O   0  0  0  0  0  0  0  0  0  0  0  0
    2.9998   -0.6815   -0.3382 C   0  0  0  0  0  0  0  0  0  0  0  0
    0.2440   -1.1817    0.0344 C   0  0  0  0  0  0  0  0  0  0  0  0
   -1.1118   -1.3567    0.1841 C   0  0  0  0  0  0  0  0  0  0  0  0
   -4.1362    3.5997   -1.7063 H   0  0  0  0  0  0  0  0  0  0  0  0
    0.3106    2.0606   -1.0355 H   0  0  0  0  0  0  0  0  0  0  0  0
    3.9726   -0.2398   -0.5590 H   0  0  0  0  0  0  0  0  0  0  0  0
    2.8446   -1.5512   -0.9879 H   0  0  0  0  0  0  0  0  0  0  0  0
    2.9813   -1.0037    0.7101 H   0  0  0  0  0  0  0  0  0  0  0  0
    0.9220   -1.9957    0.2572 H   0  0  0  0  0  0  0  0  0  0  0  0
   -1.5259   -2.3026    0.5253 H   0  0  0  0  0  0  0  0  0  0  0  0
   -8.2271    3.7631   -0.9942 C   0  0  0  0  0  0  0  0  0  0  0  0
   -9.4604    4.3896   -1.1442 C   0  0  0  0  0  0  0  0  0  0  0  0
  -10.0313    4.5756   -2.4137 C   0  0  0  0  0  0  0  0  0  0  0  0
   -9.3320    4.1140   -3.5369 C   0  0  0  0  0  0  0  0  0  0  0  0
   -8.0952    3.4837   -3.4081 C   0  0  0  0  0  0  0  0  0  0  0  0
   -7.5536    3.3193   -2.1340 C   0  0  0  0  0  0  0  0  0  0  0  0
   -7.7913    3.6092   -0.0131 H   0  0  0  0  0  0  0  0  0  0  0  0
   -9.9914    4.7390   -0.2629 H   0  0  0  0  0  0  0  0  0  0  0  0
   -9.7615    4.2473   -4.5258 H   0  0  0  0  0  0  0  0  0  0  0  0
   -7.5578    3.1169   -4.2752 H   0  0  0  0  0  0  0  0  0  0  0  0
   -5.9755    2.5153   -1.9577 S   0  0  0  0  0  0  0  0  0  0  0  0
   -5.8724    1.9090   -0.6290 O   0  0  0  0  0  0  0  0  0  0  0  0
   -5.0340    3.8605   -1.9794 O   0  0  0  0  0  0  0  0  0  0  0  0
   -5.6978    1.7179   -3.1494 O   0  0  0  0  0  0  0  0  0  0  0  0
  -11.3802    5.2380   -2.5565 C   0  0  0  0  0  0  0  0  0  0  0  0
  -12.1842    4.5605   -2.2448 H   0  0  0  0  0  0  0  0  0  0  0  0
  -11.4517    6.1332   -1.9312 H   0  0  0  0  0  0  0  0  0  0  0  0
  -11.5760    5.5290   -3.5915 H   0  0  0  0  0  0  0  0  0  0  0  0
  1  2  1  0  0  0  0
  1 10  2  0  0  0  0
  2  3  1  0  0  0  0
  4  1  1  0  0  0  0
  5  4  2  0  0  0  0
  5  6  1  0  0  0  0
  6  9  2  0  0  0  0
  7  6  1  0  0  0  0
  7  8  1  0  0  0  0
  8 15  1  0  0  0  0
  9 10  1  0  0  0  0
  9 16  1  0  0  0  0
 10 17  1  0  0  0  0
 12  5  1  0  0  0  0
 13  8  1  0  0  0  0
 14  8  1  0  0  0  0
 18 24  1  0  0  0  0
 19 18  1  0  0  0  0
 19 25  1  0  0  0  0
 20 19  2  0  0  0  0
 21 22  2  0  0  0  0
 21 20  1  0  0  0  0
 22 23  1  0  0  0  0
 23 28  1  0  0  0  0
 23 18  2  0  0  0  0
 26 21  1  0  0  0  0
 27 22  1  0  0  0  0
 28 29  2  0  0  0  0
 30 28  1  0  0  0  0
 30 11  1  0  0  0  0
 31 28  2  0  0  0  0
 32 20  1  0  0  0  0
 32 33  1  0  0  0  0
 32 34  1  0  0  0  0
 35 32  1  0  0  0  0
M  RAD  3   2   2   3   3   4   2
M  END
