Coordinates from ORCA-job 4-MeOPhN2+~TsO-_B3LYPG-6-31G_dp-CH-Scan-d09-49-n800
 OpenBabel11261919313D

 35 35  0  0  0  0  0  0  0  0999 V2000
   -1.8518   -0.2272   -0.1545 C   0  0  0  0  0  0  0  0  0  0  0  0
   -3.2193   -0.3823   -0.0466 N   0  0  0  0  0  0  0  0  0  0  0  0
   -4.3348   -0.4655    0.0316 N   0  0  0  0  0  0  0  0  0  0  0  0
   -1.4442    1.0636   -0.5662 C   0  0  0  0  0  0  0  0  0  0  0  0
   -0.0387    1.1165   -0.6450 C   0  0  0  0  0  0  0  0  0  0  0  0
    0.8116    0.0379   -0.3588 C   0  0  0  0  0  0  0  0  0  0  0  0
    2.1419    0.2678   -0.4947 O   0  0  0  0  0  0  0  0  0  0  0  0
    3.0680   -0.7797   -0.2374 C   0  0  0  0  0  0  0  0  0  0  0  0
    0.2926   -1.2239    0.0508 C   0  0  0  0  0  0  0  0  0  0  0  0
   -1.0704   -1.3713    0.1593 C   0  0  0  0  0  0  0  0  0  0  0  0
   -4.1950    3.7281   -1.8014 H   0  0  0  0  0  0  0  0  0  0  0  0
    0.4612    2.0373   -0.9490 H   0  0  0  0  0  0  0  0  0  0  0  0
    4.0561   -0.3567   -0.4244 H   0  0  0  0  0  0  0  0  0  0  0  0
    2.9101   -1.6335   -0.9074 H   0  0  0  0  0  0  0  0  0  0  0  0
    3.0151   -1.1209    0.8038 H   0  0  0  0  0  0  0  0  0  0  0  0
    0.9462   -2.0571    0.2757 H   0  0  0  0  0  0  0  0  0  0  0  0
   -1.5147   -2.3142    0.4698 H   0  0  0  0  0  0  0  0  0  0  0  0
   -8.2347    3.8154   -1.0348 C   0  0  0  0  0  0  0  0  0  0  0  0
   -9.4843    4.4175   -1.1434 C   0  0  0  0  0  0  0  0  0  0  0  0
  -10.1097    4.5738   -2.3912 C   0  0  0  0  0  0  0  0  0  0  0  0
   -9.4486    4.1071   -3.5350 C   0  0  0  0  0  0  0  0  0  0  0  0
   -8.1960    3.5009   -3.4478 C   0  0  0  0  0  0  0  0  0  0  0  0
   -7.6001    3.3659   -2.1948 C   0  0  0  0  0  0  0  0  0  0  0  0
   -7.7571    3.6845   -0.0700 H   0  0  0  0  0  0  0  0  0  0  0  0
   -9.9852    4.7709   -0.2463 H   0  0  0  0  0  0  0  0  0  0  0  0
   -9.9204    4.2172   -4.5074 H   0  0  0  0  0  0  0  0  0  0  0  0
   -7.6878    3.1302   -4.3307 H   0  0  0  0  0  0  0  0  0  0  0  0
   -6.0009    2.5948   -2.0708 S   0  0  0  0  0  0  0  0  0  0  0  0
   -5.8339    1.9997   -0.7434 O   0  0  0  0  0  0  0  0  0  0  0  0
   -5.0830    3.9567   -2.1287 O   0  0  0  0  0  0  0  0  0  0  0  0
   -5.7508    1.7987   -3.2689 O   0  0  0  0  0  0  0  0  0  0  0  0
  -11.4746    5.2113   -2.4881 C   0  0  0  0  0  0  0  0  0  0  0  0
  -12.2515    4.5318   -2.1176 H   0  0  0  0  0  0  0  0  0  0  0  0
  -11.5305    6.1238   -1.8865 H   0  0  0  0  0  0  0  0  0  0  0  0
  -11.7246    5.4681   -3.5204 H   0  0  0  0  0  0  0  0  0  0  0  0
  1  2  1  0  0  0  0
  1 10  2  0  0  0  0
  2  3  1  0  0  0  0
  4  1  1  0  0  0  0
  5  4  2  0  0  0  0
  5  6  1  0  0  0  0
  6  9  2  0  0  0  0
  7  6  1  0  0  0  0
  7  8  1  0  0  0  0
  8 15  1  0  0  0  0
  9 10  1  0  0  0  0
  9 16  1  0  0  0  0
 10 17  1  0  0  0  0
 12  5  1  0  0  0  0
 13  8  1  0  0  0  0
 14  8  1  0  0  0  0
 18 24  1  0  0  0  0
 19 18  1  0  0  0  0
 19 25  1  0  0  0  0
 20 19  2  0  0  0  0
 21 22  2  0  0  0  0
 21 20  1  0  0  0  0
 22 23  1  0  0  0  0
 23 28  1  0  0  0  0
 23 18  2  0  0  0  0
 26 21  1  0  0  0  0
 27 22  1  0  0  0  0
 28 29  2  0  0  0  0
 30 28  1  0  0  0  0
 30 11  1  0  0  0  0
 31 28  2  0  0  0  0
 32 20  1  0  0  0  0
 32 33  1  0  0  0  0
 32 34  1  0  0  0  0
 35 32  1  0  0  0  0
M  RAD  3   2   2   3   3   4   2
M  END
