Coordinates from ORCA-job 4-MeOPhN2+~TsO-_B3LYPG-6-31G_dp-CH-Scan-d09-49-n800
 OpenBabel11261919313D

 35 35  0  0  0  0  0  0  0  0999 V2000
   -2.5878   -0.4785   -0.2658 C   0  0  0  0  0  0  0  0  0  0  0  0
   -3.8100   -1.0728   -0.0550 N   0  0  0  0  0  0  0  0  0  0  0  0
   -4.8244   -1.5196    0.0969 N   0  0  0  0  0  0  0  0  0  0  0  0
   -2.5848    0.7401   -0.9880 C   0  0  0  0  0  0  0  0  0  0  0  0
   -1.2974    1.2565   -1.1482 C   0  0  0  0  0  0  0  0  0  0  0  0
   -0.1420    0.6302   -0.6472 C   0  0  0  0  0  0  0  0  0  0  0  0
    1.0251    1.2603   -0.8906 O   0  0  0  0  0  0  0  0  0  0  0  0
    2.2474    0.6928   -0.4253 C   0  0  0  0  0  0  0  0  0  0  0  0
   -0.2275   -0.5940    0.0669 C   0  0  0  0  0  0  0  0  0  0  0  0
   -1.4659   -1.1627    0.2633 C   0  0  0  0  0  0  0  0  0  0  0  0
   -3.9015    1.5008   -1.6176 H   0  0  0  0  0  0  0  0  0  0  0  0
   -1.1459    2.1899   -1.6857 H   0  0  0  0  0  0  0  0  0  0  0  0
    3.0322    1.3771   -0.7481 H   0  0  0  0  0  0  0  0  0  0  0  0
    2.4242   -0.2944   -0.8673 H   0  0  0  0  0  0  0  0  0  0  0  0
    2.2611    0.6143    0.6681 H   0  0  0  0  0  0  0  0  0  0  0  0
    0.6564   -1.0836    0.4539 H   0  0  0  0  0  0  0  0  0  0  0  0
   -1.5750   -2.0997    0.8013 H   0  0  0  0  0  0  0  0  0  0  0  0
   -7.6584    3.2863   -0.9238 C   0  0  0  0  0  0  0  0  0  0  0  0
   -8.5636    4.3410   -1.0090 C   0  0  0  0  0  0  0  0  0  0  0  0
   -9.0828    4.7532   -2.2456 C   0  0  0  0  0  0  0  0  0  0  0  0
   -8.6695    4.0778   -3.4015 C   0  0  0  0  0  0  0  0  0  0  0  0
   -7.7647    3.0191   -3.3337 C   0  0  0  0  0  0  0  0  0  0  0  0
   -7.2617    2.6337   -2.0920 C   0  0  0  0  0  0  0  0  0  0  0  0
   -7.2677    2.9589    0.0333 H   0  0  0  0  0  0  0  0  0  0  0  0
   -8.8759    4.8515   -0.1014 H   0  0  0  0  0  0  0  0  0  0  0  0
   -9.0635    4.3823   -4.3675 H   0  0  0  0  0  0  0  0  0  0  0  0
   -7.4544    2.4866   -4.2259 H   0  0  0  0  0  0  0  0  0  0  0  0
   -6.0879    1.2873   -2.0007 S   0  0  0  0  0  0  0  0  0  0  0  0
   -6.2190    0.6517   -0.6727 O   0  0  0  0  0  0  0  0  0  0  0  0
   -4.7233    2.0717   -2.0679 O   0  0  0  0  0  0  0  0  0  0  0  0
   -6.2693    0.4412   -3.1857 O   0  0  0  0  0  0  0  0  0  0  0  0
  -10.0880    5.8776   -2.3218 C   0  0  0  0  0  0  0  0  0  0  0  0
  -11.0956    5.5234   -2.0700 H   0  0  0  0  0  0  0  0  0  0  0  0
   -9.8443    6.6810   -1.6195 H   0  0  0  0  0  0  0  0  0  0  0  0
  -10.1340    6.3063   -3.3267 H   0  0  0  0  0  0  0  0  0  0  0  0
  1  2  1  0  0  0  0
  1 10  2  0  0  0  0
  2  3  1  0  0  0  0
  4  1  1  0  0  0  0
  5  4  2  0  0  0  0
  5  6  1  0  0  0  0
  6  9  2  0  0  0  0
  7  6  1  0  0  0  0
  7  8  1  0  0  0  0
  8 15  1  0  0  0  0
  9 10  1  0  0  0  0
  9 16  1  0  0  0  0
 10 17  1  0  0  0  0
 12  5  1  0  0  0  0
 13  8  1  0  0  0  0
 14  8  1  0  0  0  0
 18 24  1  0  0  0  0
 19 18  1  0  0  0  0
 19 25  1  0  0  0  0
 20 19  2  0  0  0  0
 21 22  2  0  0  0  0
 21 20  1  0  0  0  0
 22 23  1  0  0  0  0
 23 28  1  0  0  0  0
 23 18  2  0  0  0  0
 26 21  1  0  0  0  0
 27 22  1  0  0  0  0
 28 29  2  0  0  0  0
 30 28  1  0  0  0  0
 30 11  1  0  0  0  0
 31 28  2  0  0  0  0
 32 20  1  0  0  0  0
 32 33  1  0  0  0  0
 32 34  1  0  0  0  0
 35 32  1  0  0  0  0
M  RAD  3   2   2   3   3   4   2
M  END
