Coordinates from ORCA-job 4-MeOPhN2+~TsO-_B3LYPG-6-31G_dp-CH-Scan-d09-49-n800
 OpenBabel11261919313D

 35 35  0  0  0  0  0  0  0  0999 V2000
   -2.1084   -0.2977   -0.1054 C   0  0  0  0  0  0  0  0  0  0  0  0
   -3.4360   -0.5978    0.1131 N   0  0  0  0  0  0  0  0  0  0  0  0
   -4.5234   -0.8097    0.2825 N   0  0  0  0  0  0  0  0  0  0  0  0
   -1.8639    0.9951   -0.6279 C   0  0  0  0  0  0  0  0  0  0  0  0
   -0.4834    1.1942   -0.8071 C   0  0  0  0  0  0  0  0  0  0  0  0
    0.4978    0.2359   -0.5079 C   0  0  0  0  0  0  0  0  0  0  0  0
    1.7820    0.5982   -0.7445 O   0  0  0  0  0  0  0  0  0  0  0  0
    2.8347   -0.3209   -0.4770 C   0  0  0  0  0  0  0  0  0  0  0  0
    0.1465   -1.0406    0.0149 C   0  0  0  0  0  0  0  0  0  0  0  0
   -1.1829   -1.3232    0.2248 C   0  0  0  0  0  0  0  0  0  0  0  0
   -4.0719    3.0003   -1.5010 H   0  0  0  0  0  0  0  0  0  0  0  0
   -0.1099    2.1385   -1.2037 H   0  0  0  0  0  0  0  0  0  0  0  0
    3.7564    0.1952   -0.7485 H   0  0  0  0  0  0  0  0  0  0  0  0
    2.7402   -1.2304   -1.0820 H   0  0  0  0  0  0  0  0  0  0  0  0
    2.8736   -0.5926    0.5849 H   0  0  0  0  0  0  0  0  0  0  0  0
    0.9000   -1.7820    0.2480 H   0  0  0  0  0  0  0  0  0  0  0  0
   -1.5002   -2.2839    0.6230 H   0  0  0  0  0  0  0  0  0  0  0  0
   -8.1594    3.6025   -0.9506 C   0  0  0  0  0  0  0  0  0  0  0  0
   -9.3114    4.3613   -1.1335 C   0  0  0  0  0  0  0  0  0  0  0  0
   -9.7973    4.6452   -2.4200 C   0  0  0  0  0  0  0  0  0  0  0  0
   -9.0965    4.1465   -3.5259 C   0  0  0  0  0  0  0  0  0  0  0  0
   -7.9403    3.3842   -3.3636 C   0  0  0  0  0  0  0  0  0  0  0  0
   -7.4815    3.1238   -2.0736 C   0  0  0  0  0  0  0  0  0  0  0  0
   -7.7906    3.3725    0.0429 H   0  0  0  0  0  0  0  0  0  0  0  0
   -9.8455    4.7377   -0.2652 H   0  0  0  0  0  0  0  0  0  0  0  0
   -9.4612    4.3545   -4.5279 H   0  0  0  0  0  0  0  0  0  0  0  0
   -7.4030    2.9881   -4.2179 H   0  0  0  0  0  0  0  0  0  0  0  0
   -6.0086    2.1464   -1.8555 S   0  0  0  0  0  0  0  0  0  0  0  0
   -6.0499    1.4807   -0.5507 O   0  0  0  0  0  0  0  0  0  0  0  0
   -4.9315    3.3736   -1.7771 O   0  0  0  0  0  0  0  0  0  0  0  0
   -5.7635    1.3608   -3.0631 O   0  0  0  0  0  0  0  0  0  0  0  0
  -11.0610    5.4515   -2.5996 C   0  0  0  0  0  0  0  0  0  0  0  0
  -11.9425    4.8695   -2.3051 H   0  0  0  0  0  0  0  0  0  0  0  0
  -11.0497    6.3537   -1.9800 H   0  0  0  0  0  0  0  0  0  0  0  0
  -11.1975    5.7561   -3.6401 H   0  0  0  0  0  0  0  0  0  0  0  0
  1  2  1  0  0  0  0
  1 10  2  0  0  0  0
  2  3  1  0  0  0  0
  4  1  1  0  0  0  0
  5  4  2  0  0  0  0
  5  6  1  0  0  0  0
  6  9  2  0  0  0  0
  7  6  1  0  0  0  0
  7  8  1  0  0  0  0
  8 15  1  0  0  0  0
  9 10  1  0  0  0  0
  9 16  1  0  0  0  0
 10 17  1  0  0  0  0
 12  5  1  0  0  0  0
 13  8  1  0  0  0  0
 14  8  1  0  0  0  0
 18 24  1  0  0  0  0
 19 18  1  0  0  0  0
 19 25  1  0  0  0  0
 20 19  2  0  0  0  0
 21 22  2  0  0  0  0
 21 20  1  0  0  0  0
 22 23  1  0  0  0  0
 23 28  1  0  0  0  0
 23 18  2  0  0  0  0
 26 21  1  0  0  0  0
 27 22  1  0  0  0  0
 28 30  1  0  0  0  0
 28 29  2  0  0  0  0
 30 11  1  0  0  0  0
 31 28  2  0  0  0  0
 32 20  1  0  0  0  0
 32 33  1  0  0  0  0
 32 34  1  0  0  0  0
 35 32  1  0  0  0  0
M  RAD  3   2   2   3   3   4   2
M  END
