Coordinates from ORCA-job 4-MeOPhN2+~TsO-_B3LYPG-6-31G_dp-CH-Scan-d09-49-n800
 OpenBabel11261919303D

 35 35  0  0  0  0  0  0  0  0999 V2000
   -2.6366   -0.4982   -0.3783 C   0  0  0  0  0  0  0  0  0  0  0  0
   -3.8544   -1.1186   -0.2308 N   0  0  0  0  0  0  0  0  0  0  0  0
   -4.8765   -1.5623   -0.1358 N   0  0  0  0  0  0  0  0  0  0  0  0
   -2.6089    0.7192   -1.0989 C   0  0  0  0  0  0  0  0  0  0  0  0
   -1.3397    1.2779   -1.2023 C   0  0  0  0  0  0  0  0  0  0  0  0
   -0.1952    0.6801   -0.6412 C   0  0  0  0  0  0  0  0  0  0  0  0
    0.9633    1.3397   -0.8273 O   0  0  0  0  0  0  0  0  0  0  0  0
    2.1773    0.8028   -0.3032 C   0  0  0  0  0  0  0  0  0  0  0  0
   -0.2894   -0.5447    0.0677 C   0  0  0  0  0  0  0  0  0  0  0  0
   -1.5221   -1.1461    0.2023 C   0  0  0  0  0  0  0  0  0  0  0  0
   -3.7869    1.3298   -1.7097 H   0  0  0  0  0  0  0  0  0  0  0  0
   -1.1962    2.2137   -1.7357 H   0  0  0  0  0  0  0  0  0  0  0  0
    2.9581    1.5072   -0.5895 H   0  0  0  0  0  0  0  0  0  0  0  0
    2.3983   -0.1793   -0.7360 H   0  0  0  0  0  0  0  0  0  0  0  0
    2.1392    0.7252    0.7894 H   0  0  0  0  0  0  0  0  0  0  0  0
    0.5851   -1.0126    0.5002 H   0  0  0  0  0  0  0  0  0  0  0  0
   -1.6327   -2.0847    0.7361 H   0  0  0  0  0  0  0  0  0  0  0  0
   -7.5234    3.3111   -0.9312 C   0  0  0  0  0  0  0  0  0  0  0  0
   -8.4013    4.3903   -0.9999 C   0  0  0  0  0  0  0  0  0  0  0  0
   -9.0086    4.7553   -2.2109 C   0  0  0  0  0  0  0  0  0  0  0  0
   -8.7122    4.0060   -3.3570 C   0  0  0  0  0  0  0  0  0  0  0  0
   -7.8368    2.9219   -3.3037 C   0  0  0  0  0  0  0  0  0  0  0  0
   -7.2431    2.5830   -2.0885 C   0  0  0  0  0  0  0  0  0  0  0  0
   -7.0655    3.0202    0.0076 H   0  0  0  0  0  0  0  0  0  0  0  0
   -8.6227    4.9575   -0.0990 H   0  0  0  0  0  0  0  0  0  0  0  0
   -9.1759    4.2722   -4.3033 H   0  0  0  0  0  0  0  0  0  0  0  0
   -7.6189    2.3319   -4.1874 H   0  0  0  0  0  0  0  0  0  0  0  0
   -6.0938    1.2092   -2.0249 S   0  0  0  0  0  0  0  0  0  0  0  0
   -6.1337    0.6639   -0.6432 O   0  0  0  0  0  0  0  0  0  0  0  0
   -4.7258    1.8938   -2.2719 O   0  0  0  0  0  0  0  0  0  0  0  0
   -6.4465    0.2839   -3.1121 O   0  0  0  0  0  0  0  0  0  0  0  0
   -9.9825    5.9086   -2.2672 C   0  0  0  0  0  0  0  0  0  0  0  0
  -10.9731    5.6081   -1.9032 H   0  0  0  0  0  0  0  0  0  0  0  0
   -9.6504    6.7442   -1.6429 H   0  0  0  0  0  0  0  0  0  0  0  0
  -10.1082    6.2771   -3.2890 H   0  0  0  0  0  0  0  0  0  0  0  0
  1  2  1  0  0  0  0
  1 10  2  0  0  0  0
  2  3  1  0  0  0  0
  4  1  1  0  0  0  0
  5  4  2  0  0  0  0
  5  6  1  0  0  0  0
  6  9  2  0  0  0  0
  7  6  1  0  0  0  0
  7  8  1  0  0  0  0
  8 15  1  0  0  0  0
  9 10  1  0  0  0  0
  9 16  1  0  0  0  0
 10 17  1  0  0  0  0
 12  5  1  0  0  0  0
 13  8  1  0  0  0  0
 14  8  1  0  0  0  0
 18 24  1  0  0  0  0
 19 18  1  0  0  0  0
 19 25  1  0  0  0  0
 20 19  2  0  0  0  0
 21 22  2  0  0  0  0
 21 20  1  0  0  0  0
 22 23  1  0  0  0  0
 23 28  1  0  0  0  0
 23 18  2  0  0  0  0
 26 21  1  0  0  0  0
 27 22  1  0  0  0  0
 28 29  2  0  0  0  0
 30 28  1  0  0  0  0
 30 11  1  0  0  0  0
 31 28  2  0  0  0  0
 32 20  1  0  0  0  0
 32 33  1  0  0  0  0
 32 34  1  0  0  0  0
 35 32  1  0  0  0  0
M  RAD  3   2   2   3   3   4   2
M  END
