Coordinates from ORCA-job 4-MeOPhN2+~TsO-_B3LYPG-6-31G_dp-CH-Scan-d09-49-n800
 OpenBabel11261919313D

 35 35  0  0  0  0  0  0  0  0999 V2000
   -2.1723   -0.3310   -0.1185 C   0  0  0  0  0  0  0  0  0  0  0  0
   -3.4863   -0.6792    0.1067 N   0  0  0  0  0  0  0  0  0  0  0  0
   -4.5638   -0.9328    0.2813 N   0  0  0  0  0  0  0  0  0  0  0  0
   -1.9737    0.9569   -0.6716 C   0  0  0  0  0  0  0  0  0  0  0  0
   -0.6034    1.2064   -0.8567 C   0  0  0  0  0  0  0  0  0  0  0  0
    0.4140    0.2943   -0.5339 C   0  0  0  0  0  0  0  0  0  0  0  0
    1.6826    0.7005   -0.7792 O   0  0  0  0  0  0  0  0  0  0  0  0
    2.7713   -0.1674   -0.4842 C   0  0  0  0  0  0  0  0  0  0  0  0
    0.1112   -0.9813    0.0197 C   0  0  0  0  0  0  0  0  0  0  0  0
   -1.2065   -1.3101    0.2360 C   0  0  0  0  0  0  0  0  0  0  0  0
   -4.0648    2.7473   -1.4745 H   0  0  0  0  0  0  0  0  0  0  0  0
   -0.2676    2.1548   -1.2757 H   0  0  0  0  0  0  0  0  0  0  0  0
    3.6719    0.3795   -0.7659 H   0  0  0  0  0  0  0  0  0  0  0  0
    2.7170   -1.0951   -1.0658 H   0  0  0  0  0  0  0  0  0  0  0  0
    2.8163   -0.4093    0.5846 H   0  0  0  0  0  0  0  0  0  0  0  0
    0.8924   -1.6872    0.2711 H   0  0  0  0  0  0  0  0  0  0  0  0
   -1.4865   -2.2726    0.6568 H   0  0  0  0  0  0  0  0  0  0  0  0
   -8.1113    3.5514   -0.9456 C   0  0  0  0  0  0  0  0  0  0  0  0
   -9.2259    4.3658   -1.1210 C   0  0  0  0  0  0  0  0  0  0  0  0
   -9.7031    4.6770   -2.4044 C   0  0  0  0  0  0  0  0  0  0  0  0
   -9.0320    4.1484   -3.5147 C   0  0  0  0  0  0  0  0  0  0  0  0
   -7.9129    3.3310   -3.3597 C   0  0  0  0  0  0  0  0  0  0  0  0
   -7.4614    3.0444   -2.0728 C   0  0  0  0  0  0  0  0  0  0  0  0
   -7.7503    3.3005    0.0457 H   0  0  0  0  0  0  0  0  0  0  0  0
   -9.7373    4.7648   -0.2492 H   0  0  0  0  0  0  0  0  0  0  0  0
   -9.3905    4.3770   -4.5145 H   0  0  0  0  0  0  0  0  0  0  0  0
   -7.3984    2.9125   -4.2174 H   0  0  0  0  0  0  0  0  0  0  0  0
   -6.0358    1.9965   -1.8640 S   0  0  0  0  0  0  0  0  0  0  0  0
   -6.1213    1.3066   -0.5729 O   0  0  0  0  0  0  0  0  0  0  0  0
   -4.9055    3.1661   -1.7534 O   0  0  0  0  0  0  0  0  0  0  0  0
   -5.8220    1.2206   -3.0842 O   0  0  0  0  0  0  0  0  0  0  0  0
  -10.9269    5.5444   -2.5757 C   0  0  0  0  0  0  0  0  0  0  0  0
  -11.8352    5.0031   -2.2848 H   0  0  0  0  0  0  0  0  0  0  0  0
  -10.8719    6.4398   -1.9486 H   0  0  0  0  0  0  0  0  0  0  0  0
  -11.0497    5.8639   -3.6134 H   0  0  0  0  0  0  0  0  0  0  0  0
  1  2  1  0  0  0  0
  1 10  2  0  0  0  0
  2  3  1  0  0  0  0
  4  1  1  0  0  0  0
  5  4  2  0  0  0  0
  5  6  1  0  0  0  0
  6  9  2  0  0  0  0
  7  6  1  0  0  0  0
  7  8  1  0  0  0  0
  8 15  1  0  0  0  0
  9 10  1  0  0  0  0
  9 16  1  0  0  0  0
 10 17  1  0  0  0  0
 12  5  1  0  0  0  0
 13  8  1  0  0  0  0
 14  8  1  0  0  0  0
 18 24  1  0  0  0  0
 19 18  1  0  0  0  0
 19 25  1  0  0  0  0
 20 19  2  0  0  0  0
 21 22  2  0  0  0  0
 21 20  1  0  0  0  0
 22 23  1  0  0  0  0
 23 28  1  0  0  0  0
 23 18  2  0  0  0  0
 26 21  1  0  0  0  0
 27 22  1  0  0  0  0
 28 30  1  0  0  0  0
 28 29  2  0  0  0  0
 30 11  1  0  0  0  0
 31 28  2  0  0  0  0
 32 20  1  0  0  0  0
 32 33  1  0  0  0  0
 32 34  1  0  0  0  0
 35 32  1  0  0  0  0
M  RAD  3   2   2   3   3   4   2
M  END
