Coordinates from ORCA-job 4-MeOPhN2+~TsO-_B3LYPG-6-31G_dp-CH-Scan-d09-49-n800
 OpenBabel11261919313D

 35 35  0  0  0  0  0  0  0  0999 V2000
   -1.8879   -0.2299   -0.1392 C   0  0  0  0  0  0  0  0  0  0  0  0
   -3.2518   -0.3974   -0.0089 N   0  0  0  0  0  0  0  0  0  0  0  0
   -4.3649   -0.4914    0.0885 N   0  0  0  0  0  0  0  0  0  0  0  0
   -1.4978    1.0615   -0.5661 C   0  0  0  0  0  0  0  0  0  0  0  0
   -0.0943    1.1267   -0.6665 C   0  0  0  0  0  0  0  0  0  0  0  0
    0.7701    0.0579   -0.3857 C   0  0  0  0  0  0  0  0  0  0  0  0
    2.0959    0.2992   -0.5427 O   0  0  0  0  0  0  0  0  0  0  0  0
    3.0355   -0.7381   -0.2924 C   0  0  0  0  0  0  0  0  0  0  0  0
    0.2688   -1.2056    0.0402 C   0  0  0  0  0  0  0  0  0  0  0  0
   -1.0910   -1.3644    0.1704 C   0  0  0  0  0  0  0  0  0  0  0  0
   -4.1690    3.6783   -1.7381 H   0  0  0  0  0  0  0  0  0  0  0  0
    0.3924    2.0498   -0.9844 H   0  0  0  0  0  0  0  0  0  0  0  0
    4.0167   -0.3072   -0.4964 H   0  0  0  0  0  0  0  0  0  0  0  0
    2.8759   -1.5974   -0.9548 H   0  0  0  0  0  0  0  0  0  0  0  0
    3.0007   -1.0733    0.7515 H   0  0  0  0  0  0  0  0  0  0  0  0
    0.9332   -2.0314    0.2608 H   0  0  0  0  0  0  0  0  0  0  0  0
   -1.5220   -2.3091    0.4938 H   0  0  0  0  0  0  0  0  0  0  0  0
   -8.2320    3.7942   -1.0146 C   0  0  0  0  0  0  0  0  0  0  0  0
   -9.4751    4.4053   -1.1456 C   0  0  0  0  0  0  0  0  0  0  0  0
  -10.0737    4.5721   -2.4050 C   0  0  0  0  0  0  0  0  0  0  0  0
   -9.3923    4.1068   -3.5375 C   0  0  0  0  0  0  0  0  0  0  0  0
   -8.1460    3.4917   -3.4278 C   0  0  0  0  0  0  0  0  0  0  0  0
   -7.5768    3.3463   -2.1636 C   0  0  0  0  0  0  0  0  0  0  0  0
   -7.7749    3.6552   -0.0410 H   0  0  0  0  0  0  0  0  0  0  0  0
   -9.9920    4.7577   -0.2571 H   0  0  0  0  0  0  0  0  0  0  0  0
   -9.8433    4.2253   -4.5188 H   0  0  0  0  0  0  0  0  0  0  0  0
   -7.6221    3.1221   -4.3020 H   0  0  0  0  0  0  0  0  0  0  0  0
   -5.9859    2.5629   -2.0112 S   0  0  0  0  0  0  0  0  0  0  0  0
   -5.8496    1.9642   -0.6819 O   0  0  0  0  0  0  0  0  0  0  0  0
   -5.0589    3.9186   -2.0519 O   0  0  0  0  0  0  0  0  0  0  0  0
   -5.7197    1.7654   -3.2051 O   0  0  0  0  0  0  0  0  0  0  0  0
  -11.4323    5.2187   -2.5267 C   0  0  0  0  0  0  0  0  0  0  0  0
  -12.2219    4.5379   -2.1865 H   0  0  0  0  0  0  0  0  0  0  0  0
  -11.4988    6.1224   -1.9132 H   0  0  0  0  0  0  0  0  0  0  0  0
  -11.6548    5.4921   -3.5611 H   0  0  0  0  0  0  0  0  0  0  0  0
  1  2  1  0  0  0  0
  1 10  2  0  0  0  0
  2  3  1  0  0  0  0
  4  1  1  0  0  0  0
  5  4  2  0  0  0  0
  5  6  1  0  0  0  0
  6  9  2  0  0  0  0
  7  6  1  0  0  0  0
  7  8  1  0  0  0  0
  8 15  1  0  0  0  0
  9 10  1  0  0  0  0
  9 16  1  0  0  0  0
 10 17  1  0  0  0  0
 12  5  1  0  0  0  0
 13  8  1  0  0  0  0
 14  8  1  0  0  0  0
 18 24  1  0  0  0  0
 19 18  1  0  0  0  0
 19 25  1  0  0  0  0
 20 19  2  0  0  0  0
 21 22  2  0  0  0  0
 21 20  1  0  0  0  0
 22 23  1  0  0  0  0
 23 28  1  0  0  0  0
 23 18  2  0  0  0  0
 26 21  1  0  0  0  0
 27 22  1  0  0  0  0
 28 29  2  0  0  0  0
 30 28  1  0  0  0  0
 30 11  1  0  0  0  0
 31 28  2  0  0  0  0
 32 20  1  0  0  0  0
 32 33  1  0  0  0  0
 32 34  1  0  0  0  0
 35 32  1  0  0  0  0
M  RAD  3   2   2   3   3   4   2
M  END
