Coordinates from ORCA-job 4-MeOPhN2+~TsO-_B3LYPG-6-31G_dp-CH-Scan-d09-49-n800
 OpenBabel11261919313D

 35 35  0  0  0  0  0  0  0  0999 V2000
   -1.6521   -0.3219   -0.5799 C   0  0  0  0  0  0  0  0  0  0  0  0
   -3.0029   -0.5111   -0.7951 N   0  0  0  0  0  0  0  0  0  0  0  0
   -4.1024   -0.6202   -0.9888 N   0  0  0  0  0  0  0  0  0  0  0  0
   -1.1761    0.9453   -0.9901 C   0  0  0  0  0  0  0  0  0  0  0  0
    0.2061    1.0388   -0.7315 C   0  0  0  0  0  0  0  0  0  0  0  0
    0.9747    0.0171   -0.1543 C   0  0  0  0  0  0  0  0  0  0  0  0
    2.2942    0.2816    0.0206 O   0  0  0  0  0  0  0  0  0  0  0  0
    3.1408   -0.7046    0.5974 C   0  0  0  0  0  0  0  0  0  0  0  0
    0.3893   -1.2262    0.2224 C   0  0  0  0  0  0  0  0  0  0  0  0
   -0.9563   -1.4118    0.0087 C   0  0  0  0  0  0  0  0  0  0  0  0
   -4.4021    3.5554   -2.8184 H   0  0  0  0  0  0  0  0  0  0  0  0
    0.7524    1.9492   -0.9830 H   0  0  0  0  0  0  0  0  0  0  0  0
    4.1364   -0.2597    0.6314 H   0  0  0  0  0  0  0  0  0  0  0  0
    3.1749   -1.6161   -0.0116 H   0  0  0  0  0  0  0  0  0  0  0  0
    2.8276   -0.9615    1.6167 H   0  0  0  0  0  0  0  0  0  0  0  0
    0.9808   -2.0161    0.6672 H   0  0  0  0  0  0  0  0  0  0  0  0
   -1.4494   -2.3430    0.2787 H   0  0  0  0  0  0  0  0  0  0  0  0
   -8.0509    3.8125   -1.2635 C   0  0  0  0  0  0  0  0  0  0  0  0
   -9.2475    4.4901   -1.0482 C   0  0  0  0  0  0  0  0  0  0  0  0
  -10.1697    4.6843   -2.0885 C   0  0  0  0  0  0  0  0  0  0  0  0
   -9.8627    4.1784   -3.3591 C   0  0  0  0  0  0  0  0  0  0  0  0
   -8.6708    3.4955   -3.5954 C   0  0  0  0  0  0  0  0  0  0  0  0
   -7.7736    3.3240   -2.5417 C   0  0  0  0  0  0  0  0  0  0  0  0
   -7.3440    3.6525   -0.4565 H   0  0  0  0  0  0  0  0  0  0  0  0
   -9.4706    4.8743   -0.0564 H   0  0  0  0  0  0  0  0  0  0  0  0
  -10.5666    4.3188   -4.1752 H   0  0  0  0  0  0  0  0  0  0  0  0
   -8.4381    3.0940   -4.5753 H   0  0  0  0  0  0  0  0  0  0  0  0
   -6.2431    2.4619   -2.8326 S   0  0  0  0  0  0  0  0  0  0  0  0
   -5.7395    1.8976   -1.5783 O   0  0  0  0  0  0  0  0  0  0  0  0
   -5.2773    3.7419   -3.2009 O   0  0  0  0  0  0  0  0  0  0  0  0
   -6.3844    1.6302   -4.0220 O   0  0  0  0  0  0  0  0  0  0  0  0
  -11.4750    5.3978   -1.8329 C   0  0  0  0  0  0  0  0  0  0  0  0
  -12.2127    4.7167   -1.3904 H   0  0  0  0  0  0  0  0  0  0  0  0
  -11.3442    6.2312   -1.1360 H   0  0  0  0  0  0  0  0  0  0  0  0
  -11.9050    5.7903   -2.7580 H   0  0  0  0  0  0  0  0  0  0  0  0
  1 10  2  0  0  0  0
  2  1  1  0  0  0  0
  3  2  1  0  0  0  0
  4  5  2  0  0  0  0
  4  1  1  0  0  0  0
  5  6  1  0  0  0  0
  6  7  1  0  0  0  0
  6  9  2  0  0  0  0
  7  8  1  0  0  0  0
  8 13  1  0  0  0  0
  8 15  1  0  0  0  0
  9 16  1  0  0  0  0
 10  9  1  0  0  0  0
 10 17  1  0  0  0  0
 12  5  1  0  0  0  0
 14  8  1  0  0  0  0
 18 19  1  0  0  0  0
 18 24  1  0  0  0  0
 19 25  1  0  0  0  0
 20 32  1  0  0  0  0
 20 19  2  0  0  0  0
 21 20  1  0  0  0  0
 22 21  2  0  0  0  0
 22 23  1  0  0  0  0
 23 18  2  0  0  0  0
 26 21  1  0  0  0  0
 27 22  1  0  0  0  0
 28 23  1  0  0  0  0
 28 29  2  0  0  0  0
 30 28  1  0  0  0  0
 30 11  1  0  0  0  0
 31 28  2  0  0  0  0
 32 33  1  0  0  0  0
 32 34  1  0  0  0  0
 35 32  1  0  0  0  0
M  RAD  3   2   2   3   3   4   2
M  END
