Coordinates from ORCA-job 4-MeOPhN2+~TsO-_B3LYPG-6-31G_dp-CH-Scan-d09-49-n800
 OpenBabel11261919313D

 35 35  0  0  0  0  0  0  0  0999 V2000
   -2.3765   -0.4201   -0.1938 C   0  0  0  0  0  0  0  0  0  0  0  0
   -3.6460   -0.9042    0.0269 N   0  0  0  0  0  0  0  0  0  0  0  0
   -4.6912   -1.2699    0.1942 N   0  0  0  0  0  0  0  0  0  0  0  0
   -2.2975    0.8446   -0.8268 C   0  0  0  0  0  0  0  0  0  0  0  0
   -0.9638    1.2400   -1.0006 C   0  0  0  0  0  0  0  0  0  0  0  0
    0.1405    0.4710   -0.5967 C   0  0  0  0  0  0  0  0  0  0  0  0
    1.3590    1.0030   -0.8425 O   0  0  0  0  0  0  0  0  0  0  0  0
    2.5320    0.2843   -0.4737 C   0  0  0  0  0  0  0  0  0  0  0  0
   -0.0351   -0.7922    0.0319 C   0  0  0  0  0  0  0  0  0  0  0  0
   -1.3140   -1.2540    0.2412 C   0  0  0  0  0  0  0  0  0  0  0  0
   -4.0225    2.0675   -1.5247 H   0  0  0  0  0  0  0  0  0  0  0  0
   -0.7294    2.1921   -1.4739 H   0  0  0  0  0  0  0  0  0  0  0  0
    3.3711    0.9132   -0.7730 H   0  0  0  0  0  0  0  0  0  0  0  0
    2.5957   -0.6761   -0.9980 H   0  0  0  0  0  0  0  0  0  0  0  0
    2.5760    0.1142    0.6087 H   0  0  0  0  0  0  0  0  0  0  0  0
    0.8115   -1.3894    0.3443 H   0  0  0  0  0  0  0  0  0  0  0  0
   -1.4954   -2.2141    0.7167 H   0  0  0  0  0  0  0  0  0  0  0  0
   -7.9281    3.4060   -0.9194 C   0  0  0  0  0  0  0  0  0  0  0  0
   -8.9299    4.3614   -1.0652 C   0  0  0  0  0  0  0  0  0  0  0  0
   -9.3938    4.7386   -2.3350 C   0  0  0  0  0  0  0  0  0  0  0  0
   -8.8257    4.1309   -3.4625 C   0  0  0  0  0  0  0  0  0  0  0  0
   -7.8215    3.1719   -3.3363 C   0  0  0  0  0  0  0  0  0  0  0  0
   -7.3784    2.8220   -2.0619 C   0  0  0  0  0  0  0  0  0  0  0  0
   -7.5780    3.1054    0.0619 H   0  0  0  0  0  0  0  0  0  0  0  0
   -9.3616    4.8209   -0.1801 H   0  0  0  0  0  0  0  0  0  0  0  0
   -9.1750    4.4099   -4.4529 H   0  0  0  0  0  0  0  0  0  0  0  0
   -7.3889    2.6925   -4.2072 H   0  0  0  0  0  0  0  0  0  0  0  0
   -6.0914    1.5994   -1.8901 S   0  0  0  0  0  0  0  0  0  0  0  0
   -6.2299    0.9353   -0.5858 O   0  0  0  0  0  0  0  0  0  0  0  0
   -4.8176    2.5855   -1.8409 O   0  0  0  0  0  0  0  0  0  0  0  0
   -6.0478    0.7789   -3.1014 O   0  0  0  0  0  0  0  0  0  0  0  0
  -10.4997    5.7567   -2.4759 C   0  0  0  0  0  0  0  0  0  0  0  0
  -11.4777    5.3058   -2.2669 H   0  0  0  0  0  0  0  0  0  0  0  0
  -10.3709    6.5864   -1.7736 H   0  0  0  0  0  0  0  0  0  0  0  0
  -10.5380    6.1697   -3.4873 H   0  0  0  0  0  0  0  0  0  0  0  0
  1  2  1  0  0  0  0
  1 10  2  0  0  0  0
  2  3  1  0  0  0  0
  4  1  1  0  0  0  0
  5  4  2  0  0  0  0
  5  6  1  0  0  0  0
  6  9  2  0  0  0  0
  7  6  1  0  0  0  0
  7  8  1  0  0  0  0
  8 15  1  0  0  0  0
  9 10  1  0  0  0  0
  9 16  1  0  0  0  0
 10 17  1  0  0  0  0
 12  5  1  0  0  0  0
 13  8  1  0  0  0  0
 14  8  1  0  0  0  0
 18 24  1  0  0  0  0
 19 18  1  0  0  0  0
 19 25  1  0  0  0  0
 20 19  2  0  0  0  0
 21 22  2  0  0  0  0
 21 20  1  0  0  0  0
 22 23  1  0  0  0  0
 23 28  1  0  0  0  0
 23 18  2  0  0  0  0
 26 21  1  0  0  0  0
 27 22  1  0  0  0  0
 28 30  1  0  0  0  0
 28 29  2  0  0  0  0
 30 11  1  0  0  0  0
 31 28  2  0  0  0  0
 32 20  1  0  0  0  0
 32 33  1  0  0  0  0
 32 34  1  0  0  0  0
 35 32  1  0  0  0  0
M  RAD  3   2   2   3   3   4   2
M  END
