Coordinates from ORCA-job 4-MeOPhN2+~TsO-_B3LYPG-6-31G_dp-CH-Scan-d09-49-n800
 OpenBabel11261919313D

 35 35  0  0  0  0  0  0  0  0999 V2000
   -1.5893   -0.3020   -0.5821 C   0  0  0  0  0  0  0  0  0  0  0  0
   -2.9416   -0.4616   -0.8121 N   0  0  0  0  0  0  0  0  0  0  0  0
   -4.0412   -0.5452   -1.0180 N   0  0  0  0  0  0  0  0  0  0  0  0
   -1.0847    0.9580   -0.9798 C   0  0  0  0  0  0  0  0  0  0  0  0
    0.2966    1.0224   -0.7082 C   0  0  0  0  0  0  0  0  0  0  0  0
    1.0392   -0.0180   -0.1302 C   0  0  0  0  0  0  0  0  0  0  0  0
    2.3621    0.2188    0.0583 O   0  0  0  0  0  0  0  0  0  0  0  0
    3.1833   -0.7872    0.6375 C   0  0  0  0  0  0  0  0  0  0  0  0
    0.4255   -1.2515    0.2336 C   0  0  0  0  0  0  0  0  0  0  0  0
   -0.9214   -1.4092    0.0064 C   0  0  0  0  0  0  0  0  0  0  0  0
   -4.4538    3.6476   -2.8763 H   0  0  0  0  0  0  0  0  0  0  0  0
    0.8634    1.9232   -0.9489 H   0  0  0  0  0  0  0  0  0  0  0  0
    4.1871   -0.3626    0.6834 H   0  0  0  0  0  0  0  0  0  0  0  0
    3.2050   -1.6960    0.0236 H   0  0  0  0  0  0  0  0  0  0  0  0
    2.8553   -1.0435    1.6522 H   0  0  0  0  0  0  0  0  0  0  0  0
    0.9971   -2.0556    0.6794 H   0  0  0  0  0  0  0  0  0  0  0  0
   -1.4356   -2.3317    0.2662 H   0  0  0  0  0  0  0  0  0  0  0  0
   -8.0713    3.8697   -1.2888 C   0  0  0  0  0  0  0  0  0  0  0  0
   -9.2756    4.5303   -1.0644 C   0  0  0  0  0  0  0  0  0  0  0  0
  -10.2229    4.6821   -2.0893 C   0  0  0  0  0  0  0  0  0  0  0  0
   -9.9329    4.1510   -3.3536 C   0  0  0  0  0  0  0  0  0  0  0  0
   -8.7333    3.4848   -3.5988 C   0  0  0  0  0  0  0  0  0  0  0  0
   -7.8113    3.3555   -2.5607 C   0  0  0  0  0  0  0  0  0  0  0  0
   -7.3452    3.7424   -0.4931 H   0  0  0  0  0  0  0  0  0  0  0  0
   -9.4853    4.9344   -0.0776 H   0  0  0  0  0  0  0  0  0  0  0  0
  -10.6562    4.2582   -4.1577 H   0  0  0  0  0  0  0  0  0  0  0  0
   -8.5132    3.0643   -4.5736 H   0  0  0  0  0  0  0  0  0  0  0  0
   -6.2707    2.5159   -2.8637 S   0  0  0  0  0  0  0  0  0  0  0  0
   -5.7362    1.9802   -1.6096 O   0  0  0  0  0  0  0  0  0  0  0  0
   -5.3310    3.8055   -3.2668 O   0  0  0  0  0  0  0  0  0  0  0  0
   -6.4167    1.6649   -4.0386 O   0  0  0  0  0  0  0  0  0  0  0  0
  -11.5357    5.3778   -1.8232 C   0  0  0  0  0  0  0  0  0  0  0  0
  -12.2513    4.6942   -1.3493 H   0  0  0  0  0  0  0  0  0  0  0  0
  -11.4061    6.2298   -1.1489 H   0  0  0  0  0  0  0  0  0  0  0  0
  -11.9917    5.7405   -2.7480 H   0  0  0  0  0  0  0  0  0  0  0  0
  1 10  2  0  0  0  0
  2  1  1  0  0  0  0
  3  2  1  0  0  0  0
  4  5  2  0  0  0  0
  4  1  1  0  0  0  0
  5  6  1  0  0  0  0
  6  7  1  0  0  0  0
  6  9  2  0  0  0  0
  7  8  1  0  0  0  0
  8 13  1  0  0  0  0
  8 15  1  0  0  0  0
  9 16  1  0  0  0  0
 10  9  1  0  0  0  0
 10 17  1  0  0  0  0
 12  5  1  0  0  0  0
 14  8  1  0  0  0  0
 18 19  1  0  0  0  0
 18 24  1  0  0  0  0
 19 25  1  0  0  0  0
 20 32  1  0  0  0  0
 20 19  2  0  0  0  0
 21 20  1  0  0  0  0
 22 21  2  0  0  0  0
 22 23  1  0  0  0  0
 23 18  2  0  0  0  0
 26 21  1  0  0  0  0
 27 22  1  0  0  0  0
 28 23  1  0  0  0  0
 28 29  2  0  0  0  0
 30 11  1  0  0  0  0
 30 28  1  0  0  0  0
 31 28  2  0  0  0  0
 32 33  1  0  0  0  0
 32 34  1  0  0  0  0
 35 32  1  0  0  0  0
M  RAD  3   2   2   3   3   4   2
M  END
