Coordinates from ORCA-job 4-MeOPhN2+~TsO-_B3LYPG-6-31G_dp-CH-Scan-d09-49-n800
 OpenBabel11261919303D

 35 35  0  0  0  0  0  0  0  0999 V2000
   -2.7337   -0.1366   -0.4067 C   0  0  0  0  0  0  0  0  0  0  0  0
   -4.0855   -0.4371   -0.4440 N   0  0  0  0  0  0  0  0  0  0  0  0
   -5.1959   -0.1789   -0.4731 N   0  0  0  0  0  0  0  0  0  0  0  0
   -2.2947    1.2041   -0.3619 C   0  0  0  0  0  0  0  0  0  0  0  0
   -0.9359    1.4405   -0.3325 C   0  0  0  0  0  0  0  0  0  0  0  0
   -0.0147    0.3720   -0.3462 C   0  0  0  0  0  0  0  0  0  0  0  0
    1.2824    0.7275   -0.3144 O   0  0  0  0  0  0  0  0  0  0  0  0
    2.2867   -0.2853   -0.3421 C   0  0  0  0  0  0  0  0  0  0  0  0
   -0.4706   -0.9602   -0.3911 C   0  0  0  0  0  0  0  0  0  0  0  0
   -1.8334   -1.2110   -0.4218 C   0  0  0  0  0  0  0  0  0  0  0  0
   -3.0459    2.0554   -0.3662 H   0  0  0  0  0  0  0  0  0  0  0  0
   -0.5519    2.4541   -0.3068 H   0  0  0  0  0  0  0  0  0  0  0  0
    3.2390    0.2434   -0.3119 H   0  0  0  0  0  0  0  0  0  0  0  0
    2.2280   -0.8775   -1.2625 H   0  0  0  0  0  0  0  0  0  0  0  0
    2.2092   -0.9462    0.5291 H   0  0  0  0  0  0  0  0  0  0  0  0
    0.2234   -1.7904   -0.4048 H   0  0  0  0  0  0  0  0  0  0  0  0
   -2.2098   -2.2276   -0.4605 H   0  0  0  0  0  0  0  0  0  0  0  0
   -7.1572    4.5625   -1.6104 C   0  0  0  0  0  0  0  0  0  0  0  0
   -8.4199    5.1194   -1.8052 C   0  0  0  0  0  0  0  0  0  0  0  0
   -9.4478    4.3896   -2.4194 C   0  0  0  0  0  0  0  0  0  0  0  0
   -9.1725    3.0833   -2.8469 C   0  0  0  0  0  0  0  0  0  0  0  0
   -7.9145    2.5132   -2.6585 C   0  0  0  0  0  0  0  0  0  0  0  0
   -6.9118    3.2562   -2.0350 C   0  0  0  0  0  0  0  0  0  0  0  0
   -6.3568    5.1341   -1.1532 H   0  0  0  0  0  0  0  0  0  0  0  0
   -8.6093    6.1401   -1.4821 H   0  0  0  0  0  0  0  0  0  0  0  0
   -9.9520    2.5071   -3.3397 H   0  0  0  0  0  0  0  0  0  0  0  0
   -7.6966    1.5097   -3.0074 H   0  0  0  0  0  0  0  0  0  0  0  0
   -5.2995    2.5179   -1.7560 S   0  0  0  0  0  0  0  0  0  0  0  0
   -5.3940    1.8801   -0.3533 O   0  0  0  0  0  0  0  0  0  0  0  0
   -4.3181    3.6237   -1.7218 O   0  0  0  0  0  0  0  0  0  0  0  0
   -5.1057    1.4738   -2.7857 O   0  0  0  0  0  0  0  0  0  0  0  0
  -10.8217    4.9903   -2.6006 C   0  0  0  0  0  0  0  0  0  0  0  0
  -11.4539    4.8043   -1.7223 H   0  0  0  0  0  0  0  0  0  0  0  0
  -10.7700    6.0747   -2.7390 H   0  0  0  0  0  0  0  0  0  0  0  0
  -11.3350    4.5612   -3.4663 H   0  0  0  0  0  0  0  0  0  0  0  0
  1  4  1  0  0  0  0
  2  1  1  0  0  0  0
  3  2  2  0  0  0  0
  4  5  2  0  0  0  0
  5 12  1  0  0  0  0
  6  5  1  0  0  0  0
  6  7  1  0  0  0  0
  8  7  1  0  0  0  0
  8 13  1  0  0  0  0
  8 15  1  0  0  0  0
  9  6  2  0  0  0  0
 10  1  2  0  0  0  0
 10  9  1  0  0  0  0
 11  4  1  0  0  0  0
 14  8  1  0  0  0  0
 16  9  1  0  0  0  0
 17 10  1  0  0  0  0
 18 24  1  0  0  0  0
 19 18  1  0  0  0  0
 19 25  1  0  0  0  0
 20 19  2  0  0  0  0
 21 22  2  0  0  0  0
 21 20  1  0  0  0  0
 22 23  1  0  0  0  0
 23 28  1  0  0  0  0
 23 18  2  0  0  0  0
 26 21  1  0  0  0  0
 27 22  1  0  0  0  0
 28 30  2  0  0  0  0
 28 29  1  0  0  0  0
 31 28  2  0  0  0  0
 32 20  1  0  0  0  0
 32 33  1  0  0  0  0
 34 32  1  0  0  0  0
 35 32  1  0  0  0  0
M  RAD  2   3   2  29   2
M  END
