Coordinates from ORCA-job 4-MeOPhN2+~TsO-_B3LYPG-6-31G_dp-CH-Scan-d09-49-n800
 OpenBabel11261919303D

 35 35  0  0  0  0  0  0  0  0999 V2000
   -2.7924   -0.0802   -0.3625 C   0  0  0  0  0  0  0  0  0  0  0  0
   -4.1532   -0.3507   -0.3647 N   0  0  0  0  0  0  0  0  0  0  0  0
   -5.2462   -0.0126   -0.3694 N   0  0  0  0  0  0  0  0  0  0  0  0
   -2.3236    1.2515   -0.3159 C   0  0  0  0  0  0  0  0  0  0  0  0
   -0.9576    1.4509   -0.3200 C   0  0  0  0  0  0  0  0  0  0  0  0
   -0.0616    0.3631   -0.3715 C   0  0  0  0  0  0  0  0  0  0  0  0
    1.2441    0.6892   -0.3713 O   0  0  0  0  0  0  0  0  0  0  0  0
    2.2227   -0.3463   -0.4375 C   0  0  0  0  0  0  0  0  0  0  0  0
   -0.5500   -0.9566   -0.4178 C   0  0  0  0  0  0  0  0  0  0  0  0
   -1.9196   -1.1739   -0.4125 C   0  0  0  0  0  0  0  0  0  0  0  0
   -2.9195    1.9650   -0.2859 H   0  0  0  0  0  0  0  0  0  0  0  0
   -0.5506    2.4558   -0.2924 H   0  0  0  0  0  0  0  0  0  0  0  0
    3.1879    0.1593   -0.4285 H   0  0  0  0  0  0  0  0  0  0  0  0
    2.1243   -0.9271   -1.3618 H   0  0  0  0  0  0  0  0  0  0  0  0
    2.1537   -1.0150    0.4286 H   0  0  0  0  0  0  0  0  0  0  0  0
    0.1233   -1.8028   -0.4592 H   0  0  0  0  0  0  0  0  0  0  0  0
   -2.3217   -2.1804   -0.4510 H   0  0  0  0  0  0  0  0  0  0  0  0
   -7.1659    4.5969   -1.5660 C   0  0  0  0  0  0  0  0  0  0  0  0
   -8.4484    5.0946   -1.7882 C   0  0  0  0  0  0  0  0  0  0  0  0
   -9.4225    4.3246   -2.4401 C   0  0  0  0  0  0  0  0  0  0  0  0
   -9.0726    3.0394   -2.8767 C   0  0  0  0  0  0  0  0  0  0  0  0
   -7.7936    2.5277   -2.6608 C   0  0  0  0  0  0  0  0  0  0  0  0
   -6.8459    3.3095   -2.0001 C   0  0  0  0  0  0  0  0  0  0  0  0
   -6.4071    5.2006   -1.0802 H   0  0  0  0  0  0  0  0  0  0  0  0
   -8.6958    6.1001   -1.4574 H   0  0  0  0  0  0  0  0  0  0  0  0
   -9.8097    2.4333   -3.3980 H   0  0  0  0  0  0  0  0  0  0  0  0
   -7.5179    1.5410   -3.0159 H   0  0  0  0  0  0  0  0  0  0  0  0
   -5.2069    2.6493   -1.6848 S   0  0  0  0  0  0  0  0  0  0  0  0
   -5.3002    2.0207   -0.2718 O   0  0  0  0  0  0  0  0  0  0  0  0
   -4.2781    3.7954   -1.6431 O   0  0  0  0  0  0  0  0  0  0  0  0
   -4.9506    1.5982   -2.6928 O   0  0  0  0  0  0  0  0  0  0  0  0
  -10.8184    4.8616   -2.6506 C   0  0  0  0  0  0  0  0  0  0  0  0
  -11.4575    4.6538   -1.7824 H   0  0  0  0  0  0  0  0  0  0  0  0
  -10.8125    5.9465   -2.7959 H   0  0  0  0  0  0  0  0  0  0  0  0
  -11.2962    4.4048   -3.5222 H   0  0  0  0  0  0  0  0  0  0  0  0
  1  4  2  0  0  0  0
  2  1  1  0  0  0  0
  3  2  2  0  0  0  0
  4 11  1  0  0  0  0
  5  4  1  0  0  0  0
  5 12  1  0  0  0  0
  6  7  1  0  0  0  0
  6  5  2  0  0  0  0
  8 13  1  0  0  0  0
  8  7  1  0  0  0  0
  8 15  1  0  0  0  0
  9 10  2  0  0  0  0
  9  6  1  0  0  0  0
 10  1  1  0  0  0  0
 14  8  1  0  0  0  0
 16  9  1  0  0  0  0
 17 10  1  0  0  0  0
 18 24  1  0  0  0  0
 19 18  1  0  0  0  0
 19 25  1  0  0  0  0
 20 19  2  0  0  0  0
 21 22  2  0  0  0  0
 21 20  1  0  0  0  0
 22 23  1  0  0  0  0
 23 28  1  0  0  0  0
 23 18  2  0  0  0  0
 26 21  1  0  0  0  0
 27 22  1  0  0  0  0
 28 30  2  0  0  0  0
 28 29  1  0  0  0  0
 31 28  2  0  0  0  0
 32 20  1  0  0  0  0
 32 33  1  0  0  0  0
 34 32  1  0  0  0  0
 35 32  1  0  0  0  0
M  RAD  2   3   2  29   2
M  END
