Coordinates from ORCA-job 4-MeOPhN2+~TsO-_B3LYPG-6-31G_dp-CH-Scan-d09-49-n800
 OpenBabel11261919313D

 35 35  0  0  0  0  0  0  0  0999 V2000
   -2.0898   -0.2894   -0.1049 C   0  0  0  0  0  0  0  0  0  0  0  0
   -3.4212   -0.5764    0.1102 N   0  0  0  0  0  0  0  0  0  0  0  0
   -4.5113   -0.7790    0.2738 N   0  0  0  0  0  0  0  0  0  0  0  0
   -1.8323    1.0032   -0.6209 C   0  0  0  0  0  0  0  0  0  0  0  0
   -0.4493    1.1892   -0.7966 C   0  0  0  0  0  0  0  0  0  0  0  0
    0.5217    0.2197   -0.5005 C   0  0  0  0  0  0  0  0  0  0  0  0
    1.8101    0.5699   -0.7332 O   0  0  0  0  0  0  0  0  0  0  0  0
    2.8526   -0.3616   -0.4693 C   0  0  0  0  0  0  0  0  0  0  0  0
    0.1567   -1.0559    0.0157 C   0  0  0  0  0  0  0  0  0  0  0  0
   -1.1757   -1.3261    0.2222 C   0  0  0  0  0  0  0  0  0  0  0  0
   -4.0761    3.0677   -1.5164 H   0  0  0  0  0  0  0  0  0  0  0  0
   -0.0654    2.1315   -1.1880 H   0  0  0  0  0  0  0  0  0  0  0  0
    3.7801    0.1460   -0.7372 H   0  0  0  0  0  0  0  0  0  0  0  0
    2.7491   -1.2670   -1.0789 H   0  0  0  0  0  0  0  0  0  0  0  0
    2.8876   -0.6391    0.5912 H   0  0  0  0  0  0  0  0  0  0  0  0
    0.9024   -1.8059    0.2465 H   0  0  0  0  0  0  0  0  0  0  0  0
   -1.5035   -2.2854    0.6154 H   0  0  0  0  0  0  0  0  0  0  0  0
   -8.1710    3.6170   -0.9527 C   0  0  0  0  0  0  0  0  0  0  0  0
   -9.3323    4.3615   -1.1357 C   0  0  0  0  0  0  0  0  0  0  0  0
   -9.8229    4.6373   -2.4223 C   0  0  0  0  0  0  0  0  0  0  0  0
   -9.1171    4.1453   -3.5280 C   0  0  0  0  0  0  0  0  0  0  0  0
   -7.9517    3.3973   -3.3657 C   0  0  0  0  0  0  0  0  0  0  0  0
   -7.4885    3.1447   -2.0756 C   0  0  0  0  0  0  0  0  0  0  0  0
   -7.7983    3.3933    0.0408 H   0  0  0  0  0  0  0  0  0  0  0  0
   -9.8700    4.7328   -0.2676 H   0  0  0  0  0  0  0  0  0  0  0  0
   -9.4853    4.3473   -4.5300 H   0  0  0  0  0  0  0  0  0  0  0  0
   -7.4106    3.0064   -4.2199 H   0  0  0  0  0  0  0  0  0  0  0  0
   -6.0033    2.1863   -1.8574 S   0  0  0  0  0  0  0  0  0  0  0  0
   -6.0307    1.5286   -0.5483 O   0  0  0  0  0  0  0  0  0  0  0  0
   -4.9409    3.4283   -1.7913 O   0  0  0  0  0  0  0  0  0  0  0  0
   -5.7525    1.3969   -3.0612 O   0  0  0  0  0  0  0  0  0  0  0  0
  -11.0965    5.4278   -2.6020 C   0  0  0  0  0  0  0  0  0  0  0  0
  -11.9708    4.8342   -2.3091 H   0  0  0  0  0  0  0  0  0  0  0  0
  -11.0971    6.3293   -1.9813 H   0  0  0  0  0  0  0  0  0  0  0  0
  -11.2359    5.7319   -3.6423 H   0  0  0  0  0  0  0  0  0  0  0  0
  1  2  1  0  0  0  0
  1 10  2  0  0  0  0
  2  3  1  0  0  0  0
  4  1  1  0  0  0  0
  5  4  2  0  0  0  0
  5  6  1  0  0  0  0
  6  9  2  0  0  0  0
  7  6  1  0  0  0  0
  7  8  1  0  0  0  0
  8 15  1  0  0  0  0
  9 10  1  0  0  0  0
  9 16  1  0  0  0  0
 10 17  1  0  0  0  0
 12  5  1  0  0  0  0
 13  8  1  0  0  0  0
 14  8  1  0  0  0  0
 18 24  1  0  0  0  0
 19 18  1  0  0  0  0
 19 25  1  0  0  0  0
 20 19  2  0  0  0  0
 21 22  2  0  0  0  0
 21 20  1  0  0  0  0
 22 23  1  0  0  0  0
 23 28  1  0  0  0  0
 23 18  2  0  0  0  0
 26 21  1  0  0  0  0
 27 22  1  0  0  0  0
 28 30  1  0  0  0  0
 28 29  2  0  0  0  0
 30 11  1  0  0  0  0
 31 28  2  0  0  0  0
 32 20  1  0  0  0  0
 32 33  1  0  0  0  0
 32 34  1  0  0  0  0
 35 32  1  0  0  0  0
M  RAD  3   2   2   3   3   4   2
M  END
