Coordinates from ORCA-job 4-MeOPhN2+~TsO-_B3LYPG-6-31G_dp-CH-Scan-d09-49-n800
 OpenBabel11261919313D

 35 35  0  0  0  0  0  0  0  0999 V2000
   -2.2013   -0.3455   -0.1303 C   0  0  0  0  0  0  0  0  0  0  0  0
   -3.5094   -0.7152    0.0939 N   0  0  0  0  0  0  0  0  0  0  0  0
   -4.5824   -0.9889    0.2647 N   0  0  0  0  0  0  0  0  0  0  0  0
   -2.0215    0.9392   -0.6974 C   0  0  0  0  0  0  0  0  0  0  0  0
   -0.6557    1.2112   -0.8807 C   0  0  0  0  0  0  0  0  0  0  0  0
    0.3763    0.3206   -0.5437 C   0  0  0  0  0  0  0  0  0  0  0  0
    1.6381    0.7462   -0.7893 O   0  0  0  0  0  0  0  0  0  0  0  0
    2.7412   -0.0983   -0.4794 C   0  0  0  0  0  0  0  0  0  0  0  0
    0.0934   -0.9535    0.0234 C   0  0  0  0  0  0  0  0  0  0  0  0
   -1.2193   -1.3028    0.2386 C   0  0  0  0  0  0  0  0  0  0  0  0
   -4.0607    2.6375   -1.4820 H   0  0  0  0  0  0  0  0  0  0  0  0
   -0.3356    2.1605   -1.3090 H   0  0  0  0  0  0  0  0  0  0  0  0
    3.6328    0.4618   -0.7637 H   0  0  0  0  0  0  0  0  0  0  0  0
    2.7062   -1.0334   -1.0504 H   0  0  0  0  0  0  0  0  0  0  0  0
    2.7855   -0.3269    0.5924 H   0  0  0  0  0  0  0  0  0  0  0  0
    0.8857   -1.6428    0.2856 H   0  0  0  0  0  0  0  0  0  0  0  0
   -1.4838   -2.2652    0.6692 H   0  0  0  0  0  0  0  0  0  0  0  0
   -8.0855    3.5305   -0.9428 C   0  0  0  0  0  0  0  0  0  0  0  0
   -9.1827    4.3691   -1.1130 C   0  0  0  0  0  0  0  0  0  0  0  0
   -9.6596    4.6899   -2.3942 C   0  0  0  0  0  0  0  0  0  0  0  0
   -9.0061    4.1458   -3.5075 C   0  0  0  0  0  0  0  0  0  0  0  0
   -7.9045    3.3040   -3.3576 C   0  0  0  0  0  0  0  0  0  0  0  0
   -7.4526    3.0086   -2.0728 C   0  0  0  0  0  0  0  0  0  0  0  0
   -7.7248    3.2725    0.0468 H   0  0  0  0  0  0  0  0  0  0  0  0
   -9.6805    4.7801   -0.2389 H   0  0  0  0  0  0  0  0  0  0  0  0
   -9.3646    4.3816   -4.5056 H   0  0  0  0  0  0  0  0  0  0  0  0
   -7.4037    2.8738   -4.2175 H   0  0  0  0  0  0  0  0  0  0  0  0
   -6.0479    1.9310   -1.8705 S   0  0  0  0  0  0  0  0  0  0  0  0
   -6.1442    1.2411   -0.5796 O   0  0  0  0  0  0  0  0  0  0  0  0
   -4.8936    3.0741   -1.7631 O   0  0  0  0  0  0  0  0  0  0  0  0
   -5.8572    1.1504   -3.0917 O   0  0  0  0  0  0  0  0  0  0  0  0
  -10.8650    5.5839   -2.5598 C   0  0  0  0  0  0  0  0  0  0  0  0
  -11.7851    5.0584   -2.2771 H   0  0  0  0  0  0  0  0  0  0  0  0
  -10.7934    6.4715   -1.9232 H   0  0  0  0  0  0  0  0  0  0  0  0
  -10.9782    5.9165   -3.5945 H   0  0  0  0  0  0  0  0  0  0  0  0
  1  2  1  0  0  0  0
  1 10  2  0  0  0  0
  2  3  1  0  0  0  0
  4  1  1  0  0  0  0
  5  4  2  0  0  0  0
  5  6  1  0  0  0  0
  6  9  2  0  0  0  0
  7  6  1  0  0  0  0
  7  8  1  0  0  0  0
  8 15  1  0  0  0  0
  9 10  1  0  0  0  0
  9 16  1  0  0  0  0
 10 17  1  0  0  0  0
 12  5  1  0  0  0  0
 13  8  1  0  0  0  0
 14  8  1  0  0  0  0
 18 24  1  0  0  0  0
 19 18  1  0  0  0  0
 19 25  1  0  0  0  0
 20 19  2  0  0  0  0
 21 22  2  0  0  0  0
 21 20  1  0  0  0  0
 22 23  1  0  0  0  0
 23 28  1  0  0  0  0
 23 18  2  0  0  0  0
 26 21  1  0  0  0  0
 27 22  1  0  0  0  0
 28 30  1  0  0  0  0
 28 29  2  0  0  0  0
 30 11  1  0  0  0  0
 31 28  2  0  0  0  0
 32 20  1  0  0  0  0
 32 33  1  0  0  0  0
 32 34  1  0  0  0  0
 35 32  1  0  0  0  0
M  RAD  3   2   2   3   3   4   2
M  END
