Coordinates from ORCA-job 4-MeOPhN2+~TsO-_B3LYPG-6-31G_dp-CH-Scan-d09-49-n800
 OpenBabel11261919313D

 35 35  0  0  0  0  0  0  0  0999 V2000
   -2.1750   -0.3322   -0.1187 C   0  0  0  0  0  0  0  0  0  0  0  0
   -3.4884   -0.6822    0.1071 N   0  0  0  0  0  0  0  0  0  0  0  0
   -4.5656   -0.9394    0.2784 N   0  0  0  0  0  0  0  0  0  0  0  0
   -1.9784    0.9551   -0.6739 C   0  0  0  0  0  0  0  0  0  0  0  0
   -0.6086    1.2067   -0.8594 C   0  0  0  0  0  0  0  0  0  0  0  0
    0.4103    0.2968   -0.5351 C   0  0  0  0  0  0  0  0  0  0  0  0
    1.6782    0.7047   -0.7811 O   0  0  0  0  0  0  0  0  0  0  0  0
    2.7684   -0.1608   -0.4845 C   0  0  0  0  0  0  0  0  0  0  0  0
    0.1097   -0.9784    0.0206 C   0  0  0  0  0  0  0  0  0  0  0  0
   -1.2076   -1.3090    0.2374 C   0  0  0  0  0  0  0  0  0  0  0  0
   -4.0646    2.7362   -1.4741 H   0  0  0  0  0  0  0  0  0  0  0  0
   -0.2745    2.1550   -1.2798 H   0  0  0  0  0  0  0  0  0  0  0  0
    3.6681    0.3872   -0.7671 H   0  0  0  0  0  0  0  0  0  0  0  0
    2.7158   -1.0895   -1.0645 H   0  0  0  0  0  0  0  0  0  0  0  0
    2.8136   -0.4009    0.5847 H   0  0  0  0  0  0  0  0  0  0  0  0
    0.8920   -1.6825    0.2731 H   0  0  0  0  0  0  0  0  0  0  0  0
   -1.4859   -2.2713    0.6598 H   0  0  0  0  0  0  0  0  0  0  0  0
   -8.1093    3.5489   -0.9453 C   0  0  0  0  0  0  0  0  0  0  0  0
   -9.2221    4.3657   -1.1203 C   0  0  0  0  0  0  0  0  0  0  0  0
   -9.6988    4.6784   -2.4035 C   0  0  0  0  0  0  0  0  0  0  0  0
   -9.0291    4.1487   -3.5141 C   0  0  0  0  0  0  0  0  0  0  0  0
   -7.9117    3.3288   -3.3596 C   0  0  0  0  0  0  0  0  0  0  0  0
   -7.4606    3.0409   -2.0728 C   0  0  0  0  0  0  0  0  0  0  0  0
   -7.7486    3.2969    0.0458 H   0  0  0  0  0  0  0  0  0  0  0  0
   -9.7325    4.7656   -0.2483 H   0  0  0  0  0  0  0  0  0  0  0  0
   -9.3873    4.3784   -4.5138 H   0  0  0  0  0  0  0  0  0  0  0  0
   -7.3983    2.9095   -4.2175 H   0  0  0  0  0  0  0  0  0  0  0  0
   -6.0371    1.9900   -1.8647 S   0  0  0  0  0  0  0  0  0  0  0  0
   -6.1242    1.2992   -0.5741 O   0  0  0  0  0  0  0  0  0  0  0  0
   -4.9046    3.1570   -1.7531 O   0  0  0  0  0  0  0  0  0  0  0  0
   -5.8249    1.2143   -3.0854 O   0  0  0  0  0  0  0  0  0  0  0  0
  -10.9209    5.5484   -2.5743 C   0  0  0  0  0  0  0  0  0  0  0  0
  -11.8304    5.0086   -2.2846 H   0  0  0  0  0  0  0  0  0  0  0  0
  -10.8644    6.4430   -1.9459 H   0  0  0  0  0  0  0  0  0  0  0  0
  -11.0425    5.8696   -3.6116 H   0  0  0  0  0  0  0  0  0  0  0  0
  1  2  1  0  0  0  0
  1 10  2  0  0  0  0
  2  3  1  0  0  0  0
  4  1  1  0  0  0  0
  5  4  2  0  0  0  0
  5  6  1  0  0  0  0
  6  9  2  0  0  0  0
  7  6  1  0  0  0  0
  7  8  1  0  0  0  0
  8 15  1  0  0  0  0
  9 10  1  0  0  0  0
  9 16  1  0  0  0  0
 10 17  1  0  0  0  0
 12  5  1  0  0  0  0
 13  8  1  0  0  0  0
 14  8  1  0  0  0  0
 18 24  1  0  0  0  0
 19 18  1  0  0  0  0
 19 25  1  0  0  0  0
 20 19  2  0  0  0  0
 21 22  2  0  0  0  0
 21 20  1  0  0  0  0
 22 23  1  0  0  0  0
 23 28  1  0  0  0  0
 23 18  2  0  0  0  0
 26 21  1  0  0  0  0
 27 22  1  0  0  0  0
 28 30  1  0  0  0  0
 28 29  2  0  0  0  0
 30 11  1  0  0  0  0
 31 28  2  0  0  0  0
 32 20  1  0  0  0  0
 32 33  1  0  0  0  0
 32 34  1  0  0  0  0
 35 32  1  0  0  0  0
M  RAD  3   2   2   3   3   4   2
M  END
