Coordinates from ORCA-job 4-MeOPhN2+~TsO-_B3LYPG-6-31G_dp-CH-Scan-d09-49-n800
 OpenBabel11261919303D

 35 35  0  0  0  0  0  0  0  0999 V2000
   -2.5932   -0.3995   -0.6379 C   0  0  0  0  0  0  0  0  0  0  0  0
   -3.8736   -0.8997   -0.7387 N   0  0  0  0  0  0  0  0  0  0  0  0
   -4.9813   -1.0717   -0.8388 N   0  0  0  0  0  0  0  0  0  0  0  0
   -2.3607    0.9491   -0.9857 C   0  0  0  0  0  0  0  0  0  0  0  0
   -1.0604    1.4022   -0.8661 C   0  0  0  0  0  0  0  0  0  0  0  0
   -0.0255    0.5561   -0.4166 C   0  0  0  0  0  0  0  0  0  0  0  0
    1.1934    1.1185   -0.3436 O   0  0  0  0  0  0  0  0  0  0  0  0
    2.3068    0.3367    0.0899 C   0  0  0  0  0  0  0  0  0  0  0  0
   -0.2927   -0.7904   -0.0811 C   0  0  0  0  0  0  0  0  0  0  0  0
   -1.5829   -1.2739   -0.1980 C   0  0  0  0  0  0  0  0  0  0  0  0
   -3.3159    1.6956   -1.4282 H   0  0  0  0  0  0  0  0  0  0  0  0
   -0.8074    2.4250   -1.1240 H   0  0  0  0  0  0  0  0  0  0  0  0
    3.1666    1.0053    0.0542 H   0  0  0  0  0  0  0  0  0  0  0  0
    2.4782   -0.5140   -0.5790 H   0  0  0  0  0  0  0  0  0  0  0  0
    2.1653   -0.0207    1.1158 H   0  0  0  0  0  0  0  0  0  0  0  0
    0.4938   -1.4496    0.2618 H   0  0  0  0  0  0  0  0  0  0  0  0
   -1.8171   -2.3034    0.0514 H   0  0  0  0  0  0  0  0  0  0  0  0
   -7.0844    4.0666   -1.4430 C   0  0  0  0  0  0  0  0  0  0  0  0
   -8.1603    4.9487   -1.4896 C   0  0  0  0  0  0  0  0  0  0  0  0
   -9.3081    4.6545   -2.2428 C   0  0  0  0  0  0  0  0  0  0  0  0
   -9.3426    3.4518   -2.9584 C   0  0  0  0  0  0  0  0  0  0  0  0
   -8.2706    2.5581   -2.9217 C   0  0  0  0  0  0  0  0  0  0  0  0
   -7.1465    2.8691   -2.1600 C   0  0  0  0  0  0  0  0  0  0  0  0
   -6.1924    4.3054   -0.8739 H   0  0  0  0  0  0  0  0  0  0  0  0
   -8.1093    5.8844   -0.9376 H   0  0  0  0  0  0  0  0  0  0  0  0
  -10.2184    3.2111   -3.5565 H   0  0  0  0  0  0  0  0  0  0  0  0
   -8.2891    1.6318   -3.4853 H   0  0  0  0  0  0  0  0  0  0  0  0
   -5.7911    1.6966   -2.0692 S   0  0  0  0  0  0  0  0  0  0  0  0
   -5.9335    1.0109   -0.7312 O   0  0  0  0  0  0  0  0  0  0  0  0
   -4.5428    2.5431   -2.0881 O   0  0  0  0  0  0  0  0  0  0  0  0
   -5.9214    0.7721   -3.2138 O   0  0  0  0  0  0  0  0  0  0  0  0
  -10.4750    5.6136   -2.2698 C   0  0  0  0  0  0  0  0  0  0  0  0
  -10.9928    5.6366   -1.3028 H   0  0  0  0  0  0  0  0  0  0  0  0
  -10.1472    6.6372   -2.4817 H   0  0  0  0  0  0  0  0  0  0  0  0
  -11.2077    5.3303   -3.0306 H   0  0  0  0  0  0  0  0  0  0  0  0
  1 10  2  0  0  0  0
  2  1  1  0  0  0  0
  3  2  1  0  0  0  0
  4  5  2  0  0  0  0
  4  1  1  0  0  0  0
  5  6  1  0  0  0  0
  6  7  1  0  0  0  0
  6  9  2  0  0  0  0
  7  8  1  0  0  0  0
  8 15  1  0  0  0  0
  9 16  1  0  0  0  0
 10  9  1  0  0  0  0
 10 17  1  0  0  0  0
 11  4  1  0  0  0  0
 12  5  1  0  0  0  0
 13  8  1  0  0  0  0
 14  8  1  0  0  0  0
 18 24  1  0  0  0  0
 19 18  1  0  0  0  0
 19 25  1  0  0  0  0
 20 19  2  0  0  0  0
 21 22  2  0  0  0  0
 21 20  1  0  0  0  0
 22 23  1  0  0  0  0
 23 28  1  0  0  0  0
 23 18  2  0  0  0  0
 26 21  1  0  0  0  0
 27 22  1  0  0  0  0
 28 29  1  0  0  0  0
 30 28  2  0  0  0  0
 31 28  2  0  0  0  0
 32 20  1  0  0  0  0
 32 33  1  0  0  0  0
 34 32  1  0  0  0  0
 35 32  1  0  0  0  0
M  RAD  3   2   2   3   3  29   2
M  END
