Coordinates from ORCA-job 4-MeOPhN2+~TsO-_B3LYPG-6-31G_dp-CH-Scan-d09-49-n800
 OpenBabel11261919313D

 35 35  0  0  0  0  0  0  0  0999 V2000
   -2.4810   -0.4433   -0.2056 C   0  0  0  0  0  0  0  0  0  0  0  0
   -3.7273   -0.9782    0.0262 N   0  0  0  0  0  0  0  0  0  0  0  0
   -4.7568   -1.3822    0.1996 N   0  0  0  0  0  0  0  0  0  0  0  0
   -2.4487    0.8093   -0.8671 C   0  0  0  0  0  0  0  0  0  0  0  0
   -1.1356    1.2582   -1.0511 C   0  0  0  0  0  0  0  0  0  0  0  0
    0.0004    0.5458   -0.6294 C   0  0  0  0  0  0  0  0  0  0  0  0
    1.1936    1.1236   -0.8879 O   0  0  0  0  0  0  0  0  0  0  0  0
    2.3971    0.4655   -0.5025 C   0  0  0  0  0  0  0  0  0  0  0  0
   -0.1237   -0.7082    0.0272 C   0  0  0  0  0  0  0  0  0  0  0  0
   -1.3828   -1.2184    0.2463 C   0  0  0  0  0  0  0  0  0  0  0  0
   -3.9727    1.8162   -1.4944 H   0  0  0  0  0  0  0  0  0  0  0  0
   -0.9449    2.2082   -1.5468 H   0  0  0  0  0  0  0  0  0  0  0  0
    3.2078    1.1228   -0.8179 H   0  0  0  0  0  0  0  0  0  0  0  0
    2.5022   -0.5036   -1.0036 H   0  0  0  0  0  0  0  0  0  0  0  0
    2.4473    0.3244    0.5837 H   0  0  0  0  0  0  0  0  0  0  0  0
    0.7463   -1.2628    0.3531 H   0  0  0  0  0  0  0  0  0  0  0  0
   -1.5241   -2.1744    0.7424 H   0  0  0  0  0  0  0  0  0  0  0  0
   -7.8373    3.3383   -0.9074 C   0  0  0  0  0  0  0  0  0  0  0  0
   -8.7982    4.3365   -1.0431 C   0  0  0  0  0  0  0  0  0  0  0  0
   -9.2491    4.7424   -2.3085 C   0  0  0  0  0  0  0  0  0  0  0  0
   -8.7097    4.1195   -3.4418 C   0  0  0  0  0  0  0  0  0  0  0  0
   -7.7469    3.1178   -3.3249 C   0  0  0  0  0  0  0  0  0  0  0  0
   -7.3152    2.7391   -2.0548 C   0  0  0  0  0  0  0  0  0  0  0  0
   -7.4982    3.0155    0.0707 H   0  0  0  0  0  0  0  0  0  0  0  0
   -9.2080    4.8073   -0.1533 H   0  0  0  0  0  0  0  0  0  0  0  0
   -9.0493    4.4203   -4.4292 H   0  0  0  0  0  0  0  0  0  0  0  0
   -7.3374    2.6263   -4.2003 H   0  0  0  0  0  0  0  0  0  0  0  0
   -6.0770    1.4630   -1.8961 S   0  0  0  0  0  0  0  0  0  0  0  0
   -6.2525    0.7918   -0.5967 O   0  0  0  0  0  0  0  0  0  0  0  0
   -4.7644    2.3722   -1.8412 O   0  0  0  0  0  0  0  0  0  0  0  0
   -6.0850    0.6448   -3.1116 O   0  0  0  0  0  0  0  0  0  0  0  0
  -10.3132    5.8054   -2.4399 C   0  0  0  0  0  0  0  0  0  0  0  0
  -11.3111    5.3878   -2.2564 H   0  0  0  0  0  0  0  0  0  0  0  0
  -10.1638    6.6130   -1.7162 H   0  0  0  0  0  0  0  0  0  0  0  0
  -10.3207    6.2433   -3.4417 H   0  0  0  0  0  0  0  0  0  0  0  0
  1  2  1  0  0  0  0
  1 10  2  0  0  0  0
  2  3  1  0  0  0  0
  4  1  1  0  0  0  0
  5  4  2  0  0  0  0
  5  6  1  0  0  0  0
  6  9  2  0  0  0  0
  7  6  1  0  0  0  0
  7  8  1  0  0  0  0
  8 15  1  0  0  0  0
  9 10  1  0  0  0  0
  9 16  1  0  0  0  0
 10 17  1  0  0  0  0
 12  5  1  0  0  0  0
 13  8  1  0  0  0  0
 14  8  1  0  0  0  0
 18 24  1  0  0  0  0
 19 18  1  0  0  0  0
 19 25  1  0  0  0  0
 20 19  2  0  0  0  0
 21 22  2  0  0  0  0
 21 20  1  0  0  0  0
 22 23  1  0  0  0  0
 23 28  1  0  0  0  0
 23 18  2  0  0  0  0
 26 21  1  0  0  0  0
 27 22  1  0  0  0  0
 28 30  1  0  0  0  0
 28 29  2  0  0  0  0
 30 11  1  0  0  0  0
 31 28  2  0  0  0  0
 32 20  1  0  0  0  0
 32 33  1  0  0  0  0
 32 34  1  0  0  0  0
 35 32  1  0  0  0  0
M  RAD  3   2   2   3   3   4   2
M  END
