Coordinates from ORCA-job 4-MeOPhN2+~TsO-_B3LYPG-6-31G_dp-CH-Scan-d09-49-n800
 OpenBabel11261919313D

 35 35  0  0  0  0  0  0  0  0999 V2000
   -2.2878   -0.3907   -0.1751 C   0  0  0  0  0  0  0  0  0  0  0  0
   -3.5771   -0.8234    0.0408 N   0  0  0  0  0  0  0  0  0  0  0  0
   -4.6364   -1.1483    0.2056 N   0  0  0  0  0  0  0  0  0  0  0  0
   -2.1619    0.8799   -0.7877 C   0  0  0  0  0  0  0  0  0  0  0  0
   -0.8113    1.2209   -0.9573 C   0  0  0  0  0  0  0  0  0  0  0  0
    0.2606    0.4009   -0.5681 C   0  0  0  0  0  0  0  0  0  0  0  0
    1.5010    0.8858   -0.8071 O   0  0  0  0  0  0  0  0  0  0  0  0
    2.6427    0.1142   -0.4488 C   0  0  0  0  0  0  0  0  0  0  0  0
    0.0347   -0.8647    0.0408 C   0  0  0  0  0  0  0  0  0  0  0  0
   -1.2616   -1.2768    0.2456 C   0  0  0  0  0  0  0  0  0  0  0  0
   -4.0489    2.3059   -1.5564 H   0  0  0  0  0  0  0  0  0  0  0  0
   -0.5362    2.1700   -1.4154 H   0  0  0  0  0  0  0  0  0  0  0  0
    3.5075    0.7124   -0.7377 H   0  0  0  0  0  0  0  0  0  0  0  0
    2.6684   -0.8402   -0.9873 H   0  0  0  0  0  0  0  0  0  0  0  0
    2.6787   -0.0744    0.6310 H   0  0  0  0  0  0  0  0  0  0  0  0
    0.8569   -1.5005    0.3421 H   0  0  0  0  0  0  0  0  0  0  0  0
   -1.4820   -2.2360    0.7066 H   0  0  0  0  0  0  0  0  0  0  0  0
   -7.9981    3.4639   -0.9361 C   0  0  0  0  0  0  0  0  0  0  0  0
   -9.0405    4.3742   -1.0838 C   0  0  0  0  0  0  0  0  0  0  0  0
   -9.5220    4.7267   -2.3544 C   0  0  0  0  0  0  0  0  0  0  0  0
   -8.9300    4.1404   -3.4808 C   0  0  0  0  0  0  0  0  0  0  0  0
   -7.8847    3.2264   -3.3532 C   0  0  0  0  0  0  0  0  0  0  0  0
   -7.4256    2.9008   -2.0781 C   0  0  0  0  0  0  0  0  0  0  0  0
   -7.6340    3.1821    0.0457 H   0  0  0  0  0  0  0  0  0  0  0  0
   -9.4906    4.8175   -0.1996 H   0  0  0  0  0  0  0  0  0  0  0  0
   -9.2925    4.4005   -4.4715 H   0  0  0  0  0  0  0  0  0  0  0  0
   -7.4328    2.7636   -4.2233 H   0  0  0  0  0  0  0  0  0  0  0  0
   -6.0887    1.7348   -1.9038 S   0  0  0  0  0  0  0  0  0  0  0  0
   -6.1906    1.0715   -0.5978 O   0  0  0  0  0  0  0  0  0  0  0  0
   -4.8577    2.7877   -1.8578 O   0  0  0  0  0  0  0  0  0  0  0  0
   -6.0015    0.9191   -3.1148 O   0  0  0  0  0  0  0  0  0  0  0  0
  -10.6697    5.6973   -2.4960 C   0  0  0  0  0  0  0  0  0  0  0  0
  -11.6244    5.2144   -2.2536 H   0  0  0  0  0  0  0  0  0  0  0  0
  -10.5583    6.5487   -1.8172 H   0  0  0  0  0  0  0  0  0  0  0  0
  -10.7452    6.0830   -3.5158 H   0  0  0  0  0  0  0  0  0  0  0  0
  1  2  1  0  0  0  0
  1 10  2  0  0  0  0
  2  3  1  0  0  0  0
  4  1  1  0  0  0  0
  5  4  2  0  0  0  0
  5  6  1  0  0  0  0
  6  9  2  0  0  0  0
  7  6  1  0  0  0  0
  7  8  1  0  0  0  0
  8 15  1  0  0  0  0
  9 10  1  0  0  0  0
  9 16  1  0  0  0  0
 10 17  1  0  0  0  0
 12  5  1  0  0  0  0
 13  8  1  0  0  0  0
 14  8  1  0  0  0  0
 18 24  1  0  0  0  0
 19 18  1  0  0  0  0
 19 25  1  0  0  0  0
 20 19  2  0  0  0  0
 21 22  2  0  0  0  0
 21 20  1  0  0  0  0
 22 23  1  0  0  0  0
 23 28  1  0  0  0  0
 23 18  2  0  0  0  0
 26 21  1  0  0  0  0
 27 22  1  0  0  0  0
 28 30  1  0  0  0  0
 28 29  2  0  0  0  0
 30 11  1  0  0  0  0
 31 28  2  0  0  0  0
 32 20  1  0  0  0  0
 32 33  1  0  0  0  0
 32 34  1  0  0  0  0
 35 32  1  0  0  0  0
M  RAD  3   2   2   3   3   4   2
M  END
