Coordinates from ORCA-job 4-MeOPhN2+~TsO-_B3LYPG-6-31G_dp-CH-Scan-d09-49-n800
 OpenBabel11261919313D

 35 35  0  0  0  0  0  0  0  0999 V2000
   -2.5349   -0.4538   -0.2176 C   0  0  0  0  0  0  0  0  0  0  0  0
   -3.7699   -1.0133    0.0148 N   0  0  0  0  0  0  0  0  0  0  0  0
   -4.7922   -1.4351    0.1862 N   0  0  0  0  0  0  0  0  0  0  0  0
   -2.5202    0.7865   -0.9023 C   0  0  0  0  0  0  0  0  0  0  0  0
   -1.2183    1.2626   -1.0863 C   0  0  0  0  0  0  0  0  0  0  0  0
   -0.0698    0.5838   -0.6424 C   0  0  0  0  0  0  0  0  0  0  0  0
    1.1110    1.1830   -0.9035 O   0  0  0  0  0  0  0  0  0  0  0  0
    2.3265    0.5610   -0.4951 C   0  0  0  0  0  0  0  0  0  0  0  0
   -0.1726   -0.6595    0.0369 C   0  0  0  0  0  0  0  0  0  0  0  0
   -1.4222   -1.1933    0.2559 C   0  0  0  0  0  0  0  0  0  0  0  0
   -3.9362    1.6791   -1.5110 H   0  0  0  0  0  0  0  0  0  0  0  0
   -1.0480    2.2071   -1.5991 H   0  0  0  0  0  0  0  0  0  0  0  0
    3.1241    1.2301   -0.8187 H   0  0  0  0  0  0  0  0  0  0  0  0
    2.4575   -0.4157   -0.9748 H   0  0  0  0  0  0  0  0  0  0  0  0
    2.3708    0.4444    0.5942 H   0  0  0  0  0  0  0  0  0  0  0  0
    0.7065   -1.1889    0.3799 H   0  0  0  0  0  0  0  0  0  0  0  0
   -1.5461   -2.1427    0.7686 H   0  0  0  0  0  0  0  0  0  0  0  0
   -7.7717    3.3063   -0.9099 C   0  0  0  0  0  0  0  0  0  0  0  0
   -8.7110    4.3271   -1.0288 C   0  0  0  0  0  0  0  0  0  0  0  0
   -9.1742    4.7439   -2.2862 C   0  0  0  0  0  0  0  0  0  0  0  0
   -8.6691    4.1087   -3.4283 C   0  0  0  0  0  0  0  0  0  0  0  0
   -7.7284    3.0844   -3.3275 C   0  0  0  0  0  0  0  0  0  0  0  0
   -7.2835    2.6945   -2.0655 C   0  0  0  0  0  0  0  0  0  0  0  0
   -7.4238    2.9750    0.0623 H   0  0  0  0  0  0  0  0  0  0  0  0
   -9.0945    4.8070   -0.1321 H   0  0  0  0  0  0  0  0  0  0  0  0
   -9.0187    4.4175   -4.4098 H   0  0  0  0  0  0  0  0  0  0  0  0
   -7.3461    2.5831   -4.2097 H   0  0  0  0  0  0  0  0  0  0  0  0
   -6.0698    1.3905   -1.9287 S   0  0  0  0  0  0  0  0  0  0  0  0
   -6.2495    0.7189   -0.6276 O   0  0  0  0  0  0  0  0  0  0  0  0
   -4.7366    2.2516   -1.8913 O   0  0  0  0  0  0  0  0  0  0  0  0
   -6.1267    0.5716   -3.1437 O   0  0  0  0  0  0  0  0  0  0  0  0
  -10.2158    5.8310   -2.3997 C   0  0  0  0  0  0  0  0  0  0  0  0
  -11.2201    5.4365   -2.2002 H   0  0  0  0  0  0  0  0  0  0  0  0
  -10.0364    6.6346   -1.6784 H   0  0  0  0  0  0  0  0  0  0  0  0
  -10.2297    6.2696   -3.4012 H   0  0  0  0  0  0  0  0  0  0  0  0
  1  2  1  0  0  0  0
  1 10  2  0  0  0  0
  2  3  1  0  0  0  0
  4  1  1  0  0  0  0
  5  4  2  0  0  0  0
  5  6  1  0  0  0  0
  6  9  2  0  0  0  0
  7  6  1  0  0  0  0
  7  8  1  0  0  0  0
  8 15  1  0  0  0  0
  9 10  1  0  0  0  0
  9 16  1  0  0  0  0
 10 17  1  0  0  0  0
 12  5  1  0  0  0  0
 13  8  1  0  0  0  0
 14  8  1  0  0  0  0
 18 24  1  0  0  0  0
 19 18  1  0  0  0  0
 19 25  1  0  0  0  0
 20 19  2  0  0  0  0
 21 22  2  0  0  0  0
 21 20  1  0  0  0  0
 22 23  1  0  0  0  0
 23 28  1  0  0  0  0
 23 18  2  0  0  0  0
 26 21  1  0  0  0  0
 27 22  1  0  0  0  0
 28 30  1  0  0  0  0
 28 29  2  0  0  0  0
 30 11  1  0  0  0  0
 31 28  2  0  0  0  0
 32 20  1  0  0  0  0
 32 33  1  0  0  0  0
 32 34  1  0  0  0  0
 35 32  1  0  0  0  0
M  RAD  3   2   2   3   3   4   2
M  END
