Coordinates from ORCA-job 4-MeOPhN2+~TsO-_B3LYPG-6-31G_dp-CH-Scan-d09-49-n800
 OpenBabel11261919313D

 35 35  0  0  0  0  0  0  0  0999 V2000
   -2.5476   -0.4571   -0.2236 C   0  0  0  0  0  0  0  0  0  0  0  0
   -3.7800   -1.0229    0.0067 N   0  0  0  0  0  0  0  0  0  0  0  0
   -4.8007   -1.4492    0.1758 N   0  0  0  0  0  0  0  0  0  0  0  0
   -2.5360    0.7795   -0.9150 C   0  0  0  0  0  0  0  0  0  0  0  0
   -1.2370    1.2629   -1.0969 C   0  0  0  0  0  0  0  0  0  0  0  0
   -0.0862    0.5933   -0.6445 C   0  0  0  0  0  0  0  0  0  0  0  0
    1.0917    1.1981   -0.9043 O   0  0  0  0  0  0  0  0  0  0  0  0
    2.3095    0.5859   -0.4874 C   0  0  0  0  0  0  0  0  0  0  0  0
   -0.1847   -0.6466    0.0412 C   0  0  0  0  0  0  0  0  0  0  0  0
   -1.4321   -1.1866    0.2581 C   0  0  0  0  0  0  0  0  0  0  0  0
   -3.9264    1.6433   -1.5227 H   0  0  0  0  0  0  0  0  0  0  0  0
   -1.0712    2.2055   -1.6144 H   0  0  0  0  0  0  0  0  0  0  0  0
    3.1042    1.2579   -0.8121 H   0  0  0  0  0  0  0  0  0  0  0  0
    2.4482   -0.3930   -0.9605 H   0  0  0  0  0  0  0  0  0  0  0  0
    2.3500    0.4764    0.6028 H   0  0  0  0  0  0  0  0  0  0  0  0
    0.6960   -1.1690    0.3908 H   0  0  0  0  0  0  0  0  0  0  0  0
   -1.5524   -2.1339    0.7755 H   0  0  0  0  0  0  0  0  0  0  0  0
   -7.7515    3.3003   -0.9117 C   0  0  0  0  0  0  0  0  0  0  0  0
   -8.6850    4.3271   -1.0248 C   0  0  0  0  0  0  0  0  0  0  0  0
   -9.1556    4.7448   -2.2791 C   0  0  0  0  0  0  0  0  0  0  0  0
   -8.6641    4.1040   -3.4240 C   0  0  0  0  0  0  0  0  0  0  0  0
   -7.7295    3.0735   -3.3289 C   0  0  0  0  0  0  0  0  0  0  0  0
   -7.2768    2.6828   -2.0699 C   0  0  0  0  0  0  0  0  0  0  0  0
   -7.3980    2.9684    0.0583 H   0  0  0  0  0  0  0  0  0  0  0  0
   -9.0579    4.8112   -0.1259 H   0  0  0  0  0  0  0  0  0  0  0  0
   -9.0196    4.4133   -4.4033 H   0  0  0  0  0  0  0  0  0  0  0  0
   -7.3578    2.5679   -4.2132 H   0  0  0  0  0  0  0  0  0  0  0  0
   -6.0697    1.3714   -1.9408 S   0  0  0  0  0  0  0  0  0  0  0  0
   -6.2460    0.7023   -0.6372 O   0  0  0  0  0  0  0  0  0  0  0  0
   -4.7309    2.2187   -1.9146 O   0  0  0  0  0  0  0  0  0  0  0  0
   -6.1447    0.5502   -3.1536 O   0  0  0  0  0  0  0  0  0  0  0  0
  -10.1910    5.8385   -2.3864 C   0  0  0  0  0  0  0  0  0  0  0  0
  -11.1963    5.4509   -2.1788 H   0  0  0  0  0  0  0  0  0  0  0  0
  -10.0009    6.6419   -1.6676 H   0  0  0  0  0  0  0  0  0  0  0  0
  -10.2096    6.2758   -3.3884 H   0  0  0  0  0  0  0  0  0  0  0  0
  1  2  1  0  0  0  0
  1 10  2  0  0  0  0
  2  3  1  0  0  0  0
  4  1  1  0  0  0  0
  5  4  2  0  0  0  0
  5  6  1  0  0  0  0
  6  9  2  0  0  0  0
  7  6  1  0  0  0  0
  7  8  1  0  0  0  0
  8 15  1  0  0  0  0
  9 10  1  0  0  0  0
  9 16  1  0  0  0  0
 10 17  1  0  0  0  0
 12  5  1  0  0  0  0
 13  8  1  0  0  0  0
 14  8  1  0  0  0  0
 18 24  1  0  0  0  0
 19 18  1  0  0  0  0
 19 25  1  0  0  0  0
 20 19  2  0  0  0  0
 21 22  2  0  0  0  0
 21 20  1  0  0  0  0
 22 23  1  0  0  0  0
 23 28  1  0  0  0  0
 23 18  2  0  0  0  0
 26 21  1  0  0  0  0
 27 22  1  0  0  0  0
 28 30  1  0  0  0  0
 28 29  2  0  0  0  0
 30 11  1  0  0  0  0
 31 28  2  0  0  0  0
 32 20  1  0  0  0  0
 32 33  1  0  0  0  0
 32 34  1  0  0  0  0
 35 32  1  0  0  0  0
M  RAD  3   2   2   3   3   4   2
M  END
