Coordinates from ORCA-job 4-MeOPhN2+~TsO-_B3LYPG-6-31G_dp-CH-Scan-d09-49-n800
 OpenBabel11261919313D

 35 35  0  0  0  0  0  0  0  0999 V2000
   -2.4047   -0.4271   -0.1960 C   0  0  0  0  0  0  0  0  0  0  0  0
   -3.6677   -0.9258    0.0284 N   0  0  0  0  0  0  0  0  0  0  0  0
   -4.7086   -1.3020    0.1982 N   0  0  0  0  0  0  0  0  0  0  0  0
   -2.3396    0.8362   -0.8339 C   0  0  0  0  0  0  0  0  0  0  0  0
   -1.0112    1.2461   -1.0112 C   0  0  0  0  0  0  0  0  0  0  0  0
    0.1025    0.4912   -0.6060 C   0  0  0  0  0  0  0  0  0  0  0  0
    1.3141    1.0362   -0.8558 O   0  0  0  0  0  0  0  0  0  0  0  0
    2.4960    0.3323   -0.4866 C   0  0  0  0  0  0  0  0  0  0  0  0
   -0.0582   -0.7713    0.0274 C   0  0  0  0  0  0  0  0  0  0  0  0
   -1.3317   -1.2466    0.2401 C   0  0  0  0  0  0  0  0  0  0  0  0
   -4.0102    2.0032   -1.5084 H   0  0  0  0  0  0  0  0  0  0  0  0
   -0.7889    2.1990   -1.4885 H   0  0  0  0  0  0  0  0  0  0  0  0
    3.3272    0.9696   -0.7900 H   0  0  0  0  0  0  0  0  0  0  0  0
    2.5696   -0.6293   -1.0073 H   0  0  0  0  0  0  0  0  0  0  0  0
    2.5439    0.1671    0.5965 H   0  0  0  0  0  0  0  0  0  0  0  0
    0.7953   -1.3580    0.3408 H   0  0  0  0  0  0  0  0  0  0  0  0
   -1.5017   -2.2069    0.7192 H   0  0  0  0  0  0  0  0  0  0  0  0
   -7.9078    3.3879   -0.9140 C   0  0  0  0  0  0  0  0  0  0  0  0
   -8.8990    4.3543   -1.0602 C   0  0  0  0  0  0  0  0  0  0  0  0
   -9.3553    4.7395   -2.3303 C   0  0  0  0  0  0  0  0  0  0  0  0
   -8.7906    4.1285   -3.4576 C   0  0  0  0  0  0  0  0  0  0  0  0
   -7.7971    3.1585   -3.3309 C   0  0  0  0  0  0  0  0  0  0  0  0
   -7.3612    2.8007   -2.0562 C   0  0  0  0  0  0  0  0  0  0  0  0
   -7.5638    3.0811    0.0675 H   0  0  0  0  0  0  0  0  0  0  0  0
   -9.3284    4.8163   -0.1751 H   0  0  0  0  0  0  0  0  0  0  0  0
   -9.1340    4.4137   -4.4483 H   0  0  0  0  0  0  0  0  0  0  0  0
   -7.3671    2.6766   -4.2017 H   0  0  0  0  0  0  0  0  0  0  0  0
   -6.0869    1.5642   -1.8839 S   0  0  0  0  0  0  0  0  0  0  0  0
   -6.2381    0.8984   -0.5813 O   0  0  0  0  0  0  0  0  0  0  0  0
   -4.8030    2.5317   -1.8297 O   0  0  0  0  0  0  0  0  0  0  0  0
   -6.0525    0.7442   -3.0962 O   0  0  0  0  0  0  0  0  0  0  0  0
  -10.4504    5.7692   -2.4720 C   0  0  0  0  0  0  0  0  0  0  0  0
  -11.4343    5.3264   -2.2735 H   0  0  0  0  0  0  0  0  0  0  0  0
  -10.3189    6.5928   -1.7630 H   0  0  0  0  0  0  0  0  0  0  0  0
  -10.4773    6.1896   -3.4807 H   0  0  0  0  0  0  0  0  0  0  0  0
  1  2  1  0  0  0  0
  1 10  2  0  0  0  0
  2  3  1  0  0  0  0
  4  1  1  0  0  0  0
  5  4  2  0  0  0  0
  5  6  1  0  0  0  0
  6  9  2  0  0  0  0
  7  6  1  0  0  0  0
  7  8  1  0  0  0  0
  8 15  1  0  0  0  0
  9 10  1  0  0  0  0
  9 16  1  0  0  0  0
 10 17  1  0  0  0  0
 12  5  1  0  0  0  0
 13  8  1  0  0  0  0
 14  8  1  0  0  0  0
 18 24  1  0  0  0  0
 19 18  1  0  0  0  0
 19 25  1  0  0  0  0
 20 19  2  0  0  0  0
 21 22  2  0  0  0  0
 21 20  1  0  0  0  0
 22 23  1  0  0  0  0
 23 28  1  0  0  0  0
 23 18  2  0  0  0  0
 26 21  1  0  0  0  0
 27 22  1  0  0  0  0
 28 30  1  0  0  0  0
 28 29  2  0  0  0  0
 30 11  1  0  0  0  0
 31 28  2  0  0  0  0
 32 20  1  0  0  0  0
 32 33  1  0  0  0  0
 32 34  1  0  0  0  0
 35 32  1  0  0  0  0
M  RAD  3   2   2   3   3   4   2
M  END
