Coordinates from ORCA-job 4-MeOPhN2+~TsO-_B3LYPG-6-31G_dp-CH-Scan-d09-49-n800
 OpenBabel11261919313D

 35 35  0  0  0  0  0  0  0  0999 V2000
   -2.3489   -0.4117   -0.1884 C   0  0  0  0  0  0  0  0  0  0  0  0
   -3.6245   -0.8804    0.0306 N   0  0  0  0  0  0  0  0  0  0  0  0
   -4.6741   -1.2341    0.1970 N   0  0  0  0  0  0  0  0  0  0  0  0
   -2.2559    0.8542   -0.8170 C   0  0  0  0  0  0  0  0  0  0  0  0
   -0.9168    1.2335   -0.9889 C   0  0  0  0  0  0  0  0  0  0  0  0
    0.1780    0.4499   -0.5876 C   0  0  0  0  0  0  0  0  0  0  0  0
    1.4033    0.9679   -0.8312 O   0  0  0  0  0  0  0  0  0  0  0  0
    2.5670    0.2337   -0.4641 C   0  0  0  0  0  0  0  0  0  0  0  0
   -0.0128   -0.8135    0.0366 C   0  0  0  0  0  0  0  0  0  0  0  0
   -1.2971   -1.2606    0.2442 C   0  0  0  0  0  0  0  0  0  0  0  0
   -4.0323    2.1364   -1.5391 H   0  0  0  0  0  0  0  0  0  0  0  0
   -0.6701    2.1844   -1.4587 H   0  0  0  0  0  0  0  0  0  0  0  0
    3.4140    0.8533   -0.7605 H   0  0  0  0  0  0  0  0  0  0  0  0
    2.6197   -0.7256   -0.9917 H   0  0  0  0  0  0  0  0  0  0  0  0
    2.6082    0.0592    0.6178 H   0  0  0  0  0  0  0  0  0  0  0  0
    0.8266   -1.4218    0.3470 H   0  0  0  0  0  0  0  0  0  0  0  0
   -1.4902   -2.2201    0.7165 H   0  0  0  0  0  0  0  0  0  0  0  0
   -7.9492    3.4228   -0.9253 C   0  0  0  0  0  0  0  0  0  0  0  0
   -8.9628    4.3657   -1.0706 C   0  0  0  0  0  0  0  0  0  0  0  0
   -9.4329    4.7363   -2.3401 C   0  0  0  0  0  0  0  0  0  0  0  0
   -8.8591    4.1347   -3.4680 C   0  0  0  0  0  0  0  0  0  0  0  0
   -7.8431    3.1882   -3.3425 C   0  0  0  0  0  0  0  0  0  0  0  0
   -7.3942    2.8448   -2.0684 C   0  0  0  0  0  0  0  0  0  0  0  0
   -7.5943    3.1272    0.0557 H   0  0  0  0  0  0  0  0  0  0  0  0
   -9.3990    4.8206   -0.1852 H   0  0  0  0  0  0  0  0  0  0  0  0
   -9.2131    4.4088   -4.4580 H   0  0  0  0  0  0  0  0  0  0  0  0
   -7.4057    2.7136   -4.2137 H   0  0  0  0  0  0  0  0  0  0  0  0
   -6.0928    1.6378   -1.8972 S   0  0  0  0  0  0  0  0  0  0  0  0
   -6.2190    0.9743   -0.5920 O   0  0  0  0  0  0  0  0  0  0  0  0
   -4.8305    2.6435   -1.8509 O   0  0  0  0  0  0  0  0  0  0  0  0
   -6.0382    0.8183   -3.1082 O   0  0  0  0  0  0  0  0  0  0  0  0
  -10.5509    5.7412   -2.4800 C   0  0  0  0  0  0  0  0  0  0  0  0
  -11.5224    5.2809   -2.2616 H   0  0  0  0  0  0  0  0  0  0  0  0
  -10.4266    6.5765   -1.7835 H   0  0  0  0  0  0  0  0  0  0  0  0
  -10.6003    6.1477   -3.4934 H   0  0  0  0  0  0  0  0  0  0  0  0
  1  2  1  0  0  0  0
  1 10  2  0  0  0  0
  2  3  1  0  0  0  0
  4  1  1  0  0  0  0
  5  4  2  0  0  0  0
  5  6  1  0  0  0  0
  6  9  2  0  0  0  0
  7  6  1  0  0  0  0
  7  8  1  0  0  0  0
  8 15  1  0  0  0  0
  9 10  1  0  0  0  0
  9 16  1  0  0  0  0
 10 17  1  0  0  0  0
 12  5  1  0  0  0  0
 13  8  1  0  0  0  0
 14  8  1  0  0  0  0
 18 24  1  0  0  0  0
 19 18  1  0  0  0  0
 19 25  1  0  0  0  0
 20 19  2  0  0  0  0
 21 22  2  0  0  0  0
 21 20  1  0  0  0  0
 22 23  1  0  0  0  0
 23 28  1  0  0  0  0
 23 18  2  0  0  0  0
 26 21  1  0  0  0  0
 27 22  1  0  0  0  0
 28 30  1  0  0  0  0
 28 29  2  0  0  0  0
 30 11  1  0  0  0  0
 31 28  2  0  0  0  0
 32 20  1  0  0  0  0
 32 33  1  0  0  0  0
 32 34  1  0  0  0  0
 35 32  1  0  0  0  0
M  RAD  3   2   2   3   3   4   2
M  END
