Coordinates from ORCA-job 4-MeOPhN2+~TsO-_B3LYPG-6-31G_dp-CH-Scan-d09-49-n800
 OpenBabel11261919313D

 35 35  0  0  0  0  0  0  0  0999 V2000
   -1.9433   -0.2401   -0.1252 C   0  0  0  0  0  0  0  0  0  0  0  0
   -3.3007   -0.4322    0.0338 N   0  0  0  0  0  0  0  0  0  0  0  0
   -4.4093   -0.5483    0.1541 N   0  0  0  0  0  0  0  0  0  0  0  0
   -1.5841    1.0513   -0.5788 C   0  0  0  0  0  0  0  0  0  0  0  0
   -0.1844    1.1412   -0.7054 C   0  0  0  0  0  0  0  0  0  0  0  0
    0.7048    0.0931   -0.4235 C   0  0  0  0  0  0  0  0  0  0  0  0
    2.0228    0.3569   -0.6069 O   0  0  0  0  0  0  0  0  0  0  0  0
    2.9861   -0.6588   -0.3572 C   0  0  0  0  0  0  0  0  0  0  0  0
    0.2348   -1.1727    0.0296 C   0  0  0  0  0  0  0  0  0  0  0  0
   -1.1193   -1.3543    0.1864 C   0  0  0  0  0  0  0  0  0  0  0  0
   -4.1276    3.5667   -1.6822 H   0  0  0  0  0  0  0  0  0  0  0  0
    0.2791    2.0681   -1.0460 H   0  0  0  0  0  0  0  0  0  0  0  0
    3.9555   -0.2122   -0.5832 H   0  0  0  0  0  0  0  0  0  0  0  0
    2.8324   -1.5302   -1.0050 H   0  0  0  0  0  0  0  0  0  0  0  0
    2.9741   -0.9795    0.6916 H   0  0  0  0  0  0  0  0  0  0  0  0
    0.9181   -1.9828    0.2504 H   0  0  0  0  0  0  0  0  0  0  0  0
   -1.5269   -2.3018    0.5313 H   0  0  0  0  0  0  0  0  0  0  0  0
   -8.2242    3.7527   -0.9876 C   0  0  0  0  0  0  0  0  0  0  0  0
   -9.4532    4.3862   -1.1448 C   0  0  0  0  0  0  0  0  0  0  0  0
  -10.0143    4.5777   -2.4177 C   0  0  0  0  0  0  0  0  0  0  0  0
   -9.3099    4.1145   -3.5370 C   0  0  0  0  0  0  0  0  0  0  0  0
   -8.0774    3.4773   -3.4010 C   0  0  0  0  0  0  0  0  0  0  0  0
   -7.5454    3.3074   -2.1237 C   0  0  0  0  0  0  0  0  0  0  0  0
   -7.7959    3.5946   -0.0039 H   0  0  0  0  0  0  0  0  0  0  0  0
   -9.9883    4.7367   -0.2665 H   0  0  0  0  0  0  0  0  0  0  0  0
   -9.7319    4.2521   -4.5286 H   0  0  0  0  0  0  0  0  0  0  0  0
   -7.5361    3.1092   -4.2652 H   0  0  0  0  0  0  0  0  0  0  0  0
   -5.9731    2.4942   -1.9382 S   0  0  0  0  0  0  0  0  0  0  0  0
   -5.8822    1.8864   -0.6093 O   0  0  0  0  0  0  0  0  0  0  0  0
   -5.0240    3.8338   -1.9540 O   0  0  0  0  0  0  0  0  0  0  0  0
   -5.6931    1.6953   -3.1285 O   0  0  0  0  0  0  0  0  0  0  0  0
  -11.3587    5.2475   -2.5684 C   0  0  0  0  0  0  0  0  0  0  0  0
  -12.1684    4.5737   -2.2634 H   0  0  0  0  0  0  0  0  0  0  0  0
  -11.4297    6.1420   -1.9420 H   0  0  0  0  0  0  0  0  0  0  0  0
  -11.5460    5.5415   -3.6042 H   0  0  0  0  0  0  0  0  0  0  0  0
  1  2  1  0  0  0  0
  1 10  2  0  0  0  0
  2  3  1  0  0  0  0
  4  1  1  0  0  0  0
  5  4  2  0  0  0  0
  5  6  1  0  0  0  0
  6  9  2  0  0  0  0
  7  6  1  0  0  0  0
  7  8  1  0  0  0  0
  8 15  1  0  0  0  0
  9 10  1  0  0  0  0
  9 16  1  0  0  0  0
 10 17  1  0  0  0  0
 12  5  1  0  0  0  0
 13  8  1  0  0  0  0
 14  8  1  0  0  0  0
 18 24  1  0  0  0  0
 19 18  1  0  0  0  0
 19 25  1  0  0  0  0
 20 19  2  0  0  0  0
 21 22  2  0  0  0  0
 21 20  1  0  0  0  0
 22 23  1  0  0  0  0
 23 28  1  0  0  0  0
 23 18  2  0  0  0  0
 26 21  1  0  0  0  0
 27 22  1  0  0  0  0
 28 29  2  0  0  0  0
 30 28  1  0  0  0  0
 30 11  1  0  0  0  0
 31 28  2  0  0  0  0
 32 20  1  0  0  0  0
 32 33  1  0  0  0  0
 32 34  1  0  0  0  0
 35 32  1  0  0  0  0
M  RAD  3   2   2   3   3   4   2
M  END
