Coordinates from ORCA-job 4-MeOPhN2+~TsO-_B3LYPG-6-31G_dp-CH-Scan-d09-49-n800
 OpenBabel11261919313D

 35 35  0  0  0  0  0  0  0  0999 V2000
   -1.5395   -0.2865   -0.5776 C   0  0  0  0  0  0  0  0  0  0  0  0
   -2.8928   -0.4240   -0.8161 N   0  0  0  0  0  0  0  0  0  0  0  0
   -3.9924   -0.4884   -1.0288 N   0  0  0  0  0  0  0  0  0  0  0  0
   -1.0159    0.9703   -0.9603 C   0  0  0  0  0  0  0  0  0  0  0  0
    0.3649    1.0131   -0.6818 C   0  0  0  0  0  0  0  0  0  0  0  0
    1.0902   -0.0432   -0.1108 C   0  0  0  0  0  0  0  0  0  0  0  0
    2.4154    0.1735    0.0862 O   0  0  0  0  0  0  0  0  0  0  0  0
    3.2198   -0.8494    0.6594 C   0  0  0  0  0  0  0  0  0  0  0  0
    0.4579   -1.2716    0.2381 C   0  0  0  0  0  0  0  0  0  0  0  0
   -0.8900   -1.4086    0.0030 C   0  0  0  0  0  0  0  0  0  0  0  0
   -4.4961    3.7037   -2.9079 H   0  0  0  0  0  0  0  0  0  0  0  0
    0.9451    1.9084   -0.9110 H   0  0  0  0  0  0  0  0  0  0  0  0
    4.2293   -0.4392    0.7138 H   0  0  0  0  0  0  0  0  0  0  0  0
    3.2318   -1.7526    0.0371 H   0  0  0  0  0  0  0  0  0  0  0  0
    2.8837   -1.1105    1.6702 H   0  0  0  0  0  0  0  0  0  0  0  0
    1.0162   -2.0877    0.6789 H   0  0  0  0  0  0  0  0  0  0  0  0
   -1.4182   -2.3264    0.2515 H   0  0  0  0  0  0  0  0  0  0  0  0
   -8.0947    3.9089   -1.3062 C   0  0  0  0  0  0  0  0  0  0  0  0
   -9.3033    4.5603   -1.0784 C   0  0  0  0  0  0  0  0  0  0  0  0
  -10.2642    4.6847   -2.0942 C   0  0  0  0  0  0  0  0  0  0  0  0
   -9.9834    4.1356   -3.3529 C   0  0  0  0  0  0  0  0  0  0  0  0
   -8.7796    3.4784   -3.6014 C   0  0  0  0  0  0  0  0  0  0  0  0
   -7.8440    3.3764   -2.5725 C   0  0  0  0  0  0  0  0  0  0  0  0
   -7.3580    3.8026   -0.5170 H   0  0  0  0  0  0  0  0  0  0  0  0
   -9.5057    4.9783   -0.0960 H   0  0  0  0  0  0  0  0  0  0  0  0
  -10.7174    4.2212   -4.1499 H   0  0  0  0  0  0  0  0  0  0  0  0
   -8.5663    3.0442   -4.5717 H   0  0  0  0  0  0  0  0  0  0  0  0
   -6.2977    2.5489   -2.8802 S   0  0  0  0  0  0  0  0  0  0  0  0
   -5.7460    2.0336   -1.6251 O   0  0  0  0  0  0  0  0  0  0  0  0
   -5.3728    3.8421   -3.3066 O   0  0  0  0  0  0  0  0  0  0  0  0
   -6.4459    1.6839   -4.0443 O   0  0  0  0  0  0  0  0  0  0  0  0
  -11.5812    5.3708   -1.8239 C   0  0  0  0  0  0  0  0  0  0  0  0
  -12.2826    4.6887   -1.3270 H   0  0  0  0  0  0  0  0  0  0  0  0
  -11.4524    6.2372   -1.1679 H   0  0  0  0  0  0  0  0  0  0  0  0
  -12.0536    5.7105   -2.7492 H   0  0  0  0  0  0  0  0  0  0  0  0
  1 10  2  0  0  0  0
  2  1  1  0  0  0  0
  3  2  1  0  0  0  0
  4  5  2  0  0  0  0
  4  1  1  0  0  0  0
  5  6  1  0  0  0  0
  6  7  1  0  0  0  0
  6  9  2  0  0  0  0
  7  8  1  0  0  0  0
  8 13  1  0  0  0  0
  8 15  1  0  0  0  0
  9 16  1  0  0  0  0
 10  9  1  0  0  0  0
 10 17  1  0  0  0  0
 12  5  1  0  0  0  0
 14  8  1  0  0  0  0
 18 19  1  0  0  0  0
 18 24  1  0  0  0  0
 19 25  1  0  0  0  0
 20 32  1  0  0  0  0
 20 19  2  0  0  0  0
 21 20  1  0  0  0  0
 22 21  2  0  0  0  0
 22 23  1  0  0  0  0
 23 18  2  0  0  0  0
 26 21  1  0  0  0  0
 27 22  1  0  0  0  0
 28 23  1  0  0  0  0
 28 29  2  0  0  0  0
 30 11  1  0  0  0  0
 30 28  1  0  0  0  0
 31 28  2  0  0  0  0
 32 33  1  0  0  0  0
 32 34  1  0  0  0  0
 35 32  1  0  0  0  0
M  RAD  3   2   2   3   3   4   2
M  END
