Coordinates from ORCA-job 4-MeOPhN2+~TsO-_B3LYPG-6-31G_dp-CH-Scan-d09-49-n800
 OpenBabel11261919313D

 35 35  0  0  0  0  0  0  0  0999 V2000
   -1.5268   -0.2828   -0.5748 C   0  0  0  0  0  0  0  0  0  0  0  0
   -2.8804   -0.4144   -0.8146 N   0  0  0  0  0  0  0  0  0  0  0  0
   -3.9800   -0.4731   -1.0290 N   0  0  0  0  0  0  0  0  0  0  0  0
   -0.9989    0.9734   -0.9536 C   0  0  0  0  0  0  0  0  0  0  0  0
    0.3819    1.0107   -0.6743 C   0  0  0  0  0  0  0  0  0  0  0  0
    1.1034   -0.0496   -0.1061 C   0  0  0  0  0  0  0  0  0  0  0  0
    2.4292    0.1620    0.0920 O   0  0  0  0  0  0  0  0  0  0  0  0
    3.2300   -0.8652    0.6626 C   0  0  0  0  0  0  0  0  0  0  0  0
    0.4668   -1.2770    0.2389 C   0  0  0  0  0  0  0  0  0  0  0  0
   -0.8814   -1.4088    0.0029 C   0  0  0  0  0  0  0  0  0  0  0  0
   -4.5070    3.7169   -2.9117 H   0  0  0  0  0  0  0  0  0  0  0  0
    0.9652    1.9047   -0.9006 H   0  0  0  0  0  0  0  0  0  0  0  0
    4.2408   -0.4587    0.7184 H   0  0  0  0  0  0  0  0  0  0  0  0
    3.2390   -1.7668    0.0378 H   0  0  0  0  0  0  0  0  0  0  0  0
    2.8927   -1.1281    1.6726 H   0  0  0  0  0  0  0  0  0  0  0  0
    1.0221   -2.0962    0.6777 H   0  0  0  0  0  0  0  0  0  0  0  0
   -1.4128   -2.3255    0.2485 H   0  0  0  0  0  0  0  0  0  0  0  0
   -8.1020    3.9185   -1.3101 C   0  0  0  0  0  0  0  0  0  0  0  0
   -9.3118    4.5677   -1.0822 C   0  0  0  0  0  0  0  0  0  0  0  0
  -10.2752    4.6857   -2.0965 C   0  0  0  0  0  0  0  0  0  0  0  0
   -9.9956    4.1324   -3.3536 C   0  0  0  0  0  0  0  0  0  0  0  0
   -8.7906    3.4773   -3.6022 C   0  0  0  0  0  0  0  0  0  0  0  0
   -7.8526    3.3817   -2.5748 C   0  0  0  0  0  0  0  0  0  0  0  0
   -7.3635    3.8170   -0.5220 H   0  0  0  0  0  0  0  0  0  0  0  0
   -9.5132    4.9891   -0.1010 H   0  0  0  0  0  0  0  0  0  0  0  0
  -10.7314    4.2131   -4.1494 H   0  0  0  0  0  0  0  0  0  0  0  0
   -8.5782    3.0399   -4.5712 H   0  0  0  0  0  0  0  0  0  0  0  0
   -6.3049    2.5569   -2.8826 S   0  0  0  0  0  0  0  0  0  0  0  0
   -5.7499    2.0467   -1.6269 O   0  0  0  0  0  0  0  0  0  0  0  0
   -5.3828    3.8504   -3.3141 O   0  0  0  0  0  0  0  0  0  0  0  0
   -6.4531    1.6883   -4.0440 O   0  0  0  0  0  0  0  0  0  0  0  0
  -11.5932    5.3697   -1.8261 C   0  0  0  0  0  0  0  0  0  0  0  0
  -12.2913    4.6884   -1.3235 H   0  0  0  0  0  0  0  0  0  0  0  0
  -11.4649    6.2399   -1.1751 H   0  0  0  0  0  0  0  0  0  0  0  0
  -12.0692    5.7032   -2.7518 H   0  0  0  0  0  0  0  0  0  0  0  0
  1 10  2  0  0  0  0
  2  1  1  0  0  0  0
  3  2  1  0  0  0  0
  4  5  2  0  0  0  0
  4  1  1  0  0  0  0
  5  6  1  0  0  0  0
  6  7  1  0  0  0  0
  6  9  2  0  0  0  0
  7  8  1  0  0  0  0
  8 13  1  0  0  0  0
  8 15  1  0  0  0  0
  9 16  1  0  0  0  0
 10  9  1  0  0  0  0
 10 17  1  0  0  0  0
 12  5  1  0  0  0  0
 14  8  1  0  0  0  0
 18 19  1  0  0  0  0
 18 24  1  0  0  0  0
 19 25  1  0  0  0  0
 20 32  1  0  0  0  0
 20 19  2  0  0  0  0
 21 20  1  0  0  0  0
 22 21  2  0  0  0  0
 22 23  1  0  0  0  0
 23 18  2  0  0  0  0
 26 21  1  0  0  0  0
 27 22  1  0  0  0  0
 28 23  1  0  0  0  0
 28 29  2  0  0  0  0
 30 11  1  0  0  0  0
 30 28  1  0  0  0  0
 31 28  2  0  0  0  0
 32 33  1  0  0  0  0
 32 34  1  0  0  0  0
 35 32  1  0  0  0  0
M  RAD  3   2   2   3   3   4   2
M  END
