Coordinates from ORCA-job 4-MeOPhN2+~TsO-_B3LYPG-6-31G_dp-CH-Scan-d09-49-n800
 OpenBabel11261919313D

 35 35  0  0  0  0  0  0  0  0999 V2000
   -2.0525   -0.2718   -0.1068 C   0  0  0  0  0  0  0  0  0  0  0  0
   -3.3917   -0.5306    0.0972 N   0  0  0  0  0  0  0  0  0  0  0  0
   -4.4874   -0.7076    0.2537 N   0  0  0  0  0  0  0  0  0  0  0  0
   -1.7657    1.0222   -0.6033 C   0  0  0  0  0  0  0  0  0  0  0  0
   -0.3773    1.1789   -0.7696 C   0  0  0  0  0  0  0  0  0  0  0  0
    0.5703    0.1840   -0.4831 C   0  0  0  0  0  0  0  0  0  0  0  0
    1.8678    0.5084   -0.7055 O   0  0  0  0  0  0  0  0  0  0  0  0
    2.8873   -0.4507   -0.4523 C   0  0  0  0  0  0  0  0  0  0  0  0
    0.1749   -1.0904    0.0135 C   0  0  0  0  0  0  0  0  0  0  0  0
   -1.1642   -1.3339    0.2102 C   0  0  0  0  0  0  0  0  0  0  0  0
   -4.0824    3.2239   -1.5491 H   0  0  0  0  0  0  0  0  0  0  0  0
    0.0299    2.1178   -1.1461 H   0  0  0  0  0  0  0  0  0  0  0  0
    3.8273    0.0388   -0.7104 H   0  0  0  0  0  0  0  0  0  0  0  0
    2.7647   -1.3447   -1.0751 H   0  0  0  0  0  0  0  0  0  0  0  0
    2.9129   -0.7444    0.6041 H   0  0  0  0  0  0  0  0  0  0  0  0
    0.9027   -1.8601    0.2368 H   0  0  0  0  0  0  0  0  0  0  0  0
   -1.5151   -2.2909    0.5886 H   0  0  0  0  0  0  0  0  0  0  0  0
   -8.1907    3.6551   -0.9561 C   0  0  0  0  0  0  0  0  0  0  0  0
   -9.3735    4.3646   -1.1403 C   0  0  0  0  0  0  0  0  0  0  0  0
   -9.8767    4.6161   -2.4270 C   0  0  0  0  0  0  0  0  0  0  0  0
   -9.1615    4.1354   -3.5318 C   0  0  0  0  0  0  0  0  0  0  0  0
   -7.9748    3.4222   -3.3684 C   0  0  0  0  0  0  0  0  0  0  0  0
   -7.4995    3.1934   -2.0781 C   0  0  0  0  0  0  0  0  0  0  0  0
   -7.8076    3.4504    0.0375 H   0  0  0  0  0  0  0  0  0  0  0  0
   -9.9181    4.7276   -0.2730 H   0  0  0  0  0  0  0  0  0  0  0  0
   -9.5392    4.3190   -4.5338 H   0  0  0  0  0  0  0  0  0  0  0  0
   -7.4261    3.0401   -4.2218 H   0  0  0  0  0  0  0  0  0  0  0  0
   -5.9866    2.2805   -1.8584 S   0  0  0  0  0  0  0  0  0  0  0  0
   -5.9827    1.6434   -0.5393 O   0  0  0  0  0  0  0  0  0  0  0  0
   -4.9588    3.5551   -1.8207 O   0  0  0  0  0  0  0  0  0  0  0  0
   -5.7215    1.4818   -3.0527 O   0  0  0  0  0  0  0  0  0  0  0  0
  -11.1731    5.3682   -2.6078 C   0  0  0  0  0  0  0  0  0  0  0  0
  -12.0297    4.7470   -2.3201 H   0  0  0  0  0  0  0  0  0  0  0  0
  -11.2027    6.2669   -1.9838 H   0  0  0  0  0  0  0  0  0  0  0  0
  -11.3185    5.6716   -3.6475 H   0  0  0  0  0  0  0  0  0  0  0  0
  1  2  1  0  0  0  0
  1 10  2  0  0  0  0
  2  3  1  0  0  0  0
  4  1  1  0  0  0  0
  5  4  2  0  0  0  0
  5  6  1  0  0  0  0
  6  9  2  0  0  0  0
  7  6  1  0  0  0  0
  7  8  1  0  0  0  0
  8 15  1  0  0  0  0
  9 10  1  0  0  0  0
  9 16  1  0  0  0  0
 10 17  1  0  0  0  0
 12  5  1  0  0  0  0
 13  8  1  0  0  0  0
 14  8  1  0  0  0  0
 18 24  1  0  0  0  0
 19 18  1  0  0  0  0
 19 25  1  0  0  0  0
 20 19  2  0  0  0  0
 21 22  2  0  0  0  0
 21 20  1  0  0  0  0
 22 23  1  0  0  0  0
 23 28  1  0  0  0  0
 23 18  2  0  0  0  0
 26 21  1  0  0  0  0
 27 22  1  0  0  0  0
 28 30  1  0  0  0  0
 28 29  2  0  0  0  0
 30 11  1  0  0  0  0
 31 28  2  0  0  0  0
 32 20  1  0  0  0  0
 32 33  1  0  0  0  0
 32 34  1  0  0  0  0
 35 32  1  0  0  0  0
M  RAD  3   2   2   3   3   4   2
M  END
