Coordinates from ORCA-job 4-MeOPhN2+~TsO-_B3LYPG-6-31G_dp-CH-Scan-d09-49-n800
 OpenBabel11261919313D

 35 35  0  0  0  0  0  0  0  0999 V2000
   -2.3369   -0.4078   -0.1861 C   0  0  0  0  0  0  0  0  0  0  0  0
   -3.6153   -0.8697    0.0321 N   0  0  0  0  0  0  0  0  0  0  0  0
   -4.6668   -1.2179    0.1981 N   0  0  0  0  0  0  0  0  0  0  0  0
   -2.2376    0.8587   -0.8123 C   0  0  0  0  0  0  0  0  0  0  0  0
   -0.8963    1.2308   -0.9836 C   0  0  0  0  0  0  0  0  0  0  0  0
    0.1942    0.4405   -0.5837 C   0  0  0  0  0  0  0  0  0  0  0  0
    1.4225    0.9522   -0.8263 O   0  0  0  0  0  0  0  0  0  0  0  0
    2.5821    0.2111   -0.4601 C   0  0  0  0  0  0  0  0  0  0  0  0
   -0.0033   -0.8231    0.0382 C   0  0  0  0  0  0  0  0  0  0  0  0
   -1.2900   -1.2636    0.2451 C   0  0  0  0  0  0  0  0  0  0  0  0
   -4.0359    2.1677   -1.5449 H   0  0  0  0  0  0  0  0  0  0  0  0
   -0.6440    2.1812   -1.4515 H   0  0  0  0  0  0  0  0  0  0  0  0
    3.4326    0.8266   -0.7551 H   0  0  0  0  0  0  0  0  0  0  0  0
    2.6298   -0.7476   -0.9893 H   0  0  0  0  0  0  0  0  0  0  0  0
    2.6220    0.0344    0.6215 H   0  0  0  0  0  0  0  0  0  0  0  0
    0.8328   -1.4364    0.3475 H   0  0  0  0  0  0  0  0  0  0  0  0
   -1.4884   -2.2228    0.7157 H   0  0  0  0  0  0  0  0  0  0  0  0
   -7.9584    3.4304   -0.9278 C   0  0  0  0  0  0  0  0  0  0  0  0
   -8.9773    4.3675   -1.0729 C   0  0  0  0  0  0  0  0  0  0  0  0
   -9.4501    4.7349   -2.3424 C   0  0  0  0  0  0  0  0  0  0  0  0
   -8.8735    4.1361   -3.4703 C   0  0  0  0  0  0  0  0  0  0  0  0
   -7.8520    3.1954   -3.3450 C   0  0  0  0  0  0  0  0  0  0  0  0
   -7.4006    2.8552   -2.0709 C   0  0  0  0  0  0  0  0  0  0  0  0
   -7.6012    3.1373    0.0532 H   0  0  0  0  0  0  0  0  0  0  0  0
   -9.4156    4.8203   -0.1876 H   0  0  0  0  0  0  0  0  0  0  0  0
   -9.2295    4.4077   -4.4603 H   0  0  0  0  0  0  0  0  0  0  0  0
   -7.4125    2.7229   -4.2162 H   0  0  0  0  0  0  0  0  0  0  0  0
   -6.0927    1.6555   -1.8998 S   0  0  0  0  0  0  0  0  0  0  0  0
   -6.2134    0.9924   -0.5942 O   0  0  0  0  0  0  0  0  0  0  0  0
   -4.8359    2.6701   -1.8547 O   0  0  0  0  0  0  0  0  0  0  0  0
   -6.0330    0.8364   -3.1107 O   0  0  0  0  0  0  0  0  0  0  0  0
  -10.5737    5.7337   -2.4820 C   0  0  0  0  0  0  0  0  0  0  0  0
  -11.5421    5.2690   -2.2591 H   0  0  0  0  0  0  0  0  0  0  0  0
  -10.4515    6.5717   -1.7885 H   0  0  0  0  0  0  0  0  0  0  0  0
  -10.6282    6.1367   -3.4966 H   0  0  0  0  0  0  0  0  0  0  0  0
  1  2  1  0  0  0  0
  1 10  2  0  0  0  0
  2  3  1  0  0  0  0
  4  1  1  0  0  0  0
  5  4  2  0  0  0  0
  5  6  1  0  0  0  0
  6  9  2  0  0  0  0
  7  6  1  0  0  0  0
  7  8  1  0  0  0  0
  8 15  1  0  0  0  0
  9 10  1  0  0  0  0
  9 16  1  0  0  0  0
 10 17  1  0  0  0  0
 12  5  1  0  0  0  0
 13  8  1  0  0  0  0
 14  8  1  0  0  0  0
 18 24  1  0  0  0  0
 19 18  1  0  0  0  0
 19 25  1  0  0  0  0
 20 19  2  0  0  0  0
 21 22  2  0  0  0  0
 21 20  1  0  0  0  0
 22 23  1  0  0  0  0
 23 28  1  0  0  0  0
 23 18  2  0  0  0  0
 26 21  1  0  0  0  0
 27 22  1  0  0  0  0
 28 30  1  0  0  0  0
 28 29  2  0  0  0  0
 30 11  1  0  0  0  0
 31 28  2  0  0  0  0
 32 20  1  0  0  0  0
 32 33  1  0  0  0  0
 32 34  1  0  0  0  0
 35 32  1  0  0  0  0
M  RAD  3   2   2   3   3   4   2
M  END
