Coordinates from ORCA-job 4-MeOPhN2+~TsO-_B3LYPG-6-31G_dp-CH-Scan-d09-49-n800
 OpenBabel11261919313D

 35 35  0  0  0  0  0  0  0  0999 V2000
   -1.5293   -0.2833   -0.5764 C   0  0  0  0  0  0  0  0  0  0  0  0
   -2.8827   -0.4165   -0.8165 N   0  0  0  0  0  0  0  0  0  0  0  0
   -3.9823   -0.4769   -1.0310 N   0  0  0  0  0  0  0  0  0  0  0  0
   -1.0022    0.9731   -0.9552 C   0  0  0  0  0  0  0  0  0  0  0  0
    0.3784    1.0116   -0.6753 C   0  0  0  0  0  0  0  0  0  0  0  0
    1.1005   -0.0480   -0.1065 C   0  0  0  0  0  0  0  0  0  0  0  0
    2.4260    0.1647    0.0923 O   0  0  0  0  0  0  0  0  0  0  0  0
    3.2273   -0.8617    0.6636 C   0  0  0  0  0  0  0  0  0  0  0  0
    0.4647   -1.2757    0.2386 C   0  0  0  0  0  0  0  0  0  0  0  0
   -0.8833   -1.4087    0.0019 C   0  0  0  0  0  0  0  0  0  0  0  0
   -4.5049    3.7138   -2.9144 H   0  0  0  0  0  0  0  0  0  0  0  0
    0.9611    1.9061   -0.9015 H   0  0  0  0  0  0  0  0  0  0  0  0
    4.2378   -0.4543    0.7199 H   0  0  0  0  0  0  0  0  0  0  0  0
    3.2375   -1.7633    0.0390 H   0  0  0  0  0  0  0  0  0  0  0  0
    2.8897   -1.1246    1.6734 H   0  0  0  0  0  0  0  0  0  0  0  0
    1.0205   -2.0944    0.6778 H   0  0  0  0  0  0  0  0  0  0  0  0
   -1.4141   -2.3258    0.2475 H   0  0  0  0  0  0  0  0  0  0  0  0
   -8.0996    3.9166   -1.3098 C   0  0  0  0  0  0  0  0  0  0  0  0
   -9.3089    4.5664   -1.0813 C   0  0  0  0  0  0  0  0  0  0  0  0
  -10.2725    4.6855   -2.0953 C   0  0  0  0  0  0  0  0  0  0  0  0
   -9.9936    4.1327   -3.3528 C   0  0  0  0  0  0  0  0  0  0  0  0
   -8.7891    3.4771   -3.6020 C   0  0  0  0  0  0  0  0  0  0  0  0
   -7.8509    3.3803   -2.5749 C   0  0  0  0  0  0  0  0  0  0  0  0
   -7.3610    3.8143   -0.5220 H   0  0  0  0  0  0  0  0  0  0  0  0
   -9.5099    4.9873   -0.0998 H   0  0  0  0  0  0  0  0  0  0  0  0
  -10.7296    4.2142   -4.1483 H   0  0  0  0  0  0  0  0  0  0  0  0
   -8.5772    3.0400   -4.5713 H   0  0  0  0  0  0  0  0  0  0  0  0
   -6.3037    2.5548   -2.8836 S   0  0  0  0  0  0  0  0  0  0  0  0
   -5.7486    2.0437   -1.6282 O   0  0  0  0  0  0  0  0  0  0  0  0
   -5.3815    3.8484   -3.3148 O   0  0  0  0  0  0  0  0  0  0  0  0
   -6.4526    1.6868   -4.0453 O   0  0  0  0  0  0  0  0  0  0  0  0
  -11.5901    5.3701   -1.8241 C   0  0  0  0  0  0  0  0  0  0  0  0
  -12.2886    4.6887   -1.3222 H   0  0  0  0  0  0  0  0  0  0  0  0
  -11.4612    6.2396   -1.1723 H   0  0  0  0  0  0  0  0  0  0  0  0
  -12.0659    5.7048   -2.7495 H   0  0  0  0  0  0  0  0  0  0  0  0
  1 10  2  0  0  0  0
  2  1  1  0  0  0  0
  3  2  1  0  0  0  0
  4  5  2  0  0  0  0
  4  1  1  0  0  0  0
  5  6  1  0  0  0  0
  6  7  1  0  0  0  0
  6  9  2  0  0  0  0
  7  8  1  0  0  0  0
  8 13  1  0  0  0  0
  8 15  1  0  0  0  0
  9 16  1  0  0  0  0
 10  9  1  0  0  0  0
 10 17  1  0  0  0  0
 12  5  1  0  0  0  0
 14  8  1  0  0  0  0
 18 19  1  0  0  0  0
 18 24  1  0  0  0  0
 19 25  1  0  0  0  0
 20 32  1  0  0  0  0
 20 19  2  0  0  0  0
 21 20  1  0  0  0  0
 22 21  2  0  0  0  0
 22 23  1  0  0  0  0
 23 18  2  0  0  0  0
 26 21  1  0  0  0  0
 27 22  1  0  0  0  0
 28 23  1  0  0  0  0
 28 29  2  0  0  0  0
 30 11  1  0  0  0  0
 30 28  1  0  0  0  0
 31 28  2  0  0  0  0
 32 33  1  0  0  0  0
 32 34  1  0  0  0  0
 35 32  1  0  0  0  0
M  RAD  3   2   2   3   3   4   2
M  END
