Coordinates from ORCA-job 4-MeOPhN2+~TsO-_B3LYPG-6-31G_dp-CH-Scan-d09-49-n800
 OpenBabel11261919313D

 35 35  0  0  0  0  0  0  0  0999 V2000
   -2.0548   -0.2725   -0.1057 C   0  0  0  0  0  0  0  0  0  0  0  0
   -3.3935   -0.5328    0.0998 N   0  0  0  0  0  0  0  0  0  0  0  0
   -4.4890   -0.7124    0.2547 N   0  0  0  0  0  0  0  0  0  0  0  0
   -1.7699    1.0212   -0.6041 C   0  0  0  0  0  0  0  0  0  0  0  0
   -0.3819    1.1796   -0.7717 C   0  0  0  0  0  0  0  0  0  0  0  0
    0.5672    0.1862   -0.4846 C   0  0  0  0  0  0  0  0  0  0  0  0
    1.8640    0.5120   -0.7084 O   0  0  0  0  0  0  0  0  0  0  0  0
    2.8850   -0.4455   -0.4546 C   0  0  0  0  0  0  0  0  0  0  0  0
    0.1737   -1.0881    0.0139 C   0  0  0  0  0  0  0  0  0  0  0  0
   -1.1649   -1.3330    0.2119 C   0  0  0  0  0  0  0  0  0  0  0  0
   -4.0820    3.2144   -1.5459 H   0  0  0  0  0  0  0  0  0  0  0  0
    0.0237    2.1185   -1.1495 H   0  0  0  0  0  0  0  0  0  0  0  0
    3.8242    0.0449   -0.7139 H   0  0  0  0  0  0  0  0  0  0  0  0
    2.7632   -1.3404   -1.0762 H   0  0  0  0  0  0  0  0  0  0  0  0
    2.9117   -0.7378    0.6022 H   0  0  0  0  0  0  0  0  0  0  0  0
    0.9026   -1.8565    0.2377 H   0  0  0  0  0  0  0  0  0  0  0  0
   -1.5144   -2.2900    0.5919 H   0  0  0  0  0  0  0  0  0  0  0  0
   -8.1900    3.6521   -0.9557 C   0  0  0  0  0  0  0  0  0  0  0  0
   -9.3715    4.3637   -1.1402 C   0  0  0  0  0  0  0  0  0  0  0  0
   -9.8733    4.6173   -2.4270 C   0  0  0  0  0  0  0  0  0  0  0  0
   -9.1580    4.1366   -3.5317 C   0  0  0  0  0  0  0  0  0  0  0  0
   -7.9726    3.4213   -3.3681 C   0  0  0  0  0  0  0  0  0  0  0  0
   -7.4987    3.1904   -2.0776 C   0  0  0  0  0  0  0  0  0  0  0  0
   -7.8081    3.4457    0.0380 H   0  0  0  0  0  0  0  0  0  0  0  0
   -9.9162    4.7267   -0.2729 H   0  0  0  0  0  0  0  0  0  0  0  0
   -9.5346    4.3218   -4.5338 H   0  0  0  0  0  0  0  0  0  0  0  0
   -7.4238    3.0391   -4.2214 H   0  0  0  0  0  0  0  0  0  0  0  0
   -5.9875    2.2747   -1.8576 S   0  0  0  0  0  0  0  0  0  0  0  0
   -5.9859    1.6361   -0.5392 O   0  0  0  0  0  0  0  0  0  0  0  0
   -4.9576    3.5475   -1.8176 O   0  0  0  0  0  0  0  0  0  0  0  0
   -5.7227    1.4768   -3.0526 O   0  0  0  0  0  0  0  0  0  0  0  0
  -11.1683    5.3718   -2.6081 C   0  0  0  0  0  0  0  0  0  0  0  0
  -12.0261    4.7520   -2.3207 H   0  0  0  0  0  0  0  0  0  0  0  0
  -11.1965    6.2703   -1.9840 H   0  0  0  0  0  0  0  0  0  0  0  0
  -11.3129    5.6756   -3.6478 H   0  0  0  0  0  0  0  0  0  0  0  0
  1  2  1  0  0  0  0
  1 10  2  0  0  0  0
  2  3  1  0  0  0  0
  4  1  1  0  0  0  0
  5  4  2  0  0  0  0
  5  6  1  0  0  0  0
  6  9  2  0  0  0  0
  7  6  1  0  0  0  0
  7  8  1  0  0  0  0
  8 15  1  0  0  0  0
  9 10  1  0  0  0  0
  9 16  1  0  0  0  0
 10 17  1  0  0  0  0
 12  5  1  0  0  0  0
 13  8  1  0  0  0  0
 14  8  1  0  0  0  0
 18 24  1  0  0  0  0
 19 18  1  0  0  0  0
 19 25  1  0  0  0  0
 20 19  2  0  0  0  0
 21 22  2  0  0  0  0
 21 20  1  0  0  0  0
 22 23  1  0  0  0  0
 23 28  1  0  0  0  0
 23 18  2  0  0  0  0
 26 21  1  0  0  0  0
 27 22  1  0  0  0  0
 28 30  1  0  0  0  0
 28 29  2  0  0  0  0
 30 11  1  0  0  0  0
 31 28  2  0  0  0  0
 32 20  1  0  0  0  0
 32 33  1  0  0  0  0
 32 34  1  0  0  0  0
 35 32  1  0  0  0  0
M  RAD  3   2   2   3   3   4   2
M  END
