Coordinates from ORCA-job 4-MeOPhN2+~TsO-_B3LYPG-6-31G_dp-CH-Scan-d09-49-n800
 OpenBabel11261919303D

 35 35  0  0  0  0  0  0  0  0999 V2000
   -2.7956   -0.0815   -0.3613 C   0  0  0  0  0  0  0  0  0  0  0  0
   -4.1562   -0.3538   -0.3624 N   0  0  0  0  0  0  0  0  0  0  0  0
   -5.2491   -0.0150   -0.3666 N   0  0  0  0  0  0  0  0  0  0  0  0
   -2.3288    1.2509   -0.3156 C   0  0  0  0  0  0  0  0  0  0  0  0
   -0.9630    1.4518   -0.3211 C   0  0  0  0  0  0  0  0  0  0  0  0
   -0.0655    0.3654   -0.3729 C   0  0  0  0  0  0  0  0  0  0  0  0
    1.2397    0.6933   -0.3740 O   0  0  0  0  0  0  0  0  0  0  0  0
    2.2197   -0.3409   -0.4407 C   0  0  0  0  0  0  0  0  0  0  0  0
   -0.5521   -0.9549   -0.4181 C   0  0  0  0  0  0  0  0  0  0  0  0
   -1.9215   -1.1740   -0.4116 C   0  0  0  0  0  0  0  0  0  0  0  0
   -2.9154    1.9526   -0.2858 H   0  0  0  0  0  0  0  0  0  0  0  0
   -0.5575    2.4574   -0.2943 H   0  0  0  0  0  0  0  0  0  0  0  0
    3.1842    0.1660   -0.4330 H   0  0  0  0  0  0  0  0  0  0  0  0
    2.1211   -0.9223   -1.3645 H   0  0  0  0  0  0  0  0  0  0  0  0
    2.1525   -1.0092    0.4259 H   0  0  0  0  0  0  0  0  0  0  0  0
    0.1222   -1.8004   -0.4598 H   0  0  0  0  0  0  0  0  0  0  0  0
   -2.3224   -2.1810   -0.4494 H   0  0  0  0  0  0  0  0  0  0  0  0
   -7.1632    4.5954   -1.5646 C   0  0  0  0  0  0  0  0  0  0  0  0
   -8.4451    5.0940   -1.7879 C   0  0  0  0  0  0  0  0  0  0  0  0
   -9.4193    4.3246   -2.4406 C   0  0  0  0  0  0  0  0  0  0  0  0
   -9.0699    3.0392   -2.8769 C   0  0  0  0  0  0  0  0  0  0  0  0
   -7.7914    2.5267   -2.6598 C   0  0  0  0  0  0  0  0  0  0  0  0
   -6.8438    3.3078   -1.9985 C   0  0  0  0  0  0  0  0  0  0  0  0
   -6.4043    5.1987   -1.0782 H   0  0  0  0  0  0  0  0  0  0  0  0
   -8.6922    6.0997   -1.4574 H   0  0  0  0  0  0  0  0  0  0  0  0
   -9.8070    2.4336   -3.3987 H   0  0  0  0  0  0  0  0  0  0  0  0
   -7.5161    1.5397   -3.0147 H   0  0  0  0  0  0  0  0  0  0  0  0
   -5.2054    2.6466   -1.6817 S   0  0  0  0  0  0  0  0  0  0  0  0
   -5.3006    2.0172   -0.2691 O   0  0  0  0  0  0  0  0  0  0  0  0
   -4.2761    3.7922   -1.6385 O   0  0  0  0  0  0  0  0  0  0  0  0
   -4.9486    1.5958   -2.6899 O   0  0  0  0  0  0  0  0  0  0  0  0
  -10.8146    4.8627   -2.6523 C   0  0  0  0  0  0  0  0  0  0  0  0
  -11.4540    4.6570   -1.7838 H   0  0  0  0  0  0  0  0  0  0  0  0
  -10.8076    5.9473   -2.7994 H   0  0  0  0  0  0  0  0  0  0  0  0
  -11.2927    4.4048   -3.5231 H   0  0  0  0  0  0  0  0  0  0  0  0
  1  4  2  0  0  0  0
  2  1  1  0  0  0  0
  3  2  2  0  0  0  0
  4 11  1  0  0  0  0
  5  4  1  0  0  0  0
  5 12  1  0  0  0  0
  6  5  2  0  0  0  0
  7  6  1  0  0  0  0
  8 13  1  0  0  0  0
  8  7  1  0  0  0  0
  8 15  1  0  0  0  0
  9 10  2  0  0  0  0
  9  6  1  0  0  0  0
 10  1  1  0  0  0  0
 14  8  1  0  0  0  0
 16  9  1  0  0  0  0
 17 10  1  0  0  0  0
 18 24  1  0  0  0  0
 19 18  1  0  0  0  0
 19 25  1  0  0  0  0
 20 19  2  0  0  0  0
 21 22  2  0  0  0  0
 21 20  1  0  0  0  0
 22 23  1  0  0  0  0
 23 28  1  0  0  0  0
 23 18  2  0  0  0  0
 26 21  1  0  0  0  0
 27 22  1  0  0  0  0
 28 30  2  0  0  0  0
 28 29  1  0  0  0  0
 31 28  2  0  0  0  0
 32 20  1  0  0  0  0
 32 33  1  0  0  0  0
 34 32  1  0  0  0  0
 35 32  1  0  0  0  0
M  RAD  2   3   2  29   2
M  END
