Coordinates from ORCA-job 4-MeOPhN2+~TsO-_B3LYPG-6-31G_dp-CH-Scan-d09-49-n800
 OpenBabel11261919313D

 35 35  0  0  0  0  0  0  0  0999 V2000
   -2.6075   -0.4936   -0.2994 C   0  0  0  0  0  0  0  0  0  0  0  0
   -3.8233   -1.1058   -0.1051 N   0  0  0  0  0  0  0  0  0  0  0  0
   -4.8337   -1.5655    0.0329 N   0  0  0  0  0  0  0  0  0  0  0  0
   -2.6071    0.7143   -1.0389 C   0  0  0  0  0  0  0  0  0  0  0  0
   -1.3275    1.2522   -1.1812 C   0  0  0  0  0  0  0  0  0  0  0  0
   -0.1721    0.6532   -0.6475 C   0  0  0  0  0  0  0  0  0  0  0  0
    0.9883    1.3000   -0.8762 O   0  0  0  0  0  0  0  0  0  0  0  0
    2.2109    0.7596   -0.3793 C   0  0  0  0  0  0  0  0  0  0  0  0
   -0.2521   -0.5620    0.0820 C   0  0  0  0  0  0  0  0  0  0  0  0
   -1.4845   -1.1494    0.2613 C   0  0  0  0  0  0  0  0  0  0  0  0
   -3.8951    1.4190   -1.6894 H   0  0  0  0  0  0  0  0  0  0  0  0
   -1.1829    2.1804   -1.7294 H   0  0  0  0  0  0  0  0  0  0  0  0
    2.9903    1.4521   -0.6973 H   0  0  0  0  0  0  0  0  0  0  0  0
    2.4119   -0.2308   -0.8036 H   0  0  0  0  0  0  0  0  0  0  0  0
    2.2044    0.6971    0.7151 H   0  0  0  0  0  0  0  0  0  0  0  0
    0.6318   -1.0309    0.4940 H   0  0  0  0  0  0  0  0  0  0  0  0
   -1.5883   -2.0804    0.8105 H   0  0  0  0  0  0  0  0  0  0  0  0
   -7.6034    3.2781   -0.9307 C   0  0  0  0  0  0  0  0  0  0  0  0
   -8.4890    4.3506   -1.0005 C   0  0  0  0  0  0  0  0  0  0  0  0
   -9.0383    4.7592   -2.2253 C   0  0  0  0  0  0  0  0  0  0  0  0
   -8.6755    4.0615   -3.3849 C   0  0  0  0  0  0  0  0  0  0  0  0
   -7.7915    2.9846   -3.3320 C   0  0  0  0  0  0  0  0  0  0  0  0
   -7.2573    2.6030   -2.1021 C   0  0  0  0  0  0  0  0  0  0  0  0
   -7.1894    2.9537    0.0175 H   0  0  0  0  0  0  0  0  0  0  0  0
   -8.7621    4.8781   -0.0899 H   0  0  0  0  0  0  0  0  0  0  0  0
   -9.0935    4.3626   -4.3419 H   0  0  0  0  0  0  0  0  0  0  0  0
   -7.5214    2.4348   -4.2269 H   0  0  0  0  0  0  0  0  0  0  0  0
   -6.1073    1.2338   -2.0317 S   0  0  0  0  0  0  0  0  0  0  0  0
   -6.1955    0.6320   -0.6831 O   0  0  0  0  0  0  0  0  0  0  0  0
   -4.7304    1.9742   -2.1792 O   0  0  0  0  0  0  0  0  0  0  0  0
   -6.3673    0.3640   -3.1850 O   0  0  0  0  0  0  0  0  0  0  0  0
  -10.0221    5.9034   -2.2841 C   0  0  0  0  0  0  0  0  0  0  0  0
  -11.0296    5.5724   -2.0021 H   0  0  0  0  0  0  0  0  0  0  0  0
   -9.7429    6.7074   -1.5959 H   0  0  0  0  0  0  0  0  0  0  0  0
  -10.0868    6.3246   -3.2912 H   0  0  0  0  0  0  0  0  0  0  0  0
  1  2  1  0  0  0  0
  1 10  2  0  0  0  0
  2  3  1  0  0  0  0
  4  1  1  0  0  0  0
  5  4  2  0  0  0  0
  5  6  1  0  0  0  0
  6  9  2  0  0  0  0
  7  6  1  0  0  0  0
  7  8  1  0  0  0  0
  8 15  1  0  0  0  0
  9 10  1  0  0  0  0
  9 16  1  0  0  0  0
 10 17  1  0  0  0  0
 12  5  1  0  0  0  0
 13  8  1  0  0  0  0
 14  8  1  0  0  0  0
 18 24  1  0  0  0  0
 19 18  1  0  0  0  0
 19 25  1  0  0  0  0
 20 19  2  0  0  0  0
 21 22  2  0  0  0  0
 21 20  1  0  0  0  0
 22 23  1  0  0  0  0
 23 28  1  0  0  0  0
 23 18  2  0  0  0  0
 26 21  1  0  0  0  0
 27 22  1  0  0  0  0
 28 29  2  0  0  0  0
 30 28  1  0  0  0  0
 30 11  1  0  0  0  0
 31 28  2  0  0  0  0
 32 20  1  0  0  0  0
 32 33  1  0  0  0  0
 32 34  1  0  0  0  0
 35 32  1  0  0  0  0
M  RAD  3   2   2   3   3   4   2
M  END
