Coordinates from ORCA-job 4-MeOPhN2+~TsO-_B3LYPG-6-31G_dp-CH-Scan-d09-49-n800
 OpenBabel11261919313D

 35 35  0  0  0  0  0  0  0  0999 V2000
   -2.1278   -0.3091   -0.1076 C   0  0  0  0  0  0  0  0  0  0  0  0
   -3.4509   -0.6250    0.1144 N   0  0  0  0  0  0  0  0  0  0  0  0
   -4.5351   -0.8507    0.2864 N   0  0  0  0  0  0  0  0  0  0  0  0
   -1.8990    0.9819   -0.6416 C   0  0  0  0  0  0  0  0  0  0  0  0
   -0.5219    1.1977   -0.8239 C   0  0  0  0  0  0  0  0  0  0  0  0
    0.4718    0.2548   -0.5167 C   0  0  0  0  0  0  0  0  0  0  0  0
    1.7509    0.6315   -0.7573 O   0  0  0  0  0  0  0  0  0  0  0  0
    2.8160   -0.2705   -0.4803 C   0  0  0  0  0  0  0  0  0  0  0  0
    0.1371   -1.0213    0.0178 C   0  0  0  0  0  0  0  0  0  0  0  0
   -1.1885   -1.3192    0.2310 C   0  0  0  0  0  0  0  0  0  0  0  0
   -4.0713    2.9133   -1.4887 H   0  0  0  0  0  0  0  0  0  0  0  0
   -0.1612    2.1432   -1.2290 H   0  0  0  0  0  0  0  0  0  0  0  0
    3.7306    0.2558   -0.7561 H   0  0  0  0  0  0  0  0  0  0  0  0
    2.7344   -1.1868   -1.0766 H   0  0  0  0  0  0  0  0  0  0  0  0
    2.8577   -0.5314    0.5842 H   0  0  0  0  0  0  0  0  0  0  0  0
    0.9001   -1.7508    0.2571 H   0  0  0  0  0  0  0  0  0  0  0  0
   -1.4931   -2.2803    0.6377 H   0  0  0  0  0  0  0  0  0  0  0  0
   -8.1458    3.5842   -0.9500 C   0  0  0  0  0  0  0  0  0  0  0  0
   -9.2853    4.3623   -1.1300 C   0  0  0  0  0  0  0  0  0  0  0  0
   -9.7676    4.6573   -2.4154 C   0  0  0  0  0  0  0  0  0  0  0  0
   -9.0760    4.1498   -3.5230 C   0  0  0  0  0  0  0  0  0  0  0  0
   -7.9321    3.3684   -3.3636 C   0  0  0  0  0  0  0  0  0  0  0  0
   -7.4765    3.0973   -2.0747 C   0  0  0  0  0  0  0  0  0  0  0  0
   -7.7802    3.3456    0.0426 H   0  0  0  0  0  0  0  0  0  0  0  0
   -9.8123    4.7452   -0.2603 H   0  0  0  0  0  0  0  0  0  0  0  0
   -9.4381    4.3662   -4.5242 H   0  0  0  0  0  0  0  0  0  0  0  0
   -7.4020    2.9658   -4.2193 H   0  0  0  0  0  0  0  0  0  0  0  0
   -6.0197    2.0950   -1.8604 S   0  0  0  0  0  0  0  0  0  0  0  0
   -6.0778    1.4172   -0.5621 O   0  0  0  0  0  0  0  0  0  0  0  0
   -4.9243    3.3028   -1.7659 O   0  0  0  0  0  0  0  0  0  0  0  0
   -5.7836    1.3159   -3.0741 O   0  0  0  0  0  0  0  0  0  0  0  0
  -11.0180    5.4849   -2.5918 C   0  0  0  0  0  0  0  0  0  0  0  0
  -11.9085    4.9176   -2.2958 H   0  0  0  0  0  0  0  0  0  0  0  0
  -10.9902    6.3863   -1.9715 H   0  0  0  0  0  0  0  0  0  0  0  0
  -11.1514    5.7927   -3.6317 H   0  0  0  0  0  0  0  0  0  0  0  0
  1  2  1  0  0  0  0
  1 10  2  0  0  0  0
  2  3  1  0  0  0  0
  4  1  1  0  0  0  0
  5  4  2  0  0  0  0
  5  6  1  0  0  0  0
  6  9  2  0  0  0  0
  7  6  1  0  0  0  0
  7  8  1  0  0  0  0
  8 15  1  0  0  0  0
  9 10  1  0  0  0  0
  9 16  1  0  0  0  0
 10 17  1  0  0  0  0
 12  5  1  0  0  0  0
 13  8  1  0  0  0  0
 14  8  1  0  0  0  0
 18 24  1  0  0  0  0
 19 18  1  0  0  0  0
 19 25  1  0  0  0  0
 20 19  2  0  0  0  0
 21 22  2  0  0  0  0
 21 20  1  0  0  0  0
 22 23  1  0  0  0  0
 23 28  1  0  0  0  0
 23 18  2  0  0  0  0
 26 21  1  0  0  0  0
 27 22  1  0  0  0  0
 28 30  1  0  0  0  0
 28 29  2  0  0  0  0
 30 11  1  0  0  0  0
 31 28  2  0  0  0  0
 32 20  1  0  0  0  0
 32 33  1  0  0  0  0
 32 34  1  0  0  0  0
 35 32  1  0  0  0  0
M  RAD  3   2   2   3   3   4   2
M  END
