Coordinates from ORCA-job 4-MeOPhN2+~TsO-_B3LYPG-6-31G_dp-CH-Scan-d09-49-n800
 OpenBabel11261919313D

 35 35  0  0  0  0  0  0  0  0999 V2000
   -2.4364   -0.4348   -0.2014 C   0  0  0  0  0  0  0  0  0  0  0  0
   -3.6924   -0.9494    0.0254 N   0  0  0  0  0  0  0  0  0  0  0  0
   -4.7285   -1.3379    0.1963 N   0  0  0  0  0  0  0  0  0  0  0  0
   -2.3857    0.8250   -0.8477 C   0  0  0  0  0  0  0  0  0  0  0  0
   -1.0637    1.2519   -1.0272 C   0  0  0  0  0  0  0  0  0  0  0  0
    0.0598    0.5146   -0.6159 C   0  0  0  0  0  0  0  0  0  0  0  0
    1.2636    1.0741   -0.8687 O   0  0  0  0  0  0  0  0  0  0  0  0
    2.4550    0.3891   -0.4937 C   0  0  0  0  0  0  0  0  0  0  0  0
   -0.0851   -0.7455    0.0256 C   0  0  0  0  0  0  0  0  0  0  0  0
   -1.3524   -1.2362    0.2404 C   0  0  0  0  0  0  0  0  0  0  0  0
   -3.9964    1.9244   -1.5005 H   0  0  0  0  0  0  0  0  0  0  0  0
   -0.8549    2.2045   -1.5110 H   0  0  0  0  0  0  0  0  0  0  0  0
    3.2775    1.0356   -0.8013 H   0  0  0  0  0  0  0  0  0  0  0  0
    2.5419   -0.5750   -1.0077 H   0  0  0  0  0  0  0  0  0  0  0  0
    2.5042    0.2323    0.5905 H   0  0  0  0  0  0  0  0  0  0  0  0
    0.7757   -1.3189    0.3436 H   0  0  0  0  0  0  0  0  0  0  0  0
   -1.5100   -2.1954    0.7254 H   0  0  0  0  0  0  0  0  0  0  0  0
   -7.8794    3.3682   -0.9099 C   0  0  0  0  0  0  0  0  0  0  0  0
   -8.8575    4.3484   -1.0532 C   0  0  0  0  0  0  0  0  0  0  0  0
   -9.3106    4.7413   -2.3220 C   0  0  0  0  0  0  0  0  0  0  0  0
   -8.7559    4.1239   -3.4509 C   0  0  0  0  0  0  0  0  0  0  0  0
   -7.7757    3.1402   -3.3267 C   0  0  0  0  0  0  0  0  0  0  0  0
   -7.3425    2.7746   -2.0534 C   0  0  0  0  0  0  0  0  0  0  0  0
   -7.5381    3.0554    0.0707 H   0  0  0  0  0  0  0  0  0  0  0  0
   -9.2790    4.8151   -0.1669 H   0  0  0  0  0  0  0  0  0  0  0  0
   -9.0970    4.4149   -4.4408 H   0  0  0  0  0  0  0  0  0  0  0  0
   -7.3539    2.6532   -4.1988 H   0  0  0  0  0  0  0  0  0  0  0  0
   -6.0840    1.5210   -1.8848 S   0  0  0  0  0  0  0  0  0  0  0  0
   -6.2460    0.8541   -0.5830 O   0  0  0  0  0  0  0  0  0  0  0  0
   -4.7875    2.4645   -1.8304 O   0  0  0  0  0  0  0  0  0  0  0  0
   -6.0664    0.7005   -3.0977 O   0  0  0  0  0  0  0  0  0  0  0  0
  -10.3923    5.7853   -2.4612 C   0  0  0  0  0  0  0  0  0  0  0  0
  -11.3828    5.3527   -2.2728 H   0  0  0  0  0  0  0  0  0  0  0  0
  -10.2554    6.6012   -1.7443 H   0  0  0  0  0  0  0  0  0  0  0  0
  -10.4080    6.2147   -3.4664 H   0  0  0  0  0  0  0  0  0  0  0  0
  1  2  1  0  0  0  0
  1 10  2  0  0  0  0
  2  3  1  0  0  0  0
  4  1  1  0  0  0  0
  5  4  2  0  0  0  0
  5  6  1  0  0  0  0
  6  9  2  0  0  0  0
  7  6  1  0  0  0  0
  7  8  1  0  0  0  0
  8 15  1  0  0  0  0
  9 10  1  0  0  0  0
  9 16  1  0  0  0  0
 10 17  1  0  0  0  0
 12  5  1  0  0  0  0
 13  8  1  0  0  0  0
 14  8  1  0  0  0  0
 18 24  1  0  0  0  0
 19 18  1  0  0  0  0
 19 25  1  0  0  0  0
 20 19  2  0  0  0  0
 21 22  2  0  0  0  0
 21 20  1  0  0  0  0
 22 23  1  0  0  0  0
 23 28  1  0  0  0  0
 23 18  2  0  0  0  0
 26 21  1  0  0  0  0
 27 22  1  0  0  0  0
 28 30  1  0  0  0  0
 28 29  2  0  0  0  0
 30 11  1  0  0  0  0
 31 28  2  0  0  0  0
 32 20  1  0  0  0  0
 32 33  1  0  0  0  0
 32 34  1  0  0  0  0
 35 32  1  0  0  0  0
M  RAD  3   2   2   3   3   4   2
M  END
