Coordinates from ORCA-job 4-MeOPhN2+~TsO-_B3LYPG-6-31G_dp-CH-Scan-d09-49-n800
 OpenBabel11261919313D

 35 35  0  0  0  0  0  0  0  0999 V2000
   -2.4631   -0.4400   -0.2040 C   0  0  0  0  0  0  0  0  0  0  0  0
   -3.7132   -0.9669    0.0259 N   0  0  0  0  0  0  0  0  0  0  0  0
   -4.7453   -1.3649    0.1984 N   0  0  0  0  0  0  0  0  0  0  0  0
   -2.4237    0.8158   -0.8589 C   0  0  0  0  0  0  0  0  0  0  0  0
   -1.1070    1.2560   -1.0411 C   0  0  0  0  0  0  0  0  0  0  0  0
    0.0242    0.5334   -0.6242 C   0  0  0  0  0  0  0  0  0  0  0  0
    1.2216    1.1041   -0.8804 O   0  0  0  0  0  0  0  0  0  0  0  0
    2.4204    0.4350   -0.4998 C   0  0  0  0  0  0  0  0  0  0  0  0
   -0.1081   -0.7234    0.0258 C   0  0  0  0  0  0  0  0  0  0  0  0
   -1.3704   -1.2259    0.2433 C   0  0  0  0  0  0  0  0  0  0  0  0
   -3.9828    1.8598   -1.4954 H   0  0  0  0  0  0  0  0  0  0  0  0
   -0.9091    2.2073   -1.5316 H   0  0  0  0  0  0  0  0  0  0  0  0
    3.2357    1.0881   -0.8120 H   0  0  0  0  0  0  0  0  0  0  0  0
    2.5180   -0.5319   -1.0066 H   0  0  0  0  0  0  0  0  0  0  0  0
    2.4705    0.2869    0.5855 H   0  0  0  0  0  0  0  0  0  0  0  0
    0.7584   -1.2857    0.3481 H   0  0  0  0  0  0  0  0  0  0  0  0
   -1.5181   -2.1835    0.7346 H   0  0  0  0  0  0  0  0  0  0  0  0
   -7.8550    3.3503   -0.9078 C   0  0  0  0  0  0  0  0  0  0  0  0
   -8.8227    4.3413   -1.0473 C   0  0  0  0  0  0  0  0  0  0  0  0
   -9.2737    4.7420   -2.3144 C   0  0  0  0  0  0  0  0  0  0  0  0
   -8.7274    4.1213   -3.4455 C   0  0  0  0  0  0  0  0  0  0  0  0
   -7.7577    3.1267   -3.3250 C   0  0  0  0  0  0  0  0  0  0  0  0
   -7.3262    2.7533   -2.0533 C   0  0  0  0  0  0  0  0  0  0  0  0
   -7.5157    3.0315    0.0715 H   0  0  0  0  0  0  0  0  0  0  0  0
   -9.2379    4.8105   -0.1592 H   0  0  0  0  0  0  0  0  0  0  0  0
   -9.0669    4.4182   -4.4342 H   0  0  0  0  0  0  0  0  0  0  0  0
   -7.3426    2.6371   -4.1988 H   0  0  0  0  0  0  0  0  0  0  0  0
   -6.0800    1.4862   -1.8898 S   0  0  0  0  0  0  0  0  0  0  0  0
   -6.2506    0.8168   -0.5895 O   0  0  0  0  0  0  0  0  0  0  0  0
   -4.7738    2.4095   -1.8345 O   0  0  0  0  0  0  0  0  0  0  0  0
   -6.0768    0.6669   -3.1042 O   0  0  0  0  0  0  0  0  0  0  0  0
  -10.3448    5.7975   -2.4496 C   0  0  0  0  0  0  0  0  0  0  0  0
  -11.3400    5.3736   -2.2660 H   0  0  0  0  0  0  0  0  0  0  0  0
  -10.2015    6.6078   -1.7278 H   0  0  0  0  0  0  0  0  0  0  0  0
  -10.3542    6.2327   -3.4525 H   0  0  0  0  0  0  0  0  0  0  0  0
  1  2  1  0  0  0  0
  1 10  2  0  0  0  0
  2  3  1  0  0  0  0
  4  1  1  0  0  0  0
  5  4  2  0  0  0  0
  5  6  1  0  0  0  0
  6  9  2  0  0  0  0
  7  6  1  0  0  0  0
  7  8  1  0  0  0  0
  8 15  1  0  0  0  0
  9 10  1  0  0  0  0
  9 16  1  0  0  0  0
 10 17  1  0  0  0  0
 12  5  1  0  0  0  0
 13  8  1  0  0  0  0
 14  8  1  0  0  0  0
 18 24  1  0  0  0  0
 19 18  1  0  0  0  0
 19 25  1  0  0  0  0
 20 19  2  0  0  0  0
 21 22  2  0  0  0  0
 21 20  1  0  0  0  0
 22 23  1  0  0  0  0
 23 28  1  0  0  0  0
 23 18  2  0  0  0  0
 26 21  1  0  0  0  0
 27 22  1  0  0  0  0
 28 30  1  0  0  0  0
 28 29  2  0  0  0  0
 30 11  1  0  0  0  0
 31 28  2  0  0  0  0
 32 20  1  0  0  0  0
 32 33  1  0  0  0  0
 32 34  1  0  0  0  0
 35 32  1  0  0  0  0
M  RAD  3   2   2   3   3   4   2
M  END
