Coordinates from ORCA-job 4-MeOPhN2+~TsO-_B3LYPG-6-31G_dp-CH-Scan-d09-49-n800
 OpenBabel11261919313D

 35 35  0  0  0  0  0  0  0  0999 V2000
   -1.6386   -0.3171   -0.5807 C   0  0  0  0  0  0  0  0  0  0  0  0
   -2.9898   -0.5000   -0.7994 N   0  0  0  0  0  0  0  0  0  0  0  0
   -4.0894   -0.6041   -0.9952 N   0  0  0  0  0  0  0  0  0  0  0  0
   -1.1559    0.9482   -0.9887 C   0  0  0  0  0  0  0  0  0  0  0  0
    0.2261    1.0351   -0.7272 C   0  0  0  0  0  0  0  0  0  0  0  0
    0.9887    0.0093   -0.1491 C   0  0  0  0  0  0  0  0  0  0  0  0
    2.3091    0.2675    0.0288 O   0  0  0  0  0  0  0  0  0  0  0  0
    3.1497   -0.7231    0.6069 C   0  0  0  0  0  0  0  0  0  0  0  0
    0.3967   -1.2315    0.2253 C   0  0  0  0  0  0  0  0  0  0  0  0
   -0.9493   -1.4107    0.0086 C   0  0  0  0  0  0  0  0  0  0  0  0
   -4.4131    3.5775   -2.8339 H   0  0  0  0  0  0  0  0  0  0  0  0
    0.7773    1.9431   -0.9767 H   0  0  0  0  0  0  0  0  0  0  0  0
    4.1473   -0.2829    0.6435 H   0  0  0  0  0  0  0  0  0  0  0  0
    3.1809   -1.6344   -0.0027 H   0  0  0  0  0  0  0  0  0  0  0  0
    2.8331   -0.9793    1.6253 H   0  0  0  0  0  0  0  0  0  0  0  0
    0.9835   -2.0245    0.6709 H   0  0  0  0  0  0  0  0  0  0  0  0
   -1.4474   -2.3398    0.2767 H   0  0  0  0  0  0  0  0  0  0  0  0
   -8.0546    3.8250   -1.2691 C   0  0  0  0  0  0  0  0  0  0  0  0
   -9.2531    4.4985   -1.0514 C   0  0  0  0  0  0  0  0  0  0  0  0
  -10.1812    4.6833   -2.0881 C   0  0  0  0  0  0  0  0  0  0  0  0
   -9.8782    4.1722   -3.3577 C   0  0  0  0  0  0  0  0  0  0  0  0
   -8.6845    3.4933   -3.5963 C   0  0  0  0  0  0  0  0  0  0  0  0
   -7.7814    3.3312   -2.5462 C   0  0  0  0  0  0  0  0  0  0  0  0
   -7.3432    3.6723   -0.4647 H   0  0  0  0  0  0  0  0  0  0  0  0
   -9.4730    4.8869   -0.0606 H   0  0  0  0  0  0  0  0  0  0  0  0
  -10.5867    4.3053   -4.1709 H   0  0  0  0  0  0  0  0  0  0  0  0
   -8.4548    3.0879   -4.5752 H   0  0  0  0  0  0  0  0  0  0  0  0
   -6.2485    2.4745   -2.8403 S   0  0  0  0  0  0  0  0  0  0  0  0
   -5.7372    1.9170   -1.5860 O   0  0  0  0  0  0  0  0  0  0  0  0
   -5.2893    3.7572   -3.2173 O   0  0  0  0  0  0  0  0  0  0  0  0
   -6.3910    1.6381   -4.0261 O   0  0  0  0  0  0  0  0  0  0  0  0
  -11.4883    5.3925   -1.8299 C   0  0  0  0  0  0  0  0  0  0  0  0
  -12.2211    4.7103   -1.3808 H   0  0  0  0  0  0  0  0  0  0  0  0
  -11.3579    6.2296   -1.1374 H   0  0  0  0  0  0  0  0  0  0  0  0
  -11.9243    5.7789   -2.7548 H   0  0  0  0  0  0  0  0  0  0  0  0
  1 10  2  0  0  0  0
  2  1  1  0  0  0  0
  3  2  1  0  0  0  0
  4  5  2  0  0  0  0
  4  1  1  0  0  0  0
  5  6  1  0  0  0  0
  6  7  1  0  0  0  0
  6  9  2  0  0  0  0
  7  8  1  0  0  0  0
  8 13  1  0  0  0  0
  8 15  1  0  0  0  0
  9 16  1  0  0  0  0
 10  9  1  0  0  0  0
 10 17  1  0  0  0  0
 12  5  1  0  0  0  0
 14  8  1  0  0  0  0
 18 19  1  0  0  0  0
 18 24  1  0  0  0  0
 19 25  1  0  0  0  0
 20 32  1  0  0  0  0
 20 19  2  0  0  0  0
 21 20  1  0  0  0  0
 22 21  2  0  0  0  0
 22 23  1  0  0  0  0
 23 18  2  0  0  0  0
 26 21  1  0  0  0  0
 27 22  1  0  0  0  0
 28 23  1  0  0  0  0
 28 29  2  0  0  0  0
 30 28  1  0  0  0  0
 30 11  1  0  0  0  0
 31 28  2  0  0  0  0
 32 33  1  0  0  0  0
 32 34  1  0  0  0  0
 35 32  1  0  0  0  0
M  RAD  3   2   2   3   3   4   2
M  END
