Coordinates from ORCA-job 4-MeOPhN2+~TsO-_B3LYPG-6-31G_dp-CH-Scan-d09-49-n800
 OpenBabel11261919313D

 35 35  0  0  0  0  0  0  0  0999 V2000
   -2.3132   -0.3997   -0.1814 C   0  0  0  0  0  0  0  0  0  0  0  0
   -3.5970   -0.8477    0.0353 N   0  0  0  0  0  0  0  0  0  0  0  0
   -4.6523   -1.1848    0.2005 N   0  0  0  0  0  0  0  0  0  0  0  0
   -2.2011    0.8683   -0.8022 C   0  0  0  0  0  0  0  0  0  0  0  0
   -0.8551    1.2257   -0.9721 C   0  0  0  0  0  0  0  0  0  0  0  0
    0.2264    0.4216   -0.5760 C   0  0  0  0  0  0  0  0  0  0  0  0
    1.4607    0.9205   -0.8165 O   0  0  0  0  0  0  0  0  0  0  0  0
    2.6117    0.1651   -0.4529 C   0  0  0  0  0  0  0  0  0  0  0  0
    0.0152   -0.8426    0.0406 C   0  0  0  0  0  0  0  0  0  0  0  0
   -1.2762   -1.2696    0.2461 C   0  0  0  0  0  0  0  0  0  0  0  0
   -4.0424    2.2324   -1.5545 H   0  0  0  0  0  0  0  0  0  0  0  0
   -0.5918    2.1752   -1.4359 H   0  0  0  0  0  0  0  0  0  0  0  0
    3.4692    0.7723   -0.7449 H   0  0  0  0  0  0  0  0  0  0  0  0
    2.6492   -0.7919   -0.9859 H   0  0  0  0  0  0  0  0  0  0  0  0
    2.6492   -0.0165    0.6280 H   0  0  0  0  0  0  0  0  0  0  0  0
    0.8446   -1.4664    0.3471 H   0  0  0  0  0  0  0  0  0  0  0  0
   -1.4852   -2.2285    0.7127 H   0  0  0  0  0  0  0  0  0  0  0  0
   -7.9768    3.4462   -0.9323 C   0  0  0  0  0  0  0  0  0  0  0  0
   -9.0068    4.3709   -1.0778 C   0  0  0  0  0  0  0  0  0  0  0  0
   -9.4846    4.7315   -2.3475 C   0  0  0  0  0  0  0  0  0  0  0  0
   -8.9018    4.1383   -3.4751 C   0  0  0  0  0  0  0  0  0  0  0  0
   -7.8691    3.2099   -3.3495 C   0  0  0  0  0  0  0  0  0  0  0  0
   -7.4131    2.8765   -2.0753 C   0  0  0  0  0  0  0  0  0  0  0  0
   -7.6156    3.1583    0.0488 H   0  0  0  0  0  0  0  0  0  0  0  0
   -9.4499    4.8194   -0.1926 H   0  0  0  0  0  0  0  0  0  0  0  0
   -9.2616    4.4047   -4.4651 H   0  0  0  0  0  0  0  0  0  0  0  0
   -7.4245    2.7419   -4.2206 H   0  0  0  0  0  0  0  0  0  0  0  0
   -6.0916    1.6923   -1.9037 S   0  0  0  0  0  0  0  0  0  0  0  0
   -6.2019    1.0298   -0.5974 O   0  0  0  0  0  0  0  0  0  0  0  0
   -4.8464    2.7249   -1.8602 O   0  0  0  0  0  0  0  0  0  0  0  0
   -6.0204    0.8741   -3.1143 O   0  0  0  0  0  0  0  0  0  0  0  0
  -10.6196    5.7173   -2.4871 C   0  0  0  0  0  0  0  0  0  0  0  0
  -11.5815    5.2441   -2.2546 H   0  0  0  0  0  0  0  0  0  0  0  0
  -10.5018    6.5614   -1.8003 H   0  0  0  0  0  0  0  0  0  0  0  0
  -10.6846    6.1125   -3.5040 H   0  0  0  0  0  0  0  0  0  0  0  0
  1  2  1  0  0  0  0
  1 10  2  0  0  0  0
  2  3  1  0  0  0  0
  4  1  1  0  0  0  0
  5  4  2  0  0  0  0
  5  6  1  0  0  0  0
  6  9  2  0  0  0  0
  7  6  1  0  0  0  0
  7  8  1  0  0  0  0
  8 15  1  0  0  0  0
  9 10  1  0  0  0  0
  9 16  1  0  0  0  0
 10 17  1  0  0  0  0
 12  5  1  0  0  0  0
 13  8  1  0  0  0  0
 14  8  1  0  0  0  0
 18 24  1  0  0  0  0
 19 18  1  0  0  0  0
 19 25  1  0  0  0  0
 20 19  2  0  0  0  0
 21 22  2  0  0  0  0
 21 20  1  0  0  0  0
 22 23  1  0  0  0  0
 23 28  1  0  0  0  0
 23 18  2  0  0  0  0
 26 21  1  0  0  0  0
 27 22  1  0  0  0  0
 28 30  1  0  0  0  0
 28 29  2  0  0  0  0
 30 11  1  0  0  0  0
 31 28  2  0  0  0  0
 32 20  1  0  0  0  0
 32 33  1  0  0  0  0
 32 34  1  0  0  0  0
 35 32  1  0  0  0  0
M  RAD  3   2   2   3   3   4   2
M  END
