Coordinates from ORCA-job 4-MeOPhN2+~TsO-_B3LYPG-6-31G_dp-CH-Scan-d09-49-n800
 OpenBabel11261919303D

 35 35  0  0  0  0  0  0  0  0999 V2000
   -2.7758   -0.0830   -0.3791 C   0  0  0  0  0  0  0  0  0  0  0  0
   -4.1363   -0.3532   -0.3979 N   0  0  0  0  0  0  0  0  0  0  0  0
   -5.2309   -0.0223   -0.4129 N   0  0  0  0  0  0  0  0  0  0  0  0
   -2.3051    1.2473   -0.3173 C   0  0  0  0  0  0  0  0  0  0  0  0
   -0.9392    1.4464   -0.3050 C   0  0  0  0  0  0  0  0  0  0  0  0
   -0.0440    0.3576   -0.3545 C   0  0  0  0  0  0  0  0  0  0  0  0
    1.2619    0.6822   -0.3372 O   0  0  0  0  0  0  0  0  0  0  0  0
    2.2403   -0.3539   -0.4001 C   0  0  0  0  0  0  0  0  0  0  0  0
   -0.5332   -0.9612   -0.4161 C   0  0  0  0  0  0  0  0  0  0  0  0
   -1.9028   -1.1772   -0.4274 C   0  0  0  0  0  0  0  0  0  0  0  0
   -2.9432    2.0104   -0.2884 H   0  0  0  0  0  0  0  0  0  0  0  0
   -0.5307    2.4502   -0.2653 H   0  0  0  0  0  0  0  0  0  0  0  0
    3.2057    0.1507   -0.3760 H   0  0  0  0  0  0  0  0  0  0  0  0
    2.1521   -0.9273   -1.3300 H   0  0  0  0  0  0  0  0  0  0  0  0
    2.1605   -1.0292    0.4598 H   0  0  0  0  0  0  0  0  0  0  0  0
    0.1398   -1.8078   -0.4564 H   0  0  0  0  0  0  0  0  0  0  0  0
   -2.3053   -2.1831   -0.4778 H   0  0  0  0  0  0  0  0  0  0  0  0
   -7.1658    4.5995   -1.5931 C   0  0  0  0  0  0  0  0  0  0  0  0
   -8.4491    5.1023   -1.7990 C   0  0  0  0  0  0  0  0  0  0  0  0
   -9.4376    4.3324   -2.4291 C   0  0  0  0  0  0  0  0  0  0  0  0
   -9.1013    3.0419   -2.8609 C   0  0  0  0  0  0  0  0  0  0  0  0
   -7.8218    2.5253   -2.6612 C   0  0  0  0  0  0  0  0  0  0  0  0
   -6.8595    3.3071   -2.0220 C   0  0  0  0  0  0  0  0  0  0  0  0
   -6.3963    5.2029   -1.1241 H   0  0  0  0  0  0  0  0  0  0  0  0
   -8.6860    6.1118   -1.4724 H   0  0  0  0  0  0  0  0  0  0  0  0
   -9.8497    2.4356   -3.3656 H   0  0  0  0  0  0  0  0  0  0  0  0
   -7.5569    1.5342   -3.0128 H   0  0  0  0  0  0  0  0  0  0  0  0
   -5.2193    2.6401   -1.7274 S   0  0  0  0  0  0  0  0  0  0  0  0
   -5.2970    2.0146   -0.3124 O   0  0  0  0  0  0  0  0  0  0  0  0
   -4.2851    3.7824   -1.6997 O   0  0  0  0  0  0  0  0  0  0  0  0
   -4.9812    1.5866   -2.7374 O   0  0  0  0  0  0  0  0  0  0  0  0
  -10.8339    4.8749   -2.6218 C   0  0  0  0  0  0  0  0  0  0  0  0
  -11.4625    4.6701   -1.7453 H   0  0  0  0  0  0  0  0  0  0  0  0
  -10.8256    5.9597   -2.7679 H   0  0  0  0  0  0  0  0  0  0  0  0
  -11.3248    4.4194   -3.4868 H   0  0  0  0  0  0  0  0  0  0  0  0
  1  4  2  0  0  0  0
  2  1  1  0  0  0  0
  3  2  2  0  0  0  0
  4  5  1  0  0  0  0
  4 11  1  0  0  0  0
  5 12  1  0  0  0  0
  6  7  1  0  0  0  0
  6  5  2  0  0  0  0
  8 13  1  0  0  0  0
  8  7  1  0  0  0  0
  8 15  1  0  0  0  0
  9  6  1  0  0  0  0
 10  9  2  0  0  0  0
 10  1  1  0  0  0  0
 14  8  1  0  0  0  0
 16  9  1  0  0  0  0
 17 10  1  0  0  0  0
 18 24  1  0  0  0  0
 19 18  1  0  0  0  0
 19 25  1  0  0  0  0
 20 19  2  0  0  0  0
 21 22  2  0  0  0  0
 21 20  1  0  0  0  0
 22 23  1  0  0  0  0
 23 28  1  0  0  0  0
 23 18  2  0  0  0  0
 26 21  1  0  0  0  0
 27 22  1  0  0  0  0
 28 30  2  0  0  0  0
 28 29  1  0  0  0  0
 31 28  2  0  0  0  0
 32 20  1  0  0  0  0
 32 33  1  0  0  0  0
 34 32  1  0  0  0  0
 35 32  1  0  0  0  0
M  RAD  2   3   2  29   2
M  END
