Coordinates from ORCA-job 4-MeOPhN2+~TsO-_B3LYPG-6-31G_dp-CH-Scan-d09-49-n800
 OpenBabel11261919303D

 35 35  0  0  0  0  0  0  0  0999 V2000
   -2.5922   -0.3842   -0.6566 C   0  0  0  0  0  0  0  0  0  0  0  0
   -3.8767   -0.8720   -0.7767 N   0  0  0  0  0  0  0  0  0  0  0  0
   -4.9909   -1.0011   -0.8902 N   0  0  0  0  0  0  0  0  0  0  0  0
   -2.3382    0.9663   -0.9804 C   0  0  0  0  0  0  0  0  0  0  0  0
   -1.0359    1.4068   -0.8445 C   0  0  0  0  0  0  0  0  0  0  0  0
   -0.0137    0.5431   -0.3988 C   0  0  0  0  0  0  0  0  0  0  0  0
    1.2099    1.0924   -0.3069 O   0  0  0  0  0  0  0  0  0  0  0  0
    2.3113    0.2925    0.1243 C   0  0  0  0  0  0  0  0  0  0  0  0
   -0.2985   -0.8048   -0.0870 C   0  0  0  0  0  0  0  0  0  0  0  0
   -1.5931   -1.2731   -0.2231 C   0  0  0  0  0  0  0  0  0  0  0  0
   -3.2582    1.7129   -1.4106 H   0  0  0  0  0  0  0  0  0  0  0  0
   -0.7722    2.4307   -1.0859 H   0  0  0  0  0  0  0  0  0  0  0  0
    3.1779    0.9531    0.1081 H   0  0  0  0  0  0  0  0  0  0  0  0
    2.4810   -0.5486   -0.5571 H   0  0  0  0  0  0  0  0  0  0  0  0
    2.1562   -0.0803    1.1426 H   0  0  0  0  0  0  0  0  0  0  0  0
    0.4781   -1.4777    0.2523 H   0  0  0  0  0  0  0  0  0  0  0  0
   -1.8396   -2.3039    0.0078 H   0  0  0  0  0  0  0  0  0  0  0  0
   -7.0696    4.1139   -1.5008 C   0  0  0  0  0  0  0  0  0  0  0  0
   -8.1616    4.9768   -1.5336 C   0  0  0  0  0  0  0  0  0  0  0  0
   -9.3310    4.6413   -2.2341 C   0  0  0  0  0  0  0  0  0  0  0  0
   -9.3711    3.4168   -2.9120 C   0  0  0  0  0  0  0  0  0  0  0  0
   -8.2835    2.5419   -2.8884 C   0  0  0  0  0  0  0  0  0  0  0  0
   -7.1375    2.8940   -2.1784 C   0  0  0  0  0  0  0  0  0  0  0  0
   -6.1608    4.3839   -0.9740 H   0  0  0  0  0  0  0  0  0  0  0  0
   -8.1062    5.9298   -1.0127 H   0  0  0  0  0  0  0  0  0  0  0  0
  -10.2636    3.1444   -3.4703 H   0  0  0  0  0  0  0  0  0  0  0  0
   -8.3069    1.5995   -3.4241 H   0  0  0  0  0  0  0  0  0  0  0  0
   -5.7578    1.7485   -2.1042 S   0  0  0  0  0  0  0  0  0  0  0  0
   -5.8789    1.0624   -0.7589 O   0  0  0  0  0  0  0  0  0  0  0  0
   -4.5253    2.6082   -2.1362 O   0  0  0  0  0  0  0  0  0  0  0  0
   -5.8925    0.8121   -3.2390 O   0  0  0  0  0  0  0  0  0  0  0  0
  -10.5154    5.5790   -2.2448 C   0  0  0  0  0  0  0  0  0  0  0  0
  -11.0168    5.5964   -1.2689 H   0  0  0  0  0  0  0  0  0  0  0  0
  -10.2101    6.6074   -2.4664 H   0  0  0  0  0  0  0  0  0  0  0  0
  -11.2563    5.2789   -2.9911 H   0  0  0  0  0  0  0  0  0  0  0  0
  1 10  2  0  0  0  0
  2  1  1  0  0  0  0
  3  2  1  0  0  0  0
  4  5  2  0  0  0  0
  4  1  1  0  0  0  0
  5  6  1  0  0  0  0
  6  7  1  0  0  0  0
  6  9  2  0  0  0  0
  7  8  1  0  0  0  0
  8 15  1  0  0  0  0
  9 16  1  0  0  0  0
 10  9  1  0  0  0  0
 10 17  1  0  0  0  0
 11  4  1  0  0  0  0
 12  5  1  0  0  0  0
 13  8  1  0  0  0  0
 14  8  1  0  0  0  0
 18 24  1  0  0  0  0
 19 18  1  0  0  0  0
 19 25  1  0  0  0  0
 20 19  2  0  0  0  0
 21 22  2  0  0  0  0
 21 20  1  0  0  0  0
 22 23  1  0  0  0  0
 23 28  1  0  0  0  0
 23 18  2  0  0  0  0
 26 21  1  0  0  0  0
 27 22  1  0  0  0  0
 28 29  1  0  0  0  0
 30 28  2  0  0  0  0
 31 28  2  0  0  0  0
 32 20  1  0  0  0  0
 32 33  1  0  0  0  0
 34 32  1  0  0  0  0
 35 32  1  0  0  0  0
M  RAD  3   2   2   3   3  29   2
M  END
