Coordinates from ORCA-job 4-MeOPhN2+~TsO-_B3LYPG-6-31G_dp-CH-Scan-d09-49-n800
 OpenBabel11261919313D

 35 35  0  0  0  0  0  0  0  0999 V2000
   -2.1109   -0.3007   -0.1061 C   0  0  0  0  0  0  0  0  0  0  0  0
   -3.4376   -0.6040    0.1129 N   0  0  0  0  0  0  0  0  0  0  0  0
   -4.5243   -0.8192    0.2828 N   0  0  0  0  0  0  0  0  0  0  0  0
   -1.8696    0.9910   -0.6325 C   0  0  0  0  0  0  0  0  0  0  0  0
   -0.4899    1.1940   -0.8120 C   0  0  0  0  0  0  0  0  0  0  0  0
    0.4940    0.2395   -0.5095 C   0  0  0  0  0  0  0  0  0  0  0  0
    1.7772    0.6048   -0.7467 O   0  0  0  0  0  0  0  0  0  0  0  0
    2.8326   -0.3101   -0.4754 C   0  0  0  0  0  0  0  0  0  0  0  0
    0.1463   -1.0364    0.0172 C   0  0  0  0  0  0  0  0  0  0  0  0
   -1.1823   -1.3223    0.2275 C   0  0  0  0  0  0  0  0  0  0  0  0
   -4.0738    2.9792   -1.5008 H   0  0  0  0  0  0  0  0  0  0  0  0
   -0.1192    2.1382   -1.2113 H   0  0  0  0  0  0  0  0  0  0  0  0
    3.7529    0.2081   -0.7478 H   0  0  0  0  0  0  0  0  0  0  0  0
    2.7414   -1.2218   -1.0774 H   0  0  0  0  0  0  0  0  0  0  0  0
    2.8716   -0.5781    0.5874 H   0  0  0  0  0  0  0  0  0  0  0  0
    0.9018   -1.7748    0.2529 H   0  0  0  0  0  0  0  0  0  0  0  0
   -1.4970   -2.2827    0.6286 H   0  0  0  0  0  0  0  0  0  0  0  0
   -8.1573    3.5979   -0.9515 C   0  0  0  0  0  0  0  0  0  0  0  0
   -9.3062    4.3618   -1.1326 C   0  0  0  0  0  0  0  0  0  0  0  0
   -9.7920    4.6492   -2.4184 C   0  0  0  0  0  0  0  0  0  0  0  0
   -9.0943    4.1486   -3.5254 C   0  0  0  0  0  0  0  0  0  0  0  0
   -7.9412    3.3813   -3.3650 C   0  0  0  0  0  0  0  0  0  0  0  0
   -7.4823    3.1176   -2.0756 C   0  0  0  0  0  0  0  0  0  0  0  0
   -7.7886    3.3653    0.0414 H   0  0  0  0  0  0  0  0  0  0  0  0
   -9.8378    4.7395   -0.2635 H   0  0  0  0  0  0  0  0  0  0  0  0
   -9.4591    4.3592   -4.5268 H   0  0  0  0  0  0  0  0  0  0  0  0
   -7.4063    2.9839   -4.2201 H   0  0  0  0  0  0  0  0  0  0  0  0
   -6.0133    2.1338   -1.8600 S   0  0  0  0  0  0  0  0  0  0  0  0
   -6.0580    1.4640   -0.5571 O   0  0  0  0  0  0  0  0  0  0  0  0
   -4.9318    3.3564   -1.7773 O   0  0  0  0  0  0  0  0  0  0  0  0
   -5.7710    1.3506   -3.0697 O   0  0  0  0  0  0  0  0  0  0  0  0
  -11.0524    5.4611   -2.5960 C   0  0  0  0  0  0  0  0  0  0  0  0
  -11.9360    4.8830   -2.3001 H   0  0  0  0  0  0  0  0  0  0  0  0
  -11.0361    6.3632   -1.9763 H   0  0  0  0  0  0  0  0  0  0  0  0
  -11.1891    5.7665   -3.6362 H   0  0  0  0  0  0  0  0  0  0  0  0
  1  2  1  0  0  0  0
  1 10  2  0  0  0  0
  2  3  1  0  0  0  0
  4  1  1  0  0  0  0
  5  4  2  0  0  0  0
  5  6  1  0  0  0  0
  6  9  2  0  0  0  0
  7  6  1  0  0  0  0
  7  8  1  0  0  0  0
  8 15  1  0  0  0  0
  9 10  1  0  0  0  0
  9 16  1  0  0  0  0
 10 17  1  0  0  0  0
 12  5  1  0  0  0  0
 13  8  1  0  0  0  0
 14  8  1  0  0  0  0
 18 24  1  0  0  0  0
 19 18  1  0  0  0  0
 19 25  1  0  0  0  0
 20 19  2  0  0  0  0
 21 22  2  0  0  0  0
 21 20  1  0  0  0  0
 22 23  1  0  0  0  0
 23 28  1  0  0  0  0
 23 18  2  0  0  0  0
 26 21  1  0  0  0  0
 27 22  1  0  0  0  0
 28 30  1  0  0  0  0
 28 29  2  0  0  0  0
 30 11  1  0  0  0  0
 31 28  2  0  0  0  0
 32 20  1  0  0  0  0
 32 33  1  0  0  0  0
 32 34  1  0  0  0  0
 35 32  1  0  0  0  0
M  RAD  3   2   2   3   3   4   2
M  END
