Coordinates from ORCA-job 4-MeOPhN2+~TsO-_B3LYPG-6-31G_dp-CH-Scan-d09-49-n800
 OpenBabel11261919313D

 35 35  0  0  0  0  0  0  0  0999 V2000
   -2.2285   -0.3604   -0.1462 C   0  0  0  0  0  0  0  0  0  0  0  0
   -3.5309   -0.7508    0.0741 N   0  0  0  0  0  0  0  0  0  0  0  0
   -4.6000   -1.0403    0.2430 N   0  0  0  0  0  0  0  0  0  0  0  0
   -2.0659    0.9207   -0.7272 C   0  0  0  0  0  0  0  0  0  0  0  0
   -0.7042    1.2143   -0.9050 C   0  0  0  0  0  0  0  0  0  0  0  0
    0.3408    0.3455   -0.5510 C   0  0  0  0  0  0  0  0  0  0  0  0
    1.5963    0.7901   -0.7937 O   0  0  0  0  0  0  0  0  0  0  0  0
    2.7120   -0.0313   -0.4671 C   0  0  0  0  0  0  0  0  0  0  0  0
    0.0759   -0.9264    0.0288 C   0  0  0  0  0  0  0  0  0  0  0  0
   -1.2321   -1.2957    0.2395 C   0  0  0  0  0  0  0  0  0  0  0  0
   -4.0558    2.5331   -1.5069 H   0  0  0  0  0  0  0  0  0  0  0  0
   -0.3980    2.1641   -1.3422 H   0  0  0  0  0  0  0  0  0  0  0  0
    3.5955    0.5413   -0.7517 H   0  0  0  0  0  0  0  0  0  0  0  0
    2.6972   -0.9731   -1.0279 H   0  0  0  0  0  0  0  0  0  0  0  0
    2.7530   -0.2471    0.6075 H   0  0  0  0  0  0  0  0  0  0  0  0
    0.8778   -1.5992    0.3037 H   0  0  0  0  0  0  0  0  0  0  0  0
   -1.4829   -2.2576    0.6793 H   0  0  0  0  0  0  0  0  0  0  0  0
   -8.0571    3.5116   -0.9409 C   0  0  0  0  0  0  0  0  0  0  0  0
   -9.1376    4.3732   -1.1038 C   0  0  0  0  0  0  0  0  0  0  0  0
   -9.6178    4.7021   -2.3815 C   0  0  0  0  0  0  0  0  0  0  0  0
   -8.9852    4.1422   -3.4990 C   0  0  0  0  0  0  0  0  0  0  0  0
   -7.9007    3.2772   -3.3564 C   0  0  0  0  0  0  0  0  0  0  0  0
   -7.4446    2.9743   -2.0748 C   0  0  0  0  0  0  0  0  0  0  0  0
   -7.6939    3.2476    0.0462 H   0  0  0  0  0  0  0  0  0  0  0  0
   -9.6192    4.7963   -0.2264 H   0  0  0  0  0  0  0  0  0  0  0  0
   -9.3464    4.3842   -4.4947 H   0  0  0  0  0  0  0  0  0  0  0  0
   -7.4164    2.8350   -4.2196 H   0  0  0  0  0  0  0  0  0  0  0  0
   -6.0605    1.8687   -1.8817 S   0  0  0  0  0  0  0  0  0  0  0  0
   -6.1584    1.1873   -0.5860 O   0  0  0  0  0  0  0  0  0  0  0  0
   -4.8812    2.9846   -1.7930 O   0  0  0  0  0  0  0  0  0  0  0  0
   -5.9016    1.0766   -3.1002 O   0  0  0  0  0  0  0  0  0  0  0  0
  -10.8053    5.6212   -2.5391 C   0  0  0  0  0  0  0  0  0  0  0  0
  -11.7362    5.1101   -2.2654 H   0  0  0  0  0  0  0  0  0  0  0  0
  -10.7185    6.4993   -1.8913 H   0  0  0  0  0  0  0  0  0  0  0  0
  -10.9095    5.9685   -3.5699 H   0  0  0  0  0  0  0  0  0  0  0  0
  1  2  1  0  0  0  0
  1 10  2  0  0  0  0
  2  3  1  0  0  0  0
  4  1  1  0  0  0  0
  5  4  2  0  0  0  0
  5  6  1  0  0  0  0
  6  9  2  0  0  0  0
  7  6  1  0  0  0  0
  7  8  1  0  0  0  0
  8 15  1  0  0  0  0
  9 10  1  0  0  0  0
  9 16  1  0  0  0  0
 10 17  1  0  0  0  0
 12  5  1  0  0  0  0
 13  8  1  0  0  0  0
 14  8  1  0  0  0  0
 18 24  1  0  0  0  0
 19 18  1  0  0  0  0
 19 25  1  0  0  0  0
 20 19  2  0  0  0  0
 21 22  2  0  0  0  0
 21 20  1  0  0  0  0
 22 23  1  0  0  0  0
 23 28  1  0  0  0  0
 23 18  2  0  0  0  0
 26 21  1  0  0  0  0
 27 22  1  0  0  0  0
 28 30  1  0  0  0  0
 28 29  2  0  0  0  0
 30 11  1  0  0  0  0
 31 28  2  0  0  0  0
 32 20  1  0  0  0  0
 32 33  1  0  0  0  0
 32 34  1  0  0  0  0
 35 32  1  0  0  0  0
M  RAD  3   2   2   3   3   4   2
M  END
