Coordinates from ORCA-job 4-MeOPhN2+~TsO-_B3LYPG-6-31G_dp-CH-Scan-d09-49-n800
 OpenBabel11261919303D

 35 35  0  0  0  0  0  0  0  0999 V2000
   -2.6246   -0.4759   -0.4263 C   0  0  0  0  0  0  0  0  0  0  0  0
   -3.8604   -1.0679   -0.3135 N   0  0  0  0  0  0  0  0  0  0  0  0
   -4.9070   -1.4586   -0.2524 N   0  0  0  0  0  0  0  0  0  0  0  0
   -2.5537    0.7708   -1.0898 C   0  0  0  0  0  0  0  0  0  0  0  0
   -1.2774    1.3102   -1.1657 C   0  0  0  0  0  0  0  0  0  0  0  0
   -0.1508    0.6611   -0.6239 C   0  0  0  0  0  0  0  0  0  0  0  0
    1.0222    1.3021   -0.7739 O   0  0  0  0  0  0  0  0  0  0  0  0
    2.2208    0.7162   -0.2662 C   0  0  0  0  0  0  0  0  0  0  0  0
   -0.2797   -0.5906    0.0280 C   0  0  0  0  0  0  0  0  0  0  0  0
   -1.5272   -1.1700    0.1282 C   0  0  0  0  0  0  0  0  0  0  0  0
   -3.6780    1.3894   -1.6511 H   0  0  0  0  0  0  0  0  0  0  0  0
   -1.1146    2.2646   -1.6577 H   0  0  0  0  0  0  0  0  0  0  0  0
    3.0184    1.4159   -0.5159 H   0  0  0  0  0  0  0  0  0  0  0  0
    2.4236   -0.2501   -0.7411 H   0  0  0  0  0  0  0  0  0  0  0  0
    2.1723    0.5912    0.8215 H   0  0  0  0  0  0  0  0  0  0  0  0
    0.5804   -1.0976    0.4450 H   0  0  0  0  0  0  0  0  0  0  0  0
   -1.6617   -2.1282    0.6196 H   0  0  0  0  0  0  0  0  0  0  0  0
   -7.5180    3.3907   -0.9263 C   0  0  0  0  0  0  0  0  0  0  0  0
   -8.4278    4.4411   -1.0174 C   0  0  0  0  0  0  0  0  0  0  0  0
   -9.0718    4.7403   -2.2278 C   0  0  0  0  0  0  0  0  0  0  0  0
   -8.7796    3.9535   -3.3492 C   0  0  0  0  0  0  0  0  0  0  0  0
   -7.8718    2.8972   -3.2727 C   0  0  0  0  0  0  0  0  0  0  0  0
   -7.2416    2.6239   -2.0597 C   0  0  0  0  0  0  0  0  0  0  0  0
   -7.0324    3.1508    0.0131 H   0  0  0  0  0  0  0  0  0  0  0  0
   -8.6457    5.0380   -0.1348 H   0  0  0  0  0  0  0  0  0  0  0  0
   -9.2714    4.1680   -4.2946 H   0  0  0  0  0  0  0  0  0  0  0  0
   -7.6558    2.2780   -4.1368 H   0  0  0  0  0  0  0  0  0  0  0  0
   -6.0454    1.2907   -1.9707 S   0  0  0  0  0  0  0  0  0  0  0  0
   -6.0861    0.7663   -0.5757 O   0  0  0  0  0  0  0  0  0  0  0  0
   -4.7029    1.9969   -2.2219 O   0  0  0  0  0  0  0  0  0  0  0  0
   -6.3774    0.3253   -3.0323 O   0  0  0  0  0  0  0  0  0  0  0  0
  -10.0769    5.8652   -2.3071 C   0  0  0  0  0  0  0  0  0  0  0  0
  -11.0393    5.5684   -1.8717 H   0  0  0  0  0  0  0  0  0  0  0  0
   -9.7343    6.7479   -1.7574 H   0  0  0  0  0  0  0  0  0  0  0  0
  -10.2642    6.1627   -3.3423 H   0  0  0  0  0  0  0  0  0  0  0  0
  1  2  1  0  0  0  0
  1 10  2  0  0  0  0
  2  3  1  0  0  0  0
  4  1  1  0  0  0  0
  5  4  2  0  0  0  0
  5  6  1  0  0  0  0
  6  9  2  0  0  0  0
  7  6  1  0  0  0  0
  7  8  1  0  0  0  0
  8 15  1  0  0  0  0
  9 10  1  0  0  0  0
  9 16  1  0  0  0  0
 10 17  1  0  0  0  0
 12  5  1  0  0  0  0
 13  8  1  0  0  0  0
 14  8  1  0  0  0  0
 18 24  1  0  0  0  0
 19 18  1  0  0  0  0
 19 25  1  0  0  0  0
 20 19  2  0  0  0  0
 21 22  2  0  0  0  0
 21 20  1  0  0  0  0
 22 23  1  0  0  0  0
 23 28  1  0  0  0  0
 23 18  2  0  0  0  0
 26 21  1  0  0  0  0
 27 22  1  0  0  0  0
 28 29  2  0  0  0  0
 30 28  1  0  0  0  0
 30 11  1  0  0  0  0
 31 28  2  0  0  0  0
 32 20  1  0  0  0  0
 32 33  1  0  0  0  0
 32 34  1  0  0  0  0
 35 32  1  0  0  0  0
M  RAD  3   2   2   3   3   4   2
M  END
