Coordinates from ORCA-job 4-MeOPhN2+~TsO-_B3LYPG-6-31G_dp-CH-Scan-d09-49-n800
 OpenBabel11261919313D

 35 35  0  0  0  0  0  0  0  0999 V2000
   -2.5494   -0.4576   -0.2247 C   0  0  0  0  0  0  0  0  0  0  0  0
   -3.7814   -1.0244    0.0052 N   0  0  0  0  0  0  0  0  0  0  0  0
   -4.8020   -1.4514    0.1739 N   0  0  0  0  0  0  0  0  0  0  0  0
   -2.5382    0.7784   -0.9171 C   0  0  0  0  0  0  0  0  0  0  0  0
   -1.2397    1.2629   -1.0985 C   0  0  0  0  0  0  0  0  0  0  0  0
   -0.0886    0.5947   -0.6448 C   0  0  0  0  0  0  0  0  0  0  0  0
    1.0890    1.2003   -0.9043 O   0  0  0  0  0  0  0  0  0  0  0  0
    2.3070    0.5897   -0.4860 C   0  0  0  0  0  0  0  0  0  0  0  0
   -0.1865   -0.6446    0.0419 C   0  0  0  0  0  0  0  0  0  0  0  0
   -1.4335   -1.1856    0.2584 C   0  0  0  0  0  0  0  0  0  0  0  0
   -3.9249    1.6380   -1.5248 H   0  0  0  0  0  0  0  0  0  0  0  0
   -1.0745    2.2052   -1.6168 H   0  0  0  0  0  0  0  0  0  0  0  0
    3.1013    1.2620   -0.8108 H   0  0  0  0  0  0  0  0  0  0  0  0
    2.4469   -0.3895   -0.9581 H   0  0  0  0  0  0  0  0  0  0  0  0
    2.3469    0.4812    0.6043 H   0  0  0  0  0  0  0  0  0  0  0  0
    0.6944   -1.1660    0.3926 H   0  0  0  0  0  0  0  0  0  0  0  0
   -1.5534   -2.1326    0.7765 H   0  0  0  0  0  0  0  0  0  0  0  0
   -7.7484    3.2995   -0.9120 C   0  0  0  0  0  0  0  0  0  0  0  0
   -8.6809    4.3273   -1.0242 C   0  0  0  0  0  0  0  0  0  0  0  0
   -9.1529    4.7449   -2.2780 C   0  0  0  0  0  0  0  0  0  0  0  0
   -8.6636    4.1032   -3.4233 C   0  0  0  0  0  0  0  0  0  0  0  0
   -7.7300    3.0718   -3.3291 C   0  0  0  0  0  0  0  0  0  0  0  0
   -7.2759    2.6811   -2.0706 C   0  0  0  0  0  0  0  0  0  0  0  0
   -7.3939    2.9676    0.0576 H   0  0  0  0  0  0  0  0  0  0  0  0
   -9.0521    4.8121   -0.1249 H   0  0  0  0  0  0  0  0  0  0  0  0
   -9.0201    4.4125   -4.4022 H   0  0  0  0  0  0  0  0  0  0  0  0
   -7.3600    2.5654   -4.2137 H   0  0  0  0  0  0  0  0  0  0  0  0
   -6.0698    1.3685   -1.9427 S   0  0  0  0  0  0  0  0  0  0  0  0
   -6.2454    0.6999   -0.6386 O   0  0  0  0  0  0  0  0  0  0  0  0
   -4.7301    2.2137   -1.9185 O   0  0  0  0  0  0  0  0  0  0  0  0
   -6.1477    0.5469   -3.1551 O   0  0  0  0  0  0  0  0  0  0  0  0
  -10.1873    5.8397   -2.3843 C   0  0  0  0  0  0  0  0  0  0  0  0
  -11.1928    5.4532   -2.1753 H   0  0  0  0  0  0  0  0  0  0  0  0
   -9.9956    6.6431   -1.6659 H   0  0  0  0  0  0  0  0  0  0  0  0
  -10.2067    6.2767   -3.3864 H   0  0  0  0  0  0  0  0  0  0  0  0
  1  2  1  0  0  0  0
  1 10  2  0  0  0  0
  2  3  1  0  0  0  0
  4  1  1  0  0  0  0
  5  4  2  0  0  0  0
  5  6  1  0  0  0  0
  6  9  2  0  0  0  0
  7  6  1  0  0  0  0
  7  8  1  0  0  0  0
  8 15  1  0  0  0  0
  9 10  1  0  0  0  0
  9 16  1  0  0  0  0
 10 17  1  0  0  0  0
 12  5  1  0  0  0  0
 13  8  1  0  0  0  0
 14  8  1  0  0  0  0
 18 24  1  0  0  0  0
 19 18  1  0  0  0  0
 19 25  1  0  0  0  0
 20 19  2  0  0  0  0
 21 22  2  0  0  0  0
 21 20  1  0  0  0  0
 22 23  1  0  0  0  0
 23 28  1  0  0  0  0
 23 18  2  0  0  0  0
 26 21  1  0  0  0  0
 27 22  1  0  0  0  0
 28 30  1  0  0  0  0
 28 29  2  0  0  0  0
 30 11  1  0  0  0  0
 31 28  2  0  0  0  0
 32 20  1  0  0  0  0
 32 33  1  0  0  0  0
 32 34  1  0  0  0  0
 35 32  1  0  0  0  0
M  RAD  3   2   2   3   3   4   2
M  END
