Coordinates from ORCA-job 4-MeOPhN2+~TsO-_B3LYPG-6-31G_dp-CH-Scan-d09-49-n800
 OpenBabel11261919303D

 35 35  0  0  0  0  0  0  0  0999 V2000
   -2.7714   -0.0879   -0.3847 C   0  0  0  0  0  0  0  0  0  0  0  0
   -4.1312   -0.3601   -0.4086 N   0  0  0  0  0  0  0  0  0  0  0  0
   -5.2268   -0.0332   -0.4272 N   0  0  0  0  0  0  0  0  0  0  0  0
   -2.3031    1.2431   -0.3195 C   0  0  0  0  0  0  0  0  0  0  0  0
   -0.9378    1.4453   -0.3024 C   0  0  0  0  0  0  0  0  0  0  0  0
   -0.0405    0.3581   -0.3502 C   0  0  0  0  0  0  0  0  0  0  0  0
    1.2647    0.6849   -0.3279 O   0  0  0  0  0  0  0  0  0  0  0  0
    2.2453   -0.3493   -0.3888 C   0  0  0  0  0  0  0  0  0  0  0  0
   -0.5270   -0.9617   -0.4152 C   0  0  0  0  0  0  0  0  0  0  0  0
   -1.8960   -1.1805   -0.4315 C   0  0  0  0  0  0  0  0  0  0  0  0
   -2.9533    2.0157   -0.2920 H   0  0  0  0  0  0  0  0  0  0  0  0
   -0.5310    2.4497   -0.2600 H   0  0  0  0  0  0  0  0  0  0  0  0
    3.2097    0.1571   -0.3604 H   0  0  0  0  0  0  0  0  0  0  0  0
    2.1616   -0.9215   -1.3198 H   0  0  0  0  0  0  0  0  0  0  0  0
    2.1637   -1.0259    0.4699 H   0  0  0  0  0  0  0  0  0  0  0  0
    0.1478   -1.8069   -0.4544 H   0  0  0  0  0  0  0  0  0  0  0  0
   -2.2963   -2.1871   -0.4846 H   0  0  0  0  0  0  0  0  0  0  0  0
   -7.1635    4.5985   -1.6016 C   0  0  0  0  0  0  0  0  0  0  0  0
   -8.4458    5.1055   -1.8031 C   0  0  0  0  0  0  0  0  0  0  0  0
   -9.4402    4.3372   -2.4258 C   0  0  0  0  0  0  0  0  0  0  0  0
   -9.1108    3.0440   -2.8547 C   0  0  0  0  0  0  0  0  0  0  0  0
   -7.8323    2.5232   -2.6594 C   0  0  0  0  0  0  0  0  0  0  0  0
   -6.8640    3.3036   -2.0274 C   0  0  0  0  0  0  0  0  0  0  0  0
   -6.3894    5.2006   -1.1382 H   0  0  0  0  0  0  0  0  0  0  0  0
   -8.6774    6.1170   -1.4789 H   0  0  0  0  0  0  0  0  0  0  0  0
   -9.8639    2.4387   -3.3538 H   0  0  0  0  0  0  0  0  0  0  0  0
   -7.5728    1.5300   -3.0089 H   0  0  0  0  0  0  0  0  0  0  0  0
   -5.2250    2.6311   -1.7385 S   0  0  0  0  0  0  0  0  0  0  0  0
   -5.2999    2.0057   -0.3237 O   0  0  0  0  0  0  0  0  0  0  0  0
   -4.2869    3.7705   -1.7135 O   0  0  0  0  0  0  0  0  0  0  0  0
   -4.9940    1.5776   -2.7500 O   0  0  0  0  0  0  0  0  0  0  0  0
  -10.8354    4.8842   -2.6138 C   0  0  0  0  0  0  0  0  0  0  0  0
  -11.4616    4.6819   -1.7350 H   0  0  0  0  0  0  0  0  0  0  0  0
  -10.8241    5.9688   -2.7605 H   0  0  0  0  0  0  0  0  0  0  0  0
  -11.3309    4.4298   -3.4768 H   0  0  0  0  0  0  0  0  0  0  0  0
  1  4  2  0  0  0  0
  2  1  1  0  0  0  0
  3  2  2  0  0  0  0
  4  5  1  0  0  0  0
  4 11  1  0  0  0  0
  5 12  1  0  0  0  0
  6  7  1  0  0  0  0
  6  5  2  0  0  0  0
  8 13  1  0  0  0  0
  8  7  1  0  0  0  0
  8 15  1  0  0  0  0
  9  6  1  0  0  0  0
 10  9  2  0  0  0  0
 10  1  1  0  0  0  0
 14  8  1  0  0  0  0
 16  9  1  0  0  0  0
 17 10  1  0  0  0  0
 18 24  1  0  0  0  0
 19 18  1  0  0  0  0
 19 25  1  0  0  0  0
 20 19  2  0  0  0  0
 21 22  2  0  0  0  0
 21 20  1  0  0  0  0
 22 23  1  0  0  0  0
 23 28  1  0  0  0  0
 23 18  2  0  0  0  0
 26 21  1  0  0  0  0
 27 22  1  0  0  0  0
 28 30  2  0  0  0  0
 28 29  1  0  0  0  0
 31 28  2  0  0  0  0
 32 20  1  0  0  0  0
 32 33  1  0  0  0  0
 34 32  1  0  0  0  0
 35 32  1  0  0  0  0
M  RAD  2   3   2  29   2
M  END
