Coordinates from ORCA-job 4-MeOPhN2+~TsO-_B3LYPG-6-31G_dp-CH-Scan-d09-49-n800
 OpenBabel11261919303D

 35 35  0  0  0  0  0  0  0  0999 V2000
   -2.7403   -0.1331   -0.4017 C   0  0  0  0  0  0  0  0  0  0  0  0
   -4.0926   -0.4319   -0.4361 N   0  0  0  0  0  0  0  0  0  0  0  0
   -5.2019   -0.1676   -0.4629 N   0  0  0  0  0  0  0  0  0  0  0  0
   -2.3004    1.2075   -0.3525 C   0  0  0  0  0  0  0  0  0  0  0  0
   -0.9409    1.4417   -0.3262 C   0  0  0  0  0  0  0  0  0  0  0  0
   -0.0207    0.3726   -0.3476 C   0  0  0  0  0  0  0  0  0  0  0  0
    1.2768    0.7268   -0.3184 O   0  0  0  0  0  0  0  0  0  0  0  0
    2.2801   -0.2868   -0.3535 C   0  0  0  0  0  0  0  0  0  0  0  0
   -0.4781   -0.9589   -0.3967 C   0  0  0  0  0  0  0  0  0  0  0  0
   -1.8413   -1.2081   -0.4239 C   0  0  0  0  0  0  0  0  0  0  0  0
   -3.0337    2.0410   -0.3490 H   0  0  0  0  0  0  0  0  0  0  0  0
   -0.5560    2.4549   -0.2971 H   0  0  0  0  0  0  0  0  0  0  0  0
    3.2329    0.2408   -0.3239 H   0  0  0  0  0  0  0  0  0  0  0  0
    2.2180   -0.8749   -1.2763 H   0  0  0  0  0  0  0  0  0  0  0  0
    2.2046   -0.9514    0.5150 H   0  0  0  0  0  0  0  0  0  0  0  0
    0.2151   -1.7897   -0.4161 H   0  0  0  0  0  0  0  0  0  0  0  0
   -2.2188   -2.2241   -0.4658 H   0  0  0  0  0  0  0  0  0  0  0  0
   -7.1555    4.5656   -1.6088 C   0  0  0  0  0  0  0  0  0  0  0  0
   -8.4195    5.1184   -1.8070 C   0  0  0  0  0  0  0  0  0  0  0  0
   -9.4439    4.3846   -2.4222 C   0  0  0  0  0  0  0  0  0  0  0  0
   -9.1639    3.0785   -2.8472 C   0  0  0  0  0  0  0  0  0  0  0  0
   -7.9045    2.5124   -2.6555 C   0  0  0  0  0  0  0  0  0  0  0  0
   -6.9053    3.2594   -2.0310 C   0  0  0  0  0  0  0  0  0  0  0  0
   -6.3577    5.1403   -1.1510 H   0  0  0  0  0  0  0  0  0  0  0  0
   -8.6126    6.1390   -1.4858 H   0  0  0  0  0  0  0  0  0  0  0  0
   -9.9406    2.4992   -3.3407 H   0  0  0  0  0  0  0  0  0  0  0  0
   -7.6829    1.5091   -3.0025 H   0  0  0  0  0  0  0  0  0  0  0  0
   -5.2912    2.5266   -1.7475 S   0  0  0  0  0  0  0  0  0  0  0  0
   -5.3872    1.8900   -0.3439 O   0  0  0  0  0  0  0  0  0  0  0  0
   -4.3135    3.6351   -1.7130 O   0  0  0  0  0  0  0  0  0  0  0  0
   -5.0924    1.4810   -2.7748 O   0  0  0  0  0  0  0  0  0  0  0  0
  -10.8193    4.9809   -2.6070 C   0  0  0  0  0  0  0  0  0  0  0  0
  -11.4531    4.7931   -1.7303 H   0  0  0  0  0  0  0  0  0  0  0  0
  -10.7706    6.0655   -2.7456 H   0  0  0  0  0  0  0  0  0  0  0  0
  -11.3290    4.5500   -3.4739 H   0  0  0  0  0  0  0  0  0  0  0  0
  1  4  1  0  0  0  0
  2  1  1  0  0  0  0
  3  2  2  0  0  0  0
  4 11  1  0  0  0  0
  4  5  2  0  0  0  0
  5 12  1  0  0  0  0
  6  5  1  0  0  0  0
  6  7  1  0  0  0  0
  8 13  1  0  0  0  0
  8  7  1  0  0  0  0
  8 15  1  0  0  0  0
  9  6  2  0  0  0  0
 10  1  2  0  0  0  0
 10  9  1  0  0  0  0
 14  8  1  0  0  0  0
 16  9  1  0  0  0  0
 17 10  1  0  0  0  0
 18 24  1  0  0  0  0
 19 18  1  0  0  0  0
 19 25  1  0  0  0  0
 20 19  2  0  0  0  0
 21 22  2  0  0  0  0
 21 20  1  0  0  0  0
 22 23  1  0  0  0  0
 23 28  1  0  0  0  0
 23 18  2  0  0  0  0
 26 21  1  0  0  0  0
 27 22  1  0  0  0  0
 28 30  2  0  0  0  0
 28 29  1  0  0  0  0
 31 28  2  0  0  0  0
 32 20  1  0  0  0  0
 32 33  1  0  0  0  0
 34 32  1  0  0  0  0
 35 32  1  0  0  0  0
M  RAD  2   3   2  29   2
M  END
