Coordinates from ORCA-job 4-MeOPhN2+~TsO-_B3LYPG-6-31G_dp-CH-Scan-d09-49-n800
 OpenBabel11261919313D

 35 35  0  0  0  0  0  0  0  0999 V2000
   -2.0937   -0.2911   -0.1047 C   0  0  0  0  0  0  0  0  0  0  0  0
   -3.4242   -0.5809    0.1112 N   0  0  0  0  0  0  0  0  0  0  0  0
   -4.5138   -0.7859    0.2757 N   0  0  0  0  0  0  0  0  0  0  0  0
   -1.8390    1.0014   -0.6224 C   0  0  0  0  0  0  0  0  0  0  0  0
   -0.4565    1.1902   -0.7990 C   0  0  0  0  0  0  0  0  0  0  0  0
    0.5166    0.2232   -0.5021 C   0  0  0  0  0  0  0  0  0  0  0  0
    1.8042    0.5760   -0.7359 O   0  0  0  0  0  0  0  0  0  0  0  0
    2.8489   -0.3529   -0.4711 C   0  0  0  0  0  0  0  0  0  0  0  0
    0.1547   -1.0525    0.0157 C   0  0  0  0  0  0  0  0  0  0  0  0
   -1.1771   -1.3254    0.2230 C   0  0  0  0  0  0  0  0  0  0  0  0
   -4.0754    3.0530   -1.5128 H   0  0  0  0  0  0  0  0  0  0  0  0
   -0.0749    2.1329   -1.1917 H   0  0  0  0  0  0  0  0  0  0  0  0
    3.7752    0.1565   -0.7400 H   0  0  0  0  0  0  0  0  0  0  0  0
    2.7473   -1.2592   -1.0796 H   0  0  0  0  0  0  0  0  0  0  0  0
    2.8848   -0.6290    0.5897 H   0  0  0  0  0  0  0  0  0  0  0  0
    0.9020   -1.8007    0.2470 H   0  0  0  0  0  0  0  0  0  0  0  0
   -1.5026   -2.2849    0.6175 H   0  0  0  0  0  0  0  0  0  0  0  0
   -8.1688    3.6137   -0.9522 C   0  0  0  0  0  0  0  0  0  0  0  0
   -9.3281    4.3613   -1.1353 C   0  0  0  0  0  0  0  0  0  0  0  0
   -9.8175    4.6391   -2.4219 C   0  0  0  0  0  0  0  0  0  0  0  0
   -9.1126    4.1458   -3.5276 C   0  0  0  0  0  0  0  0  0  0  0  0
   -7.9492    3.3947   -3.3653 C   0  0  0  0  0  0  0  0  0  0  0  0
   -7.4871    3.1402   -2.0752 C   0  0  0  0  0  0  0  0  0  0  0  0
   -7.7970    3.3885    0.0412 H   0  0  0  0  0  0  0  0  0  0  0  0
   -9.8651    4.7336   -0.2671 H   0  0  0  0  0  0  0  0  0  0  0  0
   -9.4800    4.3493   -4.5296 H   0  0  0  0  0  0  0  0  0  0  0  0
   -7.4088    3.0027   -4.2195 H   0  0  0  0  0  0  0  0  0  0  0  0
   -6.0047    2.1776   -1.8570 S   0  0  0  0  0  0  0  0  0  0  0  0
   -6.0352    1.5178   -0.5489 O   0  0  0  0  0  0  0  0  0  0  0  0
   -4.9391    3.4164   -1.7879 O   0  0  0  0  0  0  0  0  0  0  0  0
   -5.7550    1.3891   -3.0616 O   0  0  0  0  0  0  0  0  0  0  0  0
  -11.0889    5.4331   -2.6016 C   0  0  0  0  0  0  0  0  0  0  0  0
  -11.9648    4.8420   -2.3083 H   0  0  0  0  0  0  0  0  0  0  0  0
  -11.0869    6.3348   -1.9811 H   0  0  0  0  0  0  0  0  0  0  0  0
  -11.2276    5.7373   -3.6419 H   0  0  0  0  0  0  0  0  0  0  0  0
  1  2  1  0  0  0  0
  1 10  2  0  0  0  0
  2  3  1  0  0  0  0
  4  1  1  0  0  0  0
  5  4  2  0  0  0  0
  5  6  1  0  0  0  0
  6  9  2  0  0  0  0
  7  6  1  0  0  0  0
  7  8  1  0  0  0  0
  8 15  1  0  0  0  0
  9 10  1  0  0  0  0
  9 16  1  0  0  0  0
 10 17  1  0  0  0  0
 12  5  1  0  0  0  0
 13  8  1  0  0  0  0
 14  8  1  0  0  0  0
 18 24  1  0  0  0  0
 19 18  1  0  0  0  0
 19 25  1  0  0  0  0
 20 19  2  0  0  0  0
 21 22  2  0  0  0  0
 21 20  1  0  0  0  0
 22 23  1  0  0  0  0
 23 28  1  0  0  0  0
 23 18  2  0  0  0  0
 26 21  1  0  0  0  0
 27 22  1  0  0  0  0
 28 30  1  0  0  0  0
 28 29  2  0  0  0  0
 30 11  1  0  0  0  0
 31 28  2  0  0  0  0
 32 20  1  0  0  0  0
 32 33  1  0  0  0  0
 32 34  1  0  0  0  0
 35 32  1  0  0  0  0
M  RAD  3   2   2   3   3   4   2
M  END
