Coordinates from ORCA-job 4-MeOPhN2+~TsO-_B3LYPG-6-31G_dp-CH-Scan-d09-49-n800
 OpenBabel11261919313D

 35 35  0  0  0  0  0  0  0  0999 V2000
   -2.4828   -0.4436   -0.2058 C   0  0  0  0  0  0  0  0  0  0  0  0
   -3.7287   -0.9793    0.0262 N   0  0  0  0  0  0  0  0  0  0  0  0
   -4.7579   -1.3839    0.1996 N   0  0  0  0  0  0  0  0  0  0  0  0
   -2.4512    0.8086   -0.8680 C   0  0  0  0  0  0  0  0  0  0  0  0
   -1.1384    1.2584   -1.0522 C   0  0  0  0  0  0  0  0  0  0  0  0
   -0.0019    0.5471   -0.6299 C   0  0  0  0  0  0  0  0  0  0  0  0
    1.1908    1.1256   -0.8886 O   0  0  0  0  0  0  0  0  0  0  0  0
    2.3947    0.4686   -0.5026 C   0  0  0  0  0  0  0  0  0  0  0  0
   -0.1253   -0.7067    0.0274 C   0  0  0  0  0  0  0  0  0  0  0  0
   -1.3841   -1.2176    0.2466 C   0  0  0  0  0  0  0  0  0  0  0  0
   -3.9716    1.8119   -1.4945 H   0  0  0  0  0  0  0  0  0  0  0  0
   -0.9484    2.2083   -1.5483 H   0  0  0  0  0  0  0  0  0  0  0  0
    3.2050    1.1263   -0.8183 H   0  0  0  0  0  0  0  0  0  0  0  0
    2.5006   -0.5007   -1.0031 H   0  0  0  0  0  0  0  0  0  0  0  0
    2.4449    0.3281    0.5837 H   0  0  0  0  0  0  0  0  0  0  0  0
    0.7451   -1.2605    0.3537 H   0  0  0  0  0  0  0  0  0  0  0  0
   -1.5247   -2.1735    0.7432 H   0  0  0  0  0  0  0  0  0  0  0  0
   -7.8354    3.3372   -0.9074 C   0  0  0  0  0  0  0  0  0  0  0  0
   -8.7956    4.3361   -1.0427 C   0  0  0  0  0  0  0  0  0  0  0  0
   -9.2466    4.7425   -2.3079 C   0  0  0  0  0  0  0  0  0  0  0  0
   -8.7080    4.1193   -3.4414 C   0  0  0  0  0  0  0  0  0  0  0  0
   -7.7460    3.1168   -3.3249 C   0  0  0  0  0  0  0  0  0  0  0  0
   -7.3141    2.7377   -2.0550 C   0  0  0  0  0  0  0  0  0  0  0  0
   -7.4962    3.0140    0.0706 H   0  0  0  0  0  0  0  0  0  0  0  0
   -9.2049    4.8071   -0.1527 H   0  0  0  0  0  0  0  0  0  0  0  0
   -9.0477    4.4204   -4.4287 H   0  0  0  0  0  0  0  0  0  0  0  0
   -7.3370    2.6252   -4.2005 H   0  0  0  0  0  0  0  0  0  0  0  0
   -6.0767    1.4607   -1.8968 S   0  0  0  0  0  0  0  0  0  0  0  0
   -6.2526    0.7893   -0.5975 O   0  0  0  0  0  0  0  0  0  0  0  0
   -4.7634    2.3684   -1.8420 O   0  0  0  0  0  0  0  0  0  0  0  0
   -6.0859    0.6426   -3.1124 O   0  0  0  0  0  0  0  0  0  0  0  0
  -10.3100    5.8062   -2.4389 C   0  0  0  0  0  0  0  0  0  0  0  0
  -11.3082    5.3893   -2.2552 H   0  0  0  0  0  0  0  0  0  0  0  0
  -10.1599    6.6135   -1.7151 H   0  0  0  0  0  0  0  0  0  0  0  0
  -10.3175    6.2442   -3.4406 H   0  0  0  0  0  0  0  0  0  0  0  0
  1  2  1  0  0  0  0
  1 10  2  0  0  0  0
  2  3  1  0  0  0  0
  4  1  1  0  0  0  0
  5  4  2  0  0  0  0
  5  6  1  0  0  0  0
  6  9  2  0  0  0  0
  7  6  1  0  0  0  0
  7  8  1  0  0  0  0
  8 15  1  0  0  0  0
  9 10  1  0  0  0  0
  9 16  1  0  0  0  0
 10 17  1  0  0  0  0
 12  5  1  0  0  0  0
 13  8  1  0  0  0  0
 14  8  1  0  0  0  0
 18 24  1  0  0  0  0
 19 18  1  0  0  0  0
 19 25  1  0  0  0  0
 20 19  2  0  0  0  0
 21 22  2  0  0  0  0
 21 20  1  0  0  0  0
 22 23  1  0  0  0  0
 23 28  1  0  0  0  0
 23 18  2  0  0  0  0
 26 21  1  0  0  0  0
 27 22  1  0  0  0  0
 28 30  1  0  0  0  0
 28 29  2  0  0  0  0
 30 11  1  0  0  0  0
 31 28  2  0  0  0  0
 32 20  1  0  0  0  0
 32 33  1  0  0  0  0
 32 34  1  0  0  0  0
 35 32  1  0  0  0  0
M  RAD  3   2   2   3   3   4   2
M  END
