Coordinates from ORCA-job 4-MeOPhN2+~TsO-_B3LYPG-6-31G_dp-CH-Scan-d09-49-n800
 OpenBabel11261919313D

 35 35  0  0  0  0  0  0  0  0999 V2000
   -1.9387   -0.2393   -0.1263 C   0  0  0  0  0  0  0  0  0  0  0  0
   -3.2967   -0.4293    0.0308 N   0  0  0  0  0  0  0  0  0  0  0  0
   -4.4057   -0.5437    0.1495 N   0  0  0  0  0  0  0  0  0  0  0  0
   -1.5770    1.0516   -0.5789 C   0  0  0  0  0  0  0  0  0  0  0  0
   -0.1770    1.1395   -0.7037 C   0  0  0  0  0  0  0  0  0  0  0  0
    0.7102    0.0900   -0.4211 C   0  0  0  0  0  0  0  0  0  0  0  0
    2.0289    0.3517   -0.6027 O   0  0  0  0  0  0  0  0  0  0  0  0
    2.9903   -0.6656   -0.3522 C   0  0  0  0  0  0  0  0  0  0  0  0
    0.2377   -1.1753    0.0310 C   0  0  0  0  0  0  0  0  0  0  0  0
   -1.1169   -1.3550    0.1861 C   0  0  0  0  0  0  0  0  0  0  0  0
   -4.1303    3.5766   -1.6887 H   0  0  0  0  0  0  0  0  0  0  0  0
    0.2883    2.0658   -1.0434 H   0  0  0  0  0  0  0  0  0  0  0  0
    3.9606   -0.2205   -0.5768 H   0  0  0  0  0  0  0  0  0  0  0  0
    2.8360   -1.5365   -1.0003 H   0  0  0  0  0  0  0  0  0  0  0  0
    2.9766   -0.9866    0.6966 H   0  0  0  0  0  0  0  0  0  0  0  0
    0.9195   -1.9865    0.2524 H   0  0  0  0  0  0  0  0  0  0  0  0
   -1.5263   -2.3020    0.5300 H   0  0  0  0  0  0  0  0  0  0  0  0
   -8.2256    3.7556   -0.9894 C   0  0  0  0  0  0  0  0  0  0  0  0
   -9.4558    4.3871   -1.1447 C   0  0  0  0  0  0  0  0  0  0  0  0
  -10.0193    4.5772   -2.4168 C   0  0  0  0  0  0  0  0  0  0  0  0
   -9.3161    4.1146   -3.5371 C   0  0  0  0  0  0  0  0  0  0  0  0
   -8.0824    3.4794   -3.4030 C   0  0  0  0  0  0  0  0  0  0  0  0
   -7.5480    3.3109   -2.1264 C   0  0  0  0  0  0  0  0  0  0  0  0
   -7.7953    3.5985   -0.0064 H   0  0  0  0  0  0  0  0  0  0  0  0
   -9.9899    4.7371   -0.2656 H   0  0  0  0  0  0  0  0  0  0  0  0
   -9.7401    4.2512   -4.5281 H   0  0  0  0  0  0  0  0  0  0  0  0
   -7.5420    3.1118   -4.2679 H   0  0  0  0  0  0  0  0  0  0  0  0
   -5.9740    2.5004   -1.9433 S   0  0  0  0  0  0  0  0  0  0  0  0
   -5.8798    1.8929   -0.6145 O   0  0  0  0  0  0  0  0  0  0  0  0
   -5.0273    3.8418   -1.9607 O   0  0  0  0  0  0  0  0  0  0  0  0
   -5.6943    1.7019   -3.1339 O   0  0  0  0  0  0  0  0  0  0  0  0
  -11.3650    5.2449   -2.5655 C   0  0  0  0  0  0  0  0  0  0  0  0
  -12.1731    4.5699   -2.2589 H   0  0  0  0  0  0  0  0  0  0  0  0
  -11.4364    6.1394   -1.9392 H   0  0  0  0  0  0  0  0  0  0  0  0
  -11.5545    5.5382   -3.6010 H   0  0  0  0  0  0  0  0  0  0  0  0
  1  2  1  0  0  0  0
  1 10  2  0  0  0  0
  2  3  1  0  0  0  0
  4  1  1  0  0  0  0
  5  4  2  0  0  0  0
  5  6  1  0  0  0  0
  6  9  2  0  0  0  0
  7  6  1  0  0  0  0
  7  8  1  0  0  0  0
  8 15  1  0  0  0  0
  9 10  1  0  0  0  0
  9 16  1  0  0  0  0
 10 17  1  0  0  0  0
 12  5  1  0  0  0  0
 13  8  1  0  0  0  0
 14  8  1  0  0  0  0
 18 24  1  0  0  0  0
 19 18  1  0  0  0  0
 19 25  1  0  0  0  0
 20 19  2  0  0  0  0
 21 22  2  0  0  0  0
 21 20  1  0  0  0  0
 22 23  1  0  0  0  0
 23 28  1  0  0  0  0
 23 18  2  0  0  0  0
 26 21  1  0  0  0  0
 27 22  1  0  0  0  0
 28 29  2  0  0  0  0
 30 28  1  0  0  0  0
 30 11  1  0  0  0  0
 31 28  2  0  0  0  0
 32 20  1  0  0  0  0
 32 33  1  0  0  0  0
 32 34  1  0  0  0  0
 35 32  1  0  0  0  0
M  RAD  3   2   2   3   3   4   2
M  END
