Coordinates from ORCA-job 4-MeOPhN2+~TsO-_B3LYPG-6-31G_dp-CH-Scan-d09-49-n800
 OpenBabel11261919313D

 35 35  0  0  0  0  0  0  0  0999 V2000
   -2.1070   -0.2973   -0.1058 C   0  0  0  0  0  0  0  0  0  0  0  0
   -3.4349   -0.5965    0.1121 N   0  0  0  0  0  0  0  0  0  0  0  0
   -4.5224   -0.8076    0.2825 N   0  0  0  0  0  0  0  0  0  0  0  0
   -1.8616    0.9955   -0.6278 C   0  0  0  0  0  0  0  0  0  0  0  0
   -0.4809    1.1939   -0.8065 C   0  0  0  0  0  0  0  0  0  0  0  0
    0.4996    0.2349   -0.5074 C   0  0  0  0  0  0  0  0  0  0  0  0
    1.7841    0.5964   -0.7434 O   0  0  0  0  0  0  0  0  0  0  0  0
    2.8361   -0.3235   -0.4760 C   0  0  0  0  0  0  0  0  0  0  0  0
    0.1473   -1.0416    0.0149 C   0  0  0  0  0  0  0  0  0  0  0  0
   -1.1823   -1.3235    0.2243 C   0  0  0  0  0  0  0  0  0  0  0  0
   -4.0724    3.0045   -1.5025 H   0  0  0  0  0  0  0  0  0  0  0  0
   -0.1068    2.1381   -1.2026 H   0  0  0  0  0  0  0  0  0  0  0  0
    3.7583    0.1921   -0.7470 H   0  0  0  0  0  0  0  0  0  0  0  0
    2.7412   -1.2326   -1.0813 H   0  0  0  0  0  0  0  0  0  0  0  0
    2.8746   -0.5956    0.5858 H   0  0  0  0  0  0  0  0  0  0  0  0
    0.9003   -1.7836    0.2480 H   0  0  0  0  0  0  0  0  0  0  0  0
   -1.5003   -2.2841    0.6220 H   0  0  0  0  0  0  0  0  0  0  0  0
   -8.1602    3.6035   -0.9508 C   0  0  0  0  0  0  0  0  0  0  0  0
   -9.3127    4.3615   -1.1336 C   0  0  0  0  0  0  0  0  0  0  0  0
   -9.7991    4.6449   -2.4201 C   0  0  0  0  0  0  0  0  0  0  0  0
   -9.0982    4.1463   -3.5260 C   0  0  0  0  0  0  0  0  0  0  0  0
   -7.9414    3.3849   -3.3638 C   0  0  0  0  0  0  0  0  0  0  0  0
   -7.4822    3.1250   -2.0738 C   0  0  0  0  0  0  0  0  0  0  0  0
   -7.7910    3.3740    0.0427 H   0  0  0  0  0  0  0  0  0  0  0  0
   -9.8468    4.7378   -0.2653 H   0  0  0  0  0  0  0  0  0  0  0  0
   -9.4633    4.3539   -4.5280 H   0  0  0  0  0  0  0  0  0  0  0  0
   -7.4041    2.9890   -4.2182 H   0  0  0  0  0  0  0  0  0  0  0  0
   -6.0085    2.1488   -1.8559 S   0  0  0  0  0  0  0  0  0  0  0  0
   -6.0489    1.4835   -0.5507 O   0  0  0  0  0  0  0  0  0  0  0  0
   -4.9324    3.3770   -1.7785 O   0  0  0  0  0  0  0  0  0  0  0  0
   -5.7633    1.3628   -3.0632 O   0  0  0  0  0  0  0  0  0  0  0  0
  -11.0634    5.4503   -2.5996 C   0  0  0  0  0  0  0  0  0  0  0  0
  -11.9444    4.8677   -2.3049 H   0  0  0  0  0  0  0  0  0  0  0  0
  -11.0525    6.3526   -1.9801 H   0  0  0  0  0  0  0  0  0  0  0  0
  -11.2002    5.7547   -3.6401 H   0  0  0  0  0  0  0  0  0  0  0  0
  1  2  1  0  0  0  0
  1 10  2  0  0  0  0
  2  3  1  0  0  0  0
  4  1  1  0  0  0  0
  5  4  2  0  0  0  0
  5  6  1  0  0  0  0
  6  9  2  0  0  0  0
  7  6  1  0  0  0  0
  7  8  1  0  0  0  0
  8 15  1  0  0  0  0
  9 10  1  0  0  0  0
  9 16  1  0  0  0  0
 10 17  1  0  0  0  0
 12  5  1  0  0  0  0
 13  8  1  0  0  0  0
 14  8  1  0  0  0  0
 18 24  1  0  0  0  0
 19 18  1  0  0  0  0
 19 25  1  0  0  0  0
 20 19  2  0  0  0  0
 21 22  2  0  0  0  0
 21 20  1  0  0  0  0
 22 23  1  0  0  0  0
 23 28  1  0  0  0  0
 23 18  2  0  0  0  0
 26 21  1  0  0  0  0
 27 22  1  0  0  0  0
 28 30  1  0  0  0  0
 28 29  2  0  0  0  0
 30 11  1  0  0  0  0
 31 28  2  0  0  0  0
 32 20  1  0  0  0  0
 32 33  1  0  0  0  0
 32 34  1  0  0  0  0
 35 32  1  0  0  0  0
M  RAD  3   2   2   3   3   4   2
M  END
