Coordinates from ORCA-job 4-MeOPhN2+~TsO-_B3LYPG-6-31G_dp-CH-Scan-d09-49-n800
 OpenBabel11261919303D

 35 35  0  0  0  0  0  0  0  0999 V2000
   -2.7891   -0.0793   -0.3642 C   0  0  0  0  0  0  0  0  0  0  0  0
   -4.1501   -0.3484   -0.3679 N   0  0  0  0  0  0  0  0  0  0  0  0
   -5.2433   -0.0115   -0.3732 N   0  0  0  0  0  0  0  0  0  0  0  0
   -2.3187    1.2517   -0.3160 C   0  0  0  0  0  0  0  0  0  0  0  0
   -0.9525    1.4500   -0.3184 C   0  0  0  0  0  0  0  0  0  0  0  0
   -0.0578    0.3611   -0.3697 C   0  0  0  0  0  0  0  0  0  0  0  0
    1.2482    0.6857   -0.3677 O   0  0  0  0  0  0  0  0  0  0  0  0
    2.2259   -0.3508   -0.4336 C   0  0  0  0  0  0  0  0  0  0  0  0
   -0.5475   -0.9580   -0.4176 C   0  0  0  0  0  0  0  0  0  0  0  0
   -1.9173   -1.1740   -0.4140 C   0  0  0  0  0  0  0  0  0  0  0  0
   -2.9239    1.9769   -0.2859 H   0  0  0  0  0  0  0  0  0  0  0  0
   -0.5443    2.4543   -0.2894 H   0  0  0  0  0  0  0  0  0  0  0  0
    3.1916    0.1538   -0.4230 H   0  0  0  0  0  0  0  0  0  0  0  0
    2.1280   -0.9307   -1.3584 H   0  0  0  0  0  0  0  0  0  0  0  0
    2.1551   -1.0201    0.4319 H   0  0  0  0  0  0  0  0  0  0  0  0
    0.1250   -1.8049   -0.4589 H   0  0  0  0  0  0  0  0  0  0  0  0
   -2.3203   -2.1801   -0.4538 H   0  0  0  0  0  0  0  0  0  0  0  0
   -7.1680    4.5981   -1.5683 C   0  0  0  0  0  0  0  0  0  0  0  0
   -8.4509    5.0954   -1.7891 C   0  0  0  0  0  0  0  0  0  0  0  0
   -9.4257    4.3249   -2.4394 C   0  0  0  0  0  0  0  0  0  0  0  0
   -9.0760    3.0397   -2.8759 C   0  0  0  0  0  0  0  0  0  0  0  0
   -7.7966    2.5284   -2.6613 C   0  0  0  0  0  0  0  0  0  0  0  0
   -6.8483    3.3106   -2.0022 C   0  0  0  0  0  0  0  0  0  0  0  0
   -6.4087    5.2023   -1.0837 H   0  0  0  0  0  0  0  0  0  0  0  0
   -8.6981    6.1011   -1.4585 H   0  0  0  0  0  0  0  0  0  0  0  0
   -9.8137    2.4331   -3.3960 H   0  0  0  0  0  0  0  0  0  0  0  0
   -7.5211    1.5415   -3.0163 H   0  0  0  0  0  0  0  0  0  0  0  0
   -5.2087    2.6509   -1.6886 S   0  0  0  0  0  0  0  0  0  0  0  0
   -5.3001    2.0230   -0.2753 O   0  0  0  0  0  0  0  0  0  0  0  0
   -4.2801    3.7972   -1.6487 O   0  0  0  0  0  0  0  0  0  0  0  0
   -4.9536    1.5994   -2.6966 O   0  0  0  0  0  0  0  0  0  0  0  0
  -10.8219    4.8615   -2.6484 C   0  0  0  0  0  0  0  0  0  0  0  0
  -11.4604    4.6524   -1.7801 H   0  0  0  0  0  0  0  0  0  0  0  0
  -10.8167    5.9466   -2.7924 H   0  0  0  0  0  0  0  0  0  0  0  0
  -11.3000    4.4054   -3.5202 H   0  0  0  0  0  0  0  0  0  0  0  0
  1  4  2  0  0  0  0
  2  1  1  0  0  0  0
  3  2  2  0  0  0  0
  4 11  1  0  0  0  0
  5  4  1  0  0  0  0
  5 12  1  0  0  0  0
  6  7  1  0  0  0  0
  6  5  2  0  0  0  0
  8 13  1  0  0  0  0
  8  7  1  0  0  0  0
  8 15  1  0  0  0  0
  9 10  2  0  0  0  0
  9  6  1  0  0  0  0
 10  1  1  0  0  0  0
 14  8  1  0  0  0  0
 16  9  1  0  0  0  0
 17 10  1  0  0  0  0
 18 24  1  0  0  0  0
 19 18  1  0  0  0  0
 19 25  1  0  0  0  0
 20 19  2  0  0  0  0
 21 22  2  0  0  0  0
 21 20  1  0  0  0  0
 22 23  1  0  0  0  0
 23 28  1  0  0  0  0
 23 18  2  0  0  0  0
 26 21  1  0  0  0  0
 27 22  1  0  0  0  0
 28 30  2  0  0  0  0
 28 29  1  0  0  0  0
 31 28  2  0  0  0  0
 32 20  1  0  0  0  0
 32 33  1  0  0  0  0
 34 32  1  0  0  0  0
 35 32  1  0  0  0  0
M  RAD  2   3   2  29   2
M  END
