Coordinates from ORCA-job 4-MeOPhN2+~TsO-_B3LYPG-6-31G_dp-CH-Scan-d09-49-n800
 OpenBabel11261919313D

 35 35  0  0  0  0  0  0  0  0999 V2000
   -2.6255   -0.5009   -0.3266 C   0  0  0  0  0  0  0  0  0  0  0  0
   -3.8376   -1.1243   -0.1464 N   0  0  0  0  0  0  0  0  0  0  0  0
   -4.8472   -1.5889   -0.0212 N   0  0  0  0  0  0  0  0  0  0  0  0
   -2.6227    0.7030   -1.0718 C   0  0  0  0  0  0  0  0  0  0  0  0
   -1.3497    1.2559   -1.2012 C   0  0  0  0  0  0  0  0  0  0  0  0
   -0.1954    0.6713   -0.6483 C   0  0  0  0  0  0  0  0  0  0  0  0
    0.9605    1.3289   -0.8649 O   0  0  0  0  0  0  0  0  0  0  0  0
    2.1824    0.8032   -0.3500 C   0  0  0  0  0  0  0  0  0  0  0  0
   -0.2738   -0.5406    0.0860 C   0  0  0  0  0  0  0  0  0  0  0  0
   -1.5027   -1.1402    0.2516 C   0  0  0  0  0  0  0  0  0  0  0  0
   -3.8701    1.3587   -1.7192 H   0  0  0  0  0  0  0  0  0  0  0  0
   -1.2101    2.1824   -1.7530 H   0  0  0  0  0  0  0  0  0  0  0  0
    2.9585    1.5020   -0.6621 H   0  0  0  0  0  0  0  0  0  0  0  0
    2.3981   -0.1872   -0.7669 H   0  0  0  0  0  0  0  0  0  0  0  0
    2.1625    0.7465    0.7445 H   0  0  0  0  0  0  0  0  0  0  0  0
    0.6088   -0.9984    0.5128 H   0  0  0  0  0  0  0  0  0  0  0  0
   -1.6040   -2.0691    0.8045 H   0  0  0  0  0  0  0  0  0  0  0  0
   -7.5640    3.2743   -0.9331 C   0  0  0  0  0  0  0  0  0  0  0  0
   -8.4376    4.3573   -0.9957 C   0  0  0  0  0  0  0  0  0  0  0  0
   -9.0069    4.7606   -2.2129 C   0  0  0  0  0  0  0  0  0  0  0  0
   -8.6768    4.0464   -3.3723 C   0  0  0  0  0  0  0  0  0  0  0  0
   -7.8055    2.9588   -3.3261 C   0  0  0  0  0  0  0  0  0  0  0  0
   -7.2504    2.5823   -2.1038 C   0  0  0  0  0  0  0  0  0  0  0  0
   -7.1348    2.9540    0.0097 H   0  0  0  0  0  0  0  0  0  0  0  0
   -8.6854    4.8972   -0.0851 H   0  0  0  0  0  0  0  0  0  0  0  0
   -9.1107    4.3429   -4.3236 H   0  0  0  0  0  0  0  0  0  0  0  0
   -7.5613    2.3963   -4.2206 H   0  0  0  0  0  0  0  0  0  0  0  0
   -6.1129    1.2009   -2.0443 S   0  0  0  0  0  0  0  0  0  0  0  0
   -6.1760    0.6219   -0.6823 O   0  0  0  0  0  0  0  0  0  0  0  0
   -4.7328    1.9085   -2.2420 O   0  0  0  0  0  0  0  0  0  0  0  0
   -6.4248    0.3133   -3.1719 O   0  0  0  0  0  0  0  0  0  0  0  0
   -9.9774    5.9166   -2.2636 C   0  0  0  0  0  0  0  0  0  0  0  0
  -10.9831    5.6016   -1.9579 H   0  0  0  0  0  0  0  0  0  0  0  0
   -9.6742    6.7239   -1.5894 H   0  0  0  0  0  0  0  0  0  0  0  0
  -10.0573    6.3285   -3.2734 H   0  0  0  0  0  0  0  0  0  0  0  0
  1  2  1  0  0  0  0
  1 10  2  0  0  0  0
  2  3  1  0  0  0  0
  4  1  1  0  0  0  0
  5  4  2  0  0  0  0
  5  6  1  0  0  0  0
  6  9  2  0  0  0  0
  7  6  1  0  0  0  0
  7  8  1  0  0  0  0
  8 15  1  0  0  0  0
  9 10  1  0  0  0  0
  9 16  1  0  0  0  0
 10 17  1  0  0  0  0
 12  5  1  0  0  0  0
 13  8  1  0  0  0  0
 14  8  1  0  0  0  0
 18 24  1  0  0  0  0
 19 18  1  0  0  0  0
 19 25  1  0  0  0  0
 20 19  2  0  0  0  0
 21 22  2  0  0  0  0
 21 20  1  0  0  0  0
 22 23  1  0  0  0  0
 23 28  1  0  0  0  0
 23 18  2  0  0  0  0
 26 21  1  0  0  0  0
 27 22  1  0  0  0  0
 28 29  2  0  0  0  0
 30 28  1  0  0  0  0
 30 11  1  0  0  0  0
 31 28  2  0  0  0  0
 32 20  1  0  0  0  0
 32 33  1  0  0  0  0
 32 34  1  0  0  0  0
 35 32  1  0  0  0  0
M  RAD  3   2   2   3   3   4   2
M  END
