Coordinates from ORCA-job 4-MeOPhN2+~TsO-_B3LYPG-6-31G_dp-CH-Scan-d09-49-n800
 OpenBabel11261919313D

 35 35  0  0  0  0  0  0  0  0999 V2000
   -2.3783   -0.4206   -0.1942 C   0  0  0  0  0  0  0  0  0  0  0  0
   -3.6473   -0.9056    0.0267 N   0  0  0  0  0  0  0  0  0  0  0  0
   -4.6923   -1.2721    0.1941 N   0  0  0  0  0  0  0  0  0  0  0  0
   -2.3001    0.8441   -0.8274 C   0  0  0  0  0  0  0  0  0  0  0  0
   -0.9668    1.2404   -1.0013 C   0  0  0  0  0  0  0  0  0  0  0  0
    0.1382    0.4723   -0.5972 C   0  0  0  0  0  0  0  0  0  0  0  0
    1.3562    1.0052   -0.8432 O   0  0  0  0  0  0  0  0  0  0  0  0
    2.5298    0.2874   -0.4744 C   0  0  0  0  0  0  0  0  0  0  0  0
   -0.0365   -0.7909    0.0315 C   0  0  0  0  0  0  0  0  0  0  0  0
   -1.3151   -1.2536    0.2410 C   0  0  0  0  0  0  0  0  0  0  0  0
   -4.0218    2.0634   -1.5236 H   0  0  0  0  0  0  0  0  0  0  0  0
   -0.7331    2.1926   -1.4748 H   0  0  0  0  0  0  0  0  0  0  0  0
    3.3684    0.9168   -0.7738 H   0  0  0  0  0  0  0  0  0  0  0  0
    2.5942   -0.6730   -0.9985 H   0  0  0  0  0  0  0  0  0  0  0  0
    2.5739    0.1175    0.6081 H   0  0  0  0  0  0  0  0  0  0  0  0
    0.8105   -1.3874    0.3440 H   0  0  0  0  0  0  0  0  0  0  0  0
   -1.4958   -2.2137    0.7166 H   0  0  0  0  0  0  0  0  0  0  0  0
   -7.9268    3.4050   -0.9190 C   0  0  0  0  0  0  0  0  0  0  0  0
   -8.9278    4.3611   -1.0649 C   0  0  0  0  0  0  0  0  0  0  0  0
   -9.3913    4.7387   -2.3348 C   0  0  0  0  0  0  0  0  0  0  0  0
   -8.8236    4.1306   -3.4622 C   0  0  0  0  0  0  0  0  0  0  0  0
   -7.8201    3.1709   -3.3359 C   0  0  0  0  0  0  0  0  0  0  0  0
   -7.3774    2.8207   -2.0615 C   0  0  0  0  0  0  0  0  0  0  0  0
   -7.5771    3.1040    0.0623 H   0  0  0  0  0  0  0  0  0  0  0  0
   -9.3594    4.8209   -0.1798 H   0  0  0  0  0  0  0  0  0  0  0  0
   -9.1726    4.4100   -4.4526 H   0  0  0  0  0  0  0  0  0  0  0  0
   -7.3877    2.6913   -4.2068 H   0  0  0  0  0  0  0  0  0  0  0  0
   -6.0912    1.5971   -1.8896 S   0  0  0  0  0  0  0  0  0  0  0  0
   -6.2305    0.9330   -0.5853 O   0  0  0  0  0  0  0  0  0  0  0  0
   -4.8167    2.5820   -1.8401 O   0  0  0  0  0  0  0  0  0  0  0  0
   -6.0482    0.7765   -3.1008 O   0  0  0  0  0  0  0  0  0  0  0  0
  -10.4966    5.7576   -2.4757 C   0  0  0  0  0  0  0  0  0  0  0  0
  -11.4750    5.3072   -2.2673 H   0  0  0  0  0  0  0  0  0  0  0  0
  -10.3675    6.5869   -1.7731 H   0  0  0  0  0  0  0  0  0  0  0  0
  -10.5342    6.1710   -3.4869 H   0  0  0  0  0  0  0  0  0  0  0  0
  1  2  1  0  0  0  0
  1 10  2  0  0  0  0
  2  3  1  0  0  0  0
  4  1  1  0  0  0  0
  5  4  2  0  0  0  0
  5  6  1  0  0  0  0
  6  9  2  0  0  0  0
  7  6  1  0  0  0  0
  7  8  1  0  0  0  0
  8 15  1  0  0  0  0
  9 10  1  0  0  0  0
  9 16  1  0  0  0  0
 10 17  1  0  0  0  0
 12  5  1  0  0  0  0
 13  8  1  0  0  0  0
 14  8  1  0  0  0  0
 18 24  1  0  0  0  0
 19 18  1  0  0  0  0
 19 25  1  0  0  0  0
 20 19  2  0  0  0  0
 21 22  2  0  0  0  0
 21 20  1  0  0  0  0
 22 23  1  0  0  0  0
 23 28  1  0  0  0  0
 23 18  2  0  0  0  0
 26 21  1  0  0  0  0
 27 22  1  0  0  0  0
 28 30  1  0  0  0  0
 28 29  2  0  0  0  0
 30 11  1  0  0  0  0
 31 28  2  0  0  0  0
 32 20  1  0  0  0  0
 32 33  1  0  0  0  0
 32 34  1  0  0  0  0
 35 32  1  0  0  0  0
M  RAD  3   2   2   3   3   4   2
M  END
