Coordinates from ORCA-job 4-MeOPhN2+~TsO-_B3LYPG-6-31G_dp-CH-Scan-d09-49-n800
 OpenBabel11261919313D

 35 35  0  0  0  0  0  0  0  0999 V2000
   -2.1580   -0.3238   -0.1132 C   0  0  0  0  0  0  0  0  0  0  0  0
   -3.4749   -0.6613    0.1123 N   0  0  0  0  0  0  0  0  0  0  0  0
   -4.5546   -0.9077    0.2835 N   0  0  0  0  0  0  0  0  0  0  0  0
   -1.9501    0.9649   -0.6611 C   0  0  0  0  0  0  0  0  0  0  0  0
   -0.5776    1.2035   -0.8465 C   0  0  0  0  0  0  0  0  0  0  0  0
    0.4325    0.2816   -0.5289 C   0  0  0  0  0  0  0  0  0  0  0  0
    1.7043    0.6782   -0.7739 O   0  0  0  0  0  0  0  0  0  0  0  0
    2.7858   -0.2006   -0.4849 C   0  0  0  0  0  0  0  0  0  0  0  0
    0.1198   -0.9940    0.0195 C   0  0  0  0  0  0  0  0  0  0  0  0
   -1.2003   -1.3127    0.2360 C   0  0  0  0  0  0  0  0  0  0  0  0
   -4.0671    2.7997   -1.4756 H   0  0  0  0  0  0  0  0  0  0  0  0
   -0.2342    2.1509   -1.2617 H   0  0  0  0  0  0  0  0  0  0  0  0
    3.6907    0.3396   -0.7656 H   0  0  0  0  0  0  0  0  0  0  0  0
    2.7223   -1.1251   -1.0706 H   0  0  0  0  0  0  0  0  0  0  0  0
    2.8305   -0.4480    0.5827 H   0  0  0  0  0  0  0  0  0  0  0  0
    0.8954   -1.7074    0.2669 H   0  0  0  0  0  0  0  0  0  0  0  0
   -1.4879   -2.2746    0.6531 H   0  0  0  0  0  0  0  0  0  0  0  0
   -8.1234    3.5611   -0.9471 C   0  0  0  0  0  0  0  0  0  0  0  0
   -9.2459    4.3640   -1.1242 C   0  0  0  0  0  0  0  0  0  0  0  0
   -9.7238    4.6709   -2.4085 C   0  0  0  0  0  0  0  0  0  0  0  0
   -9.0452    4.1499   -3.5178 C   0  0  0  0  0  0  0  0  0  0  0  0
   -7.9181    3.3440   -3.3611 C   0  0  0  0  0  0  0  0  0  0  0  0
   -7.4662    3.0614   -2.0734 C   0  0  0  0  0  0  0  0  0  0  0  0
   -7.7616    3.3133    0.0447 H   0  0  0  0  0  0  0  0  0  0  0  0
   -9.7631    4.7572   -0.2532 H   0  0  0  0  0  0  0  0  0  0  0  0
   -9.4041    4.3753   -4.5181 H   0  0  0  0  0  0  0  0  0  0  0  0
   -7.3978    2.9311   -4.2180 H   0  0  0  0  0  0  0  0  0  0  0  0
   -6.0307    2.0277   -1.8625 S   0  0  0  0  0  0  0  0  0  0  0  0
   -6.1090    1.3395   -0.5702 O   0  0  0  0  0  0  0  0  0  0  0  0
   -4.9117    3.2097   -1.7537 O   0  0  0  0  0  0  0  0  0  0  0  0
   -5.8081    1.2526   -3.0815 O   0  0  0  0  0  0  0  0  0  0  0  0
  -10.9563    5.5257   -2.5817 C   0  0  0  0  0  0  0  0  0  0  0  0
  -11.8590    4.9763   -2.2888 H   0  0  0  0  0  0  0  0  0  0  0  0
  -10.9098    6.4235   -1.9571 H   0  0  0  0  0  0  0  0  0  0  0  0
  -11.0825    5.8411   -3.6202 H   0  0  0  0  0  0  0  0  0  0  0  0
  1  2  1  0  0  0  0
  1 10  2  0  0  0  0
  2  3  1  0  0  0  0
  4  1  1  0  0  0  0
  5  4  2  0  0  0  0
  5  6  1  0  0  0  0
  6  9  2  0  0  0  0
  7  6  1  0  0  0  0
  7  8  1  0  0  0  0
  8 15  1  0  0  0  0
  9 10  1  0  0  0  0
  9 16  1  0  0  0  0
 10 17  1  0  0  0  0
 12  5  1  0  0  0  0
 13  8  1  0  0  0  0
 14  8  1  0  0  0  0
 18 24  1  0  0  0  0
 19 18  1  0  0  0  0
 19 25  1  0  0  0  0
 20 19  2  0  0  0  0
 21 22  2  0  0  0  0
 21 20  1  0  0  0  0
 22 23  1  0  0  0  0
 23 28  1  0  0  0  0
 23 18  2  0  0  0  0
 26 21  1  0  0  0  0
 27 22  1  0  0  0  0
 28 30  1  0  0  0  0
 28 29  2  0  0  0  0
 30 11  1  0  0  0  0
 31 28  2  0  0  0  0
 32 20  1  0  0  0  0
 32 33  1  0  0  0  0
 32 34  1  0  0  0  0
 35 32  1  0  0  0  0
M  RAD  3   2   2   3   3   4   2
M  END
