Coordinates from ORCA-job 4-MeOPhN2+~TsO-_B3LYPG-6-31G_dp-CH-Scan-d09-49-n800
 OpenBabel11261919313D

 35 35  0  0  0  0  0  0  0  0999 V2000
   -1.9583   -0.2429   -0.1213 C   0  0  0  0  0  0  0  0  0  0  0  0
   -3.3136   -0.4426    0.0446 N   0  0  0  0  0  0  0  0  0  0  0  0
   -4.4208   -0.5655    0.1707 N   0  0  0  0  0  0  0  0  0  0  0  0
   -1.6076    1.0494   -0.5791 C   0  0  0  0  0  0  0  0  0  0  0  0
   -0.2092    1.1467   -0.7121 C   0  0  0  0  0  0  0  0  0  0  0  0
    0.6870    0.1040   -0.4321 C   0  0  0  0  0  0  0  0  0  0  0  0
    2.0027    0.3746   -0.6215 O   0  0  0  0  0  0  0  0  0  0  0  0
    2.9726   -0.6354   -0.3741 C   0  0  0  0  0  0  0  0  0  0  0  0
    0.2257   -1.1634    0.0255 C   0  0  0  0  0  0  0  0  0  0  0  0
   -1.1267   -1.3520    0.1886 C   0  0  0  0  0  0  0  0  0  0  0  0
   -4.1193    3.5320   -1.6607 H   0  0  0  0  0  0  0  0  0  0  0  0
    0.2478    2.0753   -1.0566 H   0  0  0  0  0  0  0  0  0  0  0  0
    3.9385   -0.1839   -0.6047 H   0  0  0  0  0  0  0  0  0  0  0  0
    2.8210   -1.5087   -1.0198 H   0  0  0  0  0  0  0  0  0  0  0  0
    2.9665   -0.9544    0.6753 H   0  0  0  0  0  0  0  0  0  0  0  0
    0.9143   -1.9695    0.2447 H   0  0  0  0  0  0  0  0  0  0  0  0
   -1.5276   -2.3010    0.5369 H   0  0  0  0  0  0  0  0  0  0  0  0
   -8.2206    3.7421   -0.9817 C   0  0  0  0  0  0  0  0  0  0  0  0
   -9.4450    4.3830   -1.1450 C   0  0  0  0  0  0  0  0  0  0  0  0
   -9.9973    4.5802   -2.4209 C   0  0  0  0  0  0  0  0  0  0  0  0
   -9.2888    4.1153   -3.5369 C   0  0  0  0  0  0  0  0  0  0  0  0
   -8.0609    3.4707   -3.3948 C   0  0  0  0  0  0  0  0  0  0  0  0
   -7.5376    3.2951   -2.1146 C   0  0  0  0  0  0  0  0  0  0  0  0
   -7.7991    3.5795    0.0041 H   0  0  0  0  0  0  0  0  0  0  0  0
   -9.9834    4.7347   -0.2692 H   0  0  0  0  0  0  0  0  0  0  0  0
   -9.7041    4.2574   -4.5307 H   0  0  0  0  0  0  0  0  0  0  0  0
   -7.5165    3.1012   -4.2565 H   0  0  0  0  0  0  0  0  0  0  0  0
   -5.9712    2.4721   -1.9214 S   0  0  0  0  0  0  0  0  0  0  0  0
   -5.8919    1.8625   -0.5925 O   0  0  0  0  0  0  0  0  0  0  0  0
   -5.0142    3.8056   -1.9315 O   0  0  0  0  0  0  0  0  0  0  0  0
   -5.6901    1.6719   -3.1106 O   0  0  0  0  0  0  0  0  0  0  0  0
  -11.3369    5.2580   -2.5782 C   0  0  0  0  0  0  0  0  0  0  0  0
  -12.1522    4.5886   -2.2784 H   0  0  0  0  0  0  0  0  0  0  0  0
  -11.4063    6.1522   -1.9513 H   0  0  0  0  0  0  0  0  0  0  0  0
  -11.5168    5.5541   -3.6147 H   0  0  0  0  0  0  0  0  0  0  0  0
  1  2  1  0  0  0  0
  1 10  2  0  0  0  0
  2  3  1  0  0  0  0
  4  1  1  0  0  0  0
  5  4  2  0  0  0  0
  5  6  1  0  0  0  0
  6  9  2  0  0  0  0
  7  6  1  0  0  0  0
  7  8  1  0  0  0  0
  8 15  1  0  0  0  0
  9 10  1  0  0  0  0
  9 16  1  0  0  0  0
 10 17  1  0  0  0  0
 12  5  1  0  0  0  0
 13  8  1  0  0  0  0
 14  8  1  0  0  0  0
 18 24  1  0  0  0  0
 19 18  1  0  0  0  0
 19 25  1  0  0  0  0
 20 19  2  0  0  0  0
 21 22  2  0  0  0  0
 21 20  1  0  0  0  0
 22 23  1  0  0  0  0
 23 28  1  0  0  0  0
 23 18  2  0  0  0  0
 26 21  1  0  0  0  0
 27 22  1  0  0  0  0
 28 29  2  0  0  0  0
 30 28  1  0  0  0  0
 30 11  1  0  0  0  0
 31 28  2  0  0  0  0
 32 20  1  0  0  0  0
 32 33  1  0  0  0  0
 32 34  1  0  0  0  0
 35 32  1  0  0  0  0
M  RAD  3   2   2   3   3   4   2
M  END
