Coordinates from ORCA-job 4-MeOPhN2+~TsO-_B3LYPG-6-31G_dp-CH-Scan-d09-49-n800
 OpenBabel11261919313D

 35 35  0  0  0  0  0  0  0  0999 V2000
   -1.7052   -0.3418   -0.5642 C   0  0  0  0  0  0  0  0  0  0  0  0
   -3.0554   -0.5573   -0.7570 N   0  0  0  0  0  0  0  0  0  0  0  0
   -4.1556   -0.6887   -0.9314 N   0  0  0  0  0  0  0  0  0  0  0  0
   -1.2589    0.9330   -0.9848 C   0  0  0  0  0  0  0  0  0  0  0  0
    0.1251    1.0528   -0.7485 C   0  0  0  0  0  0  0  0  0  0  0  0
    0.9217    0.0468   -0.1813 C   0  0  0  0  0  0  0  0  0  0  0  0
    2.2387    0.3362   -0.0282 O   0  0  0  0  0  0  0  0  0  0  0  0
    3.1124   -0.6325    0.5378 C   0  0  0  0  0  0  0  0  0  0  0  0
    0.3655   -1.2060    0.2072 C   0  0  0  0  0  0  0  0  0  0  0  0
   -0.9798   -1.4169    0.0155 C   0  0  0  0  0  0  0  0  0  0  0  0
   -4.3581    3.4611   -2.7190 H   0  0  0  0  0  0  0  0  0  0  0  0
    0.6504    1.9725   -1.0107 H   0  0  0  0  0  0  0  0  0  0  0  0
    4.1000   -0.1692    0.5547 H   0  0  0  0  0  0  0  0  0  0  0  0
    3.1537   -1.5450   -0.0694 H   0  0  0  0  0  0  0  0  0  0  0  0
    2.8202   -0.8922    1.5625 H   0  0  0  0  0  0  0  0  0  0  0  0
    0.9784   -1.9840    0.6441 H   0  0  0  0  0  0  0  0  0  0  0  0
   -1.4510   -2.3564    0.2954 H   0  0  0  0  0  0  0  0  0  0  0  0
   -8.0513    3.7590   -1.2340 C   0  0  0  0  0  0  0  0  0  0  0  0
   -9.2410    4.4543   -1.0379 C   0  0  0  0  0  0  0  0  0  0  0  0
  -10.1275    4.6914   -2.1001 C   0  0  0  0  0  0  0  0  0  0  0  0
   -9.7916    4.2105   -3.3732 C   0  0  0  0  0  0  0  0  0  0  0  0
   -8.6062    3.5103   -3.5904 C   0  0  0  0  0  0  0  0  0  0  0  0
   -7.7447    3.2959   -2.5151 C   0  0  0  0  0  0  0  0  0  0  0  0
   -7.3722    3.5659   -0.4107 H   0  0  0  0  0  0  0  0  0  0  0  0
   -9.4868    4.8187   -0.0441 H   0  0  0  0  0  0  0  0  0  0  0  0
  -10.4677    4.3844   -4.2060 H   0  0  0  0  0  0  0  0  0  0  0  0
   -8.3518    3.1278   -4.5725 H   0  0  0  0  0  0  0  0  0  0  0  0
   -6.2233    2.4100   -2.7808 S   0  0  0  0  0  0  0  0  0  0  0  0
   -5.7651    1.8137   -1.5238 O   0  0  0  0  0  0  0  0  0  0  0  0
   -5.2268    3.6788   -3.1001 O   0  0  0  0  0  0  0  0  0  0  0  0
   -6.3479    1.6010   -3.9877 O   0  0  0  0  0  0  0  0  0  0  0  0
  -11.4264    5.4235   -1.8659 C   0  0  0  0  0  0  0  0  0  0  0  0
  -12.1883    4.7473   -1.4586 H   0  0  0  0  0  0  0  0  0  0  0  0
  -11.3004    6.2399   -1.1481 H   0  0  0  0  0  0  0  0  0  0  0  0
  -11.8232    5.8426   -2.7941 H   0  0  0  0  0  0  0  0  0  0  0  0
  1 10  2  0  0  0  0
  2  1  1  0  0  0  0
  3  2  1  0  0  0  0
  4  5  2  0  0  0  0
  4  1  1  0  0  0  0
  5  6  1  0  0  0  0
  6  7  1  0  0  0  0
  6  9  2  0  0  0  0
  7  8  1  0  0  0  0
  8 13  1  0  0  0  0
  8 15  1  0  0  0  0
  9 16  1  0  0  0  0
 10  9  1  0  0  0  0
 10 17  1  0  0  0  0
 12  5  1  0  0  0  0
 14  8  1  0  0  0  0
 18 19  1  0  0  0  0
 18 24  1  0  0  0  0
 19 25  1  0  0  0  0
 20 32  1  0  0  0  0
 20 19  2  0  0  0  0
 21 20  1  0  0  0  0
 22 21  2  0  0  0  0
 22 23  1  0  0  0  0
 23 18  2  0  0  0  0
 26 21  1  0  0  0  0
 27 22  1  0  0  0  0
 28 23  1  0  0  0  0
 28 29  2  0  0  0  0
 30 28  1  0  0  0  0
 30 11  1  0  0  0  0
 31 28  2  0  0  0  0
 32 33  1  0  0  0  0
 32 34  1  0  0  0  0
 35 32  1  0  0  0  0
M  RAD  3   2   2   3   3   4   2
M  END
