Coordinates from ORCA-job 4-MeOPhN2+~TsO-_B3LYPG-6-31G_dp-CH-Scan-d09-49-n800
 OpenBabel11261919313D

 35 35  0  0  0  0  0  0  0  0999 V2000
   -1.5933   -0.3038   -0.5831 C   0  0  0  0  0  0  0  0  0  0  0  0
   -2.9454   -0.4659   -0.8129 N   0  0  0  0  0  0  0  0  0  0  0  0
   -4.0447   -0.5517   -1.0190 N   0  0  0  0  0  0  0  0  0  0  0  0
   -1.0907    0.9569   -0.9811 C   0  0  0  0  0  0  0  0  0  0  0  0
    0.2904    1.0236   -0.7092 C   0  0  0  0  0  0  0  0  0  0  0  0
    1.0347   -0.0155   -0.1310 C   0  0  0  0  0  0  0  0  0  0  0  0
    2.3572    0.2236    0.0576 O   0  0  0  0  0  0  0  0  0  0  0  0
    3.1799   -0.7810    0.6371 C   0  0  0  0  0  0  0  0  0  0  0  0
    0.4231   -1.2499    0.2330 C   0  0  0  0  0  0  0  0  0  0  0  0
   -0.9236   -1.4098    0.0056 C   0  0  0  0  0  0  0  0  0  0  0  0
   -4.4505    3.6412   -2.8769 H   0  0  0  0  0  0  0  0  0  0  0  0
    0.8557    1.9253   -0.9501 H   0  0  0  0  0  0  0  0  0  0  0  0
    4.1831   -0.3546    0.6830 H   0  0  0  0  0  0  0  0  0  0  0  0
    3.2033   -1.6898    0.0233 H   0  0  0  0  0  0  0  0  0  0  0  0
    2.8523   -1.0377    1.6517 H   0  0  0  0  0  0  0  0  0  0  0  0
    0.9959   -2.0530    0.6789 H   0  0  0  0  0  0  0  0  0  0  0  0
   -1.4363   -2.3332    0.2656 H   0  0  0  0  0  0  0  0  0  0  0  0
   -8.0688    3.8662   -1.2878 C   0  0  0  0  0  0  0  0  0  0  0  0
   -9.2724    4.5281   -1.0632 C   0  0  0  0  0  0  0  0  0  0  0  0
  -10.2190    4.6824   -2.0882 C   0  0  0  0  0  0  0  0  0  0  0  0
   -9.9291    4.1525   -3.3531 C   0  0  0  0  0  0  0  0  0  0  0  0
   -8.7303    3.4851   -3.5986 C   0  0  0  0  0  0  0  0  0  0  0  0
   -7.8089    3.3533   -2.5603 C   0  0  0  0  0  0  0  0  0  0  0  0
   -7.3432    3.7370   -0.4920 H   0  0  0  0  0  0  0  0  0  0  0  0
   -9.4820    4.9311   -0.0760 H   0  0  0  0  0  0  0  0  0  0  0  0
  -10.6519    4.2617   -4.1574 H   0  0  0  0  0  0  0  0  0  0  0  0
   -8.5104    3.0655   -4.5739 H   0  0  0  0  0  0  0  0  0  0  0  0
   -6.2693    2.5121   -2.8637 S   0  0  0  0  0  0  0  0  0  0  0  0
   -5.7357    1.9746   -1.6101 O   0  0  0  0  0  0  0  0  0  0  0  0
   -5.3283    3.8012   -3.2653 O   0  0  0  0  0  0  0  0  0  0  0  0
   -6.4159    1.6624   -4.0394 O   0  0  0  0  0  0  0  0  0  0  0  0
  -11.5310    5.3794   -1.8219 C   0  0  0  0  0  0  0  0  0  0  0  0
  -12.2478    4.6961   -1.3493 H   0  0  0  0  0  0  0  0  0  0  0  0
  -11.4007    6.2302   -1.1463 H   0  0  0  0  0  0  0  0  0  0  0  0
  -11.9861    5.7439   -2.7464 H   0  0  0  0  0  0  0  0  0  0  0  0
  1 10  2  0  0  0  0
  2  1  1  0  0  0  0
  3  2  1  0  0  0  0
  4  5  2  0  0  0  0
  4  1  1  0  0  0  0
  5  6  1  0  0  0  0
  6  7  1  0  0  0  0
  6  9  2  0  0  0  0
  7  8  1  0  0  0  0
  8 13  1  0  0  0  0
  8 15  1  0  0  0  0
  9 16  1  0  0  0  0
 10  9  1  0  0  0  0
 10 17  1  0  0  0  0
 12  5  1  0  0  0  0
 14  8  1  0  0  0  0
 18 19  1  0  0  0  0
 18 24  1  0  0  0  0
 19 25  1  0  0  0  0
 20 32  1  0  0  0  0
 20 19  2  0  0  0  0
 21 20  1  0  0  0  0
 22 21  2  0  0  0  0
 22 23  1  0  0  0  0
 23 18  2  0  0  0  0
 26 21  1  0  0  0  0
 27 22  1  0  0  0  0
 28 23  1  0  0  0  0
 28 29  2  0  0  0  0
 30 11  1  0  0  0  0
 30 28  1  0  0  0  0
 31 28  2  0  0  0  0
 32 33  1  0  0  0  0
 32 34  1  0  0  0  0
 35 32  1  0  0  0  0
M  RAD  3   2   2   3   3   4   2
M  END
