Coordinates from ORCA-job 4-MeOPhN2+~TsO-_B3LYPG-6-31G_dp-CH-Scan-d09-49-n800
 OpenBabel11261919313D

 35 35  0  0  0  0  0  0  0  0999 V2000
   -1.8862   -0.2298   -0.1392 C   0  0  0  0  0  0  0  0  0  0  0  0
   -3.2502   -0.3966   -0.0095 N   0  0  0  0  0  0  0  0  0  0  0  0
   -4.3636   -0.4901    0.0866 N   0  0  0  0  0  0  0  0  0  0  0  0
   -1.4954    1.0614   -0.5658 C   0  0  0  0  0  0  0  0  0  0  0  0
   -0.0919    1.1260   -0.6657 C   0  0  0  0  0  0  0  0  0  0  0  0
    0.7719    0.0568   -0.3847 C   0  0  0  0  0  0  0  0  0  0  0  0
    2.0979    0.2975   -0.5414 O   0  0  0  0  0  0  0  0  0  0  0  0
    3.0369   -0.7403   -0.2909 C   0  0  0  0  0  0  0  0  0  0  0  0
    0.2699   -1.2065    0.0409 C   0  0  0  0  0  0  0  0  0  0  0  0
   -1.0900   -1.3647    0.1706 C   0  0  0  0  0  0  0  0  0  0  0  0
   -4.1703    3.6815   -1.7390 H   0  0  0  0  0  0  0  0  0  0  0  0
    0.3954    2.0489   -0.9834 H   0  0  0  0  0  0  0  0  0  0  0  0
    4.0184   -0.3099   -0.4946 H   0  0  0  0  0  0  0  0  0  0  0  0
    2.8770   -1.5995   -0.9534 H   0  0  0  0  0  0  0  0  0  0  0  0
    3.0017   -1.0755    0.7530 H   0  0  0  0  0  0  0  0  0  0  0  0
    0.9338   -2.0326    0.2616 H   0  0  0  0  0  0  0  0  0  0  0  0
   -1.5215   -2.3092    0.4938 H   0  0  0  0  0  0  0  0  0  0  0  0
   -8.2324    3.7952   -1.0154 C   0  0  0  0  0  0  0  0  0  0  0  0
   -9.4759    4.4056   -1.1457 C   0  0  0  0  0  0  0  0  0  0  0  0
  -10.0754    4.5720   -2.4047 C   0  0  0  0  0  0  0  0  0  0  0  0
   -9.3945    4.1070   -3.5376 C   0  0  0  0  0  0  0  0  0  0  0  0
   -8.1478    3.4925   -3.4286 C   0  0  0  0  0  0  0  0  0  0  0  0
   -7.5777    3.3475   -2.1647 C   0  0  0  0  0  0  0  0  0  0  0  0
   -7.7747    3.6565   -0.0421 H   0  0  0  0  0  0  0  0  0  0  0  0
   -9.9924    4.7578   -0.2569 H   0  0  0  0  0  0  0  0  0  0  0  0
   -9.8462    4.2251   -4.5187 H   0  0  0  0  0  0  0  0  0  0  0  0
   -7.6243    3.1231   -4.3032 H   0  0  0  0  0  0  0  0  0  0  0  0
   -5.9864    2.5650   -2.0133 S   0  0  0  0  0  0  0  0  0  0  0  0
   -5.8489    1.9663   -0.6841 O   0  0  0  0  0  0  0  0  0  0  0  0
   -5.0600    3.9211   -2.0542 O   0  0  0  0  0  0  0  0  0  0  0  0
   -5.7204    1.7678   -3.2074 O   0  0  0  0  0  0  0  0  0  0  0  0
  -11.4345    5.2179   -2.5256 C   0  0  0  0  0  0  0  0  0  0  0  0
  -12.2235    4.5370   -2.1843 H   0  0  0  0  0  0  0  0  0  0  0  0
  -11.5008    6.1219   -1.9126 H   0  0  0  0  0  0  0  0  0  0  0  0
  -11.6580    5.4906   -3.5600 H   0  0  0  0  0  0  0  0  0  0  0  0
  1  2  1  0  0  0  0
  1 10  2  0  0  0  0
  2  3  1  0  0  0  0
  4  1  1  0  0  0  0
  5  4  2  0  0  0  0
  5  6  1  0  0  0  0
  6  9  2  0  0  0  0
  7  6  1  0  0  0  0
  7  8  1  0  0  0  0
  8 15  1  0  0  0  0
  9 10  1  0  0  0  0
  9 16  1  0  0  0  0
 10 17  1  0  0  0  0
 12  5  1  0  0  0  0
 13  8  1  0  0  0  0
 14  8  1  0  0  0  0
 18 24  1  0  0  0  0
 19 18  1  0  0  0  0
 19 25  1  0  0  0  0
 20 19  2  0  0  0  0
 21 22  2  0  0  0  0
 21 20  1  0  0  0  0
 22 23  1  0  0  0  0
 23 28  1  0  0  0  0
 23 18  2  0  0  0  0
 26 21  1  0  0  0  0
 27 22  1  0  0  0  0
 28 29  2  0  0  0  0
 30 28  1  0  0  0  0
 30 11  1  0  0  0  0
 31 28  2  0  0  0  0
 32 20  1  0  0  0  0
 32 33  1  0  0  0  0
 32 34  1  0  0  0  0
 35 32  1  0  0  0  0
M  RAD  3   2   2   3   3   4   2
M  END
