Coordinates from ORCA-job 4-MeOPhN2+~TsO-_B3LYPG-6-31G_dp-CH-Scan-d09-49-n800
 OpenBabel11261919313D

 35 35  0  0  0  0  0  0  0  0999 V2000
   -1.7960   -0.2303   -0.1952 C   0  0  0  0  0  0  0  0  0  0  0  0
   -3.1677   -0.3734   -0.1317 N   0  0  0  0  0  0  0  0  0  0  0  0
   -4.2861   -0.4461   -0.0894 N   0  0  0  0  0  0  0  0  0  0  0  0
   -1.3653    1.0595   -0.5858 C   0  0  0  0  0  0  0  0  0  0  0  0
    0.0426    1.1005   -0.6199 C   0  0  0  0  0  0  0  0  0  0  0  0
    0.8742    0.0130   -0.3137 C   0  0  0  0  0  0  0  0  0  0  0  0
    2.2102    0.2319   -0.4060 O   0  0  0  0  0  0  0  0  0  0  0  0
    3.1186   -0.8247   -0.1242 C   0  0  0  0  0  0  0  0  0  0  0  0
    0.3319   -1.2469    0.0716 C   0  0  0  0  0  0  0  0  0  0  0  0
   -1.0350   -1.3833    0.1360 C   0  0  0  0  0  0  0  0  0  0  0  0
   -4.2382    3.7652   -1.9299 H   0  0  0  0  0  0  0  0  0  0  0  0
    0.5597    2.0188   -0.9022 H   0  0  0  0  0  0  0  0  0  0  0  0
    4.1158   -0.4094   -0.2769 H   0  0  0  0  0  0  0  0  0  0  0  0
    2.9753   -1.6740   -0.8032 H   0  0  0  0  0  0  0  0  0  0  0  0
    3.0292   -1.1704    0.9131 H   0  0  0  0  0  0  0  0  0  0  0  0
    0.9711   -2.0869    0.3118 H   0  0  0  0  0  0  0  0  0  0  0  0
   -1.4969   -2.3242    0.4263 H   0  0  0  0  0  0  0  0  0  0  0  0
   -8.2317    3.8405   -1.0720 C   0  0  0  0  0  0  0  0  0  0  0  0
   -9.4858    4.4392   -1.1355 C   0  0  0  0  0  0  0  0  0  0  0  0
  -10.1597    4.5865   -2.3590 C   0  0  0  0  0  0  0  0  0  0  0  0
   -9.5426    4.1139   -3.5247 C   0  0  0  0  0  0  0  0  0  0  0  0
   -8.2862    3.5108   -3.4826 C   0  0  0  0  0  0  0  0  0  0  0  0
   -7.6417    3.3849   -2.2530 C   0  0  0  0  0  0  0  0  0  0  0  0
   -7.7169    3.7165   -0.1255 H   0  0  0  0  0  0  0  0  0  0  0  0
   -9.9522    4.7972   -0.2218 H   0  0  0  0  0  0  0  0  0  0  0  0
  -10.0522    4.2166   -4.4786 H   0  0  0  0  0  0  0  0  0  0  0  0
   -7.8119    3.1354   -4.3823 H   0  0  0  0  0  0  0  0  0  0  0  0
   -6.0365    2.6191   -2.1863 S   0  0  0  0  0  0  0  0  0  0  0  0
   -5.8170    2.0276   -0.8648 O   0  0  0  0  0  0  0  0  0  0  0  0
   -5.1215    3.9819   -2.2774 O   0  0  0  0  0  0  0  0  0  0  0  0
   -5.8285    1.8233   -3.3922 O   0  0  0  0  0  0  0  0  0  0  0  0
  -11.5285    5.2215   -2.4064 C   0  0  0  0  0  0  0  0  0  0  0  0
  -12.2862    4.5511   -1.9832 H   0  0  0  0  0  0  0  0  0  0  0  0
  -11.5570    6.1481   -1.8245 H   0  0  0  0  0  0  0  0  0  0  0  0
  -11.8271    5.4540   -3.4315 H   0  0  0  0  0  0  0  0  0  0  0  0
  1  2  1  0  0  0  0
  1 10  2  0  0  0  0
  2  3  1  0  0  0  0
  4  1  1  0  0  0  0
  5  4  2  0  0  0  0
  5  6  1  0  0  0  0
  6  9  2  0  0  0  0
  7  6  1  0  0  0  0
  7  8  1  0  0  0  0
  8 15  1  0  0  0  0
  9 10  1  0  0  0  0
  9 16  1  0  0  0  0
 10 17  1  0  0  0  0
 12  5  1  0  0  0  0
 13  8  1  0  0  0  0
 14  8  1  0  0  0  0
 18 24  1  0  0  0  0
 19 18  1  0  0  0  0
 19 25  1  0  0  0  0
 20 19  2  0  0  0  0
 21 22  2  0  0  0  0
 21 20  1  0  0  0  0
 22 23  1  0  0  0  0
 23 28  1  0  0  0  0
 23 18  2  0  0  0  0
 26 21  1  0  0  0  0
 27 22  1  0  0  0  0
 28 29  2  0  0  0  0
 30 28  1  0  0  0  0
 30 11  1  0  0  0  0
 31 28  2  0  0  0  0
 32 20  1  0  0  0  0
 32 33  1  0  0  0  0
 32 34  1  0  0  0  0
 35 32  1  0  0  0  0
M  RAD  3   2   2   3   3   4   2
M  END
