Coordinates from ORCA-job 4-MeOPhN2+~TsO-_B3LYPG-6-31G_dp-CH-Scan-d09-49-n800
 OpenBabel11261919313D

 35 35  0  0  0  0  0  0  0  0999 V2000
   -1.8572   -0.2270   -0.1523 C   0  0  0  0  0  0  0  0  0  0  0  0
   -3.2242   -0.3840   -0.0412 N   0  0  0  0  0  0  0  0  0  0  0  0
   -4.3393   -0.4687    0.0412 N   0  0  0  0  0  0  0  0  0  0  0  0
   -1.4518    1.0640   -0.5653 C   0  0  0  0  0  0  0  0  0  0  0  0
   -0.0466    1.1185   -0.6472 C   0  0  0  0  0  0  0  0  0  0  0  0
    0.8056    0.0410   -0.3625 C   0  0  0  0  0  0  0  0  0  0  0  0
    2.1353    0.2724   -0.5013 O   0  0  0  0  0  0  0  0  0  0  0  0
    3.0631   -0.7740   -0.2457 C   0  0  0  0  0  0  0  0  0  0  0  0
    0.2888   -1.2213    0.0486 C   0  0  0  0  0  0  0  0  0  0  0  0
   -1.0737   -1.3701    0.1602 C   0  0  0  0  0  0  0  0  0  0  0  0
   -4.1907    3.7213   -1.7935 H   0  0  0  0  0  0  0  0  0  0  0  0
    0.4516    2.0398   -0.9526 H   0  0  0  0  0  0  0  0  0  0  0  0
    4.0504   -0.3500   -0.4350 H   0  0  0  0  0  0  0  0  0  0  0  0
    2.9048   -1.6281   -0.9152 H   0  0  0  0  0  0  0  0  0  0  0  0
    3.0128   -1.1151    0.7956 H   0  0  0  0  0  0  0  0  0  0  0  0
    0.9438   -2.0537    0.2723 H   0  0  0  0  0  0  0  0  0  0  0  0
   -1.5164   -2.3134    0.4719 H   0  0  0  0  0  0  0  0  0  0  0  0
   -8.2342    3.8126   -1.0316 C   0  0  0  0  0  0  0  0  0  0  0  0
   -9.4830    4.4159   -1.1438 C   0  0  0  0  0  0  0  0  0  0  0  0
  -10.1044    4.5734   -2.3933 C   0  0  0  0  0  0  0  0  0  0  0  0
   -9.4402    4.1066   -3.5353 C   0  0  0  0  0  0  0  0  0  0  0  0
   -8.1886    3.4992   -3.4446 C   0  0  0  0  0  0  0  0  0  0  0  0
   -7.5966    3.3630   -2.1899 C   0  0  0  0  0  0  0  0  0  0  0  0
   -7.7597    3.6807   -0.0655 H   0  0  0  0  0  0  0  0  0  0  0  0
   -9.9862    4.7694   -0.2480 H   0  0  0  0  0  0  0  0  0  0  0  0
   -9.9090    4.2176   -4.5092 H   0  0  0  0  0  0  0  0  0  0  0  0
   -7.6780    3.1284   -4.3262 H   0  0  0  0  0  0  0  0  0  0  0  0
   -5.9985    2.5903   -2.0614 S   0  0  0  0  0  0  0  0  0  0  0  0
   -5.8360    1.9951   -0.7335 O   0  0  0  0  0  0  0  0  0  0  0  0
   -5.0796    3.9515   -2.1176 O   0  0  0  0  0  0  0  0  0  0  0  0
   -5.7459    1.7934   -3.2586 O   0  0  0  0  0  0  0  0  0  0  0  0
  -11.4685    5.2121   -2.4941 C   0  0  0  0  0  0  0  0  0  0  0  0
  -12.2473    4.5322   -2.1284 H   0  0  0  0  0  0  0  0  0  0  0  0
  -11.5262    6.1231   -1.8906 H   0  0  0  0  0  0  0  0  0  0  0  0
  -11.7142    5.4715   -3.5268 H   0  0  0  0  0  0  0  0  0  0  0  0
  1  2  1  0  0  0  0
  1 10  2  0  0  0  0
  2  3  1  0  0  0  0
  4  1  1  0  0  0  0
  5  4  2  0  0  0  0
  5  6  1  0  0  0  0
  6  9  2  0  0  0  0
  7  6  1  0  0  0  0
  7  8  1  0  0  0  0
  8 15  1  0  0  0  0
  9 10  1  0  0  0  0
  9 16  1  0  0  0  0
 10 17  1  0  0  0  0
 12  5  1  0  0  0  0
 13  8  1  0  0  0  0
 14  8  1  0  0  0  0
 18 24  1  0  0  0  0
 19 18  1  0  0  0  0
 19 25  1  0  0  0  0
 20 19  2  0  0  0  0
 21 22  2  0  0  0  0
 21 20  1  0  0  0  0
 22 23  1  0  0  0  0
 23 28  1  0  0  0  0
 23 18  2  0  0  0  0
 26 21  1  0  0  0  0
 27 22  1  0  0  0  0
 28 29  2  0  0  0  0
 30 28  1  0  0  0  0
 30 11  1  0  0  0  0
 31 28  2  0  0  0  0
 32 20  1  0  0  0  0
 32 33  1  0  0  0  0
 32 34  1  0  0  0  0
 35 32  1  0  0  0  0
M  RAD  3   2   2   3   3   4   2
M  END
