Coordinates from ORCA-job 4-MeOPhN2+~TsO-_B3LYPG-6-31G_dp-CH-Scan-d09-49-n800
 OpenBabel11261919313D

 35 35  0  0  0  0  0  0  0  0999 V2000
   -2.5983   -0.4898   -0.2886 C   0  0  0  0  0  0  0  0  0  0  0  0
   -3.8165   -1.0957   -0.0890 N   0  0  0  0  0  0  0  0  0  0  0  0
   -4.8282   -1.5513    0.0536 N   0  0  0  0  0  0  0  0  0  0  0  0
   -2.5977    0.7233   -1.0196 C   0  0  0  0  0  0  0  0  0  0  0  0
   -1.3149    1.2534   -1.1672 C   0  0  0  0  0  0  0  0  0  0  0  0
   -0.1593    0.6435   -0.6466 C   0  0  0  0  0  0  0  0  0  0  0  0
    1.0037    1.2848   -0.8793 O   0  0  0  0  0  0  0  0  0  0  0  0
    2.2262    0.7338   -0.3944 C   0  0  0  0  0  0  0  0  0  0  0  0
   -0.2410   -0.5764    0.0750 C   0  0  0  0  0  0  0  0  0  0  0  0
   -1.4757   -1.1574    0.2594 C   0  0  0  0  0  0  0  0  0  0  0  0
   -3.9002    1.4534   -1.6630 H   0  0  0  0  0  0  0  0  0  0  0  0
   -1.1674    2.1847   -1.7096 H   0  0  0  0  0  0  0  0  0  0  0  0
    3.0076    1.4241   -0.7126 H   0  0  0  0  0  0  0  0  0  0  0  0
    2.4189   -0.2547   -0.8269 H   0  0  0  0  0  0  0  0  0  0  0  0
    2.2267    0.6636    0.6996 H   0  0  0  0  0  0  0  0  0  0  0  0
    0.6430   -1.0536    0.4770 H   0  0  0  0  0  0  0  0  0  0  0  0
   -1.5814   -2.0916    0.8029 H   0  0  0  0  0  0  0  0  0  0  0  0
   -7.6235    3.2850   -0.9278 C   0  0  0  0  0  0  0  0  0  0  0  0
   -8.5170    4.3505   -1.0043 C   0  0  0  0  0  0  0  0  0  0  0  0
   -9.0569    4.7576   -2.2337 C   0  0  0  0  0  0  0  0  0  0  0  0
   -8.6766    4.0658   -3.3913 C   0  0  0  0  0  0  0  0  0  0  0  0
   -7.7842    2.9961   -3.3320 C   0  0  0  0  0  0  0  0  0  0  0  0
   -7.2599    2.6160   -2.0974 C   0  0  0  0  0  0  0  0  0  0  0  0
   -7.2168    2.9617    0.0239 H   0  0  0  0  0  0  0  0  0  0  0  0
   -8.8037    4.8735   -0.0954 H   0  0  0  0  0  0  0  0  0  0  0  0
   -9.0871    4.3660   -4.3518 H   0  0  0  0  0  0  0  0  0  0  0  0
   -7.5000    2.4510   -4.2253 H   0  0  0  0  0  0  0  0  0  0  0  0
   -6.1006    1.2557   -2.0180 S   0  0  0  0  0  0  0  0  0  0  0  0
   -6.2047    0.6420   -0.6767 O   0  0  0  0  0  0  0  0  0  0  0  0
   -4.7278    2.0148   -2.1352 O   0  0  0  0  0  0  0  0  0  0  0  0
   -6.3293    0.3941   -3.1836 O   0  0  0  0  0  0  0  0  0  0  0  0
  -10.0493    5.8939   -2.2999 C   0  0  0  0  0  0  0  0  0  0  0  0
  -11.0565    5.5544   -2.0272 H   0  0  0  0  0  0  0  0  0  0  0  0
   -9.7827    6.6992   -1.6082 H   0  0  0  0  0  0  0  0  0  0  0  0
  -10.1085    6.3159   -3.3070 H   0  0  0  0  0  0  0  0  0  0  0  0
  1  2  1  0  0  0  0
  1 10  2  0  0  0  0
  2  3  1  0  0  0  0
  4  1  1  0  0  0  0
  5  4  2  0  0  0  0
  5  6  1  0  0  0  0
  6  9  2  0  0  0  0
  7  6  1  0  0  0  0
  7  8  1  0  0  0  0
  8 15  1  0  0  0  0
  9 10  1  0  0  0  0
  9 16  1  0  0  0  0
 10 17  1  0  0  0  0
 12  5  1  0  0  0  0
 13  8  1  0  0  0  0
 14  8  1  0  0  0  0
 18 24  1  0  0  0  0
 19 18  1  0  0  0  0
 19 25  1  0  0  0  0
 20 19  2  0  0  0  0
 21 22  2  0  0  0  0
 21 20  1  0  0  0  0
 22 23  1  0  0  0  0
 23 28  1  0  0  0  0
 23 18  2  0  0  0  0
 26 21  1  0  0  0  0
 27 22  1  0  0  0  0
 28 29  2  0  0  0  0
 30 28  1  0  0  0  0
 30 11  1  0  0  0  0
 31 28  2  0  0  0  0
 32 20  1  0  0  0  0
 32 33  1  0  0  0  0
 32 34  1  0  0  0  0
 35 32  1  0  0  0  0
M  RAD  3   2   2   3   3   4   2
M  END
