Coordinates from ORCA-job 4-MeOPhN2+~TsO-_B3LYPG-6-31G_dp-CH-Scan-d09-49-n800
 OpenBabel11261919313D

 35 35  0  0  0  0  0  0  0  0999 V2000
   -1.5814   -0.2999   -0.5804 C   0  0  0  0  0  0  0  0  0  0  0  0
   -2.9340   -0.4558   -0.8110 N   0  0  0  0  0  0  0  0  0  0  0  0
   -4.0336   -0.5362   -1.0181 N   0  0  0  0  0  0  0  0  0  0  0  0
   -1.0736    0.9590   -0.9775 C   0  0  0  0  0  0  0  0  0  0  0  0
    0.3079    1.0198   -0.7057 C   0  0  0  0  0  0  0  0  0  0  0  0
    1.0477   -0.0227   -0.1281 C   0  0  0  0  0  0  0  0  0  0  0  0
    2.3712    0.2107    0.0606 O   0  0  0  0  0  0  0  0  0  0  0  0
    3.1897   -0.7976    0.6396 C   0  0  0  0  0  0  0  0  0  0  0  0
    0.4309   -1.2548    0.2353 C   0  0  0  0  0  0  0  0  0  0  0  0
   -0.9164   -1.4090    0.0078 C   0  0  0  0  0  0  0  0  0  0  0  0
   -4.4603    3.6582   -2.8789 H   0  0  0  0  0  0  0  0  0  0  0  0
    0.8769    1.9192   -0.9461 H   0  0  0  0  0  0  0  0  0  0  0  0
    4.1947   -0.3755    0.6857 H   0  0  0  0  0  0  0  0  0  0  0  0
    3.2092   -1.7063    0.0256 H   0  0  0  0  0  0  0  0  0  0  0  0
    2.8611   -1.0533    1.6543 H   0  0  0  0  0  0  0  0  0  0  0  0
    1.0004   -2.0604    0.6809 H   0  0  0  0  0  0  0  0  0  0  0  0
   -1.4330   -2.3304    0.2672 H   0  0  0  0  0  0  0  0  0  0  0  0
   -8.0760    3.8759   -1.2910 C   0  0  0  0  0  0  0  0  0  0  0  0
   -9.2813    4.5345   -1.0666 C   0  0  0  0  0  0  0  0  0  0  0  0
  -10.2301    4.6823   -2.0906 C   0  0  0  0  0  0  0  0  0  0  0  0
   -9.9405    4.1492   -3.3542 C   0  0  0  0  0  0  0  0  0  0  0  0
   -8.7400    3.4849   -3.5994 C   0  0  0  0  0  0  0  0  0  0  0  0
   -7.8164    3.3596   -2.5622 C   0  0  0  0  0  0  0  0  0  0  0  0
   -7.3487    3.7516   -0.4958 H   0  0  0  0  0  0  0  0  0  0  0  0
   -9.4907    4.9401   -0.0804 H   0  0  0  0  0  0  0  0  0  0  0  0
  -10.6650    4.2532   -4.1576 H   0  0  0  0  0  0  0  0  0  0  0  0
   -8.5201    3.0628   -4.5736 H   0  0  0  0  0  0  0  0  0  0  0  0
   -6.2745    2.5224   -2.8653 S   0  0  0  0  0  0  0  0  0  0  0  0
   -5.7378    1.9898   -1.6109 O   0  0  0  0  0  0  0  0  0  0  0  0
   -5.3373    3.8130   -3.2711 O   0  0  0  0  0  0  0  0  0  0  0  0
   -6.4199    1.6696   -4.0388 O   0  0  0  0  0  0  0  0  0  0  0  0
  -11.5439    5.3760   -1.8245 C   0  0  0  0  0  0  0  0  0  0  0  0
  -12.2576    4.6920   -1.3480 H   0  0  0  0  0  0  0  0  0  0  0  0
  -11.4153    6.2298   -1.1522 H   0  0  0  0  0  0  0  0  0  0  0  0
  -12.0019    5.7357   -2.7495 H   0  0  0  0  0  0  0  0  0  0  0  0
  1 10  2  0  0  0  0
  2  1  1  0  0  0  0
  3  2  1  0  0  0  0
  4  5  2  0  0  0  0
  4  1  1  0  0  0  0
  5  6  1  0  0  0  0
  6  7  1  0  0  0  0
  6  9  2  0  0  0  0
  7  8  1  0  0  0  0
  8 13  1  0  0  0  0
  8 15  1  0  0  0  0
  9 16  1  0  0  0  0
 10  9  1  0  0  0  0
 10 17  1  0  0  0  0
 12  5  1  0  0  0  0
 14  8  1  0  0  0  0
 18 19  1  0  0  0  0
 18 24  1  0  0  0  0
 19 25  1  0  0  0  0
 20 32  1  0  0  0  0
 20 19  2  0  0  0  0
 21 20  1  0  0  0  0
 22 21  2  0  0  0  0
 22 23  1  0  0  0  0
 23 18  2  0  0  0  0
 26 21  1  0  0  0  0
 27 22  1  0  0  0  0
 28 23  1  0  0  0  0
 28 29  2  0  0  0  0
 30 11  1  0  0  0  0
 30 28  1  0  0  0  0
 31 28  2  0  0  0  0
 32 33  1  0  0  0  0
 32 34  1  0  0  0  0
 35 32  1  0  0  0  0
M  RAD  3   2   2   3   3   4   2
M  END
