Coordinates from ORCA-job 4-MeOPhN2+~TsO-_B3LYPG-6-31G_dp-CH-Scan-d09-49-n800
 OpenBabel11261919313D

 35 35  0  0  0  0  0  0  0  0999 V2000
   -2.1483   -0.3191   -0.1113 C   0  0  0  0  0  0  0  0  0  0  0  0
   -3.4672   -0.6498    0.1131 N   0  0  0  0  0  0  0  0  0  0  0  0
   -4.5483   -0.8883    0.2868 N   0  0  0  0  0  0  0  0  0  0  0  0
   -1.9338    0.9707   -0.6540 C   0  0  0  0  0  0  0  0  0  0  0  0
   -0.5598    1.2019   -0.8386 C   0  0  0  0  0  0  0  0  0  0  0  0
    0.4451    0.2729   -0.5250 C   0  0  0  0  0  0  0  0  0  0  0  0
    1.7193    0.6632   -0.7686 O   0  0  0  0  0  0  0  0  0  0  0  0
    2.7955   -0.2234   -0.4840 C   0  0  0  0  0  0  0  0  0  0  0  0
    0.1254   -1.0031    0.0184 C   0  0  0  0  0  0  0  0  0  0  0  0
   -1.1966   -1.3152    0.2338 C   0  0  0  0  0  0  0  0  0  0  0  0
   -4.0681    2.8368   -1.4784 H   0  0  0  0  0  0  0  0  0  0  0  0
   -0.2107    2.1488   -1.2502 H   0  0  0  0  0  0  0  0  0  0  0  0
    3.7036    0.3124   -0.7631 H   0  0  0  0  0  0  0  0  0  0  0  0
    2.7260   -1.1450   -1.0736 H   0  0  0  0  0  0  0  0  0  0  0  0
    2.8395   -0.4756    0.5824 H   0  0  0  0  0  0  0  0  0  0  0  0
    0.8969   -1.7219    0.2626 H   0  0  0  0  0  0  0  0  0  0  0  0
   -1.4896   -2.2771    0.6471 H   0  0  0  0  0  0  0  0  0  0  0  0
   -8.1308    3.5688   -0.9479 C   0  0  0  0  0  0  0  0  0  0  0  0
   -9.2590    4.3635   -1.1263 C   0  0  0  0  0  0  0  0  0  0  0  0
   -9.7381    4.6664   -2.4111 C   0  0  0  0  0  0  0  0  0  0  0  0
   -9.0548    4.1498   -3.5196 C   0  0  0  0  0  0  0  0  0  0  0  0
   -7.9221    3.3520   -3.3618 C   0  0  0  0  0  0  0  0  0  0  0  0
   -7.4693    3.0732   -2.0735 C   0  0  0  0  0  0  0  0  0  0  0  0
   -7.7680    3.3241    0.0442 H   0  0  0  0  0  0  0  0  0  0  0  0
   -9.7797    4.7533   -0.2559 H   0  0  0  0  0  0  0  0  0  0  0  0
   -9.4147    4.3722   -4.5203 H   0  0  0  0  0  0  0  0  0  0  0  0
   -7.3984    2.9425   -4.2181 H   0  0  0  0  0  0  0  0  0  0  0  0
   -6.0268    2.0498   -1.8612 S   0  0  0  0  0  0  0  0  0  0  0  0
   -6.0989    1.3647   -0.5671 O   0  0  0  0  0  0  0  0  0  0  0  0
   -4.9154    3.2402   -1.7563 O   0  0  0  0  0  0  0  0  0  0  0  0
   -5.7993    1.2737   -3.0785 O   0  0  0  0  0  0  0  0  0  0  0  0
  -10.9765    5.5122   -2.5856 C   0  0  0  0  0  0  0  0  0  0  0  0
  -11.8752    4.9571   -2.2911 H   0  0  0  0  0  0  0  0  0  0  0  0
  -10.9360    6.4116   -1.9632 H   0  0  0  0  0  0  0  0  0  0  0  0
  -11.1054    5.8243   -3.6248 H   0  0  0  0  0  0  0  0  0  0  0  0
  1  2  1  0  0  0  0
  1 10  2  0  0  0  0
  2  3  1  0  0  0  0
  4  1  1  0  0  0  0
  5  4  2  0  0  0  0
  5  6  1  0  0  0  0
  6  9  2  0  0  0  0
  7  6  1  0  0  0  0
  7  8  1  0  0  0  0
  8 15  1  0  0  0  0
  9 10  1  0  0  0  0
  9 16  1  0  0  0  0
 10 17  1  0  0  0  0
 12  5  1  0  0  0  0
 13  8  1  0  0  0  0
 14  8  1  0  0  0  0
 18 24  1  0  0  0  0
 19 18  1  0  0  0  0
 19 25  1  0  0  0  0
 20 19  2  0  0  0  0
 21 22  2  0  0  0  0
 21 20  1  0  0  0  0
 22 23  1  0  0  0  0
 23 28  1  0  0  0  0
 23 18  2  0  0  0  0
 26 21  1  0  0  0  0
 27 22  1  0  0  0  0
 28 30  1  0  0  0  0
 28 29  2  0  0  0  0
 30 11  1  0  0  0  0
 31 28  2  0  0  0  0
 32 20  1  0  0  0  0
 32 33  1  0  0  0  0
 32 34  1  0  0  0  0
 35 32  1  0  0  0  0
M  RAD  3   2   2   3   3   4   2
M  END
