Coordinates from ORCA-job 4-MeOPhN2+~TsO-_B3LYPG-6-31G_dp-CH-Scan-d09-49-n800
 OpenBabel11261919313D

 35 35  0  0  0  0  0  0  0  0999 V2000
   -2.1665   -0.3279   -0.1158 C   0  0  0  0  0  0  0  0  0  0  0  0
   -3.4816   -0.6717    0.1100 N   0  0  0  0  0  0  0  0  0  0  0  0
   -4.5601   -0.9234    0.2814 N   0  0  0  0  0  0  0  0  0  0  0  0
   -1.9642    0.9601   -0.6673 C   0  0  0  0  0  0  0  0  0  0  0  0
   -0.5931    1.2052   -0.8529 C   0  0  0  0  0  0  0  0  0  0  0  0
    0.4215    0.2891   -0.5321 C   0  0  0  0  0  0  0  0  0  0  0  0
    1.6913    0.6913   -0.7777 O   0  0  0  0  0  0  0  0  0  0  0  0
    2.7772   -0.1809   -0.4850 C   0  0  0  0  0  0  0  0  0  0  0  0
    0.1148   -0.9863    0.0200 C   0  0  0  0  0  0  0  0  0  0  0  0
   -1.2039   -1.3109    0.2367 C   0  0  0  0  0  0  0  0  0  0  0  0
   -4.0658    2.7682   -1.4743 H   0  0  0  0  0  0  0  0  0  0  0  0
   -0.2542    2.1530   -1.2707 H   0  0  0  0  0  0  0  0  0  0  0  0
    3.6795    0.3632   -0.7666 H   0  0  0  0  0  0  0  0  0  0  0  0
    2.7190   -1.1075   -1.0678 H   0  0  0  0  0  0  0  0  0  0  0  0
    2.8222   -0.4246    0.5835 H   0  0  0  0  0  0  0  0  0  0  0  0
    0.8937   -1.6951    0.2698 H   0  0  0  0  0  0  0  0  0  0  0  0
   -1.4869   -2.2730    0.6565 H   0  0  0  0  0  0  0  0  0  0  0  0
   -8.1165    3.5550   -0.9462 C   0  0  0  0  0  0  0  0  0  0  0  0
   -9.2342    4.3648   -1.1223 C   0  0  0  0  0  0  0  0  0  0  0  0
   -9.7114    4.6746   -2.4061 C   0  0  0  0  0  0  0  0  0  0  0  0
   -9.0371    4.1494   -3.5160 C   0  0  0  0  0  0  0  0  0  0  0  0
   -7.9147    3.3366   -3.3603 C   0  0  0  0  0  0  0  0  0  0  0  0
   -7.4634    3.0513   -2.0731 C   0  0  0  0  0  0  0  0  0  0  0  0
   -7.7553    3.3051    0.0453 H   0  0  0  0  0  0  0  0  0  0  0  0
   -9.7482    4.7612   -0.2509 H   0  0  0  0  0  0  0  0  0  0  0  0
   -9.3956    4.3769   -4.5160 H   0  0  0  0  0  0  0  0  0  0  0  0
   -7.3978    2.9206   -4.2177 H   0  0  0  0  0  0  0  0  0  0  0  0
   -6.0338    2.0090   -1.8635 S   0  0  0  0  0  0  0  0  0  0  0  0
   -6.1167    1.3192   -0.5722 O   0  0  0  0  0  0  0  0  0  0  0  0
   -4.9081    3.1836   -1.7528 O   0  0  0  0  0  0  0  0  0  0  0  0
   -5.8161    1.2339   -3.0834 O   0  0  0  0  0  0  0  0  0  0  0  0
  -10.9388    5.5370   -2.5782 C   0  0  0  0  0  0  0  0  0  0  0  0
  -11.8449    4.9923   -2.2867 H   0  0  0  0  0  0  0  0  0  0  0  0
  -10.8873    6.4332   -1.9519 H   0  0  0  0  0  0  0  0  0  0  0  0
  -11.0628    5.8551   -3.6162 H   0  0  0  0  0  0  0  0  0  0  0  0
  1  2  1  0  0  0  0
  1 10  2  0  0  0  0
  2  3  1  0  0  0  0
  4  1  1  0  0  0  0
  5  4  2  0  0  0  0
  5  6  1  0  0  0  0
  6  9  2  0  0  0  0
  7  6  1  0  0  0  0
  7  8  1  0  0  0  0
  8 15  1  0  0  0  0
  9 10  1  0  0  0  0
  9 16  1  0  0  0  0
 10 17  1  0  0  0  0
 12  5  1  0  0  0  0
 13  8  1  0  0  0  0
 14  8  1  0  0  0  0
 18 24  1  0  0  0  0
 19 18  1  0  0  0  0
 19 25  1  0  0  0  0
 20 19  2  0  0  0  0
 21 22  2  0  0  0  0
 21 20  1  0  0  0  0
 22 23  1  0  0  0  0
 23 28  1  0  0  0  0
 23 18  2  0  0  0  0
 26 21  1  0  0  0  0
 27 22  1  0  0  0  0
 28 30  1  0  0  0  0
 28 29  2  0  0  0  0
 30 11  1  0  0  0  0
 31 28  2  0  0  0  0
 32 20  1  0  0  0  0
 32 33  1  0  0  0  0
 32 34  1  0  0  0  0
 35 32  1  0  0  0  0
M  RAD  3   2   2   3   3   4   2
M  END
