Coordinates from ORCA-job 4-MeOPhN2+~TsO-_B3LYPG-6-31G_dp-CH-Scan-d09-49-n800
 OpenBabel11261919313D

 35 35  0  0  0  0  0  0  0  0999 V2000
   -1.9418   -0.2397   -0.1257 C   0  0  0  0  0  0  0  0  0  0  0  0
   -3.2994   -0.4311    0.0327 N   0  0  0  0  0  0  0  0  0  0  0  0
   -4.4081   -0.5468    0.1529 N   0  0  0  0  0  0  0  0  0  0  0  0
   -1.5817    1.0514   -0.5790 C   0  0  0  0  0  0  0  0  0  0  0  0
   -0.1820    1.1407   -0.7050 C   0  0  0  0  0  0  0  0  0  0  0  0
    0.7066    0.0922   -0.4228 C   0  0  0  0  0  0  0  0  0  0  0  0
    2.0248    0.3553   -0.6056 O   0  0  0  0  0  0  0  0  0  0  0  0
    2.9875   -0.6610   -0.3556 C   0  0  0  0  0  0  0  0  0  0  0  0
    0.2357   -1.1734    0.0300 C   0  0  0  0  0  0  0  0  0  0  0  0
   -1.1186   -1.3545    0.1863 C   0  0  0  0  0  0  0  0  0  0  0  0
   -4.1286    3.5699   -1.6843 H   0  0  0  0  0  0  0  0  0  0  0  0
    0.2822    2.0674   -1.0453 H   0  0  0  0  0  0  0  0  0  0  0  0
    3.9572   -0.2150   -0.5811 H   0  0  0  0  0  0  0  0  0  0  0  0
    2.8336   -1.5323   -1.0035 H   0  0  0  0  0  0  0  0  0  0  0  0
    2.9749   -0.9818    0.6932 H   0  0  0  0  0  0  0  0  0  0  0  0
    0.9185   -1.9839    0.2510 H   0  0  0  0  0  0  0  0  0  0  0  0
   -1.5267   -2.3018    0.5308 H   0  0  0  0  0  0  0  0  0  0  0  0
   -8.2248    3.7535   -0.9881 C   0  0  0  0  0  0  0  0  0  0  0  0
   -9.4541    4.3865   -1.1448 C   0  0  0  0  0  0  0  0  0  0  0  0
  -10.0159    4.5775   -2.4175 C   0  0  0  0  0  0  0  0  0  0  0  0
   -9.3118    4.1146   -3.5371 C   0  0  0  0  0  0  0  0  0  0  0  0
   -8.0790    3.4779   -3.4016 C   0  0  0  0  0  0  0  0  0  0  0  0
   -7.5463    3.3084   -2.1245 C   0  0  0  0  0  0  0  0  0  0  0  0
   -7.7959    3.5957   -0.0046 H   0  0  0  0  0  0  0  0  0  0  0  0
   -9.9889    4.7368   -0.2662 H   0  0  0  0  0  0  0  0  0  0  0  0
   -9.7344    4.2519   -4.5285 H   0  0  0  0  0  0  0  0  0  0  0  0
   -7.5379    3.1100   -4.2660 H   0  0  0  0  0  0  0  0  0  0  0  0
   -5.9735    2.4960   -1.9397 S   0  0  0  0  0  0  0  0  0  0  0  0
   -5.8816    1.8882   -0.6108 O   0  0  0  0  0  0  0  0  0  0  0  0
   -5.0253    3.8363   -1.9560 O   0  0  0  0  0  0  0  0  0  0  0  0
   -5.6934    1.6972   -3.1300 O   0  0  0  0  0  0  0  0  0  0  0  0
  -11.3606    5.2468   -2.5676 C   0  0  0  0  0  0  0  0  0  0  0  0
  -12.1699    4.5727   -2.2621 H   0  0  0  0  0  0  0  0  0  0  0  0
  -11.4318    6.1413   -1.9412 H   0  0  0  0  0  0  0  0  0  0  0  0
  -11.5485    5.5406   -3.6033 H   0  0  0  0  0  0  0  0  0  0  0  0
  1  2  1  0  0  0  0
  1 10  2  0  0  0  0
  2  3  1  0  0  0  0
  4  1  1  0  0  0  0
  5  4  2  0  0  0  0
  5  6  1  0  0  0  0
  6  9  2  0  0  0  0
  7  6  1  0  0  0  0
  7  8  1  0  0  0  0
  8 15  1  0  0  0  0
  9 10  1  0  0  0  0
  9 16  1  0  0  0  0
 10 17  1  0  0  0  0
 12  5  1  0  0  0  0
 13  8  1  0  0  0  0
 14  8  1  0  0  0  0
 18 24  1  0  0  0  0
 19 18  1  0  0  0  0
 19 25  1  0  0  0  0
 20 19  2  0  0  0  0
 21 22  2  0  0  0  0
 21 20  1  0  0  0  0
 22 23  1  0  0  0  0
 23 28  1  0  0  0  0
 23 18  2  0  0  0  0
 26 21  1  0  0  0  0
 27 22  1  0  0  0  0
 28 29  2  0  0  0  0
 30 28  1  0  0  0  0
 30 11  1  0  0  0  0
 31 28  2  0  0  0  0
 32 20  1  0  0  0  0
 32 33  1  0  0  0  0
 32 34  1  0  0  0  0
 35 32  1  0  0  0  0
M  RAD  3   2   2   3   3   4   2
M  END
