Coordinates from ORCA-job 4-MeOPhN2+~TsO-_B3LYPG-6-31G_dp-CH-Scan-d09-49-n800
 OpenBabel11261919313D

 35 35  0  0  0  0  0  0  0  0999 V2000
   -2.0652   -0.2766   -0.1064 C   0  0  0  0  0  0  0  0  0  0  0  0
   -3.4020   -0.5441    0.1008 N   0  0  0  0  0  0  0  0  0  0  0  0
   -4.4960   -0.7277    0.2616 N   0  0  0  0  0  0  0  0  0  0  0  0
   -1.7873    1.0177   -0.6079 C   0  0  0  0  0  0  0  0  0  0  0  0
   -0.4005    1.1830   -0.7771 C   0  0  0  0  0  0  0  0  0  0  0  0
    0.5542    0.1954   -0.4886 C   0  0  0  0  0  0  0  0  0  0  0  0
    1.8490    0.5278   -0.7141 O   0  0  0  0  0  0  0  0  0  0  0  0
    2.8755   -0.4234   -0.4588 C   0  0  0  0  0  0  0  0  0  0  0  0
    0.1681   -1.0798    0.0129 C   0  0  0  0  0  0  0  0  0  0  0  0
   -1.1691   -1.3314    0.2125 C   0  0  0  0  0  0  0  0  0  0  0  0
   -4.0786    3.1770   -1.5383 H   0  0  0  0  0  0  0  0  0  0  0  0
   -0.0002    2.1233   -1.1574 H   0  0  0  0  0  0  0  0  0  0  0  0
    3.8118    0.0717   -0.7196 H   0  0  0  0  0  0  0  0  0  0  0  0
    2.7584   -1.3204   -1.0784 H   0  0  0  0  0  0  0  0  0  0  0  0
    2.9043   -0.7132    0.5987 H   0  0  0  0  0  0  0  0  0  0  0  0
    0.9012   -1.8439    0.2377 H   0  0  0  0  0  0  0  0  0  0  0  0
   -1.5131   -2.2895    0.5947 H   0  0  0  0  0  0  0  0  0  0  0  0
   -8.1841    3.6435   -0.9543 C   0  0  0  0  0  0  0  0  0  0  0  0
   -9.3606    4.3633   -1.1390 C   0  0  0  0  0  0  0  0  0  0  0  0
   -9.8595    4.6218   -2.4259 C   0  0  0  0  0  0  0  0  0  0  0  0
   -9.1465    4.1376   -3.5305 C   0  0  0  0  0  0  0  0  0  0  0  0
   -7.9660    3.4141   -3.3667 C   0  0  0  0  0  0  0  0  0  0  0  0
   -7.4949    3.1785   -2.0761 C   0  0  0  0  0  0  0  0  0  0  0  0
   -7.8045    3.4334    0.0395 H   0  0  0  0  0  0  0  0  0  0  0  0
   -9.9037    4.7289   -0.2717 H   0  0  0  0  0  0  0  0  0  0  0  0
   -9.5209    4.3264   -4.5328 H   0  0  0  0  0  0  0  0  0  0  0  0
   -7.4191    3.0292   -4.2200 H   0  0  0  0  0  0  0  0  0  0  0  0
   -5.9902    2.2521   -1.8559 S   0  0  0  0  0  0  0  0  0  0  0  0
   -5.9954    1.6103   -0.5390 O   0  0  0  0  0  0  0  0  0  0  0  0
   -4.9516    3.5170   -1.8110 O   0  0  0  0  0  0  0  0  0  0  0  0
   -5.7295    1.4550   -3.0523 O   0  0  0  0  0  0  0  0  0  0  0  0
  -11.1493    5.3851   -2.6073 C   0  0  0  0  0  0  0  0  0  0  0  0
  -12.0113    4.7720   -2.3183 H   0  0  0  0  0  0  0  0  0  0  0  0
  -11.1707    6.2849   -1.9845 H   0  0  0  0  0  0  0  0  0  0  0  0
  -11.2924    5.6884   -3.6473 H   0  0  0  0  0  0  0  0  0  0  0  0
  1  2  1  0  0  0  0
  1 10  2  0  0  0  0
  2  3  1  0  0  0  0
  4  1  1  0  0  0  0
  5  4  2  0  0  0  0
  5  6  1  0  0  0  0
  6  9  2  0  0  0  0
  7  6  1  0  0  0  0
  7  8  1  0  0  0  0
  8 15  1  0  0  0  0
  9 10  1  0  0  0  0
  9 16  1  0  0  0  0
 10 17  1  0  0  0  0
 12  5  1  0  0  0  0
 13  8  1  0  0  0  0
 14  8  1  0  0  0  0
 18 24  1  0  0  0  0
 19 18  1  0  0  0  0
 19 25  1  0  0  0  0
 20 19  2  0  0  0  0
 21 22  2  0  0  0  0
 21 20  1  0  0  0  0
 22 23  1  0  0  0  0
 23 28  1  0  0  0  0
 23 18  2  0  0  0  0
 26 21  1  0  0  0  0
 27 22  1  0  0  0  0
 28 30  1  0  0  0  0
 28 29  2  0  0  0  0
 30 11  1  0  0  0  0
 31 28  2  0  0  0  0
 32 20  1  0  0  0  0
 32 33  1  0  0  0  0
 32 34  1  0  0  0  0
 35 32  1  0  0  0  0
M  RAD  3   2   2   3   3   4   2
M  END
