Coordinates from ORCA-job 4-MeOPhN2+~TsO-_B3LYPG-6-31G_dp-CH-Scan-d09-49-n800
 OpenBabel11261919313D

 35 35  0  0  0  0  0  0  0  0999 V2000
   -2.4328   -0.4342   -0.2010 C   0  0  0  0  0  0  0  0  0  0  0  0
   -3.6895   -0.9471    0.0256 N   0  0  0  0  0  0  0  0  0  0  0  0
   -4.7261   -1.3344    0.1964 N   0  0  0  0  0  0  0  0  0  0  0  0
   -2.3806    0.8261   -0.8461 C   0  0  0  0  0  0  0  0  0  0  0  0
   -1.0579    1.2513   -1.0253 C   0  0  0  0  0  0  0  0  0  0  0  0
    0.0646    0.5120   -0.6148 C   0  0  0  0  0  0  0  0  0  0  0  0
    1.2692    1.0701   -0.8672 O   0  0  0  0  0  0  0  0  0  0  0  0
    2.4596    0.3830   -0.4930 C   0  0  0  0  0  0  0  0  0  0  0  0
   -0.0820   -0.7484    0.0256 C   0  0  0  0  0  0  0  0  0  0  0  0
   -1.3500   -1.2375    0.2401 C   0  0  0  0  0  0  0  0  0  0  0  0
   -3.9981    1.9329   -1.5010 H   0  0  0  0  0  0  0  0  0  0  0  0
   -0.8477    2.2040   -1.5083 H   0  0  0  0  0  0  0  0  0  0  0  0
    3.2830    1.0285   -0.8001 H   0  0  0  0  0  0  0  0  0  0  0  0
    2.5451   -0.5808   -1.0079 H   0  0  0  0  0  0  0  0  0  0  0  0
    2.5087    0.2251    0.5910 H   0  0  0  0  0  0  0  0  0  0  0  0
    0.7781   -1.3233    0.3430 H   0  0  0  0  0  0  0  0  0  0  0  0
   -1.5089   -2.1970    0.7244 H   0  0  0  0  0  0  0  0  0  0  0  0
   -7.8828    3.3704   -0.9102 C   0  0  0  0  0  0  0  0  0  0  0  0
   -8.8623    4.3492   -1.0540 C   0  0  0  0  0  0  0  0  0  0  0  0
   -9.3155    4.7412   -2.3231 C   0  0  0  0  0  0  0  0  0  0  0  0
   -8.7596    4.1244   -3.4517 C   0  0  0  0  0  0  0  0  0  0  0  0
   -7.7780    3.1421   -3.3270 C   0  0  0  0  0  0  0  0  0  0  0  0
   -7.3447    2.7774   -2.0534 C   0  0  0  0  0  0  0  0  0  0  0  0
   -7.5414    3.0583    0.0706 H   0  0  0  0  0  0  0  0  0  0  0  0
   -9.2848    4.8155   -0.1679 H   0  0  0  0  0  0  0  0  0  0  0  0
   -9.1008    4.4148   -4.4417 H   0  0  0  0  0  0  0  0  0  0  0  0
   -7.3552    2.6556   -4.1989 H   0  0  0  0  0  0  0  0  0  0  0  0
   -6.0846    1.5257   -1.8842 S   0  0  0  0  0  0  0  0  0  0  0  0
   -6.2454    0.8591   -0.5823 O   0  0  0  0  0  0  0  0  0  0  0  0
   -4.7893    2.4719   -1.8299 O   0  0  0  0  0  0  0  0  0  0  0  0
   -6.0650    0.7051   -3.0969 O   0  0  0  0  0  0  0  0  0  0  0  0
  -10.3986    5.7837   -2.4627 C   0  0  0  0  0  0  0  0  0  0  0  0
  -11.3885    5.3500   -2.2736 H   0  0  0  0  0  0  0  0  0  0  0  0
  -10.2625    6.6003   -1.7465 H   0  0  0  0  0  0  0  0  0  0  0  0
  -10.4153    6.2123   -3.4683 H   0  0  0  0  0  0  0  0  0  0  0  0
  1  2  1  0  0  0  0
  1 10  2  0  0  0  0
  2  3  1  0  0  0  0
  4  1  1  0  0  0  0
  5  4  2  0  0  0  0
  5  6  1  0  0  0  0
  6  9  2  0  0  0  0
  7  6  1  0  0  0  0
  7  8  1  0  0  0  0
  8 15  1  0  0  0  0
  9 10  1  0  0  0  0
  9 16  1  0  0  0  0
 10 17  1  0  0  0  0
 12  5  1  0  0  0  0
 13  8  1  0  0  0  0
 14  8  1  0  0  0  0
 18 24  1  0  0  0  0
 19 18  1  0  0  0  0
 19 25  1  0  0  0  0
 20 19  2  0  0  0  0
 21 22  2  0  0  0  0
 21 20  1  0  0  0  0
 22 23  1  0  0  0  0
 23 28  1  0  0  0  0
 23 18  2  0  0  0  0
 26 21  1  0  0  0  0
 27 22  1  0  0  0  0
 28 30  1  0  0  0  0
 28 29  2  0  0  0  0
 30 11  1  0  0  0  0
 31 28  2  0  0  0  0
 32 20  1  0  0  0  0
 32 33  1  0  0  0  0
 32 34  1  0  0  0  0
 35 32  1  0  0  0  0
M  RAD  3   2   2   3   3   4   2
M  END
