Coordinates from ORCA-job 4-MeOPhN2+~TsO-_B3LYPG-6-31G_dp-CH-Scan-d09-49-n800
 OpenBabel11261919313D

 35 35  0  0  0  0  0  0  0  0999 V2000
   -2.0700   -0.2803   -0.1064 C   0  0  0  0  0  0  0  0  0  0  0  0
   -3.4055   -0.5527    0.1026 N   0  0  0  0  0  0  0  0  0  0  0  0
   -4.4985   -0.7408    0.2648 N   0  0  0  0  0  0  0  0  0  0  0  0
   -1.7972    1.0132   -0.6126 C   0  0  0  0  0  0  0  0  0  0  0  0
   -0.4112    1.1838   -0.7830 C   0  0  0  0  0  0  0  0  0  0  0  0
    0.5476    0.2011   -0.4913 C   0  0  0  0  0  0  0  0  0  0  0  0
    1.8409    0.5380   -0.7182 O   0  0  0  0  0  0  0  0  0  0  0  0
    2.8715   -0.4079   -0.4593 C   0  0  0  0  0  0  0  0  0  0  0  0
    0.1668   -1.0739    0.0149 C   0  0  0  0  0  0  0  0  0  0  0  0
   -1.1693   -1.3302    0.2159 C   0  0  0  0  0  0  0  0  0  0  0  0
   -4.0794    3.1472   -1.5353 H   0  0  0  0  0  0  0  0  0  0  0  0
   -0.0151    2.1244   -1.1668 H   0  0  0  0  0  0  0  0  0  0  0  0
    3.8056    0.0903   -0.7218 H   0  0  0  0  0  0  0  0  0  0  0  0
    2.7583   -1.3075   -1.0757 H   0  0  0  0  0  0  0  0  0  0  0  0
    2.9013   -0.6937    0.5992 H   0  0  0  0  0  0  0  0  0  0  0  0
    0.9031   -1.8341    0.2422 H   0  0  0  0  0  0  0  0  0  0  0  0
   -1.5092   -2.2883    0.6015 H   0  0  0  0  0  0  0  0  0  0  0  0
   -8.1816    3.6361   -0.9547 C   0  0  0  0  0  0  0  0  0  0  0  0
   -9.3541    4.3629   -1.1380 C   0  0  0  0  0  0  0  0  0  0  0  0
   -9.8513    4.6269   -2.4244 C   0  0  0  0  0  0  0  0  0  0  0  0
   -9.1409    4.1410   -3.5300 C   0  0  0  0  0  0  0  0  0  0  0  0
   -7.9645    3.4105   -3.3675 C   0  0  0  0  0  0  0  0  0  0  0  0
   -7.4949    3.1695   -2.0774 C   0  0  0  0  0  0  0  0  0  0  0  0
   -7.8034    3.4217    0.0387 H   0  0  0  0  0  0  0  0  0  0  0  0
   -9.8952    4.7297   -0.2700 H   0  0  0  0  0  0  0  0  0  0  0  0
   -9.5141    4.3340   -4.5319 H   0  0  0  0  0  0  0  0  0  0  0  0
   -7.4197    3.0243   -4.2215 H   0  0  0  0  0  0  0  0  0  0  0  0
   -5.9955    2.2341   -1.8590 S   0  0  0  0  0  0  0  0  0  0  0  0
   -6.0058    1.5876   -0.5444 O   0  0  0  0  0  0  0  0  0  0  0  0
   -4.9502    3.4928   -1.8087 O   0  0  0  0  0  0  0  0  0  0  0  0
   -5.7384    1.4394   -3.0578 O   0  0  0  0  0  0  0  0  0  0  0  0
  -11.1367    5.3980   -2.6043 C   0  0  0  0  0  0  0  0  0  0  0  0
  -12.0020    4.7905   -2.3133 H   0  0  0  0  0  0  0  0  0  0  0  0
  -11.1516    6.2984   -1.9823 H   0  0  0  0  0  0  0  0  0  0  0  0
  -11.2797    5.7013   -3.6443 H   0  0  0  0  0  0  0  0  0  0  0  0
  1  2  1  0  0  0  0
  1 10  2  0  0  0  0
  2  3  1  0  0  0  0
  4  1  1  0  0  0  0
  5  4  2  0  0  0  0
  5  6  1  0  0  0  0
  6  9  2  0  0  0  0
  7  6  1  0  0  0  0
  7  8  1  0  0  0  0
  8 15  1  0  0  0  0
  9 10  1  0  0  0  0
  9 16  1  0  0  0  0
 10 17  1  0  0  0  0
 12  5  1  0  0  0  0
 13  8  1  0  0  0  0
 14  8  1  0  0  0  0
 18 24  1  0  0  0  0
 19 18  1  0  0  0  0
 19 25  1  0  0  0  0
 20 19  2  0  0  0  0
 21 22  2  0  0  0  0
 21 20  1  0  0  0  0
 22 23  1  0  0  0  0
 23 28  1  0  0  0  0
 23 18  2  0  0  0  0
 26 21  1  0  0  0  0
 27 22  1  0  0  0  0
 28 30  1  0  0  0  0
 28 29  2  0  0  0  0
 30 11  1  0  0  0  0
 31 28  2  0  0  0  0
 32 20  1  0  0  0  0
 32 33  1  0  0  0  0
 32 34  1  0  0  0  0
 35 32  1  0  0  0  0
M  RAD  3   2   2   3   3   4   2
M  END
