Coordinates from ORCA-job 4-MeOPhN2+~TsO-_B3LYPG-6-31G_dp-CH-Scan-d09-49-n800
 OpenBabel11261919313D

 35 35  0  0  0  0  0  0  0  0999 V2000
   -1.6933   -0.3379   -0.5688 C   0  0  0  0  0  0  0  0  0  0  0  0
   -3.0434   -0.5486   -0.7674 N   0  0  0  0  0  0  0  0  0  0  0  0
   -4.1435   -0.6763   -0.9457 N   0  0  0  0  0  0  0  0  0  0  0  0
   -1.2406    0.9355   -0.9868 C   0  0  0  0  0  0  0  0  0  0  0  0
    0.1428    1.0500   -0.7445 C   0  0  0  0  0  0  0  0  0  0  0  0
    0.9333    0.0409   -0.1743 C   0  0  0  0  0  0  0  0  0  0  0  0
    2.2506    0.3254   -0.0153 O   0  0  0  0  0  0  0  0  0  0  0  0
    3.1184   -0.6470    0.5535 C   0  0  0  0  0  0  0  0  0  0  0  0
    0.3708   -1.2102    0.2111 C   0  0  0  0  0  0  0  0  0  0  0  0
   -0.9743   -1.4160    0.0135 C   0  0  0  0  0  0  0  0  0  0  0  0
   -4.3676    3.4793   -2.7491 H   0  0  0  0  0  0  0  0  0  0  0  0
    0.6726    1.9679   -1.0040 H   0  0  0  0  0  0  0  0  0  0  0  0
    4.1076   -0.1874    0.5749 H   0  0  0  0  0  0  0  0  0  0  0  0
    3.1588   -1.5591   -0.0541 H   0  0  0  0  0  0  0  0  0  0  0  0
    2.8210   -0.9063    1.5769 H   0  0  0  0  0  0  0  0  0  0  0  0
    0.9790   -1.9906    0.6502 H   0  0  0  0  0  0  0  0  0  0  0  0
   -1.4503   -2.3539    0.2907 H   0  0  0  0  0  0  0  0  0  0  0  0
   -8.0504    3.7695   -1.2411 C   0  0  0  0  0  0  0  0  0  0  0  0
   -9.2411    4.4615   -1.0395 C   0  0  0  0  0  0  0  0  0  0  0  0
  -10.1362    4.6904   -2.0963 C   0  0  0  0  0  0  0  0  0  0  0  0
   -9.8079    4.2047   -3.3695 C   0  0  0  0  0  0  0  0  0  0  0  0
   -8.6217    3.5076   -3.5922 C   0  0  0  0  0  0  0  0  0  0  0  0
   -7.7515    3.3015   -2.5221 C   0  0  0  0  0  0  0  0  0  0  0  0
   -7.3646    3.5827   -0.4219 H   0  0  0  0  0  0  0  0  0  0  0  0
   -9.4810    4.8298   -0.0457 H   0  0  0  0  0  0  0  0  0  0  0  0
  -10.4907    4.3722   -4.1982 H   0  0  0  0  0  0  0  0  0  0  0  0
   -8.3730    3.1214   -4.5743 H   0  0  0  0  0  0  0  0  0  0  0  0
   -6.2288    2.4200   -2.7949 S   0  0  0  0  0  0  0  0  0  0  0  0
   -5.7595    1.8305   -1.5388 O   0  0  0  0  0  0  0  0  0  0  0  0
   -5.2394    3.6913   -3.1264 O   0  0  0  0  0  0  0  0  0  0  0  0
   -6.3587    1.6057   -3.9977 O   0  0  0  0  0  0  0  0  0  0  0  0
  -11.4360    5.4191   -1.8561 C   0  0  0  0  0  0  0  0  0  0  0  0
  -12.1928    4.7419   -1.4408 H   0  0  0  0  0  0  0  0  0  0  0  0
  -11.3078    6.2387   -1.1424 H   0  0  0  0  0  0  0  0  0  0  0  0
  -11.8406    5.8332   -2.7832 H   0  0  0  0  0  0  0  0  0  0  0  0
  1 10  2  0  0  0  0
  2  1  1  0  0  0  0
  3  2  1  0  0  0  0
  4  5  2  0  0  0  0
  4  1  1  0  0  0  0
  5  6  1  0  0  0  0
  6  7  1  0  0  0  0
  6  9  2  0  0  0  0
  7  8  1  0  0  0  0
  8 13  1  0  0  0  0
  8 15  1  0  0  0  0
  9 16  1  0  0  0  0
 10  9  1  0  0  0  0
 10 17  1  0  0  0  0
 12  5  1  0  0  0  0
 14  8  1  0  0  0  0
 18 19  1  0  0  0  0
 18 24  1  0  0  0  0
 19 25  1  0  0  0  0
 20 32  1  0  0  0  0
 20 19  2  0  0  0  0
 21 20  1  0  0  0  0
 22 21  2  0  0  0  0
 22 23  1  0  0  0  0
 23 18  2  0  0  0  0
 26 21  1  0  0  0  0
 27 22  1  0  0  0  0
 28 23  1  0  0  0  0
 28 29  2  0  0  0  0
 30 28  1  0  0  0  0
 30 11  1  0  0  0  0
 31 28  2  0  0  0  0
 32 33  1  0  0  0  0
 32 34  1  0  0  0  0
 35 32  1  0  0  0  0
M  RAD  3   2   2   3   3   4   2
M  END
