Coordinates from ORCA-job 4-MeOPhN2+~TsO-_B3LYPG-6-31G_dp-CH-Scan-d09-49-n800
 OpenBabel11261919313D

 35 35  0  0  0  0  0  0  0  0999 V2000
   -2.5422   -0.4556   -0.2208 C   0  0  0  0  0  0  0  0  0  0  0  0
   -3.7756   -1.0186    0.0106 N   0  0  0  0  0  0  0  0  0  0  0  0
   -4.7971   -1.4430    0.1809 N   0  0  0  0  0  0  0  0  0  0  0  0
   -2.5292    0.7827   -0.9092 C   0  0  0  0  0  0  0  0  0  0  0  0
   -1.2290    1.2628   -1.0922 C   0  0  0  0  0  0  0  0  0  0  0  0
   -0.0792    0.5892   -0.6437 C   0  0  0  0  0  0  0  0  0  0  0  0
    1.1000    1.1915   -0.9042 O   0  0  0  0  0  0  0  0  0  0  0  0
    2.3169    0.5750   -0.4912 C   0  0  0  0  0  0  0  0  0  0  0  0
   -0.1795   -0.6522    0.0392 C   0  0  0  0  0  0  0  0  0  0  0  0
   -1.4278   -1.1895    0.2572 C   0  0  0  0  0  0  0  0  0  0  0  0
   -3.9306    1.6590   -1.5170 H   0  0  0  0  0  0  0  0  0  0  0  0
   -1.0613    2.2063   -1.6076 H   0  0  0  0  0  0  0  0  0  0  0  0
    3.1128    1.2457   -0.8155 H   0  0  0  0  0  0  0  0  0  0  0  0
    2.4521   -0.4030   -0.9672 H   0  0  0  0  0  0  0  0  0  0  0  0
    2.3592    0.4623    0.5986 H   0  0  0  0  0  0  0  0  0  0  0  0
    0.7006   -1.1778    0.3858 H   0  0  0  0  0  0  0  0  0  0  0  0
   -1.5496   -2.1378    0.7725 H   0  0  0  0  0  0  0  0  0  0  0  0
   -7.7606    3.3028   -0.9108 C   0  0  0  0  0  0  0  0  0  0  0  0
   -8.6967    4.3269   -1.0266 C   0  0  0  0  0  0  0  0  0  0  0  0
   -9.1637    4.7444   -2.2823 C   0  0  0  0  0  0  0  0  0  0  0  0
   -8.6659    4.1062   -3.4259 C   0  0  0  0  0  0  0  0  0  0  0  0
   -7.7286    3.0784   -3.3283 C   0  0  0  0  0  0  0  0  0  0  0  0
   -7.2796    2.6879   -2.0678 C   0  0  0  0  0  0  0  0  0  0  0  0
   -7.4098    2.9710    0.0601 H   0  0  0  0  0  0  0  0  0  0  0  0
   -9.0745    4.8090   -0.1286 H   0  0  0  0  0  0  0  0  0  0  0  0
   -9.0185    4.4154   -4.4062 H   0  0  0  0  0  0  0  0  0  0  0  0
   -7.3520    2.5749   -4.2116 H   0  0  0  0  0  0  0  0  0  0  0  0
   -6.0696    1.3798   -1.9353 S   0  0  0  0  0  0  0  0  0  0  0  0
   -6.2477    0.7094   -0.6329 O   0  0  0  0  0  0  0  0  0  0  0  0
   -4.7333    2.2332   -1.9037 O   0  0  0  0  0  0  0  0  0  0  0  0
   -6.1363    0.5598   -3.1492 O   0  0  0  0  0  0  0  0  0  0  0  0
  -10.2019    5.8352   -2.3924 C   0  0  0  0  0  0  0  0  0  0  0  0
  -11.2067    5.4445   -2.1886 H   0  0  0  0  0  0  0  0  0  0  0  0
  -10.0166    6.6386   -1.6724 H   0  0  0  0  0  0  0  0  0  0  0  0
  -10.2182    6.2731   -3.3941 H   0  0  0  0  0  0  0  0  0  0  0  0
  1  2  1  0  0  0  0
  1 10  2  0  0  0  0
  2  3  1  0  0  0  0
  4  1  1  0  0  0  0
  5  4  2  0  0  0  0
  5  6  1  0  0  0  0
  6  9  2  0  0  0  0
  7  6  1  0  0  0  0
  7  8  1  0  0  0  0
  8 15  1  0  0  0  0
  9 10  1  0  0  0  0
  9 16  1  0  0  0  0
 10 17  1  0  0  0  0
 12  5  1  0  0  0  0
 13  8  1  0  0  0  0
 14  8  1  0  0  0  0
 18 24  1  0  0  0  0
 19 18  1  0  0  0  0
 19 25  1  0  0  0  0
 20 19  2  0  0  0  0
 21 22  2  0  0  0  0
 21 20  1  0  0  0  0
 22 23  1  0  0  0  0
 23 28  1  0  0  0  0
 23 18  2  0  0  0  0
 26 21  1  0  0  0  0
 27 22  1  0  0  0  0
 28 30  1  0  0  0  0
 28 29  2  0  0  0  0
 30 11  1  0  0  0  0
 31 28  2  0  0  0  0
 32 20  1  0  0  0  0
 32 33  1  0  0  0  0
 32 34  1  0  0  0  0
 35 32  1  0  0  0  0
M  RAD  3   2   2   3   3   4   2
M  END
