Coordinates from ORCA-job 4-MeOPhN2+~TsO-_B3LYPG-6-31G_dp-CH-Scan-d09-49-n800
 OpenBabel11261919313D

 35 35  0  0  0  0  0  0  0  0999 V2000
   -2.1525   -0.3211   -0.1122 C   0  0  0  0  0  0  0  0  0  0  0  0
   -3.4706   -0.6548    0.1124 N   0  0  0  0  0  0  0  0  0  0  0  0
   -4.5511   -0.8960    0.2863 N   0  0  0  0  0  0  0  0  0  0  0  0
   -1.9408    0.9684   -0.6568 C   0  0  0  0  0  0  0  0  0  0  0  0
   -0.5674    1.2027   -0.8416 C   0  0  0  0  0  0  0  0  0  0  0  0
    0.4396    0.2766   -0.5266 C   0  0  0  0  0  0  0  0  0  0  0  0
    1.7128    0.6696   -0.7707 O   0  0  0  0  0  0  0  0  0  0  0  0
    2.7913   -0.2138   -0.4845 C   0  0  0  0  0  0  0  0  0  0  0  0
    0.1229   -0.9994    0.0186 C   0  0  0  0  0  0  0  0  0  0  0  0
   -1.1983   -1.3143    0.2343 C   0  0  0  0  0  0  0  0  0  0  0  0
   -4.0675    2.8214   -1.4770 H   0  0  0  0  0  0  0  0  0  0  0  0
   -0.2207    2.1499   -1.2545 H   0  0  0  0  0  0  0  0  0  0  0  0
    3.6981    0.3240   -0.7641 H   0  0  0  0  0  0  0  0  0  0  0  0
    2.7243   -1.1364   -1.0727 H   0  0  0  0  0  0  0  0  0  0  0  0
    2.8356   -0.4642    0.5824 H   0  0  0  0  0  0  0  0  0  0  0  0
    0.8962   -1.7160    0.2639 H   0  0  0  0  0  0  0  0  0  0  0  0
   -1.4891   -2.2763    0.6489 H   0  0  0  0  0  0  0  0  0  0  0  0
   -8.1276    3.5657   -0.9475 C   0  0  0  0  0  0  0  0  0  0  0  0
   -9.2534    4.3637   -1.1255 C   0  0  0  0  0  0  0  0  0  0  0  0
   -9.7320    4.6682   -2.4100 C   0  0  0  0  0  0  0  0  0  0  0  0
   -9.0507    4.1497   -3.5188 C   0  0  0  0  0  0  0  0  0  0  0  0
   -7.9203    3.3485   -3.3614 C   0  0  0  0  0  0  0  0  0  0  0  0
   -7.4679    3.0683   -2.0733 C   0  0  0  0  0  0  0  0  0  0  0  0
   -7.7652    3.3198    0.0445 H   0  0  0  0  0  0  0  0  0  0  0  0
   -9.7727    4.7551   -0.2549 H   0  0  0  0  0  0  0  0  0  0  0  0
   -9.4101    4.3732   -4.5194 H   0  0  0  0  0  0  0  0  0  0  0  0
   -7.3979    2.9375   -4.2179 H   0  0  0  0  0  0  0  0  0  0  0  0
   -6.0283    2.0406   -1.8614 S   0  0  0  0  0  0  0  0  0  0  0  0
   -6.1030    1.3544   -0.5681 O   0  0  0  0  0  0  0  0  0  0  0  0
   -4.9137    3.2275   -1.7550 O   0  0  0  0  0  0  0  0  0  0  0  0
   -5.8028    1.2648   -3.0794 O   0  0  0  0  0  0  0  0  0  0  0  0
  -10.9680    5.5177   -2.5842 C   0  0  0  0  0  0  0  0  0  0  0  0
  -11.8683    4.9650   -2.2901 H   0  0  0  0  0  0  0  0  0  0  0  0
  -10.9250    6.4166   -1.9610 H   0  0  0  0  0  0  0  0  0  0  0  0
  -11.0959    5.8309   -3.6231 H   0  0  0  0  0  0  0  0  0  0  0  0
  1  2  1  0  0  0  0
  1 10  2  0  0  0  0
  2  3  1  0  0  0  0
  4  1  1  0  0  0  0
  5  4  2  0  0  0  0
  5  6  1  0  0  0  0
  6  9  2  0  0  0  0
  7  6  1  0  0  0  0
  7  8  1  0  0  0  0
  8 15  1  0  0  0  0
  9 10  1  0  0  0  0
  9 16  1  0  0  0  0
 10 17  1  0  0  0  0
 12  5  1  0  0  0  0
 13  8  1  0  0  0  0
 14  8  1  0  0  0  0
 18 24  1  0  0  0  0
 19 18  1  0  0  0  0
 19 25  1  0  0  0  0
 20 19  2  0  0  0  0
 21 22  2  0  0  0  0
 21 20  1  0  0  0  0
 22 23  1  0  0  0  0
 23 28  1  0  0  0  0
 23 18  2  0  0  0  0
 26 21  1  0  0  0  0
 27 22  1  0  0  0  0
 28 30  1  0  0  0  0
 28 29  2  0  0  0  0
 30 11  1  0  0  0  0
 31 28  2  0  0  0  0
 32 20  1  0  0  0  0
 32 33  1  0  0  0  0
 32 34  1  0  0  0  0
 35 32  1  0  0  0  0
M  RAD  3   2   2   3   3   4   2
M  END
