Coordinates from ORCA-job 4-MeOPhN2+~TsO-_B3LYPG-6-31G_dp-CH-Scan-d09-49-n800
 OpenBabel11261919313D

 35 35  0  0  0  0  0  0  0  0999 V2000
   -2.4381   -0.4353   -0.2014 C   0  0  0  0  0  0  0  0  0  0  0  0
   -3.6937   -0.9507    0.0258 N   0  0  0  0  0  0  0  0  0  0  0  0
   -4.7294   -1.3400    0.1970 N   0  0  0  0  0  0  0  0  0  0  0  0
   -2.3884    0.8242   -0.8483 C   0  0  0  0  0  0  0  0  0  0  0  0
   -1.0667    1.2521   -1.0280 C   0  0  0  0  0  0  0  0  0  0  0  0
    0.0574    0.5158   -0.6165 C   0  0  0  0  0  0  0  0  0  0  0  0
    1.2607    1.0762   -0.8696 O   0  0  0  0  0  0  0  0  0  0  0  0
    2.4527    0.3923   -0.4944 C   0  0  0  0  0  0  0  0  0  0  0  0
   -0.0865   -0.7440    0.0257 C   0  0  0  0  0  0  0  0  0  0  0  0
   -1.3535   -1.2355    0.2407 C   0  0  0  0  0  0  0  0  0  0  0  0
   -3.9957    1.9199   -1.4998 H   0  0  0  0  0  0  0  0  0  0  0  0
   -0.8587    2.2046   -1.5123 H   0  0  0  0  0  0  0  0  0  0  0  0
    3.2746    1.0392   -0.8024 H   0  0  0  0  0  0  0  0  0  0  0  0
    2.5403   -0.5720   -1.0079 H   0  0  0  0  0  0  0  0  0  0  0  0
    2.5021    0.2361    0.5898 H   0  0  0  0  0  0  0  0  0  0  0  0
    0.7748   -1.3166    0.3438 H   0  0  0  0  0  0  0  0  0  0  0  0
   -1.5103   -2.1947    0.7262 H   0  0  0  0  0  0  0  0  0  0  0  0
   -7.8780    3.3668   -0.9097 C   0  0  0  0  0  0  0  0  0  0  0  0
   -8.8553    4.3478   -1.0529 C   0  0  0  0  0  0  0  0  0  0  0  0
   -9.3081    4.7414   -2.3216 C   0  0  0  0  0  0  0  0  0  0  0  0
   -8.7538    4.1240   -3.4506 C   0  0  0  0  0  0  0  0  0  0  0  0
   -7.7744    3.1394   -3.3267 C   0  0  0  0  0  0  0  0  0  0  0  0
   -7.3415    2.7731   -2.0534 C   0  0  0  0  0  0  0  0  0  0  0  0
   -7.5370    3.0535    0.0708 H   0  0  0  0  0  0  0  0  0  0  0  0
   -9.2766    4.8147   -0.1664 H   0  0  0  0  0  0  0  0  0  0  0  0
   -9.0947    4.4155   -4.4404 H   0  0  0  0  0  0  0  0  0  0  0  0
   -7.3529    2.6523   -4.1988 H   0  0  0  0  0  0  0  0  0  0  0  0
   -6.0839    1.5185   -1.8851 S   0  0  0  0  0  0  0  0  0  0  0  0
   -6.2466    0.8513   -0.5835 O   0  0  0  0  0  0  0  0  0  0  0  0
   -4.7867    2.4607   -1.8303 O   0  0  0  0  0  0  0  0  0  0  0  0
   -6.0671    0.6983   -3.0982 O   0  0  0  0  0  0  0  0  0  0  0  0
  -10.3890    5.7863   -2.4605 C   0  0  0  0  0  0  0  0  0  0  0  0
  -11.3799    5.3543   -2.2727 H   0  0  0  0  0  0  0  0  0  0  0  0
  -10.2518    6.6016   -1.7431 H   0  0  0  0  0  0  0  0  0  0  0  0
  -10.4041    6.2163   -3.4655 H   0  0  0  0  0  0  0  0  0  0  0  0
  1  2  1  0  0  0  0
  1 10  2  0  0  0  0
  2  3  1  0  0  0  0
  4  1  1  0  0  0  0
  5  4  2  0  0  0  0
  5  6  1  0  0  0  0
  6  9  2  0  0  0  0
  7  6  1  0  0  0  0
  7  8  1  0  0  0  0
  8 15  1  0  0  0  0
  9 10  1  0  0  0  0
  9 16  1  0  0  0  0
 10 17  1  0  0  0  0
 12  5  1  0  0  0  0
 13  8  1  0  0  0  0
 14  8  1  0  0  0  0
 18 24  1  0  0  0  0
 19 18  1  0  0  0  0
 19 25  1  0  0  0  0
 20 19  2  0  0  0  0
 21 22  2  0  0  0  0
 21 20  1  0  0  0  0
 22 23  1  0  0  0  0
 23 28  1  0  0  0  0
 23 18  2  0  0  0  0
 26 21  1  0  0  0  0
 27 22  1  0  0  0  0
 28 30  1  0  0  0  0
 28 29  2  0  0  0  0
 30 11  1  0  0  0  0
 31 28  2  0  0  0  0
 32 20  1  0  0  0  0
 32 33  1  0  0  0  0
 32 34  1  0  0  0  0
 35 32  1  0  0  0  0
M  RAD  3   2   2   3   3   4   2
M  END
