Coordinates from ORCA-job 4-MeOPhN2+~TsO-_B3LYPG-6-31G_dp-CH-Scan-d09-49-n800
 OpenBabel11261919313D

 35 35  0  0  0  0  0  0  0  0999 V2000
   -2.6241   -0.5023   -0.3265 C   0  0  0  0  0  0  0  0  0  0  0  0
   -3.8359   -1.1260   -0.1460 N   0  0  0  0  0  0  0  0  0  0  0  0
   -4.8450   -1.5918   -0.0204 N   0  0  0  0  0  0  0  0  0  0  0  0
   -2.6226    0.7025   -1.0703 C   0  0  0  0  0  0  0  0  0  0  0  0
   -1.3493    1.2554   -1.1994 C   0  0  0  0  0  0  0  0  0  0  0  0
   -0.1946    0.6704   -0.6480 C   0  0  0  0  0  0  0  0  0  0  0  0
    0.9611    1.3285   -0.8642 O   0  0  0  0  0  0  0  0  0  0  0  0
    2.1833    0.8025   -0.3503 C   0  0  0  0  0  0  0  0  0  0  0  0
   -0.2723   -0.5425    0.0849 C   0  0  0  0  0  0  0  0  0  0  0  0
   -1.5009   -1.1425    0.2504 C   0  0  0  0  0  0  0  0  0  0  0  0
   -3.8737    1.3625   -1.7182 H   0  0  0  0  0  0  0  0  0  0  0  0
   -1.2097    2.1827   -1.7499 H   0  0  0  0  0  0  0  0  0  0  0  0
    2.9592    1.5019   -0.6617 H   0  0  0  0  0  0  0  0  0  0  0  0
    2.3992   -0.1873   -0.7684 H   0  0  0  0  0  0  0  0  0  0  0  0
    2.1638    0.7443    0.7441 H   0  0  0  0  0  0  0  0  0  0  0  0
    0.6107   -1.0008    0.5105 H   0  0  0  0  0  0  0  0  0  0  0  0
   -1.6019   -2.0722    0.8021 H   0  0  0  0  0  0  0  0  0  0  0  0
   -7.5647    3.2763   -0.9329 C   0  0  0  0  0  0  0  0  0  0  0  0
   -8.4387    4.3589   -0.9963 C   0  0  0  0  0  0  0  0  0  0  0  0
   -9.0082    4.7610   -2.2139 C   0  0  0  0  0  0  0  0  0  0  0  0
   -8.6778    4.0460   -3.3728 C   0  0  0  0  0  0  0  0  0  0  0  0
   -7.8061    2.9589   -3.3258 C   0  0  0  0  0  0  0  0  0  0  0  0
   -7.2509    2.5836   -2.1031 C   0  0  0  0  0  0  0  0  0  0  0  0
   -7.1354    2.9569    0.0102 H   0  0  0  0  0  0  0  0  0  0  0  0
   -8.6866    4.8995   -0.0861 H   0  0  0  0  0  0  0  0  0  0  0  0
   -9.1119    4.3417   -4.3243 H   0  0  0  0  0  0  0  0  0  0  0  0
   -7.5617    2.3958   -4.2198 H   0  0  0  0  0  0  0  0  0  0  0  0
   -6.1134    1.2025   -2.0423 S   0  0  0  0  0  0  0  0  0  0  0  0
   -6.1775    0.6228   -0.6810 O   0  0  0  0  0  0  0  0  0  0  0  0
   -4.7329    1.9124   -2.2375 O   0  0  0  0  0  0  0  0  0  0  0  0
   -6.4217    0.3157   -3.1714 O   0  0  0  0  0  0  0  0  0  0  0  0
   -9.9792    5.9166   -2.2654 C   0  0  0  0  0  0  0  0  0  0  0  0
  -10.9848    5.6012   -1.9597 H   0  0  0  0  0  0  0  0  0  0  0  0
   -9.6764    6.7243   -1.5916 H   0  0  0  0  0  0  0  0  0  0  0  0
  -10.0590    6.3279   -3.2755 H   0  0  0  0  0  0  0  0  0  0  0  0
  1  2  1  0  0  0  0
  1 10  2  0  0  0  0
  2  3  1  0  0  0  0
  4  1  1  0  0  0  0
  5  4  2  0  0  0  0
  5  6  1  0  0  0  0
  6  9  2  0  0  0  0
  7  6  1  0  0  0  0
  7  8  1  0  0  0  0
  8 15  1  0  0  0  0
  9 10  1  0  0  0  0
  9 16  1  0  0  0  0
 10 17  1  0  0  0  0
 12  5  1  0  0  0  0
 13  8  1  0  0  0  0
 14  8  1  0  0  0  0
 18 24  1  0  0  0  0
 19 18  1  0  0  0  0
 19 25  1  0  0  0  0
 20 19  2  0  0  0  0
 21 22  2  0  0  0  0
 21 20  1  0  0  0  0
 22 23  1  0  0  0  0
 23 28  1  0  0  0  0
 23 18  2  0  0  0  0
 26 21  1  0  0  0  0
 27 22  1  0  0  0  0
 28 29  2  0  0  0  0
 30 28  1  0  0  0  0
 30 11  1  0  0  0  0
 31 28  2  0  0  0  0
 32 20  1  0  0  0  0
 32 33  1  0  0  0  0
 32 34  1  0  0  0  0
 35 32  1  0  0  0  0
M  RAD  3   2   2   3   3   4   2
M  END
