Coordinates from ORCA-job 4-MeOPhN2+~TsO-_B3LYPG-6-31G_dp-CH-Scan-d09-49-n800
 OpenBabel11261919313D

 35 35  0  0  0  0  0  0  0  0999 V2000
   -1.8257   -0.2276   -0.1706 C   0  0  0  0  0  0  0  0  0  0  0  0
   -3.1953   -0.3761   -0.0819 N   0  0  0  0  0  0  0  0  0  0  0  0
   -4.3124   -0.4535   -0.0194 N   0  0  0  0  0  0  0  0  0  0  0  0
   -1.4068    1.0626   -0.5726 C   0  0  0  0  0  0  0  0  0  0  0  0
    0.0000    1.1089   -0.6324 C   0  0  0  0  0  0  0  0  0  0  0  0
    0.8412    0.0253   -0.3385 C   0  0  0  0  0  0  0  0  0  0  0  0
    2.1744    0.2491   -0.4560 O   0  0  0  0  0  0  0  0  0  0  0  0
    3.0918   -0.8036   -0.1891 C   0  0  0  0  0  0  0  0  0  0  0  0
    0.3108   -1.2354    0.0601 C   0  0  0  0  0  0  0  0  0  0  0  0
   -1.0542   -1.3766    0.1499 C   0  0  0  0  0  0  0  0  0  0  0  0
   -4.2152    3.7513   -1.8551 H   0  0  0  0  0  0  0  0  0  0  0  0
    0.5084    2.0282   -0.9267 H   0  0  0  0  0  0  0  0  0  0  0  0
    4.0844   -0.3850   -0.3617 H   0  0  0  0  0  0  0  0  0  0  0  0
    2.9388   -1.6549   -0.8634 H   0  0  0  0  0  0  0  0  0  0  0  0
    3.0234   -1.1472    0.8505 H   0  0  0  0  0  0  0  0  0  0  0  0
    0.9574   -2.0724    0.2910 H   0  0  0  0  0  0  0  0  0  0  0  0
   -1.5072   -2.3184    0.4514 H   0  0  0  0  0  0  0  0  0  0  0  0
   -8.2347    3.8280   -1.0513 C   0  0  0  0  0  0  0  0  0  0  0  0
   -9.4872    4.4270   -1.1405 C   0  0  0  0  0  0  0  0  0  0  0  0
  -10.1340    4.5783   -2.3780 C   0  0  0  0  0  0  0  0  0  0  0  0
   -9.4914    4.1096   -3.5314 C   0  0  0  0  0  0  0  0  0  0  0  0
   -8.2362    3.5064   -3.4637 C   0  0  0  0  0  0  0  0  0  0  0  0
   -7.6188    3.3764   -2.2206 C   0  0  0  0  0  0  0  0  0  0  0  0
   -7.7407    3.7009   -0.0943 H   0  0  0  0  0  0  0  0  0  0  0  0
   -9.9736    4.7820   -0.2360 H   0  0  0  0  0  0  0  0  0  0  0  0
   -9.9799    4.2157   -4.4960 H   0  0  0  0  0  0  0  0  0  0  0  0
   -7.7421    3.1341   -4.3540 H   0  0  0  0  0  0  0  0  0  0  0  0
   -6.0157    2.6098   -2.1213 S   0  0  0  0  0  0  0  0  0  0  0  0
   -5.8251    2.0164   -0.7963 O   0  0  0  0  0  0  0  0  0  0  0  0
   -5.1008    3.9734   -2.1932 O   0  0  0  0  0  0  0  0  0  0  0  0
   -5.7825    1.8144   -3.3231 O   0  0  0  0  0  0  0  0  0  0  0  0
  -11.5016    5.2131   -2.4534 C   0  0  0  0  0  0  0  0  0  0  0  0
  -12.2695    4.5372   -2.0585 H   0  0  0  0  0  0  0  0  0  0  0  0
  -11.5460    6.1325   -1.8615 H   0  0  0  0  0  0  0  0  0  0  0  0
  -11.7737    5.4576   -3.4831 H   0  0  0  0  0  0  0  0  0  0  0  0
  1  2  1  0  0  0  0
  1 10  2  0  0  0  0
  2  3  1  0  0  0  0
  4  1  1  0  0  0  0
  5  4  2  0  0  0  0
  5  6  1  0  0  0  0
  6  9  2  0  0  0  0
  7  6  1  0  0  0  0
  7  8  1  0  0  0  0
  8 15  1  0  0  0  0
  9 10  1  0  0  0  0
  9 16  1  0  0  0  0
 10 17  1  0  0  0  0
 12  5  1  0  0  0  0
 13  8  1  0  0  0  0
 14  8  1  0  0  0  0
 18 24  1  0  0  0  0
 19 18  1  0  0  0  0
 19 25  1  0  0  0  0
 20 19  2  0  0  0  0
 21 22  2  0  0  0  0
 21 20  1  0  0  0  0
 22 23  1  0  0  0  0
 23 28  1  0  0  0  0
 23 18  2  0  0  0  0
 26 21  1  0  0  0  0
 27 22  1  0  0  0  0
 28 29  2  0  0  0  0
 30 28  1  0  0  0  0
 30 11  1  0  0  0  0
 31 28  2  0  0  0  0
 32 20  1  0  0  0  0
 32 33  1  0  0  0  0
 32 34  1  0  0  0  0
 35 32  1  0  0  0  0
M  RAD  3   2   2   3   3   4   2
M  END
