Coordinates from ORCA-job 4-MeOPhN2+~TsO-_B3LYPG-6-31G_dp-CH-Scan-d09-49-n800
 OpenBabel11261919313D

 35 35  0  0  0  0  0  0  0  0999 V2000
   -1.6402   -0.3180   -0.5799 C   0  0  0  0  0  0  0  0  0  0  0  0
   -2.9915   -0.5015   -0.7975 N   0  0  0  0  0  0  0  0  0  0  0  0
   -4.0910   -0.6059   -0.9935 N   0  0  0  0  0  0  0  0  0  0  0  0
   -1.1583    0.9472   -0.9891 C   0  0  0  0  0  0  0  0  0  0  0  0
    0.2239    1.0348   -0.7286 C   0  0  0  0  0  0  0  0  0  0  0  0
    0.9873    0.0098   -0.1503 C   0  0  0  0  0  0  0  0  0  0  0  0
    2.3077    0.2686    0.0265 O   0  0  0  0  0  0  0  0  0  0  0  0
    3.1491   -0.7211    0.6047 C   0  0  0  0  0  0  0  0  0  0  0  0
    0.3960   -1.2310    0.2255 C   0  0  0  0  0  0  0  0  0  0  0  0
   -0.9501   -1.4109    0.0098 C   0  0  0  0  0  0  0  0  0  0  0  0
   -4.4116    3.5759   -2.8296 H   0  0  0  0  0  0  0  0  0  0  0  0
    0.7745    1.9429   -0.9792 H   0  0  0  0  0  0  0  0  0  0  0  0
    4.1465   -0.2806    0.6402 H   0  0  0  0  0  0  0  0  0  0  0  0
    3.1803   -1.6329   -0.0042 H   0  0  0  0  0  0  0  0  0  0  0  0
    2.8333   -0.9767    1.6234 H   0  0  0  0  0  0  0  0  0  0  0  0
    0.9835   -2.0235    0.6712 H   0  0  0  0  0  0  0  0  0  0  0  0
   -1.4476   -2.3400    0.2789 H   0  0  0  0  0  0  0  0  0  0  0  0
   -8.0549    3.8236   -1.2681 C   0  0  0  0  0  0  0  0  0  0  0  0
   -9.2533    4.4973   -1.0511 C   0  0  0  0  0  0  0  0  0  0  0  0
  -10.1803    4.6833   -2.0887 C   0  0  0  0  0  0  0  0  0  0  0  0
   -9.8761    4.1733   -3.3583 C   0  0  0  0  0  0  0  0  0  0  0  0
   -8.6824    3.4942   -3.5962 C   0  0  0  0  0  0  0  0  0  0  0  0
   -7.7804    3.3308   -2.5453 C   0  0  0  0  0  0  0  0  0  0  0  0
   -7.3444    3.6699   -0.4630 H   0  0  0  0  0  0  0  0  0  0  0  0
   -9.4742    4.8848   -0.0602 H   0  0  0  0  0  0  0  0  0  0  0  0
  -10.5836    4.3073   -4.1723 H   0  0  0  0  0  0  0  0  0  0  0  0
   -8.4517    3.0895   -4.5753 H   0  0  0  0  0  0  0  0  0  0  0  0
   -6.2475    2.4738   -2.8385 S   0  0  0  0  0  0  0  0  0  0  0  0
   -5.7376    1.9154   -1.5841 O   0  0  0  0  0  0  0  0  0  0  0  0
   -5.2875    3.7563   -3.2136 O   0  0  0  0  0  0  0  0  0  0  0  0
   -6.3892    1.6383   -4.0250 O   0  0  0  0  0  0  0  0  0  0  0  0
  -11.4874    5.3927   -1.8312 C   0  0  0  0  0  0  0  0  0  0  0  0
  -12.2209    4.7104   -1.3835 H   0  0  0  0  0  0  0  0  0  0  0  0
  -11.3575    6.2292   -1.1378 H   0  0  0  0  0  0  0  0  0  0  0  0
  -11.9222    5.7800   -2.7563 H   0  0  0  0  0  0  0  0  0  0  0  0
  1 10  2  0  0  0  0
  2  1  1  0  0  0  0
  3  2  1  0  0  0  0
  4  5  2  0  0  0  0
  4  1  1  0  0  0  0
  5  6  1  0  0  0  0
  6  7  1  0  0  0  0
  6  9  2  0  0  0  0
  7  8  1  0  0  0  0
  8 13  1  0  0  0  0
  8 15  1  0  0  0  0
  9 16  1  0  0  0  0
 10  9  1  0  0  0  0
 10 17  1  0  0  0  0
 12  5  1  0  0  0  0
 14  8  1  0  0  0  0
 18 19  1  0  0  0  0
 18 24  1  0  0  0  0
 19 25  1  0  0  0  0
 20 32  1  0  0  0  0
 20 19  2  0  0  0  0
 21 20  1  0  0  0  0
 22 21  2  0  0  0  0
 22 23  1  0  0  0  0
 23 18  2  0  0  0  0
 26 21  1  0  0  0  0
 27 22  1  0  0  0  0
 28 23  1  0  0  0  0
 28 29  2  0  0  0  0
 30 28  1  0  0  0  0
 30 11  1  0  0  0  0
 31 28  2  0  0  0  0
 32 33  1  0  0  0  0
 32 34  1  0  0  0  0
 35 32  1  0  0  0  0
M  RAD  3   2   2   3   3   4   2
M  END
