Coordinates from ORCA-job 4-MeOPhN2+~TsO-_B3LYPG-6-31G_dp-CH-Scan-d09-49-n800
 OpenBabel11261919303D

 35 35  0  0  0  0  0  0  0  0999 V2000
   -2.7652   -0.0948   -0.3889 C   0  0  0  0  0  0  0  0  0  0  0  0
   -4.1240   -0.3700   -0.4166 N   0  0  0  0  0  0  0  0  0  0  0  0
   -5.2216   -0.0515   -0.4379 N   0  0  0  0  0  0  0  0  0  0  0  0
   -2.3004    1.2372   -0.3217 C   0  0  0  0  0  0  0  0  0  0  0  0
   -0.9360    1.4439   -0.3010 C   0  0  0  0  0  0  0  0  0  0  0  0
   -0.0357    0.3589   -0.3469 C   0  0  0  0  0  0  0  0  0  0  0  0
    1.2685    0.6891   -0.3211 O   0  0  0  0  0  0  0  0  0  0  0  0
    2.2521   -0.3423   -0.3798 C   0  0  0  0  0  0  0  0  0  0  0  0
   -0.5183   -0.9623   -0.4139 C   0  0  0  0  0  0  0  0  0  0  0  0
   -1.8866   -1.1851   -0.4340 C   0  0  0  0  0  0  0  0  0  0  0  0
   -2.9699    2.0263   -0.2958 H   0  0  0  0  0  0  0  0  0  0  0  0
   -0.5320    2.4493   -0.2572 H   0  0  0  0  0  0  0  0  0  0  0  0
    3.2150    0.1668   -0.3485 H   0  0  0  0  0  0  0  0  0  0  0  0
    2.1726   -0.9142   -1.3114 H   0  0  0  0  0  0  0  0  0  0  0  0
    2.1700   -1.0196    0.4783 H   0  0  0  0  0  0  0  0  0  0  0  0
    0.1589   -1.8056   -0.4517 H   0  0  0  0  0  0  0  0  0  0  0  0
   -2.2838   -2.1929   -0.4887 H   0  0  0  0  0  0  0  0  0  0  0  0
   -7.1619    4.5959   -1.6082 C   0  0  0  0  0  0  0  0  0  0  0  0
   -8.4422    5.1092   -1.8072 C   0  0  0  0  0  0  0  0  0  0  0  0
   -9.4427    4.3442   -2.4241 C   0  0  0  0  0  0  0  0  0  0  0  0
   -9.1217    3.0478   -2.8498 C   0  0  0  0  0  0  0  0  0  0  0  0
   -7.8455    2.5209   -2.6570 C   0  0  0  0  0  0  0  0  0  0  0  0
   -6.8708    3.2981   -2.0308 C   0  0  0  0  0  0  0  0  0  0  0  0
   -6.3830    5.1952   -1.1493 H   0  0  0  0  0  0  0  0  0  0  0  0
   -8.6672    6.1230   -1.4856 H   0  0  0  0  0  0  0  0  0  0  0  0
   -9.8796    2.4450   -3.3444 H   0  0  0  0  0  0  0  0  0  0  0  0
   -7.5925    1.5251   -3.0042 H   0  0  0  0  0  0  0  0  0  0  0  0
   -5.2346    2.6173   -1.7453 S   0  0  0  0  0  0  0  0  0  0  0  0
   -5.3097    1.9911   -0.3315 O   0  0  0  0  0  0  0  0  0  0  0  0
   -4.2908    3.7524   -1.7208 O   0  0  0  0  0  0  0  0  0  0  0  0
   -5.0099    1.5642   -2.7587 O   0  0  0  0  0  0  0  0  0  0  0  0
  -10.8356    4.8980   -2.6095 C   0  0  0  0  0  0  0  0  0  0  0  0
  -11.4617    4.6969   -1.7302 H   0  0  0  0  0  0  0  0  0  0  0  0
  -10.8195    5.9828   -2.7542 H   0  0  0  0  0  0  0  0  0  0  0  0
  -11.3342    4.4473   -3.4727 H   0  0  0  0  0  0  0  0  0  0  0  0
  1  4  2  0  0  0  0
  2  1  1  0  0  0  0
  3  2  2  0  0  0  0
  4  5  1  0  0  0  0
  4 11  1  0  0  0  0
  5 12  1  0  0  0  0
  6  7  1  0  0  0  0
  6  5  2  0  0  0  0
  8 13  1  0  0  0  0
  8  7  1  0  0  0  0
  8 15  1  0  0  0  0
  9  6  1  0  0  0  0
 10  9  2  0  0  0  0
 10  1  1  0  0  0  0
 14  8  1  0  0  0  0
 16  9  1  0  0  0  0
 17 10  1  0  0  0  0
 18 24  1  0  0  0  0
 19 18  1  0  0  0  0
 19 25  1  0  0  0  0
 20 19  2  0  0  0  0
 21 22  2  0  0  0  0
 21 20  1  0  0  0  0
 22 23  1  0  0  0  0
 23 28  1  0  0  0  0
 23 18  2  0  0  0  0
 26 21  1  0  0  0  0
 27 22  1  0  0  0  0
 28 30  2  0  0  0  0
 28 29  1  0  0  0  0
 31 28  2  0  0  0  0
 32 20  1  0  0  0  0
 32 33  1  0  0  0  0
 34 32  1  0  0  0  0
 35 32  1  0  0  0  0
M  RAD  2   3   2  29   2
M  END
