Coordinates from ORCA-job 4-MeOPhN2+~TsO-_B3LYPG-6-31G_dp-CH-Scan-d09-49-n800
 OpenBabel11261919303D

 35 35  0  0  0  0  0  0  0  0999 V2000
   -2.6249   -0.4756   -0.4275 C   0  0  0  0  0  0  0  0  0  0  0  0
   -3.8610   -1.0671   -0.3152 N   0  0  0  0  0  0  0  0  0  0  0  0
   -4.9082   -1.4563   -0.2549 N   0  0  0  0  0  0  0  0  0  0  0  0
   -2.5532    0.7713   -1.0906 C   0  0  0  0  0  0  0  0  0  0  0  0
   -1.2769    1.3106   -1.1658 C   0  0  0  0  0  0  0  0  0  0  0  0
   -0.1507    0.6612   -0.6236 C   0  0  0  0  0  0  0  0  0  0  0  0
    1.0224    1.3020   -0.7730 O   0  0  0  0  0  0  0  0  0  0  0  0
    2.2207    0.7159   -0.2647 C   0  0  0  0  0  0  0  0  0  0  0  0
   -0.2802   -0.5905    0.0280 C   0  0  0  0  0  0  0  0  0  0  0  0
   -1.5279   -1.1698    0.1275 C   0  0  0  0  0  0  0  0  0  0  0  0
   -3.6733    1.3877   -1.6503 H   0  0  0  0  0  0  0  0  0  0  0  0
   -1.1139    2.2650   -1.6577 H   0  0  0  0  0  0  0  0  0  0  0  0
    3.0185    1.4154   -0.5141 H   0  0  0  0  0  0  0  0  0  0  0  0
    2.4235   -0.2505   -0.7397 H   0  0  0  0  0  0  0  0  0  0  0  0
    2.1717    0.5908    0.8229 H   0  0  0  0  0  0  0  0  0  0  0  0
    0.5796   -1.0978    0.4453 H   0  0  0  0  0  0  0  0  0  0  0  0
   -1.6628   -2.1280    0.6186 H   0  0  0  0  0  0  0  0  0  0  0  0
   -7.5168    3.3914   -0.9268 C   0  0  0  0  0  0  0  0  0  0  0  0
   -8.4268    4.4417   -1.0176 C   0  0  0  0  0  0  0  0  0  0  0  0
   -9.0722    4.7400   -2.2275 C   0  0  0  0  0  0  0  0  0  0  0  0
   -8.7810    3.9525   -3.3487 C   0  0  0  0  0  0  0  0  0  0  0  0
   -7.8731    2.8963   -3.2725 C   0  0  0  0  0  0  0  0  0  0  0  0
   -7.2415    2.6239   -2.0600 C   0  0  0  0  0  0  0  0  0  0  0  0
   -7.0301    3.1522    0.0122 H   0  0  0  0  0  0  0  0  0  0  0  0
   -8.6438    5.0392   -0.1351 H   0  0  0  0  0  0  0  0  0  0  0  0
   -9.2739    4.1663   -4.2937 H   0  0  0  0  0  0  0  0  0  0  0  0
   -7.6579    2.2766   -4.1363 H   0  0  0  0  0  0  0  0  0  0  0  0
   -6.0447    1.2912   -1.9715 S   0  0  0  0  0  0  0  0  0  0  0  0
   -6.0848    0.7667   -0.5764 O   0  0  0  0  0  0  0  0  0  0  0  0
   -4.7026    1.9970   -2.2234 O   0  0  0  0  0  0  0  0  0  0  0  0
   -6.3774    0.3252   -3.0325 O   0  0  0  0  0  0  0  0  0  0  0  0
  -10.0774    5.8648   -2.3065 C   0  0  0  0  0  0  0  0  0  0  0  0
  -11.0386    5.5690   -1.8681 H   0  0  0  0  0  0  0  0  0  0  0  0
   -9.7333    6.7487   -1.7594 H   0  0  0  0  0  0  0  0  0  0  0  0
  -10.2672    6.1604   -3.3418 H   0  0  0  0  0  0  0  0  0  0  0  0
  1  2  1  0  0  0  0
  1 10  2  0  0  0  0
  2  3  1  0  0  0  0
  4  1  1  0  0  0  0
  5  4  2  0  0  0  0
  5  6  1  0  0  0  0
  6  9  2  0  0  0  0
  7  6  1  0  0  0  0
  7  8  1  0  0  0  0
  8 15  1  0  0  0  0
  9 10  1  0  0  0  0
  9 16  1  0  0  0  0
 10 17  1  0  0  0  0
 12  5  1  0  0  0  0
 13  8  1  0  0  0  0
 14  8  1  0  0  0  0
 18 24  1  0  0  0  0
 19 18  1  0  0  0  0
 19 25  1  0  0  0  0
 20 19  2  0  0  0  0
 21 22  2  0  0  0  0
 21 20  1  0  0  0  0
 22 23  1  0  0  0  0
 23 28  1  0  0  0  0
 23 18  2  0  0  0  0
 26 21  1  0  0  0  0
 27 22  1  0  0  0  0
 28 29  2  0  0  0  0
 30 28  1  0  0  0  0
 30 11  1  0  0  0  0
 31 28  2  0  0  0  0
 32 20  1  0  0  0  0
 32 33  1  0  0  0  0
 32 34  1  0  0  0  0
 35 32  1  0  0  0  0
M  RAD  3   2   2   3   3   4   2
M  END
