Coordinates from ORCA-job 4-MeOPhN2+~TsO-_B3LYPG-6-31G_dp-CH-Scan-d09-49-n800
 OpenBabel11261919313D

 35 35  0  0  0  0  0  0  0  0999 V2000
   -2.3959   -0.4258   -0.1976 C   0  0  0  0  0  0  0  0  0  0  0  0
   -3.6610   -0.9203    0.0243 N   0  0  0  0  0  0  0  0  0  0  0  0
   -4.7032   -1.2939    0.1922 N   0  0  0  0  0  0  0  0  0  0  0  0
   -2.3263    0.8384   -0.8329 C   0  0  0  0  0  0  0  0  0  0  0  0
   -0.9964    1.2446   -1.0079 C   0  0  0  0  0  0  0  0  0  0  0  0
    0.1144    0.4853   -0.6028 C   0  0  0  0  0  0  0  0  0  0  0  0
    1.3281    1.0268   -0.8501 O   0  0  0  0  0  0  0  0  0  0  0  0
    2.5073    0.3185   -0.4806 C   0  0  0  0  0  0  0  0  0  0  0  0
   -0.0510   -0.7780    0.0280 C   0  0  0  0  0  0  0  0  0  0  0  0
   -1.3262   -1.2498    0.2384 C   0  0  0  0  0  0  0  0  0  0  0  0
   -4.0143    2.0225   -1.5143 H   0  0  0  0  0  0  0  0  0  0  0  0
   -0.7704    2.1977   -1.4831 H   0  0  0  0  0  0  0  0  0  0  0  0
    3.3409    0.9536   -0.7816 H   0  0  0  0  0  0  0  0  0  0  0  0
    2.5785   -0.6424   -1.0031 H   0  0  0  0  0  0  0  0  0  0  0  0
    2.5532    0.1509    0.6022 H   0  0  0  0  0  0  0  0  0  0  0  0
    0.8003   -1.3679    0.3413 H   0  0  0  0  0  0  0  0  0  0  0  0
   -1.4997   -2.2104    0.7154 H   0  0  0  0  0  0  0  0  0  0  0  0
   -7.9131    3.3952   -0.9151 C   0  0  0  0  0  0  0  0  0  0  0  0
   -8.9073    4.3584   -1.0616 C   0  0  0  0  0  0  0  0  0  0  0  0
   -9.3671    4.7395   -2.3317 C   0  0  0  0  0  0  0  0  0  0  0  0
   -8.8026    4.1277   -3.4588 C   0  0  0  0  0  0  0  0  0  0  0  0
   -7.8060    3.1609   -3.3318 C   0  0  0  0  0  0  0  0  0  0  0  0
   -7.3668    2.8071   -2.0571 C   0  0  0  0  0  0  0  0  0  0  0  0
   -7.5664    3.0915    0.0664 H   0  0  0  0  0  0  0  0  0  0  0  0
   -9.3364    4.8210   -0.1768 H   0  0  0  0  0  0  0  0  0  0  0  0
   -9.1488    4.4097   -4.4494 H   0  0  0  0  0  0  0  0  0  0  0  0
   -7.3763    2.6783   -4.2024 H   0  0  0  0  0  0  0  0  0  0  0  0
   -6.0889    1.5748   -1.8845 S   0  0  0  0  0  0  0  0  0  0  0  0
   -6.2354    0.9108   -0.5805 O   0  0  0  0  0  0  0  0  0  0  0  0
   -4.8078    2.5477   -1.8339 O   0  0  0  0  0  0  0  0  0  0  0  0
   -6.0527    0.7530   -3.0955 O   0  0  0  0  0  0  0  0  0  0  0  0
  -10.4652    5.7659   -2.4736 C   0  0  0  0  0  0  0  0  0  0  0  0
  -11.4473    5.3213   -2.2700 H   0  0  0  0  0  0  0  0  0  0  0  0
  -10.3334    6.5924   -1.7681 H   0  0  0  0  0  0  0  0  0  0  0  0
  -10.4966    6.1824   -3.4838 H   0  0  0  0  0  0  0  0  0  0  0  0
  1  2  1  0  0  0  0
  1 10  2  0  0  0  0
  2  3  1  0  0  0  0
  4  1  1  0  0  0  0
  5  4  2  0  0  0  0
  5  6  1  0  0  0  0
  6  9  2  0  0  0  0
  7  6  1  0  0  0  0
  7  8  1  0  0  0  0
  8 15  1  0  0  0  0
  9 10  1  0  0  0  0
  9 16  1  0  0  0  0
 10 17  1  0  0  0  0
 12  5  1  0  0  0  0
 13  8  1  0  0  0  0
 14  8  1  0  0  0  0
 18 24  1  0  0  0  0
 19 18  1  0  0  0  0
 19 25  1  0  0  0  0
 20 19  2  0  0  0  0
 21 22  2  0  0  0  0
 21 20  1  0  0  0  0
 22 23  1  0  0  0  0
 23 28  1  0  0  0  0
 23 18  2  0  0  0  0
 26 21  1  0  0  0  0
 27 22  1  0  0  0  0
 28 30  1  0  0  0  0
 28 29  2  0  0  0  0
 30 11  1  0  0  0  0
 31 28  2  0  0  0  0
 32 20  1  0  0  0  0
 32 33  1  0  0  0  0
 32 34  1  0  0  0  0
 35 32  1  0  0  0  0
M  RAD  3   2   2   3   3   4   2
M  END
