Coordinates from ORCA-job 4-MeOPhN2+~TsO-_B3LYPG-6-31G_dp-CH-Scan-d09-49-n800
 OpenBabel11261919313D

 35 35  0  0  0  0  0  0  0  0999 V2000
   -2.0313   -0.2639   -0.1090 C   0  0  0  0  0  0  0  0  0  0  0  0
   -3.3746   -0.5081    0.0874 N   0  0  0  0  0  0  0  0  0  0  0  0
   -4.4732   -0.6711    0.2398 N   0  0  0  0  0  0  0  0  0  0  0  0
   -1.7291    1.0302   -0.5959 C   0  0  0  0  0  0  0  0  0  0  0  0
   -0.3381    1.1721   -0.7558 C   0  0  0  0  0  0  0  0  0  0  0  0
    0.5971    0.1647   -0.4727 C   0  0  0  0  0  0  0  0  0  0  0  0
    1.8992    0.4758   -0.6885 O   0  0  0  0  0  0  0  0  0  0  0  0
    2.9067   -0.4967   -0.4388 C   0  0  0  0  0  0  0  0  0  0  0  0
    0.1858   -1.1085    0.0143 C   0  0  0  0  0  0  0  0  0  0  0  0
   -1.1567   -1.3383    0.2045 C   0  0  0  0  0  0  0  0  0  0  0  0
   -4.0884    3.3034   -1.5706 H   0  0  0  0  0  0  0  0  0  0  0  0
    0.0812    2.1088   -1.1246 H   0  0  0  0  0  0  0  0  0  0  0  0
    3.8531   -0.0165   -0.6911 H   0  0  0  0  0  0  0  0  0  0  0  0
    2.7756   -1.3852   -1.0678 H   0  0  0  0  0  0  0  0  0  0  0  0
    2.9261   -0.7975    0.6157 H   0  0  0  0  0  0  0  0  0  0  0  0
    0.9041   -1.8877    0.2352 H   0  0  0  0  0  0  0  0  0  0  0  0
   -1.5198   -2.2937    0.5755 H   0  0  0  0  0  0  0  0  0  0  0  0
   -8.1994    3.6760   -0.9599 C   0  0  0  0  0  0  0  0  0  0  0  0
   -9.3931    4.3677   -1.1422 C   0  0  0  0  0  0  0  0  0  0  0  0
   -9.9055    4.6059   -2.4277 C   0  0  0  0  0  0  0  0  0  0  0  0
   -9.1885    4.1302   -3.5336 C   0  0  0  0  0  0  0  0  0  0  0  0
   -7.9910    3.4347   -3.3722 C   0  0  0  0  0  0  0  0  0  0  0  0
   -7.5068    3.2189   -2.0829 C   0  0  0  0  0  0  0  0  0  0  0  0
   -7.8090    3.4816    0.0329 H   0  0  0  0  0  0  0  0  0  0  0  0
   -9.9388    4.7271   -0.2741 H   0  0  0  0  0  0  0  0  0  0  0  0
   -9.5732    4.3037   -4.5347 H   0  0  0  0  0  0  0  0  0  0  0  0
   -7.4407    3.0565   -4.2263 H   0  0  0  0  0  0  0  0  0  0  0  0
   -5.9800    2.3292   -1.8656 S   0  0  0  0  0  0  0  0  0  0  0  0
   -5.9592    1.7008   -0.5427 O   0  0  0  0  0  0  0  0  0  0  0  0
   -4.9702    3.6197   -1.8408 O   0  0  0  0  0  0  0  0  0  0  0  0
   -5.7085    1.5280   -3.0568 O   0  0  0  0  0  0  0  0  0  0  0  0
  -11.2133    5.3386   -2.6063 C   0  0  0  0  0  0  0  0  0  0  0  0
  -12.0602    4.7040   -2.3189 H   0  0  0  0  0  0  0  0  0  0  0  0
  -11.2557    6.2357   -1.9808 H   0  0  0  0  0  0  0  0  0  0  0  0
  -11.3642    5.6414   -3.6454 H   0  0  0  0  0  0  0  0  0  0  0  0
  1  2  1  0  0  0  0
  1 10  2  0  0  0  0
  2  3  1  0  0  0  0
  4  1  1  0  0  0  0
  5  4  2  0  0  0  0
  5  6  1  0  0  0  0
  6  9  2  0  0  0  0
  7  6  1  0  0  0  0
  7  8  1  0  0  0  0
  8 15  1  0  0  0  0
  9 10  1  0  0  0  0
  9 16  1  0  0  0  0
 10 17  1  0  0  0  0
 12  5  1  0  0  0  0
 13  8  1  0  0  0  0
 14  8  1  0  0  0  0
 18 24  1  0  0  0  0
 19 18  1  0  0  0  0
 19 25  1  0  0  0  0
 20 19  2  0  0  0  0
 21 22  2  0  0  0  0
 21 20  1  0  0  0  0
 22 23  1  0  0  0  0
 23 28  1  0  0  0  0
 23 18  2  0  0  0  0
 26 21  1  0  0  0  0
 27 22  1  0  0  0  0
 28 30  1  0  0  0  0
 28 29  2  0  0  0  0
 30 11  1  0  0  0  0
 31 28  2  0  0  0  0
 32 20  1  0  0  0  0
 32 33  1  0  0  0  0
 32 34  1  0  0  0  0
 35 32  1  0  0  0  0
M  RAD  3   2   2   3   3   4   2
M  END
