Coordinates from ORCA-job 4-MeOPhN2+~TsO-_B3LYPG-6-31G_dp-CH-Scan-d09-49-n800
 OpenBabel11261919313D

 35 35  0  0  0  0  0  0  0  0999 V2000
   -2.2089   -0.3494   -0.1341 C   0  0  0  0  0  0  0  0  0  0  0  0
   -3.5154   -0.7247    0.0892 N   0  0  0  0  0  0  0  0  0  0  0  0
   -4.5874   -1.0019    0.2612 N   0  0  0  0  0  0  0  0  0  0  0  0
   -2.0339    0.9349   -0.7040 C   0  0  0  0  0  0  0  0  0  0  0  0
   -0.6692    1.2125   -0.8862 C   0  0  0  0  0  0  0  0  0  0  0  0
    0.3664    0.3273   -0.5458 C   0  0  0  0  0  0  0  0  0  0  0  0
    1.6265    0.7580   -0.7909 O   0  0  0  0  0  0  0  0  0  0  0  0
    2.7331   -0.0808   -0.4776 C   0  0  0  0  0  0  0  0  0  0  0  0
    0.0885   -0.9466    0.0239 C   0  0  0  0  0  0  0  0  0  0  0  0
   -1.2230   -1.3013    0.2381 C   0  0  0  0  0  0  0  0  0  0  0  0
   -4.0589    2.6107   -1.4855 H   0  0  0  0  0  0  0  0  0  0  0  0
   -0.3527    2.1623   -1.3163 H   0  0  0  0  0  0  0  0  0  0  0  0
    3.6225    0.4828   -0.7620 H   0  0  0  0  0  0  0  0  0  0  0  0
    2.7031   -1.0173   -1.0465 H   0  0  0  0  0  0  0  0  0  0  0  0
    2.7770   -0.3066    0.5948 H   0  0  0  0  0  0  0  0  0  0  0  0
    0.8834   -1.6318    0.2886 H   0  0  0  0  0  0  0  0  0  0  0  0
   -1.4838   -2.2639    0.6705 H   0  0  0  0  0  0  0  0  0  0  0  0
   -8.0782    3.5257   -0.9420 C   0  0  0  0  0  0  0  0  0  0  0  0
   -9.1712    4.3701   -1.1109 C   0  0  0  0  0  0  0  0  0  0  0  0
   -9.6484    4.6928   -2.3914 C   0  0  0  0  0  0  0  0  0  0  0  0
   -8.9997    4.1445   -3.5054 C   0  0  0  0  0  0  0  0  0  0  0  0
   -7.9023    3.2969   -3.3568 C   0  0  0  0  0  0  0  0  0  0  0  0
   -7.4499    2.9997   -2.0726 C   0  0  0  0  0  0  0  0  0  0  0  0
   -7.7173    3.2663    0.0472 H   0  0  0  0  0  0  0  0  0  0  0  0
   -9.6653    4.7843   -0.2362 H   0  0  0  0  0  0  0  0  0  0  0  0
   -9.3584    4.3817   -4.5031 H   0  0  0  0  0  0  0  0  0  0  0  0
   -7.4053    2.8636   -4.2173 H   0  0  0  0  0  0  0  0  0  0  0  0
   -6.0505    1.9151   -1.8719 S   0  0  0  0  0  0  0  0  0  0  0  0
   -6.1484    1.2267   -0.5802 O   0  0  0  0  0  0  0  0  0  0  0  0
   -4.8899    3.0514   -1.7675 O   0  0  0  0  0  0  0  0  0  0  0  0
   -5.8666    1.1321   -3.0927 O   0  0  0  0  0  0  0  0  0  0  0  0
  -10.8492    5.5932   -2.5556 C   0  0  0  0  0  0  0  0  0  0  0  0
  -11.7722    5.0715   -2.2748 H   0  0  0  0  0  0  0  0  0  0  0  0
  -10.7738    6.4788   -1.9168 H   0  0  0  0  0  0  0  0  0  0  0  0
  -10.9603    5.9288   -3.5896 H   0  0  0  0  0  0  0  0  0  0  0  0
  1  2  1  0  0  0  0
  1 10  2  0  0  0  0
  2  3  1  0  0  0  0
  4  1  1  0  0  0  0
  5  4  2  0  0  0  0
  5  6  1  0  0  0  0
  6  9  2  0  0  0  0
  7  6  1  0  0  0  0
  7  8  1  0  0  0  0
  8 15  1  0  0  0  0
  9 10  1  0  0  0  0
  9 16  1  0  0  0  0
 10 17  1  0  0  0  0
 12  5  1  0  0  0  0
 13  8  1  0  0  0  0
 14  8  1  0  0  0  0
 18 24  1  0  0  0  0
 19 18  1  0  0  0  0
 19 25  1  0  0  0  0
 20 19  2  0  0  0  0
 21 22  2  0  0  0  0
 21 20  1  0  0  0  0
 22 23  1  0  0  0  0
 23 28  1  0  0  0  0
 23 18  2  0  0  0  0
 26 21  1  0  0  0  0
 27 22  1  0  0  0  0
 28 30  1  0  0  0  0
 28 29  2  0  0  0  0
 30 11  1  0  0  0  0
 31 28  2  0  0  0  0
 32 20  1  0  0  0  0
 32 33  1  0  0  0  0
 32 34  1  0  0  0  0
 35 32  1  0  0  0  0
M  RAD  3   2   2   3   3   4   2
M  END
