Coordinates from ORCA-job 4-MeOPhN2+~TsO-_B3LYPG-6-31G_dp-CH-Scan-d09-49-n800
 OpenBabel11261919313D

 35 35  0  0  0  0  0  0  0  0999 V2000
   -1.8796   -0.2290   -0.1414 C   0  0  0  0  0  0  0  0  0  0  0  0
   -3.2443   -0.3933   -0.0155 N   0  0  0  0  0  0  0  0  0  0  0  0
   -4.3581   -0.4845    0.0775 N   0  0  0  0  0  0  0  0  0  0  0  0
   -1.4854    1.0622   -0.5650 C   0  0  0  0  0  0  0  0  0  0  0  0
   -0.0815    1.1243   -0.6613 C   0  0  0  0  0  0  0  0  0  0  0  0
    0.7796    0.0530   -0.3799 C   0  0  0  0  0  0  0  0  0  0  0  0
    2.1065    0.2913   -0.5329 O   0  0  0  0  0  0  0  0  0  0  0  0
    3.0428   -0.7487   -0.2818 C   0  0  0  0  0  0  0  0  0  0  0  0
    0.2741   -1.2101    0.0426 C   0  0  0  0  0  0  0  0  0  0  0  0
   -1.0864   -1.3659    0.1686 C   0  0  0  0  0  0  0  0  0  0  0  0
   -4.1750    3.6921   -1.7497 H   0  0  0  0  0  0  0  0  0  0  0  0
    0.4083    2.0467   -0.9763 H   0  0  0  0  0  0  0  0  0  0  0  0
    4.0257   -0.3198   -0.4826 H   0  0  0  0  0  0  0  0  0  0  0  0
    2.8829   -1.6066   -0.9459 H   0  0  0  0  0  0  0  0  0  0  0  0
    3.0046   -1.0853    0.7615 H   0  0  0  0  0  0  0  0  0  0  0  0
    0.9360   -2.0378    0.2637 H   0  0  0  0  0  0  0  0  0  0  0  0
   -1.5205   -2.3101    0.4893 H   0  0  0  0  0  0  0  0  0  0  0  0
   -8.2331    3.7994   -1.0189 C   0  0  0  0  0  0  0  0  0  0  0  0
   -9.4780    4.4078   -1.1455 C   0  0  0  0  0  0  0  0  0  0  0  0
  -10.0822    4.5719   -2.4026 C   0  0  0  0  0  0  0  0  0  0  0  0
   -9.4046    4.1068   -3.5374 C   0  0  0  0  0  0  0  0  0  0  0  0
   -8.1566    3.4943   -3.4322 C   0  0  0  0  0  0  0  0  0  0  0  0
   -7.5818    3.3515   -2.1702 C   0  0  0  0  0  0  0  0  0  0  0  0
   -7.7718    3.6624   -0.0471 H   0  0  0  0  0  0  0  0  0  0  0  0
   -9.9919    4.7600   -0.2552 H   0  0  0  0  0  0  0  0  0  0  0  0
   -9.8599    4.2231   -4.5169 H   0  0  0  0  0  0  0  0  0  0  0  0
   -7.6356    3.1248   -4.3082 H   0  0  0  0  0  0  0  0  0  0  0  0
   -5.9887    2.5717   -2.0235 S   0  0  0  0  0  0  0  0  0  0  0  0
   -5.8456    1.9739   -0.6945 O   0  0  0  0  0  0  0  0  0  0  0  0
   -5.0643    3.9293   -2.0675 O   0  0  0  0  0  0  0  0  0  0  0  0
   -5.7251    1.7748   -3.2183 O   0  0  0  0  0  0  0  0  0  0  0  0
  -11.4426    5.2157   -2.5192 C   0  0  0  0  0  0  0  0  0  0  0  0
  -12.2292    4.5348   -2.1727 H   0  0  0  0  0  0  0  0  0  0  0  0
  -11.5074    6.1213   -1.9083 H   0  0  0  0  0  0  0  0  0  0  0  0
  -11.6709    5.4854   -3.5533 H   0  0  0  0  0  0  0  0  0  0  0  0
  1  2  1  0  0  0  0
  1 10  2  0  0  0  0
  2  3  1  0  0  0  0
  4  1  1  0  0  0  0
  5  4  2  0  0  0  0
  5  6  1  0  0  0  0
  6  9  2  0  0  0  0
  7  6  1  0  0  0  0
  7  8  1  0  0  0  0
  8 15  1  0  0  0  0
  9 10  1  0  0  0  0
  9 16  1  0  0  0  0
 10 17  1  0  0  0  0
 12  5  1  0  0  0  0
 13  8  1  0  0  0  0
 14  8  1  0  0  0  0
 18 24  1  0  0  0  0
 19 18  1  0  0  0  0
 19 25  1  0  0  0  0
 20 19  2  0  0  0  0
 21 22  2  0  0  0  0
 21 20  1  0  0  0  0
 22 23  1  0  0  0  0
 23 28  1  0  0  0  0
 23 18  2  0  0  0  0
 26 21  1  0  0  0  0
 27 22  1  0  0  0  0
 28 29  2  0  0  0  0
 30 28  1  0  0  0  0
 30 11  1  0  0  0  0
 31 28  2  0  0  0  0
 32 20  1  0  0  0  0
 32 33  1  0  0  0  0
 32 34  1  0  0  0  0
 35 32  1  0  0  0  0
M  RAD  3   2   2   3   3   4   2
M  END
