Coordinates from ORCA-job 4-MeOPhN2+~TsO-_B3LYPG-6-31G_dp-CH-Scan-d09-49-n800
 OpenBabel11261919313D

 35 35  0  0  0  0  0  0  0  0999 V2000
   -2.4738   -0.4420   -0.2050 C   0  0  0  0  0  0  0  0  0  0  0  0
   -3.7216   -0.9737    0.0261 N   0  0  0  0  0  0  0  0  0  0  0  0
   -4.7522   -1.3753    0.1992 N   0  0  0  0  0  0  0  0  0  0  0  0
   -2.4388    0.8119   -0.8638 C   0  0  0  0  0  0  0  0  0  0  0  0
   -1.1242    1.2573   -1.0471 C   0  0  0  0  0  0  0  0  0  0  0  0
    0.0099    0.5409   -0.6274 C   0  0  0  0  0  0  0  0  0  0  0  0
    1.2048    1.1158   -0.8850 O   0  0  0  0  0  0  0  0  0  0  0  0
    2.4064    0.4533   -0.5016 C   0  0  0  0  0  0  0  0  0  0  0  0
   -0.1174   -0.7143    0.0265 C   0  0  0  0  0  0  0  0  0  0  0  0
   -1.3778   -1.2215    0.2450 C   0  0  0  0  0  0  0  0  0  0  0  0
   -3.9768    1.8337   -1.4946 H   0  0  0  0  0  0  0  0  0  0  0  0
   -0.9306    2.2079   -1.5406 H   0  0  0  0  0  0  0  0  0  0  0  0
    3.2189    1.1090   -0.8157 H   0  0  0  0  0  0  0  0  0  0  0  0
    2.5085   -0.5149   -1.0050 H   0  0  0  0  0  0  0  0  0  0  0  0
    2.4567    0.3093    0.5843 H   0  0  0  0  0  0  0  0  0  0  0  0
    0.7512   -1.2720    0.3509 H   0  0  0  0  0  0  0  0  0  0  0  0
   -1.5216   -2.1782    0.7391 H   0  0  0  0  0  0  0  0  0  0  0  0
   -7.8445    3.3431   -0.9075 C   0  0  0  0  0  0  0  0  0  0  0  0
   -8.8082    4.3385   -1.0448 C   0  0  0  0  0  0  0  0  0  0  0  0
   -9.2589    4.7423   -2.3110 C   0  0  0  0  0  0  0  0  0  0  0  0
   -8.7166    4.1203   -3.4433 C   0  0  0  0  0  0  0  0  0  0  0  0
   -7.7511    3.1214   -3.3248 C   0  0  0  0  0  0  0  0  0  0  0  0
   -7.3197    2.7448   -2.0540 C   0  0  0  0  0  0  0  0  0  0  0  0
   -7.5054    3.0219    0.0711 H   0  0  0  0  0  0  0  0  0  0  0  0
   -9.2202    4.8086   -0.1557 H   0  0  0  0  0  0  0  0  0  0  0  0
   -9.0561    4.4195   -4.4313 H   0  0  0  0  0  0  0  0  0  0  0  0
   -7.3392    2.6306   -4.1996 H   0  0  0  0  0  0  0  0  0  0  0  0
   -6.0783    1.4723   -1.8933 S   0  0  0  0  0  0  0  0  0  0  0  0
   -6.2518    0.8018   -0.5935 O   0  0  0  0  0  0  0  0  0  0  0  0
   -4.7681    2.3872   -1.8381 O   0  0  0  0  0  0  0  0  0  0  0  0
   -6.0816    0.6536   -3.1083 O   0  0  0  0  0  0  0  0  0  0  0  0
  -10.3258    5.8022   -2.4440 C   0  0  0  0  0  0  0  0  0  0  0  0
  -11.3227    5.3821   -2.2607 H   0  0  0  0  0  0  0  0  0  0  0  0
  -10.1790    6.6109   -1.7210 H   0  0  0  0  0  0  0  0  0  0  0  0
  -10.3339    6.2392   -3.4462 H   0  0  0  0  0  0  0  0  0  0  0  0
  1  2  1  0  0  0  0
  1 10  2  0  0  0  0
  2  3  1  0  0  0  0
  4  1  1  0  0  0  0
  5  4  2  0  0  0  0
  5  6  1  0  0  0  0
  6  9  2  0  0  0  0
  7  6  1  0  0  0  0
  7  8  1  0  0  0  0
  8 15  1  0  0  0  0
  9 10  1  0  0  0  0
  9 16  1  0  0  0  0
 10 17  1  0  0  0  0
 12  5  1  0  0  0  0
 13  8  1  0  0  0  0
 14  8  1  0  0  0  0
 18 24  1  0  0  0  0
 19 18  1  0  0  0  0
 19 25  1  0  0  0  0
 20 19  2  0  0  0  0
 21 22  2  0  0  0  0
 21 20  1  0  0  0  0
 22 23  1  0  0  0  0
 23 28  1  0  0  0  0
 23 18  2  0  0  0  0
 26 21  1  0  0  0  0
 27 22  1  0  0  0  0
 28 30  1  0  0  0  0
 28 29  2  0  0  0  0
 30 11  1  0  0  0  0
 31 28  2  0  0  0  0
 32 20  1  0  0  0  0
 32 33  1  0  0  0  0
 32 34  1  0  0  0  0
 35 32  1  0  0  0  0
M  RAD  3   2   2   3   3   4   2
M  END
