Coordinates from ORCA-job 4-MeOPhN2+~TsO-_B3LYPG-6-31G_dp-CH-Scan-d09-49-n800
 OpenBabel11261919313D

 35 35  0  0  0  0  0  0  0  0999 V2000
   -1.7287   -0.2376   -0.2616 C   0  0  0  0  0  0  0  0  0  0  0  0
   -3.1028   -0.3718   -0.2623 N   0  0  0  0  0  0  0  0  0  0  0  0
   -4.2226   -0.4359   -0.2731 N   0  0  0  0  0  0  0  0  0  0  0  0
   -1.2739    1.0510   -0.6277 C   0  0  0  0  0  0  0  0  0  0  0  0
    0.1345    1.0842   -0.5956 C   0  0  0  0  0  0  0  0  0  0  0  0
    0.9449   -0.0085   -0.2530 C   0  0  0  0  0  0  0  0  0  0  0  0
    2.2850    0.2035   -0.2802 O   0  0  0  0  0  0  0  0  0  0  0  0
    3.1729   -0.8583    0.0443 C   0  0  0  0  0  0  0  0  0  0  0  0
    0.3783   -1.2668    0.1017 C   0  0  0  0  0  0  0  0  0  0  0  0
   -0.9907   -1.3962    0.1010 C   0  0  0  0  0  0  0  0  0  0  0  0
   -4.2954    3.7680   -2.1360 H   0  0  0  0  0  0  0  0  0  0  0  0
    0.6692    2.0005   -0.8503 H   0  0  0  0  0  0  0  0  0  0  0  0
    4.1786   -0.4474   -0.0559 H   0  0  0  0  0  0  0  0  0  0  0  0
    3.0605   -1.7052   -0.6436 H   0  0  0  0  0  0  0  0  0  0  0  0
    3.0289   -1.2065    1.0746 H   0  0  0  0  0  0  0  0  0  0  0  0
    1.0011   -2.1109    0.3689 H   0  0  0  0  0  0  0  0  0  0  0  0
   -1.4708   -2.3356    0.3657 H   0  0  0  0  0  0  0  0  0  0  0  0
   -8.2173    3.8555   -1.1252 C   0  0  0  0  0  0  0  0  0  0  0  0
   -9.4694    4.4617   -1.1205 C   0  0  0  0  0  0  0  0  0  0  0  0
  -10.2091    4.6107   -2.3051 C   0  0  0  0  0  0  0  0  0  0  0  0
   -9.6605    4.1320   -3.5020 C   0  0  0  0  0  0  0  0  0  0  0  0
   -8.4074    3.5208   -3.5283 C   0  0  0  0  0  0  0  0  0  0  0  0
   -7.6965    3.3935   -2.3361 C   0  0  0  0  0  0  0  0  0  0  0  0
   -7.6518    3.7299   -0.2083 H   0  0  0  0  0  0  0  0  0  0  0  0
   -9.8823    4.8242   -0.1831 H   0  0  0  0  0  0  0  0  0  0  0  0
  -10.2215    4.2358   -4.4265 H   0  0  0  0  0  0  0  0  0  0  0  0
   -7.9864    3.1403   -4.4519 H   0  0  0  0  0  0  0  0  0  0  0  0
   -6.0941    2.6190   -2.3564 S   0  0  0  0  0  0  0  0  0  0  0  0
   -5.7992    2.0379   -1.0451 O   0  0  0  0  0  0  0  0  0  0  0  0
   -5.1708    3.9714   -2.5099 O   0  0  0  0  0  0  0  0  0  0  0  0
   -5.9629    1.8147   -3.5670 O   0  0  0  0  0  0  0  0  0  0  0  0
  -11.5745    5.2544   -2.2779 C   0  0  0  0  0  0  0  0  0  0  0  0
  -12.3087    4.5954   -1.7991 H   0  0  0  0  0  0  0  0  0  0  0  0
  -11.5621    6.1895   -1.7091 H   0  0  0  0  0  0  0  0  0  0  0  0
  -11.9339    5.4744   -3.2860 H   0  0  0  0  0  0  0  0  0  0  0  0
  1 10  2  0  0  0  0
  2  1  1  0  0  0  0
  3  2  1  0  0  0  0
  4  5  2  0  0  0  0
  4  1  1  0  0  0  0
  5  6  1  0  0  0  0
  6  9  2  0  0  0  0
  7  6  1  0  0  0  0
  7  8  1  0  0  0  0
  8 15  1  0  0  0  0
  9 16  1  0  0  0  0
 10  9  1  0  0  0  0
 10 17  1  0  0  0  0
 12  5  1  0  0  0  0
 13  8  1  0  0  0  0
 14  8  1  0  0  0  0
 18 19  1  0  0  0  0
 18 24  1  0  0  0  0
 19 25  1  0  0  0  0
 20 32  1  0  0  0  0
 20 19  2  0  0  0  0
 21 20  1  0  0  0  0
 22 21  2  0  0  0  0
 22 23  1  0  0  0  0
 23 18  2  0  0  0  0
 26 21  1  0  0  0  0
 27 22  1  0  0  0  0
 28 23  1  0  0  0  0
 28 29  2  0  0  0  0
 30 28  1  0  0  0  0
 30 11  1  0  0  0  0
 31 28  2  0  0  0  0
 32 33  1  0  0  0  0
 32 34  1  0  0  0  0
 35 32  1  0  0  0  0
M  RAD  3   2   2   3   3   4   2
M  END
