Coordinates from ORCA-job 4-MeOPhN2+~TsO-_B3LYPG-6-31G_dp-CH-Scan-d09-49-n800
 OpenBabel11261919313D

 35 35  0  0  0  0  0  0  0  0999 V2000
   -2.1809   -0.3354   -0.1216 C   0  0  0  0  0  0  0  0  0  0  0  0
   -3.4932   -0.6899    0.1035 N   0  0  0  0  0  0  0  0  0  0  0  0
   -4.5693   -0.9490    0.2779 N   0  0  0  0  0  0  0  0  0  0  0  0
   -1.9880    0.9518   -0.6785 C   0  0  0  0  0  0  0  0  0  0  0  0
   -0.6190    1.2080   -0.8634 C   0  0  0  0  0  0  0  0  0  0  0  0
    0.4028    0.3020   -0.5369 C   0  0  0  0  0  0  0  0  0  0  0  0
    1.6694    0.7140   -0.7826 O   0  0  0  0  0  0  0  0  0  0  0  0
    2.7625   -0.1471   -0.4835 C   0  0  0  0  0  0  0  0  0  0  0  0
    0.1061   -0.9733    0.0204 C   0  0  0  0  0  0  0  0  0  0  0  0
   -1.2102   -1.3082    0.2366 C   0  0  0  0  0  0  0  0  0  0  0  0
   -4.0635    2.7150   -1.4750 H   0  0  0  0  0  0  0  0  0  0  0  0
   -0.2879    2.1567   -1.2850 H   0  0  0  0  0  0  0  0  0  0  0  0
    3.6604    0.4038   -0.7661 H   0  0  0  0  0  0  0  0  0  0  0  0
    2.7137   -1.0769   -1.0622 H   0  0  0  0  0  0  0  0  0  0  0  0
    2.8075   -0.3853    0.5861 H   0  0  0  0  0  0  0  0  0  0  0  0
    0.8906   -1.6744    0.2746 H   0  0  0  0  0  0  0  0  0  0  0  0
   -1.4856   -2.2708    0.6601 H   0  0  0  0  0  0  0  0  0  0  0  0
   -8.1040    3.5453   -0.9447 C   0  0  0  0  0  0  0  0  0  0  0  0
   -9.2136    4.3667   -1.1188 C   0  0  0  0  0  0  0  0  0  0  0  0
   -9.6903    4.6808   -2.4017 C   0  0  0  0  0  0  0  0  0  0  0  0
   -9.0240    4.1477   -3.5127 C   0  0  0  0  0  0  0  0  0  0  0  0
   -7.9099    3.3232   -3.3590 C   0  0  0  0  0  0  0  0  0  0  0  0
   -7.4587    3.0340   -2.0725 C   0  0  0  0  0  0  0  0  0  0  0  0
   -7.7434    3.2922    0.0462 H   0  0  0  0  0  0  0  0  0  0  0  0
   -9.7213    4.7692   -0.2465 H   0  0  0  0  0  0  0  0  0  0  0  0
   -9.3822    4.3784   -4.5121 H   0  0  0  0  0  0  0  0  0  0  0  0
   -7.3992    2.9013   -4.2172 H   0  0  0  0  0  0  0  0  0  0  0  0
   -6.0393    1.9773   -1.8654 S   0  0  0  0  0  0  0  0  0  0  0  0
   -6.1286    1.2867   -0.5747 O   0  0  0  0  0  0  0  0  0  0  0  0
   -4.9020    3.1392   -1.7543 O   0  0  0  0  0  0  0  0  0  0  0  0
   -5.8314    1.2006   -3.0861 O   0  0  0  0  0  0  0  0  0  0  0  0
  -10.9088    5.5560   -2.5717 C   0  0  0  0  0  0  0  0  0  0  0  0
  -11.8206    5.0195   -2.2827 H   0  0  0  0  0  0  0  0  0  0  0  0
  -10.8488    6.4495   -1.9422 H   0  0  0  0  0  0  0  0  0  0  0  0
  -11.0290    5.8789   -3.6086 H   0  0  0  0  0  0  0  0  0  0  0  0
  1  2  1  0  0  0  0
  1 10  2  0  0  0  0
  2  3  1  0  0  0  0
  4  1  1  0  0  0  0
  5  4  2  0  0  0  0
  5  6  1  0  0  0  0
  6  9  2  0  0  0  0
  7  6  1  0  0  0  0
  7  8  1  0  0  0  0
  8 15  1  0  0  0  0
  9 10  1  0  0  0  0
  9 16  1  0  0  0  0
 10 17  1  0  0  0  0
 12  5  1  0  0  0  0
 13  8  1  0  0  0  0
 14  8  1  0  0  0  0
 18 24  1  0  0  0  0
 19 18  1  0  0  0  0
 19 25  1  0  0  0  0
 20 19  2  0  0  0  0
 21 22  2  0  0  0  0
 21 20  1  0  0  0  0
 22 23  1  0  0  0  0
 23 28  1  0  0  0  0
 23 18  2  0  0  0  0
 26 21  1  0  0  0  0
 27 22  1  0  0  0  0
 28 30  1  0  0  0  0
 28 29  2  0  0  0  0
 30 11  1  0  0  0  0
 31 28  2  0  0  0  0
 32 20  1  0  0  0  0
 32 33  1  0  0  0  0
 32 34  1  0  0  0  0
 35 32  1  0  0  0  0
M  RAD  3   2   2   3   3   4   2
M  END
