Coordinates from ORCA-job 4-MeOPhN2+~TsO-_B3LYPG-6-31G_dp-CH-Scan-d09-49-n800
 OpenBabel11261919313D

 35 35  0  0  0  0  0  0  0  0999 V2000
   -2.0212   -0.2604   -0.1098 C   0  0  0  0  0  0  0  0  0  0  0  0
   -3.3664   -0.4977    0.0830 N   0  0  0  0  0  0  0  0  0  0  0  0
   -4.4663   -0.6545    0.2319 N   0  0  0  0  0  0  0  0  0  0  0  0
   -1.7119    1.0337   -0.5923 C   0  0  0  0  0  0  0  0  0  0  0  0
   -0.3198    1.1686   -0.7492 C   0  0  0  0  0  0  0  0  0  0  0  0
    0.6097    0.1557   -0.4675 C   0  0  0  0  0  0  0  0  0  0  0  0
    1.9138    0.4605   -0.6803 O   0  0  0  0  0  0  0  0  0  0  0  0
    2.9158   -0.5179   -0.4320 C   0  0  0  0  0  0  0  0  0  0  0  0
    0.1910   -1.1169    0.0151 C   0  0  0  0  0  0  0  0  0  0  0  0
   -1.1530   -1.3403    0.2022 C   0  0  0  0  0  0  0  0  0  0  0  0
   -4.0915    3.3399   -1.5811 H   0  0  0  0  0  0  0  0  0  0  0  0
    0.1052    2.1042   -1.1145 H   0  0  0  0  0  0  0  0  0  0  0  0
    3.8651   -0.0422   -0.6816 H   0  0  0  0  0  0  0  0  0  0  0  0
    2.7808   -1.4040   -1.0636 H   0  0  0  0  0  0  0  0  0  0  0  0
    2.9322   -0.8219    0.6217 H   0  0  0  0  0  0  0  0  0  0  0  0
    0.9049   -1.9004    0.2351 H   0  0  0  0  0  0  0  0  0  0  0  0
   -1.5217   -2.2949    0.5700 H   0  0  0  0  0  0  0  0  0  0  0  0
   -8.2031    3.6859   -0.9622 C   0  0  0  0  0  0  0  0  0  0  0  0
   -9.4017    4.3693   -1.1430 C   0  0  0  0  0  0  0  0  0  0  0  0
   -9.9190    4.6013   -2.4277 C   0  0  0  0  0  0  0  0  0  0  0  0
   -9.2017    4.1277   -3.5343 C   0  0  0  0  0  0  0  0  0  0  0  0
   -7.9992    3.4406   -3.3745 C   0  0  0  0  0  0  0  0  0  0  0  0
   -7.5104    3.2309   -2.0859 C   0  0  0  0  0  0  0  0  0  0  0  0
   -7.8089    3.4963    0.0301 H   0  0  0  0  0  0  0  0  0  0  0  0
   -9.9476    4.7271   -0.2743 H   0  0  0  0  0  0  0  0  0  0  0  0
   -9.5900    4.2965   -4.5349 H   0  0  0  0  0  0  0  0  0  0  0  0
   -7.4486    3.0641   -4.2292 H   0  0  0  0  0  0  0  0  0  0  0  0
   -5.9772    2.3518   -1.8705 S   0  0  0  0  0  0  0  0  0  0  0  0
   -5.9484    1.7269   -0.5462 O   0  0  0  0  0  0  0  0  0  0  0  0
   -4.9757    3.6495   -1.8510 O   0  0  0  0  0  0  0  0  0  0  0  0
   -5.7029    1.5503   -3.0607 O   0  0  0  0  0  0  0  0  0  0  0  0
  -11.2319    5.3250   -2.6046 C   0  0  0  0  0  0  0  0  0  0  0  0
  -12.0741    4.6844   -2.3169 H   0  0  0  0  0  0  0  0  0  0  0  0
  -11.2799    6.2213   -1.9785 H   0  0  0  0  0  0  0  0  0  0  0  0
  -11.3859    5.6273   -3.6434 H   0  0  0  0  0  0  0  0  0  0  0  0
  1  2  1  0  0  0  0
  1 10  2  0  0  0  0
  2  3  1  0  0  0  0
  4  1  1  0  0  0  0
  5  4  2  0  0  0  0
  5  6  1  0  0  0  0
  6  9  2  0  0  0  0
  7  6  1  0  0  0  0
  7  8  1  0  0  0  0
  8 15  1  0  0  0  0
  9 10  1  0  0  0  0
  9 16  1  0  0  0  0
 10 17  1  0  0  0  0
 12  5  1  0  0  0  0
 13  8  1  0  0  0  0
 14  8  1  0  0  0  0
 18 24  1  0  0  0  0
 19 18  1  0  0  0  0
 19 25  1  0  0  0  0
 20 19  2  0  0  0  0
 21 22  2  0  0  0  0
 21 20  1  0  0  0  0
 22 23  1  0  0  0  0
 23 28  1  0  0  0  0
 23 18  2  0  0  0  0
 26 21  1  0  0  0  0
 27 22  1  0  0  0  0
 28 30  1  0  0  0  0
 28 29  2  0  0  0  0
 30 11  1  0  0  0  0
 31 28  2  0  0  0  0
 32 20  1  0  0  0  0
 32 33  1  0  0  0  0
 32 34  1  0  0  0  0
 35 32  1  0  0  0  0
M  RAD  3   2   2   3   3   4   2
M  END
