Coordinates from ORCA-job 4-MeOPhN2+~TsO-_B3LYPG-6-31G_dp-CH-Scan-d09-49-n800
 OpenBabel11261919303D

 35 35  0  0  0  0  0  0  0  0999 V2000
   -2.7902   -0.0796   -0.3636 C   0  0  0  0  0  0  0  0  0  0  0  0
   -4.1512   -0.3491   -0.3667 N   0  0  0  0  0  0  0  0  0  0  0  0
   -5.2443   -0.0117   -0.3718 N   0  0  0  0  0  0  0  0  0  0  0  0
   -2.3203    1.2517   -0.3160 C   0  0  0  0  0  0  0  0  0  0  0  0
   -0.9542    1.4503   -0.3190 C   0  0  0  0  0  0  0  0  0  0  0  0
   -0.0590    0.3617   -0.3703 C   0  0  0  0  0  0  0  0  0  0  0  0
    1.2469    0.6868   -0.3689 O   0  0  0  0  0  0  0  0  0  0  0  0
    2.2248   -0.3494   -0.4349 C   0  0  0  0  0  0  0  0  0  0  0  0
   -0.5483   -0.9575   -0.4176 C   0  0  0  0  0  0  0  0  0  0  0  0
   -1.9181   -1.1739   -0.4134 C   0  0  0  0  0  0  0  0  0  0  0  0
   -2.9224    1.9730   -0.2859 H   0  0  0  0  0  0  0  0  0  0  0  0
   -0.5463    2.4548   -0.2905 H   0  0  0  0  0  0  0  0  0  0  0  0
    3.1904    0.1555   -0.4249 H   0  0  0  0  0  0  0  0  0  0  0  0
    2.1267   -0.9296   -1.3596 H   0  0  0  0  0  0  0  0  0  0  0  0
    2.1546   -1.0185    0.4307 H   0  0  0  0  0  0  0  0  0  0  0  0
    0.1244   -1.8042   -0.4590 H   0  0  0  0  0  0  0  0  0  0  0  0
   -2.3209   -2.1802   -0.4528 H   0  0  0  0  0  0  0  0  0  0  0  0
   -7.1673    4.5977   -1.5675 C   0  0  0  0  0  0  0  0  0  0  0  0
   -8.4501    5.0951   -1.7887 C   0  0  0  0  0  0  0  0  0  0  0  0
   -9.4246    4.3248   -2.4397 C   0  0  0  0  0  0  0  0  0  0  0  0
   -9.0748    3.0396   -2.8762 C   0  0  0  0  0  0  0  0  0  0  0  0
   -7.7956    2.5282   -2.6612 C   0  0  0  0  0  0  0  0  0  0  0  0
   -6.8475    3.3103   -2.0015 C   0  0  0  0  0  0  0  0  0  0  0  0
   -6.4083    5.2018   -1.0824 H   0  0  0  0  0  0  0  0  0  0  0  0
   -8.6975    6.1007   -1.4580 H   0  0  0  0  0  0  0  0  0  0  0  0
   -9.8122    2.4332   -3.3968 H   0  0  0  0  0  0  0  0  0  0  0  0
   -7.5199    1.5414   -3.0162 H   0  0  0  0  0  0  0  0  0  0  0  0
   -5.2080    2.6505   -1.6872 S   0  0  0  0  0  0  0  0  0  0  0  0
   -5.3001    2.0223   -0.2741 O   0  0  0  0  0  0  0  0  0  0  0  0
   -4.2794    3.7967   -1.6467 O   0  0  0  0  0  0  0  0  0  0  0  0
   -4.9525    1.5991   -2.6952 O   0  0  0  0  0  0  0  0  0  0  0  0
  -10.8208    4.8615   -2.6492 C   0  0  0  0  0  0  0  0  0  0  0  0
  -11.4595    4.6527   -1.7809 H   0  0  0  0  0  0  0  0  0  0  0  0
  -10.8153    5.9465   -2.7936 H   0  0  0  0  0  0  0  0  0  0  0  0
  -11.2987    4.4051   -3.5210 H   0  0  0  0  0  0  0  0  0  0  0  0
  1  4  2  0  0  0  0
  2  1  1  0  0  0  0
  3  2  2  0  0  0  0
  4 11  1  0  0  0  0
  5  4  1  0  0  0  0
  5 12  1  0  0  0  0
  6  7  1  0  0  0  0
  6  5  2  0  0  0  0
  8 13  1  0  0  0  0
  8  7  1  0  0  0  0
  8 15  1  0  0  0  0
  9 10  2  0  0  0  0
  9  6  1  0  0  0  0
 10  1  1  0  0  0  0
 14  8  1  0  0  0  0
 16  9  1  0  0  0  0
 17 10  1  0  0  0  0
 18 24  1  0  0  0  0
 19 18  1  0  0  0  0
 19 25  1  0  0  0  0
 20 19  2  0  0  0  0
 21 22  2  0  0  0  0
 21 20  1  0  0  0  0
 22 23  1  0  0  0  0
 23 28  1  0  0  0  0
 23 18  2  0  0  0  0
 26 21  1  0  0  0  0
 27 22  1  0  0  0  0
 28 30  2  0  0  0  0
 28 29  1  0  0  0  0
 31 28  2  0  0  0  0
 32 20  1  0  0  0  0
 32 33  1  0  0  0  0
 34 32  1  0  0  0  0
 35 32  1  0  0  0  0
M  RAD  2   3   2  29   2
M  END
