Coordinates from ORCA-job 4-MeOPhN2+~TsO-_B3LYPG-6-31G_dp-CH-Scan-d09-49-n800
 OpenBabel11261919313D

 35 35  0  0  0  0  0  0  0  0999 V2000
   -2.2895   -0.3913   -0.1756 C   0  0  0  0  0  0  0  0  0  0  0  0
   -3.5784   -0.8251    0.0403 N   0  0  0  0  0  0  0  0  0  0  0  0
   -4.6375   -1.1509    0.2051 N   0  0  0  0  0  0  0  0  0  0  0  0
   -2.1645    0.8790   -0.7889 C   0  0  0  0  0  0  0  0  0  0  0  0
   -0.8143    1.2212   -0.9584 C   0  0  0  0  0  0  0  0  0  0  0  0
    0.2583    0.4023   -0.5686 C   0  0  0  0  0  0  0  0  0  0  0  0
    1.4983    0.8881   -0.8077 O   0  0  0  0  0  0  0  0  0  0  0  0
    2.6406    0.1177   -0.4489 C   0  0  0  0  0  0  0  0  0  0  0  0
    0.0334   -0.8631    0.0409 C   0  0  0  0  0  0  0  0  0  0  0  0
   -1.2625   -1.2763    0.2457 C   0  0  0  0  0  0  0  0  0  0  0  0
   -4.0485    2.3008   -1.5566 H   0  0  0  0  0  0  0  0  0  0  0  0
   -0.5399    2.1703   -1.4169 H   0  0  0  0  0  0  0  0  0  0  0  0
    3.5050    0.7166   -0.7380 H   0  0  0  0  0  0  0  0  0  0  0  0
    2.6672   -0.8369   -0.9870 H   0  0  0  0  0  0  0  0  0  0  0  0
    2.6767   -0.0704    0.6310 H   0  0  0  0  0  0  0  0  0  0  0  0
    0.8561   -1.4982    0.3426 H   0  0  0  0  0  0  0  0  0  0  0  0
   -1.4822   -2.2355    0.7071 H   0  0  0  0  0  0  0  0  0  0  0  0
   -7.9966    3.4627   -0.9359 C   0  0  0  0  0  0  0  0  0  0  0  0
   -9.0381    4.3740   -1.0833 C   0  0  0  0  0  0  0  0  0  0  0  0
   -9.5194    4.7271   -2.3539 C   0  0  0  0  0  0  0  0  0  0  0  0
   -8.9282    4.1402   -3.4804 C   0  0  0  0  0  0  0  0  0  0  0  0
   -7.8838    3.2252   -3.3530 C   0  0  0  0  0  0  0  0  0  0  0  0
   -7.4248    2.8992   -2.0780 C   0  0  0  0  0  0  0  0  0  0  0  0
   -7.6326    3.1805    0.0458 H   0  0  0  0  0  0  0  0  0  0  0  0
   -9.4877    4.8177   -0.1991 H   0  0  0  0  0  0  0  0  0  0  0  0
   -9.2906    4.4008   -4.4710 H   0  0  0  0  0  0  0  0  0  0  0  0
   -7.4325    2.7621   -4.2232 H   0  0  0  0  0  0  0  0  0  0  0  0
   -6.0889    1.7318   -1.9040 S   0  0  0  0  0  0  0  0  0  0  0  0
   -6.1914    1.0687   -0.5978 O   0  0  0  0  0  0  0  0  0  0  0  0
   -4.8569    2.7833   -1.8583 O   0  0  0  0  0  0  0  0  0  0  0  0
   -6.0030    0.9159   -3.1149 O   0  0  0  0  0  0  0  0  0  0  0  0
  -10.6663    5.6987   -2.4953 C   0  0  0  0  0  0  0  0  0  0  0  0
  -11.6214    5.2166   -2.2535 H   0  0  0  0  0  0  0  0  0  0  0  0
  -10.5544    6.5497   -1.8159 H   0  0  0  0  0  0  0  0  0  0  0  0
  -10.7412    6.0851   -3.5149 H   0  0  0  0  0  0  0  0  0  0  0  0
  1  2  1  0  0  0  0
  1 10  2  0  0  0  0
  2  3  1  0  0  0  0
  4  1  1  0  0  0  0
  5  4  2  0  0  0  0
  5  6  1  0  0  0  0
  6  9  2  0  0  0  0
  7  6  1  0  0  0  0
  7  8  1  0  0  0  0
  8 15  1  0  0  0  0
  9 10  1  0  0  0  0
  9 16  1  0  0  0  0
 10 17  1  0  0  0  0
 12  5  1  0  0  0  0
 13  8  1  0  0  0  0
 14  8  1  0  0  0  0
 18 24  1  0  0  0  0
 19 18  1  0  0  0  0
 19 25  1  0  0  0  0
 20 19  2  0  0  0  0
 21 22  2  0  0  0  0
 21 20  1  0  0  0  0
 22 23  1  0  0  0  0
 23 28  1  0  0  0  0
 23 18  2  0  0  0  0
 26 21  1  0  0  0  0
 27 22  1  0  0  0  0
 28 30  1  0  0  0  0
 28 29  2  0  0  0  0
 30 11  1  0  0  0  0
 31 28  2  0  0  0  0
 32 20  1  0  0  0  0
 32 33  1  0  0  0  0
 32 34  1  0  0  0  0
 35 32  1  0  0  0  0
M  RAD  3   2   2   3   3   4   2
M  END
