Coordinates from ORCA-job 4-MeOPhN2+~TsO-_B3LYPG-6-31G_dp-CH-Scan-d09-49-n800
 OpenBabel11261919313D

 35 35  0  0  0  0  0  0  0  0999 V2000
   -2.3251   -0.4038   -0.1838 C   0  0  0  0  0  0  0  0  0  0  0  0
   -3.6061   -0.8589    0.0337 N   0  0  0  0  0  0  0  0  0  0  0  0
   -4.6595   -1.2016    0.1993 N   0  0  0  0  0  0  0  0  0  0  0  0
   -2.2194    0.8634   -0.8074 C   0  0  0  0  0  0  0  0  0  0  0  0
   -0.8757    1.2282   -0.9779 C   0  0  0  0  0  0  0  0  0  0  0  0
    0.2103    0.4311   -0.5798 C   0  0  0  0  0  0  0  0  0  0  0  0
    1.4416    0.9364   -0.8214 O   0  0  0  0  0  0  0  0  0  0  0  0
    2.5970    0.1883   -0.4564 C   0  0  0  0  0  0  0  0  0  0  0  0
    0.0060   -0.8328    0.0396 C   0  0  0  0  0  0  0  0  0  0  0  0
   -1.2830   -1.2666    0.2458 C   0  0  0  0  0  0  0  0  0  0  0  0
   -4.0393    2.1997   -1.5501 H   0  0  0  0  0  0  0  0  0  0  0  0
   -0.6179    2.1781   -1.4440 H   0  0  0  0  0  0  0  0  0  0  0  0
    3.4509    0.7996   -0.7499 H   0  0  0  0  0  0  0  0  0  0  0  0
    2.6397   -0.7697   -0.9873 H   0  0  0  0  0  0  0  0  0  0  0  0
    2.6357    0.0092    0.6249 H   0  0  0  0  0  0  0  0  0  0  0  0
    0.8389   -1.4512    0.3476 H   0  0  0  0  0  0  0  0  0  0  0  0
   -1.4867   -2.2256    0.7145 H   0  0  0  0  0  0  0  0  0  0  0  0
   -7.9676    3.4382   -0.9301 C   0  0  0  0  0  0  0  0  0  0  0  0
   -8.9919    4.3693   -1.0753 C   0  0  0  0  0  0  0  0  0  0  0  0
   -9.4673    4.7333   -2.3449 C   0  0  0  0  0  0  0  0  0  0  0  0
   -8.8877    4.1373   -3.4727 C   0  0  0  0  0  0  0  0  0  0  0  0
   -7.8608    3.2026   -3.3473 C   0  0  0  0  0  0  0  0  0  0  0  0
   -7.4070    2.8658   -2.0732 C   0  0  0  0  0  0  0  0  0  0  0  0
   -7.6083    3.1477    0.0509 H   0  0  0  0  0  0  0  0  0  0  0  0
   -9.4326    4.8199   -0.1900 H   0  0  0  0  0  0  0  0  0  0  0  0
   -9.2457    4.4063   -4.4627 H   0  0  0  0  0  0  0  0  0  0  0  0
   -7.4188    2.7324   -4.2185 H   0  0  0  0  0  0  0  0  0  0  0  0
   -6.0923    1.6736   -1.9020 S   0  0  0  0  0  0  0  0  0  0  0  0
   -6.2078    1.0109   -0.5960 O   0  0  0  0  0  0  0  0  0  0  0  0
   -4.8412    2.6971   -1.8579 O   0  0  0  0  0  0  0  0  0  0  0  0
   -6.0271    0.8549   -3.1127 O   0  0  0  0  0  0  0  0  0  0  0  0
  -10.5965    5.7257   -2.4844 C   0  0  0  0  0  0  0  0  0  0  0  0
  -11.5618    5.2568   -2.2567 H   0  0  0  0  0  0  0  0  0  0  0  0
  -10.4765    6.5667   -1.7941 H   0  0  0  0  0  0  0  0  0  0  0  0
  -10.6563    6.1250   -3.5001 H   0  0  0  0  0  0  0  0  0  0  0  0
  1  2  1  0  0  0  0
  1 10  2  0  0  0  0
  2  3  1  0  0  0  0
  4  1  1  0  0  0  0
  5  4  2  0  0  0  0
  5  6  1  0  0  0  0
  6  9  2  0  0  0  0
  7  6  1  0  0  0  0
  7  8  1  0  0  0  0
  8 15  1  0  0  0  0
  9 10  1  0  0  0  0
  9 16  1  0  0  0  0
 10 17  1  0  0  0  0
 12  5  1  0  0  0  0
 13  8  1  0  0  0  0
 14  8  1  0  0  0  0
 18 24  1  0  0  0  0
 19 18  1  0  0  0  0
 19 25  1  0  0  0  0
 20 19  2  0  0  0  0
 21 22  2  0  0  0  0
 21 20  1  0  0  0  0
 22 23  1  0  0  0  0
 23 28  1  0  0  0  0
 23 18  2  0  0  0  0
 26 21  1  0  0  0  0
 27 22  1  0  0  0  0
 28 30  1  0  0  0  0
 28 29  2  0  0  0  0
 30 11  1  0  0  0  0
 31 28  2  0  0  0  0
 32 20  1  0  0  0  0
 32 33  1  0  0  0  0
 32 34  1  0  0  0  0
 35 32  1  0  0  0  0
M  RAD  3   2   2   3   3   4   2
M  END
