Coordinates from ORCA-job 4-MeOPhN2+~TsO-_B3LYPG-6-31G_dp-CH-Scan-d09-49-n800
 OpenBabel11261919313D

 35 35  0  0  0  0  0  0  0  0999 V2000
   -2.3268   -0.4044   -0.1841 C   0  0  0  0  0  0  0  0  0  0  0  0
   -3.6074   -0.8604    0.0335 N   0  0  0  0  0  0  0  0  0  0  0  0
   -4.6606   -1.2039    0.1991 N   0  0  0  0  0  0  0  0  0  0  0  0
   -2.2220    0.8627   -0.8081 C   0  0  0  0  0  0  0  0  0  0  0  0
   -0.8787    1.2285   -0.9788 C   0  0  0  0  0  0  0  0  0  0  0  0
    0.2080    0.4324   -0.5804 C   0  0  0  0  0  0  0  0  0  0  0  0
    1.4389    0.9387   -0.8221 O   0  0  0  0  0  0  0  0  0  0  0  0
    2.5948    0.1916   -0.4569 C   0  0  0  0  0  0  0  0  0  0  0  0
    0.0047   -0.8314    0.0394 C   0  0  0  0  0  0  0  0  0  0  0  0
   -1.2840   -1.2661    0.2457 C   0  0  0  0  0  0  0  0  0  0  0  0
   -4.0388    2.1951   -1.5494 H   0  0  0  0  0  0  0  0  0  0  0  0
   -0.6217    2.1785   -1.4451 H   0  0  0  0  0  0  0  0  0  0  0  0
    3.4483    0.8035   -0.7506 H   0  0  0  0  0  0  0  0  0  0  0  0
    2.6383   -0.7665   -0.9876 H   0  0  0  0  0  0  0  0  0  0  0  0
    2.6338    0.0128    0.6244 H   0  0  0  0  0  0  0  0  0  0  0  0
    0.8380   -1.4491    0.3476 H   0  0  0  0  0  0  0  0  0  0  0  0
   -1.4869   -2.2252    0.7147 H   0  0  0  0  0  0  0  0  0  0  0  0
   -7.9662    3.4371   -0.9298 C   0  0  0  0  0  0  0  0  0  0  0  0
   -8.9898    4.3690   -1.0750 C   0  0  0  0  0  0  0  0  0  0  0  0
   -9.4649    4.7335   -2.3445 C   0  0  0  0  0  0  0  0  0  0  0  0
   -8.8857    4.1372   -3.4724 C   0  0  0  0  0  0  0  0  0  0  0  0
   -7.8595    3.2016   -3.3470 C   0  0  0  0  0  0  0  0  0  0  0  0
   -7.4061    2.8642   -2.0729 C   0  0  0  0  0  0  0  0  0  0  0  0
   -7.6073    3.1462    0.0512 H   0  0  0  0  0  0  0  0  0  0  0  0
   -9.4301    4.8200   -0.1897 H   0  0  0  0  0  0  0  0  0  0  0  0
   -9.2434    4.4065   -4.4623 H   0  0  0  0  0  0  0  0  0  0  0  0
   -7.4179    2.7310   -4.2182 H   0  0  0  0  0  0  0  0  0  0  0  0
   -6.0924    1.6710   -1.9017 S   0  0  0  0  0  0  0  0  0  0  0  0
   -6.2086    1.0082   -0.5957 O   0  0  0  0  0  0  0  0  0  0  0  0
   -4.8404    2.6932   -1.8575 O   0  0  0  0  0  0  0  0  0  0  0  0
   -6.0280    0.8522   -3.1124 O   0  0  0  0  0  0  0  0  0  0  0  0
  -10.5932    5.7269   -2.4840 C   0  0  0  0  0  0  0  0  0  0  0  0
  -11.5590    5.2586   -2.2571 H   0  0  0  0  0  0  0  0  0  0  0  0
  -10.4729    6.5674   -1.7933 H   0  0  0  0  0  0  0  0  0  0  0  0
  -10.6522    6.1267   -3.4995 H   0  0  0  0  0  0  0  0  0  0  0  0
  1  2  1  0  0  0  0
  1 10  2  0  0  0  0
  2  3  1  0  0  0  0
  4  1  1  0  0  0  0
  5  4  2  0  0  0  0
  5  6  1  0  0  0  0
  6  9  2  0  0  0  0
  7  6  1  0  0  0  0
  7  8  1  0  0  0  0
  8 15  1  0  0  0  0
  9 10  1  0  0  0  0
  9 16  1  0  0  0  0
 10 17  1  0  0  0  0
 12  5  1  0  0  0  0
 13  8  1  0  0  0  0
 14  8  1  0  0  0  0
 18 24  1  0  0  0  0
 19 18  1  0  0  0  0
 19 25  1  0  0  0  0
 20 19  2  0  0  0  0
 21 22  2  0  0  0  0
 21 20  1  0  0  0  0
 22 23  1  0  0  0  0
 23 28  1  0  0  0  0
 23 18  2  0  0  0  0
 26 21  1  0  0  0  0
 27 22  1  0  0  0  0
 28 30  1  0  0  0  0
 28 29  2  0  0  0  0
 30 11  1  0  0  0  0
 31 28  2  0  0  0  0
 32 20  1  0  0  0  0
 32 33  1  0  0  0  0
 32 34  1  0  0  0  0
 35 32  1  0  0  0  0
M  RAD  3   2   2   3   3   4   2
M  END
