Coordinates from ORCA-job 4-MeOPhN2+~TsO-_B3LYPG-6-31G_dp-CH-Scan-d09-49-n800
 OpenBabel11261919313D

 35 35  0  0  0  0  0  0  0  0999 V2000
   -2.3420   -0.4095   -0.1871 C   0  0  0  0  0  0  0  0  0  0  0  0
   -3.6193   -0.8744    0.0314 N   0  0  0  0  0  0  0  0  0  0  0  0
   -4.6700   -1.2249    0.1976 N   0  0  0  0  0  0  0  0  0  0  0  0
   -2.2455    0.8568   -0.8144 C   0  0  0  0  0  0  0  0  0  0  0  0
   -0.9051    1.2319   -0.9859 C   0  0  0  0  0  0  0  0  0  0  0  0
    0.1872    0.4445   -0.5854 C   0  0  0  0  0  0  0  0  0  0  0  0
    1.4143    0.9589   -0.8284 O   0  0  0  0  0  0  0  0  0  0  0  0
    2.5757    0.2208   -0.4618 C   0  0  0  0  0  0  0  0  0  0  0  0
   -0.0074   -0.8190    0.0376 C   0  0  0  0  0  0  0  0  0  0  0  0
   -1.2930   -1.2623    0.2448 C   0  0  0  0  0  0  0  0  0  0  0  0
   -4.0344    2.1542   -1.5425 H   0  0  0  0  0  0  0  0  0  0  0  0
   -0.6552    2.1825   -1.4547 H   0  0  0  0  0  0  0  0  0  0  0  0
    3.4246    0.8381   -0.7574 H   0  0  0  0  0  0  0  0  0  0  0  0
    2.6255   -0.7381   -0.9903 H   0  0  0  0  0  0  0  0  0  0  0  0
    2.6161    0.0451    0.6199 H   0  0  0  0  0  0  0  0  0  0  0  0
    0.8302   -1.4301    0.3474 H   0  0  0  0  0  0  0  0  0  0  0  0
   -1.4891   -2.2216    0.7161 H   0  0  0  0  0  0  0  0  0  0  0  0
   -7.9545    3.4272   -0.9268 C   0  0  0  0  0  0  0  0  0  0  0  0
   -8.9710    4.3667   -1.0719 C   0  0  0  0  0  0  0  0  0  0  0  0
   -9.4427    4.7355   -2.3414 C   0  0  0  0  0  0  0  0  0  0  0  0
   -8.8674    4.1355   -3.4693 C   0  0  0  0  0  0  0  0  0  0  0  0
   -7.8482    3.1923   -3.3439 C   0  0  0  0  0  0  0  0  0  0  0  0
   -7.3979    2.8507   -2.0698 C   0  0  0  0  0  0  0  0  0  0  0  0
   -7.5982    3.1329    0.0543 H   0  0  0  0  0  0  0  0  0  0  0  0
   -9.4084    4.8204   -0.1865 H   0  0  0  0  0  0  0  0  0  0  0  0
   -9.2225    4.4082   -4.4593 H   0  0  0  0  0  0  0  0  0  0  0  0
   -7.4096    2.7189   -4.2152 H   0  0  0  0  0  0  0  0  0  0  0  0
   -6.0928    1.6478   -1.8987 S   0  0  0  0  0  0  0  0  0  0  0  0
   -6.2158    0.9846   -0.5933 O   0  0  0  0  0  0  0  0  0  0  0  0
   -4.8336    2.6586   -1.8532 O   0  0  0  0  0  0  0  0  0  0  0  0
   -6.0353    0.8286   -3.1097 O   0  0  0  0  0  0  0  0  0  0  0  0
  -10.5639    5.7370   -2.4811 C   0  0  0  0  0  0  0  0  0  0  0  0
  -11.5337    5.2742   -2.2602 H   0  0  0  0  0  0  0  0  0  0  0  0
  -10.4408    6.5738   -1.7863 H   0  0  0  0  0  0  0  0  0  0  0  0
  -10.6162    6.1415   -3.4952 H   0  0  0  0  0  0  0  0  0  0  0  0
  1  2  1  0  0  0  0
  1 10  2  0  0  0  0
  2  3  1  0  0  0  0
  4  1  1  0  0  0  0
  5  4  2  0  0  0  0
  5  6  1  0  0  0  0
  6  9  2  0  0  0  0
  7  6  1  0  0  0  0
  7  8  1  0  0  0  0
  8 15  1  0  0  0  0
  9 10  1  0  0  0  0
  9 16  1  0  0  0  0
 10 17  1  0  0  0  0
 12  5  1  0  0  0  0
 13  8  1  0  0  0  0
 14  8  1  0  0  0  0
 18 24  1  0  0  0  0
 19 18  1  0  0  0  0
 19 25  1  0  0  0  0
 20 19  2  0  0  0  0
 21 22  2  0  0  0  0
 21 20  1  0  0  0  0
 22 23  1  0  0  0  0
 23 28  1  0  0  0  0
 23 18  2  0  0  0  0
 26 21  1  0  0  0  0
 27 22  1  0  0  0  0
 28 30  1  0  0  0  0
 28 29  2  0  0  0  0
 30 11  1  0  0  0  0
 31 28  2  0  0  0  0
 32 20  1  0  0  0  0
 32 33  1  0  0  0  0
 32 34  1  0  0  0  0
 35 32  1  0  0  0  0
M  RAD  3   2   2   3   3   4   2
M  END
