Coordinates from ORCA-job 4-MeOPhN2+~TsO-_B3LYPG-6-31G_dp-CH-Scan-d09-49-n800
 OpenBabel11261919303D

 35 35  0  0  0  0  0  0  0  0999 V2000
   -2.7411   -0.1330   -0.4014 C   0  0  0  0  0  0  0  0  0  0  0  0
   -4.0934   -0.4320   -0.4358 N   0  0  0  0  0  0  0  0  0  0  0  0
   -5.2026   -0.1675   -0.4627 N   0  0  0  0  0  0  0  0  0  0  0  0
   -2.3015    1.2077   -0.3521 C   0  0  0  0  0  0  0  0  0  0  0  0
   -0.9420    1.4419   -0.3260 C   0  0  0  0  0  0  0  0  0  0  0  0
   -0.0216    0.3730   -0.3477 C   0  0  0  0  0  0  0  0  0  0  0  0
    1.2759    0.7274   -0.3187 O   0  0  0  0  0  0  0  0  0  0  0  0
    2.2793   -0.2860   -0.3541 C   0  0  0  0  0  0  0  0  0  0  0  0
   -0.4788   -0.9585   -0.3969 C   0  0  0  0  0  0  0  0  0  0  0  0
   -1.8419   -1.2079   -0.4240 C   0  0  0  0  0  0  0  0  0  0  0  0
   -3.0316    2.0375   -0.3481 H   0  0  0  0  0  0  0  0  0  0  0  0
   -0.5571    2.4552   -0.2968 H   0  0  0  0  0  0  0  0  0  0  0  0
    3.2321    0.2418   -0.3245 H   0  0  0  0  0  0  0  0  0  0  0  0
    2.2172   -0.8739   -1.2770 H   0  0  0  0  0  0  0  0  0  0  0  0
    2.2040   -0.9508    0.5143 H   0  0  0  0  0  0  0  0  0  0  0  0
    0.2145   -1.7892   -0.4166 H   0  0  0  0  0  0  0  0  0  0  0  0
   -2.2194   -2.2239   -0.4660 H   0  0  0  0  0  0  0  0  0  0  0  0
   -7.1549    4.5655   -1.6088 C   0  0  0  0  0  0  0  0  0  0  0  0
   -8.4189    5.1183   -1.8071 C   0  0  0  0  0  0  0  0  0  0  0  0
   -9.4432    4.3844   -2.4222 C   0  0  0  0  0  0  0  0  0  0  0  0
   -9.1632    3.0782   -2.8471 C   0  0  0  0  0  0  0  0  0  0  0  0
   -7.9038    2.5122   -2.6552 C   0  0  0  0  0  0  0  0  0  0  0  0
   -6.9047    3.2592   -2.0308 C   0  0  0  0  0  0  0  0  0  0  0  0
   -6.3571    5.1402   -1.1510 H   0  0  0  0  0  0  0  0  0  0  0  0
   -8.6120    6.1389   -1.4860 H   0  0  0  0  0  0  0  0  0  0  0  0
   -9.9400    2.4989   -3.3406 H   0  0  0  0  0  0  0  0  0  0  0  0
   -7.6823    1.5088   -3.0021 H   0  0  0  0  0  0  0  0  0  0  0  0
   -5.2906    2.5264   -1.7472 S   0  0  0  0  0  0  0  0  0  0  0  0
   -5.3868    1.8901   -0.3434 O   0  0  0  0  0  0  0  0  0  0  0  0
   -4.3129    3.6350   -1.7131 O   0  0  0  0  0  0  0  0  0  0  0  0
   -5.0919    1.4805   -2.7742 O   0  0  0  0  0  0  0  0  0  0  0  0
  -10.8186    4.9807   -2.6071 C   0  0  0  0  0  0  0  0  0  0  0  0
  -11.4526    4.7928   -1.7306 H   0  0  0  0  0  0  0  0  0  0  0  0
  -10.7700    6.0653   -2.7457 H   0  0  0  0  0  0  0  0  0  0  0  0
  -11.3283    4.5498   -3.4741 H   0  0  0  0  0  0  0  0  0  0  0  0
  1  4  1  0  0  0  0
  2  1  1  0  0  0  0
  3  2  2  0  0  0  0
  4 11  1  0  0  0  0
  4  5  2  0  0  0  0
  5 12  1  0  0  0  0
  6  5  1  0  0  0  0
  6  7  1  0  0  0  0
  8 13  1  0  0  0  0
  8  7  1  0  0  0  0
  8 15  1  0  0  0  0
  9  6  2  0  0  0  0
 10  1  2  0  0  0  0
 10  9  1  0  0  0  0
 14  8  1  0  0  0  0
 16  9  1  0  0  0  0
 17 10  1  0  0  0  0
 18 24  1  0  0  0  0
 19 18  1  0  0  0  0
 19 25  1  0  0  0  0
 20 19  2  0  0  0  0
 21 22  2  0  0  0  0
 21 20  1  0  0  0  0
 22 23  1  0  0  0  0
 23 28  1  0  0  0  0
 23 18  2  0  0  0  0
 26 21  1  0  0  0  0
 27 22  1  0  0  0  0
 28 30  2  0  0  0  0
 28 29  1  0  0  0  0
 31 28  2  0  0  0  0
 32 20  1  0  0  0  0
 32 33  1  0  0  0  0
 34 32  1  0  0  0  0
 35 32  1  0  0  0  0
M  RAD  2   3   2  29   2
M  END
