Coordinates from ORCA-job 4-MeOPhN2+~TsO-_B3LYPG-6-31G_dp-CH-Scan-d09-49-n800
 OpenBabel11261919313D

 35 35  0  0  0  0  0  0  0  0999 V2000
   -1.7680   -0.2363   -0.2237 C   0  0  0  0  0  0  0  0  0  0  0  0
   -3.1410   -0.3760   -0.1876 N   0  0  0  0  0  0  0  0  0  0  0  0
   -4.2603   -0.4444   -0.1687 N   0  0  0  0  0  0  0  0  0  0  0  0
   -1.3282    1.0526   -0.6071 C   0  0  0  0  0  0  0  0  0  0  0  0
    0.0803    1.0915   -0.6135 C   0  0  0  0  0  0  0  0  0  0  0  0
    0.9041    0.0032   -0.2894 C   0  0  0  0  0  0  0  0  0  0  0  0
    2.2420    0.2201   -0.3551 O   0  0  0  0  0  0  0  0  0  0  0  0
    3.1429   -0.8372   -0.0526 C   0  0  0  0  0  0  0  0  0  0  0  0
    0.3524   -1.2556    0.0863 C   0  0  0  0  0  0  0  0  0  0  0  0
   -1.0156   -1.3902    0.1237 C   0  0  0  0  0  0  0  0  0  0  0  0
   -4.2628    3.7651   -2.0064 H   0  0  0  0  0  0  0  0  0  0  0  0
    0.6042    2.0087   -0.8865 H   0  0  0  0  0  0  0  0  0  0  0  0
    4.1437   -0.4233   -0.1847 H   0  0  0  0  0  0  0  0  0  0  0  0
    3.0131   -1.6874   -0.7332 H   0  0  0  0  0  0  0  0  0  0  0  0
    3.0311   -1.1813    0.9831 H   0  0  0  0  0  0  0  0  0  0  0  0
    0.9856   -2.0962    0.3400 H   0  0  0  0  0  0  0  0  0  0  0  0
   -1.4845   -2.3302    0.4056 H   0  0  0  0  0  0  0  0  0  0  0  0
   -8.2256    3.8470   -1.0946 C   0  0  0  0  0  0  0  0  0  0  0  0
   -9.4794    4.4490   -1.1290 C   0  0  0  0  0  0  0  0  0  0  0  0
  -10.1813    4.5974   -2.3365 C   0  0  0  0  0  0  0  0  0  0  0  0
   -9.5931    4.1227   -3.5160 C   0  0  0  0  0  0  0  0  0  0  0  0
   -8.3376    3.5162   -3.5032 C   0  0  0  0  0  0  0  0  0  0  0  0
   -7.6647    3.3892   -2.2890 C   0  0  0  0  0  0  0  0  0  0  0  0
   -7.6893    3.7220   -0.1604 H   0  0  0  0  0  0  0  0  0  0  0  0
   -9.9233    4.8086   -0.2047 H   0  0  0  0  0  0  0  0  0  0  0  0
  -10.1246    4.2261   -4.4578 H   0  0  0  0  0  0  0  0  0  0  0  0
   -7.8856    3.1389   -4.4135 H   0  0  0  0  0  0  0  0  0  0  0  0
   -6.0602    2.6195   -2.2594 S   0  0  0  0  0  0  0  0  0  0  0  0
   -5.8101    2.0286   -0.9432 O   0  0  0  0  0  0  0  0  0  0  0  0
   -5.1402    3.9778   -2.3708 O   0  0  0  0  0  0  0  0  0  0  0  0
   -5.8836    1.8240   -3.4703 O   0  0  0  0  0  0  0  0  0  0  0  0
  -11.5492    5.2363   -2.3520 C   0  0  0  0  0  0  0  0  0  0  0  0
  -12.2967    4.5724   -1.9015 H   0  0  0  0  0  0  0  0  0  0  0  0
  -11.5590    6.1685   -1.7784 H   0  0  0  0  0  0  0  0  0  0  0  0
  -11.8753    5.4602   -3.3705 H   0  0  0  0  0  0  0  0  0  0  0  0
  1  2  1  0  0  0  0
  1 10  2  0  0  0  0
  2  3  1  0  0  0  0
  4  1  1  0  0  0  0
  5  4  2  0  0  0  0
  5  6  1  0  0  0  0
  6  9  2  0  0  0  0
  7  6  1  0  0  0  0
  7  8  1  0  0  0  0
  8 15  1  0  0  0  0
  9 10  1  0  0  0  0
  9 16  1  0  0  0  0
 10 17  1  0  0  0  0
 12  5  1  0  0  0  0
 13  8  1  0  0  0  0
 14  8  1  0  0  0  0
 18 24  1  0  0  0  0
 19 18  1  0  0  0  0
 19 25  1  0  0  0  0
 20 19  2  0  0  0  0
 21 22  2  0  0  0  0
 21 20  1  0  0  0  0
 22 23  1  0  0  0  0
 23 28  1  0  0  0  0
 23 18  2  0  0  0  0
 26 21  1  0  0  0  0
 27 22  1  0  0  0  0
 28 29  2  0  0  0  0
 30 28  1  0  0  0  0
 30 11  1  0  0  0  0
 31 28  2  0  0  0  0
 32 20  1  0  0  0  0
 32 33  1  0  0  0  0
 32 34  1  0  0  0  0
 35 32  1  0  0  0  0
M  RAD  3   2   2   3   3   4   2
M  END
