Coordinates from ORCA-job 4-MeOPhN2+~TsO-_B3LYPG-6-31G_dp-CH-Scan-d09-49-n800
 OpenBabel11261919313D

 35 35  0  0  0  0  0  0  0  0999 V2000
   -2.3574   -0.4144   -0.1901 C   0  0  0  0  0  0  0  0  0  0  0  0
   -3.6312   -0.8880    0.0295 N   0  0  0  0  0  0  0  0  0  0  0  0
   -4.6794   -1.2455    0.1962 N   0  0  0  0  0  0  0  0  0  0  0  0
   -2.2689    0.8511   -0.8201 C   0  0  0  0  0  0  0  0  0  0  0  0
   -0.9315    1.2355   -0.9927 C   0  0  0  0  0  0  0  0  0  0  0  0
    0.1663    0.4565   -0.5904 C   0  0  0  0  0  0  0  0  0  0  0  0
    1.3895    0.9790   -0.8348 O   0  0  0  0  0  0  0  0  0  0  0  0
    2.5562    0.2497   -0.4671 C   0  0  0  0  0  0  0  0  0  0  0  0
   -0.0196   -0.8068    0.0352 C   0  0  0  0  0  0  0  0  0  0  0  0
   -1.3022   -1.2586    0.2434 C   0  0  0  0  0  0  0  0  0  0  0  0
   -4.0295    2.1144   -1.5347 H   0  0  0  0  0  0  0  0  0  0  0  0
   -0.6887    2.1867   -1.4637 H   0  0  0  0  0  0  0  0  0  0  0  0
    3.4007    0.8722   -0.7645 H   0  0  0  0  0  0  0  0  0  0  0  0
    2.6124   -0.7100   -0.9936 H   0  0  0  0  0  0  0  0  0  0  0  0
    2.5983    0.0766    0.6150 H   0  0  0  0  0  0  0  0  0  0  0  0
    0.8221   -1.4115    0.3464 H   0  0  0  0  0  0  0  0  0  0  0  0
   -1.4916   -2.2182    0.7168 H   0  0  0  0  0  0  0  0  0  0  0  0
   -7.9427    3.4174   -0.9235 C   0  0  0  0  0  0  0  0  0  0  0  0
   -8.9525    4.3644   -1.0689 C   0  0  0  0  0  0  0  0  0  0  0  0
   -9.4206    4.7372   -2.3385 C   0  0  0  0  0  0  0  0  0  0  0  0
   -8.8487    4.1337   -3.4663 C   0  0  0  0  0  0  0  0  0  0  0  0
   -7.8365    3.1831   -3.3406 C   0  0  0  0  0  0  0  0  0  0  0  0
   -7.3894    2.8376   -2.0664 C   0  0  0  0  0  0  0  0  0  0  0  0
   -7.5893    3.1202    0.0576 H   0  0  0  0  0  0  0  0  0  0  0  0
   -9.3872    4.8207   -0.1836 H   0  0  0  0  0  0  0  0  0  0  0  0
   -9.2012    4.4094   -4.4564 H   0  0  0  0  0  0  0  0  0  0  0  0
   -7.4006    2.7070   -4.2117 H   0  0  0  0  0  0  0  0  0  0  0  0
   -6.0927    1.6255   -1.8951 S   0  0  0  0  0  0  0  0  0  0  0  0
   -6.2228    0.9617   -0.5902 O   0  0  0  0  0  0  0  0  0  0  0  0
   -4.8267    2.6250   -1.8478 O   0  0  0  0  0  0  0  0  0  0  0  0
   -6.0416    0.8057   -3.1063 O   0  0  0  0  0  0  0  0  0  0  0  0
  -10.5348    5.7464   -2.4786 C   0  0  0  0  0  0  0  0  0  0  0  0
  -11.5084    5.2890   -2.2634 H   0  0  0  0  0  0  0  0  0  0  0  0
  -10.4091    6.5797   -1.7802 H   0  0  0  0  0  0  0  0  0  0  0  0
  -10.5805    6.1551   -3.4914 H   0  0  0  0  0  0  0  0  0  0  0  0
  1  2  1  0  0  0  0
  1 10  2  0  0  0  0
  2  3  1  0  0  0  0
  4  1  1  0  0  0  0
  5  4  2  0  0  0  0
  5  6  1  0  0  0  0
  6  9  2  0  0  0  0
  7  6  1  0  0  0  0
  7  8  1  0  0  0  0
  8 15  1  0  0  0  0
  9 10  1  0  0  0  0
  9 16  1  0  0  0  0
 10 17  1  0  0  0  0
 12  5  1  0  0  0  0
 13  8  1  0  0  0  0
 14  8  1  0  0  0  0
 18 24  1  0  0  0  0
 19 18  1  0  0  0  0
 19 25  1  0  0  0  0
 20 19  2  0  0  0  0
 21 22  2  0  0  0  0
 21 20  1  0  0  0  0
 22 23  1  0  0  0  0
 23 28  1  0  0  0  0
 23 18  2  0  0  0  0
 26 21  1  0  0  0  0
 27 22  1  0  0  0  0
 28 30  1  0  0  0  0
 28 29  2  0  0  0  0
 30 11  1  0  0  0  0
 31 28  2  0  0  0  0
 32 20  1  0  0  0  0
 32 33  1  0  0  0  0
 32 34  1  0  0  0  0
 35 32  1  0  0  0  0
M  RAD  3   2   2   3   3   4   2
M  END
