Coordinates from ORCA-job 4-MeOPhN2+~TsO-_B3LYPG-6-31G_dp-CH-Scan-d09-49-n800
 OpenBabel11261919313D

 35 35  0  0  0  0  0  0  0  0999 V2000
   -2.4667   -0.4407   -0.2043 C   0  0  0  0  0  0  0  0  0  0  0  0
   -3.7160   -0.9692    0.0260 N   0  0  0  0  0  0  0  0  0  0  0  0
   -4.7476   -1.3684    0.1987 N   0  0  0  0  0  0  0  0  0  0  0  0
   -2.4288    0.8145   -0.8605 C   0  0  0  0  0  0  0  0  0  0  0  0
   -1.1127    1.2565   -1.0431 C   0  0  0  0  0  0  0  0  0  0  0  0
    0.0194    0.5359   -0.6253 C   0  0  0  0  0  0  0  0  0  0  0  0
    1.2160    1.1080   -0.8820 O   0  0  0  0  0  0  0  0  0  0  0  0
    2.4157    0.4411   -0.5005 C   0  0  0  0  0  0  0  0  0  0  0  0
   -0.1112   -0.7204    0.0260 C   0  0  0  0  0  0  0  0  0  0  0  0
   -1.3729   -1.2245    0.2438 C   0  0  0  0  0  0  0  0  0  0  0  0
   -3.9809    1.8511   -1.4951 H   0  0  0  0  0  0  0  0  0  0  0  0
   -0.9163    2.2075   -1.5346 H   0  0  0  0  0  0  0  0  0  0  0  0
    3.2301    1.0951   -0.8132 H   0  0  0  0  0  0  0  0  0  0  0  0
    2.5149   -0.5262   -1.0062 H   0  0  0  0  0  0  0  0  0  0  0  0
    2.4659    0.2944    0.5850 H   0  0  0  0  0  0  0  0  0  0  0  0
    0.7560   -1.2812    0.3490 H   0  0  0  0  0  0  0  0  0  0  0  0
   -1.5193   -2.1817    0.7360 H   0  0  0  0  0  0  0  0  0  0  0  0
   -7.8516    3.3479   -0.9077 C   0  0  0  0  0  0  0  0  0  0  0  0
   -8.8179    4.3404   -1.0464 C   0  0  0  0  0  0  0  0  0  0  0  0
   -9.2688    4.7421   -2.3133 C   0  0  0  0  0  0  0  0  0  0  0  0
   -8.7237    4.1210   -3.4448 C   0  0  0  0  0  0  0  0  0  0  0  0
   -7.7554    3.1249   -3.3249 C   0  0  0  0  0  0  0  0  0  0  0  0
   -7.3241    2.7505   -2.0535 C   0  0  0  0  0  0  0  0  0  0  0  0
   -7.5123    3.0283    0.0714 H   0  0  0  0  0  0  0  0  0  0  0  0
   -9.2321    4.8099   -0.1580 H   0  0  0  0  0  0  0  0  0  0  0  0
   -9.0632    4.4187   -4.4332 H   0  0  0  0  0  0  0  0  0  0  0  0
   -7.3414    2.6349   -4.1990 H   0  0  0  0  0  0  0  0  0  0  0  0
   -6.0794    1.4815   -1.8909 S   0  0  0  0  0  0  0  0  0  0  0  0
   -6.2511    0.8118   -0.5908 O   0  0  0  0  0  0  0  0  0  0  0  0
   -4.7719    2.4021   -1.8356 O   0  0  0  0  0  0  0  0  0  0  0  0
   -6.0784    0.6625   -3.1055 O   0  0  0  0  0  0  0  0  0  0  0  0
  -10.3385    5.7990   -2.4478 C   0  0  0  0  0  0  0  0  0  0  0  0
  -11.3342    5.3764   -2.2644 H   0  0  0  0  0  0  0  0  0  0  0  0
  -10.1941    6.6088   -1.7255 H   0  0  0  0  0  0  0  0  0  0  0  0
  -10.3474    6.2349   -3.4505 H   0  0  0  0  0  0  0  0  0  0  0  0
  1  2  1  0  0  0  0
  1 10  2  0  0  0  0
  2  3  1  0  0  0  0
  4  1  1  0  0  0  0
  5  4  2  0  0  0  0
  5  6  1  0  0  0  0
  6  9  2  0  0  0  0
  7  6  1  0  0  0  0
  7  8  1  0  0  0  0
  8 15  1  0  0  0  0
  9 10  1  0  0  0  0
  9 16  1  0  0  0  0
 10 17  1  0  0  0  0
 12  5  1  0  0  0  0
 13  8  1  0  0  0  0
 14  8  1  0  0  0  0
 18 24  1  0  0  0  0
 19 18  1  0  0  0  0
 19 25  1  0  0  0  0
 20 19  2  0  0  0  0
 21 22  2  0  0  0  0
 21 20  1  0  0  0  0
 22 23  1  0  0  0  0
 23 28  1  0  0  0  0
 23 18  2  0  0  0  0
 26 21  1  0  0  0  0
 27 22  1  0  0  0  0
 28 30  1  0  0  0  0
 28 29  2  0  0  0  0
 30 11  1  0  0  0  0
 31 28  2  0  0  0  0
 32 20  1  0  0  0  0
 32 33  1  0  0  0  0
 32 34  1  0  0  0  0
 35 32  1  0  0  0  0
M  RAD  3   2   2   3   3   4   2
M  END
