Coordinates from ORCA-job 4-MeOPhN2+~TsO-_B3LYPG-6-31G_dp-CH-Scan-d09-49-n800
 OpenBabel11261919313D

 35 35  0  0  0  0  0  0  0  0999 V2000
   -1.6827   -0.3345   -0.5719 C   0  0  0  0  0  0  0  0  0  0  0  0
   -3.0331   -0.5398   -0.7745 N   0  0  0  0  0  0  0  0  0  0  0  0
   -4.1329   -0.6628   -0.9577 N   0  0  0  0  0  0  0  0  0  0  0  0
   -1.2239    0.9367   -0.9897 C   0  0  0  0  0  0  0  0  0  0  0  0
    0.1592    1.0461   -0.7432 C   0  0  0  0  0  0  0  0  0  0  0  0
    0.9440    0.0345   -0.1697 C   0  0  0  0  0  0  0  0  0  0  0  0
    2.2619    0.3140   -0.0068 O   0  0  0  0  0  0  0  0  0  0  0  0
    3.1241   -0.6612    0.5654 C   0  0  0  0  0  0  0  0  0  0  0  0
    0.3755   -1.2141    0.2152 C   0  0  0  0  0  0  0  0  0  0  0  0
   -0.9698   -1.4150    0.0136 C   0  0  0  0  0  0  0  0  0  0  0  0
   -4.3762    3.4991   -2.7678 H   0  0  0  0  0  0  0  0  0  0  0  0
    0.6933    1.9617   -1.0018 H   0  0  0  0  0  0  0  0  0  0  0  0
    4.1151   -0.2055    0.5895 H   0  0  0  0  0  0  0  0  0  0  0  0
    3.1629   -1.5741   -0.0414 H   0  0  0  0  0  0  0  0  0  0  0  0
    2.8227   -0.9186    1.5881 H   0  0  0  0  0  0  0  0  0  0  0  0
    0.9793   -1.9964    0.6570 H   0  0  0  0  0  0  0  0  0  0  0  0
   -1.4503   -2.3507    0.2903 H   0  0  0  0  0  0  0  0  0  0  0  0
   -8.0505    3.7799   -1.2468 C   0  0  0  0  0  0  0  0  0  0  0  0
   -9.2428    4.4680   -1.0413 C   0  0  0  0  0  0  0  0  0  0  0  0
  -10.1449    4.6888   -2.0939 C   0  0  0  0  0  0  0  0  0  0  0  0
   -9.8220    4.1989   -3.3669 C   0  0  0  0  0  0  0  0  0  0  0  0
   -8.6343    3.5056   -3.5934 C   0  0  0  0  0  0  0  0  0  0  0  0
   -7.7571    3.3076   -2.5276 C   0  0  0  0  0  0  0  0  0  0  0  0
   -7.3593    3.5994   -0.4307 H   0  0  0  0  0  0  0  0  0  0  0  0
   -9.4784    4.8396   -0.0477 H   0  0  0  0  0  0  0  0  0  0  0  0
  -10.5102    4.3601   -4.1924 H   0  0  0  0  0  0  0  0  0  0  0  0
   -8.3897    3.1163   -4.5753 H   0  0  0  0  0  0  0  0  0  0  0  0
   -6.2324    2.4313   -2.8055 S   0  0  0  0  0  0  0  0  0  0  0  0
   -5.7540    1.8477   -1.5501 O   0  0  0  0  0  0  0  0  0  0  0  0
   -5.2490    3.7051   -3.1460 O   0  0  0  0  0  0  0  0  0  0  0  0
   -6.3654    1.6130   -4.0052 O   0  0  0  0  0  0  0  0  0  0  0  0
  -11.4461    5.4134   -1.8494 C   0  0  0  0  0  0  0  0  0  0  0  0
  -12.1981    4.7347   -1.4277 H   0  0  0  0  0  0  0  0  0  0  0  0
  -11.3173    6.2360   -1.1393 H   0  0  0  0  0  0  0  0  0  0  0  0
  -11.8572    5.8226   -2.7758 H   0  0  0  0  0  0  0  0  0  0  0  0
  1 10  2  0  0  0  0
  2  1  1  0  0  0  0
  3  2  1  0  0  0  0
  4  5  2  0  0  0  0
  4  1  1  0  0  0  0
  5  6  1  0  0  0  0
  6  7  1  0  0  0  0
  6  9  2  0  0  0  0
  7  8  1  0  0  0  0
  8 13  1  0  0  0  0
  8 15  1  0  0  0  0
  9 16  1  0  0  0  0
 10  9  1  0  0  0  0
 10 17  1  0  0  0  0
 12  5  1  0  0  0  0
 14  8  1  0  0  0  0
 18 19  1  0  0  0  0
 18 24  1  0  0  0  0
 19 25  1  0  0  0  0
 20 32  1  0  0  0  0
 20 19  2  0  0  0  0
 21 20  1  0  0  0  0
 22 21  2  0  0  0  0
 22 23  1  0  0  0  0
 23 18  2  0  0  0  0
 26 21  1  0  0  0  0
 27 22  1  0  0  0  0
 28 23  1  0  0  0  0
 28 29  2  0  0  0  0
 30 28  1  0  0  0  0
 30 11  1  0  0  0  0
 31 28  2  0  0  0  0
 32 33  1  0  0  0  0
 32 34  1  0  0  0  0
 35 32  1  0  0  0  0
M  RAD  3   2   2   3   3   4   2
M  END
