Coordinates from ORCA-job 4-MeOPhN2+~TsO-_B3LYPG-6-31G_dp-CH-Scan-d09-49-n800
 OpenBabel11261919313D

 35 35  0  0  0  0  0  0  0  0999 V2000
   -1.7305   -0.2372   -0.2572 C   0  0  0  0  0  0  0  0  0  0  0  0
   -3.1047   -0.3711   -0.2536 N   0  0  0  0  0  0  0  0  0  0  0  0
   -4.2244   -0.4362   -0.2641 N   0  0  0  0  0  0  0  0  0  0  0  0
   -1.2762    1.0502   -0.6282 C   0  0  0  0  0  0  0  0  0  0  0  0
    0.1322    1.0829   -0.6004 C   0  0  0  0  0  0  0  0  0  0  0  0
    0.9432   -0.0092   -0.2574 C   0  0  0  0  0  0  0  0  0  0  0  0
    2.2833    0.2022   -0.2893 O   0  0  0  0  0  0  0  0  0  0  0  0
    3.1718   -0.8591    0.0353 C   0  0  0  0  0  0  0  0  0  0  0  0
    0.3772   -1.2663    0.1025 C   0  0  0  0  0  0  0  0  0  0  0  0
   -0.9918   -1.3951    0.1063 C   0  0  0  0  0  0  0  0  0  0  0  0
   -4.2939    3.7719   -2.1212 H   0  0  0  0  0  0  0  0  0  0  0  0
    0.6665    1.9983   -0.8592 H   0  0  0  0  0  0  0  0  0  0  0  0
    4.1774   -0.4489   -0.0692 H   0  0  0  0  0  0  0  0  0  0  0  0
    3.0568   -1.7078   -0.6499 H   0  0  0  0  0  0  0  0  0  0  0  0
    3.0310   -1.2044    1.0670 H   0  0  0  0  0  0  0  0  0  0  0  0
    1.0005   -2.1099    0.3701 H   0  0  0  0  0  0  0  0  0  0  0  0
   -1.4714   -2.3336    0.3750 H   0  0  0  0  0  0  0  0  0  0  0  0
   -8.2201    3.8547   -1.1225 C   0  0  0  0  0  0  0  0  0  0  0  0
   -9.4729    4.4596   -1.1214 C   0  0  0  0  0  0  0  0  0  0  0  0
  -10.2086    4.6092   -2.3085 C   0  0  0  0  0  0  0  0  0  0  0  0
   -9.6553    4.1325   -3.5040 C   0  0  0  0  0  0  0  0  0  0  0  0
   -8.4014    3.5228   -3.5266 C   0  0  0  0  0  0  0  0  0  0  0  0
   -7.6946    3.3948   -2.3321 C   0  0  0  0  0  0  0  0  0  0  0  0
   -7.6578    3.7286   -0.2038 H   0  0  0  0  0  0  0  0  0  0  0  0
   -9.8895    4.8206   -0.1851 H   0  0  0  0  0  0  0  0  0  0  0  0
  -10.2131    4.2369   -4.4304 H   0  0  0  0  0  0  0  0  0  0  0  0
   -7.9768    3.1438   -4.4492 H   0  0  0  0  0  0  0  0  0  0  0  0
   -6.0914    2.6219   -2.3477 S   0  0  0  0  0  0  0  0  0  0  0  0
   -5.8010    2.0384   -1.0364 O   0  0  0  0  0  0  0  0  0  0  0  0
   -5.1693    3.9758   -2.4950 O   0  0  0  0  0  0  0  0  0  0  0  0
   -5.9545    1.8201   -3.5594 O   0  0  0  0  0  0  0  0  0  0  0  0
  -11.5748    5.2515   -2.2853 C   0  0  0  0  0  0  0  0  0  0  0  0
  -12.3099    4.5912   -1.8098 H   0  0  0  0  0  0  0  0  0  0  0  0
  -11.5652    6.1860   -1.7154 H   0  0  0  0  0  0  0  0  0  0  0  0
  -11.9308    5.4723   -3.2944 H   0  0  0  0  0  0  0  0  0  0  0  0
  1  2  1  0  0  0  0
  1 10  2  0  0  0  0
  3  2  1  0  0  0  0
  4  5  2  0  0  0  0
  4  1  1  0  0  0  0
  5  6  1  0  0  0  0
  6  9  2  0  0  0  0
  7  6  1  0  0  0  0
  7  8  1  0  0  0  0
  8 15  1  0  0  0  0
  9 10  1  0  0  0  0
  9 16  1  0  0  0  0
 10 17  1  0  0  0  0
 12  5  1  0  0  0  0
 13  8  1  0  0  0  0
 14  8  1  0  0  0  0
 18 19  1  0  0  0  0
 18 24  1  0  0  0  0
 19 25  1  0  0  0  0
 20 32  1  0  0  0  0
 20 19  2  0  0  0  0
 21 20  1  0  0  0  0
 22 21  2  0  0  0  0
 22 23  1  0  0  0  0
 23 18  2  0  0  0  0
 26 21  1  0  0  0  0
 27 22  1  0  0  0  0
 28 23  1  0  0  0  0
 28 29  2  0  0  0  0
 30 28  1  0  0  0  0
 30 11  1  0  0  0  0
 31 28  2  0  0  0  0
 32 33  1  0  0  0  0
 32 34  1  0  0  0  0
 35 32  1  0  0  0  0
M  RAD  3   2   2   3   3   4   2
M  END
