Coordinates from ORCA-job 4-MeOPhN2+~TsO-_B3LYPG-6-31G_dp-CH-Scan-d09-49-n800
 OpenBabel11261919313D

 35 35  0  0  0  0  0  0  0  0999 V2000
   -1.6469   -0.3201   -0.5784 C   0  0  0  0  0  0  0  0  0  0  0  0
   -2.9982   -0.5063   -0.7936 N   0  0  0  0  0  0  0  0  0  0  0  0
   -4.0978   -0.6129   -0.9877 N   0  0  0  0  0  0  0  0  0  0  0  0
   -1.1680    0.9456   -0.9899 C   0  0  0  0  0  0  0  0  0  0  0  0
    0.2144    1.0361   -0.7319 C   0  0  0  0  0  0  0  0  0  0  0  0
    0.9807    0.0131   -0.1538 C   0  0  0  0  0  0  0  0  0  0  0  0
    2.3009    0.2746    0.0204 O   0  0  0  0  0  0  0  0  0  0  0  0
    3.1452   -0.7130    0.5982 C   0  0  0  0  0  0  0  0  0  0  0  0
    0.3924   -1.2283    0.2244 C   0  0  0  0  0  0  0  0  0  0  0  0
   -0.9537   -1.4110    0.0113 C   0  0  0  0  0  0  0  0  0  0  0  0
   -4.4061    3.5666   -2.8186 H   0  0  0  0  0  0  0  0  0  0  0  0
    0.7629    1.9449   -0.9846 H   0  0  0  0  0  0  0  0  0  0  0  0
    4.1419   -0.2705    0.6314 H   0  0  0  0  0  0  0  0  0  0  0  0
    3.1769   -1.6253   -0.0097 H   0  0  0  0  0  0  0  0  0  0  0  0
    2.8318   -0.9679    1.6179 H   0  0  0  0  0  0  0  0  0  0  0  0
    0.9822   -2.0192    0.6700 H   0  0  0  0  0  0  0  0  0  0  0  0
   -1.4490   -2.3407    0.2823 H   0  0  0  0  0  0  0  0  0  0  0  0
   -8.0541    3.8173   -1.2647 C   0  0  0  0  0  0  0  0  0  0  0  0
   -9.2519    4.4926   -1.0496 C   0  0  0  0  0  0  0  0  0  0  0  0
  -10.1752    4.6835   -2.0896 C   0  0  0  0  0  0  0  0  0  0  0  0
   -9.8678    4.1767   -3.3598 C   0  0  0  0  0  0  0  0  0  0  0  0
   -8.6746    3.4960   -3.5958 C   0  0  0  0  0  0  0  0  0  0  0  0
   -7.7764    3.3277   -2.5425 C   0  0  0  0  0  0  0  0  0  0  0  0
   -7.3464    3.6598   -0.4578 H   0  0  0  0  0  0  0  0  0  0  0  0
   -9.4753    4.8776   -0.0582 H   0  0  0  0  0  0  0  0  0  0  0  0
  -10.5724    4.3146   -4.1756 H   0  0  0  0  0  0  0  0  0  0  0  0
   -8.4416    3.0938   -4.5753 H   0  0  0  0  0  0  0  0  0  0  0  0
   -6.2443    2.4685   -2.8332 S   0  0  0  0  0  0  0  0  0  0  0  0
   -5.7387    1.9068   -1.5785 O   0  0  0  0  0  0  0  0  0  0  0  0
   -5.2810    3.7500   -3.2033 O   0  0  0  0  0  0  0  0  0  0  0  0
   -6.3844    1.6354   -4.0216 O   0  0  0  0  0  0  0  0  0  0  0  0
  -11.4818    5.3946   -1.8342 C   0  0  0  0  0  0  0  0  0  0  0  0
  -12.2179    4.7124   -1.3908 H   0  0  0  0  0  0  0  0  0  0  0  0
  -11.3525    6.2289   -1.1381 H   0  0  0  0  0  0  0  0  0  0  0  0
  -11.9130    5.7853   -2.7596 H   0  0  0  0  0  0  0  0  0  0  0  0
  1 10  2  0  0  0  0
  2  1  1  0  0  0  0
  3  2  1  0  0  0  0
  4  5  2  0  0  0  0
  4  1  1  0  0  0  0
  5  6  1  0  0  0  0
  6  7  1  0  0  0  0
  6  9  2  0  0  0  0
  7  8  1  0  0  0  0
  8 13  1  0  0  0  0
  8 15  1  0  0  0  0
  9 16  1  0  0  0  0
 10  9  1  0  0  0  0
 10 17  1  0  0  0  0
 12  5  1  0  0  0  0
 14  8  1  0  0  0  0
 18 19  1  0  0  0  0
 18 24  1  0  0  0  0
 19 25  1  0  0  0  0
 20 32  1  0  0  0  0
 20 19  2  0  0  0  0
 21 20  1  0  0  0  0
 22 21  2  0  0  0  0
 22 23  1  0  0  0  0
 23 18  2  0  0  0  0
 26 21  1  0  0  0  0
 27 22  1  0  0  0  0
 28 23  1  0  0  0  0
 28 29  2  0  0  0  0
 30 28  1  0  0  0  0
 30 11  1  0  0  0  0
 31 28  2  0  0  0  0
 32 33  1  0  0  0  0
 32 34  1  0  0  0  0
 35 32  1  0  0  0  0
M  RAD  3   2   2   3   3   4   2
M  END
