Coordinates from ORCA-job 4-MeOPhN2+~TsO-_B3LYPG-6-31G_dp-CH-Scan-d09-49-n800
 OpenBabel11261919313D

 35 35  0  0  0  0  0  0  0  0999 V2000
   -2.1567   -0.3232   -0.1133 C   0  0  0  0  0  0  0  0  0  0  0  0
   -3.4739   -0.6600    0.1116 N   0  0  0  0  0  0  0  0  0  0  0  0
   -4.5538   -0.9038    0.2855 N   0  0  0  0  0  0  0  0  0  0  0  0
   -1.9479    0.9660   -0.6596 C   0  0  0  0  0  0  0  0  0  0  0  0
   -0.5751    1.2035   -0.8447 C   0  0  0  0  0  0  0  0  0  0  0  0
    0.4342    0.2803   -0.5282 C   0  0  0  0  0  0  0  0  0  0  0  0
    1.7064    0.6761   -0.7727 O   0  0  0  0  0  0  0  0  0  0  0  0
    2.7870   -0.2040   -0.4848 C   0  0  0  0  0  0  0  0  0  0  0  0
    0.1204   -0.9956    0.0188 C   0  0  0  0  0  0  0  0  0  0  0  0
   -1.2000   -1.3135    0.2348 C   0  0  0  0  0  0  0  0  0  0  0  0
   -4.0668    2.8059   -1.4759 H   0  0  0  0  0  0  0  0  0  0  0  0
   -0.2308    2.1510   -1.2589 H   0  0  0  0  0  0  0  0  0  0  0  0
    3.6925    0.3356   -0.7650 H   0  0  0  0  0  0  0  0  0  0  0  0
    2.7226   -1.1278   -1.0716 H   0  0  0  0  0  0  0  0  0  0  0  0
    2.8316   -0.4527    0.5825 H   0  0  0  0  0  0  0  0  0  0  0  0
    0.8954   -1.7100    0.2653 H   0  0  0  0  0  0  0  0  0  0  0  0
   -1.4885   -2.2756    0.6507 H   0  0  0  0  0  0  0  0  0  0  0  0
   -8.1242    3.5627   -0.9471 C   0  0  0  0  0  0  0  0  0  0  0  0
   -9.2478    4.3641   -1.1246 C   0  0  0  0  0  0  0  0  0  0  0  0
   -9.7259    4.6700   -2.4090 C   0  0  0  0  0  0  0  0  0  0  0  0
   -9.0466    4.1495   -3.5180 C   0  0  0  0  0  0  0  0  0  0  0  0
   -7.9185    3.3449   -3.3610 C   0  0  0  0  0  0  0  0  0  0  0  0
   -7.4664    3.0634   -2.0731 C   0  0  0  0  0  0  0  0  0  0  0  0
   -7.7622    3.3157    0.0448 H   0  0  0  0  0  0  0  0  0  0  0  0
   -9.7655    4.7570   -0.2538 H   0  0  0  0  0  0  0  0  0  0  0  0
   -9.4057    4.3741   -4.5185 H   0  0  0  0  0  0  0  0  0  0  0  0
   -7.3977    2.9325   -4.2177 H   0  0  0  0  0  0  0  0  0  0  0  0
   -6.0297    2.0314   -1.8618 S   0  0  0  0  0  0  0  0  0  0  0  0
   -6.1069    1.3442   -0.5690 O   0  0  0  0  0  0  0  0  0  0  0  0
   -4.9118    3.2147   -1.7541 O   0  0  0  0  0  0  0  0  0  0  0  0
   -5.8064    1.2558   -3.0804 O   0  0  0  0  0  0  0  0  0  0  0  0
  -10.9594    5.5232   -2.5826 C   0  0  0  0  0  0  0  0  0  0  0  0
  -11.8614    4.9729   -2.2890 H   0  0  0  0  0  0  0  0  0  0  0  0
  -10.9139    6.4215   -1.9587 H   0  0  0  0  0  0  0  0  0  0  0  0
  -11.0863    5.8376   -3.6213 H   0  0  0  0  0  0  0  0  0  0  0  0
  1  2  1  0  0  0  0
  1 10  2  0  0  0  0
  2  3  1  0  0  0  0
  4  1  1  0  0  0  0
  5  4  2  0  0  0  0
  5  6  1  0  0  0  0
  6  9  2  0  0  0  0
  7  6  1  0  0  0  0
  7  8  1  0  0  0  0
  8 15  1  0  0  0  0
  9 10  1  0  0  0  0
  9 16  1  0  0  0  0
 10 17  1  0  0  0  0
 12  5  1  0  0  0  0
 13  8  1  0  0  0  0
 14  8  1  0  0  0  0
 18 24  1  0  0  0  0
 19 18  1  0  0  0  0
 19 25  1  0  0  0  0
 20 19  2  0  0  0  0
 21 22  2  0  0  0  0
 21 20  1  0  0  0  0
 22 23  1  0  0  0  0
 23 28  1  0  0  0  0
 23 18  2  0  0  0  0
 26 21  1  0  0  0  0
 27 22  1  0  0  0  0
 28 30  1  0  0  0  0
 28 29  2  0  0  0  0
 30 11  1  0  0  0  0
 31 28  2  0  0  0  0
 32 20  1  0  0  0  0
 32 33  1  0  0  0  0
 32 34  1  0  0  0  0
 35 32  1  0  0  0  0
M  RAD  3   2   2   3   3   4   2
M  END
