Coordinates from ORCA-job 4-MeOPhN2+~TsO-_B3LYPG-6-31G_dp-CH-Scan-d09-49-n800
 OpenBabel11261919313D

 35 35  0  0  0  0  0  0  0  0999 V2000
   -2.1371   -0.3135   -0.1085 C   0  0  0  0  0  0  0  0  0  0  0  0
   -3.4583   -0.6361    0.1153 N   0  0  0  0  0  0  0  0  0  0  0  0
   -4.5411   -0.8694    0.2856 N   0  0  0  0  0  0  0  0  0  0  0  0
   -1.9150    0.9764   -0.6474 C   0  0  0  0  0  0  0  0  0  0  0  0
   -0.5394    1.1994   -0.8313 C   0  0  0  0  0  0  0  0  0  0  0  0
    0.4596    0.2632   -0.5208 C   0  0  0  0  0  0  0  0  0  0  0  0
    1.7363    0.6460   -0.7634 O   0  0  0  0  0  0  0  0  0  0  0  0
    2.8067   -0.2487   -0.4826 C   0  0  0  0  0  0  0  0  0  0  0  0
    0.1320   -1.0126    0.0187 C   0  0  0  0  0  0  0  0  0  0  0  0
   -1.1919   -1.3169    0.2335 C   0  0  0  0  0  0  0  0  0  0  0  0
   -4.0704    2.8770   -1.4829 H   0  0  0  0  0  0  0  0  0  0  0  0
   -0.1843    2.1454   -1.2401 H   0  0  0  0  0  0  0  0  0  0  0  0
    3.7182    0.2819   -0.7605 H   0  0  0  0  0  0  0  0  0  0  0  0
    2.7306   -1.1678   -1.0752 H   0  0  0  0  0  0  0  0  0  0  0  0
    2.8498   -0.5048    0.5830 H   0  0  0  0  0  0  0  0  0  0  0  0
    0.8990   -1.7369    0.2606 H   0  0  0  0  0  0  0  0  0  0  0  0
   -1.4910   -2.2781    0.6441 H   0  0  0  0  0  0  0  0  0  0  0  0
   -8.1394    3.5764   -0.9492 C   0  0  0  0  0  0  0  0  0  0  0  0
   -9.2735    4.3625   -1.1284 C   0  0  0  0  0  0  0  0  0  0  0  0
   -9.7539    4.6618   -2.4135 C   0  0  0  0  0  0  0  0  0  0  0  0
   -9.0660    4.1505   -3.5216 C   0  0  0  0  0  0  0  0  0  0  0  0
   -7.9274    3.3613   -3.3630 C   0  0  0  0  0  0  0  0  0  0  0  0
   -7.4735    3.0859   -2.0744 C   0  0  0  0  0  0  0  0  0  0  0  0
   -7.7753    3.3344    0.0432 H   0  0  0  0  0  0  0  0  0  0  0  0
   -9.7978    4.7483   -0.2583 H   0  0  0  0  0  0  0  0  0  0  0  0
   -9.4268    4.3702   -4.5225 H   0  0  0  0  0  0  0  0  0  0  0  0
   -7.4000    2.9558   -4.2190 H   0  0  0  0  0  0  0  0  0  0  0  0
   -6.0234    2.0735   -1.8611 S   0  0  0  0  0  0  0  0  0  0  0  0
   -6.0887    1.3911   -0.5653 O   0  0  0  0  0  0  0  0  0  0  0  0
   -4.9206    3.2732   -1.7604 O   0  0  0  0  0  0  0  0  0  0  0  0
   -5.7908    1.2966   -3.0769 O   0  0  0  0  0  0  0  0  0  0  0  0
  -10.9986    5.4981   -2.5889 C   0  0  0  0  0  0  0  0  0  0  0  0
  -11.8931    4.9366   -2.2938 H   0  0  0  0  0  0  0  0  0  0  0  0
  -10.9649    6.3985   -1.9674 H   0  0  0  0  0  0  0  0  0  0  0  0
  -11.1298    5.8082   -3.6285 H   0  0  0  0  0  0  0  0  0  0  0  0
  1  2  1  0  0  0  0
  1 10  2  0  0  0  0
  2  3  1  0  0  0  0
  4  1  1  0  0  0  0
  5  4  2  0  0  0  0
  5  6  1  0  0  0  0
  6  9  2  0  0  0  0
  7  6  1  0  0  0  0
  7  8  1  0  0  0  0
  8 15  1  0  0  0  0
  9 10  1  0  0  0  0
  9 16  1  0  0  0  0
 10 17  1  0  0  0  0
 12  5  1  0  0  0  0
 13  8  1  0  0  0  0
 14  8  1  0  0  0  0
 18 24  1  0  0  0  0
 19 18  1  0  0  0  0
 19 25  1  0  0  0  0
 20 19  2  0  0  0  0
 21 22  2  0  0  0  0
 21 20  1  0  0  0  0
 22 23  1  0  0  0  0
 23 28  1  0  0  0  0
 23 18  2  0  0  0  0
 26 21  1  0  0  0  0
 27 22  1  0  0  0  0
 28 30  1  0  0  0  0
 28 29  2  0  0  0  0
 30 11  1  0  0  0  0
 31 28  2  0  0  0  0
 32 20  1  0  0  0  0
 32 33  1  0  0  0  0
 32 34  1  0  0  0  0
 35 32  1  0  0  0  0
M  RAD  3   2   2   3   3   4   2
M  END
