Coordinates from ORCA-job 4-MeOPhN2+~TsO-_B3LYPG-6-31G_dp-CH-Scan-d09-49-n800
 OpenBabel11261919313D

 35 35  0  0  0  0  0  0  0  0999 V2000
   -1.7400   -0.2381   -0.2501 C   0  0  0  0  0  0  0  0  0  0  0  0
   -3.1139   -0.3740   -0.2393 N   0  0  0  0  0  0  0  0  0  0  0  0
   -4.2336   -0.4396   -0.2409 N   0  0  0  0  0  0  0  0  0  0  0  0
   -1.2897    1.0502   -0.6231 C   0  0  0  0  0  0  0  0  0  0  0  0
    0.1188    1.0852   -0.6029 C   0  0  0  0  0  0  0  0  0  0  0  0
    0.9333   -0.0058   -0.2647 C   0  0  0  0  0  0  0  0  0  0  0  0
    2.2729    0.2077   -0.3042 O   0  0  0  0  0  0  0  0  0  0  0  0
    3.1648   -0.8524    0.0148 C   0  0  0  0  0  0  0  0  0  0  0  0
    0.3713   -1.2638    0.0981 C   0  0  0  0  0  0  0  0  0  0  0  0
   -0.9975   -1.3948    0.1093 C   0  0  0  0  0  0  0  0  0  0  0  0
   -4.2852    3.7680   -2.0953 H   0  0  0  0  0  0  0  0  0  0  0  0
    0.6502    2.0015   -0.8644 H   0  0  0  0  0  0  0  0  0  0  0  0
    4.1692   -0.4407   -0.0960 H   0  0  0  0  0  0  0  0  0  0  0  0
    3.0469   -1.7012   -0.6699 H   0  0  0  0  0  0  0  0  0  0  0  0
    3.0309   -1.1980    1.0473 H   0  0  0  0  0  0  0  0  0  0  0  0
    0.9973   -2.1065    0.3621 H   0  0  0  0  0  0  0  0  0  0  0  0
   -1.4742   -2.3341    0.3805 H   0  0  0  0  0  0  0  0  0  0  0  0
   -8.2209    3.8534   -1.1157 C   0  0  0  0  0  0  0  0  0  0  0  0
   -9.4738    4.4580   -1.1232 C   0  0  0  0  0  0  0  0  0  0  0  0
  -10.2017    4.6068   -2.3151 C   0  0  0  0  0  0  0  0  0  0  0  0
   -9.6405    4.1297   -3.5067 C   0  0  0  0  0  0  0  0  0  0  0  0
   -8.3863    3.5203   -3.5208 C   0  0  0  0  0  0  0  0  0  0  0  0
   -7.6873    3.3931   -2.3216 C   0  0  0  0  0  0  0  0  0  0  0  0
   -7.6645    3.7280   -0.1933 H   0  0  0  0  0  0  0  0  0  0  0  0
   -9.8966    4.8194   -0.1897 H   0  0  0  0  0  0  0  0  0  0  0  0
  -10.1923    4.2334   -4.4367 H   0  0  0  0  0  0  0  0  0  0  0  0
   -7.9554    3.1411   -4.4404 H   0  0  0  0  0  0  0  0  0  0  0  0
   -6.0839    2.6205   -2.3264 S   0  0  0  0  0  0  0  0  0  0  0  0
   -5.8038    2.0344   -1.0140 O   0  0  0  0  0  0  0  0  0  0  0  0
   -5.1620    3.9754   -2.4640 O   0  0  0  0  0  0  0  0  0  0  0  0
   -5.9374    1.8207   -3.5383 O   0  0  0  0  0  0  0  0  0  0  0  0
  -11.5682    5.2487   -2.3012 C   0  0  0  0  0  0  0  0  0  0  0  0
  -12.3063    4.5885   -1.8303 H   0  0  0  0  0  0  0  0  0  0  0  0
  -11.5626    6.1835   -1.7316 H   0  0  0  0  0  0  0  0  0  0  0  0
  -11.9176    5.4691   -3.3127 H   0  0  0  0  0  0  0  0  0  0  0  0
  1  2  1  0  0  0  0
  1 10  2  0  0  0  0
  3  2  1  0  0  0  0
  4  5  2  0  0  0  0
  4  1  1  0  0  0  0
  5  6  1  0  0  0  0
  6  9  2  0  0  0  0
  7  6  1  0  0  0  0
  7  8  1  0  0  0  0
  8 15  1  0  0  0  0
  9 10  1  0  0  0  0
  9 16  1  0  0  0  0
 10 17  1  0  0  0  0
 12  5  1  0  0  0  0
 13  8  1  0  0  0  0
 14  8  1  0  0  0  0
 18 24  1  0  0  0  0
 19 18  1  0  0  0  0
 19 25  1  0  0  0  0
 20 32  1  0  0  0  0
 20 19  2  0  0  0  0
 21 20  1  0  0  0  0
 22 21  2  0  0  0  0
 22 23  1  0  0  0  0
 23 18  2  0  0  0  0
 26 21  1  0  0  0  0
 27 22  1  0  0  0  0
 28 23  1  0  0  0  0
 28 29  2  0  0  0  0
 30 28  1  0  0  0  0
 30 11  1  0  0  0  0
 31 28  2  0  0  0  0
 32 33  1  0  0  0  0
 32 34  1  0  0  0  0
 35 32  1  0  0  0  0
M  RAD  3   2   2   3   3   4   2
M  END
