Coordinates from ORCA-job 4-MeOPhN2+~TsO-_B3LYPG-6-31G_dp-CH-Scan-d09-49-n800
 OpenBabel11261919313D

 35 35  0  0  0  0  0  0  0  0999 V2000
   -2.0028   -0.2543   -0.1109 C   0  0  0  0  0  0  0  0  0  0  0  0
   -3.3511   -0.4798    0.0760 N   0  0  0  0  0  0  0  0  0  0  0  0
   -4.4534   -0.6279    0.2163 N   0  0  0  0  0  0  0  0  0  0  0  0
   -1.6813    1.0389   -0.5871 C   0  0  0  0  0  0  0  0  0  0  0  0
   -0.2873    1.1622   -0.7388 C   0  0  0  0  0  0  0  0  0  0  0  0
    0.6324    0.1400   -0.4583 C   0  0  0  0  0  0  0  0  0  0  0  0
    1.9399    0.4341   -0.6660 O   0  0  0  0  0  0  0  0  0  0  0  0
    2.9323   -0.5542   -0.4189 C   0  0  0  0  0  0  0  0  0  0  0  0
    0.2010   -1.1308    0.0180 C   0  0  0  0  0  0  0  0  0  0  0  0
   -1.1454   -1.3433    0.1999 C   0  0  0  0  0  0  0  0  0  0  0  0
   -4.0990    3.4003   -1.6005 H   0  0  0  0  0  0  0  0  0  0  0  0
    0.1471    2.0956   -1.0988 H   0  0  0  0  0  0  0  0  0  0  0  0
    3.8865   -0.0861   -0.6643 H   0  0  0  0  0  0  0  0  0  0  0  0
    2.7910   -1.4367   -1.0542 H   0  0  0  0  0  0  0  0  0  0  0  0
    2.9433   -0.8624    0.6337 H   0  0  0  0  0  0  0  0  0  0  0  0
    0.9074   -1.9213    0.2372 H   0  0  0  0  0  0  0  0  0  0  0  0
   -1.5237   -2.2961    0.5629 H   0  0  0  0  0  0  0  0  0  0  0  0
   -8.2100    3.7018   -0.9669 C   0  0  0  0  0  0  0  0  0  0  0  0
   -9.4166    4.3719   -1.1442 C   0  0  0  0  0  0  0  0  0  0  0  0
   -9.9424    4.5943   -2.4271 C   0  0  0  0  0  0  0  0  0  0  0  0
   -9.2254    4.1248   -3.5357 C   0  0  0  0  0  0  0  0  0  0  0  0
   -8.0150    3.4509   -3.3795 C   0  0  0  0  0  0  0  0  0  0  0  0
   -7.5178    3.2506   -2.0925 C   0  0  0  0  0  0  0  0  0  0  0  0
   -7.8091    3.5196    0.0241 H   0  0  0  0  0  0  0  0  0  0  0  0
   -9.9621    4.7267   -0.2740 H   0  0  0  0  0  0  0  0  0  0  0  0
   -9.6202    4.2862   -4.5349 H   0  0  0  0  0  0  0  0  0  0  0  0
   -7.4644    3.0777   -4.2356 H   0  0  0  0  0  0  0  0  0  0  0  0
   -5.9742    2.3891   -1.8816 S   0  0  0  0  0  0  0  0  0  0  0  0
   -5.9318    1.7684   -0.5557 O   0  0  0  0  0  0  0  0  0  0  0  0
   -4.9869    3.6986   -1.8698 O   0  0  0  0  0  0  0  0  0  0  0  0
   -5.6956    1.5881   -3.0710 O   0  0  0  0  0  0  0  0  0  0  0  0
  -11.2637    5.3036   -2.6001 C   0  0  0  0  0  0  0  0  0  0  0  0
  -12.0980    4.6533   -2.3109 H   0  0  0  0  0  0  0  0  0  0  0  0
  -11.3199    6.1987   -1.9730 H   0  0  0  0  0  0  0  0  0  0  0  0
  -11.4237    5.6050   -3.6382 H   0  0  0  0  0  0  0  0  0  0  0  0
  1  2  1  0  0  0  0
  1 10  2  0  0  0  0
  2  3  1  0  0  0  0
  4  1  1  0  0  0  0
  5  4  2  0  0  0  0
  5  6  1  0  0  0  0
  6  9  2  0  0  0  0
  7  6  1  0  0  0  0
  7  8  1  0  0  0  0
  8 15  1  0  0  0  0
  9 10  1  0  0  0  0
  9 16  1  0  0  0  0
 10 17  1  0  0  0  0
 12  5  1  0  0  0  0
 13  8  1  0  0  0  0
 14  8  1  0  0  0  0
 18 24  1  0  0  0  0
 19 18  1  0  0  0  0
 19 25  1  0  0  0  0
 20 19  2  0  0  0  0
 21 22  2  0  0  0  0
 21 20  1  0  0  0  0
 22 23  1  0  0  0  0
 23 28  1  0  0  0  0
 23 18  2  0  0  0  0
 26 21  1  0  0  0  0
 27 22  1  0  0  0  0
 28 30  1  0  0  0  0
 28 29  2  0  0  0  0
 30 11  1  0  0  0  0
 31 28  2  0  0  0  0
 32 20  1  0  0  0  0
 32 33  1  0  0  0  0
 32 34  1  0  0  0  0
 35 32  1  0  0  0  0
M  RAD  3   2   2   3   3   4   2
M  END
