Coordinates from ORCA-job 4-MeOPhN2+~TsO-_B3LYPG-6-31G_dp-CH-Scan-d09-49-n800
 OpenBabel11261919313D

 35 35  0  0  0  0  0  0  0  0999 V2000
   -1.9796   -0.2475   -0.1165 C   0  0  0  0  0  0  0  0  0  0  0  0
   -3.3319   -0.4587    0.0589 N   0  0  0  0  0  0  0  0  0  0  0  0
   -4.4368   -0.5921    0.1937 N   0  0  0  0  0  0  0  0  0  0  0  0
   -1.6419    1.0457   -0.5813 C   0  0  0  0  0  0  0  0  0  0  0  0
   -0.2454    1.1546   -0.7230 C   0  0  0  0  0  0  0  0  0  0  0  0
    0.6613    0.1205   -0.4442 C   0  0  0  0  0  0  0  0  0  0  0  0
    1.9733    0.4016   -0.6420 O   0  0  0  0  0  0  0  0  0  0  0  0
    2.9532   -0.5993   -0.3963 C   0  0  0  0  0  0  0  0  0  0  0  0
    0.2132   -1.1490    0.0206 C   0  0  0  0  0  0  0  0  0  0  0  0
   -1.1366   -1.3482    0.1924 C   0  0  0  0  0  0  0  0  0  0  0  0
   -4.1085    3.4758   -1.6318 H   0  0  0  0  0  0  0  0  0  0  0  0
    0.2016    2.0856   -1.0736 H   0  0  0  0  0  0  0  0  0  0  0  0
    3.9140   -0.1403   -0.6334 H   0  0  0  0  0  0  0  0  0  0  0  0
    2.8057   -1.4759   -1.0382 H   0  0  0  0  0  0  0  0  0  0  0  0
    2.9553   -0.9147    0.6542 H   0  0  0  0  0  0  0  0  0  0  0  0
    0.9097   -1.9485    0.2387 H   0  0  0  0  0  0  0  0  0  0  0  0
   -1.5274   -2.2992    0.5464 H   0  0  0  0  0  0  0  0  0  0  0  0
   -8.2152    3.7248   -0.9741 C   0  0  0  0  0  0  0  0  0  0  0  0
   -9.4320    4.3780   -1.1448 C   0  0  0  0  0  0  0  0  0  0  0  0
   -9.9720    4.5854   -2.4244 C   0  0  0  0  0  0  0  0  0  0  0  0
   -9.2588    4.1180   -3.5364 C   0  0  0  0  0  0  0  0  0  0  0  0
   -8.0384    3.4611   -3.3868 C   0  0  0  0  0  0  0  0  0  0  0  0
   -7.5272    3.2756   -2.1031 C   0  0  0  0  0  0  0  0  0  0  0  0
   -7.8033    3.5544    0.0144 H   0  0  0  0  0  0  0  0  0  0  0  0
   -9.9743    4.7315   -0.2721 H   0  0  0  0  0  0  0  0  0  0  0  0
   -9.6646    4.2678   -4.5330 H   0  0  0  0  0  0  0  0  0  0  0  0
   -7.4905    3.0896   -4.2454 H   0  0  0  0  0  0  0  0  0  0  0  0
   -5.9705    2.4363   -1.9004 S   0  0  0  0  0  0  0  0  0  0  0  0
   -5.9080    1.8229   -0.5722 O   0  0  0  0  0  0  0  0  0  0  0  0
   -5.0006    3.7598   -1.9016 O   0  0  0  0  0  0  0  0  0  0  0  0
   -5.6895    1.6348   -3.0888 O   0  0  0  0  0  0  0  0  0  0  0  0
  -11.3039    5.2764   -2.5900 C   0  0  0  0  0  0  0  0  0  0  0  0
  -12.1276    4.6149   -2.2958 H   0  0  0  0  0  0  0  0  0  0  0  0
  -11.3686    6.1709   -1.9630 H   0  0  0  0  0  0  0  0  0  0  0  0
  -11.4741    5.5749   -3.6274 H   0  0  0  0  0  0  0  0  0  0  0  0
  1  2  1  0  0  0  0
  1 10  2  0  0  0  0
  2  3  1  0  0  0  0
  4  1  1  0  0  0  0
  5  4  2  0  0  0  0
  5  6  1  0  0  0  0
  6  9  2  0  0  0  0
  7  6  1  0  0  0  0
  7  8  1  0  0  0  0
  8 15  1  0  0  0  0
  9 10  1  0  0  0  0
  9 16  1  0  0  0  0
 10 17  1  0  0  0  0
 12  5  1  0  0  0  0
 13  8  1  0  0  0  0
 14  8  1  0  0  0  0
 18 24  1  0  0  0  0
 19 18  1  0  0  0  0
 19 25  1  0  0  0  0
 20 19  2  0  0  0  0
 21 22  2  0  0  0  0
 21 20  1  0  0  0  0
 22 23  1  0  0  0  0
 23 28  1  0  0  0  0
 23 18  2  0  0  0  0
 26 21  1  0  0  0  0
 27 22  1  0  0  0  0
 28 29  2  0  0  0  0
 30 28  1  0  0  0  0
 30 11  1  0  0  0  0
 31 28  2  0  0  0  0
 32 20  1  0  0  0  0
 32 33  1  0  0  0  0
 32 34  1  0  0  0  0
 35 32  1  0  0  0  0
M  RAD  3   2   2   3   3   4   2
M  END
