Coordinates from ORCA-job 4-MeOPhN2+~TsO-_B3LYPG-6-31G_dp-CH-Scan-d09-49-n800
 OpenBabel11261919313D

 35 35  0  0  0  0  0  0  0  0999 V2000
   -1.6709   -0.3290   -0.5746 C   0  0  0  0  0  0  0  0  0  0  0  0
   -3.0215   -0.5277   -0.7818 N   0  0  0  0  0  0  0  0  0  0  0  0
   -4.1209   -0.6458   -0.9707 N   0  0  0  0  0  0  0  0  0  0  0  0
   -1.2047    0.9401   -0.9907 C   0  0  0  0  0  0  0  0  0  0  0  0
    0.1781    1.0428   -0.7398 C   0  0  0  0  0  0  0  0  0  0  0  0
    0.9562    0.0274   -0.1640 C   0  0  0  0  0  0  0  0  0  0  0  0
    2.2750    0.3005    0.0030 O   0  0  0  0  0  0  0  0  0  0  0  0
    3.1307   -0.6789    0.5779 C   0  0  0  0  0  0  0  0  0  0  0  0
    0.3805   -1.2184    0.2190 C   0  0  0  0  0  0  0  0  0  0  0  0
   -0.9651   -1.4129    0.0131 C   0  0  0  0  0  0  0  0  0  0  0  0
   -4.3862    3.5226   -2.7879 H   0  0  0  0  0  0  0  0  0  0  0  0
    0.7175    1.9559   -0.9967 H   0  0  0  0  0  0  0  0  0  0  0  0
    4.1237   -0.2279    0.6051 H   0  0  0  0  0  0  0  0  0  0  0  0
    3.1670   -1.5918   -0.0289 H   0  0  0  0  0  0  0  0  0  0  0  0
    2.8248   -0.9349    1.5995 H   0  0  0  0  0  0  0  0  0  0  0  0
    0.9793   -2.0036    0.6626 H   0  0  0  0  0  0  0  0  0  0  0  0
   -1.4509   -2.3464    0.2881 H   0  0  0  0  0  0  0  0  0  0  0  0
   -8.0507    3.7921   -1.2533 C   0  0  0  0  0  0  0  0  0  0  0  0
   -9.2448    4.4759   -1.0438 C   0  0  0  0  0  0  0  0  0  0  0  0
  -10.1547    4.6866   -2.0916 C   0  0  0  0  0  0  0  0  0  0  0  0
   -9.8379    4.1912   -3.3640 C   0  0  0  0  0  0  0  0  0  0  0  0
   -8.6484    3.5023   -3.5945 C   0  0  0  0  0  0  0  0  0  0  0  0
   -7.7634    3.3142   -2.5334 C   0  0  0  0  0  0  0  0  0  0  0  0
   -7.3533    3.6193   -0.4407 H   0  0  0  0  0  0  0  0  0  0  0  0
   -9.4757    4.8518   -0.0507 H   0  0  0  0  0  0  0  0  0  0  0  0
  -10.5322    4.3446   -4.1858 H   0  0  0  0  0  0  0  0  0  0  0  0
   -8.4084    3.1088   -4.5759 H   0  0  0  0  0  0  0  0  0  0  0  0
   -6.2362    2.4438   -2.8167 S   0  0  0  0  0  0  0  0  0  0  0  0
   -5.7478    1.8675   -1.5618 O   0  0  0  0  0  0  0  0  0  0  0  0
   -5.2601    3.7206   -3.1678 O   0  0  0  0  0  0  0  0  0  0  0  0
   -6.3723    1.6207   -4.0126 O   0  0  0  0  0  0  0  0  0  0  0  0
  -11.4577    5.4065   -1.8426 C   0  0  0  0  0  0  0  0  0  0  0  0
  -12.2042    4.7266   -1.4132 H   0  0  0  0  0  0  0  0  0  0  0  0
  -11.3284    6.2330   -1.1371 H   0  0  0  0  0  0  0  0  0  0  0  0
  -11.8762    5.8097   -2.7683 H   0  0  0  0  0  0  0  0  0  0  0  0
  1 10  2  0  0  0  0
  2  1  1  0  0  0  0
  3  2  1  0  0  0  0
  4  5  2  0  0  0  0
  4  1  1  0  0  0  0
  5  6  1  0  0  0  0
  6  7  1  0  0  0  0
  6  9  2  0  0  0  0
  7  8  1  0  0  0  0
  8 13  1  0  0  0  0
  8 15  1  0  0  0  0
  9 16  1  0  0  0  0
 10  9  1  0  0  0  0
 10 17  1  0  0  0  0
 12  5  1  0  0  0  0
 14  8  1  0  0  0  0
 18 19  1  0  0  0  0
 18 24  1  0  0  0  0
 19 25  1  0  0  0  0
 20 32  1  0  0  0  0
 20 19  2  0  0  0  0
 21 20  1  0  0  0  0
 22 21  2  0  0  0  0
 22 23  1  0  0  0  0
 23 18  2  0  0  0  0
 26 21  1  0  0  0  0
 27 22  1  0  0  0  0
 28 23  1  0  0  0  0
 28 29  2  0  0  0  0
 30 28  1  0  0  0  0
 30 11  1  0  0  0  0
 31 28  2  0  0  0  0
 32 33  1  0  0  0  0
 32 34  1  0  0  0  0
 35 32  1  0  0  0  0
M  RAD  3   2   2   3   3   4   2
M  END
