Coordinates from ORCA-job 4-MeOPhN2+~TsO-_B3LYPG-6-31G_dp-CH-Scan-d09-49-n800
 OpenBabel11261919313D

 35 35  0  0  0  0  0  0  0  0999 V2000
   -2.0289   -0.2630   -0.1091 C   0  0  0  0  0  0  0  0  0  0  0  0
   -3.3726   -0.5054    0.0865 N   0  0  0  0  0  0  0  0  0  0  0  0
   -4.4716   -0.6668    0.2377 N   0  0  0  0  0  0  0  0  0  0  0  0
   -1.7249    1.0312   -0.5948 C   0  0  0  0  0  0  0  0  0  0  0  0
   -0.3336    1.1712   -0.7540 C   0  0  0  0  0  0  0  0  0  0  0  0
    0.6002    0.1624   -0.4714 C   0  0  0  0  0  0  0  0  0  0  0  0
    1.9028    0.4719   -0.6866 O   0  0  0  0  0  0  0  0  0  0  0  0
    2.9089   -0.5021   -0.4373 C   0  0  0  0  0  0  0  0  0  0  0  0
    0.1870   -1.1107    0.0144 C   0  0  0  0  0  0  0  0  0  0  0  0
   -1.1558   -1.3388    0.2039 C   0  0  0  0  0  0  0  0  0  0  0  0
   -4.0889    3.3130   -1.5730 H   0  0  0  0  0  0  0  0  0  0  0  0
    0.0871    2.1076   -1.1219 H   0  0  0  0  0  0  0  0  0  0  0  0
    3.8560   -0.0231   -0.6891 H   0  0  0  0  0  0  0  0  0  0  0  0
    2.7767   -1.3900   -1.0670 H   0  0  0  0  0  0  0  0  0  0  0  0
    2.9276   -0.8039    0.6170 H   0  0  0  0  0  0  0  0  0  0  0  0
    0.9042   -1.8910    0.2350 H   0  0  0  0  0  0  0  0  0  0  0  0
   -1.5204   -2.2941    0.5741 H   0  0  0  0  0  0  0  0  0  0  0  0
   -8.2003    3.6786   -0.9604 C   0  0  0  0  0  0  0  0  0  0  0  0
   -9.3953    4.3681   -1.1424 C   0  0  0  0  0  0  0  0  0  0  0  0
   -9.9089    4.6046   -2.4278 C   0  0  0  0  0  0  0  0  0  0  0  0
   -9.1917    4.1295   -3.5338 C   0  0  0  0  0  0  0  0  0  0  0  0
   -7.9929    3.4363   -3.3727 C   0  0  0  0  0  0  0  0  0  0  0  0
   -7.5076    3.2221   -2.0835 C   0  0  0  0  0  0  0  0  0  0  0  0
   -7.8090    3.4855    0.0323 H   0  0  0  0  0  0  0  0  0  0  0  0
   -9.9412    4.7271   -0.2742 H   0  0  0  0  0  0  0  0  0  0  0  0
   -9.5773    4.3016   -4.5348 H   0  0  0  0  0  0  0  0  0  0  0  0
   -7.4424    3.0585   -4.2269 H   0  0  0  0  0  0  0  0  0  0  0  0
   -5.9791    2.3352   -1.8666 S   0  0  0  0  0  0  0  0  0  0  0  0
   -5.9562    1.7078   -0.5433 O   0  0  0  0  0  0  0  0  0  0  0  0
   -4.9714    3.6275   -1.8431 O   0  0  0  0  0  0  0  0  0  0  0  0
   -5.7068    1.5340   -3.0575 O   0  0  0  0  0  0  0  0  0  0  0  0
  -11.2180    5.3349   -2.6060 C   0  0  0  0  0  0  0  0  0  0  0  0
  -12.0637    4.6986   -2.3187 H   0  0  0  0  0  0  0  0  0  0  0  0
  -11.2621    6.2317   -1.9804 H   0  0  0  0  0  0  0  0  0  0  0  0
  -11.3697    5.6375   -3.6451 H   0  0  0  0  0  0  0  0  0  0  0  0
  1  2  1  0  0  0  0
  1 10  2  0  0  0  0
  2  3  1  0  0  0  0
  4  1  1  0  0  0  0
  5  4  2  0  0  0  0
  5  6  1  0  0  0  0
  6  9  2  0  0  0  0
  7  6  1  0  0  0  0
  7  8  1  0  0  0  0
  8 15  1  0  0  0  0
  9 10  1  0  0  0  0
  9 16  1  0  0  0  0
 10 17  1  0  0  0  0
 12  5  1  0  0  0  0
 13  8  1  0  0  0  0
 14  8  1  0  0  0  0
 18 24  1  0  0  0  0
 19 18  1  0  0  0  0
 19 25  1  0  0  0  0
 20 19  2  0  0  0  0
 21 22  2  0  0  0  0
 21 20  1  0  0  0  0
 22 23  1  0  0  0  0
 23 28  1  0  0  0  0
 23 18  2  0  0  0  0
 26 21  1  0  0  0  0
 27 22  1  0  0  0  0
 28 30  1  0  0  0  0
 28 29  2  0  0  0  0
 30 11  1  0  0  0  0
 31 28  2  0  0  0  0
 32 20  1  0  0  0  0
 32 33  1  0  0  0  0
 32 34  1  0  0  0  0
 35 32  1  0  0  0  0
M  RAD  3   2   2   3   3   4   2
M  END
