Coordinates from ORCA-job 4-MeOPhN2+~TsO-_B3LYPG-6-31G_dp-CH-Scan-d09-49-n800
 OpenBabel11261919303D

 35 35  0  0  0  0  0  0  0  0999 V2000
   -2.7866   -0.0819   -0.3697 C   0  0  0  0  0  0  0  0  0  0  0  0
   -4.1470   -0.3527   -0.3796 N   0  0  0  0  0  0  0  0  0  0  0  0
   -5.2406   -0.0171   -0.3891 N   0  0  0  0  0  0  0  0  0  0  0  0
   -2.3180    1.2497   -0.3155 C   0  0  0  0  0  0  0  0  0  0  0  0
   -0.9520    1.4497   -0.3122 C   0  0  0  0  0  0  0  0  0  0  0  0
   -0.0556    0.3620   -0.3633 C   0  0  0  0  0  0  0  0  0  0  0  0
    1.2499    0.6884   -0.3553 O   0  0  0  0  0  0  0  0  0  0  0  0
    2.2292   -0.3466   -0.4205 C   0  0  0  0  0  0  0  0  0  0  0  0
   -0.5434   -0.9575   -0.4170 C   0  0  0  0  0  0  0  0  0  0  0  0
   -1.9129   -1.1752   -0.4193 C   0  0  0  0  0  0  0  0  0  0  0  0
   -2.9268    1.9785   -0.2858 H   0  0  0  0  0  0  0  0  0  0  0  0
   -0.5449    2.4543   -0.2787 H   0  0  0  0  0  0  0  0  0  0  0  0
    3.1942    0.1593   -0.4046 H   0  0  0  0  0  0  0  0  0  0  0  0
    2.1358   -0.9238   -1.3476 H   0  0  0  0  0  0  0  0  0  0  0  0
    2.1559   -1.0187    0.4426 H   0  0  0  0  0  0  0  0  0  0  0  0
    0.1303   -1.8034   -0.4582 H   0  0  0  0  0  0  0  0  0  0  0  0
   -2.3145   -2.1817   -0.4637 H   0  0  0  0  0  0  0  0  0  0  0  0
   -7.1638    4.5965   -1.5788 C   0  0  0  0  0  0  0  0  0  0  0  0
   -8.4464    5.0974   -1.7927 C   0  0  0  0  0  0  0  0  0  0  0  0
   -9.4280    4.3283   -2.4345 C   0  0  0  0  0  0  0  0  0  0  0  0
   -9.0853    3.0406   -2.8695 C   0  0  0  0  0  0  0  0  0  0  0  0
   -7.8063    2.5258   -2.6618 C   0  0  0  0  0  0  0  0  0  0  0  0
   -6.8511    3.3068   -2.0111 C   0  0  0  0  0  0  0  0  0  0  0  0
   -6.3994    5.1995   -1.1008 H   0  0  0  0  0  0  0  0  0  0  0  0
   -8.6882    6.1048   -1.4634 H   0  0  0  0  0  0  0  0  0  0  0  0
   -9.8283    2.4351   -3.3831 H   0  0  0  0  0  0  0  0  0  0  0  0
   -7.5363    1.5370   -3.0158 H   0  0  0  0  0  0  0  0  0  0  0  0
   -5.2117    2.6424   -1.7063 S   0  0  0  0  0  0  0  0  0  0  0  0
   -5.2965    2.0175   -0.2914 O   0  0  0  0  0  0  0  0  0  0  0  0
   -4.2792    3.7859   -1.6740 O   0  0  0  0  0  0  0  0  0  0  0  0
   -4.9661    1.5885   -2.7141 O   0  0  0  0  0  0  0  0  0  0  0  0
  -10.8238    4.8688   -2.6360 C   0  0  0  0  0  0  0  0  0  0  0  0
  -11.4579    4.6626   -1.7637 H   0  0  0  0  0  0  0  0  0  0  0  0
  -10.8162    5.9537   -2.7813 H   0  0  0  0  0  0  0  0  0  0  0  0
  -11.3083    4.4131   -3.5045 H   0  0  0  0  0  0  0  0  0  0  0  0
  1  4  2  0  0  0  0
  2  1  1  0  0  0  0
  3  2  2  0  0  0  0
  4  5  1  0  0  0  0
  4 11  1  0  0  0  0
  5 12  1  0  0  0  0
  6  7  1  0  0  0  0
  6  5  2  0  0  0  0
  8 13  1  0  0  0  0
  8  7  1  0  0  0  0
  8 15  1  0  0  0  0
  9  6  1  0  0  0  0
 10  9  2  0  0  0  0
 10  1  1  0  0  0  0
 14  8  1  0  0  0  0
 16  9  1  0  0  0  0
 17 10  1  0  0  0  0
 18 24  1  0  0  0  0
 19 18  1  0  0  0  0
 19 25  1  0  0  0  0
 20 19  2  0  0  0  0
 21 22  2  0  0  0  0
 21 20  1  0  0  0  0
 22 23  1  0  0  0  0
 23 28  1  0  0  0  0
 23 18  2  0  0  0  0
 26 21  1  0  0  0  0
 27 22  1  0  0  0  0
 28 30  2  0  0  0  0
 28 29  1  0  0  0  0
 31 28  2  0  0  0  0
 32 20  1  0  0  0  0
 32 33  1  0  0  0  0
 34 32  1  0  0  0  0
 35 32  1  0  0  0  0
M  RAD  2   3   2  29   2
M  END
