Coordinates from ORCA-job 4-MeOPhN2+~TsO-_B3LYPG-6-31G_dp-CH-Scan-d09-49-n800
 OpenBabel11261919303D

 35 35  0  0  0  0  0  0  0  0999 V2000
   -2.5986   -0.4361   -0.6245 C   0  0  0  0  0  0  0  0  0  0  0  0
   -3.8663   -0.9678   -0.7103 N   0  0  0  0  0  0  0  0  0  0  0  0
   -4.9616   -1.1993   -0.8062 N   0  0  0  0  0  0  0  0  0  0  0  0
   -2.4044    0.9030   -1.0285 C   0  0  0  0  0  0  0  0  0  0  0  0
   -1.1145    1.3903   -0.9211 C   0  0  0  0  0  0  0  0  0  0  0  0
   -0.0610    0.5899   -0.4333 C   0  0  0  0  0  0  0  0  0  0  0  0
    1.1435    1.1847   -0.3787 O   0  0  0  0  0  0  0  0  0  0  0  0
    2.2741    0.4502    0.0915 C   0  0  0  0  0  0  0  0  0  0  0  0
   -0.2948   -0.7488   -0.0425 C   0  0  0  0  0  0  0  0  0  0  0  0
   -1.5711   -1.2692   -0.1431 C   0  0  0  0  0  0  0  0  0  0  0  0
   -3.3986    1.6163   -1.5117 H   0  0  0  0  0  0  0  0  0  0  0  0
   -0.8835    2.4079   -1.2182 H   0  0  0  0  0  0  0  0  0  0  0  0
    3.1172    1.1381    0.0298 H   0  0  0  0  0  0  0  0  0  0  0  0
    2.4699   -0.4237   -0.5397 H   0  0  0  0  0  0  0  0  0  0  0  0
    2.1374    0.1334    1.1313 H   0  0  0  0  0  0  0  0  0  0  0  0
    0.5068   -1.3726    0.3302 H   0  0  0  0  0  0  0  0  0  0  0  0
   -1.7812   -2.2929    0.1481 H   0  0  0  0  0  0  0  0  0  0  0  0
   -7.0677    3.9714   -1.4086 C   0  0  0  0  0  0  0  0  0  0  0  0
   -8.1084    4.8950   -1.4361 C   0  0  0  0  0  0  0  0  0  0  0  0
   -9.2510    4.6781   -2.2230 C   0  0  0  0  0  0  0  0  0  0  0  0
   -9.3164    3.5097   -2.9906 C   0  0  0  0  0  0  0  0  0  0  0  0
   -8.2794    2.5748   -2.9736 C   0  0  0  0  0  0  0  0  0  0  0  0
   -7.1598    2.8094   -2.1792 C   0  0  0  0  0  0  0  0  0  0  0  0
   -6.1801    4.1513   -0.8114 H   0  0  0  0  0  0  0  0  0  0  0  0
   -8.0337    5.8031   -0.8420 H   0  0  0  0  0  0  0  0  0  0  0  0
  -10.1888    3.3282   -3.6141 H   0  0  0  0  0  0  0  0  0  0  0  0
   -8.3213    1.6739   -3.5761 H   0  0  0  0  0  0  0  0  0  0  0  0
   -5.8506    1.5837   -2.1172 S   0  0  0  0  0  0  0  0  0  0  0  0
   -5.9882    0.8996   -0.7830 O   0  0  0  0  0  0  0  0  0  0  0  0
   -4.5716    2.3938   -2.1556 O   0  0  0  0  0  0  0  0  0  0  0  0
   -6.0288    0.6808   -3.2710 O   0  0  0  0  0  0  0  0  0  0  0  0
  -10.3789    5.6827   -2.2304 C   0  0  0  0  0  0  0  0  0  0  0  0
  -10.8986    5.7042   -1.2644 H   0  0  0  0  0  0  0  0  0  0  0  0
  -10.0101    6.6974   -2.4176 H   0  0  0  0  0  0  0  0  0  0  0  0
  -11.1197    5.4470   -2.9995 H   0  0  0  0  0  0  0  0  0  0  0  0
  1 10  2  0  0  0  0
  2  1  1  0  0  0  0
  3  2  1  0  0  0  0
  4  5  2  0  0  0  0
  4  1  1  0  0  0  0
  5  6  1  0  0  0  0
  6  7  1  0  0  0  0
  6  9  2  0  0  0  0
  7  8  1  0  0  0  0
  8 15  1  0  0  0  0
  9 16  1  0  0  0  0
 10  9  1  0  0  0  0
 10 17  1  0  0  0  0
 11  4  1  0  0  0  0
 12  5  1  0  0  0  0
 13  8  1  0  0  0  0
 14  8  1  0  0  0  0
 18 24  1  0  0  0  0
 19 18  1  0  0  0  0
 19 25  1  0  0  0  0
 20 19  2  0  0  0  0
 21 22  2  0  0  0  0
 21 20  1  0  0  0  0
 22 23  1  0  0  0  0
 23 28  1  0  0  0  0
 23 18  2  0  0  0  0
 26 21  1  0  0  0  0
 27 22  1  0  0  0  0
 28 29  1  0  0  0  0
 30 28  2  0  0  0  0
 31 28  2  0  0  0  0
 32 20  1  0  0  0  0
 32 33  1  0  0  0  0
 34 32  1  0  0  0  0
 35 32  1  0  0  0  0
M  RAD  3   2   2   3   3  29   2
M  END
