Coordinates from ORCA-job 4-MeOPhN2+~TsO-_B3LYPG-6-31G_dp-CH-Scan-d09-49-n800
 OpenBabel11261919313D

 35 35  0  0  0  0  0  0  0  0999 V2000
   -2.4223   -0.4319   -0.2002 C   0  0  0  0  0  0  0  0  0  0  0  0
   -3.6813   -0.9397    0.0249 N   0  0  0  0  0  0  0  0  0  0  0  0
   -4.7196   -1.3232    0.1947 N   0  0  0  0  0  0  0  0  0  0  0  0
   -2.3652    0.8298   -0.8422 C   0  0  0  0  0  0  0  0  0  0  0  0
   -1.0403    1.2496   -1.0199 C   0  0  0  0  0  0  0  0  0  0  0  0
    0.0788    0.5044   -0.6114 C   0  0  0  0  0  0  0  0  0  0  0  0
    1.2861    1.0579   -0.8621 O   0  0  0  0  0  0  0  0  0  0  0  0
    2.4733    0.3645   -0.4897 C   0  0  0  0  0  0  0  0  0  0  0  0
   -0.0730   -0.7571    0.0259 C   0  0  0  0  0  0  0  0  0  0  0  0
   -1.3431   -1.2414    0.2390 C   0  0  0  0  0  0  0  0  0  0  0  0
   -4.0028    1.9590   -1.5043 H   0  0  0  0  0  0  0  0  0  0  0  0
   -0.8256    2.2026   -1.5003 H   0  0  0  0  0  0  0  0  0  0  0  0
    3.2996    1.0072   -0.7948 H   0  0  0  0  0  0  0  0  0  0  0  0
    2.5547   -0.5982   -1.0072 H   0  0  0  0  0  0  0  0  0  0  0  0
    2.5216    0.2034    0.5939 H   0  0  0  0  0  0  0  0  0  0  0  0
    0.7846   -1.3364    0.3418 H   0  0  0  0  0  0  0  0  0  0  0  0
   -1.5062   -2.2014    0.7209 H   0  0  0  0  0  0  0  0  0  0  0  0
   -7.8917    3.3778   -0.9113 C   0  0  0  0  0  0  0  0  0  0  0  0
   -8.8754    4.3521   -1.0563 C   0  0  0  0  0  0  0  0  0  0  0  0
   -9.3303    4.7407   -2.3258 C   0  0  0  0  0  0  0  0  0  0  0  0
   -8.7717    4.1252   -3.4537 C   0  0  0  0  0  0  0  0  0  0  0  0
   -7.7858    3.1473   -3.3280 C   0  0  0  0  0  0  0  0  0  0  0  0
   -7.3511    2.7860   -2.0540 C   0  0  0  0  0  0  0  0  0  0  0  0
   -7.5490    3.0683    0.0698 H   0  0  0  0  0  0  0  0  0  0  0  0
   -9.3000    4.8175   -0.1707 H   0  0  0  0  0  0  0  0  0  0  0  0
   -9.1142    4.4130   -4.4440 H   0  0  0  0  0  0  0  0  0  0  0  0
   -7.3608    2.6618   -4.1993 H   0  0  0  0  0  0  0  0  0  0  0  0
   -6.0858    1.5398   -1.8832 S   0  0  0  0  0  0  0  0  0  0  0  0
   -6.2425    0.8745   -0.5805 O   0  0  0  0  0  0  0  0  0  0  0  0
   -4.7946    2.4939   -1.8302 O   0  0  0  0  0  0  0  0  0  0  0  0
   -6.0613    0.7186   -3.0953 O   0  0  0  0  0  0  0  0  0  0  0  0
  -10.4178    5.7786   -2.4665 C   0  0  0  0  0  0  0  0  0  0  0  0
  -11.4055    5.3416   -2.2737 H   0  0  0  0  0  0  0  0  0  0  0  0
  -10.2832    6.5980   -1.7532 H   0  0  0  0  0  0  0  0  0  0  0  0
  -10.4383    6.2038   -3.4734 H   0  0  0  0  0  0  0  0  0  0  0  0
  1  2  1  0  0  0  0
  1 10  2  0  0  0  0
  2  3  1  0  0  0  0
  4  1  1  0  0  0  0
  5  4  2  0  0  0  0
  5  6  1  0  0  0  0
  6  9  2  0  0  0  0
  7  6  1  0  0  0  0
  7  8  1  0  0  0  0
  8 15  1  0  0  0  0
  9 10  1  0  0  0  0
  9 16  1  0  0  0  0
 10 17  1  0  0  0  0
 12  5  1  0  0  0  0
 13  8  1  0  0  0  0
 14  8  1  0  0  0  0
 18 24  1  0  0  0  0
 19 18  1  0  0  0  0
 19 25  1  0  0  0  0
 20 19  2  0  0  0  0
 21 22  2  0  0  0  0
 21 20  1  0  0  0  0
 22 23  1  0  0  0  0
 23 28  1  0  0  0  0
 23 18  2  0  0  0  0
 26 21  1  0  0  0  0
 27 22  1  0  0  0  0
 28 30  1  0  0  0  0
 28 29  2  0  0  0  0
 30 11  1  0  0  0  0
 31 28  2  0  0  0  0
 32 20  1  0  0  0  0
 32 33  1  0  0  0  0
 32 34  1  0  0  0  0
 35 32  1  0  0  0  0
M  RAD  3   2   2   3   3   4   2
M  END
