Coordinates from ORCA-job 4-MeOPhN2+~TsO-_B3LYPG-6-31G_dp-CH-Scan-d09-49-n800
 OpenBabel11261919313D

 35 35  0  0  0  0  0  0  0  0999 V2000
   -2.1652   -0.3274   -0.1158 C   0  0  0  0  0  0  0  0  0  0  0  0
   -3.4807   -0.6703    0.1095 N   0  0  0  0  0  0  0  0  0  0  0  0
   -4.5593   -0.9193    0.2836 N   0  0  0  0  0  0  0  0  0  0  0  0
   -1.9620    0.9612   -0.6658 C   0  0  0  0  0  0  0  0  0  0  0  0
   -0.5905    1.2051   -0.8510 C   0  0  0  0  0  0  0  0  0  0  0  0
    0.4232    0.2878   -0.5313 C   0  0  0  0  0  0  0  0  0  0  0  0
    1.6934    0.6892   -0.7765 O   0  0  0  0  0  0  0  0  0  0  0  0
    2.7785   -0.1844   -0.4849 C   0  0  0  0  0  0  0  0  0  0  0  0
    0.1154   -0.9880    0.0192 C   0  0  0  0  0  0  0  0  0  0  0  0
   -1.2036   -1.3117    0.2355 C   0  0  0  0  0  0  0  0  0  0  0  0
   -4.0655    2.7744   -1.4744 H   0  0  0  0  0  0  0  0  0  0  0  0
   -0.2508    2.1531   -1.2678 H   0  0  0  0  0  0  0  0  0  0  0  0
    3.6813    0.3592   -0.7660 H   0  0  0  0  0  0  0  0  0  0  0  0
    2.7194   -1.1102   -1.0689 H   0  0  0  0  0  0  0  0  0  0  0  0
    2.8234   -0.4295    0.5832 H   0  0  0  0  0  0  0  0  0  0  0  0
    0.8937   -1.6978    0.2681 H   0  0  0  0  0  0  0  0  0  0  0  0
   -1.4874   -2.2741    0.6540 H   0  0  0  0  0  0  0  0  0  0  0  0
   -8.1174    3.5566   -0.9462 C   0  0  0  0  0  0  0  0  0  0  0  0
   -9.2361    4.3649   -1.1227 C   0  0  0  0  0  0  0  0  0  0  0  0
   -9.7136    4.6737   -2.4067 C   0  0  0  0  0  0  0  0  0  0  0  0
   -9.0384    4.1490   -3.5163 C   0  0  0  0  0  0  0  0  0  0  0  0
   -7.9151    3.3376   -3.3603 C   0  0  0  0  0  0  0  0  0  0  0  0
   -7.4636    3.0533   -2.0728 C   0  0  0  0  0  0  0  0  0  0  0  0
   -7.7560    3.3074    0.0454 H   0  0  0  0  0  0  0  0  0  0  0  0
   -9.7507    4.7610   -0.2514 H   0  0  0  0  0  0  0  0  0  0  0  0
   -9.3971    4.3757   -4.5164 H   0  0  0  0  0  0  0  0  0  0  0  0
   -7.3975    2.9220   -4.2174 H   0  0  0  0  0  0  0  0  0  0  0  0
   -6.0328    2.0128   -1.8627 S   0  0  0  0  0  0  0  0  0  0  0  0
   -6.1147    1.3239   -0.5710 O   0  0  0  0  0  0  0  0  0  0  0  0
   -4.9082    3.1887   -1.7529 O   0  0  0  0  0  0  0  0  0  0  0  0
   -5.8143    1.2372   -3.0823 O   0  0  0  0  0  0  0  0  0  0  0  0
  -10.9420    5.5344   -2.5792 C   0  0  0  0  0  0  0  0  0  0  0  0
  -11.8474    4.9890   -2.2869 H   0  0  0  0  0  0  0  0  0  0  0  0
  -10.8914    6.4313   -1.9537 H   0  0  0  0  0  0  0  0  0  0  0  0
  -11.0667    5.8515   -3.6174 H   0  0  0  0  0  0  0  0  0  0  0  0
  1  2  1  0  0  0  0
  1 10  2  0  0  0  0
  2  3  1  0  0  0  0
  4  1  1  0  0  0  0
  5  4  2  0  0  0  0
  5  6  1  0  0  0  0
  6  9  2  0  0  0  0
  7  6  1  0  0  0  0
  7  8  1  0  0  0  0
  8 15  1  0  0  0  0
  9 10  1  0  0  0  0
  9 16  1  0  0  0  0
 10 17  1  0  0  0  0
 12  5  1  0  0  0  0
 13  8  1  0  0  0  0
 14  8  1  0  0  0  0
 18 24  1  0  0  0  0
 19 18  1  0  0  0  0
 19 25  1  0  0  0  0
 20 19  2  0  0  0  0
 21 22  2  0  0  0  0
 21 20  1  0  0  0  0
 22 23  1  0  0  0  0
 23 28  1  0  0  0  0
 23 18  2  0  0  0  0
 26 21  1  0  0  0  0
 27 22  1  0  0  0  0
 28 30  1  0  0  0  0
 28 29  2  0  0  0  0
 30 11  1  0  0  0  0
 31 28  2  0  0  0  0
 32 20  1  0  0  0  0
 32 33  1  0  0  0  0
 32 34  1  0  0  0  0
 35 32  1  0  0  0  0
M  RAD  3   2   2   3   3   4   2
M  END
