Coordinates from ORCA-job 4-MeOPhN2+~TsO-_B3LYPG-6-31G_dp-CH-Scan-d09-49-n800
 OpenBabel11261919313D

 35 35  0  0  0  0  0  0  0  0999 V2000
   -2.0351   -0.2653   -0.1087 C   0  0  0  0  0  0  0  0  0  0  0  0
   -3.3777   -0.5120    0.0891 N   0  0  0  0  0  0  0  0  0  0  0  0
   -4.4757   -0.6773    0.2426 N   0  0  0  0  0  0  0  0  0  0  0  0
   -1.7356    1.0289   -0.5971 C   0  0  0  0  0  0  0  0  0  0  0  0
   -0.3451    1.1733   -0.7582 C   0  0  0  0  0  0  0  0  0  0  0  0
    0.5924    0.1681   -0.4746 C   0  0  0  0  0  0  0  0  0  0  0  0
    1.8936    0.4815   -0.6916 O   0  0  0  0  0  0  0  0  0  0  0  0
    2.9033   -0.4887   -0.4413 C   0  0  0  0  0  0  0  0  0  0  0  0
    0.1838   -1.1054    0.0140 C   0  0  0  0  0  0  0  0  0  0  0  0
   -1.1581   -1.3375    0.2053 C   0  0  0  0  0  0  0  0  0  0  0  0
   -4.0872    3.2897   -1.5667 H   0  0  0  0  0  0  0  0  0  0  0  0
    0.0721    2.1104   -1.1283 H   0  0  0  0  0  0  0  0  0  0  0  0
    3.8486   -0.0069   -0.6946 H   0  0  0  0  0  0  0  0  0  0  0  0
    2.7736   -1.3781   -1.0693 H   0  0  0  0  0  0  0  0  0  0  0  0
    2.9237   -0.7884    0.6135 H   0  0  0  0  0  0  0  0  0  0  0  0
    0.9038   -1.8829    0.2352 H   0  0  0  0  0  0  0  0  0  0  0  0
   -1.5191   -2.2933    0.5776 H   0  0  0  0  0  0  0  0  0  0  0  0
   -8.1979    3.6724   -0.9591 C   0  0  0  0  0  0  0  0  0  0  0  0
   -9.3897    4.3671   -1.1419 C   0  0  0  0  0  0  0  0  0  0  0  0
   -9.9004    4.6077   -2.4277 C   0  0  0  0  0  0  0  0  0  0  0  0
   -9.1836    4.1311   -3.5333 C   0  0  0  0  0  0  0  0  0  0  0  0
   -7.9880    3.4325   -3.3714 C   0  0  0  0  0  0  0  0  0  0  0  0
   -7.5055    3.2145   -2.0819 C   0  0  0  0  0  0  0  0  0  0  0  0
   -7.8089    3.4762    0.0339 H   0  0  0  0  0  0  0  0  0  0  0  0
   -9.9354    4.7272   -0.2740 H   0  0  0  0  0  0  0  0  0  0  0  0
   -9.5670    4.3063   -4.5346 H   0  0  0  0  0  0  0  0  0  0  0  0
   -7.4379    3.0536   -4.2253 H   0  0  0  0  0  0  0  0  0  0  0  0
   -5.9811    2.3207   -1.8640 S   0  0  0  0  0  0  0  0  0  0  0  0
   -5.9632    1.6910   -0.5416 O   0  0  0  0  0  0  0  0  0  0  0  0
   -4.9681    3.6086   -1.8371 O   0  0  0  0  0  0  0  0  0  0  0  0
   -5.7106    1.5199   -3.0556 O   0  0  0  0  0  0  0  0  0  0  0  0
  -11.2063    5.3437   -2.6068 C   0  0  0  0  0  0  0  0  0  0  0  0
  -12.0549    4.7113   -2.3195 H   0  0  0  0  0  0  0  0  0  0  0  0
  -11.2466    6.2410   -1.9815 H   0  0  0  0  0  0  0  0  0  0  0  0
  -11.3561    5.6466   -3.6460 H   0  0  0  0  0  0  0  0  0  0  0  0
  1  2  1  0  0  0  0
  1 10  2  0  0  0  0
  2  3  1  0  0  0  0
  4  1  1  0  0  0  0
  5  4  2  0  0  0  0
  5  6  1  0  0  0  0
  6  9  2  0  0  0  0
  7  6  1  0  0  0  0
  7  8  1  0  0  0  0
  8 15  1  0  0  0  0
  9 10  1  0  0  0  0
  9 16  1  0  0  0  0
 10 17  1  0  0  0  0
 12  5  1  0  0  0  0
 13  8  1  0  0  0  0
 14  8  1  0  0  0  0
 18 24  1  0  0  0  0
 19 18  1  0  0  0  0
 19 25  1  0  0  0  0
 20 19  2  0  0  0  0
 21 22  2  0  0  0  0
 21 20  1  0  0  0  0
 22 23  1  0  0  0  0
 23 28  1  0  0  0  0
 23 18  2  0  0  0  0
 26 21  1  0  0  0  0
 27 22  1  0  0  0  0
 28 30  1  0  0  0  0
 28 29  2  0  0  0  0
 30 11  1  0  0  0  0
 31 28  2  0  0  0  0
 32 20  1  0  0  0  0
 32 33  1  0  0  0  0
 32 34  1  0  0  0  0
 35 32  1  0  0  0  0
M  RAD  3   2   2   3   3   4   2
M  END
