Coordinates from ORCA-job 4-MeOPhN2+~TsO-_B3LYPG-6-31G_dp-CH-Scan-d09-49-n800
 OpenBabel11261919313D

 35 35  0  0  0  0  0  0  0  0999 V2000
   -2.5696   -0.4650   -0.2403 C   0  0  0  0  0  0  0  0  0  0  0  0
   -3.7972   -1.0435   -0.0173 N   0  0  0  0  0  0  0  0  0  0  0  0
   -4.8153   -1.4785    0.1448 N   0  0  0  0  0  0  0  0  0  0  0  0
   -2.5623    0.7645   -0.9438 C   0  0  0  0  0  0  0  0  0  0  0  0
   -1.2687    1.2625   -1.1181 C   0  0  0  0  0  0  0  0  0  0  0  0
   -0.1148    0.6110   -0.6470 C   0  0  0  0  0  0  0  0  0  0  0  0
    1.0580    1.2269   -0.9011 O   0  0  0  0  0  0  0  0  0  0  0  0
    2.2789    0.6338   -0.4653 C   0  0  0  0  0  0  0  0  0  0  0  0
   -0.2066   -0.6227    0.0501 C   0  0  0  0  0  0  0  0  0  0  0  0
   -1.4500   -1.1752    0.2595 C   0  0  0  0  0  0  0  0  0  0  0  0
   -3.9083    1.5764   -1.5534 H   0  0  0  0  0  0  0  0  0  0  0  0
   -1.1105    2.2018   -1.6438 H   0  0  0  0  0  0  0  0  0  0  0  0
    3.0687    1.3114   -0.7900 H   0  0  0  0  0  0  0  0  0  0  0  0
    2.4335   -0.3486   -0.9261 H   0  0  0  0  0  0  0  0  0  0  0  0
    2.3095    0.5371    0.6263 H   0  0  0  0  0  0  0  0  0  0  0  0
    0.6762   -1.1314    0.4142 H   0  0  0  0  0  0  0  0  0  0  0  0
   -1.5645   -2.1186    0.7852 H   0  0  0  0  0  0  0  0  0  0  0  0
   -7.7100    3.2928   -0.9156 C   0  0  0  0  0  0  0  0  0  0  0  0
   -8.6317    4.3315   -1.0174 C   0  0  0  0  0  0  0  0  0  0  0  0
   -9.1214    4.7472   -2.2650 C   0  0  0  0  0  0  0  0  0  0  0  0
   -8.6612    4.0921   -3.4147 C   0  0  0  0  0  0  0  0  0  0  0  0
   -7.7389    3.0496   -3.3306 C   0  0  0  0  0  0  0  0  0  0  0  0
   -7.2664    2.6608   -2.0783 C   0  0  0  0  0  0  0  0  0  0  0  0
   -7.3421    2.9625    0.0495 H   0  0  0  0  0  0  0  0  0  0  0  0
   -8.9804    4.8265   -0.1146 H   0  0  0  0  0  0  0  0  0  0  0  0
   -9.0318    4.3995   -4.3889 H   0  0  0  0  0  0  0  0  0  0  0  0
   -7.3917    2.5329   -4.2185 H   0  0  0  0  0  0  0  0  0  0  0  0
   -6.0724    1.3349   -1.9646 S   0  0  0  0  0  0  0  0  0  0  0  0
   -6.2360    0.6760   -0.6527 O   0  0  0  0  0  0  0  0  0  0  0  0
   -4.7226    2.1549   -1.9700 O   0  0  0  0  0  0  0  0  0  0  0  0
   -6.1886    0.5052   -3.1689 O   0  0  0  0  0  0  0  0  0  0  0  0
  -10.1443    5.8538   -2.3597 C   0  0  0  0  0  0  0  0  0  0  0  0
  -11.1511    5.4804   -2.1338 H   0  0  0  0  0  0  0  0  0  0  0  0
   -9.9320    6.6577   -1.6477 H   0  0  0  0  0  0  0  0  0  0  0  0
  -10.1740    6.2872   -3.3632 H   0  0  0  0  0  0  0  0  0  0  0  0
  1  2  1  0  0  0  0
  1 10  2  0  0  0  0
  2  3  1  0  0  0  0
  4  1  1  0  0  0  0
  5  4  2  0  0  0  0
  5  6  1  0  0  0  0
  6  9  2  0  0  0  0
  7  6  1  0  0  0  0
  7  8  1  0  0  0  0
  8 15  1  0  0  0  0
  9 10  1  0  0  0  0
  9 16  1  0  0  0  0
 10 17  1  0  0  0  0
 12  5  1  0  0  0  0
 13  8  1  0  0  0  0
 14  8  1  0  0  0  0
 18 24  1  0  0  0  0
 19 18  1  0  0  0  0
 19 25  1  0  0  0  0
 20 19  2  0  0  0  0
 21 22  2  0  0  0  0
 21 20  1  0  0  0  0
 22 23  1  0  0  0  0
 23 28  1  0  0  0  0
 23 18  2  0  0  0  0
 26 21  1  0  0  0  0
 27 22  1  0  0  0  0
 28 29  2  0  0  0  0
 30 28  1  0  0  0  0
 30 11  1  0  0  0  0
 31 28  2  0  0  0  0
 32 20  1  0  0  0  0
 32 33  1  0  0  0  0
 32 34  1  0  0  0  0
 35 32  1  0  0  0  0
M  RAD  3   2   2   3   3   4   2
M  END
