Coordinates from ORCA-job 4-MeOPhN2+~TsO-_B3LYPG-6-31G_dp-CH-Scan-d09-49-n800
 OpenBabel11261919313D

 35 35  0  0  0  0  0  0  0  0999 V2000
   -2.0539   -0.2727   -0.1077 C   0  0  0  0  0  0  0  0  0  0  0  0
   -3.3928   -0.5325    0.0964 N   0  0  0  0  0  0  0  0  0  0  0  0
   -4.4883   -0.7091    0.2550 N   0  0  0  0  0  0  0  0  0  0  0  0
   -1.7679    1.0216   -0.6043 C   0  0  0  0  0  0  0  0  0  0  0  0
   -0.3797    1.1793   -0.7702 C   0  0  0  0  0  0  0  0  0  0  0  0
    0.5687    0.1852   -0.4835 C   0  0  0  0  0  0  0  0  0  0  0  0
    1.8659    0.5106   -0.7055 O   0  0  0  0  0  0  0  0  0  0  0  0
    2.8862   -0.4477   -0.4520 C   0  0  0  0  0  0  0  0  0  0  0  0
    0.1742   -1.0896    0.0129 C   0  0  0  0  0  0  0  0  0  0  0  0
   -1.1648   -1.3341    0.2093 C   0  0  0  0  0  0  0  0  0  0  0  0
   -4.0818    3.2192   -1.5490 H   0  0  0  0  0  0  0  0  0  0  0  0
    0.0269    2.1186   -1.1464 H   0  0  0  0  0  0  0  0  0  0  0  0
    3.8259    0.0427   -0.7097 H   0  0  0  0  0  0  0  0  0  0  0  0
    2.7646   -1.3417   -1.0750 H   0  0  0  0  0  0  0  0  0  0  0  0
    2.9117   -0.7414    0.6044 H   0  0  0  0  0  0  0  0  0  0  0  0
    0.9025   -1.8587    0.2364 H   0  0  0  0  0  0  0  0  0  0  0  0
   -1.5151   -2.2914    0.5877 H   0  0  0  0  0  0  0  0  0  0  0  0
   -8.1895    3.6546   -0.9559 C   0  0  0  0  0  0  0  0  0  0  0  0
   -9.3717    4.3651   -1.1401 C   0  0  0  0  0  0  0  0  0  0  0  0
   -9.8750    4.6167   -2.4267 C   0  0  0  0  0  0  0  0  0  0  0  0
   -9.1605    4.1351   -3.5316 C   0  0  0  0  0  0  0  0  0  0  0  0
   -7.9743    3.4209   -3.3682 C   0  0  0  0  0  0  0  0  0  0  0  0
   -7.4991    3.1920   -2.0779 C   0  0  0  0  0  0  0  0  0  0  0  0
   -7.8064    3.4497    0.0377 H   0  0  0  0  0  0  0  0  0  0  0  0
   -9.9158    4.7288   -0.2727 H   0  0  0  0  0  0  0  0  0  0  0  0
   -9.5382    4.3187   -4.5335 H   0  0  0  0  0  0  0  0  0  0  0  0
   -7.4262    3.0380   -4.2217 H   0  0  0  0  0  0  0  0  0  0  0  0
   -5.9870    2.2777   -1.8583 S   0  0  0  0  0  0  0  0  0  0  0  0
   -5.9835    1.6408   -0.5391 O   0  0  0  0  0  0  0  0  0  0  0  0
   -4.9578    3.5512   -1.8207 O   0  0  0  0  0  0  0  0  0  0  0  0
   -5.7227    1.4786   -3.0526 O   0  0  0  0  0  0  0  0  0  0  0  0
  -11.1708    5.3699   -2.6075 C   0  0  0  0  0  0  0  0  0  0  0  0
  -12.0279    4.7497   -2.3191 H   0  0  0  0  0  0  0  0  0  0  0  0
  -11.1993    6.2689   -1.9839 H   0  0  0  0  0  0  0  0  0  0  0  0
  -11.3163    5.6729   -3.6473 H   0  0  0  0  0  0  0  0  0  0  0  0
  1  2  1  0  0  0  0
  1 10  2  0  0  0  0
  2  3  1  0  0  0  0
  4  1  1  0  0  0  0
  5  4  2  0  0  0  0
  5  6  1  0  0  0  0
  6  9  2  0  0  0  0
  7  6  1  0  0  0  0
  7  8  1  0  0  0  0
  8 15  1  0  0  0  0
  9 10  1  0  0  0  0
  9 16  1  0  0  0  0
 10 17  1  0  0  0  0
 12  5  1  0  0  0  0
 13  8  1  0  0  0  0
 14  8  1  0  0  0  0
 18 24  1  0  0  0  0
 19 18  1  0  0  0  0
 19 25  1  0  0  0  0
 20 19  2  0  0  0  0
 21 22  2  0  0  0  0
 21 20  1  0  0  0  0
 22 23  1  0  0  0  0
 23 28  1  0  0  0  0
 23 18  2  0  0  0  0
 26 21  1  0  0  0  0
 27 22  1  0  0  0  0
 28 30  1  0  0  0  0
 28 29  2  0  0  0  0
 30 11  1  0  0  0  0
 31 28  2  0  0  0  0
 32 20  1  0  0  0  0
 32 33  1  0  0  0  0
 32 34  1  0  0  0  0
 35 32  1  0  0  0  0
M  RAD  3   2   2   3   3   4   2
M  END
