Coordinates from ORCA-job 4-MeOPhN2+~TsO-_B3LYPG-6-31G_dp-CH-Scan-d09-49-n800
 OpenBabel11261919313D

 35 35  0  0  0  0  0  0  0  0999 V2000
   -2.3030   -0.3963   -0.1790 C   0  0  0  0  0  0  0  0  0  0  0  0
   -3.5889   -0.8384    0.0374 N   0  0  0  0  0  0  0  0  0  0  0  0
   -4.6458   -1.1708    0.2024 N   0  0  0  0  0  0  0  0  0  0  0  0
   -2.1855    0.8726   -0.7968 C   0  0  0  0  0  0  0  0  0  0  0  0
   -0.8377    1.2236   -0.9664 C   0  0  0  0  0  0  0  0  0  0  0  0
    0.2401    0.4133   -0.5728 C   0  0  0  0  0  0  0  0  0  0  0  0
    1.4768    0.9068   -0.8127 O   0  0  0  0  0  0  0  0  0  0  0  0
    2.6242    0.1452   -0.4509 C   0  0  0  0  0  0  0  0  0  0  0  0
    0.0231   -0.8513    0.0410 C   0  0  0  0  0  0  0  0  0  0  0  0
   -1.2702   -1.2725    0.2461 C   0  0  0  0  0  0  0  0  0  0  0  0
   -4.0452    2.2610   -1.5562 H   0  0  0  0  0  0  0  0  0  0  0  0
   -0.5697    2.1729   -1.4281 H   0  0  0  0  0  0  0  0  0  0  0  0
    3.4846    0.7488   -0.7417 H   0  0  0  0  0  0  0  0  0  0  0  0
    2.6572   -0.8109   -0.9859 H   0  0  0  0  0  0  0  0  0  0  0  0
    2.6611   -0.0391    0.6296 H   0  0  0  0  0  0  0  0  0  0  0  0
    0.8498   -1.4798    0.3456 H   0  0  0  0  0  0  0  0  0  0  0  0
   -1.4837   -2.2315    0.7107 H   0  0  0  0  0  0  0  0  0  0  0  0
   -7.9853    3.4532   -0.9339 C   0  0  0  0  0  0  0  0  0  0  0  0
   -9.0201    4.3723   -1.0801 C   0  0  0  0  0  0  0  0  0  0  0  0
   -9.4995    4.7298   -2.3501 C   0  0  0  0  0  0  0  0  0  0  0  0
   -8.9132    4.1393   -3.4773 C   0  0  0  0  0  0  0  0  0  0  0  0
   -7.8757    3.2164   -3.3511 C   0  0  0  0  0  0  0  0  0  0  0  0
   -7.4183    2.8861   -2.0766 C   0  0  0  0  0  0  0  0  0  0  0  0
   -7.6228    3.1676    0.0474 H   0  0  0  0  0  0  0  0  0  0  0  0
   -9.4658    4.8188   -0.1953 H   0  0  0  0  0  0  0  0  0  0  0  0
   -9.2742    4.4033   -4.4676 H   0  0  0  0  0  0  0  0  0  0  0  0
   -7.4284    2.7504   -4.2219 H   0  0  0  0  0  0  0  0  0  0  0  0
   -6.0908    1.7088   -1.9041 S   0  0  0  0  0  0  0  0  0  0  0  0
   -6.1976    1.0462   -0.5978 O   0  0  0  0  0  0  0  0  0  0  0  0
   -4.8510    2.7493   -1.8601 O   0  0  0  0  0  0  0  0  0  0  0  0
   -6.0137    0.8914   -3.1148 O   0  0  0  0  0  0  0  0  0  0  0  0
  -10.6394    5.7098   -2.4903 C   0  0  0  0  0  0  0  0  0  0  0  0
  -11.5985    5.2328   -2.2539 H   0  0  0  0  0  0  0  0  0  0  0  0
  -10.5240    6.5567   -1.8066 H   0  0  0  0  0  0  0  0  0  0  0  0
  -10.7086    6.1014   -3.5084 H   0  0  0  0  0  0  0  0  0  0  0  0
  1  2  1  0  0  0  0
  1 10  2  0  0  0  0
  2  3  1  0  0  0  0
  4  1  1  0  0  0  0
  5  4  2  0  0  0  0
  5  6  1  0  0  0  0
  6  9  2  0  0  0  0
  7  6  1  0  0  0  0
  7  8  1  0  0  0  0
  8 15  1  0  0  0  0
  9 10  1  0  0  0  0
  9 16  1  0  0  0  0
 10 17  1  0  0  0  0
 12  5  1  0  0  0  0
 13  8  1  0  0  0  0
 14  8  1  0  0  0  0
 18 24  1  0  0  0  0
 19 18  1  0  0  0  0
 19 25  1  0  0  0  0
 20 19  2  0  0  0  0
 21 22  2  0  0  0  0
 21 20  1  0  0  0  0
 22 23  1  0  0  0  0
 23 28  1  0  0  0  0
 23 18  2  0  0  0  0
 26 21  1  0  0  0  0
 27 22  1  0  0  0  0
 28 30  1  0  0  0  0
 28 29  2  0  0  0  0
 30 11  1  0  0  0  0
 31 28  2  0  0  0  0
 32 20  1  0  0  0  0
 32 33  1  0  0  0  0
 32 34  1  0  0  0  0
 35 32  1  0  0  0  0
M  RAD  3   2   2   3   3   4   2
M  END
