Coordinates from ORCA-job 4-MeOPhN2+~TsO-_B3LYPG-6-31G_dp-CH-Scan-d09-49-n800
 OpenBabel11261919313D

 35 35  0  0  0  0  0  0  0  0999 V2000
   -2.2650   -0.3811   -0.1683 C   0  0  0  0  0  0  0  0  0  0  0  0
   -3.5593   -0.7994    0.0470 N   0  0  0  0  0  0  0  0  0  0  0  0
   -4.6222   -1.1118    0.2131 N   0  0  0  0  0  0  0  0  0  0  0  0
   -2.1257    0.8924   -0.7717 C   0  0  0  0  0  0  0  0  0  0  0  0
   -0.7708    1.2174   -0.9416 C   0  0  0  0  0  0  0  0  0  0  0  0
    0.2915    0.3813   -0.5610 C   0  0  0  0  0  0  0  0  0  0  0  0
    1.5377    0.8524   -0.7992 O   0  0  0  0  0  0  0  0  0  0  0  0
    2.6703    0.0645   -0.4478 C   0  0  0  0  0  0  0  0  0  0  0  0
    0.0515   -0.8860    0.0392 C   0  0  0  0  0  0  0  0  0  0  0  0
   -1.2493   -1.2835    0.2438 C   0  0  0  0  0  0  0  0  0  0  0  0
   -4.0534    2.3804   -1.5517 H   0  0  0  0  0  0  0  0  0  0  0  0
   -0.4843    2.1664   -1.3932 H   0  0  0  0  0  0  0  0  0  0  0  0
    3.5420    0.6540   -0.7339 H   0  0  0  0  0  0  0  0  0  0  0  0
    2.6837   -0.8865   -0.9927 H   0  0  0  0  0  0  0  0  0  0  0  0
    2.7056   -0.1319    0.6307 H   0  0  0  0  0  0  0  0  0  0  0  0
    0.8665   -1.5340    0.3340 H   0  0  0  0  0  0  0  0  0  0  0  0
   -1.4808   -2.2432    0.6984 H   0  0  0  0  0  0  0  0  0  0  0  0
   -8.0179    3.4811   -0.9391 C   0  0  0  0  0  0  0  0  0  0  0  0
   -9.0728    4.3763   -1.0898 C   0  0  0  0  0  0  0  0  0  0  0  0
   -9.5568    4.7204   -2.3618 C   0  0  0  0  0  0  0  0  0  0  0  0
   -8.9547    4.1412   -3.4864 C   0  0  0  0  0  0  0  0  0  0  0  0
   -7.8967    3.2423   -3.3559 C   0  0  0  0  0  0  0  0  0  0  0  0
   -7.4354    2.9249   -2.0796 C   0  0  0  0  0  0  0  0  0  0  0  0
   -7.6517    3.2057    0.0437 H   0  0  0  0  0  0  0  0  0  0  0  0
   -9.5308    4.8142   -0.2070 H   0  0  0  0  0  0  0  0  0  0  0  0
   -9.3191    4.3949   -4.4780 H   0  0  0  0  0  0  0  0  0  0  0  0
   -7.4366    2.7851   -4.2246 H   0  0  0  0  0  0  0  0  0  0  0  0
   -6.0830    1.7778   -1.9015 S   0  0  0  0  0  0  0  0  0  0  0  0
   -6.1793    1.1117   -0.5969 O   0  0  0  0  0  0  0  0  0  0  0  0
   -4.8675    2.8515   -1.8485 O   0  0  0  0  0  0  0  0  0  0  0  0
   -5.9770    0.9667   -3.1137 O   0  0  0  0  0  0  0  0  0  0  0  0
  -10.7175    5.6751   -2.5065 C   0  0  0  0  0  0  0  0  0  0  0  0
  -11.6645    5.1829   -2.2537 H   0  0  0  0  0  0  0  0  0  0  0  0
  -10.6129    6.5345   -1.8367 H   0  0  0  0  0  0  0  0  0  0  0  0
  -10.8035    6.0498   -3.5295 H   0  0  0  0  0  0  0  0  0  0  0  0
  1  2  1  0  0  0  0
  1 10  2  0  0  0  0
  2  3  1  0  0  0  0
  4  1  1  0  0  0  0
  5  4  2  0  0  0  0
  5  6  1  0  0  0  0
  6  9  2  0  0  0  0
  7  6  1  0  0  0  0
  7  8  1  0  0  0  0
  8 15  1  0  0  0  0
  9 10  1  0  0  0  0
  9 16  1  0  0  0  0
 10 17  1  0  0  0  0
 12  5  1  0  0  0  0
 13  8  1  0  0  0  0
 14  8  1  0  0  0  0
 18 24  1  0  0  0  0
 19 18  1  0  0  0  0
 19 25  1  0  0  0  0
 20 19  2  0  0  0  0
 21 22  2  0  0  0  0
 21 20  1  0  0  0  0
 22 23  1  0  0  0  0
 23 28  1  0  0  0  0
 23 18  2  0  0  0  0
 26 21  1  0  0  0  0
 27 22  1  0  0  0  0
 28 30  1  0  0  0  0
 28 29  2  0  0  0  0
 30 11  1  0  0  0  0
 31 28  2  0  0  0  0
 32 20  1  0  0  0  0
 32 33  1  0  0  0  0
 32 34  1  0  0  0  0
 35 32  1  0  0  0  0
M  RAD  3   2   2   3   3   4   2
M  END
