Coordinates from ORCA-job 4-MeOPhN2+~TsO-_B3LYPG-6-31G_dp-CH-Scan-d09-49-n800
 OpenBabel11261919313D

 35 35  0  0  0  0  0  0  0  0999 V2000
   -2.2369   -0.3678   -0.1567 C   0  0  0  0  0  0  0  0  0  0  0  0
   -3.5375   -0.7667    0.0593 N   0  0  0  0  0  0  0  0  0  0  0  0
   -4.6047   -1.0616    0.2305 N   0  0  0  0  0  0  0  0  0  0  0  0
   -2.0803    0.9102   -0.7457 C   0  0  0  0  0  0  0  0  0  0  0  0
   -0.7203    1.2136   -0.9184 C   0  0  0  0  0  0  0  0  0  0  0  0
    0.3294    0.3554   -0.5526 C   0  0  0  0  0  0  0  0  0  0  0  0
    1.5826    0.8080   -0.7915 O   0  0  0  0  0  0  0  0  0  0  0  0
    2.7030   -0.0026   -0.4533 C   0  0  0  0  0  0  0  0  0  0  0  0
    0.0710   -0.9145    0.0345 C   0  0  0  0  0  0  0  0  0  0  0  0
   -1.2353   -1.2925    0.2408 C   0  0  0  0  0  0  0  0  0  0  0  0
   -4.0571    2.4852   -1.5327 H   0  0  0  0  0  0  0  0  0  0  0  0
   -0.4194    2.1627   -1.3606 H   0  0  0  0  0  0  0  0  0  0  0  0
    3.5835    0.5751   -0.7369 H   0  0  0  0  0  0  0  0  0  0  0  0
    2.6984   -0.9480   -1.0080 H   0  0  0  0  0  0  0  0  0  0  0  0
    2.7396   -0.2109    0.6229 H   0  0  0  0  0  0  0  0  0  0  0  0
    0.8765   -1.5793    0.3182 H   0  0  0  0  0  0  0  0  0  0  0  0
   -1.4810   -2.2533    0.6856 H   0  0  0  0  0  0  0  0  0  0  0  0
   -8.0443    3.5037   -0.9420 C   0  0  0  0  0  0  0  0  0  0  0  0
   -9.1166    4.3767   -1.0987 C   0  0  0  0  0  0  0  0  0  0  0  0
   -9.6016    4.7095   -2.3735 C   0  0  0  0  0  0  0  0  0  0  0  0
   -8.9823    4.1417   -3.4946 C   0  0  0  0  0  0  0  0  0  0  0  0
   -7.9063    3.2654   -3.3581 C   0  0  0  0  0  0  0  0  0  0  0  0
   -7.4449    2.9589   -2.0792 C   0  0  0  0  0  0  0  0  0  0  0  0
   -7.6774    3.2369    0.0430 H   0  0  0  0  0  0  0  0  0  0  0  0
   -9.5880    4.8058   -0.2186 H   0  0  0  0  0  0  0  0  0  0  0  0
   -9.3473    4.3867   -4.4882 H   0  0  0  0  0  0  0  0  0  0  0  0
   -7.4324    2.8171   -4.2241 H   0  0  0  0  0  0  0  0  0  0  0  0
   -6.0706    1.8396   -1.8937 S   0  0  0  0  0  0  0  0  0  0  0  0
   -6.1635    1.1655   -0.5936 O   0  0  0  0  0  0  0  0  0  0  0  0
   -4.8789    2.9422   -1.8228 O   0  0  0  0  0  0  0  0  0  0  0  0
   -5.9331    1.0389   -3.1094 O   0  0  0  0  0  0  0  0  0  0  0  0
  -10.7805    5.6406   -2.5245 C   0  0  0  0  0  0  0  0  0  0  0  0
  -11.7163    5.1359   -2.2552 H   0  0  0  0  0  0  0  0  0  0  0  0
  -10.6859    6.5129   -1.8700 H   0  0  0  0  0  0  0  0  0  0  0  0
  -10.8813    5.9966   -3.5527 H   0  0  0  0  0  0  0  0  0  0  0  0
  1  2  1  0  0  0  0
  1 10  2  0  0  0  0
  2  3  1  0  0  0  0
  4  1  1  0  0  0  0
  5  4  2  0  0  0  0
  5  6  1  0  0  0  0
  6  9  2  0  0  0  0
  7  6  1  0  0  0  0
  7  8  1  0  0  0  0
  8 15  1  0  0  0  0
  9 10  1  0  0  0  0
  9 16  1  0  0  0  0
 10 17  1  0  0  0  0
 12  5  1  0  0  0  0
 13  8  1  0  0  0  0
 14  8  1  0  0  0  0
 18 24  1  0  0  0  0
 19 18  1  0  0  0  0
 19 25  1  0  0  0  0
 20 19  2  0  0  0  0
 21 22  2  0  0  0  0
 21 20  1  0  0  0  0
 22 23  1  0  0  0  0
 23 28  1  0  0  0  0
 23 18  2  0  0  0  0
 26 21  1  0  0  0  0
 27 22  1  0  0  0  0
 28 30  1  0  0  0  0
 28 29  2  0  0  0  0
 30 11  1  0  0  0  0
 31 28  2  0  0  0  0
 32 20  1  0  0  0  0
 32 33  1  0  0  0  0
 32 34  1  0  0  0  0
 35 32  1  0  0  0  0
M  RAD  3   2   2   3   3   4   2
M  END
