Coordinates from ORCA-job 4-MeOPhN2+~TsO-_B3LYPG-6-31G_dp-CH-Scan-d09-49-n800
 OpenBabel11261919313D

 35 35  0  0  0  0  0  0  0  0999 V2000
   -2.4065   -0.4286   -0.1994 C   0  0  0  0  0  0  0  0  0  0  0  0
   -3.6692   -0.9288    0.0234 N   0  0  0  0  0  0  0  0  0  0  0  0
   -4.7099   -1.3063    0.1917 N   0  0  0  0  0  0  0  0  0  0  0  0
   -2.3421    0.8352   -0.8364 C   0  0  0  0  0  0  0  0  0  0  0  0
   -1.0140    1.2469   -1.0119 C   0  0  0  0  0  0  0  0  0  0  0  0
    0.1001    0.4929   -0.6060 C   0  0  0  0  0  0  0  0  0  0  0  0
    1.3113    1.0395   -0.8541 O   0  0  0  0  0  0  0  0  0  0  0  0
    2.4937    0.3369   -0.4840 C   0  0  0  0  0  0  0  0  0  0  0  0
   -0.0599   -0.7702    0.0264 C   0  0  0  0  0  0  0  0  0  0  0  0
   -1.3330   -1.2471    0.2373 C   0  0  0  0  0  0  0  0  0  0  0  0
   -4.0093    1.9983   -1.5101 H   0  0  0  0  0  0  0  0  0  0  0  0
   -0.7924    2.2003   -1.4884 H   0  0  0  0  0  0  0  0  0  0  0  0
    3.3244    0.9753   -0.7861 H   0  0  0  0  0  0  0  0  0  0  0  0
    2.5690   -0.6243   -1.0053 H   0  0  0  0  0  0  0  0  0  0  0  0
    2.5405    0.1709    0.5990 H   0  0  0  0  0  0  0  0  0  0  0  0
    0.7940   -1.3560    0.3404 H   0  0  0  0  0  0  0  0  0  0  0  0
   -1.5024   -2.2079    0.7156 H   0  0  0  0  0  0  0  0  0  0  0  0
   -7.9043    3.3892   -0.9132 C   0  0  0  0  0  0  0  0  0  0  0  0
   -8.8945    4.3566   -1.0595 C   0  0  0  0  0  0  0  0  0  0  0  0
   -9.3526    4.7399   -2.3296 C   0  0  0  0  0  0  0  0  0  0  0  0
   -8.7905    4.1260   -3.4567 C   0  0  0  0  0  0  0  0  0  0  0  0
   -7.7980    3.1550   -3.3298 C   0  0  0  0  0  0  0  0  0  0  0  0
   -7.3603    2.7990   -2.0552 C   0  0  0  0  0  0  0  0  0  0  0  0
   -7.5589    3.0838    0.0683 H   0  0  0  0  0  0  0  0  0  0  0  0
   -9.3217    4.8208   -0.1746 H   0  0  0  0  0  0  0  0  0  0  0  0
   -9.1353    4.4096   -4.4473 H   0  0  0  0  0  0  0  0  0  0  0  0
   -7.3701    2.6708   -4.2004 H   0  0  0  0  0  0  0  0  0  0  0  0
   -6.0872    1.5614   -1.8827 S   0  0  0  0  0  0  0  0  0  0  0  0
   -6.2374    0.8978   -0.5788 O   0  0  0  0  0  0  0  0  0  0  0  0
   -4.8021    2.5272   -1.8320 O   0  0  0  0  0  0  0  0  0  0  0  0
   -6.0557    0.7392   -3.0937 O   0  0  0  0  0  0  0  0  0  0  0  0
  -10.4466    5.7706   -2.4714 C   0  0  0  0  0  0  0  0  0  0  0  0
  -11.4308    5.3291   -2.2711 H   0  0  0  0  0  0  0  0  0  0  0  0
  -10.3133    6.5950   -1.7638 H   0  0  0  0  0  0  0  0  0  0  0  0
  -10.4743    6.1896   -3.4808 H   0  0  0  0  0  0  0  0  0  0  0  0
  1  2  1  0  0  0  0
  1 10  2  0  0  0  0
  2  3  1  0  0  0  0
  4  1  1  0  0  0  0
  5  4  2  0  0  0  0
  5  6  1  0  0  0  0
  6  9  2  0  0  0  0
  7  6  1  0  0  0  0
  7  8  1  0  0  0  0
  8 15  1  0  0  0  0
  9 10  1  0  0  0  0
  9 16  1  0  0  0  0
 10 17  1  0  0  0  0
 12  5  1  0  0  0  0
 13  8  1  0  0  0  0
 14  8  1  0  0  0  0
 18 24  1  0  0  0  0
 19 18  1  0  0  0  0
 19 25  1  0  0  0  0
 20 19  2  0  0  0  0
 21 22  2  0  0  0  0
 21 20  1  0  0  0  0
 22 23  1  0  0  0  0
 23 28  1  0  0  0  0
 23 18  2  0  0  0  0
 26 21  1  0  0  0  0
 27 22  1  0  0  0  0
 28 30  1  0  0  0  0
 28 29  2  0  0  0  0
 30 11  1  0  0  0  0
 31 28  2  0  0  0  0
 32 20  1  0  0  0  0
 32 33  1  0  0  0  0
 32 34  1  0  0  0  0
 35 32  1  0  0  0  0
M  RAD  3   2   2   3   3   4   2
M  END
