Coordinates from ORCA-job 4-MeOPhN2+~TsO-_B3LYPG-6-31G_dp-CH-Scan-d09-49-n800
 OpenBabel11261919313D

 35 35  0  0  0  0  0  0  0  0999 V2000
   -2.3098   -0.3987   -0.1806 C   0  0  0  0  0  0  0  0  0  0  0  0
   -3.5942   -0.8447    0.0361 N   0  0  0  0  0  0  0  0  0  0  0  0
   -4.6501   -1.1803    0.2012 N   0  0  0  0  0  0  0  0  0  0  0  0
   -2.1959    0.8697   -0.8004 C   0  0  0  0  0  0  0  0  0  0  0  0
   -0.8493    1.2249   -0.9702 C   0  0  0  0  0  0  0  0  0  0  0  0
    0.2310    0.4188   -0.5749 C   0  0  0  0  0  0  0  0  0  0  0  0
    1.4661    0.9159   -0.8152 O   0  0  0  0  0  0  0  0  0  0  0  0
    2.6159    0.1586   -0.4522 C   0  0  0  0  0  0  0  0  0  0  0  0
    0.0179   -0.8455    0.0408 C   0  0  0  0  0  0  0  0  0  0  0  0
   -1.2741   -1.2706    0.2461 C   0  0  0  0  0  0  0  0  0  0  0  0
   -4.0434    2.2418   -1.5552 H   0  0  0  0  0  0  0  0  0  0  0  0
   -0.5845    2.1744   -1.4334 H   0  0  0  0  0  0  0  0  0  0  0  0
    3.4743    0.7646   -0.7438 H   0  0  0  0  0  0  0  0  0  0  0  0
    2.6519   -0.7982   -0.9858 H   0  0  0  0  0  0  0  0  0  0  0  0
    2.6532   -0.0239    0.6286 H   0  0  0  0  0  0  0  0  0  0  0  0
    0.8464   -1.4708    0.3466 H   0  0  0  0  0  0  0  0  0  0  0  0
   -1.4846   -2.2295    0.7121 H   0  0  0  0  0  0  0  0  0  0  0  0
   -7.9797    3.4485   -0.9328 C   0  0  0  0  0  0  0  0  0  0  0  0
   -9.0112    4.3714   -1.0786 C   0  0  0  0  0  0  0  0  0  0  0  0
   -9.4896    4.7310   -2.3483 C   0  0  0  0  0  0  0  0  0  0  0  0
   -8.9056    4.1387   -3.4759 C   0  0  0  0  0  0  0  0  0  0  0  0
   -7.8713    3.2121   -3.3501 C   0  0  0  0  0  0  0  0  0  0  0  0
   -7.4149    2.8797   -2.0758 C   0  0  0  0  0  0  0  0  0  0  0  0
   -7.6181    3.1614    0.0483 H   0  0  0  0  0  0  0  0  0  0  0  0
   -9.4552    4.8192   -0.1935 H   0  0  0  0  0  0  0  0  0  0  0  0
   -9.2658    4.4043   -4.4659 H   0  0  0  0  0  0  0  0  0  0  0  0
   -7.4258    2.7448   -4.2210 H   0  0  0  0  0  0  0  0  0  0  0  0
   -6.0914    1.6977   -1.9038 S   0  0  0  0  0  0  0  0  0  0  0  0
   -6.2005    1.0353   -0.5975 O   0  0  0  0  0  0  0  0  0  0  0  0
   -4.8480    2.7329   -1.8603 O   0  0  0  0  0  0  0  0  0  0  0  0
   -6.0183    0.8798   -3.1145 O   0  0  0  0  0  0  0  0  0  0  0  0
  -10.6261    5.7149   -2.4882 C   0  0  0  0  0  0  0  0  0  0  0  0
  -11.5872    5.2405   -2.2544 H   0  0  0  0  0  0  0  0  0  0  0  0
  -10.5092    6.5599   -1.8024 H   0  0  0  0  0  0  0  0  0  0  0  0
  -10.6925    6.1089   -3.5054 H   0  0  0  0  0  0  0  0  0  0  0  0
  1  2  1  0  0  0  0
  1 10  2  0  0  0  0
  2  3  1  0  0  0  0
  4  1  1  0  0  0  0
  5  4  2  0  0  0  0
  5  6  1  0  0  0  0
  6  9  2  0  0  0  0
  7  6  1  0  0  0  0
  7  8  1  0  0  0  0
  8 15  1  0  0  0  0
  9 10  1  0  0  0  0
  9 16  1  0  0  0  0
 10 17  1  0  0  0  0
 12  5  1  0  0  0  0
 13  8  1  0  0  0  0
 14  8  1  0  0  0  0
 18 24  1  0  0  0  0
 19 18  1  0  0  0  0
 19 25  1  0  0  0  0
 20 19  2  0  0  0  0
 21 22  2  0  0  0  0
 21 20  1  0  0  0  0
 22 23  1  0  0  0  0
 23 28  1  0  0  0  0
 23 18  2  0  0  0  0
 26 21  1  0  0  0  0
 27 22  1  0  0  0  0
 28 30  1  0  0  0  0
 28 29  2  0  0  0  0
 30 11  1  0  0  0  0
 31 28  2  0  0  0  0
 32 20  1  0  0  0  0
 32 33  1  0  0  0  0
 32 34  1  0  0  0  0
 35 32  1  0  0  0  0
M  RAD  3   2   2   3   3   4   2
M  END
