Coordinates from ORCA-job 4-MeOPhN2+~TsO-_B3LYPG-6-31G_dp-CH-Scan-d09-49-n800
 OpenBabel11261919313D

 35 35  0  0  0  0  0  0  0  0999 V2000
   -2.5385   -0.4546   -0.2191 C   0  0  0  0  0  0  0  0  0  0  0  0
   -3.7727   -1.0159    0.0128 N   0  0  0  0  0  0  0  0  0  0  0  0
   -4.7946   -1.4389    0.1837 N   0  0  0  0  0  0  0  0  0  0  0  0
   -2.5247    0.7846   -0.9056 C   0  0  0  0  0  0  0  0  0  0  0  0
   -1.2237    1.2628   -1.0892 C   0  0  0  0  0  0  0  0  0  0  0  0
   -0.0745    0.5864   -0.6431 C   0  0  0  0  0  0  0  0  0  0  0  0
    1.1055    1.1872   -0.9039 O   0  0  0  0  0  0  0  0  0  0  0  0
    2.3217    0.5679   -0.4933 C   0  0  0  0  0  0  0  0  0  0  0  0
   -0.1760   -0.6559    0.0380 C   0  0  0  0  0  0  0  0  0  0  0  0
   -1.4250   -1.1914    0.2565 C   0  0  0  0  0  0  0  0  0  0  0  0
   -3.9334    1.6692   -1.5138 H   0  0  0  0  0  0  0  0  0  0  0  0
   -1.0547    2.2067   -1.6033 H   0  0  0  0  0  0  0  0  0  0  0  0
    3.1185    1.2378   -0.8173 H   0  0  0  0  0  0  0  0  0  0  0  0
    2.4548   -0.4094   -0.9712 H   0  0  0  0  0  0  0  0  0  0  0  0
    2.3651    0.4532    0.5962 H   0  0  0  0  0  0  0  0  0  0  0  0
    0.7036   -1.1834    0.3827 H   0  0  0  0  0  0  0  0  0  0  0  0
   -1.5478   -2.1403    0.7705 H   0  0  0  0  0  0  0  0  0  0  0  0
   -7.7663    3.3045   -0.9103 C   0  0  0  0  0  0  0  0  0  0  0  0
   -8.7040    4.3269   -1.0277 C   0  0  0  0  0  0  0  0  0  0  0  0
   -9.1690    4.7441   -2.2843 C   0  0  0  0  0  0  0  0  0  0  0  0
   -8.6673    4.1075   -3.4271 C   0  0  0  0  0  0  0  0  0  0  0  0
   -7.7284    3.0815   -3.3279 C   0  0  0  0  0  0  0  0  0  0  0  0
   -7.2815    2.6913   -2.0666 C   0  0  0  0  0  0  0  0  0  0  0  0
   -7.4171    2.9729    0.0613 H   0  0  0  0  0  0  0  0  0  0  0  0
   -9.0848    4.8078   -0.1304 H   0  0  0  0  0  0  0  0  0  0  0  0
   -9.0184    4.4166   -4.4081 H   0  0  0  0  0  0  0  0  0  0  0  0
   -7.3487    2.5791   -4.2106 H   0  0  0  0  0  0  0  0  0  0  0  0
   -6.0697    1.3853   -1.9319 S   0  0  0  0  0  0  0  0  0  0  0  0
   -6.2486    0.7142   -0.6302 O   0  0  0  0  0  0  0  0  0  0  0  0
   -4.7349    2.2426   -1.8972 O   0  0  0  0  0  0  0  0  0  0  0  0
   -6.1313    0.5658   -3.1463 O   0  0  0  0  0  0  0  0  0  0  0  0
  -10.2089    5.8331   -2.3962 C   0  0  0  0  0  0  0  0  0  0  0  0
  -11.2135    5.4404   -2.1946 H   0  0  0  0  0  0  0  0  0  0  0  0
  -10.0267    6.6365   -1.6754 H   0  0  0  0  0  0  0  0  0  0  0  0
  -10.2239    6.2714   -3.3978 H   0  0  0  0  0  0  0  0  0  0  0  0
  1  2  1  0  0  0  0
  1 10  2  0  0  0  0
  2  3  1  0  0  0  0
  4  1  1  0  0  0  0
  5  4  2  0  0  0  0
  5  6  1  0  0  0  0
  6  9  2  0  0  0  0
  7  6  1  0  0  0  0
  7  8  1  0  0  0  0
  8 15  1  0  0  0  0
  9 10  1  0  0  0  0
  9 16  1  0  0  0  0
 10 17  1  0  0  0  0
 12  5  1  0  0  0  0
 13  8  1  0  0  0  0
 14  8  1  0  0  0  0
 18 24  1  0  0  0  0
 19 18  1  0  0  0  0
 19 25  1  0  0  0  0
 20 19  2  0  0  0  0
 21 22  2  0  0  0  0
 21 20  1  0  0  0  0
 22 23  1  0  0  0  0
 23 28  1  0  0  0  0
 23 18  2  0  0  0  0
 26 21  1  0  0  0  0
 27 22  1  0  0  0  0
 28 30  1  0  0  0  0
 28 29  2  0  0  0  0
 30 11  1  0  0  0  0
 31 28  2  0  0  0  0
 32 20  1  0  0  0  0
 32 33  1  0  0  0  0
 32 34  1  0  0  0  0
 35 32  1  0  0  0  0
M  RAD  3   2   2   3   3   4   2
M  END
