Coordinates from ORCA-job 4-MeOPhN2+~TsO-_B3LYPG-6-31G_dp-CH-Scan-d09-49-n800
 OpenBabel11261919313D

 35 35  0  0  0  0  0  0  0  0999 V2000
   -2.1896   -0.3398   -0.1252 C   0  0  0  0  0  0  0  0  0  0  0  0
   -3.5001   -0.7008    0.0996 N   0  0  0  0  0  0  0  0  0  0  0  0
   -4.5749   -0.9654    0.2739 N   0  0  0  0  0  0  0  0  0  0  0  0
   -2.0024    0.9467   -0.6859 C   0  0  0  0  0  0  0  0  0  0  0  0
   -0.6347    1.2095   -0.8703 C   0  0  0  0  0  0  0  0  0  0  0  0
    0.3915    0.3098   -0.5398 C   0  0  0  0  0  0  0  0  0  0  0  0
    1.6560    0.7277   -0.7855 O   0  0  0  0  0  0  0  0  0  0  0  0
    2.7534   -0.1265   -0.4824 C   0  0  0  0  0  0  0  0  0  0  0  0
    0.1007   -0.9652    0.0212 C   0  0  0  0  0  0  0  0  0  0  0  0
   -1.2140   -1.3062    0.2370 C   0  0  0  0  0  0  0  0  0  0  0  0
   -4.0622    2.6825   -1.4766 H   0  0  0  0  0  0  0  0  0  0  0  0
   -0.3083    2.1587   -1.2944 H   0  0  0  0  0  0  0  0  0  0  0  0
    3.6487    0.4283   -0.7655 H   0  0  0  0  0  0  0  0  0  0  0  0
    2.7104   -1.0584   -1.0581 H   0  0  0  0  0  0  0  0  0  0  0  0
    2.7983   -0.3610    0.5881 H   0  0  0  0  0  0  0  0  0  0  0  0
    0.8885   -1.6614    0.2783 H   0  0  0  0  0  0  0  0  0  0  0  0
   -1.4848   -2.2689    0.6632 H   0  0  0  0  0  0  0  0  0  0  0  0
   -8.0964    3.5392   -0.9438 C   0  0  0  0  0  0  0  0  0  0  0  0
   -9.2008    4.3678   -1.1166 C   0  0  0  0  0  0  0  0  0  0  0  0
   -9.6774    4.6846   -2.3988 C   0  0  0  0  0  0  0  0  0  0  0  0
   -9.0161    4.1468   -3.5106 C   0  0  0  0  0  0  0  0  0  0  0  0
   -7.9072    3.3151   -3.3582 C   0  0  0  0  0  0  0  0  0  0  0  0
   -7.4560    3.0234   -2.0724 C   0  0  0  0  0  0  0  0  0  0  0  0
   -7.7359    3.2841    0.0466 H   0  0  0  0  0  0  0  0  0  0  0  0
   -9.7046    4.7739   -0.2436 H   0  0  0  0  0  0  0  0  0  0  0  0
   -9.3743    4.3795   -4.5096 H   0  0  0  0  0  0  0  0  0  0  0  0
   -7.4005    2.8897   -4.2170 H   0  0  0  0  0  0  0  0  0  0  0  0
   -6.0427    1.9580   -1.8669 S   0  0  0  0  0  0  0  0  0  0  0  0
   -6.1355    1.2673   -0.5763 O   0  0  0  0  0  0  0  0  0  0  0  0
   -4.8983    3.1120   -1.7565 O   0  0  0  0  0  0  0  0  0  0  0  0
   -5.8414    1.1799   -3.0879 O   0  0  0  0  0  0  0  0  0  0  0  0
  -10.8904    5.5676   -2.5673 C   0  0  0  0  0  0  0  0  0  0  0  0
  -11.8057    5.0358   -2.2806 H   0  0  0  0  0  0  0  0  0  0  0  0
  -10.8255    6.4590   -1.9352 H   0  0  0  0  0  0  0  0  0  0  0  0
  -11.0078    5.8941   -3.6034 H   0  0  0  0  0  0  0  0  0  0  0  0
  1  2  1  0  0  0  0
  1 10  2  0  0  0  0
  2  3  1  0  0  0  0
  4  1  1  0  0  0  0
  5  4  2  0  0  0  0
  5  6  1  0  0  0  0
  6  9  2  0  0  0  0
  7  6  1  0  0  0  0
  7  8  1  0  0  0  0
  8 15  1  0  0  0  0
  9 10  1  0  0  0  0
  9 16  1  0  0  0  0
 10 17  1  0  0  0  0
 12  5  1  0  0  0  0
 13  8  1  0  0  0  0
 14  8  1  0  0  0  0
 18 24  1  0  0  0  0
 19 18  1  0  0  0  0
 19 25  1  0  0  0  0
 20 19  2  0  0  0  0
 21 22  2  0  0  0  0
 21 20  1  0  0  0  0
 22 23  1  0  0  0  0
 23 28  1  0  0  0  0
 23 18  2  0  0  0  0
 26 21  1  0  0  0  0
 27 22  1  0  0  0  0
 28 30  1  0  0  0  0
 28 29  2  0  0  0  0
 30 11  1  0  0  0  0
 31 28  2  0  0  0  0
 32 20  1  0  0  0  0
 32 33  1  0  0  0  0
 32 34  1  0  0  0  0
 35 32  1  0  0  0  0
M  RAD  3   2   2   3   3   4   2
M  END
