Coordinates from ORCA-job 4-MeOPhN2+~TsO-_B3LYPG-6-31G_dp-CH-Scan-d09-49-n800
 OpenBabel11261919303D

 35 35  0  0  0  0  0  0  0  0999 V2000
   -2.6010   -0.3664   -0.6866 C   0  0  0  0  0  0  0  0  0  0  0  0
   -3.8884   -0.8451   -0.8363 N   0  0  0  0  0  0  0  0  0  0  0  0
   -5.0105   -0.8932   -0.9720 N   0  0  0  0  0  0  0  0  0  0  0  0
   -2.3203    0.9861   -0.9777 C   0  0  0  0  0  0  0  0  0  0  0  0
   -1.0166    1.4110   -0.8135 C   0  0  0  0  0  0  0  0  0  0  0  0
   -0.0116    0.5271   -0.3682 C   0  0  0  0  0  0  0  0  0  0  0  0
    1.2162    1.0618   -0.2449 O   0  0  0  0  0  0  0  0  0  0  0  0
    2.3008    0.2404    0.1876 C   0  0  0  0  0  0  0  0  0  0  0  0
   -0.3175   -0.8222   -0.0902 C   0  0  0  0  0  0  0  0  0  0  0  0
   -1.6163   -1.2715   -0.2582 C   0  0  0  0  0  0  0  0  0  0  0  0
   -3.1850    1.7315   -1.3947 H   0  0  0  0  0  0  0  0  0  0  0  0
   -0.7397    2.4364   -1.0319 H   0  0  0  0  0  0  0  0  0  0  0  0
    3.1743    0.8918    0.2034 H   0  0  0  0  0  0  0  0  0  0  0  0
    2.4747   -0.5863   -0.5102 H   0  0  0  0  0  0  0  0  0  0  0  0
    2.1226   -0.1547    1.1937 H   0  0  0  0  0  0  0  0  0  0  0  0
    0.4451   -1.5118    0.2472 H   0  0  0  0  0  0  0  0  0  0  0  0
   -1.8779   -2.3041   -0.0537 H   0  0  0  0  0  0  0  0  0  0  0  0
   -7.0291    4.1894   -1.6221 C   0  0  0  0  0  0  0  0  0  0  0  0
   -8.1448    5.0229   -1.6231 C   0  0  0  0  0  0  0  0  0  0  0  0
   -9.3521    4.6181   -2.2130 C   0  0  0  0  0  0  0  0  0  0  0  0
   -9.4073    3.3543   -2.8147 C   0  0  0  0  0  0  0  0  0  0  0  0
   -8.2973    2.5087   -2.8215 C   0  0  0  0  0  0  0  0  0  0  0  0
   -7.1124    2.9301   -2.2200 C   0  0  0  0  0  0  0  0  0  0  0  0
   -6.0913    4.5111   -1.1824 H   0  0  0  0  0  0  0  0  0  0  0  0
   -8.0780    6.0066   -1.1647 H   0  0  0  0  0  0  0  0  0  0  0  0
  -10.3296    3.0289   -3.2898 H   0  0  0  0  0  0  0  0  0  0  0  0
   -8.3336    1.5370   -3.3012 H   0  0  0  0  0  0  0  0  0  0  0  0
   -5.6973    1.8264   -2.1852 S   0  0  0  0  0  0  0  0  0  0  0  0
   -5.7657    1.1490   -0.8223 O   0  0  0  0  0  0  0  0  0  0  0  0
   -4.4895    2.7058   -2.2563 O   0  0  0  0  0  0  0  0  0  0  0  0
   -5.8522    0.8647   -3.2959 O   0  0  0  0  0  0  0  0  0  0  0  0
  -10.5625    5.5217   -2.1856 C   0  0  0  0  0  0  0  0  0  0  0  0
  -11.0415    5.5128   -1.1981 H   0  0  0  0  0  0  0  0  0  0  0  0
  -10.2917    6.5607   -2.4013 H   0  0  0  0  0  0  0  0  0  0  0  0
  -11.3125    5.2083   -2.9172 H   0  0  0  0  0  0  0  0  0  0  0  0
  1 10  2  0  0  0  0
  2  1  1  0  0  0  0
  3  2  1  0  0  0  0
  4  5  2  0  0  0  0
  4  1  1  0  0  0  0
  5  6  1  0  0  0  0
  6  7  1  0  0  0  0
  6  9  2  0  0  0  0
  7  8  1  0  0  0  0
  8 13  1  0  0  0  0
  8 15  1  0  0  0  0
  9 16  1  0  0  0  0
 10  9  1  0  0  0  0
 10 17  1  0  0  0  0
 11  4  1  0  0  0  0
 12  5  1  0  0  0  0
 14  8  1  0  0  0  0
 18 24  1  0  0  0  0
 19 18  1  0  0  0  0
 19 25  1  0  0  0  0
 20 32  1  0  0  0  0
 20 19  2  0  0  0  0
 21 20  1  0  0  0  0
 22 21  2  0  0  0  0
 22 23  1  0  0  0  0
 23 28  1  0  0  0  0
 23 18  2  0  0  0  0
 26 21  1  0  0  0  0
 27 22  1  0  0  0  0
 28 29  1  0  0  0  0
 30 28  2  0  0  0  0
 31 28  2  0  0  0  0
 32 33  1  0  0  0  0
 34 32  1  0  0  0  0
 35 32  1  0  0  0  0
M  RAD  3   2   2   3   3  29   2
M  END
