Coordinates from ORCA-job 4-MeOPhN2+~TsO-_B3LYPG-6-31G_dp-CH-Scan-d09-49-n800
 OpenBabel11261919313D

 35 35  0  0  0  0  0  0  0  0999 V2000
   -2.3064   -0.3975   -0.1798 C   0  0  0  0  0  0  0  0  0  0  0  0
   -3.5916   -0.8416    0.0367 N   0  0  0  0  0  0  0  0  0  0  0  0
   -4.6479   -1.1756    0.2018 N   0  0  0  0  0  0  0  0  0  0  0  0
   -2.1907    0.8711   -0.7986 C   0  0  0  0  0  0  0  0  0  0  0  0
   -0.8435    1.2242   -0.9684 C   0  0  0  0  0  0  0  0  0  0  0  0
    0.2355    0.4161   -0.5738 C   0  0  0  0  0  0  0  0  0  0  0  0
    1.4714    0.9114   -0.8140 O   0  0  0  0  0  0  0  0  0  0  0  0
    2.6200    0.1519   -0.4515 C   0  0  0  0  0  0  0  0  0  0  0  0
    0.0205   -0.8484    0.0409 C   0  0  0  0  0  0  0  0  0  0  0  0
   -1.2721   -1.2716    0.2461 C   0  0  0  0  0  0  0  0  0  0  0  0
   -4.0443    2.2513   -1.5558 H   0  0  0  0  0  0  0  0  0  0  0  0
   -0.5771    2.1736   -1.4308 H   0  0  0  0  0  0  0  0  0  0  0  0
    3.4794    0.7568   -0.7427 H   0  0  0  0  0  0  0  0  0  0  0  0
    2.6546   -0.8045   -0.9858 H   0  0  0  0  0  0  0  0  0  0  0  0
    2.6571   -0.0314    0.6291 H   0  0  0  0  0  0  0  0  0  0  0  0
    0.8481   -1.4752    0.3461 H   0  0  0  0  0  0  0  0  0  0  0  0
   -1.4841   -2.2305    0.7115 H   0  0  0  0  0  0  0  0  0  0  0  0
   -7.9825    3.4508   -0.9334 C   0  0  0  0  0  0  0  0  0  0  0  0
   -9.0156    4.3719   -1.0793 C   0  0  0  0  0  0  0  0  0  0  0  0
   -9.4945    4.7304   -2.3492 C   0  0  0  0  0  0  0  0  0  0  0  0
   -8.9094    4.1390   -3.4766 C   0  0  0  0  0  0  0  0  0  0  0  0
   -7.8735    3.2143   -3.3506 C   0  0  0  0  0  0  0  0  0  0  0  0
   -7.4166    2.8829   -2.0762 C   0  0  0  0  0  0  0  0  0  0  0  0
   -7.6205    3.1645    0.0479 H   0  0  0  0  0  0  0  0  0  0  0  0
   -9.4605    4.8190   -0.1944 H   0  0  0  0  0  0  0  0  0  0  0  0
   -9.2700    4.4038   -4.4667 H   0  0  0  0  0  0  0  0  0  0  0  0
   -7.4271    2.7476   -4.2215 H   0  0  0  0  0  0  0  0  0  0  0  0
   -6.0911    1.7032   -1.9040 S   0  0  0  0  0  0  0  0  0  0  0  0
   -6.1991    1.0407   -0.5977 O   0  0  0  0  0  0  0  0  0  0  0  0
   -4.8495    2.7410   -1.8602 O   0  0  0  0  0  0  0  0  0  0  0  0
   -6.0161    0.8855   -3.1146 O   0  0  0  0  0  0  0  0  0  0  0  0
  -10.6327    5.7124   -2.4892 C   0  0  0  0  0  0  0  0  0  0  0  0
  -11.5928    5.2367   -2.2541 H   0  0  0  0  0  0  0  0  0  0  0  0
  -10.5165    6.5584   -1.8045 H   0  0  0  0  0  0  0  0  0  0  0  0
  -10.7005    6.1052   -3.5069 H   0  0  0  0  0  0  0  0  0  0  0  0
  1  2  1  0  0  0  0
  1 10  2  0  0  0  0
  2  3  1  0  0  0  0
  4  1  1  0  0  0  0
  5  4  2  0  0  0  0
  5  6  1  0  0  0  0
  6  9  2  0  0  0  0
  7  6  1  0  0  0  0
  7  8  1  0  0  0  0
  8 15  1  0  0  0  0
  9 10  1  0  0  0  0
  9 16  1  0  0  0  0
 10 17  1  0  0  0  0
 12  5  1  0  0  0  0
 13  8  1  0  0  0  0
 14  8  1  0  0  0  0
 18 24  1  0  0  0  0
 19 18  1  0  0  0  0
 19 25  1  0  0  0  0
 20 19  2  0  0  0  0
 21 22  2  0  0  0  0
 21 20  1  0  0  0  0
 22 23  1  0  0  0  0
 23 28  1  0  0  0  0
 23 18  2  0  0  0  0
 26 21  1  0  0  0  0
 27 22  1  0  0  0  0
 28 30  1  0  0  0  0
 28 29  2  0  0  0  0
 30 11  1  0  0  0  0
 31 28  2  0  0  0  0
 32 20  1  0  0  0  0
 32 33  1  0  0  0  0
 32 34  1  0  0  0  0
 35 32  1  0  0  0  0
M  RAD  3   2   2   3   3   4   2
M  END
