Coordinates from ORCA-job 4-MeOPhN2+~TsO-_B3LYPG-6-31G_dp-CH-Scan-d09-49-n800
 OpenBabel11261919313D

 35 35  0  0  0  0  0  0  0  0999 V2000
   -2.3713   -0.4186   -0.1928 C   0  0  0  0  0  0  0  0  0  0  0  0
   -3.6419   -0.8999    0.0275 N   0  0  0  0  0  0  0  0  0  0  0  0
   -4.6879   -1.2634    0.1947 N   0  0  0  0  0  0  0  0  0  0  0  0
   -2.2897    0.8463   -0.8251 C   0  0  0  0  0  0  0  0  0  0  0  0
   -0.9550    1.2387   -0.9985 C   0  0  0  0  0  0  0  0  0  0  0  0
    0.1476    0.4671   -0.5949 C   0  0  0  0  0  0  0  0  0  0  0  0
    1.3674    0.9965   -0.8404 O   0  0  0  0  0  0  0  0  0  0  0  0
    2.5386    0.2750   -0.4718 C   0  0  0  0  0  0  0  0  0  0  0  0
   -0.0308   -0.7961    0.0329 C   0  0  0  0  0  0  0  0  0  0  0  0
   -1.3107   -1.2553    0.2419 C   0  0  0  0  0  0  0  0  0  0  0  0
   -4.0246    2.0800   -1.5276 H   0  0  0  0  0  0  0  0  0  0  0  0
   -0.7183    2.1906   -1.4712 H   0  0  0  0  0  0  0  0  0  0  0  0
    3.3792    0.9021   -0.7706 H   0  0  0  0  0  0  0  0  0  0  0  0
    2.6004   -0.6852   -0.9967 H   0  0  0  0  0  0  0  0  0  0  0  0
    2.5821    0.1041    0.6105 H   0  0  0  0  0  0  0  0  0  0  0  0
    0.8144   -1.3953    0.3450 H   0  0  0  0  0  0  0  0  0  0  0  0
   -1.4943   -2.2152    0.7168 H   0  0  0  0  0  0  0  0  0  0  0  0
   -7.9320    3.4091   -0.9206 C   0  0  0  0  0  0  0  0  0  0  0  0
   -8.9360    4.3622   -1.0662 C   0  0  0  0  0  0  0  0  0  0  0  0
   -9.4011    4.7383   -2.3360 C   0  0  0  0  0  0  0  0  0  0  0  0
   -8.8321    4.1317   -3.4635 C   0  0  0  0  0  0  0  0  0  0  0  0
   -7.8257    3.1749   -3.3375 C   0  0  0  0  0  0  0  0  0  0  0  0
   -7.3815    2.8262   -2.0632 C   0  0  0  0  0  0  0  0  0  0  0  0
   -7.5811    3.1093    0.0607 H   0  0  0  0  0  0  0  0  0  0  0  0
   -9.3685    4.8210   -0.1810 H   0  0  0  0  0  0  0  0  0  0  0  0
   -9.1822    4.4098   -4.4538 H   0  0  0  0  0  0  0  0  0  0  0  0
   -7.3923    2.6964   -4.2085 H   0  0  0  0  0  0  0  0  0  0  0  0
   -6.0919    1.6063   -1.8916 S   0  0  0  0  0  0  0  0  0  0  0  0
   -6.2281    0.9423   -0.5871 O   0  0  0  0  0  0  0  0  0  0  0  0
   -4.8201    2.5960   -1.8429 O   0  0  0  0  0  0  0  0  0  0  0  0
   -6.0463    0.7860   -3.1028 O   0  0  0  0  0  0  0  0  0  0  0  0
  -10.5092    5.7540   -2.4766 C   0  0  0  0  0  0  0  0  0  0  0  0
  -11.4860    5.3014   -2.2659 H   0  0  0  0  0  0  0  0  0  0  0  0
  -10.3812    6.5847   -1.7753 H   0  0  0  0  0  0  0  0  0  0  0  0
  -10.5495    6.1660   -3.4883 H   0  0  0  0  0  0  0  0  0  0  0  0
  1  2  1  0  0  0  0
  1 10  2  0  0  0  0
  2  3  1  0  0  0  0
  4  1  1  0  0  0  0
  5  4  2  0  0  0  0
  5  6  1  0  0  0  0
  6  9  2  0  0  0  0
  7  6  1  0  0  0  0
  7  8  1  0  0  0  0
  8 15  1  0  0  0  0
  9 10  1  0  0  0  0
  9 16  1  0  0  0  0
 10 17  1  0  0  0  0
 12  5  1  0  0  0  0
 13  8  1  0  0  0  0
 14  8  1  0  0  0  0
 18 24  1  0  0  0  0
 19 18  1  0  0  0  0
 19 25  1  0  0  0  0
 20 19  2  0  0  0  0
 21 22  2  0  0  0  0
 21 20  1  0  0  0  0
 22 23  1  0  0  0  0
 23 28  1  0  0  0  0
 23 18  2  0  0  0  0
 26 21  1  0  0  0  0
 27 22  1  0  0  0  0
 28 30  1  0  0  0  0
 28 29  2  0  0  0  0
 30 11  1  0  0  0  0
 31 28  2  0  0  0  0
 32 20  1  0  0  0  0
 32 33  1  0  0  0  0
 32 34  1  0  0  0  0
 35 32  1  0  0  0  0
M  RAD  3   2   2   3   3   4   2
M  END
