Coordinates from ORCA-job 4-MeOPhN2+~TsO-_B3LYPG-6-31G_dp-CH-Scan-d09-49-n800
 OpenBabel11261919313D

 35 35  0  0  0  0  0  0  0  0999 V2000
   -1.7827   -0.2338   -0.2088 C   0  0  0  0  0  0  0  0  0  0  0  0
   -3.1551   -0.3758   -0.1581 N   0  0  0  0  0  0  0  0  0  0  0  0
   -4.2739   -0.4472   -0.1268 N   0  0  0  0  0  0  0  0  0  0  0  0
   -1.3480    1.0556   -0.5962 C   0  0  0  0  0  0  0  0  0  0  0  0
    0.0602    1.0960   -0.6172 C   0  0  0  0  0  0  0  0  0  0  0  0
    0.8884    0.0083   -0.3023 C   0  0  0  0  0  0  0  0  0  0  0  0
    2.2254    0.2267   -0.3821 O   0  0  0  0  0  0  0  0  0  0  0  0
    3.1305   -0.8301   -0.0905 C   0  0  0  0  0  0  0  0  0  0  0  0
    0.3420   -1.2511    0.0786 C   0  0  0  0  0  0  0  0  0  0  0  0
   -1.0255   -1.3870    0.1302 C   0  0  0  0  0  0  0  0  0  0  0  0
   -4.2498    3.7646   -1.9649 H   0  0  0  0  0  0  0  0  0  0  0  0
    0.5803    2.0139   -0.8952 H   0  0  0  0  0  0  0  0  0  0  0  0
    4.1294   -0.4152   -0.2337 H   0  0  0  0  0  0  0  0  0  0  0  0
    2.9937   -1.6799   -0.7702 H   0  0  0  0  0  0  0  0  0  0  0  0
    3.0307   -1.1749    0.9461 H   0  0  0  0  0  0  0  0  0  0  0  0
    0.9786   -2.0912    0.3254 H   0  0  0  0  0  0  0  0  0  0  0  0
   -1.4904   -2.3275    0.4168 H   0  0  0  0  0  0  0  0  0  0  0  0
   -8.2291    3.8439   -1.0825 C   0  0  0  0  0  0  0  0  0  0  0  0
   -9.4830    4.4444   -1.1325 C   0  0  0  0  0  0  0  0  0  0  0  0
  -10.1701    4.5921   -2.3486 C   0  0  0  0  0  0  0  0  0  0  0  0
   -9.5665    4.1181   -3.5207 C   0  0  0  0  0  0  0  0  0  0  0  0
   -8.3105    3.5132   -3.4922 C   0  0  0  0  0  0  0  0  0  0  0  0
   -7.6528    3.3869   -2.2698 C   0  0  0  0  0  0  0  0  0  0  0  0
   -7.7043    3.7195   -0.1416 H   0  0  0  0  0  0  0  0  0  0  0  0
   -9.9388    4.8034   -0.2138 H   0  0  0  0  0  0  0  0  0  0  0  0
  -10.0864    4.2210   -4.4691 H   0  0  0  0  0  0  0  0  0  0  0  0
   -7.8467    3.1367   -4.3969 H   0  0  0  0  0  0  0  0  0  0  0  0
   -6.0479    2.6190   -2.2202 S   0  0  0  0  0  0  0  0  0  0  0  0
   -5.8146    2.0272   -0.9013 O   0  0  0  0  0  0  0  0  0  0  0  0
   -5.1304    3.9797   -2.3201 O   0  0  0  0  0  0  0  0  0  0  0  0
   -5.8543    1.8237   -3.4288 O   0  0  0  0  0  0  0  0  0  0  0  0
  -11.5384    5.2292   -2.3812 C   0  0  0  0  0  0  0  0  0  0  0  0
  -12.2915    4.5623   -1.9446 H   0  0  0  0  0  0  0  0  0  0  0  0
  -11.5578    6.1587   -1.8037 H   0  0  0  0  0  0  0  0  0  0  0  0
  -11.8500    5.4570   -3.4034 H   0  0  0  0  0  0  0  0  0  0  0  0
  1  2  1  0  0  0  0
  1 10  2  0  0  0  0
  2  3  1  0  0  0  0
  4  1  1  0  0  0  0
  5  4  2  0  0  0  0
  5  6  1  0  0  0  0
  6  9  2  0  0  0  0
  7  6  1  0  0  0  0
  7  8  1  0  0  0  0
  8 15  1  0  0  0  0
  9 10  1  0  0  0  0
  9 16  1  0  0  0  0
 10 17  1  0  0  0  0
 12  5  1  0  0  0  0
 13  8  1  0  0  0  0
 14  8  1  0  0  0  0
 18 24  1  0  0  0  0
 19 18  1  0  0  0  0
 19 25  1  0  0  0  0
 20 19  2  0  0  0  0
 21 22  2  0  0  0  0
 21 20  1  0  0  0  0
 22 23  1  0  0  0  0
 23 28  1  0  0  0  0
 23 18  2  0  0  0  0
 26 21  1  0  0  0  0
 27 22  1  0  0  0  0
 28 29  2  0  0  0  0
 30 28  1  0  0  0  0
 30 11  1  0  0  0  0
 31 28  2  0  0  0  0
 32 20  1  0  0  0  0
 32 33  1  0  0  0  0
 32 34  1  0  0  0  0
 35 32  1  0  0  0  0
M  RAD  3   2   2   3   3   4   2
M  END
