Coordinates from ORCA-job 4-MeOPhN2+~TsO-_B3LYPG-6-31G_dp-CH-Scan-d09-49-n800
 OpenBabel11261919313D

 35 35  0  0  0  0  0  0  0  0999 V2000
   -2.2430   -0.3706   -0.1585 C   0  0  0  0  0  0  0  0  0  0  0  0
   -3.5421   -0.7736    0.0579 N   0  0  0  0  0  0  0  0  0  0  0  0
   -4.6087   -1.0739    0.2235 N   0  0  0  0  0  0  0  0  0  0  0  0
   -2.0904    0.9061   -0.7519 C   0  0  0  0  0  0  0  0  0  0  0  0
   -0.7314    1.2140   -0.9242 C   0  0  0  0  0  0  0  0  0  0  0  0
    0.3212    0.3609   -0.5545 C   0  0  0  0  0  0  0  0  0  0  0  0
    1.5729    0.8173   -0.7936 O   0  0  0  0  0  0  0  0  0  0  0  0
    2.6960    0.0121   -0.4519 C   0  0  0  0  0  0  0  0  0  0  0  0
    0.0668   -0.9080    0.0365 C   0  0  0  0  0  0  0  0  0  0  0  0
   -1.2382   -1.2901    0.2428 C   0  0  0  0  0  0  0  0  0  0  0  0
   -4.0560    2.4619   -1.5380 H   0  0  0  0  0  0  0  0  0  0  0  0
   -0.4336    2.1627   -1.3691 H   0  0  0  0  0  0  0  0  0  0  0  0
    3.5745    0.5922   -0.7365 H   0  0  0  0  0  0  0  0  0  0  0  0
    2.6954   -0.9350   -1.0037 H   0  0  0  0  0  0  0  0  0  0  0  0
    2.7323   -0.1928    0.6249 H   0  0  0  0  0  0  0  0  0  0  0  0
    0.8745   -1.5689    0.3232 H   0  0  0  0  0  0  0  0  0  0  0  0
   -1.4807   -2.2503    0.6907 H   0  0  0  0  0  0  0  0  0  0  0  0
   -8.0385    3.4984   -0.9416 C   0  0  0  0  0  0  0  0  0  0  0  0
   -9.1071    4.3763   -1.0966 C   0  0  0  0  0  0  0  0  0  0  0  0
   -9.5920    4.7120   -2.3707 C   0  0  0  0  0  0  0  0  0  0  0  0
   -8.9765    4.1420   -3.4928 C   0  0  0  0  0  0  0  0  0  0  0  0
   -7.9044    3.2607   -3.3580 C   0  0  0  0  0  0  0  0  0  0  0  0
   -7.4429    2.9514   -2.0798 C   0  0  0  0  0  0  0  0  0  0  0  0
   -7.6716    3.2295    0.0428 H   0  0  0  0  0  0  0  0  0  0  0  0
   -9.5754    4.8071   -0.2157 H   0  0  0  0  0  0  0  0  0  0  0  0
   -9.3415    4.3892   -4.4858 H   0  0  0  0  0  0  0  0  0  0  0  0
   -7.4336    2.8107   -4.2247 H   0  0  0  0  0  0  0  0  0  0  0  0
   -6.0734    1.8259   -1.8964 S   0  0  0  0  0  0  0  0  0  0  0  0
   -6.1666    1.1537   -0.5953 O   0  0  0  0  0  0  0  0  0  0  0  0
   -4.8760    2.9220   -1.8297 O   0  0  0  0  0  0  0  0  0  0  0  0
   -5.9432    1.0230   -3.1115 O   0  0  0  0  0  0  0  0  0  0  0  0
  -10.7669    5.6484   -2.5198 C   0  0  0  0  0  0  0  0  0  0  0  0
  -11.7052    5.1464   -2.2541 H   0  0  0  0  0  0  0  0  0  0  0  0
  -10.6699    6.5177   -1.8617 H   0  0  0  0  0  0  0  0  0  0  0  0
  -10.8646    6.0088   -3.5468 H   0  0  0  0  0  0  0  0  0  0  0  0
  1  2  1  0  0  0  0
  1 10  2  0  0  0  0
  2  3  1  0  0  0  0
  4  1  1  0  0  0  0
  5  4  2  0  0  0  0
  5  6  1  0  0  0  0
  6  9  2  0  0  0  0
  7  6  1  0  0  0  0
  7  8  1  0  0  0  0
  8 15  1  0  0  0  0
  9 10  1  0  0  0  0
  9 16  1  0  0  0  0
 10 17  1  0  0  0  0
 12  5  1  0  0  0  0
 13  8  1  0  0  0  0
 14  8  1  0  0  0  0
 18 24  1  0  0  0  0
 19 18  1  0  0  0  0
 19 25  1  0  0  0  0
 20 19  2  0  0  0  0
 21 22  2  0  0  0  0
 21 20  1  0  0  0  0
 22 23  1  0  0  0  0
 23 28  1  0  0  0  0
 23 18  2  0  0  0  0
 26 21  1  0  0  0  0
 27 22  1  0  0  0  0
 28 30  1  0  0  0  0
 28 29  2  0  0  0  0
 30 11  1  0  0  0  0
 31 28  2  0  0  0  0
 32 20  1  0  0  0  0
 32 33  1  0  0  0  0
 32 34  1  0  0  0  0
 35 32  1  0  0  0  0
M  RAD  3   2   2   3   3   4   2
M  END
