Coordinates from ORCA-job 4-MeOPhN2+~TsO-_B3LYPG-6-31G_dp-CH-Scan-d09-49-n800
 OpenBabel11261919313D

 35 35  0  0  0  0  0  0  0  0999 V2000
   -2.2354   -0.3662   -0.1540 C   0  0  0  0  0  0  0  0  0  0  0  0
   -3.5362   -0.7634    0.0633 N   0  0  0  0  0  0  0  0  0  0  0  0
   -4.6040   -1.0591    0.2300 N   0  0  0  0  0  0  0  0  0  0  0  0
   -2.0779    0.9119   -0.7427 C   0  0  0  0  0  0  0  0  0  0  0  0
   -0.7176    1.2134   -0.9167 C   0  0  0  0  0  0  0  0  0  0  0  0
    0.3314    0.3536   -0.5525 C   0  0  0  0  0  0  0  0  0  0  0  0
    1.5850    0.8045   -0.7926 O   0  0  0  0  0  0  0  0  0  0  0  0
    2.7046   -0.0077   -0.4560 C   0  0  0  0  0  0  0  0  0  0  0  0
    0.0719   -0.9163    0.0344 C   0  0  0  0  0  0  0  0  0  0  0  0
   -1.2346   -1.2925    0.2419 C   0  0  0  0  0  0  0  0  0  0  0  0
   -4.0569    2.4931   -1.5284 H   0  0  0  0  0  0  0  0  0  0  0  0
   -0.4157    2.1623   -1.3587 H   0  0  0  0  0  0  0  0  0  0  0  0
    3.5856    0.5689   -0.7403 H   0  0  0  0  0  0  0  0  0  0  0  0
    2.6982   -0.9528   -1.0111 H   0  0  0  0  0  0  0  0  0  0  0  0
    2.7421   -0.2165    0.6200 H   0  0  0  0  0  0  0  0  0  0  0  0
    0.8768   -1.5822    0.3170 H   0  0  0  0  0  0  0  0  0  0  0  0
   -1.4811   -2.2531    0.6867 H   0  0  0  0  0  0  0  0  0  0  0  0
   -8.0467    3.5046   -0.9419 C   0  0  0  0  0  0  0  0  0  0  0  0
   -9.1204    4.3757   -1.0995 C   0  0  0  0  0  0  0  0  0  0  0  0
   -9.6045    4.7083   -2.3747 C   0  0  0  0  0  0  0  0  0  0  0  0
   -8.9827    4.1423   -3.4954 C   0  0  0  0  0  0  0  0  0  0  0  0
   -7.9052    3.2679   -3.3580 C   0  0  0  0  0  0  0  0  0  0  0  0
   -7.4449    2.9615   -2.0787 C   0  0  0  0  0  0  0  0  0  0  0  0
   -7.6805    3.2379    0.0433 H   0  0  0  0  0  0  0  0  0  0  0  0
   -9.5937    4.8034   -0.2198 H   0  0  0  0  0  0  0  0  0  0  0  0
   -9.3469    4.3871   -4.4892 H   0  0  0  0  0  0  0  0  0  0  0  0
   -7.4294    2.8209   -4.2236 H   0  0  0  0  0  0  0  0  0  0  0  0
   -6.0689    1.8445   -1.8922 S   0  0  0  0  0  0  0  0  0  0  0  0
   -6.1628    1.1688   -0.5930 O   0  0  0  0  0  0  0  0  0  0  0  0
   -4.8792    2.9493   -1.8178 O   0  0  0  0  0  0  0  0  0  0  0  0
   -5.9277    1.0457   -3.1086 O   0  0  0  0  0  0  0  0  0  0  0  0
  -10.7848    5.6374   -2.5266 C   0  0  0  0  0  0  0  0  0  0  0  0
  -11.7199    5.1314   -2.2571 H   0  0  0  0  0  0  0  0  0  0  0  0
  -10.6918    6.5103   -1.8728 H   0  0  0  0  0  0  0  0  0  0  0  0
  -10.8859    5.9925   -3.5551 H   0  0  0  0  0  0  0  0  0  0  0  0
  1  2  1  0  0  0  0
  1 10  2  0  0  0  0
  2  3  1  0  0  0  0
  4  1  1  0  0  0  0
  5  4  2  0  0  0  0
  5  6  1  0  0  0  0
  6  9  2  0  0  0  0
  7  6  1  0  0  0  0
  7  8  1  0  0  0  0
  8 15  1  0  0  0  0
  9 10  1  0  0  0  0
  9 16  1  0  0  0  0
 10 17  1  0  0  0  0
 12  5  1  0  0  0  0
 13  8  1  0  0  0  0
 14  8  1  0  0  0  0
 18 24  1  0  0  0  0
 19 18  1  0  0  0  0
 19 25  1  0  0  0  0
 20 19  2  0  0  0  0
 21 22  2  0  0  0  0
 21 20  1  0  0  0  0
 22 23  1  0  0  0  0
 23 28  1  0  0  0  0
 23 18  2  0  0  0  0
 26 21  1  0  0  0  0
 27 22  1  0  0  0  0
 28 30  1  0  0  0  0
 28 29  2  0  0  0  0
 30 11  1  0  0  0  0
 31 28  2  0  0  0  0
 32 20  1  0  0  0  0
 32 33  1  0  0  0  0
 32 34  1  0  0  0  0
 35 32  1  0  0  0  0
M  RAD  3   2   2   3   3   4   2
M  END
