Coordinates from ORCA-job 4-MeOPhN2+~TsO-_B3LYPG-6-31G_dp-CH-Scan-d09-49-n800
 OpenBabel11261919303D

 35 35  0  0  0  0  0  0  0  0999 V2000
   -2.7352   -0.1373   -0.4060 C   0  0  0  0  0  0  0  0  0  0  0  0
   -4.0869   -0.4380   -0.4427 N   0  0  0  0  0  0  0  0  0  0  0  0
   -5.1971   -0.1791   -0.4713 N   0  0  0  0  0  0  0  0  0  0  0  0
   -2.2970    1.2037   -0.3612 C   0  0  0  0  0  0  0  0  0  0  0  0
   -0.9383    1.4407   -0.3324 C   0  0  0  0  0  0  0  0  0  0  0  0
   -0.0165    0.3728   -0.3468 C   0  0  0  0  0  0  0  0  0  0  0  0
    1.2804    0.7289   -0.3156 O   0  0  0  0  0  0  0  0  0  0  0  0
    2.2853   -0.2833   -0.3440 C   0  0  0  0  0  0  0  0  0  0  0  0
   -0.4717   -0.9597   -0.3917 C   0  0  0  0  0  0  0  0  0  0  0  0
   -1.8344   -1.2112   -0.4217 C   0  0  0  0  0  0  0  0  0  0  0  0
   -3.0453    2.0508   -0.3649 H   0  0  0  0  0  0  0  0  0  0  0  0
   -0.5547    2.4546   -0.3068 H   0  0  0  0  0  0  0  0  0  0  0  0
    3.2373    0.2459   -0.3142 H   0  0  0  0  0  0  0  0  0  0  0  0
    2.2265   -0.8754   -1.2645 H   0  0  0  0  0  0  0  0  0  0  0  0
    2.2087   -0.9444    0.5271 H   0  0  0  0  0  0  0  0  0  0  0  0
    0.2228   -1.7895   -0.4059 H   0  0  0  0  0  0  0  0  0  0  0  0
   -2.2103   -2.2280   -0.4604 H   0  0  0  0  0  0  0  0  0  0  0  0
   -7.1561    4.5622   -1.6097 C   0  0  0  0  0  0  0  0  0  0  0  0
   -8.4187    5.1192   -1.8052 C   0  0  0  0  0  0  0  0  0  0  0  0
   -9.4463    4.3894   -2.4197 C   0  0  0  0  0  0  0  0  0  0  0  0
   -9.1711    3.0830   -2.8469 C   0  0  0  0  0  0  0  0  0  0  0  0
   -7.9131    2.5128   -2.6579 C   0  0  0  0  0  0  0  0  0  0  0  0
   -6.9106    3.2558   -2.0341 C   0  0  0  0  0  0  0  0  0  0  0  0
   -6.3558    5.1338   -1.1523 H   0  0  0  0  0  0  0  0  0  0  0  0
   -8.6081    6.1399   -1.4824 H   0  0  0  0  0  0  0  0  0  0  0  0
   -9.9504    2.5068   -3.3400 H   0  0  0  0  0  0  0  0  0  0  0  0
   -7.6953    1.5092   -3.0066 H   0  0  0  0  0  0  0  0  0  0  0  0
   -5.2985    2.5174   -1.7543 S   0  0  0  0  0  0  0  0  0  0  0  0
   -5.3934    1.8798   -0.3516 O   0  0  0  0  0  0  0  0  0  0  0  0
   -4.3170    3.6230   -1.7197 O   0  0  0  0  0  0  0  0  0  0  0  0
   -5.1045    1.4731   -2.7838 O   0  0  0  0  0  0  0  0  0  0  0  0
  -10.8202    4.9902   -2.6016 C   0  0  0  0  0  0  0  0  0  0  0  0
  -11.4528    4.8043   -1.7237 H   0  0  0  0  0  0  0  0  0  0  0  0
  -10.7683    6.0747   -2.7401 H   0  0  0  0  0  0  0  0  0  0  0  0
  -11.3331    4.5611   -3.4676 H   0  0  0  0  0  0  0  0  0  0  0  0
  1  4  1  0  0  0  0
  2  1  1  0  0  0  0
  3  2  2  0  0  0  0
  4  5  2  0  0  0  0
  5 12  1  0  0  0  0
  6  5  1  0  0  0  0
  6  7  1  0  0  0  0
  8  7  1  0  0  0  0
  8 13  1  0  0  0  0
  8 15  1  0  0  0  0
  9  6  2  0  0  0  0
 10  1  2  0  0  0  0
 10  9  1  0  0  0  0
 11  4  1  0  0  0  0
 14  8  1  0  0  0  0
 16  9  1  0  0  0  0
 17 10  1  0  0  0  0
 18 24  1  0  0  0  0
 19 18  1  0  0  0  0
 19 25  1  0  0  0  0
 20 19  2  0  0  0  0
 21 22  2  0  0  0  0
 21 20  1  0  0  0  0
 22 23  1  0  0  0  0
 23 28  1  0  0  0  0
 23 18  2  0  0  0  0
 26 21  1  0  0  0  0
 27 22  1  0  0  0  0
 28 30  2  0  0  0  0
 28 29  1  0  0  0  0
 31 28  2  0  0  0  0
 32 20  1  0  0  0  0
 32 33  1  0  0  0  0
 34 32  1  0  0  0  0
 35 32  1  0  0  0  0
M  RAD  2   3   2  29   2
M  END
