Coordinates from ORCA-job 4-MeOPhN2+~TsO-_B3LYPG-6-31G_dp-CH-Scan-d09-49-n800
 OpenBabel11261919303D

 35 35  0  0  0  0  0  0  0  0999 V2000
   -2.6201   -0.3345   -0.6695 C   0  0  0  0  0  0  0  0  0  0  0  0
   -3.9172   -0.7924   -0.8228 N   0  0  0  0  0  0  0  0  0  0  0  0
   -5.0433   -0.7544   -0.9632 N   0  0  0  0  0  0  0  0  0  0  0  0
   -2.3127    1.0208   -0.9176 C   0  0  0  0  0  0  0  0  0  0  0  0
   -1.0000    1.4171   -0.7548 C   0  0  0  0  0  0  0  0  0  0  0  0
   -0.0072    0.5009   -0.3494 C   0  0  0  0  0  0  0  0  0  0  0  0
    1.2315    1.0097   -0.2216 O   0  0  0  0  0  0  0  0  0  0  0  0
    2.3038    0.1547    0.1741 C   0  0  0  0  0  0  0  0  0  0  0  0
   -0.3365   -0.8497   -0.1131 C   0  0  0  0  0  0  0  0  0  0  0  0
   -1.6463   -1.2679   -0.2826 C   0  0  0  0  0  0  0  0  0  0  0  0
   -3.1213    1.7623   -1.2798 H   0  0  0  0  0  0  0  0  0  0  0  0
   -0.7080    2.4441   -0.9436 H   0  0  0  0  0  0  0  0  0  0  0  0
    3.1893    0.7892    0.2056 H   0  0  0  0  0  0  0  0  0  0  0  0
    2.4578   -0.6508   -0.5528 H   0  0  0  0  0  0  0  0  0  0  0  0
    2.1255   -0.2716    1.1675 H   0  0  0  0  0  0  0  0  0  0  0  0
    0.4159   -1.5646    0.1932 H   0  0  0  0  0  0  0  0  0  0  0  0
   -1.9256   -2.3018   -0.1108 H   0  0  0  0  0  0  0  0  0  0  0  0
   -7.0247    4.2693   -1.6932 C   0  0  0  0  0  0  0  0  0  0  0  0
   -8.1714    5.0604   -1.6896 C   0  0  0  0  0  0  0  0  0  0  0  0
   -9.3810    4.5864   -2.2192 C   0  0  0  0  0  0  0  0  0  0  0  0
   -9.4076    3.2965   -2.7662 C   0  0  0  0  0  0  0  0  0  0  0  0
   -8.2674    2.4929   -2.7763 C   0  0  0  0  0  0  0  0  0  0  0  0
   -7.0798    2.9834   -2.2342 C   0  0  0  0  0  0  0  0  0  0  0  0
   -6.0853    4.6434   -1.3011 H   0  0  0  0  0  0  0  0  0  0  0  0
   -8.1268    6.0645   -1.2752 H   0  0  0  0  0  0  0  0  0  0  0  0
  -10.3317    2.9180   -3.1963 H   0  0  0  0  0  0  0  0  0  0  0  0
   -8.2830    1.5016   -3.2151 H   0  0  0  0  0  0  0  0  0  0  0  0
   -5.6203    1.9389   -2.2063 S   0  0  0  0  0  0  0  0  0  0  0  0
   -5.6501    1.2779   -0.8249 O   0  0  0  0  0  0  0  0  0  0  0  0
   -4.4481    2.8529   -2.2995 O   0  0  0  0  0  0  0  0  0  0  0  0
   -5.7601    0.9447   -3.2901 O   0  0  0  0  0  0  0  0  0  0  0  0
  -10.6254    5.4424   -2.1847 C   0  0  0  0  0  0  0  0  0  0  0  0
  -11.1123    5.3934   -1.2021 H   0  0  0  0  0  0  0  0  0  0  0  0
  -10.3931    6.4949   -2.3765 H   0  0  0  0  0  0  0  0  0  0  0  0
  -11.3572    5.1150   -2.9288 H   0  0  0  0  0  0  0  0  0  0  0  0
  1 10  2  0  0  0  0
  2  1  1  0  0  0  0
  3  2  1  0  0  0  0
  4  5  2  0  0  0  0
  4  1  1  0  0  0  0
  5  6  1  0  0  0  0
  6  7  1  0  0  0  0
  6  9  2  0  0  0  0
  7  8  1  0  0  0  0
  8 13  1  0  0  0  0
  8 15  1  0  0  0  0
  9 16  1  0  0  0  0
 10  9  1  0  0  0  0
 10 17  1  0  0  0  0
 11  4  1  0  0  0  0
 12  5  1  0  0  0  0
 14  8  1  0  0  0  0
 18 19  1  0  0  0  0
 18 24  1  0  0  0  0
 19 25  1  0  0  0  0
 20 32  1  0  0  0  0
 20 19  2  0  0  0  0
 21 20  1  0  0  0  0
 22 21  2  0  0  0  0
 22 23  1  0  0  0  0
 23 28  1  0  0  0  0
 23 18  2  0  0  0  0
 26 21  1  0  0  0  0
 27 22  1  0  0  0  0
 28 29  1  0  0  0  0
 30 28  2  0  0  0  0
 31 28  2  0  0  0  0
 32 33  1  0  0  0  0
 34 32  1  0  0  0  0
 35 32  1  0  0  0  0
M  RAD  3   2   2   3   3  29   2
M  END
