Coordinates from ORCA-job 4-MeOPhN2+~TsO-_B3LYPG-6-31G_dp-CH-Scan-d09-49-n800
 OpenBabel11261919313D

 35 35  0  0  0  0  0  0  0  0999 V2000
   -1.6552   -0.3235   -0.5783 C   0  0  0  0  0  0  0  0  0  0  0  0
   -3.0061   -0.5138   -0.7919 N   0  0  0  0  0  0  0  0  0  0  0  0
   -4.1056   -0.6237   -0.9845 N   0  0  0  0  0  0  0  0  0  0  0  0
   -1.1807    0.9437   -0.9908 C   0  0  0  0  0  0  0  0  0  0  0  0
    0.2017    1.0386   -0.7342 C   0  0  0  0  0  0  0  0  0  0  0  0
    0.9719    0.0182   -0.1566 C   0  0  0  0  0  0  0  0  0  0  0  0
    2.2915    0.2839    0.0160 O   0  0  0  0  0  0  0  0  0  0  0  0
    3.1395   -0.7008    0.5931 C   0  0  0  0  0  0  0  0  0  0  0  0
    0.3880   -1.2250    0.2225 C   0  0  0  0  0  0  0  0  0  0  0  0
   -0.9578   -1.4120    0.0109 C   0  0  0  0  0  0  0  0  0  0  0  0
   -4.3993    3.5515   -2.8105 H   0  0  0  0  0  0  0  0  0  0  0  0
    0.7470    1.9490   -0.9877 H   0  0  0  0  0  0  0  0  0  0  0  0
    4.1349   -0.2552    0.6250 H   0  0  0  0  0  0  0  0  0  0  0  0
    3.1734   -1.6132   -0.0147 H   0  0  0  0  0  0  0  0  0  0  0  0
    2.8280   -0.9566    1.6131 H   0  0  0  0  0  0  0  0  0  0  0  0
    0.9807   -2.0139    0.6676 H   0  0  0  0  0  0  0  0  0  0  0  0
   -1.4498   -2.3432    0.2827 H   0  0  0  0  0  0  0  0  0  0  0  0
   -8.0515    3.8094   -1.2614 C   0  0  0  0  0  0  0  0  0  0  0  0
   -9.2480    4.4875   -1.0475 C   0  0  0  0  0  0  0  0  0  0  0  0
  -10.1678    4.6844   -2.0895 C   0  0  0  0  0  0  0  0  0  0  0  0
   -9.8583    4.1808   -3.3604 C   0  0  0  0  0  0  0  0  0  0  0  0
   -8.6665    3.4973   -3.5953 C   0  0  0  0  0  0  0  0  0  0  0  0
   -7.7717    3.3231   -2.5400 C   0  0  0  0  0  0  0  0  0  0  0  0
   -7.3466    3.6472   -0.4532 H   0  0  0  0  0  0  0  0  0  0  0  0
   -9.4730    4.8700   -0.0555 H   0  0  0  0  0  0  0  0  0  0  0  0
  -10.5603    4.3234   -4.1777 H   0  0  0  0  0  0  0  0  0  0  0  0
   -8.4319    3.0976   -4.5755 H   0  0  0  0  0  0  0  0  0  0  0  0
   -6.2414    2.4601   -2.8291 S   0  0  0  0  0  0  0  0  0  0  0  0
   -5.7406    1.8939   -1.5746 O   0  0  0  0  0  0  0  0  0  0  0  0
   -5.2739    3.7398   -3.1938 O   0  0  0  0  0  0  0  0  0  0  0  0
   -6.3812    1.6301   -4.0198 O   0  0  0  0  0  0  0  0  0  0  0  0
  -11.4730    5.3985   -1.8355 C   0  0  0  0  0  0  0  0  0  0  0  0
  -12.2122    4.7171   -1.3958 H   0  0  0  0  0  0  0  0  0  0  0  0
  -11.3432    6.2305   -1.1367 H   0  0  0  0  0  0  0  0  0  0  0  0
  -11.9008    5.7929   -2.7608 H   0  0  0  0  0  0  0  0  0  0  0  0
  1 10  2  0  0  0  0
  2  1  1  0  0  0  0
  3  2  1  0  0  0  0
  4  5  2  0  0  0  0
  4  1  1  0  0  0  0
  5  6  1  0  0  0  0
  6  7  1  0  0  0  0
  6  9  2  0  0  0  0
  7  8  1  0  0  0  0
  8 13  1  0  0  0  0
  8 15  1  0  0  0  0
  9 16  1  0  0  0  0
 10  9  1  0  0  0  0
 10 17  1  0  0  0  0
 12  5  1  0  0  0  0
 14  8  1  0  0  0  0
 18 19  1  0  0  0  0
 18 24  1  0  0  0  0
 19 25  1  0  0  0  0
 20 32  1  0  0  0  0
 20 19  2  0  0  0  0
 21 20  1  0  0  0  0
 22 21  2  0  0  0  0
 22 23  1  0  0  0  0
 23 18  2  0  0  0  0
 26 21  1  0  0  0  0
 27 22  1  0  0  0  0
 28 23  1  0  0  0  0
 28 29  2  0  0  0  0
 30 28  1  0  0  0  0
 30 11  1  0  0  0  0
 31 28  2  0  0  0  0
 32 33  1  0  0  0  0
 32 34  1  0  0  0  0
 35 32  1  0  0  0  0
M  RAD  3   2   2   3   3   4   2
M  END
