Coordinates from ORCA-job 4-MeOPhN2+~TsO-_B3LYPG-6-31G_dp-CH-Scan-d09-49-n800
 OpenBabel11261919313D

 35 35  0  0  0  0  0  0  0  0999 V2000
   -2.4030   -0.4279   -0.1990 C   0  0  0  0  0  0  0  0  0  0  0  0
   -3.6664   -0.9264    0.0233 N   0  0  0  0  0  0  0  0  0  0  0  0
   -4.7076   -1.3025    0.1914 N   0  0  0  0  0  0  0  0  0  0  0  0
   -2.3369    0.8364   -0.8350 C   0  0  0  0  0  0  0  0  0  0  0  0
   -1.0082    1.2462   -1.0101 C   0  0  0  0  0  0  0  0  0  0  0  0
    0.1048    0.4903   -0.6048 C   0  0  0  0  0  0  0  0  0  0  0  0
    1.3169    1.0354   -0.8525 O   0  0  0  0  0  0  0  0  0  0  0  0
    2.4982    0.3306   -0.4830 C   0  0  0  0  0  0  0  0  0  0  0  0
   -0.0569   -0.7731    0.0265 C   0  0  0  0  0  0  0  0  0  0  0  0
   -1.3307   -1.2484    0.2370 C   0  0  0  0  0  0  0  0  0  0  0  0
   -4.0107    2.0070   -1.5111 H   0  0  0  0  0  0  0  0  0  0  0  0
   -0.7851    2.1998   -1.4858 H   0  0  0  0  0  0  0  0  0  0  0  0
    3.3299    0.9681   -0.7845 H   0  0  0  0  0  0  0  0  0  0  0  0
    2.5721   -0.6302   -1.0051 H   0  0  0  0  0  0  0  0  0  0  0  0
    2.5448    0.1636    0.5999 H   0  0  0  0  0  0  0  0  0  0  0  0
    0.7961   -1.3604    0.3400 H   0  0  0  0  0  0  0  0  0  0  0  0
   -1.5015   -2.2093    0.7145 H   0  0  0  0  0  0  0  0  0  0  0  0
   -7.9073    3.3916   -0.9136 C   0  0  0  0  0  0  0  0  0  0  0  0
   -8.8990    4.3574   -1.0603 C   0  0  0  0  0  0  0  0  0  0  0  0
   -9.3575    4.7397   -2.3305 C   0  0  0  0  0  0  0  0  0  0  0  0
   -8.7945    4.1263   -3.4574 C   0  0  0  0  0  0  0  0  0  0  0  0
   -7.8005    3.1569   -3.3302 C   0  0  0  0  0  0  0  0  0  0  0  0
   -7.3624    2.8020   -2.0554 C   0  0  0  0  0  0  0  0  0  0  0  0
   -7.5616    3.0871    0.0680 H   0  0  0  0  0  0  0  0  0  0  0  0
   -9.3270    4.8213   -0.1756 H   0  0  0  0  0  0  0  0  0  0  0  0
   -9.1397    4.4091   -4.4482 H   0  0  0  0  0  0  0  0  0  0  0  0
   -7.3719    2.6731   -4.2007 H   0  0  0  0  0  0  0  0  0  0  0  0
   -6.0876    1.5663   -1.8825 S   0  0  0  0  0  0  0  0  0  0  0  0
   -6.2364    0.9030   -0.5784 O   0  0  0  0  0  0  0  0  0  0  0  0
   -4.8038    2.5346   -1.8321 O   0  0  0  0  0  0  0  0  0  0  0  0
   -6.0543    0.7439   -3.0933 O   0  0  0  0  0  0  0  0  0  0  0  0
  -10.4531    5.7688   -2.4727 C   0  0  0  0  0  0  0  0  0  0  0  0
  -11.4365    5.3264   -2.2707 H   0  0  0  0  0  0  0  0  0  0  0  0
  -10.3201    6.5944   -1.7663 H   0  0  0  0  0  0  0  0  0  0  0  0
  -10.4823    6.1863   -3.4825 H   0  0  0  0  0  0  0  0  0  0  0  0
  1  2  1  0  0  0  0
  1 10  2  0  0  0  0
  2  3  1  0  0  0  0
  4  1  1  0  0  0  0
  5  4  2  0  0  0  0
  5  6  1  0  0  0  0
  6  9  2  0  0  0  0
  7  6  1  0  0  0  0
  7  8  1  0  0  0  0
  8 15  1  0  0  0  0
  9 10  1  0  0  0  0
  9 16  1  0  0  0  0
 10 17  1  0  0  0  0
 12  5  1  0  0  0  0
 13  8  1  0  0  0  0
 14  8  1  0  0  0  0
 18 24  1  0  0  0  0
 19 18  1  0  0  0  0
 19 25  1  0  0  0  0
 20 19  2  0  0  0  0
 21 22  2  0  0  0  0
 21 20  1  0  0  0  0
 22 23  1  0  0  0  0
 23 28  1  0  0  0  0
 23 18  2  0  0  0  0
 26 21  1  0  0  0  0
 27 22  1  0  0  0  0
 28 30  1  0  0  0  0
 28 29  2  0  0  0  0
 30 11  1  0  0  0  0
 31 28  2  0  0  0  0
 32 20  1  0  0  0  0
 32 33  1  0  0  0  0
 32 34  1  0  0  0  0
 35 32  1  0  0  0  0
M  RAD  3   2   2   3   3   4   2
M  END
