Coordinates from ORCA-job 4-MeOPhN2+~TsO-_B3LYPG-6-31G_dp-CH-Scan-d09-49-n800
 OpenBabel11261919313D

 35 35  0  0  0  0  0  0  0  0999 V2000
   -1.8391   -0.2269   -0.1631 C   0  0  0  0  0  0  0  0  0  0  0  0
   -3.2077   -0.3788   -0.0655 N   0  0  0  0  0  0  0  0  0  0  0  0
   -4.3240   -0.4586    0.0066 N   0  0  0  0  0  0  0  0  0  0  0  0
   -1.4254    1.0642   -0.5677 C   0  0  0  0  0  0  0  0  0  0  0  0
   -0.0192    1.1138   -0.6363 C   0  0  0  0  0  0  0  0  0  0  0  0
    0.8263    0.0321   -0.3477 C   0  0  0  0  0  0  0  0  0  0  0  0
    2.1582    0.2590   -0.4734 O   0  0  0  0  0  0  0  0  0  0  0  0
    3.0797   -0.7917   -0.2127 C   0  0  0  0  0  0  0  0  0  0  0  0
    0.3012   -1.2298    0.0542 C   0  0  0  0  0  0  0  0  0  0  0  0
   -1.0629   -1.3741    0.1525 C   0  0  0  0  0  0  0  0  0  0  0  0
   -4.2046    3.7394   -1.8306 H   0  0  0  0  0  0  0  0  0  0  0  0
    0.4852    2.0343   -0.9337 H   0  0  0  0  0  0  0  0  0  0  0  0
    4.0702   -0.3707   -0.3915 H   0  0  0  0  0  0  0  0  0  0  0  0
    2.9244   -1.6430   -0.8863 H   0  0  0  0  0  0  0  0  0  0  0  0
    3.0186   -1.1359    0.8271 H   0  0  0  0  0  0  0  0  0  0  0  0
    0.9511   -2.0653    0.2810 H   0  0  0  0  0  0  0  0  0  0  0  0
   -1.5118   -2.3168    0.4568 H   0  0  0  0  0  0  0  0  0  0  0  0
   -8.2338    3.8224   -1.0432 C   0  0  0  0  0  0  0  0  0  0  0  0
   -9.4849    4.4231   -1.1419 C   0  0  0  0  0  0  0  0  0  0  0  0
  -10.1216    4.5759   -2.3843 C   0  0  0  0  0  0  0  0  0  0  0  0
   -9.4705    4.1071   -3.5329 C   0  0  0  0  0  0  0  0  0  0  0  0
   -8.2166    3.5023   -3.4557 C   0  0  0  0  0  0  0  0  0  0  0  0
   -7.6093    3.3708   -2.2078 C   0  0  0  0  0  0  0  0  0  0  0  0
   -7.7474    3.6942   -0.0824 H   0  0  0  0  0  0  0  0  0  0  0  0
   -9.9779    4.7782   -0.2411 H   0  0  0  0  0  0  0  0  0  0  0  0
   -9.9512    4.2144   -4.5013 H   0  0  0  0  0  0  0  0  0  0  0  0
   -7.7160    3.1300   -4.3423 H   0  0  0  0  0  0  0  0  0  0  0  0
   -6.0081    2.6018   -2.0964 S   0  0  0  0  0  0  0  0  0  0  0  0
   -5.8287    2.0085   -0.7698 O   0  0  0  0  0  0  0  0  0  0  0  0
   -5.0916    3.9645   -2.1629 O   0  0  0  0  0  0  0  0  0  0  0  0
   -5.7671    1.8051   -3.2959 O   0  0  0  0  0  0  0  0  0  0  0  0
  -11.4879    5.2122   -2.4703 C   0  0  0  0  0  0  0  0  0  0  0  0
  -12.2603    4.5349   -2.0866 H   0  0  0  0  0  0  0  0  0  0  0  0
  -11.5376    6.1287   -1.8742 H   0  0  0  0  0  0  0  0  0  0  0  0
  -11.7494    5.4621   -3.5014 H   0  0  0  0  0  0  0  0  0  0  0  0
  1  2  1  0  0  0  0
  1 10  2  0  0  0  0
  2  3  1  0  0  0  0
  4  1  1  0  0  0  0
  5  4  2  0  0  0  0
  5  6  1  0  0  0  0
  6  9  2  0  0  0  0
  7  6  1  0  0  0  0
  7  8  1  0  0  0  0
  8 15  1  0  0  0  0
  9 10  1  0  0  0  0
  9 16  1  0  0  0  0
 10 17  1  0  0  0  0
 12  5  1  0  0  0  0
 13  8  1  0  0  0  0
 14  8  1  0  0  0  0
 18 24  1  0  0  0  0
 19 18  1  0  0  0  0
 19 25  1  0  0  0  0
 20 19  2  0  0  0  0
 21 22  2  0  0  0  0
 21 20  1  0  0  0  0
 22 23  1  0  0  0  0
 23 28  1  0  0  0  0
 23 18  2  0  0  0  0
 26 21  1  0  0  0  0
 27 22  1  0  0  0  0
 28 29  2  0  0  0  0
 30 28  1  0  0  0  0
 30 11  1  0  0  0  0
 31 28  2  0  0  0  0
 32 20  1  0  0  0  0
 32 33  1  0  0  0  0
 32 34  1  0  0  0  0
 35 32  1  0  0  0  0
M  RAD  3   2   2   3   3   4   2
M  END
