Coordinates from ORCA-job 4-MeOPhN2+~TsO-_B3LYPG-6-31G_dp-CH-Scan-d09-49-n800
 OpenBabel11261919303D

 35 35  0  0  0  0  0  0  0  0999 V2000
   -2.7663   -0.0930   -0.3882 C   0  0  0  0  0  0  0  0  0  0  0  0
   -4.1255   -0.3674   -0.4153 N   0  0  0  0  0  0  0  0  0  0  0  0
   -5.2226   -0.0471   -0.4362 N   0  0  0  0  0  0  0  0  0  0  0  0
   -2.3005    1.2387   -0.3212 C   0  0  0  0  0  0  0  0  0  0  0  0
   -0.9359    1.4442   -0.3011 C   0  0  0  0  0  0  0  0  0  0  0  0
   -0.0365    0.3585   -0.3474 C   0  0  0  0  0  0  0  0  0  0  0  0
    1.2680    0.6878   -0.3222 O   0  0  0  0  0  0  0  0  0  0  0  0
    2.2508   -0.3444   -0.3813 C   0  0  0  0  0  0  0  0  0  0  0  0
   -0.5201   -0.9623   -0.4142 C   0  0  0  0  0  0  0  0  0  0  0  0
   -1.8887   -1.1839   -0.4337 C   0  0  0  0  0  0  0  0  0  0  0  0
   -2.9659    2.0247   -0.2948 H   0  0  0  0  0  0  0  0  0  0  0  0
   -0.5310    2.4493   -0.2574 H   0  0  0  0  0  0  0  0  0  0  0  0
    3.2141    0.1638   -0.3504 H   0  0  0  0  0  0  0  0  0  0  0  0
    2.1704   -0.9162   -1.3129 H   0  0  0  0  0  0  0  0  0  0  0  0
    2.1685   -1.0217    0.4768 H   0  0  0  0  0  0  0  0  0  0  0  0
    0.1564   -1.8060   -0.4523 H   0  0  0  0  0  0  0  0  0  0  0  0
   -2.2867   -2.1914   -0.4882 H   0  0  0  0  0  0  0  0  0  0  0  0
   -7.1624    4.5967   -1.6071 C   0  0  0  0  0  0  0  0  0  0  0  0
   -8.4432    5.1084   -1.8065 C   0  0  0  0  0  0  0  0  0  0  0  0
   -9.4424    4.3426   -2.4243 C   0  0  0  0  0  0  0  0  0  0  0  0
   -9.1196    3.0468   -2.8507 C   0  0  0  0  0  0  0  0  0  0  0  0
   -7.8427    2.5214   -2.6575 C   0  0  0  0  0  0  0  0  0  0  0  0
   -6.8695    3.2995   -2.0303 C   0  0  0  0  0  0  0  0  0  0  0  0
   -6.3846    5.1966   -1.1474 H   0  0  0  0  0  0  0  0  0  0  0  0
   -8.6697    6.1217   -1.4843 H   0  0  0  0  0  0  0  0  0  0  0  0
   -9.8765    2.4434   -3.3461 H   0  0  0  0  0  0  0  0  0  0  0  0
   -7.5883    1.5262   -3.0052 H   0  0  0  0  0  0  0  0  0  0  0  0
   -5.2325    2.6207   -1.7443 S   0  0  0  0  0  0  0  0  0  0  0  0
   -5.3074    1.9945   -0.3302 O   0  0  0  0  0  0  0  0  0  0  0  0
   -4.2902    3.7569   -1.7200 O   0  0  0  0  0  0  0  0  0  0  0  0
   -5.0066    1.5675   -2.7574 O   0  0  0  0  0  0  0  0  0  0  0  0
  -10.8359    4.8947   -2.6101 C   0  0  0  0  0  0  0  0  0  0  0  0
  -11.4619    4.6933   -1.7309 H   0  0  0  0  0  0  0  0  0  0  0  0
  -10.8210    5.9795   -2.7552 H   0  0  0  0  0  0  0  0  0  0  0  0
  -11.3339    4.4432   -3.4732 H   0  0  0  0  0  0  0  0  0  0  0  0
  1  4  2  0  0  0  0
  2  1  1  0  0  0  0
  3  2  2  0  0  0  0
  4  5  1  0  0  0  0
  4 11  1  0  0  0  0
  5 12  1  0  0  0  0
  6  7  1  0  0  0  0
  6  5  2  0  0  0  0
  8 13  1  0  0  0  0
  8  7  1  0  0  0  0
  8 15  1  0  0  0  0
  9  6  1  0  0  0  0
 10  9  2  0  0  0  0
 10  1  1  0  0  0  0
 14  8  1  0  0  0  0
 16  9  1  0  0  0  0
 17 10  1  0  0  0  0
 18 24  1  0  0  0  0
 19 18  1  0  0  0  0
 19 25  1  0  0  0  0
 20 19  2  0  0  0  0
 21 22  2  0  0  0  0
 21 20  1  0  0  0  0
 22 23  1  0  0  0  0
 23 28  1  0  0  0  0
 23 18  2  0  0  0  0
 26 21  1  0  0  0  0
 27 22  1  0  0  0  0
 28 30  2  0  0  0  0
 28 29  1  0  0  0  0
 31 28  2  0  0  0  0
 32 20  1  0  0  0  0
 32 33  1  0  0  0  0
 34 32  1  0  0  0  0
 35 32  1  0  0  0  0
M  RAD  2   3   2  29   2
M  END
