Coordinates from ORCA-job 4-MeOPhN2+~TsO-_B3LYPG-6-31G_dp-CH-Scan-d09-49-n800
 OpenBabel11261919313D

 35 35  0  0  0  0  0  0  0  0999 V2000
   -2.5549   -0.4593   -0.2282 C   0  0  0  0  0  0  0  0  0  0  0  0
   -3.7858   -1.0291    0.0003 N   0  0  0  0  0  0  0  0  0  0  0  0
   -4.8057   -1.4581    0.1675 N   0  0  0  0  0  0  0  0  0  0  0  0
   -2.5448    0.7749   -0.9237 C   0  0  0  0  0  0  0  0  0  0  0  0
   -1.2476    1.2628   -1.1036 C   0  0  0  0  0  0  0  0  0  0  0  0
   -0.0957    0.5990   -0.6455 C   0  0  0  0  0  0  0  0  0  0  0  0
    1.0806    1.2072   -0.9040 O   0  0  0  0  0  0  0  0  0  0  0  0
    2.2995    0.6011   -0.4813 C   0  0  0  0  0  0  0  0  0  0  0  0
   -0.1919   -0.6388    0.0442 C   0  0  0  0  0  0  0  0  0  0  0  0
   -1.4380   -1.1827    0.2591 C   0  0  0  0  0  0  0  0  0  0  0  0
   -3.9205    1.6217   -1.5316 H   0  0  0  0  0  0  0  0  0  0  0  0
   -1.0843    2.2043   -1.6240 H   0  0  0  0  0  0  0  0  0  0  0  0
    3.0926    1.2748   -0.8064 H   0  0  0  0  0  0  0  0  0  0  0  0
    2.4431   -0.3790   -0.9502 H   0  0  0  0  0  0  0  0  0  0  0  0
    2.3373    0.4960    0.6094 H   0  0  0  0  0  0  0  0  0  0  0  0
    0.6896   -1.1569    0.3982 H   0  0  0  0  0  0  0  0  0  0  0  0
   -1.5563   -2.1287    0.7794 H   0  0  0  0  0  0  0  0  0  0  0  0
   -7.7386    3.2973   -0.9130 C   0  0  0  0  0  0  0  0  0  0  0  0
   -8.6684    4.3279   -1.0224 C   0  0  0  0  0  0  0  0  0  0  0  0
   -9.1445    4.7455   -2.2746 C   0  0  0  0  0  0  0  0  0  0  0  0
   -8.6624    4.1007   -3.4212 C   0  0  0  0  0  0  0  0  0  0  0  0
   -7.7317    3.0663   -3.3297 C   0  0  0  0  0  0  0  0  0  0  0  0
   -7.2731    2.6757   -2.0727 C   0  0  0  0  0  0  0  0  0  0  0  0
   -7.3809    2.9655    0.0555 H   0  0  0  0  0  0  0  0  0  0  0  0
   -9.0340    4.8150   -0.1221 H   0  0  0  0  0  0  0  0  0  0  0  0
   -9.0223    4.4097   -4.3989 H   0  0  0  0  0  0  0  0  0  0  0  0
   -7.3673    2.5576   -4.2152 H   0  0  0  0  0  0  0  0  0  0  0  0
   -6.0702    1.3597   -1.9487 S   0  0  0  0  0  0  0  0  0  0  0  0
   -6.2433    0.6930   -0.6429 O   0  0  0  0  0  0  0  0  0  0  0  0
   -4.7278    2.1983   -1.9311 O   0  0  0  0  0  0  0  0  0  0  0  0
   -6.1575    0.5364   -3.1595 O   0  0  0  0  0  0  0  0  0  0  0  0
  -10.1760    5.8433   -2.3778 C   0  0  0  0  0  0  0  0  0  0  0  0
  -11.1819    5.4601   -2.1645 H   0  0  0  0  0  0  0  0  0  0  0  0
   -9.9790    6.6468   -1.6609 H   0  0  0  0  0  0  0  0  0  0  0  0
  -10.1980    6.2795   -3.3802 H   0  0  0  0  0  0  0  0  0  0  0  0
  1  2  1  0  0  0  0
  1 10  2  0  0  0  0
  2  3  1  0  0  0  0
  4  1  1  0  0  0  0
  5  4  2  0  0  0  0
  5  6  1  0  0  0  0
  6  9  2  0  0  0  0
  7  6  1  0  0  0  0
  7  8  1  0  0  0  0
  8 15  1  0  0  0  0
  9 10  1  0  0  0  0
  9 16  1  0  0  0  0
 10 17  1  0  0  0  0
 12  5  1  0  0  0  0
 13  8  1  0  0  0  0
 14  8  1  0  0  0  0
 18 24  1  0  0  0  0
 19 18  1  0  0  0  0
 19 25  1  0  0  0  0
 20 19  2  0  0  0  0
 21 22  2  0  0  0  0
 21 20  1  0  0  0  0
 22 23  1  0  0  0  0
 23 28  1  0  0  0  0
 23 18  2  0  0  0  0
 26 21  1  0  0  0  0
 27 22  1  0  0  0  0
 28 30  1  0  0  0  0
 28 29  2  0  0  0  0
 30 11  1  0  0  0  0
 31 28  2  0  0  0  0
 32 20  1  0  0  0  0
 32 33  1  0  0  0  0
 32 34  1  0  0  0  0
 35 32  1  0  0  0  0
M  RAD  3   2   2   3   3   4   2
M  END
