Coordinates from ORCA-job 4-MeOPhN2+~TsO-_B3LYPG-6-31G_dp-CH-Scan-d09-49-n800
 OpenBabel11261919303D

 35 35  0  0  0  0  0  0  0  0999 V2000
   -2.5932   -0.3849   -0.6507 C   0  0  0  0  0  0  0  0  0  0  0  0
   -3.8776   -0.8740   -0.7654 N   0  0  0  0  0  0  0  0  0  0  0  0
   -4.9911   -1.0085   -0.8756 N   0  0  0  0  0  0  0  0  0  0  0  0
   -2.3416    0.9654   -0.9768 C   0  0  0  0  0  0  0  0  0  0  0  0
   -1.0386    1.4058   -0.8456 C   0  0  0  0  0  0  0  0  0  0  0  0
   -0.0144    0.5430   -0.4029 C   0  0  0  0  0  0  0  0  0  0  0  0
    1.2095    1.0927   -0.3160 O   0  0  0  0  0  0  0  0  0  0  0  0
    2.3126    0.2935    0.1119 C   0  0  0  0  0  0  0  0  0  0  0  0
   -0.2974   -0.8049   -0.0888 C   0  0  0  0  0  0  0  0  0  0  0  0
   -1.5923   -1.2734   -0.2197 C   0  0  0  0  0  0  0  0  0  0  0  0
   -3.2694    1.7189   -1.4076 H   0  0  0  0  0  0  0  0  0  0  0  0
   -0.7757    2.4295   -1.0887 H   0  0  0  0  0  0  0  0  0  0  0  0
    3.1791    0.9542    0.0914 H   0  0  0  0  0  0  0  0  0  0  0  0
    2.4797   -0.5486   -0.5688 H   0  0  0  0  0  0  0  0  0  0  0  0
    2.1616   -0.0779    1.1314 H   0  0  0  0  0  0  0  0  0  0  0  0
    0.4805   -1.4772    0.2485 H   0  0  0  0  0  0  0  0  0  0  0  0
   -1.8377   -2.3041    0.0132 H   0  0  0  0  0  0  0  0  0  0  0  0
   -7.0749    4.1108   -1.4879 C   0  0  0  0  0  0  0  0  0  0  0  0
   -8.1663    4.9744   -1.5270 C   0  0  0  0  0  0  0  0  0  0  0  0
   -9.3295    4.6421   -2.2393 C   0  0  0  0  0  0  0  0  0  0  0  0
   -9.3641    3.4202   -2.9222 C   0  0  0  0  0  0  0  0  0  0  0  0
   -8.2771    2.5448   -2.8923 C   0  0  0  0  0  0  0  0  0  0  0  0
   -7.1373    2.8936   -2.1708 C   0  0  0  0  0  0  0  0  0  0  0  0
   -6.1708    4.3783   -0.9517 H   0  0  0  0  0  0  0  0  0  0  0  0
   -8.1152    5.9253   -1.0019 H   0  0  0  0  0  0  0  0  0  0  0  0
  -10.2518    3.1504   -3.4894 H   0  0  0  0  0  0  0  0  0  0  0  0
   -8.2961    1.6045   -3.4319 H   0  0  0  0  0  0  0  0  0  0  0  0
   -5.7597    1.7464   -2.0879 S   0  0  0  0  0  0  0  0  0  0  0  0
   -5.8888    1.0597   -0.7446 O   0  0  0  0  0  0  0  0  0  0  0  0
   -4.5262    2.6067   -2.1121 O   0  0  0  0  0  0  0  0  0  0  0  0
   -5.8862    0.8121   -3.2253 O   0  0  0  0  0  0  0  0  0  0  0  0
  -10.5133    5.5805   -2.2571 C   0  0  0  0  0  0  0  0  0  0  0  0
  -11.0207    5.5980   -1.2843 H   0  0  0  0  0  0  0  0  0  0  0  0
  -10.2059    6.6088   -2.4765 H   0  0  0  0  0  0  0  0  0  0  0  0
  -11.2497    5.2811   -3.0081 H   0  0  0  0  0  0  0  0  0  0  0  0
  1 10  2  0  0  0  0
  2  1  1  0  0  0  0
  3  2  1  0  0  0  0
  4  5  2  0  0  0  0
  4  1  1  0  0  0  0
  5  6  1  0  0  0  0
  6  7  1  0  0  0  0
  6  9  2  0  0  0  0
  7  8  1  0  0  0  0
  8 15  1  0  0  0  0
  9 16  1  0  0  0  0
 10  9  1  0  0  0  0
 10 17  1  0  0  0  0
 11  4  1  0  0  0  0
 12  5  1  0  0  0  0
 13  8  1  0  0  0  0
 14  8  1  0  0  0  0
 18 24  1  0  0  0  0
 19 18  1  0  0  0  0
 19 25  1  0  0  0  0
 20 19  2  0  0  0  0
 21 22  2  0  0  0  0
 21 20  1  0  0  0  0
 22 23  1  0  0  0  0
 23 28  1  0  0  0  0
 23 18  2  0  0  0  0
 26 21  1  0  0  0  0
 27 22  1  0  0  0  0
 28 29  1  0  0  0  0
 30 28  2  0  0  0  0
 31 28  2  0  0  0  0
 32 20  1  0  0  0  0
 32 33  1  0  0  0  0
 34 32  1  0  0  0  0
 35 32  1  0  0  0  0
M  RAD  3   2   2   3   3  29   2
M  END
