Coordinates from ORCA-job 4-MeOPhN2+~TsO-_B3LYPG-6-31G_dp-CH-Scan-d09-49-n800
 OpenBabel11261919313D

 35 35  0  0  0  0  0  0  0  0999 V2000
   -1.7007   -0.3408   -0.5651 C   0  0  0  0  0  0  0  0  0  0  0  0
   -3.0509   -0.5546   -0.7594 N   0  0  0  0  0  0  0  0  0  0  0  0
   -4.1510   -0.6848   -0.9357 N   0  0  0  0  0  0  0  0  0  0  0  0
   -1.2521    0.9331   -0.9858 C   0  0  0  0  0  0  0  0  0  0  0  0
    0.1318    1.0510   -0.7479 C   0  0  0  0  0  0  0  0  0  0  0  0
    0.9263    0.0442   -0.1792 C   0  0  0  0  0  0  0  0  0  0  0  0
    2.2434    0.3319   -0.0245 O   0  0  0  0  0  0  0  0  0  0  0  0
    3.1151   -0.6380    0.5427 C   0  0  0  0  0  0  0  0  0  0  0  0
    0.3678   -1.2077    0.2093 C   0  0  0  0  0  0  0  0  0  0  0  0
   -0.9775   -1.4168    0.0160 C   0  0  0  0  0  0  0  0  0  0  0  0
   -4.3615    3.4685   -2.7289 H   0  0  0  0  0  0  0  0  0  0  0  0
    0.6587    1.9698   -1.0099 H   0  0  0  0  0  0  0  0  0  0  0  0
    4.1034   -0.1761    0.5605 H   0  0  0  0  0  0  0  0  0  0  0  0
    3.1557   -1.5507   -0.0641 H   0  0  0  0  0  0  0  0  0  0  0  0
    2.8216   -0.8968    1.5672 H   0  0  0  0  0  0  0  0  0  0  0  0
    0.9791   -1.9863    0.6472 H   0  0  0  0  0  0  0  0  0  0  0  0
   -1.4504   -2.3554    0.2955 H   0  0  0  0  0  0  0  0  0  0  0  0
   -8.0518    3.7627   -1.2364 C   0  0  0  0  0  0  0  0  0  0  0  0
   -9.2420    4.4566   -1.0385 C   0  0  0  0  0  0  0  0  0  0  0  0
  -10.1311    4.6911   -2.0991 C   0  0  0  0  0  0  0  0  0  0  0  0
   -9.7973    4.2091   -3.3723 C   0  0  0  0  0  0  0  0  0  0  0  0
   -8.6115    3.5102   -3.5912 C   0  0  0  0  0  0  0  0  0  0  0  0
   -7.7473    3.2984   -2.5175 C   0  0  0  0  0  0  0  0  0  0  0  0
   -7.3706    3.5716   -0.4143 H   0  0  0  0  0  0  0  0  0  0  0  0
   -9.4862    4.8220   -0.0446 H   0  0  0  0  0  0  0  0  0  0  0  0
  -10.4755    4.3810   -4.2039 H   0  0  0  0  0  0  0  0  0  0  0  0
   -8.3586    3.1268   -4.5734 H   0  0  0  0  0  0  0  0  0  0  0  0
   -6.2253    2.4143   -2.7853 S   0  0  0  0  0  0  0  0  0  0  0  0
   -5.7634    1.8203   -1.5286 O   0  0  0  0  0  0  0  0  0  0  0  0
   -5.2314    3.6843   -3.1085 O   0  0  0  0  0  0  0  0  0  0  0  0
   -6.3512    1.6036   -3.9909 O   0  0  0  0  0  0  0  0  0  0  0  0
  -11.4305    5.4217   -1.8631 C   0  0  0  0  0  0  0  0  0  0  0  0
  -12.1908    4.7448   -1.4536 H   0  0  0  0  0  0  0  0  0  0  0  0
  -11.3042    6.2389   -1.1463 H   0  0  0  0  0  0  0  0  0  0  0  0
  -11.8298    5.8395   -2.7908 H   0  0  0  0  0  0  0  0  0  0  0  0
  1 10  2  0  0  0  0
  2  1  1  0  0  0  0
  3  2  1  0  0  0  0
  4  5  2  0  0  0  0
  4  1  1  0  0  0  0
  5  6  1  0  0  0  0
  6  7  1  0  0  0  0
  6  9  2  0  0  0  0
  7  8  1  0  0  0  0
  8 13  1  0  0  0  0
  8 15  1  0  0  0  0
  9 16  1  0  0  0  0
 10  9  1  0  0  0  0
 10 17  1  0  0  0  0
 12  5  1  0  0  0  0
 14  8  1  0  0  0  0
 18 19  1  0  0  0  0
 18 24  1  0  0  0  0
 19 25  1  0  0  0  0
 20 32  1  0  0  0  0
 20 19  2  0  0  0  0
 21 20  1  0  0  0  0
 22 21  2  0  0  0  0
 22 23  1  0  0  0  0
 23 18  2  0  0  0  0
 26 21  1  0  0  0  0
 27 22  1  0  0  0  0
 28 23  1  0  0  0  0
 28 29  2  0  0  0  0
 30 28  1  0  0  0  0
 30 11  1  0  0  0  0
 31 28  2  0  0  0  0
 32 33  1  0  0  0  0
 32 34  1  0  0  0  0
 35 32  1  0  0  0  0
M  RAD  3   2   2   3   3   4   2
M  END
