Coordinates from ORCA-job 4-MeOPhN2+~TsO-_B3LYPG-6-31G_dp-CH-Scan-d09-49-n800
 OpenBabel11261919313D

 35 35  0  0  0  0  0  0  0  0999 V2000
   -1.9267   -0.2372   -0.1304 C   0  0  0  0  0  0  0  0  0  0  0  0
   -3.2863   -0.4212    0.0203 N   0  0  0  0  0  0  0  0  0  0  0  0
   -4.3964   -0.5304    0.1340 N   0  0  0  0  0  0  0  0  0  0  0  0
   -1.5579    1.0529   -0.5796 C   0  0  0  0  0  0  0  0  0  0  0  0
   -0.1571    1.1351   -0.6984 C   0  0  0  0  0  0  0  0  0  0  0  0
    0.7246    0.0815   -0.4137 C   0  0  0  0  0  0  0  0  0  0  0  0
    2.0452    0.3379   -0.5896 O   0  0  0  0  0  0  0  0  0  0  0  0
    3.0012   -0.6837   -0.3366 C   0  0  0  0  0  0  0  0  0  0  0  0
    0.2449   -1.1825    0.0348 C   0  0  0  0  0  0  0  0  0  0  0  0
   -1.1110   -1.3568    0.1839 C   0  0  0  0  0  0  0  0  0  0  0  0
   -4.1373    3.6028   -1.7085 H   0  0  0  0  0  0  0  0  0  0  0  0
    0.3136    2.0599   -1.0348 H   0  0  0  0  0  0  0  0  0  0  0  0
    3.9743   -0.2425   -0.5569 H   0  0  0  0  0  0  0  0  0  0  0  0
    2.8458   -1.5533   -0.9863 H   0  0  0  0  0  0  0  0  0  0  0  0
    2.9821   -1.0059    0.7117 H   0  0  0  0  0  0  0  0  0  0  0  0
    0.9225   -1.9968    0.2579 H   0  0  0  0  0  0  0  0  0  0  0  0
   -1.5258   -2.3026    0.5249 H   0  0  0  0  0  0  0  0  0  0  0  0
   -8.2276    3.7639   -0.9947 C   0  0  0  0  0  0  0  0  0  0  0  0
   -9.4613    4.3898   -1.1442 C   0  0  0  0  0  0  0  0  0  0  0  0
  -10.0328    4.5755   -2.4134 C   0  0  0  0  0  0  0  0  0  0  0  0
   -9.3340    4.1141   -3.5369 C   0  0  0  0  0  0  0  0  0  0  0  0
   -8.0968    3.4844   -3.4086 C   0  0  0  0  0  0  0  0  0  0  0  0
   -7.5545    3.3202   -2.1349 C   0  0  0  0  0  0  0  0  0  0  0  0
   -7.7913    3.6103   -0.0139 H   0  0  0  0  0  0  0  0  0  0  0  0
   -9.9921    4.7390   -0.2627 H   0  0  0  0  0  0  0  0  0  0  0  0
   -9.7640    4.2472   -4.5257 H   0  0  0  0  0  0  0  0  0  0  0  0
   -7.5596    3.1177   -4.2760 H   0  0  0  0  0  0  0  0  0  0  0  0
   -5.9760    2.5171   -1.9592 S   0  0  0  0  0  0  0  0  0  0  0  0
   -5.8718    1.9107   -0.6306 O   0  0  0  0  0  0  0  0  0  0  0  0
   -5.0353    3.8630   -1.9815 O   0  0  0  0  0  0  0  0  0  0  0  0
   -5.6983    1.7197   -3.1510 O   0  0  0  0  0  0  0  0  0  0  0  0
  -11.3821    5.2373   -2.5556 C   0  0  0  0  0  0  0  0  0  0  0  0
  -12.1857    4.5595   -2.2435 H   0  0  0  0  0  0  0  0  0  0  0  0
  -11.4537    6.1325   -1.9304 H   0  0  0  0  0  0  0  0  0  0  0  0
  -11.5786    5.5282   -3.5905 H   0  0  0  0  0  0  0  0  0  0  0  0
  1  2  1  0  0  0  0
  1 10  2  0  0  0  0
  2  3  1  0  0  0  0
  4  1  1  0  0  0  0
  5  4  2  0  0  0  0
  5  6  1  0  0  0  0
  6  9  2  0  0  0  0
  7  6  1  0  0  0  0
  7  8  1  0  0  0  0
  8 15  1  0  0  0  0
  9 10  1  0  0  0  0
  9 16  1  0  0  0  0
 10 17  1  0  0  0  0
 12  5  1  0  0  0  0
 13  8  1  0  0  0  0
 14  8  1  0  0  0  0
 18 24  1  0  0  0  0
 19 18  1  0  0  0  0
 19 25  1  0  0  0  0
 20 19  2  0  0  0  0
 21 22  2  0  0  0  0
 21 20  1  0  0  0  0
 22 23  1  0  0  0  0
 23 28  1  0  0  0  0
 23 18  2  0  0  0  0
 26 21  1  0  0  0  0
 27 22  1  0  0  0  0
 28 29  2  0  0  0  0
 30 28  1  0  0  0  0
 30 11  1  0  0  0  0
 31 28  2  0  0  0  0
 32 20  1  0  0  0  0
 32 33  1  0  0  0  0
 32 34  1  0  0  0  0
 35 32  1  0  0  0  0
M  RAD  3   2   2   3   3   4   2
M  END
