Coordinates from ORCA-job 4-MeOPhN2+~TsO-_B3LYPG-6-31G_dp-CH-Scan-d09-49-n800
 OpenBabel11261919303D

 35 35  0  0  0  0  0  0  0  0999 V2000
   -2.7700   -0.0901   -0.3860 C   0  0  0  0  0  0  0  0  0  0  0  0
   -4.1296   -0.3631   -0.4110 N   0  0  0  0  0  0  0  0  0  0  0  0
   -5.2256   -0.0381   -0.4303 N   0  0  0  0  0  0  0  0  0  0  0  0
   -2.3029    1.2413   -0.3203 C   0  0  0  0  0  0  0  0  0  0  0  0
   -0.9379    1.4449   -0.3021 C   0  0  0  0  0  0  0  0  0  0  0  0
   -0.0397    0.3584   -0.3493 C   0  0  0  0  0  0  0  0  0  0  0  0
    1.2652    0.6864   -0.3261 O   0  0  0  0  0  0  0  0  0  0  0  0
    2.2468   -0.3469   -0.3862 C   0  0  0  0  0  0  0  0  0  0  0  0
   -0.5248   -0.9618   -0.4149 C   0  0  0  0  0  0  0  0  0  0  0  0
   -1.8937   -1.1819   -0.4323 C   0  0  0  0  0  0  0  0  0  0  0  0
   -2.9573    2.0169   -0.2932 H   0  0  0  0  0  0  0  0  0  0  0  0
   -0.5320    2.4497   -0.2593 H   0  0  0  0  0  0  0  0  0  0  0  0
    3.2107    0.1604   -0.3570 H   0  0  0  0  0  0  0  0  0  0  0  0
    2.1644   -0.9190   -1.3174 H   0  0  0  0  0  0  0  0  0  0  0  0
    2.1651   -1.0237    0.4723 H   0  0  0  0  0  0  0  0  0  0  0  0
    0.1507   -1.8064   -0.4536 H   0  0  0  0  0  0  0  0  0  0  0  0
   -2.2930   -2.1889   -0.4858 H   0  0  0  0  0  0  0  0  0  0  0  0
   -7.1627    4.5979   -1.6035 C   0  0  0  0  0  0  0  0  0  0  0  0
   -8.4446    5.1065   -1.8043 C   0  0  0  0  0  0  0  0  0  0  0  0
   -9.4406    4.3391   -2.4252 C   0  0  0  0  0  0  0  0  0  0  0  0
   -9.1136    3.0449   -2.8531 C   0  0  0  0  0  0  0  0  0  0  0  0
   -7.8357    2.5225   -2.6586 C   0  0  0  0  0  0  0  0  0  0  0  0
   -6.8656    3.3021   -2.0284 C   0  0  0  0  0  0  0  0  0  0  0  0
   -6.3873    5.1992   -1.1415 H   0  0  0  0  0  0  0  0  0  0  0  0
   -8.6743    6.1187   -1.4809 H   0  0  0  0  0  0  0  0  0  0  0  0
   -9.8680    2.4403   -3.3509 H   0  0  0  0  0  0  0  0  0  0  0  0
   -7.5780    1.5286   -3.0074 H   0  0  0  0  0  0  0  0  0  0  0  0
   -5.2273    2.6274   -1.7405 S   0  0  0  0  0  0  0  0  0  0  0  0
   -5.3020    2.0018   -0.3259 O   0  0  0  0  0  0  0  0  0  0  0  0
   -4.2876    3.7655   -1.7155 O   0  0  0  0  0  0  0  0  0  0  0  0
   -4.9980    1.5739   -2.7524 O   0  0  0  0  0  0  0  0  0  0  0  0
  -10.8352    4.8879   -2.6124 C   0  0  0  0  0  0  0  0  0  0  0  0
  -11.4613    4.6861   -1.7333 H   0  0  0  0  0  0  0  0  0  0  0  0
  -10.8226    5.9726   -2.7587 H   0  0  0  0  0  0  0  0  0  0  0  0
  -11.3317    4.4343   -3.4753 H   0  0  0  0  0  0  0  0  0  0  0  0
  1  4  2  0  0  0  0
  2  1  1  0  0  0  0
  3  2  2  0  0  0  0
  4  5  1  0  0  0  0
  4 11  1  0  0  0  0
  5 12  1  0  0  0  0
  6  7  1  0  0  0  0
  6  5  2  0  0  0  0
  8 13  1  0  0  0  0
  8  7  1  0  0  0  0
  8 15  1  0  0  0  0
  9  6  1  0  0  0  0
 10  9  2  0  0  0  0
 10  1  1  0  0  0  0
 14  8  1  0  0  0  0
 16  9  1  0  0  0  0
 17 10  1  0  0  0  0
 18 24  1  0  0  0  0
 19 18  1  0  0  0  0
 19 25  1  0  0  0  0
 20 19  2  0  0  0  0
 21 22  2  0  0  0  0
 21 20  1  0  0  0  0
 22 23  1  0  0  0  0
 23 28  1  0  0  0  0
 23 18  2  0  0  0  0
 26 21  1  0  0  0  0
 27 22  1  0  0  0  0
 28 30  2  0  0  0  0
 28 29  1  0  0  0  0
 31 28  2  0  0  0  0
 32 20  1  0  0  0  0
 32 33  1  0  0  0  0
 34 32  1  0  0  0  0
 35 32  1  0  0  0  0
M  RAD  2   3   2  29   2
M  END
