Coordinates from ORCA-job 4-MeOPhN2+~TsO-_B3LYPG-6-31G_dp-CH-Scan-d09-49-n800
 OpenBabel11261919313D

 35 35  0  0  0  0  0  0  0  0999 V2000
   -1.9922   -0.2517   -0.1136 C   0  0  0  0  0  0  0  0  0  0  0  0
   -3.3422   -0.4710    0.0681 N   0  0  0  0  0  0  0  0  0  0  0  0
   -4.4456   -0.6118    0.2080 N   0  0  0  0  0  0  0  0  0  0  0  0
   -1.6636    1.0415   -0.5849 C   0  0  0  0  0  0  0  0  0  0  0  0
   -0.2684    1.1586   -0.7322 C   0  0  0  0  0  0  0  0  0  0  0  0
    0.6456    0.1313   -0.4521 C   0  0  0  0  0  0  0  0  0  0  0  0
    1.9551    0.4198   -0.6553 O   0  0  0  0  0  0  0  0  0  0  0  0
    2.9421   -0.5740   -0.4085 C   0  0  0  0  0  0  0  0  0  0  0  0
    0.2069   -1.1389    0.0193 C   0  0  0  0  0  0  0  0  0  0  0  0
   -1.1410   -1.3457    0.1966 C   0  0  0  0  0  0  0  0  0  0  0  0
   -4.1035    3.4329   -1.6148 H   0  0  0  0  0  0  0  0  0  0  0  0
    0.1715    2.0909   -1.0882 H   0  0  0  0  0  0  0  0  0  0  0  0
    3.8992   -0.1098   -0.6502 H   0  0  0  0  0  0  0  0  0  0  0  0
    2.7982   -1.4540   -1.0466 H   0  0  0  0  0  0  0  0  0  0  0  0
    2.9490   -0.8852    0.6432 H   0  0  0  0  0  0  0  0  0  0  0  0
    0.9090   -1.9334    0.2382 H   0  0  0  0  0  0  0  0  0  0  0  0
   -1.5248   -2.2977    0.5557 H   0  0  0  0  0  0  0  0  0  0  0  0
   -8.2128    3.7116   -0.9702 C   0  0  0  0  0  0  0  0  0  0  0  0
   -9.4238    4.3745   -1.1445 C   0  0  0  0  0  0  0  0  0  0  0  0
   -9.9558    4.5908   -2.4260 C   0  0  0  0  0  0  0  0  0  0  0  0
   -9.2404    4.1224   -3.5361 C   0  0  0  0  0  0  0  0  0  0  0  0
   -8.0257    3.4557   -3.3829 C   0  0  0  0  0  0  0  0  0  0  0  0
   -7.5225    3.2615   -2.0974 C   0  0  0  0  0  0  0  0  0  0  0  0
   -7.8071    3.5343    0.0197 H   0  0  0  0  0  0  0  0  0  0  0  0
   -9.9679    4.7286   -0.2731 H   0  0  0  0  0  0  0  0  0  0  0  0
   -9.6400    4.2790   -4.5342 H   0  0  0  0  0  0  0  0  0  0  0  0
   -7.4763    3.0834   -4.2401 H   0  0  0  0  0  0  0  0  0  0  0  0
   -5.9732    2.4095   -1.8902 S   0  0  0  0  0  0  0  0  0  0  0  0
   -5.9220    1.7919   -0.5632 O   0  0  0  0  0  0  0  0  0  0  0  0
   -4.9933    3.7250   -1.8842 O   0  0  0  0  0  0  0  0  0  0  0  0
   -5.6937    1.6082   -3.0792 O   0  0  0  0  0  0  0  0  0  0  0  0
  -11.2816    5.2923   -2.5956 C   0  0  0  0  0  0  0  0  0  0  0  0
  -12.1114    4.6373   -2.3040 H   0  0  0  0  0  0  0  0  0  0  0  0
  -11.3413    6.1873   -1.9687 H   0  0  0  0  0  0  0  0  0  0  0  0
  -11.4462    5.5924   -3.6334 H   0  0  0  0  0  0  0  0  0  0  0  0
  1  2  1  0  0  0  0
  1 10  2  0  0  0  0
  2  3  1  0  0  0  0
  4  1  1  0  0  0  0
  5  4  2  0  0  0  0
  5  6  1  0  0  0  0
  6  9  2  0  0  0  0
  7  6  1  0  0  0  0
  7  8  1  0  0  0  0
  8 15  1  0  0  0  0
  9 10  1  0  0  0  0
  9 16  1  0  0  0  0
 10 17  1  0  0  0  0
 12  5  1  0  0  0  0
 13  8  1  0  0  0  0
 14  8  1  0  0  0  0
 18 24  1  0  0  0  0
 19 18  1  0  0  0  0
 19 25  1  0  0  0  0
 20 19  2  0  0  0  0
 21 22  2  0  0  0  0
 21 20  1  0  0  0  0
 22 23  1  0  0  0  0
 23 28  1  0  0  0  0
 23 18  2  0  0  0  0
 26 21  1  0  0  0  0
 27 22  1  0  0  0  0
 28 30  1  0  0  0  0
 28 29  2  0  0  0  0
 30 11  1  0  0  0  0
 31 28  2  0  0  0  0
 32 20  1  0  0  0  0
 32 33  1  0  0  0  0
 32 34  1  0  0  0  0
 35 32  1  0  0  0  0
M  RAD  3   2   2   3   3   4   2
M  END
