Coordinates from ORCA-job 4-MeOPhN2+~TsO-_B3LYPG-6-31G_dp-CH-Scan-d09-49-n800
 OpenBabel11261919313D

 35 35  0  0  0  0  0  0  0  0999 V2000
   -1.7889   -0.2329   -0.2045 C   0  0  0  0  0  0  0  0  0  0  0  0
   -3.1610   -0.3758   -0.1497 N   0  0  0  0  0  0  0  0  0  0  0  0
   -4.2797   -0.4476   -0.1151 N   0  0  0  0  0  0  0  0  0  0  0  0
   -1.3562    1.0569   -0.5928 C   0  0  0  0  0  0  0  0  0  0  0  0
    0.0519    1.0982   -0.6183 C   0  0  0  0  0  0  0  0  0  0  0  0
    0.8818    0.0110   -0.3065 C   0  0  0  0  0  0  0  0  0  0  0  0
    2.2184    0.2302   -0.3905 O   0  0  0  0  0  0  0  0  0  0  0  0
    3.1251   -0.8261   -0.1023 C   0  0  0  0  0  0  0  0  0  0  0  0
    0.3374   -1.2489    0.0758 C   0  0  0  0  0  0  0  0  0  0  0  0
   -1.0298   -1.3857    0.1318 C   0  0  0  0  0  0  0  0  0  0  0  0
   -4.2451    3.7620   -1.9505 H   0  0  0  0  0  0  0  0  0  0  0  0
    0.5705    2.0165   -0.8977 H   0  0  0  0  0  0  0  0  0  0  0  0
    4.1233   -0.4106   -0.2488 H   0  0  0  0  0  0  0  0  0  0  0  0
    2.9865   -1.6758   -0.7819 H   0  0  0  0  0  0  0  0  0  0  0  0
    3.0291   -1.1713    0.9345 H   0  0  0  0  0  0  0  0  0  0  0  0
    0.9754   -2.0887    0.3203 H   0  0  0  0  0  0  0  0  0  0  0  0
   -1.4932   -2.3266    0.4195 H   0  0  0  0  0  0  0  0  0  0  0  0
   -8.2286    3.8420   -1.0787 C   0  0  0  0  0  0  0  0  0  0  0  0
   -9.4824    4.4425   -1.1333 C   0  0  0  0  0  0  0  0  0  0  0  0
  -10.1650    4.5902   -2.3519 C   0  0  0  0  0  0  0  0  0  0  0  0
   -9.5572    4.1163   -3.5218 C   0  0  0  0  0  0  0  0  0  0  0  0
   -8.3013    3.5114   -3.4888 C   0  0  0  0  0  0  0  0  0  0  0  0
   -7.6480    3.3851   -2.2639 C   0  0  0  0  0  0  0  0  0  0  0  0
   -7.7072    3.7176   -0.1360 H   0  0  0  0  0  0  0  0  0  0  0  0
   -9.9416    4.8015   -0.2163 H   0  0  0  0  0  0  0  0  0  0  0  0
  -10.0736    4.2193   -4.4721 H   0  0  0  0  0  0  0  0  0  0  0  0
   -7.8342    3.1350   -4.3917 H   0  0  0  0  0  0  0  0  0  0  0  0
   -6.0434    2.6172   -2.2086 S   0  0  0  0  0  0  0  0  0  0  0  0
   -5.8149    2.0253   -0.8888 O   0  0  0  0  0  0  0  0  0  0  0  0
   -5.1257    3.9780   -2.3052 O   0  0  0  0  0  0  0  0  0  0  0  0
   -5.8453    1.8218   -3.4164 O   0  0  0  0  0  0  0  0  0  0  0  0
  -11.5332    5.2273   -2.3895 C   0  0  0  0  0  0  0  0  0  0  0  0
  -12.2881    4.5597   -1.9569 H   0  0  0  0  0  0  0  0  0  0  0  0
  -11.5551    6.1561   -1.8109 H   0  0  0  0  0  0  0  0  0  0  0  0
  -11.8406    5.4563   -3.4127 H   0  0  0  0  0  0  0  0  0  0  0  0
  1  2  1  0  0  0  0
  1 10  2  0  0  0  0
  2  3  1  0  0  0  0
  4  1  1  0  0  0  0
  5  4  2  0  0  0  0
  5  6  1  0  0  0  0
  6  9  2  0  0  0  0
  7  6  1  0  0  0  0
  7  8  1  0  0  0  0
  8 15  1  0  0  0  0
  9 10  1  0  0  0  0
  9 16  1  0  0  0  0
 10 17  1  0  0  0  0
 12  5  1  0  0  0  0
 13  8  1  0  0  0  0
 14  8  1  0  0  0  0
 18 24  1  0  0  0  0
 19 18  1  0  0  0  0
 19 25  1  0  0  0  0
 20 19  2  0  0  0  0
 21 22  2  0  0  0  0
 21 20  1  0  0  0  0
 22 23  1  0  0  0  0
 23 28  1  0  0  0  0
 23 18  2  0  0  0  0
 26 21  1  0  0  0  0
 27 22  1  0  0  0  0
 28 29  2  0  0  0  0
 30 28  1  0  0  0  0
 30 11  1  0  0  0  0
 31 28  2  0  0  0  0
 32 20  1  0  0  0  0
 32 33  1  0  0  0  0
 32 34  1  0  0  0  0
 35 32  1  0  0  0  0
M  RAD  3   2   2   3   3   4   2
M  END
