Coordinates from ORCA-job 4-MeOPhN2+~TsO-_B3LYPG-6-31G_dp-CH-Scan-d09-49-n800
 OpenBabel11261919313D

 35 35  0  0  0  0  0  0  0  0999 V2000
   -1.8464   -0.2266   -0.1558 C   0  0  0  0  0  0  0  0  0  0  0  0
   -3.2143   -0.3795   -0.0498 N   0  0  0  0  0  0  0  0  0  0  0  0
   -4.3303   -0.4626    0.0224 N   0  0  0  0  0  0  0  0  0  0  0  0
   -1.4364    1.0632   -0.5684 C   0  0  0  0  0  0  0  0  0  0  0  0
   -0.0306    1.1139   -0.6451 C   0  0  0  0  0  0  0  0  0  0  0  0
    0.8177    0.0344   -0.3565 C   0  0  0  0  0  0  0  0  0  0  0  0
    2.1485    0.2622   -0.4907 O   0  0  0  0  0  0  0  0  0  0  0  0
    3.0727   -0.7863   -0.2308 C   0  0  0  0  0  0  0  0  0  0  0  0
    0.2962   -1.2262    0.0538 C   0  0  0  0  0  0  0  0  0  0  0  0
   -1.0671   -1.3715    0.1604 C   0  0  0  0  0  0  0  0  0  0  0  0
   -4.1998    3.7368   -1.8045 H   0  0  0  0  0  0  0  0  0  0  0  0
    0.4711    2.0337   -0.9494 H   0  0  0  0  0  0  0  0  0  0  0  0
    4.0617   -0.3651   -0.4169 H   0  0  0  0  0  0  0  0  0  0  0  0
    2.9145   -1.6407   -0.8999 H   0  0  0  0  0  0  0  0  0  0  0  0
    3.0179   -1.1262    0.8108 H   0  0  0  0  0  0  0  0  0  0  0  0
    0.9483   -2.0601    0.2806 H   0  0  0  0  0  0  0  0  0  0  0  0
   -1.5133   -2.3134    0.4713 H   0  0  0  0  0  0  0  0  0  0  0  0
   -8.2362    3.8175   -1.0375 C   0  0  0  0  0  0  0  0  0  0  0  0
   -9.4868    4.4180   -1.1433 C   0  0  0  0  0  0  0  0  0  0  0  0
  -10.1150    4.5738   -2.3898 C   0  0  0  0  0  0  0  0  0  0  0  0
   -9.4557    4.1083   -3.5350 C   0  0  0  0  0  0  0  0  0  0  0  0
   -8.2022    3.5037   -3.4506 C   0  0  0  0  0  0  0  0  0  0  0  0
   -7.6034    3.3692   -2.1990 C   0  0  0  0  0  0  0  0  0  0  0  0
   -7.7565    3.6870   -0.0737 H   0  0  0  0  0  0  0  0  0  0  0  0
   -9.9863    4.7706   -0.2451 H   0  0  0  0  0  0  0  0  0  0  0  0
   -9.9297    4.2180   -4.5065 H   0  0  0  0  0  0  0  0  0  0  0  0
   -7.6953    3.1339   -4.3347 H   0  0  0  0  0  0  0  0  0  0  0  0
   -6.0029    2.6004   -2.0784 S   0  0  0  0  0  0  0  0  0  0  0  0
   -5.8325    2.0040   -0.7520 O   0  0  0  0  0  0  0  0  0  0  0  0
   -5.0868    3.9636   -2.1360 O   0  0  0  0  0  0  0  0  0  0  0  0
   -5.7536    1.8062   -3.2780 O   0  0  0  0  0  0  0  0  0  0  0  0
  -11.4810    5.2097   -2.4836 C   0  0  0  0  0  0  0  0  0  0  0  0
  -12.2560    4.5299   -2.1096 H   0  0  0  0  0  0  0  0  0  0  0  0
  -11.5361    6.1231   -1.8834 H   0  0  0  0  0  0  0  0  0  0  0  0
  -11.7344    5.4644   -3.5156 H   0  0  0  0  0  0  0  0  0  0  0  0
  1  2  1  0  0  0  0
  1 10  2  0  0  0  0
  2  3  1  0  0  0  0
  4  1  1  0  0  0  0
  5  4  2  0  0  0  0
  5  6  1  0  0  0  0
  6  9  2  0  0  0  0
  7  6  1  0  0  0  0
  7  8  1  0  0  0  0
  8 15  1  0  0  0  0
  9 10  1  0  0  0  0
  9 16  1  0  0  0  0
 10 17  1  0  0  0  0
 12  5  1  0  0  0  0
 13  8  1  0  0  0  0
 14  8  1  0  0  0  0
 18 24  1  0  0  0  0
 19 18  1  0  0  0  0
 19 25  1  0  0  0  0
 20 19  2  0  0  0  0
 21 22  2  0  0  0  0
 21 20  1  0  0  0  0
 22 23  1  0  0  0  0
 23 28  1  0  0  0  0
 23 18  2  0  0  0  0
 26 21  1  0  0  0  0
 27 22  1  0  0  0  0
 28 29  2  0  0  0  0
 30 28  1  0  0  0  0
 30 11  1  0  0  0  0
 31 28  2  0  0  0  0
 32 20  1  0  0  0  0
 32 33  1  0  0  0  0
 32 34  1  0  0  0  0
 35 32  1  0  0  0  0
M  RAD  3   2   2   3   3   4   2
M  END
