Coordinates from ORCA-job 4-MeOPhN2+~TsO-_B3LYPG-6-31G_dp-CH-Scan-d09-49-n800
 OpenBabel11261919313D

 35 35  0  0  0  0  0  0  0  0999 V2000
   -2.3013   -0.3957   -0.1786 C   0  0  0  0  0  0  0  0  0  0  0  0
   -3.5876   -0.8367    0.0377 N   0  0  0  0  0  0  0  0  0  0  0  0
   -4.6448   -1.1683    0.2026 N   0  0  0  0  0  0  0  0  0  0  0  0
   -2.1828    0.8734   -0.7958 C   0  0  0  0  0  0  0  0  0  0  0  0
   -0.8347    1.2233   -0.9655 C   0  0  0  0  0  0  0  0  0  0  0  0
    0.2424    0.4120   -0.5722 C   0  0  0  0  0  0  0  0  0  0  0  0
    1.4795    0.9045   -0.8120 O   0  0  0  0  0  0  0  0  0  0  0  0
    2.6263    0.1418   -0.4506 C   0  0  0  0  0  0  0  0  0  0  0  0
    0.0244   -0.8528    0.0410 C   0  0  0  0  0  0  0  0  0  0  0  0
   -1.2692   -1.2730    0.2460 C   0  0  0  0  0  0  0  0  0  0  0  0
   -4.0456    2.2659   -1.5564 H   0  0  0  0  0  0  0  0  0  0  0  0
   -0.5660    2.1726   -1.4268 H   0  0  0  0  0  0  0  0  0  0  0  0
    3.4871    0.7448   -0.7411 H   0  0  0  0  0  0  0  0  0  0  0  0
    2.6585   -0.8141   -0.9860 H   0  0  0  0  0  0  0  0  0  0  0  0
    2.6630   -0.0429    0.6299 H   0  0  0  0  0  0  0  0  0  0  0  0
    0.8506   -1.4820    0.3452 H   0  0  0  0  0  0  0  0  0  0  0  0
   -1.4835   -2.2320    0.7103 H   0  0  0  0  0  0  0  0  0  0  0  0
   -7.9867    3.4543   -0.9342 C   0  0  0  0  0  0  0  0  0  0  0  0
   -9.0223    4.3726   -1.0805 C   0  0  0  0  0  0  0  0  0  0  0  0
   -9.5020    4.7295   -2.3505 C   0  0  0  0  0  0  0  0  0  0  0  0
   -8.9151    4.1394   -3.4777 C   0  0  0  0  0  0  0  0  0  0  0  0
   -7.8768    3.2175   -3.3514 C   0  0  0  0  0  0  0  0  0  0  0  0
   -7.4191    2.8877   -2.0768 C   0  0  0  0  0  0  0  0  0  0  0  0
   -7.6240    3.1692    0.0472 H   0  0  0  0  0  0  0  0  0  0  0  0
   -9.4685    4.8187   -0.1957 H   0  0  0  0  0  0  0  0  0  0  0  0
   -9.2763    4.4030   -4.4680 H   0  0  0  0  0  0  0  0  0  0  0  0
   -7.4290    2.7518   -4.2221 H   0  0  0  0  0  0  0  0  0  0  0  0
   -6.0906    1.7116   -1.9042 S   0  0  0  0  0  0  0  0  0  0  0  0
   -6.1968    1.0490   -0.5978 O   0  0  0  0  0  0  0  0  0  0  0  0
   -4.8518    2.7535   -1.8600 O   0  0  0  0  0  0  0  0  0  0  0  0
   -6.0125    0.8944   -3.1148 O   0  0  0  0  0  0  0  0  0  0  0  0
  -10.6427    5.7084   -2.4909 C   0  0  0  0  0  0  0  0  0  0  0  0
  -11.6014    5.2309   -2.2538 H   0  0  0  0  0  0  0  0  0  0  0  0
  -10.5277    6.5559   -1.8077 H   0  0  0  0  0  0  0  0  0  0  0  0
  -10.7127    6.0994   -3.5091 H   0  0  0  0  0  0  0  0  0  0  0  0
  1  2  1  0  0  0  0
  1 10  2  0  0  0  0
  2  3  1  0  0  0  0
  4  1  1  0  0  0  0
  5  4  2  0  0  0  0
  5  6  1  0  0  0  0
  6  9  2  0  0  0  0
  7  6  1  0  0  0  0
  7  8  1  0  0  0  0
  8 15  1  0  0  0  0
  9 10  1  0  0  0  0
  9 16  1  0  0  0  0
 10 17  1  0  0  0  0
 12  5  1  0  0  0  0
 13  8  1  0  0  0  0
 14  8  1  0  0  0  0
 18 24  1  0  0  0  0
 19 18  1  0  0  0  0
 19 25  1  0  0  0  0
 20 19  2  0  0  0  0
 21 22  2  0  0  0  0
 21 20  1  0  0  0  0
 22 23  1  0  0  0  0
 23 28  1  0  0  0  0
 23 18  2  0  0  0  0
 26 21  1  0  0  0  0
 27 22  1  0  0  0  0
 28 30  1  0  0  0  0
 28 29  2  0  0  0  0
 30 11  1  0  0  0  0
 31 28  2  0  0  0  0
 32 20  1  0  0  0  0
 32 33  1  0  0  0  0
 32 34  1  0  0  0  0
 35 32  1  0  0  0  0
M  RAD  3   2   2   3   3   4   2
M  END
