Coordinates from ORCA-job 4-MeOPhN2+~TsO-_B3LYPG-6-31G_dp-CH-Scan-d09-49-n800
 OpenBabel11261919313D

 35 35  0  0  0  0  0  0  0  0999 V2000
   -1.7662   -0.2356   -0.2257 C   0  0  0  0  0  0  0  0  0  0  0  0
   -3.1393   -0.3751   -0.1914 N   0  0  0  0  0  0  0  0  0  0  0  0
   -4.2587   -0.4435   -0.1728 N   0  0  0  0  0  0  0  0  0  0  0  0
   -1.3252    1.0533   -0.6075 C   0  0  0  0  0  0  0  0  0  0  0  0
    0.0833    1.0916   -0.6119 C   0  0  0  0  0  0  0  0  0  0  0  0
    0.9061    0.0027   -0.2875 C   0  0  0  0  0  0  0  0  0  0  0  0
    2.2442    0.2192   -0.3511 O   0  0  0  0  0  0  0  0  0  0  0  0
    3.1442   -0.8388   -0.0481 C   0  0  0  0  0  0  0  0  0  0  0  0
    0.3534   -1.2561    0.0864 C   0  0  0  0  0  0  0  0  0  0  0  0
   -1.0148   -1.3901    0.1218 C   0  0  0  0  0  0  0  0  0  0  0  0
   -4.2641    3.7659   -2.0130 H   0  0  0  0  0  0  0  0  0  0  0  0
    0.6079    2.0089   -0.8835 H   0  0  0  0  0  0  0  0  0  0  0  0
    4.1454   -0.4252   -0.1784 H   0  0  0  0  0  0  0  0  0  0  0  0
    3.0151   -1.6884   -0.7296 H   0  0  0  0  0  0  0  0  0  0  0  0
    3.0308   -1.1836    0.9871 H   0  0  0  0  0  0  0  0  0  0  0  0
    0.9859   -2.0971    0.3404 H   0  0  0  0  0  0  0  0  0  0  0  0
   -1.4844   -2.3302    0.4024 H   0  0  0  0  0  0  0  0  0  0  0  0
   -8.2252    3.8478   -1.0959 C   0  0  0  0  0  0  0  0  0  0  0  0
   -9.4789    4.4498   -1.1287 C   0  0  0  0  0  0  0  0  0  0  0  0
  -10.1827    4.5978   -2.3351 C   0  0  0  0  0  0  0  0  0  0  0  0
   -9.5963    4.1225   -3.5153 C   0  0  0  0  0  0  0  0  0  0  0  0
   -8.3408    3.5158   -3.5041 C   0  0  0  0  0  0  0  0  0  0  0  0
   -7.6661    3.3893   -2.2910 C   0  0  0  0  0  0  0  0  0  0  0  0
   -7.6874    3.7231   -0.1624 H   0  0  0  0  0  0  0  0  0  0  0  0
   -9.9213    4.8099   -0.2039 H   0  0  0  0  0  0  0  0  0  0  0  0
  -10.1293    4.2255   -4.4563 H   0  0  0  0  0  0  0  0  0  0  0  0
   -7.8903    3.1382   -4.4149 H   0  0  0  0  0  0  0  0  0  0  0  0
   -6.0616    2.6196   -2.2635 S   0  0  0  0  0  0  0  0  0  0  0  0
   -5.8096    2.0291   -0.9474 O   0  0  0  0  0  0  0  0  0  0  0  0
   -5.1418    3.9780   -2.3769 O   0  0  0  0  0  0  0  0  0  0  0  0
   -5.8868    1.8237   -3.4743 O   0  0  0  0  0  0  0  0  0  0  0  0
  -11.5505    5.2368   -2.3488 C   0  0  0  0  0  0  0  0  0  0  0  0
  -12.2973    4.5733   -1.8966 H   0  0  0  0  0  0  0  0  0  0  0  0
  -11.5592    6.1694   -1.7758 H   0  0  0  0  0  0  0  0  0  0  0  0
  -11.8782    5.4601   -3.3670 H   0  0  0  0  0  0  0  0  0  0  0  0
  1  2  1  0  0  0  0
  1 10  2  0  0  0  0
  2  3  1  0  0  0  0
  4  1  1  0  0  0  0
  5  4  2  0  0  0  0
  5  6  1  0  0  0  0
  6  9  2  0  0  0  0
  7  6  1  0  0  0  0
  7  8  1  0  0  0  0
  8 15  1  0  0  0  0
  9 10  1  0  0  0  0
  9 16  1  0  0  0  0
 10 17  1  0  0  0  0
 12  5  1  0  0  0  0
 13  8  1  0  0  0  0
 14  8  1  0  0  0  0
 18 24  1  0  0  0  0
 19 18  1  0  0  0  0
 19 25  1  0  0  0  0
 20 19  2  0  0  0  0
 21 22  2  0  0  0  0
 21 20  1  0  0  0  0
 22 23  1  0  0  0  0
 23 28  1  0  0  0  0
 23 18  2  0  0  0  0
 26 21  1  0  0  0  0
 27 22  1  0  0  0  0
 28 29  2  0  0  0  0
 30 28  1  0  0  0  0
 30 11  1  0  0  0  0
 31 28  2  0  0  0  0
 32 20  1  0  0  0  0
 32 33  1  0  0  0  0
 32 34  1  0  0  0  0
 35 32  1  0  0  0  0
M  RAD  3   2   2   3   3   4   2
M  END
