Coordinates from ORCA-job 4-MeOPhN2+~TsO-_B3LYPG-6-31G_dp-CH-Scan-d09-49-n800
 OpenBabel11261919303D

 35 35  0  0  0  0  0  0  0  0999 V2000
   -2.6350   -0.5020   -0.3475 C   0  0  0  0  0  0  0  0  0  0  0  0
   -3.8472   -1.1281   -0.1794 N   0  0  0  0  0  0  0  0  0  0  0  0
   -4.8598   -1.5887   -0.0653 N   0  0  0  0  0  0  0  0  0  0  0  0
   -2.6249    0.7039   -1.0888 C   0  0  0  0  0  0  0  0  0  0  0  0
   -1.3553    1.2630   -1.2083 C   0  0  0  0  0  0  0  0  0  0  0  0
   -0.2037    0.6799   -0.6474 C   0  0  0  0  0  0  0  0  0  0  0  0
    0.9513    1.3413   -0.8532 O   0  0  0  0  0  0  0  0  0  0  0  0
    2.1711    0.8177   -0.3305 C   0  0  0  0  0  0  0  0  0  0  0  0
   -0.2855   -0.5339    0.0826 C   0  0  0  0  0  0  0  0  0  0  0  0
   -1.5141   -1.1378    0.2367 C   0  0  0  0  0  0  0  0  0  0  0  0
   -3.8385    1.3301   -1.7232 H   0  0  0  0  0  0  0  0  0  0  0  0
   -1.2166    2.1911   -1.7571 H   0  0  0  0  0  0  0  0  0  0  0  0
    2.9473    1.5198   -0.6349 H   0  0  0  0  0  0  0  0  0  0  0  0
    2.3926   -0.1708   -0.7488 H   0  0  0  0  0  0  0  0  0  0  0  0
    2.1429    0.7579    0.7635 H   0  0  0  0  0  0  0  0  0  0  0  0
    0.5947   -0.9907    0.5154 H   0  0  0  0  0  0  0  0  0  0  0  0
   -1.6169   -2.0684    0.7863 H   0  0  0  0  0  0  0  0  0  0  0  0
   -7.5421    3.2804   -0.9330 C   0  0  0  0  0  0  0  0  0  0  0  0
   -8.4126    4.3660   -0.9948 C   0  0  0  0  0  0  0  0  0  0  0  0
   -8.9963    4.7594   -2.2084 C   0  0  0  0  0  0  0  0  0  0  0  0
   -8.6839    4.0324   -3.3647 C   0  0  0  0  0  0  0  0  0  0  0  0
   -7.8159    2.9421   -3.3188 C   0  0  0  0  0  0  0  0  0  0  0  0
   -7.2460    2.5752   -2.1003 C   0  0  0  0  0  0  0  0  0  0  0  0
   -7.1021    2.9676    0.0074 H   0  0  0  0  0  0  0  0  0  0  0  0
   -8.6467    4.9158   -0.0864 H   0  0  0  0  0  0  0  0  0  0  0  0
   -9.1292    4.3210   -4.3132 H   0  0  0  0  0  0  0  0  0  0  0  0
   -7.5858    2.3696   -4.2107 H   0  0  0  0  0  0  0  0  0  0  0  0
   -6.1097    1.1917   -2.0433 S   0  0  0  0  0  0  0  0  0  0  0  0
   -6.1599    0.6277   -0.6725 O   0  0  0  0  0  0  0  0  0  0  0  0
   -4.7319    1.8821   -2.2682 O   0  0  0  0  0  0  0  0  0  0  0  0
   -6.4482    0.2895   -3.1527 O   0  0  0  0  0  0  0  0  0  0  0  0
   -9.9632    5.9188   -2.2580 C   0  0  0  0  0  0  0  0  0  0  0  0
  -10.9648    5.6123   -1.9311 H   0  0  0  0  0  0  0  0  0  0  0  0
   -9.6453    6.7338   -1.6000 H   0  0  0  0  0  0  0  0  0  0  0  0
  -10.0585    6.3177   -3.2717 H   0  0  0  0  0  0  0  0  0  0  0  0
  1  2  1  0  0  0  0
  1 10  2  0  0  0  0
  2  3  1  0  0  0  0
  4  1  1  0  0  0  0
  5  4  2  0  0  0  0
  5  6  1  0  0  0  0
  6  9  2  0  0  0  0
  7  6  1  0  0  0  0
  7  8  1  0  0  0  0
  8 15  1  0  0  0  0
  9 10  1  0  0  0  0
  9 16  1  0  0  0  0
 10 17  1  0  0  0  0
 12  5  1  0  0  0  0
 13  8  1  0  0  0  0
 14  8  1  0  0  0  0
 18 24  1  0  0  0  0
 19 18  1  0  0  0  0
 19 25  1  0  0  0  0
 20 19  2  0  0  0  0
 21 22  2  0  0  0  0
 21 20  1  0  0  0  0
 22 23  1  0  0  0  0
 23 28  1  0  0  0  0
 23 18  2  0  0  0  0
 26 21  1  0  0  0  0
 27 22  1  0  0  0  0
 28 29  2  0  0  0  0
 30 28  1  0  0  0  0
 30 11  1  0  0  0  0
 31 28  2  0  0  0  0
 32 20  1  0  0  0  0
 32 33  1  0  0  0  0
 32 34  1  0  0  0  0
 35 32  1  0  0  0  0
M  RAD  3   2   2   3   3   4   2
M  END
