Coordinates from ORCA-job 4-MeOPhN2+~TsO-_B3LYPG-6-31G_dp-CH-Scan-d09-49-n800
 OpenBabel11261919313D

 35 35  0  0  0  0  0  0  0  0999 V2000
   -1.5775   -0.2990   -0.5807 C   0  0  0  0  0  0  0  0  0  0  0  0
   -2.9302   -0.4535   -0.8120 N   0  0  0  0  0  0  0  0  0  0  0  0
   -4.0298   -0.5329   -1.0196 N   0  0  0  0  0  0  0  0  0  0  0  0
   -1.0683    0.9596   -0.9766 C   0  0  0  0  0  0  0  0  0  0  0  0
    0.3130    1.0190   -0.7039 C   0  0  0  0  0  0  0  0  0  0  0  0
    1.0515   -0.0245   -0.1265 C   0  0  0  0  0  0  0  0  0  0  0  0
    2.3751    0.2076    0.0633 O   0  0  0  0  0  0  0  0  0  0  0  0
    3.1923   -0.8019    0.6422 C   0  0  0  0  0  0  0  0  0  0  0  0
    0.4334   -1.2563    0.2357 C   0  0  0  0  0  0  0  0  0  0  0  0
   -0.9140   -1.4091    0.0072 C   0  0  0  0  0  0  0  0  0  0  0  0
   -4.4635    3.6622   -2.8830 H   0  0  0  0  0  0  0  0  0  0  0  0
    0.8830    1.9181   -0.9433 H   0  0  0  0  0  0  0  0  0  0  0  0
    4.1976   -0.3807    0.6893 H   0  0  0  0  0  0  0  0  0  0  0  0
    3.2115   -1.7101    0.0275 H   0  0  0  0  0  0  0  0  0  0  0  0
    2.8627   -1.0580    1.6564 H   0  0  0  0  0  0  0  0  0  0  0  0
    1.0018   -2.0628    0.6811 H   0  0  0  0  0  0  0  0  0  0  0  0
   -1.4316   -2.3302    0.2657 H   0  0  0  0  0  0  0  0  0  0  0  0
   -8.0775    3.8788   -1.2925 C   0  0  0  0  0  0  0  0  0  0  0  0
   -9.2830    4.5368   -1.0675 C   0  0  0  0  0  0  0  0  0  0  0  0
  -10.2331    4.6826   -2.0906 C   0  0  0  0  0  0  0  0  0  0  0  0
   -9.9446    4.1481   -3.3539 C   0  0  0  0  0  0  0  0  0  0  0  0
   -8.7438    3.4844   -3.5997 C   0  0  0  0  0  0  0  0  0  0  0  0
   -7.8190    3.3611   -2.5633 C   0  0  0  0  0  0  0  0  0  0  0  0
   -7.3492    3.7560   -0.4980 H   0  0  0  0  0  0  0  0  0  0  0  0
   -9.4915    4.9435   -0.0816 H   0  0  0  0  0  0  0  0  0  0  0  0
  -10.6701    4.2506   -4.1566 H   0  0  0  0  0  0  0  0  0  0  0  0
   -8.5248    3.0612   -4.5736 H   0  0  0  0  0  0  0  0  0  0  0  0
   -6.2768    2.5247   -2.8672 S   0  0  0  0  0  0  0  0  0  0  0  0
   -5.7385    1.9936   -1.6129 O   0  0  0  0  0  0  0  0  0  0  0  0
   -5.3408    3.8157   -3.2750 O   0  0  0  0  0  0  0  0  0  0  0  0
   -6.4226    1.6708   -4.0399 O   0  0  0  0  0  0  0  0  0  0  0  0
  -11.5471    5.3757   -1.8238 C   0  0  0  0  0  0  0  0  0  0  0  0
  -12.2597    4.6918   -1.3456 H   0  0  0  0  0  0  0  0  0  0  0  0
  -11.4183    6.2305   -1.1529 H   0  0  0  0  0  0  0  0  0  0  0  0
  -12.0065    5.7338   -2.7488 H   0  0  0  0  0  0  0  0  0  0  0  0
  1 10  2  0  0  0  0
  2  1  1  0  0  0  0
  3  2  1  0  0  0  0
  4  5  2  0  0  0  0
  4  1  1  0  0  0  0
  5  6  1  0  0  0  0
  6  7  1  0  0  0  0
  6  9  2  0  0  0  0
  7  8  1  0  0  0  0
  8 13  1  0  0  0  0
  8 15  1  0  0  0  0
  9 16  1  0  0  0  0
 10  9  1  0  0  0  0
 10 17  1  0  0  0  0
 12  5  1  0  0  0  0
 14  8  1  0  0  0  0
 18 19  1  0  0  0  0
 18 24  1  0  0  0  0
 19 25  1  0  0  0  0
 20 32  1  0  0  0  0
 20 19  2  0  0  0  0
 21 20  1  0  0  0  0
 22 21  2  0  0  0  0
 22 23  1  0  0  0  0
 23 18  2  0  0  0  0
 26 21  1  0  0  0  0
 27 22  1  0  0  0  0
 28 23  1  0  0  0  0
 28 29  2  0  0  0  0
 30 11  1  0  0  0  0
 30 28  1  0  0  0  0
 31 28  2  0  0  0  0
 32 33  1  0  0  0  0
 32 34  1  0  0  0  0
 35 32  1  0  0  0  0
M  RAD  3   2   2   3   3   4   2
M  END
