Coordinates from ORCA-job 4-MeOPhN2+~TsO-_B3LYPG-6-31G_dp-CH-Scan-d09-49-n800
 OpenBabel11261919313D

 35 35  0  0  0  0  0  0  0  0999 V2000
   -1.8624   -0.2274   -0.1492 C   0  0  0  0  0  0  0  0  0  0  0  0
   -3.2288   -0.3861   -0.0341 N   0  0  0  0  0  0  0  0  0  0  0  0
   -4.3437   -0.4726    0.0509 N   0  0  0  0  0  0  0  0  0  0  0  0
   -1.4597    1.0635   -0.5652 C   0  0  0  0  0  0  0  0  0  0  0  0
   -0.0548    1.1197   -0.6510 C   0  0  0  0  0  0  0  0  0  0  0  0
    0.7995    0.0436   -0.3670 C   0  0  0  0  0  0  0  0  0  0  0  0
    2.1286    0.2765   -0.5097 O   0  0  0  0  0  0  0  0  0  0  0  0
    3.0584   -0.7684   -0.2551 C   0  0  0  0  0  0  0  0  0  0  0  0
    0.2855   -1.2187    0.0473 C   0  0  0  0  0  0  0  0  0  0  0  0
   -1.0766   -1.3691    0.1627 C   0  0  0  0  0  0  0  0  0  0  0  0
   -4.1870    3.7152   -1.7824 H   0  0  0  0  0  0  0  0  0  0  0  0
    0.4414    2.0411   -0.9591 H   0  0  0  0  0  0  0  0  0  0  0  0
    4.0446   -0.3433   -0.4475 H   0  0  0  0  0  0  0  0  0  0  0  0
    2.8995   -1.6235   -0.9231 H   0  0  0  0  0  0  0  0  0  0  0  0
    3.0113   -1.1081    0.7868 H   0  0  0  0  0  0  0  0  0  0  0  0
    0.9421   -2.0500    0.2704 H   0  0  0  0  0  0  0  0  0  0  0  0
   -1.5172   -2.3125    0.4770 H   0  0  0  0  0  0  0  0  0  0  0  0
   -8.2345    3.8094   -1.0284 C   0  0  0  0  0  0  0  0  0  0  0  0
   -9.4824    4.4137   -1.1443 C   0  0  0  0  0  0  0  0  0  0  0  0
  -10.0993    4.5729   -2.3959 C   0  0  0  0  0  0  0  0  0  0  0  0
   -9.4314    4.1069   -3.5360 C   0  0  0  0  0  0  0  0  0  0  0  0
   -8.1805    3.4984   -3.4415 C   0  0  0  0  0  0  0  0  0  0  0  0
   -7.5931    3.3606   -2.1848 C   0  0  0  0  0  0  0  0  0  0  0  0
   -7.7635    3.6763   -0.0607 H   0  0  0  0  0  0  0  0  0  0  0  0
   -9.9886    4.7667   -0.2500 H   0  0  0  0  0  0  0  0  0  0  0  0
   -9.8966    4.2193   -4.5114 H   0  0  0  0  0  0  0  0  0  0  0  0
   -7.6671    3.1282   -4.3216 H   0  0  0  0  0  0  0  0  0  0  0  0
   -5.9961    2.5864   -2.0516 S   0  0  0  0  0  0  0  0  0  0  0  0
   -5.8386    1.9904   -0.7234 O   0  0  0  0  0  0  0  0  0  0  0  0
   -5.0762    3.9469   -2.1044 O   0  0  0  0  0  0  0  0  0  0  0  0
   -5.7403    1.7897   -3.2481 O   0  0  0  0  0  0  0  0  0  0  0  0
  -11.4626    5.2126   -2.5008 C   0  0  0  0  0  0  0  0  0  0  0  0
  -12.2434    4.5322   -2.1403 H   0  0  0  0  0  0  0  0  0  0  0  0
  -11.5224    6.1222   -1.8952 H   0  0  0  0  0  0  0  0  0  0  0  0
  -11.7037    5.4749   -3.5339 H   0  0  0  0  0  0  0  0  0  0  0  0
  1  2  1  0  0  0  0
  1 10  2  0  0  0  0
  2  3  1  0  0  0  0
  4  1  1  0  0  0  0
  5  4  2  0  0  0  0
  5  6  1  0  0  0  0
  6  9  2  0  0  0  0
  7  6  1  0  0  0  0
  7  8  1  0  0  0  0
  8 15  1  0  0  0  0
  9 10  1  0  0  0  0
  9 16  1  0  0  0  0
 10 17  1  0  0  0  0
 12  5  1  0  0  0  0
 13  8  1  0  0  0  0
 14  8  1  0  0  0  0
 18 24  1  0  0  0  0
 19 18  1  0  0  0  0
 19 25  1  0  0  0  0
 20 19  2  0  0  0  0
 21 22  2  0  0  0  0
 21 20  1  0  0  0  0
 22 23  1  0  0  0  0
 23 28  1  0  0  0  0
 23 18  2  0  0  0  0
 26 21  1  0  0  0  0
 27 22  1  0  0  0  0
 28 29  2  0  0  0  0
 30 28  1  0  0  0  0
 30 11  1  0  0  0  0
 31 28  2  0  0  0  0
 32 20  1  0  0  0  0
 32 33  1  0  0  0  0
 32 34  1  0  0  0  0
 35 32  1  0  0  0  0
M  RAD  3   2   2   3   3   4   2
M  END
