Coordinates from ORCA-job 4-MeOPhN2+~TsO-_B3LYPG-6-31G_dp-CH-Scan-d09-49-n800
 OpenBabel11261919313D

 35 35  0  0  0  0  0  0  0  0999 V2000
   -1.9372   -0.2390   -0.1268 C   0  0  0  0  0  0  0  0  0  0  0  0
   -3.2954   -0.4283    0.0296 N   0  0  0  0  0  0  0  0  0  0  0  0
   -4.4045   -0.5421    0.1483 N   0  0  0  0  0  0  0  0  0  0  0  0
   -1.5746    1.0516   -0.5791 C   0  0  0  0  0  0  0  0  0  0  0  0
   -0.1746    1.1390   -0.7032 C   0  0  0  0  0  0  0  0  0  0  0  0
    0.7121    0.0889   -0.4203 C   0  0  0  0  0  0  0  0  0  0  0  0
    2.0309    0.3501   -0.6013 O   0  0  0  0  0  0  0  0  0  0  0  0
    2.9917   -0.6677   -0.3505 C   0  0  0  0  0  0  0  0  0  0  0  0
    0.2386   -1.1761    0.0314 C   0  0  0  0  0  0  0  0  0  0  0  0
   -1.1161   -1.3552    0.1858 C   0  0  0  0  0  0  0  0  0  0  0  0
   -4.1314    3.5797   -1.6909 H   0  0  0  0  0  0  0  0  0  0  0  0
    0.2914    2.0651   -1.0425 H   0  0  0  0  0  0  0  0  0  0  0  0
    3.9623   -0.2232   -0.5746 H   0  0  0  0  0  0  0  0  0  0  0  0
    2.8372   -1.5386   -0.9988 H   0  0  0  0  0  0  0  0  0  0  0  0
    2.9773   -0.9888    0.6983 H   0  0  0  0  0  0  0  0  0  0  0  0
    0.9199   -1.9877    0.2530 H   0  0  0  0  0  0  0  0  0  0  0  0
   -1.5262   -2.3020    0.5295 H   0  0  0  0  0  0  0  0  0  0  0  0
   -8.2261    3.7564   -0.9899 C   0  0  0  0  0  0  0  0  0  0  0  0
   -9.4566    4.3874   -1.1447 C   0  0  0  0  0  0  0  0  0  0  0  0
  -10.0210    4.5770   -2.4165 C   0  0  0  0  0  0  0  0  0  0  0  0
   -9.3181    4.1147   -3.5371 C   0  0  0  0  0  0  0  0  0  0  0  0
   -8.0841    3.4800   -3.4036 C   0  0  0  0  0  0  0  0  0  0  0  0
   -7.5489    3.3119   -2.1273 C   0  0  0  0  0  0  0  0  0  0  0  0
   -7.7952    3.5997   -0.0071 H   0  0  0  0  0  0  0  0  0  0  0  0
   -9.9905    4.7372   -0.2654 H   0  0  0  0  0  0  0  0  0  0  0  0
   -9.7427    4.2509   -4.5279 H   0  0  0  0  0  0  0  0  0  0  0  0
   -7.5439    3.1126   -4.2688 H   0  0  0  0  0  0  0  0  0  0  0  0
   -5.9744    2.5022   -1.9450 S   0  0  0  0  0  0  0  0  0  0  0  0
   -5.8792    1.8947   -0.6161 O   0  0  0  0  0  0  0  0  0  0  0  0
   -5.0285    3.8443   -1.9629 O   0  0  0  0  0  0  0  0  0  0  0  0
   -5.6948    1.7038   -3.1356 O   0  0  0  0  0  0  0  0  0  0  0  0
  -11.3670    5.2441   -2.5645 C   0  0  0  0  0  0  0  0  0  0  0  0
  -12.1747    4.5689   -2.2575 H   0  0  0  0  0  0  0  0  0  0  0  0
  -11.4384    6.1387   -1.9383 H   0  0  0  0  0  0  0  0  0  0  0  0
  -11.5571    5.5373   -3.6000 H   0  0  0  0  0  0  0  0  0  0  0  0
  1  2  1  0  0  0  0
  1 10  2  0  0  0  0
  2  3  1  0  0  0  0
  4  1  1  0  0  0  0
  5  4  2  0  0  0  0
  5  6  1  0  0  0  0
  6  9  2  0  0  0  0
  7  6  1  0  0  0  0
  7  8  1  0  0  0  0
  8 15  1  0  0  0  0
  9 10  1  0  0  0  0
  9 16  1  0  0  0  0
 10 17  1  0  0  0  0
 12  5  1  0  0  0  0
 13  8  1  0  0  0  0
 14  8  1  0  0  0  0
 18 24  1  0  0  0  0
 19 18  1  0  0  0  0
 19 25  1  0  0  0  0
 20 19  2  0  0  0  0
 21 22  2  0  0  0  0
 21 20  1  0  0  0  0
 22 23  1  0  0  0  0
 23 28  1  0  0  0  0
 23 18  2  0  0  0  0
 26 21  1  0  0  0  0
 27 22  1  0  0  0  0
 28 29  2  0  0  0  0
 30 28  1  0  0  0  0
 30 11  1  0  0  0  0
 31 28  2  0  0  0  0
 32 20  1  0  0  0  0
 32 33  1  0  0  0  0
 32 34  1  0  0  0  0
 35 32  1  0  0  0  0
M  RAD  3   2   2   3   3   4   2
M  END
