Coordinates from ORCA-job 4-MeOPhN2+~TsO-_B3LYPG-6-31G_dp-CH-Scan-d09-49-n800
 OpenBabel11261919313D

 35 35  0  0  0  0  0  0  0  0999 V2000
   -1.5143   -0.2782   -0.5722 C   0  0  0  0  0  0  0  0  0  0  0  0
   -2.8682   -0.4041   -0.8135 N   0  0  0  0  0  0  0  0  0  0  0  0
   -3.9679   -0.4578   -1.0290 N   0  0  0  0  0  0  0  0  0  0  0  0
   -0.9820    0.9776   -0.9460 C   0  0  0  0  0  0  0  0  0  0  0  0
    0.3987    1.0093   -0.6657 C   0  0  0  0  0  0  0  0  0  0  0  0
    1.1163   -0.0555   -0.1010 C   0  0  0  0  0  0  0  0  0  0  0  0
    2.4426    0.1509    0.0988 O   0  0  0  0  0  0  0  0  0  0  0  0
    3.2396   -0.8811    0.6661 C   0  0  0  0  0  0  0  0  0  0  0  0
    0.4753   -1.2820    0.2392 C   0  0  0  0  0  0  0  0  0  0  0  0
   -0.8732   -1.4084    0.0018 C   0  0  0  0  0  0  0  0  0  0  0  0
   -4.5180    3.7291   -2.9176 H   0  0  0  0  0  0  0  0  0  0  0  0
    0.9852    1.9022   -0.8884 H   0  0  0  0  0  0  0  0  0  0  0  0
    4.2518   -0.4783    0.7237 H   0  0  0  0  0  0  0  0  0  0  0  0
    3.2458   -1.7805    0.0380 H   0  0  0  0  0  0  0  0  0  0  0  0
    2.9011   -1.1464    1.6749 H   0  0  0  0  0  0  0  0  0  0  0  0
    1.0276   -2.1046    0.6755 H   0  0  0  0  0  0  0  0  0  0  0  0
   -1.4079   -2.3242    0.2438 H   0  0  0  0  0  0  0  0  0  0  0  0
   -8.1089    3.9275   -1.3140 C   0  0  0  0  0  0  0  0  0  0  0  0
   -9.3196    4.5749   -1.0860 C   0  0  0  0  0  0  0  0  0  0  0  0
  -10.2855    4.6868   -2.0986 C   0  0  0  0  0  0  0  0  0  0  0  0
  -10.0076    4.1292   -3.3541 C   0  0  0  0  0  0  0  0  0  0  0  0
   -8.8017    3.4758   -3.6028 C   0  0  0  0  0  0  0  0  0  0  0  0
   -7.8611    3.3863   -2.5773 C   0  0  0  0  0  0  0  0  0  0  0  0
   -7.3684    3.8307   -0.5272 H   0  0  0  0  0  0  0  0  0  0  0  0
   -9.5197    4.9996   -0.1060 H   0  0  0  0  0  0  0  0  0  0  0  0
  -10.7454    4.2050   -4.1485 H   0  0  0  0  0  0  0  0  0  0  0  0
   -8.5905    3.0351   -4.5706 H   0  0  0  0  0  0  0  0  0  0  0  0
   -6.3122    2.5638   -2.8854 S   0  0  0  0  0  0  0  0  0  0  0  0
   -5.7536    2.0591   -1.6290 O   0  0  0  0  0  0  0  0  0  0  0  0
   -5.3932    3.8576   -3.3229 O   0  0  0  0  0  0  0  0  0  0  0  0
   -6.4609    1.6914   -4.0438 O   0  0  0  0  0  0  0  0  0  0  0  0
  -11.6045    5.3690   -1.8277 C   0  0  0  0  0  0  0  0  0  0  0  0
  -12.2992    4.6887   -1.3191 H   0  0  0  0  0  0  0  0  0  0  0  0
  -11.4763    6.2430   -1.1820 H   0  0  0  0  0  0  0  0  0  0  0  0
  -12.0842    5.6962   -2.7538 H   0  0  0  0  0  0  0  0  0  0  0  0
  1 10  2  0  0  0  0
  2  1  1  0  0  0  0
  3  2  1  0  0  0  0
  4  5  2  0  0  0  0
  4  1  1  0  0  0  0
  5  6  1  0  0  0  0
  6  7  1  0  0  0  0
  6  9  2  0  0  0  0
  7  8  1  0  0  0  0
  8 13  1  0  0  0  0
  8 15  1  0  0  0  0
  9 16  1  0  0  0  0
 10  9  1  0  0  0  0
 10 17  1  0  0  0  0
 12  5  1  0  0  0  0
 14  8  1  0  0  0  0
 18 19  1  0  0  0  0
 18 24  1  0  0  0  0
 19 25  1  0  0  0  0
 20 32  1  0  0  0  0
 20 19  2  0  0  0  0
 21 20  1  0  0  0  0
 22 21  2  0  0  0  0
 22 23  1  0  0  0  0
 23 18  2  0  0  0  0
 26 21  1  0  0  0  0
 27 22  1  0  0  0  0
 28 23  1  0  0  0  0
 28 29  2  0  0  0  0
 30 11  1  0  0  0  0
 30 28  1  0  0  0  0
 31 28  2  0  0  0  0
 32 33  1  0  0  0  0
 32 34  1  0  0  0  0
 35 32  1  0  0  0  0
M  RAD  3   2   2   3   3   4   2
M  END
