Coordinates from ORCA-job 4-MeOPhN2+~TsO-_B3LYPG-6-31G_dp-CH-Scan-d09-49-n800
 OpenBabel11261919313D

 35 35  0  0  0  0  0  0  0  0999 V2000
   -2.2241   -0.3576   -0.1430 C   0  0  0  0  0  0  0  0  0  0  0  0
   -3.5275   -0.7443    0.0782 N   0  0  0  0  0  0  0  0  0  0  0  0
   -4.5971   -1.0319    0.2469 N   0  0  0  0  0  0  0  0  0  0  0  0
   -2.0584    0.9242   -0.7215 C   0  0  0  0  0  0  0  0  0  0  0  0
   -0.6961    1.2141   -0.9006 C   0  0  0  0  0  0  0  0  0  0  0  0
    0.3467    0.3414   -0.5500 C   0  0  0  0  0  0  0  0  0  0  0  0
    1.6033    0.7825   -0.7935 O   0  0  0  0  0  0  0  0  0  0  0  0
    2.7169   -0.0430   -0.4702 C   0  0  0  0  0  0  0  0  0  0  0  0
    0.0788   -0.9310    0.0276 C   0  0  0  0  0  0  0  0  0  0  0  0
   -1.2300   -1.2967    0.2395 C   0  0  0  0  0  0  0  0  0  0  0  0
   -4.0567    2.5513   -1.5008 H   0  0  0  0  0  0  0  0  0  0  0  0
   -0.3876    2.1638   -1.3363 H   0  0  0  0  0  0  0  0  0  0  0  0
    3.6018    0.5274   -0.7550 H   0  0  0  0  0  0  0  0  0  0  0  0
    2.6983   -0.9836   -1.0328 H   0  0  0  0  0  0  0  0  0  0  0  0
    2.7588   -0.2610    0.6039 H   0  0  0  0  0  0  0  0  0  0  0  0
    0.8791   -1.6067    0.3001 H   0  0  0  0  0  0  0  0  0  0  0  0
   -1.4831   -2.2588    0.6777 H   0  0  0  0  0  0  0  0  0  0  0  0
   -8.0623    3.5146   -0.9410 C   0  0  0  0  0  0  0  0  0  0  0  0
   -9.1457    4.3723   -1.1055 C   0  0  0  0  0  0  0  0  0  0  0  0
   -9.6249    4.6999   -2.3840 C   0  0  0  0  0  0  0  0  0  0  0  0
   -8.9882    4.1428   -3.5006 C   0  0  0  0  0  0  0  0  0  0  0  0
   -7.9007    3.2819   -3.3564 C   0  0  0  0  0  0  0  0  0  0  0  0
   -7.4458    2.9802   -2.0741 C   0  0  0  0  0  0  0  0  0  0  0  0
   -7.6999    3.2516    0.0466 H   0  0  0  0  0  0  0  0  0  0  0  0
   -9.6305    4.7932   -0.2288 H   0  0  0  0  0  0  0  0  0  0  0  0
   -9.3486    4.3838   -4.4968 H   0  0  0  0  0  0  0  0  0  0  0  0
   -7.4131    2.8418   -4.2189 H   0  0  0  0  0  0  0  0  0  0  0  0
   -6.0580    1.8795   -1.8790 S   0  0  0  0  0  0  0  0  0  0  0  0
   -6.1566    1.1958   -0.5845 O   0  0  0  0  0  0  0  0  0  0  0  0
   -4.8834    3.0004   -1.7856 O   0  0  0  0  0  0  0  0  0  0  0  0
   -5.8926    1.0899   -3.0983 O   0  0  0  0  0  0  0  0  0  0  0  0
  -10.8155    5.6147   -2.5433 C   0  0  0  0  0  0  0  0  0  0  0  0
  -11.7446    5.1011   -2.2681 H   0  0  0  0  0  0  0  0  0  0  0  0
  -10.7314    6.4946   -1.8976 H   0  0  0  0  0  0  0  0  0  0  0  0
  -10.9211    5.9593   -3.5749 H   0  0  0  0  0  0  0  0  0  0  0  0
  1  2  1  0  0  0  0
  1 10  2  0  0  0  0
  2  3  1  0  0  0  0
  4  1  1  0  0  0  0
  5  4  2  0  0  0  0
  5  6  1  0  0  0  0
  6  9  2  0  0  0  0
  7  6  1  0  0  0  0
  7  8  1  0  0  0  0
  8 15  1  0  0  0  0
  9 10  1  0  0  0  0
  9 16  1  0  0  0  0
 10 17  1  0  0  0  0
 12  5  1  0  0  0  0
 13  8  1  0  0  0  0
 14  8  1  0  0  0  0
 18 24  1  0  0  0  0
 19 18  1  0  0  0  0
 19 25  1  0  0  0  0
 20 19  2  0  0  0  0
 21 22  2  0  0  0  0
 21 20  1  0  0  0  0
 22 23  1  0  0  0  0
 23 28  1  0  0  0  0
 23 18  2  0  0  0  0
 26 21  1  0  0  0  0
 27 22  1  0  0  0  0
 28 30  1  0  0  0  0
 28 29  2  0  0  0  0
 30 11  1  0  0  0  0
 31 28  2  0  0  0  0
 32 20  1  0  0  0  0
 32 33  1  0  0  0  0
 32 34  1  0  0  0  0
 35 32  1  0  0  0  0
M  RAD  3   2   2   3   3   4   2
M  END
