Coordinates from ORCA-job 4-MeOPhN2+~TsO-_B3LYPG-6-31G_dp-CH-Scan-d09-49-n800
 OpenBabel11261919313D

 35 35  0  0  0  0  0  0  0  0999 V2000
   -1.6455   -0.3190   -0.5810 C   0  0  0  0  0  0  0  0  0  0  0  0
   -2.9964   -0.5050   -0.7986 N   0  0  0  0  0  0  0  0  0  0  0  0
   -4.0963   -0.6112   -0.9914 N   0  0  0  0  0  0  0  0  0  0  0  0
   -1.1660    0.9476   -0.9891 C   0  0  0  0  0  0  0  0  0  0  0  0
    0.2160    1.0376   -0.7286 C   0  0  0  0  0  0  0  0  0  0  0  0
    0.9815    0.0135   -0.1514 C   0  0  0  0  0  0  0  0  0  0  0  0
    2.3013    0.2748    0.0256 O   0  0  0  0  0  0  0  0  0  0  0  0
    3.1448   -0.7139    0.6027 C   0  0  0  0  0  0  0  0  0  0  0  0
    0.3927   -1.2287    0.2232 C   0  0  0  0  0  0  0  0  0  0  0  0
   -0.9531   -1.4111    0.0074 C   0  0  0  0  0  0  0  0  0  0  0  0
   -4.4076    3.5661   -2.8274 H   0  0  0  0  0  0  0  0  0  0  0  0
    0.7648    1.9471   -0.9783 H   0  0  0  0  0  0  0  0  0  0  0  0
    4.1414   -0.2714    0.6386 H   0  0  0  0  0  0  0  0  0  0  0  0
    3.1777   -1.6249   -0.0071 H   0  0  0  0  0  0  0  0  0  0  0  0
    2.8296   -0.9711    1.6213 H   0  0  0  0  0  0  0  0  0  0  0  0
    0.9817   -2.0205    0.6681 H   0  0  0  0  0  0  0  0  0  0  0  0
   -1.4487   -2.3414    0.2757 H   0  0  0  0  0  0  0  0  0  0  0  0
   -8.0522    3.8188   -1.2663 C   0  0  0  0  0  0  0  0  0  0  0  0
   -9.2496    4.4945   -1.0497 C   0  0  0  0  0  0  0  0  0  0  0  0
  -10.1751    4.6837   -2.0881 C   0  0  0  0  0  0  0  0  0  0  0  0
   -9.8705    4.1748   -3.3581 C   0  0  0  0  0  0  0  0  0  0  0  0
   -8.6778    3.4938   -3.5956 C   0  0  0  0  0  0  0  0  0  0  0  0
   -7.7773    3.3272   -2.5440 C   0  0  0  0  0  0  0  0  0  0  0  0
   -7.3429    3.6626   -0.4608 H   0  0  0  0  0  0  0  0  0  0  0  0
   -9.4709    4.8810   -0.0585 H   0  0  0  0  0  0  0  0  0  0  0  0
  -10.5769    4.3114   -4.1726 H   0  0  0  0  0  0  0  0  0  0  0  0
   -8.4469    3.0900   -4.5750 H   0  0  0  0  0  0  0  0  0  0  0  0
   -6.2458    2.4677   -2.8366 S   0  0  0  0  0  0  0  0  0  0  0  0
   -5.7377    1.9077   -1.5821 O   0  0  0  0  0  0  0  0  0  0  0  0
   -5.2834    3.7487   -3.2106 O   0  0  0  0  0  0  0  0  0  0  0  0
   -6.3882    1.6329   -4.0236 O   0  0  0  0  0  0  0  0  0  0  0  0
  -11.4812    5.3952   -1.8311 C   0  0  0  0  0  0  0  0  0  0  0  0
  -12.2164    4.7137   -1.3849 H   0  0  0  0  0  0  0  0  0  0  0  0
  -11.3504    6.2306   -1.1365 H   0  0  0  0  0  0  0  0  0  0  0  0
  -11.9143    5.7845   -2.7561 H   0  0  0  0  0  0  0  0  0  0  0  0
  1 10  2  0  0  0  0
  2  1  1  0  0  0  0
  3  2  1  0  0  0  0
  4  5  2  0  0  0  0
  4  1  1  0  0  0  0
  5  6  1  0  0  0  0
  6  7  1  0  0  0  0
  6  9  2  0  0  0  0
  7  8  1  0  0  0  0
  8 13  1  0  0  0  0
  8 15  1  0  0  0  0
  9 16  1  0  0  0  0
 10  9  1  0  0  0  0
 10 17  1  0  0  0  0
 12  5  1  0  0  0  0
 14  8  1  0  0  0  0
 18 19  1  0  0  0  0
 18 24  1  0  0  0  0
 19 25  1  0  0  0  0
 20 32  1  0  0  0  0
 20 19  2  0  0  0  0
 21 20  1  0  0  0  0
 22 21  2  0  0  0  0
 22 23  1  0  0  0  0
 23 18  2  0  0  0  0
 26 21  1  0  0  0  0
 27 22  1  0  0  0  0
 28 23  1  0  0  0  0
 28 29  2  0  0  0  0
 30 28  1  0  0  0  0
 30 11  1  0  0  0  0
 31 28  2  0  0  0  0
 32 33  1  0  0  0  0
 32 34  1  0  0  0  0
 35 32  1  0  0  0  0
M  RAD  3   2   2   3   3   4   2
M  END
