Coordinates from ORCA-job 4-MeOPhN2+~TsO-_B3LYPG-6-31G_dp-CH-Scan-d09-49-n800
 OpenBabel11261919303D

 35 35  0  0  0  0  0  0  0  0999 V2000
   -2.6002   -0.3660   -0.6874 C   0  0  0  0  0  0  0  0  0  0  0  0
   -3.8879   -0.8436   -0.8382 N   0  0  0  0  0  0  0  0  0  0  0  0
   -5.0101   -0.8908   -0.9749 N   0  0  0  0  0  0  0  0  0  0  0  0
   -2.3187    0.9863   -0.9791 C   0  0  0  0  0  0  0  0  0  0  0  0
   -1.0151    1.4109   -0.8143 C   0  0  0  0  0  0  0  0  0  0  0  0
   -0.0107    0.5269   -0.3676 C   0  0  0  0  0  0  0  0  0  0  0  0
    1.2171    1.0612   -0.2438 O   0  0  0  0  0  0  0  0  0  0  0  0
    2.3011    0.2397    0.1901 C   0  0  0  0  0  0  0  0  0  0  0  0
   -0.3175   -0.8221   -0.0890 C   0  0  0  0  0  0  0  0  0  0  0  0
   -1.6163   -1.2711   -0.2577 C   0  0  0  0  0  0  0  0  0  0  0  0
   -3.1800    1.7280   -1.3951 H   0  0  0  0  0  0  0  0  0  0  0  0
   -0.7378    2.4361   -1.0331 H   0  0  0  0  0  0  0  0  0  0  0  0
    3.1749    0.8907    0.2062 H   0  0  0  0  0  0  0  0  0  0  0  0
    2.4752   -0.5876   -0.5070 H   0  0  0  0  0  0  0  0  0  0  0  0
    2.1219   -0.1547    1.1964 H   0  0  0  0  0  0  0  0  0  0  0  0
    0.4446   -1.5117    0.2495 H   0  0  0  0  0  0  0  0  0  0  0  0
   -1.8785   -2.3035   -0.0528 H   0  0  0  0  0  0  0  0  0  0  0  0
   -7.0290    4.1899   -1.6244 C   0  0  0  0  0  0  0  0  0  0  0  0
   -8.1449    5.0232   -1.6241 C   0  0  0  0  0  0  0  0  0  0  0  0
   -9.3530    4.6181   -2.2120 C   0  0  0  0  0  0  0  0  0  0  0  0
   -9.4089    3.3540   -2.8131 C   0  0  0  0  0  0  0  0  0  0  0  0
   -8.2989    2.5085   -2.8211 C   0  0  0  0  0  0  0  0  0  0  0  0
   -7.1131    2.9302   -2.2216 C   0  0  0  0  0  0  0  0  0  0  0  0
   -6.0906    4.5119   -1.1863 H   0  0  0  0  0  0  0  0  0  0  0  0
   -8.0774    6.0071   -1.1663 H   0  0  0  0  0  0  0  0  0  0  0  0
  -10.3319    3.0283   -3.2867 H   0  0  0  0  0  0  0  0  0  0  0  0
   -8.3358    1.5366   -3.3003 H   0  0  0  0  0  0  0  0  0  0  0  0
   -5.6975    1.8270   -2.1888 S   0  0  0  0  0  0  0  0  0  0  0  0
   -5.7641    1.1500   -0.8255 O   0  0  0  0  0  0  0  0  0  0  0  0
   -4.4901    2.7064   -2.2622 O   0  0  0  0  0  0  0  0  0  0  0  0
   -5.8544    0.8646   -3.2987 O   0  0  0  0  0  0  0  0  0  0  0  0
  -10.5635    5.5216   -2.1831 C   0  0  0  0  0  0  0  0  0  0  0  0
  -11.0417    5.5120   -1.1953 H   0  0  0  0  0  0  0  0  0  0  0  0
  -10.2929    6.5606   -2.3985 H   0  0  0  0  0  0  0  0  0  0  0  0
  -11.3140    5.2085   -2.9144 H   0  0  0  0  0  0  0  0  0  0  0  0
  1 10  2  0  0  0  0
  2  1  1  0  0  0  0
  3  2  1  0  0  0  0
  4  5  2  0  0  0  0
  4  1  1  0  0  0  0
  5  6  1  0  0  0  0
  6  7  1  0  0  0  0
  6  9  2  0  0  0  0
  7  8  1  0  0  0  0
  8 13  1  0  0  0  0
  8 15  1  0  0  0  0
  9 16  1  0  0  0  0
 10  9  1  0  0  0  0
 10 17  1  0  0  0  0
 11  4  1  0  0  0  0
 12  5  1  0  0  0  0
 14  8  1  0  0  0  0
 18 19  1  0  0  0  0
 18 24  1  0  0  0  0
 19 25  1  0  0  0  0
 20 32  1  0  0  0  0
 20 19  2  0  0  0  0
 21 20  1  0  0  0  0
 22 21  2  0  0  0  0
 22 23  1  0  0  0  0
 23 28  1  0  0  0  0
 23 18  2  0  0  0  0
 26 21  1  0  0  0  0
 27 22  1  0  0  0  0
 28 29  1  0  0  0  0
 30 28  2  0  0  0  0
 31 28  2  0  0  0  0
 32 33  1  0  0  0  0
 34 32  1  0  0  0  0
 35 32  1  0  0  0  0
M  RAD  3   2   2   3   3  29   2
M  END
