Coordinates from ORCA-job 4-MeOPhN2+~TsO-_B3LYPG-6-31G_dp-CH-Scan-d09-49-n800
 OpenBabel11261919313D

 35 35  0  0  0  0  0  0  0  0999 V2000
   -2.1148   -0.3029   -0.1072 C   0  0  0  0  0  0  0  0  0  0  0  0
   -3.4408   -0.6093    0.1120 N   0  0  0  0  0  0  0  0  0  0  0  0
   -4.5268   -0.8254    0.2850 N   0  0  0  0  0  0  0  0  0  0  0  0
   -1.8764    0.9890   -0.6346 C   0  0  0  0  0  0  0  0  0  0  0  0
   -0.4972    1.1949   -0.8144 C   0  0  0  0  0  0  0  0  0  0  0  0
    0.4890    0.2430   -0.5108 C   0  0  0  0  0  0  0  0  0  0  0  0
    1.7712    0.6112   -0.7484 O   0  0  0  0  0  0  0  0  0  0  0  0
    2.8289   -0.3009   -0.4758 C   0  0  0  0  0  0  0  0  0  0  0  0
    0.1441   -1.0332    0.0170 C   0  0  0  0  0  0  0  0  0  0  0  0
   -1.1838   -1.3220    0.2275 C   0  0  0  0  0  0  0  0  0  0  0  0
   -4.0730    2.9640   -1.4989 H   0  0  0  0  0  0  0  0  0  0  0  0
   -0.1287    2.1396   -1.2146 H   0  0  0  0  0  0  0  0  0  0  0  0
    3.7479    0.2194   -0.7486 H   0  0  0  0  0  0  0  0  0  0  0  0
    2.7401   -1.2134   -1.0770 H   0  0  0  0  0  0  0  0  0  0  0  0
    2.8682   -0.5677    0.5873 H   0  0  0  0  0  0  0  0  0  0  0  0
    0.9014   -1.7696    0.2534 H   0  0  0  0  0  0  0  0  0  0  0  0
   -1.4962   -2.2828    0.6293 H   0  0  0  0  0  0  0  0  0  0  0  0
   -8.1543    3.5951   -0.9512 C   0  0  0  0  0  0  0  0  0  0  0  0
   -9.3011    4.3623   -1.1320 C   0  0  0  0  0  0  0  0  0  0  0  0
   -9.7865    4.6510   -2.4176 C   0  0  0  0  0  0  0  0  0  0  0  0
   -9.0905    4.1485   -3.5248 C   0  0  0  0  0  0  0  0  0  0  0  0
   -7.9394    3.3780   -3.3647 C   0  0  0  0  0  0  0  0  0  0  0  0
   -7.4809    3.1129   -2.0755 C   0  0  0  0  0  0  0  0  0  0  0  0
   -7.7861    3.3614    0.0416 H   0  0  0  0  0  0  0  0  0  0  0  0
   -9.8314    4.7415   -0.2627 H   0  0  0  0  0  0  0  0  0  0  0  0
   -9.4549    4.3602   -4.5261 H   0  0  0  0  0  0  0  0  0  0  0  0
   -7.4059    2.9791   -4.2200 H   0  0  0  0  0  0  0  0  0  0  0  0
   -6.0147    2.1249   -1.8602 S   0  0  0  0  0  0  0  0  0  0  0  0
   -6.0621    1.4538   -0.5582 O   0  0  0  0  0  0  0  0  0  0  0  0
   -4.9298    3.3440   -1.7757 O   0  0  0  0  0  0  0  0  0  0  0  0
   -5.7744    1.3422   -3.0707 O   0  0  0  0  0  0  0  0  0  0  0  0
  -11.0446    5.4665   -2.5948 C   0  0  0  0  0  0  0  0  0  0  0  0
  -11.9298    4.8911   -2.2983 H   0  0  0  0  0  0  0  0  0  0  0  0
  -11.0254    6.3688   -1.9754 H   0  0  0  0  0  0  0  0  0  0  0  0
  -11.1809    5.7720   -3.6350 H   0  0  0  0  0  0  0  0  0  0  0  0
  1  2  1  0  0  0  0
  1 10  2  0  0  0  0
  2  3  1  0  0  0  0
  4  1  1  0  0  0  0
  5  4  2  0  0  0  0
  5  6  1  0  0  0  0
  6  9  2  0  0  0  0
  7  6  1  0  0  0  0
  7  8  1  0  0  0  0
  8 15  1  0  0  0  0
  9 10  1  0  0  0  0
  9 16  1  0  0  0  0
 10 17  1  0  0  0  0
 12  5  1  0  0  0  0
 13  8  1  0  0  0  0
 14  8  1  0  0  0  0
 18 24  1  0  0  0  0
 19 18  1  0  0  0  0
 19 25  1  0  0  0  0
 20 19  2  0  0  0  0
 21 22  2  0  0  0  0
 21 20  1  0  0  0  0
 22 23  1  0  0  0  0
 23 28  1  0  0  0  0
 23 18  2  0  0  0  0
 26 21  1  0  0  0  0
 27 22  1  0  0  0  0
 28 30  1  0  0  0  0
 28 29  2  0  0  0  0
 30 11  1  0  0  0  0
 31 28  2  0  0  0  0
 32 20  1  0  0  0  0
 32 33  1  0  0  0  0
 32 34  1  0  0  0  0
 35 32  1  0  0  0  0
M  RAD  3   2   2   3   3   4   2
M  END
