Coordinates from ORCA-job 4-MeOPhN2+~TsO-_B3LYPG-6-31G_dp-CH-Scan-d09-49-n800
 OpenBabel11261919313D

 35 35  0  0  0  0  0  0  0  0999 V2000
   -1.8353   -0.2270   -0.1655 C   0  0  0  0  0  0  0  0  0  0  0  0
   -3.2043   -0.3781   -0.0707 N   0  0  0  0  0  0  0  0  0  0  0  0
   -4.3207   -0.4571   -0.0008 N   0  0  0  0  0  0  0  0  0  0  0  0
   -1.4201    1.0640   -0.5686 C   0  0  0  0  0  0  0  0  0  0  0  0
   -0.0137    1.1127   -0.6344 C   0  0  0  0  0  0  0  0  0  0  0  0
    0.8305    0.0303   -0.3447 C   0  0  0  0  0  0  0  0  0  0  0  0
    2.1628    0.2564   -0.4677 O   0  0  0  0  0  0  0  0  0  0  0  0
    3.0831   -0.7950   -0.2056 C   0  0  0  0  0  0  0  0  0  0  0  0
    0.3038   -1.2314    0.0555 C   0  0  0  0  0  0  0  0  0  0  0  0
   -1.0605   -1.3749    0.1511 C   0  0  0  0  0  0  0  0  0  0  0  0
   -4.2074    3.7424   -1.8389 H   0  0  0  0  0  0  0  0  0  0  0  0
    0.4919    2.0330   -0.9304 H   0  0  0  0  0  0  0  0  0  0  0  0
    4.0743   -0.3746   -0.3822 H   0  0  0  0  0  0  0  0  0  0  0  0
    2.9286   -1.6460   -0.8799 H   0  0  0  0  0  0  0  0  0  0  0  0
    3.0198   -1.1395    0.8339 H   0  0  0  0  0  0  0  0  0  0  0  0
    0.9528   -2.0675    0.2832 H   0  0  0  0  0  0  0  0  0  0  0  0
   -1.5106   -2.3175    0.4540 H   0  0  0  0  0  0  0  0  0  0  0  0
   -8.2338    3.8242   -1.0456 C   0  0  0  0  0  0  0  0  0  0  0  0
   -9.4852    4.4245   -1.1414 C   0  0  0  0  0  0  0  0  0  0  0  0
  -10.1251    4.5767   -2.3824 C   0  0  0  0  0  0  0  0  0  0  0  0
   -9.4767    4.1075   -3.5324 C   0  0  0  0  0  0  0  0  0  0  0  0
   -8.2225    3.5030   -3.4579 C   0  0  0  0  0  0  0  0  0  0  0  0
   -7.6120    3.3722   -2.2115 C   0  0  0  0  0  0  0  0  0  0  0  0
   -7.7451    3.6965   -0.0859 H   0  0  0  0  0  0  0  0  0  0  0  0
   -9.9762    4.7798   -0.2396 H   0  0  0  0  0  0  0  0  0  0  0  0
   -9.9598    4.2143   -4.4996 H   0  0  0  0  0  0  0  0  0  0  0  0
   -7.7240    3.1305   -4.3456 H   0  0  0  0  0  0  0  0  0  0  0  0
   -6.0103    2.6038   -2.1037 S   0  0  0  0  0  0  0  0  0  0  0  0
   -5.8275    2.0108   -0.7774 O   0  0  0  0  0  0  0  0  0  0  0  0
   -5.0942    3.9667   -2.1723 O   0  0  0  0  0  0  0  0  0  0  0  0
   -5.7719    1.8071   -3.3037 O   0  0  0  0  0  0  0  0  0  0  0  0
  -11.4917    5.2127   -2.4652 C   0  0  0  0  0  0  0  0  0  0  0  0
  -12.2628    4.5359   -2.0781 H   0  0  0  0  0  0  0  0  0  0  0  0
  -11.5397    6.1301   -1.8704 H   0  0  0  0  0  0  0  0  0  0  0  0
  -11.7564    5.4608   -3.4960 H   0  0  0  0  0  0  0  0  0  0  0  0
  1  2  1  0  0  0  0
  1 10  2  0  0  0  0
  2  3  1  0  0  0  0
  4  1  1  0  0  0  0
  5  4  2  0  0  0  0
  5  6  1  0  0  0  0
  6  9  2  0  0  0  0
  7  6  1  0  0  0  0
  7  8  1  0  0  0  0
  8 15  1  0  0  0  0
  9 10  1  0  0  0  0
  9 16  1  0  0  0  0
 10 17  1  0  0  0  0
 12  5  1  0  0  0  0
 13  8  1  0  0  0  0
 14  8  1  0  0  0  0
 18 24  1  0  0  0  0
 19 18  1  0  0  0  0
 19 25  1  0  0  0  0
 20 19  2  0  0  0  0
 21 22  2  0  0  0  0
 21 20  1  0  0  0  0
 22 23  1  0  0  0  0
 23 28  1  0  0  0  0
 23 18  2  0  0  0  0
 26 21  1  0  0  0  0
 27 22  1  0  0  0  0
 28 29  2  0  0  0  0
 30 28  1  0  0  0  0
 30 11  1  0  0  0  0
 31 28  2  0  0  0  0
 32 20  1  0  0  0  0
 32 33  1  0  0  0  0
 32 34  1  0  0  0  0
 35 32  1  0  0  0  0
M  RAD  3   2   2   3   3   4   2
M  END
