Coordinates from ORCA-job 4-MeOPhN2+~TsO-_B3LYPG-6-31G_dp-CH-Scan-d09-49-n800
 OpenBabel11261919313D

 35 35  0  0  0  0  0  0  0  0999 V2000
   -1.7479   -0.2374   -0.2426 C   0  0  0  0  0  0  0  0  0  0  0  0
   -3.1216   -0.3746   -0.2245 N   0  0  0  0  0  0  0  0  0  0  0  0
   -4.2412   -0.4415   -0.2200 N   0  0  0  0  0  0  0  0  0  0  0  0
   -1.3004    1.0510   -0.6186 C   0  0  0  0  0  0  0  0  0  0  0  0
    0.1081    1.0869   -0.6060 C   0  0  0  0  0  0  0  0  0  0  0  0
    0.9253   -0.0033   -0.2719 C   0  0  0  0  0  0  0  0  0  0  0  0
    2.2644    0.2110   -0.3188 O   0  0  0  0  0  0  0  0  0  0  0  0
    3.1589   -0.8484   -0.0046 C   0  0  0  0  0  0  0  0  0  0  0  0
    0.3660   -1.2615    0.0946 C   0  0  0  0  0  0  0  0  0  0  0  0
   -1.0026   -1.3934    0.1133 C   0  0  0  0  0  0  0  0  0  0  0  0
   -4.2790    3.7676   -2.0687 H   0  0  0  0  0  0  0  0  0  0  0  0
    0.6375    2.0035   -0.8708 H   0  0  0  0  0  0  0  0  0  0  0  0
    4.1623   -0.4362   -0.1214 H   0  0  0  0  0  0  0  0  0  0  0  0
    3.0374   -1.6975   -0.6881 H   0  0  0  0  0  0  0  0  0  0  0  0
    3.0312   -1.1936    1.0289 H   0  0  0  0  0  0  0  0  0  0  0  0
    0.9941   -2.1037    0.3557 H   0  0  0  0  0  0  0  0  0  0  0  0
   -1.4772   -2.3328    0.3876 H   0  0  0  0  0  0  0  0  0  0  0  0
   -8.2224    3.8519   -1.1096 C   0  0  0  0  0  0  0  0  0  0  0  0
   -9.4756    4.4557   -1.1249 C   0  0  0  0  0  0  0  0  0  0  0  0
  -10.1962    4.6042   -2.3214 C   0  0  0  0  0  0  0  0  0  0  0  0
   -9.6271    4.1275   -3.5095 C   0  0  0  0  0  0  0  0  0  0  0  0
   -8.3725    3.5190   -3.5158 C   0  0  0  0  0  0  0  0  0  0  0  0
   -7.6810    3.3921   -2.3122 C   0  0  0  0  0  0  0  0  0  0  0  0
   -7.6718    3.7267   -0.1837 H   0  0  0  0  0  0  0  0  0  0  0  0
   -9.9045    4.8167   -0.1941 H   0  0  0  0  0  0  0  0  0  0  0  0
  -10.1732    4.2309   -4.4430 H   0  0  0  0  0  0  0  0  0  0  0  0
   -7.9355    3.1402   -4.4327 H   0  0  0  0  0  0  0  0  0  0  0  0
   -6.0772    2.6203   -2.3070 S   0  0  0  0  0  0  0  0  0  0  0  0
   -5.8060    2.0323   -0.9936 O   0  0  0  0  0  0  0  0  0  0  0  0
   -5.1559    3.9764   -2.4363 O   0  0  0  0  0  0  0  0  0  0  0  0
   -5.9216    1.8222   -3.5189 O   0  0  0  0  0  0  0  0  0  0  0  0
  -11.5631    5.2452   -2.3160 C   0  0  0  0  0  0  0  0  0  0  0  0
  -12.3039    4.5842   -1.8504 H   0  0  0  0  0  0  0  0  0  0  0  0
  -11.5618    6.1796   -1.7458 H   0  0  0  0  0  0  0  0  0  0  0  0
  -11.9060    5.4659   -3.3297 H   0  0  0  0  0  0  0  0  0  0  0  0
  1  2  1  0  0  0  0
  1 10  2  0  0  0  0
  2  3  1  0  0  0  0
  4  5  2  0  0  0  0
  4  1  1  0  0  0  0
  5  6  1  0  0  0  0
  6  9  2  0  0  0  0
  7  6  1  0  0  0  0
  7  8  1  0  0  0  0
  8 15  1  0  0  0  0
  9 10  1  0  0  0  0
  9 16  1  0  0  0  0
 10 17  1  0  0  0  0
 12  5  1  0  0  0  0
 13  8  1  0  0  0  0
 14  8  1  0  0  0  0
 18 24  1  0  0  0  0
 19 18  1  0  0  0  0
 19 25  1  0  0  0  0
 20 32  1  0  0  0  0
 20 19  2  0  0  0  0
 21 20  1  0  0  0  0
 22 21  2  0  0  0  0
 22 23  1  0  0  0  0
 23 28  1  0  0  0  0
 23 18  2  0  0  0  0
 26 21  1  0  0  0  0
 27 22  1  0  0  0  0
 28 29  2  0  0  0  0
 30 28  1  0  0  0  0
 30 11  1  0  0  0  0
 31 28  2  0  0  0  0
 32 33  1  0  0  0  0
 32 34  1  0  0  0  0
 35 32  1  0  0  0  0
M  RAD  3   2   2   3   3   4   2
M  END
