Coordinates from ORCA-job 4-MeOPhN2+~TsO-_B3LYPG-6-31G_dp-CH-Scan-d09-49-n800
 OpenBabel11261919313D

 35 35  0  0  0  0  0  0  0  0999 V2000
   -2.4953   -0.4459   -0.2076 C   0  0  0  0  0  0  0  0  0  0  0  0
   -3.7385   -0.9872    0.0253 N   0  0  0  0  0  0  0  0  0  0  0  0
   -4.7660   -1.3959    0.1990 N   0  0  0  0  0  0  0  0  0  0  0  0
   -2.4683    0.8039   -0.8746 C   0  0  0  0  0  0  0  0  0  0  0  0
   -1.1581    1.2598   -1.0595 C   0  0  0  0  0  0  0  0  0  0  0  0
   -0.0184    0.5558   -0.6334 C   0  0  0  0  0  0  0  0  0  0  0  0
    1.1714    1.1392   -0.8933 O   0  0  0  0  0  0  0  0  0  0  0  0
    2.3784    0.4902   -0.5032 C   0  0  0  0  0  0  0  0  0  0  0  0
   -0.1364   -0.6958    0.0287 C   0  0  0  0  0  0  0  0  0  0  0  0
   -1.3929   -1.2122    0.2486 C   0  0  0  0  0  0  0  0  0  0  0  0
   -3.9638    1.7811   -1.4953 H   0  0  0  0  0  0  0  0  0  0  0  0
   -0.9730    2.2086   -1.5593 H   0  0  0  0  0  0  0  0  0  0  0  0
    3.1855    1.1507   -0.8210 H   0  0  0  0  0  0  0  0  0  0  0  0
    2.4898   -0.4808   -0.9994 H   0  0  0  0  0  0  0  0  0  0  0  0
    2.4281    0.3547    0.5838 H   0  0  0  0  0  0  0  0  0  0  0  0
    0.7363   -1.2442    0.3580 H   0  0  0  0  0  0  0  0  0  0  0  0
   -1.5293   -2.1668    0.7487 H   0  0  0  0  0  0  0  0  0  0  0  0
   -7.8220    3.3292   -0.9073 C   0  0  0  0  0  0  0  0  0  0  0  0
   -8.7774    4.3332   -1.0396 C   0  0  0  0  0  0  0  0  0  0  0  0
   -9.2294    4.7427   -2.3035 C   0  0  0  0  0  0  0  0  0  0  0  0
   -8.6967    4.1175   -3.4386 C   0  0  0  0  0  0  0  0  0  0  0  0
   -7.7395    3.1100   -3.3250 C   0  0  0  0  0  0  0  0  0  0  0  0
   -7.3065    2.7277   -2.0565 C   0  0  0  0  0  0  0  0  0  0  0  0
   -7.4822    3.0035    0.0695 H   0  0  0  0  0  0  0  0  0  0  0  0
   -9.1822    4.8056   -0.1483 H   0  0  0  0  0  0  0  0  0  0  0  0
   -9.0373    4.4211   -4.4249 H   0  0  0  0  0  0  0  0  0  0  0  0
   -7.3353    2.6168   -4.2019 H   0  0  0  0  0  0  0  0  0  0  0  0
   -6.0747    1.4444   -1.9023 S   0  0  0  0  0  0  0  0  0  0  0  0
   -6.2530    0.7722   -0.6033 O   0  0  0  0  0  0  0  0  0  0  0  0
   -4.7568    2.3418   -1.8491 O   0  0  0  0  0  0  0  0  0  0  0  0
   -6.0928    0.6268   -3.1183 O   0  0  0  0  0  0  0  0  0  0  0  0
  -10.2879    5.8117   -2.4312 C   0  0  0  0  0  0  0  0  0  0  0  0
  -11.2877    5.3996   -2.2460 H   0  0  0  0  0  0  0  0  0  0  0  0
  -10.1323    6.6177   -1.7070 H   0  0  0  0  0  0  0  0  0  0  0  0
  -10.2952    6.2508   -3.4326 H   0  0  0  0  0  0  0  0  0  0  0  0
  1  2  1  0  0  0  0
  1 10  2  0  0  0  0
  2  3  1  0  0  0  0
  4  1  1  0  0  0  0
  5  4  2  0  0  0  0
  5  6  1  0  0  0  0
  6  9  2  0  0  0  0
  7  6  1  0  0  0  0
  7  8  1  0  0  0  0
  8 15  1  0  0  0  0
  9 10  1  0  0  0  0
  9 16  1  0  0  0  0
 10 17  1  0  0  0  0
 12  5  1  0  0  0  0
 13  8  1  0  0  0  0
 14  8  1  0  0  0  0
 18 24  1  0  0  0  0
 19 18  1  0  0  0  0
 19 25  1  0  0  0  0
 20 19  2  0  0  0  0
 21 22  2  0  0  0  0
 21 20  1  0  0  0  0
 22 23  1  0  0  0  0
 23 28  1  0  0  0  0
 23 18  2  0  0  0  0
 26 21  1  0  0  0  0
 27 22  1  0  0  0  0
 28 30  1  0  0  0  0
 28 29  2  0  0  0  0
 30 11  1  0  0  0  0
 31 28  2  0  0  0  0
 32 20  1  0  0  0  0
 32 33  1  0  0  0  0
 32 34  1  0  0  0  0
 35 32  1  0  0  0  0
M  RAD  3   2   2   3   3   4   2
M  END
