Coordinates from ORCA-job 4-MeOPhN2+~TsO-_B3LYPG-6-31G_dp-CH-Scan-d09-49-n800
 OpenBabel11261919313D

 35 35  0  0  0  0  0  0  0  0999 V2000
   -2.2680   -0.3827   -0.1696 C   0  0  0  0  0  0  0  0  0  0  0  0
   -3.5616   -0.8032    0.0456 N   0  0  0  0  0  0  0  0  0  0  0  0
   -4.6240   -1.1167    0.2132 N   0  0  0  0  0  0  0  0  0  0  0  0
   -2.1307    0.8905   -0.7739 C   0  0  0  0  0  0  0  0  0  0  0  0
   -0.7765    1.2180   -0.9437 C   0  0  0  0  0  0  0  0  0  0  0  0
    0.2873    0.3842   -0.5620 C   0  0  0  0  0  0  0  0  0  0  0  0
    1.5327    0.8574   -0.8000 O   0  0  0  0  0  0  0  0  0  0  0  0
    2.6666    0.0719   -0.4477 C   0  0  0  0  0  0  0  0  0  0  0  0
    0.0493   -0.8830    0.0391 C   0  0  0  0  0  0  0  0  0  0  0  0
   -1.2507   -1.2829    0.2435 C   0  0  0  0  0  0  0  0  0  0  0  0
   -4.0532    2.3688   -1.5524 H   0  0  0  0  0  0  0  0  0  0  0  0
   -0.4917    2.1672   -1.3960 H   0  0  0  0  0  0  0  0  0  0  0  0
    3.5373    0.6628   -0.7340 H   0  0  0  0  0  0  0  0  0  0  0  0
    2.6819   -0.8795   -0.9920 H   0  0  0  0  0  0  0  0  0  0  0  0
    2.7019   -0.1237    0.6309 H   0  0  0  0  0  0  0  0  0  0  0  0
    0.8654   -1.5294    0.3346 H   0  0  0  0  0  0  0  0  0  0  0  0
   -1.4805   -2.2427    0.6987 H   0  0  0  0  0  0  0  0  0  0  0  0
   -8.0154    3.4787   -0.9386 C   0  0  0  0  0  0  0  0  0  0  0  0
   -9.0682    4.3763   -1.0890 C   0  0  0  0  0  0  0  0  0  0  0  0
   -9.5518    4.7216   -2.3609 C   0  0  0  0  0  0  0  0  0  0  0  0
   -8.9512    4.1410   -3.4857 C   0  0  0  0  0  0  0  0  0  0  0  0
   -7.8953    3.2398   -3.3554 C   0  0  0  0  0  0  0  0  0  0  0  0
   -7.4344    2.9213   -2.0792 C   0  0  0  0  0  0  0  0  0  0  0  0
   -7.6496    3.2025    0.0441 H   0  0  0  0  0  0  0  0  0  0  0  0
   -9.5251    4.8152   -0.2061 H   0  0  0  0  0  0  0  0  0  0  0  0
   -9.3153    4.3957   -4.4772 H   0  0  0  0  0  0  0  0  0  0  0  0
   -7.4364    2.7816   -4.2243 H   0  0  0  0  0  0  0  0  0  0  0  0
   -6.0844    1.7712   -1.9015 S   0  0  0  0  0  0  0  0  0  0  0  0
   -6.1816    1.1058   -0.5965 O   0  0  0  0  0  0  0  0  0  0  0  0
   -4.8664    2.8417   -1.8498 O   0  0  0  0  0  0  0  0  0  0  0  0
   -5.9813    0.9591   -3.1133 O   0  0  0  0  0  0  0  0  0  0  0  0
  -10.7105    5.6788   -2.5053 C   0  0  0  0  0  0  0  0  0  0  0  0
  -11.6588    5.1878   -2.2548 H   0  0  0  0  0  0  0  0  0  0  0  0
  -10.6053    6.5367   -1.8336 H   0  0  0  0  0  0  0  0  0  0  0  0
  -10.7943    6.0557   -3.5277 H   0  0  0  0  0  0  0  0  0  0  0  0
  1  2  1  0  0  0  0
  1 10  2  0  0  0  0
  2  3  1  0  0  0  0
  4  1  1  0  0  0  0
  5  4  2  0  0  0  0
  5  6  1  0  0  0  0
  6  9  2  0  0  0  0
  7  6  1  0  0  0  0
  7  8  1  0  0  0  0
  8 15  1  0  0  0  0
  9 10  1  0  0  0  0
  9 16  1  0  0  0  0
 10 17  1  0  0  0  0
 12  5  1  0  0  0  0
 13  8  1  0  0  0  0
 14  8  1  0  0  0  0
 18 24  1  0  0  0  0
 19 18  1  0  0  0  0
 19 25  1  0  0  0  0
 20 19  2  0  0  0  0
 21 22  2  0  0  0  0
 21 20  1  0  0  0  0
 22 23  1  0  0  0  0
 23 28  1  0  0  0  0
 23 18  2  0  0  0  0
 26 21  1  0  0  0  0
 27 22  1  0  0  0  0
 28 30  1  0  0  0  0
 28 29  2  0  0  0  0
 30 11  1  0  0  0  0
 31 28  2  0  0  0  0
 32 20  1  0  0  0  0
 32 33  1  0  0  0  0
 32 34  1  0  0  0  0
 35 32  1  0  0  0  0
M  RAD  3   2   2   3   3   4   2
M  END
