Coordinates from ORCA-job 4-MeOPhN2+~TsO-_B3LYPG-6-31G_dp-CH-Scan-d09-49-n800
 OpenBabel11261919313D

 35 35  0  0  0  0  0  0  0  0999 V2000
   -2.1184   -0.3048   -0.1070 C   0  0  0  0  0  0  0  0  0  0  0  0
   -3.4435   -0.6141    0.1133 N   0  0  0  0  0  0  0  0  0  0  0  0
   -4.5290   -0.8342    0.2844 N   0  0  0  0  0  0  0  0  0  0  0  0
   -1.8830    0.9864   -0.6372 C   0  0  0  0  0  0  0  0  0  0  0  0
   -0.5044    1.1955   -0.8179 C   0  0  0  0  0  0  0  0  0  0  0  0
    0.4841    0.2466   -0.5127 C   0  0  0  0  0  0  0  0  0  0  0  0
    1.7654    0.6173   -0.7513 O   0  0  0  0  0  0  0  0  0  0  0  0
    2.8254   -0.2915   -0.4769 C   0  0  0  0  0  0  0  0  0  0  0  0
    0.1424   -1.0293    0.0179 C   0  0  0  0  0  0  0  0  0  0  0  0
   -1.1848   -1.3210    0.2294 C   0  0  0  0  0  0  0  0  0  0  0  0
   -4.0731    2.9476   -1.4959 H   0  0  0  0  0  0  0  0  0  0  0  0
   -0.1384    2.1403   -1.2200 H   0  0  0  0  0  0  0  0  0  0  0  0
    3.7430    0.2305   -0.7509 H   0  0  0  0  0  0  0  0  0  0  0  0
    2.7389   -1.2055   -1.0761 H   0  0  0  0  0  0  0  0  0  0  0  0
    2.8654   -0.5559    0.5867 H   0  0  0  0  0  0  0  0  0  0  0  0
    0.9015   -1.7635    0.2556 H   0  0  0  0  0  0  0  0  0  0  0  0
   -1.4947   -2.2817    0.6332 H   0  0  0  0  0  0  0  0  0  0  0  0
   -8.1520    3.5914   -0.9511 C   0  0  0  0  0  0  0  0  0  0  0  0
   -9.2964    4.3623   -1.1313 C   0  0  0  0  0  0  0  0  0  0  0  0
   -9.7809    4.6534   -2.4168 C   0  0  0  0  0  0  0  0  0  0  0  0
   -9.0864    4.1494   -3.5243 C   0  0  0  0  0  0  0  0  0  0  0  0
   -7.9377    3.3753   -3.3647 C   0  0  0  0  0  0  0  0  0  0  0  0
   -7.4801    3.1079   -2.0757 C   0  0  0  0  0  0  0  0  0  0  0  0
   -7.7846    3.3559    0.0416 H   0  0  0  0  0  0  0  0  0  0  0  0
   -9.8256    4.7425   -0.2618 H   0  0  0  0  0  0  0  0  0  0  0  0
   -9.4502    4.3629   -4.5255 H   0  0  0  0  0  0  0  0  0  0  0  0
   -7.4054    2.9753   -4.2202 H   0  0  0  0  0  0  0  0  0  0  0  0
   -6.0169    2.1151   -1.8611 S   0  0  0  0  0  0  0  0  0  0  0  0
   -6.0678    1.4412   -0.5605 O   0  0  0  0  0  0  0  0  0  0  0  0
   -4.9287    3.3307   -1.7728 O   0  0  0  0  0  0  0  0  0  0  0  0
   -5.7778    1.3341   -3.0729 O   0  0  0  0  0  0  0  0  0  0  0  0
  -11.0365    5.4729   -2.5935 C   0  0  0  0  0  0  0  0  0  0  0  0
  -11.9234    4.9002   -2.2970 H   0  0  0  0  0  0  0  0  0  0  0  0
  -11.0143    6.3748   -1.9737 H   0  0  0  0  0  0  0  0  0  0  0  0
  -11.1720    5.7792   -3.6336 H   0  0  0  0  0  0  0  0  0  0  0  0
  1  2  1  0  0  0  0
  1 10  2  0  0  0  0
  2  3  1  0  0  0  0
  4  1  1  0  0  0  0
  5  4  2  0  0  0  0
  5  6  1  0  0  0  0
  6  9  2  0  0  0  0
  7  6  1  0  0  0  0
  7  8  1  0  0  0  0
  8 15  1  0  0  0  0
  9 10  1  0  0  0  0
  9 16  1  0  0  0  0
 10 17  1  0  0  0  0
 12  5  1  0  0  0  0
 13  8  1  0  0  0  0
 14  8  1  0  0  0  0
 18 24  1  0  0  0  0
 19 18  1  0  0  0  0
 19 25  1  0  0  0  0
 20 19  2  0  0  0  0
 21 22  2  0  0  0  0
 21 20  1  0  0  0  0
 22 23  1  0  0  0  0
 23 28  1  0  0  0  0
 23 18  2  0  0  0  0
 26 21  1  0  0  0  0
 27 22  1  0  0  0  0
 28 30  1  0  0  0  0
 28 29  2  0  0  0  0
 30 11  1  0  0  0  0
 31 28  2  0  0  0  0
 32 20  1  0  0  0  0
 32 33  1  0  0  0  0
 32 34  1  0  0  0  0
 35 32  1  0  0  0  0
M  RAD  3   2   2   3   3   4   2
M  END
