Coordinates from ORCA-job 4-MeOPhN2+~TsO-_B3LYPG-6-31G_dp-CH-Scan-d09-49-n800
 OpenBabel11261919313D

 35 35  0  0  0  0  0  0  0  0999 V2000
   -2.1330   -0.3115   -0.1077 C   0  0  0  0  0  0  0  0  0  0  0  0
   -3.4550   -0.6311    0.1156 N   0  0  0  0  0  0  0  0  0  0  0  0
   -4.5385   -0.8619    0.2854 N   0  0  0  0  0  0  0  0  0  0  0  0
   -1.9081    0.9787   -0.6450 C   0  0  0  0  0  0  0  0  0  0  0  0
   -0.5318    1.1986   -0.8284 C   0  0  0  0  0  0  0  0  0  0  0  0
    0.4649    0.2596   -0.5191 C   0  0  0  0  0  0  0  0  0  0  0  0
    1.7426    0.6397   -0.7611 O   0  0  0  0  0  0  0  0  0  0  0  0
    2.8108   -0.2581   -0.4818 C   0  0  0  0  0  0  0  0  0  0  0  0
    0.1343   -1.0162    0.0186 C   0  0  0  0  0  0  0  0  0  0  0  0
   -1.1903   -1.3177    0.2330 C   0  0  0  0  0  0  0  0  0  0  0  0
   -4.0710    2.8923   -1.4850 H   0  0  0  0  0  0  0  0  0  0  0  0
   -0.1744    2.1443   -1.2359 H   0  0  0  0  0  0  0  0  0  0  0  0
    3.7236    0.2706   -0.7591 H   0  0  0  0  0  0  0  0  0  0  0  0
    2.7322   -1.1762   -1.0758 H   0  0  0  0  0  0  0  0  0  0  0  0
    2.8534   -0.5159    0.5834 H   0  0  0  0  0  0  0  0  0  0  0  0
    0.8997   -1.7427    0.2596 H   0  0  0  0  0  0  0  0  0  0  0  0
   -1.4917   -2.2787    0.6423 H   0  0  0  0  0  0  0  0  0  0  0  0
   -8.1424    3.5794   -0.9496 C   0  0  0  0  0  0  0  0  0  0  0  0
   -9.2787    4.3622   -1.1291 C   0  0  0  0  0  0  0  0  0  0  0  0
   -9.7598    4.6600   -2.4143 C   0  0  0  0  0  0  0  0  0  0  0  0
   -9.0702    4.1505   -3.5222 C   0  0  0  0  0  0  0  0  0  0  0  0
   -7.9294    3.3645   -3.3633 C   0  0  0  0  0  0  0  0  0  0  0  0
   -7.4749    3.0907   -2.0746 C   0  0  0  0  0  0  0  0  0  0  0  0
   -7.7778    3.3387    0.0429 H   0  0  0  0  0  0  0  0  0  0  0  0
   -9.8042    4.7467   -0.2592 H   0  0  0  0  0  0  0  0  0  0  0  0
   -9.4315    4.3690   -4.5233 H   0  0  0  0  0  0  0  0  0  0  0  0
   -7.4008    2.9604   -4.2192 H   0  0  0  0  0  0  0  0  0  0  0  0
   -6.0220    2.0825   -1.8609 S   0  0  0  0  0  0  0  0  0  0  0  0
   -6.0844    1.4016   -0.5643 O   0  0  0  0  0  0  0  0  0  0  0  0
   -4.9224    3.2857   -1.7624 O   0  0  0  0  0  0  0  0  0  0  0  0
   -5.7876    1.3051   -3.0760 O   0  0  0  0  0  0  0  0  0  0  0  0
  -11.0069    5.4926   -2.5901 C   0  0  0  0  0  0  0  0  0  0  0  0
  -11.8998    4.9287   -2.2948 H   0  0  0  0  0  0  0  0  0  0  0  0
  -10.9757    6.3934   -1.9690 H   0  0  0  0  0  0  0  0  0  0  0  0
  -11.1390    5.8019   -3.6298 H   0  0  0  0  0  0  0  0  0  0  0  0
  1  2  1  0  0  0  0
  1 10  2  0  0  0  0
  2  3  1  0  0  0  0
  4  1  1  0  0  0  0
  5  4  2  0  0  0  0
  5  6  1  0  0  0  0
  6  9  2  0  0  0  0
  7  6  1  0  0  0  0
  7  8  1  0  0  0  0
  8 15  1  0  0  0  0
  9 10  1  0  0  0  0
  9 16  1  0  0  0  0
 10 17  1  0  0  0  0
 12  5  1  0  0  0  0
 13  8  1  0  0  0  0
 14  8  1  0  0  0  0
 18 24  1  0  0  0  0
 19 18  1  0  0  0  0
 19 25  1  0  0  0  0
 20 19  2  0  0  0  0
 21 22  2  0  0  0  0
 21 20  1  0  0  0  0
 22 23  1  0  0  0  0
 23 28  1  0  0  0  0
 23 18  2  0  0  0  0
 26 21  1  0  0  0  0
 27 22  1  0  0  0  0
 28 30  1  0  0  0  0
 28 29  2  0  0  0  0
 30 11  1  0  0  0  0
 31 28  2  0  0  0  0
 32 20  1  0  0  0  0
 32 33  1  0  0  0  0
 32 34  1  0  0  0  0
 35 32  1  0  0  0  0
M  RAD  3   2   2   3   3   4   2
M  END
