Coordinates from ORCA-job 4-MeOPhN2+~TsO-_B3LYPG-6-31G_dp-CH-Scan-d09-49-n800
 OpenBabel11261919303D

 35 35  0  0  0  0  0  0  0  0999 V2000
   -2.7615   -0.0977   -0.3908 C   0  0  0  0  0  0  0  0  0  0  0  0
   -4.1200   -0.3741   -0.4204 N   0  0  0  0  0  0  0  0  0  0  0  0
   -5.2186   -0.0603   -0.4430 N   0  0  0  0  0  0  0  0  0  0  0  0
   -2.2980    1.2346   -0.3229 C   0  0  0  0  0  0  0  0  0  0  0  0
   -0.9340    1.4431   -0.3004 C   0  0  0  0  0  0  0  0  0  0  0  0
   -0.0326    0.3590   -0.3453 C   0  0  0  0  0  0  0  0  0  0  0  0
    1.2712    0.6905   -0.3178 O   0  0  0  0  0  0  0  0  0  0  0  0
    2.2560   -0.3399   -0.3753 C   0  0  0  0  0  0  0  0  0  0  0  0
   -0.5137   -0.9628   -0.4130 C   0  0  0  0  0  0  0  0  0  0  0  0
   -1.8817   -1.1871   -0.4350 C   0  0  0  0  0  0  0  0  0  0  0  0
   -2.9785    2.0341   -0.2978 H   0  0  0  0  0  0  0  0  0  0  0  0
   -0.5310    2.4489   -0.2561 H   0  0  0  0  0  0  0  0  0  0  0  0
    3.2183    0.1701   -0.3426 H   0  0  0  0  0  0  0  0  0  0  0  0
    2.1784   -0.9117   -1.3071 H   0  0  0  0  0  0  0  0  0  0  0  0
    2.1735   -1.0174    0.4826 H   0  0  0  0  0  0  0  0  0  0  0  0
    0.1645   -1.8053   -0.4501 H   0  0  0  0  0  0  0  0  0  0  0  0
   -2.2777   -2.1953   -0.4903 H   0  0  0  0  0  0  0  0  0  0  0  0
   -7.1618    4.5945   -1.6110 C   0  0  0  0  0  0  0  0  0  0  0  0
   -8.4411    5.1108   -1.8089 C   0  0  0  0  0  0  0  0  0  0  0  0
   -9.4444    4.3477   -2.4234 C   0  0  0  0  0  0  0  0  0  0  0  0
   -9.1274    3.0499   -2.8479 C   0  0  0  0  0  0  0  0  0  0  0  0
   -7.8522    2.5200   -2.6563 C   0  0  0  0  0  0  0  0  0  0  0  0
   -6.8747    3.2955   -2.0324 C   0  0  0  0  0  0  0  0  0  0  0  0
   -6.3807    5.1923   -1.1539 H   0  0  0  0  0  0  0  0  0  0  0  0
   -8.6631    6.1256   -1.4882 H   0  0  0  0  0  0  0  0  0  0  0  0
   -9.8875    2.4484   -3.3407 H   0  0  0  0  0  0  0  0  0  0  0  0
   -7.6023    1.5232   -3.0027 H   0  0  0  0  0  0  0  0  0  0  0  0
   -5.2398    2.6107   -1.7486 S   0  0  0  0  0  0  0  0  0  0  0  0
   -5.3152    1.9840   -0.3353 O   0  0  0  0  0  0  0  0  0  0  0  0
   -4.2934    3.7439   -1.7248 O   0  0  0  0  0  0  0  0  0  0  0  0
   -5.0184    1.5579   -2.7631 O   0  0  0  0  0  0  0  0  0  0  0  0
  -10.8362    4.9047   -2.6075 C   0  0  0  0  0  0  0  0  0  0  0  0
  -11.4623    4.7042   -1.7281 H   0  0  0  0  0  0  0  0  0  0  0  0
  -10.8177    5.9896   -2.7514 H   0  0  0  0  0  0  0  0  0  0  0  0
  -11.3362    4.4558   -3.4708 H   0  0  0  0  0  0  0  0  0  0  0  0
  1  4  2  0  0  0  0
  2  1  1  0  0  0  0
  3  2  2  0  0  0  0
  4  5  1  0  0  0  0
  4 11  1  0  0  0  0
  5 12  1  0  0  0  0
  6  7  1  0  0  0  0
  6  5  2  0  0  0  0
  8 13  1  0  0  0  0
  8  7  1  0  0  0  0
  8 15  1  0  0  0  0
  9  6  1  0  0  0  0
 10  9  2  0  0  0  0
 10  1  1  0  0  0  0
 14  8  1  0  0  0  0
 16  9  1  0  0  0  0
 17 10  1  0  0  0  0
 18 24  1  0  0  0  0
 19 18  1  0  0  0  0
 19 25  1  0  0  0  0
 20 19  2  0  0  0  0
 21 22  2  0  0  0  0
 21 20  1  0  0  0  0
 22 23  1  0  0  0  0
 23 28  1  0  0  0  0
 23 18  2  0  0  0  0
 26 21  1  0  0  0  0
 27 22  1  0  0  0  0
 28 30  2  0  0  0  0
 28 29  1  0  0  0  0
 31 28  2  0  0  0  0
 32 20  1  0  0  0  0
 32 33  1  0  0  0  0
 34 32  1  0  0  0  0
 35 32  1  0  0  0  0
M  RAD  2   3   2  29   2
M  END
