Coordinates from ORCA-job 4-MeOPhN2+~TsO-_B3LYPG-6-31G_dp-CH-Scan-d09-49-n800
 OpenBabel11261919313D

 35 35  0  0  0  0  0  0  0  0999 V2000
   -2.4792   -0.4430   -0.2055 C   0  0  0  0  0  0  0  0  0  0  0  0
   -3.7258   -0.9771    0.0262 N   0  0  0  0  0  0  0  0  0  0  0  0
   -4.7556   -1.3805    0.1995 N   0  0  0  0  0  0  0  0  0  0  0  0
   -2.4462    0.8099   -0.8663 C   0  0  0  0  0  0  0  0  0  0  0  0
   -1.1327    1.2580   -1.0501 C   0  0  0  0  0  0  0  0  0  0  0  0
    0.0028    0.5446   -0.6290 C   0  0  0  0  0  0  0  0  0  0  0  0
    1.1964    1.1217   -0.8872 O   0  0  0  0  0  0  0  0  0  0  0  0
    2.3994    0.4625   -0.5023 C   0  0  0  0  0  0  0  0  0  0  0  0
   -0.1221   -0.7097    0.0270 C   0  0  0  0  0  0  0  0  0  0  0  0
   -1.3816   -1.2192    0.2459 C   0  0  0  0  0  0  0  0  0  0  0  0
   -3.9737    1.8206   -1.4944 H   0  0  0  0  0  0  0  0  0  0  0  0
   -0.9413    2.2081   -1.5452 H   0  0  0  0  0  0  0  0  0  0  0  0
    3.2106    1.1194   -0.8174 H   0  0  0  0  0  0  0  0  0  0  0  0
    2.5038   -0.5064   -1.0040 H   0  0  0  0  0  0  0  0  0  0  0  0
    2.4496    0.3206    0.5838 H   0  0  0  0  0  0  0  0  0  0  0  0
    0.7476   -1.2651    0.3525 H   0  0  0  0  0  0  0  0  0  0  0  0
   -1.5235   -2.1753    0.7416 H   0  0  0  0  0  0  0  0  0  0  0  0
   -7.8392    3.3395   -0.9074 C   0  0  0  0  0  0  0  0  0  0  0  0
   -8.8007    4.3370   -1.0435 C   0  0  0  0  0  0  0  0  0  0  0  0
   -9.2515    4.7424   -2.3092 C   0  0  0  0  0  0  0  0  0  0  0  0
   -8.7114    4.1197   -3.4422 C   0  0  0  0  0  0  0  0  0  0  0  0
   -7.7479    3.1187   -3.3248 C   0  0  0  0  0  0  0  0  0  0  0  0
   -7.3164    2.7405   -2.0546 C   0  0  0  0  0  0  0  0  0  0  0  0
   -7.5001    3.0170    0.0708 H   0  0  0  0  0  0  0  0  0  0  0  0
   -9.2112    4.8076   -0.1539 H   0  0  0  0  0  0  0  0  0  0  0  0
   -9.0509    4.4202   -4.4297 H   0  0  0  0  0  0  0  0  0  0  0  0
   -7.3377    2.6274   -4.2001 H   0  0  0  0  0  0  0  0  0  0  0  0
   -6.0774    1.4653   -1.8953 S   0  0  0  0  0  0  0  0  0  0  0  0
   -6.2523    0.7943   -0.5958 O   0  0  0  0  0  0  0  0  0  0  0  0
   -4.7653    2.3759   -1.8403 O   0  0  0  0  0  0  0  0  0  0  0  0
   -6.0841    0.6470   -3.1107 O   0  0  0  0  0  0  0  0  0  0  0  0
  -10.3164    5.8046   -2.4410 C   0  0  0  0  0  0  0  0  0  0  0  0
  -11.3140    5.3864   -2.2576 H   0  0  0  0  0  0  0  0  0  0  0  0
  -10.1676    6.6124   -1.7174 H   0  0  0  0  0  0  0  0  0  0  0  0
  -10.3239    6.2423   -3.4429 H   0  0  0  0  0  0  0  0  0  0  0  0
  1  2  1  0  0  0  0
  1 10  2  0  0  0  0
  2  3  1  0  0  0  0
  4  1  1  0  0  0  0
  5  4  2  0  0  0  0
  5  6  1  0  0  0  0
  6  9  2  0  0  0  0
  7  6  1  0  0  0  0
  7  8  1  0  0  0  0
  8 15  1  0  0  0  0
  9 10  1  0  0  0  0
  9 16  1  0  0  0  0
 10 17  1  0  0  0  0
 12  5  1  0  0  0  0
 13  8  1  0  0  0  0
 14  8  1  0  0  0  0
 18 24  1  0  0  0  0
 19 18  1  0  0  0  0
 19 25  1  0  0  0  0
 20 19  2  0  0  0  0
 21 22  2  0  0  0  0
 21 20  1  0  0  0  0
 22 23  1  0  0  0  0
 23 28  1  0  0  0  0
 23 18  2  0  0  0  0
 26 21  1  0  0  0  0
 27 22  1  0  0  0  0
 28 30  1  0  0  0  0
 28 29  2  0  0  0  0
 30 11  1  0  0  0  0
 31 28  2  0  0  0  0
 32 20  1  0  0  0  0
 32 33  1  0  0  0  0
 32 34  1  0  0  0  0
 35 32  1  0  0  0  0
M  RAD  3   2   2   3   3   4   2
M  END
