Coordinates from ORCA-job 4-MeOPhN2+~TsO-_B3LYPG-6-31G_dp-CH-Scan-d09-49-n800
 OpenBabel11261919313D

 35 35  0  0  0  0  0  0  0  0999 V2000
   -1.7601   -0.2361   -0.2308 C   0  0  0  0  0  0  0  0  0  0  0  0
   -3.1335   -0.3749   -0.2016 N   0  0  0  0  0  0  0  0  0  0  0  0
   -4.2529   -0.4432   -0.1880 N   0  0  0  0  0  0  0  0  0  0  0  0
   -1.3170    1.0528   -0.6103 C   0  0  0  0  0  0  0  0  0  0  0  0
    0.0915    1.0902   -0.6094 C   0  0  0  0  0  0  0  0  0  0  0  0
    0.9125    0.0007   -0.2822 C   0  0  0  0  0  0  0  0  0  0  0  0
    2.2510    0.2164   -0.3405 O   0  0  0  0  0  0  0  0  0  0  0  0
    3.1492   -0.8422   -0.0343 C   0  0  0  0  0  0  0  0  0  0  0  0
    0.3576   -1.2580    0.0890 C   0  0  0  0  0  0  0  0  0  0  0  0
   -1.0107   -1.3912    0.1190 C   0  0  0  0  0  0  0  0  0  0  0  0
   -4.2689    3.7668   -2.0310 H   0  0  0  0  0  0  0  0  0  0  0  0
    0.6178    2.0073   -0.8785 H   0  0  0  0  0  0  0  0  0  0  0  0
    4.1511   -0.4290   -0.1602 H   0  0  0  0  0  0  0  0  0  0  0  0
    3.0223   -1.6914   -0.7168 H   0  0  0  0  0  0  0  0  0  0  0  0
    3.0312   -1.1875    1.0003 H   0  0  0  0  0  0  0  0  0  0  0  0
    0.9886   -2.0995    0.3449 H   0  0  0  0  0  0  0  0  0  0  0  0
   -1.4820   -2.3311    0.3973 H   0  0  0  0  0  0  0  0  0  0  0  0
   -8.2244    3.8493   -1.1004 C   0  0  0  0  0  0  0  0  0  0  0  0
   -9.4780    4.4519   -1.1275 C   0  0  0  0  0  0  0  0  0  0  0  0
  -10.1873    4.5999   -2.3308 C   0  0  0  0  0  0  0  0  0  0  0  0
   -9.6065    4.1240   -3.5135 C   0  0  0  0  0  0  0  0  0  0  0  0
   -8.3512    3.5168   -3.5080 C   0  0  0  0  0  0  0  0  0  0  0  0
   -7.6710    3.3903   -2.2979 C   0  0  0  0  0  0  0  0  0  0  0  0
   -7.6824    3.7246   -0.1694 H   0  0  0  0  0  0  0  0  0  0  0  0
   -9.9160    4.8124   -0.2008 H   0  0  0  0  0  0  0  0  0  0  0  0
  -10.1438    4.2270   -4.4521 H   0  0  0  0  0  0  0  0  0  0  0  0
   -7.9051    3.1387   -4.4207 H   0  0  0  0  0  0  0  0  0  0  0  0
   -6.0667    2.6200   -2.2776 S   0  0  0  0  0  0  0  0  0  0  0  0
   -5.8086    2.0301   -0.9624 O   0  0  0  0  0  0  0  0  0  0  0  0
   -5.1465    3.9777   -2.3959 O   0  0  0  0  0  0  0  0  0  0  0  0
   -5.8979    1.8235   -3.4889 O   0  0  0  0  0  0  0  0  0  0  0  0
  -11.5548    5.2395   -2.3383 C   0  0  0  0  0  0  0  0  0  0  0  0
  -12.2996    4.5770   -1.8815 H   0  0  0  0  0  0  0  0  0  0  0  0
  -11.5602    6.1729   -1.7665 H   0  0  0  0  0  0  0  0  0  0  0  0
  -11.8876    5.4616   -3.3551 H   0  0  0  0  0  0  0  0  0  0  0  0
  1  2  1  0  0  0  0
  1 10  2  0  0  0  0
  2  3  1  0  0  0  0
  4  5  2  0  0  0  0
  4  1  1  0  0  0  0
  5  6  1  0  0  0  0
  6  9  2  0  0  0  0
  7  6  1  0  0  0  0
  7  8  1  0  0  0  0
  8 15  1  0  0  0  0
  9 10  1  0  0  0  0
  9 16  1  0  0  0  0
 10 17  1  0  0  0  0
 12  5  1  0  0  0  0
 13  8  1  0  0  0  0
 14  8  1  0  0  0  0
 18 24  1  0  0  0  0
 19 18  1  0  0  0  0
 19 25  1  0  0  0  0
 20 19  2  0  0  0  0
 21 22  2  0  0  0  0
 21 20  1  0  0  0  0
 22 23  1  0  0  0  0
 23 28  1  0  0  0  0
 23 18  2  0  0  0  0
 26 21  1  0  0  0  0
 27 22  1  0  0  0  0
 28 29  2  0  0  0  0
 30 28  1  0  0  0  0
 30 11  1  0  0  0  0
 31 28  2  0  0  0  0
 32 20  1  0  0  0  0
 32 33  1  0  0  0  0
 32 34  1  0  0  0  0
 35 32  1  0  0  0  0
M  RAD  3   2   2   3   3   4   2
M  END
