Coordinates from ORCA-job 4-MeOPhN2+~TsO-_B3LYPG-6-31G_dp-CH-Scan-d09-49-n800
 OpenBabel11261919313D

 35 35  0  0  0  0  0  0  0  0999 V2000
   -2.2119   -0.3511   -0.1361 C   0  0  0  0  0  0  0  0  0  0  0  0
   -3.5179   -0.7288    0.0866 N   0  0  0  0  0  0  0  0  0  0  0  0
   -4.5892   -1.0081    0.2586 N   0  0  0  0  0  0  0  0  0  0  0  0
   -2.0387    0.9326   -0.7077 C   0  0  0  0  0  0  0  0  0  0  0  0
   -0.6745    1.2129   -0.8892 C   0  0  0  0  0  0  0  0  0  0  0  0
    0.3626    0.3302   -0.5466 C   0  0  0  0  0  0  0  0  0  0  0  0
    1.6220    0.7630   -0.7913 O   0  0  0  0  0  0  0  0  0  0  0  0
    2.7300   -0.0730   -0.4759 C   0  0  0  0  0  0  0  0  0  0  0  0
    0.0866   -0.9434    0.0246 C   0  0  0  0  0  0  0  0  0  0  0  0
   -1.2243   -1.3004    0.2382 C   0  0  0  0  0  0  0  0  0  0  0  0
   -4.0587    2.5984   -1.4886 H   0  0  0  0  0  0  0  0  0  0  0  0
   -0.3597    2.1627   -1.3204 H   0  0  0  0  0  0  0  0  0  0  0  0
    3.6185    0.4919   -0.7603 H   0  0  0  0  0  0  0  0  0  0  0  0
    2.7024   -1.0104   -1.0435 H   0  0  0  0  0  0  0  0  0  0  0  0
    2.7734   -0.2973    0.5968 H   0  0  0  0  0  0  0  0  0  0  0  0
    0.8826   -1.6267    0.2909 H   0  0  0  0  0  0  0  0  0  0  0  0
   -1.4836   -2.2629    0.6718 H   0  0  0  0  0  0  0  0  0  0  0  0
   -8.0750    3.5235   -0.9418 C   0  0  0  0  0  0  0  0  0  0  0  0
   -9.1660    4.3707   -1.1098 C   0  0  0  0  0  0  0  0  0  0  0  0
   -9.6437    4.6944   -2.3899 C   0  0  0  0  0  0  0  0  0  0  0  0
   -8.9975    4.1441   -3.5045 C   0  0  0  0  0  0  0  0  0  0  0  0
   -7.9022    3.2937   -3.3568 C   0  0  0  0  0  0  0  0  0  0  0  0
   -7.4492    2.9956   -2.0730 C   0  0  0  0  0  0  0  0  0  0  0  0
   -7.7138    3.2634    0.0470 H   0  0  0  0  0  0  0  0  0  0  0  0
   -9.6582    4.7864   -0.2347 H   0  0  0  0  0  0  0  0  0  0  0  0
   -9.3566    4.3821   -4.5018 H   0  0  0  0  0  0  0  0  0  0  0  0
   -7.4072    2.8589   -4.2177 H   0  0  0  0  0  0  0  0  0  0  0  0
   -6.0522    1.9077   -1.8734 S   0  0  0  0  0  0  0  0  0  0  0  0
   -6.1504    1.2200   -0.5812 O   0  0  0  0  0  0  0  0  0  0  0  0
   -4.8889    3.0409   -1.7711 O   0  0  0  0  0  0  0  0  0  0  0  0
   -5.8720    1.1234   -3.0940 O   0  0  0  0  0  0  0  0  0  0  0  0
  -10.8423    5.5978   -2.5531 C   0  0  0  0  0  0  0  0  0  0  0  0
  -11.7666    5.0779   -2.2733 H   0  0  0  0  0  0  0  0  0  0  0  0
  -10.7650    6.4823   -1.9129 H   0  0  0  0  0  0  0  0  0  0  0  0
  -10.9523    5.9352   -3.5866 H   0  0  0  0  0  0  0  0  0  0  0  0
  1  2  1  0  0  0  0
  1 10  2  0  0  0  0
  2  3  1  0  0  0  0
  4  1  1  0  0  0  0
  5  4  2  0  0  0  0
  5  6  1  0  0  0  0
  6  9  2  0  0  0  0
  7  6  1  0  0  0  0
  7  8  1  0  0  0  0
  8 15  1  0  0  0  0
  9 10  1  0  0  0  0
  9 16  1  0  0  0  0
 10 17  1  0  0  0  0
 12  5  1  0  0  0  0
 13  8  1  0  0  0  0
 14  8  1  0  0  0  0
 18 24  1  0  0  0  0
 19 18  1  0  0  0  0
 19 25  1  0  0  0  0
 20 19  2  0  0  0  0
 21 22  2  0  0  0  0
 21 20  1  0  0  0  0
 22 23  1  0  0  0  0
 23 28  1  0  0  0  0
 23 18  2  0  0  0  0
 26 21  1  0  0  0  0
 27 22  1  0  0  0  0
 28 30  1  0  0  0  0
 28 29  2  0  0  0  0
 30 11  1  0  0  0  0
 31 28  2  0  0  0  0
 32 20  1  0  0  0  0
 32 33  1  0  0  0  0
 32 34  1  0  0  0  0
 35 32  1  0  0  0  0
M  RAD  3   2   2   3   3   4   2
M  END
