Coordinates from ORCA-job 4-MeOPhN2+~TsO-_B3LYPG-6-31G_dp-CH-Scan-d09-49-n800
 OpenBabel11261919313D

 35 35  0  0  0  0  0  0  0  0999 V2000
   -1.7382   -0.2374   -0.2513 C   0  0  0  0  0  0  0  0  0  0  0  0
   -3.1122   -0.3729   -0.2418 N   0  0  0  0  0  0  0  0  0  0  0  0
   -4.2319   -0.4383   -0.2437 N   0  0  0  0  0  0  0  0  0  0  0  0
   -1.2869    1.0506   -0.6238 C   0  0  0  0  0  0  0  0  0  0  0  0
    0.1216    1.0849   -0.6024 C   0  0  0  0  0  0  0  0  0  0  0  0
    0.9353   -0.0065   -0.2636 C   0  0  0  0  0  0  0  0  0  0  0  0
    2.2750    0.2063   -0.3017 O   0  0  0  0  0  0  0  0  0  0  0  0
    3.1661   -0.8543    0.0181 C   0  0  0  0  0  0  0  0  0  0  0  0
    0.3723   -1.2643    0.0985 C   0  0  0  0  0  0  0  0  0  0  0  0
   -0.9966   -1.3946    0.1085 C   0  0  0  0  0  0  0  0  0  0  0  0
   -4.2867    3.7696   -2.0996 H   0  0  0  0  0  0  0  0  0  0  0  0
    0.6537    2.0009   -0.8633 H   0  0  0  0  0  0  0  0  0  0  0  0
    4.1707   -0.4430   -0.0915 H   0  0  0  0  0  0  0  0  0  0  0  0
    3.0485   -1.7029   -0.6668 H   0  0  0  0  0  0  0  0  0  0  0  0
    3.0309   -1.1999    1.0504 H   0  0  0  0  0  0  0  0  0  0  0  0
    0.9976   -2.1073    0.3631 H   0  0  0  0  0  0  0  0  0  0  0  0
   -1.4740   -2.3337    0.3792 H   0  0  0  0  0  0  0  0  0  0  0  0
   -8.2210    3.8539   -1.1167 C   0  0  0  0  0  0  0  0  0  0  0  0
   -9.4740    4.4583   -1.1229 C   0  0  0  0  0  0  0  0  0  0  0  0
  -10.2031    4.6071   -2.3141 C   0  0  0  0  0  0  0  0  0  0  0  0
   -9.6430    4.1299   -3.5063 C   0  0  0  0  0  0  0  0  0  0  0  0
   -8.3888    3.5207   -3.5217 C   0  0  0  0  0  0  0  0  0  0  0  0
   -7.6886    3.3936   -2.3232 C   0  0  0  0  0  0  0  0  0  0  0  0
   -7.6637    3.7285   -0.1949 H   0  0  0  0  0  0  0  0  0  0  0  0
   -9.8958    4.8197   -0.1891 H   0  0  0  0  0  0  0  0  0  0  0  0
  -10.1958    4.2335   -4.4358 H   0  0  0  0  0  0  0  0  0  0  0  0
   -7.9589    3.1415   -4.4417 H   0  0  0  0  0  0  0  0  0  0  0  0
   -6.0851    2.6212   -2.3295 S   0  0  0  0  0  0  0  0  0  0  0  0
   -5.8034    2.0356   -1.0173 O   0  0  0  0  0  0  0  0  0  0  0  0
   -5.1635    3.9761   -2.4688 O   0  0  0  0  0  0  0  0  0  0  0  0
   -5.9399    1.8210   -3.5414 O   0  0  0  0  0  0  0  0  0  0  0  0
  -11.5696    5.2488   -2.2989 C   0  0  0  0  0  0  0  0  0  0  0  0
  -12.3072    4.5885   -1.8271 H   0  0  0  0  0  0  0  0  0  0  0  0
  -11.5636    6.1836   -1.7293 H   0  0  0  0  0  0  0  0  0  0  0  0
  -11.9202    5.4690   -3.3101 H   0  0  0  0  0  0  0  0  0  0  0  0
  1  2  1  0  0  0  0
  1 10  2  0  0  0  0
  3  2  1  0  0  0  0
  4  5  2  0  0  0  0
  4  1  1  0  0  0  0
  5  6  1  0  0  0  0
  6  9  2  0  0  0  0
  7  6  1  0  0  0  0
  7  8  1  0  0  0  0
  8 15  1  0  0  0  0
  9 10  1  0  0  0  0
  9 16  1  0  0  0  0
 10 17  1  0  0  0  0
 12  5  1  0  0  0  0
 13  8  1  0  0  0  0
 14  8  1  0  0  0  0
 18 24  1  0  0  0  0
 19 18  1  0  0  0  0
 19 25  1  0  0  0  0
 20 32  1  0  0  0  0
 20 19  2  0  0  0  0
 21 20  1  0  0  0  0
 22 21  2  0  0  0  0
 22 23  1  0  0  0  0
 23 18  2  0  0  0  0
 26 21  1  0  0  0  0
 27 22  1  0  0  0  0
 28 23  1  0  0  0  0
 28 29  2  0  0  0  0
 30 28  1  0  0  0  0
 30 11  1  0  0  0  0
 31 28  2  0  0  0  0
 32 33  1  0  0  0  0
 32 34  1  0  0  0  0
 35 32  1  0  0  0  0
M  RAD  3   2   2   3   3   4   2
M  END
