Coordinates from ORCA-job 4-MeOPhN2+~TsO-_B3LYPG-6-31G_dp-CH-Scan-d09-49-n800
 OpenBabel11261919313D

 35 35  0  0  0  0  0  0  0  0999 V2000
   -1.6333   -0.3160   -0.5799 C   0  0  0  0  0  0  0  0  0  0  0  0
   -2.9848   -0.4960   -0.7991 N   0  0  0  0  0  0  0  0  0  0  0  0
   -4.0843   -0.5976   -0.9966 N   0  0  0  0  0  0  0  0  0  0  0  0
   -1.1480    0.9482   -0.9886 C   0  0  0  0  0  0  0  0  0  0  0  0
    0.2341    1.0324   -0.7269 C   0  0  0  0  0  0  0  0  0  0  0  0
    0.9945    0.0055   -0.1479 C   0  0  0  0  0  0  0  0  0  0  0  0
    2.3154    0.2612    0.0300 O   0  0  0  0  0  0  0  0  0  0  0  0
    3.1539   -0.7306    0.6090 C   0  0  0  0  0  0  0  0  0  0  0  0
    0.3999   -1.2338    0.2273 C   0  0  0  0  0  0  0  0  0  0  0  0
   -0.9464   -1.4106    0.0103 C   0  0  0  0  0  0  0  0  0  0  0  0
   -4.4172    3.5873   -2.8359 H   0  0  0  0  0  0  0  0  0  0  0  0
    0.7871    1.9392   -0.9769 H   0  0  0  0  0  0  0  0  0  0  0  0
    4.1524   -0.2924    0.6454 H   0  0  0  0  0  0  0  0  0  0  0  0
    3.1834   -1.6424    0.0001 H   0  0  0  0  0  0  0  0  0  0  0  0
    2.8366   -0.9854    1.6275 H   0  0  0  0  0  0  0  0  0  0  0  0
    0.9851   -2.0277    0.6735 H   0  0  0  0  0  0  0  0  0  0  0  0
   -1.4463   -2.3384    0.2790 H   0  0  0  0  0  0  0  0  0  0  0  0
   -8.0571    3.8302   -1.2709 C   0  0  0  0  0  0  0  0  0  0  0  0
   -9.2566    4.5016   -1.0528 C   0  0  0  0  0  0  0  0  0  0  0  0
  -10.1864    4.6828   -2.0887 C   0  0  0  0  0  0  0  0  0  0  0  0
   -9.8839    4.1702   -3.3578 C   0  0  0  0  0  0  0  0  0  0  0  0
   -8.6892    3.4934   -3.5967 C   0  0  0  0  0  0  0  0  0  0  0  0
   -7.7844    3.3347   -2.5475 C   0  0  0  0  0  0  0  0  0  0  0  0
   -7.3444    3.6801   -0.4671 H   0  0  0  0  0  0  0  0  0  0  0  0
   -9.4761    4.8911   -0.0624 H   0  0  0  0  0  0  0  0  0  0  0  0
  -10.5937    4.3005   -4.1704 H   0  0  0  0  0  0  0  0  0  0  0  0
   -8.4598    3.0868   -4.5753 H   0  0  0  0  0  0  0  0  0  0  0  0
   -6.2502    2.4807   -2.8421 S   0  0  0  0  0  0  0  0  0  0  0  0
   -5.7367    1.9253   -1.5879 O   0  0  0  0  0  0  0  0  0  0  0  0
   -5.2933    3.7646   -3.2207 O   0  0  0  0  0  0  0  0  0  0  0  0
   -6.3922    1.6432   -4.0272 O   0  0  0  0  0  0  0  0  0  0  0  0
  -11.4946    5.3899   -1.8301 C   0  0  0  0  0  0  0  0  0  0  0  0
  -12.2255    4.7069   -1.3791 H   0  0  0  0  0  0  0  0  0  0  0  0
  -11.3651    6.2283   -1.1390 H   0  0  0  0  0  0  0  0  0  0  0  0
  -11.9323    5.7740   -2.7551 H   0  0  0  0  0  0  0  0  0  0  0  0
  1 10  2  0  0  0  0
  2  1  1  0  0  0  0
  3  2  1  0  0  0  0
  4  5  2  0  0  0  0
  4  1  1  0  0  0  0
  5  6  1  0  0  0  0
  6  7  1  0  0  0  0
  6  9  2  0  0  0  0
  7  8  1  0  0  0  0
  8 13  1  0  0  0  0
  8 15  1  0  0  0  0
  9 16  1  0  0  0  0
 10  9  1  0  0  0  0
 10 17  1  0  0  0  0
 12  5  1  0  0  0  0
 14  8  1  0  0  0  0
 18 19  1  0  0  0  0
 18 24  1  0  0  0  0
 19 25  1  0  0  0  0
 20 32  1  0  0  0  0
 20 19  2  0  0  0  0
 21 20  1  0  0  0  0
 22 21  2  0  0  0  0
 22 23  1  0  0  0  0
 23 18  2  0  0  0  0
 26 21  1  0  0  0  0
 27 22  1  0  0  0  0
 28 23  1  0  0  0  0
 28 29  2  0  0  0  0
 30 28  1  0  0  0  0
 30 11  1  0  0  0  0
 31 28  2  0  0  0  0
 32 33  1  0  0  0  0
 32 34  1  0  0  0  0
 35 32  1  0  0  0  0
M  RAD  3   2   2   3   3   4   2
M  END
