Coordinates from ORCA-job 4-MeOPhN2+~TsO-_B3LYPG-6-31G_dp-CH-Scan-d09-49-n800
 OpenBabel11261919313D

 35 35  0  0  0  0  0  0  0  0999 V2000
   -2.5930   -0.4832   -0.2750 C   0  0  0  0  0  0  0  0  0  0  0  0
   -3.8133   -1.0826   -0.0687 N   0  0  0  0  0  0  0  0  0  0  0  0
   -4.8264   -1.5333    0.0795 N   0  0  0  0  0  0  0  0  0  0  0  0
   -2.5912    0.7323   -1.0023 C   0  0  0  0  0  0  0  0  0  0  0  0
   -1.3059    1.2547   -1.1575 C   0  0  0  0  0  0  0  0  0  0  0  0
   -0.1502    0.6364   -0.6472 C   0  0  0  0  0  0  0  0  0  0  0  0
    1.0150    1.2713   -0.8866 O   0  0  0  0  0  0  0  0  0  0  0  0
    2.2376    0.7117   -0.4121 C   0  0  0  0  0  0  0  0  0  0  0  0
   -0.2339   -0.5852    0.0715 C   0  0  0  0  0  0  0  0  0  0  0  0
   -1.4706   -1.1593    0.2632 C   0  0  0  0  0  0  0  0  0  0  0  0
   -3.9007    1.4781   -1.6387 H   0  0  0  0  0  0  0  0  0  0  0  0
   -1.1563    2.1867   -1.6981 H   0  0  0  0  0  0  0  0  0  0  0  0
    3.0208    1.3983   -0.7337 H   0  0  0  0  0  0  0  0  0  0  0  0
    2.4214   -0.2766   -0.8489 H   0  0  0  0  0  0  0  0  0  0  0  0
    2.2455    0.6381    0.6817 H   0  0  0  0  0  0  0  0  0  0  0  0
    0.6502   -1.0689    0.4656 H   0  0  0  0  0  0  0  0  0  0  0  0
   -1.5780   -2.0945    0.8045 H   0  0  0  0  0  0  0  0  0  0  0  0
   -7.6430    3.2843   -0.9259 C   0  0  0  0  0  0  0  0  0  0  0  0
   -8.5427    4.3441   -1.0065 C   0  0  0  0  0  0  0  0  0  0  0  0
   -9.0706    4.7552   -2.2399 C   0  0  0  0  0  0  0  0  0  0  0  0
   -8.6717    4.0733   -3.3970 C   0  0  0  0  0  0  0  0  0  0  0  0
   -7.7728    3.0093   -3.3336 C   0  0  0  0  0  0  0  0  0  0  0  0
   -7.2608    2.6252   -2.0952 C   0  0  0  0  0  0  0  0  0  0  0  0
   -7.2455    2.9579    0.0287 H   0  0  0  0  0  0  0  0  0  0  0  0
   -8.8437    4.8596   -0.0979 H   0  0  0  0  0  0  0  0  0  0  0  0
   -9.0728    4.3767   -4.3605 H   0  0  0  0  0  0  0  0  0  0  0  0
   -7.4740    2.4718   -4.2268 H   0  0  0  0  0  0  0  0  0  0  0  0
   -6.0937    1.2723   -2.0100 S   0  0  0  0  0  0  0  0  0  0  0  0
   -6.2128    0.6460   -0.6761 O   0  0  0  0  0  0  0  0  0  0  0  0
   -4.7250    2.0449   -2.0996 O   0  0  0  0  0  0  0  0  0  0  0  0
   -6.2970    0.4196   -3.1868 O   0  0  0  0  0  0  0  0  0  0  0  0
  -10.0698    5.8852   -2.3110 C   0  0  0  0  0  0  0  0  0  0  0  0
  -11.0775    5.5375   -2.0507 H   0  0  0  0  0  0  0  0  0  0  0  0
   -9.8161    6.6887   -1.6123 H   0  0  0  0  0  0  0  0  0  0  0  0
  -10.1210    6.3119   -3.3165 H   0  0  0  0  0  0  0  0  0  0  0  0
  1  2  1  0  0  0  0
  1 10  2  0  0  0  0
  2  3  1  0  0  0  0
  4  1  1  0  0  0  0
  5  4  2  0  0  0  0
  5  6  1  0  0  0  0
  6  9  2  0  0  0  0
  7  6  1  0  0  0  0
  7  8  1  0  0  0  0
  8 15  1  0  0  0  0
  9 10  1  0  0  0  0
  9 16  1  0  0  0  0
 10 17  1  0  0  0  0
 12  5  1  0  0  0  0
 13  8  1  0  0  0  0
 14  8  1  0  0  0  0
 18 24  1  0  0  0  0
 19 18  1  0  0  0  0
 19 25  1  0  0  0  0
 20 19  2  0  0  0  0
 21 22  2  0  0  0  0
 21 20  1  0  0  0  0
 22 23  1  0  0  0  0
 23 28  1  0  0  0  0
 23 18  2  0  0  0  0
 26 21  1  0  0  0  0
 27 22  1  0  0  0  0
 28 29  2  0  0  0  0
 30 28  1  0  0  0  0
 30 11  1  0  0  0  0
 31 28  2  0  0  0  0
 32 20  1  0  0  0  0
 32 33  1  0  0  0  0
 32 34  1  0  0  0  0
 35 32  1  0  0  0  0
M  RAD  3   2   2   3   3   4   2
M  END
