Coordinates from ORCA-job 4-MeOPhN2+~TsO-_B3LYPG-6-31G_dp-CH-Scan-d09-49-n800
 OpenBabel11261919313D

 35 35  0  0  0  0  0  0  0  0999 V2000
   -2.0122   -0.2575   -0.1110 C   0  0  0  0  0  0  0  0  0  0  0  0
   -3.3589   -0.4890    0.0784 N   0  0  0  0  0  0  0  0  0  0  0  0
   -4.4599   -0.6407    0.2250 N   0  0  0  0  0  0  0  0  0  0  0  0
   -1.6967    1.0363   -0.5898 C   0  0  0  0  0  0  0  0  0  0  0  0
   -0.3035    1.1656   -0.7438 C   0  0  0  0  0  0  0  0  0  0  0  0
    0.6210    0.1479   -0.4628 C   0  0  0  0  0  0  0  0  0  0  0  0
    1.9269    0.4475   -0.6726 O   0  0  0  0  0  0  0  0  0  0  0  0
    2.9240   -0.5360   -0.4250 C   0  0  0  0  0  0  0  0  0  0  0  0
    0.1959   -1.1240    0.0162 C   0  0  0  0  0  0  0  0  0  0  0  0
   -1.1494   -1.3420    0.2003 C   0  0  0  0  0  0  0  0  0  0  0  0
   -4.0951    3.3702   -1.5913 H   0  0  0  0  0  0  0  0  0  0  0  0
    0.1262    2.1001   -1.1061 H   0  0  0  0  0  0  0  0  0  0  0  0
    3.8759   -0.0639   -0.6722 H   0  0  0  0  0  0  0  0  0  0  0  0
    2.7861   -1.4200   -1.0588 H   0  0  0  0  0  0  0  0  0  0  0  0
    2.9375   -0.8424    0.6281 H   0  0  0  0  0  0  0  0  0  0  0  0
    0.9060   -1.9110    0.2356 H   0  0  0  0  0  0  0  0  0  0  0  0
   -1.5229   -2.2959    0.5653 H   0  0  0  0  0  0  0  0  0  0  0  0
   -8.2063    3.6941   -0.9645 C   0  0  0  0  0  0  0  0  0  0  0  0
   -9.4090    4.3709   -1.1435 C   0  0  0  0  0  0  0  0  0  0  0  0
   -9.9306    4.5978   -2.4274 C   0  0  0  0  0  0  0  0  0  0  0  0
   -9.2136    4.1259   -3.5349 C   0  0  0  0  0  0  0  0  0  0  0  0
   -8.0072    3.4454   -3.3769 C   0  0  0  0  0  0  0  0  0  0  0  0
   -7.5140    3.2407   -2.0891 C   0  0  0  0  0  0  0  0  0  0  0  0
   -7.8087    3.5085    0.0272 H   0  0  0  0  0  0  0  0  0  0  0  0
   -9.9546    4.7274   -0.2741 H   0  0  0  0  0  0  0  0  0  0  0  0
   -9.6053    4.2908   -4.5348 H   0  0  0  0  0  0  0  0  0  0  0  0
   -7.4567    3.0703   -4.2322 H   0  0  0  0  0  0  0  0  0  0  0  0
   -5.9756    2.3704   -1.8759 S   0  0  0  0  0  0  0  0  0  0  0  0
   -5.9398    1.7480   -0.5506 O   0  0  0  0  0  0  0  0  0  0  0  0
   -4.9811    3.6741   -1.8609 O   0  0  0  0  0  0  0  0  0  0  0  0
   -5.6994    1.5688   -3.0655 O   0  0  0  0  0  0  0  0  0  0  0  0
  -11.2478    5.3143   -2.6023 C   0  0  0  0  0  0  0  0  0  0  0  0
  -12.0861    4.6688   -2.3137 H   0  0  0  0  0  0  0  0  0  0  0  0
  -11.2999    6.2101   -1.9759 H   0  0  0  0  0  0  0  0  0  0  0  0
  -11.4049    5.6159   -3.6409 H   0  0  0  0  0  0  0  0  0  0  0  0
  1  2  1  0  0  0  0
  1 10  2  0  0  0  0
  2  3  1  0  0  0  0
  4  1  1  0  0  0  0
  5  4  2  0  0  0  0
  5  6  1  0  0  0  0
  6  9  2  0  0  0  0
  7  6  1  0  0  0  0
  7  8  1  0  0  0  0
  8 15  1  0  0  0  0
  9 10  1  0  0  0  0
  9 16  1  0  0  0  0
 10 17  1  0  0  0  0
 12  5  1  0  0  0  0
 13  8  1  0  0  0  0
 14  8  1  0  0  0  0
 18 24  1  0  0  0  0
 19 18  1  0  0  0  0
 19 25  1  0  0  0  0
 20 19  2  0  0  0  0
 21 22  2  0  0  0  0
 21 20  1  0  0  0  0
 22 23  1  0  0  0  0
 23 28  1  0  0  0  0
 23 18  2  0  0  0  0
 26 21  1  0  0  0  0
 27 22  1  0  0  0  0
 28 30  1  0  0  0  0
 28 29  2  0  0  0  0
 30 11  1  0  0  0  0
 31 28  2  0  0  0  0
 32 20  1  0  0  0  0
 32 33  1  0  0  0  0
 32 34  1  0  0  0  0
 35 32  1  0  0  0  0
M  RAD  3   2   2   3   3   4   2
M  END
