Coordinates from ORCA-job 4-MeOPhN2+~TsO-_B3LYPG-6-31G_dp-CH-Scan-d09-49-n800
 OpenBabel11261919313D

 35 35  0  0  0  0  0  0  0  0999 V2000
   -2.0860   -0.2876   -0.1050 C   0  0  0  0  0  0  0  0  0  0  0  0
   -3.4182   -0.5718    0.1090 N   0  0  0  0  0  0  0  0  0  0  0  0
   -4.5089   -0.7720    0.2718 N   0  0  0  0  0  0  0  0  0  0  0  0
   -1.8256    1.0051   -0.6194 C   0  0  0  0  0  0  0  0  0  0  0  0
   -0.4420    1.1882   -0.7942 C   0  0  0  0  0  0  0  0  0  0  0  0
    0.5266    0.2162   -0.4988 C   0  0  0  0  0  0  0  0  0  0  0  0
    1.8160    0.5639   -0.7305 O   0  0  0  0  0  0  0  0  0  0  0  0
    2.8563   -0.3704   -0.4675 C   0  0  0  0  0  0  0  0  0  0  0  0
    0.1587   -1.0592    0.0157 C   0  0  0  0  0  0  0  0  0  0  0  0
   -1.1744   -1.3268    0.2212 C   0  0  0  0  0  0  0  0  0  0  0  0
   -4.0768    3.0825   -1.5200 H   0  0  0  0  0  0  0  0  0  0  0  0
   -0.0558    2.1301   -1.1843 H   0  0  0  0  0  0  0  0  0  0  0  0
    3.7850    0.1354   -0.7344 H   0  0  0  0  0  0  0  0  0  0  0  0
    2.7509   -1.2748   -1.0783 H   0  0  0  0  0  0  0  0  0  0  0  0
    2.8903   -0.6493    0.5927 H   0  0  0  0  0  0  0  0  0  0  0  0
    0.9026   -1.8112    0.2459 H   0  0  0  0  0  0  0  0  0  0  0  0
   -1.5045   -2.2858    0.6132 H   0  0  0  0  0  0  0  0  0  0  0  0
   -8.1732    3.6204   -0.9531 C   0  0  0  0  0  0  0  0  0  0  0  0
   -9.3365    4.3616   -1.1362 C   0  0  0  0  0  0  0  0  0  0  0  0
   -9.8283    4.6355   -2.4227 C   0  0  0  0  0  0  0  0  0  0  0  0
   -9.1216    4.1447   -3.5284 C   0  0  0  0  0  0  0  0  0  0  0  0
   -7.9541    3.3999   -3.3661 C   0  0  0  0  0  0  0  0  0  0  0  0
   -7.4898    3.1493   -2.0760 C   0  0  0  0  0  0  0  0  0  0  0  0
   -7.7994    3.3983    0.0403 H   0  0  0  0  0  0  0  0  0  0  0  0
   -9.8749    4.7320   -0.2680 H   0  0  0  0  0  0  0  0  0  0  0  0
   -9.4907    4.3452   -4.5304 H   0  0  0  0  0  0  0  0  0  0  0  0
   -7.4123    3.0100   -4.2203 H   0  0  0  0  0  0  0  0  0  0  0  0
   -6.0020    2.1951   -1.8578 S   0  0  0  0  0  0  0  0  0  0  0  0
   -6.0261    1.5394   -0.5477 O   0  0  0  0  0  0  0  0  0  0  0  0
   -4.9427    3.4403   -1.7946 O   0  0  0  0  0  0  0  0  0  0  0  0
   -5.7500    1.4048   -3.0607 O   0  0  0  0  0  0  0  0  0  0  0  0
  -11.1041    5.4224   -2.6024 C   0  0  0  0  0  0  0  0  0  0  0  0
  -11.9767    4.8262   -2.3098 H   0  0  0  0  0  0  0  0  0  0  0  0
  -11.1073    6.3237   -1.9815 H   0  0  0  0  0  0  0  0  0  0  0  0
  -11.2442    5.7263   -3.6426 H   0  0  0  0  0  0  0  0  0  0  0  0
  1  2  1  0  0  0  0
  1 10  2  0  0  0  0
  2  3  1  0  0  0  0
  4  1  1  0  0  0  0
  5  4  2  0  0  0  0
  5  6  1  0  0  0  0
  6  9  2  0  0  0  0
  7  6  1  0  0  0  0
  7  8  1  0  0  0  0
  8 15  1  0  0  0  0
  9 10  1  0  0  0  0
  9 16  1  0  0  0  0
 10 17  1  0  0  0  0
 12  5  1  0  0  0  0
 13  8  1  0  0  0  0
 14  8  1  0  0  0  0
 18 24  1  0  0  0  0
 19 18  1  0  0  0  0
 19 25  1  0  0  0  0
 20 19  2  0  0  0  0
 21 22  2  0  0  0  0
 21 20  1  0  0  0  0
 22 23  1  0  0  0  0
 23 28  1  0  0  0  0
 23 18  2  0  0  0  0
 26 21  1  0  0  0  0
 27 22  1  0  0  0  0
 28 30  1  0  0  0  0
 28 29  2  0  0  0  0
 30 11  1  0  0  0  0
 31 28  2  0  0  0  0
 32 20  1  0  0  0  0
 32 33  1  0  0  0  0
 32 34  1  0  0  0  0
 35 32  1  0  0  0  0
M  RAD  3   2   2   3   3   4   2
M  END
