Coordinates from ORCA-job 4-MeOPhN2+~TsO-_B3LYPG-6-31G_dp-CH-Scan-d09-49-n800
 OpenBabel11261919313D

 35 35  0  0  0  0  0  0  0  0999 V2000
   -2.2508   -0.3746   -0.1630 C   0  0  0  0  0  0  0  0  0  0  0  0
   -3.5482   -0.7834    0.0525 N   0  0  0  0  0  0  0  0  0  0  0  0
   -4.6135   -1.0884    0.2182 N   0  0  0  0  0  0  0  0  0  0  0  0
   -2.1029    0.9006   -0.7606 C   0  0  0  0  0  0  0  0  0  0  0  0
   -0.7454    1.2149   -0.9314 C   0  0  0  0  0  0  0  0  0  0  0  0
    0.3107    0.3684   -0.5567 C   0  0  0  0  0  0  0  0  0  0  0  0
    1.5605    0.8303   -0.7949 O   0  0  0  0  0  0  0  0  0  0  0  0
    2.6870    0.0318   -0.4486 C   0  0  0  0  0  0  0  0  0  0  0  0
    0.0615   -0.8997    0.0382 C   0  0  0  0  0  0  0  0  0  0  0  0
   -1.2421   -1.2875    0.2433 C   0  0  0  0  0  0  0  0  0  0  0  0
   -4.0555    2.4308   -1.5461 H   0  0  0  0  0  0  0  0  0  0  0  0
   -0.4517    2.1636   -1.3791 H   0  0  0  0  0  0  0  0  0  0  0  0
    3.5632    0.6154   -0.7335 H   0  0  0  0  0  0  0  0  0  0  0  0
    2.6921   -0.9170   -0.9974 H   0  0  0  0  0  0  0  0  0  0  0  0
    2.7224   -0.1694    0.6290 H   0  0  0  0  0  0  0  0  0  0  0  0
    0.8718   -1.5556    0.3287 H   0  0  0  0  0  0  0  0  0  0  0  0
   -1.4806   -2.2474    0.6940 H   0  0  0  0  0  0  0  0  0  0  0  0
   -8.0304    3.4921   -0.9410 C   0  0  0  0  0  0  0  0  0  0  0  0
   -9.0937    4.3768   -1.0938 C   0  0  0  0  0  0  0  0  0  0  0  0
   -9.5792    4.7155   -2.3668 C   0  0  0  0  0  0  0  0  0  0  0  0
   -8.9696    4.1417   -3.4902 C   0  0  0  0  0  0  0  0  0  0  0  0
   -7.9030    3.2534   -3.3576 C   0  0  0  0  0  0  0  0  0  0  0  0
   -7.4407    2.9413   -2.0804 C   0  0  0  0  0  0  0  0  0  0  0  0
   -7.6631    3.2208    0.0425 H   0  0  0  0  0  0  0  0  0  0  0  0
   -9.5575    4.8106   -0.2120 H   0  0  0  0  0  0  0  0  0  0  0  0
   -9.3350    4.3913   -4.4825 H   0  0  0  0  0  0  0  0  0  0  0  0
   -7.4369    2.8004   -4.2253 H   0  0  0  0  0  0  0  0  0  0  0  0
   -6.0776    1.8073   -1.8997 S   0  0  0  0  0  0  0  0  0  0  0  0
   -6.1710    1.1380   -0.5969 O   0  0  0  0  0  0  0  0  0  0  0  0
   -4.8732    2.8949   -1.8398 O   0  0  0  0  0  0  0  0  0  0  0  0
   -5.9578    1.0007   -3.1135 O   0  0  0  0  0  0  0  0  0  0  0  0
  -10.7486    5.6592   -2.5136 C   0  0  0  0  0  0  0  0  0  0  0  0
  -11.6902    5.1610   -2.2521 H   0  0  0  0  0  0  0  0  0  0  0  0
  -10.6481    6.5248   -1.8512 H   0  0  0  0  0  0  0  0  0  0  0  0
  -10.8425    6.0249   -3.5391 H   0  0  0  0  0  0  0  0  0  0  0  0
  1  2  1  0  0  0  0
  1 10  2  0  0  0  0
  2  3  1  0  0  0  0
  4  1  1  0  0  0  0
  5  4  2  0  0  0  0
  5  6  1  0  0  0  0
  6  9  2  0  0  0  0
  7  6  1  0  0  0  0
  7  8  1  0  0  0  0
  8 15  1  0  0  0  0
  9 10  1  0  0  0  0
  9 16  1  0  0  0  0
 10 17  1  0  0  0  0
 12  5  1  0  0  0  0
 13  8  1  0  0  0  0
 14  8  1  0  0  0  0
 18 24  1  0  0  0  0
 19 18  1  0  0  0  0
 19 25  1  0  0  0  0
 20 19  2  0  0  0  0
 21 22  2  0  0  0  0
 21 20  1  0  0  0  0
 22 23  1  0  0  0  0
 23 28  1  0  0  0  0
 23 18  2  0  0  0  0
 26 21  1  0  0  0  0
 27 22  1  0  0  0  0
 28 30  1  0  0  0  0
 28 29  2  0  0  0  0
 30 11  1  0  0  0  0
 31 28  2  0  0  0  0
 32 20  1  0  0  0  0
 32 33  1  0  0  0  0
 32 34  1  0  0  0  0
 35 32  1  0  0  0  0
M  RAD  3   2   2   3   3   4   2
M  END
