Coordinates from ORCA-job 4-MeOPhN2+~TsO-_B3LYPG-6-31G_dp-CH-Scan-d09-49-n800
 OpenBabel11261919313D

 35 35  0  0  0  0  0  0  0  0999 V2000
   -2.2165   -0.3535   -0.1386 C   0  0  0  0  0  0  0  0  0  0  0  0
   -3.5215   -0.7345    0.0836 N   0  0  0  0  0  0  0  0  0  0  0  0
   -4.5922   -1.0166    0.2552 N   0  0  0  0  0  0  0  0  0  0  0  0
   -2.0461    0.9297   -0.7123 C   0  0  0  0  0  0  0  0  0  0  0  0
   -0.6826    1.2135   -0.8931 C   0  0  0  0  0  0  0  0  0  0  0  0
    0.3566    0.3344   -0.5480 C   0  0  0  0  0  0  0  0  0  0  0  0
    1.6150    0.7703   -0.7922 O   0  0  0  0  0  0  0  0  0  0  0  0
    2.7251   -0.0620   -0.4742 C   0  0  0  0  0  0  0  0  0  0  0  0
    0.0836   -0.9390    0.0253 C   0  0  0  0  0  0  0  0  0  0  0  0
   -1.2265   -1.2991    0.2384 C   0  0  0  0  0  0  0  0  0  0  0  0
   -4.0579    2.5813   -1.4921 H   0  0  0  0  0  0  0  0  0  0  0  0
   -0.3701    2.1634   -1.3258 H   0  0  0  0  0  0  0  0  0  0  0  0
    3.6122    0.5049   -0.7588 H   0  0  0  0  0  0  0  0  0  0  0  0
    2.7007   -1.0005   -1.0402 H   0  0  0  0  0  0  0  0  0  0  0  0
    2.7681   -0.2843    0.5989 H   0  0  0  0  0  0  0  0  0  0  0  0
    0.8812   -1.6196    0.2937 H   0  0  0  0  0  0  0  0  0  0  0  0
   -1.4835   -2.2616    0.6735 H   0  0  0  0  0  0  0  0  0  0  0  0
   -8.0705    3.5202   -0.9414 C   0  0  0  0  0  0  0  0  0  0  0  0
   -9.1587    4.3713   -1.1083 C   0  0  0  0  0  0  0  0  0  0  0  0
   -9.6367    4.6963   -2.3879 C   0  0  0  0  0  0  0  0  0  0  0  0
   -8.9938    4.1435   -3.5031 C   0  0  0  0  0  0  0  0  0  0  0  0
   -7.9013    3.2894   -3.3565 C   0  0  0  0  0  0  0  0  0  0  0  0
   -7.4478    2.9900   -2.0731 C   0  0  0  0  0  0  0  0  0  0  0  0
   -7.7090    3.2591    0.0471 H   0  0  0  0  0  0  0  0  0  0  0  0
   -9.6484    4.7889   -0.2327 H   0  0  0  0  0  0  0  0  0  0  0  0
   -9.3532    4.3826   -4.5001 H   0  0  0  0  0  0  0  0  0  0  0  0
   -7.4088    2.8526   -4.2179 H   0  0  0  0  0  0  0  0  0  0  0  0
   -6.0542    1.8974   -1.8749 S   0  0  0  0  0  0  0  0  0  0  0  0
   -6.1529    1.2110   -0.5820 O   0  0  0  0  0  0  0  0  0  0  0  0
   -4.8868    3.0263   -1.7753 O   0  0  0  0  0  0  0  0  0  0  0  0
   -5.8789    1.1113   -3.0951 O   0  0  0  0  0  0  0  0  0  0  0  0
  -10.8324    5.6038   -2.5499 C   0  0  0  0  0  0  0  0  0  0  0  0
  -11.7585    5.0863   -2.2718 H   0  0  0  0  0  0  0  0  0  0  0  0
  -10.7526    6.4868   -1.9079 H   0  0  0  0  0  0  0  0  0  0  0  0
  -10.9408    5.9437   -3.5828 H   0  0  0  0  0  0  0  0  0  0  0  0
  1  2  1  0  0  0  0
  1 10  2  0  0  0  0
  2  3  1  0  0  0  0
  4  1  1  0  0  0  0
  5  4  2  0  0  0  0
  5  6  1  0  0  0  0
  6  9  2  0  0  0  0
  7  6  1  0  0  0  0
  7  8  1  0  0  0  0
  8 15  1  0  0  0  0
  9 10  1  0  0  0  0
  9 16  1  0  0  0  0
 10 17  1  0  0  0  0
 12  5  1  0  0  0  0
 13  8  1  0  0  0  0
 14  8  1  0  0  0  0
 18 24  1  0  0  0  0
 19 18  1  0  0  0  0
 19 25  1  0  0  0  0
 20 19  2  0  0  0  0
 21 22  2  0  0  0  0
 21 20  1  0  0  0  0
 22 23  1  0  0  0  0
 23 28  1  0  0  0  0
 23 18  2  0  0  0  0
 26 21  1  0  0  0  0
 27 22  1  0  0  0  0
 28 30  1  0  0  0  0
 28 29  2  0  0  0  0
 30 11  1  0  0  0  0
 31 28  2  0  0  0  0
 32 20  1  0  0  0  0
 32 33  1  0  0  0  0
 32 34  1  0  0  0  0
 35 32  1  0  0  0  0
M  RAD  3   2   2   3   3   4   2
M  END
