Coordinates from ORCA-job 4-MeOPhN2+~TsO-_B3LYPG-6-31G_dp-CH-Scan-d09-49-n800
 OpenBabel11261919313D

 35 35  0  0  0  0  0  0  0  0999 V2000
   -2.5604   -0.4611   -0.2321 C   0  0  0  0  0  0  0  0  0  0  0  0
   -3.7901   -1.0340   -0.0054 N   0  0  0  0  0  0  0  0  0  0  0  0
   -4.8094   -1.4651    0.1602 N   0  0  0  0  0  0  0  0  0  0  0  0
   -2.5513    0.7713   -0.9306 C   0  0  0  0  0  0  0  0  0  0  0  0
   -1.2555    1.2628   -1.1088 C   0  0  0  0  0  0  0  0  0  0  0  0
   -0.1027    0.6034   -0.6461 C   0  0  0  0  0  0  0  0  0  0  0  0
    1.0723    1.2142   -0.9033 O   0  0  0  0  0  0  0  0  0  0  0  0
    2.2920    0.6128   -0.4760 C   0  0  0  0  0  0  0  0  0  0  0  0
   -0.1973   -0.6328    0.0464 C   0  0  0  0  0  0  0  0  0  0  0  0
   -1.4424   -1.1798    0.2596 C   0  0  0  0  0  0  0  0  0  0  0  0
   -3.9160    1.6052   -1.5389 H   0  0  0  0  0  0  0  0  0  0  0  0
   -1.0941    2.2034   -1.6312 H   0  0  0  0  0  0  0  0  0  0  0  0
    3.0838    1.2878   -0.8012 H   0  0  0  0  0  0  0  0  0  0  0  0
    2.4394   -0.3682   -0.9419 H   0  0  0  0  0  0  0  0  0  0  0  0
    2.3274    0.5109    0.6150 H   0  0  0  0  0  0  0  0  0  0  0  0
    0.6847   -1.1476    0.4039 H   0  0  0  0  0  0  0  0  0  0  0  0
   -1.5594   -2.1248    0.7819 H   0  0  0  0  0  0  0  0  0  0  0  0
   -7.7285    3.2953   -0.9139 C   0  0  0  0  0  0  0  0  0  0  0  0
   -8.6554    4.3288   -1.0205 C   0  0  0  0  0  0  0  0  0  0  0  0
   -9.1361    4.7460   -2.2711 C   0  0  0  0  0  0  0  0  0  0  0  0
   -8.6615    4.0978   -3.4190 C   0  0  0  0  0  0  0  0  0  0  0  0
   -7.7338    3.0606   -3.3302 C   0  0  0  0  0  0  0  0  0  0  0  0
   -7.2705    2.6703   -2.0748 C   0  0  0  0  0  0  0  0  0  0  0  0
   -7.3673    2.9638    0.0533 H   0  0  0  0  0  0  0  0  0  0  0  0
   -9.0152    4.8185   -0.1193 H   0  0  0  0  0  0  0  0  0  0  0  0
   -9.0251    4.4066   -4.3955 H   0  0  0  0  0  0  0  0  0  0  0  0
   -7.3753    2.5492   -4.2166 H   0  0  0  0  0  0  0  0  0  0  0  0
   -6.0707    1.3507   -1.9546 S   0  0  0  0  0  0  0  0  0  0  0  0
   -6.2409    0.6864   -0.6469 O   0  0  0  0  0  0  0  0  0  0  0  0
   -4.7257    2.1827   -1.9445 O   0  0  0  0  0  0  0  0  0  0  0  0
   -6.1681    0.5255   -3.1634 O   0  0  0  0  0  0  0  0  0  0  0  0
  -10.1646    5.8470   -2.3712 C   0  0  0  0  0  0  0  0  0  0  0  0
  -11.1708    5.4672   -2.1535 H   0  0  0  0  0  0  0  0  0  0  0  0
   -9.9621    6.6506   -1.6560 H   0  0  0  0  0  0  0  0  0  0  0  0
  -10.1893    6.2822   -3.3740 H   0  0  0  0  0  0  0  0  0  0  0  0
  1  2  1  0  0  0  0
  1 10  2  0  0  0  0
  2  3  1  0  0  0  0
  4  1  1  0  0  0  0
  5  4  2  0  0  0  0
  5  6  1  0  0  0  0
  6  9  2  0  0  0  0
  7  6  1  0  0  0  0
  7  8  1  0  0  0  0
  8 15  1  0  0  0  0
  9 10  1  0  0  0  0
  9 16  1  0  0  0  0
 10 17  1  0  0  0  0
 12  5  1  0  0  0  0
 13  8  1  0  0  0  0
 14  8  1  0  0  0  0
 18 24  1  0  0  0  0
 19 18  1  0  0  0  0
 19 25  1  0  0  0  0
 20 19  2  0  0  0  0
 21 22  2  0  0  0  0
 21 20  1  0  0  0  0
 22 23  1  0  0  0  0
 23 28  1  0  0  0  0
 23 18  2  0  0  0  0
 26 21  1  0  0  0  0
 27 22  1  0  0  0  0
 28 30  1  0  0  0  0
 28 29  2  0  0  0  0
 30 11  1  0  0  0  0
 31 28  2  0  0  0  0
 32 20  1  0  0  0  0
 32 33  1  0  0  0  0
 32 34  1  0  0  0  0
 35 32  1  0  0  0  0
M  RAD  3   2   2   3   3   4   2
M  END
