Coordinates from ORCA-job 4-MeOPhN2+~TsO-_B3LYPG-6-31G_dp-CH-Scan-d09-49-n800
 OpenBabel11261919313D

 35 35  0  0  0  0  0  0  0  0999 V2000
   -2.0662   -0.2770   -0.1059 C   0  0  0  0  0  0  0  0  0  0  0  0
   -3.4028   -0.5452    0.1021 N   0  0  0  0  0  0  0  0  0  0  0  0
   -4.4967   -0.7302    0.2612 N   0  0  0  0  0  0  0  0  0  0  0  0
   -1.7893    1.0171   -0.6086 C   0  0  0  0  0  0  0  0  0  0  0  0
   -0.4026    1.1832   -0.7783 C   0  0  0  0  0  0  0  0  0  0  0  0
    0.5529    0.1965   -0.4892 C   0  0  0  0  0  0  0  0  0  0  0  0
    1.8473    0.5295   -0.7153 O   0  0  0  0  0  0  0  0  0  0  0  0
    2.8746   -0.4207   -0.4593 C   0  0  0  0  0  0  0  0  0  0  0  0
    0.1677   -1.0786    0.0135 C   0  0  0  0  0  0  0  0  0  0  0  0
   -1.1693   -1.3309    0.2137 C   0  0  0  0  0  0  0  0  0  0  0  0
   -4.0786    3.1716   -1.5373 H   0  0  0  0  0  0  0  0  0  0  0  0
   -0.0031    2.1234   -1.1594 H   0  0  0  0  0  0  0  0  0  0  0  0
    3.8104    0.0749   -0.7208 H   0  0  0  0  0  0  0  0  0  0  0  0
    2.7580   -1.3183   -1.0782 H   0  0  0  0  0  0  0  0  0  0  0  0
    2.9037   -0.7096    0.5983 H   0  0  0  0  0  0  0  0  0  0  0  0
    0.9014   -1.8420    0.2388 H   0  0  0  0  0  0  0  0  0  0  0  0
   -1.5126   -2.2888    0.5968 H   0  0  0  0  0  0  0  0  0  0  0  0
   -8.1836    3.6419   -0.9544 C   0  0  0  0  0  0  0  0  0  0  0  0
   -9.3595    4.3629   -1.1388 C   0  0  0  0  0  0  0  0  0  0  0  0
   -9.8579    4.6226   -2.4256 C   0  0  0  0  0  0  0  0  0  0  0  0
   -9.1452    4.1383   -3.5305 C   0  0  0  0  0  0  0  0  0  0  0  0
   -7.9654    3.4137   -3.3669 C   0  0  0  0  0  0  0  0  0  0  0  0
   -7.4947    3.1769   -2.0764 C   0  0  0  0  0  0  0  0  0  0  0  0
   -7.8043    3.4308    0.0394 H   0  0  0  0  0  0  0  0  0  0  0  0
   -9.9023    4.7285   -0.2714 H   0  0  0  0  0  0  0  0  0  0  0  0
   -9.5193    4.3281   -4.5326 H   0  0  0  0  0  0  0  0  0  0  0  0
   -7.4187    3.0288   -4.2203 H   0  0  0  0  0  0  0  0  0  0  0  0
   -5.9909    2.2489   -1.8564 S   0  0  0  0  0  0  0  0  0  0  0  0
   -5.9972    1.6060   -0.5401 O   0  0  0  0  0  0  0  0  0  0  0  0
   -4.9511    3.5126   -1.8102 O   0  0  0  0  0  0  0  0  0  0  0  0
   -5.7307    1.4526   -3.0535 O   0  0  0  0  0  0  0  0  0  0  0  0
  -11.1470    5.3873   -2.6067 C   0  0  0  0  0  0  0  0  0  0  0  0
  -12.0095    4.7751   -2.3175 H   0  0  0  0  0  0  0  0  0  0  0  0
  -11.1673    6.2870   -1.9840 H   0  0  0  0  0  0  0  0  0  0  0  0
  -11.2900    5.6907   -3.6467 H   0  0  0  0  0  0  0  0  0  0  0  0
  1  2  1  0  0  0  0
  1 10  2  0  0  0  0
  2  3  1  0  0  0  0
  4  1  1  0  0  0  0
  5  4  2  0  0  0  0
  5  6  1  0  0  0  0
  6  9  2  0  0  0  0
  7  6  1  0  0  0  0
  7  8  1  0  0  0  0
  8 15  1  0  0  0  0
  9 10  1  0  0  0  0
  9 16  1  0  0  0  0
 10 17  1  0  0  0  0
 12  5  1  0  0  0  0
 13  8  1  0  0  0  0
 14  8  1  0  0  0  0
 18 24  1  0  0  0  0
 19 18  1  0  0  0  0
 19 25  1  0  0  0  0
 20 19  2  0  0  0  0
 21 22  2  0  0  0  0
 21 20  1  0  0  0  0
 22 23  1  0  0  0  0
 23 28  1  0  0  0  0
 23 18  2  0  0  0  0
 26 21  1  0  0  0  0
 27 22  1  0  0  0  0
 28 30  1  0  0  0  0
 28 29  2  0  0  0  0
 30 11  1  0  0  0  0
 31 28  2  0  0  0  0
 32 20  1  0  0  0  0
 32 33  1  0  0  0  0
 32 34  1  0  0  0  0
 35 32  1  0  0  0  0
M  RAD  3   2   2   3   3   4   2
M  END
