Coordinates from ORCA-job 4-MeOPhN2+~TsO-_B3LYPG-6-31G_dp-CH-Scan-d09-49-n800
 OpenBabel11261919313D

 35 35  0  0  0  0  0  0  0  0999 V2000
   -1.5657   -0.2955   -0.5803 C   0  0  0  0  0  0  0  0  0  0  0  0
   -2.9185   -0.4445   -0.8145 N   0  0  0  0  0  0  0  0  0  0  0  0
   -4.0180   -0.5187   -1.0245 N   0  0  0  0  0  0  0  0  0  0  0  0
   -1.0521    0.9626   -0.9721 C   0  0  0  0  0  0  0  0  0  0  0  0
    0.3290    1.0170   -0.6971 C   0  0  0  0  0  0  0  0  0  0  0  0
    1.0633   -0.0304   -0.1213 C   0  0  0  0  0  0  0  0  0  0  0  0
    2.3873    0.1970    0.0711 O   0  0  0  0  0  0  0  0  0  0  0  0
    3.2005   -0.8165    0.6486 C   0  0  0  0  0  0  0  0  0  0  0  0
    0.4408   -1.2612    0.2365 C   0  0  0  0  0  0  0  0  0  0  0  0
   -0.9067   -1.4093    0.0055 C   0  0  0  0  0  0  0  0  0  0  0  0
   -4.4735    3.6757   -2.8915 H   0  0  0  0  0  0  0  0  0  0  0  0
    0.9022    1.9150   -0.9331 H   0  0  0  0  0  0  0  0  0  0  0  0
    4.2070   -0.3986    0.6983 H   0  0  0  0  0  0  0  0  0  0  0  0
    3.2177   -1.7232    0.0316 H   0  0  0  0  0  0  0  0  0  0  0  0
    2.8686   -1.0742    1.6616 H   0  0  0  0  0  0  0  0  0  0  0  0
    1.0060   -2.0706    0.6807 H   0  0  0  0  0  0  0  0  0  0  0  0
   -1.4276   -2.3294    0.2608 H   0  0  0  0  0  0  0  0  0  0  0  0
   -8.0819    3.8891   -1.2972 C   0  0  0  0  0  0  0  0  0  0  0  0
   -9.2885    4.5448   -1.0710 C   0  0  0  0  0  0  0  0  0  0  0  0
  -10.2427    4.6830   -2.0913 C   0  0  0  0  0  0  0  0  0  0  0  0
   -9.9572    4.1434   -3.3531 C   0  0  0  0  0  0  0  0  0  0  0  0
   -8.7554    3.4820   -3.6001 C   0  0  0  0  0  0  0  0  0  0  0  0
   -7.8265    3.3661   -2.5665 C   0  0  0  0  0  0  0  0  0  0  0  0
   -7.3505    3.7721   -0.5048 H   0  0  0  0  0  0  0  0  0  0  0  0
   -9.4946    4.9555   -0.0862 H   0  0  0  0  0  0  0  0  0  0  0  0
  -10.6859    4.2399   -4.1536 H   0  0  0  0  0  0  0  0  0  0  0  0
   -8.5387    3.0549   -4.5728 H   0  0  0  0  0  0  0  0  0  0  0  0
   -6.2830    2.5329   -2.8721 S   0  0  0  0  0  0  0  0  0  0  0  0
   -5.7399    2.0067   -1.6178 O   0  0  0  0  0  0  0  0  0  0  0  0
   -5.3506    3.8247   -3.2857 O   0  0  0  0  0  0  0  0  0  0  0  0
   -6.4299    1.6756   -4.0422 O   0  0  0  0  0  0  0  0  0  0  0  0
  -11.5577    5.3737   -1.8229 C   0  0  0  0  0  0  0  0  0  0  0  0
  -12.2664    4.6903   -1.3383 H   0  0  0  0  0  0  0  0  0  0  0  0
  -11.4287    6.2323   -1.1571 H   0  0  0  0  0  0  0  0  0  0  0  0
  -12.0217    5.7255   -2.7480 H   0  0  0  0  0  0  0  0  0  0  0  0
  1 10  2  0  0  0  0
  2  1  1  0  0  0  0
  3  2  1  0  0  0  0
  4  5  2  0  0  0  0
  4  1  1  0  0  0  0
  5  6  1  0  0  0  0
  6  7  1  0  0  0  0
  6  9  2  0  0  0  0
  7  8  1  0  0  0  0
  8 13  1  0  0  0  0
  8 15  1  0  0  0  0
  9 16  1  0  0  0  0
 10  9  1  0  0  0  0
 10 17  1  0  0  0  0
 12  5  1  0  0  0  0
 14  8  1  0  0  0  0
 18 19  1  0  0  0  0
 18 24  1  0  0  0  0
 19 25  1  0  0  0  0
 20 32  1  0  0  0  0
 20 19  2  0  0  0  0
 21 20  1  0  0  0  0
 22 21  2  0  0  0  0
 22 23  1  0  0  0  0
 23 18  2  0  0  0  0
 26 21  1  0  0  0  0
 27 22  1  0  0  0  0
 28 23  1  0  0  0  0
 28 29  2  0  0  0  0
 30 11  1  0  0  0  0
 30 28  1  0  0  0  0
 31 28  2  0  0  0  0
 32 33  1  0  0  0  0
 32 34  1  0  0  0  0
 35 32  1  0  0  0  0
M  RAD  3   2   2   3   3   4   2
M  END
