Coordinates from ORCA-job 4-MeOPhN2+~TsO-_B3LYPG-6-31G_dp-CH-Scan-d09-49-n800
 OpenBabel11261919303D

 35 35  0  0  0  0  0  0  0  0999 V2000
   -2.6251   -0.3225   -0.6644 C   0  0  0  0  0  0  0  0  0  0  0  0
   -3.9255   -0.7733   -0.8146 N   0  0  0  0  0  0  0  0  0  0  0  0
   -5.0521   -0.7145   -0.9495 N   0  0  0  0  0  0  0  0  0  0  0  0
   -2.3088    1.0330   -0.9014 C   0  0  0  0  0  0  0  0  0  0  0  0
   -0.9929    1.4191   -0.7402 C   0  0  0  0  0  0  0  0  0  0  0  0
   -0.0044    0.4928   -0.3473 C   0  0  0  0  0  0  0  0  0  0  0  0
    1.2380    0.9925   -0.2195 O   0  0  0  0  0  0  0  0  0  0  0  0
    2.3060    0.1269    0.1641 C   0  0  0  0  0  0  0  0  0  0  0  0
   -0.3418   -0.8575   -0.1225 C   0  0  0  0  0  0  0  0  0  0  0  0
   -1.6553   -1.2650   -0.2905 C   0  0  0  0  0  0  0  0  0  0  0  0
   -3.1085    1.7820   -1.2517 H   0  0  0  0  0  0  0  0  0  0  0  0
   -0.6949    2.4459   -0.9208 H   0  0  0  0  0  0  0  0  0  0  0  0
    3.1957    0.7552    0.1990 H   0  0  0  0  0  0  0  0  0  0  0  0
    2.4525   -0.6726   -0.5710 H   0  0  0  0  0  0  0  0  0  0  0  0
    2.1281   -0.3081    1.1539 H   0  0  0  0  0  0  0  0  0  0  0  0
    0.4070   -1.5803    0.1740 H   0  0  0  0  0  0  0  0  0  0  0  0
   -1.9408   -2.2986   -0.1273 H   0  0  0  0  0  0  0  0  0  0  0  0
   -7.0282    4.2899   -1.7029 C   0  0  0  0  0  0  0  0  0  0  0  0
   -8.1834    5.0688   -1.7034 C   0  0  0  0  0  0  0  0  0  0  0  0
   -9.3893    4.5768   -2.2245 C   0  0  0  0  0  0  0  0  0  0  0  0
   -9.4038    3.2814   -2.7591 C   0  0  0  0  0  0  0  0  0  0  0  0
   -8.2552    2.4900   -2.7650 C   0  0  0  0  0  0  0  0  0  0  0  0
   -7.0713    2.9984   -2.2312 C   0  0  0  0  0  0  0  0  0  0  0  0
   -6.0916    4.6778   -1.3175 H   0  0  0  0  0  0  0  0  0  0  0  0
   -8.1481    6.0772   -1.2988 H   0  0  0  0  0  0  0  0  0  0  0  0
  -10.3251    2.8891   -3.1829 H   0  0  0  0  0  0  0  0  0  0  0  0
   -8.2617    1.4945   -3.1945 H   0  0  0  0  0  0  0  0  0  0  0  0
   -5.6003    1.9705   -2.1984 S   0  0  0  0  0  0  0  0  0  0  0  0
   -5.6213    1.3176   -0.8113 O   0  0  0  0  0  0  0  0  0  0  0  0
   -4.4381    2.8945   -2.2972 O   0  0  0  0  0  0  0  0  0  0  0  0
   -5.7318    0.9656   -3.2735 O   0  0  0  0  0  0  0  0  0  0  0  0
  -10.6432    5.4190   -2.1937 C   0  0  0  0  0  0  0  0  0  0  0  0
  -11.1390    5.3548   -1.2163 H   0  0  0  0  0  0  0  0  0  0  0  0
  -10.4207    6.4757   -2.3731 H   0  0  0  0  0  0  0  0  0  0  0  0
  -11.3646    5.0908   -2.9477 H   0  0  0  0  0  0  0  0  0  0  0  0
  1 10  2  0  0  0  0
  2  1  1  0  0  0  0
  3  2  1  0  0  0  0
  4  5  2  0  0  0  0
  4  1  1  0  0  0  0
  5  6  1  0  0  0  0
  6  7  1  0  0  0  0
  6  9  2  0  0  0  0
  7  8  1  0  0  0  0
  8 13  1  0  0  0  0
  8 15  1  0  0  0  0
  9 16  1  0  0  0  0
 10 17  1  0  0  0  0
 10  9  1  0  0  0  0
 11  4  1  0  0  0  0
 12  5  1  0  0  0  0
 14  8  1  0  0  0  0
 18 24  1  0  0  0  0
 19 18  1  0  0  0  0
 19 25  1  0  0  0  0
 20 32  1  0  0  0  0
 20 19  2  0  0  0  0
 21 20  1  0  0  0  0
 22 21  2  0  0  0  0
 22 23  1  0  0  0  0
 23 28  1  0  0  0  0
 23 18  2  0  0  0  0
 26 21  1  0  0  0  0
 27 22  1  0  0  0  0
 28 29  1  0  0  0  0
 30 28  2  0  0  0  0
 31 28  2  0  0  0  0
 32 33  1  0  0  0  0
 34 32  1  0  0  0  0
 35 32  1  0  0  0  0
M  RAD  3   2   2   3   3  29   2
M  END
