Coordinates from ORCA-job 4-MeOPhN2+~TsO-_B3LYPG-6-31G_dp-CH-Scan-d09-49-n800
 OpenBabel11261919313D

 35 35  0  0  0  0  0  0  0  0999 V2000
   -1.8100   -0.2289   -0.1827 C   0  0  0  0  0  0  0  0  0  0  0  0
   -3.1808   -0.3742   -0.1067 N   0  0  0  0  0  0  0  0  0  0  0  0
   -4.2986   -0.4488   -0.0547 N   0  0  0  0  0  0  0  0  0  0  0  0
   -1.3848    1.0610   -0.5791 C   0  0  0  0  0  0  0  0  0  0  0  0
    0.0226    1.1041   -0.6262 C   0  0  0  0  0  0  0  0  0  0  0  0
    0.8587    0.0184   -0.3258 C   0  0  0  0  0  0  0  0  0  0  0  0
    2.1935    0.2394   -0.4308 O   0  0  0  0  0  0  0  0  0  0  0  0
    3.1061   -0.8155   -0.1563 C   0  0  0  0  0  0  0  0  0  0  0  0
    0.3219   -1.2417    0.0664 C   0  0  0  0  0  0  0  0  0  0  0  0
   -1.0441   -1.3801    0.1435 C   0  0  0  0  0  0  0  0  0  0  0  0
   -4.2273    3.7602   -1.8923 H   0  0  0  0  0  0  0  0  0  0  0  0
    0.5357    2.0228   -0.9146 H   0  0  0  0  0  0  0  0  0  0  0  0
    4.1012   -0.3989   -0.3191 H   0  0  0  0  0  0  0  0  0  0  0  0
    2.9577   -1.6659   -0.8327 H   0  0  0  0  0  0  0  0  0  0  0  0
    3.0271   -1.1599    0.8823 H   0  0  0  0  0  0  0  0  0  0  0  0
    0.9646   -2.0803    0.3021 H   0  0  0  0  0  0  0  0  0  0  0  0
   -1.5018   -2.3212    0.4395 H   0  0  0  0  0  0  0  0  0  0  0  0
   -8.2337    3.8346   -1.0619 C   0  0  0  0  0  0  0  0  0  0  0  0
   -9.4873    4.4331   -1.1381 C   0  0  0  0  0  0  0  0  0  0  0  0
  -10.1479    4.5823   -2.3685 C   0  0  0  0  0  0  0  0  0  0  0  0
   -9.5180    4.1120   -3.5283 C   0  0  0  0  0  0  0  0  0  0  0  0
   -8.2619    3.5093   -3.4736 C   0  0  0  0  0  0  0  0  0  0  0  0
   -7.6307    3.3814   -2.2373 C   0  0  0  0  0  0  0  0  0  0  0  0
   -7.7291    3.7092   -0.1102 H   0  0  0  0  0  0  0  0  0  0  0  0
   -9.9637    4.7893   -0.2288 H   0  0  0  0  0  0  0  0  0  0  0  0
  -10.0172    4.2163   -4.4875 H   0  0  0  0  0  0  0  0  0  0  0  0
   -7.7777    3.1357   -4.3688 H   0  0  0  0  0  0  0  0  0  0  0  0
   -6.0262    2.6158   -2.1545 S   0  0  0  0  0  0  0  0  0  0  0  0
   -5.8207    2.0232   -0.8314 O   0  0  0  0  0  0  0  0  0  0  0  0
   -5.1116    3.9794   -2.2358 O   0  0  0  0  0  0  0  0  0  0  0  0
   -5.8054    1.8206   -3.3587 O   0  0  0  0  0  0  0  0  0  0  0  0
  -11.5164    5.2167   -2.4297 C   0  0  0  0  0  0  0  0  0  0  0  0
  -12.2789    4.5435   -2.0200 H   0  0  0  0  0  0  0  0  0  0  0  0
  -11.5529    6.1400   -1.8431 H   0  0  0  0  0  0  0  0  0  0  0  0
  -11.8022    5.4547   -3.4572 H   0  0  0  0  0  0  0  0  0  0  0  0
  1  2  1  0  0  0  0
  1 10  2  0  0  0  0
  2  3  1  0  0  0  0
  4  1  1  0  0  0  0
  5  4  2  0  0  0  0
  5  6  1  0  0  0  0
  6  9  2  0  0  0  0
  7  6  1  0  0  0  0
  7  8  1  0  0  0  0
  8 15  1  0  0  0  0
  9 10  1  0  0  0  0
  9 16  1  0  0  0  0
 10 17  1  0  0  0  0
 12  5  1  0  0  0  0
 13  8  1  0  0  0  0
 14  8  1  0  0  0  0
 18 24  1  0  0  0  0
 19 18  1  0  0  0  0
 19 25  1  0  0  0  0
 20 19  2  0  0  0  0
 21 22  2  0  0  0  0
 21 20  1  0  0  0  0
 22 23  1  0  0  0  0
 23 28  1  0  0  0  0
 23 18  2  0  0  0  0
 26 21  1  0  0  0  0
 27 22  1  0  0  0  0
 28 29  2  0  0  0  0
 30 28  1  0  0  0  0
 30 11  1  0  0  0  0
 31 28  2  0  0  0  0
 32 20  1  0  0  0  0
 32 33  1  0  0  0  0
 32 34  1  0  0  0  0
 35 32  1  0  0  0  0
M  RAD  3   2   2   3   3   4   2
M  END
