Coordinates from ORCA-job 4-MeOPhN2+~TsO-_B3LYPG-6-31G_dp-CH-Scan-d09-49-n800
 OpenBabel11261919313D

 35 35  0  0  0  0  0  0  0  0999 V2000
   -1.6725   -0.3298   -0.5757 C   0  0  0  0  0  0  0  0  0  0  0  0
   -3.0229   -0.5296   -0.7836 N   0  0  0  0  0  0  0  0  0  0  0  0
   -4.1225   -0.6477   -0.9712 N   0  0  0  0  0  0  0  0  0  0  0  0
   -1.2076    0.9402   -0.9903 C   0  0  0  0  0  0  0  0  0  0  0  0
    0.1751    1.0442   -0.7387 C   0  0  0  0  0  0  0  0  0  0  0  0
    0.9540    0.0289   -0.1637 C   0  0  0  0  0  0  0  0  0  0  0  0
    2.2724    0.3033    0.0041 O   0  0  0  0  0  0  0  0  0  0  0  0
    3.1290   -0.6758    0.5783 C   0  0  0  0  0  0  0  0  0  0  0  0
    0.3795   -1.2179    0.2177 C   0  0  0  0  0  0  0  0  0  0  0  0
   -0.9658   -1.4136    0.0110 C   0  0  0  0  0  0  0  0  0  0  0  0
   -4.3850    3.5182   -2.7887 H   0  0  0  0  0  0  0  0  0  0  0  0
    0.7135    1.9581   -0.9944 H   0  0  0  0  0  0  0  0  0  0  0  0
    4.1215   -0.2237    0.6065 H   0  0  0  0  0  0  0  0  0  0  0  0
    3.1665   -1.5880   -0.0295 H   0  0  0  0  0  0  0  0  0  0  0  0
    2.8229   -0.9333    1.5995 H   0  0  0  0  0  0  0  0  0  0  0  0
    0.9789   -2.0030    0.6607 H   0  0  0  0  0  0  0  0  0  0  0  0
   -1.4507   -2.3479    0.2848 H   0  0  0  0  0  0  0  0  0  0  0  0
   -8.0491    3.7910   -1.2531 C   0  0  0  0  0  0  0  0  0  0  0  0
   -9.2427    4.4757   -1.0434 C   0  0  0  0  0  0  0  0  0  0  0  0
  -10.1527    4.6870   -2.0911 C   0  0  0  0  0  0  0  0  0  0  0  0
   -9.8365    4.1912   -3.3635 C   0  0  0  0  0  0  0  0  0  0  0  0
   -8.6475    3.5014   -3.5942 C   0  0  0  0  0  0  0  0  0  0  0  0
   -7.7625    3.3128   -2.5332 C   0  0  0  0  0  0  0  0  0  0  0  0
   -7.3517    3.6178   -0.4407 H   0  0  0  0  0  0  0  0  0  0  0  0
   -9.4731    4.8519   -0.0503 H   0  0  0  0  0  0  0  0  0  0  0  0
  -10.5309    4.3451   -4.1852 H   0  0  0  0  0  0  0  0  0  0  0  0
   -8.4080    3.1076   -4.5755 H   0  0  0  0  0  0  0  0  0  0  0  0
   -6.2360    2.4413   -2.8166 S   0  0  0  0  0  0  0  0  0  0  0  0
   -5.7477    1.8648   -1.5618 O   0  0  0  0  0  0  0  0  0  0  0  0
   -5.2589    3.7171   -3.1682 O   0  0  0  0  0  0  0  0  0  0  0  0
   -6.3730    1.6180   -4.0124 O   0  0  0  0  0  0  0  0  0  0  0  0
  -11.4551    5.4079   -1.8418 C   0  0  0  0  0  0  0  0  0  0  0  0
  -12.2019    4.7285   -1.4122 H   0  0  0  0  0  0  0  0  0  0  0  0
  -11.3250    6.2343   -1.1365 H   0  0  0  0  0  0  0  0  0  0  0  0
  -11.8735    5.8112   -2.7676 H   0  0  0  0  0  0  0  0  0  0  0  0
  1 10  2  0  0  0  0
  2  1  1  0  0  0  0
  3  2  1  0  0  0  0
  4  5  2  0  0  0  0
  4  1  1  0  0  0  0
  5  6  1  0  0  0  0
  6  7  1  0  0  0  0
  6  9  2  0  0  0  0
  7  8  1  0  0  0  0
  8 13  1  0  0  0  0
  8 15  1  0  0  0  0
  9 16  1  0  0  0  0
 10  9  1  0  0  0  0
 10 17  1  0  0  0  0
 12  5  1  0  0  0  0
 14  8  1  0  0  0  0
 18 19  1  0  0  0  0
 18 24  1  0  0  0  0
 19 25  1  0  0  0  0
 20 32  1  0  0  0  0
 20 19  2  0  0  0  0
 21 20  1  0  0  0  0
 22 21  2  0  0  0  0
 22 23  1  0  0  0  0
 23 18  2  0  0  0  0
 26 21  1  0  0  0  0
 27 22  1  0  0  0  0
 28 23  1  0  0  0  0
 28 29  2  0  0  0  0
 30 28  1  0  0  0  0
 30 11  1  0  0  0  0
 31 28  2  0  0  0  0
 32 33  1  0  0  0  0
 32 34  1  0  0  0  0
 35 32  1  0  0  0  0
M  RAD  3   2   2   3   3   4   2
M  END
