Coordinates from ORCA-job 4-MeOPhN2+~TsO-_B3LYPG-6-31G_dp-CH-Scan-d09-49-n800
 OpenBabel11261919313D

 35 35  0  0  0  0  0  0  0  0999 V2000
   -2.4989   -0.4466   -0.2082 C   0  0  0  0  0  0  0  0  0  0  0  0
   -3.7414   -0.9895    0.0248 N   0  0  0  0  0  0  0  0  0  0  0  0
   -4.7684   -1.3994    0.1985 N   0  0  0  0  0  0  0  0  0  0  0  0
   -2.4732    0.8025   -0.8767 C   0  0  0  0  0  0  0  0  0  0  0  0
   -1.1637    1.2601   -1.0617 C   0  0  0  0  0  0  0  0  0  0  0  0
   -0.0231    0.5583   -0.6343 C   0  0  0  0  0  0  0  0  0  0  0  0
    1.1659    1.1431   -0.8945 O   0  0  0  0  0  0  0  0  0  0  0  0
    2.3737    0.4964   -0.5031 C   0  0  0  0  0  0  0  0  0  0  0  0
   -0.1397   -0.6927    0.0292 C   0  0  0  0  0  0  0  0  0  0  0  0
   -1.3955   -1.2106    0.2492 C   0  0  0  0  0  0  0  0  0  0  0  0
   -3.9615    1.7722   -1.4959 H   0  0  0  0  0  0  0  0  0  0  0  0
   -0.9799    2.2087   -1.5626 H   0  0  0  0  0  0  0  0  0  0  0  0
    3.1799    1.1577   -0.8215 H   0  0  0  0  0  0  0  0  0  0  0  0
    2.4867   -0.4750   -0.9980 H   0  0  0  0  0  0  0  0  0  0  0  0
    2.4231    0.3625    0.5841 H   0  0  0  0  0  0  0  0  0  0  0  0
    0.7337   -1.2395    0.3595 H   0  0  0  0  0  0  0  0  0  0  0  0
   -1.5307   -2.1648    0.7504 H   0  0  0  0  0  0  0  0  0  0  0  0
   -7.8179    3.3270   -0.9074 C   0  0  0  0  0  0  0  0  0  0  0  0
   -8.7720    4.3324   -1.0387 C   0  0  0  0  0  0  0  0  0  0  0  0
   -9.2245    4.7428   -2.3021 C   0  0  0  0  0  0  0  0  0  0  0  0
   -8.6937    4.1169   -3.4378 C   0  0  0  0  0  0  0  0  0  0  0  0
   -7.7379    3.1080   -3.3251 C   0  0  0  0  0  0  0  0  0  0  0  0
   -7.3043    2.7248   -2.0570 C   0  0  0  0  0  0  0  0  0  0  0  0
   -7.4778    3.0007    0.0692 H   0  0  0  0  0  0  0  0  0  0  0  0
   -9.1752    4.8053   -0.1470 H   0  0  0  0  0  0  0  0  0  0  0  0
   -9.0347    4.4211   -4.4237 H   0  0  0  0  0  0  0  0  0  0  0  0
   -7.3352    2.6142   -4.2024 H   0  0  0  0  0  0  0  0  0  0  0  0
   -6.0741    1.4397   -1.9041 S   0  0  0  0  0  0  0  0  0  0  0  0
   -6.2530    0.7674   -0.6051 O   0  0  0  0  0  0  0  0  0  0  0  0
   -4.7549    2.3341   -1.8517 O   0  0  0  0  0  0  0  0  0  0  0  0
   -6.0951    0.6221   -3.1202 O   0  0  0  0  0  0  0  0  0  0  0  0
  -10.2815    5.8134   -2.4289 C   0  0  0  0  0  0  0  0  0  0  0  0
  -11.2818    5.4027   -2.2428 H   0  0  0  0  0  0  0  0  0  0  0  0
  -10.1242    6.6190   -1.7047 H   0  0  0  0  0  0  0  0  0  0  0  0
  -10.2890    6.2525   -3.4301 H   0  0  0  0  0  0  0  0  0  0  0  0
  1  2  1  0  0  0  0
  1 10  2  0  0  0  0
  2  3  1  0  0  0  0
  4  1  1  0  0  0  0
  5  4  2  0  0  0  0
  5  6  1  0  0  0  0
  6  9  2  0  0  0  0
  7  6  1  0  0  0  0
  7  8  1  0  0  0  0
  8 15  1  0  0  0  0
  9 10  1  0  0  0  0
  9 16  1  0  0  0  0
 10 17  1  0  0  0  0
 12  5  1  0  0  0  0
 13  8  1  0  0  0  0
 14  8  1  0  0  0  0
 18 24  1  0  0  0  0
 19 18  1  0  0  0  0
 19 25  1  0  0  0  0
 20 19  2  0  0  0  0
 21 22  2  0  0  0  0
 21 20  1  0  0  0  0
 22 23  1  0  0  0  0
 23 28  1  0  0  0  0
 23 18  2  0  0  0  0
 26 21  1  0  0  0  0
 27 22  1  0  0  0  0
 28 30  1  0  0  0  0
 28 29  2  0  0  0  0
 30 11  1  0  0  0  0
 31 28  2  0  0  0  0
 32 20  1  0  0  0  0
 32 33  1  0  0  0  0
 32 34  1  0  0  0  0
 35 32  1  0  0  0  0
M  RAD  3   2   2   3   3   4   2
M  END
