Coordinates from ORCA-job 4-MeOPhN2+~TsO-_B3LYPG-6-31G_dp-CH-Scan-d09-49-n800
 OpenBabel11261919313D

 35 35  0  0  0  0  0  0  0  0999 V2000
   -2.5187   -0.4503   -0.2124 C   0  0  0  0  0  0  0  0  0  0  0  0
   -3.7570   -1.0021    0.0210 N   0  0  0  0  0  0  0  0  0  0  0  0
   -4.7814   -1.4185    0.1941 N   0  0  0  0  0  0  0  0  0  0  0  0
   -2.4993    0.7943   -0.8892 C   0  0  0  0  0  0  0  0  0  0  0  0
   -1.1940    1.2618   -1.0744 C   0  0  0  0  0  0  0  0  0  0  0  0
   -0.0488    0.5721   -0.6391 C   0  0  0  0  0  0  0  0  0  0  0  0
    1.1357    1.1647   -0.9003 O   0  0  0  0  0  0  0  0  0  0  0  0
    2.3479    0.5311   -0.5007 C   0  0  0  0  0  0  0  0  0  0  0  0
   -0.1575   -0.6749    0.0326 C   0  0  0  0  0  0  0  0  0  0  0  0
   -1.4099   -1.2014    0.2528 C   0  0  0  0  0  0  0  0  0  0  0  0
   -3.9481    1.7222   -1.5015 H   0  0  0  0  0  0  0  0  0  0  0  0
   -1.0177    2.2083   -1.5816 H   0  0  0  0  0  0  0  0  0  0  0  0
    3.1493    1.1967   -0.8222 H   0  0  0  0  0  0  0  0  0  0  0  0
    2.4703   -0.4431   -0.9878 H   0  0  0  0  0  0  0  0  0  0  0  0
    2.3953    0.4061    0.5875 H   0  0  0  0  0  0  0  0  0  0  0  0
    0.7191   -1.2126    0.3691 H   0  0  0  0  0  0  0  0  0  0  0  0
   -1.5388   -2.1532    0.7600 H   0  0  0  0  0  0  0  0  0  0  0  0
   -7.7942    3.3152   -0.9083 C   0  0  0  0  0  0  0  0  0  0  0  0
   -8.7404    4.3288   -1.0335 C   0  0  0  0  0  0  0  0  0  0  0  0
   -9.1972    4.7432   -2.2940 C   0  0  0  0  0  0  0  0  0  0  0  0
   -8.6786    4.1131   -3.4329 C   0  0  0  0  0  0  0  0  0  0  0  0
   -7.7308    3.0960   -3.3261 C   0  0  0  0  0  0  0  0  0  0  0  0
   -7.2926    2.7086   -2.0609 C   0  0  0  0  0  0  0  0  0  0  0  0
   -7.4510    2.9857    0.0661 H   0  0  0  0  0  0  0  0  0  0  0  0
   -9.1343    4.8048   -0.1393 H   0  0  0  0  0  0  0  0  0  0  0  0
   -9.0230    4.4203   -4.4167 H   0  0  0  0  0  0  0  0  0  0  0  0
   -7.3378    2.5988   -4.2059 H   0  0  0  0  0  0  0  0  0  0  0  0
   -6.0713    1.4134   -1.9160 S   0  0  0  0  0  0  0  0  0  0  0  0
   -6.2520    0.7406   -0.6164 O   0  0  0  0  0  0  0  0  0  0  0  0
   -4.7446    2.2903   -1.8694 O   0  0  0  0  0  0  0  0  0  0  0  0
   -6.1098    0.5957   -3.1320 O   0  0  0  0  0  0  0  0  0  0  0  0
  -10.2461    5.8226   -2.4143 C   0  0  0  0  0  0  0  0  0  0  0  0
  -11.2487    5.4203   -2.2224 H   0  0  0  0  0  0  0  0  0  0  0  0
  -10.0779    6.6268   -1.6909 H   0  0  0  0  0  0  0  0  0  0  0  0
  -10.2559    6.2620   -3.4154 H   0  0  0  0  0  0  0  0  0  0  0  0
  1  2  1  0  0  0  0
  1 10  2  0  0  0  0
  2  3  1  0  0  0  0
  4  1  1  0  0  0  0
  5  4  2  0  0  0  0
  5  6  1  0  0  0  0
  6  9  2  0  0  0  0
  7  6  1  0  0  0  0
  7  8  1  0  0  0  0
  8 15  1  0  0  0  0
  9 10  1  0  0  0  0
  9 16  1  0  0  0  0
 10 17  1  0  0  0  0
 12  5  1  0  0  0  0
 13  8  1  0  0  0  0
 14  8  1  0  0  0  0
 18 24  1  0  0  0  0
 19 18  1  0  0  0  0
 19 25  1  0  0  0  0
 20 19  2  0  0  0  0
 21 22  2  0  0  0  0
 21 20  1  0  0  0  0
 22 23  1  0  0  0  0
 23 28  1  0  0  0  0
 23 18  2  0  0  0  0
 26 21  1  0  0  0  0
 27 22  1  0  0  0  0
 28 30  1  0  0  0  0
 28 29  2  0  0  0  0
 30 11  1  0  0  0  0
 31 28  2  0  0  0  0
 32 20  1  0  0  0  0
 32 33  1  0  0  0  0
 32 34  1  0  0  0  0
 35 32  1  0  0  0  0
M  RAD  3   2   2   3   3   4   2
M  END
