Coordinates from ORCA-job 4-MeOPhN2+~TsO-_B3LYPG-6-31G_dp-CH-Scan-d09-49-n800
 OpenBabel11261919313D

 35 35  0  0  0  0  0  0  0  0999 V2000
   -1.5372   -0.2862   -0.5766 C   0  0  0  0  0  0  0  0  0  0  0  0
   -2.8907   -0.4227   -0.8148 N   0  0  0  0  0  0  0  0  0  0  0  0
   -3.9903   -0.4860   -1.0279 N   0  0  0  0  0  0  0  0  0  0  0  0
   -1.0130    0.9702   -0.9595 C   0  0  0  0  0  0  0  0  0  0  0  0
    0.3679    1.0121   -0.6814 C   0  0  0  0  0  0  0  0  0  0  0  0
    1.0927   -0.0446   -0.1105 C   0  0  0  0  0  0  0  0  0  0  0  0
    2.4180    0.1712    0.0861 O   0  0  0  0  0  0  0  0  0  0  0  0
    3.2220   -0.8521    0.6593 C   0  0  0  0  0  0  0  0  0  0  0  0
    0.4597   -1.2726    0.2387 C   0  0  0  0  0  0  0  0  0  0  0  0
   -0.8884   -1.4087    0.0040 C   0  0  0  0  0  0  0  0  0  0  0  0
   -4.4979    3.7064   -2.9072 H   0  0  0  0  0  0  0  0  0  0  0  0
    0.9486    1.9070   -0.9107 H   0  0  0  0  0  0  0  0  0  0  0  0
    4.2317   -0.4426    0.7133 H   0  0  0  0  0  0  0  0  0  0  0  0
    3.2332   -1.7554    0.0371 H   0  0  0  0  0  0  0  0  0  0  0  0
    2.8860   -1.1130    1.6702 H   0  0  0  0  0  0  0  0  0  0  0  0
    1.0175   -2.0890    0.6794 H   0  0  0  0  0  0  0  0  0  0  0  0
   -1.4171   -2.3261    0.2527 H   0  0  0  0  0  0  0  0  0  0  0  0
   -8.0965    3.9104   -1.3066 C   0  0  0  0  0  0  0  0  0  0  0  0
   -9.3055    4.5612   -1.0790 C   0  0  0  0  0  0  0  0  0  0  0  0
  -10.2664    4.6849   -2.0949 C   0  0  0  0  0  0  0  0  0  0  0  0
   -9.9853    4.1356   -3.3534 C   0  0  0  0  0  0  0  0  0  0  0  0
   -8.7811    3.4789   -3.6017 C   0  0  0  0  0  0  0  0  0  0  0  0
   -7.8455    3.3776   -2.5727 C   0  0  0  0  0  0  0  0  0  0  0  0
   -7.3599    3.8046   -0.5173 H   0  0  0  0  0  0  0  0  0  0  0  0
   -9.5082    4.9795   -0.0967 H   0  0  0  0  0  0  0  0  0  0  0  0
  -10.7192    4.2206   -4.1505 H   0  0  0  0  0  0  0  0  0  0  0  0
   -8.5676    3.0445   -4.5718 H   0  0  0  0  0  0  0  0  0  0  0  0
   -6.2989    2.5507   -2.8801 S   0  0  0  0  0  0  0  0  0  0  0  0
   -5.7470    2.0361   -1.6248 O   0  0  0  0  0  0  0  0  0  0  0  0
   -5.3744    3.8441   -3.3067 O   0  0  0  0  0  0  0  0  0  0  0  0
   -6.4467    1.6853   -4.0439 O   0  0  0  0  0  0  0  0  0  0  0  0
  -11.5837    5.3705   -1.8249 C   0  0  0  0  0  0  0  0  0  0  0  0
  -12.2847    4.6883   -1.3276 H   0  0  0  0  0  0  0  0  0  0  0  0
  -11.4553    6.2373   -1.1694 H   0  0  0  0  0  0  0  0  0  0  0  0
  -12.0564    5.7095   -2.7504 H   0  0  0  0  0  0  0  0  0  0  0  0
  1 10  2  0  0  0  0
  2  1  1  0  0  0  0
  3  2  1  0  0  0  0
  4  5  2  0  0  0  0
  4  1  1  0  0  0  0
  5  6  1  0  0  0  0
  6  7  1  0  0  0  0
  6  9  2  0  0  0  0
  7  8  1  0  0  0  0
  8 13  1  0  0  0  0
  8 15  1  0  0  0  0
  9 16  1  0  0  0  0
 10  9  1  0  0  0  0
 10 17  1  0  0  0  0
 12  5  1  0  0  0  0
 14  8  1  0  0  0  0
 18 19  1  0  0  0  0
 18 24  1  0  0  0  0
 19 25  1  0  0  0  0
 20 32  1  0  0  0  0
 20 19  2  0  0  0  0
 21 20  1  0  0  0  0
 22 21  2  0  0  0  0
 22 23  1  0  0  0  0
 23 18  2  0  0  0  0
 26 21  1  0  0  0  0
 27 22  1  0  0  0  0
 28 23  1  0  0  0  0
 28 29  2  0  0  0  0
 30 11  1  0  0  0  0
 30 28  1  0  0  0  0
 31 28  2  0  0  0  0
 32 33  1  0  0  0  0
 32 34  1  0  0  0  0
 35 32  1  0  0  0  0
M  RAD  3   2   2   3   3   4   2
M  END
