Coordinates from ORCA-job 4-MeOPhN2+~TsO-_B3LYPG-6-31G_dp-CH-Scan-d09-49-n800
 OpenBabel11261919313D

 35 35  0  0  0  0  0  0  0  0999 V2000
   -1.6963   -0.3389   -0.5680 C   0  0  0  0  0  0  0  0  0  0  0  0
   -3.0464   -0.5511   -0.7653 N   0  0  0  0  0  0  0  0  0  0  0  0
   -4.1465   -0.6799   -0.9422 N   0  0  0  0  0  0  0  0  0  0  0  0
   -1.2453    0.9350   -0.9861 C   0  0  0  0  0  0  0  0  0  0  0  0
    0.1382    1.0510   -0.7450 C   0  0  0  0  0  0  0  0  0  0  0  0
    0.9303    0.0426   -0.1758 C   0  0  0  0  0  0  0  0  0  0  0  0
    2.2474    0.3286   -0.0178 O   0  0  0  0  0  0  0  0  0  0  0  0
    3.1167   -0.6430    0.5500 C   0  0  0  0  0  0  0  0  0  0  0  0
    0.3695   -1.2091    0.2099 C   0  0  0  0  0  0  0  0  0  0  0  0
   -0.9756   -1.4164    0.0134 C   0  0  0  0  0  0  0  0  0  0  0  0
   -4.3652    3.4739   -2.7430 H   0  0  0  0  0  0  0  0  0  0  0  0
    0.6667    1.9695   -1.0048 H   0  0  0  0  0  0  0  0  0  0  0  0
    4.1055   -0.1823    0.5706 H   0  0  0  0  0  0  0  0  0  0  0  0
    3.1576   -1.5550   -0.0579 H   0  0  0  0  0  0  0  0  0  0  0  0
    2.8206   -0.9029    1.5736 H   0  0  0  0  0  0  0  0  0  0  0  0
    0.9789   -1.9890    0.6483 H   0  0  0  0  0  0  0  0  0  0  0  0
   -1.4502   -2.3549    0.2908 H   0  0  0  0  0  0  0  0  0  0  0  0
   -8.0504    3.7667   -1.2394 C   0  0  0  0  0  0  0  0  0  0  0  0
   -9.2407    4.4598   -1.0390 C   0  0  0  0  0  0  0  0  0  0  0  0
  -10.1338    4.6908   -2.0971 C   0  0  0  0  0  0  0  0  0  0  0  0
   -9.8039    4.2062   -3.3703 C   0  0  0  0  0  0  0  0  0  0  0  0
   -8.6180    3.5081   -3.5917 C   0  0  0  0  0  0  0  0  0  0  0  0
   -7.7499    3.2999   -2.5205 C   0  0  0  0  0  0  0  0  0  0  0  0
   -7.3662    3.5783   -0.4193 H   0  0  0  0  0  0  0  0  0  0  0  0
   -9.4819    4.8272   -0.0452 H   0  0  0  0  0  0  0  0  0  0  0  0
  -10.4851    4.3754   -4.1999 H   0  0  0  0  0  0  0  0  0  0  0  0
   -8.3682    3.1228   -4.5739 H   0  0  0  0  0  0  0  0  0  0  0  0
   -6.2277    2.4170   -2.7917 S   0  0  0  0  0  0  0  0  0  0  0  0
   -5.7610    1.8259   -1.5354 O   0  0  0  0  0  0  0  0  0  0  0  0
   -5.2365    3.6875   -3.1206 O   0  0  0  0  0  0  0  0  0  0  0  0
   -6.3566    1.6038   -3.9953 O   0  0  0  0  0  0  0  0  0  0  0  0
  -11.4332    5.4206   -1.8582 C   0  0  0  0  0  0  0  0  0  0  0  0
  -12.1913    4.7437   -1.4448 H   0  0  0  0  0  0  0  0  0  0  0  0
  -11.3053    6.2394   -1.1436 H   0  0  0  0  0  0  0  0  0  0  0  0
  -11.8360    5.8360   -2.7855 H   0  0  0  0  0  0  0  0  0  0  0  0
  1 10  2  0  0  0  0
  2  1  1  0  0  0  0
  3  2  1  0  0  0  0
  4  5  2  0  0  0  0
  4  1  1  0  0  0  0
  5  6  1  0  0  0  0
  6  7  1  0  0  0  0
  6  9  2  0  0  0  0
  7  8  1  0  0  0  0
  8 13  1  0  0  0  0
  8 15  1  0  0  0  0
  9 16  1  0  0  0  0
 10  9  1  0  0  0  0
 10 17  1  0  0  0  0
 12  5  1  0  0  0  0
 14  8  1  0  0  0  0
 18 19  1  0  0  0  0
 18 24  1  0  0  0  0
 19 25  1  0  0  0  0
 20 32  1  0  0  0  0
 20 19  2  0  0  0  0
 21 20  1  0  0  0  0
 22 21  2  0  0  0  0
 22 23  1  0  0  0  0
 23 18  2  0  0  0  0
 26 21  1  0  0  0  0
 27 22  1  0  0  0  0
 28 23  1  0  0  0  0
 28 29  2  0  0  0  0
 30 28  1  0  0  0  0
 30 11  1  0  0  0  0
 31 28  2  0  0  0  0
 32 33  1  0  0  0  0
 32 34  1  0  0  0  0
 35 32  1  0  0  0  0
M  RAD  3   2   2   3   3   4   2
M  END
