Coordinates from ORCA-job 4-MeOPhN2+~TsO-_B3LYPG-6-31G_dp-CH-Scan-d09-49-n800
 OpenBabel11261919313D

 35 35  0  0  0  0  0  0  0  0999 V2000
   -2.1852   -0.3375   -0.1233 C   0  0  0  0  0  0  0  0  0  0  0  0
   -3.4966   -0.6953    0.1017 N   0  0  0  0  0  0  0  0  0  0  0  0
   -4.5721   -0.9572    0.2759 N   0  0  0  0  0  0  0  0  0  0  0  0
   -1.9952    0.9493   -0.6822 C   0  0  0  0  0  0  0  0  0  0  0  0
   -0.6268    1.2087   -0.8669 C   0  0  0  0  0  0  0  0  0  0  0  0
    0.3972    0.3059   -0.5384 C   0  0  0  0  0  0  0  0  0  0  0  0
    1.6627    0.7208   -0.7841 O   0  0  0  0  0  0  0  0  0  0  0  0
    2.7580   -0.1369   -0.4830 C   0  0  0  0  0  0  0  0  0  0  0  0
    0.1034   -0.9692    0.0208 C   0  0  0  0  0  0  0  0  0  0  0  0
   -1.2121   -1.3072    0.2369 C   0  0  0  0  0  0  0  0  0  0  0  0
   -4.0629    2.6987   -1.4756 H   0  0  0  0  0  0  0  0  0  0  0  0
   -0.2981    2.1577   -1.2898 H   0  0  0  0  0  0  0  0  0  0  0  0
    3.6545    0.4160   -0.7659 H   0  0  0  0  0  0  0  0  0  0  0  0
    2.7121   -1.0677   -1.0602 H   0  0  0  0  0  0  0  0  0  0  0  0
    2.8030   -0.3732    0.5870 H   0  0  0  0  0  0  0  0  0  0  0  0
    0.8896   -1.6679    0.2764 H   0  0  0  0  0  0  0  0  0  0  0  0
   -1.4851   -2.2698    0.6617 H   0  0  0  0  0  0  0  0  0  0  0  0
   -8.1003    3.5422   -0.9442 C   0  0  0  0  0  0  0  0  0  0  0  0
   -9.2072    4.3672   -1.1177 C   0  0  0  0  0  0  0  0  0  0  0  0
   -9.6838    4.6827   -2.4003 C   0  0  0  0  0  0  0  0  0  0  0  0
   -9.0200    4.1473   -3.5117 C   0  0  0  0  0  0  0  0  0  0  0  0
   -7.9085    3.3192   -3.3586 C   0  0  0  0  0  0  0  0  0  0  0  0
   -7.4573    3.0287   -2.0724 C   0  0  0  0  0  0  0  0  0  0  0  0
   -7.7397    3.2881    0.0464 H   0  0  0  0  0  0  0  0  0  0  0  0
   -9.7130    4.7715   -0.2451 H   0  0  0  0  0  0  0  0  0  0  0  0
   -9.3782    4.3790   -4.5109 H   0  0  0  0  0  0  0  0  0  0  0  0
   -7.3998    2.8955   -4.2171 H   0  0  0  0  0  0  0  0  0  0  0  0
   -6.0410    1.9676   -1.8661 S   0  0  0  0  0  0  0  0  0  0  0  0
   -6.1322    1.2769   -0.5755 O   0  0  0  0  0  0  0  0  0  0  0  0
   -4.9002    3.1256   -1.7552 O   0  0  0  0  0  0  0  0  0  0  0  0
   -5.8363    1.1903   -3.0870 O   0  0  0  0  0  0  0  0  0  0  0  0
  -10.8996    5.5618   -2.5695 C   0  0  0  0  0  0  0  0  0  0  0  0
  -11.8132    5.0277   -2.2817 H   0  0  0  0  0  0  0  0  0  0  0  0
  -10.8371    6.4543   -1.9387 H   0  0  0  0  0  0  0  0  0  0  0  0
  -11.0184    5.8865   -3.6061 H   0  0  0  0  0  0  0  0  0  0  0  0
  1  2  1  0  0  0  0
  1 10  2  0  0  0  0
  2  3  1  0  0  0  0
  4  1  1  0  0  0  0
  5  4  2  0  0  0  0
  5  6  1  0  0  0  0
  6  9  2  0  0  0  0
  7  6  1  0  0  0  0
  7  8  1  0  0  0  0
  8 15  1  0  0  0  0
  9 10  1  0  0  0  0
  9 16  1  0  0  0  0
 10 17  1  0  0  0  0
 12  5  1  0  0  0  0
 13  8  1  0  0  0  0
 14  8  1  0  0  0  0
 18 24  1  0  0  0  0
 19 18  1  0  0  0  0
 19 25  1  0  0  0  0
 20 19  2  0  0  0  0
 21 22  2  0  0  0  0
 21 20  1  0  0  0  0
 22 23  1  0  0  0  0
 23 28  1  0  0  0  0
 23 18  2  0  0  0  0
 26 21  1  0  0  0  0
 27 22  1  0  0  0  0
 28 30  1  0  0  0  0
 28 29  2  0  0  0  0
 30 11  1  0  0  0  0
 31 28  2  0  0  0  0
 32 20  1  0  0  0  0
 32 33  1  0  0  0  0
 32 34  1  0  0  0  0
 35 32  1  0  0  0  0
M  RAD  3   2   2   3   3   4   2
M  END
