Coordinates from ORCA-job 4-MeOPhN2+~TsO-_B3LYPG-6-31G_dp-CH-Scan-d09-49-n800
 OpenBabel11261919313D

 35 35  0  0  0  0  0  0  0  0999 V2000
   -2.0427   -0.2680   -0.1080 C   0  0  0  0  0  0  0  0  0  0  0  0
   -3.3839   -0.5199    0.0923 N   0  0  0  0  0  0  0  0  0  0  0  0
   -4.4808   -0.6898    0.2481 N   0  0  0  0  0  0  0  0  0  0  0  0
   -1.7485    1.0261   -0.5997 C   0  0  0  0  0  0  0  0  0  0  0  0
   -0.3589    1.1758   -0.7630 C   0  0  0  0  0  0  0  0  0  0  0  0
    0.5829    0.1749   -0.4783 C   0  0  0  0  0  0  0  0  0  0  0  0
    1.8825    0.4930   -0.6976 O   0  0  0  0  0  0  0  0  0  0  0  0
    2.8964   -0.4726   -0.4462 C   0  0  0  0  0  0  0  0  0  0  0  0
    0.1799   -1.0991    0.0135 C   0  0  0  0  0  0  0  0  0  0  0  0
   -1.1608   -1.3360    0.2071 C   0  0  0  0  0  0  0  0  0  0  0  0
   -4.0849    3.2620   -1.5590 H   0  0  0  0  0  0  0  0  0  0  0  0
    0.0540    2.1137   -1.1357 H   0  0  0  0  0  0  0  0  0  0  0  0
    3.8394    0.0125   -0.7015 H   0  0  0  0  0  0  0  0  0  0  0  0
    2.7696   -1.3638   -1.0721 H   0  0  0  0  0  0  0  0  0  0  0  0
    2.9190   -0.7698    0.6093 H   0  0  0  0  0  0  0  0  0  0  0  0
    0.9031   -1.8733    0.2355 H   0  0  0  0  0  0  0  0  0  0  0  0
   -1.5176   -2.2924    0.5819 H   0  0  0  0  0  0  0  0  0  0  0  0
   -8.1949    3.6651   -0.9576 C   0  0  0  0  0  0  0  0  0  0  0  0
   -9.3829    4.3660   -1.1413 C   0  0  0  0  0  0  0  0  0  0  0  0
   -9.8903    4.6111   -2.4275 C   0  0  0  0  0  0  0  0  0  0  0  0
   -9.1740    4.1328   -3.5326 C   0  0  0  0  0  0  0  0  0  0  0  0
   -7.9821    3.4281   -3.3699 C   0  0  0  0  0  0  0  0  0  0  0  0
   -7.5028    3.2056   -2.0800 C   0  0  0  0  0  0  0  0  0  0  0  0
   -7.8085    3.4653    0.0357 H   0  0  0  0  0  0  0  0  0  0  0  0
   -9.9283    4.7273   -0.2737 H   0  0  0  0  0  0  0  0  0  0  0  0
   -9.5548    4.3115   -4.5343 H   0  0  0  0  0  0  0  0  0  0  0  0
   -7.4324    3.0478   -4.2235 H   0  0  0  0  0  0  0  0  0  0  0  0
   -5.9832    2.3037   -1.8610 S   0  0  0  0  0  0  0  0  0  0  0  0
   -5.9713    1.6712   -0.5398 O   0  0  0  0  0  0  0  0  0  0  0  0
   -4.9639    3.5860   -1.8299 O   0  0  0  0  0  0  0  0  0  0  0  0
   -5.7150    1.5035   -3.0536 O   0  0  0  0  0  0  0  0  0  0  0  0
  -11.1921    5.3539   -2.6076 C   0  0  0  0  0  0  0  0  0  0  0  0
  -12.0442    4.7262   -2.3203 H   0  0  0  0  0  0  0  0  0  0  0  0
  -11.2281    6.2518   -1.9828 H   0  0  0  0  0  0  0  0  0  0  0  0
  -11.3399    5.6570   -3.6470 H   0  0  0  0  0  0  0  0  0  0  0  0
  1  2  1  0  0  0  0
  1 10  2  0  0  0  0
  2  3  1  0  0  0  0
  4  1  1  0  0  0  0
  5  4  2  0  0  0  0
  5  6  1  0  0  0  0
  6  9  2  0  0  0  0
  7  6  1  0  0  0  0
  7  8  1  0  0  0  0
  8 15  1  0  0  0  0
  9 10  1  0  0  0  0
  9 16  1  0  0  0  0
 10 17  1  0  0  0  0
 12  5  1  0  0  0  0
 13  8  1  0  0  0  0
 14  8  1  0  0  0  0
 18 24  1  0  0  0  0
 19 18  1  0  0  0  0
 19 25  1  0  0  0  0
 20 19  2  0  0  0  0
 21 22  2  0  0  0  0
 21 20  1  0  0  0  0
 22 23  1  0  0  0  0
 23 28  1  0  0  0  0
 23 18  2  0  0  0  0
 26 21  1  0  0  0  0
 27 22  1  0  0  0  0
 28 30  1  0  0  0  0
 28 29  2  0  0  0  0
 30 11  1  0  0  0  0
 31 28  2  0  0  0  0
 32 20  1  0  0  0  0
 32 33  1  0  0  0  0
 32 34  1  0  0  0  0
 35 32  1  0  0  0  0
M  RAD  3   2   2   3   3   4   2
M  END
