Coordinates from ORCA-job 4-MeOPhN2+~TsO-_B3LYPG-6-31G_dp-CH-Scan-d09-49-n800
 OpenBabel11261919313D

 35 35  0  0  0  0  0  0  0  0999 V2000
   -1.6889   -0.3364   -0.5701 C   0  0  0  0  0  0  0  0  0  0  0  0
   -3.0391   -0.5448   -0.7706 N   0  0  0  0  0  0  0  0  0  0  0  0
   -4.1389   -0.6705   -0.9520 N   0  0  0  0  0  0  0  0  0  0  0  0
   -1.2336    0.9361   -0.9879 C   0  0  0  0  0  0  0  0  0  0  0  0
    0.1496    1.0484   -0.7436 C   0  0  0  0  0  0  0  0  0  0  0  0
    0.9377    0.0382   -0.1721 C   0  0  0  0  0  0  0  0  0  0  0  0
    2.2552    0.3206   -0.0113 O   0  0  0  0  0  0  0  0  0  0  0  0
    3.1207   -0.6530    0.5588 C   0  0  0  0  0  0  0  0  0  0  0  0
    0.3727   -1.2118    0.2129 C   0  0  0  0  0  0  0  0  0  0  0  0
   -0.9725   -1.4156    0.0134 C   0  0  0  0  0  0  0  0  0  0  0  0
   -4.3712    3.4878   -2.7575 H   0  0  0  0  0  0  0  0  0  0  0  0
    0.6812    1.9654   -1.0026 H   0  0  0  0  0  0  0  0  0  0  0  0
    4.1106   -0.1950    0.5814 H   0  0  0  0  0  0  0  0  0  0  0  0
    3.1604   -1.5654   -0.0486 H   0  0  0  0  0  0  0  0  0  0  0  0
    2.8216   -0.9117    1.5818 H   0  0  0  0  0  0  0  0  0  0  0  0
    0.9790   -1.9931    0.6530 H   0  0  0  0  0  0  0  0  0  0  0  0
   -1.4504   -2.3527    0.2902 H   0  0  0  0  0  0  0  0  0  0  0  0
   -8.0501    3.7742   -1.2437 C   0  0  0  0  0  0  0  0  0  0  0  0
   -9.2414    4.4645   -1.0403 C   0  0  0  0  0  0  0  0  0  0  0  0
  -10.1398    4.6896   -2.0951 C   0  0  0  0  0  0  0  0  0  0  0  0
   -9.8141    4.2019   -3.3682 C   0  0  0  0  0  0  0  0  0  0  0  0
   -8.6272    3.5065   -3.5927 C   0  0  0  0  0  0  0  0  0  0  0  0
   -7.7538    3.3041   -2.5246 C   0  0  0  0  0  0  0  0  0  0  0  0
   -7.3617    3.5903   -0.4260 H   0  0  0  0  0  0  0  0  0  0  0  0
   -9.4793    4.8344   -0.0466 H   0  0  0  0  0  0  0  0  0  0  0  0
  -10.4995    4.3665   -4.1954 H   0  0  0  0  0  0  0  0  0  0  0  0
   -8.3805    3.1188   -4.5747 H   0  0  0  0  0  0  0  0  0  0  0  0
   -6.2303    2.4249   -2.7998 S   0  0  0  0  0  0  0  0  0  0  0  0
   -5.7569    1.8378   -1.5441 O   0  0  0  0  0  0  0  0  0  0  0  0
   -5.2434    3.6973   -3.1351 O   0  0  0  0  0  0  0  0  0  0  0  0
   -6.3616    1.6090   -4.0013 O   0  0  0  0  0  0  0  0  0  0  0  0
  -11.4402    5.4165   -1.8529 C   0  0  0  0  0  0  0  0  0  0  0  0
  -12.1948    4.7387   -1.4345 H   0  0  0  0  0  0  0  0  0  0  0  0
  -11.3116    6.2376   -1.1410 H   0  0  0  0  0  0  0  0  0  0  0  0
  -11.8478    5.8283   -2.7797 H   0  0  0  0  0  0  0  0  0  0  0  0
  1 10  2  0  0  0  0
  2  1  1  0  0  0  0
  3  2  1  0  0  0  0
  4  5  2  0  0  0  0
  4  1  1  0  0  0  0
  5  6  1  0  0  0  0
  6  7  1  0  0  0  0
  6  9  2  0  0  0  0
  7  8  1  0  0  0  0
  8 13  1  0  0  0  0
  8 15  1  0  0  0  0
  9 16  1  0  0  0  0
 10  9  1  0  0  0  0
 10 17  1  0  0  0  0
 12  5  1  0  0  0  0
 14  8  1  0  0  0  0
 18 19  1  0  0  0  0
 18 24  1  0  0  0  0
 19 25  1  0  0  0  0
 20 32  1  0  0  0  0
 20 19  2  0  0  0  0
 21 20  1  0  0  0  0
 22 21  2  0  0  0  0
 22 23  1  0  0  0  0
 23 18  2  0  0  0  0
 26 21  1  0  0  0  0
 27 22  1  0  0  0  0
 28 23  1  0  0  0  0
 28 29  2  0  0  0  0
 30 28  1  0  0  0  0
 30 11  1  0  0  0  0
 31 28  2  0  0  0  0
 32 33  1  0  0  0  0
 32 34  1  0  0  0  0
 35 32  1  0  0  0  0
M  RAD  3   2   2   3   3   4   2
M  END
