Coordinates from ORCA-job 4-MeOPhN2+~TsO-_B3LYPG-6-31G_dp-CH-Scan-d09-49-n800
 OpenBabel11261919313D

 35 35  0  0  0  0  0  0  0  0999 V2000
   -2.0888   -0.2890   -0.1058 C   0  0  0  0  0  0  0  0  0  0  0  0
   -3.4204   -0.5753    0.1082 N   0  0  0  0  0  0  0  0  0  0  0  0
   -4.5106   -0.7754    0.2744 N   0  0  0  0  0  0  0  0  0  0  0  0
   -1.8302    1.0041   -0.6203 C   0  0  0  0  0  0  0  0  0  0  0  0
   -0.4469    1.1890   -0.7952 C   0  0  0  0  0  0  0  0  0  0  0  0
    0.5232    0.2185   -0.4996 C   0  0  0  0  0  0  0  0  0  0  0  0
    1.8120    0.5681   -0.7314 O   0  0  0  0  0  0  0  0  0  0  0  0
    2.8537   -0.3646   -0.4682 C   0  0  0  0  0  0  0  0  0  0  0  0
    0.1571   -1.0573    0.0150 C   0  0  0  0  0  0  0  0  0  0  0  0
   -1.1757   -1.3268    0.2206 C   0  0  0  0  0  0  0  0  0  0  0  0
   -4.0758    3.0733   -1.5183 H   0  0  0  0  0  0  0  0  0  0  0  0
   -0.0621    2.1315   -1.1855 H   0  0  0  0  0  0  0  0  0  0  0  0
    3.7817    0.1426   -0.7352 H   0  0  0  0  0  0  0  0  0  0  0  0
    2.7497   -1.2692   -1.0788 H   0  0  0  0  0  0  0  0  0  0  0  0
    2.8881   -0.6432    0.5921 H   0  0  0  0  0  0  0  0  0  0  0  0
    0.9021   -1.8082    0.2453 H   0  0  0  0  0  0  0  0  0  0  0  0
   -1.5043   -2.2862    0.6126 H   0  0  0  0  0  0  0  0  0  0  0  0
   -8.1712    3.6189   -0.9527 C   0  0  0  0  0  0  0  0  0  0  0  0
   -9.3334    4.3620   -1.1358 C   0  0  0  0  0  0  0  0  0  0  0  0
   -9.8247    4.6364   -2.4224 C   0  0  0  0  0  0  0  0  0  0  0  0
   -9.1188    4.1443   -3.5281 C   0  0  0  0  0  0  0  0  0  0  0  0
   -7.9526    3.3977   -3.3656 C   0  0  0  0  0  0  0  0  0  0  0  0
   -7.4886    3.1465   -2.0755 C   0  0  0  0  0  0  0  0  0  0  0  0
   -7.7979    3.3962    0.0408 H   0  0  0  0  0  0  0  0  0  0  0  0
   -9.8711    4.7333   -0.2677 H   0  0  0  0  0  0  0  0  0  0  0  0
   -9.4876    4.3453   -4.5300 H   0  0  0  0  0  0  0  0  0  0  0  0
   -7.4114    3.0067   -4.2198 H   0  0  0  0  0  0  0  0  0  0  0  0
   -6.0025    2.1898   -1.8572 S   0  0  0  0  0  0  0  0  0  0  0  0
   -6.0282    1.5337   -0.5473 O   0  0  0  0  0  0  0  0  0  0  0  0
   -4.9410    3.4328   -1.7932 O   0  0  0  0  0  0  0  0  0  0  0  0
   -5.7517    1.3993   -3.0603 O   0  0  0  0  0  0  0  0  0  0  0  0
  -11.0992    5.4254   -2.6022 C   0  0  0  0  0  0  0  0  0  0  0  0
  -11.9728    4.8309   -2.3090 H   0  0  0  0  0  0  0  0  0  0  0  0
  -11.1007    6.3271   -1.9817 H   0  0  0  0  0  0  0  0  0  0  0  0
  -11.2390    5.7291   -3.6425 H   0  0  0  0  0  0  0  0  0  0  0  0
  1  2  1  0  0  0  0
  1 10  2  0  0  0  0
  2  3  1  0  0  0  0
  4  1  1  0  0  0  0
  5  4  2  0  0  0  0
  5  6  1  0  0  0  0
  6  9  2  0  0  0  0
  7  6  1  0  0  0  0
  7  8  1  0  0  0  0
  8 15  1  0  0  0  0
  9 10  1  0  0  0  0
  9 16  1  0  0  0  0
 10 17  1  0  0  0  0
 12  5  1  0  0  0  0
 13  8  1  0  0  0  0
 14  8  1  0  0  0  0
 18 24  1  0  0  0  0
 19 18  1  0  0  0  0
 19 25  1  0  0  0  0
 20 19  2  0  0  0  0
 21 22  2  0  0  0  0
 21 20  1  0  0  0  0
 22 23  1  0  0  0  0
 23 28  1  0  0  0  0
 23 18  2  0  0  0  0
 26 21  1  0  0  0  0
 27 22  1  0  0  0  0
 28 30  1  0  0  0  0
 28 29  2  0  0  0  0
 30 11  1  0  0  0  0
 31 28  2  0  0  0  0
 32 20  1  0  0  0  0
 32 33  1  0  0  0  0
 32 34  1  0  0  0  0
 35 32  1  0  0  0  0
M  RAD  3   2   2   3   3   4   2
M  END
