Coordinates from ORCA-job 4-MeOPhN2+~TsO-_B3LYPG-6-31G_dp-CH-Scan-d09-49-n800
 OpenBabel11261919313D

 35 35  0  0  0  0  0  0  0  0999 V2000
   -2.0068   -0.2556   -0.1107 C   0  0  0  0  0  0  0  0  0  0  0  0
   -3.3544   -0.4837    0.0774 N   0  0  0  0  0  0  0  0  0  0  0  0
   -4.4562   -0.6335    0.2200 N   0  0  0  0  0  0  0  0  0  0  0  0
   -1.6878    1.0377   -0.5882 C   0  0  0  0  0  0  0  0  0  0  0  0
   -0.2942    1.1636   -0.7411 C   0  0  0  0  0  0  0  0  0  0  0  0
    0.6275    0.1434   -0.4603 C   0  0  0  0  0  0  0  0  0  0  0  0
    1.9343    0.4398   -0.6691 O   0  0  0  0  0  0  0  0  0  0  0  0
    2.9288   -0.5464   -0.4217 C   0  0  0  0  0  0  0  0  0  0  0  0
    0.1989   -1.1278    0.0173 C   0  0  0  0  0  0  0  0  0  0  0  0
   -1.1471   -1.3427    0.2004 C   0  0  0  0  0  0  0  0  0  0  0  0
   -4.0974    3.3874   -1.5962 H   0  0  0  0  0  0  0  0  0  0  0  0
    0.1381    2.0975   -1.1022 H   0  0  0  0  0  0  0  0  0  0  0  0
    3.8820   -0.0767   -0.6681 H   0  0  0  0  0  0  0  0  0  0  0  0
    2.7889   -1.4297   -1.0563 H   0  0  0  0  0  0  0  0  0  0  0  0
    2.9409   -0.8538    0.6311 H   0  0  0  0  0  0  0  0  0  0  0  0
    0.9069   -1.9168    0.2367 H   0  0  0  0  0  0  0  0  0  0  0  0
   -1.5232   -2.2958    0.5643 H   0  0  0  0  0  0  0  0  0  0  0  0
   -8.2086    3.6983   -0.9658 C   0  0  0  0  0  0  0  0  0  0  0  0
   -9.4135    4.3713   -1.1439 C   0  0  0  0  0  0  0  0  0  0  0  0
   -9.9374    4.5958   -2.4273 C   0  0  0  0  0  0  0  0  0  0  0  0
   -9.2202    4.1254   -3.5354 C   0  0  0  0  0  0  0  0  0  0  0  0
   -8.0115    3.4487   -3.3783 C   0  0  0  0  0  0  0  0  0  0  0  0
   -7.5162    3.2464   -2.0910 C   0  0  0  0  0  0  0  0  0  0  0  0
   -7.8092    3.5145    0.0255 H   0  0  0  0  0  0  0  0  0  0  0  0
   -9.9591    4.7268   -0.2741 H   0  0  0  0  0  0  0  0  0  0  0  0
   -9.6136    4.2884   -4.5349 H   0  0  0  0  0  0  0  0  0  0  0  0
   -7.4609    3.0747   -4.2341 H   0  0  0  0  0  0  0  0  0  0  0  0
   -5.9749    2.3811   -1.8790 S   0  0  0  0  0  0  0  0  0  0  0  0
   -5.9354    1.7595   -0.5534 O   0  0  0  0  0  0  0  0  0  0  0  0
   -4.9845    3.6881   -1.8657 O   0  0  0  0  0  0  0  0  0  0  0  0
   -5.6971    1.5799   -3.0685 O   0  0  0  0  0  0  0  0  0  0  0  0
  -11.2569    5.3082   -2.6012 C   0  0  0  0  0  0  0  0  0  0  0  0
  -12.0929    4.6600   -2.3124 H   0  0  0  0  0  0  0  0  0  0  0  0
  -11.3114    6.2036   -1.9743 H   0  0  0  0  0  0  0  0  0  0  0  0
  -11.4155    5.6098   -3.6395 H   0  0  0  0  0  0  0  0  0  0  0  0
  1  2  1  0  0  0  0
  1 10  2  0  0  0  0
  2  3  1  0  0  0  0
  4  1  1  0  0  0  0
  5  4  2  0  0  0  0
  5  6  1  0  0  0  0
  6  9  2  0  0  0  0
  7  6  1  0  0  0  0
  7  8  1  0  0  0  0
  8 15  1  0  0  0  0
  9 10  1  0  0  0  0
  9 16  1  0  0  0  0
 10 17  1  0  0  0  0
 12  5  1  0  0  0  0
 13  8  1  0  0  0  0
 14  8  1  0  0  0  0
 18 24  1  0  0  0  0
 19 18  1  0  0  0  0
 19 25  1  0  0  0  0
 20 19  2  0  0  0  0
 21 22  2  0  0  0  0
 21 20  1  0  0  0  0
 22 23  1  0  0  0  0
 23 28  1  0  0  0  0
 23 18  2  0  0  0  0
 26 21  1  0  0  0  0
 27 22  1  0  0  0  0
 28 30  1  0  0  0  0
 28 29  2  0  0  0  0
 30 11  1  0  0  0  0
 31 28  2  0  0  0  0
 32 20  1  0  0  0  0
 32 33  1  0  0  0  0
 32 34  1  0  0  0  0
 35 32  1  0  0  0  0
M  RAD  3   2   2   3   3   4   2
M  END
