Coordinates from ORCA-job 4-MeOPhN2+~TsO-_B3LYPG-6-31G_dp-CH-Scan-d09-49-n800
 OpenBabel11261919313D

 35 35  0  0  0  0  0  0  0  0999 V2000
   -1.9914   -0.2510   -0.1139 C   0  0  0  0  0  0  0  0  0  0  0  0
   -3.3416   -0.4694    0.0669 N   0  0  0  0  0  0  0  0  0  0  0  0
   -4.4453   -0.6088    0.2055 N   0  0  0  0  0  0  0  0  0  0  0  0
   -1.6617    1.0426   -0.5839 C   0  0  0  0  0  0  0  0  0  0  0  0
   -0.2663    1.1584   -0.7304 C   0  0  0  0  0  0  0  0  0  0  0  0
    0.6467    0.1301   -0.4510 C   0  0  0  0  0  0  0  0  0  0  0  0
    1.9566    0.4177   -0.6535 O   0  0  0  0  0  0  0  0  0  0  0  0
    2.9427   -0.5770   -0.4074 C   0  0  0  0  0  0  0  0  0  0  0  0
    0.2070   -1.1402    0.0190 C   0  0  0  0  0  0  0  0  0  0  0  0
   -1.1412   -1.3461    0.1957 C   0  0  0  0  0  0  0  0  0  0  0  0
   -4.1031    3.4388   -1.6166 H   0  0  0  0  0  0  0  0  0  0  0  0
    0.1746    2.0907   -1.0853 H   0  0  0  0  0  0  0  0  0  0  0  0
    3.9003   -0.1134   -0.6485 H   0  0  0  0  0  0  0  0  0  0  0  0
    2.7983   -1.4563   -1.0464 H   0  0  0  0  0  0  0  0  0  0  0  0
    2.9492   -0.8893    0.6440 H   0  0  0  0  0  0  0  0  0  0  0  0
    0.9084   -1.9354    0.2374 H   0  0  0  0  0  0  0  0  0  0  0  0
   -1.5259   -2.2981    0.5537 H   0  0  0  0  0  0  0  0  0  0  0  0
   -8.2122    3.7138   -0.9705 C   0  0  0  0  0  0  0  0  0  0  0  0
   -9.4242    4.3751   -1.1445 C   0  0  0  0  0  0  0  0  0  0  0  0
   -9.9574    4.5895   -2.4257 C   0  0  0  0  0  0  0  0  0  0  0  0
   -9.2424    4.1210   -3.5360 C   0  0  0  0  0  0  0  0  0  0  0  0
   -8.0267    3.4560   -3.3831 C   0  0  0  0  0  0  0  0  0  0  0  0
   -7.5222    3.2635   -2.0978 C   0  0  0  0  0  0  0  0  0  0  0  0
   -7.8056    3.5379    0.0192 H   0  0  0  0  0  0  0  0  0  0  0  0
   -9.9680    4.7293   -0.2730 H   0  0  0  0  0  0  0  0  0  0  0  0
   -9.6429    4.2763   -4.5339 H   0  0  0  0  0  0  0  0  0  0  0  0
   -7.4775    3.0835   -4.2405 H   0  0  0  0  0  0  0  0  0  0  0  0
   -5.9719    2.4135   -1.8910 S   0  0  0  0  0  0  0  0  0  0  0  0
   -5.9190    1.7970   -0.5638 O   0  0  0  0  0  0  0  0  0  0  0  0
   -4.9931    3.7299   -1.8862 O   0  0  0  0  0  0  0  0  0  0  0  0
   -5.6922    1.6120   -3.0799 O   0  0  0  0  0  0  0  0  0  0  0  0
  -11.2842    5.2893   -2.5950 C   0  0  0  0  0  0  0  0  0  0  0  0
  -12.1130    4.6332   -2.3030 H   0  0  0  0  0  0  0  0  0  0  0  0
  -11.3448    6.1842   -1.9681 H   0  0  0  0  0  0  0  0  0  0  0  0
  -11.4495    5.5890   -3.6328 H   0  0  0  0  0  0  0  0  0  0  0  0
  1  2  1  0  0  0  0
  1 10  2  0  0  0  0
  2  3  1  0  0  0  0
  4  1  1  0  0  0  0
  5  4  2  0  0  0  0
  5  6  1  0  0  0  0
  6  9  2  0  0  0  0
  7  6  1  0  0  0  0
  7  8  1  0  0  0  0
  8 15  1  0  0  0  0
  9 10  1  0  0  0  0
  9 16  1  0  0  0  0
 10 17  1  0  0  0  0
 12  5  1  0  0  0  0
 13  8  1  0  0  0  0
 14  8  1  0  0  0  0
 18 24  1  0  0  0  0
 19 18  1  0  0  0  0
 19 25  1  0  0  0  0
 20 19  2  0  0  0  0
 21 22  2  0  0  0  0
 21 20  1  0  0  0  0
 22 23  1  0  0  0  0
 23 28  1  0  0  0  0
 23 18  2  0  0  0  0
 26 21  1  0  0  0  0
 27 22  1  0  0  0  0
 28 30  1  0  0  0  0
 28 29  2  0  0  0  0
 30 11  1  0  0  0  0
 31 28  2  0  0  0  0
 32 20  1  0  0  0  0
 32 33  1  0  0  0  0
 32 34  1  0  0  0  0
 35 32  1  0  0  0  0
M  RAD  3   2   2   3   3   4   2
M  END
