Coordinates from ORCA-job 4-MeOPhN2+~TsO-_B3LYPG-6-31G_dp-CH-Scan-d09-49-n800
 OpenBabel11261919303D

 35 35  0  0  0  0  0  0  0  0999 V2000
   -2.6356   -0.4959   -0.3853 C   0  0  0  0  0  0  0  0  0  0  0  0
   -3.8555   -1.1132   -0.2427 N   0  0  0  0  0  0  0  0  0  0  0  0
   -4.8809   -1.5505   -0.1525 N   0  0  0  0  0  0  0  0  0  0  0  0
   -2.6024    0.7255   -1.0985 C   0  0  0  0  0  0  0  0  0  0  0  0
   -1.3325    1.2824   -1.1980 C   0  0  0  0  0  0  0  0  0  0  0  0
   -0.1902    0.6783   -0.6390 C   0  0  0  0  0  0  0  0  0  0  0  0
    0.9699    1.3360   -0.8201 O   0  0  0  0  0  0  0  0  0  0  0  0
    2.1820    0.7933   -0.2975 C   0  0  0  0  0  0  0  0  0  0  0  0
   -0.2886   -0.5502    0.0625 C   0  0  0  0  0  0  0  0  0  0  0  0
   -1.5231   -1.1494    0.1922 C   0  0  0  0  0  0  0  0  0  0  0  0
   -3.7721    1.3356   -1.7019 H   0  0  0  0  0  0  0  0  0  0  0  0
   -1.1870    2.2208   -1.7261 H   0  0  0  0  0  0  0  0  0  0  0  0
    2.9649    1.4977   -0.5787 H   0  0  0  0  0  0  0  0  0  0  0  0
    2.4013   -0.1867   -0.7359 H   0  0  0  0  0  0  0  0  0  0  0  0
    2.1422    0.7094    0.7945 H   0  0  0  0  0  0  0  0  0  0  0  0
    0.5841   -1.0230    0.4933 H   0  0  0  0  0  0  0  0  0  0  0  0
   -1.6365   -2.0908    0.7205 H   0  0  0  0  0  0  0  0  0  0  0  0
   -7.5212    3.3215   -0.9306 C   0  0  0  0  0  0  0  0  0  0  0  0
   -8.4028    4.3973   -1.0021 C   0  0  0  0  0  0  0  0  0  0  0  0
   -9.0158    4.7537   -2.2129 C   0  0  0  0  0  0  0  0  0  0  0  0
   -8.7212    3.9988   -3.3558 C   0  0  0  0  0  0  0  0  0  0  0  0
   -7.8420    2.9178   -3.2995 C   0  0  0  0  0  0  0  0  0  0  0  0
   -7.2427    2.5876   -2.0848 C   0  0  0  0  0  0  0  0  0  0  0  0
   -7.0591    3.0373    0.0083 H   0  0  0  0  0  0  0  0  0  0  0  0
   -8.6228    4.9689   -0.1035 H   0  0  0  0  0  0  0  0  0  0  0  0
   -9.1892    4.2582   -4.3019 H   0  0  0  0  0  0  0  0  0  0  0  0
   -7.6253    2.3236   -4.1806 H   0  0  0  0  0  0  0  0  0  0  0  0
   -6.0877    1.2184   -2.0180 S   0  0  0  0  0  0  0  0  0  0  0  0
   -6.1275    0.6763   -0.6343 O   0  0  0  0  0  0  0  0  0  0  0  0
   -4.7229    1.9048   -2.2664 O   0  0  0  0  0  0  0  0  0  0  0  0
   -6.4392    0.2877   -3.1014 O   0  0  0  0  0  0  0  0  0  0  0  0
   -9.9933    5.9037   -2.2721 C   0  0  0  0  0  0  0  0  0  0  0  0
  -10.9803    5.6038   -1.8980 H   0  0  0  0  0  0  0  0  0  0  0  0
   -9.6589    6.7457   -1.6576 H   0  0  0  0  0  0  0  0  0  0  0  0
  -10.1276    6.2629   -3.2960 H   0  0  0  0  0  0  0  0  0  0  0  0
  1  2  1  0  0  0  0
  1 10  2  0  0  0  0
  2  3  1  0  0  0  0
  4  1  1  0  0  0  0
  5  4  2  0  0  0  0
  5  6  1  0  0  0  0
  6  9  2  0  0  0  0
  7  6  1  0  0  0  0
  7  8  1  0  0  0  0
  8 15  1  0  0  0  0
  9 10  1  0  0  0  0
  9 16  1  0  0  0  0
 10 17  1  0  0  0  0
 12  5  1  0  0  0  0
 13  8  1  0  0  0  0
 14  8  1  0  0  0  0
 18 24  1  0  0  0  0
 19 18  1  0  0  0  0
 19 25  1  0  0  0  0
 20 19  2  0  0  0  0
 21 22  2  0  0  0  0
 21 20  1  0  0  0  0
 22 23  1  0  0  0  0
 23 28  1  0  0  0  0
 23 18  2  0  0  0  0
 26 21  1  0  0  0  0
 27 22  1  0  0  0  0
 28 29  2  0  0  0  0
 30 28  1  0  0  0  0
 30 11  1  0  0  0  0
 31 28  2  0  0  0  0
 32 20  1  0  0  0  0
 32 33  1  0  0  0  0
 32 34  1  0  0  0  0
 35 32  1  0  0  0  0
M  RAD  3   2   2   3   3   4   2
M  END
