Coordinates from ORCA-job 4-MeOPhN2+~TsO-_B3LYPG-6-31G_dp-CH-Scan-d09-49-n800
 OpenBabel11261919313D

 35 35  0  0  0  0  0  0  0  0999 V2000
   -2.0724   -0.2813   -0.1061 C   0  0  0  0  0  0  0  0  0  0  0  0
   -3.4074   -0.5556    0.1039 N   0  0  0  0  0  0  0  0  0  0  0  0
   -4.5000   -0.7458    0.2660 N   0  0  0  0  0  0  0  0  0  0  0  0
   -1.8015    1.0119   -0.6135 C   0  0  0  0  0  0  0  0  0  0  0  0
   -0.4159    1.1845   -0.7848 C   0  0  0  0  0  0  0  0  0  0  0  0
    0.5445    0.2035   -0.4925 C   0  0  0  0  0  0  0  0  0  0  0  0
    1.8371    0.5420   -0.7203 O   0  0  0  0  0  0  0  0  0  0  0  0
    2.8692   -0.4021   -0.4607 C   0  0  0  0  0  0  0  0  0  0  0  0
    0.1656   -1.0716    0.0151 C   0  0  0  0  0  0  0  0  0  0  0  0
   -1.1700   -1.3296    0.2169 C   0  0  0  0  0  0  0  0  0  0  0  0
   -4.0792    3.1371   -1.5327 H   0  0  0  0  0  0  0  0  0  0  0  0
   -0.0213    2.1252   -1.1696 H   0  0  0  0  0  0  0  0  0  0  0  0
    3.8025    0.0972   -0.7240 H   0  0  0  0  0  0  0  0  0  0  0  0
    2.7571   -1.3025   -1.0762 H   0  0  0  0  0  0  0  0  0  0  0  0
    2.8997   -0.6868    0.5980 H   0  0  0  0  0  0  0  0  0  0  0  0
    0.9031   -1.8306    0.2428 H   0  0  0  0  0  0  0  0  0  0  0  0
   -1.5084   -2.2879    0.6035 H   0  0  0  0  0  0  0  0  0  0  0  0
   -8.1805    3.6335   -0.9544 C   0  0  0  0  0  0  0  0  0  0  0  0
   -9.3515    4.3626   -1.1377 C   0  0  0  0  0  0  0  0  0  0  0  0
   -9.8478    4.6283   -2.4242 C   0  0  0  0  0  0  0  0  0  0  0  0
   -9.1379    4.1417   -3.5298 C   0  0  0  0  0  0  0  0  0  0  0  0
   -7.9629    3.4090   -3.3673 C   0  0  0  0  0  0  0  0  0  0  0  0
   -7.4942    3.1664   -2.0772 C   0  0  0  0  0  0  0  0  0  0  0  0
   -7.8031    3.4178    0.0390 H   0  0  0  0  0  0  0  0  0  0  0  0
   -9.8923    4.7299   -0.2698 H   0  0  0  0  0  0  0  0  0  0  0  0
   -9.5104    4.3360   -4.5317 H   0  0  0  0  0  0  0  0  0  0  0  0
   -7.4184    3.0222   -4.2213 H   0  0  0  0  0  0  0  0  0  0  0  0
   -5.9966    2.2280   -1.8587 S   0  0  0  0  0  0  0  0  0  0  0  0
   -6.0091    1.5798   -0.5449 O   0  0  0  0  0  0  0  0  0  0  0  0
   -4.9492    3.4846   -1.8063 O   0  0  0  0  0  0  0  0  0  0  0  0
   -5.7402    1.4340   -3.0582 O   0  0  0  0  0  0  0  0  0  0  0  0
  -11.1317    5.4019   -2.6042 C   0  0  0  0  0  0  0  0  0  0  0  0
  -11.9981    4.7962   -2.3129 H   0  0  0  0  0  0  0  0  0  0  0  0
  -11.1447    6.3025   -1.9823 H   0  0  0  0  0  0  0  0  0  0  0  0
  -11.2741    5.7053   -3.6442 H   0  0  0  0  0  0  0  0  0  0  0  0
  1  2  1  0  0  0  0
  1 10  2  0  0  0  0
  2  3  1  0  0  0  0
  4  1  1  0  0  0  0
  5  4  2  0  0  0  0
  5  6  1  0  0  0  0
  6  9  2  0  0  0  0
  7  6  1  0  0  0  0
  7  8  1  0  0  0  0
  8 15  1  0  0  0  0
  9 10  1  0  0  0  0
  9 16  1  0  0  0  0
 10 17  1  0  0  0  0
 12  5  1  0  0  0  0
 13  8  1  0  0  0  0
 14  8  1  0  0  0  0
 18 24  1  0  0  0  0
 19 18  1  0  0  0  0
 19 25  1  0  0  0  0
 20 19  2  0  0  0  0
 21 22  2  0  0  0  0
 21 20  1  0  0  0  0
 22 23  1  0  0  0  0
 23 28  1  0  0  0  0
 23 18  2  0  0  0  0
 26 21  1  0  0  0  0
 27 22  1  0  0  0  0
 28 30  1  0  0  0  0
 28 29  2  0  0  0  0
 30 11  1  0  0  0  0
 31 28  2  0  0  0  0
 32 20  1  0  0  0  0
 32 33  1  0  0  0  0
 32 34  1  0  0  0  0
 35 32  1  0  0  0  0
M  RAD  3   2   2   3   3   4   2
M  END
