Coordinates from ORCA-job 4-MeOPhN2+~TsO-_B3LYPG-6-31G_dp-CH-Scan-d09-49-n800
 OpenBabel11261919303D

 35 35  0  0  0  0  0  0  0  0999 V2000
   -2.7673   -0.0939   -0.3881 C   0  0  0  0  0  0  0  0  0  0  0  0
   -4.1263   -0.3686   -0.4151 N   0  0  0  0  0  0  0  0  0  0  0  0
   -5.2233   -0.0476   -0.4359 N   0  0  0  0  0  0  0  0  0  0  0  0
   -2.3024    1.2382   -0.3214 C   0  0  0  0  0  0  0  0  0  0  0  0
   -0.9378    1.4444   -0.3014 C   0  0  0  0  0  0  0  0  0  0  0  0
   -0.0378    0.3593   -0.3477 C   0  0  0  0  0  0  0  0  0  0  0  0
    1.2665    0.6892   -0.3226 O   0  0  0  0  0  0  0  0  0  0  0  0
    2.2499   -0.3424   -0.3816 C   0  0  0  0  0  0  0  0  0  0  0  0
   -0.5207   -0.9618   -0.4142 C   0  0  0  0  0  0  0  0  0  0  0  0
   -1.8891   -1.1843   -0.4336 C   0  0  0  0  0  0  0  0  0  0  0  0
   -2.9650    2.0200   -0.2952 H   0  0  0  0  0  0  0  0  0  0  0  0
   -0.5335    2.4497   -0.2579 H   0  0  0  0  0  0  0  0  0  0  0  0
    3.2129    0.1664   -0.3509 H   0  0  0  0  0  0  0  0  0  0  0  0
    2.1697   -0.9144   -1.3131 H   0  0  0  0  0  0  0  0  0  0  0  0
    2.1681   -1.0196    0.4766 H   0  0  0  0  0  0  0  0  0  0  0  0
    0.1563   -1.8052   -0.4523 H   0  0  0  0  0  0  0  0  0  0  0  0
   -2.2866   -2.1920   -0.4879 H   0  0  0  0  0  0  0  0  0  0  0  0
   -7.1613    4.5962   -1.6070 C   0  0  0  0  0  0  0  0  0  0  0  0
   -8.4421    5.1083   -1.8064 C   0  0  0  0  0  0  0  0  0  0  0  0
   -9.4415    4.3427   -2.4242 C   0  0  0  0  0  0  0  0  0  0  0  0
   -9.1190    3.0469   -2.8505 C   0  0  0  0  0  0  0  0  0  0  0  0
   -7.8423    2.5211   -2.6574 C   0  0  0  0  0  0  0  0  0  0  0  0
   -6.8688    3.2990   -2.0302 C   0  0  0  0  0  0  0  0  0  0  0  0
   -6.3833    5.1960   -1.1473 H   0  0  0  0  0  0  0  0  0  0  0  0
   -8.6683    6.1217   -1.4843 H   0  0  0  0  0  0  0  0  0  0  0  0
   -9.8760    2.4436   -3.3459 H   0  0  0  0  0  0  0  0  0  0  0  0
   -7.5881    1.5258   -3.0051 H   0  0  0  0  0  0  0  0  0  0  0  0
   -5.2320    2.6198   -1.7442 S   0  0  0  0  0  0  0  0  0  0  0  0
   -5.3067    1.9940   -0.3301 O   0  0  0  0  0  0  0  0  0  0  0  0
   -4.2892    3.7555   -1.7200 O   0  0  0  0  0  0  0  0  0  0  0  0
   -5.0065    1.5663   -2.7571 O   0  0  0  0  0  0  0  0  0  0  0  0
  -10.8348    4.8952   -2.6099 C   0  0  0  0  0  0  0  0  0  0  0  0
  -11.4608    4.6942   -1.7305 H   0  0  0  0  0  0  0  0  0  0  0  0
  -10.8196    5.9800   -2.7554 H   0  0  0  0  0  0  0  0  0  0  0  0
  -11.3331    4.4436   -3.4728 H   0  0  0  0  0  0  0  0  0  0  0  0
  1  4  2  0  0  0  0
  2  1  1  0  0  0  0
  3  2  2  0  0  0  0
  4  5  1  0  0  0  0
  4 11  1  0  0  0  0
  5 12  1  0  0  0  0
  6  7  1  0  0  0  0
  6  5  2  0  0  0  0
  8 13  1  0  0  0  0
  8  7  1  0  0  0  0
  8 15  1  0  0  0  0
  9  6  1  0  0  0  0
 10  9  2  0  0  0  0
 10  1  1  0  0  0  0
 14  8  1  0  0  0  0
 16  9  1  0  0  0  0
 17 10  1  0  0  0  0
 18 24  1  0  0  0  0
 19 18  1  0  0  0  0
 19 25  1  0  0  0  0
 20 19  2  0  0  0  0
 21 22  2  0  0  0  0
 21 20  1  0  0  0  0
 22 23  1  0  0  0  0
 23 28  1  0  0  0  0
 23 18  2  0  0  0  0
 26 21  1  0  0  0  0
 27 22  1  0  0  0  0
 28 30  2  0  0  0  0
 28 29  1  0  0  0  0
 31 28  2  0  0  0  0
 32 20  1  0  0  0  0
 32 33  1  0  0  0  0
 34 32  1  0  0  0  0
 35 32  1  0  0  0  0
M  RAD  2   3   2  29   2
M  END
