Coordinates from ORCA-job 4-MeOPhN2+~TsO-_B3LYPG-6-31G_dp-CH-Scan-d09-49-n800
 OpenBabel11261919313D

 35 35  0  0  0  0  0  0  0  0999 V2000
   -2.0639   -0.2762   -0.1067 C   0  0  0  0  0  0  0  0  0  0  0  0
   -3.4010   -0.5429    0.1001 N   0  0  0  0  0  0  0  0  0  0  0  0
   -4.4950   -0.7258    0.2613 N   0  0  0  0  0  0  0  0  0  0  0  0
   -1.7851    1.0180   -0.6077 C   0  0  0  0  0  0  0  0  0  0  0  0
   -0.3981    1.1826   -0.7765 C   0  0  0  0  0  0  0  0  0  0  0  0
    0.5560    0.1944   -0.4881 C   0  0  0  0  0  0  0  0  0  0  0  0
    1.8510    0.5260   -0.7131 O   0  0  0  0  0  0  0  0  0  0  0  0
    2.8769   -0.4260   -0.4578 C   0  0  0  0  0  0  0  0  0  0  0  0
    0.1689   -1.0808    0.0129 C   0  0  0  0  0  0  0  0  0  0  0  0
   -1.1685   -1.3316    0.2121 C   0  0  0  0  0  0  0  0  0  0  0  0
   -4.0792    3.1811   -1.5396 H   0  0  0  0  0  0  0  0  0  0  0  0
    0.0028    2.1228   -1.1564 H   0  0  0  0  0  0  0  0  0  0  0  0
    3.8135    0.0686   -0.7183 H   0  0  0  0  0  0  0  0  0  0  0  0
    2.7593   -1.3226   -1.0777 H   0  0  0  0  0  0  0  0  0  0  0  0
    2.9052   -0.7161    0.5995 H   0  0  0  0  0  0  0  0  0  0  0  0
    0.9015   -1.8454    0.2377 H   0  0  0  0  0  0  0  0  0  0  0  0
   -1.5132   -2.2896    0.5940 H   0  0  0  0  0  0  0  0  0  0  0  0
   -8.1848    3.6446   -0.9545 C   0  0  0  0  0  0  0  0  0  0  0  0
   -9.3619    4.3635   -1.1391 C   0  0  0  0  0  0  0  0  0  0  0  0
   -9.8612    4.6214   -2.4259 C   0  0  0  0  0  0  0  0  0  0  0  0
   -9.1481    4.1375   -3.5307 C   0  0  0  0  0  0  0  0  0  0  0  0
   -7.9671    3.4148   -3.3669 C   0  0  0  0  0  0  0  0  0  0  0  0
   -7.4955    3.1798   -2.0764 C   0  0  0  0  0  0  0  0  0  0  0  0
   -7.8048    3.4349    0.0393 H   0  0  0  0  0  0  0  0  0  0  0  0
   -9.9050    4.7289   -0.2718 H   0  0  0  0  0  0  0  0  0  0  0  0
   -9.5228    4.3259   -4.5328 H   0  0  0  0  0  0  0  0  0  0  0  0
   -7.4201    3.0301   -4.2202 H   0  0  0  0  0  0  0  0  0  0  0  0
   -5.9901    2.2545   -1.8563 S   0  0  0  0  0  0  0  0  0  0  0  0
   -5.9945    1.6130   -0.5392 O   0  0  0  0  0  0  0  0  0  0  0  0
   -4.9525    3.5203   -1.8122 O   0  0  0  0  0  0  0  0  0  0  0  0
   -5.7291    1.4572   -3.0525 O   0  0  0  0  0  0  0  0  0  0  0  0
  -11.1515    5.3839   -2.6072 C   0  0  0  0  0  0  0  0  0  0  0  0
  -12.0131    4.7701   -2.3182 H   0  0  0  0  0  0  0  0  0  0  0  0
  -11.1735    6.2835   -1.9844 H   0  0  0  0  0  0  0  0  0  0  0  0
  -11.2949    5.6871   -3.6472 H   0  0  0  0  0  0  0  0  0  0  0  0
  1  2  1  0  0  0  0
  1 10  2  0  0  0  0
  2  3  1  0  0  0  0
  4  1  1  0  0  0  0
  5  4  2  0  0  0  0
  5  6  1  0  0  0  0
  6  9  2  0  0  0  0
  7  6  1  0  0  0  0
  7  8  1  0  0  0  0
  8 15  1  0  0  0  0
  9 10  1  0  0  0  0
  9 16  1  0  0  0  0
 10 17  1  0  0  0  0
 12  5  1  0  0  0  0
 13  8  1  0  0  0  0
 14  8  1  0  0  0  0
 18 24  1  0  0  0  0
 19 18  1  0  0  0  0
 19 25  1  0  0  0  0
 20 19  2  0  0  0  0
 21 22  2  0  0  0  0
 21 20  1  0  0  0  0
 22 23  1  0  0  0  0
 23 28  1  0  0  0  0
 23 18  2  0  0  0  0
 26 21  1  0  0  0  0
 27 22  1  0  0  0  0
 28 30  1  0  0  0  0
 28 29  2  0  0  0  0
 30 11  1  0  0  0  0
 31 28  2  0  0  0  0
 32 20  1  0  0  0  0
 32 33  1  0  0  0  0
 32 34  1  0  0  0  0
 35 32  1  0  0  0  0
M  RAD  3   2   2   3   3   4   2
M  END
