Coordinates from ORCA-job 4-MeOPhN2+~TsO-_B3LYPG-6-31G_dp-CH-Scan-d09-49-n800
 OpenBabel11261919313D

 35 35  0  0  0  0  0  0  0  0999 V2000
   -2.6113   -0.4956   -0.3049 C   0  0  0  0  0  0  0  0  0  0  0  0
   -3.8261   -1.1106   -0.1133 N   0  0  0  0  0  0  0  0  0  0  0  0
   -4.8360   -1.5720    0.0222 N   0  0  0  0  0  0  0  0  0  0  0  0
   -2.6110    0.7110   -1.0464 C   0  0  0  0  0  0  0  0  0  0  0  0
   -1.3328    1.2524   -1.1860 C   0  0  0  0  0  0  0  0  0  0  0  0
   -0.1774    0.6572   -0.6477 C   0  0  0  0  0  0  0  0  0  0  0  0
    0.9819    1.3066   -0.8741 O   0  0  0  0  0  0  0  0  0  0  0  0
    2.2044    0.7700   -0.3729 C   0  0  0  0  0  0  0  0  0  0  0  0
   -0.2567   -0.5569    0.0835 C   0  0  0  0  0  0  0  0  0  0  0  0
   -1.4881   -1.1472    0.2601 C   0  0  0  0  0  0  0  0  0  0  0  0
   -3.8917    1.4055   -1.6977 H   0  0  0  0  0  0  0  0  0  0  0  0
   -1.1894    2.1800   -1.7354 H   0  0  0  0  0  0  0  0  0  0  0  0
    2.9829    1.4640   -0.6900 H   0  0  0  0  0  0  0  0  0  0  0  0
    2.4090   -0.2205   -0.7950 H   0  0  0  0  0  0  0  0  0  0  0  0
    2.1950    0.7094    0.7216 H   0  0  0  0  0  0  0  0  0  0  0  0
    0.6271   -1.0229    0.4990 H   0  0  0  0  0  0  0  0  0  0  0  0
   -1.5912   -2.0775    0.8106 H   0  0  0  0  0  0  0  0  0  0  0  0
   -7.5947    3.2767   -0.9314 C   0  0  0  0  0  0  0  0  0  0  0  0
   -8.4774    4.3518   -0.9993 C   0  0  0  0  0  0  0  0  0  0  0  0
   -9.0309    4.7598   -2.2223 C   0  0  0  0  0  0  0  0  0  0  0  0
   -8.6755    4.0586   -3.3822 C   0  0  0  0  0  0  0  0  0  0  0  0
   -7.7946    2.9791   -3.3311 C   0  0  0  0  0  0  0  0  0  0  0  0
   -7.2560    2.5981   -2.1029 C   0  0  0  0  0  0  0  0  0  0  0  0
   -7.1776    2.9528    0.0156 H   0  0  0  0  0  0  0  0  0  0  0  0
   -8.7448    4.8818   -0.0885 H   0  0  0  0  0  0  0  0  0  0  0  0
   -9.0968    4.3592   -4.3379 H   0  0  0  0  0  0  0  0  0  0  0  0
   -7.5304    2.4267   -4.2262 H   0  0  0  0  0  0  0  0  0  0  0  0
   -6.1094    1.2257   -2.0353 S   0  0  0  0  0  0  0  0  0  0  0  0
   -6.1918    0.6289   -0.6838 O   0  0  0  0  0  0  0  0  0  0  0  0
   -4.7312    1.9589   -2.1942 O   0  0  0  0  0  0  0  0  0  0  0  0
   -6.3811    0.3523   -3.1834 O   0  0  0  0  0  0  0  0  0  0  0  0
  -10.0115    5.9069   -2.2790 C   0  0  0  0  0  0  0  0  0  0  0  0
  -11.0188    5.5795   -1.9923 H   0  0  0  0  0  0  0  0  0  0  0  0
   -9.7269    6.7112   -1.5932 H   0  0  0  0  0  0  0  0  0  0  0  0
  -10.0790    6.3266   -3.2865 H   0  0  0  0  0  0  0  0  0  0  0  0
  1  2  1  0  0  0  0
  1 10  2  0  0  0  0
  2  3  1  0  0  0  0
  4  1  1  0  0  0  0
  5  4  2  0  0  0  0
  5  6  1  0  0  0  0
  6  9  2  0  0  0  0
  7  6  1  0  0  0  0
  7  8  1  0  0  0  0
  8 15  1  0  0  0  0
  9 10  1  0  0  0  0
  9 16  1  0  0  0  0
 10 17  1  0  0  0  0
 12  5  1  0  0  0  0
 13  8  1  0  0  0  0
 14  8  1  0  0  0  0
 18 24  1  0  0  0  0
 19 18  1  0  0  0  0
 19 25  1  0  0  0  0
 20 19  2  0  0  0  0
 21 22  2  0  0  0  0
 21 20  1  0  0  0  0
 22 23  1  0  0  0  0
 23 28  1  0  0  0  0
 23 18  2  0  0  0  0
 26 21  1  0  0  0  0
 27 22  1  0  0  0  0
 28 29  2  0  0  0  0
 30 28  1  0  0  0  0
 30 11  1  0  0  0  0
 31 28  2  0  0  0  0
 32 20  1  0  0  0  0
 32 33  1  0  0  0  0
 32 34  1  0  0  0  0
 35 32  1  0  0  0  0
M  RAD  3   2   2   3   3   4   2
M  END
