Coordinates from ORCA-job 4-MeOPhN2+~TsO-_B3LYPG-6-31G_dp-CH-Scan-d09-49-n800
 OpenBabel11261919313D

 35 35  0  0  0  0  0  0  0  0999 V2000
   -2.5860   -0.4768   -0.2635 C   0  0  0  0  0  0  0  0  0  0  0  0
   -3.8089   -1.0691   -0.0520 N   0  0  0  0  0  0  0  0  0  0  0  0
   -4.8239   -1.5144    0.1005 N   0  0  0  0  0  0  0  0  0  0  0  0
   -2.5819    0.7426   -0.9843 C   0  0  0  0  0  0  0  0  0  0  0  0
   -1.2938    1.2570   -1.1457 C   0  0  0  0  0  0  0  0  0  0  0  0
   -0.1388    0.6282   -0.6469 C   0  0  0  0  0  0  0  0  0  0  0  0
    1.0290    1.2565   -0.8913 O   0  0  0  0  0  0  0  0  0  0  0  0
    2.2510    0.6865   -0.4281 C   0  0  0  0  0  0  0  0  0  0  0  0
   -0.2255   -0.5966    0.0660 C   0  0  0  0  0  0  0  0  0  0  0  0
   -1.4646   -1.1634    0.2634 C   0  0  0  0  0  0  0  0  0  0  0  0
   -3.9022    1.5085   -1.6133 H   0  0  0  0  0  0  0  0  0  0  0  0
   -1.1414    2.1908   -1.6824 H   0  0  0  0  0  0  0  0  0  0  0  0
    3.0365    1.3697   -0.7512 H   0  0  0  0  0  0  0  0  0  0  0  0
    2.4256   -0.3005   -0.8715 H   0  0  0  0  0  0  0  0  0  0  0  0
    2.2659    0.6067    0.6652 H   0  0  0  0  0  0  0  0  0  0  0  0
    0.6581   -1.0882    0.4513 H   0  0  0  0  0  0  0  0  0  0  0  0
   -1.5745   -2.1009    0.8005 H   0  0  0  0  0  0  0  0  0  0  0  0
   -7.6626    3.2873   -0.9234 C   0  0  0  0  0  0  0  0  0  0  0  0
   -8.5696    4.3404   -1.0097 C   0  0  0  0  0  0  0  0  0  0  0  0
   -9.0870    4.7526   -2.2471 C   0  0  0  0  0  0  0  0  0  0  0  0
   -8.6699    4.0789   -3.4027 C   0  0  0  0  0  0  0  0  0  0  0  0
   -7.7632    3.0218   -3.3337 C   0  0  0  0  0  0  0  0  0  0  0  0
   -7.2622    2.6365   -2.0913 C   0  0  0  0  0  0  0  0  0  0  0  0
   -7.2733    2.9600    0.0343 H   0  0  0  0  0  0  0  0  0  0  0  0
   -8.8849    4.8495   -0.1024 H   0  0  0  0  0  0  0  0  0  0  0  0
   -9.0625    4.3833   -4.3692 H   0  0  0  0  0  0  0  0  0  0  0  0
   -7.4500    2.4906   -4.2257 H   0  0  0  0  0  0  0  0  0  0  0  0
   -6.0862    1.2921   -1.9984 S   0  0  0  0  0  0  0  0  0  0  0  0
   -6.2198    0.6544   -0.6717 O   0  0  0  0  0  0  0  0  0  0  0  0
   -4.7231    2.0798   -2.0606 O   0  0  0  0  0  0  0  0  0  0  0  0
   -6.2623    0.4473   -3.1851 O   0  0  0  0  0  0  0  0  0  0  0  0
  -10.0941    5.8750   -2.3246 C   0  0  0  0  0  0  0  0  0  0  0  0
  -11.1015    5.5189   -2.0747 H   0  0  0  0  0  0  0  0  0  0  0  0
   -9.8531    6.6786   -1.6215 H   0  0  0  0  0  0  0  0  0  0  0  0
  -10.1392    6.3041   -3.3294 H   0  0  0  0  0  0  0  0  0  0  0  0
  1  2  1  0  0  0  0
  1 10  2  0  0  0  0
  2  3  1  0  0  0  0
  4  1  1  0  0  0  0
  5  4  2  0  0  0  0
  5  6  1  0  0  0  0
  6  9  2  0  0  0  0
  7  6  1  0  0  0  0
  7  8  1  0  0  0  0
  8 15  1  0  0  0  0
  9 10  1  0  0  0  0
  9 16  1  0  0  0  0
 10 17  1  0  0  0  0
 12  5  1  0  0  0  0
 13  8  1  0  0  0  0
 14  8  1  0  0  0  0
 18 24  1  0  0  0  0
 19 18  1  0  0  0  0
 19 25  1  0  0  0  0
 20 19  2  0  0  0  0
 21 22  2  0  0  0  0
 21 20  1  0  0  0  0
 22 23  1  0  0  0  0
 23 28  1  0  0  0  0
 23 18  2  0  0  0  0
 26 21  1  0  0  0  0
 27 22  1  0  0  0  0
 28 29  2  0  0  0  0
 30 28  1  0  0  0  0
 30 11  1  0  0  0  0
 31 28  2  0  0  0  0
 32 20  1  0  0  0  0
 32 33  1  0  0  0  0
 32 34  1  0  0  0  0
 35 32  1  0  0  0  0
M  RAD  3   2   2   3   3   4   2
M  END
