Coordinates from ORCA-job 4-MeOPhN2+~TsO-_B3LYPG-6-31G_dp-CH-Scan-d09-49-n800
 OpenBabel11261919313D

 35 35  0  0  0  0  0  0  0  0999 V2000
   -2.1386   -0.3145   -0.1096 C   0  0  0  0  0  0  0  0  0  0  0  0
   -3.4596   -0.6382    0.1136 N   0  0  0  0  0  0  0  0  0  0  0  0
   -4.5420   -0.8708    0.2872 N   0  0  0  0  0  0  0  0  0  0  0  0
   -1.9174    0.9758   -0.6483 C   0  0  0  0  0  0  0  0  0  0  0  0
   -0.5419    1.1999   -0.8318 C   0  0  0  0  0  0  0  0  0  0  0  0
    0.4577    0.2644   -0.5211 C   0  0  0  0  0  0  0  0  0  0  0  0
    1.7342    0.6484   -0.7633 O   0  0  0  0  0  0  0  0  0  0  0  0
    2.8053   -0.2454   -0.4822 C   0  0  0  0  0  0  0  0  0  0  0  0
    0.1310   -1.0116    0.0181 C   0  0  0  0  0  0  0  0  0  0  0  0
   -1.1926   -1.3171    0.2325 C   0  0  0  0  0  0  0  0  0  0  0  0
   -4.0699    2.8721   -1.4829 H   0  0  0  0  0  0  0  0  0  0  0  0
   -0.1875    2.1462   -1.2404 H   0  0  0  0  0  0  0  0  0  0  0  0
    3.7164    0.2860   -0.7597 H   0  0  0  0  0  0  0  0  0  0  0  0
    2.7302   -1.1646   -1.0749 H   0  0  0  0  0  0  0  0  0  0  0  0
    2.8482   -0.5016    0.5834 H   0  0  0  0  0  0  0  0  0  0  0  0
    0.8986   -1.7354    0.2602 H   0  0  0  0  0  0  0  0  0  0  0  0
   -1.4911   -2.2786    0.6428 H   0  0  0  0  0  0  0  0  0  0  0  0
   -8.1379    3.5759   -0.9490 C   0  0  0  0  0  0  0  0  0  0  0  0
   -9.2713    4.3630   -1.1281 C   0  0  0  0  0  0  0  0  0  0  0  0
   -9.7519    4.6623   -2.4131 C   0  0  0  0  0  0  0  0  0  0  0  0
   -9.0649    4.1500   -3.5213 C   0  0  0  0  0  0  0  0  0  0  0  0
   -7.9270    3.3597   -3.3627 C   0  0  0  0  0  0  0  0  0  0  0  0
   -7.4728    3.0844   -2.0742 C   0  0  0  0  0  0  0  0  0  0  0  0
   -7.7738    3.3340    0.0434 H   0  0  0  0  0  0  0  0  0  0  0  0
   -9.7950    4.7496   -0.2580 H   0  0  0  0  0  0  0  0  0  0  0  0
   -9.4258    4.3696   -4.5222 H   0  0  0  0  0  0  0  0  0  0  0  0
   -7.4003    2.9534   -4.2188 H   0  0  0  0  0  0  0  0  0  0  0  0
   -6.0237    2.0706   -1.8610 S   0  0  0  0  0  0  0  0  0  0  0  0
   -6.0895    1.3884   -0.5651 O   0  0  0  0  0  0  0  0  0  0  0  0
   -4.9198    3.2692   -1.7605 O   0  0  0  0  0  0  0  0  0  0  0  0
   -5.7921    1.2934   -3.0768 O   0  0  0  0  0  0  0  0  0  0  0  0
  -10.9959    5.4997   -2.5885 C   0  0  0  0  0  0  0  0  0  0  0  0
  -11.8909    4.9391   -2.2929 H   0  0  0  0  0  0  0  0  0  0  0  0
  -10.9611    6.4003   -1.9672 H   0  0  0  0  0  0  0  0  0  0  0  0
  -11.1271    5.8096   -3.6281 H   0  0  0  0  0  0  0  0  0  0  0  0
  1  2  1  0  0  0  0
  1 10  2  0  0  0  0
  2  3  1  0  0  0  0
  4  1  1  0  0  0  0
  5  4  2  0  0  0  0
  5  6  1  0  0  0  0
  6  9  2  0  0  0  0
  7  6  1  0  0  0  0
  7  8  1  0  0  0  0
  8 15  1  0  0  0  0
  9 10  1  0  0  0  0
  9 16  1  0  0  0  0
 10 17  1  0  0  0  0
 12  5  1  0  0  0  0
 13  8  1  0  0  0  0
 14  8  1  0  0  0  0
 18 24  1  0  0  0  0
 19 18  1  0  0  0  0
 19 25  1  0  0  0  0
 20 19  2  0  0  0  0
 21 22  2  0  0  0  0
 21 20  1  0  0  0  0
 22 23  1  0  0  0  0
 23 28  1  0  0  0  0
 23 18  2  0  0  0  0
 26 21  1  0  0  0  0
 27 22  1  0  0  0  0
 28 30  1  0  0  0  0
 28 29  2  0  0  0  0
 30 11  1  0  0  0  0
 31 28  2  0  0  0  0
 32 20  1  0  0  0  0
 32 33  1  0  0  0  0
 32 34  1  0  0  0  0
 35 32  1  0  0  0  0
M  RAD  3   2   2   3   3   4   2
M  END
