Coordinates from ORCA-job 4-MeOPhN2+~TsO-_B3LYPG-6-31G_dp-CH-Scan-d09-49-n800
 OpenBabel11261919313D

 35 35  0  0  0  0  0  0  0  0999 V2000
   -2.2633   -0.3795   -0.1657 C   0  0  0  0  0  0  0  0  0  0  0  0
   -3.5579   -0.7961    0.0514 N   0  0  0  0  0  0  0  0  0  0  0  0
   -4.6213   -1.1113    0.2090 N   0  0  0  0  0  0  0  0  0  0  0  0
   -2.1231    0.8933   -0.7702 C   0  0  0  0  0  0  0  0  0  0  0  0
   -0.7680    1.2167   -0.9414 C   0  0  0  0  0  0  0  0  0  0  0  0
    0.2937    0.3796   -0.5609 C   0  0  0  0  0  0  0  0  0  0  0  0
    1.5403    0.8491   -0.8005 O   0  0  0  0  0  0  0  0  0  0  0  0
    2.6722    0.0602   -0.4493 C   0  0  0  0  0  0  0  0  0  0  0  0
    0.0527   -0.8868    0.0405 C   0  0  0  0  0  0  0  0  0  0  0  0
   -1.2484   -1.2827    0.2465 C   0  0  0  0  0  0  0  0  0  0  0  0
   -4.0538    2.3860   -1.5502 H   0  0  0  0  0  0  0  0  0  0  0  0
   -0.4807    2.1650   -1.3938 H   0  0  0  0  0  0  0  0  0  0  0  0
    3.5444    0.6484   -0.7365 H   0  0  0  0  0  0  0  0  0  0  0  0
    2.6842   -0.8913   -0.9934 H   0  0  0  0  0  0  0  0  0  0  0  0
    2.7081   -0.1354    0.6293 H   0  0  0  0  0  0  0  0  0  0  0  0
    0.8672   -1.5355    0.3354 H   0  0  0  0  0  0  0  0  0  0  0  0
   -1.4806   -2.2418    0.7022 H   0  0  0  0  0  0  0  0  0  0  0  0
   -8.0201    3.4812   -0.9395 C   0  0  0  0  0  0  0  0  0  0  0  0
   -9.0759    4.3753   -1.0902 C   0  0  0  0  0  0  0  0  0  0  0  0
   -9.5594    4.7199   -2.3623 C   0  0  0  0  0  0  0  0  0  0  0  0
   -8.9556    4.1423   -3.4870 C   0  0  0  0  0  0  0  0  0  0  0  0
   -7.8967    3.2447   -3.3564 C   0  0  0  0  0  0  0  0  0  0  0  0
   -7.4360    2.9268   -2.0799 C   0  0  0  0  0  0  0  0  0  0  0  0
   -7.6544    3.2054    0.0434 H   0  0  0  0  0  0  0  0  0  0  0  0
   -9.5352    4.8119   -0.2074 H   0  0  0  0  0  0  0  0  0  0  0  0
   -9.3196    4.3964   -4.4786 H   0  0  0  0  0  0  0  0  0  0  0  0
   -7.4353    2.7887   -4.2251 H   0  0  0  0  0  0  0  0  0  0  0  0
   -6.0823    1.7812   -1.9018 S   0  0  0  0  0  0  0  0  0  0  0  0
   -6.1789    1.1136   -0.5979 O   0  0  0  0  0  0  0  0  0  0  0  0
   -4.8683    2.8565   -1.8466 O   0  0  0  0  0  0  0  0  0  0  0  0
   -5.9740    0.9715   -3.1147 O   0  0  0  0  0  0  0  0  0  0  0  0
  -10.7211    5.6733   -2.5071 C   0  0  0  0  0  0  0  0  0  0  0  0
  -11.6677    5.1799   -2.2547 H   0  0  0  0  0  0  0  0  0  0  0  0
  -10.6177    6.5327   -1.8370 H   0  0  0  0  0  0  0  0  0  0  0  0
  -10.8072    6.0482   -3.5300 H   0  0  0  0  0  0  0  0  0  0  0  0
  1  2  1  0  0  0  0
  1 10  2  0  0  0  0
  2  3  1  0  0  0  0
  4  1  1  0  0  0  0
  5  4  2  0  0  0  0
  5  6  1  0  0  0  0
  6  9  2  0  0  0  0
  7  6  1  0  0  0  0
  7  8  1  0  0  0  0
  8 15  1  0  0  0  0
  9 10  1  0  0  0  0
  9 16  1  0  0  0  0
 10 17  1  0  0  0  0
 12  5  1  0  0  0  0
 13  8  1  0  0  0  0
 14  8  1  0  0  0  0
 18 24  1  0  0  0  0
 19 18  1  0  0  0  0
 19 25  1  0  0  0  0
 20 19  2  0  0  0  0
 21 22  2  0  0  0  0
 21 20  1  0  0  0  0
 22 23  1  0  0  0  0
 23 28  1  0  0  0  0
 23 18  2  0  0  0  0
 26 21  1  0  0  0  0
 27 22  1  0  0  0  0
 28 30  1  0  0  0  0
 28 29  2  0  0  0  0
 30 11  1  0  0  0  0
 31 28  2  0  0  0  0
 32 20  1  0  0  0  0
 32 33  1  0  0  0  0
 32 34  1  0  0  0  0
 35 32  1  0  0  0  0
M  RAD  3   2   2   3   3   4   2
M  END
