Coordinates from ORCA-job 4-MeOPhN2+~TsO-_B3LYPG-6-31G_dp-CH-Scan-d09-49-n800
 OpenBabel11261919313D

 35 35  0  0  0  0  0  0  0  0999 V2000
   -1.6664   -0.3270   -0.5756 C   0  0  0  0  0  0  0  0  0  0  0  0
   -3.0172   -0.5229   -0.7850 N   0  0  0  0  0  0  0  0  0  0  0  0
   -4.1168   -0.6379   -0.9741 N   0  0  0  0  0  0  0  0  0  0  0  0
   -1.1976    0.9413   -0.9910 C   0  0  0  0  0  0  0  0  0  0  0  0
    0.1852    1.0415   -0.7385 C   0  0  0  0  0  0  0  0  0  0  0  0
    0.9607    0.0245   -0.1620 C   0  0  0  0  0  0  0  0  0  0  0  0
    2.2799    0.2952    0.0065 O   0  0  0  0  0  0  0  0  0  0  0  0
    3.1332   -0.6859    0.5821 C   0  0  0  0  0  0  0  0  0  0  0  0
    0.3824   -1.2203    0.2203 C   0  0  0  0  0  0  0  0  0  0  0  0
   -0.9634   -1.4123    0.0128 C   0  0  0  0  0  0  0  0  0  0  0  0
   -4.3900    3.5323   -2.7941 H   0  0  0  0  0  0  0  0  0  0  0  0
    0.7266    1.9535   -0.9947 H   0  0  0  0  0  0  0  0  0  0  0  0
    4.1270   -0.2368    0.6104 H   0  0  0  0  0  0  0  0  0  0  0  0
    3.1684   -1.5989   -0.0247 H   0  0  0  0  0  0  0  0  0  0  0  0
    2.8257   -0.9415    1.6034 H   0  0  0  0  0  0  0  0  0  0  0  0
    0.9792   -2.0066    0.6644 H   0  0  0  0  0  0  0  0  0  0  0  0
   -1.4512   -2.3449    0.2870 H   0  0  0  0  0  0  0  0  0  0  0  0
   -8.0507    3.7974   -1.2556 C   0  0  0  0  0  0  0  0  0  0  0  0
   -9.2458    4.4792   -1.0448 C   0  0  0  0  0  0  0  0  0  0  0  0
  -10.1586    4.6856   -2.0910 C   0  0  0  0  0  0  0  0  0  0  0  0
   -9.8438    4.1878   -3.3630 C   0  0  0  0  0  0  0  0  0  0  0  0
   -8.6534    3.5008   -3.5947 C   0  0  0  0  0  0  0  0  0  0  0  0
   -7.7655    3.3171   -2.5353 C   0  0  0  0  0  0  0  0  0  0  0  0
   -7.3511    3.6279   -0.4443 H   0  0  0  0  0  0  0  0  0  0  0  0
   -9.4750    4.8570   -0.0521 H   0  0  0  0  0  0  0  0  0  0  0  0
  -10.5404    4.3378   -4.1835 H   0  0  0  0  0  0  0  0  0  0  0  0
   -8.4149    3.1055   -4.5757 H   0  0  0  0  0  0  0  0  0  0  0  0
   -6.2372    2.4492   -2.8201 S   0  0  0  0  0  0  0  0  0  0  0  0
   -5.7447    1.8765   -1.5653 O   0  0  0  0  0  0  0  0  0  0  0  0
   -5.2638    3.7269   -3.1758 O   0  0  0  0  0  0  0  0  0  0  0  0
   -6.3743    1.6237   -4.0143 O   0  0  0  0  0  0  0  0  0  0  0  0
  -11.4625    5.4034   -1.8406 C   0  0  0  0  0  0  0  0  0  0  0  0
  -12.2067    4.7227   -1.4083 H   0  0  0  0  0  0  0  0  0  0  0  0
  -11.3333    6.2314   -1.1370 H   0  0  0  0  0  0  0  0  0  0  0  0
  -11.8837    5.8040   -2.7662 H   0  0  0  0  0  0  0  0  0  0  0  0
  1 10  2  0  0  0  0
  2  1  1  0  0  0  0
  3  2  1  0  0  0  0
  4  5  2  0  0  0  0
  4  1  1  0  0  0  0
  5  6  1  0  0  0  0
  6  7  1  0  0  0  0
  6  9  2  0  0  0  0
  7  8  1  0  0  0  0
  8 13  1  0  0  0  0
  8 15  1  0  0  0  0
  9 16  1  0  0  0  0
 10  9  1  0  0  0  0
 10 17  1  0  0  0  0
 12  5  1  0  0  0  0
 14  8  1  0  0  0  0
 18 19  1  0  0  0  0
 18 24  1  0  0  0  0
 19 25  1  0  0  0  0
 20 32  1  0  0  0  0
 20 19  2  0  0  0  0
 21 20  1  0  0  0  0
 22 21  2  0  0  0  0
 22 23  1  0  0  0  0
 23 18  2  0  0  0  0
 26 21  1  0  0  0  0
 27 22  1  0  0  0  0
 28 23  1  0  0  0  0
 28 29  2  0  0  0  0
 30 28  1  0  0  0  0
 30 11  1  0  0  0  0
 31 28  2  0  0  0  0
 32 33  1  0  0  0  0
 32 34  1  0  0  0  0
 35 32  1  0  0  0  0
M  RAD  3   2   2   3   3   4   2
M  END
