Coordinates from ORCA-job 4-MeOPhN2+~TsO-_B3LYPG-6-31G_dp-CH-Scan-d09-49-n800
 OpenBabel11261919303D

 35 35  0  0  0  0  0  0  0  0999 V2000
   -2.5954   -0.3775   -0.6702 C   0  0  0  0  0  0  0  0  0  0  0  0
   -3.8808   -0.8621   -0.8031 N   0  0  0  0  0  0  0  0  0  0  0  0
   -4.9988   -0.9591   -0.9259 N   0  0  0  0  0  0  0  0  0  0  0  0
   -2.3305    0.9742   -0.9800 C   0  0  0  0  0  0  0  0  0  0  0  0
   -1.0277    1.4086   -0.8317 C   0  0  0  0  0  0  0  0  0  0  0  0
   -0.0125    0.5367   -0.3859 C   0  0  0  0  0  0  0  0  0  0  0  0
    1.2127    1.0804   -0.2803 O   0  0  0  0  0  0  0  0  0  0  0  0
    2.3073    0.2719    0.1516 C   0  0  0  0  0  0  0  0  0  0  0  0
   -0.3058   -0.8121   -0.0888 C   0  0  0  0  0  0  0  0  0  0  0  0
   -1.6020   -1.2729   -0.2388 C   0  0  0  0  0  0  0  0  0  0  0  0
   -3.2294    1.7231   -1.4069 H   0  0  0  0  0  0  0  0  0  0  0  0
   -0.7588    2.4334   -1.0631 H   0  0  0  0  0  0  0  0  0  0  0  0
    3.1766    0.9291    0.1494 H   0  0  0  0  0  0  0  0  0  0  0  0
    2.4792   -0.5630   -0.5369 H   0  0  0  0  0  0  0  0  0  0  0  0
    2.1423   -0.1107    1.1648 H   0  0  0  0  0  0  0  0  0  0  0  0
    0.4651   -1.4918    0.2499 H   0  0  0  0  0  0  0  0  0  0  0  0
   -1.8545   -2.3047   -0.0192 H   0  0  0  0  0  0  0  0  0  0  0  0
   -7.0509    4.1458   -1.5515 C   0  0  0  0  0  0  0  0  0  0  0  0
   -8.1526    4.9972   -1.5715 C   0  0  0  0  0  0  0  0  0  0  0  0
   -9.3397    4.6324   -2.2257 C   0  0  0  0  0  0  0  0  0  0  0  0
   -9.3882    3.3905   -2.8711 C   0  0  0  0  0  0  0  0  0  0  0  0
   -8.2916    2.5271   -2.8596 C   0  0  0  0  0  0  0  0  0  0  0  0
   -7.1274    2.9084   -2.1950 C   0  0  0  0  0  0  0  0  0  0  0  0
   -6.1285    4.4377   -1.0612 H   0  0  0  0  0  0  0  0  0  0  0  0
   -8.0907    5.9638   -1.0774 H   0  0  0  0  0  0  0  0  0  0  0  0
  -10.2946    3.0957   -3.3946 H   0  0  0  0  0  0  0  0  0  0  0  0
   -8.3219    1.5718   -3.3717 H   0  0  0  0  0  0  0  0  0  0  0  0
   -5.7337    1.7791   -2.1360 S   0  0  0  0  0  0  0  0  0  0  0  0
   -5.8350    1.0954   -0.7842 O   0  0  0  0  0  0  0  0  0  0  0  0
   -4.5105    2.6464   -2.1822 O   0  0  0  0  0  0  0  0  0  0  0  0
   -5.8760    0.8335   -3.2621 O   0  0  0  0  0  0  0  0  0  0  0  0
  -10.5349    5.5563   -2.2207 C   0  0  0  0  0  0  0  0  0  0  0  0
  -11.0296    5.5596   -1.2411 H   0  0  0  0  0  0  0  0  0  0  0  0
  -10.2432    6.5899   -2.4358 H   0  0  0  0  0  0  0  0  0  0  0  0
  -11.2779    5.2532   -2.9638 H   0  0  0  0  0  0  0  0  0  0  0  0
  1 10  2  0  0  0  0
  2  1  1  0  0  0  0
  3  2  1  0  0  0  0
  4  5  2  0  0  0  0
  4  1  1  0  0  0  0
  5  6  1  0  0  0  0
  6  7  1  0  0  0  0
  6  9  2  0  0  0  0
  7  8  1  0  0  0  0
  8 15  1  0  0  0  0
  9 16  1  0  0  0  0
 10  9  1  0  0  0  0
 10 17  1  0  0  0  0
 11  4  1  0  0  0  0
 12  5  1  0  0  0  0
 13  8  1  0  0  0  0
 14  8  1  0  0  0  0
 18 24  1  0  0  0  0
 19 18  1  0  0  0  0
 19 25  1  0  0  0  0
 20 32  1  0  0  0  0
 20 19  2  0  0  0  0
 21 22  2  0  0  0  0
 21 20  1  0  0  0  0
 22 23  1  0  0  0  0
 23 28  1  0  0  0  0
 23 18  2  0  0  0  0
 26 21  1  0  0  0  0
 27 22  1  0  0  0  0
 28 29  1  0  0  0  0
 30 28  2  0  0  0  0
 31 28  2  0  0  0  0
 32 33  1  0  0  0  0
 34 32  1  0  0  0  0
 35 32  1  0  0  0  0
M  RAD  3   2   2   3   3  29   2
M  END
