Coordinates from ORCA-job 4-MeOPhN2+~TsO-_B3LYPG-6-31G_dp-CH-Scan-d09-49-n800
 OpenBabel11261919313D

 35 35  0  0  0  0  0  0  0  0999 V2000
   -2.1454   -0.3176   -0.1101 C   0  0  0  0  0  0  0  0  0  0  0  0
   -3.4648   -0.6461    0.1146 N   0  0  0  0  0  0  0  0  0  0  0  0
   -4.5464   -0.8846    0.2853 N   0  0  0  0  0  0  0  0  0  0  0  0
   -1.9290    0.9719   -0.6526 C   0  0  0  0  0  0  0  0  0  0  0  0
   -0.5546    1.2011   -0.8373 C   0  0  0  0  0  0  0  0  0  0  0  0
    0.4488    0.2704   -0.5241 C   0  0  0  0  0  0  0  0  0  0  0  0
    1.7236    0.6588   -0.7678 O   0  0  0  0  0  0  0  0  0  0  0  0
    2.7984   -0.2296   -0.4839 C   0  0  0  0  0  0  0  0  0  0  0  0
    0.1272   -1.0052    0.0190 C   0  0  0  0  0  0  0  0  0  0  0  0
   -1.1951   -1.3153    0.2347 C   0  0  0  0  0  0  0  0  0  0  0  0
   -4.0691    2.8462   -1.4792 H   0  0  0  0  0  0  0  0  0  0  0  0
   -0.2042    2.1476   -1.2486 H   0  0  0  0  0  0  0  0  0  0  0  0
    3.7074    0.3047   -0.7630 H   0  0  0  0  0  0  0  0  0  0  0  0
    2.7273   -1.1510   -1.0737 H   0  0  0  0  0  0  0  0  0  0  0  0
    2.8423   -0.4823    0.5825 H   0  0  0  0  0  0  0  0  0  0  0  0
    0.8977   -1.7253    0.2630 H   0  0  0  0  0  0  0  0  0  0  0  0
   -1.4896   -2.2768    0.6479 H   0  0  0  0  0  0  0  0  0  0  0  0
   -8.1332    3.5702   -0.9484 C   0  0  0  0  0  0  0  0  0  0  0  0
   -9.2628    4.3630   -1.1268 C   0  0  0  0  0  0  0  0  0  0  0  0
   -9.7420    4.6655   -2.4116 C   0  0  0  0  0  0  0  0  0  0  0  0
   -9.0576    4.1505   -3.5201 C   0  0  0  0  0  0  0  0  0  0  0  0
   -7.9235    3.3546   -3.3622 C   0  0  0  0  0  0  0  0  0  0  0  0
   -7.4706    3.0762   -2.0739 C   0  0  0  0  0  0  0  0  0  0  0  0
   -7.7702    3.3259    0.0438 H   0  0  0  0  0  0  0  0  0  0  0  0
   -9.7844    4.7516   -0.2564 H   0  0  0  0  0  0  0  0  0  0  0  0
   -9.4175    4.3725   -4.5209 H   0  0  0  0  0  0  0  0  0  0  0  0
   -7.3988    2.9462   -4.2185 H   0  0  0  0  0  0  0  0  0  0  0  0
   -6.0263    2.0553   -1.8615 S   0  0  0  0  0  0  0  0  0  0  0  0
   -6.0970    1.3702   -0.5673 O   0  0  0  0  0  0  0  0  0  0  0  0
   -4.9171    3.2480   -1.7570 O   0  0  0  0  0  0  0  0  0  0  0  0
   -5.7973    1.2795   -3.0787 O   0  0  0  0  0  0  0  0  0  0  0  0
  -10.9819    5.5091   -2.5863 C   0  0  0  0  0  0  0  0  0  0  0  0
  -11.8797    4.9524   -2.2919 H   0  0  0  0  0  0  0  0  0  0  0  0
  -10.9430    6.4086   -1.9638 H   0  0  0  0  0  0  0  0  0  0  0  0
  -11.1112    5.8211   -3.6255 H   0  0  0  0  0  0  0  0  0  0  0  0
  1  2  1  0  0  0  0
  1 10  2  0  0  0  0
  2  3  1  0  0  0  0
  4  1  1  0  0  0  0
  5  4  2  0  0  0  0
  5  6  1  0  0  0  0
  6  9  2  0  0  0  0
  7  6  1  0  0  0  0
  7  8  1  0  0  0  0
  8 15  1  0  0  0  0
  9 10  1  0  0  0  0
  9 16  1  0  0  0  0
 10 17  1  0  0  0  0
 12  5  1  0  0  0  0
 13  8  1  0  0  0  0
 14  8  1  0  0  0  0
 18 24  1  0  0  0  0
 19 18  1  0  0  0  0
 19 25  1  0  0  0  0
 20 19  2  0  0  0  0
 21 22  2  0  0  0  0
 21 20  1  0  0  0  0
 22 23  1  0  0  0  0
 23 28  1  0  0  0  0
 23 18  2  0  0  0  0
 26 21  1  0  0  0  0
 27 22  1  0  0  0  0
 28 30  1  0  0  0  0
 28 29  2  0  0  0  0
 30 11  1  0  0  0  0
 31 28  2  0  0  0  0
 32 20  1  0  0  0  0
 32 33  1  0  0  0  0
 32 34  1  0  0  0  0
 35 32  1  0  0  0  0
M  RAD  3   2   2   3   3   4   2
M  END
