Coordinates from ORCA-job 4-MeOPhN2+~TsO-_B3LYPG-6-31G_dp-CH-Scan-d09-49-n800
 OpenBabel11261919303D

 35 35  0  0  0  0  0  0  0  0999 V2000
   -2.7770   -0.0826   -0.3780 C   0  0  0  0  0  0  0  0  0  0  0  0
   -4.1375   -0.3528   -0.3957 N   0  0  0  0  0  0  0  0  0  0  0  0
   -5.2320   -0.0212   -0.4100 N   0  0  0  0  0  0  0  0  0  0  0  0
   -2.3063    1.2478   -0.3170 C   0  0  0  0  0  0  0  0  0  0  0  0
   -0.9404    1.4468   -0.3058 C   0  0  0  0  0  0  0  0  0  0  0  0
   -0.0452    0.3580   -0.3555 C   0  0  0  0  0  0  0  0  0  0  0  0
    1.2607    0.6825   -0.3393 O   0  0  0  0  0  0  0  0  0  0  0  0
    2.2390   -0.3535   -0.4026 C   0  0  0  0  0  0  0  0  0  0  0  0
   -0.5344   -0.9609   -0.4162 C   0  0  0  0  0  0  0  0  0  0  0  0
   -1.9041   -1.1768   -0.4265 C   0  0  0  0  0  0  0  0  0  0  0  0
   -2.9410    2.0072   -0.2879 H   0  0  0  0  0  0  0  0  0  0  0  0
   -0.5319    2.4506   -0.2667 H   0  0  0  0  0  0  0  0  0  0  0  0
    3.2045    0.1510   -0.3794 H   0  0  0  0  0  0  0  0  0  0  0  0
    2.1501   -0.9273   -1.3322 H   0  0  0  0  0  0  0  0  0  0  0  0
    2.1599   -1.0285    0.4577 H   0  0  0  0  0  0  0  0  0  0  0  0
    0.1385   -1.8075   -0.4567 H   0  0  0  0  0  0  0  0  0  0  0  0
   -2.3066   -2.1827   -0.4762 H   0  0  0  0  0  0  0  0  0  0  0  0
   -7.1658    4.5993   -1.5914 C   0  0  0  0  0  0  0  0  0  0  0  0
   -8.4491    5.1017   -1.7982 C   0  0  0  0  0  0  0  0  0  0  0  0
   -9.4366    4.3318   -2.4298 C   0  0  0  0  0  0  0  0  0  0  0  0
   -9.0994    3.0417   -2.8620 C   0  0  0  0  0  0  0  0  0  0  0  0
   -7.8198    2.5254   -2.6613 C   0  0  0  0  0  0  0  0  0  0  0  0
   -6.8585    3.3073   -2.0207 C   0  0  0  0  0  0  0  0  0  0  0  0
   -6.3970    5.2028   -1.1213 H   0  0  0  0  0  0  0  0  0  0  0  0
   -8.6867    6.1109   -1.4714 H   0  0  0  0  0  0  0  0  0  0  0  0
   -9.8470    2.4353   -3.3678 H   0  0  0  0  0  0  0  0  0  0  0  0
   -7.5542    1.5347   -3.0132 H   0  0  0  0  0  0  0  0  0  0  0  0
   -5.2183    2.6408   -1.7249 S   0  0  0  0  0  0  0  0  0  0  0  0
   -5.2969    2.0153   -0.3098 O   0  0  0  0  0  0  0  0  0  0  0  0
   -4.2845    3.7835   -1.6965 O   0  0  0  0  0  0  0  0  0  0  0  0
   -4.9791    1.5873   -2.7345 O   0  0  0  0  0  0  0  0  0  0  0  0
  -10.8329    4.8739   -2.6236 C   0  0  0  0  0  0  0  0  0  0  0  0
  -11.4622    4.6687   -1.7476 H   0  0  0  0  0  0  0  0  0  0  0  0
  -10.8249    5.9586   -2.7694 H   0  0  0  0  0  0  0  0  0  0  0  0
  -11.3230    4.4183   -3.4890 H   0  0  0  0  0  0  0  0  0  0  0  0
  1  4  2  0  0  0  0
  2  1  1  0  0  0  0
  3  2  2  0  0  0  0
  4  5  1  0  0  0  0
  4 11  1  0  0  0  0
  5 12  1  0  0  0  0
  6  7  1  0  0  0  0
  6  5  2  0  0  0  0
  8 13  1  0  0  0  0
  8  7  1  0  0  0  0
  8 15  1  0  0  0  0
  9  6  1  0  0  0  0
 10  9  2  0  0  0  0
 10  1  1  0  0  0  0
 14  8  1  0  0  0  0
 16  9  1  0  0  0  0
 17 10  1  0  0  0  0
 18 24  1  0  0  0  0
 19 18  1  0  0  0  0
 19 25  1  0  0  0  0
 20 19  2  0  0  0  0
 21 22  2  0  0  0  0
 21 20  1  0  0  0  0
 22 23  1  0  0  0  0
 23 28  1  0  0  0  0
 23 18  2  0  0  0  0
 26 21  1  0  0  0  0
 27 22  1  0  0  0  0
 28 30  2  0  0  0  0
 28 29  1  0  0  0  0
 31 28  2  0  0  0  0
 32 20  1  0  0  0  0
 32 33  1  0  0  0  0
 34 32  1  0  0  0  0
 35 32  1  0  0  0  0
M  RAD  2   3   2  29   2
M  END
