Coordinates from ORCA-job 4-MeOPhN2+~TsO-_B3LYPG-6-31G_dp-CH-Scan-d09-49-n800
 OpenBabel11261919313D

 35 35  0  0  0  0  0  0  0  0999 V2000
   -2.2912   -0.3920   -0.1760 C   0  0  0  0  0  0  0  0  0  0  0  0
   -3.5797   -0.8268    0.0399 N   0  0  0  0  0  0  0  0  0  0  0  0
   -4.6385   -1.1534    0.2047 N   0  0  0  0  0  0  0  0  0  0  0  0
   -2.1671    0.8782   -0.7899 C   0  0  0  0  0  0  0  0  0  0  0  0
   -0.8172    1.2215   -0.9594 C   0  0  0  0  0  0  0  0  0  0  0  0
    0.2560    0.4037   -0.5691 C   0  0  0  0  0  0  0  0  0  0  0  0
    1.4957    0.8905   -0.8083 O   0  0  0  0  0  0  0  0  0  0  0  0
    2.6386    0.1212   -0.4491 C   0  0  0  0  0  0  0  0  0  0  0  0
    0.0321   -0.8616    0.0409 C   0  0  0  0  0  0  0  0  0  0  0  0
   -1.2635   -1.2758    0.2457 C   0  0  0  0  0  0  0  0  0  0  0  0
   -4.0481    2.2957   -1.5567 H   0  0  0  0  0  0  0  0  0  0  0  0
   -0.5436    2.1706   -1.4184 H   0  0  0  0  0  0  0  0  0  0  0  0
    3.5024    0.7206   -0.7384 H   0  0  0  0  0  0  0  0  0  0  0  0
    2.6660   -0.8336   -0.9868 H   0  0  0  0  0  0  0  0  0  0  0  0
    2.6748   -0.0664    0.6309 H   0  0  0  0  0  0  0  0  0  0  0  0
    0.8553   -1.4958    0.3430 H   0  0  0  0  0  0  0  0  0  0  0  0
   -1.4823   -2.2350    0.7076 H   0  0  0  0  0  0  0  0  0  0  0  0
   -7.9952    3.4615   -0.9357 C   0  0  0  0  0  0  0  0  0  0  0  0
   -9.0359    4.3738   -1.0829 C   0  0  0  0  0  0  0  0  0  0  0  0
   -9.5169    4.7274   -2.3534 C   0  0  0  0  0  0  0  0  0  0  0  0
   -8.9264    4.1401   -3.4800 C   0  0  0  0  0  0  0  0  0  0  0  0
   -7.8829    3.2241   -3.3528 C   0  0  0  0  0  0  0  0  0  0  0  0
   -7.4240    2.8975   -2.0779 C   0  0  0  0  0  0  0  0  0  0  0  0
   -7.6314    3.1789    0.0460 H   0  0  0  0  0  0  0  0  0  0  0  0
   -9.4849    4.8179   -0.1986 H   0  0  0  0  0  0  0  0  0  0  0  0
   -9.2886    4.4012   -4.4705 H   0  0  0  0  0  0  0  0  0  0  0  0
   -7.4321    2.7606   -4.2231 H   0  0  0  0  0  0  0  0  0  0  0  0
   -6.0892    1.7288   -1.9041 S   0  0  0  0  0  0  0  0  0  0  0  0
   -6.1922    1.0659   -0.5979 O   0  0  0  0  0  0  0  0  0  0  0  0
   -4.8562    2.7790   -1.8586 O   0  0  0  0  0  0  0  0  0  0  0  0
   -6.0045    0.9127   -3.1149 O   0  0  0  0  0  0  0  0  0  0  0  0
  -10.6629    5.7002   -2.4946 C   0  0  0  0  0  0  0  0  0  0  0  0
  -11.6186    5.2187   -2.2535 H   0  0  0  0  0  0  0  0  0  0  0  0
  -10.5505    6.5506   -1.8147 H   0  0  0  0  0  0  0  0  0  0  0  0
  -10.7371    6.0872   -3.5140 H   0  0  0  0  0  0  0  0  0  0  0  0
  1  2  1  0  0  0  0
  1 10  2  0  0  0  0
  2  3  1  0  0  0  0
  4  1  1  0  0  0  0
  5  4  2  0  0  0  0
  5  6  1  0  0  0  0
  6  9  2  0  0  0  0
  7  6  1  0  0  0  0
  7  8  1  0  0  0  0
  8 15  1  0  0  0  0
  9 10  1  0  0  0  0
  9 16  1  0  0  0  0
 10 17  1  0  0  0  0
 12  5  1  0  0  0  0
 13  8  1  0  0  0  0
 14  8  1  0  0  0  0
 18 24  1  0  0  0  0
 19 18  1  0  0  0  0
 19 25  1  0  0  0  0
 20 19  2  0  0  0  0
 21 22  2  0  0  0  0
 21 20  1  0  0  0  0
 22 23  1  0  0  0  0
 23 28  1  0  0  0  0
 23 18  2  0  0  0  0
 26 21  1  0  0  0  0
 27 22  1  0  0  0  0
 28 30  1  0  0  0  0
 28 29  2  0  0  0  0
 30 11  1  0  0  0  0
 31 28  2  0  0  0  0
 32 20  1  0  0  0  0
 32 33  1  0  0  0  0
 32 34  1  0  0  0  0
 35 32  1  0  0  0  0
M  RAD  3   2   2   3   3   4   2
M  END
