Coordinates from ORCA-job 4-MeOPhN2+~TsO-_B3LYPG-6-31G_dp-CH-Scan-d09-49-n800
 OpenBabel11261919313D

 35 35  0  0  0  0  0  0  0  0999 V2000
   -2.5367   -0.4542   -0.2183 C   0  0  0  0  0  0  0  0  0  0  0  0
   -3.7713   -1.0145    0.0139 N   0  0  0  0  0  0  0  0  0  0  0  0
   -4.7934   -1.4370    0.1851 N   0  0  0  0  0  0  0  0  0  0  0  0
   -2.5225    0.7856   -0.9039 C   0  0  0  0  0  0  0  0  0  0  0  0
   -1.2210    1.2627   -1.0877 C   0  0  0  0  0  0  0  0  0  0  0  0
   -0.0722    0.5851   -0.6427 C   0  0  0  0  0  0  0  0  0  0  0  0
    1.1083    1.1851   -0.9037 O   0  0  0  0  0  0  0  0  0  0  0  0
    2.3241    0.5644   -0.4943 C   0  0  0  0  0  0  0  0  0  0  0  0
   -0.1743   -0.6577    0.0374 C   0  0  0  0  0  0  0  0  0  0  0  0
   -1.4236   -1.1923    0.2562 C   0  0  0  0  0  0  0  0  0  0  0  0
   -3.9348    1.6742   -1.5123 H   0  0  0  0  0  0  0  0  0  0  0  0
   -1.0513    2.2069   -1.6012 H   0  0  0  0  0  0  0  0  0  0  0  0
    3.1213    1.2339   -0.8181 H   0  0  0  0  0  0  0  0  0  0  0  0
    2.4562   -0.4126   -0.9731 H   0  0  0  0  0  0  0  0  0  0  0  0
    2.3680    0.4487    0.5951 H   0  0  0  0  0  0  0  0  0  0  0  0
    0.7050   -1.1862    0.3813 H   0  0  0  0  0  0  0  0  0  0  0  0
   -1.5470   -2.1415    0.7696 H   0  0  0  0  0  0  0  0  0  0  0  0
   -7.7691    3.3054   -0.9101 C   0  0  0  0  0  0  0  0  0  0  0  0
   -8.7076    4.3270   -1.0283 C   0  0  0  0  0  0  0  0  0  0  0  0
   -9.1716    4.7440   -2.2853 C   0  0  0  0  0  0  0  0  0  0  0  0
   -8.6682    4.1082   -3.4277 C   0  0  0  0  0  0  0  0  0  0  0  0
   -7.7283    3.0830   -3.3277 C   0  0  0  0  0  0  0  0  0  0  0  0
   -7.2825    2.6929   -2.0660 C   0  0  0  0  0  0  0  0  0  0  0  0
   -7.4206    2.9739    0.0618 H   0  0  0  0  0  0  0  0  0  0  0  0
   -9.0897    4.8073   -0.1312 H   0  0  0  0  0  0  0  0  0  0  0  0
   -9.0184    4.4171   -4.4090 H   0  0  0  0  0  0  0  0  0  0  0  0
   -7.3473    2.5812   -4.2102 H   0  0  0  0  0  0  0  0  0  0  0  0
   -6.0697    1.3879   -1.9303 S   0  0  0  0  0  0  0  0  0  0  0  0
   -6.2491    0.7165   -0.6289 O   0  0  0  0  0  0  0  0  0  0  0  0
   -4.7358    2.2471   -1.8941 O   0  0  0  0  0  0  0  0  0  0  0  0
   -6.1289    0.5688   -3.1450 O   0  0  0  0  0  0  0  0  0  0  0  0
  -10.2124    5.8320   -2.3980 C   0  0  0  0  0  0  0  0  0  0  0  0
  -11.2168    5.4384   -2.1975 H   0  0  0  0  0  0  0  0  0  0  0  0
  -10.0316    6.6355   -1.6769 H   0  0  0  0  0  0  0  0  0  0  0  0
  -10.2268    6.2705   -3.3995 H   0  0  0  0  0  0  0  0  0  0  0  0
  1  2  1  0  0  0  0
  1 10  2  0  0  0  0
  2  3  1  0  0  0  0
  4  1  1  0  0  0  0
  5  4  2  0  0  0  0
  5  6  1  0  0  0  0
  6  9  2  0  0  0  0
  7  6  1  0  0  0  0
  7  8  1  0  0  0  0
  8 15  1  0  0  0  0
  9 10  1  0  0  0  0
  9 16  1  0  0  0  0
 10 17  1  0  0  0  0
 12  5  1  0  0  0  0
 13  8  1  0  0  0  0
 14  8  1  0  0  0  0
 18 24  1  0  0  0  0
 19 18  1  0  0  0  0
 19 25  1  0  0  0  0
 20 19  2  0  0  0  0
 21 22  2  0  0  0  0
 21 20  1  0  0  0  0
 22 23  1  0  0  0  0
 23 28  1  0  0  0  0
 23 18  2  0  0  0  0
 26 21  1  0  0  0  0
 27 22  1  0  0  0  0
 28 30  1  0  0  0  0
 28 29  2  0  0  0  0
 30 11  1  0  0  0  0
 31 28  2  0  0  0  0
 32 20  1  0  0  0  0
 32 33  1  0  0  0  0
 32 34  1  0  0  0  0
 35 32  1  0  0  0  0
M  RAD  3   2   2   3   3   4   2
M  END
