Coordinates from ORCA-job 4-MeOPhN2+~TsO-_B3LYPG-6-31G_dp-CH-Scan-d09-49-n800
 OpenBabel11261919313D

 35 35  0  0  0  0  0  0  0  0999 V2000
   -1.8727   -0.2294   -0.1440 C   0  0  0  0  0  0  0  0  0  0  0  0
   -3.2380   -0.3919   -0.0224 N   0  0  0  0  0  0  0  0  0  0  0  0
   -4.3524   -0.4806    0.0669 N   0  0  0  0  0  0  0  0  0  0  0  0
   -1.4757    1.0620   -0.5640 C   0  0  0  0  0  0  0  0  0  0  0  0
   -0.0714    1.1223   -0.6562 C   0  0  0  0  0  0  0  0  0  0  0  0
    0.7874    0.0493   -0.3743 C   0  0  0  0  0  0  0  0  0  0  0  0
    2.1151    0.2860   -0.5232 O   0  0  0  0  0  0  0  0  0  0  0  0
    3.0492   -0.7557   -0.2713 C   0  0  0  0  0  0  0  0  0  0  0  0
    0.2790   -1.2139    0.0444 C   0  0  0  0  0  0  0  0  0  0  0  0
   -1.0821   -1.3682    0.1662 C   0  0  0  0  0  0  0  0  0  0  0  0
   -4.1796    3.7008   -1.7631 H   0  0  0  0  0  0  0  0  0  0  0  0
    0.4206    2.0447   -0.9680 H   0  0  0  0  0  0  0  0  0  0  0  0
    4.0332   -0.3280   -0.4687 H   0  0  0  0  0  0  0  0  0  0  0  0
    2.8898   -1.6123   -0.9373 H   0  0  0  0  0  0  0  0  0  0  0  0
    3.0077   -1.0941    0.7713 H   0  0  0  0  0  0  0  0  0  0  0  0
    0.9391   -2.0429    0.2658 H   0  0  0  0  0  0  0  0  0  0  0  0
   -1.5184   -2.3123    0.4839 H   0  0  0  0  0  0  0  0  0  0  0  0
   -8.2335    3.8038   -1.0229 C   0  0  0  0  0  0  0  0  0  0  0  0
   -9.4795    4.4107   -1.1451 C   0  0  0  0  0  0  0  0  0  0  0  0
  -10.0891    4.5726   -2.3999 C   0  0  0  0  0  0  0  0  0  0  0  0
   -9.4157    4.1067   -3.5369 C   0  0  0  0  0  0  0  0  0  0  0  0
   -8.1666    3.4957   -3.4361 C   0  0  0  0  0  0  0  0  0  0  0  0
   -7.5864    3.3552   -2.1763 C   0  0  0  0  0  0  0  0  0  0  0  0
   -7.7681    3.6686   -0.0528 H   0  0  0  0  0  0  0  0  0  0  0  0
   -9.9901    4.7636   -0.2532 H   0  0  0  0  0  0  0  0  0  0  0  0
   -9.8752    4.2212   -4.5147 H   0  0  0  0  0  0  0  0  0  0  0  0
   -7.6488    3.1256   -4.3137 H   0  0  0  0  0  0  0  0  0  0  0  0
   -5.9918    2.5775   -2.0351 S   0  0  0  0  0  0  0  0  0  0  0  0
   -5.8426    1.9808   -0.7064 O   0  0  0  0  0  0  0  0  0  0  0  0
   -5.0688    3.9361   -2.0829 O   0  0  0  0  0  0  0  0  0  0  0  0
   -5.7316    1.7804   -3.2305 O   0  0  0  0  0  0  0  0  0  0  0  0
  -11.4506    5.2150   -2.5118 C   0  0  0  0  0  0  0  0  0  0  0  0
  -12.2349    4.5345   -2.1591 H   0  0  0  0  0  0  0  0  0  0  0  0
  -11.5131    6.1224   -1.9033 H   0  0  0  0  0  0  0  0  0  0  0  0
  -11.6843    5.4813   -3.5456 H   0  0  0  0  0  0  0  0  0  0  0  0
  1  2  1  0  0  0  0
  1 10  2  0  0  0  0
  2  3  1  0  0  0  0
  4  1  1  0  0  0  0
  5  4  2  0  0  0  0
  5  6  1  0  0  0  0
  6  9  2  0  0  0  0
  7  6  1  0  0  0  0
  7  8  1  0  0  0  0
  8 15  1  0  0  0  0
  9 10  1  0  0  0  0
  9 16  1  0  0  0  0
 10 17  1  0  0  0  0
 12  5  1  0  0  0  0
 13  8  1  0  0  0  0
 14  8  1  0  0  0  0
 18 24  1  0  0  0  0
 19 18  1  0  0  0  0
 19 25  1  0  0  0  0
 20 19  2  0  0  0  0
 21 22  2  0  0  0  0
 21 20  1  0  0  0  0
 22 23  1  0  0  0  0
 23 28  1  0  0  0  0
 23 18  2  0  0  0  0
 26 21  1  0  0  0  0
 27 22  1  0  0  0  0
 28 29  2  0  0  0  0
 30 28  1  0  0  0  0
 30 11  1  0  0  0  0
 31 28  2  0  0  0  0
 32 20  1  0  0  0  0
 32 33  1  0  0  0  0
 32 34  1  0  0  0  0
 35 32  1  0  0  0  0
M  RAD  3   2   2   3   3   4   2
M  END
