Coordinates from ORCA-job 4-MeOPhN2+~TsO-_B3LYPG-6-31G_dp-CH-Scan-d09-49-n800
 OpenBabel11261919303D

 35 35  0  0  0  0  0  0  0  0999 V2000
   -2.5929   -0.3839   -0.6540 C   0  0  0  0  0  0  0  0  0  0  0  0
   -3.8774   -0.8720   -0.7719 N   0  0  0  0  0  0  0  0  0  0  0  0
   -4.9914   -1.0027   -0.8841 N   0  0  0  0  0  0  0  0  0  0  0  0
   -2.3395    0.9667   -0.9779 C   0  0  0  0  0  0  0  0  0  0  0  0
   -1.0366    1.4065   -0.8439 C   0  0  0  0  0  0  0  0  0  0  0  0
   -0.0137    0.5425   -0.4004 C   0  0  0  0  0  0  0  0  0  0  0  0
    1.2102    1.0915   -0.3106 O   0  0  0  0  0  0  0  0  0  0  0  0
    2.3122    0.2912    0.1183 C   0  0  0  0  0  0  0  0  0  0  0  0
   -0.2982   -0.8055   -0.0886 C   0  0  0  0  0  0  0  0  0  0  0  0
   -1.5932   -1.2733   -0.2226 C   0  0  0  0  0  0  0  0  0  0  0  0
   -3.2628    1.7177   -1.4078 H   0  0  0  0  0  0  0  0  0  0  0  0
   -0.7730    2.4305   -1.0853 H   0  0  0  0  0  0  0  0  0  0  0  0
    3.1789    0.9515    0.1005 H   0  0  0  0  0  0  0  0  0  0  0  0
    2.4802   -0.5499   -0.5635 H   0  0  0  0  0  0  0  0  0  0  0  0
    2.1589   -0.0817    1.1369 H   0  0  0  0  0  0  0  0  0  0  0  0
    0.4788   -1.4787    0.2491 H   0  0  0  0  0  0  0  0  0  0  0  0
   -1.8394   -2.3041    0.0084 H   0  0  0  0  0  0  0  0  0  0  0  0
   -7.0721    4.1141   -1.4955 C   0  0  0  0  0  0  0  0  0  0  0  0
   -8.1645    4.9765   -1.5315 C   0  0  0  0  0  0  0  0  0  0  0  0
   -9.3310    4.6411   -2.2368 C   0  0  0  0  0  0  0  0  0  0  0  0
   -9.3679    3.4173   -2.9161 C   0  0  0  0  0  0  0  0  0  0  0  0
   -8.2800    2.5430   -2.8893 C   0  0  0  0  0  0  0  0  0  0  0  0
   -7.1369    2.8949   -2.1745 C   0  0  0  0  0  0  0  0  0  0  0  0
   -6.1655    4.3840   -0.9648 H   0  0  0  0  0  0  0  0  0  0  0  0
   -8.1116    5.9289   -1.0093 H   0  0  0  0  0  0  0  0  0  0  0  0
  -10.2582    3.1450   -3.4780 H   0  0  0  0  0  0  0  0  0  0  0  0
   -8.3008    1.6011   -3.4261 H   0  0  0  0  0  0  0  0  0  0  0  0
   -5.7574    1.7495   -2.0957 S   0  0  0  0  0  0  0  0  0  0  0  0
   -5.8823    1.0632   -0.7513 O   0  0  0  0  0  0  0  0  0  0  0  0
   -4.5249    2.6102   -2.1235 O   0  0  0  0  0  0  0  0  0  0  0  0
   -5.8872    0.8138   -3.2316 O   0  0  0  0  0  0  0  0  0  0  0  0
  -10.5159    5.5783   -2.2511 C   0  0  0  0  0  0  0  0  0  0  0  0
  -11.0195    5.5963   -1.2764 H   0  0  0  0  0  0  0  0  0  0  0  0
  -10.2104    6.6067   -2.4727 H   0  0  0  0  0  0  0  0  0  0  0  0
  -11.2547    5.2773   -2.9990 H   0  0  0  0  0  0  0  0  0  0  0  0
  1 10  2  0  0  0  0
  2  1  1  0  0  0  0
  3  2  1  0  0  0  0
  4  5  2  0  0  0  0
  4  1  1  0  0  0  0
  5  6  1  0  0  0  0
  6  7  1  0  0  0  0
  6  9  2  0  0  0  0
  7  8  1  0  0  0  0
  8 15  1  0  0  0  0
  9 16  1  0  0  0  0
 10  9  1  0  0  0  0
 10 17  1  0  0  0  0
 11  4  1  0  0  0  0
 12  5  1  0  0  0  0
 13  8  1  0  0  0  0
 14  8  1  0  0  0  0
 18 24  1  0  0  0  0
 19 18  1  0  0  0  0
 19 25  1  0  0  0  0
 20 19  2  0  0  0  0
 21 22  2  0  0  0  0
 21 20  1  0  0  0  0
 22 23  1  0  0  0  0
 23 28  1  0  0  0  0
 23 18  2  0  0  0  0
 26 21  1  0  0  0  0
 27 22  1  0  0  0  0
 28 29  1  0  0  0  0
 30 28  2  0  0  0  0
 31 28  2  0  0  0  0
 32 20  1  0  0  0  0
 32 33  1  0  0  0  0
 34 32  1  0  0  0  0
 35 32  1  0  0  0  0
M  RAD  3   2   2   3   3  29   2
M  END
