Coordinates from ORCA-job 4-MeOPhN2+~TsO-_B3LYPG-6-31G_dp-CH-Scan-d09-49-n800
 OpenBabel11261919313D

 35 35  0  0  0  0  0  0  0  0999 V2000
   -1.9537   -0.2421   -0.1222 C   0  0  0  0  0  0  0  0  0  0  0  0
   -3.3096   -0.4396    0.0420 N   0  0  0  0  0  0  0  0  0  0  0  0
   -4.4172   -0.5607    0.1666 N   0  0  0  0  0  0  0  0  0  0  0  0
   -1.6005    1.0498   -0.5790 C   0  0  0  0  0  0  0  0  0  0  0  0
   -0.2018    1.1451   -0.7104 C   0  0  0  0  0  0  0  0  0  0  0  0
    0.6924    0.1008   -0.4298 C   0  0  0  0  0  0  0  0  0  0  0  0
    2.0087    0.3693   -0.6177 O   0  0  0  0  0  0  0  0  0  0  0  0
    2.9767   -0.6424   -0.3696 C   0  0  0  0  0  0  0  0  0  0  0  0
    0.2286   -1.1661    0.0268 C   0  0  0  0  0  0  0  0  0  0  0  0
   -1.1243   -1.3527    0.1883 C   0  0  0  0  0  0  0  0  0  0  0  0
   -4.1220    3.5423   -1.6665 H   0  0  0  0  0  0  0  0  0  0  0  0
    0.2570    2.0731   -1.0539 H   0  0  0  0  0  0  0  0  0  0  0  0
    3.9436   -0.1924   -0.5990 H   0  0  0  0  0  0  0  0  0  0  0  0
    2.8244   -1.5152   -1.0157 H   0  0  0  0  0  0  0  0  0  0  0  0
    2.9691   -0.9617    0.6797 H   0  0  0  0  0  0  0  0  0  0  0  0
    0.9156   -1.9733    0.2465 H   0  0  0  0  0  0  0  0  0  0  0  0
   -1.5271   -2.3012    0.5358 H   0  0  0  0  0  0  0  0  0  0  0  0
   -8.2222    3.7450   -0.9833 C   0  0  0  0  0  0  0  0  0  0  0  0
   -9.4478    4.3838   -1.1450 C   0  0  0  0  0  0  0  0  0  0  0  0
  -10.0024    4.5796   -2.4202 C   0  0  0  0  0  0  0  0  0  0  0  0
   -9.2948    4.1154   -3.5370 C   0  0  0  0  0  0  0  0  0  0  0  0
   -8.0656    3.4729   -3.3965 C   0  0  0  0  0  0  0  0  0  0  0  0
   -7.5401    3.2987   -2.1170 C   0  0  0  0  0  0  0  0  0  0  0  0
   -7.7990    3.5835    0.0020 H   0  0  0  0  0  0  0  0  0  0  0  0
   -9.9855    4.7350   -0.2686 H   0  0  0  0  0  0  0  0  0  0  0  0
   -9.7118    4.2564   -4.5303 H   0  0  0  0  0  0  0  0  0  0  0  0
   -7.5219    3.1040   -4.2588 H   0  0  0  0  0  0  0  0  0  0  0  0
   -5.9720    2.4785   -1.9259 S   0  0  0  0  0  0  0  0  0  0  0  0
   -5.8895    1.8693   -0.5970 O   0  0  0  0  0  0  0  0  0  0  0  0
   -5.0174    3.8139   -1.9374 O   0  0  0  0  0  0  0  0  0  0  0  0
   -5.6909    1.6787   -3.1153 O   0  0  0  0  0  0  0  0  0  0  0  0
  -11.3433    5.2551   -2.5758 C   0  0  0  0  0  0  0  0  0  0  0  0
  -12.1571    4.5844   -2.2748 H   0  0  0  0  0  0  0  0  0  0  0  0
  -11.4134    6.1493   -1.9489 H   0  0  0  0  0  0  0  0  0  0  0  0
  -11.5251    5.5508   -3.6121 H   0  0  0  0  0  0  0  0  0  0  0  0
  1  2  1  0  0  0  0
  1 10  2  0  0  0  0
  2  3  1  0  0  0  0
  4  1  1  0  0  0  0
  5  4  2  0  0  0  0
  5  6  1  0  0  0  0
  6  9  2  0  0  0  0
  7  6  1  0  0  0  0
  7  8  1  0  0  0  0
  8 15  1  0  0  0  0
  9 10  1  0  0  0  0
  9 16  1  0  0  0  0
 10 17  1  0  0  0  0
 12  5  1  0  0  0  0
 13  8  1  0  0  0  0
 14  8  1  0  0  0  0
 18 24  1  0  0  0  0
 19 18  1  0  0  0  0
 19 25  1  0  0  0  0
 20 19  2  0  0  0  0
 21 22  2  0  0  0  0
 21 20  1  0  0  0  0
 22 23  1  0  0  0  0
 23 28  1  0  0  0  0
 23 18  2  0  0  0  0
 26 21  1  0  0  0  0
 27 22  1  0  0  0  0
 28 29  2  0  0  0  0
 30 28  1  0  0  0  0
 30 11  1  0  0  0  0
 31 28  2  0  0  0  0
 32 20  1  0  0  0  0
 32 33  1  0  0  0  0
 32 34  1  0  0  0  0
 35 32  1  0  0  0  0
M  RAD  3   2   2   3   3   4   2
M  END
