Coordinates from ORCA-job 4-MeOPhN2+~TsO-_B3LYPG-6-31G_dp-CH-Scan-d09-49-n800
 OpenBabel11261919313D

 35 35  0  0  0  0  0  0  0  0999 V2000
   -2.2618   -0.3795   -0.1668 C   0  0  0  0  0  0  0  0  0  0  0  0
   -3.5568   -0.7956    0.0489 N   0  0  0  0  0  0  0  0  0  0  0  0
   -4.6203   -1.1066    0.2139 N   0  0  0  0  0  0  0  0  0  0  0  0
   -2.1206    0.8944   -0.7689 C   0  0  0  0  0  0  0  0  0  0  0  0
   -0.7651    1.2168   -0.9393 C   0  0  0  0  0  0  0  0  0  0  0  0
    0.2958    0.3783   -0.5600 C   0  0  0  0  0  0  0  0  0  0  0  0
    1.5428    0.8472   -0.7985 O   0  0  0  0  0  0  0  0  0  0  0  0
    2.6740    0.0569   -0.4483 C   0  0  0  0  0  0  0  0  0  0  0  0
    0.0537   -0.8891    0.0391 C   0  0  0  0  0  0  0  0  0  0  0  0
   -1.2477   -1.2843    0.2440 C   0  0  0  0  0  0  0  0  0  0  0  0
   -4.0537    2.3921   -1.5501 H   0  0  0  0  0  0  0  0  0  0  0  0
   -0.4770    2.1657   -1.3901 H   0  0  0  0  0  0  0  0  0  0  0  0
    3.5468    0.6450   -0.7343 H   0  0  0  0  0  0  0  0  0  0  0  0
    2.6855   -0.8937   -0.9940 H   0  0  0  0  0  0  0  0  0  0  0  0
    2.7095   -0.1405    0.6300 H   0  0  0  0  0  0  0  0  0  0  0  0
    0.8676   -1.5389    0.3328 H   0  0  0  0  0  0  0  0  0  0  0  0
   -1.4808   -2.2440    0.6978 H   0  0  0  0  0  0  0  0  0  0  0  0
   -8.0208    3.4835   -0.9396 C   0  0  0  0  0  0  0  0  0  0  0  0
   -9.0777    4.3762   -1.0907 C   0  0  0  0  0  0  0  0  0  0  0  0
   -9.5619    4.7193   -2.3630 C   0  0  0  0  0  0  0  0  0  0  0  0
   -8.9579    4.1414   -3.4873 C   0  0  0  0  0  0  0  0  0  0  0  0
   -7.8979    3.2450   -3.3563 C   0  0  0  0  0  0  0  0  0  0  0  0
   -7.4365    2.9287   -2.0797 C   0  0  0  0  0  0  0  0  0  0  0  0
   -7.6545    3.2089    0.0435 H   0  0  0  0  0  0  0  0  0  0  0  0
   -9.5372    4.8131   -0.2082 H   0  0  0  0  0  0  0  0  0  0  0  0
   -9.3224    4.3943   -4.4791 H   0  0  0  0  0  0  0  0  0  0  0  0
   -7.4362    2.7889   -4.2248 H   0  0  0  0  0  0  0  0  0  0  0  0
   -6.0816    1.7847   -1.9010 S   0  0  0  0  0  0  0  0  0  0  0  0
   -6.1773    1.1178   -0.5969 O   0  0  0  0  0  0  0  0  0  0  0  0
   -4.8686    2.8616   -1.8462 O   0  0  0  0  0  0  0  0  0  0  0  0
   -5.9722    0.9747   -3.1137 O   0  0  0  0  0  0  0  0  0  0  0  0
  -10.7247    5.6713   -2.5082 C   0  0  0  0  0  0  0  0  0  0  0  0
  -11.6704    5.1777   -2.2534 H   0  0  0  0  0  0  0  0  0  0  0  0
  -10.6211    6.5322   -1.8401 H   0  0  0  0  0  0  0  0  0  0  0  0
  -10.8124    6.0440   -3.5318 H   0  0  0  0  0  0  0  0  0  0  0  0
  1  2  1  0  0  0  0
  1 10  2  0  0  0  0
  2  3  1  0  0  0  0
  4  1  1  0  0  0  0
  5  4  2  0  0  0  0
  5  6  1  0  0  0  0
  6  9  2  0  0  0  0
  7  6  1  0  0  0  0
  7  8  1  0  0  0  0
  8 15  1  0  0  0  0
  9 10  1  0  0  0  0
  9 16  1  0  0  0  0
 10 17  1  0  0  0  0
 12  5  1  0  0  0  0
 13  8  1  0  0  0  0
 14  8  1  0  0  0  0
 18 24  1  0  0  0  0
 19 18  1  0  0  0  0
 19 25  1  0  0  0  0
 20 19  2  0  0  0  0
 21 22  2  0  0  0  0
 21 20  1  0  0  0  0
 22 23  1  0  0  0  0
 23 28  1  0  0  0  0
 23 18  2  0  0  0  0
 26 21  1  0  0  0  0
 27 22  1  0  0  0  0
 28 30  1  0  0  0  0
 28 29  2  0  0  0  0
 30 11  1  0  0  0  0
 31 28  2  0  0  0  0
 32 20  1  0  0  0  0
 32 33  1  0  0  0  0
 32 34  1  0  0  0  0
 35 32  1  0  0  0  0
M  RAD  3   2   2   3   3   4   2
M  END
