Coordinates from ORCA-job 4-MeOPhN2+~TsO-_B3LYPG-6-31G_dp-CH-Scan-d09-49-n800
 OpenBabel11261919313D

 35 35  0  0  0  0  0  0  0  0999 V2000
   -2.0576   -0.2738   -0.1067 C   0  0  0  0  0  0  0  0  0  0  0  0
   -3.3958   -0.5363    0.0986 N   0  0  0  0  0  0  0  0  0  0  0  0
   -4.4908   -0.7154    0.2577 N   0  0  0  0  0  0  0  0  0  0  0  0
   -1.7744    1.0204   -0.6051 C   0  0  0  0  0  0  0  0  0  0  0  0
   -0.3867    1.1805   -0.7726 C   0  0  0  0  0  0  0  0  0  0  0  0
    0.5638    0.1885   -0.4854 C   0  0  0  0  0  0  0  0  0  0  0  0
    1.8602    0.5162   -0.7090 O   0  0  0  0  0  0  0  0  0  0  0  0
    2.8826   -0.4398   -0.4551 C   0  0  0  0  0  0  0  0  0  0  0  0
    0.1722   -1.0863    0.0131 C   0  0  0  0  0  0  0  0  0  0  0  0
   -1.1661   -1.3331    0.2109 C   0  0  0  0  0  0  0  0  0  0  0  0
   -4.0807    3.2054   -1.5446 H   0  0  0  0  0  0  0  0  0  0  0  0
    0.0177    2.1200   -1.1505 H   0  0  0  0  0  0  0  0  0  0  0  0
    3.8211    0.0520   -0.7143 H   0  0  0  0  0  0  0  0  0  0  0  0
    2.7622   -1.3349   -1.0767 H   0  0  0  0  0  0  0  0  0  0  0  0
    2.9095   -0.7320    0.6017 H   0  0  0  0  0  0  0  0  0  0  0  0
    0.9021   -1.8537    0.2369 H   0  0  0  0  0  0  0  0  0  0  0  0
   -1.5143   -2.2906    0.5908 H   0  0  0  0  0  0  0  0  0  0  0  0
   -8.1881    3.6506   -0.9552 C   0  0  0  0  0  0  0  0  0  0  0  0
   -9.3685    4.3641   -1.1398 C   0  0  0  0  0  0  0  0  0  0  0  0
   -9.8698    4.6183   -2.4266 C   0  0  0  0  0  0  0  0  0  0  0  0
   -9.1554    4.1363   -3.5313 C   0  0  0  0  0  0  0  0  0  0  0  0
   -7.9711    3.4190   -3.3676 C   0  0  0  0  0  0  0  0  0  0  0  0
   -7.4976    3.1876   -2.0771 C   0  0  0  0  0  0  0  0  0  0  0  0
   -7.8065    3.4437    0.0385 H   0  0  0  0  0  0  0  0  0  0  0  0
   -9.9126    4.7281   -0.2726 H   0  0  0  0  0  0  0  0  0  0  0  0
   -9.5316    4.3219   -4.5335 H   0  0  0  0  0  0  0  0  0  0  0  0
   -7.4230    3.0358   -4.2209 H   0  0  0  0  0  0  0  0  0  0  0  0
   -5.9880    2.2693   -1.8570 S   0  0  0  0  0  0  0  0  0  0  0  0
   -5.9877    1.6307   -0.5386 O   0  0  0  0  0  0  0  0  0  0  0  0
   -4.9558    3.5401   -1.8166 O   0  0  0  0  0  0  0  0  0  0  0  0
   -5.7246    1.4710   -3.0520 O   0  0  0  0  0  0  0  0  0  0  0  0
  -11.1636    5.3749   -2.6079 C   0  0  0  0  0  0  0  0  0  0  0  0
  -12.0224    4.7568   -2.3198 H   0  0  0  0  0  0  0  0  0  0  0  0
  -11.1901    6.2739   -1.9844 H   0  0  0  0  0  0  0  0  0  0  0  0
  -11.3080    5.6783   -3.6477 H   0  0  0  0  0  0  0  0  0  0  0  0
  1  2  1  0  0  0  0
  1 10  2  0  0  0  0
  2  3  1  0  0  0  0
  4  1  1  0  0  0  0
  5  4  2  0  0  0  0
  5  6  1  0  0  0  0
  6  9  2  0  0  0  0
  7  6  1  0  0  0  0
  7  8  1  0  0  0  0
  8 15  1  0  0  0  0
  9 10  1  0  0  0  0
  9 16  1  0  0  0  0
 10 17  1  0  0  0  0
 12  5  1  0  0  0  0
 13  8  1  0  0  0  0
 14  8  1  0  0  0  0
 18 24  1  0  0  0  0
 19 18  1  0  0  0  0
 19 25  1  0  0  0  0
 20 19  2  0  0  0  0
 21 22  2  0  0  0  0
 21 20  1  0  0  0  0
 22 23  1  0  0  0  0
 23 28  1  0  0  0  0
 23 18  2  0  0  0  0
 26 21  1  0  0  0  0
 27 22  1  0  0  0  0
 28 30  1  0  0  0  0
 28 29  2  0  0  0  0
 30 11  1  0  0  0  0
 31 28  2  0  0  0  0
 32 20  1  0  0  0  0
 32 33  1  0  0  0  0
 32 34  1  0  0  0  0
 35 32  1  0  0  0  0
M  RAD  3   2   2   3   3   4   2
M  END
