Coordinates from ORCA-job 4-MeOPhN2+~TsO-_B3LYPG-6-31G_dp-CH-Scan-d09-49-n800
 OpenBabel11261919313D

 35 35  0  0  0  0  0  0  0  0999 V2000
   -2.2135   -0.3518   -0.1365 C   0  0  0  0  0  0  0  0  0  0  0  0
   -3.5190   -0.7305    0.0863 N   0  0  0  0  0  0  0  0  0  0  0  0
   -4.5903   -1.0106    0.2577 N   0  0  0  0  0  0  0  0  0  0  0  0
   -2.0412    0.9319   -0.7087 C   0  0  0  0  0  0  0  0  0  0  0  0
   -0.6772    1.2131   -0.8901 C   0  0  0  0  0  0  0  0  0  0  0  0
    0.3605    0.3315   -0.5471 C   0  0  0  0  0  0  0  0  0  0  0  0
    1.6196    0.7652   -0.7918 O   0  0  0  0  0  0  0  0  0  0  0  0
    2.7283   -0.0698   -0.4759 C   0  0  0  0  0  0  0  0  0  0  0  0
    0.0856   -0.9421    0.0247 C   0  0  0  0  0  0  0  0  0  0  0  0
   -1.2251   -1.3000    0.2383 C   0  0  0  0  0  0  0  0  0  0  0  0
   -4.0582    2.5935   -1.4888 H   0  0  0  0  0  0  0  0  0  0  0  0
   -0.3632    2.1630   -1.3217 H   0  0  0  0  0  0  0  0  0  0  0  0
    3.6163    0.4958   -0.7605 H   0  0  0  0  0  0  0  0  0  0  0  0
    2.7015   -1.0074   -1.0432 H   0  0  0  0  0  0  0  0  0  0  0  0
    2.7718   -0.2936    0.5969 H   0  0  0  0  0  0  0  0  0  0  0  0
    0.8821   -1.6247    0.2914 H   0  0  0  0  0  0  0  0  0  0  0  0
   -1.4836   -2.2626    0.6723 H   0  0  0  0  0  0  0  0  0  0  0  0
   -8.0737    3.5225   -0.9416 C   0  0  0  0  0  0  0  0  0  0  0  0
   -9.1639    4.3707   -1.1094 C   0  0  0  0  0  0  0  0  0  0  0  0
   -9.6415    4.6948   -2.3895 C   0  0  0  0  0  0  0  0  0  0  0  0
   -8.9960    4.1439   -3.5041 C   0  0  0  0  0  0  0  0  0  0  0  0
   -7.9015    3.2926   -3.3566 C   0  0  0  0  0  0  0  0  0  0  0  0
   -7.4486    2.9941   -2.0728 C   0  0  0  0  0  0  0  0  0  0  0  0
   -7.7126    3.2621    0.0472 H   0  0  0  0  0  0  0  0  0  0  0  0
   -9.6556    4.7869   -0.2343 H   0  0  0  0  0  0  0  0  0  0  0  0
   -9.3551    4.3822   -4.5014 H   0  0  0  0  0  0  0  0  0  0  0  0
   -7.4070    2.8572   -4.2175 H   0  0  0  0  0  0  0  0  0  0  0  0
   -6.0525    1.9048   -1.8734 S   0  0  0  0  0  0  0  0  0  0  0  0
   -6.1511    1.2175   -0.5812 O   0  0  0  0  0  0  0  0  0  0  0  0
   -4.8880    3.0367   -1.7715 O   0  0  0  0  0  0  0  0  0  0  0  0
   -5.8734    1.1202   -3.0940 O   0  0  0  0  0  0  0  0  0  0  0  0
  -10.8394    5.5993   -2.5525 C   0  0  0  0  0  0  0  0  0  0  0  0
  -11.7641    5.0801   -2.2732 H   0  0  0  0  0  0  0  0  0  0  0  0
  -10.7614    6.4835   -1.9118 H   0  0  0  0  0  0  0  0  0  0  0  0
  -10.9488    5.9374   -3.5858 H   0  0  0  0  0  0  0  0  0  0  0  0
  1  2  1  0  0  0  0
  1 10  2  0  0  0  0
  2  3  1  0  0  0  0
  4  1  1  0  0  0  0
  5  4  2  0  0  0  0
  5  6  1  0  0  0  0
  6  9  2  0  0  0  0
  7  6  1  0  0  0  0
  7  8  1  0  0  0  0
  8 15  1  0  0  0  0
  9 10  1  0  0  0  0
  9 16  1  0  0  0  0
 10 17  1  0  0  0  0
 12  5  1  0  0  0  0
 13  8  1  0  0  0  0
 14  8  1  0  0  0  0
 18 24  1  0  0  0  0
 19 18  1  0  0  0  0
 19 25  1  0  0  0  0
 20 19  2  0  0  0  0
 21 22  2  0  0  0  0
 21 20  1  0  0  0  0
 22 23  1  0  0  0  0
 23 28  1  0  0  0  0
 23 18  2  0  0  0  0
 26 21  1  0  0  0  0
 27 22  1  0  0  0  0
 28 30  1  0  0  0  0
 28 29  2  0  0  0  0
 30 11  1  0  0  0  0
 31 28  2  0  0  0  0
 32 20  1  0  0  0  0
 32 33  1  0  0  0  0
 32 34  1  0  0  0  0
 35 32  1  0  0  0  0
M  RAD  3   2   2   3   3   4   2
M  END
