Coordinates from ORCA-job 4-MeOPhN2+~TsO-_B3LYPG-6-31G_dp-CH-Scan-d09-49-n800
 OpenBabel11261919303D

 35 35  0  0  0  0  0  0  0  0999 V2000
   -2.7853   -0.0814   -0.3699 C   0  0  0  0  0  0  0  0  0  0  0  0
   -4.1460   -0.3517   -0.3802 N   0  0  0  0  0  0  0  0  0  0  0  0
   -5.2396   -0.0165   -0.3899 N   0  0  0  0  0  0  0  0  0  0  0  0
   -2.3160    1.2498   -0.3154 C   0  0  0  0  0  0  0  0  0  0  0  0
   -0.9499    1.4492   -0.3118 C   0  0  0  0  0  0  0  0  0  0  0  0
   -0.0541    0.3612   -0.3630 C   0  0  0  0  0  0  0  0  0  0  0  0
    1.2516    0.6868   -0.3545 O   0  0  0  0  0  0  0  0  0  0  0  0
    2.2304   -0.3488   -0.4198 C   0  0  0  0  0  0  0  0  0  0  0  0
   -0.5426   -0.9582   -0.4171 C   0  0  0  0  0  0  0  0  0  0  0  0
   -1.9122   -1.1752   -0.4197 C   0  0  0  0  0  0  0  0  0  0  0  0
   -2.9281    1.9824   -0.2856 H   0  0  0  0  0  0  0  0  0  0  0  0
   -0.5423    2.4537   -0.2779 H   0  0  0  0  0  0  0  0  0  0  0  0
    3.1956    0.1566   -0.4034 H   0  0  0  0  0  0  0  0  0  0  0  0
    2.1368   -0.9256   -1.3471 H   0  0  0  0  0  0  0  0  0  0  0  0
    2.1564   -1.0210    0.4430 H   0  0  0  0  0  0  0  0  0  0  0  0
    0.1307   -1.8044   -0.4584 H   0  0  0  0  0  0  0  0  0  0  0  0
   -2.3143   -2.1815   -0.4644 H   0  0  0  0  0  0  0  0  0  0  0  0
   -7.1649    4.5974   -1.5793 C   0  0  0  0  0  0  0  0  0  0  0  0
   -8.4478    5.0979   -1.7931 C   0  0  0  0  0  0  0  0  0  0  0  0
   -9.4292    4.3282   -2.4346 C   0  0  0  0  0  0  0  0  0  0  0  0
   -9.0862    3.0406   -2.8693 C   0  0  0  0  0  0  0  0  0  0  0  0
   -7.8069    2.5262   -2.6616 C   0  0  0  0  0  0  0  0  0  0  0  0
   -6.8519    3.3077   -2.0113 C   0  0  0  0  0  0  0  0  0  0  0  0
   -6.4007    5.2009   -1.1016 H   0  0  0  0  0  0  0  0  0  0  0  0
   -8.6899    6.1053   -1.4641 H   0  0  0  0  0  0  0  0  0  0  0  0
   -9.8290    2.4346   -3.3826 H   0  0  0  0  0  0  0  0  0  0  0  0
   -7.5366    1.5374   -3.0154 H   0  0  0  0  0  0  0  0  0  0  0  0
   -5.2122    2.6439   -1.7065 S   0  0  0  0  0  0  0  0  0  0  0  0
   -5.2970    2.0186   -0.2918 O   0  0  0  0  0  0  0  0  0  0  0  0
   -4.2803    3.7878   -1.6737 O   0  0  0  0  0  0  0  0  0  0  0  0
   -4.9662    1.5904   -2.7146 O   0  0  0  0  0  0  0  0  0  0  0  0
  -10.8252    4.8682   -2.6361 C   0  0  0  0  0  0  0  0  0  0  0  0
  -11.4592    4.6615   -1.7638 H   0  0  0  0  0  0  0  0  0  0  0  0
  -10.8180    5.9531   -2.7811 H   0  0  0  0  0  0  0  0  0  0  0  0
  -11.3095    4.4125   -3.5046 H   0  0  0  0  0  0  0  0  0  0  0  0
  1  4  2  0  0  0  0
  2  1  1  0  0  0  0
  3  2  2  0  0  0  0
  4  5  1  0  0  0  0
  4 11  1  0  0  0  0
  5 12  1  0  0  0  0
  6  7  1  0  0  0  0
  6  5  2  0  0  0  0
  8 13  1  0  0  0  0
  8  7  1  0  0  0  0
  8 15  1  0  0  0  0
  9  6  1  0  0  0  0
 10  9  2  0  0  0  0
 10  1  1  0  0  0  0
 14  8  1  0  0  0  0
 16  9  1  0  0  0  0
 17 10  1  0  0  0  0
 18 24  1  0  0  0  0
 19 18  1  0  0  0  0
 19 25  1  0  0  0  0
 20 19  2  0  0  0  0
 21 22  2  0  0  0  0
 21 20  1  0  0  0  0
 22 23  1  0  0  0  0
 23 28  1  0  0  0  0
 23 18  2  0  0  0  0
 26 21  1  0  0  0  0
 27 22  1  0  0  0  0
 28 30  2  0  0  0  0
 28 29  1  0  0  0  0
 31 28  2  0  0  0  0
 32 20  1  0  0  0  0
 32 33  1  0  0  0  0
 34 32  1  0  0  0  0
 35 32  1  0  0  0  0
M  RAD  2   3   2  29   2
M  END
