Coordinates from ORCA-job 4-MeOPhN2+~TsO-_B3LYPG-6-31G_dp-CH-Scan-d09-49-n800
 OpenBabel11261919313D

 35 35  0  0  0  0  0  0  0  0999 V2000
   -1.7253   -0.2376   -0.2676 C   0  0  0  0  0  0  0  0  0  0  0  0
   -3.0994   -0.3722   -0.2746 N   0  0  0  0  0  0  0  0  0  0  0  0
   -4.2192   -0.4346   -0.2830 N   0  0  0  0  0  0  0  0  0  0  0  0
   -1.2691    1.0525   -0.6266 C   0  0  0  0  0  0  0  0  0  0  0  0
    0.1391    1.0857   -0.5886 C   0  0  0  0  0  0  0  0  0  0  0  0
    0.9482   -0.0083   -0.2470 C   0  0  0  0  0  0  0  0  0  0  0  0
    2.2884    0.2040   -0.2676 O   0  0  0  0  0  0  0  0  0  0  0  0
    3.1750   -0.8589    0.0566 C   0  0  0  0  0  0  0  0  0  0  0  0
    0.3803   -1.2680    0.1004 C   0  0  0  0  0  0  0  0  0  0  0  0
   -0.9886   -1.3975    0.0935 C   0  0  0  0  0  0  0  0  0  0  0  0
   -4.2979    3.7648   -2.1571 H   0  0  0  0  0  0  0  0  0  0  0  0
    0.6748    2.0031   -0.8375 H   0  0  0  0  0  0  0  0  0  0  0  0
    4.1811   -0.4474   -0.0375 H   0  0  0  0  0  0  0  0  0  0  0  0
    3.0658   -1.7031   -0.6351 H   0  0  0  0  0  0  0  0  0  0  0  0
    3.0266   -1.2112    1.0849 H   0  0  0  0  0  0  0  0  0  0  0  0
    1.0021   -2.1131    0.3669 H   0  0  0  0  0  0  0  0  0  0  0  0
   -1.4697   -2.3381    0.3525 H   0  0  0  0  0  0  0  0  0  0  0  0
   -8.2143    3.8573   -1.1289 C   0  0  0  0  0  0  0  0  0  0  0  0
   -9.4657    4.4649   -1.1194 C   0  0  0  0  0  0  0  0  0  0  0  0
  -10.2108    4.6125   -2.3009 C   0  0  0  0  0  0  0  0  0  0  0  0
   -9.6683    4.1309   -3.4994 C   0  0  0  0  0  0  0  0  0  0  0  0
   -8.4161    3.5184   -3.5304 C   0  0  0  0  0  0  0  0  0  0  0  0
   -7.6997    3.3925   -2.3414 C   0  0  0  0  0  0  0  0  0  0  0  0
   -7.6447    3.7328   -0.2145 H   0  0  0  0  0  0  0  0  0  0  0  0
   -9.8738    4.8296   -0.1808 H   0  0  0  0  0  0  0  0  0  0  0  0
  -10.2335    4.2337   -4.4215 H   0  0  0  0  0  0  0  0  0  0  0  0
   -7.9998    3.1356   -4.4553 H   0  0  0  0  0  0  0  0  0  0  0  0
   -6.0982    2.6163   -2.3677 S   0  0  0  0  0  0  0  0  0  0  0  0
   -5.7971    2.0386   -1.0562 O   0  0  0  0  0  0  0  0  0  0  0  0
   -5.1741    3.9672   -2.5298 O   0  0  0  0  0  0  0  0  0  0  0  0
   -5.9740    1.8086   -3.5768 O   0  0  0  0  0  0  0  0  0  0  0  0
  -11.5754    5.2577   -2.2684 C   0  0  0  0  0  0  0  0  0  0  0  0
  -12.3081    4.6004   -1.7850 H   0  0  0  0  0  0  0  0  0  0  0  0
  -11.5593    6.1939   -1.7013 H   0  0  0  0  0  0  0  0  0  0  0  0
  -11.9392    5.4764   -3.2753 H   0  0  0  0  0  0  0  0  0  0  0  0
  1 10  2  0  0  0  0
  2  1  1  0  0  0  0
  3  2  1  0  0  0  0
  4  5  2  0  0  0  0
  4  1  1  0  0  0  0
  5  6  1  0  0  0  0
  6  9  2  0  0  0  0
  7  6  1  0  0  0  0
  7  8  1  0  0  0  0
  8 15  1  0  0  0  0
  9 16  1  0  0  0  0
 10  9  1  0  0  0  0
 10 17  1  0  0  0  0
 12  5  1  0  0  0  0
 13  8  1  0  0  0  0
 14  8  1  0  0  0  0
 18 19  1  0  0  0  0
 18 24  1  0  0  0  0
 19 25  1  0  0  0  0
 20 32  1  0  0  0  0
 20 19  2  0  0  0  0
 21 20  1  0  0  0  0
 22 21  2  0  0  0  0
 22 23  1  0  0  0  0
 23 18  2  0  0  0  0
 26 21  1  0  0  0  0
 27 22  1  0  0  0  0
 28 23  1  0  0  0  0
 28 29  2  0  0  0  0
 30 28  1  0  0  0  0
 30 11  1  0  0  0  0
 31 28  2  0  0  0  0
 32 33  1  0  0  0  0
 32 34  1  0  0  0  0
 35 32  1  0  0  0  0
M  RAD  3   2   2   3   3   4   2
M  END
