Coordinates from ORCA-job 4-MeOPhN2+~TsO-_B3LYPG-6-31G_dp-CH-Scan-d09-49-n800
 OpenBabel11261919313D

 35 35  0  0  0  0  0  0  0  0999 V2000
   -2.0965   -0.2925   -0.1055 C   0  0  0  0  0  0  0  0  0  0  0  0
   -3.4265   -0.5844    0.1105 N   0  0  0  0  0  0  0  0  0  0  0  0
   -4.5156   -0.7893    0.2782 N   0  0  0  0  0  0  0  0  0  0  0  0
   -1.8436    1.0004   -0.6233 C   0  0  0  0  0  0  0  0  0  0  0  0
   -0.4615    1.1911   -0.8000 C   0  0  0  0  0  0  0  0  0  0  0  0
    0.5131    0.2255   -0.5030 C   0  0  0  0  0  0  0  0  0  0  0  0
    1.8001    0.5802   -0.7368 O   0  0  0  0  0  0  0  0  0  0  0  0
    2.8462   -0.3471   -0.4719 C   0  0  0  0  0  0  0  0  0  0  0  0
    0.1530   -1.0506    0.0150 C   0  0  0  0  0  0  0  0  0  0  0  0
   -1.1784   -1.3254    0.2224 C   0  0  0  0  0  0  0  0  0  0  0  0
   -4.0744    3.0439   -1.5110 H   0  0  0  0  0  0  0  0  0  0  0  0
   -0.0812    2.1343   -1.1929 H   0  0  0  0  0  0  0  0  0  0  0  0
    3.7717    0.1637   -0.7408 H   0  0  0  0  0  0  0  0  0  0  0  0
    2.7460   -1.2537   -1.0802 H   0  0  0  0  0  0  0  0  0  0  0  0
    2.8826   -0.6229    0.5890 H   0  0  0  0  0  0  0  0  0  0  0  0
    0.9015   -1.7977    0.2464 H   0  0  0  0  0  0  0  0  0  0  0  0
   -1.5024   -2.2854    0.6169 H   0  0  0  0  0  0  0  0  0  0  0  0
   -8.1668    3.6122   -0.9518 C   0  0  0  0  0  0  0  0  0  0  0  0
   -9.3249    4.3616   -1.1350 C   0  0  0  0  0  0  0  0  0  0  0  0
   -9.8138    4.6401   -2.4216 C   0  0  0  0  0  0  0  0  0  0  0  0
   -9.1098    4.1454   -3.5273 C   0  0  0  0  0  0  0  0  0  0  0  0
   -7.9476    3.3924   -3.3648 C   0  0  0  0  0  0  0  0  0  0  0  0
   -7.4859    3.1373   -2.0747 C   0  0  0  0  0  0  0  0  0  0  0  0
   -7.7954    3.3864    0.0417 H   0  0  0  0  0  0  0  0  0  0  0  0
   -9.8613    4.7349   -0.2668 H   0  0  0  0  0  0  0  0  0  0  0  0
   -9.4768    4.3494   -4.5293 H   0  0  0  0  0  0  0  0  0  0  0  0
   -7.4078    2.9995   -4.2190 H   0  0  0  0  0  0  0  0  0  0  0  0
   -6.0051    2.1722   -1.8564 S   0  0  0  0  0  0  0  0  0  0  0  0
   -6.0373    1.5122   -0.5485 O   0  0  0  0  0  0  0  0  0  0  0  0
   -4.9374    3.4090   -1.7864 O   0  0  0  0  0  0  0  0  0  0  0  0
   -5.7565    1.3837   -3.0612 O   0  0  0  0  0  0  0  0  0  0  0  0
  -11.0840    5.4361   -2.6014 C   0  0  0  0  0  0  0  0  0  0  0  0
  -11.9608    4.8467   -2.3076 H   0  0  0  0  0  0  0  0  0  0  0  0
  -11.0803    6.3381   -1.9813 H   0  0  0  0  0  0  0  0  0  0  0  0
  -11.2224    5.7401   -3.6418 H   0  0  0  0  0  0  0  0  0  0  0  0
  1  2  1  0  0  0  0
  1 10  2  0  0  0  0
  2  3  1  0  0  0  0
  4  1  1  0  0  0  0
  5  4  2  0  0  0  0
  5  6  1  0  0  0  0
  6  9  2  0  0  0  0
  7  6  1  0  0  0  0
  7  8  1  0  0  0  0
  8 15  1  0  0  0  0
  9 10  1  0  0  0  0
  9 16  1  0  0  0  0
 10 17  1  0  0  0  0
 12  5  1  0  0  0  0
 13  8  1  0  0  0  0
 14  8  1  0  0  0  0
 18 24  1  0  0  0  0
 19 18  1  0  0  0  0
 19 25  1  0  0  0  0
 20 19  2  0  0  0  0
 21 22  2  0  0  0  0
 21 20  1  0  0  0  0
 22 23  1  0  0  0  0
 23 28  1  0  0  0  0
 23 18  2  0  0  0  0
 26 21  1  0  0  0  0
 27 22  1  0  0  0  0
 28 30  1  0  0  0  0
 28 29  2  0  0  0  0
 30 11  1  0  0  0  0
 31 28  2  0  0  0  0
 32 20  1  0  0  0  0
 32 33  1  0  0  0  0
 32 34  1  0  0  0  0
 35 32  1  0  0  0  0
M  RAD  3   2   2   3   3   4   2
M  END
