Coordinates from ORCA-job 4-MeOPhN2+~TsO-_B3LYPG-6-31G_dp-CH-Scan-d09-49-n800
 OpenBabel11261919313D

 35 35  0  0  0  0  0  0  0  0999 V2000
   -1.6796   -0.3356   -0.5738 C   0  0  0  0  0  0  0  0  0  0  0  0
   -3.0294   -0.5404   -0.7791 N   0  0  0  0  0  0  0  0  0  0  0  0
   -4.1292   -0.6609   -0.9646 N   0  0  0  0  0  0  0  0  0  0  0  0
   -1.2205    0.9363   -0.9894 C   0  0  0  0  0  0  0  0  0  0  0  0
    0.1623    1.0454   -0.7406 C   0  0  0  0  0  0  0  0  0  0  0  0
    0.9462    0.0332   -0.1670 C   0  0  0  0  0  0  0  0  0  0  0  0
    2.2639    0.3127   -0.0017 O   0  0  0  0  0  0  0  0  0  0  0  0
    3.1253   -0.6631    0.5709 C   0  0  0  0  0  0  0  0  0  0  0  0
    0.3773   -1.2158    0.2157 C   0  0  0  0  0  0  0  0  0  0  0  0
   -0.9677   -1.4167    0.0117 C   0  0  0  0  0  0  0  0  0  0  0  0
   -4.3786    3.5022   -2.7769 H   0  0  0  0  0  0  0  0  0  0  0  0
    0.6967    1.9614   -0.9974 H   0  0  0  0  0  0  0  0  0  0  0  0
    4.1161   -0.2072    0.5971 H   0  0  0  0  0  0  0  0  0  0  0  0
    3.1652   -1.5752   -0.0368 H   0  0  0  0  0  0  0  0  0  0  0  0
    2.8222   -0.9216    1.5928 H   0  0  0  0  0  0  0  0  0  0  0  0
    0.9805   -1.9985    0.6576 H   0  0  0  0  0  0  0  0  0  0  0  0
   -1.4485   -2.3528    0.2865 H   0  0  0  0  0  0  0  0  0  0  0  0
   -8.0494    3.7834   -1.2493 C   0  0  0  0  0  0  0  0  0  0  0  0
   -9.2416    4.4711   -1.0419 C   0  0  0  0  0  0  0  0  0  0  0  0
  -10.1467    4.6891   -2.0924 C   0  0  0  0  0  0  0  0  0  0  0  0
   -9.8270    4.1969   -3.3653 C   0  0  0  0  0  0  0  0  0  0  0  0
   -8.6393    3.5041   -3.5937 C   0  0  0  0  0  0  0  0  0  0  0  0
   -7.7591    3.3088   -2.5299 C   0  0  0  0  0  0  0  0  0  0  0  0
   -7.3558    3.6050   -0.4347 H   0  0  0  0  0  0  0  0  0  0  0  0
   -9.4747    4.8445   -0.0483 H   0  0  0  0  0  0  0  0  0  0  0  0
  -10.5176    4.3560   -4.1892 H   0  0  0  0  0  0  0  0  0  0  0  0
   -8.3971    3.1130   -4.5755 H   0  0  0  0  0  0  0  0  0  0  0  0
   -6.2344    2.4332   -2.8104 S   0  0  0  0  0  0  0  0  0  0  0  0
   -5.7520    1.8522   -1.5556 O   0  0  0  0  0  0  0  0  0  0  0  0
   -5.2521    3.7069   -3.1549 O   0  0  0  0  0  0  0  0  0  0  0  0
   -6.3697    1.6133   -4.0086 O   0  0  0  0  0  0  0  0  0  0  0  0
  -11.4478    5.4133   -1.8457 C   0  0  0  0  0  0  0  0  0  0  0  0
  -12.1983    4.7349   -1.4209 H   0  0  0  0  0  0  0  0  0  0  0  0
  -11.3177    6.2372   -1.1374 H   0  0  0  0  0  0  0  0  0  0  0  0
  -11.8615    5.8207   -2.7718 H   0  0  0  0  0  0  0  0  0  0  0  0
  1 10  2  0  0  0  0
  2  1  1  0  0  0  0
  3  2  1  0  0  0  0
  4  5  2  0  0  0  0
  4  1  1  0  0  0  0
  5  6  1  0  0  0  0
  6  7  1  0  0  0  0
  6  9  2  0  0  0  0
  7  8  1  0  0  0  0
  8 13  1  0  0  0  0
  8 15  1  0  0  0  0
  9 16  1  0  0  0  0
 10  9  1  0  0  0  0
 10 17  1  0  0  0  0
 12  5  1  0  0  0  0
 14  8  1  0  0  0  0
 18 19  1  0  0  0  0
 18 24  1  0  0  0  0
 19 25  1  0  0  0  0
 20 32  1  0  0  0  0
 20 19  2  0  0  0  0
 21 20  1  0  0  0  0
 22 21  2  0  0  0  0
 22 23  1  0  0  0  0
 23 18  2  0  0  0  0
 26 21  1  0  0  0  0
 27 22  1  0  0  0  0
 28 23  1  0  0  0  0
 28 29  2  0  0  0  0
 30 28  1  0  0  0  0
 30 11  1  0  0  0  0
 31 28  2  0  0  0  0
 32 33  1  0  0  0  0
 32 34  1  0  0  0  0
 35 32  1  0  0  0  0
M  RAD  3   2   2   3   3   4   2
M  END
