Coordinates from ORCA-job 4-MeOPhN2+~TsO-_B3LYPG-6-31G_dp-CH-Scan-d09-49-n800
 OpenBabel11261919313D

 35 35  0  0  0  0  0  0  0  0999 V2000
   -2.0043   -0.2551   -0.1120 C   0  0  0  0  0  0  0  0  0  0  0  0
   -3.3524   -0.4817    0.0745 N   0  0  0  0  0  0  0  0  0  0  0  0
   -4.4543   -0.6289    0.2186 N   0  0  0  0  0  0  0  0  0  0  0  0
   -1.6835    1.0385   -0.5877 C   0  0  0  0  0  0  0  0  0  0  0  0
   -0.2896    1.1628   -0.7391 C   0  0  0  0  0  0  0  0  0  0  0  0
    0.6307    0.1412   -0.4586 C   0  0  0  0  0  0  0  0  0  0  0  0
    1.9381    0.4363   -0.6659 O   0  0  0  0  0  0  0  0  0  0  0  0
    2.9312   -0.5513   -0.4187 C   0  0  0  0  0  0  0  0  0  0  0  0
    0.2002   -1.1300    0.0173 C   0  0  0  0  0  0  0  0  0  0  0  0
   -1.1462   -1.3435    0.1988 C   0  0  0  0  0  0  0  0  0  0  0  0
   -4.0982    3.3959   -1.6004 H   0  0  0  0  0  0  0  0  0  0  0  0
    0.1442    2.0965   -1.0989 H   0  0  0  0  0  0  0  0  0  0  0  0
    3.8851   -0.0824   -0.6638 H   0  0  0  0  0  0  0  0  0  0  0  0
    2.7907   -1.4337   -1.0543 H   0  0  0  0  0  0  0  0  0  0  0  0
    2.9421   -0.8598    0.6337 H   0  0  0  0  0  0  0  0  0  0  0  0
    0.9071   -1.9201    0.2364 H   0  0  0  0  0  0  0  0  0  0  0  0
   -1.5238   -2.2967    0.5613 H   0  0  0  0  0  0  0  0  0  0  0  0
   -8.2089    3.7012   -0.9666 C   0  0  0  0  0  0  0  0  0  0  0  0
   -9.4150    4.3723   -1.1440 C   0  0  0  0  0  0  0  0  0  0  0  0
   -9.9407    4.5948   -2.4269 C   0  0  0  0  0  0  0  0  0  0  0  0
   -9.2241    4.1244   -3.5354 C   0  0  0  0  0  0  0  0  0  0  0  0
   -8.0143    3.4496   -3.3791 C   0  0  0  0  0  0  0  0  0  0  0  0
   -7.5172    3.2492   -2.0922 C   0  0  0  0  0  0  0  0  0  0  0  0
   -7.8082    3.5190    0.0244 H   0  0  0  0  0  0  0  0  0  0  0  0
   -9.9602    4.7278   -0.2739 H   0  0  0  0  0  0  0  0  0  0  0  0
   -9.6189    4.2859   -4.5346 H   0  0  0  0  0  0  0  0  0  0  0  0
   -7.4641    3.0756   -4.2351 H   0  0  0  0  0  0  0  0  0  0  0  0
   -5.9744    2.3864   -1.8811 S   0  0  0  0  0  0  0  0  0  0  0  0
   -5.9325    1.7660   -0.5551 O   0  0  0  0  0  0  0  0  0  0  0  0
   -4.9858    3.6949   -1.8698 O   0  0  0  0  0  0  0  0  0  0  0  0
   -5.6966    1.5847   -3.0703 O   0  0  0  0  0  0  0  0  0  0  0  0
  -11.2614    5.3051   -2.6000 C   0  0  0  0  0  0  0  0  0  0  0  0
  -12.0963    4.6558   -2.3104 H   0  0  0  0  0  0  0  0  0  0  0  0
  -11.3168    6.2006   -1.9733 H   0  0  0  0  0  0  0  0  0  0  0  0
  -11.4213    5.6062   -3.6382 H   0  0  0  0  0  0  0  0  0  0  0  0
  1  2  1  0  0  0  0
  1 10  2  0  0  0  0
  2  3  1  0  0  0  0
  4  1  1  0  0  0  0
  5  4  2  0  0  0  0
  5  6  1  0  0  0  0
  6  9  2  0  0  0  0
  7  6  1  0  0  0  0
  7  8  1  0  0  0  0
  8 15  1  0  0  0  0
  9 10  1  0  0  0  0
  9 16  1  0  0  0  0
 10 17  1  0  0  0  0
 12  5  1  0  0  0  0
 13  8  1  0  0  0  0
 14  8  1  0  0  0  0
 18 24  1  0  0  0  0
 19 18  1  0  0  0  0
 19 25  1  0  0  0  0
 20 19  2  0  0  0  0
 21 22  2  0  0  0  0
 21 20  1  0  0  0  0
 22 23  1  0  0  0  0
 23 28  1  0  0  0  0
 23 18  2  0  0  0  0
 26 21  1  0  0  0  0
 27 22  1  0  0  0  0
 28 30  1  0  0  0  0
 28 29  2  0  0  0  0
 30 11  1  0  0  0  0
 31 28  2  0  0  0  0
 32 20  1  0  0  0  0
 32 33  1  0  0  0  0
 32 34  1  0  0  0  0
 35 32  1  0  0  0  0
M  RAD  3   2   2   3   3   4   2
M  END
