Coordinates from ORCA-job 4-MeOPhN2+~TsO-_B3LYPG-6-31G_dp-CH-Scan-d09-49-n800
 OpenBabel11261919313D

 35 35  0  0  0  0  0  0  0  0999 V2000
   -1.9963   -0.2528   -0.1131 C   0  0  0  0  0  0  0  0  0  0  0  0
   -3.3457   -0.4745    0.0702 N   0  0  0  0  0  0  0  0  0  0  0  0
   -4.4486   -0.6174    0.2116 N   0  0  0  0  0  0  0  0  0  0  0  0
   -1.6703    1.0405   -0.5858 C   0  0  0  0  0  0  0  0  0  0  0  0
   -0.2755    1.1600   -0.7344 C   0  0  0  0  0  0  0  0  0  0  0  0
    0.6406    0.1346   -0.4543 C   0  0  0  0  0  0  0  0  0  0  0  0
    1.9494    0.4253   -0.6588 O   0  0  0  0  0  0  0  0  0  0  0  0
    2.9384   -0.5665   -0.4120 C   0  0  0  0  0  0  0  0  0  0  0  0
    0.2046   -1.1360    0.0185 C   0  0  0  0  0  0  0  0  0  0  0  0
   -1.1428   -1.3450    0.1973 C   0  0  0  0  0  0  0  0  0  0  0  0
   -4.1016    3.4208   -1.6099 H   0  0  0  0  0  0  0  0  0  0  0  0
    0.1623    2.0928   -1.0917 H   0  0  0  0  0  0  0  0  0  0  0  0
    3.8945   -0.1007   -0.6548 H   0  0  0  0  0  0  0  0  0  0  0  0
    2.7957   -1.4472   -1.0493 H   0  0  0  0  0  0  0  0  0  0  0  0
    2.9467   -0.8768    0.6400 H   0  0  0  0  0  0  0  0  0  0  0  0
    0.9083   -1.9290    0.2374 H   0  0  0  0  0  0  0  0  0  0  0  0
   -1.5245   -2.2974    0.5575 H   0  0  0  0  0  0  0  0  0  0  0  0
   -8.2115    3.7082   -0.9689 C   0  0  0  0  0  0  0  0  0  0  0  0
   -9.4209    4.3738   -1.1443 C   0  0  0  0  0  0  0  0  0  0  0  0
   -9.9507    4.5920   -2.4263 C   0  0  0  0  0  0  0  0  0  0  0  0
   -9.2350    4.1230   -3.5359 C   0  0  0  0  0  0  0  0  0  0  0  0
   -8.0218    3.4537   -3.3815 C   0  0  0  0  0  0  0  0  0  0  0  0
   -7.5206    3.2575   -2.0955 C   0  0  0  0  0  0  0  0  0  0  0  0
   -7.8074    3.5293    0.0214 H   0  0  0  0  0  0  0  0  0  0  0  0
   -9.9654    4.7284   -0.2734 H   0  0  0  0  0  0  0  0  0  0  0  0
   -9.6329    4.2812   -4.5344 H   0  0  0  0  0  0  0  0  0  0  0  0
   -7.4721    3.0808   -4.2384 H   0  0  0  0  0  0  0  0  0  0  0  0
   -5.9735    2.4019   -1.8870 S   0  0  0  0  0  0  0  0  0  0  0  0
   -5.9253    1.7835   -0.5603 O   0  0  0  0  0  0  0  0  0  0  0  0
   -4.9907    3.7151   -1.8793 O   0  0  0  0  0  0  0  0  0  0  0  0
   -5.6945    1.6004   -3.0760 O   0  0  0  0  0  0  0  0  0  0  0  0
  -11.2749    5.2964   -2.5971 C   0  0  0  0  0  0  0  0  0  0  0  0
  -12.1064    4.6433   -2.3063 H   0  0  0  0  0  0  0  0  0  0  0  0
  -11.3332    6.1916   -1.9703 H   0  0  0  0  0  0  0  0  0  0  0  0
  -11.4379    5.5968   -3.6351 H   0  0  0  0  0  0  0  0  0  0  0  0
  1  2  1  0  0  0  0
  1 10  2  0  0  0  0
  2  3  1  0  0  0  0
  4  1  1  0  0  0  0
  5  4  2  0  0  0  0
  5  6  1  0  0  0  0
  6  9  2  0  0  0  0
  7  6  1  0  0  0  0
  7  8  1  0  0  0  0
  8 15  1  0  0  0  0
  9 10  1  0  0  0  0
  9 16  1  0  0  0  0
 10 17  1  0  0  0  0
 12  5  1  0  0  0  0
 13  8  1  0  0  0  0
 14  8  1  0  0  0  0
 18 24  1  0  0  0  0
 19 18  1  0  0  0  0
 19 25  1  0  0  0  0
 20 19  2  0  0  0  0
 21 22  2  0  0  0  0
 21 20  1  0  0  0  0
 22 23  1  0  0  0  0
 23 28  1  0  0  0  0
 23 18  2  0  0  0  0
 26 21  1  0  0  0  0
 27 22  1  0  0  0  0
 28 30  1  0  0  0  0
 28 29  2  0  0  0  0
 30 11  1  0  0  0  0
 31 28  2  0  0  0  0
 32 20  1  0  0  0  0
 32 33  1  0  0  0  0
 32 34  1  0  0  0  0
 35 32  1  0  0  0  0
M  RAD  3   2   2   3   3   4   2
M  END
