Coordinates from ORCA-job 4-MeOPhN2+~TsO-_B3LYPG-6-31G_dp-CH-Scan-d09-49-n800
 OpenBabel11261919313D

 35 35  0  0  0  0  0  0  0  0999 V2000
   -2.0261   -0.2618   -0.1085 C   0  0  0  0  0  0  0  0  0  0  0  0
   -3.3703   -0.5024    0.0869 N   0  0  0  0  0  0  0  0  0  0  0  0
   -4.4697   -0.6637    0.2349 N   0  0  0  0  0  0  0  0  0  0  0  0
   -1.7204    1.0319   -0.5940 C   0  0  0  0  0  0  0  0  0  0  0  0
   -0.3289    1.1702   -0.7530 C   0  0  0  0  0  0  0  0  0  0  0  0
    0.6035    0.1601   -0.4704 C   0  0  0  0  0  0  0  0  0  0  0  0
    1.9065    0.4679   -0.6854 O   0  0  0  0  0  0  0  0  0  0  0  0
    2.9113   -0.5075   -0.4363 C   0  0  0  0  0  0  0  0  0  0  0  0
    0.1886   -1.1125    0.0152 C   0  0  0  0  0  0  0  0  0  0  0  0
   -1.1546   -1.3389    0.2045 C   0  0  0  0  0  0  0  0  0  0  0  0
   -4.0903    3.3216   -1.5748 H   0  0  0  0  0  0  0  0  0  0  0  0
    0.0931    2.1062   -1.1206 H   0  0  0  0  0  0  0  0  0  0  0  0
    3.8591   -0.0298   -0.6879 H   0  0  0  0  0  0  0  0  0  0  0  0
    2.7779   -1.3951   -1.0661 H   0  0  0  0  0  0  0  0  0  0  0  0
    2.9296   -0.8094    0.6180 H   0  0  0  0  0  0  0  0  0  0  0  0
    0.9047   -1.8937    0.2358 H   0  0  0  0  0  0  0  0  0  0  0  0
   -1.5204   -2.2937    0.5746 H   0  0  0  0  0  0  0  0  0  0  0  0
   -8.2019    3.6803   -0.9610 C   0  0  0  0  0  0  0  0  0  0  0  0
   -9.3979    4.3680   -1.1427 C   0  0  0  0  0  0  0  0  0  0  0  0
   -9.9123    4.6037   -2.4279 C   0  0  0  0  0  0  0  0  0  0  0  0
   -9.1947    4.1296   -3.5341 C   0  0  0  0  0  0  0  0  0  0  0  0
   -7.9948    3.4382   -3.3733 C   0  0  0  0  0  0  0  0  0  0  0  0
   -7.5088    3.2248   -2.0843 C   0  0  0  0  0  0  0  0  0  0  0  0
   -7.8099    3.4878    0.0316 H   0  0  0  0  0  0  0  0  0  0  0  0
   -9.9441    4.7262   -0.2743 H   0  0  0  0  0  0  0  0  0  0  0  0
   -9.5808    4.3012   -4.5350 H   0  0  0  0  0  0  0  0  0  0  0  0
   -7.4440    3.0612   -4.2277 H   0  0  0  0  0  0  0  0  0  0  0  0
   -5.9788    2.3403   -1.8678 S   0  0  0  0  0  0  0  0  0  0  0  0
   -5.9545    1.7130   -0.5444 O   0  0  0  0  0  0  0  0  0  0  0  0
   -4.9733    3.6346   -1.8448 O   0  0  0  0  0  0  0  0  0  0  0  0
   -5.7054    1.5395   -3.0587 O   0  0  0  0  0  0  0  0  0  0  0  0
  -11.2225    5.3320   -2.6058 C   0  0  0  0  0  0  0  0  0  0  0  0
  -12.0672    4.6943   -2.3188 H   0  0  0  0  0  0  0  0  0  0  0  0
  -11.2680    6.2285   -1.9797 H   0  0  0  0  0  0  0  0  0  0  0  0
  -11.3747    5.6349   -3.6447 H   0  0  0  0  0  0  0  0  0  0  0  0
  1  2  1  0  0  0  0
  1 10  2  0  0  0  0
  2  3  1  0  0  0  0
  4  1  1  0  0  0  0
  5  4  2  0  0  0  0
  5  6  1  0  0  0  0
  6  9  2  0  0  0  0
  7  6  1  0  0  0  0
  7  8  1  0  0  0  0
  8 15  1  0  0  0  0
  9 10  1  0  0  0  0
  9 16  1  0  0  0  0
 10 17  1  0  0  0  0
 12  5  1  0  0  0  0
 13  8  1  0  0  0  0
 14  8  1  0  0  0  0
 18 24  1  0  0  0  0
 19 18  1  0  0  0  0
 19 25  1  0  0  0  0
 20 19  2  0  0  0  0
 21 22  2  0  0  0  0
 21 20  1  0  0  0  0
 22 23  1  0  0  0  0
 23 28  1  0  0  0  0
 23 18  2  0  0  0  0
 26 21  1  0  0  0  0
 27 22  1  0  0  0  0
 28 30  1  0  0  0  0
 28 29  2  0  0  0  0
 30 11  1  0  0  0  0
 31 28  2  0  0  0  0
 32 20  1  0  0  0  0
 32 33  1  0  0  0  0
 32 34  1  0  0  0  0
 35 32  1  0  0  0  0
M  RAD  3   2   2   3   3   4   2
M  END
