Coordinates from ORCA-job 4-MeOPhN2+~TsO-_B3LYPG-6-31G_dp-CH-Scan-d09-49-n800
 OpenBabel11261919313D

 35 35  0  0  0  0  0  0  0  0999 V2000
   -2.0837   -0.2867   -0.1061 C   0  0  0  0  0  0  0  0  0  0  0  0
   -3.4164   -0.5693    0.1064 N   0  0  0  0  0  0  0  0  0  0  0  0
   -4.5072   -0.7663    0.2721 N   0  0  0  0  0  0  0  0  0  0  0  0
   -1.8212    1.0064   -0.6185 C   0  0  0  0  0  0  0  0  0  0  0  0
   -0.4372    1.1877   -0.7922 C   0  0  0  0  0  0  0  0  0  0  0  0
    0.5299    0.2139   -0.4974 C   0  0  0  0  0  0  0  0  0  0  0  0
    1.8199    0.5602   -0.7278 O   0  0  0  0  0  0  0  0  0  0  0  0
    2.8587   -0.3760   -0.4655 C   0  0  0  0  0  0  0  0  0  0  0  0
    0.1599   -1.0617    0.0151 C   0  0  0  0  0  0  0  0  0  0  0  0
   -1.1738   -1.3277    0.2193 C   0  0  0  0  0  0  0  0  0  0  0  0
   -4.0770    3.0925   -1.5233 H   0  0  0  0  0  0  0  0  0  0  0  0
   -0.0494    2.1296   -1.1808 H   0  0  0  0  0  0  0  0  0  0  0  0
    3.7883    0.1288   -0.7312 H   0  0  0  0  0  0  0  0  0  0  0  0
    2.7523   -1.2794   -1.0776 H   0  0  0  0  0  0  0  0  0  0  0  0
    2.8917   -0.6565    0.5943 H   0  0  0  0  0  0  0  0  0  0  0  0
    0.9025   -1.8150    0.2447 H   0  0  0  0  0  0  0  0  0  0  0  0
   -1.5055   -2.2867    0.6097 H   0  0  0  0  0  0  0  0  0  0  0  0
   -8.1741    3.6233   -0.9533 C   0  0  0  0  0  0  0  0  0  0  0  0
   -9.3389    4.3622   -1.1364 C   0  0  0  0  0  0  0  0  0  0  0  0
   -9.8319    4.6341   -2.4228 C   0  0  0  0  0  0  0  0  0  0  0  0
   -9.1249    4.1436   -3.5286 C   0  0  0  0  0  0  0  0  0  0  0  0
   -7.9560    3.4011   -3.3662 C   0  0  0  0  0  0  0  0  0  0  0  0
   -7.4905    3.1524   -2.0762 C   0  0  0  0  0  0  0  0  0  0  0  0
   -7.7995    3.4026    0.0401 H   0  0  0  0  0  0  0  0  0  0  0  0
   -9.8775    4.7324   -0.2682 H   0  0  0  0  0  0  0  0  0  0  0  0
   -9.4949    4.3426   -4.5305 H   0  0  0  0  0  0  0  0  0  0  0  0
   -7.4139    3.0114   -4.2204 H   0  0  0  0  0  0  0  0  0  0  0  0
   -6.0009    2.2011   -1.8580 S   0  0  0  0  0  0  0  0  0  0  0  0
   -6.0225    1.5474   -0.5468 O   0  0  0  0  0  0  0  0  0  0  0  0
   -4.9437    3.4483   -1.7978 O   0  0  0  0  0  0  0  0  0  0  0  0
   -5.7487    1.4095   -3.0600 O   0  0  0  0  0  0  0  0  0  0  0  0
  -11.1092    5.4186   -2.6026 C   0  0  0  0  0  0  0  0  0  0  0  0
  -11.9806    4.8208   -2.3098 H   0  0  0  0  0  0  0  0  0  0  0  0
  -11.1140    6.3200   -1.9818 H   0  0  0  0  0  0  0  0  0  0  0  0
  -11.2499    5.7221   -3.6428 H   0  0  0  0  0  0  0  0  0  0  0  0
  1  2  1  0  0  0  0
  1 10  2  0  0  0  0
  2  3  1  0  0  0  0
  4  1  1  0  0  0  0
  5  4  2  0  0  0  0
  5  6  1  0  0  0  0
  6  9  2  0  0  0  0
  7  6  1  0  0  0  0
  7  8  1  0  0  0  0
  8 15  1  0  0  0  0
  9 10  1  0  0  0  0
  9 16  1  0  0  0  0
 10 17  1  0  0  0  0
 12  5  1  0  0  0  0
 13  8  1  0  0  0  0
 14  8  1  0  0  0  0
 18 24  1  0  0  0  0
 19 18  1  0  0  0  0
 19 25  1  0  0  0  0
 20 19  2  0  0  0  0
 21 22  2  0  0  0  0
 21 20  1  0  0  0  0
 22 23  1  0  0  0  0
 23 28  1  0  0  0  0
 23 18  2  0  0  0  0
 26 21  1  0  0  0  0
 27 22  1  0  0  0  0
 28 30  1  0  0  0  0
 28 29  2  0  0  0  0
 30 11  1  0  0  0  0
 31 28  2  0  0  0  0
 32 20  1  0  0  0  0
 32 33  1  0  0  0  0
 32 34  1  0  0  0  0
 35 32  1  0  0  0  0
M  RAD  3   2   2   3   3   4   2
M  END
