Coordinates from ORCA-job 4-MeOPhN2+~TsO-_B3LYPG-6-31G_dp-CH-Scan-d09-49-n800
 OpenBabel11261919313D

 35 35  0  0  0  0  0  0  0  0999 V2000
   -2.1867   -0.3381   -0.1235 C   0  0  0  0  0  0  0  0  0  0  0  0
   -3.4978   -0.6968    0.1017 N   0  0  0  0  0  0  0  0  0  0  0  0
   -4.5731   -0.9596    0.2754 N   0  0  0  0  0  0  0  0  0  0  0  0
   -1.9976    0.9487   -0.6829 C   0  0  0  0  0  0  0  0  0  0  0  0
   -0.6295    1.2090   -0.8677 C   0  0  0  0  0  0  0  0  0  0  0  0
    0.3952    0.3071   -0.5389 C   0  0  0  0  0  0  0  0  0  0  0  0
    1.6604    0.7229   -0.7848 O   0  0  0  0  0  0  0  0  0  0  0  0
    2.7563   -0.1338   -0.4834 C   0  0  0  0  0  0  0  0  0  0  0  0
    0.1024   -0.9680    0.0208 C   0  0  0  0  0  0  0  0  0  0  0  0
   -1.2128   -1.3068    0.2370 C   0  0  0  0  0  0  0  0  0  0  0  0
   -4.0624    2.6941   -1.4752 H   0  0  0  0  0  0  0  0  0  0  0  0
   -0.3015    2.1581   -1.2910 H   0  0  0  0  0  0  0  0  0  0  0  0
    3.6525    0.4197   -0.7665 H   0  0  0  0  0  0  0  0  0  0  0  0
    2.7112   -1.0649   -1.0602 H   0  0  0  0  0  0  0  0  0  0  0  0
    2.8016   -0.3696    0.5868 H   0  0  0  0  0  0  0  0  0  0  0  0
    0.8891   -1.6660    0.2767 H   0  0  0  0  0  0  0  0  0  0  0  0
   -1.4851   -2.2695    0.6623 H   0  0  0  0  0  0  0  0  0  0  0  0
   -8.0991    3.5412   -0.9440 C   0  0  0  0  0  0  0  0  0  0  0  0
   -9.2054    4.3672   -1.1174 C   0  0  0  0  0  0  0  0  0  0  0  0
   -9.6818    4.6831   -2.4000 C   0  0  0  0  0  0  0  0  0  0  0  0
   -9.0184    4.1472   -3.5114 C   0  0  0  0  0  0  0  0  0  0  0  0
   -7.9077    3.3181   -3.3584 C   0  0  0  0  0  0  0  0  0  0  0  0
   -7.4567    3.0272   -2.0722 C   0  0  0  0  0  0  0  0  0  0  0  0
   -7.7388    3.2868    0.0466 H   0  0  0  0  0  0  0  0  0  0  0  0
   -9.7108    4.7719   -0.2448 H   0  0  0  0  0  0  0  0  0  0  0  0
   -9.3764    4.3793   -4.5106 H   0  0  0  0  0  0  0  0  0  0  0  0
   -7.3993    2.8941   -4.2169 H   0  0  0  0  0  0  0  0  0  0  0  0
   -6.0412    1.9649   -1.8659 S   0  0  0  0  0  0  0  0  0  0  0  0
   -6.1331    1.2742   -0.5755 O   0  0  0  0  0  0  0  0  0  0  0  0
   -4.8994    3.1218   -1.7549 O   0  0  0  0  0  0  0  0  0  0  0  0
   -5.8373    1.1875   -3.0870 O   0  0  0  0  0  0  0  0  0  0  0  0
  -10.8968    5.5633   -2.5691 C   0  0  0  0  0  0  0  0  0  0  0  0
  -11.8108    5.0298   -2.2818 H   0  0  0  0  0  0  0  0  0  0  0  0
  -10.8338    6.4554   -1.9380 H   0  0  0  0  0  0  0  0  0  0  0  0
  -11.0150    5.8885   -3.6056 H   0  0  0  0  0  0  0  0  0  0  0  0
  1  2  1  0  0  0  0
  1 10  2  0  0  0  0
  2  3  1  0  0  0  0
  4  1  1  0  0  0  0
  5  4  2  0  0  0  0
  5  6  1  0  0  0  0
  6  9  2  0  0  0  0
  7  6  1  0  0  0  0
  7  8  1  0  0  0  0
  8 15  1  0  0  0  0
  9 10  1  0  0  0  0
  9 16  1  0  0  0  0
 10 17  1  0  0  0  0
 12  5  1  0  0  0  0
 13  8  1  0  0  0  0
 14  8  1  0  0  0  0
 18 24  1  0  0  0  0
 19 18  1  0  0  0  0
 19 25  1  0  0  0  0
 20 19  2  0  0  0  0
 21 22  2  0  0  0  0
 21 20  1  0  0  0  0
 22 23  1  0  0  0  0
 23 28  1  0  0  0  0
 23 18  2  0  0  0  0
 26 21  1  0  0  0  0
 27 22  1  0  0  0  0
 28 30  1  0  0  0  0
 28 29  2  0  0  0  0
 30 11  1  0  0  0  0
 31 28  2  0  0  0  0
 32 20  1  0  0  0  0
 32 33  1  0  0  0  0
 32 34  1  0  0  0  0
 35 32  1  0  0  0  0
M  RAD  3   2   2   3   3   4   2
M  END
