Coordinates from ORCA-job 4-MeOPhN2+~TsO-_B3LYPG-6-31G_dp-CH-Scan-d09-49-n800
 OpenBabel11261919313D

 35 35  0  0  0  0  0  0  0  0999 V2000
   -2.5097   -0.4485   -0.2102 C   0  0  0  0  0  0  0  0  0  0  0  0
   -3.7499   -0.9963    0.0232 N   0  0  0  0  0  0  0  0  0  0  0  0
   -4.7755   -1.4097    0.1967 N   0  0  0  0  0  0  0  0  0  0  0  0
   -2.4875    0.7982   -0.8831 C   0  0  0  0  0  0  0  0  0  0  0  0
   -1.1803    1.2611   -1.0685 C   0  0  0  0  0  0  0  0  0  0  0  0
   -0.0372    0.5658   -0.6370 C   0  0  0  0  0  0  0  0  0  0  0  0
    1.1494    1.1548   -0.8979 O   0  0  0  0  0  0  0  0  0  0  0  0
    2.3597    0.5151   -0.5024 C   0  0  0  0  0  0  0  0  0  0  0  0
   -0.1493   -0.6832    0.0308 C   0  0  0  0  0  0  0  0  0  0  0  0
   -1.4033   -1.2057    0.2511 C   0  0  0  0  0  0  0  0  0  0  0  0
   -3.9543    1.7453   -1.4982 H   0  0  0  0  0  0  0  0  0  0  0  0
   -1.0006    2.2086   -1.5727 H   0  0  0  0  0  0  0  0  0  0  0  0
    3.1632    1.1788   -0.8225 H   0  0  0  0  0  0  0  0  0  0  0  0
    2.4777   -0.4578   -0.9932 H   0  0  0  0  0  0  0  0  0  0  0  0
    2.4082    0.3859    0.5854 H   0  0  0  0  0  0  0  0  0  0  0  0
    0.7259   -1.2251    0.3642 H   0  0  0  0  0  0  0  0  0  0  0  0
   -1.5350   -2.1586    0.7555 H   0  0  0  0  0  0  0  0  0  0  0  0
   -7.8055    3.3204   -0.9077 C   0  0  0  0  0  0  0  0  0  0  0  0
   -8.7553    4.3302   -1.0359 C   0  0  0  0  0  0  0  0  0  0  0  0
   -9.2097    4.7430   -2.2979 C   0  0  0  0  0  0  0  0  0  0  0  0
   -8.6850    4.1151   -3.4352 C   0  0  0  0  0  0  0  0  0  0  0  0
   -7.7335    3.1017   -3.3255 C   0  0  0  0  0  0  0  0  0  0  0  0
   -7.2979    2.7161   -2.0589 C   0  0  0  0  0  0  0  0  0  0  0  0
   -7.4640    2.9922    0.0677 H   0  0  0  0  0  0  0  0  0  0  0  0
   -9.1539    4.8046   -0.1429 H   0  0  0  0  0  0  0  0  0  0  0  0
   -9.0275    4.4210   -4.4201 H   0  0  0  0  0  0  0  0  0  0  0  0
   -7.3357    2.6062   -4.2041 H   0  0  0  0  0  0  0  0  0  0  0  0
   -6.0724    1.4256   -1.9100 S   0  0  0  0  0  0  0  0  0  0  0  0
   -6.2527    0.7528   -0.6109 O   0  0  0  0  0  0  0  0  0  0  0  0
   -4.7493    2.3106   -1.8602 O   0  0  0  0  0  0  0  0  0  0  0  0
   -6.1024    0.6080   -3.1263 O   0  0  0  0  0  0  0  0  0  0  0  0
  -10.2623    5.8183   -2.4213 C   0  0  0  0  0  0  0  0  0  0  0  0
  -11.2639    5.4120   -2.2326 H   0  0  0  0  0  0  0  0  0  0  0  0
  -10.0995    6.6230   -1.6974 H   0  0  0  0  0  0  0  0  0  0  0  0
  -10.2708    6.2577   -3.4225 H   0  0  0  0  0  0  0  0  0  0  0  0
  1  2  1  0  0  0  0
  1 10  2  0  0  0  0
  2  3  1  0  0  0  0
  4  1  1  0  0  0  0
  5  4  2  0  0  0  0
  5  6  1  0  0  0  0
  6  9  2  0  0  0  0
  7  6  1  0  0  0  0
  7  8  1  0  0  0  0
  8 15  1  0  0  0  0
  9 10  1  0  0  0  0
  9 16  1  0  0  0  0
 10 17  1  0  0  0  0
 12  5  1  0  0  0  0
 13  8  1  0  0  0  0
 14  8  1  0  0  0  0
 18 24  1  0  0  0  0
 19 18  1  0  0  0  0
 19 25  1  0  0  0  0
 20 19  2  0  0  0  0
 21 22  2  0  0  0  0
 21 20  1  0  0  0  0
 22 23  1  0  0  0  0
 23 28  1  0  0  0  0
 23 18  2  0  0  0  0
 26 21  1  0  0  0  0
 27 22  1  0  0  0  0
 28 30  1  0  0  0  0
 28 29  2  0  0  0  0
 30 11  1  0  0  0  0
 31 28  2  0  0  0  0
 32 20  1  0  0  0  0
 32 33  1  0  0  0  0
 32 34  1  0  0  0  0
 35 32  1  0  0  0  0
M  RAD  3   2   2   3   3   4   2
M  END
