Coordinates from ORCA-job 4-MeOPhN2+~TsO-_B3LYPG-6-31G_dp-CH-Scan-d09-49-n800
 OpenBabel11261919313D

 35 35  0  0  0  0  0  0  0  0999 V2000
   -1.9522   -0.2418   -0.1227 C   0  0  0  0  0  0  0  0  0  0  0  0
   -3.3084   -0.4385    0.0408 N   0  0  0  0  0  0  0  0  0  0  0  0
   -4.4160   -0.5590    0.1656 N   0  0  0  0  0  0  0  0  0  0  0  0
   -1.5982    1.0499   -0.5791 C   0  0  0  0  0  0  0  0  0  0  0  0
   -0.1993    1.1445   -0.7099 C   0  0  0  0  0  0  0  0  0  0  0  0
    0.6942    0.0997   -0.4291 C   0  0  0  0  0  0  0  0  0  0  0  0
    2.0108    0.3676   -0.6163 O   0  0  0  0  0  0  0  0  0  0  0  0
    2.9781   -0.6446   -0.3680 C   0  0  0  0  0  0  0  0  0  0  0  0
    0.2295   -1.1669    0.0271 C   0  0  0  0  0  0  0  0  0  0  0  0
   -1.1235   -1.3528    0.1881 C   0  0  0  0  0  0  0  0  0  0  0  0
   -4.1230    3.5456   -1.6686 H   0  0  0  0  0  0  0  0  0  0  0  0
    0.2601    2.0724   -1.0531 H   0  0  0  0  0  0  0  0  0  0  0  0
    3.9454   -0.1951   -0.5969 H   0  0  0  0  0  0  0  0  0  0  0  0
    2.8256   -1.5172   -1.0143 H   0  0  0  0  0  0  0  0  0  0  0  0
    2.9698   -0.9640    0.6813 H   0  0  0  0  0  0  0  0  0  0  0  0
    0.9161   -1.9746    0.2470 H   0  0  0  0  0  0  0  0  0  0  0  0
   -1.5269   -2.3012    0.5353 H   0  0  0  0  0  0  0  0  0  0  0  0
   -8.2227    3.7459   -0.9838 C   0  0  0  0  0  0  0  0  0  0  0  0
   -9.4487    4.3840   -1.1450 C   0  0  0  0  0  0  0  0  0  0  0  0
  -10.0040    4.5794   -2.4199 C   0  0  0  0  0  0  0  0  0  0  0  0
   -9.2968    4.1154   -3.5371 C   0  0  0  0  0  0  0  0  0  0  0  0
   -8.0672    3.4735   -3.3971 C   0  0  0  0  0  0  0  0  0  0  0  0
   -7.5410    3.2998   -2.1178 C   0  0  0  0  0  0  0  0  0  0  0  0
   -7.7989    3.5847    0.0013 H   0  0  0  0  0  0  0  0  0  0  0  0
   -9.9862    4.7351   -0.2683 H   0  0  0  0  0  0  0  0  0  0  0  0
   -9.7143    4.2561   -4.5302 H   0  0  0  0  0  0  0  0  0  0  0  0
   -7.5237    3.1047   -4.2596 H   0  0  0  0  0  0  0  0  0  0  0  0
   -5.9723    2.4804   -1.9273 S   0  0  0  0  0  0  0  0  0  0  0  0
   -5.8889    1.8713   -0.5984 O   0  0  0  0  0  0  0  0  0  0  0  0
   -5.0186    3.8165   -1.9395 O   0  0  0  0  0  0  0  0  0  0  0  0
   -5.6913    1.6807   -3.1168 O   0  0  0  0  0  0  0  0  0  0  0  0
  -11.3454    5.2543   -2.5750 C   0  0  0  0  0  0  0  0  0  0  0  0
  -12.1586    4.5832   -2.2736 H   0  0  0  0  0  0  0  0  0  0  0  0
  -11.4155    6.1485   -1.9481 H   0  0  0  0  0  0  0  0  0  0  0  0
  -11.5277    5.5498   -3.6112 H   0  0  0  0  0  0  0  0  0  0  0  0
  1  2  1  0  0  0  0
  1 10  2  0  0  0  0
  2  3  1  0  0  0  0
  4  1  1  0  0  0  0
  5  4  2  0  0  0  0
  5  6  1  0  0  0  0
  6  9  2  0  0  0  0
  7  6  1  0  0  0  0
  7  8  1  0  0  0  0
  8 15  1  0  0  0  0
  9 10  1  0  0  0  0
  9 16  1  0  0  0  0
 10 17  1  0  0  0  0
 12  5  1  0  0  0  0
 13  8  1  0  0  0  0
 14  8  1  0  0  0  0
 18 24  1  0  0  0  0
 19 18  1  0  0  0  0
 19 25  1  0  0  0  0
 20 19  2  0  0  0  0
 21 22  2  0  0  0  0
 21 20  1  0  0  0  0
 22 23  1  0  0  0  0
 23 28  1  0  0  0  0
 23 18  2  0  0  0  0
 26 21  1  0  0  0  0
 27 22  1  0  0  0  0
 28 29  2  0  0  0  0
 30 28  1  0  0  0  0
 30 11  1  0  0  0  0
 31 28  2  0  0  0  0
 32 20  1  0  0  0  0
 32 33  1  0  0  0  0
 32 34  1  0  0  0  0
 35 32  1  0  0  0  0
M  RAD  3   2   2   3   3   4   2
M  END
