Coordinates from ORCA-job 4-MeOPhN2+~TsO-_B3LYPG-6-31G_dp-CH-Scan-d09-49-n800
 OpenBabel11261919313D

 35 35  0  0  0  0  0  0  0  0999 V2000
   -2.5259   -0.4518   -0.2144 C   0  0  0  0  0  0  0  0  0  0  0  0
   -3.7627   -1.0070    0.0187 N   0  0  0  0  0  0  0  0  0  0  0  0
   -4.7862   -1.4257    0.1912 N   0  0  0  0  0  0  0  0  0  0  0  0
   -2.5086    0.7910   -0.8946 C   0  0  0  0  0  0  0  0  0  0  0  0
   -1.2048    1.2622   -1.0795 C   0  0  0  0  0  0  0  0  0  0  0  0
   -0.0581    0.5772   -0.6406 C   0  0  0  0  0  0  0  0  0  0  0  0
    1.1247    1.1727   -0.9019 O   0  0  0  0  0  0  0  0  0  0  0  0
    2.3385    0.5441   -0.4987 C   0  0  0  0  0  0  0  0  0  0  0  0
   -0.1641   -0.6682    0.0343 C   0  0  0  0  0  0  0  0  0  0  0  0
   -1.4153   -1.1979    0.2541 C   0  0  0  0  0  0  0  0  0  0  0  0
   -3.9429    1.7034   -1.5050 H   0  0  0  0  0  0  0  0  0  0  0  0
   -1.0312    2.2079   -1.5891 H   0  0  0  0  0  0  0  0  0  0  0  0
    3.1382    1.2113   -0.8212 H   0  0  0  0  0  0  0  0  0  0  0  0
    2.4646   -0.4312   -0.9827 H   0  0  0  0  0  0  0  0  0  0  0  0
    2.3847    0.4227    0.5900 H   0  0  0  0  0  0  0  0  0  0  0  0
    0.7136   -1.2024    0.3734 H   0  0  0  0  0  0  0  0  0  0  0  0
   -1.5419   -2.1487    0.7637 H   0  0  0  0  0  0  0  0  0  0  0  0
   -7.7846    3.3112   -0.9089 C   0  0  0  0  0  0  0  0  0  0  0  0
   -8.7279    4.3279   -1.0315 C   0  0  0  0  0  0  0  0  0  0  0  0
   -9.1871    4.7435   -2.2907 C   0  0  0  0  0  0  0  0  0  0  0  0
   -8.6740    4.1113   -3.4309 C   0  0  0  0  0  0  0  0  0  0  0  0
   -7.7293    3.0911   -3.3266 C   0  0  0  0  0  0  0  0  0  0  0  0
   -7.2885    2.7025   -2.0627 C   0  0  0  0  0  0  0  0  0  0  0  0
   -7.4397    2.9808    0.0646 H   0  0  0  0  0  0  0  0  0  0  0  0
   -9.1175    4.8054   -0.1362 H   0  0  0  0  0  0  0  0  0  0  0  0
   -9.0204    4.4193   -4.4138 H   0  0  0  0  0  0  0  0  0  0  0  0
   -7.3406    2.5922   -4.2074 H   0  0  0  0  0  0  0  0  0  0  0  0
   -6.0705    1.4035   -1.9212 S   0  0  0  0  0  0  0  0  0  0  0  0
   -6.2511    0.7310   -0.6211 O   0  0  0  0  0  0  0  0  0  0  0  0
   -4.7410    2.2736   -1.8780 O   0  0  0  0  0  0  0  0  0  0  0  0
   -6.1165    0.5854   -3.1369 O   0  0  0  0  0  0  0  0  0  0  0  0
  -10.2329    5.8262   -2.4082 C   0  0  0  0  0  0  0  0  0  0  0  0
  -11.2363    5.4272   -2.2133 H   0  0  0  0  0  0  0  0  0  0  0  0
  -10.0600    6.6301   -1.6856 H   0  0  0  0  0  0  0  0  0  0  0  0
  -10.2443    6.2653   -3.4095 H   0  0  0  0  0  0  0  0  0  0  0  0
  1  2  1  0  0  0  0
  1 10  2  0  0  0  0
  2  3  1  0  0  0  0
  4  1  1  0  0  0  0
  5  4  2  0  0  0  0
  5  6  1  0  0  0  0
  6  9  2  0  0  0  0
  7  6  1  0  0  0  0
  7  8  1  0  0  0  0
  8 15  1  0  0  0  0
  9 10  1  0  0  0  0
  9 16  1  0  0  0  0
 10 17  1  0  0  0  0
 12  5  1  0  0  0  0
 13  8  1  0  0  0  0
 14  8  1  0  0  0  0
 18 24  1  0  0  0  0
 19 18  1  0  0  0  0
 19 25  1  0  0  0  0
 20 19  2  0  0  0  0
 21 22  2  0  0  0  0
 21 20  1  0  0  0  0
 22 23  1  0  0  0  0
 23 28  1  0  0  0  0
 23 18  2  0  0  0  0
 26 21  1  0  0  0  0
 27 22  1  0  0  0  0
 28 30  1  0  0  0  0
 28 29  2  0  0  0  0
 30 11  1  0  0  0  0
 31 28  2  0  0  0  0
 32 20  1  0  0  0  0
 32 33  1  0  0  0  0
 32 34  1  0  0  0  0
 35 32  1  0  0  0  0
M  RAD  3   2   2   3   3   4   2
M  END
