Coordinates from ORCA-job 4-MeOPhN2+~TsO-_B3LYPG-6-31G_dp-CH-Scan-d09-49-n800
 OpenBabel11261919313D

 35 35  0  0  0  0  0  0  0  0999 V2000
   -2.0812   -0.2853   -0.1059 C   0  0  0  0  0  0  0  0  0  0  0  0
   -3.4144   -0.5661    0.1062 N   0  0  0  0  0  0  0  0  0  0  0  0
   -4.5057   -0.7613    0.2709 N   0  0  0  0  0  0  0  0  0  0  0  0
   -1.8169    1.0079   -0.6172 C   0  0  0  0  0  0  0  0  0  0  0  0
   -0.4325    1.1870   -0.7904 C   0  0  0  0  0  0  0  0  0  0  0  0
    0.5330    0.2115   -0.4963 C   0  0  0  0  0  0  0  0  0  0  0  0
    1.8237    0.5559   -0.7263 O   0  0  0  0  0  0  0  0  0  0  0  0
    2.8609   -0.3821   -0.4648 C   0  0  0  0  0  0  0  0  0  0  0  0
    0.1610   -1.0640    0.0150 C   0  0  0  0  0  0  0  0  0  0  0  0
   -1.1731   -1.3281    0.2188 C   0  0  0  0  0  0  0  0  0  0  0  0
   -4.0772    3.1030   -1.5250 H   0  0  0  0  0  0  0  0  0  0  0  0
   -0.0431    2.1286   -1.1781 H   0  0  0  0  0  0  0  0  0  0  0  0
    3.7914    0.1214   -0.7301 H   0  0  0  0  0  0  0  0  0  0  0  0
    2.7531   -1.2847   -1.0777 H   0  0  0  0  0  0  0  0  0  0  0  0
    2.8935   -0.6636    0.5947 H   0  0  0  0  0  0  0  0  0  0  0  0
    0.9025   -1.8186    0.2440 H   0  0  0  0  0  0  0  0  0  0  0  0
   -1.5063   -2.2870    0.6083 H   0  0  0  0  0  0  0  0  0  0  0  0
   -8.1756    3.6256   -0.9534 C   0  0  0  0  0  0  0  0  0  0  0  0
   -9.3419    4.3621   -1.1367 C   0  0  0  0  0  0  0  0  0  0  0  0
   -9.8354    4.6326   -2.4233 C   0  0  0  0  0  0  0  0  0  0  0  0
   -9.1275    4.1432   -3.5289 C   0  0  0  0  0  0  0  0  0  0  0  0
   -7.9572    3.4030   -3.3663 C   0  0  0  0  0  0  0  0  0  0  0  0
   -7.4912    3.1557   -2.0762 C   0  0  0  0  0  0  0  0  0  0  0  0
   -7.8005    3.4061    0.0401 H   0  0  0  0  0  0  0  0  0  0  0  0
   -9.8812    4.7315   -0.2687 H   0  0  0  0  0  0  0  0  0  0  0  0
   -9.4980    4.3411   -4.5308 H   0  0  0  0  0  0  0  0  0  0  0  0
   -7.4144    3.0141   -4.2204 H   0  0  0  0  0  0  0  0  0  0  0  0
   -5.9996    2.2076   -1.8577 S   0  0  0  0  0  0  0  0  0  0  0  0
   -6.0191    1.5554   -0.5459 O   0  0  0  0  0  0  0  0  0  0  0  0
   -4.9446    3.4569   -1.7993 O   0  0  0  0  0  0  0  0  0  0  0  0
   -5.7463    1.4153   -3.0590 O   0  0  0  0  0  0  0  0  0  0  0  0
  -11.1143    5.4144   -2.6032 C   0  0  0  0  0  0  0  0  0  0  0  0
  -11.9846    4.8147   -2.3110 H   0  0  0  0  0  0  0  0  0  0  0  0
  -11.1213    6.3156   -1.9821 H   0  0  0  0  0  0  0  0  0  0  0  0
  -11.2553    5.7180   -3.6434 H   0  0  0  0  0  0  0  0  0  0  0  0
  1  2  1  0  0  0  0
  1 10  2  0  0  0  0
  2  3  1  0  0  0  0
  4  1  1  0  0  0  0
  5  4  2  0  0  0  0
  5  6  1  0  0  0  0
  6  9  2  0  0  0  0
  7  6  1  0  0  0  0
  7  8  1  0  0  0  0
  8 15  1  0  0  0  0
  9 10  1  0  0  0  0
  9 16  1  0  0  0  0
 10 17  1  0  0  0  0
 12  5  1  0  0  0  0
 13  8  1  0  0  0  0
 14  8  1  0  0  0  0
 18 24  1  0  0  0  0
 19 18  1  0  0  0  0
 19 25  1  0  0  0  0
 20 19  2  0  0  0  0
 21 22  2  0  0  0  0
 21 20  1  0  0  0  0
 22 23  1  0  0  0  0
 23 28  1  0  0  0  0
 23 18  2  0  0  0  0
 26 21  1  0  0  0  0
 27 22  1  0  0  0  0
 28 30  1  0  0  0  0
 28 29  2  0  0  0  0
 30 11  1  0  0  0  0
 31 28  2  0  0  0  0
 32 20  1  0  0  0  0
 32 33  1  0  0  0  0
 32 34  1  0  0  0  0
 35 32  1  0  0  0  0
M  RAD  3   2   2   3   3   4   2
M  END
