Coordinates from ORCA-job 4-MeOPhN2+~TsO-_B3LYPG-6-31G_dp-CH-Scan-d09-49-n800
 OpenBabel11261919313D

 35 35  0  0  0  0  0  0  0  0999 V2000
   -2.0515   -0.2714   -0.1072 C   0  0  0  0  0  0  0  0  0  0  0  0
   -3.3910   -0.5294    0.0960 N   0  0  0  0  0  0  0  0  0  0  0  0
   -4.4869   -0.7045    0.2534 N   0  0  0  0  0  0  0  0  0  0  0  0
   -1.7638    1.0230   -0.6026 C   0  0  0  0  0  0  0  0  0  0  0  0
   -0.3752    1.1787   -0.7683 C   0  0  0  0  0  0  0  0  0  0  0  0
    0.5716    0.1828   -0.4824 C   0  0  0  0  0  0  0  0  0  0  0  0
    1.8694    0.5064   -0.7042 O   0  0  0  0  0  0  0  0  0  0  0  0
    2.8882   -0.4537   -0.4516 C   0  0  0  0  0  0  0  0  0  0  0  0
    0.1752   -1.0918    0.0130 C   0  0  0  0  0  0  0  0  0  0  0  0
   -1.1641   -1.3344    0.2091 C   0  0  0  0  0  0  0  0  0  0  0  0
   -4.0820    3.2297   -1.5504 H   0  0  0  0  0  0  0  0  0  0  0  0
    0.0329    2.1175   -1.1438 H   0  0  0  0  0  0  0  0  0  0  0  0
    3.8286    0.0353   -0.7091 H   0  0  0  0  0  0  0  0  0  0  0  0
    2.7650   -1.3470   -1.0752 H   0  0  0  0  0  0  0  0  0  0  0  0
    2.9134   -0.7483    0.6046 H   0  0  0  0  0  0  0  0  0  0  0  0
    0.9023   -1.8622    0.2359 H   0  0  0  0  0  0  0  0  0  0  0  0
   -1.5159   -2.2915    0.5866 H   0  0  0  0  0  0  0  0  0  0  0  0
   -8.1908    3.6569   -0.9561 C   0  0  0  0  0  0  0  0  0  0  0  0
   -9.3745    4.3650   -1.1405 C   0  0  0  0  0  0  0  0  0  0  0  0
   -9.8784    4.6151   -2.4271 C   0  0  0  0  0  0  0  0  0  0  0  0
   -9.1630    4.1345   -3.5319 C   0  0  0  0  0  0  0  0  0  0  0  0
   -7.9754    3.4227   -3.3684 C   0  0  0  0  0  0  0  0  0  0  0  0
   -7.4995    3.1953   -2.0780 C   0  0  0  0  0  0  0  0  0  0  0  0
   -7.8072    3.4533    0.0375 H   0  0  0  0  0  0  0  0  0  0  0  0
   -9.9192    4.7279   -0.2731 H   0  0  0  0  0  0  0  0  0  0  0  0
   -9.5412    4.3170   -4.5339 H   0  0  0  0  0  0  0  0  0  0  0  0
   -7.4266    3.0407   -4.2217 H   0  0  0  0  0  0  0  0  0  0  0  0
   -5.9856    2.2842   -1.8582 S   0  0  0  0  0  0  0  0  0  0  0  0
   -5.9803    1.6486   -0.5385 O   0  0  0  0  0  0  0  0  0  0  0  0
   -4.9588    3.5599   -1.8220 O   0  0  0  0  0  0  0  0  0  0  0  0
   -5.7201    1.4849   -3.0520 O   0  0  0  0  0  0  0  0  0  0  0  0
  -11.1757    5.3656   -2.6081 C   0  0  0  0  0  0  0  0  0  0  0  0
  -12.0316    4.7433   -2.3204 H   0  0  0  0  0  0  0  0  0  0  0  0
  -11.2065    6.2642   -1.9840 H   0  0  0  0  0  0  0  0  0  0  0  0
  -11.3214    5.6688   -3.6477 H   0  0  0  0  0  0  0  0  0  0  0  0
  1  2  1  0  0  0  0
  1 10  2  0  0  0  0
  2  3  1  0  0  0  0
  4  1  1  0  0  0  0
  5  4  2  0  0  0  0
  5  6  1  0  0  0  0
  6  9  2  0  0  0  0
  7  6  1  0  0  0  0
  7  8  1  0  0  0  0
  8 15  1  0  0  0  0
  9 10  1  0  0  0  0
  9 16  1  0  0  0  0
 10 17  1  0  0  0  0
 12  5  1  0  0  0  0
 13  8  1  0  0  0  0
 14  8  1  0  0  0  0
 18 24  1  0  0  0  0
 19 18  1  0  0  0  0
 19 25  1  0  0  0  0
 20 19  2  0  0  0  0
 21 22  2  0  0  0  0
 21 20  1  0  0  0  0
 22 23  1  0  0  0  0
 23 28  1  0  0  0  0
 23 18  2  0  0  0  0
 26 21  1  0  0  0  0
 27 22  1  0  0  0  0
 28 30  1  0  0  0  0
 28 29  2  0  0  0  0
 30 11  1  0  0  0  0
 31 28  2  0  0  0  0
 32 20  1  0  0  0  0
 32 33  1  0  0  0  0
 32 34  1  0  0  0  0
 35 32  1  0  0  0  0
M  RAD  3   2   2   3   3   4   2
M  END
