Coordinates from ORCA-job 4-MeOPhN2+~TsO-_B3LYPG-6-31G_dp-CH-Scan-d09-49-n800
 OpenBabel11261919313D

 35 35  0  0  0  0  0  0  0  0999 V2000
   -2.1264   -0.3085   -0.1078 C   0  0  0  0  0  0  0  0  0  0  0  0
   -3.4499   -0.6235    0.1139 N   0  0  0  0  0  0  0  0  0  0  0  0
   -4.5341   -0.8484    0.2863 N   0  0  0  0  0  0  0  0  0  0  0  0
   -1.8966    0.9824   -0.6412 C   0  0  0  0  0  0  0  0  0  0  0  0
   -0.5193    1.1974   -0.8232 C   0  0  0  0  0  0  0  0  0  0  0  0
    0.4737    0.2537   -0.5161 C   0  0  0  0  0  0  0  0  0  0  0  0
    1.7530    0.6296   -0.7563 O   0  0  0  0  0  0  0  0  0  0  0  0
    2.8174   -0.2734   -0.4795 C   0  0  0  0  0  0  0  0  0  0  0  0
    0.1379   -1.0224    0.0178 C   0  0  0  0  0  0  0  0  0  0  0  0
   -1.1879   -1.3194    0.2307 C   0  0  0  0  0  0  0  0  0  0  0  0
   -4.0718    2.9177   -1.4899 H   0  0  0  0  0  0  0  0  0  0  0  0
   -0.1579    2.1427   -1.2279 H   0  0  0  0  0  0  0  0  0  0  0  0
    3.7325    0.2523   -0.7550 H   0  0  0  0  0  0  0  0  0  0  0  0
    2.7353   -1.1894   -1.0762 H   0  0  0  0  0  0  0  0  0  0  0  0
    2.8588   -0.5346    0.5849 H   0  0  0  0  0  0  0  0  0  0  0  0
    0.9004   -1.7525    0.2571 H   0  0  0  0  0  0  0  0  0  0  0  0
   -1.4932   -2.2805    0.6370 H   0  0  0  0  0  0  0  0  0  0  0  0
   -8.1467    3.5852   -0.9502 C   0  0  0  0  0  0  0  0  0  0  0  0
   -9.2867    4.3624   -1.1302 C   0  0  0  0  0  0  0  0  0  0  0  0
   -9.7695    4.6569   -2.4155 C   0  0  0  0  0  0  0  0  0  0  0  0
   -9.0776    4.1498   -3.5232 C   0  0  0  0  0  0  0  0  0  0  0  0
   -7.9332    3.3693   -3.3639 C   0  0  0  0  0  0  0  0  0  0  0  0
   -7.4772    3.0987   -2.0750 C   0  0  0  0  0  0  0  0  0  0  0  0
   -7.7807    3.3470    0.0424 H   0  0  0  0  0  0  0  0  0  0  0  0
   -9.8140    4.7451   -0.2605 H   0  0  0  0  0  0  0  0  0  0  0  0
   -9.4401    4.3658   -4.5243 H   0  0  0  0  0  0  0  0  0  0  0  0
   -7.4028    2.9669   -4.2195 H   0  0  0  0  0  0  0  0  0  0  0  0
   -6.0195    2.0976   -1.8607 S   0  0  0  0  0  0  0  0  0  0  0  0
   -6.0766    1.4201   -0.5621 O   0  0  0  0  0  0  0  0  0  0  0  0
   -4.9251    3.3064   -1.7671 O   0  0  0  0  0  0  0  0  0  0  0  0
   -5.7831    1.3182   -3.0742 O   0  0  0  0  0  0  0  0  0  0  0  0
  -11.0205    5.4834   -2.5918 C   0  0  0  0  0  0  0  0  0  0  0  0
  -11.9106    4.9155   -2.2957 H   0  0  0  0  0  0  0  0  0  0  0  0
  -10.9934    6.3850   -1.9716 H   0  0  0  0  0  0  0  0  0  0  0  0
  -11.1543    5.7910   -3.6318 H   0  0  0  0  0  0  0  0  0  0  0  0
  1  2  1  0  0  0  0
  1 10  2  0  0  0  0
  2  3  1  0  0  0  0
  4  1  1  0  0  0  0
  5  4  2  0  0  0  0
  5  6  1  0  0  0  0
  6  9  2  0  0  0  0
  7  6  1  0  0  0  0
  7  8  1  0  0  0  0
  8 15  1  0  0  0  0
  9 10  1  0  0  0  0
  9 16  1  0  0  0  0
 10 17  1  0  0  0  0
 12  5  1  0  0  0  0
 13  8  1  0  0  0  0
 14  8  1  0  0  0  0
 18 24  1  0  0  0  0
 19 18  1  0  0  0  0
 19 25  1  0  0  0  0
 20 19  2  0  0  0  0
 21 22  2  0  0  0  0
 21 20  1  0  0  0  0
 22 23  1  0  0  0  0
 23 28  1  0  0  0  0
 23 18  2  0  0  0  0
 26 21  1  0  0  0  0
 27 22  1  0  0  0  0
 28 30  1  0  0  0  0
 28 29  2  0  0  0  0
 30 11  1  0  0  0  0
 31 28  2  0  0  0  0
 32 20  1  0  0  0  0
 32 33  1  0  0  0  0
 32 34  1  0  0  0  0
 35 32  1  0  0  0  0
M  RAD  3   2   2   3   3   4   2
M  END
