Coordinates from ORCA-job 4-MeOPhN2+~TsO-_B3LYPG-6-31G_dp-CH-Scan-d09-49-n800
 OpenBabel11261919313D

 35 35  0  0  0  0  0  0  0  0999 V2000
   -1.9094   -0.2332   -0.1348 C   0  0  0  0  0  0  0  0  0  0  0  0
   -3.2710   -0.4086    0.0076 N   0  0  0  0  0  0  0  0  0  0  0  0
   -4.3826   -0.5098    0.1139 N   0  0  0  0  0  0  0  0  0  0  0  0
   -1.5306    1.0565   -0.5772 C   0  0  0  0  0  0  0  0  0  0  0  0
   -0.1285    1.1300   -0.6882 C   0  0  0  0  0  0  0  0  0  0  0  0
    0.7450    0.0698   -0.4029 C   0  0  0  0  0  0  0  0  0  0  0  0
    2.0681    0.3185   -0.5711 O   0  0  0  0  0  0  0  0  0  0  0  0
    3.0164   -0.7099   -0.3168 C   0  0  0  0  0  0  0  0  0  0  0  0
    0.2552   -1.1928    0.0386 C   0  0  0  0  0  0  0  0  0  0  0  0
   -1.1026   -1.3592    0.1799 C   0  0  0  0  0  0  0  0  0  0  0  0
   -4.1513    3.6408   -1.7193 H   0  0  0  0  0  0  0  0  0  0  0  0
    0.3498    2.0531   -1.0186 H   0  0  0  0  0  0  0  0  0  0  0  0
    3.9933   -0.2741   -0.5307 H   0  0  0  0  0  0  0  0  0  0  0  0
    2.8589   -1.5764   -0.9703 H   0  0  0  0  0  0  0  0  0  0  0  0
    2.9900   -1.0355    0.7303 H   0  0  0  0  0  0  0  0  0  0  0  0
    0.9265   -2.0120    0.2624 H   0  0  0  0  0  0  0  0  0  0  0  0
   -1.5251   -2.3035    0.5153 H   0  0  0  0  0  0  0  0  0  0  0  0
   -8.2302    3.7764   -1.0031 C   0  0  0  0  0  0  0  0  0  0  0  0
   -9.4687    4.3946   -1.1445 C   0  0  0  0  0  0  0  0  0  0  0  0
  -10.0516    4.5729   -2.4096 C   0  0  0  0  0  0  0  0  0  0  0  0
   -9.3592    4.1120   -3.5373 C   0  0  0  0  0  0  0  0  0  0  0  0
   -8.1174    3.4899   -3.4171 C   0  0  0  0  0  0  0  0  0  0  0  0
   -7.5638    3.3331   -2.1473 C   0  0  0  0  0  0  0  0  0  0  0  0
   -7.7851    3.6285   -0.0253 H   0  0  0  0  0  0  0  0  0  0  0  0
   -9.9943    4.7435   -0.2598 H   0  0  0  0  0  0  0  0  0  0  0  0
   -9.7980    4.2394   -4.5230 H   0  0  0  0  0  0  0  0  0  0  0  0
   -7.5851    3.1235   -4.2877 H   0  0  0  0  0  0  0  0  0  0  0  0
   -5.9790    2.5401   -1.9819 S   0  0  0  0  0  0  0  0  0  0  0  0
   -5.8601    1.9372   -0.6530 O   0  0  0  0  0  0  0  0  0  0  0  0
   -5.0456    3.8913   -2.0122 O   0  0  0  0  0  0  0  0  0  0  0  0
   -5.7056    1.7431   -3.1747 O   0  0  0  0  0  0  0  0  0  0  0  0
  -11.4057    5.2266   -2.5429 C   0  0  0  0  0  0  0  0  0  0  0  0
  -12.2028    4.5459   -2.2206 H   0  0  0  0  0  0  0  0  0  0  0  0
  -11.4767    6.1243   -1.9211 H   0  0  0  0  0  0  0  0  0  0  0  0
  -11.6130    5.5117   -3.5773 H   0  0  0  0  0  0  0  0  0  0  0  0
  1  2  1  0  0  0  0
  1 10  2  0  0  0  0
  2  3  1  0  0  0  0
  4  1  1  0  0  0  0
  5  4  2  0  0  0  0
  5  6  1  0  0  0  0
  6  9  2  0  0  0  0
  7  6  1  0  0  0  0
  7  8  1  0  0  0  0
  8 15  1  0  0  0  0
  9 10  1  0  0  0  0
  9 16  1  0  0  0  0
 10 17  1  0  0  0  0
 12  5  1  0  0  0  0
 13  8  1  0  0  0  0
 14  8  1  0  0  0  0
 18 24  1  0  0  0  0
 19 18  1  0  0  0  0
 19 25  1  0  0  0  0
 20 19  2  0  0  0  0
 21 22  2  0  0  0  0
 21 20  1  0  0  0  0
 22 23  1  0  0  0  0
 23 28  1  0  0  0  0
 23 18  2  0  0  0  0
 26 21  1  0  0  0  0
 27 22  1  0  0  0  0
 28 29  2  0  0  0  0
 30 28  1  0  0  0  0
 30 11  1  0  0  0  0
 31 28  2  0  0  0  0
 32 20  1  0  0  0  0
 32 33  1  0  0  0  0
 32 34  1  0  0  0  0
 35 32  1  0  0  0  0
M  RAD  3   2   2   3   3   4   2
M  END
