Coordinates from ORCA-job 4-MeOPhN2+~TsO-_B3LYPG-6-31G_dp-CH-Scan-d09-49-n800
 OpenBabel11261919313D

 35 35  0  0  0  0  0  0  0  0999 V2000
   -2.0761   -0.2831   -0.1062 C   0  0  0  0  0  0  0  0  0  0  0  0
   -3.4104   -0.5602    0.1045 N   0  0  0  0  0  0  0  0  0  0  0  0
   -4.5024   -0.7523    0.2687 N   0  0  0  0  0  0  0  0  0  0  0  0
   -1.8080    1.0101   -0.6153 C   0  0  0  0  0  0  0  0  0  0  0  0
   -0.4230    1.1856   -0.7873 C   0  0  0  0  0  0  0  0  0  0  0  0
    0.5396    0.2070   -0.4941 C   0  0  0  0  0  0  0  0  0  0  0  0
    1.8315    0.5480   -0.7227 O   0  0  0  0  0  0  0  0  0  0  0  0
    2.8657   -0.3935   -0.4622 C   0  0  0  0  0  0  0  0  0  0  0  0
    0.1637   -1.0683    0.0150 C   0  0  0  0  0  0  0  0  0  0  0  0
   -1.1713   -1.3290    0.2175 C   0  0  0  0  0  0  0  0  0  0  0  0
   -4.0784    3.1223   -1.5297 H   0  0  0  0  0  0  0  0  0  0  0  0
   -0.0306    2.1267   -1.1733 H   0  0  0  0  0  0  0  0  0  0  0  0
    3.7979    0.1077   -0.7263 H   0  0  0  0  0  0  0  0  0  0  0  0
    2.7556   -1.2948   -1.0766 H   0  0  0  0  0  0  0  0  0  0  0  0
    2.8971   -0.6768    0.5969 H   0  0  0  0  0  0  0  0  0  0  0  0
    0.9029   -1.8254    0.2433 H   0  0  0  0  0  0  0  0  0  0  0  0
   -1.5075   -2.2875    0.6054 H   0  0  0  0  0  0  0  0  0  0  0  0
   -8.1784    3.6301   -0.9540 C   0  0  0  0  0  0  0  0  0  0  0  0
   -9.3474    4.3625   -1.1373 C   0  0  0  0  0  0  0  0  0  0  0  0
   -9.8425    4.6302   -2.4238 C   0  0  0  0  0  0  0  0  0  0  0  0
   -9.1335    4.1424   -3.5294 C   0  0  0  0  0  0  0  0  0  0  0  0
   -7.9606    3.4064   -3.3669 C   0  0  0  0  0  0  0  0  0  0  0  0
   -7.4930    3.1617   -2.0768 C   0  0  0  0  0  0  0  0  0  0  0  0
   -7.8020    3.4127    0.0394 H   0  0  0  0  0  0  0  0  0  0  0  0
   -9.8875    4.7307   -0.2693 H   0  0  0  0  0  0  0  0  0  0  0  0
   -9.5051    4.3383   -4.5313 H   0  0  0  0  0  0  0  0  0  0  0  0
   -7.4169    3.0187   -4.2210 H   0  0  0  0  0  0  0  0  0  0  0  0
   -5.9980    2.2190   -1.8584 S   0  0  0  0  0  0  0  0  0  0  0  0
   -6.0135    1.5691   -0.5453 O   0  0  0  0  0  0  0  0  0  0  0  0
   -4.9473    3.4725   -1.8036 O   0  0  0  0  0  0  0  0  0  0  0  0
   -5.7431    1.4257   -3.0586 O   0  0  0  0  0  0  0  0  0  0  0  0
  -11.1242    5.4075   -2.6037 C   0  0  0  0  0  0  0  0  0  0  0  0
  -11.9923    4.8044   -2.3119 H   0  0  0  0  0  0  0  0  0  0  0  0
  -11.1345    6.3083   -1.9822 H   0  0  0  0  0  0  0  0  0  0  0  0
  -11.2661    5.7109   -3.6438 H   0  0  0  0  0  0  0  0  0  0  0  0
  1  2  1  0  0  0  0
  1 10  2  0  0  0  0
  2  3  1  0  0  0  0
  4  1  1  0  0  0  0
  5  4  2  0  0  0  0
  5  6  1  0  0  0  0
  6  9  2  0  0  0  0
  7  6  1  0  0  0  0
  7  8  1  0  0  0  0
  8 15  1  0  0  0  0
  9 10  1  0  0  0  0
  9 16  1  0  0  0  0
 10 17  1  0  0  0  0
 12  5  1  0  0  0  0
 13  8  1  0  0  0  0
 14  8  1  0  0  0  0
 18 24  1  0  0  0  0
 19 18  1  0  0  0  0
 19 25  1  0  0  0  0
 20 19  2  0  0  0  0
 21 22  2  0  0  0  0
 21 20  1  0  0  0  0
 22 23  1  0  0  0  0
 23 28  1  0  0  0  0
 23 18  2  0  0  0  0
 26 21  1  0  0  0  0
 27 22  1  0  0  0  0
 28 30  1  0  0  0  0
 28 29  2  0  0  0  0
 30 11  1  0  0  0  0
 31 28  2  0  0  0  0
 32 20  1  0  0  0  0
 32 33  1  0  0  0  0
 32 34  1  0  0  0  0
 35 32  1  0  0  0  0
M  RAD  3   2   2   3   3   4   2
M  END
