Coordinates from ORCA-job 4-MeOPhN2+~TsO-_B3LYPG-6-31G_dp-CH-Scan-d09-49-n800
 OpenBabel11261919303D

 35 35  0  0  0  0  0  0  0  0999 V2000
   -2.6155   -0.3443   -0.6798 C   0  0  0  0  0  0  0  0  0  0  0  0
   -3.9093   -0.8091   -0.8355 N   0  0  0  0  0  0  0  0  0  0  0  0
   -5.0349   -0.7890   -0.9770 N   0  0  0  0  0  0  0  0  0  0  0  0
   -2.3143    1.0099   -0.9413 C   0  0  0  0  0  0  0  0  0  0  0  0
   -1.0048    1.4149   -0.7745 C   0  0  0  0  0  0  0  0  0  0  0  0
   -0.0097    0.5083   -0.3528 C   0  0  0  0  0  0  0  0  0  0  0  0
    1.2254    1.0248   -0.2229 O   0  0  0  0  0  0  0  0  0  0  0  0
    2.3001    0.1797    0.1877 C   0  0  0  0  0  0  0  0  0  0  0  0
   -0.3333   -0.8416   -0.1038 C   0  0  0  0  0  0  0  0  0  0  0  0
   -1.6395   -1.2689   -0.2768 C   0  0  0  0  0  0  0  0  0  0  0  0
   -3.1356    1.7515   -1.3224 H   0  0  0  0  0  0  0  0  0  0  0  0
   -0.7165    2.4412   -0.9726 H   0  0  0  0  0  0  0  0  0  0  0  0
    3.1821    0.8191    0.2167 H   0  0  0  0  0  0  0  0  0  0  0  0
    2.4618   -0.6329   -0.5293 H   0  0  0  0  0  0  0  0  0  0  0  0
    2.1187   -0.2364    1.1849 H   0  0  0  0  0  0  0  0  0  0  0  0
    0.4211   -1.5490    0.2149 H   0  0  0  0  0  0  0  0  0  0  0  0
   -1.9143   -2.3024   -0.0952 H   0  0  0  0  0  0  0  0  0  0  0  0
   -7.0214    4.2493   -1.6819 C   0  0  0  0  0  0  0  0  0  0  0  0
   -8.1603    5.0514   -1.6748 C   0  0  0  0  0  0  0  0  0  0  0  0
   -9.3726    4.5942   -2.2131 C   0  0  0  0  0  0  0  0  0  0  0  0
   -9.4099    3.3098   -2.7720 C   0  0  0  0  0  0  0  0  0  0  0  0
   -8.2774    2.4953   -2.7859 C   0  0  0  0  0  0  0  0  0  0  0  0
   -7.0871    2.9690   -2.2353 C   0  0  0  0  0  0  0  0  0  0  0  0
   -6.0799    4.6107   -1.2829 H   0  0  0  0  0  0  0  0  0  0  0  0
   -8.1074    6.0511   -1.2509 H   0  0  0  0  0  0  0  0  0  0  0  0
  -10.3363    2.9442   -3.2084 H   0  0  0  0  0  0  0  0  0  0  0  0
   -8.3010    1.5081   -3.2336 H   0  0  0  0  0  0  0  0  0  0  0  0
   -5.6386    1.9094   -2.2115 S   0  0  0  0  0  0  0  0  0  0  0  0
   -5.6729    1.2449   -0.8337 O   0  0  0  0  0  0  0  0  0  0  0  0
   -4.4574    2.8139   -2.3039 O   0  0  0  0  0  0  0  0  0  0  0  0
   -5.7875    0.9223   -3.3005 O   0  0  0  0  0  0  0  0  0  0  0  0
  -10.6082    5.4627   -2.1753 C   0  0  0  0  0  0  0  0  0  0  0  0
  -11.0856    5.4294   -1.1875 H   0  0  0  0  0  0  0  0  0  0  0  0
  -10.3674    6.5109   -2.3806 H   0  0  0  0  0  0  0  0  0  0  0  0
  -11.3503    5.1351   -2.9090 H   0  0  0  0  0  0  0  0  0  0  0  0
  1 10  2  0  0  0  0
  2  1  1  0  0  0  0
  3  2  1  0  0  0  0
  4  5  2  0  0  0  0
  4  1  1  0  0  0  0
  5  6  1  0  0  0  0
  6  7  1  0  0  0  0
  6  9  2  0  0  0  0
  7  8  1  0  0  0  0
  8 13  1  0  0  0  0
  8 15  1  0  0  0  0
  9 16  1  0  0  0  0
 10  9  1  0  0  0  0
 10 17  1  0  0  0  0
 11  4  1  0  0  0  0
 12  5  1  0  0  0  0
 14  8  1  0  0  0  0
 18 19  1  0  0  0  0
 18 24  1  0  0  0  0
 19 25  1  0  0  0  0
 20 32  1  0  0  0  0
 20 19  2  0  0  0  0
 21 20  1  0  0  0  0
 22 21  2  0  0  0  0
 22 23  1  0  0  0  0
 23 28  1  0  0  0  0
 23 18  2  0  0  0  0
 26 21  1  0  0  0  0
 27 22  1  0  0  0  0
 28 29  1  0  0  0  0
 30 28  2  0  0  0  0
 31 28  2  0  0  0  0
 32 33  1  0  0  0  0
 34 32  1  0  0  0  0
 35 32  1  0  0  0  0
M  RAD  3   2   2   3   3  29   2
M  END
