Coordinates from ORCA-job 4-MeOPhN2+~TsO-_B3LYPG-6-31G_dp-CH-Scan-d09-49-n800
 OpenBabel11261919313D

 35 35  0  0  0  0  0  0  0  0999 V2000
   -2.3678   -0.4176   -0.1922 C   0  0  0  0  0  0  0  0  0  0  0  0
   -3.6392   -0.8970    0.0280 N   0  0  0  0  0  0  0  0  0  0  0  0
   -4.6858   -1.2590    0.1950 N   0  0  0  0  0  0  0  0  0  0  0  0
   -2.2845    0.8475   -0.8239 C   0  0  0  0  0  0  0  0  0  0  0  0
   -0.9492    1.2379   -0.9971 C   0  0  0  0  0  0  0  0  0  0  0  0
    0.1523    0.4645   -0.5938 C   0  0  0  0  0  0  0  0  0  0  0  0
    1.3729    0.9922   -0.8389 O   0  0  0  0  0  0  0  0  0  0  0  0
    2.5430    0.2688   -0.4706 C   0  0  0  0  0  0  0  0  0  0  0  0
   -0.0280   -0.7988    0.0335 C   0  0  0  0  0  0  0  0  0  0  0  0
   -1.3086   -1.2561    0.2423 C   0  0  0  0  0  0  0  0  0  0  0  0
   -4.0259    2.0884   -1.5295 H   0  0  0  0  0  0  0  0  0  0  0  0
   -0.7109    2.1896   -1.4694 H   0  0  0  0  0  0  0  0  0  0  0  0
    3.3846    0.8947   -0.7690 H   0  0  0  0  0  0  0  0  0  0  0  0
    2.6034   -0.6914   -0.9958 H   0  0  0  0  0  0  0  0  0  0  0  0
    2.5861    0.0974    0.6117 H   0  0  0  0  0  0  0  0  0  0  0  0
    0.8164   -1.3993    0.3455 H   0  0  0  0  0  0  0  0  0  0  0  0
   -1.4936   -2.2159    0.7169 H   0  0  0  0  0  0  0  0  0  0  0  0
   -7.9347    3.4112   -0.9213 C   0  0  0  0  0  0  0  0  0  0  0  0
   -8.9400    4.3628   -1.0669 C   0  0  0  0  0  0  0  0  0  0  0  0
   -9.4059    4.7381   -2.3366 C   0  0  0  0  0  0  0  0  0  0  0  0
   -8.8363    4.1322   -3.4642 C   0  0  0  0  0  0  0  0  0  0  0  0
   -7.8285    3.1769   -3.3383 C   0  0  0  0  0  0  0  0  0  0  0  0
   -7.3835    2.8290   -2.0641 C   0  0  0  0  0  0  0  0  0  0  0  0
   -7.5831    3.1120    0.0598 H   0  0  0  0  0  0  0  0  0  0  0  0
   -9.3730    4.8210   -0.1816 H   0  0  0  0  0  0  0  0  0  0  0  0
   -9.1871    4.4097   -4.4544 H   0  0  0  0  0  0  0  0  0  0  0  0
   -7.3945    2.6990   -4.2094 H   0  0  0  0  0  0  0  0  0  0  0  0
   -6.0922    1.6110   -1.8925 S   0  0  0  0  0  0  0  0  0  0  0  0
   -6.2268    0.9471   -0.5880 O   0  0  0  0  0  0  0  0  0  0  0  0
   -4.8218    2.6031   -1.8443 O   0  0  0  0  0  0  0  0  0  0  0  0
   -6.0453    0.7908   -3.1038 O   0  0  0  0  0  0  0  0  0  0  0  0
  -10.5155    5.7522   -2.4770 C   0  0  0  0  0  0  0  0  0  0  0  0
  -11.4916    5.2985   -2.2652 H   0  0  0  0  0  0  0  0  0  0  0  0
  -10.3880    6.5835   -1.7764 H   0  0  0  0  0  0  0  0  0  0  0  0
  -10.5572    6.1634   -3.4890 H   0  0  0  0  0  0  0  0  0  0  0  0
  1  2  1  0  0  0  0
  1 10  2  0  0  0  0
  2  3  1  0  0  0  0
  4  1  1  0  0  0  0
  5  4  2  0  0  0  0
  5  6  1  0  0  0  0
  6  9  2  0  0  0  0
  7  6  1  0  0  0  0
  7  8  1  0  0  0  0
  8 15  1  0  0  0  0
  9 10  1  0  0  0  0
  9 16  1  0  0  0  0
 10 17  1  0  0  0  0
 12  5  1  0  0  0  0
 13  8  1  0  0  0  0
 14  8  1  0  0  0  0
 18 24  1  0  0  0  0
 19 18  1  0  0  0  0
 19 25  1  0  0  0  0
 20 19  2  0  0  0  0
 21 22  2  0  0  0  0
 21 20  1  0  0  0  0
 22 23  1  0  0  0  0
 23 28  1  0  0  0  0
 23 18  2  0  0  0  0
 26 21  1  0  0  0  0
 27 22  1  0  0  0  0
 28 30  1  0  0  0  0
 28 29  2  0  0  0  0
 30 11  1  0  0  0  0
 31 28  2  0  0  0  0
 32 20  1  0  0  0  0
 32 33  1  0  0  0  0
 32 34  1  0  0  0  0
 35 32  1  0  0  0  0
M  RAD  3   2   2   3   3   4   2
M  END
