Coordinates from ORCA-job 4-MeOPhN2+~TsO-_B3LYPG-6-31G_dp-CH-Scan-d09-49-n800
 OpenBabel11261919313D

 35 35  0  0  0  0  0  0  0  0999 V2000
   -2.6013   -0.4899   -0.2902 C   0  0  0  0  0  0  0  0  0  0  0  0
   -3.8188   -1.0973   -0.0914 N   0  0  0  0  0  0  0  0  0  0  0  0
   -4.8302   -1.5537    0.0505 N   0  0  0  0  0  0  0  0  0  0  0  0
   -2.6004    0.7203   -1.0259 C   0  0  0  0  0  0  0  0  0  0  0  0
   -1.3186    1.2524   -1.1728 C   0  0  0  0  0  0  0  0  0  0  0  0
   -0.1631    0.6465   -0.6471 C   0  0  0  0  0  0  0  0  0  0  0  0
    0.9992    1.2888   -0.8798 O   0  0  0  0  0  0  0  0  0  0  0  0
    2.2217    0.7416   -0.3906 C   0  0  0  0  0  0  0  0  0  0  0  0
   -0.2446   -0.5706    0.0790 C   0  0  0  0  0  0  0  0  0  0  0  0
   -1.4786   -1.1530    0.2629 C   0  0  0  0  0  0  0  0  0  0  0  0
   -3.8995    1.4416   -1.6736 H   0  0  0  0  0  0  0  0  0  0  0  0
   -1.1719    2.1817   -1.7187 H   0  0  0  0  0  0  0  0  0  0  0  0
    3.0026    1.4317   -0.7101 H   0  0  0  0  0  0  0  0  0  0  0  0
    2.4165   -0.2483   -0.8189 H   0  0  0  0  0  0  0  0  0  0  0  0
    2.2202    0.6756    0.7037 H   0  0  0  0  0  0  0  0  0  0  0  0
    0.6393   -1.0448    0.4849 H   0  0  0  0  0  0  0  0  0  0  0  0
   -1.5839   -2.0853    0.8097 H   0  0  0  0  0  0  0  0  0  0  0  0
   -7.6181    3.2806   -0.9293 C   0  0  0  0  0  0  0  0  0  0  0  0
   -8.5089    4.3485   -1.0027 C   0  0  0  0  0  0  0  0  0  0  0  0
   -9.0508    4.7581   -2.2304 C   0  0  0  0  0  0  0  0  0  0  0  0
   -8.6752    4.0661   -3.3895 C   0  0  0  0  0  0  0  0  0  0  0  0
   -7.7858    2.9939   -3.3332 C   0  0  0  0  0  0  0  0  0  0  0  0
   -7.2593    2.6113   -2.1003 C   0  0  0  0  0  0  0  0  0  0  0  0
   -7.2098    2.9553    0.0211 H   0  0  0  0  0  0  0  0  0  0  0  0
   -8.7919    4.8715   -0.0926 H   0  0  0  0  0  0  0  0  0  0  0  0
   -9.0873    4.3682   -4.3487 H   0  0  0  0  0  0  0  0  0  0  0  0
   -7.5055    2.4486   -4.2277 H   0  0  0  0  0  0  0  0  0  0  0  0
   -6.1033    1.2477   -2.0250 S   0  0  0  0  0  0  0  0  0  0  0  0
   -6.2020    0.6373   -0.6816 O   0  0  0  0  0  0  0  0  0  0  0  0
   -4.7289    2.0003   -2.1524 O   0  0  0  0  0  0  0  0  0  0  0  0
   -6.3432    0.3842   -3.1871 O   0  0  0  0  0  0  0  0  0  0  0  0
  -10.0402    5.8971   -2.2933 C   0  0  0  0  0  0  0  0  0  0  0  0
  -11.0478    5.5600   -2.0192 H   0  0  0  0  0  0  0  0  0  0  0  0
   -9.7702    6.7008   -1.6009 H   0  0  0  0  0  0  0  0  0  0  0  0
  -10.1001    6.3206   -3.2997 H   0  0  0  0  0  0  0  0  0  0  0  0
  1  2  1  0  0  0  0
  1 10  2  0  0  0  0
  2  3  1  0  0  0  0
  4  1  1  0  0  0  0
  5  4  2  0  0  0  0
  5  6  1  0  0  0  0
  6  9  2  0  0  0  0
  7  6  1  0  0  0  0
  7  8  1  0  0  0  0
  8 15  1  0  0  0  0
  9 10  1  0  0  0  0
  9 16  1  0  0  0  0
 10 17  1  0  0  0  0
 12  5  1  0  0  0  0
 13  8  1  0  0  0  0
 14  8  1  0  0  0  0
 18 24  1  0  0  0  0
 19 18  1  0  0  0  0
 19 25  1  0  0  0  0
 20 19  2  0  0  0  0
 21 22  2  0  0  0  0
 21 20  1  0  0  0  0
 22 23  1  0  0  0  0
 23 28  1  0  0  0  0
 23 18  2  0  0  0  0
 26 21  1  0  0  0  0
 27 22  1  0  0  0  0
 28 29  2  0  0  0  0
 30 28  1  0  0  0  0
 30 11  1  0  0  0  0
 31 28  2  0  0  0  0
 32 20  1  0  0  0  0
 32 33  1  0  0  0  0
 32 34  1  0  0  0  0
 35 32  1  0  0  0  0
M  RAD  3   2   2   3   3   4   2
M  END
