Coordinates from ORCA-job 4-MeOPhN2+~TsO-_B3LYPG-6-31G_dp-CH-Scan-d09-49-n800
 OpenBabel11261919303D

 35 35  0  0  0  0  0  0  0  0999 V2000
   -2.6373   -0.5002   -0.3648 C   0  0  0  0  0  0  0  0  0  0  0  0
   -3.8522   -1.1239   -0.2079 N   0  0  0  0  0  0  0  0  0  0  0  0
   -4.8701   -1.5754   -0.1044 N   0  0  0  0  0  0  0  0  0  0  0  0
   -2.6178    0.7115   -1.0957 C   0  0  0  0  0  0  0  0  0  0  0  0
   -1.3488    1.2713   -1.2064 C   0  0  0  0  0  0  0  0  0  0  0  0
   -0.2010    0.6813   -0.6445 C   0  0  0  0  0  0  0  0  0  0  0  0
    0.9556    1.3423   -0.8395 O   0  0  0  0  0  0  0  0  0  0  0  0
    2.1724    0.8126   -0.3153 C   0  0  0  0  0  0  0  0  0  0  0  0
   -0.2891   -0.5380    0.0749 C   0  0  0  0  0  0  0  0  0  0  0  0
   -1.5197   -1.1413    0.2183 C   0  0  0  0  0  0  0  0  0  0  0  0
   -3.8080    1.3252   -1.7157 H   0  0  0  0  0  0  0  0  0  0  0  0
   -1.2081    2.2033   -1.7475 H   0  0  0  0  0  0  0  0  0  0  0  0
    2.9508    1.5164   -0.6101 H   0  0  0  0  0  0  0  0  0  0  0  0
    2.3943   -0.1725   -0.7407 H   0  0  0  0  0  0  0  0  0  0  0  0
    2.1384    0.7439    0.7781 H   0  0  0  0  0  0  0  0  0  0  0  0
    0.5881   -1.0001    0.5082 H   0  0  0  0  0  0  0  0  0  0  0  0
   -1.6263   -2.0760    0.7599 H   0  0  0  0  0  0  0  0  0  0  0  0
   -7.5304    3.2955   -0.9320 C   0  0  0  0  0  0  0  0  0  0  0  0
   -8.4040    4.3784   -0.9971 C   0  0  0  0  0  0  0  0  0  0  0  0
   -9.0006    4.7573   -2.2091 C   0  0  0  0  0  0  0  0  0  0  0  0
   -8.6980    4.0181   -3.3602 C   0  0  0  0  0  0  0  0  0  0  0  0
   -7.8269    2.9304   -3.3107 C   0  0  0  0  0  0  0  0  0  0  0  0
   -7.2439    2.5778   -2.0942 C   0  0  0  0  0  0  0  0  0  0  0  0
   -7.0806    2.9940    0.0074 H   0  0  0  0  0  0  0  0  0  0  0  0
   -8.6304    4.9377   -0.0924 H   0  0  0  0  0  0  0  0  0  0  0  0
   -9.1534    4.2952   -4.3074 H   0  0  0  0  0  0  0  0  0  0  0  0
   -7.6043    2.3484   -4.1985 H   0  0  0  0  0  0  0  0  0  0  0  0
   -6.1014    1.1987   -2.0344 S   0  0  0  0  0  0  0  0  0  0  0  0
   -6.1457    0.6452   -0.6573 O   0  0  0  0  0  0  0  0  0  0  0  0
   -4.7287    1.8838   -2.2727 O   0  0  0  0  0  0  0  0  0  0  0  0
   -6.4502    0.2837   -3.1309 O   0  0  0  0  0  0  0  0  0  0  0  0
   -9.9703    5.9142   -2.2617 C   0  0  0  0  0  0  0  0  0  0  0  0
  -10.9662    5.6116   -1.9141 H   0  0  0  0  0  0  0  0  0  0  0  0
   -9.6435    6.7401   -1.6220 H   0  0  0  0  0  0  0  0  0  0  0  0
  -10.0823    6.2968   -3.2799 H   0  0  0  0  0  0  0  0  0  0  0  0
  1  2  1  0  0  0  0
  1 10  2  0  0  0  0
  2  3  1  0  0  0  0
  4  1  1  0  0  0  0
  5  4  2  0  0  0  0
  5  6  1  0  0  0  0
  6  9  2  0  0  0  0
  7  6  1  0  0  0  0
  7  8  1  0  0  0  0
  8 15  1  0  0  0  0
  9 10  1  0  0  0  0
  9 16  1  0  0  0  0
 10 17  1  0  0  0  0
 12  5  1  0  0  0  0
 13  8  1  0  0  0  0
 14  8  1  0  0  0  0
 18 24  1  0  0  0  0
 19 18  1  0  0  0  0
 19 25  1  0  0  0  0
 20 19  2  0  0  0  0
 21 22  2  0  0  0  0
 21 20  1  0  0  0  0
 22 23  1  0  0  0  0
 23 28  1  0  0  0  0
 23 18  2  0  0  0  0
 26 21  1  0  0  0  0
 27 22  1  0  0  0  0
 28 29  2  0  0  0  0
 30 28  1  0  0  0  0
 30 11  1  0  0  0  0
 31 28  2  0  0  0  0
 32 20  1  0  0  0  0
 32 33  1  0  0  0  0
 32 34  1  0  0  0  0
 35 32  1  0  0  0  0
M  RAD  3   2   2   3   3   4   2
M  END
