Coordinates from ORCA-job 4-MeOPhN2+~TsO-_B3LYPG-6-31G_dp-CH-Scan-d09-49-n800
 OpenBabel11261919313D

 35 35  0  0  0  0  0  0  0  0999 V2000
   -2.4578   -0.4390   -0.2035 C   0  0  0  0  0  0  0  0  0  0  0  0
   -3.7090   -0.9635    0.0258 N   0  0  0  0  0  0  0  0  0  0  0  0
   -4.7419   -1.3596    0.1980 N   0  0  0  0  0  0  0  0  0  0  0  0
   -2.4162    0.8177   -0.8565 C   0  0  0  0  0  0  0  0  0  0  0  0
   -1.0984    1.2553   -1.0382 C   0  0  0  0  0  0  0  0  0  0  0  0
    0.0313    0.5297   -0.6226 C   0  0  0  0  0  0  0  0  0  0  0  0
    1.2300    1.0981   -0.8781 O   0  0  0  0  0  0  0  0  0  0  0  0
    2.4273    0.4258   -0.4988 C   0  0  0  0  0  0  0  0  0  0  0  0
   -0.1034   -0.7279    0.0256 C   0  0  0  0  0  0  0  0  0  0  0  0
   -1.3668   -1.2281    0.2425 C   0  0  0  0  0  0  0  0  0  0  0  0
   -3.9857    1.8728   -1.4960 H   0  0  0  0  0  0  0  0  0  0  0  0
   -0.8983    2.2069   -1.5273 H   0  0  0  0  0  0  0  0  0  0  0  0
    3.2441    1.0776   -0.8100 H   0  0  0  0  0  0  0  0  0  0  0  0
    2.5228   -0.5405   -1.0072 H   0  0  0  0  0  0  0  0  0  0  0  0
    2.4774    0.2758    0.5863 H   0  0  0  0  0  0  0  0  0  0  0  0
    0.7620   -1.2924    0.3469 H   0  0  0  0  0  0  0  0  0  0  0  0
   -1.5164   -2.1861    0.7325 H   0  0  0  0  0  0  0  0  0  0  0  0
   -7.8601    3.3539   -0.9081 C   0  0  0  0  0  0  0  0  0  0  0  0
   -8.8299    4.3428   -1.0485 C   0  0  0  0  0  0  0  0  0  0  0  0
   -9.2811    4.7419   -2.3160 C   0  0  0  0  0  0  0  0  0  0  0  0
   -8.7329    4.1218   -3.4466 C   0  0  0  0  0  0  0  0  0  0  0  0
   -7.7611    3.1294   -3.3252 C   0  0  0  0  0  0  0  0  0  0  0  0
   -7.3295    2.7576   -2.0531 C   0  0  0  0  0  0  0  0  0  0  0  0
   -7.5205    3.0363    0.0715 H   0  0  0  0  0  0  0  0  0  0  0  0
   -9.2465    4.8115   -0.1608 H   0  0  0  0  0  0  0  0  0  0  0  0
   -9.0726    4.4175   -4.4356 H   0  0  0  0  0  0  0  0  0  0  0  0
   -7.3445    2.6403   -4.1986 H   0  0  0  0  0  0  0  0  0  0  0  0
   -6.0809    1.4931   -1.8883 S   0  0  0  0  0  0  0  0  0  0  0  0
   -6.2499    0.8243   -0.5877 O   0  0  0  0  0  0  0  0  0  0  0  0
   -4.7766    2.4206   -1.8331 O   0  0  0  0  0  0  0  0  0  0  0  0
   -6.0746    0.6735   -3.1024 O   0  0  0  0  0  0  0  0  0  0  0  0
  -10.3543    5.7950   -2.4522 C   0  0  0  0  0  0  0  0  0  0  0  0
  -11.3486    5.3693   -2.2681 H   0  0  0  0  0  0  0  0  0  0  0  0
  -10.2125    6.6064   -1.7312 H   0  0  0  0  0  0  0  0  0  0  0  0
  -10.3646    6.2293   -3.4555 H   0  0  0  0  0  0  0  0  0  0  0  0
  1  2  1  0  0  0  0
  1 10  2  0  0  0  0
  2  3  1  0  0  0  0
  4  1  1  0  0  0  0
  5  4  2  0  0  0  0
  5  6  1  0  0  0  0
  6  9  2  0  0  0  0
  7  6  1  0  0  0  0
  7  8  1  0  0  0  0
  8 15  1  0  0  0  0
  9 10  1  0  0  0  0
  9 16  1  0  0  0  0
 10 17  1  0  0  0  0
 12  5  1  0  0  0  0
 13  8  1  0  0  0  0
 14  8  1  0  0  0  0
 18 24  1  0  0  0  0
 19 18  1  0  0  0  0
 19 25  1  0  0  0  0
 20 19  2  0  0  0  0
 21 22  2  0  0  0  0
 21 20  1  0  0  0  0
 22 23  1  0  0  0  0
 23 28  1  0  0  0  0
 23 18  2  0  0  0  0
 26 21  1  0  0  0  0
 27 22  1  0  0  0  0
 28 30  1  0  0  0  0
 28 29  2  0  0  0  0
 30 11  1  0  0  0  0
 31 28  2  0  0  0  0
 32 20  1  0  0  0  0
 32 33  1  0  0  0  0
 32 34  1  0  0  0  0
 35 32  1  0  0  0  0
M  RAD  3   2   2   3   3   4   2
M  END
