Coordinates from ORCA-job 4-MeOPhN2+~TsO-_B3LYPG-6-31G_dp-CH-Scan-d09-49-n800
 OpenBabel11261919313D

 35 35  0  0  0  0  0  0  0  0999 V2000
   -2.5043   -0.4475   -0.2092 C   0  0  0  0  0  0  0  0  0  0  0  0
   -3.7456   -0.9928    0.0241 N   0  0  0  0  0  0  0  0  0  0  0  0
   -4.7719   -1.4045    0.1977 N   0  0  0  0  0  0  0  0  0  0  0  0
   -2.4804    0.8004   -0.8798 C   0  0  0  0  0  0  0  0  0  0  0  0
   -1.1720    1.2606   -1.0650 C   0  0  0  0  0  0  0  0  0  0  0  0
   -0.0301    0.5620   -0.6357 C   0  0  0  0  0  0  0  0  0  0  0  0
    1.1576    1.1489   -0.8962 O   0  0  0  0  0  0  0  0  0  0  0  0
    2.3667    0.5057   -0.5029 C   0  0  0  0  0  0  0  0  0  0  0  0
   -0.1445   -0.6880    0.0300 C   0  0  0  0  0  0  0  0  0  0  0  0
   -1.3994   -1.2081    0.2502 C   0  0  0  0  0  0  0  0  0  0  0  0
   -3.9580    1.7588   -1.4969 H   0  0  0  0  0  0  0  0  0  0  0  0
   -0.9903    2.2087   -1.5676 H   0  0  0  0  0  0  0  0  0  0  0  0
    3.1716    1.1682   -0.8221 H   0  0  0  0  0  0  0  0  0  0  0  0
    2.4822   -0.4664   -0.9957 H   0  0  0  0  0  0  0  0  0  0  0  0
    2.4157    0.3741    0.5846 H   0  0  0  0  0  0  0  0  0  0  0  0
    0.7298   -1.2323    0.3617 H   0  0  0  0  0  0  0  0  0  0  0  0
   -1.5328   -2.1617    0.7529 H   0  0  0  0  0  0  0  0  0  0  0  0
   -7.8118    3.3237   -0.9075 C   0  0  0  0  0  0  0  0  0  0  0  0
   -8.7638    4.3313   -1.0373 C   0  0  0  0  0  0  0  0  0  0  0  0
   -9.2171    4.7429   -2.3000 C   0  0  0  0  0  0  0  0  0  0  0  0
   -8.6892    4.1160   -3.4365 C   0  0  0  0  0  0  0  0  0  0  0  0
   -7.7356    3.1049   -3.3253 C   0  0  0  0  0  0  0  0  0  0  0  0
   -7.3011    2.7205   -2.0579 C   0  0  0  0  0  0  0  0  0  0  0  0
   -7.4711    2.9964    0.0685 H   0  0  0  0  0  0  0  0  0  0  0  0
   -9.1648    4.8049   -0.1450 H   0  0  0  0  0  0  0  0  0  0  0  0
   -9.0309    4.4211   -4.4220 H   0  0  0  0  0  0  0  0  0  0  0  0
   -7.3352    2.6103   -4.2032 H   0  0  0  0  0  0  0  0  0  0  0  0
   -6.0732    1.4327   -1.9070 S   0  0  0  0  0  0  0  0  0  0  0  0
   -6.2529    0.7601   -0.6079 O   0  0  0  0  0  0  0  0  0  0  0  0
   -4.7521    2.3225   -1.8557 O   0  0  0  0  0  0  0  0  0  0  0  0
   -6.0986    0.6151   -3.1232 O   0  0  0  0  0  0  0  0  0  0  0  0
  -10.2720    5.8158   -2.4252 C   0  0  0  0  0  0  0  0  0  0  0  0
  -11.2729    5.4073   -2.2379 H   0  0  0  0  0  0  0  0  0  0  0  0
  -10.1120    6.6210   -1.7010 H   0  0  0  0  0  0  0  0  0  0  0  0
  -10.2798    6.2552   -3.4264 H   0  0  0  0  0  0  0  0  0  0  0  0
  1  2  1  0  0  0  0
  1 10  2  0  0  0  0
  2  3  1  0  0  0  0
  4  1  1  0  0  0  0
  5  4  2  0  0  0  0
  5  6  1  0  0  0  0
  6  9  2  0  0  0  0
  7  6  1  0  0  0  0
  7  8  1  0  0  0  0
  8 15  1  0  0  0  0
  9 10  1  0  0  0  0
  9 16  1  0  0  0  0
 10 17  1  0  0  0  0
 12  5  1  0  0  0  0
 13  8  1  0  0  0  0
 14  8  1  0  0  0  0
 18 24  1  0  0  0  0
 19 18  1  0  0  0  0
 19 25  1  0  0  0  0
 20 19  2  0  0  0  0
 21 22  2  0  0  0  0
 21 20  1  0  0  0  0
 22 23  1  0  0  0  0
 23 28  1  0  0  0  0
 23 18  2  0  0  0  0
 26 21  1  0  0  0  0
 27 22  1  0  0  0  0
 28 30  1  0  0  0  0
 28 29  2  0  0  0  0
 30 11  1  0  0  0  0
 31 28  2  0  0  0  0
 32 20  1  0  0  0  0
 32 33  1  0  0  0  0
 32 34  1  0  0  0  0
 35 32  1  0  0  0  0
M  RAD  3   2   2   3   3   4   2
M  END
