Coordinates from ORCA-job 4-MeOPhN2+~TsO-_B3LYPG-6-31G_dp-CH-Scan-d09-49-n800
 OpenBabel11261919313D

 35 35  0  0  0  0  0  0  0  0999 V2000
   -1.8371   -0.2270   -0.1629 C   0  0  0  0  0  0  0  0  0  0  0  0
   -3.2058   -0.3782   -0.0656 N   0  0  0  0  0  0  0  0  0  0  0  0
   -4.3223   -0.4579    0.0040 N   0  0  0  0  0  0  0  0  0  0  0  0
   -1.4229    1.0634   -0.5690 C   0  0  0  0  0  0  0  0  0  0  0  0
   -0.0167    1.1123   -0.6375 C   0  0  0  0  0  0  0  0  0  0  0  0
    0.8283    0.0306   -0.3474 C   0  0  0  0  0  0  0  0  0  0  0  0
    2.1603    0.2568   -0.4733 O   0  0  0  0  0  0  0  0  0  0  0  0
    3.0814   -0.7939   -0.2111 C   0  0  0  0  0  0  0  0  0  0  0  0
    0.3027   -1.2305    0.0559 C   0  0  0  0  0  0  0  0  0  0  0  0
   -1.0614   -1.3742    0.1542 C   0  0  0  0  0  0  0  0  0  0  0  0
   -4.2065    3.7425   -1.8300 H   0  0  0  0  0  0  0  0  0  0  0  0
    0.4881    2.0323   -0.9359 H   0  0  0  0  0  0  0  0  0  0  0  0
    4.0721   -0.3736   -0.3903 H   0  0  0  0  0  0  0  0  0  0  0  0
    2.9258   -1.6461   -0.8837 H   0  0  0  0  0  0  0  0  0  0  0  0
    3.0201   -1.1367    0.8291 H   0  0  0  0  0  0  0  0  0  0  0  0
    0.9522   -2.0661    0.2838 H   0  0  0  0  0  0  0  0  0  0  0  0
   -1.5108   -2.3164    0.4595 H   0  0  0  0  0  0  0  0  0  0  0  0
   -8.2348    3.8227   -1.0440 C   0  0  0  0  0  0  0  0  0  0  0  0
   -9.4863    4.4227   -1.1419 C   0  0  0  0  0  0  0  0  0  0  0  0
  -10.1235    4.5760   -2.3841 C   0  0  0  0  0  0  0  0  0  0  0  0
   -9.4725    4.1082   -3.5332 C   0  0  0  0  0  0  0  0  0  0  0  0
   -8.2183    3.5040   -3.4567 C   0  0  0  0  0  0  0  0  0  0  0  0
   -7.6104    3.3721   -2.2091 C   0  0  0  0  0  0  0  0  0  0  0  0
   -7.7482    3.6942   -0.0834 H   0  0  0  0  0  0  0  0  0  0  0  0
   -9.9793    4.7770   -0.2408 H   0  0  0  0  0  0  0  0  0  0  0  0
   -9.9536    4.2158   -4.5014 H   0  0  0  0  0  0  0  0  0  0  0  0
   -7.7178    3.1325   -4.3437 H   0  0  0  0  0  0  0  0  0  0  0  0
   -6.0088    2.6041   -2.0986 S   0  0  0  0  0  0  0  0  0  0  0  0
   -5.8286    2.0100   -0.7725 O   0  0  0  0  0  0  0  0  0  0  0  0
   -5.0929    3.9672   -2.1642 O   0  0  0  0  0  0  0  0  0  0  0  0
   -5.7677    1.8084   -3.2988 O   0  0  0  0  0  0  0  0  0  0  0  0
  -11.4902    5.2116   -2.4692 C   0  0  0  0  0  0  0  0  0  0  0  0
  -12.2620    4.5340   -2.0849 H   0  0  0  0  0  0  0  0  0  0  0  0
  -11.5399    6.1282   -1.8733 H   0  0  0  0  0  0  0  0  0  0  0  0
  -11.7526    5.4611   -3.5003 H   0  0  0  0  0  0  0  0  0  0  0  0
  1  2  1  0  0  0  0
  1 10  2  0  0  0  0
  2  3  1  0  0  0  0
  4  1  1  0  0  0  0
  5  4  2  0  0  0  0
  5  6  1  0  0  0  0
  6  9  2  0  0  0  0
  7  6  1  0  0  0  0
  7  8  1  0  0  0  0
  8 15  1  0  0  0  0
  9 10  1  0  0  0  0
  9 16  1  0  0  0  0
 10 17  1  0  0  0  0
 12  5  1  0  0  0  0
 13  8  1  0  0  0  0
 14  8  1  0  0  0  0
 18 24  1  0  0  0  0
 19 18  1  0  0  0  0
 19 25  1  0  0  0  0
 20 19  2  0  0  0  0
 21 22  2  0  0  0  0
 21 20  1  0  0  0  0
 22 23  1  0  0  0  0
 23 28  1  0  0  0  0
 23 18  2  0  0  0  0
 26 21  1  0  0  0  0
 27 22  1  0  0  0  0
 28 29  2  0  0  0  0
 30 28  1  0  0  0  0
 30 11  1  0  0  0  0
 31 28  2  0  0  0  0
 32 20  1  0  0  0  0
 32 33  1  0  0  0  0
 32 34  1  0  0  0  0
 35 32  1  0  0  0  0
M  RAD  3   2   2   3   3   4   2
M  END
