Coordinates from ORCA-job 4-MeOPhN2+~TsO-_B3LYPG-6-31G_dp-CH-Scan-d09-49-n800
 OpenBabel11261919313D

 35 35  0  0  0  0  0  0  0  0999 V2000
   -1.8481   -0.2278   -0.1575 C   0  0  0  0  0  0  0  0  0  0  0  0
   -3.2159   -0.3821   -0.0534 N   0  0  0  0  0  0  0  0  0  0  0  0
   -4.3318   -0.4641    0.0220 N   0  0  0  0  0  0  0  0  0  0  0  0
   -1.4390    1.0634   -0.5664 C   0  0  0  0  0  0  0  0  0  0  0  0
   -0.0332    1.1158   -0.6416 C   0  0  0  0  0  0  0  0  0  0  0  0
    0.8158    0.0364   -0.3548 C   0  0  0  0  0  0  0  0  0  0  0  0
    2.1466    0.2659   -0.4871 O   0  0  0  0  0  0  0  0  0  0  0  0
    3.0716   -0.7824   -0.2289 C   0  0  0  0  0  0  0  0  0  0  0  0
    0.2952   -1.2258    0.0517 C   0  0  0  0  0  0  0  0  0  0  0  0
   -1.0681   -1.3727    0.1566 C   0  0  0  0  0  0  0  0  0  0  0  0
   -4.1979    3.7303   -1.8110 H   0  0  0  0  0  0  0  0  0  0  0  0
    0.4679    2.0368   -0.9430 H   0  0  0  0  0  0  0  0  0  0  0  0
    4.0603   -0.3597   -0.4129 H   0  0  0  0  0  0  0  0  0  0  0  0
    2.9149   -1.6352   -0.9004 H   0  0  0  0  0  0  0  0  0  0  0  0
    3.0160   -1.1250    0.8117 H   0  0  0  0  0  0  0  0  0  0  0  0
    0.9479   -2.0596    0.2770 H   0  0  0  0  0  0  0  0  0  0  0  0
   -1.5136   -2.3159    0.4646 H   0  0  0  0  0  0  0  0  0  0  0  0
   -8.2336    3.8180   -1.0377 C   0  0  0  0  0  0  0  0  0  0  0  0
   -9.4835    4.4199   -1.1428 C   0  0  0  0  0  0  0  0  0  0  0  0
  -10.1131    4.5747   -2.3887 C   0  0  0  0  0  0  0  0  0  0  0  0
   -9.4559    4.1066   -3.5341 C   0  0  0  0  0  0  0  0  0  0  0  0
   -8.2030    3.5006   -3.4504 C   0  0  0  0  0  0  0  0  0  0  0  0
   -7.6029    3.3672   -2.1993 C   0  0  0  0  0  0  0  0  0  0  0  0
   -7.7527    3.6883   -0.0744 H   0  0  0  0  0  0  0  0  0  0  0  0
   -9.9814    4.7745   -0.2445 H   0  0  0  0  0  0  0  0  0  0  0  0
   -9.9310    4.2155   -4.5051 H   0  0  0  0  0  0  0  0  0  0  0  0
   -7.6977    3.1289   -4.3346 H   0  0  0  0  0  0  0  0  0  0  0  0
   -6.0032    2.5964   -2.0797 S   0  0  0  0  0  0  0  0  0  0  0  0
   -5.8318    2.0019   -0.7527 O   0  0  0  0  0  0  0  0  0  0  0  0
   -5.0852    3.9583   -2.1405 O   0  0  0  0  0  0  0  0  0  0  0  0
   -5.7565    1.8001   -3.2784 O   0  0  0  0  0  0  0  0  0  0  0  0
  -11.4784    5.2121   -2.4817 C   0  0  0  0  0  0  0  0  0  0  0  0
  -12.2538    4.5338   -2.1061 H   0  0  0  0  0  0  0  0  0  0  0  0
  -11.5317    6.1263   -1.8825 H   0  0  0  0  0  0  0  0  0  0  0  0
  -11.7326    5.4661   -3.5137 H   0  0  0  0  0  0  0  0  0  0  0  0
  1  2  1  0  0  0  0
  1 10  2  0  0  0  0
  2  3  1  0  0  0  0
  4  1  1  0  0  0  0
  5  4  2  0  0  0  0
  5  6  1  0  0  0  0
  6  9  2  0  0  0  0
  7  6  1  0  0  0  0
  7  8  1  0  0  0  0
  8 15  1  0  0  0  0
  9 10  1  0  0  0  0
  9 16  1  0  0  0  0
 10 17  1  0  0  0  0
 12  5  1  0  0  0  0
 13  8  1  0  0  0  0
 14  8  1  0  0  0  0
 18 24  1  0  0  0  0
 19 18  1  0  0  0  0
 19 25  1  0  0  0  0
 20 19  2  0  0  0  0
 21 22  2  0  0  0  0
 21 20  1  0  0  0  0
 22 23  1  0  0  0  0
 23 28  1  0  0  0  0
 23 18  2  0  0  0  0
 26 21  1  0  0  0  0
 27 22  1  0  0  0  0
 28 29  2  0  0  0  0
 30 28  1  0  0  0  0
 30 11  1  0  0  0  0
 31 28  2  0  0  0  0
 32 20  1  0  0  0  0
 32 33  1  0  0  0  0
 32 34  1  0  0  0  0
 35 32  1  0  0  0  0
M  RAD  3   2   2   3   3   4   2
M  END
