Coordinates from ORCA-job 4-MeOPhN2+~TsO-_B3LYPG-6-31G_dp-CH-Scan-d09-49-n800
 OpenBabel11261919313D

 35 35  0  0  0  0  0  0  0  0999 V2000
   -1.6948   -0.3388   -0.5674 C   0  0  0  0  0  0  0  0  0  0  0  0
   -3.0450   -0.5500   -0.7645 N   0  0  0  0  0  0  0  0  0  0  0  0
   -4.1449   -0.6781   -0.9432 N   0  0  0  0  0  0  0  0  0  0  0  0
   -1.2428    0.9343   -0.9870 C   0  0  0  0  0  0  0  0  0  0  0  0
    0.1408    1.0495   -0.7461 C   0  0  0  0  0  0  0  0  0  0  0  0
    0.9321    0.0411   -0.1758 C   0  0  0  0  0  0  0  0  0  0  0  0
    2.2495    0.3262   -0.0184 O   0  0  0  0  0  0  0  0  0  0  0  0
    3.1181   -0.6454    0.5504 C   0  0  0  0  0  0  0  0  0  0  0  0
    0.3704   -1.2097    0.2113 C   0  0  0  0  0  0  0  0  0  0  0  0
   -0.9749   -1.4162    0.0152 C   0  0  0  0  0  0  0  0  0  0  0  0
   -4.3663    3.4781   -2.7431 H   0  0  0  0  0  0  0  0  0  0  0  0
    0.6700    1.9673   -1.0070 H   0  0  0  0  0  0  0  0  0  0  0  0
    4.1073   -0.1856    0.5703 H   0  0  0  0  0  0  0  0  0  0  0  0
    3.1582   -1.5582   -0.0564 H   0  0  0  0  0  0  0  0  0  0  0  0
    2.8220   -0.9039    1.5743 H   0  0  0  0  0  0  0  0  0  0  0  0
    0.9793   -1.9896    0.6505 H   0  0  0  0  0  0  0  0  0  0  0  0
   -1.4503   -2.3540    0.2937 H   0  0  0  0  0  0  0  0  0  0  0  0
   -8.0513    3.7682   -1.2399 C   0  0  0  0  0  0  0  0  0  0  0  0
   -9.2421    4.4603   -1.0394 C   0  0  0  0  0  0  0  0  0  0  0  0
  -10.1356    4.6904   -2.0972 C   0  0  0  0  0  0  0  0  0  0  0  0
   -9.8056    4.2059   -3.3705 C   0  0  0  0  0  0  0  0  0  0  0  0
   -8.6192    3.5088   -3.5921 C   0  0  0  0  0  0  0  0  0  0  0  0
   -7.7507    3.3014   -2.5210 C   0  0  0  0  0  0  0  0  0  0  0  0
   -7.3667    3.5804   -0.4198 H   0  0  0  0  0  0  0  0  0  0  0  0
   -9.4834    4.8276   -0.0455 H   0  0  0  0  0  0  0  0  0  0  0  0
  -10.4871    4.3744   -4.2000 H   0  0  0  0  0  0  0  0  0  0  0  0
   -8.3692    3.1235   -4.5742 H   0  0  0  0  0  0  0  0  0  0  0  0
   -6.2278    2.4197   -2.7923 S   0  0  0  0  0  0  0  0  0  0  0  0
   -5.7604    1.8290   -1.5362 O   0  0  0  0  0  0  0  0  0  0  0  0
   -5.2375    3.6910   -3.1213 O   0  0  0  0  0  0  0  0  0  0  0  0
   -6.3563    1.6065   -3.9960 O   0  0  0  0  0  0  0  0  0  0  0  0
  -11.4355    5.4192   -1.8582 C   0  0  0  0  0  0  0  0  0  0  0  0
  -12.1931    4.7417   -1.4447 H   0  0  0  0  0  0  0  0  0  0  0  0
  -11.3082    6.2381   -1.1436 H   0  0  0  0  0  0  0  0  0  0  0  0
  -11.8388    5.8343   -2.7855 H   0  0  0  0  0  0  0  0  0  0  0  0
  1 10  2  0  0  0  0
  2  1  1  0  0  0  0
  3  2  1  0  0  0  0
  4  5  2  0  0  0  0
  4  1  1  0  0  0  0
  5  6  1  0  0  0  0
  6  7  1  0  0  0  0
  6  9  2  0  0  0  0
  7  8  1  0  0  0  0
  8 13  1  0  0  0  0
  8 15  1  0  0  0  0
  9 16  1  0  0  0  0
 10  9  1  0  0  0  0
 10 17  1  0  0  0  0
 12  5  1  0  0  0  0
 14  8  1  0  0  0  0
 18 19  1  0  0  0  0
 18 24  1  0  0  0  0
 19 25  1  0  0  0  0
 20 32  1  0  0  0  0
 20 19  2  0  0  0  0
 21 20  1  0  0  0  0
 22 21  2  0  0  0  0
 22 23  1  0  0  0  0
 23 18  2  0  0  0  0
 26 21  1  0  0  0  0
 27 22  1  0  0  0  0
 28 23  1  0  0  0  0
 28 29  2  0  0  0  0
 30 28  1  0  0  0  0
 30 11  1  0  0  0  0
 31 28  2  0  0  0  0
 32 33  1  0  0  0  0
 32 34  1  0  0  0  0
 35 32  1  0  0  0  0
M  RAD  3   2   2   3   3   4   2
M  END
