Coordinates from ORCA-job 4-MeOPhN2+~TsO-_B3LYPG-6-31G_dp-CH-Scan-d09-49-n800
 OpenBabel11261919313D

 35 35  0  0  0  0  0  0  0  0999 V2000
   -2.5133   -0.4492   -0.2110 C   0  0  0  0  0  0  0  0  0  0  0  0
   -3.7527   -0.9986    0.0224 N   0  0  0  0  0  0  0  0  0  0  0  0
   -4.7778   -1.4132    0.1958 N   0  0  0  0  0  0  0  0  0  0  0  0
   -2.4923    0.7966   -0.8855 C   0  0  0  0  0  0  0  0  0  0  0  0
   -1.1858    1.2614   -1.0708 C   0  0  0  0  0  0  0  0  0  0  0  0
   -0.0418    0.5683   -0.6378 C   0  0  0  0  0  0  0  0  0  0  0  0
    1.1439    1.1588   -0.8989 O   0  0  0  0  0  0  0  0  0  0  0  0
    2.3550    0.5215   -0.5018 C   0  0  0  0  0  0  0  0  0  0  0  0
   -0.1526   -0.6799    0.0315 C   0  0  0  0  0  0  0  0  0  0  0  0
   -1.4059   -1.2040    0.2518 C   0  0  0  0  0  0  0  0  0  0  0  0
   -3.9519    1.7361   -1.4994 H   0  0  0  0  0  0  0  0  0  0  0  0
   -1.0075    2.2085   -1.5762 H   0  0  0  0  0  0  0  0  0  0  0  0
    3.1577    1.1859   -0.8225 H   0  0  0  0  0  0  0  0  0  0  0  0
    2.4747   -0.4519   -0.9912 H   0  0  0  0  0  0  0  0  0  0  0  0
    2.4031    0.3939    0.5861 H   0  0  0  0  0  0  0  0  0  0  0  0
    0.7232   -1.2201    0.3661 H   0  0  0  0  0  0  0  0  0  0  0  0
   -1.5365   -2.1565    0.7573 H   0  0  0  0  0  0  0  0  0  0  0  0
   -7.8010    3.3183   -0.9079 C   0  0  0  0  0  0  0  0  0  0  0  0
   -8.7495    4.3296   -1.0350 C   0  0  0  0  0  0  0  0  0  0  0  0
   -9.2047    4.7431   -2.2964 C   0  0  0  0  0  0  0  0  0  0  0  0
   -8.6823    4.1143   -3.4343 C   0  0  0  0  0  0  0  0  0  0  0  0
   -7.7323    3.0995   -3.3257 C   0  0  0  0  0  0  0  0  0  0  0  0
   -7.2958    2.7131   -2.0597 C   0  0  0  0  0  0  0  0  0  0  0  0
   -7.4590    2.9896    0.0672 H   0  0  0  0  0  0  0  0  0  0  0  0
   -9.1462    4.8046   -0.1415 H   0  0  0  0  0  0  0  0  0  0  0  0
   -9.0255    4.4208   -4.4188 H   0  0  0  0  0  0  0  0  0  0  0  0
   -7.3363    2.6033   -4.2048 H   0  0  0  0  0  0  0  0  0  0  0  0
   -6.0719    1.4208   -1.9123 S   0  0  0  0  0  0  0  0  0  0  0  0
   -6.2524    0.7480   -0.6130 O   0  0  0  0  0  0  0  0  0  0  0  0
   -4.7474    2.3026   -1.8637 O   0  0  0  0  0  0  0  0  0  0  0  0
   -6.1052    0.6032   -3.1285 O   0  0  0  0  0  0  0  0  0  0  0  0
  -10.2559    5.8200   -2.4186 C   0  0  0  0  0  0  0  0  0  0  0  0
  -11.2579    5.4152   -2.2287 H   0  0  0  0  0  0  0  0  0  0  0  0
  -10.0910    6.6245   -1.6948 H   0  0  0  0  0  0  0  0  0  0  0  0
  -10.2648    6.2594   -3.4197 H   0  0  0  0  0  0  0  0  0  0  0  0
  1  2  1  0  0  0  0
  1 10  2  0  0  0  0
  2  3  1  0  0  0  0
  4  1  1  0  0  0  0
  5  4  2  0  0  0  0
  5  6  1  0  0  0  0
  6  9  2  0  0  0  0
  7  6  1  0  0  0  0
  7  8  1  0  0  0  0
  8 15  1  0  0  0  0
  9 10  1  0  0  0  0
  9 16  1  0  0  0  0
 10 17  1  0  0  0  0
 12  5  1  0  0  0  0
 13  8  1  0  0  0  0
 14  8  1  0  0  0  0
 18 24  1  0  0  0  0
 19 18  1  0  0  0  0
 19 25  1  0  0  0  0
 20 19  2  0  0  0  0
 21 22  2  0  0  0  0
 21 20  1  0  0  0  0
 22 23  1  0  0  0  0
 23 28  1  0  0  0  0
 23 18  2  0  0  0  0
 26 21  1  0  0  0  0
 27 22  1  0  0  0  0
 28 30  1  0  0  0  0
 28 29  2  0  0  0  0
 30 11  1  0  0  0  0
 31 28  2  0  0  0  0
 32 20  1  0  0  0  0
 32 33  1  0  0  0  0
 32 34  1  0  0  0  0
 35 32  1  0  0  0  0
M  RAD  3   2   2   3   3   4   2
M  END
