Coordinates from ORCA-job 4-MeOPhN2+~TsO-_B3LYPG-6-31G_dp-CH-Scan-d09-49-n800
 OpenBabel11261919313D

 35 35  0  0  0  0  0  0  0  0999 V2000
   -2.1780   -0.3338   -0.1202 C   0  0  0  0  0  0  0  0  0  0  0  0
   -3.4909   -0.6861    0.1052 N   0  0  0  0  0  0  0  0  0  0  0  0
   -4.5675   -0.9433    0.2792 N   0  0  0  0  0  0  0  0  0  0  0  0
   -1.9833    0.9538   -0.6757 C   0  0  0  0  0  0  0  0  0  0  0  0
   -0.6139    1.2075   -0.8609 C   0  0  0  0  0  0  0  0  0  0  0  0
    0.4065    0.2993   -0.5359 C   0  0  0  0  0  0  0  0  0  0  0  0
    1.6737    0.7093   -0.7817 O   0  0  0  0  0  0  0  0  0  0  0  0
    2.7653   -0.1543   -0.4844 C   0  0  0  0  0  0  0  0  0  0  0  0
    0.1077   -0.9762    0.0201 C   0  0  0  0  0  0  0  0  0  0  0  0
   -1.2090   -1.3089    0.2365 C   0  0  0  0  0  0  0  0  0  0  0  0
   -4.0637    2.7265   -1.4741 H   0  0  0  0  0  0  0  0  0  0  0  0
   -0.2811    2.1561   -1.2815 H   0  0  0  0  0  0  0  0  0  0  0  0
    3.6641    0.3953   -0.7667 H   0  0  0  0  0  0  0  0  0  0  0  0
    2.7145   -1.0833   -1.0641 H   0  0  0  0  0  0  0  0  0  0  0  0
    2.8105   -0.3939    0.5850 H   0  0  0  0  0  0  0  0  0  0  0  0
    0.8911   -1.6790    0.2730 H   0  0  0  0  0  0  0  0  0  0  0  0
   -1.4860   -2.2715    0.6590 H   0  0  0  0  0  0  0  0  0  0  0  0
   -8.1066    3.5474   -0.9449 C   0  0  0  0  0  0  0  0  0  0  0  0
   -9.2180    4.3662   -1.1197 C   0  0  0  0  0  0  0  0  0  0  0  0
   -9.6947    4.6793   -2.4028 C   0  0  0  0  0  0  0  0  0  0  0  0
   -9.0264    4.1480   -3.5135 C   0  0  0  0  0  0  0  0  0  0  0  0
   -7.9105    3.3261   -3.3591 C   0  0  0  0  0  0  0  0  0  0  0  0
   -7.4594    3.0378   -2.0724 C   0  0  0  0  0  0  0  0  0  0  0  0
   -7.7460    3.2951    0.0462 H   0  0  0  0  0  0  0  0  0  0  0  0
   -9.7272    4.7674   -0.2476 H   0  0  0  0  0  0  0  0  0  0  0  0
   -9.3846    4.3779   -4.5131 H   0  0  0  0  0  0  0  0  0  0  0  0
   -7.3982    2.9055   -4.2171 H   0  0  0  0  0  0  0  0  0  0  0  0
   -6.0378    1.9843   -1.8645 S   0  0  0  0  0  0  0  0  0  0  0  0
   -6.1259    1.2939   -0.5738 O   0  0  0  0  0  0  0  0  0  0  0  0
   -4.9029    3.1489   -1.7532 O   0  0  0  0  0  0  0  0  0  0  0  0
   -5.8275    1.2080   -3.0851 O   0  0  0  0  0  0  0  0  0  0  0  0
  -10.9152    5.5516   -2.5734 C   0  0  0  0  0  0  0  0  0  0  0  0
  -11.8257    5.0134   -2.2838 H   0  0  0  0  0  0  0  0  0  0  0  0
  -10.8570    6.4459   -1.9448 H   0  0  0  0  0  0  0  0  0  0  0  0
  -11.0362    5.8733   -3.6107 H   0  0  0  0  0  0  0  0  0  0  0  0
  1  2  1  0  0  0  0
  1 10  2  0  0  0  0
  2  3  1  0  0  0  0
  4  1  1  0  0  0  0
  5  4  2  0  0  0  0
  5  6  1  0  0  0  0
  6  9  2  0  0  0  0
  7  6  1  0  0  0  0
  7  8  1  0  0  0  0
  8 15  1  0  0  0  0
  9 10  1  0  0  0  0
  9 16  1  0  0  0  0
 10 17  1  0  0  0  0
 12  5  1  0  0  0  0
 13  8  1  0  0  0  0
 14  8  1  0  0  0  0
 18 24  1  0  0  0  0
 19 18  1  0  0  0  0
 19 25  1  0  0  0  0
 20 19  2  0  0  0  0
 21 22  2  0  0  0  0
 21 20  1  0  0  0  0
 22 23  1  0  0  0  0
 23 28  1  0  0  0  0
 23 18  2  0  0  0  0
 26 21  1  0  0  0  0
 27 22  1  0  0  0  0
 28 30  1  0  0  0  0
 28 29  2  0  0  0  0
 30 11  1  0  0  0  0
 31 28  2  0  0  0  0
 32 20  1  0  0  0  0
 32 33  1  0  0  0  0
 32 34  1  0  0  0  0
 35 32  1  0  0  0  0
M  RAD  3   2   2   3   3   4   2
M  END
