Coordinates from ORCA-job 4-MeOPhN2+~TsO-_B3LYPG-6-31G_dp-CH-Scan-d09-49-n800
 OpenBabel11261919303D

 35 35  0  0  0  0  0  0  0  0999 V2000
   -2.6070   -0.4771   -0.6501 C   0  0  0  0  0  0  0  0  0  0  0  0
   -3.8581   -1.0449   -0.7461 N   0  0  0  0  0  0  0  0  0  0  0  0
   -4.9429   -1.3132   -0.8563 N   0  0  0  0  0  0  0  0  0  0  0  0
   -2.4431    0.8506   -1.1020 C   0  0  0  0  0  0  0  0  0  0  0  0
   -1.1693    1.3769   -0.9795 C   0  0  0  0  0  0  0  0  0  0  0  0
   -0.1075    0.6268   -0.4340 C   0  0  0  0  0  0  0  0  0  0  0  0
    1.0779    1.2580   -0.3704 O   0  0  0  0  0  0  0  0  0  0  0  0
    2.2146    0.5769    0.1613 C   0  0  0  0  0  0  0  0  0  0  0  0
   -0.3133   -0.7030    0.0020 C   0  0  0  0  0  0  0  0  0  0  0  0
   -1.5711   -1.2635   -0.1107 C   0  0  0  0  0  0  0  0  0  0  0  0
   -3.4525    1.5211   -1.6391 H   0  0  0  0  0  0  0  0  0  0  0  0
   -0.9577    2.3890   -1.3084 H   0  0  0  0  0  0  0  0  0  0  0  0
    3.0385    1.2876    0.0983 H   0  0  0  0  0  0  0  0  0  0  0  0
    2.4563   -0.3139   -0.4292 H   0  0  0  0  0  0  0  0  0  0  0  0
    2.0551    0.2954    1.2081 H   0  0  0  0  0  0  0  0  0  0  0  0
    0.4959   -1.2884    0.4184 H   0  0  0  0  0  0  0  0  0  0  0  0
   -1.7605   -2.2811    0.2140 H   0  0  0  0  0  0  0  0  0  0  0  0
   -6.9965    3.9059   -1.4588 C   0  0  0  0  0  0  0  0  0  0  0  0
   -8.0036    4.8661   -1.4394 C   0  0  0  0  0  0  0  0  0  0  0  0
   -9.1850    4.6943   -2.1787 C   0  0  0  0  0  0  0  0  0  0  0  0
   -9.3241    3.5330   -2.9473 C   0  0  0  0  0  0  0  0  0  0  0  0
   -8.3214    2.5619   -2.9772 C   0  0  0  0  0  0  0  0  0  0  0  0
   -7.1619    2.7521   -2.2293 C   0  0  0  0  0  0  0  0  0  0  0  0
   -6.0790    4.0510   -0.8986 H   0  0  0  0  0  0  0  0  0  0  0  0
   -7.8716    5.7680   -0.8458 H   0  0  0  0  0  0  0  0  0  0  0  0
  -10.2275    3.3862   -3.5345 H   0  0  0  0  0  0  0  0  0  0  0  0
   -8.4206    1.6665   -3.5814 H   0  0  0  0  0  0  0  0  0  0  0  0
   -5.8970    1.4788   -2.2280 S   0  0  0  0  0  0  0  0  0  0  0  0
   -6.0049    0.7891   -0.8960 O   0  0  0  0  0  0  0  0  0  0  0  0
   -4.5915    2.2488   -2.3081 O   0  0  0  0  0  0  0  0  0  0  0  0
   -6.1491    0.6005   -3.3853 O   0  0  0  0  0  0  0  0  0  0  0  0
  -10.2750    5.7388   -2.1348 C   0  0  0  0  0  0  0  0  0  0  0  0
  -10.7562    5.7699   -1.1495 H   0  0  0  0  0  0  0  0  0  0  0  0
   -9.8768    6.7412   -2.3277 H   0  0  0  0  0  0  0  0  0  0  0  0
  -11.0533    5.5380   -2.8764 H   0  0  0  0  0  0  0  0  0  0  0  0
  1 10  2  0  0  0  0
  2  1  1  0  0  0  0
  3  2  1  0  0  0  0
  4  5  2  0  0  0  0
  4  1  1  0  0  0  0
  5  6  1  0  0  0  0
  6  7  1  0  0  0  0
  6  9  2  0  0  0  0
  7  8  1  0  0  0  0
  8 15  1  0  0  0  0
  9 16  1  0  0  0  0
 10  9  1  0  0  0  0
 10 17  1  0  0  0  0
 11  4  1  0  0  0  0
 12  5  1  0  0  0  0
 13  8  1  0  0  0  0
 14  8  1  0  0  0  0
 18 19  1  0  0  0  0
 18 24  1  0  0  0  0
 19 25  1  0  0  0  0
 20 32  1  0  0  0  0
 20 19  2  0  0  0  0
 21 20  1  0  0  0  0
 22 21  2  0  0  0  0
 22 23  1  0  0  0  0
 23 28  1  0  0  0  0
 23 18  2  0  0  0  0
 26 21  1  0  0  0  0
 27 22  1  0  0  0  0
 28 29  1  0  0  0  0
 30 28  2  0  0  0  0
 31 28  2  0  0  0  0
 32 33  1  0  0  0  0
 34 32  1  0  0  0  0
 35 32  1  0  0  0  0
M  RAD  3   2   2   3   3  29   2
M  END
