Coordinates from ORCA-job 4-MeOPhN2+~TsO-_B3LYPG-6-31G_dp-CH-Scan-d09-49-n800
 OpenBabel11261919313D

 35 35  0  0  0  0  0  0  0  0999 V2000
   -1.7749   -0.2334   -0.2159 C   0  0  0  0  0  0  0  0  0  0  0  0
   -3.1477   -0.3737   -0.1727 N   0  0  0  0  0  0  0  0  0  0  0  0
   -4.2668   -0.4436   -0.1477 N   0  0  0  0  0  0  0  0  0  0  0  0
   -1.3367    1.0557   -0.6002 C   0  0  0  0  0  0  0  0  0  0  0  0
    0.0717    1.0943   -0.6139 C   0  0  0  0  0  0  0  0  0  0  0  0
    0.8970    0.0055   -0.2953 C   0  0  0  0  0  0  0  0  0  0  0  0
    2.2346    0.2222   -0.3679 O   0  0  0  0  0  0  0  0  0  0  0  0
    3.1368   -0.8357   -0.0717 C   0  0  0  0  0  0  0  0  0  0  0  0
    0.3470   -1.2535    0.0820 C   0  0  0  0  0  0  0  0  0  0  0  0
   -1.0209   -1.3878    0.1264 C   0  0  0  0  0  0  0  0  0  0  0  0
   -4.2563    3.7673   -1.9874 H   0  0  0  0  0  0  0  0  0  0  0  0
    0.5944    2.0117   -0.8887 H   0  0  0  0  0  0  0  0  0  0  0  0
    4.1370   -0.4220   -0.2091 H   0  0  0  0  0  0  0  0  0  0  0  0
    3.0028   -1.6851   -0.7526 H   0  0  0  0  0  0  0  0  0  0  0  0
    3.0309   -1.1809    0.9642 H   0  0  0  0  0  0  0  0  0  0  0  0
    0.9813   -2.0945    0.3316 H   0  0  0  0  0  0  0  0  0  0  0  0
   -1.4885   -2.3280    0.4099 H   0  0  0  0  0  0  0  0  0  0  0  0
   -8.2274    3.8460   -1.0886 C   0  0  0  0  0  0  0  0  0  0  0  0
   -9.4816    4.4467   -1.1309 C   0  0  0  0  0  0  0  0  0  0  0  0
  -10.1763    4.5941   -2.3426 C   0  0  0  0  0  0  0  0  0  0  0  0
   -9.5803    4.1196   -3.5184 C   0  0  0  0  0  0  0  0  0  0  0  0
   -8.3243    3.5144   -3.4976 C   0  0  0  0  0  0  0  0  0  0  0  0
   -7.6588    3.3885   -2.2794 C   0  0  0  0  0  0  0  0  0  0  0  0
   -7.6967    3.7219   -0.1510 H   0  0  0  0  0  0  0  0  0  0  0  0
   -9.9315    4.8061   -0.2094 H   0  0  0  0  0  0  0  0  0  0  0  0
  -10.1062    4.2222   -4.4634 H   0  0  0  0  0  0  0  0  0  0  0  0
   -7.8664    3.1375   -4.4051 H   0  0  0  0  0  0  0  0  0  0  0  0
   -6.0537    2.6204   -2.2397 S   0  0  0  0  0  0  0  0  0  0  0  0
   -5.8116    2.0295   -0.9220 O   0  0  0  0  0  0  0  0  0  0  0  0
   -5.1359    3.9805   -2.3460 O   0  0  0  0  0  0  0  0  0  0  0  0
   -5.8682    1.8247   -3.4492 O   0  0  0  0  0  0  0  0  0  0  0  0
  -11.5447    5.2315   -2.3667 C   0  0  0  0  0  0  0  0  0  0  0  0
  -12.2947    4.5659   -1.9229 H   0  0  0  0  0  0  0  0  0  0  0  0
  -11.5596    6.1625   -1.7914 H   0  0  0  0  0  0  0  0  0  0  0  0
  -11.8638    5.4569   -3.3871 H   0  0  0  0  0  0  0  0  0  0  0  0
  1  2  1  0  0  0  0
  1 10  2  0  0  0  0
  2  3  1  0  0  0  0
  4  1  1  0  0  0  0
  5  4  2  0  0  0  0
  5  6  1  0  0  0  0
  6  9  2  0  0  0  0
  7  6  1  0  0  0  0
  7  8  1  0  0  0  0
  8 15  1  0  0  0  0
  9 10  1  0  0  0  0
  9 16  1  0  0  0  0
 10 17  1  0  0  0  0
 12  5  1  0  0  0  0
 13  8  1  0  0  0  0
 14  8  1  0  0  0  0
 18 24  1  0  0  0  0
 19 18  1  0  0  0  0
 19 25  1  0  0  0  0
 20 19  2  0  0  0  0
 21 22  2  0  0  0  0
 21 20  1  0  0  0  0
 22 23  1  0  0  0  0
 23 28  1  0  0  0  0
 23 18  2  0  0  0  0
 26 21  1  0  0  0  0
 27 22  1  0  0  0  0
 28 29  2  0  0  0  0
 30 28  1  0  0  0  0
 30 11  1  0  0  0  0
 31 28  2  0  0  0  0
 32 20  1  0  0  0  0
 32 33  1  0  0  0  0
 32 34  1  0  0  0  0
 35 32  1  0  0  0  0
M  RAD  3   2   2   3   3   4   2
M  END
