Coordinates from ORCA-job 4-MeOPhN2+~TsO-_B3LYPG-6-31G_dp-CH-Scan-d09-49-n800
 OpenBabel11261919313D

 35 35  0  0  0  0  0  0  0  0999 V2000
   -2.5779   -0.4697   -0.2495 C   0  0  0  0  0  0  0  0  0  0  0  0
   -3.8034   -1.0543   -0.0309 N   0  0  0  0  0  0  0  0  0  0  0  0
   -4.8201   -1.4937    0.1275 N   0  0  0  0  0  0  0  0  0  0  0  0
   -2.5722    0.7555   -0.9605 C   0  0  0  0  0  0  0  0  0  0  0  0
   -1.2812    1.2606   -1.1298 C   0  0  0  0  0  0  0  0  0  0  0  0
   -0.1264    0.6188   -0.6473 C   0  0  0  0  0  0  0  0  0  0  0  0
    1.0442    1.2401   -0.8978 O   0  0  0  0  0  0  0  0  0  0  0  0
    2.2658    0.6569   -0.4508 C   0  0  0  0  0  0  0  0  0  0  0  0
   -0.2157   -0.6110    0.0567 C   0  0  0  0  0  0  0  0  0  0  0  0
   -1.4571   -1.1697    0.2614 C   0  0  0  0  0  0  0  0  0  0  0  0
   -3.9035    1.5454   -1.5763 H   0  0  0  0  0  0  0  0  0  0  0  0
   -1.1258    2.1975   -1.6603 H   0  0  0  0  0  0  0  0  0  0  0  0
    3.0536    1.3370   -0.7751 H   0  0  0  0  0  0  0  0  0  0  0  0
    2.4289   -0.3275   -0.9041 H   0  0  0  0  0  0  0  0  0  0  0  0
    2.2903    0.5676    0.6416 H   0  0  0  0  0  0  0  0  0  0  0  0
    0.6678   -1.1124    0.4295 H   0  0  0  0  0  0  0  0  0  0  0  0
   -1.5694   -2.1106    0.7921 H   0  0  0  0  0  0  0  0  0  0  0  0
   -7.6892    3.2899   -0.9188 C   0  0  0  0  0  0  0  0  0  0  0  0
   -8.6047    4.3348   -1.0139 C   0  0  0  0  0  0  0  0  0  0  0  0
   -9.1059    4.7492   -2.2573 C   0  0  0  0  0  0  0  0  0  0  0  0
   -8.6636    4.0864   -3.4097 C   0  0  0  0  0  0  0  0  0  0  0  0
   -7.7480    3.0377   -3.3322 C   0  0  0  0  0  0  0  0  0  0  0  0
   -7.2636    2.6501   -2.0839 C   0  0  0  0  0  0  0  0  0  0  0  0
   -7.3124    2.9607    0.0432 H   0  0  0  0  0  0  0  0  0  0  0  0
   -8.9394    4.8356   -0.1090 H   0  0  0  0  0  0  0  0  0  0  0  0
   -9.0434    4.3928   -4.3808 H   0  0  0  0  0  0  0  0  0  0  0  0
   -7.4149    2.5149   -4.2219 H   0  0  0  0  0  0  0  0  0  0  0  0
   -6.0770    1.3164   -1.9792 S   0  0  0  0  0  0  0  0  0  0  0  0
   -6.2297    0.6650   -0.6618 O   0  0  0  0  0  0  0  0  0  0  0  0
   -4.7213    2.1225   -2.0062 O   0  0  0  0  0  0  0  0  0  0  0  0
   -6.2174    0.4812   -3.1774 O   0  0  0  0  0  0  0  0  0  0  0  0
  -10.1221    5.8626   -2.3445 C   0  0  0  0  0  0  0  0  0  0  0  0
  -11.1294    5.4964   -2.1091 H   0  0  0  0  0  0  0  0  0  0  0  0
   -9.8980    6.6661   -1.6358 H   0  0  0  0  0  0  0  0  0  0  0  0
  -10.1579    6.2946   -3.3485 H   0  0  0  0  0  0  0  0  0  0  0  0
  1  2  1  0  0  0  0
  1 10  2  0  0  0  0
  2  3  1  0  0  0  0
  4  1  1  0  0  0  0
  5  4  2  0  0  0  0
  5  6  1  0  0  0  0
  6  9  2  0  0  0  0
  7  6  1  0  0  0  0
  7  8  1  0  0  0  0
  8 15  1  0  0  0  0
  9 10  1  0  0  0  0
  9 16  1  0  0  0  0
 10 17  1  0  0  0  0
 12  5  1  0  0  0  0
 13  8  1  0  0  0  0
 14  8  1  0  0  0  0
 18 24  1  0  0  0  0
 19 18  1  0  0  0  0
 19 25  1  0  0  0  0
 20 19  2  0  0  0  0
 21 22  2  0  0  0  0
 21 20  1  0  0  0  0
 22 23  1  0  0  0  0
 23 28  1  0  0  0  0
 23 18  2  0  0  0  0
 26 21  1  0  0  0  0
 27 22  1  0  0  0  0
 28 29  2  0  0  0  0
 30 28  1  0  0  0  0
 30 11  1  0  0  0  0
 31 28  2  0  0  0  0
 32 20  1  0  0  0  0
 32 33  1  0  0  0  0
 32 34  1  0  0  0  0
 35 32  1  0  0  0  0
M  RAD  3   2   2   3   3   4   2
M  END
