Coordinates from ORCA-job 4-MeOPhN2+~TsO-_B3LYPG-6-31G_dp-CH-Scan-d09-49-n800
 OpenBabel11261919313D

 35 35  0  0  0  0  0  0  0  0999 V2000
   -1.9059   -0.2331   -0.1344 C   0  0  0  0  0  0  0  0  0  0  0  0
   -3.2677   -0.4078    0.0066 N   0  0  0  0  0  0  0  0  0  0  0  0
   -4.3796   -0.5083    0.1118 N   0  0  0  0  0  0  0  0  0  0  0  0
   -1.5257    1.0570   -0.5739 C   0  0  0  0  0  0  0  0  0  0  0  0
   -0.1235    1.1295   -0.6840 C   0  0  0  0  0  0  0  0  0  0  0  0
    0.7489    0.0679   -0.4004 C   0  0  0  0  0  0  0  0  0  0  0  0
    2.0723    0.3157   -0.5676 O   0  0  0  0  0  0  0  0  0  0  0  0
    3.0194   -0.7142   -0.3150 C   0  0  0  0  0  0  0  0  0  0  0  0
    0.2576   -1.1951    0.0383 C   0  0  0  0  0  0  0  0  0  0  0  0
   -1.1004   -1.3605    0.1785 C   0  0  0  0  0  0  0  0  0  0  0  0
   -4.1549    3.6473   -1.7168 H   0  0  0  0  0  0  0  0  0  0  0  0
    0.3559    2.0529   -1.0123 H   0  0  0  0  0  0  0  0  0  0  0  0
    3.9969   -0.2790   -0.5278 H   0  0  0  0  0  0  0  0  0  0  0  0
    2.8612   -1.5792   -0.9701 H   0  0  0  0  0  0  0  0  0  0  0  0
    2.9925   -1.0417    0.7316 H   0  0  0  0  0  0  0  0  0  0  0  0
    0.9281   -2.0154    0.2607 H   0  0  0  0  0  0  0  0  0  0  0  0
   -1.5239   -2.3052    0.5118 H   0  0  0  0  0  0  0  0  0  0  0  0
   -8.2310    3.7800   -1.0047 C   0  0  0  0  0  0  0  0  0  0  0  0
   -9.4702    4.3971   -1.1453 C   0  0  0  0  0  0  0  0  0  0  0  0
  -10.0551    4.5729   -2.4099 C   0  0  0  0  0  0  0  0  0  0  0  0
   -9.3640    4.1106   -3.5378 C   0  0  0  0  0  0  0  0  0  0  0  0
   -8.1215    3.4897   -3.4185 C   0  0  0  0  0  0  0  0  0  0  0  0
   -7.5659    3.3353   -2.1492 C   0  0  0  0  0  0  0  0  0  0  0  0
   -7.7844    3.6341   -0.0273 H   0  0  0  0  0  0  0  0  0  0  0  0
   -9.9947    4.7470   -0.2604 H   0  0  0  0  0  0  0  0  0  0  0  0
   -9.8044    4.2361   -4.5230 H   0  0  0  0  0  0  0  0  0  0  0  0
   -7.5903    3.1224   -4.2892 H   0  0  0  0  0  0  0  0  0  0  0  0
   -5.9802    2.5440   -1.9848 S   0  0  0  0  0  0  0  0  0  0  0  0
   -5.8594    1.9414   -0.6559 O   0  0  0  0  0  0  0  0  0  0  0  0
   -5.0478    3.8958   -2.0156 O   0  0  0  0  0  0  0  0  0  0  0  0
   -5.7070    1.7472   -3.1778 O   0  0  0  0  0  0  0  0  0  0  0  0
  -11.4098    5.2255   -2.5422 C   0  0  0  0  0  0  0  0  0  0  0  0
  -12.2059    4.5448   -2.2171 H   0  0  0  0  0  0  0  0  0  0  0  0
  -11.4804    6.1243   -1.9220 H   0  0  0  0  0  0  0  0  0  0  0  0
  -11.6190    5.5083   -3.5768 H   0  0  0  0  0  0  0  0  0  0  0  0
  1  2  1  0  0  0  0
  1 10  2  0  0  0  0
  2  3  1  0  0  0  0
  4  1  1  0  0  0  0
  5  4  2  0  0  0  0
  5  6  1  0  0  0  0
  6  9  2  0  0  0  0
  7  6  1  0  0  0  0
  7  8  1  0  0  0  0
  8 15  1  0  0  0  0
  9 10  1  0  0  0  0
  9 16  1  0  0  0  0
 10 17  1  0  0  0  0
 12  5  1  0  0  0  0
 13  8  1  0  0  0  0
 14  8  1  0  0  0  0
 18 24  1  0  0  0  0
 19 18  1  0  0  0  0
 19 25  1  0  0  0  0
 20 19  2  0  0  0  0
 21 22  2  0  0  0  0
 21 20  1  0  0  0  0
 22 23  1  0  0  0  0
 23 28  1  0  0  0  0
 23 18  2  0  0  0  0
 26 21  1  0  0  0  0
 27 22  1  0  0  0  0
 28 29  2  0  0  0  0
 30 28  1  0  0  0  0
 30 11  1  0  0  0  0
 31 28  2  0  0  0  0
 32 20  1  0  0  0  0
 32 33  1  0  0  0  0
 32 34  1  0  0  0  0
 35 32  1  0  0  0  0
M  RAD  3   2   2   3   3   4   2
M  END
