Coordinates from ORCA-job 4-MeOPhN2+~TsO-_B3LYPG-6-31G_dp-CH-Scan-d09-49-n800
 OpenBabel11261919303D

 35 35  0  0  0  0  0  0  0  0999 V2000
   -2.7510   -0.1104   -0.3966 C   0  0  0  0  0  0  0  0  0  0  0  0
   -4.1075   -0.3933   -0.4306 N   0  0  0  0  0  0  0  0  0  0  0  0
   -5.2100   -0.0968   -0.4562 N   0  0  0  0  0  0  0  0  0  0  0  0
   -2.2946    1.2241   -0.3303 C   0  0  0  0  0  0  0  0  0  0  0  0
   -0.9323    1.4414   -0.3039 C   0  0  0  0  0  0  0  0  0  0  0  0
   -0.0250    0.3618   -0.3426 C   0  0  0  0  0  0  0  0  0  0  0  0
    1.2769    0.7002   -0.3115 O   0  0  0  0  0  0  0  0  0  0  0  0
    2.2676   -0.3249   -0.3628 C   0  0  0  0  0  0  0  0  0  0  0  0
   -0.4986   -0.9631   -0.4085 C   0  0  0  0  0  0  0  0  0  0  0  0
   -1.8650   -1.1953   -0.4350 C   0  0  0  0  0  0  0  0  0  0  0  0
   -3.0067    2.0494   -0.3111 H   0  0  0  0  0  0  0  0  0  0  0  0
   -0.5349    2.4494   -0.2611 H   0  0  0  0  0  0  0  0  0  0  0  0
    3.2269    0.1906   -0.3280 H   0  0  0  0  0  0  0  0  0  0  0  0
    2.1964   -0.8994   -1.2934 H   0  0  0  0  0  0  0  0  0  0  0  0
    2.1857   -1.0006    0.4966 H   0  0  0  0  0  0  0  0  0  0  0  0
    0.1845   -1.8018   -0.4410 H   0  0  0  0  0  0  0  0  0  0  0  0
   -2.2550   -2.2060   -0.4893 H   0  0  0  0  0  0  0  0  0  0  0  0
   -7.1600    4.5867   -1.6164 C   0  0  0  0  0  0  0  0  0  0  0  0
   -8.4346    5.1155   -1.8120 C   0  0  0  0  0  0  0  0  0  0  0  0
   -9.4473    4.3610   -2.4217 C   0  0  0  0  0  0  0  0  0  0  0  0
   -9.1446    3.0590   -2.8438 C   0  0  0  0  0  0  0  0  0  0  0  0
   -7.8743    2.5168   -2.6545 C   0  0  0  0  0  0  0  0  0  0  0  0
   -6.8871    3.2839   -2.0354 C   0  0  0  0  0  0  0  0  0  0  0  0
   -6.3716    5.1776   -1.1630 H   0  0  0  0  0  0  0  0  0  0  0  0
   -8.6454    6.1333   -1.4933 H   0  0  0  0  0  0  0  0  0  0  0  0
   -9.9121    2.4640   -3.3330 H   0  0  0  0  0  0  0  0  0  0  0  0
   -7.6355    1.5167   -2.9992 H   0  0  0  0  0  0  0  0  0  0  0  0
   -5.2586    2.5829   -1.7548 S   0  0  0  0  0  0  0  0  0  0  0  0
   -5.3376    1.9540   -0.3442 O   0  0  0  0  0  0  0  0  0  0  0  0
   -4.3013    3.7077   -1.7303 O   0  0  0  0  0  0  0  0  0  0  0  0
   -5.0475    1.5317   -2.7734 O   0  0  0  0  0  0  0  0  0  0  0  0
  -10.8340    4.9315   -2.6035 C   0  0  0  0  0  0  0  0  0  0  0  0
  -11.4611    4.7352   -1.7239 H   0  0  0  0  0  0  0  0  0  0  0  0
  -10.8055    6.0163   -2.7456 H   0  0  0  0  0  0  0  0  0  0  0  0
  -11.3390    4.4887   -3.4671 H   0  0  0  0  0  0  0  0  0  0  0  0
  1  4  2  0  0  0  0
  2  1  1  0  0  0  0
  3  2  2  0  0  0  0
  4 11  1  0  0  0  0
  4  5  1  0  0  0  0
  5 12  1  0  0  0  0
  6  7  1  0  0  0  0
  6  5  2  0  0  0  0
  8 13  1  0  0  0  0
  8  7  1  0  0  0  0
  8 15  1  0  0  0  0
  9  6  1  0  0  0  0
 10  9  2  0  0  0  0
 10  1  1  0  0  0  0
 14  8  1  0  0  0  0
 16  9  1  0  0  0  0
 17 10  1  0  0  0  0
 18 24  1  0  0  0  0
 19 18  1  0  0  0  0
 19 25  1  0  0  0  0
 20 19  2  0  0  0  0
 21 22  2  0  0  0  0
 21 20  1  0  0  0  0
 22 23  1  0  0  0  0
 23 28  1  0  0  0  0
 23 18  2  0  0  0  0
 26 21  1  0  0  0  0
 27 22  1  0  0  0  0
 28 30  2  0  0  0  0
 28 29  1  0  0  0  0
 31 28  2  0  0  0  0
 32 20  1  0  0  0  0
 32 33  1  0  0  0  0
 34 32  1  0  0  0  0
 35 32  1  0  0  0  0
M  RAD  2   3   2  29   2
M  END
