Coordinates from ORCA-job 4-MeOPhN2+~TsO-_B3LYPG-6-31G_dp-CH-Scan-d09-49-n800
 OpenBabel11261919313D

 35 35  0  0  0  0  0  0  0  0999 V2000
   -1.9296   -0.2377   -0.1291 C   0  0  0  0  0  0  0  0  0  0  0  0
   -3.2888   -0.4233    0.0235 N   0  0  0  0  0  0  0  0  0  0  0  0
   -4.3986   -0.5339    0.1390 N   0  0  0  0  0  0  0  0  0  0  0  0
   -1.5627    1.0524   -0.5794 C   0  0  0  0  0  0  0  0  0  0  0  0
   -0.1621    1.1362   -0.7000 C   0  0  0  0  0  0  0  0  0  0  0  0
    0.7210    0.0836   -0.4158 C   0  0  0  0  0  0  0  0  0  0  0  0
    2.0411    0.3414   -0.5934 O   0  0  0  0  0  0  0  0  0  0  0  0
    2.9985   -0.6791   -0.3410 C   0  0  0  0  0  0  0  0  0  0  0  0
    0.2432   -1.1806    0.0338 C   0  0  0  0  0  0  0  0  0  0  0  0
   -1.1124   -1.3564    0.1847 C   0  0  0  0  0  0  0  0  0  0  0  0
   -4.1357    3.5962   -1.7029 H   0  0  0  0  0  0  0  0  0  0  0  0
    0.3071    2.0613   -1.0374 H   0  0  0  0  0  0  0  0  0  0  0  0
    3.9709   -0.2370   -0.5626 H   0  0  0  0  0  0  0  0  0  0  0  0
    2.8433   -1.5491   -0.9903 H   0  0  0  0  0  0  0  0  0  0  0  0
    2.9809   -1.0009    0.7074 H   0  0  0  0  0  0  0  0  0  0  0  0
    0.9219   -1.9941    0.2564 H   0  0  0  0  0  0  0  0  0  0  0  0
   -1.5257   -2.3024    0.5266 H   0  0  0  0  0  0  0  0  0  0  0  0
   -8.2275    3.7615   -0.9932 C   0  0  0  0  0  0  0  0  0  0  0  0
   -9.4603    4.3890   -1.1444 C   0  0  0  0  0  0  0  0  0  0  0  0
  -10.0294    4.5760   -2.4145 C   0  0  0  0  0  0  0  0  0  0  0  0
   -9.3291    4.1145   -3.5370 C   0  0  0  0  0  0  0  0  0  0  0  0
   -8.0929    3.4833   -3.4071 C   0  0  0  0  0  0  0  0  0  0  0  0
   -7.5530    3.3178   -2.1324 C   0  0  0  0  0  0  0  0  0  0  0  0
   -7.7931    3.6069   -0.0117 H   0  0  0  0  0  0  0  0  0  0  0  0
   -9.9921    4.7383   -0.2636 H   0  0  0  0  0  0  0  0  0  0  0  0
   -9.7573    4.2486   -4.5265 H   0  0  0  0  0  0  0  0  0  0  0  0
   -7.5547    3.1165   -4.2737 H   0  0  0  0  0  0  0  0  0  0  0  0
   -5.9756    2.5128   -1.9546 S   0  0  0  0  0  0  0  0  0  0  0  0
   -5.8743    1.9060   -0.6259 O   0  0  0  0  0  0  0  0  0  0  0  0
   -5.0335    3.8576   -1.9755 O   0  0  0  0  0  0  0  0  0  0  0  0
   -5.6971    1.7151   -3.1460 O   0  0  0  0  0  0  0  0  0  0  0  0
  -11.3777    5.2394   -2.5586 C   0  0  0  0  0  0  0  0  0  0  0  0
  -12.1826    4.5622   -2.2483 H   0  0  0  0  0  0  0  0  0  0  0  0
  -11.4494    6.1343   -1.9330 H   0  0  0  0  0  0  0  0  0  0  0  0
  -11.5721    5.5311   -3.5937 H   0  0  0  0  0  0  0  0  0  0  0  0
  1  2  1  0  0  0  0
  1 10  2  0  0  0  0
  2  3  1  0  0  0  0
  4  1  1  0  0  0  0
  5  4  2  0  0  0  0
  5  6  1  0  0  0  0
  6  9  2  0  0  0  0
  7  6  1  0  0  0  0
  7  8  1  0  0  0  0
  8 15  1  0  0  0  0
  9 10  1  0  0  0  0
  9 16  1  0  0  0  0
 10 17  1  0  0  0  0
 12  5  1  0  0  0  0
 13  8  1  0  0  0  0
 14  8  1  0  0  0  0
 18 24  1  0  0  0  0
 19 18  1  0  0  0  0
 19 25  1  0  0  0  0
 20 19  2  0  0  0  0
 21 22  2  0  0  0  0
 21 20  1  0  0  0  0
 22 23  1  0  0  0  0
 23 28  1  0  0  0  0
 23 18  2  0  0  0  0
 26 21  1  0  0  0  0
 27 22  1  0  0  0  0
 28 29  2  0  0  0  0
 30 28  1  0  0  0  0
 30 11  1  0  0  0  0
 31 28  2  0  0  0  0
 32 20  1  0  0  0  0
 32 33  1  0  0  0  0
 32 34  1  0  0  0  0
 35 32  1  0  0  0  0
M  RAD  3   2   2   3   3   4   2
M  END
