Coordinates from ORCA-job 4-MeOPhN2+~TsO-_B3LYPG-6-31G_dp-CH-Scan-d09-49-n800
 OpenBabel11261919313D

 35 35  0  0  0  0  0  0  0  0999 V2000
   -1.8911   -0.2303   -0.1379 C   0  0  0  0  0  0  0  0  0  0  0  0
   -3.2545   -0.3993   -0.0051 N   0  0  0  0  0  0  0  0  0  0  0  0
   -4.3674   -0.4949    0.0940 N   0  0  0  0  0  0  0  0  0  0  0  0
   -1.5028    1.0607   -0.5674 C   0  0  0  0  0  0  0  0  0  0  0  0
   -0.0996    1.1272   -0.6699 C   0  0  0  0  0  0  0  0  0  0  0  0
    0.7663    0.0597   -0.3887 C   0  0  0  0  0  0  0  0  0  0  0  0
    2.0917    0.3021   -0.5480 O   0  0  0  0  0  0  0  0  0  0  0  0
    3.0326   -0.7339   -0.2974 C   0  0  0  0  0  0  0  0  0  0  0  0
    0.2669   -1.2036    0.0398 C   0  0  0  0  0  0  0  0  0  0  0  0
   -1.0925   -1.3636    0.1722 C   0  0  0  0  0  0  0  0  0  0  0  0
   -4.1664    3.6727   -1.7340 H   0  0  0  0  0  0  0  0  0  0  0  0
    0.3858    2.0503   -0.9899 H   0  0  0  0  0  0  0  0  0  0  0  0
    4.0132   -0.3023   -0.5033 H   0  0  0  0  0  0  0  0  0  0  0  0
    2.8731   -1.5943   -0.9584 H   0  0  0  0  0  0  0  0  0  0  0  0
    2.9996   -1.0676    0.7470 H   0  0  0  0  0  0  0  0  0  0  0  0
    0.9324   -2.0285    0.2607 H   0  0  0  0  0  0  0  0  0  0  0  0
   -1.5221   -2.3082    0.4977 H   0  0  0  0  0  0  0  0  0  0  0  0
   -8.2324    3.7915   -1.0124 C   0  0  0  0  0  0  0  0  0  0  0  0
   -9.4748    4.4037   -1.1457 C   0  0  0  0  0  0  0  0  0  0  0  0
  -10.0703    4.5724   -2.4063 C   0  0  0  0  0  0  0  0  0  0  0  0
   -9.3867    4.1078   -3.5377 C   0  0  0  0  0  0  0  0  0  0  0  0
   -8.1411    3.4916   -3.4258 C   0  0  0  0  0  0  0  0  0  0  0  0
   -7.5749    3.3443   -2.1604 C   0  0  0  0  0  0  0  0  0  0  0  0
   -7.7777    3.6511   -0.0380 H   0  0  0  0  0  0  0  0  0  0  0  0
   -9.9934    4.7555   -0.2580 H   0  0  0  0  0  0  0  0  0  0  0  0
   -9.8353    4.2276   -4.5199 H   0  0  0  0  0  0  0  0  0  0  0  0
   -7.6156    3.1225   -4.2992 H   0  0  0  0  0  0  0  0  0  0  0  0
   -5.9851    2.5594   -2.0053 S   0  0  0  0  0  0  0  0  0  0  0  0
   -5.8522    1.9600   -0.6760 O   0  0  0  0  0  0  0  0  0  0  0  0
   -5.0573    3.9145   -2.0440 O   0  0  0  0  0  0  0  0  0  0  0  0
   -5.7172    1.7620   -3.1988 O   0  0  0  0  0  0  0  0  0  0  0  0
  -11.4282    5.2200   -2.5304 C   0  0  0  0  0  0  0  0  0  0  0  0
  -12.2192    4.5390   -2.1940 H   0  0  0  0  0  0  0  0  0  0  0  0
  -11.4959    6.1224   -1.9151 H   0  0  0  0  0  0  0  0  0  0  0  0
  -11.6476    5.4958   -3.5648 H   0  0  0  0  0  0  0  0  0  0  0  0
  1  2  1  0  0  0  0
  1 10  2  0  0  0  0
  2  3  1  0  0  0  0
  4  1  1  0  0  0  0
  5  4  2  0  0  0  0
  5  6  1  0  0  0  0
  6  9  2  0  0  0  0
  7  6  1  0  0  0  0
  7  8  1  0  0  0  0
  8 15  1  0  0  0  0
  9 10  1  0  0  0  0
  9 16  1  0  0  0  0
 10 17  1  0  0  0  0
 12  5  1  0  0  0  0
 13  8  1  0  0  0  0
 14  8  1  0  0  0  0
 18 24  1  0  0  0  0
 19 18  1  0  0  0  0
 19 25  1  0  0  0  0
 20 19  2  0  0  0  0
 21 22  2  0  0  0  0
 21 20  1  0  0  0  0
 22 23  1  0  0  0  0
 23 28  1  0  0  0  0
 23 18  2  0  0  0  0
 26 21  1  0  0  0  0
 27 22  1  0  0  0  0
 28 29  2  0  0  0  0
 30 28  1  0  0  0  0
 30 11  1  0  0  0  0
 31 28  2  0  0  0  0
 32 20  1  0  0  0  0
 32 33  1  0  0  0  0
 32 34  1  0  0  0  0
 35 32  1  0  0  0  0
M  RAD  3   2   2   3   3   4   2
M  END
