Coordinates from ORCA-job 4-MeOPhN2+~TsO-_B3LYPG-6-31G_dp-CH-Scan-d09-49-n800
 OpenBabel11261919313D

 35 35  0  0  0  0  0  0  0  0999 V2000
   -1.6136   -0.3108   -0.5816 C   0  0  0  0  0  0  0  0  0  0  0  0
   -2.9652   -0.4822   -0.8063 N   0  0  0  0  0  0  0  0  0  0  0  0
   -4.0647   -0.5751   -1.0083 N   0  0  0  0  0  0  0  0  0  0  0  0
   -1.1200    0.9519   -0.9848 C   0  0  0  0  0  0  0  0  0  0  0  0
    0.2616    1.0278   -0.7180 C   0  0  0  0  0  0  0  0  0  0  0  0
    1.0142   -0.0050   -0.1394 C   0  0  0  0  0  0  0  0  0  0  0  0
    2.3359    0.2428    0.0440 O   0  0  0  0  0  0  0  0  0  0  0  0
    3.1668   -0.7552    0.6232 C   0  0  0  0  0  0  0  0  0  0  0  0
    0.4115   -1.2422    0.2301 C   0  0  0  0  0  0  0  0  0  0  0  0
   -0.9350   -1.4110    0.0079 C   0  0  0  0  0  0  0  0  0  0  0  0
   -4.4334    3.6149   -2.8565 H   0  0  0  0  0  0  0  0  0  0  0  0
    0.8205    1.9322   -0.9634 H   0  0  0  0  0  0  0  0  0  0  0  0
    4.1675   -0.3227    0.6645 H   0  0  0  0  0  0  0  0  0  0  0  0
    3.1936   -1.6655    0.0118 H   0  0  0  0  0  0  0  0  0  0  0  0
    2.8444   -1.0112    1.6398 H   0  0  0  0  0  0  0  0  0  0  0  0
    0.9908   -2.0405    0.6762 H   0  0  0  0  0  0  0  0  0  0  0  0
   -1.4410   -2.3368    0.2721 H   0  0  0  0  0  0  0  0  0  0  0  0
   -8.0625    3.8487   -1.2794 C   0  0  0  0  0  0  0  0  0  0  0  0
   -9.2641    4.5152   -1.0580 C   0  0  0  0  0  0  0  0  0  0  0  0
  -10.2027    4.6826   -2.0884 C   0  0  0  0  0  0  0  0  0  0  0  0
   -9.9067    4.1611   -3.3554 C   0  0  0  0  0  0  0  0  0  0  0  0
   -8.7099    3.4891   -3.5976 C   0  0  0  0  0  0  0  0  0  0  0  0
   -7.7965    3.3443   -2.5540 C   0  0  0  0  0  0  0  0  0  0  0  0
   -7.3431    3.7094   -0.4797 H   0  0  0  0  0  0  0  0  0  0  0  0
   -9.4785    4.9117   -0.0692 H   0  0  0  0  0  0  0  0  0  0  0  0
  -10.6233    4.2804   -4.1637 H   0  0  0  0  0  0  0  0  0  0  0  0
   -8.4854    3.0758   -4.5745 H   0  0  0  0  0  0  0  0  0  0  0  0
   -6.2594    2.4969   -2.8531 S   0  0  0  0  0  0  0  0  0  0  0  0
   -5.7354    1.9509   -1.5992 O   0  0  0  0  0  0  0  0  0  0  0  0
   -5.3104    3.7834   -3.2436 O   0  0  0  0  0  0  0  0  0  0  0  0
   -6.4037    1.6531   -4.0334 O   0  0  0  0  0  0  0  0  0  0  0  0
  -11.5129    5.3845   -1.8258 C   0  0  0  0  0  0  0  0  0  0  0  0
  -12.2366    4.7012   -1.3639 H   0  0  0  0  0  0  0  0  0  0  0  0
  -11.3829    6.2292   -1.1425 H   0  0  0  0  0  0  0  0  0  0  0  0
  -11.9594    5.7587   -2.7506 H   0  0  0  0  0  0  0  0  0  0  0  0
  1 10  2  0  0  0  0
  2  1  1  0  0  0  0
  3  2  1  0  0  0  0
  4  5  2  0  0  0  0
  4  1  1  0  0  0  0
  5  6  1  0  0  0  0
  6  7  1  0  0  0  0
  6  9  2  0  0  0  0
  7  8  1  0  0  0  0
  8 13  1  0  0  0  0
  8 15  1  0  0  0  0
  9 16  1  0  0  0  0
 10  9  1  0  0  0  0
 10 17  1  0  0  0  0
 12  5  1  0  0  0  0
 14  8  1  0  0  0  0
 18 19  1  0  0  0  0
 18 24  1  0  0  0  0
 19 25  1  0  0  0  0
 20 32  1  0  0  0  0
 20 19  2  0  0  0  0
 21 20  1  0  0  0  0
 22 21  2  0  0  0  0
 22 23  1  0  0  0  0
 23 18  2  0  0  0  0
 26 21  1  0  0  0  0
 27 22  1  0  0  0  0
 28 23  1  0  0  0  0
 28 29  2  0  0  0  0
 30 11  1  0  0  0  0
 30 28  1  0  0  0  0
 31 28  2  0  0  0  0
 32 33  1  0  0  0  0
 32 34  1  0  0  0  0
 35 32  1  0  0  0  0
M  RAD  3   2   2   3   3   4   2
M  END
