Coordinates from ORCA-job 4-MeOPhN2+~TsO-_B3LYPG-6-31G_dp-CH-Scan-d09-49-n800
 OpenBabel11261919313D

 35 35  0  0  0  0  0  0  0  0999 V2000
   -2.3523   -0.4128   -0.1890 C   0  0  0  0  0  0  0  0  0  0  0  0
   -3.6272   -0.8835    0.0302 N   0  0  0  0  0  0  0  0  0  0  0  0
   -4.6762   -1.2387    0.1968 N   0  0  0  0  0  0  0  0  0  0  0  0
   -2.2611    0.8530   -0.8182 C   0  0  0  0  0  0  0  0  0  0  0  0
   -0.9227    1.2343   -0.9904 C   0  0  0  0  0  0  0  0  0  0  0  0
    0.1733    0.4525   -0.5887 C   0  0  0  0  0  0  0  0  0  0  0  0
    1.3978    0.9723   -0.8327 O   0  0  0  0  0  0  0  0  0  0  0  0
    2.5627    0.2401   -0.4654 C   0  0  0  0  0  0  0  0  0  0  0  0
   -0.0155   -0.8109    0.0360 C   0  0  0  0  0  0  0  0  0  0  0  0
   -1.2991   -1.2598    0.2439 C   0  0  0  0  0  0  0  0  0  0  0  0
   -4.0312    2.1275   -1.5372 H   0  0  0  0  0  0  0  0  0  0  0  0
   -0.6775    2.1853   -1.4607 H   0  0  0  0  0  0  0  0  0  0  0  0
    3.4087    0.8609   -0.7622 H   0  0  0  0  0  0  0  0  0  0  0  0
    2.6168   -0.7194   -0.9925 H   0  0  0  0  0  0  0  0  0  0  0  0
    2.6043    0.0661    0.6166 H   0  0  0  0  0  0  0  0  0  0  0  0
    0.8249   -1.4177    0.3467 H   0  0  0  0  0  0  0  0  0  0  0  0
   -1.4907   -2.2193    0.7166 H   0  0  0  0  0  0  0  0  0  0  0  0
   -7.9467    3.4206   -0.9246 C   0  0  0  0  0  0  0  0  0  0  0  0
   -8.9587    4.3652   -1.0699 C   0  0  0  0  0  0  0  0  0  0  0  0
   -9.4280    4.7367   -2.3395 C   0  0  0  0  0  0  0  0  0  0  0  0
   -8.8549    4.1344   -3.4673 C   0  0  0  0  0  0  0  0  0  0  0  0
   -7.8404    3.1862   -3.3417 C   0  0  0  0  0  0  0  0  0  0  0  0
   -7.3923    2.8419   -2.0676 C   0  0  0  0  0  0  0  0  0  0  0  0
   -7.5924    3.1243    0.0565 H   0  0  0  0  0  0  0  0  0  0  0  0
   -9.3944    4.8206   -0.1846 H   0  0  0  0  0  0  0  0  0  0  0  0
   -9.2082    4.4091   -4.4574 H   0  0  0  0  0  0  0  0  0  0  0  0
   -7.4036    2.7110   -4.2129 H   0  0  0  0  0  0  0  0  0  0  0  0
   -6.0928    1.6328   -1.8963 S   0  0  0  0  0  0  0  0  0  0  0  0
   -6.2206    0.9692   -0.5912 O   0  0  0  0  0  0  0  0  0  0  0  0
   -4.8290    2.6361   -1.8495 O   0  0  0  0  0  0  0  0  0  0  0  0
   -6.0395    0.8133   -3.1074 O   0  0  0  0  0  0  0  0  0  0  0  0
  -10.5445    5.7433   -2.4795 C   0  0  0  0  0  0  0  0  0  0  0  0
  -11.5168    5.2841   -2.2624 H   0  0  0  0  0  0  0  0  0  0  0  0
  -10.4196    6.5778   -1.7822 H   0  0  0  0  0  0  0  0  0  0  0  0
  -10.5923    6.1507   -3.4926 H   0  0  0  0  0  0  0  0  0  0  0  0
  1  2  1  0  0  0  0
  1 10  2  0  0  0  0
  2  3  1  0  0  0  0
  4  1  1  0  0  0  0
  5  4  2  0  0  0  0
  5  6  1  0  0  0  0
  6  9  2  0  0  0  0
  7  6  1  0  0  0  0
  7  8  1  0  0  0  0
  8 15  1  0  0  0  0
  9 10  1  0  0  0  0
  9 16  1  0  0  0  0
 10 17  1  0  0  0  0
 12  5  1  0  0  0  0
 13  8  1  0  0  0  0
 14  8  1  0  0  0  0
 18 24  1  0  0  0  0
 19 18  1  0  0  0  0
 19 25  1  0  0  0  0
 20 19  2  0  0  0  0
 21 22  2  0  0  0  0
 21 20  1  0  0  0  0
 22 23  1  0  0  0  0
 23 28  1  0  0  0  0
 23 18  2  0  0  0  0
 26 21  1  0  0  0  0
 27 22  1  0  0  0  0
 28 30  1  0  0  0  0
 28 29  2  0  0  0  0
 30 11  1  0  0  0  0
 31 28  2  0  0  0  0
 32 20  1  0  0  0  0
 32 33  1  0  0  0  0
 32 34  1  0  0  0  0
 35 32  1  0  0  0  0
M  RAD  3   2   2   3   3   4   2
M  END
