Coordinates from ORCA-job 4-MeOPhN2+~TsO-_B3LYPG-6-31G_dp-CH-Scan-d09-49-n800
 OpenBabel11261919313D

 35 35  0  0  0  0  0  0  0  0999 V2000
   -1.6874   -0.3356   -0.5700 C   0  0  0  0  0  0  0  0  0  0  0  0
   -3.0377   -0.5433   -0.7706 N   0  0  0  0  0  0  0  0  0  0  0  0
   -4.1374   -0.6687   -0.9525 N   0  0  0  0  0  0  0  0  0  0  0  0
   -1.2310    0.9364   -0.9881 C   0  0  0  0  0  0  0  0  0  0  0  0
    0.1523    1.0477   -0.7438 C   0  0  0  0  0  0  0  0  0  0  0  0
    0.9395    0.0372   -0.1718 C   0  0  0  0  0  0  0  0  0  0  0  0
    2.2572    0.3186   -0.0109 O   0  0  0  0  0  0  0  0  0  0  0  0
    3.1218   -0.6555    0.5598 C   0  0  0  0  0  0  0  0  0  0  0  0
    0.3735   -1.2123    0.2137 C   0  0  0  0  0  0  0  0  0  0  0  0
   -0.9719   -1.4151    0.0141 C   0  0  0  0  0  0  0  0  0  0  0  0
   -4.3724    3.4910   -2.7593 H   0  0  0  0  0  0  0  0  0  0  0  0
    0.6847    1.9642   -1.0031 H   0  0  0  0  0  0  0  0  0  0  0  0
    4.1121   -0.1982    0.5824 H   0  0  0  0  0  0  0  0  0  0  0  0
    3.1610   -1.5681   -0.0472 H   0  0  0  0  0  0  0  0  0  0  0  0
    2.8224   -0.9135    1.5828 H   0  0  0  0  0  0  0  0  0  0  0  0
    0.9792   -1.9938    0.6542 H   0  0  0  0  0  0  0  0  0  0  0  0
   -1.4504   -2.3517    0.2912 H   0  0  0  0  0  0  0  0  0  0  0  0
   -8.0507    3.7753   -1.2443 C   0  0  0  0  0  0  0  0  0  0  0  0
   -9.2424    4.4650   -1.0406 C   0  0  0  0  0  0  0  0  0  0  0  0
  -10.1413    4.6894   -2.0951 C   0  0  0  0  0  0  0  0  0  0  0  0
   -9.8159    4.2015   -3.3682 C   0  0  0  0  0  0  0  0  0  0  0  0
   -8.6287    3.5067   -3.5930 C   0  0  0  0  0  0  0  0  0  0  0  0
   -7.7547    3.3051   -2.5252 C   0  0  0  0  0  0  0  0  0  0  0  0
   -7.3619    3.5920   -0.4268 H   0  0  0  0  0  0  0  0  0  0  0  0
   -9.4800    4.8351   -0.0468 H   0  0  0  0  0  0  0  0  0  0  0  0
  -10.5016    4.3655   -4.1951 H   0  0  0  0  0  0  0  0  0  0  0  0
   -8.3822    3.1189   -4.5750 H   0  0  0  0  0  0  0  0  0  0  0  0
   -6.2308    2.4266   -2.8008 S   0  0  0  0  0  0  0  0  0  0  0  0
   -5.7566    1.8401   -1.5452 O   0  0  0  0  0  0  0  0  0  0  0  0
   -5.2449    3.6996   -3.1369 O   0  0  0  0  0  0  0  0  0  0  0  0
   -6.3621    1.6104   -4.0021 O   0  0  0  0  0  0  0  0  0  0  0  0
  -11.4420    5.4157   -1.8525 C   0  0  0  0  0  0  0  0  0  0  0  0
  -12.1961    4.7376   -1.4337 H   0  0  0  0  0  0  0  0  0  0  0  0
  -11.3136    6.2369   -1.1408 H   0  0  0  0  0  0  0  0  0  0  0  0
  -11.8502    5.8271   -2.7792 H   0  0  0  0  0  0  0  0  0  0  0  0
  1 10  2  0  0  0  0
  2  1  1  0  0  0  0
  3  2  1  0  0  0  0
  4  5  2  0  0  0  0
  4  1  1  0  0  0  0
  5  6  1  0  0  0  0
  6  7  1  0  0  0  0
  6  9  2  0  0  0  0
  7  8  1  0  0  0  0
  8 13  1  0  0  0  0
  8 15  1  0  0  0  0
  9 16  1  0  0  0  0
 10  9  1  0  0  0  0
 10 17  1  0  0  0  0
 12  5  1  0  0  0  0
 14  8  1  0  0  0  0
 18 19  1  0  0  0  0
 18 24  1  0  0  0  0
 19 25  1  0  0  0  0
 20 32  1  0  0  0  0
 20 19  2  0  0  0  0
 21 20  1  0  0  0  0
 22 21  2  0  0  0  0
 22 23  1  0  0  0  0
 23 18  2  0  0  0  0
 26 21  1  0  0  0  0
 27 22  1  0  0  0  0
 28 23  1  0  0  0  0
 28 29  2  0  0  0  0
 30 28  1  0  0  0  0
 30 11  1  0  0  0  0
 31 28  2  0  0  0  0
 32 33  1  0  0  0  0
 32 34  1  0  0  0  0
 35 32  1  0  0  0  0
M  RAD  3   2   2   3   3   4   2
M  END
