Coordinates from ORCA-job 4-MeOPhN2+~TsO-_B3LYPG-6-31G_dp-CH-Scan-d09-49-n800
 OpenBabel11261919313D

 35 35  0  0  0  0  0  0  0  0999 V2000
   -2.1319   -0.3110   -0.1082 C   0  0  0  0  0  0  0  0  0  0  0  0
   -3.4542   -0.6298    0.1144 N   0  0  0  0  0  0  0  0  0  0  0  0
   -4.5377   -0.8581    0.2869 N   0  0  0  0  0  0  0  0  0  0  0  0
   -1.9059    0.9797   -0.6439 C   0  0  0  0  0  0  0  0  0  0  0  0
   -0.5294    1.1986   -0.8268 C   0  0  0  0  0  0  0  0  0  0  0  0
    0.4665    0.2584   -0.5183 C   0  0  0  0  0  0  0  0  0  0  0  0
    1.7446    0.6378   -0.7596 O   0  0  0  0  0  0  0  0  0  0  0  0
    2.8119   -0.2613   -0.4813 C   0  0  0  0  0  0  0  0  0  0  0  0
    0.1348   -1.0177    0.0179 C   0  0  0  0  0  0  0  0  0  0  0  0
   -1.1900   -1.3184    0.2316 C   0  0  0  0  0  0  0  0  0  0  0  0
   -4.0707    2.8981   -1.4862 H   0  0  0  0  0  0  0  0  0  0  0  0
   -0.1710    2.1443   -1.2331 H   0  0  0  0  0  0  0  0  0  0  0  0
    3.7253    0.2669   -0.7578 H   0  0  0  0  0  0  0  0  0  0  0  0
    2.7327   -1.1786   -1.0763 H   0  0  0  0  0  0  0  0  0  0  0  0
    2.8542   -0.5204    0.5836 H   0  0  0  0  0  0  0  0  0  0  0  0
    0.8995   -1.7451    0.2581 H   0  0  0  0  0  0  0  0  0  0  0  0
   -1.4923   -2.2797    0.6396 H   0  0  0  0  0  0  0  0  0  0  0  0
   -8.1430    3.5811   -0.9496 C   0  0  0  0  0  0  0  0  0  0  0  0
   -9.2802    4.3625   -1.1293 C   0  0  0  0  0  0  0  0  0  0  0  0
   -9.7618    4.6591   -2.4146 C   0  0  0  0  0  0  0  0  0  0  0  0
   -9.0717    4.1499   -3.5224 C   0  0  0  0  0  0  0  0  0  0  0  0
   -7.9300    3.3653   -3.3632 C   0  0  0  0  0  0  0  0  0  0  0  0
   -7.4751    3.0925   -2.0744 C   0  0  0  0  0  0  0  0  0  0  0  0
   -7.7780    3.3412    0.0430 H   0  0  0  0  0  0  0  0  0  0  0  0
   -9.8061    4.7467   -0.2595 H   0  0  0  0  0  0  0  0  0  0  0  0
   -9.4333    4.3675   -4.5235 H   0  0  0  0  0  0  0  0  0  0  0  0
   -7.4010    2.9613   -4.2190 H   0  0  0  0  0  0  0  0  0  0  0  0
   -6.0211    2.0860   -1.8604 S   0  0  0  0  0  0  0  0  0  0  0  0
   -6.0821    1.4066   -0.5630 O   0  0  0  0  0  0  0  0  0  0  0  0
   -4.9225    3.2905   -1.7636 O   0  0  0  0  0  0  0  0  0  0  0  0
   -5.7865    1.3077   -3.0749 O   0  0  0  0  0  0  0  0  0  0  0  0
  -11.0098    5.4903   -2.5907 C   0  0  0  0  0  0  0  0  0  0  0  0
  -11.9020    4.9255   -2.2949 H   0  0  0  0  0  0  0  0  0  0  0  0
  -10.9795    6.3914   -1.9701 H   0  0  0  0  0  0  0  0  0  0  0  0
  -11.1424    5.7988   -3.6305 H   0  0  0  0  0  0  0  0  0  0  0  0
  1  2  1  0  0  0  0
  1 10  2  0  0  0  0
  2  3  1  0  0  0  0
  4  1  1  0  0  0  0
  5  4  2  0  0  0  0
  5  6  1  0  0  0  0
  6  9  2  0  0  0  0
  7  6  1  0  0  0  0
  7  8  1  0  0  0  0
  8 15  1  0  0  0  0
  9 10  1  0  0  0  0
  9 16  1  0  0  0  0
 10 17  1  0  0  0  0
 12  5  1  0  0  0  0
 13  8  1  0  0  0  0
 14  8  1  0  0  0  0
 18 24  1  0  0  0  0
 19 18  1  0  0  0  0
 19 25  1  0  0  0  0
 20 19  2  0  0  0  0
 21 22  2  0  0  0  0
 21 20  1  0  0  0  0
 22 23  1  0  0  0  0
 23 28  1  0  0  0  0
 23 18  2  0  0  0  0
 26 21  1  0  0  0  0
 27 22  1  0  0  0  0
 28 30  1  0  0  0  0
 28 29  2  0  0  0  0
 30 11  1  0  0  0  0
 31 28  2  0  0  0  0
 32 20  1  0  0  0  0
 32 33  1  0  0  0  0
 32 34  1  0  0  0  0
 35 32  1  0  0  0  0
M  RAD  3   2   2   3   3   4   2
M  END
