Coordinates from ORCA-job 4-MeOPhN2+~TsO-_B3LYPG-6-31G_dp-CH-Scan-d09-49-n800
 OpenBabel11261919303D

 35 35  0  0  0  0  0  0  0  0999 V2000
   -2.7795   -0.0820   -0.3756 C   0  0  0  0  0  0  0  0  0  0  0  0
   -4.1401   -0.3522   -0.3911 N   0  0  0  0  0  0  0  0  0  0  0  0
   -5.2343   -0.0195   -0.4040 N   0  0  0  0  0  0  0  0  0  0  0  0
   -2.3091    1.2486   -0.3165 C   0  0  0  0  0  0  0  0  0  0  0  0
   -0.9430    1.4475   -0.3075 C   0  0  0  0  0  0  0  0  0  0  0  0
   -0.0478    0.3588   -0.3577 C   0  0  0  0  0  0  0  0  0  0  0  0
    1.2581    0.6836   -0.3438 O   0  0  0  0  0  0  0  0  0  0  0  0
    2.2365   -0.3525   -0.4077 C   0  0  0  0  0  0  0  0  0  0  0  0
   -0.5370   -0.9601   -0.4165 C   0  0  0  0  0  0  0  0  0  0  0  0
   -1.9066   -1.1762   -0.4245 C   0  0  0  0  0  0  0  0  0  0  0  0
   -2.9370    2.0005   -0.2872 H   0  0  0  0  0  0  0  0  0  0  0  0
   -0.5346    2.4515   -0.2700 H   0  0  0  0  0  0  0  0  0  0  0  0
    3.2019    0.1522   -0.3865 H   0  0  0  0  0  0  0  0  0  0  0  0
    2.1461   -0.9271   -1.3366 H   0  0  0  0  0  0  0  0  0  0  0  0
    2.1588   -1.0267    0.4534 H   0  0  0  0  0  0  0  0  0  0  0  0
    0.1359   -1.8067   -0.4573 H   0  0  0  0  0  0  0  0  0  0  0  0
   -2.3092   -2.1821   -0.4728 H   0  0  0  0  0  0  0  0  0  0  0  0
   -7.1656    4.5989   -1.5878 C   0  0  0  0  0  0  0  0  0  0  0  0
   -8.4488    5.1005   -1.7967 C   0  0  0  0  0  0  0  0  0  0  0  0
   -9.4345    4.3306   -2.4312 C   0  0  0  0  0  0  0  0  0  0  0  0
   -9.0954    3.0412   -2.8642 C   0  0  0  0  0  0  0  0  0  0  0  0
   -7.8159    2.5257   -2.6614 C   0  0  0  0  0  0  0  0  0  0  0  0
   -6.8565    3.3076   -2.0179 C   0  0  0  0  0  0  0  0  0  0  0  0
   -6.3982    5.2024   -1.1154 H   0  0  0  0  0  0  0  0  0  0  0  0
   -8.6879    6.1092   -1.4692 H   0  0  0  0  0  0  0  0  0  0  0  0
   -9.8416    2.4349   -3.3722 H   0  0  0  0  0  0  0  0  0  0  0  0
   -7.5487    1.5356   -3.0139 H   0  0  0  0  0  0  0  0  0  0  0  0
   -5.2164    2.6420   -1.7194 S   0  0  0  0  0  0  0  0  0  0  0  0
   -5.2968    2.0165   -0.3045 O   0  0  0  0  0  0  0  0  0  0  0  0
   -4.2833    3.7852   -1.6897 O   0  0  0  0  0  0  0  0  0  0  0  0
   -4.9750    1.5886   -2.7286 O   0  0  0  0  0  0  0  0  0  0  0  0
  -10.8308    4.8719   -2.6273 C   0  0  0  0  0  0  0  0  0  0  0  0
  -11.4615    4.6661   -1.7524 H   0  0  0  0  0  0  0  0  0  0  0  0
  -10.8231    5.9567   -2.7728 H   0  0  0  0  0  0  0  0  0  0  0  0
  -11.3190    4.4163   -3.4937 H   0  0  0  0  0  0  0  0  0  0  0  0
  1  4  2  0  0  0  0
  2  1  1  0  0  0  0
  3  2  2  0  0  0  0
  4  5  1  0  0  0  0
  4 11  1  0  0  0  0
  5 12  1  0  0  0  0
  6  7  1  0  0  0  0
  6  5  2  0  0  0  0
  8 13  1  0  0  0  0
  8  7  1  0  0  0  0
  8 15  1  0  0  0  0
  9  6  1  0  0  0  0
 10  9  2  0  0  0  0
 10  1  1  0  0  0  0
 14  8  1  0  0  0  0
 16  9  1  0  0  0  0
 17 10  1  0  0  0  0
 18 24  1  0  0  0  0
 19 18  1  0  0  0  0
 19 25  1  0  0  0  0
 20 19  2  0  0  0  0
 21 22  2  0  0  0  0
 21 20  1  0  0  0  0
 22 23  1  0  0  0  0
 23 28  1  0  0  0  0
 23 18  2  0  0  0  0
 26 21  1  0  0  0  0
 27 22  1  0  0  0  0
 28 30  2  0  0  0  0
 28 29  1  0  0  0  0
 31 28  2  0  0  0  0
 32 20  1  0  0  0  0
 32 33  1  0  0  0  0
 34 32  1  0  0  0  0
 35 32  1  0  0  0  0
M  RAD  2   3   2  29   2
M  END
