Coordinates from ORCA-job 4-MeOPhN2+~TsO-_B3LYPG-6-31G_dp-CH-Scan-d09-49-n800
 OpenBabel11261919303D

 35 35  0  0  0  0  0  0  0  0999 V2000
   -2.5943   -0.3768   -0.6714 C   0  0  0  0  0  0  0  0  0  0  0  0
   -3.8801   -0.8601   -0.8055 N   0  0  0  0  0  0  0  0  0  0  0  0
   -4.9982   -0.9558   -0.9296 N   0  0  0  0  0  0  0  0  0  0  0  0
   -2.3280    0.9743   -0.9822 C   0  0  0  0  0  0  0  0  0  0  0  0
   -1.0253    1.4085   -0.8330 C   0  0  0  0  0  0  0  0  0  0  0  0
   -0.0111    0.5364   -0.3852 C   0  0  0  0  0  0  0  0  0  0  0  0
    1.2142    1.0795   -0.2789 O   0  0  0  0  0  0  0  0  0  0  0  0
    2.3078    0.2707    0.1552 C   0  0  0  0  0  0  0  0  0  0  0  0
   -0.3057   -0.8118   -0.0868 C   0  0  0  0  0  0  0  0  0  0  0  0
   -1.6020   -1.2723   -0.2378 C   0  0  0  0  0  0  0  0  0  0  0  0
   -3.2234    1.7194   -1.4086 H   0  0  0  0  0  0  0  0  0  0  0  0
   -0.7557    2.4328   -1.0653 H   0  0  0  0  0  0  0  0  0  0  0  0
    3.1776    0.9274    0.1530 H   0  0  0  0  0  0  0  0  0  0  0  0
    2.4800   -0.5650   -0.5322 H   0  0  0  0  0  0  0  0  0  0  0  0
    2.1415   -0.1106    1.1686 H   0  0  0  0  0  0  0  0  0  0  0  0
    0.4644   -1.4916    0.2535 H   0  0  0  0  0  0  0  0  0  0  0  0
   -1.8554   -2.3037   -0.0174 H   0  0  0  0  0  0  0  0  0  0  0  0
   -7.0507    4.1464   -1.5546 C   0  0  0  0  0  0  0  0  0  0  0  0
   -8.1525    4.9976   -1.5728 C   0  0  0  0  0  0  0  0  0  0  0  0
   -9.3409    4.6324   -2.2243 C   0  0  0  0  0  0  0  0  0  0  0  0
   -9.3906    3.3901   -2.8690 C   0  0  0  0  0  0  0  0  0  0  0  0
   -8.2940    2.5269   -2.8593 C   0  0  0  0  0  0  0  0  0  0  0  0
   -7.1284    2.9086   -2.1973 C   0  0  0  0  0  0  0  0  0  0  0  0
   -6.1273    4.4386   -1.0666 H   0  0  0  0  0  0  0  0  0  0  0  0
   -8.0896    5.9646   -1.0794 H   0  0  0  0  0  0  0  0  0  0  0  0
  -10.2981    3.0950   -3.3904 H   0  0  0  0  0  0  0  0  0  0  0  0
   -8.3252    1.5712   -3.3707 H   0  0  0  0  0  0  0  0  0  0  0  0
   -5.7340    1.7798   -2.1411 S   0  0  0  0  0  0  0  0  0  0  0  0
   -5.8328    1.0968   -0.7884 O   0  0  0  0  0  0  0  0  0  0  0  0
   -4.5113    2.6469   -2.1906 O   0  0  0  0  0  0  0  0  0  0  0  0
   -5.8793    0.8331   -3.2660 O   0  0  0  0  0  0  0  0  0  0  0  0
  -10.5363    5.5561   -2.2173 C   0  0  0  0  0  0  0  0  0  0  0  0
  -11.0305    5.5579   -1.2374 H   0  0  0  0  0  0  0  0  0  0  0  0
  -10.2449    6.5900   -2.4311 H   0  0  0  0  0  0  0  0  0  0  0  0
  -11.2797    5.2539   -2.9603 H   0  0  0  0  0  0  0  0  0  0  0  0
  1 10  2  0  0  0  0
  2  1  1  0  0  0  0
  3  2  1  0  0  0  0
  4  5  2  0  0  0  0
  4  1  1  0  0  0  0
  5  6  1  0  0  0  0
  6  7  1  0  0  0  0
  6  9  2  0  0  0  0
  7  8  1  0  0  0  0
  8 15  1  0  0  0  0
  9 16  1  0  0  0  0
 10  9  1  0  0  0  0
 10 17  1  0  0  0  0
 11  4  1  0  0  0  0
 12  5  1  0  0  0  0
 13  8  1  0  0  0  0
 14  8  1  0  0  0  0
 18 24  1  0  0  0  0
 19 18  1  0  0  0  0
 19 25  1  0  0  0  0
 20 32  1  0  0  0  0
 20 19  2  0  0  0  0
 21 22  2  0  0  0  0
 21 20  1  0  0  0  0
 22 23  1  0  0  0  0
 23 28  1  0  0  0  0
 23 18  2  0  0  0  0
 26 21  1  0  0  0  0
 27 22  1  0  0  0  0
 28 29  1  0  0  0  0
 30 28  2  0  0  0  0
 31 28  2  0  0  0  0
 32 33  1  0  0  0  0
 34 32  1  0  0  0  0
 35 32  1  0  0  0  0
M  RAD  3   2   2   3   3  29   2
M  END
