Coordinates from ORCA-job 4-MeOPhN2+~TsO-_B3LYPG-6-31G_dp-CH-Scan-d09-49-n800
 OpenBabel11261919313D

 35 35  0  0  0  0  0  0  0  0999 V2000
   -2.3888   -0.4236   -0.1961 C   0  0  0  0  0  0  0  0  0  0  0  0
   -3.6555   -0.9142    0.0254 N   0  0  0  0  0  0  0  0  0  0  0  0
   -4.6988   -1.2850    0.1932 N   0  0  0  0  0  0  0  0  0  0  0  0
   -2.3158    0.8408   -0.8306 C   0  0  0  0  0  0  0  0  0  0  0  0
   -0.9845    1.2430   -1.0052 C   0  0  0  0  0  0  0  0  0  0  0  0
    0.1240    0.4801   -0.6006 C   0  0  0  0  0  0  0  0  0  0  0  0
    1.3395    1.0181   -0.8475 O   0  0  0  0  0  0  0  0  0  0  0  0
    2.5164    0.3059   -0.4783 C   0  0  0  0  0  0  0  0  0  0  0  0
   -0.0452   -0.7832    0.0294 C   0  0  0  0  0  0  0  0  0  0  0  0
   -1.3217   -1.2513    0.2395 C   0  0  0  0  0  0  0  0  0  0  0  0
   -4.0175    2.0388   -1.5177 H   0  0  0  0  0  0  0  0  0  0  0  0
   -0.7554    2.1957   -1.4798 H   0  0  0  0  0  0  0  0  0  0  0  0
    3.3520    0.9387   -0.7788 H   0  0  0  0  0  0  0  0  0  0  0  0
    2.5848   -0.6548   -1.0015 H   0  0  0  0  0  0  0  0  0  0  0  0
    2.5616    0.1374    0.6043 H   0  0  0  0  0  0  0  0  0  0  0  0
    0.8044   -1.3757    0.3423 H   0  0  0  0  0  0  0  0  0  0  0  0
   -1.4981   -2.2117    0.7160 H   0  0  0  0  0  0  0  0  0  0  0  0
   -7.9188    3.3990   -0.9167 C   0  0  0  0  0  0  0  0  0  0  0  0
   -8.9157    4.3594   -1.0629 C   0  0  0  0  0  0  0  0  0  0  0  0
   -9.3768    4.7392   -2.3330 C   0  0  0  0  0  0  0  0  0  0  0  0
   -8.8109    4.1290   -3.4602 C   0  0  0  0  0  0  0  0  0  0  0  0
   -7.8115    3.1650   -3.3334 C   0  0  0  0  0  0  0  0  0  0  0  0
   -7.3711    2.8125   -2.0588 C   0  0  0  0  0  0  0  0  0  0  0  0
   -7.5710    3.0963    0.0648 H   0  0  0  0  0  0  0  0  0  0  0  0
   -9.3459    4.8208   -0.1780 H   0  0  0  0  0  0  0  0  0  0  0  0
   -9.1580    4.4100   -4.4507 H   0  0  0  0  0  0  0  0  0  0  0  0
   -7.3806    2.6837   -4.2041 H   0  0  0  0  0  0  0  0  0  0  0  0
   -6.0898    1.5837   -1.8864 S   0  0  0  0  0  0  0  0  0  0  0  0
   -6.2337    0.9195   -0.5824 O   0  0  0  0  0  0  0  0  0  0  0  0
   -4.8115    2.5615   -1.8359 O   0  0  0  0  0  0  0  0  0  0  0  0
   -6.0507    0.7626   -3.0976 O   0  0  0  0  0  0  0  0  0  0  0  0
  -10.4778    5.7625   -2.4746 C   0  0  0  0  0  0  0  0  0  0  0  0
  -11.4585    5.3156   -2.2693 H   0  0  0  0  0  0  0  0  0  0  0  0
  -10.3472    6.5901   -1.7701 H   0  0  0  0  0  0  0  0  0  0  0  0
  -10.5115    6.1780   -3.4851 H   0  0  0  0  0  0  0  0  0  0  0  0
  1  2  1  0  0  0  0
  1 10  2  0  0  0  0
  2  3  1  0  0  0  0
  4  1  1  0  0  0  0
  5  4  2  0  0  0  0
  5  6  1  0  0  0  0
  6  9  2  0  0  0  0
  7  6  1  0  0  0  0
  7  8  1  0  0  0  0
  8 15  1  0  0  0  0
  9 10  1  0  0  0  0
  9 16  1  0  0  0  0
 10 17  1  0  0  0  0
 12  5  1  0  0  0  0
 13  8  1  0  0  0  0
 14  8  1  0  0  0  0
 18 24  1  0  0  0  0
 19 18  1  0  0  0  0
 19 25  1  0  0  0  0
 20 19  2  0  0  0  0
 21 22  2  0  0  0  0
 21 20  1  0  0  0  0
 22 23  1  0  0  0  0
 23 28  1  0  0  0  0
 23 18  2  0  0  0  0
 26 21  1  0  0  0  0
 27 22  1  0  0  0  0
 28 30  1  0  0  0  0
 28 29  2  0  0  0  0
 30 11  1  0  0  0  0
 31 28  2  0  0  0  0
 32 20  1  0  0  0  0
 32 33  1  0  0  0  0
 32 34  1  0  0  0  0
 35 32  1  0  0  0  0
M  RAD  3   2   2   3   3   4   2
M  END
