Coordinates from ORCA-job 4-MeOPhN2+~TsO-_B3LYPG-6-31G_dp-CH-Scan-d09-49-n800
 OpenBabel11261919313D

 35 35  0  0  0  0  0  0  0  0999 V2000
   -2.3748   -0.4196   -0.1935 C   0  0  0  0  0  0  0  0  0  0  0  0
   -3.6446   -0.9027    0.0271 N   0  0  0  0  0  0  0  0  0  0  0  0
   -4.6901   -1.2677    0.1944 N   0  0  0  0  0  0  0  0  0  0  0  0
   -2.2949    0.8452   -0.8263 C   0  0  0  0  0  0  0  0  0  0  0  0
   -0.9609    1.2396   -0.9999 C   0  0  0  0  0  0  0  0  0  0  0  0
    0.1429    0.4697   -0.5961 C   0  0  0  0  0  0  0  0  0  0  0  0
    1.3618    1.0009   -0.8418 O   0  0  0  0  0  0  0  0  0  0  0  0
    2.5342    0.2812   -0.4731 C   0  0  0  0  0  0  0  0  0  0  0  0
   -0.0337   -0.7935    0.0322 C   0  0  0  0  0  0  0  0  0  0  0  0
   -1.3129   -1.2544    0.2414 C   0  0  0  0  0  0  0  0  0  0  0  0
   -4.0232    2.0717   -1.5256 H   0  0  0  0  0  0  0  0  0  0  0  0
   -0.7257    2.1916   -1.4730 H   0  0  0  0  0  0  0  0  0  0  0  0
    3.3738    0.9095   -0.7722 H   0  0  0  0  0  0  0  0  0  0  0  0
    2.5973   -0.6791   -0.9976 H   0  0  0  0  0  0  0  0  0  0  0  0
    2.5780    0.1108    0.6093 H   0  0  0  0  0  0  0  0  0  0  0  0
    0.8125   -1.3913    0.3446 H   0  0  0  0  0  0  0  0  0  0  0  0
   -1.4951   -2.2144    0.7167 H   0  0  0  0  0  0  0  0  0  0  0  0
   -7.9294    3.4071   -0.9198 C   0  0  0  0  0  0  0  0  0  0  0  0
   -8.9319    4.3617   -1.0655 C   0  0  0  0  0  0  0  0  0  0  0  0
   -9.3962    4.7385   -2.3354 C   0  0  0  0  0  0  0  0  0  0  0  0
   -8.8278    4.1312   -3.4629 C   0  0  0  0  0  0  0  0  0  0  0  0
   -7.8229    3.1729   -3.3367 C   0  0  0  0  0  0  0  0  0  0  0  0
   -7.3795    2.8234   -2.0624 C   0  0  0  0  0  0  0  0  0  0  0  0
   -7.5790    3.1067    0.0615 H   0  0  0  0  0  0  0  0  0  0  0  0
   -9.3639    4.8209   -0.1804 H   0  0  0  0  0  0  0  0  0  0  0  0
   -9.1774    4.4099   -4.4532 H   0  0  0  0  0  0  0  0  0  0  0  0
   -7.3900    2.6938   -4.2077 H   0  0  0  0  0  0  0  0  0  0  0  0
   -6.0915    1.6017   -1.8906 S   0  0  0  0  0  0  0  0  0  0  0  0
   -6.2293    0.9376   -0.5862 O   0  0  0  0  0  0  0  0  0  0  0  0
   -4.8184    2.5890   -1.8416 O   0  0  0  0  0  0  0  0  0  0  0  0
   -6.0473    0.7813   -3.1018 O   0  0  0  0  0  0  0  0  0  0  0  0
  -10.5029    5.7558   -2.4761 C   0  0  0  0  0  0  0  0  0  0  0  0
  -11.4805    5.3043   -2.2666 H   0  0  0  0  0  0  0  0  0  0  0  0
  -10.3743    6.5858   -1.7742 H   0  0  0  0  0  0  0  0  0  0  0  0
  -10.5418    6.1685   -3.4876 H   0  0  0  0  0  0  0  0  0  0  0  0
  1  2  1  0  0  0  0
  1 10  2  0  0  0  0
  2  3  1  0  0  0  0
  4  1  1  0  0  0  0
  5  4  2  0  0  0  0
  5  6  1  0  0  0  0
  6  9  2  0  0  0  0
  7  6  1  0  0  0  0
  7  8  1  0  0  0  0
  8 15  1  0  0  0  0
  9 10  1  0  0  0  0
  9 16  1  0  0  0  0
 10 17  1  0  0  0  0
 12  5  1  0  0  0  0
 13  8  1  0  0  0  0
 14  8  1  0  0  0  0
 18 24  1  0  0  0  0
 19 18  1  0  0  0  0
 19 25  1  0  0  0  0
 20 19  2  0  0  0  0
 21 22  2  0  0  0  0
 21 20  1  0  0  0  0
 22 23  1  0  0  0  0
 23 28  1  0  0  0  0
 23 18  2  0  0  0  0
 26 21  1  0  0  0  0
 27 22  1  0  0  0  0
 28 30  1  0  0  0  0
 28 29  2  0  0  0  0
 30 11  1  0  0  0  0
 31 28  2  0  0  0  0
 32 20  1  0  0  0  0
 32 33  1  0  0  0  0
 32 34  1  0  0  0  0
 35 32  1  0  0  0  0
M  RAD  3   2   2   3   3   4   2
M  END
