Coordinates from ORCA-job 4-MeOPhN2+~TsO-_B3LYPG-6-31G_dp-CH-Scan-d09-49-n800
 OpenBabel11261919313D

 35 35  0  0  0  0  0  0  0  0999 V2000
   -1.7343   -0.2377   -0.2551 C   0  0  0  0  0  0  0  0  0  0  0  0
   -3.1084   -0.3727   -0.2495 N   0  0  0  0  0  0  0  0  0  0  0  0
   -4.2282   -0.4373   -0.2541 N   0  0  0  0  0  0  0  0  0  0  0  0
   -1.2817    1.0505   -0.6253 C   0  0  0  0  0  0  0  0  0  0  0  0
    0.1267    1.0843   -0.6000 C   0  0  0  0  0  0  0  0  0  0  0  0
    0.9392   -0.0075   -0.2597 C   0  0  0  0  0  0  0  0  0  0  0  0
    2.2790    0.2049   -0.2938 O   0  0  0  0  0  0  0  0  0  0  0  0
    3.1689   -0.8560    0.0279 C   0  0  0  0  0  0  0  0  0  0  0  0
    0.3748   -1.2654    0.0999 C   0  0  0  0  0  0  0  0  0  0  0  0
   -0.9942   -1.3954    0.1059 C   0  0  0  0  0  0  0  0  0  0  0  0
   -4.2901    3.7694   -2.1132 H   0  0  0  0  0  0  0  0  0  0  0  0
    0.6598    2.0005   -0.8587 H   0  0  0  0  0  0  0  0  0  0  0  0
    4.1740   -0.4449   -0.0782 H   0  0  0  0  0  0  0  0  0  0  0  0
    3.0533   -1.7041   -0.6580 H   0  0  0  0  0  0  0  0  0  0  0  0
    3.0305   -1.2025    1.0596 H   0  0  0  0  0  0  0  0  0  0  0  0
    0.9992   -2.1089    0.3655 H   0  0  0  0  0  0  0  0  0  0  0  0
   -1.4725   -2.3345    0.3745 H   0  0  0  0  0  0  0  0  0  0  0  0
   -8.2199    3.8547   -1.1199 C   0  0  0  0  0  0  0  0  0  0  0  0
   -9.4726    4.4596   -1.1221 C   0  0  0  0  0  0  0  0  0  0  0  0
  -10.2057    4.6084   -2.3109 C   0  0  0  0  0  0  0  0  0  0  0  0
   -9.6498    4.1308   -3.5048 C   0  0  0  0  0  0  0  0  0  0  0  0
   -8.3959    3.5210   -3.5242 C   0  0  0  0  0  0  0  0  0  0  0  0
   -7.6917    3.3938   -2.3281 C   0  0  0  0  0  0  0  0  0  0  0  0
   -7.6595    3.7292   -0.1999 H   0  0  0  0  0  0  0  0  0  0  0  0
   -9.8912    4.8214   -0.1869 H   0  0  0  0  0  0  0  0  0  0  0  0
  -10.2056    4.2344   -4.4324 H   0  0  0  0  0  0  0  0  0  0  0  0
   -7.9692    3.1413   -4.4456 H   0  0  0  0  0  0  0  0  0  0  0  0
   -6.0886    2.6208   -2.3396 S   0  0  0  0  0  0  0  0  0  0  0  0
   -5.8019    2.0368   -1.0277 O   0  0  0  0  0  0  0  0  0  0  0  0
   -5.1664    3.9749   -2.4840 O   0  0  0  0  0  0  0  0  0  0  0  0
   -5.9484    1.8192   -3.5510 O   0  0  0  0  0  0  0  0  0  0  0  0
  -11.5719    5.2508   -2.2912 C   0  0  0  0  0  0  0  0  0  0  0  0
  -12.3081    4.5909   -1.8167 H   0  0  0  0  0  0  0  0  0  0  0  0
  -11.5635    6.1857   -1.7219 H   0  0  0  0  0  0  0  0  0  0  0  0
  -11.9257    5.4708   -3.3012 H   0  0  0  0  0  0  0  0  0  0  0  0
  1  2  1  0  0  0  0
  1 10  2  0  0  0  0
  3  2  1  0  0  0  0
  4  5  2  0  0  0  0
  4  1  1  0  0  0  0
  5  6  1  0  0  0  0
  6  9  2  0  0  0  0
  7  6  1  0  0  0  0
  7  8  1  0  0  0  0
  8 15  1  0  0  0  0
  9 10  1  0  0  0  0
  9 16  1  0  0  0  0
 10 17  1  0  0  0  0
 12  5  1  0  0  0  0
 13  8  1  0  0  0  0
 14  8  1  0  0  0  0
 18 24  1  0  0  0  0
 19 18  1  0  0  0  0
 19 25  1  0  0  0  0
 20 32  1  0  0  0  0
 20 19  2  0  0  0  0
 21 20  1  0  0  0  0
 22 21  2  0  0  0  0
 22 23  1  0  0  0  0
 23 18  2  0  0  0  0
 26 21  1  0  0  0  0
 27 22  1  0  0  0  0
 28 23  1  0  0  0  0
 28 29  2  0  0  0  0
 30 28  1  0  0  0  0
 30 11  1  0  0  0  0
 31 28  2  0  0  0  0
 32 33  1  0  0  0  0
 32 34  1  0  0  0  0
 35 32  1  0  0  0  0
M  RAD  3   2   2   3   3   4   2
M  END
