Coordinates from ORCA-job 4-MeOPhN2+~TsO-_B3LYPG-6-31G_dp-CH-Scan-d09-49-n800
 OpenBabel11261919303D

 35 35  0  0  0  0  0  0  0  0999 V2000
   -2.5953   -0.4155   -0.6265 C   0  0  0  0  0  0  0  0  0  0  0  0
   -3.8704   -0.9294   -0.7171 N   0  0  0  0  0  0  0  0  0  0  0  0
   -4.9721   -1.1329   -0.8122 N   0  0  0  0  0  0  0  0  0  0  0  0
   -2.3822    0.9303   -0.9970 C   0  0  0  0  0  0  0  0  0  0  0  0
   -1.0857    1.3981   -0.8865 C   0  0  0  0  0  0  0  0  0  0  0  0
   -0.0404    0.5709   -0.4262 C   0  0  0  0  0  0  0  0  0  0  0  0
    1.1725    1.1476   -0.3648 O   0  0  0  0  0  0  0  0  0  0  0  0
    2.2955    0.3852    0.0784 C   0  0  0  0  0  0  0  0  0  0  0  0
   -0.2912   -0.7735   -0.0681 C   0  0  0  0  0  0  0  0  0  0  0  0
   -1.5757   -1.2733   -0.1738 C   0  0  0  0  0  0  0  0  0  0  0  0
   -3.3600    1.6651   -1.4533 H   0  0  0  0  0  0  0  0  0  0  0  0
   -0.8433    2.4195   -1.1603 H   0  0  0  0  0  0  0  0  0  0  0  0
    3.1479    1.0626    0.0289 H   0  0  0  0  0  0  0  0  0  0  0  0
    2.4746   -0.4745   -0.5767 H   0  0  0  0  0  0  0  0  0  0  0  0
    2.1610    0.0435    1.1105 H   0  0  0  0  0  0  0  0  0  0  0  0
    0.5037   -1.4179    0.2835 H   0  0  0  0  0  0  0  0  0  0  0  0
   -1.7980   -2.3011    0.0928 H   0  0  0  0  0  0  0  0  0  0  0  0
   -7.0845    4.0218   -1.4147 C   0  0  0  0  0  0  0  0  0  0  0  0
   -8.1445    4.9227   -1.4589 C   0  0  0  0  0  0  0  0  0  0  0  0
   -9.2834    4.6660   -2.2391 C   0  0  0  0  0  0  0  0  0  0  0  0
   -9.3250    3.4813   -2.9834 C   0  0  0  0  0  0  0  0  0  0  0  0
   -8.2687    2.5689   -2.9494 C   0  0  0  0  0  0  0  0  0  0  0  0
   -7.1534    2.8428   -2.1614 C   0  0  0  0  0  0  0  0  0  0  0  0
   -6.1996    4.2321   -0.8235 H   0  0  0  0  0  0  0  0  0  0  0  0
   -8.0880    5.8440   -0.8836 H   0  0  0  0  0  0  0  0  0  0  0  0
  -10.1941    3.2693   -3.6019 H   0  0  0  0  0  0  0  0  0  0  0  0
   -8.2925    1.6560   -3.5344 H   0  0  0  0  0  0  0  0  0  0  0  0
   -5.8195    1.6457   -2.0756 S   0  0  0  0  0  0  0  0  0  0  0  0
   -5.9667    0.9602   -0.7411 O   0  0  0  0  0  0  0  0  0  0  0  0
   -4.5568    2.4768   -2.0962 O   0  0  0  0  0  0  0  0  0  0  0  0
   -5.9637    0.7318   -3.2264 O   0  0  0  0  0  0  0  0  0  0  0  0
  -10.4328    5.6458   -2.2645 C   0  0  0  0  0  0  0  0  0  0  0  0
  -10.9567    5.6690   -1.3007 H   0  0  0  0  0  0  0  0  0  0  0  0
  -10.0854    6.6656   -2.4643 H   0  0  0  0  0  0  0  0  0  0  0  0
  -11.1651    5.3831   -3.0329 H   0  0  0  0  0  0  0  0  0  0  0  0
  1 10  2  0  0  0  0
  2  1  1  0  0  0  0
  3  2  1  0  0  0  0
  4  5  2  0  0  0  0
  4  1  1  0  0  0  0
  5  6  1  0  0  0  0
  6  7  1  0  0  0  0
  6  9  2  0  0  0  0
  7  8  1  0  0  0  0
  8 15  1  0  0  0  0
  9 16  1  0  0  0  0
 10  9  1  0  0  0  0
 10 17  1  0  0  0  0
 11  4  1  0  0  0  0
 12  5  1  0  0  0  0
 13  8  1  0  0  0  0
 14  8  1  0  0  0  0
 18 24  1  0  0  0  0
 19 18  1  0  0  0  0
 19 25  1  0  0  0  0
 20 19  2  0  0  0  0
 21 22  2  0  0  0  0
 21 20  1  0  0  0  0
 22 23  1  0  0  0  0
 23 28  1  0  0  0  0
 23 18  2  0  0  0  0
 26 21  1  0  0  0  0
 27 22  1  0  0  0  0
 28 29  1  0  0  0  0
 30 28  2  0  0  0  0
 31 28  2  0  0  0  0
 32 20  1  0  0  0  0
 32 33  1  0  0  0  0
 34 32  1  0  0  0  0
 35 32  1  0  0  0  0
M  RAD  3   2   2   3   3  29   2
M  END
