Coordinates from ORCA-job 4-MeOPhN2+~TsO-_B3LYPG-6-31G_dp-CH-Scan-d09-49-n800
 OpenBabel11261919313D

 35 35  0  0  0  0  0  0  0  0999 V2000
   -2.5440   -0.4561   -0.2217 C   0  0  0  0  0  0  0  0  0  0  0  0
   -3.7771   -1.0200    0.0094 N   0  0  0  0  0  0  0  0  0  0  0  0
   -4.7983   -1.4450    0.1793 N   0  0  0  0  0  0  0  0  0  0  0  0
   -2.5315    0.7816   -0.9110 C   0  0  0  0  0  0  0  0  0  0  0  0
   -1.2317    1.2629   -1.0937 C   0  0  0  0  0  0  0  0  0  0  0  0
   -0.0815    0.5905   -0.6440 C   0  0  0  0  0  0  0  0  0  0  0  0
    1.0973    1.1936   -0.9043 O   0  0  0  0  0  0  0  0  0  0  0  0
    2.3144    0.5786   -0.4900 C   0  0  0  0  0  0  0  0  0  0  0  0
   -0.1812   -0.6504    0.0399 C   0  0  0  0  0  0  0  0  0  0  0  0
   -1.4292   -1.1886    0.2575 C   0  0  0  0  0  0  0  0  0  0  0  0
   -3.9292    1.6538   -1.5188 H   0  0  0  0  0  0  0  0  0  0  0  0
   -1.0646    2.2060   -1.6099 H   0  0  0  0  0  0  0  0  0  0  0  0
    3.1099    1.2497   -0.8145 H   0  0  0  0  0  0  0  0  0  0  0  0
    2.4508   -0.3997   -0.9651 H   0  0  0  0  0  0  0  0  0  0  0  0
    2.3562    0.4669    0.5999 H   0  0  0  0  0  0  0  0  0  0  0  0
    0.6991   -1.1749    0.3874 H   0  0  0  0  0  0  0  0  0  0  0  0
   -1.5505   -2.1365    0.7735 H   0  0  0  0  0  0  0  0  0  0  0  0
   -7.7576    3.3019   -0.9111 C   0  0  0  0  0  0  0  0  0  0  0  0
   -8.6928    4.3270   -1.0260 C   0  0  0  0  0  0  0  0  0  0  0  0
   -9.1610    4.7445   -2.2813 C   0  0  0  0  0  0  0  0  0  0  0  0
   -8.6652    4.1055   -3.4253 C   0  0  0  0  0  0  0  0  0  0  0  0
   -7.7289    3.0768   -3.3285 C   0  0  0  0  0  0  0  0  0  0  0  0
   -7.2786    2.6862   -2.0685 C   0  0  0  0  0  0  0  0  0  0  0  0
   -7.4060    2.9701    0.0595 H   0  0  0  0  0  0  0  0  0  0  0  0
   -9.0691    4.8097   -0.1277 H   0  0  0  0  0  0  0  0  0  0  0  0
   -9.0188    4.4148   -4.4053 H   0  0  0  0  0  0  0  0  0  0  0  0
   -7.3538    2.5726   -4.2121 H   0  0  0  0  0  0  0  0  0  0  0  0
   -6.0696    1.3770   -1.9371 S   0  0  0  0  0  0  0  0  0  0  0  0
   -6.2472    0.7070   -0.6343 O   0  0  0  0  0  0  0  0  0  0  0  0
   -4.7325    2.2285   -1.9072 O   0  0  0  0  0  0  0  0  0  0  0  0
   -6.1390    0.5567   -3.1507 O   0  0  0  0  0  0  0  0  0  0  0  0
  -10.1983    5.8363   -2.3904 C   0  0  0  0  0  0  0  0  0  0  0  0
  -11.2033    5.4466   -2.1854 H   0  0  0  0  0  0  0  0  0  0  0  0
  -10.0115    6.6397   -1.6708 H   0  0  0  0  0  0  0  0  0  0  0  0
  -10.2153    6.2740   -3.3923 H   0  0  0  0  0  0  0  0  0  0  0  0
  1  2  1  0  0  0  0
  1 10  2  0  0  0  0
  2  3  1  0  0  0  0
  4  1  1  0  0  0  0
  5  4  2  0  0  0  0
  5  6  1  0  0  0  0
  6  9  2  0  0  0  0
  7  6  1  0  0  0  0
  7  8  1  0  0  0  0
  8 15  1  0  0  0  0
  9 10  1  0  0  0  0
  9 16  1  0  0  0  0
 10 17  1  0  0  0  0
 12  5  1  0  0  0  0
 13  8  1  0  0  0  0
 14  8  1  0  0  0  0
 18 24  1  0  0  0  0
 19 18  1  0  0  0  0
 19 25  1  0  0  0  0
 20 19  2  0  0  0  0
 21 22  2  0  0  0  0
 21 20  1  0  0  0  0
 22 23  1  0  0  0  0
 23 28  1  0  0  0  0
 23 18  2  0  0  0  0
 26 21  1  0  0  0  0
 27 22  1  0  0  0  0
 28 30  1  0  0  0  0
 28 29  2  0  0  0  0
 30 11  1  0  0  0  0
 31 28  2  0  0  0  0
 32 20  1  0  0  0  0
 32 33  1  0  0  0  0
 32 34  1  0  0  0  0
 35 32  1  0  0  0  0
M  RAD  3   2   2   3   3   4   2
M  END
