Coordinates from ORCA-job 4-MeOPhN2+~TsO-_B3LYPG-6-31G_dp-CH-Scan-d09-49-n800
 OpenBabel11261919313D

 35 35  0  0  0  0  0  0  0  0999 V2000
   -2.4542   -0.4384   -0.2032 C   0  0  0  0  0  0  0  0  0  0  0  0
   -3.7063   -0.9612    0.0257 N   0  0  0  0  0  0  0  0  0  0  0  0
   -4.7397   -1.3561    0.1977 N   0  0  0  0  0  0  0  0  0  0  0  0
   -2.4111    0.8189   -0.8550 C   0  0  0  0  0  0  0  0  0  0  0  0
   -1.0926    1.2548   -1.0363 C   0  0  0  0  0  0  0  0  0  0  0  0
    0.0360    0.5272   -0.6215 C   0  0  0  0  0  0  0  0  0  0  0  0
    1.2356    1.0942   -0.8765 O   0  0  0  0  0  0  0  0  0  0  0  0
    2.4320    0.4197   -0.4980 C   0  0  0  0  0  0  0  0  0  0  0  0
   -0.1003   -0.7308    0.0255 C   0  0  0  0  0  0  0  0  0  0  0  0
   -1.3644   -1.2295    0.2421 C   0  0  0  0  0  0  0  0  0  0  0  0
   -3.9875    1.8814   -1.4966 H   0  0  0  0  0  0  0  0  0  0  0  0
   -0.8911    2.2066   -1.5245 H   0  0  0  0  0  0  0  0  0  0  0  0
    3.2497    1.0707   -0.8086 H   0  0  0  0  0  0  0  0  0  0  0  0
    2.5260   -0.5462   -1.0074 H   0  0  0  0  0  0  0  0  0  0  0  0
    2.4819    0.2685    0.5869 H   0  0  0  0  0  0  0  0  0  0  0  0
    0.7643   -1.2969    0.3462 H   0  0  0  0  0  0  0  0  0  0  0  0
   -1.5153   -2.1877    0.7311 H   0  0  0  0  0  0  0  0  0  0  0  0
   -7.8634    3.3563   -0.9083 C   0  0  0  0  0  0  0  0  0  0  0  0
   -8.8346    4.3438   -1.0493 C   0  0  0  0  0  0  0  0  0  0  0  0
   -9.2860    4.7418   -2.3171 C   0  0  0  0  0  0  0  0  0  0  0  0
   -8.7366    4.1222   -3.4473 C   0  0  0  0  0  0  0  0  0  0  0  0
   -7.7635    3.1312   -3.3254 C   0  0  0  0  0  0  0  0  0  0  0  0
   -7.3317    2.7604   -2.0530 C   0  0  0  0  0  0  0  0  0  0  0  0
   -7.5236    3.0395    0.0715 H   0  0  0  0  0  0  0  0  0  0  0  0
   -9.2520    4.8122   -0.1619 H   0  0  0  0  0  0  0  0  0  0  0  0
   -9.0765    4.4171   -4.4365 H   0  0  0  0  0  0  0  0  0  0  0  0
   -7.3459    2.6424   -4.1985 H   0  0  0  0  0  0  0  0  0  0  0  0
   -6.0814    1.4978   -1.8875 S   0  0  0  0  0  0  0  0  0  0  0  0
   -6.2493    0.8293   -0.5867 O   0  0  0  0  0  0  0  0  0  0  0  0
   -4.7784    2.4280   -1.8324 O   0  0  0  0  0  0  0  0  0  0  0  0
   -6.0732    0.6780   -3.1014 O   0  0  0  0  0  0  0  0  0  0  0  0
  -10.3606    5.7934   -2.4539 C   0  0  0  0  0  0  0  0  0  0  0  0
  -11.3543    5.3665   -2.2692 H   0  0  0  0  0  0  0  0  0  0  0  0
  -10.2198    6.6055   -1.7335 H   0  0  0  0  0  0  0  0  0  0  0  0
  -10.3717    6.2270   -3.4575 H   0  0  0  0  0  0  0  0  0  0  0  0
  1  2  1  0  0  0  0
  1 10  2  0  0  0  0
  2  3  1  0  0  0  0
  4  1  1  0  0  0  0
  5  4  2  0  0  0  0
  5  6  1  0  0  0  0
  6  9  2  0  0  0  0
  7  6  1  0  0  0  0
  7  8  1  0  0  0  0
  8 15  1  0  0  0  0
  9 10  1  0  0  0  0
  9 16  1  0  0  0  0
 10 17  1  0  0  0  0
 12  5  1  0  0  0  0
 13  8  1  0  0  0  0
 14  8  1  0  0  0  0
 18 24  1  0  0  0  0
 19 18  1  0  0  0  0
 19 25  1  0  0  0  0
 20 19  2  0  0  0  0
 21 22  2  0  0  0  0
 21 20  1  0  0  0  0
 22 23  1  0  0  0  0
 23 28  1  0  0  0  0
 23 18  2  0  0  0  0
 26 21  1  0  0  0  0
 27 22  1  0  0  0  0
 28 30  1  0  0  0  0
 28 29  2  0  0  0  0
 30 11  1  0  0  0  0
 31 28  2  0  0  0  0
 32 20  1  0  0  0  0
 32 33  1  0  0  0  0
 32 34  1  0  0  0  0
 35 32  1  0  0  0  0
M  RAD  3   2   2   3   3   4   2
M  END
