Coordinates from ORCA-job 4-MeOPhN2+~TsO-_B3LYPG-6-31G_dp-CH-Scan-d09-49-n800
 OpenBabel11261919313D

 35 35  0  0  0  0  0  0  0  0999 V2000
   -2.0174   -0.2591   -0.1102 C   0  0  0  0  0  0  0  0  0  0  0  0
   -3.3632   -0.4939    0.0812 N   0  0  0  0  0  0  0  0  0  0  0  0
   -4.4636   -0.6485    0.2289 N   0  0  0  0  0  0  0  0  0  0  0  0
   -1.7054    1.0349   -0.5911 C   0  0  0  0  0  0  0  0  0  0  0  0
   -0.3129    1.1673   -0.7469 C   0  0  0  0  0  0  0  0  0  0  0  0
    0.6145    0.1523   -0.4655 C   0  0  0  0  0  0  0  0  0  0  0  0
    1.9194    0.4549   -0.6771 O   0  0  0  0  0  0  0  0  0  0  0  0
    2.9193   -0.5258   -0.4292 C   0  0  0  0  0  0  0  0  0  0  0  0
    0.1930   -1.1200    0.0155 C   0  0  0  0  0  0  0  0  0  0  0  0
   -1.1515   -1.3411    0.2014 C   0  0  0  0  0  0  0  0  0  0  0  0
   -4.0929    3.3532   -1.5853 H   0  0  0  0  0  0  0  0  0  0  0  0
    0.1141    2.1025   -1.1108 H   0  0  0  0  0  0  0  0  0  0  0  0
    3.8697   -0.0516   -0.6778 H   0  0  0  0  0  0  0  0  0  0  0  0
    2.7829   -1.4110   -1.0617 H   0  0  0  0  0  0  0  0  0  0  0  0
    2.9345   -0.8308    0.6243 H   0  0  0  0  0  0  0  0  0  0  0  0
    0.9053   -1.9050    0.2352 H   0  0  0  0  0  0  0  0  0  0  0  0
   -1.5223   -2.2953    0.5680 H   0  0  0  0  0  0  0  0  0  0  0  0
   -8.2045    3.6895   -0.9631 C   0  0  0  0  0  0  0  0  0  0  0  0
   -9.4049    4.3699   -1.1433 C   0  0  0  0  0  0  0  0  0  0  0  0
   -9.9240    4.5997   -2.4276 C   0  0  0  0  0  0  0  0  0  0  0  0
   -9.2067    4.1269   -3.5346 C   0  0  0  0  0  0  0  0  0  0  0  0
   -8.0025    3.4427   -3.3754 C   0  0  0  0  0  0  0  0  0  0  0  0
   -7.5119    3.2352   -2.0872 C   0  0  0  0  0  0  0  0  0  0  0  0
   -7.8088    3.5016    0.0289 H   0  0  0  0  0  0  0  0  0  0  0  0
   -9.9507    4.7272   -0.2743 H   0  0  0  0  0  0  0  0  0  0  0  0
   -9.5965    4.2939   -4.5349 H   0  0  0  0  0  0  0  0  0  0  0  0
   -7.4519    3.0668   -4.2304 H   0  0  0  0  0  0  0  0  0  0  0  0
   -5.9764    2.3600   -1.8726 S   0  0  0  0  0  0  0  0  0  0  0  0
   -5.9445    1.7363   -0.5479 O   0  0  0  0  0  0  0  0  0  0  0  0
   -4.9779    3.6603   -1.8550 O   0  0  0  0  0  0  0  0  0  0  0  0
   -5.7012    1.5584   -3.0625 O   0  0  0  0  0  0  0  0  0  0  0  0
  -11.2388    5.3202   -2.6038 C   0  0  0  0  0  0  0  0  0  0  0  0
  -12.0793    4.6774   -2.3157 H   0  0  0  0  0  0  0  0  0  0  0  0
  -11.2887    6.2163   -1.9775 H   0  0  0  0  0  0  0  0  0  0  0  0
  -11.3941    5.6222   -3.6424 H   0  0  0  0  0  0  0  0  0  0  0  0
  1  2  1  0  0  0  0
  1 10  2  0  0  0  0
  2  3  1  0  0  0  0
  4  1  1  0  0  0  0
  5  4  2  0  0  0  0
  5  6  1  0  0  0  0
  6  9  2  0  0  0  0
  7  6  1  0  0  0  0
  7  8  1  0  0  0  0
  8 15  1  0  0  0  0
  9 10  1  0  0  0  0
  9 16  1  0  0  0  0
 10 17  1  0  0  0  0
 12  5  1  0  0  0  0
 13  8  1  0  0  0  0
 14  8  1  0  0  0  0
 18 24  1  0  0  0  0
 19 18  1  0  0  0  0
 19 25  1  0  0  0  0
 20 19  2  0  0  0  0
 21 22  2  0  0  0  0
 21 20  1  0  0  0  0
 22 23  1  0  0  0  0
 23 28  1  0  0  0  0
 23 18  2  0  0  0  0
 26 21  1  0  0  0  0
 27 22  1  0  0  0  0
 28 30  1  0  0  0  0
 28 29  2  0  0  0  0
 30 11  1  0  0  0  0
 31 28  2  0  0  0  0
 32 20  1  0  0  0  0
 32 33  1  0  0  0  0
 32 34  1  0  0  0  0
 35 32  1  0  0  0  0
M  RAD  3   2   2   3   3   4   2
M  END
