Coordinates from ORCA-job 4-MeOPhN2+~TsO-_B3LYPG-6-31G_dp-CH-Scan-d09-49-n800
 OpenBabel11261919313D

 35 35  0  0  0  0  0  0  0  0999 V2000
   -2.5830   -0.4744   -0.2578 C   0  0  0  0  0  0  0  0  0  0  0  0
   -3.8067   -1.0640   -0.0432 N   0  0  0  0  0  0  0  0  0  0  0  0
   -4.8222   -1.5072    0.1119 N   0  0  0  0  0  0  0  0  0  0  0  0
   -2.5787    0.7472   -0.9749 C   0  0  0  0  0  0  0  0  0  0  0  0
   -1.2896    1.2582   -1.1395 C   0  0  0  0  0  0  0  0  0  0  0  0
   -0.1344    0.6247   -0.6471 C   0  0  0  0  0  0  0  0  0  0  0  0
    1.0344    1.2505   -0.8940 O   0  0  0  0  0  0  0  0  0  0  0  0
    2.2564    0.6757   -0.4372 C   0  0  0  0  0  0  0  0  0  0  0  0
   -0.2217   -0.6021    0.0624 C   0  0  0  0  0  0  0  0  0  0  0  0
   -1.4616   -1.1660    0.2629 C   0  0  0  0  0  0  0  0  0  0  0  0
   -3.9027    1.5221   -1.5984 H   0  0  0  0  0  0  0  0  0  0  0  0
   -1.1362    2.1932   -1.6738 H   0  0  0  0  0  0  0  0  0  0  0  0
    3.0426    1.3579   -0.7610 H   0  0  0  0  0  0  0  0  0  0  0  0
    2.4267   -0.3104   -0.8844 H   0  0  0  0  0  0  0  0  0  0  0  0
    2.2752    0.5923    0.6557 H   0  0  0  0  0  0  0  0  0  0  0  0
    0.6620   -1.0972    0.4428 H   0  0  0  0  0  0  0  0  0  0  0  0
   -1.5721   -2.1047    0.7976 H   0  0  0  0  0  0  0  0  0  0  0  0
   -7.6729    3.2881   -0.9217 C   0  0  0  0  0  0  0  0  0  0  0  0
   -8.5830    4.3382   -1.0113 C   0  0  0  0  0  0  0  0  0  0  0  0
   -9.0940    4.7514   -2.2511 C   0  0  0  0  0  0  0  0  0  0  0  0
   -8.6672    4.0819   -3.4055 C   0  0  0  0  0  0  0  0  0  0  0  0
   -7.7572    3.0279   -3.3333 C   0  0  0  0  0  0  0  0  0  0  0  0
   -7.2627    2.6415   -2.0886 C   0  0  0  0  0  0  0  0  0  0  0  0
   -7.2885    2.9599    0.0377 H   0  0  0  0  0  0  0  0  0  0  0  0
   -8.9057    4.8441   -0.1048 H   0  0  0  0  0  0  0  0  0  0  0  0
   -9.0547    4.3873   -4.3738 H   0  0  0  0  0  0  0  0  0  0  0  0
   -7.4363    2.5000   -4.2245 H   0  0  0  0  0  0  0  0  0  0  0  0
   -6.0828    1.3011   -1.9913 S   0  0  0  0  0  0  0  0  0  0  0  0
   -6.2243    0.6576   -0.6685 O   0  0  0  0  0  0  0  0  0  0  0  0
   -4.7223    2.0960   -2.0389 O   0  0  0  0  0  0  0  0  0  0  0  0
   -6.2446    0.4606   -3.1830 O   0  0  0  0  0  0  0  0  0  0  0  0
  -10.1044    5.8706   -2.3322 C   0  0  0  0  0  0  0  0  0  0  0  0
  -11.1119    5.5106   -2.0881 H   0  0  0  0  0  0  0  0  0  0  0  0
   -9.8699    6.6740   -1.6267 H   0  0  0  0  0  0  0  0  0  0  0  0
  -10.1457    6.3009   -3.3366 H   0  0  0  0  0  0  0  0  0  0  0  0
  1  2  1  0  0  0  0
  1 10  2  0  0  0  0
  2  3  1  0  0  0  0
  4  1  1  0  0  0  0
  5  4  2  0  0  0  0
  5  6  1  0  0  0  0
  6  9  2  0  0  0  0
  7  6  1  0  0  0  0
  7  8  1  0  0  0  0
  8 15  1  0  0  0  0
  9 10  1  0  0  0  0
  9 16  1  0  0  0  0
 10 17  1  0  0  0  0
 12  5  1  0  0  0  0
 13  8  1  0  0  0  0
 14  8  1  0  0  0  0
 18 24  1  0  0  0  0
 19 18  1  0  0  0  0
 19 25  1  0  0  0  0
 20 19  2  0  0  0  0
 21 22  2  0  0  0  0
 21 20  1  0  0  0  0
 22 23  1  0  0  0  0
 23 28  1  0  0  0  0
 23 18  2  0  0  0  0
 26 21  1  0  0  0  0
 27 22  1  0  0  0  0
 28 29  2  0  0  0  0
 30 28  1  0  0  0  0
 30 11  1  0  0  0  0
 31 28  2  0  0  0  0
 32 20  1  0  0  0  0
 32 33  1  0  0  0  0
 32 34  1  0  0  0  0
 35 32  1  0  0  0  0
M  RAD  3   2   2   3   3   4   2
M  END
