Coordinates from ORCA-job 4-MeOPhN2+~TsO-_B3LYPG-6-31G_dp-CH-Scan-d09-49-n800
 OpenBabel11261919313D

 35 35  0  0  0  0  0  0  0  0999 V2000
   -2.1304   -0.3105   -0.1083 C   0  0  0  0  0  0  0  0  0  0  0  0
   -3.4531   -0.6283    0.1139 N   0  0  0  0  0  0  0  0  0  0  0  0
   -4.5367   -0.8558    0.2868 N   0  0  0  0  0  0  0  0  0  0  0  0
   -1.9035    0.9802   -0.6435 C   0  0  0  0  0  0  0  0  0  0  0  0
   -0.5268    1.1982   -0.8261 C   0  0  0  0  0  0  0  0  0  0  0  0
    0.4684    0.2572   -0.5178 C   0  0  0  0  0  0  0  0  0  0  0  0
    1.7468    0.6358   -0.7587 O   0  0  0  0  0  0  0  0  0  0  0  0
    2.8134   -0.2641   -0.4805 C   0  0  0  0  0  0  0  0  0  0  0  0
    0.1356   -1.0188    0.0179 C   0  0  0  0  0  0  0  0  0  0  0  0
   -1.1894   -1.3186    0.2313 C   0  0  0  0  0  0  0  0  0  0  0  0
   -4.0711    2.9026   -1.4874 H   0  0  0  0  0  0  0  0  0  0  0  0
   -0.1677    2.1439   -1.2320 H   0  0  0  0  0  0  0  0  0  0  0  0
    3.7272    0.2634   -0.7567 H   0  0  0  0  0  0  0  0  0  0  0  0
    2.7336   -1.1812   -1.0759 H   0  0  0  0  0  0  0  0  0  0  0  0
    2.8553   -0.5237    0.5843 H   0  0  0  0  0  0  0  0  0  0  0  0
    0.8998   -1.7469    0.2581 H   0  0  0  0  0  0  0  0  0  0  0  0
   -1.4925   -2.2799    0.6390 H   0  0  0  0  0  0  0  0  0  0  0  0
   -8.1438    3.5821   -0.9498 C   0  0  0  0  0  0  0  0  0  0  0  0
   -9.2817    4.3626   -1.1295 C   0  0  0  0  0  0  0  0  0  0  0  0
   -9.7637    4.6587   -2.4148 C   0  0  0  0  0  0  0  0  0  0  0  0
   -9.0733    4.1499   -3.5226 C   0  0  0  0  0  0  0  0  0  0  0  0
   -7.9311    3.3662   -3.3635 C   0  0  0  0  0  0  0  0  0  0  0  0
   -7.4757    3.0939   -2.0747 C   0  0  0  0  0  0  0  0  0  0  0  0
   -7.7786    3.3426    0.0427 H   0  0  0  0  0  0  0  0  0  0  0  0
   -9.8078    4.7465   -0.2597 H   0  0  0  0  0  0  0  0  0  0  0  0
   -9.4352    4.3671   -4.5236 H   0  0  0  0  0  0  0  0  0  0  0  0
   -7.4019    2.9625   -4.2193 H   0  0  0  0  0  0  0  0  0  0  0  0
   -6.0209    2.0886   -1.8607 S   0  0  0  0  0  0  0  0  0  0  0  0
   -6.0810    1.4095   -0.5631 O   0  0  0  0  0  0  0  0  0  0  0  0
   -4.9233    3.2941   -1.7647 O   0  0  0  0  0  0  0  0  0  0  0  0
   -5.7860    1.3101   -3.0750 O   0  0  0  0  0  0  0  0  0  0  0  0
  -11.0124    5.4888   -2.5908 C   0  0  0  0  0  0  0  0  0  0  0  0
  -11.9041    4.9234   -2.2948 H   0  0  0  0  0  0  0  0  0  0  0  0
  -10.9827    6.3901   -1.9703 H   0  0  0  0  0  0  0  0  0  0  0  0
  -11.1453    5.7971   -3.6306 H   0  0  0  0  0  0  0  0  0  0  0  0
  1  2  1  0  0  0  0
  1 10  2  0  0  0  0
  2  3  1  0  0  0  0
  4  1  1  0  0  0  0
  5  4  2  0  0  0  0
  5  6  1  0  0  0  0
  6  9  2  0  0  0  0
  7  6  1  0  0  0  0
  7  8  1  0  0  0  0
  8 15  1  0  0  0  0
  9 10  1  0  0  0  0
  9 16  1  0  0  0  0
 10 17  1  0  0  0  0
 12  5  1  0  0  0  0
 13  8  1  0  0  0  0
 14  8  1  0  0  0  0
 18 24  1  0  0  0  0
 19 18  1  0  0  0  0
 19 25  1  0  0  0  0
 20 19  2  0  0  0  0
 21 22  2  0  0  0  0
 21 20  1  0  0  0  0
 22 23  1  0  0  0  0
 23 28  1  0  0  0  0
 23 18  2  0  0  0  0
 26 21  1  0  0  0  0
 27 22  1  0  0  0  0
 28 30  1  0  0  0  0
 28 29  2  0  0  0  0
 30 11  1  0  0  0  0
 31 28  2  0  0  0  0
 32 20  1  0  0  0  0
 32 33  1  0  0  0  0
 32 34  1  0  0  0  0
 35 32  1  0  0  0  0
M  RAD  3   2   2   3   3   4   2
M  END
