Coordinates from ORCA-job 4-MeOPhN2+~TsO-_B3LYPG-6-31G_dp-CH-Scan-d09-49-n800
 OpenBabel11261919313D

 35 35  0  0  0  0  0  0  0  0999 V2000
   -2.2712   -0.3837   -0.1696 C   0  0  0  0  0  0  0  0  0  0  0  0
   -3.5641   -0.8056    0.0464 N   0  0  0  0  0  0  0  0  0  0  0  0
   -4.6261   -1.1219    0.2113 N   0  0  0  0  0  0  0  0  0  0  0  0
   -2.1357    0.8891   -0.7755 C   0  0  0  0  0  0  0  0  0  0  0  0
   -0.7821    1.2185   -0.9459 C   0  0  0  0  0  0  0  0  0  0  0  0
    0.2830    0.3867   -0.5632 C   0  0  0  0  0  0  0  0  0  0  0  0
    1.5276    0.8616   -0.8019 O   0  0  0  0  0  0  0  0  0  0  0  0
    2.6627    0.0782   -0.4490 C   0  0  0  0  0  0  0  0  0  0  0  0
    0.0470   -0.8801    0.0394 C   0  0  0  0  0  0  0  0  0  0  0  0
   -1.2525   -1.2817    0.2445 C   0  0  0  0  0  0  0  0  0  0  0  0
   -4.0524    2.3589   -1.5517 H   0  0  0  0  0  0  0  0  0  0  0  0
   -0.4989    2.1675   -1.3994 H   0  0  0  0  0  0  0  0  0  0  0  0
    3.5325    0.6701   -0.7361 H   0  0  0  0  0  0  0  0  0  0  0  0
    2.6794   -0.8737   -0.9922 H   0  0  0  0  0  0  0  0  0  0  0  0
    2.6986   -0.1161    0.6298 H   0  0  0  0  0  0  0  0  0  0  0  0
    0.8641   -1.5248    0.3357 H   0  0  0  0  0  0  0  0  0  0  0  0
   -1.4807   -2.2413    0.7009 H   0  0  0  0  0  0  0  0  0  0  0  0
   -8.0132    3.4760   -0.9381 C   0  0  0  0  0  0  0  0  0  0  0  0
   -9.0645    4.3755   -1.0883 C   0  0  0  0  0  0  0  0  0  0  0  0
   -9.5472    4.7223   -2.3601 C   0  0  0  0  0  0  0  0  0  0  0  0
   -8.9472    4.1413   -3.4850 C   0  0  0  0  0  0  0  0  0  0  0  0
   -7.8928    3.2383   -3.3550 C   0  0  0  0  0  0  0  0  0  0  0  0
   -7.4328    2.9183   -2.0788 C   0  0  0  0  0  0  0  0  0  0  0  0
   -7.6482    3.1986    0.0446 H   0  0  0  0  0  0  0  0  0  0  0  0
   -9.5209    4.8147   -0.2052 H   0  0  0  0  0  0  0  0  0  0  0  0
   -9.3105    4.3972   -4.4765 H   0  0  0  0  0  0  0  0  0  0  0  0
   -7.4345    2.7797   -4.2239 H   0  0  0  0  0  0  0  0  0  0  0  0
   -6.0848    1.7658   -1.9013 S   0  0  0  0  0  0  0  0  0  0  0  0
   -6.1832    1.1004   -0.5963 O   0  0  0  0  0  0  0  0  0  0  0  0
   -4.8648    2.8335   -1.8496 O   0  0  0  0  0  0  0  0  0  0  0  0
   -5.9836    0.9534   -3.1131 O   0  0  0  0  0  0  0  0  0  0  0  0
  -10.7042    5.6814   -2.5043 C   0  0  0  0  0  0  0  0  0  0  0  0
  -11.6536    5.1914   -2.2560 H   0  0  0  0  0  0  0  0  0  0  0  0
  -10.5986    6.5380   -1.8310 H   0  0  0  0  0  0  0  0  0  0  0  0
  -10.7862    6.0602   -3.5262 H   0  0  0  0  0  0  0  0  0  0  0  0
  1  2  1  0  0  0  0
  1 10  2  0  0  0  0
  2  3  1  0  0  0  0
  4  1  1  0  0  0  0
  5  4  2  0  0  0  0
  5  6  1  0  0  0  0
  6  9  2  0  0  0  0
  7  6  1  0  0  0  0
  7  8  1  0  0  0  0
  8 15  1  0  0  0  0
  9 10  1  0  0  0  0
  9 16  1  0  0  0  0
 10 17  1  0  0  0  0
 12  5  1  0  0  0  0
 13  8  1  0  0  0  0
 14  8  1  0  0  0  0
 18 24  1  0  0  0  0
 19 18  1  0  0  0  0
 19 25  1  0  0  0  0
 20 19  2  0  0  0  0
 21 22  2  0  0  0  0
 21 20  1  0  0  0  0
 22 23  1  0  0  0  0
 23 28  1  0  0  0  0
 23 18  2  0  0  0  0
 26 21  1  0  0  0  0
 27 22  1  0  0  0  0
 28 30  1  0  0  0  0
 28 29  2  0  0  0  0
 30 11  1  0  0  0  0
 31 28  2  0  0  0  0
 32 20  1  0  0  0  0
 32 33  1  0  0  0  0
 32 34  1  0  0  0  0
 35 32  1  0  0  0  0
M  RAD  3   2   2   3   3   4   2
M  END
