Coordinates from ORCA-job 4-MeOPhN2+~TsO-_B3LYPG-6-31G_dp-CH-Scan-d09-49-n800
 OpenBabel11261919303D

 35 35  0  0  0  0  0  0  0  0999 V2000
   -2.7642   -0.0943   -0.3891 C   0  0  0  0  0  0  0  0  0  0  0  0
   -4.1231   -0.3692   -0.4172 N   0  0  0  0  0  0  0  0  0  0  0  0
   -5.2208   -0.0513   -0.4386 N   0  0  0  0  0  0  0  0  0  0  0  0
   -2.2988    1.2374   -0.3216 C   0  0  0  0  0  0  0  0  0  0  0  0
   -0.9343    1.4436   -0.3006 C   0  0  0  0  0  0  0  0  0  0  0  0
   -0.0345    0.3583   -0.3465 C   0  0  0  0  0  0  0  0  0  0  0  0
    1.2699    0.6880   -0.3204 O   0  0  0  0  0  0  0  0  0  0  0  0
    2.2531   -0.3439   -0.3791 C   0  0  0  0  0  0  0  0  0  0  0  0
   -0.5176   -0.9627   -0.4138 C   0  0  0  0  0  0  0  0  0  0  0  0
   -1.8860   -1.1849   -0.4343 C   0  0  0  0  0  0  0  0  0  0  0  0
   -2.9712    2.0307   -0.2956 H   0  0  0  0  0  0  0  0  0  0  0  0
   -0.5299    2.4488   -0.2566 H   0  0  0  0  0  0  0  0  0  0  0  0
    3.2162    0.1648   -0.3475 H   0  0  0  0  0  0  0  0  0  0  0  0
    2.1735   -0.9155   -1.3108 H   0  0  0  0  0  0  0  0  0  0  0  0
    2.1705   -1.0213    0.4789 H   0  0  0  0  0  0  0  0  0  0  0  0
    0.1593   -1.8062   -0.4517 H   0  0  0  0  0  0  0  0  0  0  0  0
   -2.2836   -2.1925   -0.4892 H   0  0  0  0  0  0  0  0  0  0  0  0
   -7.1627    4.5962   -1.6086 C   0  0  0  0  0  0  0  0  0  0  0  0
   -8.4431    5.1093   -1.8074 C   0  0  0  0  0  0  0  0  0  0  0  0
   -9.4436    4.3443   -2.4241 C   0  0  0  0  0  0  0  0  0  0  0  0
   -9.1226    3.0478   -2.8497 C   0  0  0  0  0  0  0  0  0  0  0  0
   -7.8462    2.5210   -2.6571 C   0  0  0  0  0  0  0  0  0  0  0  0
   -6.8716    3.2984   -2.0311 C   0  0  0  0  0  0  0  0  0  0  0  0
   -6.3838    5.1956   -1.1498 H   0  0  0  0  0  0  0  0  0  0  0  0
   -8.6681    6.1231   -1.4858 H   0  0  0  0  0  0  0  0  0  0  0  0
   -9.8805    2.4449   -3.3442 H   0  0  0  0  0  0  0  0  0  0  0  0
   -7.5932    1.5253   -3.0043 H   0  0  0  0  0  0  0  0  0  0  0  0
   -5.2352    2.6178   -1.7458 S   0  0  0  0  0  0  0  0  0  0  0  0
   -5.3103    1.9913   -0.3321 O   0  0  0  0  0  0  0  0  0  0  0  0
   -4.2917    3.7532   -1.7215 O   0  0  0  0  0  0  0  0  0  0  0  0
   -5.0105    1.5649   -2.7594 O   0  0  0  0  0  0  0  0  0  0  0  0
  -10.8366    4.8979   -2.6092 C   0  0  0  0  0  0  0  0  0  0  0  0
  -11.4626    4.6965   -1.7300 H   0  0  0  0  0  0  0  0  0  0  0  0
  -10.8206    5.9827   -2.7538 H   0  0  0  0  0  0  0  0  0  0  0  0
  -11.3351    4.4473   -3.4725 H   0  0  0  0  0  0  0  0  0  0  0  0
  1  4  2  0  0  0  0
  2  1  1  0  0  0  0
  3  2  2  0  0  0  0
  4  5  1  0  0  0  0
  4 11  1  0  0  0  0
  5 12  1  0  0  0  0
  6  7  1  0  0  0  0
  6  5  2  0  0  0  0
  8 13  1  0  0  0  0
  8  7  1  0  0  0  0
  8 15  1  0  0  0  0
  9  6  1  0  0  0  0
 10  9  2  0  0  0  0
 10  1  1  0  0  0  0
 14  8  1  0  0  0  0
 16  9  1  0  0  0  0
 17 10  1  0  0  0  0
 18 24  1  0  0  0  0
 19 18  1  0  0  0  0
 19 25  1  0  0  0  0
 20 19  2  0  0  0  0
 21 22  2  0  0  0  0
 21 20  1  0  0  0  0
 22 23  1  0  0  0  0
 23 28  1  0  0  0  0
 23 18  2  0  0  0  0
 26 21  1  0  0  0  0
 27 22  1  0  0  0  0
 28 30  2  0  0  0  0
 28 29  1  0  0  0  0
 31 28  2  0  0  0  0
 32 20  1  0  0  0  0
 32 33  1  0  0  0  0
 34 32  1  0  0  0  0
 35 32  1  0  0  0  0
M  RAD  2   3   2  29   2
M  END
