Coordinates from ORCA-job 4-MeOPhN2+~TsO-_B3LYPG-6-31G_dp-CH-Scan-d09-49-n800
 OpenBabel11261919313D

 35 35  0  0  0  0  0  0  0  0999 V2000
   -1.8001   -0.2300   -0.1929 C   0  0  0  0  0  0  0  0  0  0  0  0
   -3.1716   -0.3741   -0.1271 N   0  0  0  0  0  0  0  0  0  0  0  0
   -4.2897   -0.4467   -0.0803 N   0  0  0  0  0  0  0  0  0  0  0  0
   -1.3708    1.0604   -0.5830 C   0  0  0  0  0  0  0  0  0  0  0  0
    0.0370    1.1023   -0.6196 C   0  0  0  0  0  0  0  0  0  0  0  0
    0.8698    0.0150   -0.3159 C   0  0  0  0  0  0  0  0  0  0  0  0
    2.2055    0.2349   -0.4104 O   0  0  0  0  0  0  0  0  0  0  0  0
    3.1150   -0.8214   -0.1314 C   0  0  0  0  0  0  0  0  0  0  0  0
    0.3289   -1.2455    0.0692 C   0  0  0  0  0  0  0  0  0  0  0  0
   -1.0377   -1.3828    0.1359 C   0  0  0  0  0  0  0  0  0  0  0  0
   -4.2347    3.7621   -1.9235 H   0  0  0  0  0  0  0  0  0  0  0  0
    0.5530    2.0212   -0.9019 H   0  0  0  0  0  0  0  0  0  0  0  0
    4.1117   -0.4054   -0.2857 H   0  0  0  0  0  0  0  0  0  0  0  0
    2.9710   -1.6701   -0.8110 H   0  0  0  0  0  0  0  0  0  0  0  0
    3.0278   -1.1682    0.9057 H   0  0  0  0  0  0  0  0  0  0  0  0
    0.9691   -2.0853    0.3075 H   0  0  0  0  0  0  0  0  0  0  0  0
   -1.4985   -2.3243    0.4262 H   0  0  0  0  0  0  0  0  0  0  0  0
   -8.2312    3.8393   -1.0695 C   0  0  0  0  0  0  0  0  0  0  0  0
   -9.4850    4.4384   -1.1360 C   0  0  0  0  0  0  0  0  0  0  0  0
  -10.1561    4.5856   -2.3610 C   0  0  0  0  0  0  0  0  0  0  0  0
   -9.5366    4.1126   -3.5252 C   0  0  0  0  0  0  0  0  0  0  0  0
   -8.2805    3.5091   -3.4802 C   0  0  0  0  0  0  0  0  0  0  0  0
   -7.6387    3.3833   -2.2492 C   0  0  0  0  0  0  0  0  0  0  0  0
   -7.7185    3.7154   -0.1219 H   0  0  0  0  0  0  0  0  0  0  0  0
   -9.9533    4.7968   -0.2233 H   0  0  0  0  0  0  0  0  0  0  0  0
  -10.0441    4.2153   -4.4803 H   0  0  0  0  0  0  0  0  0  0  0  0
   -7.8043    3.1335   -4.3788 H   0  0  0  0  0  0  0  0  0  0  0  0
   -6.0339    2.6170   -2.1787 S   0  0  0  0  0  0  0  0  0  0  0  0
   -5.8175    2.0261   -0.8565 O   0  0  0  0  0  0  0  0  0  0  0  0
   -5.1186    3.9796   -2.2689 O   0  0  0  0  0  0  0  0  0  0  0  0
   -5.8237    1.8204   -3.3837 O   0  0  0  0  0  0  0  0  0  0  0  0
  -11.5247    5.2210   -2.4115 C   0  0  0  0  0  0  0  0  0  0  0  0
  -12.2836    4.5504   -1.9911 H   0  0  0  0  0  0  0  0  0  0  0  0
  -11.5546    6.1470   -1.8289 H   0  0  0  0  0  0  0  0  0  0  0  0
  -11.8204    5.4544   -3.4372 H   0  0  0  0  0  0  0  0  0  0  0  0
  1  2  1  0  0  0  0
  1 10  2  0  0  0  0
  2  3  1  0  0  0  0
  4  1  1  0  0  0  0
  5  4  2  0  0  0  0
  5  6  1  0  0  0  0
  6  9  2  0  0  0  0
  7  6  1  0  0  0  0
  7  8  1  0  0  0  0
  8 15  1  0  0  0  0
  9 10  1  0  0  0  0
  9 16  1  0  0  0  0
 10 17  1  0  0  0  0
 12  5  1  0  0  0  0
 13  8  1  0  0  0  0
 14  8  1  0  0  0  0
 18 24  1  0  0  0  0
 19 18  1  0  0  0  0
 19 25  1  0  0  0  0
 20 19  2  0  0  0  0
 21 22  2  0  0  0  0
 21 20  1  0  0  0  0
 22 23  1  0  0  0  0
 23 28  1  0  0  0  0
 23 18  2  0  0  0  0
 26 21  1  0  0  0  0
 27 22  1  0  0  0  0
 28 29  2  0  0  0  0
 30 28  1  0  0  0  0
 30 11  1  0  0  0  0
 31 28  2  0  0  0  0
 32 20  1  0  0  0  0
 32 33  1  0  0  0  0
 32 34  1  0  0  0  0
 35 32  1  0  0  0  0
M  RAD  3   2   2   3   3   4   2
M  END
