Coordinates from ORCA-job 4-MeOPhN2+~TsO-_B3LYPG-6-31G_dp-CH-Scan-d09-49-n800
 OpenBabel11261919313D

 35 35  0  0  0  0  0  0  0  0999 V2000
   -1.5355   -0.2851   -0.5770 C   0  0  0  0  0  0  0  0  0  0  0  0
   -2.8889   -0.4211   -0.8158 N   0  0  0  0  0  0  0  0  0  0  0  0
   -3.9885   -0.4841   -1.0291 N   0  0  0  0  0  0  0  0  0  0  0  0
   -1.0104    0.9712   -0.9588 C   0  0  0  0  0  0  0  0  0  0  0  0
    0.3704    1.0122   -0.6800 C   0  0  0  0  0  0  0  0  0  0  0  0
    1.0944   -0.0452   -0.1094 C   0  0  0  0  0  0  0  0  0  0  0  0
    2.4197    0.1698    0.0880 O   0  0  0  0  0  0  0  0  0  0  0  0
    3.2228   -0.8543    0.6609 C   0  0  0  0  0  0  0  0  0  0  0  0
    0.4605   -1.2731    0.2387 C   0  0  0  0  0  0  0  0  0  0  0  0
   -0.8875   -1.4084    0.0032 C   0  0  0  0  0  0  0  0  0  0  0  0
   -4.4995    3.7081   -2.9105 H   0  0  0  0  0  0  0  0  0  0  0  0
    0.9517    1.9070   -0.9085 H   0  0  0  0  0  0  0  0  0  0  0  0
    4.2327   -0.4453    0.7157 H   0  0  0  0  0  0  0  0  0  0  0  0
    3.2339   -1.7572    0.0381 H   0  0  0  0  0  0  0  0  0  0  0  0
    2.8862   -1.1156    1.6715 H   0  0  0  0  0  0  0  0  0  0  0  0
    1.0177   -2.0901    0.6792 H   0  0  0  0  0  0  0  0  0  0  0  0
   -1.4168   -2.3257    0.2511 H   0  0  0  0  0  0  0  0  0  0  0  0
   -8.0968    3.9115   -1.3074 C   0  0  0  0  0  0  0  0  0  0  0  0
   -9.3058    4.5622   -1.0794 C   0  0  0  0  0  0  0  0  0  0  0  0
  -10.2676    4.6849   -2.0947 C   0  0  0  0  0  0  0  0  0  0  0  0
   -9.9872    4.1348   -3.3530 C   0  0  0  0  0  0  0  0  0  0  0  0
   -8.7831    3.4784   -3.6018 C   0  0  0  0  0  0  0  0  0  0  0  0
   -7.8466    3.3780   -2.5734 C   0  0  0  0  0  0  0  0  0  0  0  0
   -7.3596    3.8065   -0.5187 H   0  0  0  0  0  0  0  0  0  0  0  0
   -9.5078    4.9811   -0.0972 H   0  0  0  0  0  0  0  0  0  0  0  0
  -10.7218    4.2192   -4.1495 H   0  0  0  0  0  0  0  0  0  0  0  0
   -8.5701    3.0433   -4.5718 H   0  0  0  0  0  0  0  0  0  0  0  0
   -6.3000    2.5515   -2.8815 S   0  0  0  0  0  0  0  0  0  0  0  0
   -5.7470    2.0376   -1.6263 O   0  0  0  0  0  0  0  0  0  0  0  0
   -5.3763    3.8450   -3.3096 O   0  0  0  0  0  0  0  0  0  0  0  0
   -6.4482    1.6854   -4.0448 O   0  0  0  0  0  0  0  0  0  0  0  0
  -11.5849    5.3704   -1.8240 C   0  0  0  0  0  0  0  0  0  0  0  0
  -12.2852    4.6883   -1.3256 H   0  0  0  0  0  0  0  0  0  0  0  0
  -11.4561    6.2376   -1.1693 H   0  0  0  0  0  0  0  0  0  0  0  0
  -12.0583    5.7085   -2.7494 H   0  0  0  0  0  0  0  0  0  0  0  0
  1 10  2  0  0  0  0
  2  1  1  0  0  0  0
  3  2  1  0  0  0  0
  4  5  2  0  0  0  0
  4  1  1  0  0  0  0
  5  6  1  0  0  0  0
  6  7  1  0  0  0  0
  6  9  2  0  0  0  0
  7  8  1  0  0  0  0
  8 13  1  0  0  0  0
  8 15  1  0  0  0  0
  9 16  1  0  0  0  0
 10  9  1  0  0  0  0
 10 17  1  0  0  0  0
 12  5  1  0  0  0  0
 14  8  1  0  0  0  0
 18 19  1  0  0  0  0
 18 24  1  0  0  0  0
 19 25  1  0  0  0  0
 20 32  1  0  0  0  0
 20 19  2  0  0  0  0
 21 20  1  0  0  0  0
 22 21  2  0  0  0  0
 22 23  1  0  0  0  0
 23 18  2  0  0  0  0
 26 21  1  0  0  0  0
 27 22  1  0  0  0  0
 28 23  1  0  0  0  0
 28 29  2  0  0  0  0
 30 11  1  0  0  0  0
 30 28  1  0  0  0  0
 31 28  2  0  0  0  0
 32 33  1  0  0  0  0
 32 34  1  0  0  0  0
 35 32  1  0  0  0  0
M  RAD  3   2   2   3   3   4   2
M  END
