Coordinates from ORCA-job 4-MeOPhN2+~TsO-_B3LYPG-6-31G_dp-CH-Scan-d09-49-n800
 OpenBabel11261919313D

 35 35  0  0  0  0  0  0  0  0999 V2000
   -1.9610   -0.2436   -0.1202 C   0  0  0  0  0  0  0  0  0  0  0  0
   -3.3160   -0.4449    0.0474 N   0  0  0  0  0  0  0  0  0  0  0  0
   -4.4228   -0.5695    0.1750 N   0  0  0  0  0  0  0  0  0  0  0  0
   -1.6122    1.0487   -0.5793 C   0  0  0  0  0  0  0  0  0  0  0  0
   -0.2141    1.1477   -0.7139 C   0  0  0  0  0  0  0  0  0  0  0  0
    0.6836    0.1062   -0.4341 C   0  0  0  0  0  0  0  0  0  0  0  0
    1.9987    0.3782   -0.6250 O   0  0  0  0  0  0  0  0  0  0  0  0
    2.9700   -0.6305   -0.3779 C   0  0  0  0  0  0  0  0  0  0  0  0
    0.2242   -1.1614    0.0248 C   0  0  0  0  0  0  0  0  0  0  0  0
   -1.1278   -1.3515    0.1896 C   0  0  0  0  0  0  0  0  0  0  0  0
   -4.1181    3.5245   -1.6559 H   0  0  0  0  0  0  0  0  0  0  0  0
    0.2413    2.0766   -1.0595 H   0  0  0  0  0  0  0  0  0  0  0  0
    3.9352   -0.1780   -0.6097 H   0  0  0  0  0  0  0  0  0  0  0  0
    2.8188   -1.5043   -1.0229 H   0  0  0  0  0  0  0  0  0  0  0  0
    2.9653   -0.9488    0.6717 H   0  0  0  0  0  0  0  0  0  0  0  0
    0.9139   -1.9665    0.2439 H   0  0  0  0  0  0  0  0  0  0  0  0
   -1.5272   -2.3007    0.5389 H   0  0  0  0  0  0  0  0  0  0  0  0
   -8.2205    3.7394   -0.9805 C   0  0  0  0  0  0  0  0  0  0  0  0
   -9.4437    4.3821   -1.1451 C   0  0  0  0  0  0  0  0  0  0  0  0
   -9.9939    4.5810   -2.4217 C   0  0  0  0  0  0  0  0  0  0  0  0
   -9.2843    4.1160   -3.5370 C   0  0  0  0  0  0  0  0  0  0  0  0
   -8.0575    3.4697   -3.3935 C   0  0  0  0  0  0  0  0  0  0  0  0
   -7.5363    3.2924   -2.1127 C   0  0  0  0  0  0  0  0  0  0  0  0
   -7.8007    3.5755    0.0059 H   0  0  0  0  0  0  0  0  0  0  0  0
   -9.9830    4.7338   -0.2699 H   0  0  0  0  0  0  0  0  0  0  0  0
   -9.6978    4.2594   -4.5313 H   0  0  0  0  0  0  0  0  0  0  0  0
   -7.5122    3.1001   -4.2546 H   0  0  0  0  0  0  0  0  0  0  0  0
   -5.9713    2.4671   -1.9178 S   0  0  0  0  0  0  0  0  0  0  0  0
   -5.8947    1.8569   -0.5889 O   0  0  0  0  0  0  0  0  0  0  0  0
   -5.0127    3.7994   -1.9264 O   0  0  0  0  0  0  0  0  0  0  0  0
   -5.6897    1.6667   -3.1067 O   0  0  0  0  0  0  0  0  0  0  0  0
  -11.3324    5.2607   -2.5806 C   0  0  0  0  0  0  0  0  0  0  0  0
  -12.1489    4.5923   -2.2820 H   0  0  0  0  0  0  0  0  0  0  0  0
  -11.4014    6.1548   -1.9534 H   0  0  0  0  0  0  0  0  0  0  0  0
  -11.5105    5.5574   -3.6172 H   0  0  0  0  0  0  0  0  0  0  0  0
  1  2  1  0  0  0  0
  1 10  2  0  0  0  0
  2  3  1  0  0  0  0
  4  1  1  0  0  0  0
  5  4  2  0  0  0  0
  5  6  1  0  0  0  0
  6  9  2  0  0  0  0
  7  6  1  0  0  0  0
  7  8  1  0  0  0  0
  8 15  1  0  0  0  0
  9 10  1  0  0  0  0
  9 16  1  0  0  0  0
 10 17  1  0  0  0  0
 12  5  1  0  0  0  0
 13  8  1  0  0  0  0
 14  8  1  0  0  0  0
 18 24  1  0  0  0  0
 19 18  1  0  0  0  0
 19 25  1  0  0  0  0
 20 19  2  0  0  0  0
 21 22  2  0  0  0  0
 21 20  1  0  0  0  0
 22 23  1  0  0  0  0
 23 28  1  0  0  0  0
 23 18  2  0  0  0  0
 26 21  1  0  0  0  0
 27 22  1  0  0  0  0
 28 29  2  0  0  0  0
 30 28  1  0  0  0  0
 30 11  1  0  0  0  0
 31 28  2  0  0  0  0
 32 20  1  0  0  0  0
 32 33  1  0  0  0  0
 32 34  1  0  0  0  0
 35 32  1  0  0  0  0
M  RAD  3   2   2   3   3   4   2
M  END
