Coordinates from ORCA-job 4-MeOPhN2+~TsO-_B3LYPG-6-31G_dp-CH-Scan-d09-49-n800
 OpenBabel11261919313D

 35 35  0  0  0  0  0  0  0  0999 V2000
   -1.8501   -0.2268   -0.1557 C   0  0  0  0  0  0  0  0  0  0  0  0
   -3.2177   -0.3815   -0.0492 N   0  0  0  0  0  0  0  0  0  0  0  0
   -4.3333   -0.4643    0.0286 N   0  0  0  0  0  0  0  0  0  0  0  0
   -1.4414    1.0640   -0.5664 C   0  0  0  0  0  0  0  0  0  0  0  0
   -0.0358    1.1163   -0.6438 C   0  0  0  0  0  0  0  0  0  0  0  0
    0.8137    0.0371   -0.3574 C   0  0  0  0  0  0  0  0  0  0  0  0
    2.1443    0.2665   -0.4919 O   0  0  0  0  0  0  0  0  0  0  0  0
    3.0696   -0.7816   -0.2341 C   0  0  0  0  0  0  0  0  0  0  0  0
    0.2937   -1.2247    0.0511 C   0  0  0  0  0  0  0  0  0  0  0  0
   -1.0695   -1.3714    0.1582 C   0  0  0  0  0  0  0  0  0  0  0  0
   -4.1962    3.7300   -1.8058 H   0  0  0  0  0  0  0  0  0  0  0  0
    0.4648    2.0370   -0.9468 H   0  0  0  0  0  0  0  0  0  0  0  0
    4.0581   -0.3591   -0.4200 H   0  0  0  0  0  0  0  0  0  0  0  0
    2.9119   -1.6350   -0.9047 H   0  0  0  0  0  0  0  0  0  0  0  0
    3.0155   -1.1233    0.8069 H   0  0  0  0  0  0  0  0  0  0  0  0
    0.9466   -2.0583    0.2762 H   0  0  0  0  0  0  0  0  0  0  0  0
   -1.5146   -2.3143    0.4678 H   0  0  0  0  0  0  0  0  0  0  0  0
   -8.2347    3.8163   -1.0358 C   0  0  0  0  0  0  0  0  0  0  0  0
   -9.4845    4.4182   -1.1432 C   0  0  0  0  0  0  0  0  0  0  0  0
  -10.1113    4.5740   -2.3903 C   0  0  0  0  0  0  0  0  0  0  0  0
   -9.4514    4.1070   -3.5347 C   0  0  0  0  0  0  0  0  0  0  0  0
   -8.1987    3.5011   -3.4487 C   0  0  0  0  0  0  0  0  0  0  0  0
   -7.6013    3.3666   -2.1964 C   0  0  0  0  0  0  0  0  0  0  0  0
   -7.7560    3.6858   -0.0715 H   0  0  0  0  0  0  0  0  0  0  0  0
   -9.9844    4.7719   -0.2457 H   0  0  0  0  0  0  0  0  0  0  0  0
   -9.9244    4.2167   -4.5066 H   0  0  0  0  0  0  0  0  0  0  0  0
   -7.6914    3.1302   -4.3321 H   0  0  0  0  0  0  0  0  0  0  0  0
   -6.0018    2.5959   -2.0739 S   0  0  0  0  0  0  0  0  0  0  0  0
   -5.8332    2.0010   -0.7466 O   0  0  0  0  0  0  0  0  0  0  0  0
   -5.0843    3.9581   -2.1331 O   0  0  0  0  0  0  0  0  0  0  0  0
   -5.7528    1.7996   -3.2721 O   0  0  0  0  0  0  0  0  0  0  0  0
  -11.4765    5.2113   -2.4859 C   0  0  0  0  0  0  0  0  0  0  0  0
  -12.2528    4.5319   -2.1139 H   0  0  0  0  0  0  0  0  0  0  0  0
  -11.5317    6.1241   -1.8848 H   0  0  0  0  0  0  0  0  0  0  0  0
  -11.7279    5.4673   -3.5180 H   0  0  0  0  0  0  0  0  0  0  0  0
  1  2  1  0  0  0  0
  1 10  2  0  0  0  0
  2  3  1  0  0  0  0
  4  1  1  0  0  0  0
  5  4  2  0  0  0  0
  5  6  1  0  0  0  0
  6  9  2  0  0  0  0
  7  6  1  0  0  0  0
  7  8  1  0  0  0  0
  8 15  1  0  0  0  0
  9 10  1  0  0  0  0
  9 16  1  0  0  0  0
 10 17  1  0  0  0  0
 12  5  1  0  0  0  0
 13  8  1  0  0  0  0
 14  8  1  0  0  0  0
 18 24  1  0  0  0  0
 19 18  1  0  0  0  0
 19 25  1  0  0  0  0
 20 19  2  0  0  0  0
 21 22  2  0  0  0  0
 21 20  1  0  0  0  0
 22 23  1  0  0  0  0
 23 28  1  0  0  0  0
 23 18  2  0  0  0  0
 26 21  1  0  0  0  0
 27 22  1  0  0  0  0
 28 29  2  0  0  0  0
 30 28  1  0  0  0  0
 30 11  1  0  0  0  0
 31 28  2  0  0  0  0
 32 20  1  0  0  0  0
 32 33  1  0  0  0  0
 32 34  1  0  0  0  0
 35 32  1  0  0  0  0
M  RAD  3   2   2   3   3   4   2
M  END
