Coordinates from ORCA-job 4-MeOPhN2+~TsO-_B3LYPG-6-31G_dp-CH-Scan-d09-49-n800
 OpenBabel11261919313D

 35 35  0  0  0  0  0  0  0  0999 V2000
   -2.1137   -0.3018   -0.1062 C   0  0  0  0  0  0  0  0  0  0  0  0
   -3.4399   -0.6069    0.1133 N   0  0  0  0  0  0  0  0  0  0  0  0
   -4.5263   -0.8232    0.2836 N   0  0  0  0  0  0  0  0  0  0  0  0
   -1.8743    0.9901   -0.6332 C   0  0  0  0  0  0  0  0  0  0  0  0
   -0.4949    1.1947   -0.8133 C   0  0  0  0  0  0  0  0  0  0  0  0
    0.4904    0.2418   -0.5105 C   0  0  0  0  0  0  0  0  0  0  0  0
    1.7730    0.6088   -0.7483 O   0  0  0  0  0  0  0  0  0  0  0  0
    2.8298   -0.3045   -0.4767 C   0  0  0  0  0  0  0  0  0  0  0  0
    0.1445   -1.0343    0.0169 C   0  0  0  0  0  0  0  0  0  0  0  0
   -1.1836   -1.3220    0.2277 C   0  0  0  0  0  0  0  0  0  0  0  0
   -4.0728    2.9703   -1.4986 H   0  0  0  0  0  0  0  0  0  0  0  0
   -0.1256    2.1392   -1.2131 H   0  0  0  0  0  0  0  0  0  0  0  0
    3.7492    0.2149   -0.7496 H   0  0  0  0  0  0  0  0  0  0  0  0
    2.7398   -1.2166   -1.0782 H   0  0  0  0  0  0  0  0  0  0  0  0
    2.8694   -0.5719    0.5863 H   0  0  0  0  0  0  0  0  0  0  0  0
    0.9012   -1.7716    0.2528 H   0  0  0  0  0  0  0  0  0  0  0  0
   -1.4968   -2.2826    0.6293 H   0  0  0  0  0  0  0  0  0  0  0  0
   -8.1554    3.5961   -0.9511 C   0  0  0  0  0  0  0  0  0  0  0  0
   -9.3031    4.3618   -1.1323 C   0  0  0  0  0  0  0  0  0  0  0  0
   -9.7883    4.6500   -2.4181 C   0  0  0  0  0  0  0  0  0  0  0  0
   -9.0912    4.1485   -3.5251 C   0  0  0  0  0  0  0  0  0  0  0  0
   -7.9393    3.3794   -3.3645 C   0  0  0  0  0  0  0  0  0  0  0  0
   -7.4810    3.1149   -2.0751 C   0  0  0  0  0  0  0  0  0  0  0  0
   -7.7873    3.3628    0.0418 H   0  0  0  0  0  0  0  0  0  0  0  0
   -9.8343    4.7402   -0.2632 H   0  0  0  0  0  0  0  0  0  0  0  0
   -9.4555    4.3598   -4.5265 H   0  0  0  0  0  0  0  0  0  0  0  0
   -7.4048    2.9813   -4.2197 H   0  0  0  0  0  0  0  0  0  0  0  0
   -6.0136    2.1287   -1.8593 S   0  0  0  0  0  0  0  0  0  0  0  0
   -6.0602    1.4582   -0.5570 O   0  0  0  0  0  0  0  0  0  0  0  0
   -4.9301    3.3492   -1.7753 O   0  0  0  0  0  0  0  0  0  0  0  0
   -5.7721    1.3459   -3.0695 O   0  0  0  0  0  0  0  0  0  0  0  0
  -11.0475    5.4639   -2.5958 C   0  0  0  0  0  0  0  0  0  0  0  0
  -11.9320    4.8872   -2.2999 H   0  0  0  0  0  0  0  0  0  0  0  0
  -11.0298    6.3660   -1.9761 H   0  0  0  0  0  0  0  0  0  0  0  0
  -11.1836    5.7694   -3.6360 H   0  0  0  0  0  0  0  0  0  0  0  0
  1  2  1  0  0  0  0
  1 10  2  0  0  0  0
  2  3  1  0  0  0  0
  4  1  1  0  0  0  0
  5  4  2  0  0  0  0
  5  6  1  0  0  0  0
  6  9  2  0  0  0  0
  7  6  1  0  0  0  0
  7  8  1  0  0  0  0
  8 15  1  0  0  0  0
  9 10  1  0  0  0  0
  9 16  1  0  0  0  0
 10 17  1  0  0  0  0
 12  5  1  0  0  0  0
 13  8  1  0  0  0  0
 14  8  1  0  0  0  0
 18 24  1  0  0  0  0
 19 18  1  0  0  0  0
 19 25  1  0  0  0  0
 20 19  2  0  0  0  0
 21 22  2  0  0  0  0
 21 20  1  0  0  0  0
 22 23  1  0  0  0  0
 23 28  1  0  0  0  0
 23 18  2  0  0  0  0
 26 21  1  0  0  0  0
 27 22  1  0  0  0  0
 28 30  1  0  0  0  0
 28 29  2  0  0  0  0
 30 11  1  0  0  0  0
 31 28  2  0  0  0  0
 32 20  1  0  0  0  0
 32 33  1  0  0  0  0
 32 34  1  0  0  0  0
 35 32  1  0  0  0  0
M  RAD  3   2   2   3   3   4   2
M  END
