Coordinates from ORCA-job 4-MeOPhN2+~TsO-_B3LYPG-6-31G_dp-CH-Scan-d09-49-n800
 OpenBabel11261919313D

 35 35  0  0  0  0  0  0  0  0999 V2000
   -1.6051   -0.3061   -0.5854 C   0  0  0  0  0  0  0  0  0  0  0  0
   -2.9564   -0.4741   -0.8151 N   0  0  0  0  0  0  0  0  0  0  0  0
   -4.0566   -0.5645   -1.0145 N   0  0  0  0  0  0  0  0  0  0  0  0
   -1.1075    0.9571   -0.9817 C   0  0  0  0  0  0  0  0  0  0  0  0
    0.2735    1.0290   -0.7101 C   0  0  0  0  0  0  0  0  0  0  0  0
    1.0220   -0.0078   -0.1334 C   0  0  0  0  0  0  0  0  0  0  0  0
    2.3435    0.2365    0.0554 O   0  0  0  0  0  0  0  0  0  0  0  0
    3.1705   -0.7656    0.6333 C   0  0  0  0  0  0  0  0  0  0  0  0
    0.4154   -1.2451    0.2292 C   0  0  0  0  0  0  0  0  0  0  0  0
   -0.9307   -1.4101    0.0019 C   0  0  0  0  0  0  0  0  0  0  0  0
   -4.4412    3.6231   -2.8752 H   0  0  0  0  0  0  0  0  0  0  0  0
    0.8350    1.9333   -0.9500 H   0  0  0  0  0  0  0  0  0  0  0  0
    4.1719   -0.3353    0.6796 H   0  0  0  0  0  0  0  0  0  0  0  0
    3.1973   -1.6735    0.0183 H   0  0  0  0  0  0  0  0  0  0  0  0
    2.8441   -1.0250    1.6477 H   0  0  0  0  0  0  0  0  0  0  0  0
    0.9915   -2.0465    0.6739 H   0  0  0  0  0  0  0  0  0  0  0  0
   -1.4396   -2.3359    0.2606 H   0  0  0  0  0  0  0  0  0  0  0  0
   -8.0622    3.8563   -1.2844 C   0  0  0  0  0  0  0  0  0  0  0  0
   -9.2639    4.5216   -1.0600 C   0  0  0  0  0  0  0  0  0  0  0  0
  -10.2079    4.6825   -2.0864 C   0  0  0  0  0  0  0  0  0  0  0  0
   -9.9174    4.1558   -3.3524 C   0  0  0  0  0  0  0  0  0  0  0  0
   -8.7205    3.4849   -3.5977 C   0  0  0  0  0  0  0  0  0  0  0  0
   -7.8016    3.3465   -2.5580 C   0  0  0  0  0  0  0  0  0  0  0  0
   -7.3386    3.7219   -0.4876 H   0  0  0  0  0  0  0  0  0  0  0  0
   -9.4740    4.9222   -0.0719 H   0  0  0  0  0  0  0  0  0  0  0  0
  -10.6382    4.2701   -4.1577 H   0  0  0  0  0  0  0  0  0  0  0  0
   -8.5001    3.0676   -4.5738 H   0  0  0  0  0  0  0  0  0  0  0  0
   -6.2644    2.5007   -2.8610 S   0  0  0  0  0  0  0  0  0  0  0  0
   -5.7340    1.9597   -1.6074 O   0  0  0  0  0  0  0  0  0  0  0  0
   -5.3196    3.7876   -3.2603 O   0  0  0  0  0  0  0  0  0  0  0  0
   -6.4125    1.6526   -4.0377 O   0  0  0  0  0  0  0  0  0  0  0  0
  -11.5180    5.3833   -1.8204 C   0  0  0  0  0  0  0  0  0  0  0  0
  -12.2382    4.7009   -1.3517 H   0  0  0  0  0  0  0  0  0  0  0  0
  -11.3862    6.2314   -1.1416 H   0  0  0  0  0  0  0  0  0  0  0  0
  -11.9699    5.7525   -2.7447 H   0  0  0  0  0  0  0  0  0  0  0  0
  1 10  2  0  0  0  0
  2  1  1  0  0  0  0
  3  2  1  0  0  0  0
  4  5  2  0  0  0  0
  4  1  1  0  0  0  0
  5  6  1  0  0  0  0
  6  7  1  0  0  0  0
  6  9  2  0  0  0  0
  7  8  1  0  0  0  0
  8 13  1  0  0  0  0
  8 15  1  0  0  0  0
  9 16  1  0  0  0  0
 10  9  1  0  0  0  0
 10 17  1  0  0  0  0
 12  5  1  0  0  0  0
 14  8  1  0  0  0  0
 18 19  1  0  0  0  0
 18 24  1  0  0  0  0
 19 25  1  0  0  0  0
 20 32  1  0  0  0  0
 20 19  2  0  0  0  0
 21 20  1  0  0  0  0
 22 21  2  0  0  0  0
 22 23  1  0  0  0  0
 23 18  2  0  0  0  0
 26 21  1  0  0  0  0
 27 22  1  0  0  0  0
 28 23  1  0  0  0  0
 28 29  2  0  0  0  0
 30 11  1  0  0  0  0
 30 28  1  0  0  0  0
 31 28  2  0  0  0  0
 32 33  1  0  0  0  0
 32 34  1  0  0  0  0
 35 32  1  0  0  0  0
M  RAD  3   2   2   3   3   4   2
M  END
