Coordinates from ORCA-job 4-MeOPhN2+~TsO-_B3LYPG-6-31G_dp-CH-Scan-d09-49-n800
 OpenBabel11261919313D

 35 35  0  0  0  0  0  0  0  0999 V2000
   -1.5313   -0.2836   -0.5767 C   0  0  0  0  0  0  0  0  0  0  0  0
   -2.8847   -0.4176   -0.8166 N   0  0  0  0  0  0  0  0  0  0  0  0
   -3.9845   -0.4788   -1.0299 N   0  0  0  0  0  0  0  0  0  0  0  0
   -1.0048    0.9728   -0.9562 C   0  0  0  0  0  0  0  0  0  0  0  0
    0.3759    1.0121   -0.6766 C   0  0  0  0  0  0  0  0  0  0  0  0
    1.0985   -0.0470   -0.1074 C   0  0  0  0  0  0  0  0  0  0  0  0
    2.4239    0.1664    0.0911 O   0  0  0  0  0  0  0  0  0  0  0  0
    3.2257   -0.8594    0.6628 C   0  0  0  0  0  0  0  0  0  0  0  0
    0.4632   -1.2748    0.2384 C   0  0  0  0  0  0  0  0  0  0  0  0
   -0.8848   -1.4084    0.0020 C   0  0  0  0  0  0  0  0  0  0  0  0
   -4.5032    3.7118   -2.9132 H   0  0  0  0  0  0  0  0  0  0  0  0
    0.9581    1.9066   -0.9033 H   0  0  0  0  0  0  0  0  0  0  0  0
    4.2360   -0.4516    0.7187 H   0  0  0  0  0  0  0  0  0  0  0  0
    3.2362   -1.7614    0.0385 H   0  0  0  0  0  0  0  0  0  0  0  0
    2.8884   -1.1220    1.6727 H   0  0  0  0  0  0  0  0  0  0  0  0
    1.0194   -2.0930    0.6779 H   0  0  0  0  0  0  0  0  0  0  0  0
   -1.4151   -2.3256    0.2481 H   0  0  0  0  0  0  0  0  0  0  0  0
   -8.0986    3.9149   -1.3090 C   0  0  0  0  0  0  0  0  0  0  0  0
   -9.3078    4.5650   -1.0807 C   0  0  0  0  0  0  0  0  0  0  0  0
  -10.2708    4.6853   -2.0951 C   0  0  0  0  0  0  0  0  0  0  0  0
   -9.9915    4.1332   -3.3528 C   0  0  0  0  0  0  0  0  0  0  0  0
   -8.7871    3.4773   -3.6018 C   0  0  0  0  0  0  0  0  0  0  0  0
   -7.8494    3.3795   -2.5744 C   0  0  0  0  0  0  0  0  0  0  0  0
   -7.3604    3.8118   -0.5209 H   0  0  0  0  0  0  0  0  0  0  0  0
   -9.5091    4.9854   -0.0990 H   0  0  0  0  0  0  0  0  0  0  0  0
  -10.7271    4.2156   -4.1486 H   0  0  0  0  0  0  0  0  0  0  0  0
   -8.5749    3.0408   -4.5714 H   0  0  0  0  0  0  0  0  0  0  0  0
   -6.3024    2.5536   -2.8828 S   0  0  0  0  0  0  0  0  0  0  0  0
   -5.7480    2.0417   -1.6274 O   0  0  0  0  0  0  0  0  0  0  0  0
   -5.3798    3.8470   -3.3133 O   0  0  0  0  0  0  0  0  0  0  0  0
   -6.4512    1.6860   -4.0449 O   0  0  0  0  0  0  0  0  0  0  0  0
  -11.5883    5.3702   -1.8241 C   0  0  0  0  0  0  0  0  0  0  0  0
  -12.2874    4.6886   -1.3232 H   0  0  0  0  0  0  0  0  0  0  0  0
  -11.4594    6.2390   -1.1714 H   0  0  0  0  0  0  0  0  0  0  0  0
  -12.0634    5.7059   -2.7495 H   0  0  0  0  0  0  0  0  0  0  0  0
  1 10  2  0  0  0  0
  2  1  1  0  0  0  0
  3  2  1  0  0  0  0
  4  5  2  0  0  0  0
  4  1  1  0  0  0  0
  5  6  1  0  0  0  0
  6  7  1  0  0  0  0
  6  9  2  0  0  0  0
  7  8  1  0  0  0  0
  8 13  1  0  0  0  0
  8 15  1  0  0  0  0
  9 16  1  0  0  0  0
 10  9  1  0  0  0  0
 10 17  1  0  0  0  0
 12  5  1  0  0  0  0
 14  8  1  0  0  0  0
 18 19  1  0  0  0  0
 18 24  1  0  0  0  0
 19 25  1  0  0  0  0
 20 32  1  0  0  0  0
 20 19  2  0  0  0  0
 21 20  1  0  0  0  0
 22 21  2  0  0  0  0
 22 23  1  0  0  0  0
 23 18  2  0  0  0  0
 26 21  1  0  0  0  0
 27 22  1  0  0  0  0
 28 23  1  0  0  0  0
 28 29  2  0  0  0  0
 30 11  1  0  0  0  0
 30 28  1  0  0  0  0
 31 28  2  0  0  0  0
 32 33  1  0  0  0  0
 32 34  1  0  0  0  0
 35 32  1  0  0  0  0
M  RAD  3   2   2   3   3   4   2
M  END
