Coordinates from ORCA-job 4-MeOPhN2+~TsO-_B3LYPG-6-31G_dp-CH-Scan-d09-49-n800
 OpenBabel11261919313D

 35 35  0  0  0  0  0  0  0  0999 V2000
   -2.0686   -0.2797   -0.1065 C   0  0  0  0  0  0  0  0  0  0  0  0
   -3.4044   -0.5513    0.1021 N   0  0  0  0  0  0  0  0  0  0  0  0
   -4.4975   -0.7389    0.2642 N   0  0  0  0  0  0  0  0  0  0  0  0
   -1.7949    1.0136   -0.6122 C   0  0  0  0  0  0  0  0  0  0  0  0
   -0.4088    1.1834   -0.7824 C   0  0  0  0  0  0  0  0  0  0  0  0
    0.5493    0.2000   -0.4907 C   0  0  0  0  0  0  0  0  0  0  0  0
    1.8429    0.5361   -0.7174 O   0  0  0  0  0  0  0  0  0  0  0  0
    2.8728   -0.4106   -0.4586 C   0  0  0  0  0  0  0  0  0  0  0  0
    0.1675   -1.0749    0.0150 C   0  0  0  0  0  0  0  0  0  0  0  0
   -1.1687   -1.3304    0.2157 C   0  0  0  0  0  0  0  0  0  0  0  0
   -4.0799    3.1516   -1.5365 H   0  0  0  0  0  0  0  0  0  0  0  0
   -0.0120    2.1238   -1.1658 H   0  0  0  0  0  0  0  0  0  0  0  0
    3.8073    0.0871   -0.7208 H   0  0  0  0  0  0  0  0  0  0  0  0
    2.7590   -1.3100   -1.0752 H   0  0  0  0  0  0  0  0  0  0  0  0
    2.9022   -0.6967    0.5998 H   0  0  0  0  0  0  0  0  0  0  0  0
    0.9033   -1.8357    0.2422 H   0  0  0  0  0  0  0  0  0  0  0  0
   -1.5093   -2.2884    0.6010 H   0  0  0  0  0  0  0  0  0  0  0  0
   -8.1824    3.6371   -0.9549 C   0  0  0  0  0  0  0  0  0  0  0  0
   -9.3554    4.3630   -1.1381 C   0  0  0  0  0  0  0  0  0  0  0  0
   -9.8531    4.6264   -2.4245 C   0  0  0  0  0  0  0  0  0  0  0  0
   -9.1425    4.1409   -3.5301 C   0  0  0  0  0  0  0  0  0  0  0  0
   -7.9655    3.4113   -3.3677 C   0  0  0  0  0  0  0  0  0  0  0  0
   -7.4955    3.1709   -2.0777 C   0  0  0  0  0  0  0  0  0  0  0  0
   -7.8038    3.4231    0.0385 H   0  0  0  0  0  0  0  0  0  0  0  0
   -9.8966    4.7295   -0.2701 H   0  0  0  0  0  0  0  0  0  0  0  0
   -9.5160    4.3335   -4.5320 H   0  0  0  0  0  0  0  0  0  0  0  0
   -7.4205    3.0254   -4.2218 H   0  0  0  0  0  0  0  0  0  0  0  0
   -5.9953    2.2367   -1.8594 S   0  0  0  0  0  0  0  0  0  0  0  0
   -6.0047    1.5904   -0.5445 O   0  0  0  0  0  0  0  0  0  0  0  0
   -4.9510    3.4963   -1.8098 O   0  0  0  0  0  0  0  0  0  0  0  0
   -5.7378    1.4418   -3.0580 O   0  0  0  0  0  0  0  0  0  0  0  0
  -11.1390    5.3966   -2.6043 C   0  0  0  0  0  0  0  0  0  0  0  0
  -12.0038    4.7884   -2.3133 H   0  0  0  0  0  0  0  0  0  0  0  0
  -11.1546    6.2969   -1.9822 H   0  0  0  0  0  0  0  0  0  0  0  0
  -11.2822    5.6999   -3.6443 H   0  0  0  0  0  0  0  0  0  0  0  0
  1  2  1  0  0  0  0
  1 10  2  0  0  0  0
  2  3  1  0  0  0  0
  4  1  1  0  0  0  0
  5  4  2  0  0  0  0
  5  6  1  0  0  0  0
  6  9  2  0  0  0  0
  7  6  1  0  0  0  0
  7  8  1  0  0  0  0
  8 15  1  0  0  0  0
  9 10  1  0  0  0  0
  9 16  1  0  0  0  0
 10 17  1  0  0  0  0
 12  5  1  0  0  0  0
 13  8  1  0  0  0  0
 14  8  1  0  0  0  0
 18 24  1  0  0  0  0
 19 18  1  0  0  0  0
 19 25  1  0  0  0  0
 20 19  2  0  0  0  0
 21 22  2  0  0  0  0
 21 20  1  0  0  0  0
 22 23  1  0  0  0  0
 23 28  1  0  0  0  0
 23 18  2  0  0  0  0
 26 21  1  0  0  0  0
 27 22  1  0  0  0  0
 28 30  1  0  0  0  0
 28 29  2  0  0  0  0
 30 11  1  0  0  0  0
 31 28  2  0  0  0  0
 32 20  1  0  0  0  0
 32 33  1  0  0  0  0
 32 34  1  0  0  0  0
 35 32  1  0  0  0  0
M  RAD  3   2   2   3   3   4   2
M  END
