Coordinates from ORCA-job 4-MeOPhN2+~TsO-_B3LYPG-6-31G_dp-CH-Scan-d09-49-n800
 OpenBabel11261919313D

 35 35  0  0  0  0  0  0  0  0999 V2000
   -1.6739   -0.3300   -0.5753 C   0  0  0  0  0  0  0  0  0  0  0  0
   -3.0243   -0.5305   -0.7825 N   0  0  0  0  0  0  0  0  0  0  0  0
   -4.1241   -0.6494   -0.9684 N   0  0  0  0  0  0  0  0  0  0  0  0
   -1.2097    0.9401   -0.9902 C   0  0  0  0  0  0  0  0  0  0  0  0
    0.1730    1.0446   -0.7394 C   0  0  0  0  0  0  0  0  0  0  0  0
    0.9527    0.0298   -0.1646 C   0  0  0  0  0  0  0  0  0  0  0  0
    2.2710    0.3047    0.0025 O   0  0  0  0  0  0  0  0  0  0  0  0
    3.1282   -0.6740    0.5764 C   0  0  0  0  0  0  0  0  0  0  0  0
    0.3788   -1.2172    0.2173 C   0  0  0  0  0  0  0  0  0  0  0  0
   -0.9665   -1.4134    0.0113 C   0  0  0  0  0  0  0  0  0  0  0  0
   -4.3838    3.5153   -2.7861 H   0  0  0  0  0  0  0  0  0  0  0  0
    0.7110    1.9587   -0.9955 H   0  0  0  0  0  0  0  0  0  0  0  0
    4.1206   -0.2215    0.6040 H   0  0  0  0  0  0  0  0  0  0  0  0
    3.1659   -1.5863   -0.0312 H   0  0  0  0  0  0  0  0  0  0  0  0
    2.8228   -0.9314    1.5978 H   0  0  0  0  0  0  0  0  0  0  0  0
    0.9788   -2.0019    0.6601 H   0  0  0  0  0  0  0  0  0  0  0  0
   -1.4509   -2.3479    0.2855 H   0  0  0  0  0  0  0  0  0  0  0  0
   -8.0495    3.7891   -1.2521 C   0  0  0  0  0  0  0  0  0  0  0  0
   -9.2428    4.4743   -1.0430 C   0  0  0  0  0  0  0  0  0  0  0  0
  -10.1516    4.6872   -2.0915 C   0  0  0  0  0  0  0  0  0  0  0  0
   -9.8343    4.1925   -3.3640 C   0  0  0  0  0  0  0  0  0  0  0  0
   -8.6455    3.5021   -3.5941 C   0  0  0  0  0  0  0  0  0  0  0  0
   -7.7617    3.3119   -2.5323 C   0  0  0  0  0  0  0  0  0  0  0  0
   -7.3530    3.6147   -0.4391 H   0  0  0  0  0  0  0  0  0  0  0  0
   -9.4740    4.8497   -0.0498 H   0  0  0  0  0  0  0  0  0  0  0  0
  -10.5277    4.3475   -4.1863 H   0  0  0  0  0  0  0  0  0  0  0  0
   -8.4052    3.1091   -4.5756 H   0  0  0  0  0  0  0  0  0  0  0  0
   -6.2355    2.4396   -2.8150 S   0  0  0  0  0  0  0  0  0  0  0  0
   -5.7486    1.8623   -1.5600 O   0  0  0  0  0  0  0  0  0  0  0  0
   -5.2576    3.7152   -3.1652 O   0  0  0  0  0  0  0  0  0  0  0  0
   -6.3720    1.6169   -4.0111 O   0  0  0  0  0  0  0  0  0  0  0  0
  -11.4538    5.4087   -1.8429 C   0  0  0  0  0  0  0  0  0  0  0  0
  -12.2014    4.7294   -1.4146 H   0  0  0  0  0  0  0  0  0  0  0  0
  -11.3239    6.2345   -1.1368 H   0  0  0  0  0  0  0  0  0  0  0  0
  -11.8710    5.8130   -2.7688 H   0  0  0  0  0  0  0  0  0  0  0  0
  1 10  2  0  0  0  0
  2  1  1  0  0  0  0
  3  2  1  0  0  0  0
  4  5  2  0  0  0  0
  4  1  1  0  0  0  0
  5  6  1  0  0  0  0
  6  7  1  0  0  0  0
  6  9  2  0  0  0  0
  7  8  1  0  0  0  0
  8 13  1  0  0  0  0
  8 15  1  0  0  0  0
  9 16  1  0  0  0  0
 10  9  1  0  0  0  0
 10 17  1  0  0  0  0
 12  5  1  0  0  0  0
 14  8  1  0  0  0  0
 18 19  1  0  0  0  0
 18 24  1  0  0  0  0
 19 25  1  0  0  0  0
 20 32  1  0  0  0  0
 20 19  2  0  0  0  0
 21 20  1  0  0  0  0
 22 21  2  0  0  0  0
 22 23  1  0  0  0  0
 23 18  2  0  0  0  0
 26 21  1  0  0  0  0
 27 22  1  0  0  0  0
 28 23  1  0  0  0  0
 28 29  2  0  0  0  0
 30 28  1  0  0  0  0
 30 11  1  0  0  0  0
 31 28  2  0  0  0  0
 32 33  1  0  0  0  0
 32 34  1  0  0  0  0
 35 32  1  0  0  0  0
M  RAD  3   2   2   3   3   4   2
M  END
