Coordinates from ORCA-job 4-MeOPhN2+~TsO-_B3LYPG-6-31G_dp-CH-Scan-d09-49-n800
 OpenBabel11261919313D

 35 35  0  0  0  0  0  0  0  0999 V2000
   -1.9343   -0.2384   -0.1280 C   0  0  0  0  0  0  0  0  0  0  0  0
   -3.2929   -0.4261    0.0266 N   0  0  0  0  0  0  0  0  0  0  0  0
   -4.4023   -0.5385    0.1437 N   0  0  0  0  0  0  0  0  0  0  0  0
   -1.5698    1.0522   -0.5792 C   0  0  0  0  0  0  0  0  0  0  0  0
   -0.1695    1.1380   -0.7017 C   0  0  0  0  0  0  0  0  0  0  0  0
    0.7156    0.0868   -0.4183 C   0  0  0  0  0  0  0  0  0  0  0  0
    2.0350    0.3466   -0.5977 O   0  0  0  0  0  0  0  0  0  0  0  0
    2.9943   -0.6724   -0.3463 C   0  0  0  0  0  0  0  0  0  0  0  0
    0.2403   -1.1780    0.0323 C   0  0  0  0  0  0  0  0  0  0  0  0
   -1.1148   -1.3557    0.1851 C   0  0  0  0  0  0  0  0  0  0  0  0
   -4.1329    3.5866   -1.6962 H   0  0  0  0  0  0  0  0  0  0  0  0
    0.2979    2.0637   -1.0400 H   0  0  0  0  0  0  0  0  0  0  0  0
    3.9657   -0.2288   -0.5692 H   0  0  0  0  0  0  0  0  0  0  0  0
    2.8396   -1.5428   -0.9951 H   0  0  0  0  0  0  0  0  0  0  0  0
    2.9785   -0.9939    0.7023 H   0  0  0  0  0  0  0  0  0  0  0  0
    0.9205   -1.9904    0.2543 H   0  0  0  0  0  0  0  0  0  0  0  0
   -1.5263   -2.3022    0.5278 H   0  0  0  0  0  0  0  0  0  0  0  0
   -8.2262    3.7587   -0.9913 C   0  0  0  0  0  0  0  0  0  0  0  0
   -9.4578    4.3882   -1.1445 C   0  0  0  0  0  0  0  0  0  0  0  0
  -10.0244    4.5764   -2.4155 C   0  0  0  0  0  0  0  0  0  0  0  0
   -9.3228    4.1143   -3.5370 C   0  0  0  0  0  0  0  0  0  0  0  0
   -8.0878    3.4811   -3.4050 C   0  0  0  0  0  0  0  0  0  0  0  0
   -7.5504    3.3144   -2.1295 C   0  0  0  0  0  0  0  0  0  0  0  0
   -7.7937    3.6031   -0.0091 H   0  0  0  0  0  0  0  0  0  0  0  0
   -9.9906    4.7379   -0.2645 H   0  0  0  0  0  0  0  0  0  0  0  0
   -9.7490    4.2494   -4.5271 H   0  0  0  0  0  0  0  0  0  0  0  0
   -7.5486    3.1138   -4.2709 H   0  0  0  0  0  0  0  0  0  0  0  0
   -5.9746    2.5067   -1.9492 S   0  0  0  0  0  0  0  0  0  0  0  0
   -5.8767    1.8996   -0.6204 O   0  0  0  0  0  0  0  0  0  0  0  0
   -5.0302    3.8498   -1.9685 O   0  0  0  0  0  0  0  0  0  0  0  0
   -5.6957    1.7085   -3.1402 O   0  0  0  0  0  0  0  0  0  0  0  0
  -11.3714    5.2419   -2.5618 C   0  0  0  0  0  0  0  0  0  0  0  0
  -12.1778    4.5659   -2.2532 H   0  0  0  0  0  0  0  0  0  0  0  0
  -11.4429    6.1367   -1.9359 H   0  0  0  0  0  0  0  0  0  0  0  0
  -11.5635    5.5343   -3.5971 H   0  0  0  0  0  0  0  0  0  0  0  0
  1  2  1  0  0  0  0
  1 10  2  0  0  0  0
  2  3  1  0  0  0  0
  4  1  1  0  0  0  0
  5  4  2  0  0  0  0
  5  6  1  0  0  0  0
  6  9  2  0  0  0  0
  7  6  1  0  0  0  0
  7  8  1  0  0  0  0
  8 15  1  0  0  0  0
  9 10  1  0  0  0  0
  9 16  1  0  0  0  0
 10 17  1  0  0  0  0
 12  5  1  0  0  0  0
 13  8  1  0  0  0  0
 14  8  1  0  0  0  0
 18 24  1  0  0  0  0
 19 18  1  0  0  0  0
 19 25  1  0  0  0  0
 20 19  2  0  0  0  0
 21 22  2  0  0  0  0
 21 20  1  0  0  0  0
 22 23  1  0  0  0  0
 23 28  1  0  0  0  0
 23 18  2  0  0  0  0
 26 21  1  0  0  0  0
 27 22  1  0  0  0  0
 28 29  2  0  0  0  0
 30 28  1  0  0  0  0
 30 11  1  0  0  0  0
 31 28  2  0  0  0  0
 32 20  1  0  0  0  0
 32 33  1  0  0  0  0
 32 34  1  0  0  0  0
 35 32  1  0  0  0  0
M  RAD  3   2   2   3   3   4   2
M  END
