Coordinates from ORCA-job 4-MeOPhN2+~TsO-_B3LYPG-6-31G_dp-CH-Scan-d09-49-n800
 OpenBabel11261919313D

 35 35  0  0  0  0  0  0  0  0999 V2000
   -2.5964   -0.4864   -0.2826 C   0  0  0  0  0  0  0  0  0  0  0  0
   -3.8156   -1.0893   -0.0803 N   0  0  0  0  0  0  0  0  0  0  0  0
   -4.8281   -1.5427    0.0646 N   0  0  0  0  0  0  0  0  0  0  0  0
   -2.5947    0.7266   -1.0139 C   0  0  0  0  0  0  0  0  0  0  0  0
   -1.3109    1.2534   -1.1648 C   0  0  0  0  0  0  0  0  0  0  0  0
   -0.1555    0.6408   -0.6468 C   0  0  0  0  0  0  0  0  0  0  0  0
    1.0085    1.2790   -0.8827 O   0  0  0  0  0  0  0  0  0  0  0  0
    2.2308    0.7251   -0.4007 C   0  0  0  0  0  0  0  0  0  0  0  0
   -0.2386   -0.5787    0.0754 C   0  0  0  0  0  0  0  0  0  0  0  0
   -1.4741   -1.1565    0.2631 C   0  0  0  0  0  0  0  0  0  0  0  0
   -3.9007    1.4620   -1.6568 H   0  0  0  0  0  0  0  0  0  0  0  0
   -1.1623    2.1841   -1.7079 H   0  0  0  0  0  0  0  0  0  0  0  0
    3.0131    1.4133   -0.7210 H   0  0  0  0  0  0  0  0  0  0  0  0
    2.4199   -0.2639   -0.8334 H   0  0  0  0  0  0  0  0  0  0  0  0
    2.2339    0.6551    0.6933 H   0  0  0  0  0  0  0  0  0  0  0  0
    0.6453   -1.0580    0.4754 H   0  0  0  0  0  0  0  0  0  0  0  0
   -1.5809   -2.0904    0.8069 H   0  0  0  0  0  0  0  0  0  0  0  0
   -7.6305    3.2836   -0.9279 C   0  0  0  0  0  0  0  0  0  0  0  0
   -8.5262    4.3470   -1.0048 C   0  0  0  0  0  0  0  0  0  0  0  0
   -9.0620    4.7566   -2.2353 C   0  0  0  0  0  0  0  0  0  0  0  0
   -8.6751    4.0693   -3.3934 C   0  0  0  0  0  0  0  0  0  0  0  0
   -7.7804    3.0016   -3.3336 C   0  0  0  0  0  0  0  0  0  0  0  0
   -7.2603    2.6190   -2.0980 C   0  0  0  0  0  0  0  0  0  0  0  0
   -7.2270    2.9583    0.0246 H   0  0  0  0  0  0  0  0  0  0  0  0
   -8.8180    4.8665   -0.0955 H   0  0  0  0  0  0  0  0  0  0  0  0
   -9.0823    4.3715   -4.3546 H   0  0  0  0  0  0  0  0  0  0  0  0
   -7.4910    2.4599   -4.2274 H   0  0  0  0  0  0  0  0  0  0  0  0
   -6.0983    1.2612   -2.0178 S   0  0  0  0  0  0  0  0  0  0  0  0
   -6.2071    0.6426   -0.6792 O   0  0  0  0  0  0  0  0  0  0  0  0
   -4.7269    2.0247   -2.1259 O   0  0  0  0  0  0  0  0  0  0  0  0
   -6.3192    0.4032   -3.1876 O   0  0  0  0  0  0  0  0  0  0  0  0
  -10.0568    5.8907   -2.3022 C   0  0  0  0  0  0  0  0  0  0  0  0
  -11.0642    5.5479   -2.0343 H   0  0  0  0  0  0  0  0  0  0  0  0
   -9.7949    6.6947   -1.6071 H   0  0  0  0  0  0  0  0  0  0  0  0
  -10.1131    6.3153   -3.3083 H   0  0  0  0  0  0  0  0  0  0  0  0
  1  2  1  0  0  0  0
  1 10  2  0  0  0  0
  2  3  1  0  0  0  0
  4  1  1  0  0  0  0
  5  4  2  0  0  0  0
  5  6  1  0  0  0  0
  6  9  2  0  0  0  0
  7  6  1  0  0  0  0
  7  8  1  0  0  0  0
  8 15  1  0  0  0  0
  9 10  1  0  0  0  0
  9 16  1  0  0  0  0
 10 17  1  0  0  0  0
 12  5  1  0  0  0  0
 13  8  1  0  0  0  0
 14  8  1  0  0  0  0
 18 24  1  0  0  0  0
 19 18  1  0  0  0  0
 19 25  1  0  0  0  0
 20 19  2  0  0  0  0
 21 22  2  0  0  0  0
 21 20  1  0  0  0  0
 22 23  1  0  0  0  0
 23 28  1  0  0  0  0
 23 18  2  0  0  0  0
 26 21  1  0  0  0  0
 27 22  1  0  0  0  0
 28 29  2  0  0  0  0
 30 28  1  0  0  0  0
 30 11  1  0  0  0  0
 31 28  2  0  0  0  0
 32 20  1  0  0  0  0
 32 33  1  0  0  0  0
 32 34  1  0  0  0  0
 35 32  1  0  0  0  0
M  RAD  3   2   2   3   3   4   2
M  END
