22
Coordinates from ORCA-job 4-MeOPhN2+~BF4-_B3LYPG-6-31G_dp-CH-Scan-d09-49-n800
  C   -1.54513922560177      0.14433594141140     -0.05759306833801
  N   -2.92222074658959      0.15349276448261     -0.00804755514645
  N   -4.04170156948627      0.22901952824129      0.03011640457173
  C   -0.97861686256513      1.43947312452775     -0.11628715979553
  C   0.42573001867896      1.34178792922735     -0.16341700707791
  C   1.13371103036866      0.13053467732376     -0.15176608576784
  O   2.48508692679687      0.22361395442075     -0.20119087585130
  C   3.27664686112481     -0.95822314363201     -0.19110714182957
  C   0.45693371513025     -1.12329365994269     -0.09080623812941
  C   -0.91652411410223     -1.12997619209833     -0.04204945882375
  H   -4.50249766386526      4.79680248823311      0.44993156933555
  H   1.03999448244948      2.24212338249362     -0.21205697480954
  H   4.31355026938882     -0.62227100776154     -0.23446002178084
  H   3.06734919554397     -1.59264389667935     -1.06120009952238
  H   3.12478760618356     -1.53899729313778      0.72713757359498
  H   1.00395173192912     -2.05775746820414     -0.08222090687971
  H   -1.47870109653271     -2.05975364787381      0.00576276991353
  B   -6.16322173155575      2.94672089665710      0.40503431228789
  F   -5.24564290648826      2.86135583383096     -0.56050234510267
  F   -5.22644557366172      4.83519827077128      1.03358326153553
  F   -7.34915074323504      3.45705991058380      0.12700062182192
  F   -5.96167960391074      2.30109760712495      1.54063842579381
