22
Coordinates from ORCA-job 4-MeOPhN2+~BF4-_B3LYPG-6-31G_dp-CH-Scan-d09-49-n800
  C   -2.14267751204266      0.21937552978346      0.36420476532670
  N   -3.49085870183219      0.03427120810510      0.54867518283622
  N   -4.57337300519463     -0.17481132693260      0.72802844342861
  C   -1.58620547778482      1.51114028992314      0.48810834486469
  C   -0.22379593663917      1.62946820452188      0.31693319543083
  C   0.57400075140183      0.50476358730884      0.01474469729140
  O   1.88256868621024      0.75041832640094     -0.13865432285791
  C   2.77325375545396     -0.32243840791231     -0.45500984879720
  C   -0.00960180453357     -0.77576114289073     -0.10538572814682
  C   -1.37252956479263     -0.92185449392724      0.07530042967312
  H   -2.24603561869463      2.36221930310767      0.71358440507815
  H   0.26161872736219      2.59523639802758      0.40163425054219
  H   3.76195819538962      0.12942968828460     -0.52402508343079
  H   2.51327532547869     -0.78071765341965     -1.41525968095845
  H   2.77233663942210     -1.08243589978800      0.33433595918218
  H   0.59040378540933     -1.64573796790108     -0.33751947052288
  H   -1.84407542951312     -1.89460239776540     -0.01315935932386
  B   -4.75084995836049      2.80709278254516      0.01634907049943
  F   -3.94637305865825      2.08447670570094     -0.91323860993746
  F   -3.89558181749988      3.19553188652945      1.08751944201319
  F   -5.34091472609300      3.89359407676035     -0.57494654753400
  F   -5.71034325448895      1.90104130353792      0.53428046534265
