31
Coordinates from ORCA-job PhN2+~TsO-_B3LYPG-6-31G_dp-CH-Scan-d09-49-n800
  C   -2.22104036065251      0.46273239033667     -0.80249354174002
  N   -3.41597550082839      0.04457279102838     -1.39758876132552
  N   -4.32230554814487     -0.32988837534130     -1.93394275385226
  C   -1.09772863441734     -0.02433545017092     -1.48470070431503
  C   0.07967223244911      0.46081330503037     -0.83853649162691
  C   0.07053763448634      1.28517586161690      0.28114574938379
  C   -1.14175973726671      1.69801779039427      0.89201354656245
  C   -2.34122804177778      1.28291865158820      0.35306461362524
  H   -3.10122175001365      4.03321023668260      0.00726214173669
  H   1.05243762542649      0.17386676167995     -1.24049401520583
  H   1.00971844011023      1.62266740998017      0.71679406591429
  H   -1.12336656235771      2.31428030287357      1.78600299252619
  H   -3.30554093598972      1.54464768854964      0.77671780337086
  C   -7.26727303790184      4.42307329722934      0.69709826279151
  C   -8.35047973408719      5.21864002088650      1.05822755111422
  C   -8.63926125293063      6.40836853336749      0.37188482911146
  C   -7.80891798818163      6.78760717690704     -0.69239164624638
  C   -6.71771817420704      6.00775792131205     -1.06890358068183
  C   -6.45786721402104      4.83250498922156     -0.36413268497239
  H   -7.05385207261232      3.49690903460611      1.21893316120830
  H   -8.98510495773279      4.91058069880446      1.88496226467691
  H   -8.01942664774083      7.70442608376158     -1.23570766394340
  H   -6.08112453408371      6.29467760504958     -1.89881136720806
  S   -5.07112915071913      3.82996153103958     -0.83958362642931
  O   -5.31257577521897      2.43634622144717     -0.45116215681252
  O   -3.95755541085114      4.45986781484129      0.19588281518076
  O   -4.66142819434920      4.14006289351282     -2.20662296123510
  C   -9.83744404013520      7.24231425346486      0.75402573474476
  H   -10.75059298699841      6.84313640464851      0.29637606997062
  H   -9.99303133020159      7.24609134213987      1.83701739257196
  H   -9.72921635905048      8.27759481351163      0.41986296110464
