Coordinates from ORCA-job 4-MeOPhN2+~TfO-_B3LYPG-6-31G_dp-CH-Scan-d09-49-n800
 OpenBabel11261919093D

 25 24  0  0  0  0  0  0  0  0999 V2000
   -1.4742   -0.3130    0.5789 C   0  0  0  0  0  0  0  0  0  0  0  0
   -2.7715   -0.5402    0.9800 N   0  0  0  0  0  0  0  0  0  0  0  0
   -3.8369   -0.6630    1.3105 N   0  0  0  0  0  0  0  0  0  0  0  0
   -1.2071    1.0382    0.2517 C   0  0  0  0  0  0  0  0  0  0  0  0
    0.1390    1.1798   -0.1332 C   0  0  0  0  0  0  0  0  0  0  0  0
    1.0624    0.1236   -0.1816 C   0  0  0  0  0  0  0  0  0  0  0  0
    2.3178    0.4420   -0.5766 O   0  0  0  0  0  0  0  0  0  0  0  0
    3.3153   -0.5701   -0.6523 C   0  0  0  0  0  0  0  0  0  0  0  0
    0.6849   -1.2056    0.1687 C   0  0  0  0  0  0  0  0  0  0  0  0
   -0.6112   -1.4416    0.5603 C   0  0  0  0  0  0  0  0  0  0  0  0
   -4.0919    3.5021   -0.1364 H   0  0  0  0  0  0  0  0  0  0  0  0
    0.5302    2.1559   -0.4224 H   0  0  0  0  0  0  0  0  0  0  0  0
    4.2233   -0.0680   -0.9878 H   0  0  0  0  0  0  0  0  0  0  0  0
    3.0462   -1.3489   -1.3758 H   0  0  0  0  0  0  0  0  0  0  0  0
    3.4997   -1.0294    0.3265 H   0  0  0  0  0  0  0  0  0  0  0  0
    1.3952   -2.0219    0.1318 H   0  0  0  0  0  0  0  0  0  0  0  0
   -0.9468   -2.4373    0.8398 H   0  0  0  0  0  0  0  0  0  0  0  0
   -6.0140    2.6928    0.3760 S   0  0  0  0  0  0  0  0  0  0  0  0
   -5.8027    2.4469    2.2124 C   0  0  0  0  0  0  0  0  0  0  0  0
   -7.3325    3.2526    0.1639 O   0  0  0  0  0  0  0  0  0  0  0  0
   -5.5413    1.4779   -0.2722 O   0  0  0  0  0  0  0  0  0  0  0  0
   -4.9415    3.8871    0.1439 O   0  0  0  0  0  0  0  0  0  0  0  0
   -6.0819    3.5740    2.8592 F   0  0  0  0  0  0  0  0  0  0  0  0
   -6.6333    1.4827    2.6048 F   0  0  0  0  0  0  0  0  0  0  0  0
   -4.5431    2.0825    2.4670 F   0  0  0  0  0  0  0  0  0  0  0  0
  1  2  1  0  0  0  0
  2  3  1  0  0  0  0
  4  1  2  0  0  0  0
  5  4  1  0  0  0  0
  6  5  2  0  0  0  0
  6  9  1  0  0  0  0
  7  6  1  0  0  0  0
  8  7  1  0  0  0  0
  8 15  1  0  0  0  0
  9 10  2  0  0  0  0
 10  1  1  0  0  0  0
 10 17  1  0  0  0  0
 11 22  1  0  0  0  0
 12  5  1  0  0  0  0
 13  8  1  0  0  0  0
 14  8  1  0  0  0  0
 16  9  1  0  0  0  0
 18 19  1  0  0  0  0
 19 25  1  0  0  0  0
 19 24  1  0  0  0  0
 19 23  1  0  0  0  0
 20 18  2  0  0  0  0
 21 18  2  0  0  0  0
 22 18  1  0  0  0  0
M  RAD  3   2   2   3   3   4   2
M  END
