Coordinates from ORCA-job 4-MeOPhN2+~TfO-_B3LYPG-6-31G_dp-CH-Scan-d09-49-n800
 OpenBabel11261919093D

 25 24  0  0  0  0  0  0  0  0999 V2000
   -1.7678   -0.4188    0.5236 C   0  0  0  0  0  0  0  0  0  0  0  0
   -3.0359   -0.7894    0.8952 N   0  0  0  0  0  0  0  0  0  0  0  0
   -4.0810   -1.0549    1.1997 N   0  0  0  0  0  0  0  0  0  0  0  0
   -1.6023    0.9482    0.1838 C   0  0  0  0  0  0  0  0  0  0  0  0
   -0.2751    1.2231   -0.1705 C   0  0  0  0  0  0  0  0  0  0  0  0
    0.7489    0.2600   -0.1821 C   0  0  0  0  0  0  0  0  0  0  0  0
    1.9726    0.6978   -0.5462 O   0  0  0  0  0  0  0  0  0  0  0  0
    3.0710   -0.2094   -0.5802 C   0  0  0  0  0  0  0  0  0  0  0  0
    0.4889   -1.0926    0.1741 C   0  0  0  0  0  0  0  0  0  0  0  0
   -0.7893   -1.4475    0.5352 C   0  0  0  0  0  0  0  0  0  0  0  0
   -3.2855    2.5316    0.1231 H   0  0  0  0  0  0  0  0  0  0  0  0
    0.0202    2.2302   -0.4605 H   0  0  0  0  0  0  0  0  0  0  0  0
    3.9317    0.3804   -0.8959 H   0  0  0  0  0  0  0  0  0  0  0  0
    2.9020   -1.0176   -1.3012 H   0  0  0  0  0  0  0  0  0  0  0  0
    3.2697   -0.6361    0.4100 H   0  0  0  0  0  0  0  0  0  0  0  0
    1.2731   -1.8387    0.1654 H   0  0  0  0  0  0  0  0  0  0  0  0
   -1.0330   -2.4685    0.8165 H   0  0  0  0  0  0  0  0  0  0  0  0
   -5.4360    2.5537    0.3305 S   0  0  0  0  0  0  0  0  0  0  0  0
   -5.5162    2.5080    2.1901 C   0  0  0  0  0  0  0  0  0  0  0  0
   -6.4416    3.4979   -0.1163 O   0  0  0  0  0  0  0  0  0  0  0  0
   -5.4225    1.1597   -0.1011 O   0  0  0  0  0  0  0  0  0  0  0  0
   -4.0028    3.2258    0.1321 O   0  0  0  0  0  0  0  0  0  0  0  0
   -5.3942    3.7331    2.6945 F   0  0  0  0  0  0  0  0  0  0  0  0
   -6.6866    1.9873    2.5607 F   0  0  0  0  0  0  0  0  0  0  0  0
   -4.5242    1.7359    2.6565 F   0  0  0  0  0  0  0  0  0  0  0  0
  1 10  1  0  0  0  0
  1  2  1  0  0  0  0
  2  3  1  0  0  0  0
  4  1  2  0  0  0  0
  5  4  1  0  0  0  0
  6  5  2  0  0  0  0
  6  9  1  0  0  0  0
  7  6  1  0  0  0  0
  8  7  1  0  0  0  0
  8 15  1  0  0  0  0
  9 10  2  0  0  0  0
 10 17  1  0  0  0  0
 11 22  1  0  0  0  0
 12  5  1  0  0  0  0
 13  8  1  0  0  0  0
 14  8  1  0  0  0  0
 16  9  1  0  0  0  0
 18 19  1  0  0  0  0
 19 24  1  0  0  0  0
 19 25  1  0  0  0  0
 19 23  1  0  0  0  0
 20 18  2  0  0  0  0
 21 18  2  0  0  0  0
 22 18  1  0  0  0  0
M  RAD  3   2   2   3   3   4   2
M  END
