Coordinates from ORCA-job 4-MeOPhN2+~TfO-_B3LYPG-6-31G_dp-CH-Scan-d09-49-n800
 OpenBabel11261919093D

 25 24  0  0  0  0  0  0  0  0999 V2000
   -1.8264   -0.3889    0.6413 C   0  0  0  0  0  0  0  0  0  0  0  0
   -3.0725   -0.7776    1.0604 N   0  0  0  0  0  0  0  0  0  0  0  0
   -4.0997   -1.0602    1.4038 N   0  0  0  0  0  0  0  0  0  0  0  0
   -1.6617    0.9852    0.3296 C   0  0  0  0  0  0  0  0  0  0  0  0
   -0.3584    1.2766   -0.0781 C   0  0  0  0  0  0  0  0  0  0  0  0
    0.6636    0.3136   -0.1670 C   0  0  0  0  0  0  0  0  0  0  0  0
    1.8647    0.7629   -0.5783 O   0  0  0  0  0  0  0  0  0  0  0  0
    2.9604   -0.1426   -0.6979 C   0  0  0  0  0  0  0  0  0  0  0  0
    0.4165   -1.0460    0.1638 C   0  0  0  0  0  0  0  0  0  0  0  0
   -0.8444   -1.4100    0.5760 C   0  0  0  0  0  0  0  0  0  0  0  0
   -2.9393    2.2185    0.3636 H   0  0  0  0  0  0  0  0  0  0  0  0
   -0.0844    2.2931   -0.3524 H   0  0  0  0  0  0  0  0  0  0  0  0
    3.8018    0.4575   -1.0442 H   0  0  0  0  0  0  0  0  0  0  0  0
    2.7497   -0.9297   -1.4306 H   0  0  0  0  0  0  0  0  0  0  0  0
    3.2122   -0.5950    0.2682 H   0  0  0  0  0  0  0  0  0  0  0  0
    1.1967   -1.7933    0.0966 H   0  0  0  0  0  0  0  0  0  0  0  0
   -1.0751   -2.4381    0.8400 H   0  0  0  0  0  0  0  0  0  0  0  0
   -5.1305    2.4992    0.2802 S   0  0  0  0  0  0  0  0  0  0  0  0
   -5.5669    2.4789    2.0874 C   0  0  0  0  0  0  0  0  0  0  0  0
   -5.9781    3.5038   -0.3394 O   0  0  0  0  0  0  0  0  0  0  0  0
   -5.1818    1.0969   -0.1405 O   0  0  0  0  0  0  0  0  0  0  0  0
   -3.6501    3.0123    0.3606 O   0  0  0  0  0  0  0  0  0  0  0  0
   -5.4371    3.6920    2.6227 F   0  0  0  0  0  0  0  0  0  0  0  0
   -6.8260    2.0620    2.2384 F   0  0  0  0  0  0  0  0  0  0  0  0
   -4.7490    1.6279    2.7331 F   0  0  0  0  0  0  0  0  0  0  0  0
  1  2  1  0  0  0  0
  2  3  1  0  0  0  0
  4  1  2  0  0  0  0
  5  4  1  0  0  0  0
  6  5  2  0  0  0  0
  6  9  1  0  0  0  0
  7  6  1  0  0  0  0
  8  7  1  0  0  0  0
  8 15  1  0  0  0  0
  9 10  2  0  0  0  0
 10  1  1  0  0  0  0
 10 17  1  0  0  0  0
 12  5  1  0  0  0  0
 13  8  1  0  0  0  0
 14  8  1  0  0  0  0
 16  9  1  0  0  0  0
 18 22  1  0  0  0  0
 18 19  1  0  0  0  0
 19 24  1  0  0  0  0
 19 23  1  0  0  0  0
 19 25  1  0  0  0  0
 20 18  2  0  0  0  0
 21 18  2  0  0  0  0
 22 11  1  0  0  0  0
M  RAD  3   2   2   3   3   4   2
M  END
