Coordinates from ORCA-job 4-MeOPhN2+~TfO-_B3LYPG-6-31G_dp-CH-Scan-d09-49-n800
 OpenBabel11261919093D

 25 24  0  0  0  0  0  0  0  0999 V2000
   -1.7027   -0.4092    0.4872 C   0  0  0  0  0  0  0  0  0  0  0  0
   -2.9834   -0.7501    0.8480 N   0  0  0  0  0  0  0  0  0  0  0  0
   -4.0384   -0.9855    1.1453 N   0  0  0  0  0  0  0  0  0  0  0  0
   -1.5186    0.9511    0.1335 C   0  0  0  0  0  0  0  0  0  0  0  0
   -0.1801    1.1982   -0.2065 C   0  0  0  0  0  0  0  0  0  0  0  0
    0.8286    0.2201   -0.1914 C   0  0  0  0  0  0  0  0  0  0  0  0
    2.0656    0.6335   -0.5443 O   0  0  0  0  0  0  0  0  0  0  0  0
    3.1487   -0.2915   -0.5503 C   0  0  0  0  0  0  0  0  0  0  0  0
    0.5443   -1.1250    0.1782 C   0  0  0  0  0  0  0  0  0  0  0  0
   -0.7436   -1.4563    0.5264 C   0  0  0  0  0  0  0  0  0  0  0  0
   -3.5139    2.7905   -0.0046 H   0  0  0  0  0  0  0  0  0  0  0  0
    0.1375    2.1965   -0.5058 H   0  0  0  0  0  0  0  0  0  0  0  0
    4.0240    0.2795   -0.8610 H   0  0  0  0  0  0  0  0  0  0  0  0
    2.9777   -1.1068   -1.2629 H   0  0  0  0  0  0  0  0  0  0  0  0
    3.3267   -0.7088    0.4479 H   0  0  0  0  0  0  0  0  0  0  0  0
    1.3176   -1.8823    0.1895 H   0  0  0  0  0  0  0  0  0  0  0  0
   -1.0072   -2.4698    0.8173 H   0  0  0  0  0  0  0  0  0  0  0  0
   -5.6257    2.6016    0.3671 S   0  0  0  0  0  0  0  0  0  0  0  0
   -5.5518    2.5000    2.2259 C   0  0  0  0  0  0  0  0  0  0  0  0
   -6.7332    3.4720    0.0278 O   0  0  0  0  0  0  0  0  0  0  0  0
   -5.5150    1.2321   -0.1194 O   0  0  0  0  0  0  0  0  0  0  0  0
   -4.2697    3.4144    0.0821 O   0  0  0  0  0  0  0  0  0  0  0  0
   -5.4973    3.7183    2.7559 F   0  0  0  0  0  0  0  0  0  0  0  0
   -6.6414    1.8691    2.6636 F   0  0  0  0  0  0  0  0  0  0  0  0
   -4.4646    1.8072    2.5876 F   0  0  0  0  0  0  0  0  0  0  0  0
  1 10  1  0  0  0  0
  1  2  1  0  0  0  0
  2  3  1  0  0  0  0
  4  1  2  0  0  0  0
  5  6  2  0  0  0  0
  5  4  1  0  0  0  0
  6  9  1  0  0  0  0
  7  6  1  0  0  0  0
  8  7  1  0  0  0  0
  8 15  1  0  0  0  0
  9 16  1  0  0  0  0
  9 10  2  0  0  0  0
 10 17  1  0  0  0  0
 11 22  1  0  0  0  0
 12  5  1  0  0  0  0
 13  8  1  0  0  0  0
 14  8  1  0  0  0  0
 18 19  1  0  0  0  0
 19 25  1  0  0  0  0
 19 24  1  0  0  0  0
 19 23  1  0  0  0  0
 20 18  2  0  0  0  0
 21 18  2  0  0  0  0
 22 18  1  0  0  0  0
M  RAD  3   2   2   3   3   4   2
M  END
