Coordinates from ORCA-job 4-MeOPhN2+~TfO-_B3LYPG-6-31G_dp-CH-Scan-d09-49-n800
 OpenBabel11261919093D

 25 24  0  0  0  0  0  0  0  0999 V2000
   -1.8096   -0.3057    0.7588 C   0  0  0  0  0  0  0  0  0  0  0  0
   -3.0445   -0.6561    1.2360 N   0  0  0  0  0  0  0  0  0  0  0  0
   -4.0629   -0.9087    1.6198 N   0  0  0  0  0  0  0  0  0  0  0  0
   -1.5805    1.0584    0.4578 C   0  0  0  0  0  0  0  0  0  0  0  0
   -0.3072    1.3393   -0.0119 C   0  0  0  0  0  0  0  0  0  0  0  0
    0.6733    0.3400   -0.1758 C   0  0  0  0  0  0  0  0  0  0  0  0
    1.8601    0.7574   -0.6428 O   0  0  0  0  0  0  0  0  0  0  0  0
    2.9159   -0.1828   -0.8509 C   0  0  0  0  0  0  0  0  0  0  0  0
    0.3899   -1.0128    0.1425 C   0  0  0  0  0  0  0  0  0  0  0  0
   -0.8605   -1.3440    0.6170 C   0  0  0  0  0  0  0  0  0  0  0  0
   -2.6006    2.0379    0.5930 H   0  0  0  0  0  0  0  0  0  0  0  0
   -0.0320    2.3561   -0.2764 H   0  0  0  0  0  0  0  0  0  0  0  0
    3.7540    0.3986   -1.2340 H   0  0  0  0  0  0  0  0  0  0  0  0
    2.6309   -0.9414   -1.5879 H   0  0  0  0  0  0  0  0  0  0  0  0
    3.2076   -0.6660    0.0882 H   0  0  0  0  0  0  0  0  0  0  0  0
    1.1360   -1.7869    0.0176 H   0  0  0  0  0  0  0  0  0  0  0  0
   -1.1099   -2.3694    0.8708 H   0  0  0  0  0  0  0  0  0  0  0  0
   -4.9333    2.4785    0.3191 S   0  0  0  0  0  0  0  0  0  0  0  0
   -5.7724    2.4306    1.9759 C   0  0  0  0  0  0  0  0  0  0  0  0
   -5.6843    3.4444   -0.4766 O   0  0  0  0  0  0  0  0  0  0  0  0
   -4.9170    1.0641   -0.1089 O   0  0  0  0  0  0  0  0  0  0  0  0
   -3.5374    2.9567    0.7154 O   0  0  0  0  0  0  0  0  0  0  0  0
   -5.7667    3.6315    2.5595 F   0  0  0  0  0  0  0  0  0  0  0  0
   -7.0375    2.0173    1.8448 F   0  0  0  0  0  0  0  0  0  0  0  0
   -5.1272    1.5617    2.7863 F   0  0  0  0  0  0  0  0  0  0  0  0
  1  2  1  0  0  0  0
  2  3  1  0  0  0  0
  4  1  2  0  0  0  0
  5  4  1  0  0  0  0
  6  5  2  0  0  0  0
  6  9  1  0  0  0  0
  7  6  1  0  0  0  0
  8  7  1  0  0  0  0
  8 15  1  0  0  0  0
  9 10  2  0  0  0  0
 10  1  1  0  0  0  0
 10 17  1  0  0  0  0
 11 22  1  0  0  0  0
 12  5  1  0  0  0  0
 13  8  1  0  0  0  0
 14  8  1  0  0  0  0
 16  9  1  0  0  0  0
 18 22  1  0  0  0  0
 18 19  1  0  0  0  0
 19 23  1  0  0  0  0
 19 25  1  0  0  0  0
 20 18  2  0  0  0  0
 21 18  2  0  0  0  0
 24 19  1  0  0  0  0
M  RAD  3   2   2   3   3   4   2
M  END
