Coordinates from ORCA-job 4-MeOPhN2+~TfO-_B3LYPG-6-31G_dp-CH-Scan-d09-49-n800
 OpenBabel11261919093D

 25 24  0  0  0  0  0  0  0  0999 V2000
   -1.7423   -0.4132    0.5178 C   0  0  0  0  0  0  0  0  0  0  0  0
   -3.0144   -0.7722    0.8884 N   0  0  0  0  0  0  0  0  0  0  0  0
   -4.0627   -1.0270    1.1917 N   0  0  0  0  0  0  0  0  0  0  0  0
   -1.5698    0.9517    0.1740 C   0  0  0  0  0  0  0  0  0  0  0  0
   -0.2396    1.2159   -0.1796 C   0  0  0  0  0  0  0  0  0  0  0  0
    0.7780    0.2463   -0.1862 C   0  0  0  0  0  0  0  0  0  0  0  0
    2.0056    0.6742   -0.5504 O   0  0  0  0  0  0  0  0  0  0  0  0
    3.0975   -0.2406   -0.5794 C   0  0  0  0  0  0  0  0  0  0  0  0
    0.5092   -1.1038    0.1745 C   0  0  0  0  0  0  0  0  0  0  0  0
   -0.7716   -1.4495    0.5351 C   0  0  0  0  0  0  0  0  0  0  0  0
   -3.3520    2.6195    0.1044 H   0  0  0  0  0  0  0  0  0  0  0  0
    0.0637    2.2199   -0.4730 H   0  0  0  0  0  0  0  0  0  0  0  0
    3.9629    0.3417   -0.8965 H   0  0  0  0  0  0  0  0  0  0  0  0
    2.9239   -1.0507   -1.2971 H   0  0  0  0  0  0  0  0  0  0  0  0
    3.2923   -0.6648    0.4127 H   0  0  0  0  0  0  0  0  0  0  0  0
    1.2888   -1.8547    0.1696 H   0  0  0  0  0  0  0  0  0  0  0  0
   -1.0224   -2.4679    0.8196 H   0  0  0  0  0  0  0  0  0  0  0  0
   -5.4954    2.5704    0.3396 S   0  0  0  0  0  0  0  0  0  0  0  0
   -5.5439    2.5052    2.2000 C   0  0  0  0  0  0  0  0  0  0  0  0
   -6.5314    3.4914   -0.0840 O   0  0  0  0  0  0  0  0  0  0  0  0
   -5.4439    1.1830   -0.1078 O   0  0  0  0  0  0  0  0  0  0  0  0
   -4.0830    3.2901    0.1260 O   0  0  0  0  0  0  0  0  0  0  0  0
   -5.4584    3.7294    2.7132 F   0  0  0  0  0  0  0  0  0  0  0  0
   -6.6892    1.9393    2.5820 F   0  0  0  0  0  0  0  0  0  0  0  0
   -4.5178    1.7653    2.6425 F   0  0  0  0  0  0  0  0  0  0  0  0
  1 10  1  0  0  0  0
  1  2  1  0  0  0  0
  2  3  1  0  0  0  0
  4  1  2  0  0  0  0
  5  4  1  0  0  0  0
  6  5  2  0  0  0  0
  6  9  1  0  0  0  0
  7  6  1  0  0  0  0
  8  7  1  0  0  0  0
  8 15  1  0  0  0  0
  9 10  2  0  0  0  0
 10 17  1  0  0  0  0
 11 22  1  0  0  0  0
 12  5  1  0  0  0  0
 13  8  1  0  0  0  0
 14  8  1  0  0  0  0
 16  9  1  0  0  0  0
 18 19  1  0  0  0  0
 19 24  1  0  0  0  0
 19 25  1  0  0  0  0
 19 23  1  0  0  0  0
 20 18  2  0  0  0  0
 21 18  2  0  0  0  0
 22 18  1  0  0  0  0
M  RAD  3   2   2   3   3   4   2
M  END
