Coordinates from ORCA-job 4-MeOPhN2+~TfO-_B3LYPG-6-31G_dp-CH-Scan-d09-49-n800
 OpenBabel11261919093D

 25 24  0  0  0  0  0  0  0  0999 V2000
   -1.8170   -0.3347    0.7370 C   0  0  0  0  0  0  0  0  0  0  0  0
   -3.0515   -0.7043    1.2017 N   0  0  0  0  0  0  0  0  0  0  0  0
   -4.0672   -0.9761    1.5823 N   0  0  0  0  0  0  0  0  0  0  0  0
   -1.6176    1.0370    0.4410 C   0  0  0  0  0  0  0  0  0  0  0  0
   -0.3344    1.3201   -0.0147 C   0  0  0  0  0  0  0  0  0  0  0  0
    0.6606    0.3350   -0.1665 C   0  0  0  0  0  0  0  0  0  0  0  0
    1.8500    0.7663   -0.6203 O   0  0  0  0  0  0  0  0  0  0  0  0
    2.9180   -0.1614   -0.8137 C   0  0  0  0  0  0  0  0  0  0  0  0
    0.3933   -1.0231    0.1485 C   0  0  0  0  0  0  0  0  0  0  0  0
   -0.8577   -1.3683    0.6080 C   0  0  0  0  0  0  0  0  0  0  0  0
   -2.7260    2.1019    0.5474 H   0  0  0  0  0  0  0  0  0  0  0  0
   -0.0594    2.3379   -0.2793 H   0  0  0  0  0  0  0  0  0  0  0  0
    3.7548    0.4282   -1.1874 H   0  0  0  0  0  0  0  0  0  0  0  0
    2.6519   -0.9253   -1.5525 H   0  0  0  0  0  0  0  0  0  0  0  0
    3.2046   -0.6407    0.1293 H   0  0  0  0  0  0  0  0  0  0  0  0
    1.1511   -1.7872    0.0325 H   0  0  0  0  0  0  0  0  0  0  0  0
   -1.0990   -2.3964    0.8604 H   0  0  0  0  0  0  0  0  0  0  0  0
   -4.9737    2.4785    0.2903 S   0  0  0  0  0  0  0  0  0  0  0  0
   -5.7023    2.4458    1.9994 C   0  0  0  0  0  0  0  0  0  0  0  0
   -5.7363    3.4708   -0.4549 O   0  0  0  0  0  0  0  0  0  0  0  0
   -4.9837    1.0711   -0.1393 O   0  0  0  0  0  0  0  0  0  0  0  0
   -3.5376    2.9553    0.6072 O   0  0  0  0  0  0  0  0  0  0  0  0
   -5.6569    3.6517    2.5675 F   0  0  0  0  0  0  0  0  0  0  0  0
   -6.9725    2.0346    1.9452 F   0  0  0  0  0  0  0  0  0  0  0  0
   -5.0071    1.5822    2.7680 F   0  0  0  0  0  0  0  0  0  0  0  0
  1  2  1  0  0  0  0
  2  3  1  0  0  0  0
  4  1  2  0  0  0  0
  5  4  1  0  0  0  0
  6  5  2  0  0  0  0
  6  9  1  0  0  0  0
  7  6  1  0  0  0  0
  8  7  1  0  0  0  0
  8 15  1  0  0  0  0
  9 10  2  0  0  0  0
 10  1  1  0  0  0  0
 10 17  1  0  0  0  0
 11 22  1  0  0  0  0
 12  5  1  0  0  0  0
 13  8  1  0  0  0  0
 14  8  1  0  0  0  0
 16  9  1  0  0  0  0
 18 22  1  0  0  0  0
 18 19  1  0  0  0  0
 19 23  1  0  0  0  0
 19 25  1  0  0  0  0
 20 18  2  0  0  0  0
 21 18  2  0  0  0  0
 24 19  1  0  0  0  0
M  RAD  3   2   2   3   3   4   2
M  END
