Coordinates from ORCA-job 4-MeOPhN2+~TfO-_B3LYPG-6-31G_dp-CH-Scan-d09-49-n800
 OpenBabel11261919093D

 25 24  0  0  0  0  0  0  0  0999 V2000
   -1.8317   -0.3849    0.6467 C   0  0  0  0  0  0  0  0  0  0  0  0
   -3.0765   -0.7740    1.0688 N   0  0  0  0  0  0  0  0  0  0  0  0
   -4.1024   -1.0575    1.4147 N   0  0  0  0  0  0  0  0  0  0  0  0
   -1.6650    0.9889    0.3353 C   0  0  0  0  0  0  0  0  0  0  0  0
   -0.3634    1.2812   -0.0751 C   0  0  0  0  0  0  0  0  0  0  0  0
    0.6580    0.3176   -0.1671 C   0  0  0  0  0  0  0  0  0  0  0  0
    1.8581    0.7668   -0.5803 O   0  0  0  0  0  0  0  0  0  0  0  0
    2.9534   -0.1390   -0.7031 C   0  0  0  0  0  0  0  0  0  0  0  0
    0.4105   -1.0419    0.1631 C   0  0  0  0  0  0  0  0  0  0  0  0
   -0.8498   -1.4056    0.5778 C   0  0  0  0  0  0  0  0  0  0  0  0
   -2.9133    2.1948    0.3749 H   0  0  0  0  0  0  0  0  0  0  0  0
   -0.0908    2.2980   -0.3489 H   0  0  0  0  0  0  0  0  0  0  0  0
    3.7942    0.4613   -1.0506 H   0  0  0  0  0  0  0  0  0  0  0  0
    2.7408   -0.9252   -1.4362 H   0  0  0  0  0  0  0  0  0  0  0  0
    3.2069   -0.5923    0.2621 H   0  0  0  0  0  0  0  0  0  0  0  0
    1.1899   -1.7898    0.0934 H   0  0  0  0  0  0  0  0  0  0  0  0
   -1.0802   -2.4338    0.8413 H   0  0  0  0  0  0  0  0  0  0  0  0
   -5.1105    2.4945    0.2792 S   0  0  0  0  0  0  0  0  0  0  0  0
   -5.5675    2.4763    2.0812 C   0  0  0  0  0  0  0  0  0  0  0  0
   -5.9510    3.4995   -0.3501 O   0  0  0  0  0  0  0  0  0  0  0  0
   -5.1654    1.0911   -0.1403 O   0  0  0  0  0  0  0  0  0  0  0  0
   -3.6312    2.9981    0.3756 O   0  0  0  0  0  0  0  0  0  0  0  0
   -5.4387    3.6888    2.6187 F   0  0  0  0  0  0  0  0  0  0  0  0
   -6.8299    2.0643    2.2197 F   0  0  0  0  0  0  0  0  0  0  0  0
   -4.7601    1.6219    2.7366 F   0  0  0  0  0  0  0  0  0  0  0  0
  1  2  1  0  0  0  0
  2  3  1  0  0  0  0
  4  1  2  0  0  0  0
  5  4  1  0  0  0  0
  6  5  2  0  0  0  0
  6  9  1  0  0  0  0
  7  6  1  0  0  0  0
  8  7  1  0  0  0  0
  8 15  1  0  0  0  0
  9 10  2  0  0  0  0
 10  1  1  0  0  0  0
 10 17  1  0  0  0  0
 11 22  1  0  0  0  0
 12  5  1  0  0  0  0
 13  8  1  0  0  0  0
 14  8  1  0  0  0  0
 16  9  1  0  0  0  0
 18 22  1  0  0  0  0
 18 19  1  0  0  0  0
 19 24  1  0  0  0  0
 19 23  1  0  0  0  0
 19 25  1  0  0  0  0
 20 18  2  0  0  0  0
 21 18  2  0  0  0  0
M  RAD  3   2   2   3   3   4   2
M  END
