Coordinates from ORCA-job 4-MeOPhN2+~TfO-_B3LYPG-6-31G_dp-CH-Scan-d09-49-n800
 OpenBabel11261919093D

 25 24  0  0  0  0  0  0  0  0999 V2000
   -1.8309   -0.3860    0.6458 C   0  0  0  0  0  0  0  0  0  0  0  0
   -3.0758   -0.7753    1.0674 N   0  0  0  0  0  0  0  0  0  0  0  0
   -4.1018   -1.0591    1.4129 N   0  0  0  0  0  0  0  0  0  0  0  0
   -1.6646    0.9880    0.3347 C   0  0  0  0  0  0  0  0  0  0  0  0
   -0.3628    1.2803   -0.0753 C   0  0  0  0  0  0  0  0  0  0  0  0
    0.6588    0.3170   -0.1670 C   0  0  0  0  0  0  0  0  0  0  0  0
    1.8589    0.7664   -0.5799 O   0  0  0  0  0  0  0  0  0  0  0  0
    2.9544   -0.1392   -0.7025 C   0  0  0  0  0  0  0  0  0  0  0  0
    0.4115   -1.0426    0.1630 C   0  0  0  0  0  0  0  0  0  0  0  0
   -0.8488   -1.4066    0.5773 C   0  0  0  0  0  0  0  0  0  0  0  0
   -2.9166    2.1972    0.3737 H   0  0  0  0  0  0  0  0  0  0  0  0
   -0.0901    2.2973   -0.3490 H   0  0  0  0  0  0  0  0  0  0  0  0
    3.7952    0.4612   -1.0497 H   0  0  0  0  0  0  0  0  0  0  0  0
    2.7421   -0.9254   -1.4356 H   0  0  0  0  0  0  0  0  0  0  0  0
    3.2077   -0.5925    0.2628 H   0  0  0  0  0  0  0  0  0  0  0  0
    1.1911   -1.7903    0.0935 H   0  0  0  0  0  0  0  0  0  0  0  0
   -1.0792   -2.4348    0.8406 H   0  0  0  0  0  0  0  0  0  0  0  0
   -5.1132    2.4951    0.2795 S   0  0  0  0  0  0  0  0  0  0  0  0
   -5.5679    2.4776    2.0821 C   0  0  0  0  0  0  0  0  0  0  0  0
   -5.9542    3.5001   -0.3491 O   0  0  0  0  0  0  0  0  0  0  0  0
   -5.1680    1.0917   -0.1396 O   0  0  0  0  0  0  0  0  0  0  0  0
   -3.6335    2.9995    0.3739 O   0  0  0  0  0  0  0  0  0  0  0  0
   -5.4390    3.6904    2.6188 F   0  0  0  0  0  0  0  0  0  0  0  0
   -6.8299    2.0650    2.2222 F   0  0  0  0  0  0  0  0  0  0  0  0
   -4.7593    1.6239    2.7369 F   0  0  0  0  0  0  0  0  0  0  0  0
  1  2  1  0  0  0  0
  2  3  1  0  0  0  0
  4  1  2  0  0  0  0
  5  4  1  0  0  0  0
  6  5  2  0  0  0  0
  6  9  1  0  0  0  0
  7  6  1  0  0  0  0
  8  7  1  0  0  0  0
  8 15  1  0  0  0  0
  9 10  2  0  0  0  0
 10  1  1  0  0  0  0
 10 17  1  0  0  0  0
 11 22  1  0  0  0  0
 12  5  1  0  0  0  0
 13  8  1  0  0  0  0
 14  8  1  0  0  0  0
 16  9  1  0  0  0  0
 18 22  1  0  0  0  0
 18 19  1  0  0  0  0
 19 24  1  0  0  0  0
 19 23  1  0  0  0  0
 19 25  1  0  0  0  0
 20 18  2  0  0  0  0
 21 18  2  0  0  0  0
M  RAD  3   2   2   3   3   4   2
M  END
