Coordinates from ORCA-job 4-MeOPhN2+~TfO-_B3LYPG-6-31G_dp-CH-Scan-d09-49-n800
 OpenBabel11261919093D

 25 24  0  0  0  0  0  0  0  0999 V2000
   -2.0053   -0.2861    0.4778 C   0  0  0  0  0  0  0  0  0  0  0  0
   -3.3160   -0.6648    0.6621 N   0  0  0  0  0  0  0  0  0  0  0  0
   -4.3327   -1.1046    0.8410 N   0  0  0  0  0  0  0  0  0  0  0  0
   -1.5935    1.0281    0.7830 C   0  0  0  0  0  0  0  0  0  0  0  0
   -0.2599    1.3353    0.6107 C   0  0  0  0  0  0  0  0  0  0  0  0
    0.6531    0.3736    0.1279 C   0  0  0  0  0  0  0  0  0  0  0  0
    1.9185    0.7968   -0.0074 O   0  0  0  0  0  0  0  0  0  0  0  0
    2.9147   -0.1011   -0.5035 C   0  0  0  0  0  0  0  0  0  0  0  0
    0.2166   -0.9332   -0.1748 C   0  0  0  0  0  0  0  0  0  0  0  0
   -1.1148   -1.2665    0.0074 C   0  0  0  0  0  0  0  0  0  0  0  0
   -2.2196    1.6594    1.0882 H   0  0  0  0  0  0  0  0  0  0  0  0
    0.1092    2.3301    0.8324 H   0  0  0  0  0  0  0  0  0  0  0  0
    3.8409    0.4722   -0.5235 H   0  0  0  0  0  0  0  0  0  0  0  0
    2.6716   -0.4386   -1.5166 H   0  0  0  0  0  0  0  0  0  0  0  0
    3.0330   -0.9648    0.1597 H   0  0  0  0  0  0  0  0  0  0  0  0
    0.9041   -1.6816   -0.5463 H   0  0  0  0  0  0  0  0  0  0  0  0
   -1.4722   -2.2651   -0.2176 H   0  0  0  0  0  0  0  0  0  0  0  0
   -5.4426    1.8684    0.3713 S   0  0  0  0  0  0  0  0  0  0  0  0
   -5.0108    2.9532    1.8178 C   0  0  0  0  0  0  0  0  0  0  0  0
   -6.4197    2.6423   -0.3949 O   0  0  0  0  0  0  0  0  0  0  0  0
   -5.9464    0.6250    1.0268 O   0  0  0  0  0  0  0  0  0  0  0  0
   -4.1105    1.6602   -0.2690 O   0  0  0  0  0  0  0  0  0  0  0  0
   -4.5470    4.1420    1.4089 F   0  0  0  0  0  0  0  0  0  0  0  0
   -6.0583    3.1535    2.6215 F   0  0  0  0  0  0  0  0  0  0  0  0
   -4.0283    2.3655    2.5543 F   0  0  0  0  0  0  0  0  0  0  0  0
  1  2  1  0  0  0  0
  1  4  2  0  0  0  0
  2  3  1  0  0  0  0
  4 11  1  0  0  0  0
  5  4  1  0  0  0  0
  5 12  1  0  0  0  0
  6  5  2  0  0  0  0
  7  6  1  0  0  0  0
  8  7  1  0  0  0  0
  8 15  1  0  0  0  0
  9 10  2  0  0  0  0
  9  6  1  0  0  0  0
 10  1  1  0  0  0  0
 13  8  1  0  0  0  0
 14  8  1  0  0  0  0
 16  9  1  0  0  0  0
 17 10  1  0  0  0  0
 18 21  1  0  0  0  0
 18 19  1  0  0  0  0
 19 25  1  0  0  0  0
 19 24  1  0  0  0  0
 20 18  2  0  0  0  0
 22 18  2  0  0  0  0
 23 19  1  0  0  0  0
M  RAD  3   2   2   3   3  21   2
M  END
