Coordinates from ORCA-job 4-MeOPhN2+~TfO-_B3LYPG-6-31G_dp-CH-Scan-d09-49-n800
 OpenBabel11261919093D

 25 24  0  0  0  0  0  0  0  0999 V2000
   -1.6301   -0.3938    0.4723 C   0  0  0  0  0  0  0  0  0  0  0  0
   -2.9224   -0.7013    0.8269 N   0  0  0  0  0  0  0  0  0  0  0  0
   -3.9877   -0.9034    1.1139 N   0  0  0  0  0  0  0  0  0  0  0  0
   -1.4262    0.9593    0.1046 C   0  0  0  0  0  0  0  0  0  0  0  0
   -0.0790    1.1754   -0.2305 C   0  0  0  0  0  0  0  0  0  0  0  0
    0.9110    0.1796   -0.1990 C   0  0  0  0  0  0  0  0  0  0  0  0
    2.1585    0.5650   -0.5519 O   0  0  0  0  0  0  0  0  0  0  0  0
    3.2227   -0.3807   -0.5426 C   0  0  0  0  0  0  0  0  0  0  0  0
    0.6016   -1.1565    0.1859 C   0  0  0  0  0  0  0  0  0  0  0  0
   -0.6936   -1.4606    0.5311 C   0  0  0  0  0  0  0  0  0  0  0  0
   -3.7475    3.0533   -0.0978 H   0  0  0  0  0  0  0  0  0  0  0  0
    0.2605    2.1638   -0.5401 H   0  0  0  0  0  0  0  0  0  0  0  0
    4.1103    0.1686   -0.8581 H   0  0  0  0  0  0  0  0  0  0  0  0
    3.0384   -1.2021   -1.2449 H   0  0  0  0  0  0  0  0  0  0  0  0
    3.3903   -0.7887    0.4613 H   0  0  0  0  0  0  0  0  0  0  0  0
    1.3618   -1.9268    0.2109 H   0  0  0  0  0  0  0  0  0  0  0  0
   -0.9775   -2.4656    0.8334 H   0  0  0  0  0  0  0  0  0  0  0  0
   -5.7992    2.6487    0.3980 S   0  0  0  0  0  0  0  0  0  0  0  0
   -5.6073    2.4903    2.2453 C   0  0  0  0  0  0  0  0  0  0  0  0
   -6.9967    3.4255    0.1526 O   0  0  0  0  0  0  0  0  0  0  0  0
   -5.5803    1.3196   -0.1563 O   0  0  0  0  0  0  0  0  0  0  0  0
   -4.5374    3.6023    0.0748 O   0  0  0  0  0  0  0  0  0  0  0  0
   -5.6409    3.6896    2.8175 F   0  0  0  0  0  0  0  0  0  0  0  0
   -6.6048    1.7403    2.7122 F   0  0  0  0  0  0  0  0  0  0  0  0
   -4.4401    1.8968    2.5175 F   0  0  0  0  0  0  0  0  0  0  0  0
  1 10  1  0  0  0  0
  1  2  1  0  0  0  0
  2  3  1  0  0  0  0
  4  1  2  0  0  0  0
  5  6  2  0  0  0  0
  5  4  1  0  0  0  0
  6  9  1  0  0  0  0
  7  8  1  0  0  0  0
  7  6  1  0  0  0  0
  8 15  1  0  0  0  0
  9 16  1  0  0  0  0
  9 10  2  0  0  0  0
 10 17  1  0  0  0  0
 11 22  1  0  0  0  0
 12  5  1  0  0  0  0
 13  8  1  0  0  0  0
 14  8  1  0  0  0  0
 18 19  1  0  0  0  0
 19 25  1  0  0  0  0
 19 24  1  0  0  0  0
 19 23  1  0  0  0  0
 20 18  2  0  0  0  0
 21 18  2  0  0  0  0
 22 18  1  0  0  0  0
M  RAD  3   2   2   3   3   4   2
M  END
