Coordinates from ORCA-job 4-MeOPhN2+~TfO-_B3LYPG-6-31G_dp-CH-Scan-d09-49-n800
 OpenBabel11261919093D

 25 24  0  0  0  0  0  0  0  0999 V2000
   -1.9652   -0.2958    0.4238 C   0  0  0  0  0  0  0  0  0  0  0  0
   -3.2795   -0.6649    0.5972 N   0  0  0  0  0  0  0  0  0  0  0  0
   -4.3026   -1.0968    0.7576 N   0  0  0  0  0  0  0  0  0  0  0  0
   -1.5352    1.0062    0.7470 C   0  0  0  0  0  0  0  0  0  0  0  0
   -0.1999    1.3087    0.5967 C   0  0  0  0  0  0  0  0  0  0  0  0
    0.7073    0.3385    0.1173 C   0  0  0  0  0  0  0  0  0  0  0  0
    1.9796    0.7462    0.0036 O   0  0  0  0  0  0  0  0  0  0  0  0
    2.9716   -0.1584   -0.4895 C   0  0  0  0  0  0  0  0  0  0  0  0
    0.2589   -0.9604   -0.2062 C   0  0  0  0  0  0  0  0  0  0  0  0
   -1.0777   -1.2814   -0.0464 C   0  0  0  0  0  0  0  0  0  0  0  0
   -2.3553    1.8136    1.1054 H   0  0  0  0  0  0  0  0  0  0  0  0
    0.1781    2.2967    0.8318 H   0  0  0  0  0  0  0  0  0  0  0  0
    3.9049    0.4037   -0.4897 H   0  0  0  0  0  0  0  0  0  0  0  0
    2.7384   -0.4807   -1.5098 H   0  0  0  0  0  0  0  0  0  0  0  0
    3.0700   -1.0312    0.1649 H   0  0  0  0  0  0  0  0  0  0  0  0
    0.9436   -1.7124   -0.5756 H   0  0  0  0  0  0  0  0  0  0  0  0
   -1.4418   -2.2747   -0.2850 H   0  0  0  0  0  0  0  0  0  0  0  0
   -5.4877    1.8667    0.4386 S   0  0  0  0  0  0  0  0  0  0  0  0
   -5.1237    3.0295    1.8429 C   0  0  0  0  0  0  0  0  0  0  0  0
   -6.5286    2.5417   -0.3377 O   0  0  0  0  0  0  0  0  0  0  0  0
   -5.8920    0.6114    1.1404 O   0  0  0  0  0  0  0  0  0  0  0  0
   -4.1522    1.7341   -0.2154 O   0  0  0  0  0  0  0  0  0  0  0  0
   -4.7947    4.2458    1.3883 F   0  0  0  0  0  0  0  0  0  0  0  0
   -6.1645    3.1467    2.6720 F   0  0  0  0  0  0  0  0  0  0  0  0
   -4.0675    2.5663    2.5651 F   0  0  0  0  0  0  0  0  0  0  0  0
  1  2  1  0  0  0  0
  1  4  2  0  0  0  0
  2  3  1  0  0  0  0
  4 11  1  0  0  0  0
  5  4  1  0  0  0  0
  5 12  1  0  0  0  0
  6  5  2  0  0  0  0
  7  6  1  0  0  0  0
  8  7  1  0  0  0  0
  8 15  1  0  0  0  0
  9 10  2  0  0  0  0
  9  6  1  0  0  0  0
 10  1  1  0  0  0  0
 13  8  1  0  0  0  0
 14  8  1  0  0  0  0
 16  9  1  0  0  0  0
 17 10  1  0  0  0  0
 18 21  1  0  0  0  0
 18 19  1  0  0  0  0
 19 25  1  0  0  0  0
 19 24  1  0  0  0  0
 20 18  2  0  0  0  0
 22 18  2  0  0  0  0
 23 19  1  0  0  0  0
M  RAD  3   2   2   3   3  21   2
M  END
