Coordinates from ORCA-job 4-MeOPhN2+~TfO-_B3LYPG-6-31G_dp-CH-Scan-d09-49-n800
 OpenBabel11261919093D

 25 24  0  0  0  0  0  0  0  0999 V2000
   -1.5638   -0.3498    0.6594 C   0  0  0  0  0  0  0  0  0  0  0  0
   -2.8628   -0.6027    1.0418 N   0  0  0  0  0  0  0  0  0  0  0  0
   -3.9298   -0.7373    1.3625 N   0  0  0  0  0  0  0  0  0  0  0  0
   -1.2909    1.0261    0.4721 C   0  0  0  0  0  0  0  0  0  0  0  0
    0.0550    1.1972    0.0965 C   0  0  0  0  0  0  0  0  0  0  0  0
    0.9703    0.1456   -0.0655 C   0  0  0  0  0  0  0  0  0  0  0  0
    2.2266    0.4944   -0.4335 O   0  0  0  0  0  0  0  0  0  0  0  0
    3.2163   -0.5118   -0.6147 C   0  0  0  0  0  0  0  0  0  0  0  0
    0.5854   -1.2103    0.1481 C   0  0  0  0  0  0  0  0  0  0  0  0
   -0.7106   -1.4768    0.5209 C   0  0  0  0  0  0  0  0  0  0  0  0
   -4.3155    3.6911   -0.4885 H   0  0  0  0  0  0  0  0  0  0  0  0
    0.4529    2.1953   -0.0923 H   0  0  0  0  0  0  0  0  0  0  0  0
    4.1275    0.0151   -0.8996 H   0  0  0  0  0  0  0  0  0  0  0  0
    2.9400   -1.2111   -1.4129 H   0  0  0  0  0  0  0  0  0  0  0  0
    3.3987   -1.0705    0.3115 H   0  0  0  0  0  0  0  0  0  0  0  0
    1.2898   -2.0227    0.0220 H   0  0  0  0  0  0  0  0  0  0  0  0
   -1.0523   -2.4938    0.6984 H   0  0  0  0  0  0  0  0  0  0  0  0
   -5.9834    2.6258    0.3448 S   0  0  0  0  0  0  0  0  0  0  0  0
   -5.3914    2.4310    2.1034 C   0  0  0  0  0  0  0  0  0  0  0  0
   -7.3825    2.9952    0.3941 O   0  0  0  0  0  0  0  0  0  0  0  0
   -5.4772    1.4858   -0.4062 O   0  0  0  0  0  0  0  0  0  0  0  0
   -5.1524    3.9592   -0.0698 O   0  0  0  0  0  0  0  0  0  0  0  0
   -5.7407    3.4942    2.8211 F   0  0  0  0  0  0  0  0  0  0  0  0
   -5.9583    1.3366    2.6129 F   0  0  0  0  0  0  0  0  0  0  0  0
   -4.0666    2.2933    2.1108 F   0  0  0  0  0  0  0  0  0  0  0  0
  1  2  1  0  0  0  0
  2  3  1  0  0  0  0
  4  1  2  0  0  0  0
  5  4  1  0  0  0  0
  6  5  2  0  0  0  0
  6  9  1  0  0  0  0
  7  6  1  0  0  0  0
  8  7  1  0  0  0  0
  8 15  1  0  0  0  0
  9 10  2  0  0  0  0
 10  1  1  0  0  0  0
 10 17  1  0  0  0  0
 11 22  1  0  0  0  0
 12  5  1  0  0  0  0
 13  8  1  0  0  0  0
 14  8  1  0  0  0  0
 16  9  1  0  0  0  0
 18 20  2  0  0  0  0
 18 19  1  0  0  0  0
 19 25  1  0  0  0  0
 19 24  1  0  0  0  0
 19 23  1  0  0  0  0
 21 18  2  0  0  0  0
 22 18  1  0  0  0  0
M  RAD  3   2   2   3   3   4   2
M  END
