Coordinates from ORCA-job 4-MeOPhN2+~TfO-_B3LYPG-6-31G_dp-CH-Scan-d09-49-n800
 OpenBabel11261919093D

 25 24  0  0  0  0  0  0  0  0999 V2000
   -1.5311   -0.3427    0.6627 C   0  0  0  0  0  0  0  0  0  0  0  0
   -2.8369   -0.5815    1.0327 N   0  0  0  0  0  0  0  0  0  0  0  0
   -3.9082   -0.7004    1.3456 N   0  0  0  0  0  0  0  0  0  0  0  0
   -1.2316    1.0337    0.5320 C   0  0  0  0  0  0  0  0  0  0  0  0
    0.1185    1.1936    0.1659 C   0  0  0  0  0  0  0  0  0  0  0  0
    1.0132    0.1314   -0.0364 C   0  0  0  0  0  0  0  0  0  0  0  0
    2.2773    0.4698   -0.3878 O   0  0  0  0  0  0  0  0  0  0  0  0
    3.2478   -0.5478   -0.6050 C   0  0  0  0  0  0  0  0  0  0  0  0
    0.6012   -1.2243    0.1214 C   0  0  0  0  0  0  0  0  0  0  0  0
   -0.7008   -1.4803    0.4806 C   0  0  0  0  0  0  0  0  0  0  0  0
   -4.5124    3.7424   -0.5876 H   0  0  0  0  0  0  0  0  0  0  0  0
    0.5363    2.1906    0.0186 H   0  0  0  0  0  0  0  0  0  0  0  0
    4.1704   -0.0282   -0.8659 H   0  0  0  0  0  0  0  0  0  0  0  0
    2.9615   -1.2099   -1.4309 H   0  0  0  0  0  0  0  0  0  0  0  0
    3.4153   -1.1460    0.2992 H   0  0  0  0  0  0  0  0  0  0  0  0
    1.2902   -2.0444   -0.0361 H   0  0  0  0  0  0  0  0  0  0  0  0
   -1.0631   -2.4968    0.6155 H   0  0  0  0  0  0  0  0  0  0  0  0
   -6.0714    2.6159    0.3647 S   0  0  0  0  0  0  0  0  0  0  0  0
   -5.3773    2.4659    2.0904 C   0  0  0  0  0  0  0  0  0  0  0  0
   -7.4812    2.9224    0.4876 O   0  0  0  0  0  0  0  0  0  0  0  0
   -5.5546    1.4941   -0.4064 O   0  0  0  0  0  0  0  0  0  0  0  0
   -5.3239    3.9807   -0.1059 O   0  0  0  0  0  0  0  0  0  0  0  0
   -5.7066    3.5370    2.8061 F   0  0  0  0  0  0  0  0  0  0  0  0
   -5.8959    1.3722    2.6502 F   0  0  0  0  0  0  0  0  0  0  0  0
   -4.0526    2.3515    2.0258 F   0  0  0  0  0  0  0  0  0  0  0  0
  1  2  1  0  0  0  0
  2  3  1  0  0  0  0
  4  1  1  0  0  0  0
  5  4  2  0  0  0  0
  6  9  2  0  0  0  0
  6  5  1  0  0  0  0
  7  6  1  0  0  0  0
  8  7  1  0  0  0  0
  8 15  1  0  0  0  0
  9 10  1  0  0  0  0
 10 17  1  0  0  0  0
 10  1  2  0  0  0  0
 11 22  1  0  0  0  0
 12  5  1  0  0  0  0
 13  8  1  0  0  0  0
 14  8  1  0  0  0  0
 16  9  1  0  0  0  0
 18 20  2  0  0  0  0
 18 19  1  0  0  0  0
 19 24  1  0  0  0  0
 19 23  1  0  0  0  0
 21 18  2  0  0  0  0
 22 18  1  0  0  0  0
 25 19  1  0  0  0  0
M  RAD  3   2   2   3   3   4   2
M  END
