Coordinates from ORCA-job 4-MeOPhN2+~TfO-_B3LYPG-6-31G_dp-CH-Scan-d09-49-n800
 OpenBabel11261919093D

 25 24  0  0  0  0  0  0  0  0999 V2000
   -1.5091   -0.3415    0.6791 C   0  0  0  0  0  0  0  0  0  0  0  0
   -2.8211   -0.5720    1.0333 N   0  0  0  0  0  0  0  0  0  0  0  0
   -3.8964   -0.6829    1.3357 N   0  0  0  0  0  0  0  0  0  0  0  0
   -1.1814    1.0334    0.6278 C   0  0  0  0  0  0  0  0  0  0  0  0
    0.1721    1.1864    0.2713 C   0  0  0  0  0  0  0  0  0  0  0  0
    1.0448    0.1191    0.0088 C   0  0  0  0  0  0  0  0  0  0  0  0
    2.3160    0.4506   -0.3237 O   0  0  0  0  0  0  0  0  0  0  0  0
    3.2653   -0.5731   -0.5979 C   0  0  0  0  0  0  0  0  0  0  0  0
    0.6050   -1.2347    0.0898 C   0  0  0  0  0  0  0  0  0  0  0  0
   -0.7025   -1.4841    0.4334 C   0  0  0  0  0  0  0  0  0  0  0  0
   -4.7291    3.7859   -0.7081 H   0  0  0  0  0  0  0  0  0  0  0  0
    0.6106    2.1815    0.1818 H   0  0  0  0  0  0  0  0  0  0  0  0
    4.1979   -0.0589   -0.8327 H   0  0  0  0  0  0  0  0  0  0  0  0
    2.9648   -1.1837   -1.4579 H   0  0  0  0  0  0  0  0  0  0  0  0
    3.4219   -1.2227    0.2721 H   0  0  0  0  0  0  0  0  0  0  0  0
    1.2777   -2.0583   -0.1137 H   0  0  0  0  0  0  0  0  0  0  0  0
   -1.0860   -2.4990    0.5093 H   0  0  0  0  0  0  0  0  0  0  0  0
   -6.1401    2.5929    0.3818 S   0  0  0  0  0  0  0  0  0  0  0  0
   -5.3284    2.5120    2.0603 C   0  0  0  0  0  0  0  0  0  0  0  0
   -7.5546    2.8194    0.5931 O   0  0  0  0  0  0  0  0  0  0  0  0
   -5.6093    1.4920   -0.4100 O   0  0  0  0  0  0  0  0  0  0  0  0
   -5.5037    3.9902   -0.1555 O   0  0  0  0  0  0  0  0  0  0  0  0
   -5.6481    3.5905    2.7693 F   0  0  0  0  0  0  0  0  0  0  0  0
   -5.7733    1.4172    2.6790 F   0  0  0  0  0  0  0  0  0  0  0  0
   -4.0089    2.4385    1.9105 F   0  0  0  0  0  0  0  0  0  0  0  0
  1  2  1  0  0  0  0
  2  3  1  0  0  0  0
  4  1  1  0  0  0  0
  5  4  2  0  0  0  0
  6  9  2  0  0  0  0
  6  5  1  0  0  0  0
  7  6  1  0  0  0  0
  8  7  1  0  0  0  0
  8 15  1  0  0  0  0
  9 10  1  0  0  0  0
 10 17  1  0  0  0  0
 10  1  2  0  0  0  0
 11 22  1  0  0  0  0
 12  5  1  0  0  0  0
 13  8  1  0  0  0  0
 14  8  1  0  0  0  0
 16  9  1  0  0  0  0
 18 20  2  0  0  0  0
 18 19  1  0  0  0  0
 19 24  1  0  0  0  0
 19 23  1  0  0  0  0
 21 18  2  0  0  0  0
 22 18  1  0  0  0  0
 25 19  1  0  0  0  0
M  RAD  3   2   2   3   3   4   2
M  END
