Coordinates from ORCA-job 4-MeOPhN2+~TfO-_B3LYPG-6-31G_dp-CH-Scan-d09-49-n800
 OpenBabel11261919093D

 25 24  0  0  0  0  0  0  0  0999 V2000
   -1.5060   -0.3232    0.5729 C   0  0  0  0  0  0  0  0  0  0  0  0
   -2.8001   -0.5657    0.9740 N   0  0  0  0  0  0  0  0  0  0  0  0
   -3.8636   -0.7048    1.3036 N   0  0  0  0  0  0  0  0  0  0  0  0
   -1.2536    1.0277    0.2315 C   0  0  0  0  0  0  0  0  0  0  0  0
    0.0907    1.1822   -0.1530 C   0  0  0  0  0  0  0  0  0  0  0  0
    1.0274    0.1371   -0.1886 C   0  0  0  0  0  0  0  0  0  0  0  0
    2.2790    0.4671   -0.5852 O   0  0  0  0  0  0  0  0  0  0  0  0
    3.2895   -0.5332   -0.6486 C   0  0  0  0  0  0  0  0  0  0  0  0
    0.6659   -1.1925    0.1755 C   0  0  0  0  0  0  0  0  0  0  0  0
   -0.6279   -1.4402    0.5676 C   0  0  0  0  0  0  0  0  0  0  0  0
   -3.9781    3.4102   -0.0888 H   0  0  0  0  0  0  0  0  0  0  0  0
    0.4698    2.1600   -0.4521 H   0  0  0  0  0  0  0  0  0  0  0  0
    4.1913   -0.0232   -0.9890 H   0  0  0  0  0  0  0  0  0  0  0  0
    3.0310   -1.3233   -1.3634 H   0  0  0  0  0  0  0  0  0  0  0  0
    3.4787   -0.9788    0.3356 H   0  0  0  0  0  0  0  0  0  0  0  0
    1.3861   -2.0004    0.1486 H   0  0  0  0  0  0  0  0  0  0  0  0
   -0.9514   -2.4371    0.8572 H   0  0  0  0  0  0  0  0  0  0  0  0
   -5.9463    2.6830    0.3699 S   0  0  0  0  0  0  0  0  0  0  0  0
   -5.7855    2.4461    2.2125 C   0  0  0  0  0  0  0  0  0  0  0  0
   -7.2365    3.2927    0.1235 O   0  0  0  0  0  0  0  0  0  0  0  0
   -5.5108    1.4422   -0.2549 O   0  0  0  0  0  0  0  0  0  0  0  0
   -4.8237    3.8309    0.1506 O   0  0  0  0  0  0  0  0  0  0  0  0
   -6.0433    3.5864    2.8449 F   0  0  0  0  0  0  0  0  0  0  0  0
   -6.6546    1.5117    2.5935 F   0  0  0  0  0  0  0  0  0  0  0  0
   -4.5439    2.0442    2.4991 F   0  0  0  0  0  0  0  0  0  0  0  0
  1  2  1  0  0  0  0
  2  3  1  0  0  0  0
  4  1  2  0  0  0  0
  5  4  1  0  0  0  0
  6  5  2  0  0  0  0
  6  9  1  0  0  0  0
  7  6  1  0  0  0  0
  8  7  1  0  0  0  0
  8 15  1  0  0  0  0
  9 10  2  0  0  0  0
 10  1  1  0  0  0  0
 10 17  1  0  0  0  0
 11 22  1  0  0  0  0
 12  5  1  0  0  0  0
 13  8  1  0  0  0  0
 14  8  1  0  0  0  0
 16  9  1  0  0  0  0
 18 19  1  0  0  0  0
 19 25  1  0  0  0  0
 19 24  1  0  0  0  0
 19 23  1  0  0  0  0
 20 18  2  0  0  0  0
 21 18  2  0  0  0  0
 22 18  1  0  0  0  0
M  RAD  3   2   2   3   3   4   2
M  END
