Coordinates from ORCA-job 4-MeOPhN2+~TfO-_B3LYPG-6-31G_dp-CH-Scan-d09-49-n800
 OpenBabel11261919093D

 25 24  0  0  0  0  0  0  0  0999 V2000
   -1.8321   -0.4231    0.5572 C   0  0  0  0  0  0  0  0  0  0  0  0
   -3.0878   -0.8201    0.9401 N   0  0  0  0  0  0  0  0  0  0  0  0
   -4.1233   -1.1086    1.2537 N   0  0  0  0  0  0  0  0  0  0  0  0
   -1.6791    0.9497    0.2334 C   0  0  0  0  0  0  0  0  0  0  0  0
   -0.3629    1.2486   -0.1324 C   0  0  0  0  0  0  0  0  0  0  0  0
    0.6731    0.2981   -0.1704 C   0  0  0  0  0  0  0  0  0  0  0  0
    1.8846    0.7572   -0.5422 O   0  0  0  0  0  0  0  0  0  0  0  0
    2.9954   -0.1347   -0.6028 C   0  0  0  0  0  0  0  0  0  0  0  0
    0.4319   -1.0611    0.1688 C   0  0  0  0  0  0  0  0  0  0  0  0
   -0.8381   -1.4355    0.5406 C   0  0  0  0  0  0  0  0  0  0  0  0
   -3.0833    2.2900    0.2124 H   0  0  0  0  0  0  0  0  0  0  0  0
   -0.0877    2.2641   -0.4105 H   0  0  0  0  0  0  0  0  0  0  0  0
    3.8438    0.4722   -0.9192 H   0  0  0  0  0  0  0  0  0  0  0  0
    2.8280   -0.9335   -1.3343 H   0  0  0  0  0  0  0  0  0  0  0  0
    3.2108   -0.5729    0.3786 H   0  0  0  0  0  0  0  0  0  0  0  0
    1.2236   -1.7987    0.1396 H   0  0  0  0  0  0  0  0  0  0  0  0
   -1.0661   -2.4631    0.8097 H   0  0  0  0  0  0  0  0  0  0  0  0
   -5.2564    2.5085    0.3009 S   0  0  0  0  0  0  0  0  0  0  0  0
   -5.4651    2.5099    2.1495 C   0  0  0  0  0  0  0  0  0  0  0  0
   -6.1734    3.5032   -0.2256 O   0  0  0  0  0  0  0  0  0  0  0  0
   -5.3329    1.1032   -0.0967 O   0  0  0  0  0  0  0  0  0  0  0  0
   -3.7782    3.0528    0.1877 O   0  0  0  0  0  0  0  0  0  0  0  0
   -5.2865    3.7329    2.6446 F   0  0  0  0  0  0  0  0  0  0  0  0
   -6.6909    2.0815    2.4564 F   0  0  0  0  0  0  0  0  0  0  0  0
   -4.5633    1.6783    2.6979 F   0  0  0  0  0  0  0  0  0  0  0  0
  1  2  1  0  0  0  0
  2  3  1  0  0  0  0
  4  1  2  0  0  0  0
  5  4  1  0  0  0  0
  6  5  2  0  0  0  0
  6  9  1  0  0  0  0
  7  6  1  0  0  0  0
  8  7  1  0  0  0  0
  8 15  1  0  0  0  0
  9 10  2  0  0  0  0
 10  1  1  0  0  0  0
 10 17  1  0  0  0  0
 12  5  1  0  0  0  0
 13  8  1  0  0  0  0
 14  8  1  0  0  0  0
 16  9  1  0  0  0  0
 18 19  1  0  0  0  0
 19 24  1  0  0  0  0
 19 23  1  0  0  0  0
 19 25  1  0  0  0  0
 20 18  2  0  0  0  0
 21 18  2  0  0  0  0
 22 11  1  0  0  0  0
 22 18  1  0  0  0  0
M  RAD  3   2   2   3   3   4   2
M  END
