Coordinates from ORCA-job 4-MeOPhN2+~TfO-_B3LYPG-6-31G_dp-CH-Scan-d09-49-n800
 OpenBabel11261919093D

 25 24  0  0  0  0  0  0  0  0999 V2000
   -1.5583   -0.3495    0.6569 C   0  0  0  0  0  0  0  0  0  0  0  0
   -2.8582   -0.6003    1.0378 N   0  0  0  0  0  0  0  0  0  0  0  0
   -3.9257   -0.7333    1.3577 N   0  0  0  0  0  0  0  0  0  0  0  0
   -1.2826    1.0264    0.4734 C   0  0  0  0  0  0  0  0  0  0  0  0
    0.0640    1.1957    0.0995 C   0  0  0  0  0  0  0  0  0  0  0  0
    0.9774    0.1427   -0.0641 C   0  0  0  0  0  0  0  0  0  0  0  0
    2.2347    0.4899   -0.4302 O   0  0  0  0  0  0  0  0  0  0  0  0
    3.2225   -0.5179   -0.6130 C   0  0  0  0  0  0  0  0  0  0  0  0
    0.5896   -1.2130    0.1458 C   0  0  0  0  0  0  0  0  0  0  0  0
   -0.7073   -1.4779    0.5167 C   0  0  0  0  0  0  0  0  0  0  0  0
   -4.3421    3.7026   -0.4975 H   0  0  0  0  0  0  0  0  0  0  0  0
    0.4641    2.1935   -0.0865 H   0  0  0  0  0  0  0  0  0  0  0  0
    4.1350    0.0079   -0.8959 H   0  0  0  0  0  0  0  0  0  0  0  0
    2.9455   -1.2147   -1.4131 H   0  0  0  0  0  0  0  0  0  0  0  0
    3.4030   -1.0792    0.3120 H   0  0  0  0  0  0  0  0  0  0  0  0
    1.2926   -2.0264    0.0185 H   0  0  0  0  0  0  0  0  0  0  0  0
   -1.0512   -2.4947    0.6914 H   0  0  0  0  0  0  0  0  0  0  0  0
   -5.9957    2.6263    0.3483 S   0  0  0  0  0  0  0  0  0  0  0  0
   -5.3949    2.4362    2.1043 C   0  0  0  0  0  0  0  0  0  0  0  0
   -7.3975    2.9846    0.4041 O   0  0  0  0  0  0  0  0  0  0  0  0
   -5.4840    1.4910   -0.4055 O   0  0  0  0  0  0  0  0  0  0  0  0
   -5.1760    3.9657   -0.0693 O   0  0  0  0  0  0  0  0  0  0  0  0
   -5.7432    3.5002    2.8215 F   0  0  0  0  0  0  0  0  0  0  0  0
   -5.9575    1.3417    2.6183 F   0  0  0  0  0  0  0  0  0  0  0  0
   -4.0701    2.3014    2.1061 F   0  0  0  0  0  0  0  0  0  0  0  0
  1  2  1  0  0  0  0
  2  3  1  0  0  0  0
  4  1  2  0  0  0  0
  5  4  1  0  0  0  0
  6  5  2  0  0  0  0
  6  9  1  0  0  0  0
  7  6  1  0  0  0  0
  8  7  1  0  0  0  0
  8 15  1  0  0  0  0
  9 10  2  0  0  0  0
 10  1  1  0  0  0  0
 10 17  1  0  0  0  0
 11 22  1  0  0  0  0
 12  5  1  0  0  0  0
 13  8  1  0  0  0  0
 14  8  1  0  0  0  0
 16  9  1  0  0  0  0
 18 20  2  0  0  0  0
 18 19  1  0  0  0  0
 19 25  1  0  0  0  0
 19 24  1  0  0  0  0
 19 23  1  0  0  0  0
 21 18  2  0  0  0  0
 22 18  1  0  0  0  0
M  RAD  3   2   2   3   3   4   2
M  END
