Coordinates from ORCA-job 4-MeOPhN2+~TfO-_B3LYPG-6-31G_dp-CH-Scan-d09-49-n800
 OpenBabel11261919093D

 25 24  0  0  0  0  0  0  0  0999 V2000
   -1.5206   -0.3391    0.6857 C   0  0  0  0  0  0  0  0  0  0  0  0
   -2.8317   -0.5725    1.0420 N   0  0  0  0  0  0  0  0  0  0  0  0
   -3.9069   -0.6839    1.3441 N   0  0  0  0  0  0  0  0  0  0  0  0
   -1.1977    1.0369    0.6292 C   0  0  0  0  0  0  0  0  0  0  0  0
    0.1545    1.1929    0.2690 C   0  0  0  0  0  0  0  0  0  0  0  0
    1.0298    0.1275    0.0071 C   0  0  0  0  0  0  0  0  0  0  0  0
    2.2991    0.4621   -0.3296 O   0  0  0  0  0  0  0  0  0  0  0  0
    3.2509   -0.5593   -0.6037 C   0  0  0  0  0  0  0  0  0  0  0  0
    0.5943   -1.2274    0.0925 C   0  0  0  0  0  0  0  0  0  0  0  0
   -0.7115   -1.4799    0.4404 C   0  0  0  0  0  0  0  0  0  0  0  0
   -4.6477    3.7384   -0.6846 H   0  0  0  0  0  0  0  0  0  0  0  0
    0.5898    2.1890    0.1755 H   0  0  0  0  0  0  0  0  0  0  0  0
    4.1814   -0.0429   -0.8416 H   0  0  0  0  0  0  0  0  0  0  0  0
    2.9503   -1.1727   -1.4618 H   0  0  0  0  0  0  0  0  0  0  0  0
    3.4112   -1.2067    0.2674 H   0  0  0  0  0  0  0  0  0  0  0  0
    1.2689   -2.0494   -0.1109 H   0  0  0  0  0  0  0  0  0  0  0  0
   -1.0919   -2.4956    0.5202 H   0  0  0  0  0  0  0  0  0  0  0  0
   -6.1165    2.5888    0.3738 S   0  0  0  0  0  0  0  0  0  0  0  0
   -5.3239    2.4999    2.0608 C   0  0  0  0  0  0  0  0  0  0  0  0
   -7.5271    2.8524    0.5667 O   0  0  0  0  0  0  0  0  0  0  0  0
   -5.6049    1.4693   -0.4043 O   0  0  0  0  0  0  0  0  0  0  0  0
   -5.4391    3.9655   -0.1652 O   0  0  0  0  0  0  0  0  0  0  0  0
   -5.6413    3.5802    2.7680 F   0  0  0  0  0  0  0  0  0  0  0  0
   -5.7818    1.4081    2.6753 F   0  0  0  0  0  0  0  0  0  0  0  0
   -4.0036    2.4172    1.9212 F   0  0  0  0  0  0  0  0  0  0  0  0
  1  2  1  0  0  0  0
  2  3  1  0  0  0  0
  4  1  1  0  0  0  0
  5  4  2  0  0  0  0
  6  9  2  0  0  0  0
  6  5  1  0  0  0  0
  7  6  1  0  0  0  0
  8  7  1  0  0  0  0
  8 15  1  0  0  0  0
  9 10  1  0  0  0  0
 10 17  1  0  0  0  0
 10  1  2  0  0  0  0
 11 22  1  0  0  0  0
 12  5  1  0  0  0  0
 13  8  1  0  0  0  0
 14  8  1  0  0  0  0
 16  9  1  0  0  0  0
 18 20  2  0  0  0  0
 18 19  1  0  0  0  0
 19 24  1  0  0  0  0
 19 23  1  0  0  0  0
 21 18  2  0  0  0  0
 22 18  1  0  0  0  0
 25 19  1  0  0  0  0
M  RAD  3   2   2   3   3   4   2
M  END
