Coordinates from ORCA-job 4-MeOPhN2+~TfO-_B3LYPG-6-31G_dp-CH-Scan-d09-49-n800
 OpenBabel11261919093D

 25 24  0  0  0  0  0  0  0  0999 V2000
   -1.4419   -0.2966    0.5901 C   0  0  0  0  0  0  0  0  0  0  0  0
   -2.7423   -0.5063    0.9924 N   0  0  0  0  0  0  0  0  0  0  0  0
   -3.8087   -0.6107    1.3263 N   0  0  0  0  0  0  0  0  0  0  0  0
   -1.1539    1.0562    0.2893 C   0  0  0  0  0  0  0  0  0  0  0  0
    0.1939    1.1822   -0.0964 C   0  0  0  0  0  0  0  0  0  0  0  0
    1.0988    0.1116   -0.1681 C   0  0  0  0  0  0  0  0  0  0  0  0
    2.3592    0.4164   -0.5590 O   0  0  0  0  0  0  0  0  0  0  0  0
    3.3390   -0.6110   -0.6561 C   0  0  0  0  0  0  0  0  0  0  0  0
    0.6993   -1.2180    0.1556 C   0  0  0  0  0  0  0  0  0  0  0  0
   -0.5997   -1.4399    0.5461 C   0  0  0  0  0  0  0  0  0  0  0  0
   -4.2248    3.5947   -0.1971 H   0  0  0  0  0  0  0  0  0  0  0  0
    0.6014    2.1571   -0.3670 H   0  0  0  0  0  0  0  0  0  0  0  0
    4.2558   -0.1178   -0.9808 H   0  0  0  0  0  0  0  0  0  0  0  0
    3.0568   -1.3696   -1.3959 H   0  0  0  0  0  0  0  0  0  0  0  0
    3.5148   -1.0943    0.3127 H   0  0  0  0  0  0  0  0  0  0  0  0
    1.3955   -2.0454    0.0998 H   0  0  0  0  0  0  0  0  0  0  0  0
   -0.9519   -2.4352    0.8061 H   0  0  0  0  0  0  0  0  0  0  0  0
   -6.0858    2.6931    0.3800 S   0  0  0  0  0  0  0  0  0  0  0  0
   -5.8077    2.4489    2.2077 C   0  0  0  0  0  0  0  0  0  0  0  0
   -7.4351    3.1904    0.2111 O   0  0  0  0  0  0  0  0  0  0  0  0
   -5.5739    1.5073   -0.2917 O   0  0  0  0  0  0  0  0  0  0  0  0
   -5.0775    3.9388    0.1231 O   0  0  0  0  0  0  0  0  0  0  0  0
   -6.1094    3.5625    2.8676 F   0  0  0  0  0  0  0  0  0  0  0  0
   -6.5892    1.4527    2.6202 F   0  0  0  0  0  0  0  0  0  0  0  0
   -4.5283    2.1318    2.4210 F   0  0  0  0  0  0  0  0  0  0  0  0
  1  2  1  0  0  0  0
  2  3  1  0  0  0  0
  4  1  2  0  0  0  0
  5  4  1  0  0  0  0
  6  5  2  0  0  0  0
  6  9  1  0  0  0  0
  7  6  1  0  0  0  0
  8  7  1  0  0  0  0
  8 15  1  0  0  0  0
  9 10  2  0  0  0  0
 10  1  1  0  0  0  0
 10 17  1  0  0  0  0
 11 22  1  0  0  0  0
 12  5  1  0  0  0  0
 13  8  1  0  0  0  0
 14  8  1  0  0  0  0
 16  9  1  0  0  0  0
 18 19  1  0  0  0  0
 19 25  1  0  0  0  0
 19 24  1  0  0  0  0
 19 23  1  0  0  0  0
 20 18  2  0  0  0  0
 21 18  2  0  0  0  0
 22 18  1  0  0  0  0
M  RAD  3   2   2   3   3   4   2
M  END
