Coordinates from ORCA-job 4-MeOPhN2+~TfO-_B3LYPG-6-31G_dp-CH-Scan-d09-49-n800
 OpenBabel11261919093D

 25 24  0  0  0  0  0  0  0  0999 V2000
   -1.4925   -0.3194    0.5749 C   0  0  0  0  0  0  0  0  0  0  0  0
   -2.7879   -0.5556    0.9760 N   0  0  0  0  0  0  0  0  0  0  0  0
   -3.8523   -0.6879    1.3059 N   0  0  0  0  0  0  0  0  0  0  0  0
   -1.2343    1.0316    0.2389 C   0  0  0  0  0  0  0  0  0  0  0  0
    0.1108    1.1808   -0.1458 C   0  0  0  0  0  0  0  0  0  0  0  0
    1.0423    0.1312   -0.1862 C   0  0  0  0  0  0  0  0  0  0  0  0
    2.2954    0.4564   -0.5822 O   0  0  0  0  0  0  0  0  0  0  0  0
    3.3007   -0.5486   -0.6502 C   0  0  0  0  0  0  0  0  0  0  0  0
    0.6744   -1.1982    0.1729 C   0  0  0  0  0  0  0  0  0  0  0  0
   -0.6204   -1.4411    0.5648 C   0  0  0  0  0  0  0  0  0  0  0  0
   -4.0249    3.4493   -0.1079 H   0  0  0  0  0  0  0  0  0  0  0  0
    0.4948    2.1578   -0.4412 H   0  0  0  0  0  0  0  0  0  0  0  0
    4.2050   -0.0419   -0.9889 H   0  0  0  0  0  0  0  0  0  0  0  0
    3.0379   -1.3345   -1.3682 H   0  0  0  0  0  0  0  0  0  0  0  0
    3.4881   -0.9994    0.3320 H   0  0  0  0  0  0  0  0  0  0  0  0
    1.3906   -2.0094    0.1423 H   0  0  0  0  0  0  0  0  0  0  0  0
   -0.9487   -2.4375    0.8507 H   0  0  0  0  0  0  0  0  0  0  0  0
   -5.9747    2.6877    0.3727 S   0  0  0  0  0  0  0  0  0  0  0  0
   -5.7941    2.4467    2.2130 C   0  0  0  0  0  0  0  0  0  0  0  0
   -7.2768    3.2768    0.1397 O   0  0  0  0  0  0  0  0  0  0  0  0
   -5.5231    1.4575   -0.2615 O   0  0  0  0  0  0  0  0  0  0  0  0
   -4.8725    3.8551    0.1487 O   0  0  0  0  0  0  0  0  0  0  0  0
   -6.0611    3.5816    2.8512 F   0  0  0  0  0  0  0  0  0  0  0  0
   -6.6477    1.4999    2.5983 F   0  0  0  0  0  0  0  0  0  0  0  0
   -4.5450    2.0601    2.4871 F   0  0  0  0  0  0  0  0  0  0  0  0
  1  2  1  0  0  0  0
  2  3  1  0  0  0  0
  4  1  2  0  0  0  0
  5  4  1  0  0  0  0
  6  5  2  0  0  0  0
  6  9  1  0  0  0  0
  7  6  1  0  0  0  0
  8  7  1  0  0  0  0
  8 15  1  0  0  0  0
  9 10  2  0  0  0  0
 10  1  1  0  0  0  0
 10 17  1  0  0  0  0
 11 22  1  0  0  0  0
 12  5  1  0  0  0  0
 13  8  1  0  0  0  0
 14  8  1  0  0  0  0
 16  9  1  0  0  0  0
 18 19  1  0  0  0  0
 19 25  1  0  0  0  0
 19 24  1  0  0  0  0
 19 23  1  0  0  0  0
 20 18  2  0  0  0  0
 21 18  2  0  0  0  0
 22 18  1  0  0  0  0
M  RAD  3   2   2   3   3   4   2
M  END
