Coordinates from ORCA-job 4-MeOPhN2+~TfO-_B3LYPG-6-31G_dp-CH-Scan-d09-49-n800
 OpenBabel11261919093D

 25 24  0  0  0  0  0  0  0  0999 V2000
   -1.7579   -0.4170    0.5211 C   0  0  0  0  0  0  0  0  0  0  0  0
   -3.0275   -0.7832    0.8922 N   0  0  0  0  0  0  0  0  0  0  0  0
   -4.0739   -1.0448    1.1961 N   0  0  0  0  0  0  0  0  0  0  0  0
   -1.5898    0.9492    0.1798 C   0  0  0  0  0  0  0  0  0  0  0  0
   -0.2615    1.2202   -0.1741 C   0  0  0  0  0  0  0  0  0  0  0  0
    0.7601    0.2547   -0.1838 C   0  0  0  0  0  0  0  0  0  0  0  0
    1.9853    0.6888   -0.5478 O   0  0  0  0  0  0  0  0  0  0  0  0
    3.0813   -0.2213   -0.5798 C   0  0  0  0  0  0  0  0  0  0  0  0
    0.4969   -1.0970    0.1741 C   0  0  0  0  0  0  0  0  0  0  0  0
   -0.7823   -1.4485    0.5349 C   0  0  0  0  0  0  0  0  0  0  0  0
   -3.3110    2.5652    0.1162 H   0  0  0  0  0  0  0  0  0  0  0  0
    0.0368    2.2261   -0.4654 H   0  0  0  0  0  0  0  0  0  0  0  0
    3.9438    0.3658   -0.8959 H   0  0  0  0  0  0  0  0  0  0  0  0
    2.9107   -1.0302   -1.2995 H   0  0  0  0  0  0  0  0  0  0  0  0
    3.2785   -0.6470    0.4111 H   0  0  0  0  0  0  0  0  0  0  0  0
    1.2793   -1.8449    0.1669 H   0  0  0  0  0  0  0  0  0  0  0  0
   -1.0287   -2.4686    0.8174 H   0  0  0  0  0  0  0  0  0  0  0  0
   -5.4590    2.5601    0.3342 S   0  0  0  0  0  0  0  0  0  0  0  0
   -5.5271    2.5075    2.1942 C   0  0  0  0  0  0  0  0  0  0  0  0
   -6.4762    3.4955   -0.1041 O   0  0  0  0  0  0  0  0  0  0  0  0
   -5.4309    1.1682   -0.1029 O   0  0  0  0  0  0  0  0  0  0  0  0
   -4.0335    3.2504    0.1297 O   0  0  0  0  0  0  0  0  0  0  0  0
   -5.4187    3.7325    2.7014 F   0  0  0  0  0  0  0  0  0  0  0  0
   -6.6884    1.9699    2.5694 F   0  0  0  0  0  0  0  0  0  0  0  0
   -4.5222    1.7473    2.6517 F   0  0  0  0  0  0  0  0  0  0  0  0
  1 10  1  0  0  0  0
  1  2  1  0  0  0  0
  2  3  1  0  0  0  0
  4  1  2  0  0  0  0
  5  4  1  0  0  0  0
  6  5  2  0  0  0  0
  6  9  1  0  0  0  0
  7  6  1  0  0  0  0
  8  7  1  0  0  0  0
  8 15  1  0  0  0  0
  9 10  2  0  0  0  0
 10 17  1  0  0  0  0
 11 22  1  0  0  0  0
 12  5  1  0  0  0  0
 13  8  1  0  0  0  0
 14  8  1  0  0  0  0
 16  9  1  0  0  0  0
 18 19  1  0  0  0  0
 19 24  1  0  0  0  0
 19 25  1  0  0  0  0
 19 23  1  0  0  0  0
 20 18  2  0  0  0  0
 21 18  2  0  0  0  0
 22 18  1  0  0  0  0
M  RAD  3   2   2   3   3   4   2
M  END
