Coordinates from ORCA-job 4-MeOPhN2+~TfO-_B3LYPG-6-31G_dp-CH-Scan-d09-49-n800
 OpenBabel11261919093D

 25 24  0  0  0  0  0  0  0  0999 V2000
   -1.5162   -0.3393    0.6635 C   0  0  0  0  0  0  0  0  0  0  0  0
   -2.8247   -0.5714    1.0287 N   0  0  0  0  0  0  0  0  0  0  0  0
   -3.8971   -0.6841    1.3401 N   0  0  0  0  0  0  0  0  0  0  0  0
   -1.2023    1.0365    0.5637 C   0  0  0  0  0  0  0  0  0  0  0  0
    0.1499    1.1903    0.2028 C   0  0  0  0  0  0  0  0  0  0  0  0
    1.0338    0.1233   -0.0209 C   0  0  0  0  0  0  0  0  0  0  0  0
    2.3023    0.4559   -0.3624 O   0  0  0  0  0  0  0  0  0  0  0  0
    3.2628   -0.5670   -0.5979 C   0  0  0  0  0  0  0  0  0  0  0  0
    0.6074   -1.2312    0.1064 C   0  0  0  0  0  0  0  0  0  0  0  0
   -0.6978   -1.4815    0.4578 C   0  0  0  0  0  0  0  0  0  0  0  0
   -4.6313    3.7818   -0.6403 H   0  0  0  0  0  0  0  0  0  0  0  0
    0.5785    2.1859    0.0781 H   0  0  0  0  0  0  0  0  0  0  0  0
    4.1915   -0.0519   -0.8456 H   0  0  0  0  0  0  0  0  0  0  0  0
    2.9722   -1.2092   -1.4381 H   0  0  0  0  0  0  0  0  0  0  0  0
    3.4214   -1.1855    0.2943 H   0  0  0  0  0  0  0  0  0  0  0  0
    1.2882   -2.0547   -0.0681 H   0  0  0  0  0  0  0  0  0  0  0  0
   -1.0713   -2.4969    0.5690 H   0  0  0  0  0  0  0  0  0  0  0  0
   -6.1106    2.6069    0.3753 S   0  0  0  0  0  0  0  0  0  0  0  0
   -5.3638    2.4866    2.0810 C   0  0  0  0  0  0  0  0  0  0  0  0
   -7.5267    2.8617    0.5390 O   0  0  0  0  0  0  0  0  0  0  0  0
   -5.5758    1.5044   -0.4108 O   0  0  0  0  0  0  0  0  0  0  0  0
   -5.4252    3.9961   -0.1189 O   0  0  0  0  0  0  0  0  0  0  0  0
   -5.6857    3.5623    2.7932 F   0  0  0  0  0  0  0  0  0  0  0  0
   -5.8542    1.3937    2.6675 F   0  0  0  0  0  0  0  0  0  0  0  0
   -4.0411    2.3863    1.9797 F   0  0  0  0  0  0  0  0  0  0  0  0
  1  2  1  0  0  0  0
  2  3  1  0  0  0  0
  4  1  1  0  0  0  0
  5  4  2  0  0  0  0
  6  9  2  0  0  0  0
  6  5  1  0  0  0  0
  7  6  1  0  0  0  0
  8  7  1  0  0  0  0
  8 15  1  0  0  0  0
  9 10  1  0  0  0  0
 10 17  1  0  0  0  0
 10  1  2  0  0  0  0
 11 22  1  0  0  0  0
 12  5  1  0  0  0  0
 13  8  1  0  0  0  0
 14  8  1  0  0  0  0
 16  9  1  0  0  0  0
 18 20  2  0  0  0  0
 18 19  1  0  0  0  0
 19 24  1  0  0  0  0
 19 23  1  0  0  0  0
 21 18  2  0  0  0  0
 22 18  1  0  0  0  0
 25 19  1  0  0  0  0
M  RAD  3   2   2   3   3   4   2
M  END
