Coordinates from ORCA-job 4-MeOPhN2+~TfO-_B3LYPG-6-31G_dp-CH-Scan-d09-49-n800
 OpenBabel11261919093D

 25 24  0  0  0  0  0  0  0  0999 V2000
   -1.7698   -0.4191    0.5241 C   0  0  0  0  0  0  0  0  0  0  0  0
   -3.0375   -0.7906    0.8959 N   0  0  0  0  0  0  0  0  0  0  0  0
   -4.0824   -1.0568    1.2005 N   0  0  0  0  0  0  0  0  0  0  0  0
   -1.6048    0.9480    0.1846 C   0  0  0  0  0  0  0  0  0  0  0  0
   -0.2779    1.2237   -0.1698 C   0  0  0  0  0  0  0  0  0  0  0  0
    0.7466    0.2611   -0.1817 C   0  0  0  0  0  0  0  0  0  0  0  0
    1.9700    0.6996   -0.5459 O   0  0  0  0  0  0  0  0  0  0  0  0
    3.0689   -0.2071   -0.5803 C   0  0  0  0  0  0  0  0  0  0  0  0
    0.4873   -1.0917    0.1741 C   0  0  0  0  0  0  0  0  0  0  0  0
   -0.7907   -1.4473    0.5354 C   0  0  0  0  0  0  0  0  0  0  0  0
   -3.2804    2.5249    0.1244 H   0  0  0  0  0  0  0  0  0  0  0  0
    0.0168    2.2310   -0.4596 H   0  0  0  0  0  0  0  0  0  0  0  0
    3.9293    0.3833   -0.8959 H   0  0  0  0  0  0  0  0  0  0  0  0
    2.9002   -1.0151   -1.3015 H   0  0  0  0  0  0  0  0  0  0  0  0
    3.2679   -0.6339    0.4097 H   0  0  0  0  0  0  0  0  0  0  0  0
    1.2718   -1.8375    0.1652 H   0  0  0  0  0  0  0  0  0  0  0  0
   -1.0339   -2.4684    0.8164 H   0  0  0  0  0  0  0  0  0  0  0  0
   -5.4314    2.5525    0.3298 S   0  0  0  0  0  0  0  0  0  0  0  0
   -5.5139    2.5080    2.1893 C   0  0  0  0  0  0  0  0  0  0  0  0
   -6.4347    3.4985   -0.1186 O   0  0  0  0  0  0  0  0  0  0  0  0
   -5.4207    1.1581   -0.1009 O   0  0  0  0  0  0  0  0  0  0  0  0
   -3.9967    3.2210    0.1326 O   0  0  0  0  0  0  0  0  0  0  0  0
   -5.3893    3.7330    2.6932 F   0  0  0  0  0  0  0  0  0  0  0  0
   -6.6860    1.9904    2.5589 F   0  0  0  0  0  0  0  0  0  0  0  0
   -4.5244    1.7336    2.6572 F   0  0  0  0  0  0  0  0  0  0  0  0
  1 10  1  0  0  0  0
  1  2  1  0  0  0  0
  2  3  1  0  0  0  0
  4  1  2  0  0  0  0
  5  4  1  0  0  0  0
  6  5  2  0  0  0  0
  6  9  1  0  0  0  0
  7  6  1  0  0  0  0
  8  7  1  0  0  0  0
  8 15  1  0  0  0  0
  9 10  2  0  0  0  0
 10 17  1  0  0  0  0
 11 22  1  0  0  0  0
 12  5  1  0  0  0  0
 13  8  1  0  0  0  0
 14  8  1  0  0  0  0
 16  9  1  0  0  0  0
 18 19  1  0  0  0  0
 19 24  1  0  0  0  0
 19 25  1  0  0  0  0
 19 23  1  0  0  0  0
 20 18  2  0  0  0  0
 21 18  2  0  0  0  0
 22 18  1  0  0  0  0
M  RAD  3   2   2   3   3   4   2
M  END
