Coordinates from ORCA-job 4-MeOPhN2+~TfO-_B3LYPG-6-31G_dp-CH-Scan-d09-49-n800
 OpenBabel11261919093D

 25 24  0  0  0  0  0  0  0  0999 V2000
   -1.4872   -0.3177    0.5760 C   0  0  0  0  0  0  0  0  0  0  0  0
   -2.7832   -0.5514    0.9770 N   0  0  0  0  0  0  0  0  0  0  0  0
   -3.8478   -0.6809    1.3071 N   0  0  0  0  0  0  0  0  0  0  0  0
   -1.2265    1.0333    0.2423 C   0  0  0  0  0  0  0  0  0  0  0  0
    0.1189    1.1804   -0.1424 C   0  0  0  0  0  0  0  0  0  0  0  0
    1.0481    0.1289   -0.1850 C   0  0  0  0  0  0  0  0  0  0  0  0
    2.3019    0.4523   -0.5807 O   0  0  0  0  0  0  0  0  0  0  0  0
    3.3050   -0.5548   -0.6508 C   0  0  0  0  0  0  0  0  0  0  0  0
    0.6775   -1.2003    0.1718 C   0  0  0  0  0  0  0  0  0  0  0  0
   -0.6176   -1.4413    0.5636 C   0  0  0  0  0  0  0  0  0  0  0  0
   -4.0438    3.4646   -0.1159 H   0  0  0  0  0  0  0  0  0  0  0  0
    0.5049    2.1572   -0.4362 H   0  0  0  0  0  0  0  0  0  0  0  0
    4.2103   -0.0494   -0.9887 H   0  0  0  0  0  0  0  0  0  0  0  0
    3.0404   -1.3387   -1.3703 H   0  0  0  0  0  0  0  0  0  0  0  0
    3.4916   -1.0078    0.3304 H   0  0  0  0  0  0  0  0  0  0  0  0
    1.3922   -2.0130    0.1395 H   0  0  0  0  0  0  0  0  0  0  0  0
   -0.9479   -2.4375    0.8478 H   0  0  0  0  0  0  0  0  0  0  0  0
   -5.9860    2.6893    0.3737 S   0  0  0  0  0  0  0  0  0  0  0  0
   -5.7969    2.4468    2.2130 C   0  0  0  0  0  0  0  0  0  0  0  0
   -7.2928    3.2702    0.1465 O   0  0  0  0  0  0  0  0  0  0  0  0
   -5.5283    1.4635   -0.2645 O   0  0  0  0  0  0  0  0  0  0  0  0
   -4.8921    3.8644    0.1475 O   0  0  0  0  0  0  0  0  0  0  0  0
   -6.0675    3.5795    2.8536 F   0  0  0  0  0  0  0  0  0  0  0  0
   -6.6441    1.4950    2.6001 F   0  0  0  0  0  0  0  0  0  0  0  0
   -4.5448    2.0664    2.4817 F   0  0  0  0  0  0  0  0  0  0  0  0
  1  2  1  0  0  0  0
  2  3  1  0  0  0  0
  4  1  2  0  0  0  0
  5  4  1  0  0  0  0
  6  5  2  0  0  0  0
  6  9  1  0  0  0  0
  7  6  1  0  0  0  0
  8  7  1  0  0  0  0
  8 15  1  0  0  0  0
  9 10  2  0  0  0  0
 10  1  1  0  0  0  0
 10 17  1  0  0  0  0
 11 22  1  0  0  0  0
 12  5  1  0  0  0  0
 13  8  1  0  0  0  0
 14  8  1  0  0  0  0
 16  9  1  0  0  0  0
 18 19  1  0  0  0  0
 19 25  1  0  0  0  0
 19 24  1  0  0  0  0
 19 23  1  0  0  0  0
 20 18  2  0  0  0  0
 21 18  2  0  0  0  0
 22 18  1  0  0  0  0
M  RAD  3   2   2   3   3   4   2
M  END
