Coordinates from ORCA-job 4-MeOPhN2+~TfO-_B3LYPG-6-31G_dp-CH-Scan-d09-49-n800
 OpenBabel11261919093D

 25 24  0  0  0  0  0  0  0  0999 V2000
   -1.5301   -0.3427    0.6623 C   0  0  0  0  0  0  0  0  0  0  0  0
   -2.8361   -0.5810    1.0321 N   0  0  0  0  0  0  0  0  0  0  0  0
   -3.9074   -0.6996    1.3450 N   0  0  0  0  0  0  0  0  0  0  0  0
   -1.2298    1.0337    0.5331 C   0  0  0  0  0  0  0  0  0  0  0  0
    0.1204    1.1933    0.1673 C   0  0  0  0  0  0  0  0  0  0  0  0
    1.0146    0.1308   -0.0358 C   0  0  0  0  0  0  0  0  0  0  0  0
    2.2789    0.4689   -0.3866 O   0  0  0  0  0  0  0  0  0  0  0  0
    3.2490   -0.5490   -0.6043 C   0  0  0  0  0  0  0  0  0  0  0  0
    0.6018   -1.2248    0.1207 C   0  0  0  0  0  0  0  0  0  0  0  0
   -0.7004   -1.4805    0.4794 C   0  0  0  0  0  0  0  0  0  0  0  0
   -4.5200    3.7458   -0.5905 H   0  0  0  0  0  0  0  0  0  0  0  0
    0.5388    2.1902    0.0211 H   0  0  0  0  0  0  0  0  0  0  0  0
    4.1719   -0.0297   -0.8645 H   0  0  0  0  0  0  0  0  0  0  0  0
    2.9626   -1.2103   -1.4309 H   0  0  0  0  0  0  0  0  0  0  0  0
    3.4158   -1.1481    0.2994 H   0  0  0  0  0  0  0  0  0  0  0  0
    1.2905   -2.0451   -0.0375 H   0  0  0  0  0  0  0  0  0  0  0  0
   -1.0633   -2.4970    0.6131 H   0  0  0  0  0  0  0  0  0  0  0  0
   -6.0740    2.6157    0.3655 S   0  0  0  0  0  0  0  0  0  0  0  0
   -5.3768    2.4671    2.0901 C   0  0  0  0  0  0  0  0  0  0  0  0
   -7.4843    2.9187    0.4908 O   0  0  0  0  0  0  0  0  0  0  0  0
   -5.5557    1.4952   -0.4067 O   0  0  0  0  0  0  0  0  0  0  0  0
   -5.3304    3.9822   -0.1062 O   0  0  0  0  0  0  0  0  0  0  0  0
   -5.7056    3.5385    2.8056 F   0  0  0  0  0  0  0  0  0  0  0  0
   -5.8940    1.3734    2.6513 F   0  0  0  0  0  0  0  0  0  0  0  0
   -4.0522    2.3533    2.0234 F   0  0  0  0  0  0  0  0  0  0  0  0
  1  2  1  0  0  0  0
  2  3  1  0  0  0  0
  4  1  1  0  0  0  0
  5  4  2  0  0  0  0
  6  9  2  0  0  0  0
  6  5  1  0  0  0  0
  7  6  1  0  0  0  0
  8  7  1  0  0  0  0
  8 15  1  0  0  0  0
  9 10  1  0  0  0  0
 10 17  1  0  0  0  0
 10  1  2  0  0  0  0
 11 22  1  0  0  0  0
 12  5  1  0  0  0  0
 13  8  1  0  0  0  0
 14  8  1  0  0  0  0
 16  9  1  0  0  0  0
 18 20  2  0  0  0  0
 18 19  1  0  0  0  0
 19 24  1  0  0  0  0
 19 23  1  0  0  0  0
 21 18  2  0  0  0  0
 22 18  1  0  0  0  0
 25 19  1  0  0  0  0
M  RAD  3   2   2   3   3   4   2
M  END
