Coordinates from ORCA-job 4-MeOPhN2+~TfO-_B3LYPG-6-31G_dp-CH-Scan-d09-49-n800
 OpenBabel11261919093D

 25 24  0  0  0  0  0  0  0  0999 V2000
   -1.7511   -0.4153    0.5195 C   0  0  0  0  0  0  0  0  0  0  0  0
   -3.0218   -0.7785    0.8904 N   0  0  0  0  0  0  0  0  0  0  0  0
   -4.0691   -1.0371    1.1940 N   0  0  0  0  0  0  0  0  0  0  0  0
   -1.5810    0.9503    0.1772 C   0  0  0  0  0  0  0  0  0  0  0  0
   -0.2519    1.2183   -0.1766 C   0  0  0  0  0  0  0  0  0  0  0  0
    0.7680    0.2510   -0.1849 C   0  0  0  0  0  0  0  0  0  0  0  0
    1.9942    0.6824   -0.5490 O   0  0  0  0  0  0  0  0  0  0  0  0
    3.0884   -0.2298   -0.5796 C   0  0  0  0  0  0  0  0  0  0  0  0
    0.5023   -1.1000    0.1742 C   0  0  0  0  0  0  0  0  0  0  0  0
   -0.7776   -1.4489    0.5349 C   0  0  0  0  0  0  0  0  0  0  0  0
   -3.3289    2.5890    0.1111 H   0  0  0  0  0  0  0  0  0  0  0  0
    0.0486    2.2234   -0.4688 H   0  0  0  0  0  0  0  0  0  0  0  0
    3.9522    0.3552   -0.8961 H   0  0  0  0  0  0  0  0  0  0  0  0
    2.9166   -1.0392   -1.2984 H   0  0  0  0  0  0  0  0  0  0  0  0
    3.2846   -0.6547    0.4119 H   0  0  0  0  0  0  0  0  0  0  0  0
    1.2835   -1.8492    0.1681 H   0  0  0  0  0  0  0  0  0  0  0  0
   -1.0260   -2.4683    0.8183 H   0  0  0  0  0  0  0  0  0  0  0  0
   -5.4749    2.5645    0.3366 S   0  0  0  0  0  0  0  0  0  0  0  0
   -5.5345    2.5066    2.1968 C   0  0  0  0  0  0  0  0  0  0  0  0
   -6.5004    3.4937   -0.0954 O   0  0  0  0  0  0  0  0  0  0  0  0
   -5.4366    1.1745   -0.1048 O   0  0  0  0  0  0  0  0  0  0  0  0
   -4.0551    3.2678    0.1280 O   0  0  0  0  0  0  0  0  0  0  0  0
   -5.4362    3.7313    2.7065 F   0  0  0  0  0  0  0  0  0  0  0  0
   -6.6888    1.9565    2.5751 F   0  0  0  0  0  0  0  0  0  0  0  0
   -4.5203    1.7553    2.6478 F   0  0  0  0  0  0  0  0  0  0  0  0
  1 10  1  0  0  0  0
  1  2  1  0  0  0  0
  2  3  1  0  0  0  0
  4  1  2  0  0  0  0
  5  4  1  0  0  0  0
  6  5  2  0  0  0  0
  6  9  1  0  0  0  0
  7  6  1  0  0  0  0
  8  7  1  0  0  0  0
  8 15  1  0  0  0  0
  9 10  2  0  0  0  0
 10 17  1  0  0  0  0
 11 22  1  0  0  0  0
 12  5  1  0  0  0  0
 13  8  1  0  0  0  0
 14  8  1  0  0  0  0
 16  9  1  0  0  0  0
 18 19  1  0  0  0  0
 19 24  1  0  0  0  0
 19 25  1  0  0  0  0
 19 23  1  0  0  0  0
 20 18  2  0  0  0  0
 21 18  2  0  0  0  0
 22 18  1  0  0  0  0
M  RAD  3   2   2   3   3   4   2
M  END
