Coordinates from ORCA-job 4-MeOPhN2+~TfO-_B3LYPG-6-31G_dp-CH-Scan-d09-49-n800
 OpenBabel11261919093D

 25 24  0  0  0  0  0  0  0  0999 V2000
   -2.0100   -0.2874    0.4771 C   0  0  0  0  0  0  0  0  0  0  0  0
   -3.3205   -0.6673    0.6611 N   0  0  0  0  0  0  0  0  0  0  0  0
   -4.3377   -1.1060    0.8395 N   0  0  0  0  0  0  0  0  0  0  0  0
   -1.6020    1.0290    0.7782 C   0  0  0  0  0  0  0  0  0  0  0  0
   -0.2688    1.3377    0.6058 C   0  0  0  0  0  0  0  0  0  0  0  0
    0.6469    0.3766    0.1271 C   0  0  0  0  0  0  0  0  0  0  0  0
    1.9115    0.8023   -0.0086 O   0  0  0  0  0  0  0  0  0  0  0  0
    2.9103   -0.0953   -0.4999 C   0  0  0  0  0  0  0  0  0  0  0  0
    0.2135   -0.9321   -0.1716 C   0  0  0  0  0  0  0  0  0  0  0  0
   -1.1174   -1.2675    0.0108 C   0  0  0  0  0  0  0  0  0  0  0  0
   -2.2051    1.6366    1.0716 H   0  0  0  0  0  0  0  0  0  0  0  0
    0.0978    2.3341    0.8244 H   0  0  0  0  0  0  0  0  0  0  0  0
    3.8354    0.4798   -0.5202 H   0  0  0  0  0  0  0  0  0  0  0  0
    2.6696   -0.4368   -1.5122 H   0  0  0  0  0  0  0  0  0  0  0  0
    3.0292   -0.9564    0.1665 H   0  0  0  0  0  0  0  0  0  0  0  0
    0.9030   -1.6802   -0.5400 H   0  0  0  0  0  0  0  0  0  0  0  0
   -1.4725   -2.2675   -0.2114 H   0  0  0  0  0  0  0  0  0  0  0  0
   -5.4377    1.8703    0.3704 S   0  0  0  0  0  0  0  0  0  0  0  0
   -4.9996    2.9493    1.8192 C   0  0  0  0  0  0  0  0  0  0  0  0
   -6.4127    2.6498   -0.3928 O   0  0  0  0  0  0  0  0  0  0  0  0
   -5.9461    0.6274    1.0237 O   0  0  0  0  0  0  0  0  0  0  0  0
   -4.1072    1.6576   -0.2723 O   0  0  0  0  0  0  0  0  0  0  0  0
   -4.5296    4.1365    1.4129 F   0  0  0  0  0  0  0  0  0  0  0  0
   -6.0459    3.1534    2.6235 F   0  0  0  0  0  0  0  0  0  0  0  0
   -4.0203    2.3548    2.5542 F   0  0  0  0  0  0  0  0  0  0  0  0
  1  2  1  0  0  0  0
  1  4  2  0  0  0  0
  2  3  1  0  0  0  0
  4 11  1  0  0  0  0
  5  4  1  0  0  0  0
  5 12  1  0  0  0  0
  6  5  2  0  0  0  0
  7  6  1  0  0  0  0
  8  7  1  0  0  0  0
  8 15  1  0  0  0  0
  9 10  2  0  0  0  0
  9  6  1  0  0  0  0
 10  1  1  0  0  0  0
 13  8  1  0  0  0  0
 14  8  1  0  0  0  0
 16  9  1  0  0  0  0
 17 10  1  0  0  0  0
 18 21  1  0  0  0  0
 18 19  1  0  0  0  0
 19 25  1  0  0  0  0
 19 24  1  0  0  0  0
 20 18  2  0  0  0  0
 22 18  2  0  0  0  0
 23 19  1  0  0  0  0
M  RAD  3   2   2   3   3  21   2
M  END
