Coordinates from ORCA-job 4-MeOPhN2+~TfO-_B3LYPG-6-31G_dp-CH-Scan-d09-49-n800
 OpenBabel11261919093D

 25 24  0  0  0  0  0  0  0  0999 V2000
   -1.4947   -0.3455    0.6827 C   0  0  0  0  0  0  0  0  0  0  0  0
   -2.8110   -0.5719    1.0244 N   0  0  0  0  0  0  0  0  0  0  0  0
   -3.8896   -0.6785    1.3165 N   0  0  0  0  0  0  0  0  0  0  0  0
   -1.1563    1.0274    0.6621 C   0  0  0  0  0  0  0  0  0  0  0  0
    0.1996    1.1776    0.3130 C   0  0  0  0  0  0  0  0  0  0  0  0
    1.0646    0.1093    0.0302 C   0  0  0  0  0  0  0  0  0  0  0  0
    2.3391    0.4378   -0.2926 O   0  0  0  0  0  0  0  0  0  0  0  0
    3.2808   -0.5872   -0.5875 C   0  0  0  0  0  0  0  0  0  0  0  0
    0.6143   -1.2426    0.0820 C   0  0  0  0  0  0  0  0  0  0  0  0
   -0.6963   -1.4891    0.4159 C   0  0  0  0  0  0  0  0  0  0  0  0
   -4.8692    3.8175   -0.7690 H   0  0  0  0  0  0  0  0  0  0  0  0
    0.6460    2.1710    0.2462 H   0  0  0  0  0  0  0  0  0  0  0  0
    4.2170   -0.0753   -0.8126 H   0  0  0  0  0  0  0  0  0  0  0  0
    2.9756   -1.1784   -1.4594 H   0  0  0  0  0  0  0  0  0  0  0  0
    3.4330   -1.2551    0.2694 H   0  0  0  0  0  0  0  0  0  0  0  0
    1.2816   -2.0668   -0.1360 H   0  0  0  0  0  0  0  0  0  0  0  0
   -1.0878   -2.5024    0.4695 H   0  0  0  0  0  0  0  0  0  0  0  0
   -6.1922    2.5978    0.3985 S   0  0  0  0  0  0  0  0  0  0  0  0
   -5.2991    2.5300    2.0357 C   0  0  0  0  0  0  0  0  0  0  0  0
   -7.5991    2.7962    0.6778 O   0  0  0  0  0  0  0  0  0  0  0  0
   -5.6786    1.5099   -0.4226 O   0  0  0  0  0  0  0  0  0  0  0  0
   -5.6072    4.0084   -0.1640 O   0  0  0  0  0  0  0  0  0  0  0  0
   -5.6084    3.5995    2.7627 F   0  0  0  0  0  0  0  0  0  0  0  0
   -5.6904    1.4242    2.6713 F   0  0  0  0  0  0  0  0  0  0  0  0
   -3.9873    2.4853    1.8229 F   0  0  0  0  0  0  0  0  0  0  0  0
  1  2  1  0  0  0  0
  2  3  1  0  0  0  0
  4  1  1  0  0  0  0
  5  4  2  0  0  0  0
  6  9  2  0  0  0  0
  6  5  1  0  0  0  0
  7  6  1  0  0  0  0
  8  7  1  0  0  0  0
  8 15  1  0  0  0  0
  9 10  1  0  0  0  0
 10 17  1  0  0  0  0
 10  1  2  0  0  0  0
 11 22  1  0  0  0  0
 12  5  1  0  0  0  0
 13  8  1  0  0  0  0
 14  8  1  0  0  0  0
 16  9  1  0  0  0  0
 18 20  2  0  0  0  0
 18 19  1  0  0  0  0
 19 24  1  0  0  0  0
 19 23  1  0  0  0  0
 21 18  2  0  0  0  0
 22 18  1  0  0  0  0
 25 19  1  0  0  0  0
M  RAD  3   2   2   3   3   4   2
M  END
