Coordinates from ORCA-job 4-MeOPhN2+~TfO-_B3LYPG-6-31G_dp-CH-Scan-d09-49-n800
 OpenBabel11261919093D

 25 24  0  0  0  0  0  0  0  0999 V2000
   -1.9993   -0.2852    0.4779 C   0  0  0  0  0  0  0  0  0  0  0  0
   -3.3106   -0.6621    0.6631 N   0  0  0  0  0  0  0  0  0  0  0  0
   -4.3267   -1.1029    0.8428 N   0  0  0  0  0  0  0  0  0  0  0  0
   -1.5830    1.0264    0.7874 C   0  0  0  0  0  0  0  0  0  0  0  0
   -0.2491    1.3318    0.6154 C   0  0  0  0  0  0  0  0  0  0  0  0
    0.6609    0.3695    0.1279 C   0  0  0  0  0  0  0  0  0  0  0  0
    1.9273    0.7898   -0.0070 O   0  0  0  0  0  0  0  0  0  0  0  0
    2.9206   -0.1088   -0.5077 C   0  0  0  0  0  0  0  0  0  0  0  0
    0.2206   -0.9350   -0.1796 C   0  0  0  0  0  0  0  0  0  0  0  0
   -1.1114   -1.2659    0.0028 C   0  0  0  0  0  0  0  0  0  0  0  0
   -2.2349    1.6849    1.1068 H   0  0  0  0  0  0  0  0  0  0  0  0
    0.1229    2.3247    0.8404 H   0  0  0  0  0  0  0  0  0  0  0  0
    3.8483    0.4620   -0.5262 H   0  0  0  0  0  0  0  0  0  0  0  0
    2.6757   -0.4414   -1.5220 H   0  0  0  0  0  0  0  0  0  0  0  0
    3.0371   -0.9756    0.1517 H   0  0  0  0  0  0  0  0  0  0  0  0
    0.9059   -1.6837   -0.5546 H   0  0  0  0  0  0  0  0  0  0  0  0
   -1.4712   -2.2628   -0.2256 H   0  0  0  0  0  0  0  0  0  0  0  0
   -5.4466    1.8668    0.3733 S   0  0  0  0  0  0  0  0  0  0  0  0
   -5.0271    2.9596    1.8175 C   0  0  0  0  0  0  0  0  0  0  0  0
   -6.4263    2.6325   -0.3980 O   0  0  0  0  0  0  0  0  0  0  0  0
   -5.9444    0.6225    1.0318 O   0  0  0  0  0  0  0  0  0  0  0  0
   -4.1116    1.6642   -0.2635 O   0  0  0  0  0  0  0  0  0  0  0  0
   -4.5754    4.1520    1.4059 F   0  0  0  0  0  0  0  0  0  0  0  0
   -6.0778    3.1509    2.6193 F   0  0  0  0  0  0  0  0  0  0  0  0
   -4.0396    2.3848    2.5574 F   0  0  0  0  0  0  0  0  0  0  0  0
  1  2  1  0  0  0  0
  1  4  2  0  0  0  0
  2  3  1  0  0  0  0
  4 11  1  0  0  0  0
  5  4  1  0  0  0  0
  5 12  1  0  0  0  0
  6  5  2  0  0  0  0
  7  6  1  0  0  0  0
  8  7  1  0  0  0  0
  8 15  1  0  0  0  0
  9 10  2  0  0  0  0
  9  6  1  0  0  0  0
 10  1  1  0  0  0  0
 13  8  1  0  0  0  0
 14  8  1  0  0  0  0
 16  9  1  0  0  0  0
 17 10  1  0  0  0  0
 18 21  1  0  0  0  0
 18 19  1  0  0  0  0
 19 25  1  0  0  0  0
 19 24  1  0  0  0  0
 20 18  2  0  0  0  0
 22 18  2  0  0  0  0
 23 19  1  0  0  0  0
M  RAD  3   2   2   3   3  21   2
M  END
