Coordinates from ORCA-job 4-MeOPhN2+~TfO-_B3LYPG-6-31G_dp-CH-Scan-d09-49-n800
 OpenBabel11261919093D

 25 24  0  0  0  0  0  0  0  0999 V2000
   -1.5018   -0.3415    0.6786 C   0  0  0  0  0  0  0  0  0  0  0  0
   -2.8150   -0.5691    1.0302 N   0  0  0  0  0  0  0  0  0  0  0  0
   -3.8911   -0.6771    1.3308 N   0  0  0  0  0  0  0  0  0  0  0  0
   -1.1701    1.0328    0.6339 C   0  0  0  0  0  0  0  0  0  0  0  0
    0.1843    1.1833    0.2793 C   0  0  0  0  0  0  0  0  0  0  0  0
    1.0540    0.1144    0.0130 C   0  0  0  0  0  0  0  0  0  0  0  0
    2.3264    0.4436   -0.3172 O   0  0  0  0  0  0  0  0  0  0  0  0
    3.2728   -0.5817   -0.5952 C   0  0  0  0  0  0  0  0  0  0  0  0
    0.6102   -1.2385    0.0880 C   0  0  0  0  0  0  0  0  0  0  0  0
   -0.6984   -1.4856    0.4291 C   0  0  0  0  0  0  0  0  0  0  0  0
   -4.7835    3.8089   -0.7244 H   0  0  0  0  0  0  0  0  0  0  0  0
    0.6258    2.1774    0.1945 H   0  0  0  0  0  0  0  0  0  0  0  0
    4.2069   -0.0693   -0.8280 H   0  0  0  0  0  0  0  0  0  0  0  0
    2.9707   -1.1882   -1.4577 H   0  0  0  0  0  0  0  0  0  0  0  0
    3.4275   -1.2352    0.2723 H   0  0  0  0  0  0  0  0  0  0  0  0
    1.2808   -2.0631   -0.1180 H   0  0  0  0  0  0  0  0  0  0  0  0
   -1.0851   -2.4996    0.5004 H   0  0  0  0  0  0  0  0  0  0  0  0
   -6.1565    2.5942    0.3863 S   0  0  0  0  0  0  0  0  0  0  0  0
   -5.3264    2.5182    2.0557 C   0  0  0  0  0  0  0  0  0  0  0  0
   -7.5721    2.7970    0.6144 O   0  0  0  0  0  0  0  0  0  0  0  0
   -5.6179    1.5069   -0.4185 O   0  0  0  0  0  0  0  0  0  0  0  0
   -5.5447    4.0031   -0.1495 O   0  0  0  0  0  0  0  0  0  0  0  0
   -5.6460    3.5945    2.7683 F   0  0  0  0  0  0  0  0  0  0  0  0
   -5.7580    1.4204    2.6786 F   0  0  0  0  0  0  0  0  0  0  0  0
   -4.0085    2.4534    1.8923 F   0  0  0  0  0  0  0  0  0  0  0  0
  1  2  1  0  0  0  0
  2  3  1  0  0  0  0
  4  1  1  0  0  0  0
  5  4  2  0  0  0  0
  6  9  2  0  0  0  0
  6  5  1  0  0  0  0
  7  6  1  0  0  0  0
  8  7  1  0  0  0  0
  8 15  1  0  0  0  0
  9 10  1  0  0  0  0
 10 17  1  0  0  0  0
 10  1  2  0  0  0  0
 11 22  1  0  0  0  0
 12  5  1  0  0  0  0
 13  8  1  0  0  0  0
 14  8  1  0  0  0  0
 16  9  1  0  0  0  0
 18 20  2  0  0  0  0
 18 19  1  0  0  0  0
 19 24  1  0  0  0  0
 19 23  1  0  0  0  0
 21 18  2  0  0  0  0
 22 18  1  0  0  0  0
 25 19  1  0  0  0  0
M  RAD  3   2   2   3   3   4   2
M  END
