Coordinates from ORCA-job 4-MeOPhN2+~TfO-_B3LYPG-6-31G_dp-CH-Scan-d09-49-n800
 OpenBabel11261919093D

 25 24  0  0  0  0  0  0  0  0999 V2000
   -1.7648   -0.4183    0.5228 C   0  0  0  0  0  0  0  0  0  0  0  0
   -3.0333   -0.7876    0.8942 N   0  0  0  0  0  0  0  0  0  0  0  0
   -4.0788   -1.0520    1.1986 N   0  0  0  0  0  0  0  0  0  0  0  0
   -1.5985    0.9484    0.1826 C   0  0  0  0  0  0  0  0  0  0  0  0
   -0.2710    1.2222   -0.1716 C   0  0  0  0  0  0  0  0  0  0  0  0
    0.7523    0.2584   -0.1826 C   0  0  0  0  0  0  0  0  0  0  0  0
    1.9764    0.6951   -0.5467 O   0  0  0  0  0  0  0  0  0  0  0  0
    3.0741   -0.2130   -0.5801 C   0  0  0  0  0  0  0  0  0  0  0  0
    0.4914   -1.0940    0.1740 C   0  0  0  0  0  0  0  0  0  0  0  0
   -0.7872   -1.4479    0.5351 C   0  0  0  0  0  0  0  0  0  0  0  0
   -3.2932    2.5416    0.1211 H   0  0  0  0  0  0  0  0  0  0  0  0
    0.0252    2.2290   -0.4620 H   0  0  0  0  0  0  0  0  0  0  0  0
    3.9354    0.3761   -0.8958 H   0  0  0  0  0  0  0  0  0  0  0  0
    2.9046   -1.0213   -1.3007 H   0  0  0  0  0  0  0  0  0  0  0  0
    3.2724   -0.6394    0.4103 H   0  0  0  0  0  0  0  0  0  0  0  0
    1.2750   -1.8406    0.1658 H   0  0  0  0  0  0  0  0  0  0  0  0
   -1.0317   -2.4686    0.8167 H   0  0  0  0  0  0  0  0  0  0  0  0
   -5.4429    2.5556    0.3317 S   0  0  0  0  0  0  0  0  0  0  0  0
   -5.5195    2.5080    2.1914 C   0  0  0  0  0  0  0  0  0  0  0  0
   -6.4520    3.4972   -0.1127 O   0  0  0  0  0  0  0  0  0  0  0  0
   -5.4250    1.1621   -0.1015 O   0  0  0  0  0  0  0  0  0  0  0  0
   -4.0120    3.2331    0.1314 O   0  0  0  0  0  0  0  0  0  0  0  0
   -5.4015    3.7331    2.6965 F   0  0  0  0  0  0  0  0  0  0  0  0
   -6.6873    1.9823    2.5634 F   0  0  0  0  0  0  0  0  0  0  0  0
   -4.5238    1.7393    2.6552 F   0  0  0  0  0  0  0  0  0  0  0  0
  1 10  1  0  0  0  0
  1  2  1  0  0  0  0
  2  3  1  0  0  0  0
  4  1  2  0  0  0  0
  5  4  1  0  0  0  0
  6  5  2  0  0  0  0
  6  9  1  0  0  0  0
  7  6  1  0  0  0  0
  8  7  1  0  0  0  0
  8 15  1  0  0  0  0
  9 10  2  0  0  0  0
 10 17  1  0  0  0  0
 11 22  1  0  0  0  0
 12  5  1  0  0  0  0
 13  8  1  0  0  0  0
 14  8  1  0  0  0  0
 16  9  1  0  0  0  0
 18 19  1  0  0  0  0
 19 24  1  0  0  0  0
 19 25  1  0  0  0  0
 19 23  1  0  0  0  0
 20 18  2  0  0  0  0
 21 18  2  0  0  0  0
 22 18  1  0  0  0  0
M  RAD  3   2   2   3   3   4   2
M  END
