Coordinates from ORCA-job 4-MeOPhN2+~TfO-_B3LYPG-6-31G_dp-CH-Scan-d09-49-n800
 OpenBabel11261919093D

 25 24  0  0  0  0  0  0  0  0999 V2000
   -1.5087   -0.3415    0.6789 C   0  0  0  0  0  0  0  0  0  0  0  0
   -2.8208   -0.5718    1.0330 N   0  0  0  0  0  0  0  0  0  0  0  0
   -3.8960   -0.6826    1.3355 N   0  0  0  0  0  0  0  0  0  0  0  0
   -1.1807    1.0333    0.6279 C   0  0  0  0  0  0  0  0  0  0  0  0
    0.1729    1.1862    0.2715 C   0  0  0  0  0  0  0  0  0  0  0  0
    1.0455    0.1188    0.0090 C   0  0  0  0  0  0  0  0  0  0  0  0
    2.3167    0.4502   -0.3234 O   0  0  0  0  0  0  0  0  0  0  0  0
    3.2659   -0.5736   -0.5977 C   0  0  0  0  0  0  0  0  0  0  0  0
    0.6054   -1.2350    0.0897 C   0  0  0  0  0  0  0  0  0  0  0  0
   -0.7022   -1.4842    0.4331 C   0  0  0  0  0  0  0  0  0  0  0  0
   -4.7326    3.7883   -0.7094 H   0  0  0  0  0  0  0  0  0  0  0  0
    0.6115    2.1812    0.1822 H   0  0  0  0  0  0  0  0  0  0  0  0
    4.1986   -0.0596   -0.8323 H   0  0  0  0  0  0  0  0  0  0  0  0
    2.9653   -1.1841   -1.4578 H   0  0  0  0  0  0  0  0  0  0  0  0
    3.4223   -1.2234    0.2723 H   0  0  0  0  0  0  0  0  0  0  0  0
    1.2780   -2.0586   -0.1138 H   0  0  0  0  0  0  0  0  0  0  0  0
   -1.0859   -2.4990    0.5089 H   0  0  0  0  0  0  0  0  0  0  0  0
   -6.1411    2.5930    0.3821 S   0  0  0  0  0  0  0  0  0  0  0  0
   -5.3284    2.5122    2.0602 C   0  0  0  0  0  0  0  0  0  0  0  0
   -7.5556    2.8184    0.5943 O   0  0  0  0  0  0  0  0  0  0  0  0
   -5.6097    1.4925   -0.4101 O   0  0  0  0  0  0  0  0  0  0  0  0
   -5.5065    3.9912   -0.1554 O   0  0  0  0  0  0  0  0  0  0  0  0
   -5.6482    3.5907    2.7694 F   0  0  0  0  0  0  0  0  0  0  0  0
   -5.7728    1.4173    2.6791 F   0  0  0  0  0  0  0  0  0  0  0  0
   -4.0088    2.4390    1.9100 F   0  0  0  0  0  0  0  0  0  0  0  0
  1  2  1  0  0  0  0
  2  3  1  0  0  0  0
  4  1  1  0  0  0  0
  5  4  2  0  0  0  0
  6  9  2  0  0  0  0
  6  5  1  0  0  0  0
  7  6  1  0  0  0  0
  8  7  1  0  0  0  0
  8 15  1  0  0  0  0
  9 10  1  0  0  0  0
 10 17  1  0  0  0  0
 10  1  2  0  0  0  0
 11 22  1  0  0  0  0
 12  5  1  0  0  0  0
 13  8  1  0  0  0  0
 14  8  1  0  0  0  0
 16  9  1  0  0  0  0
 18 20  2  0  0  0  0
 18 19  1  0  0  0  0
 19 24  1  0  0  0  0
 19 23  1  0  0  0  0
 21 18  2  0  0  0  0
 22 18  1  0  0  0  0
 25 19  1  0  0  0  0
M  RAD  3   2   2   3   3   4   2
M  END
