Coordinates from ORCA-job 4-MeOPhN2+~TfO-_B3LYPG-6-31G_dp-CH-Scan-d09-49-n800
 OpenBabel11261919093D

 25 24  0  0  0  0  0  0  0  0999 V2000
   -1.5202   -0.3392    0.6855 C   0  0  0  0  0  0  0  0  0  0  0  0
   -2.8313   -0.5725    1.0417 N   0  0  0  0  0  0  0  0  0  0  0  0
   -3.9065   -0.6840    1.3439 N   0  0  0  0  0  0  0  0  0  0  0  0
   -1.1970    1.0367    0.6291 C   0  0  0  0  0  0  0  0  0  0  0  0
    0.1552    1.1927    0.2690 C   0  0  0  0  0  0  0  0  0  0  0  0
    1.0304    0.1272    0.0071 C   0  0  0  0  0  0  0  0  0  0  0  0
    2.2998    0.4617   -0.3294 O   0  0  0  0  0  0  0  0  0  0  0  0
    3.2515   -0.5598   -0.6035 C   0  0  0  0  0  0  0  0  0  0  0  0
    0.5948   -1.2277    0.0924 C   0  0  0  0  0  0  0  0  0  0  0  0
   -0.7111   -1.4800    0.4402 C   0  0  0  0  0  0  0  0  0  0  0  0
   -4.6508    3.7412   -0.6861 H   0  0  0  0  0  0  0  0  0  0  0  0
    0.5906    2.1887    0.1756 H   0  0  0  0  0  0  0  0  0  0  0  0
    4.1821   -0.0435   -0.8412 H   0  0  0  0  0  0  0  0  0  0  0  0
    2.9509   -1.1731   -1.4616 H   0  0  0  0  0  0  0  0  0  0  0  0
    3.4117   -1.2072    0.2676 H   0  0  0  0  0  0  0  0  0  0  0  0
    1.2693   -2.0498   -0.1110 H   0  0  0  0  0  0  0  0  0  0  0  0
   -1.0915   -2.4957    0.5198 H   0  0  0  0  0  0  0  0  0  0  0  0
   -6.1174    2.5890    0.3741 S   0  0  0  0  0  0  0  0  0  0  0  0
   -5.3241    2.5001    2.0610 C   0  0  0  0  0  0  0  0  0  0  0  0
   -7.5280    2.8521    0.5676 O   0  0  0  0  0  0  0  0  0  0  0  0
   -5.6054    1.4695   -0.4040 O   0  0  0  0  0  0  0  0  0  0  0  0
   -5.4417    3.9666   -0.1655 O   0  0  0  0  0  0  0  0  0  0  0  0
   -5.6417    3.5803    2.7683 F   0  0  0  0  0  0  0  0  0  0  0  0
   -5.7816    1.4082    2.6754 F   0  0  0  0  0  0  0  0  0  0  0  0
   -4.0036    2.4176    1.9213 F   0  0  0  0  0  0  0  0  0  0  0  0
  1  2  1  0  0  0  0
  2  3  1  0  0  0  0
  4  1  1  0  0  0  0
  5  4  2  0  0  0  0
  6  9  2  0  0  0  0
  6  5  1  0  0  0  0
  7  6  1  0  0  0  0
  8  7  1  0  0  0  0
  8 15  1  0  0  0  0
  9 10  1  0  0  0  0
 10 17  1  0  0  0  0
 10  1  2  0  0  0  0
 11 22  1  0  0  0  0
 12  5  1  0  0  0  0
 13  8  1  0  0  0  0
 14  8  1  0  0  0  0
 16  9  1  0  0  0  0
 18 20  2  0  0  0  0
 18 19  1  0  0  0  0
 19 24  1  0  0  0  0
 19 23  1  0  0  0  0
 21 18  2  0  0  0  0
 22 18  1  0  0  0  0
 25 19  1  0  0  0  0
M  RAD  3   2   2   3   3   4   2
M  END
