Coordinates from ORCA-job 4-MeOPhN2+~TfO-_B3LYPG-6-31G_dp-CH-Scan-d09-49-n800
 OpenBabel11261919093D

 25 24  0  0  0  0  0  0  0  0999 V2000
   -1.8283   -0.4237    0.5507 C   0  0  0  0  0  0  0  0  0  0  0  0
   -3.0855   -0.8189    0.9308 N   0  0  0  0  0  0  0  0  0  0  0  0
   -4.1223   -1.1057    1.2421 N   0  0  0  0  0  0  0  0  0  0  0  0
   -1.6751    0.9484    0.2239 C   0  0  0  0  0  0  0  0  0  0  0  0
   -0.3574    1.2456   -0.1388 C   0  0  0  0  0  0  0  0  0  0  0  0
    0.6785    0.2949   -0.1714 C   0  0  0  0  0  0  0  0  0  0  0  0
    1.8914    0.7527   -0.5410 O   0  0  0  0  0  0  0  0  0  0  0  0
    3.0020   -0.1396   -0.5962 C   0  0  0  0  0  0  0  0  0  0  0  0
    0.4363   -1.0636    0.1708 C   0  0  0  0  0  0  0  0  0  0  0  0
   -0.8348   -1.4369    0.5397 C   0  0  0  0  0  0  0  0  0  0  0  0
   -3.1055    2.3119    0.1955 H   0  0  0  0  0  0  0  0  0  0  0  0
   -0.0806    2.2603   -0.4189 H   0  0  0  0  0  0  0  0  0  0  0  0
    3.8516    0.4661   -0.9116 H   0  0  0  0  0  0  0  0  0  0  0  0
    2.8365   -0.9402   -1.3261 H   0  0  0  0  0  0  0  0  0  0  0  0
    3.2144   -0.5757    0.3869 H   0  0  0  0  0  0  0  0  0  0  0  0
    1.2281   -1.8012    0.1458 H   0  0  0  0  0  0  0  0  0  0  0  0
   -1.0638   -2.4637    0.8110 H   0  0  0  0  0  0  0  0  0  0  0  0
   -5.2751    2.5124    0.3041 S   0  0  0  0  0  0  0  0  0  0  0  0
   -5.4619    2.5089    2.1553 C   0  0  0  0  0  0  0  0  0  0  0  0
   -6.2020    3.5041   -0.2099 O   0  0  0  0  0  0  0  0  0  0  0  0
   -5.3462    1.1081   -0.0964 O   0  0  0  0  0  0  0  0  0  0  0  0
   -3.8003    3.0678    0.1746 O   0  0  0  0  0  0  0  0  0  0  0  0
   -5.2838    3.7320    2.6502 F   0  0  0  0  0  0  0  0  0  0  0  0
   -6.6822    2.0740    2.4747 F   0  0  0  0  0  0  0  0  0  0  0  0
   -4.5500    1.6809    2.6911 F   0  0  0  0  0  0  0  0  0  0  0  0
  1  2  1  0  0  0  0
  2  3  1  0  0  0  0
  4  1  2  0  0  0  0
  5  4  1  0  0  0  0
  6  5  2  0  0  0  0
  6  9  1  0  0  0  0
  7  6  1  0  0  0  0
  8  7  1  0  0  0  0
  8 15  1  0  0  0  0
  9 10  2  0  0  0  0
 10  1  1  0  0  0  0
 10 17  1  0  0  0  0
 12  5  1  0  0  0  0
 13  8  1  0  0  0  0
 14  8  1  0  0  0  0
 16  9  1  0  0  0  0
 18 19  1  0  0  0  0
 19 24  1  0  0  0  0
 19 23  1  0  0  0  0
 19 25  1  0  0  0  0
 20 18  2  0  0  0  0
 21 18  2  0  0  0  0
 22 11  1  0  0  0  0
 22 18  1  0  0  0  0
M  RAD  3   2   2   3   3   4   2
M  END
