Coordinates from ORCA-job 4-MeOPhN2+~TfO-_B3LYPG-6-31G_dp-CH-Scan-d09-49-n800
 OpenBabel11261919093D

 25 24  0  0  0  0  0  0  0  0999 V2000
   -1.5228   -0.3411    0.6617 C   0  0  0  0  0  0  0  0  0  0  0  0
   -2.8299   -0.5762    1.0294 N   0  0  0  0  0  0  0  0  0  0  0  0
   -3.9017   -0.6919    1.3420 N   0  0  0  0  0  0  0  0  0  0  0  0
   -1.2158    1.0351    0.5463 C   0  0  0  0  0  0  0  0  0  0  0  0
    0.1356    1.1916    0.1833 C   0  0  0  0  0  0  0  0  0  0  0  0
    1.0248    0.1267   -0.0290 C   0  0  0  0  0  0  0  0  0  0  0  0
    2.2913    0.4619   -0.3749 O   0  0  0  0  0  0  0  0  0  0  0  0
    3.2568   -0.5586   -0.6002 C   0  0  0  0  0  0  0  0  0  0  0  0
    0.6052   -1.2284    0.1135 C   0  0  0  0  0  0  0  0  0  0  0  0
   -0.6986   -1.4813    0.4683 C   0  0  0  0  0  0  0  0  0  0  0  0
   -4.5779    3.7660   -0.6152 H   0  0  0  0  0  0  0  0  0  0  0  0
    0.5590    2.1879    0.0473 H   0  0  0  0  0  0  0  0  0  0  0  0
    4.1827   -0.0415   -0.8539 H   0  0  0  0  0  0  0  0  0  0  0  0
    2.9688   -1.2109   -1.4335 H   0  0  0  0  0  0  0  0  0  0  0  0
    3.4190   -1.1669    0.2982 H   0  0  0  0  0  0  0  0  0  0  0  0
    1.2900   -2.0504   -0.0522 H   0  0  0  0  0  0  0  0  0  0  0  0
   -1.0668   -2.4973    0.5912 H   0  0  0  0  0  0  0  0  0  0  0  0
   -6.0934    2.6117    0.3710 S   0  0  0  0  0  0  0  0  0  0  0  0
   -5.3709    2.4771    2.0861 C   0  0  0  0  0  0  0  0  0  0  0  0
   -7.5072    2.8887    0.5159 O   0  0  0  0  0  0  0  0  0  0  0  0
   -5.5655    1.5014   -0.4089 O   0  0  0  0  0  0  0  0  0  0  0  0
   -5.3802    3.9908   -0.1115 O   0  0  0  0  0  0  0  0  0  0  0  0
   -5.6957    3.5508    2.8001 F   0  0  0  0  0  0  0  0  0  0  0  0
   -5.8753    1.3840    2.6601 F   0  0  0  0  0  0  0  0  0  0  0  0
   -4.0473    2.3696    2.0019 F   0  0  0  0  0  0  0  0  0  0  0  0
  1  2  1  0  0  0  0
  2  3  1  0  0  0  0
  4  1  1  0  0  0  0
  5  4  2  0  0  0  0
  6  9  2  0  0  0  0
  6  5  1  0  0  0  0
  7  6  1  0  0  0  0
  8  7  1  0  0  0  0
  8 15  1  0  0  0  0
  9 10  1  0  0  0  0
 10 17  1  0  0  0  0
 10  1  2  0  0  0  0
 11 22  1  0  0  0  0
 12  5  1  0  0  0  0
 13  8  1  0  0  0  0
 14  8  1  0  0  0  0
 16  9  1  0  0  0  0
 18 20  2  0  0  0  0
 18 19  1  0  0  0  0
 19 24  1  0  0  0  0
 19 23  1  0  0  0  0
 21 18  2  0  0  0  0
 22 18  1  0  0  0  0
 25 19  1  0  0  0  0
M  RAD  3   2   2   3   3   4   2
M  END
