Coordinates from ORCA-job 4-MeOPhN2+~TfO-_B3LYPG-6-31G_dp-CH-Scan-d09-49-n800
 OpenBabel11261919093D

 25 24  0  0  0  0  0  0  0  0999 V2000
   -1.7956   -0.4239    0.5263 C   0  0  0  0  0  0  0  0  0  0  0  0
   -3.0602   -0.8062    0.8964 N   0  0  0  0  0  0  0  0  0  0  0  0
   -4.1031   -1.0809    1.1996 N   0  0  0  0  0  0  0  0  0  0  0  0
   -1.6364    0.9454    0.1915 C   0  0  0  0  0  0  0  0  0  0  0  0
   -0.3118    1.2307   -0.1614 C   0  0  0  0  0  0  0  0  0  0  0  0
    0.7186    0.2742   -0.1768 C   0  0  0  0  0  0  0  0  0  0  0  0
    1.9387    0.7218   -0.5389 O   0  0  0  0  0  0  0  0  0  0  0  0
    3.0435   -0.1778   -0.5771 C   0  0  0  0  0  0  0  0  0  0  0  0
    0.4667   -1.0810    0.1737 C   0  0  0  0  0  0  0  0  0  0  0  0
   -0.8095   -1.4450    0.5334 C   0  0  0  0  0  0  0  0  0  0  0  0
   -3.2212    2.4435    0.1359 H   0  0  0  0  0  0  0  0  0  0  0  0
   -0.0241    2.2411   -0.4471 H   0  0  0  0  0  0  0  0  0  0  0  0
    3.9001    0.4196   -0.8898 H   0  0  0  0  0  0  0  0  0  0  0  0
    2.8798   -0.9835   -1.3019 H   0  0  0  0  0  0  0  0  0  0  0  0
    3.2449   -0.6075    0.4112 H   0  0  0  0  0  0  0  0  0  0  0  0
    1.2552   -1.8224    0.1620 H   0  0  0  0  0  0  0  0  0  0  0  0
   -1.0468   -2.4686    0.8104 H   0  0  0  0  0  0  0  0  0  0  0  0
   -5.3771    2.5337    0.3225 S   0  0  0  0  0  0  0  0  0  0  0  0
   -5.4803    2.5117    2.1810 C   0  0  0  0  0  0  0  0  0  0  0  0
   -6.3565    3.4960   -0.1449 O   0  0  0  0  0  0  0  0  0  0  0  0
   -5.3998    1.1335   -0.0908 O   0  0  0  0  0  0  0  0  0  0  0  0
   -3.9275    3.1605    0.1329 O   0  0  0  0  0  0  0  0  0  0  0  0
   -5.3282    3.7383    2.6743 F   0  0  0  0  0  0  0  0  0  0  0  0
   -6.6691    2.0291    2.5458 F   0  0  0  0  0  0  0  0  0  0  0  0
   -4.5160    1.7166    2.6687 F   0  0  0  0  0  0  0  0  0  0  0  0
  1 10  1  0  0  0  0
  1  2  1  0  0  0  0
  2  3  1  0  0  0  0
  4  1  2  0  0  0  0
  5  4  1  0  0  0  0
  6  5  2  0  0  0  0
  6  9  1  0  0  0  0
  7  6  1  0  0  0  0
  8  7  1  0  0  0  0
  8 15  1  0  0  0  0
  9 10  2  0  0  0  0
 10 17  1  0  0  0  0
 12  5  1  0  0  0  0
 13  8  1  0  0  0  0
 14  8  1  0  0  0  0
 16  9  1  0  0  0  0
 18 19  1  0  0  0  0
 19 24  1  0  0  0  0
 19 25  1  0  0  0  0
 19 23  1  0  0  0  0
 20 18  2  0  0  0  0
 21 18  2  0  0  0  0
 22 11  1  0  0  0  0
 22 18  1  0  0  0  0
M  RAD  3   2   2   3   3   4   2
M  END
