Coordinates from ORCA-job 4-MeOPhN2+~TfO-_B3LYPG-6-31G_dp-CH-Scan-d09-49-n800
 OpenBabel11261919093D

 25 24  0  0  0  0  0  0  0  0999 V2000
   -1.7540   -0.4161    0.5202 C   0  0  0  0  0  0  0  0  0  0  0  0
   -3.0243   -0.7805    0.8911 N   0  0  0  0  0  0  0  0  0  0  0  0
   -4.0712   -1.0404    1.1949 N   0  0  0  0  0  0  0  0  0  0  0  0
   -1.5848    0.9498    0.1783 C   0  0  0  0  0  0  0  0  0  0  0  0
   -0.2560    1.2191   -0.1755 C   0  0  0  0  0  0  0  0  0  0  0  0
    0.7646    0.2526   -0.1844 C   0  0  0  0  0  0  0  0  0  0  0  0
    1.9904    0.6852   -0.5485 O   0  0  0  0  0  0  0  0  0  0  0  0
    3.0854   -0.2261   -0.5796 C   0  0  0  0  0  0  0  0  0  0  0  0
    0.5000   -1.0987    0.1742 C   0  0  0  0  0  0  0  0  0  0  0  0
   -0.7796   -1.4488    0.5349 C   0  0  0  0  0  0  0  0  0  0  0  0
   -3.3213    2.5788    0.1133 H   0  0  0  0  0  0  0  0  0  0  0  0
    0.0436    2.2246   -0.4673 H   0  0  0  0  0  0  0  0  0  0  0  0
    3.9486    0.3598   -0.8960 H   0  0  0  0  0  0  0  0  0  0  0  0
    2.9141   -1.0353   -1.2989 H   0  0  0  0  0  0  0  0  0  0  0  0
    3.2820   -0.6514    0.4116 H   0  0  0  0  0  0  0  0  0  0  0  0
    1.2817   -1.8474    0.1676 H   0  0  0  0  0  0  0  0  0  0  0  0
   -1.0271   -2.4684    0.8179 H   0  0  0  0  0  0  0  0  0  0  0  0
   -5.4681    2.5626    0.3356 S   0  0  0  0  0  0  0  0  0  0  0  0
   -5.5313    2.5070    2.1957 C   0  0  0  0  0  0  0  0  0  0  0  0
   -6.4900    3.4945   -0.0991 O   0  0  0  0  0  0  0  0  0  0  0  0
   -5.4342    1.1718   -0.1040 O   0  0  0  0  0  0  0  0  0  0  0  0
   -4.0458    3.2603    0.1287 O   0  0  0  0  0  0  0  0  0  0  0  0
   -5.4286    3.7319    2.7043 F   0  0  0  0  0  0  0  0  0  0  0  0
   -6.6887    1.9623    2.5727 F   0  0  0  0  0  0  0  0  0  0  0  0
   -4.5211    1.7519    2.6495 F   0  0  0  0  0  0  0  0  0  0  0  0
  1 10  1  0  0  0  0
  1  2  1  0  0  0  0
  2  3  1  0  0  0  0
  4  1  2  0  0  0  0
  5  4  1  0  0  0  0
  6  5  2  0  0  0  0
  6  9  1  0  0  0  0
  7  6  1  0  0  0  0
  8  7  1  0  0  0  0
  8 15  1  0  0  0  0
  9 10  2  0  0  0  0
 10 17  1  0  0  0  0
 11 22  1  0  0  0  0
 12  5  1  0  0  0  0
 13  8  1  0  0  0  0
 14  8  1  0  0  0  0
 16  9  1  0  0  0  0
 18 19  1  0  0  0  0
 19 24  1  0  0  0  0
 19 25  1  0  0  0  0
 19 23  1  0  0  0  0
 20 18  2  0  0  0  0
 21 18  2  0  0  0  0
 22 18  1  0  0  0  0
M  RAD  3   2   2   3   3   4   2
M  END
