Coordinates from ORCA-job 4-MeOPhN2+~TfO-_B3LYPG-6-31G_dp-CH-Scan-d09-49-n800
 OpenBabel11261919093D

 25 24  0  0  0  0  0  0  0  0999 V2000
   -1.5292   -0.3426    0.6620 C   0  0  0  0  0  0  0  0  0  0  0  0
   -2.8353   -0.5805    1.0316 N   0  0  0  0  0  0  0  0  0  0  0  0
   -3.9066   -0.6988    1.3445 N   0  0  0  0  0  0  0  0  0  0  0  0
   -1.2281    1.0338    0.5343 C   0  0  0  0  0  0  0  0  0  0  0  0
    0.1223    1.1930    0.1689 C   0  0  0  0  0  0  0  0  0  0  0  0
    1.0160    0.1302   -0.0351 C   0  0  0  0  0  0  0  0  0  0  0  0
    2.2806    0.4679   -0.3852 O   0  0  0  0  0  0  0  0  0  0  0  0
    3.2501   -0.5503   -0.6037 C   0  0  0  0  0  0  0  0  0  0  0  0
    0.6024   -1.2254    0.1199 C   0  0  0  0  0  0  0  0  0  0  0  0
   -0.7000   -1.4807    0.4780 C   0  0  0  0  0  0  0  0  0  0  0  0
   -4.5276    3.7490   -0.5936 H   0  0  0  0  0  0  0  0  0  0  0  0
    0.5413    2.1898    0.0238 H   0  0  0  0  0  0  0  0  0  0  0  0
    4.1734   -0.0313   -0.8631 H   0  0  0  0  0  0  0  0  0  0  0  0
    2.9636   -1.2106   -1.4311 H   0  0  0  0  0  0  0  0  0  0  0  0
    3.4164   -1.1504    0.2995 H   0  0  0  0  0  0  0  0  0  0  0  0
    1.2906   -2.0459   -0.0391 H   0  0  0  0  0  0  0  0  0  0  0  0
   -1.0635   -2.4971    0.6106 H   0  0  0  0  0  0  0  0  0  0  0  0
   -6.0765    2.6154    0.3663 S   0  0  0  0  0  0  0  0  0  0  0  0
   -5.3763    2.4684    2.0897 C   0  0  0  0  0  0  0  0  0  0  0  0
   -7.4874    2.9150    0.4940 O   0  0  0  0  0  0  0  0  0  0  0  0
   -5.5568    1.4963   -0.4069 O   0  0  0  0  0  0  0  0  0  0  0  0
   -5.3370    3.9837   -0.1067 O   0  0  0  0  0  0  0  0  0  0  0  0
   -5.7045    3.5399    2.8051 F   0  0  0  0  0  0  0  0  0  0  0  0
   -5.8920    1.3747    2.6524 F   0  0  0  0  0  0  0  0  0  0  0  0
   -4.0517    2.3552    2.0210 F   0  0  0  0  0  0  0  0  0  0  0  0
  1  2  1  0  0  0  0
  2  3  1  0  0  0  0
  4  1  1  0  0  0  0
  5  4  2  0  0  0  0
  6  9  2  0  0  0  0
  6  5  1  0  0  0  0
  7  6  1  0  0  0  0
  8  7  1  0  0  0  0
  8 15  1  0  0  0  0
  9 10  1  0  0  0  0
 10 17  1  0  0  0  0
 10  1  2  0  0  0  0
 11 22  1  0  0  0  0
 12  5  1  0  0  0  0
 13  8  1  0  0  0  0
 14  8  1  0  0  0  0
 16  9  1  0  0  0  0
 18 20  2  0  0  0  0
 18 19  1  0  0  0  0
 19 24  1  0  0  0  0
 19 23  1  0  0  0  0
 21 18  2  0  0  0  0
 22 18  1  0  0  0  0
 25 19  1  0  0  0  0
M  RAD  3   2   2   3   3   4   2
M  END
