Coordinates from ORCA-job 4-MeOPhN2+~TfO-_B3LYPG-6-31G_dp-CH-Scan-d09-49-n800
 OpenBabel11261919093D

 25 24  0  0  0  0  0  0  0  0999 V2000
   -1.8296   -0.4192    0.5693 C   0  0  0  0  0  0  0  0  0  0  0  0
   -3.0838   -0.8151    0.9578 N   0  0  0  0  0  0  0  0  0  0  0  0
   -4.1183   -1.1023    1.2760 N   0  0  0  0  0  0  0  0  0  0  0  0
   -1.6751    0.9543    0.2491 C   0  0  0  0  0  0  0  0  0  0  0  0
   -0.3606    1.2521   -0.1227 C   0  0  0  0  0  0  0  0  0  0  0  0
    0.6733    0.2996   -0.1698 C   0  0  0  0  0  0  0  0  0  0  0  0
    1.8835    0.7575   -0.5468 O   0  0  0  0  0  0  0  0  0  0  0  0
    2.9921   -0.1364   -0.6174 C   0  0  0  0  0  0  0  0  0  0  0  0
    0.4311   -1.0602    0.1662 C   0  0  0  0  0  0  0  0  0  0  0  0
   -0.8376   -1.4333    0.5437 C   0  0  0  0  0  0  0  0  0  0  0  0
   -3.0645    2.2813    0.2372 H   0  0  0  0  0  0  0  0  0  0  0  0
   -0.0852    2.2681   -0.3989 H   0  0  0  0  0  0  0  0  0  0  0  0
    3.8396    0.4697   -0.9376 H   0  0  0  0  0  0  0  0  0  0  0  0
    2.8181   -0.9326   -1.3501 H   0  0  0  0  0  0  0  0  0  0  0  0
    3.2130   -0.5780    0.3613 H   0  0  0  0  0  0  0  0  0  0  0  0
    1.2211   -1.7993    0.1300 H   0  0  0  0  0  0  0  0  0  0  0  0
   -1.0661   -2.4613    0.8107 H   0  0  0  0  0  0  0  0  0  0  0  0
   -5.2404    2.5065    0.2976 S   0  0  0  0  0  0  0  0  0  0  0  0
   -5.4840    2.5086    2.1418 C   0  0  0  0  0  0  0  0  0  0  0  0
   -6.1473    3.5015   -0.2458 O   0  0  0  0  0  0  0  0  0  0  0  0
   -5.3120    1.1010   -0.1010 O   0  0  0  0  0  0  0  0  0  0  0  0
   -3.7601    3.0473    0.2131 O   0  0  0  0  0  0  0  0  0  0  0  0
   -5.3128    3.7314    2.6402 F   0  0  0  0  0  0  0  0  0  0  0  0
   -6.7161    2.0823    2.4259 F   0  0  0  0  0  0  0  0  0  0  0  0
   -4.5942    1.6757    2.7075 F   0  0  0  0  0  0  0  0  0  0  0  0
  1  2  1  0  0  0  0
  2  3  1  0  0  0  0
  4  1  2  0  0  0  0
  5  4  1  0  0  0  0
  6  5  2  0  0  0  0
  6  9  1  0  0  0  0
  7  6  1  0  0  0  0
  8  7  1  0  0  0  0
  8 15  1  0  0  0  0
  9 10  2  0  0  0  0
 10  1  1  0  0  0  0
 10 17  1  0  0  0  0
 12  5  1  0  0  0  0
 13  8  1  0  0  0  0
 14  8  1  0  0  0  0
 16  9  1  0  0  0  0
 18 19  1  0  0  0  0
 19 24  1  0  0  0  0
 19 23  1  0  0  0  0
 19 25  1  0  0  0  0
 20 18  2  0  0  0  0
 21 18  2  0  0  0  0
 22 11  1  0  0  0  0
 22 18  1  0  0  0  0
M  RAD  3   2   2   3   3   4   2
M  END
