Coordinates from ORCA-job 4-MeOPhN2+~TfO-_B3LYPG-6-31G_dp-CH-Scan-d09-49-n800
 OpenBabel11261919093D

 25 24  0  0  0  0  0  0  0  0999 V2000
   -1.7300   -0.4102    0.5154 C   0  0  0  0  0  0  0  0  0  0  0  0
   -3.0038   -0.7637    0.8860 N   0  0  0  0  0  0  0  0  0  0  0  0
   -4.0532   -1.0143    1.1894 N   0  0  0  0  0  0  0  0  0  0  0  0
   -1.5540    0.9537    0.1699 C   0  0  0  0  0  0  0  0  0  0  0  0
   -0.2224    1.2129   -0.1835 C   0  0  0  0  0  0  0  0  0  0  0  0
    0.7919    0.2401   -0.1882 C   0  0  0  0  0  0  0  0  0  0  0  0
    2.0214    0.6634   -0.5525 O   0  0  0  0  0  0  0  0  0  0  0  0
    3.1101   -0.2552   -0.5795 C   0  0  0  0  0  0  0  0  0  0  0  0
    0.5189   -1.1088    0.1745 C   0  0  0  0  0  0  0  0  0  0  0  0
   -0.7631   -1.4500    0.5350 C   0  0  0  0  0  0  0  0  0  0  0  0
   -3.3834    2.6589    0.0953 H   0  0  0  0  0  0  0  0  0  0  0  0
    0.0846    2.2154   -0.4784 H   0  0  0  0  0  0  0  0  0  0  0  0
    3.9777    0.3236   -0.8972 H   0  0  0  0  0  0  0  0  0  0  0  0
    2.9342   -1.0659   -1.2959 H   0  0  0  0  0  0  0  0  0  0  0  0
    3.3032   -0.6784    0.4134 H   0  0  0  0  0  0  0  0  0  0  0  0
    1.2962   -1.8621    0.1711 H   0  0  0  0  0  0  0  0  0  0  0  0
   -1.0173   -2.4673    0.8209 H   0  0  0  0  0  0  0  0  0  0  0  0
   -5.5230    2.5777    0.3439 S   0  0  0  0  0  0  0  0  0  0  0  0
   -5.5579    2.5040    2.2044 C   0  0  0  0  0  0  0  0  0  0  0  0
   -6.5726    3.4881   -0.0689 O   0  0  0  0  0  0  0  0  0  0  0  0
   -5.4546    1.1939   -0.1112 O   0  0  0  0  0  0  0  0  0  0  0  0
   -4.1209    3.3187    0.1238 O   0  0  0  0  0  0  0  0  0  0  0  0
   -5.4837    3.7271    2.7216 F   0  0  0  0  0  0  0  0  0  0  0  0
   -6.6939    1.9228    2.5909 F   0  0  0  0  0  0  0  0  0  0  0  0
   -4.5203    1.7747    2.6369 F   0  0  0  0  0  0  0  0  0  0  0  0
  1 10  1  0  0  0  0
  1  2  1  0  0  0  0
  2  3  1  0  0  0  0
  4  1  2  0  0  0  0
  5  4  1  0  0  0  0
  6  5  2  0  0  0  0
  6  9  1  0  0  0  0
  7  6  1  0  0  0  0
  8  7  1  0  0  0  0
  8 15  1  0  0  0  0
  9 10  2  0  0  0  0
 10 17  1  0  0  0  0
 11 22  1  0  0  0  0
 12  5  1  0  0  0  0
 13  8  1  0  0  0  0
 14  8  1  0  0  0  0
 16  9  1  0  0  0  0
 18 19  1  0  0  0  0
 19 24  1  0  0  0  0
 19 25  1  0  0  0  0
 19 23  1  0  0  0  0
 20 18  2  0  0  0  0
 21 18  2  0  0  0  0
 22 18  1  0  0  0  0
M  RAD  3   2   2   3   3   4   2
M  END
