Coordinates from ORCA-job 4-MeOPhN2+~TfO-_B3LYPG-6-31G_dp-CH-Scan-d09-49-n800
 OpenBabel11261919093D

 25 24  0  0  0  0  0  0  0  0999 V2000
   -2.0375   -0.3461    0.2798 C   0  0  0  0  0  0  0  0  0  0  0  0
   -3.3387   -0.7218    0.4916 N   0  0  0  0  0  0  0  0  0  0  0  0
   -4.4305   -0.9304    0.6422 N   0  0  0  0  0  0  0  0  0  0  0  0
   -1.7721    0.9890   -0.0990 C   0  0  0  0  0  0  0  0  0  0  0  0
   -0.4520    1.3290   -0.3096 C   0  0  0  0  0  0  0  0  0  0  0  0
    0.5800    0.3788   -0.1509 C   0  0  0  0  0  0  0  0  0  0  0  0
    1.8204    0.8294   -0.3814 O   0  0  0  0  0  0  0  0  0  0  0  0
    2.9366   -0.0543   -0.2448 C   0  0  0  0  0  0  0  0  0  0  0  0
    0.2820   -0.9510    0.2292 C   0  0  0  0  0  0  0  0  0  0  0  0
   -1.0318   -1.3184    0.4456 C   0  0  0  0  0  0  0  0  0  0  0  0
   -2.7160    1.7936   -0.2120 H   0  0  0  0  0  0  0  0  0  0  0  0
   -0.1802    2.3378   -0.6005 H   0  0  0  0  0  0  0  0  0  0  0  0
    3.8147    0.5471   -0.4769 H   0  0  0  0  0  0  0  0  0  0  0  0
    2.8675   -0.8891   -0.9506 H   0  0  0  0  0  0  0  0  0  0  0  0
    3.0149   -0.4357    0.7788 H   0  0  0  0  0  0  0  0  0  0  0  0
    1.0666   -1.6855    0.3549 H   0  0  0  0  0  0  0  0  0  0  0  0
   -1.2871   -2.3310    0.7388 H   0  0  0  0  0  0  0  0  0  0  0  0
   -5.3659    2.4106    0.3919 S   0  0  0  0  0  0  0  0  0  0  0  0
   -4.8864    2.4105    2.1879 C   0  0  0  0  0  0  0  0  0  0  0  0
   -6.4469    3.3900    0.2798 O   0  0  0  0  0  0  0  0  0  0  0  0
   -5.7451    0.9841    0.1703 O   0  0  0  0  0  0  0  0  0  0  0  0
   -4.0782    2.7909   -0.2691 O   0  0  0  0  0  0  0  0  0  0  0  0
   -4.4410    3.6076    2.5828 F   0  0  0  0  0  0  0  0  0  0  0  0
   -5.9082    2.0528    2.9723 F   0  0  0  0  0  0  0  0  0  0  0  0
   -3.8809    1.5109    2.3863 F   0  0  0  0  0  0  0  0  0  0  0  0
  1 10  1  0  0  0  0
  1  2  1  0  0  0  0
  2  3  1  0  0  0  0
  4  1  2  0  0  0  0
  5  6  2  0  0  0  0
  5  4  1  0  0  0  0
  6  9  1  0  0  0  0
  7  8  1  0  0  0  0
  7  6  1  0  0  0  0
  8 15  1  0  0  0  0
  9 16  1  0  0  0  0
  9 10  2  0  0  0  0
 10 17  1  0  0  0  0
 11  4  1  0  0  0  0
 12  5  1  0  0  0  0
 13  8  1  0  0  0  0
 14  8  1  0  0  0  0
 18 19  1  0  0  0  0
 19 25  1  0  0  0  0
 19 23  1  0  0  0  0
 19 24  1  0  0  0  0
 20 18  1  0  0  0  0
 21 18  2  0  0  0  0
 22 18  2  0  0  0  0
M  RAD  3   2   2   3   3  20   2
M  END
