Coordinates from ORCA-job 4-MeOPhN2+~TfO-_B3LYPG-6-31G_dp-CH-Scan-d09-49-n800
 OpenBabel11261919093D

 25 24  0  0  0  0  0  0  0  0999 V2000
   -1.5227   -0.3386    0.6870 C   0  0  0  0  0  0  0  0  0  0  0  0
   -2.8338   -0.5720    1.0440 N   0  0  0  0  0  0  0  0  0  0  0  0
   -3.9091   -0.6817    1.3464 N   0  0  0  0  0  0  0  0  0  0  0  0
   -1.1999    1.0372    0.6308 C   0  0  0  0  0  0  0  0  0  0  0  0
    0.1520    1.1940    0.2700 C   0  0  0  0  0  0  0  0  0  0  0  0
    1.0274    0.1288    0.0075 C   0  0  0  0  0  0  0  0  0  0  0  0
    2.2964    0.4637   -0.3297 O   0  0  0  0  0  0  0  0  0  0  0  0
    3.2484   -0.5575   -0.6044 C   0  0  0  0  0  0  0  0  0  0  0  0
    0.5923   -1.2263    0.0930 C   0  0  0  0  0  0  0  0  0  0  0  0
   -0.7133   -1.4792    0.4414 C   0  0  0  0  0  0  0  0  0  0  0  0
   -4.6393    3.7359   -0.6821 H   0  0  0  0  0  0  0  0  0  0  0  0
    0.5870    2.1902    0.1768 H   0  0  0  0  0  0  0  0  0  0  0  0
    4.1786   -0.0407   -0.8426 H   0  0  0  0  0  0  0  0  0  0  0  0
    2.9476   -1.1708   -1.4624 H   0  0  0  0  0  0  0  0  0  0  0  0
    3.4093   -1.2048    0.2666 H   0  0  0  0  0  0  0  0  0  0  0  0
    1.2670   -2.0480   -0.1108 H   0  0  0  0  0  0  0  0  0  0  0  0
   -1.0933   -2.4951    0.5211 H   0  0  0  0  0  0  0  0  0  0  0  0
   -6.1129    2.5871    0.3722 S   0  0  0  0  0  0  0  0  0  0  0  0
   -5.3205    2.4972    2.0594 C   0  0  0  0  0  0  0  0  0  0  0  0
   -7.5229    2.8542    0.5648 O   0  0  0  0  0  0  0  0  0  0  0  0
   -5.6036    1.4660   -0.4050 O   0  0  0  0  0  0  0  0  0  0  0  0
   -5.4338    3.9626   -0.1675 O   0  0  0  0  0  0  0  0  0  0  0  0
   -5.6362    3.5780    2.7666 F   0  0  0  0  0  0  0  0  0  0  0  0
   -5.7803    1.4061    2.6739 F   0  0  0  0  0  0  0  0  0  0  0  0
   -4.0002    2.4125    1.9202 F   0  0  0  0  0  0  0  0  0  0  0  0
  1  2  1  0  0  0  0
  2  3  1  0  0  0  0
  4  1  1  0  0  0  0
  5  4  2  0  0  0  0
  6  9  2  0  0  0  0
  6  5  1  0  0  0  0
  7  6  1  0  0  0  0
  8  7  1  0  0  0  0
  8 15  1  0  0  0  0
  9 10  1  0  0  0  0
 10 17  1  0  0  0  0
 10  1  2  0  0  0  0
 11 22  1  0  0  0  0
 12  5  1  0  0  0  0
 13  8  1  0  0  0  0
 14  8  1  0  0  0  0
 16  9  1  0  0  0  0
 18 20  2  0  0  0  0
 18 19  1  0  0  0  0
 19 24  1  0  0  0  0
 19 23  1  0  0  0  0
 21 18  2  0  0  0  0
 22 18  1  0  0  0  0
 25 19  1  0  0  0  0
M  RAD  3   2   2   3   3   4   2
M  END
