Coordinates from ORCA-job 4-MeOPhN2+~TfO-_B3LYPG-6-31G_dp-CH-Scan-d09-49-n800
 OpenBabel11261919093D

 25 24  0  0  0  0  0  0  0  0999 V2000
   -1.5010   -0.3436    0.6876 C   0  0  0  0  0  0  0  0  0  0  0  0
   -2.8166   -0.5715    1.0308 N   0  0  0  0  0  0  0  0  0  0  0  0
   -3.8950   -0.6785    1.3233 N   0  0  0  0  0  0  0  0  0  0  0  0
   -1.1645    1.0298    0.6652 C   0  0  0  0  0  0  0  0  0  0  0  0
    0.1906    1.1814    0.3137 C   0  0  0  0  0  0  0  0  0  0  0  0
    1.0563    0.1139    0.0298 C   0  0  0  0  0  0  0  0  0  0  0  0
    2.3298    0.4438   -0.2956 O   0  0  0  0  0  0  0  0  0  0  0  0
    3.2722   -0.5802   -0.5920 C   0  0  0  0  0  0  0  0  0  0  0  0
    0.6078   -1.2386    0.0831 C   0  0  0  0  0  0  0  0  0  0  0  0
   -0.7018   -1.4865    0.4197 C   0  0  0  0  0  0  0  0  0  0  0  0
   -4.8223    3.7939   -0.7557 H   0  0  0  0  0  0  0  0  0  0  0  0
    0.6357    2.1752    0.2454 H   0  0  0  0  0  0  0  0  0  0  0  0
    4.2073   -0.0672   -0.8189 H   0  0  0  0  0  0  0  0  0  0  0  0
    2.9660   -1.1719   -1.4632 H   0  0  0  0  0  0  0  0  0  0  0  0
    3.4267   -1.2477    0.2647 H   0  0  0  0  0  0  0  0  0  0  0  0
    1.2756   -2.0620   -0.1359 H   0  0  0  0  0  0  0  0  0  0  0  0
   -1.0921   -2.5002    0.4747 H   0  0  0  0  0  0  0  0  0  0  0  0
   -6.1782    2.5939    0.3929 S   0  0  0  0  0  0  0  0  0  0  0  0
   -5.2970    2.5239    2.0362 C   0  0  0  0  0  0  0  0  0  0  0  0
   -7.5850    2.8086    0.6603 O   0  0  0  0  0  0  0  0  0  0  0  0
   -5.6703    1.4972   -0.4196 O   0  0  0  0  0  0  0  0  0  0  0  0
   -5.5737    3.9954   -0.1706 O   0  0  0  0  0  0  0  0  0  0  0  0
   -5.6082    3.5938    2.7618 F   0  0  0  0  0  0  0  0  0  0  0  0
   -5.6938    1.4188    2.6697 F   0  0  0  0  0  0  0  0  0  0  0  0
   -3.9843    2.4771    1.8300 F   0  0  0  0  0  0  0  0  0  0  0  0
  1  2  1  0  0  0  0
  2  3  1  0  0  0  0
  4  1  1  0  0  0  0
  5  4  2  0  0  0  0
  6  9  2  0  0  0  0
  6  5  1  0  0  0  0
  7  6  1  0  0  0  0
  8  7  1  0  0  0  0
  8 15  1  0  0  0  0
  9 10  1  0  0  0  0
 10 17  1  0  0  0  0
 10  1  2  0  0  0  0
 11 22  1  0  0  0  0
 12  5  1  0  0  0  0
 13  8  1  0  0  0  0
 14  8  1  0  0  0  0
 16  9  1  0  0  0  0
 18 20  2  0  0  0  0
 18 19  1  0  0  0  0
 19 24  1  0  0  0  0
 19 23  1  0  0  0  0
 21 18  2  0  0  0  0
 22 18  1  0  0  0  0
 25 19  1  0  0  0  0
M  RAD  3   2   2   3   3   4   2
M  END
