Coordinates from ORCA-job 4-MeOPhN2+~TfO-_B3LYPG-6-31G_dp-CH-Scan-d09-49-n800
 OpenBabel11261919093D

 25 24  0  0  0  0  0  0  0  0999 V2000
   -1.7042   -0.4102    0.4882 C   0  0  0  0  0  0  0  0  0  0  0  0
   -2.9845   -0.7516    0.8495 N   0  0  0  0  0  0  0  0  0  0  0  0
   -4.0396   -0.9870    1.1466 N   0  0  0  0  0  0  0  0  0  0  0  0
   -1.5212    0.9504    0.1345 C   0  0  0  0  0  0  0  0  0  0  0  0
   -0.1830    1.1984   -0.2058 C   0  0  0  0  0  0  0  0  0  0  0  0
    0.8263    0.2209   -0.1913 C   0  0  0  0  0  0  0  0  0  0  0  0
    2.0630    0.6351   -0.5445 O   0  0  0  0  0  0  0  0  0  0  0  0
    3.1467   -0.2892   -0.5512 C   0  0  0  0  0  0  0  0  0  0  0  0
    0.5431   -1.1245    0.1783 C   0  0  0  0  0  0  0  0  0  0  0  0
   -0.7444   -1.4566    0.5269 C   0  0  0  0  0  0  0  0  0  0  0  0
   -3.5075    2.7848   -0.0011 H   0  0  0  0  0  0  0  0  0  0  0  0
    0.1339    2.1969   -0.5052 H   0  0  0  0  0  0  0  0  0  0  0  0
    4.0215    0.2825   -0.8622 H   0  0  0  0  0  0  0  0  0  0  0  0
    2.9758   -1.1044   -1.2638 H   0  0  0  0  0  0  0  0  0  0  0  0
    3.3254   -0.7064    0.4469 H   0  0  0  0  0  0  0  0  0  0  0  0
    1.3169   -1.8813    0.1892 H   0  0  0  0  0  0  0  0  0  0  0  0
   -1.0073   -2.4704    0.8178 H   0  0  0  0  0  0  0  0  0  0  0  0
   -5.6209    2.6010    0.3661 S   0  0  0  0  0  0  0  0  0  0  0  0
   -5.5511    2.5001    2.2251 C   0  0  0  0  0  0  0  0  0  0  0  0
   -6.7260    3.4735    0.0242 O   0  0  0  0  0  0  0  0  0  0  0  0
   -5.5122    1.2312   -0.1198 O   0  0  0  0  0  0  0  0  0  0  0  0
   -4.2625    3.4105    0.0837 O   0  0  0  0  0  0  0  0  0  0  0  0
   -5.4953    3.7184    2.7548 F   0  0  0  0  0  0  0  0  0  0  0  0
   -6.6428    1.8714    2.6608 F   0  0  0  0  0  0  0  0  0  0  0  0
   -4.4659    1.8055    2.5892 F   0  0  0  0  0  0  0  0  0  0  0  0
  1 10  1  0  0  0  0
  1  2  1  0  0  0  0
  2  3  1  0  0  0  0
  4  1  2  0  0  0  0
  5  6  2  0  0  0  0
  5  4  1  0  0  0  0
  6  9  1  0  0  0  0
  7  6  1  0  0  0  0
  8  7  1  0  0  0  0
  8 15  1  0  0  0  0
  9 16  1  0  0  0  0
  9 10  2  0  0  0  0
 10 17  1  0  0  0  0
 11 22  1  0  0  0  0
 12  5  1  0  0  0  0
 13  8  1  0  0  0  0
 14  8  1  0  0  0  0
 18 19  1  0  0  0  0
 19 25  1  0  0  0  0
 19 24  1  0  0  0  0
 19 23  1  0  0  0  0
 20 18  2  0  0  0  0
 21 18  2  0  0  0  0
 22 18  1  0  0  0  0
M  RAD  3   2   2   3   3   4   2
M  END
