Coordinates from ORCA-job 4-MeOPhN2+~TfO-_B3LYPG-6-31G_dp-CH-Scan-d09-49-n800
 OpenBabel11261919093D

 25 24  0  0  0  0  0  0  0  0999 V2000
   -1.8165   -0.4253    0.5416 C   0  0  0  0  0  0  0  0  0  0  0  0
   -3.0762   -0.8167    0.9181 N   0  0  0  0  0  0  0  0  0  0  0  0
   -4.1150   -1.0999    1.2266 N   0  0  0  0  0  0  0  0  0  0  0  0
   -1.6622    0.9457    0.2113 C   0  0  0  0  0  0  0  0  0  0  0  0
   -0.3420    1.2393   -0.1476 C   0  0  0  0  0  0  0  0  0  0  0  0
    0.6926    0.2872   -0.1732 C   0  0  0  0  0  0  0  0  0  0  0  0
    1.9079    0.7420   -0.5401 O   0  0  0  0  0  0  0  0  0  0  0  0
    3.0170   -0.1522   -0.5886 C   0  0  0  0  0  0  0  0  0  0  0  0
    0.4478   -1.0701    0.1725 C   0  0  0  0  0  0  0  0  0  0  0  0
   -0.8250   -1.4408    0.5380 C   0  0  0  0  0  0  0  0  0  0  0  0
   -3.1490    2.3587    0.1717 H   0  0  0  0  0  0  0  0  0  0  0  0
   -0.0618    2.2524   -0.4301 H   0  0  0  0  0  0  0  0  0  0  0  0
    3.8688    0.4510   -0.9030 H   0  0  0  0  0  0  0  0  0  0  0  0
    2.8529   -0.9550   -1.3164 H   0  0  0  0  0  0  0  0  0  0  0  0
    3.2256   -0.5855    0.3966 H   0  0  0  0  0  0  0  0  0  0  0  0
    1.2389   -1.8085    0.1529 H   0  0  0  0  0  0  0  0  0  0  0  0
   -1.0563   -2.4664    0.8118 H   0  0  0  0  0  0  0  0  0  0  0  0
   -5.3133    2.5220    0.3104 S   0  0  0  0  0  0  0  0  0  0  0  0
   -5.4672    2.5100    2.1649 C   0  0  0  0  0  0  0  0  0  0  0  0
   -6.2579    3.5060   -0.1847 O   0  0  0  0  0  0  0  0  0  0  0  0
   -5.3699    1.1195   -0.0961 O   0  0  0  0  0  0  0  0  0  0  0  0
   -3.8458    3.1010    0.1572 O   0  0  0  0  0  0  0  0  0  0  0  0
   -5.2946    3.7335    2.6599 F   0  0  0  0  0  0  0  0  0  0  0  0
   -6.6772    2.0606    2.5021 F   0  0  0  0  0  0  0  0  0  0  0  0
   -4.5374    1.6907    2.6814 F   0  0  0  0  0  0  0  0  0  0  0  0
  1  2  1  0  0  0  0
  2  3  1  0  0  0  0
  4  1  2  0  0  0  0
  5  4  1  0  0  0  0
  6  5  2  0  0  0  0
  6  9  1  0  0  0  0
  7  6  1  0  0  0  0
  8  7  1  0  0  0  0
  8 15  1  0  0  0  0
  9 10  2  0  0  0  0
 10  1  1  0  0  0  0
 10 17  1  0  0  0  0
 12  5  1  0  0  0  0
 13  8  1  0  0  0  0
 14  8  1  0  0  0  0
 16  9  1  0  0  0  0
 18 19  1  0  0  0  0
 19 24  1  0  0  0  0
 19 23  1  0  0  0  0
 19 25  1  0  0  0  0
 20 18  2  0  0  0  0
 21 18  2  0  0  0  0
 22 11  1  0  0  0  0
 22 18  1  0  0  0  0
M  RAD  3   2   2   3   3   4   2
M  END
