Coordinates from ORCA-job 4-MeOPhN2+~TfO-_B3LYPG-6-31G_dp-CH-Scan-d09-49-n800
 OpenBabel11261919093D

 25 24  0  0  0  0  0  0  0  0999 V2000
   -1.8164   -0.3962    0.6290 C   0  0  0  0  0  0  0  0  0  0  0  0
   -3.0650   -0.7840    1.0421 N   0  0  0  0  0  0  0  0  0  0  0  0
   -4.0947   -1.0644    1.3805 N   0  0  0  0  0  0  0  0  0  0  0  0
   -1.6541    0.9781    0.3163 C   0  0  0  0  0  0  0  0  0  0  0  0
   -0.3477    1.2680   -0.0855 C   0  0  0  0  0  0  0  0  0  0  0  0
    0.6752    0.3058   -0.1676 C   0  0  0  0  0  0  0  0  0  0  0  0
    1.8787    0.7550   -0.5739 O   0  0  0  0  0  0  0  0  0  0  0  0
    2.9752   -0.1501   -0.6863 C   0  0  0  0  0  0  0  0  0  0  0  0
    0.4282   -1.0539    0.1643 C   0  0  0  0  0  0  0  0  0  0  0  0
   -0.8344   -1.4181    0.5708 C   0  0  0  0  0  0  0  0  0  0  0  0
   -2.9877    2.2618    0.3393 H   0  0  0  0  0  0  0  0  0  0  0  0
   -0.0711    2.2839   -0.3605 H   0  0  0  0  0  0  0  0  0  0  0  0
    3.8183    0.4496   -1.0292 H   0  0  0  0  0  0  0  0  0  0  0  0
    2.7689   -0.9387   -1.4187 H   0  0  0  0  0  0  0  0  0  0  0  0
    3.2223   -0.6010    0.2818 H   0  0  0  0  0  0  0  0  0  0  0  0
    1.2095   -1.8004    0.1022 H   0  0  0  0  0  0  0  0  0  0  0  0
   -1.0657   -2.4460    0.8355 H   0  0  0  0  0  0  0  0  0  0  0  0
   -5.1706    2.5079    0.2837 S   0  0  0  0  0  0  0  0  0  0  0  0
   -5.5659    2.4853    2.1008 C   0  0  0  0  0  0  0  0  0  0  0  0
   -6.0341    3.5092   -0.3174 O   0  0  0  0  0  0  0  0  0  0  0  0
   -5.2149    1.1068   -0.1373 O   0  0  0  0  0  0  0  0  0  0  0  0
   -3.6900    3.0397    0.3311 O   0  0  0  0  0  0  0  0  0  0  0  0
   -5.4344    3.7002    2.6307 F   0  0  0  0  0  0  0  0  0  0  0  0
   -6.8180    2.0585    2.2775 F   0  0  0  0  0  0  0  0  0  0  0  0
   -4.7273    1.6419    2.7277 F   0  0  0  0  0  0  0  0  0  0  0  0
  1  2  1  0  0  0  0
  2  3  1  0  0  0  0
  4  1  2  0  0  0  0
  5  4  1  0  0  0  0
  6  5  2  0  0  0  0
  6  9  1  0  0  0  0
  7  6  1  0  0  0  0
  8  7  1  0  0  0  0
  8 15  1  0  0  0  0
  9 10  2  0  0  0  0
 10  1  1  0  0  0  0
 10 17  1  0  0  0  0
 12  5  1  0  0  0  0
 13  8  1  0  0  0  0
 14  8  1  0  0  0  0
 16  9  1  0  0  0  0
 18 22  1  0  0  0  0
 18 19  1  0  0  0  0
 19 24  1  0  0  0  0
 19 23  1  0  0  0  0
 19 25  1  0  0  0  0
 20 18  2  0  0  0  0
 21 18  2  0  0  0  0
 22 11  1  0  0  0  0
M  RAD  3   2   2   3   3   4   2
M  END
