Coordinates from ORCA-job 4-MeOPhN2+~TfO-_B3LYPG-6-31G_dp-CH-Scan-d09-49-n800
 OpenBabel11261919093D

 25 24  0  0  0  0  0  0  0  0999 V2000
   -1.5359   -0.3425    0.6654 C   0  0  0  0  0  0  0  0  0  0  0  0
   -2.8412   -0.5828    1.0364 N   0  0  0  0  0  0  0  0  0  0  0  0
   -3.9125   -0.7027    1.3490 N   0  0  0  0  0  0  0  0  0  0  0  0
   -1.2391    1.0341    0.5303 C   0  0  0  0  0  0  0  0  0  0  0  0
    0.1102    1.1957    0.1622 C   0  0  0  0  0  0  0  0  0  0  0  0
    1.0068    0.1346   -0.0381 C   0  0  0  0  0  0  0  0  0  0  0  0
    2.2696    0.4745   -0.3923 O   0  0  0  0  0  0  0  0  0  0  0  0
    3.2418   -0.5419   -0.6082 C   0  0  0  0  0  0  0  0  0  0  0  0
    0.5976   -1.2214    0.1244 C   0  0  0  0  0  0  0  0  0  0  0  0
   -0.7035   -1.4789    0.4859 C   0  0  0  0  0  0  0  0  0  0  0  0
   -4.4782    3.7258   -0.5756 H   0  0  0  0  0  0  0  0  0  0  0  0
    0.5259    2.1930    0.0116 H   0  0  0  0  0  0  0  0  0  0  0  0
    4.1629   -0.0212   -0.8723 H   0  0  0  0  0  0  0  0  0  0  0  0
    2.9553   -1.2069   -1.4318 H   0  0  0  0  0  0  0  0  0  0  0  0
    3.4120   -1.1372    0.2974 H   0  0  0  0  0  0  0  0  0  0  0  0
    1.2880   -2.0406   -0.0315 H   0  0  0  0  0  0  0  0  0  0  0  0
   -1.0636   -2.4957    0.6244 H   0  0  0  0  0  0  0  0  0  0  0  0
   -6.0596    2.6158    0.3607 S   0  0  0  0  0  0  0  0  0  0  0  0
   -5.3776    2.4602    2.0908 C   0  0  0  0  0  0  0  0  0  0  0  0
   -7.4666    2.9384    0.4739 O   0  0  0  0  0  0  0  0  0  0  0  0
   -5.5503    1.4869   -0.4052 O   0  0  0  0  0  0  0  0  0  0  0  0
   -5.2947    3.9720   -0.1065 O   0  0  0  0  0  0  0  0  0  0  0  0
   -5.7091    3.5303    2.8068 F   0  0  0  0  0  0  0  0  0  0  0  0
   -5.9016    1.3663    2.6451 F   0  0  0  0  0  0  0  0  0  0  0  0
   -4.0525    2.3433    2.0342 F   0  0  0  0  0  0  0  0  0  0  0  0
  1  2  1  0  0  0  0
  2  3  1  0  0  0  0
  4  1  1  0  0  0  0
  5  4  2  0  0  0  0
  6  9  2  0  0  0  0
  6  5  1  0  0  0  0
  7  6  1  0  0  0  0
  8  7  1  0  0  0  0
  8 15  1  0  0  0  0
  9 10  1  0  0  0  0
 10 17  1  0  0  0  0
 10  1  2  0  0  0  0
 11 22  1  0  0  0  0
 12  5  1  0  0  0  0
 13  8  1  0  0  0  0
 14  8  1  0  0  0  0
 16  9  1  0  0  0  0
 18 20  2  0  0  0  0
 18 19  1  0  0  0  0
 19 24  1  0  0  0  0
 19 23  1  0  0  0  0
 21 18  2  0  0  0  0
 22 18  1  0  0  0  0
 25 19  1  0  0  0  0
M  RAD  3   2   2   3   3   4   2
M  END
