Coordinates from ORCA-job 4-MeOPhN2+~TfO-_B3LYPG-6-31G_dp-CH-Scan-d09-49-n800
 OpenBabel11261919093D

 25 24  0  0  0  0  0  0  0  0999 V2000
   -1.6464   -0.3986    0.4725 C   0  0  0  0  0  0  0  0  0  0  0  0
   -2.9368   -0.7130    0.8266 N   0  0  0  0  0  0  0  0  0  0  0  0
   -4.0008   -0.9213    1.1139 N   0  0  0  0  0  0  0  0  0  0  0  0
   -1.4470    0.9561    0.1075 C   0  0  0  0  0  0  0  0  0  0  0  0
   -0.1011    1.1792   -0.2266 C   0  0  0  0  0  0  0  0  0  0  0  0
    0.8933    0.1876   -0.1967 C   0  0  0  0  0  0  0  0  0  0  0  0
    2.1391    0.5795   -0.5478 O   0  0  0  0  0  0  0  0  0  0  0  0
    3.2078   -0.3612   -0.5397 C   0  0  0  0  0  0  0  0  0  0  0  0
    0.5893   -1.1504    0.1849 C   0  0  0  0  0  0  0  0  0  0  0  0
   -0.7047   -1.4609    0.5289 C   0  0  0  0  0  0  0  0  0  0  0  0
   -3.7046    3.0014   -0.0890 H   0  0  0  0  0  0  0  0  0  0  0  0
    0.2338    2.1698   -0.5340 H   0  0  0  0  0  0  0  0  0  0  0  0
    4.0930    0.1930   -0.8528 H   0  0  0  0  0  0  0  0  0  0  0  0
    3.0279   -1.1816   -1.2443 H   0  0  0  0  0  0  0  0  0  0  0  0
    3.3761   -0.7710    0.4634 H   0  0  0  0  0  0  0  0  0  0  0  0
    1.3527   -1.9176    0.2085 H   0  0  0  0  0  0  0  0  0  0  0  0
   -0.9843   -2.4678    0.8287 H   0  0  0  0  0  0  0  0  0  0  0  0
   -5.7676    2.6401    0.3932 S   0  0  0  0  0  0  0  0  0  0  0  0
   -5.5881    2.4920    2.2424 C   0  0  0  0  0  0  0  0  0  0  0  0
   -6.9499    3.4365    0.1365 O   0  0  0  0  0  0  0  0  0  0  0  0
   -5.5725    1.3022   -0.1490 O   0  0  0  0  0  0  0  0  0  0  0  0
   -4.4876    3.5663    0.0685 O   0  0  0  0  0  0  0  0  0  0  0  0
   -5.6034    3.6955    2.8063 F   0  0  0  0  0  0  0  0  0  0  0  0
   -6.6009    1.7630    2.7101 F   0  0  0  0  0  0  0  0  0  0  0  0
   -4.4329    1.8799    2.5252 F   0  0  0  0  0  0  0  0  0  0  0  0
  1 10  1  0  0  0  0
  1  2  1  0  0  0  0
  2  3  1  0  0  0  0
  4  1  2  0  0  0  0
  5  6  2  0  0  0  0
  5  4  1  0  0  0  0
  6  9  1  0  0  0  0
  7  8  1  0  0  0  0
  7  6  1  0  0  0  0
  8 15  1  0  0  0  0
  9 16  1  0  0  0  0
  9 10  2  0  0  0  0
 10 17  1  0  0  0  0
 11 22  1  0  0  0  0
 12  5  1  0  0  0  0
 13  8  1  0  0  0  0
 14  8  1  0  0  0  0
 18 19  1  0  0  0  0
 19 25  1  0  0  0  0
 19 24  1  0  0  0  0
 19 23  1  0  0  0  0
 20 18  2  0  0  0  0
 21 18  2  0  0  0  0
 22 18  1  0  0  0  0
M  RAD  3   2   2   3   3   4   2
M  END
