Coordinates from ORCA-job 4-MeOPhN2+~TfO-_B3LYPG-6-31G_dp-CH-Scan-d09-49-n800
 OpenBabel11261919093D

 25 24  0  0  0  0  0  0  0  0999 V2000
   -1.7233   -0.4103    0.5110 C   0  0  0  0  0  0  0  0  0  0  0  0
   -2.9982   -0.7610    0.8810 N   0  0  0  0  0  0  0  0  0  0  0  0
   -4.0489   -1.0061    1.1846 N   0  0  0  0  0  0  0  0  0  0  0  0
   -1.5460    0.9530    0.1635 C   0  0  0  0  0  0  0  0  0  0  0  0
   -0.2131    1.2094   -0.1878 C   0  0  0  0  0  0  0  0  0  0  0  0
    0.8001    0.2355   -0.1890 C   0  0  0  0  0  0  0  0  0  0  0  0
    2.0310    0.6568   -0.5517 O   0  0  0  0  0  0  0  0  0  0  0  0
    3.1184   -0.2632   -0.5752 C   0  0  0  0  0  0  0  0  0  0  0  0
    0.5249   -1.1127    0.1751 C   0  0  0  0  0  0  0  0  0  0  0  0
   -0.7581   -1.4517    0.5338 C   0  0  0  0  0  0  0  0  0  0  0  0
   -3.4092    2.6872    0.0709 H   0  0  0  0  0  0  0  0  0  0  0  0
    0.0961    2.2110   -0.4839 H   0  0  0  0  0  0  0  0  0  0  0  0
    3.9874    0.3139   -0.8921 H   0  0  0  0  0  0  0  0  0  0  0  0
    2.9430   -1.0749   -1.2907 H   0  0  0  0  0  0  0  0  0  0  0  0
    3.3092   -0.6853    0.4186 H   0  0  0  0  0  0  0  0  0  0  0  0
    1.3014   -1.8668    0.1741 H   0  0  0  0  0  0  0  0  0  0  0  0
   -1.0141   -2.4682    0.8210 H   0  0  0  0  0  0  0  0  0  0  0  0
   -5.5437    2.5841    0.3486 S   0  0  0  0  0  0  0  0  0  0  0  0
   -5.5605    2.5026    2.2092 C   0  0  0  0  0  0  0  0  0  0  0  0
   -6.6047    3.4868   -0.0509 O   0  0  0  0  0  0  0  0  0  0  0  0
   -5.4647    1.2036   -0.1140 O   0  0  0  0  0  0  0  0  0  0  0  0
   -4.1496    3.3402    0.1193 O   0  0  0  0  0  0  0  0  0  0  0  0
   -5.4923    3.7243    2.7302 F   0  0  0  0  0  0  0  0  0  0  0  0
   -6.6880    1.9102    2.6030 F   0  0  0  0  0  0  0  0  0  0  0  0
   -4.5129    1.7807    2.6287 F   0  0  0  0  0  0  0  0  0  0  0  0
  1 10  1  0  0  0  0
  1  2  1  0  0  0  0
  2  3  1  0  0  0  0
  4  1  2  0  0  0  0
  5  4  1  0  0  0  0
  6  5  2  0  0  0  0
  6  9  1  0  0  0  0
  7  6  1  0  0  0  0
  8  7  1  0  0  0  0
  8 15  1  0  0  0  0
  9 10  2  0  0  0  0
 10 17  1  0  0  0  0
 11 22  1  0  0  0  0
 12  5  1  0  0  0  0
 13  8  1  0  0  0  0
 14  8  1  0  0  0  0
 16  9  1  0  0  0  0
 18 19  1  0  0  0  0
 19 24  1  0  0  0  0
 19 25  1  0  0  0  0
 19 23  1  0  0  0  0
 20 18  2  0  0  0  0
 21 18  2  0  0  0  0
 22 18  1  0  0  0  0
M  RAD  3   2   2   3   3   4   2
M  END
