Coordinates from ORCA-job 4-MeOPhN2+~TfO-_B3LYPG-6-31G_dp-CH-Scan-d09-49-n800
 OpenBabel11261919093D

 25 24  0  0  0  0  0  0  0  0999 V2000
   -1.5422   -0.3459    0.6569 C   0  0  0  0  0  0  0  0  0  0  0  0
   -2.8450   -0.5896    1.0335 N   0  0  0  0  0  0  0  0  0  0  0  0
   -3.9142   -0.7150    1.3508 N   0  0  0  0  0  0  0  0  0  0  0  0
   -1.2557    1.0298    0.4921 C   0  0  0  0  0  0  0  0  0  0  0  0
    0.0927    1.1935    0.1216 C   0  0  0  0  0  0  0  0  0  0  0  0
    0.9977    0.1354   -0.0550 C   0  0  0  0  0  0  0  0  0  0  0  0
    2.2582    0.4772   -0.4155 O   0  0  0  0  0  0  0  0  0  0  0  0
    3.2381   -0.5360   -0.6100 C   0  0  0  0  0  0  0  0  0  0  0  0
    0.5989   -1.2198    0.1368 C   0  0  0  0  0  0  0  0  0  0  0  0
   -0.7004   -1.4793    0.5030 C   0  0  0  0  0  0  0  0  0  0  0  0
   -4.4277    3.7367   -0.5334 H   0  0  0  0  0  0  0  0  0  0  0  0
    0.5009    2.1904   -0.0508 H   0  0  0  0  0  0  0  0  0  0  0  0
    4.1552   -0.0141   -0.8849 H   0  0  0  0  0  0  0  0  0  0  0  0
    2.9567   -1.2204   -1.4193 H   0  0  0  0  0  0  0  0  0  0  0  0
    3.4128   -1.1107    0.3080 H   0  0  0  0  0  0  0  0  0  0  0  0
    1.2957   -2.0370   -0.0004 H   0  0  0  0  0  0  0  0  0  0  0  0
   -1.0527   -2.4956    0.6638 H   0  0  0  0  0  0  0  0  0  0  0  0
   -6.0335    2.6244    0.3563 S   0  0  0  0  0  0  0  0  0  0  0  0
   -5.3964    2.4489    2.1013 C   0  0  0  0  0  0  0  0  0  0  0  0
   -7.4418    2.9510    0.4385 O   0  0  0  0  0  0  0  0  0  0  0  0
   -5.5098    1.5012   -0.4079 O   0  0  0  0  0  0  0  0  0  0  0  0
   -5.2517    3.9819   -0.0771 O   0  0  0  0  0  0  0  0  0  0  0  0
   -5.7392    3.5147    2.8184 F   0  0  0  0  0  0  0  0  0  0  0  0
   -5.9413    1.3535    2.6321 F   0  0  0  0  0  0  0  0  0  0  0  0
   -4.0710    2.3236    2.0784 F   0  0  0  0  0  0  0  0  0  0  0  0
  1  2  1  0  0  0  0
  2  3  1  0  0  0  0
  4  1  2  0  0  0  0
  5  4  1  0  0  0  0
  6  5  2  0  0  0  0
  6  9  1  0  0  0  0
  7  6  1  0  0  0  0
  8  7  1  0  0  0  0
  8 15  1  0  0  0  0
  9 10  2  0  0  0  0
 10  1  1  0  0  0  0
 10 17  1  0  0  0  0
 11 22  1  0  0  0  0
 12  5  1  0  0  0  0
 13  8  1  0  0  0  0
 14  8  1  0  0  0  0
 16  9  1  0  0  0  0
 18 20  2  0  0  0  0
 18 19  1  0  0  0  0
 19 24  1  0  0  0  0
 19 23  1  0  0  0  0
 21 18  2  0  0  0  0
 22 18  1  0  0  0  0
 25 19  1  0  0  0  0
M  RAD  3   2   2   3   3   4   2
M  END
