Coordinates from ORCA-job 4-MeOPhN2+~TfO-_B3LYPG-6-31G_dp-CH-Scan-d09-49-n800
 OpenBabel11261919093D

 25 24  0  0  0  0  0  0  0  0999 V2000
   -1.5477   -0.3315    0.5693 C   0  0  0  0  0  0  0  0  0  0  0  0
   -2.8374   -0.5914    0.9709 N   0  0  0  0  0  0  0  0  0  0  0  0
   -3.8982   -0.7490    1.3002 N   0  0  0  0  0  0  0  0  0  0  0  0
   -1.3108    1.0192    0.2142 C   0  0  0  0  0  0  0  0  0  0  0  0
    0.0311    1.1886   -0.1702 C   0  0  0  0  0  0  0  0  0  0  0  0
    0.9822    0.1559   -0.1937 C   0  0  0  0  0  0  0  0  0  0  0  0
    2.2294    0.4990   -0.5914 O   0  0  0  0  0  0  0  0  0  0  0  0
    3.2541   -0.4877   -0.6423 C   0  0  0  0  0  0  0  0  0  0  0  0
    0.6379   -1.1743    0.1836 C   0  0  0  0  0  0  0  0  0  0  0  0
   -0.6531   -1.4353    0.5761 C   0  0  0  0  0  0  0  0  0  0  0  0
   -3.8469    3.2891   -0.0407 H   0  0  0  0  0  0  0  0  0  0  0  0
    0.3968    2.1683   -0.4788 H   0  0  0  0  0  0  0  0  0  0  0  0
    4.1491    0.0313   -0.9868 H   0  0  0  0  0  0  0  0  0  0  0  0
    3.0079   -1.2891   -1.3489 H   0  0  0  0  0  0  0  0  0  0  0  0
    3.4476   -0.9196    0.3470 H   0  0  0  0  0  0  0  0  0  0  0  0
    1.3688   -1.9728    0.1661 H   0  0  0  0  0  0  0  0  0  0  0  0
   -0.9634   -2.4335    0.8752 H   0  0  0  0  0  0  0  0  0  0  0  0
   -5.8639    2.6690    0.3602 S   0  0  0  0  0  0  0  0  0  0  0  0
   -5.7497    2.4398    2.2070 C   0  0  0  0  0  0  0  0  0  0  0  0
   -7.1164    3.3417    0.0845 O   0  0  0  0  0  0  0  0  0  0  0  0
   -5.4852    1.3994   -0.2436 O   0  0  0  0  0  0  0  0  0  0  0  0
   -4.6821    3.7544    0.1521 O   0  0  0  0  0  0  0  0  0  0  0  0
   -5.9788    3.5924    2.8282 F   0  0  0  0  0  0  0  0  0  0  0  0
   -6.6586    1.5393    2.5772 F   0  0  0  0  0  0  0  0  0  0  0  0
   -4.5286    1.9960    2.5217 F   0  0  0  0  0  0  0  0  0  0  0  0
  1 10  1  0  0  0  0
  1  2  1  0  0  0  0
  2  3  1  0  0  0  0
  4  1  2  0  0  0  0
  5  4  1  0  0  0  0
  6  5  2  0  0  0  0
  6  9  1  0  0  0  0
  7  6  1  0  0  0  0
  8  7  1  0  0  0  0
  8 15  1  0  0  0  0
  9 10  2  0  0  0  0
 10 17  1  0  0  0  0
 11 22  1  0  0  0  0
 12  5  1  0  0  0  0
 13  8  1  0  0  0  0
 14  8  1  0  0  0  0
 16  9  1  0  0  0  0
 18 19  1  0  0  0  0
 19 25  1  0  0  0  0
 19 24  1  0  0  0  0
 19 23  1  0  0  0  0
 20 18  2  0  0  0  0
 21 18  2  0  0  0  0
 22 18  1  0  0  0  0
M  RAD  3   2   2   3   3   4   2
M  END
