Coordinates from ORCA-job 4-MeOPhN2+~TfO-_B3LYPG-6-31G_dp-CH-Scan-d09-49-n800
 OpenBabel11261919093D

 25 24  0  0  0  0  0  0  0  0999 V2000
   -1.6599   -0.4042    0.4713 C   0  0  0  0  0  0  0  0  0  0  0  0
   -2.9485   -0.7258    0.8250 N   0  0  0  0  0  0  0  0  0  0  0  0
   -4.0110   -0.9410    1.1123 N   0  0  0  0  0  0  0  0  0  0  0  0
   -1.4649    0.9521    0.1099 C   0  0  0  0  0  0  0  0  0  0  0  0
   -0.1202    1.1822   -0.2230 C   0  0  0  0  0  0  0  0  0  0  0  0
    0.8784    0.1947   -0.1952 C   0  0  0  0  0  0  0  0  0  0  0  0
    2.1225    0.5929   -0.5441 O   0  0  0  0  0  0  0  0  0  0  0  0
    3.1955   -0.3431   -0.5376 C   0  0  0  0  0  0  0  0  0  0  0  0
    0.5795   -1.1456    0.1823 C   0  0  0  0  0  0  0  0  0  0  0  0
   -0.7134   -1.4623    0.5248 C   0  0  0  0  0  0  0  0  0  0  0  0
   -3.6645    2.9504   -0.0762 H   0  0  0  0  0  0  0  0  0  0  0  0
    0.2104    2.1751   -0.5274 H   0  0  0  0  0  0  0  0  0  0  0  0
    4.0786    0.2162   -0.8478 H   0  0  0  0  0  0  0  0  0  0  0  0
    3.0201   -1.1620   -1.2452 H   0  0  0  0  0  0  0  0  0  0  0  0
    3.3642   -0.7553    0.4644 H   0  0  0  0  0  0  0  0  0  0  0  0
    1.3459   -1.9098    0.2039 H   0  0  0  0  0  0  0  0  0  0  0  0
   -0.9889   -2.4712    0.8215 H   0  0  0  0  0  0  0  0  0  0  0  0
   -5.7389    2.6310    0.3897 S   0  0  0  0  0  0  0  0  0  0  0  0
   -5.5758    2.4981    2.2415 C   0  0  0  0  0  0  0  0  0  0  0  0
   -6.9053    3.4455    0.1167 O   0  0  0  0  0  0  0  0  0  0  0  0
   -5.5659    1.2836   -0.1366 O   0  0  0  0  0  0  0  0  0  0  0  0
   -4.4411    3.5300    0.0649 O   0  0  0  0  0  0  0  0  0  0  0  0
   -5.5703    3.7073    2.7935 F   0  0  0  0  0  0  0  0  0  0  0  0
   -6.6067    1.7949    2.7096 F   0  0  0  0  0  0  0  0  0  0  0  0
   -4.4354    1.8651    2.5391 F   0  0  0  0  0  0  0  0  0  0  0  0
  1 10  1  0  0  0  0
  1  2  1  0  0  0  0
  2  3  1  0  0  0  0
  4  1  2  0  0  0  0
  5  6  2  0  0  0  0
  5  4  1  0  0  0  0
  6  9  1  0  0  0  0
  7  8  1  0  0  0  0
  7  6  1  0  0  0  0
  8 15  1  0  0  0  0
  9 16  1  0  0  0  0
  9 10  2  0  0  0  0
 10 17  1  0  0  0  0
 11 22  1  0  0  0  0
 12  5  1  0  0  0  0
 13  8  1  0  0  0  0
 14  8  1  0  0  0  0
 18 19  1  0  0  0  0
 19 25  1  0  0  0  0
 19 24  1  0  0  0  0
 19 23  1  0  0  0  0
 20 18  2  0  0  0  0
 21 18  2  0  0  0  0
 22 18  1  0  0  0  0
M  RAD  3   2   2   3   3   4   2
M  END
