Coordinates from ORCA-job 4-MeOPhN2+~TfO-_B3LYPG-6-31G_dp-CH-Scan-d09-49-n800
 OpenBabel11261919093D

 25 24  0  0  0  0  0  0  0  0999 V2000
   -1.8379   -0.3790    0.6540 C   0  0  0  0  0  0  0  0  0  0  0  0
   -3.0810   -0.7678    1.0806 N   0  0  0  0  0  0  0  0  0  0  0  0
   -4.1051   -1.0524    1.4303 N   0  0  0  0  0  0  0  0  0  0  0  0
   -1.6674    0.9944    0.3434 C   0  0  0  0  0  0  0  0  0  0  0  0
   -0.3683    1.2877   -0.0707 C   0  0  0  0  0  0  0  0  0  0  0  0
    0.6517    0.3228   -0.1674 C   0  0  0  0  0  0  0  0  0  0  0  0
    1.8505    0.7713   -0.5835 O   0  0  0  0  0  0  0  0  0  0  0  0
    2.9449   -0.1354   -0.7112 C   0  0  0  0  0  0  0  0  0  0  0  0
    0.4030   -1.0365    0.1613 C   0  0  0  0  0  0  0  0  0  0  0  0
   -0.8565   -1.3993    0.5797 C   0  0  0  0  0  0  0  0  0  0  0  0
   -2.8759    2.1618    0.3915 H   0  0  0  0  0  0  0  0  0  0  0  0
   -0.0973    2.3051   -0.3436 H   0  0  0  0  0  0  0  0  0  0  0  0
    3.7850    0.4649   -1.0599 H   0  0  0  0  0  0  0  0  0  0  0  0
    2.7291   -0.9199   -1.4451 H   0  0  0  0  0  0  0  0  0  0  0  0
    3.2005   -0.5905    0.2526 H   0  0  0  0  0  0  0  0  0  0  0  0
    1.1808   -1.7856    0.0876 H   0  0  0  0  0  0  0  0  0  0  0  0
   -1.0872   -2.4276    0.8420 H   0  0  0  0  0  0  0  0  0  0  0  0
   -5.0839    2.4882    0.2789 S   0  0  0  0  0  0  0  0  0  0  0  0
   -5.5719    2.4736    2.0726 C   0  0  0  0  0  0  0  0  0  0  0  0
   -5.9154    3.4921   -0.3654 O   0  0  0  0  0  0  0  0  0  0  0  0
   -5.1423    1.0829   -0.1381 O   0  0  0  0  0  0  0  0  0  0  0  0
   -3.6073    2.9798    0.3988 O   0  0  0  0  0  0  0  0  0  0  0  0
   -5.4465    3.6856    2.6128 F   0  0  0  0  0  0  0  0  0  0  0  0
   -6.8381    2.0670    2.1925 F   0  0  0  0  0  0  0  0  0  0  0  0
   -4.7792    1.6158    2.7431 F   0  0  0  0  0  0  0  0  0  0  0  0
  1  2  1  0  0  0  0
  2  3  1  0  0  0  0
  4  1  2  0  0  0  0
  5  4  1  0  0  0  0
  6  5  2  0  0  0  0
  6  9  1  0  0  0  0
  7  6  1  0  0  0  0
  8  7  1  0  0  0  0
  8 15  1  0  0  0  0
  9 10  2  0  0  0  0
 10  1  1  0  0  0  0
 10 17  1  0  0  0  0
 11 22  1  0  0  0  0
 12  5  1  0  0  0  0
 13  8  1  0  0  0  0
 14  8  1  0  0  0  0
 16  9  1  0  0  0  0
 18 22  1  0  0  0  0
 18 19  1  0  0  0  0
 19 24  1  0  0  0  0
 19 23  1  0  0  0  0
 19 25  1  0  0  0  0
 20 18  2  0  0  0  0
 21 18  2  0  0  0  0
M  RAD  3   2   2   3   3   4   2
M  END
