Coordinates from ORCA-job 4-MeOPhN2+~TfO-_B3LYPG-6-31G_dp-CH-Scan-d09-49-n800
 OpenBabel11261919093D

 25 24  0  0  0  0  0  0  0  0999 V2000
   -1.6259   -0.3939    0.4731 C   0  0  0  0  0  0  0  0  0  0  0  0
   -2.9186   -0.6992    0.8276 N   0  0  0  0  0  0  0  0  0  0  0  0
   -3.9845   -0.8982    1.1146 N   0  0  0  0  0  0  0  0  0  0  0  0
   -1.4217    0.9592    0.1049 C   0  0  0  0  0  0  0  0  0  0  0  0
   -0.0743    1.1739   -0.2309 C   0  0  0  0  0  0  0  0  0  0  0  0
    0.9149    0.1773   -0.1994 C   0  0  0  0  0  0  0  0  0  0  0  0
    2.1626    0.5616   -0.5530 O   0  0  0  0  0  0  0  0  0  0  0  0
    3.2260   -0.3849   -0.5439 C   0  0  0  0  0  0  0  0  0  0  0  0
    0.6048   -1.1584    0.1864 C   0  0  0  0  0  0  0  0  0  0  0  0
   -0.6904   -1.4616    0.5323 C   0  0  0  0  0  0  0  0  0  0  0  0
   -3.7577    3.0665   -0.1003 H   0  0  0  0  0  0  0  0  0  0  0  0
    0.2659    2.1619   -0.5411 H   0  0  0  0  0  0  0  0  0  0  0  0
    4.1139    0.1635   -0.8603 H   0  0  0  0  0  0  0  0  0  0  0  0
    3.0406   -1.2065   -1.2456 H   0  0  0  0  0  0  0  0  0  0  0  0
    3.3940   -0.7925    0.4602 H   0  0  0  0  0  0  0  0  0  0  0  0
    1.3646   -1.9291    0.2116 H   0  0  0  0  0  0  0  0  0  0  0  0
   -0.9750   -2.4661    0.8352 H   0  0  0  0  0  0  0  0  0  0  0  0
   -5.8066    2.6516    0.3988 S   0  0  0  0  0  0  0  0  0  0  0  0
   -5.6120    2.4899    2.2456 C   0  0  0  0  0  0  0  0  0  0  0  0
   -7.0079    3.4233    0.1566 O   0  0  0  0  0  0  0  0  0  0  0  0
   -5.5813    1.3255   -0.1596 O   0  0  0  0  0  0  0  0  0  0  0  0
   -4.5490    3.6119    0.0770 O   0  0  0  0  0  0  0  0  0  0  0  0
   -5.6507    3.6876    2.8206 F   0  0  0  0  0  0  0  0  0  0  0  0
   -6.6056    1.7341    2.7116 F   0  0  0  0  0  0  0  0  0  0  0  0
   -4.4418    1.9015    2.5149 F   0  0  0  0  0  0  0  0  0  0  0  0
  1 10  1  0  0  0  0
  1  2  1  0  0  0  0
  2  3  1  0  0  0  0
  4  1  2  0  0  0  0
  5  6  2  0  0  0  0
  5  4  1  0  0  0  0
  6  9  1  0  0  0  0
  7  8  1  0  0  0  0
  7  6  1  0  0  0  0
  8 15  1  0  0  0  0
  9 16  1  0  0  0  0
  9 10  2  0  0  0  0
 10 17  1  0  0  0  0
 11 22  1  0  0  0  0
 12  5  1  0  0  0  0
 13  8  1  0  0  0  0
 14  8  1  0  0  0  0
 18 19  1  0  0  0  0
 19 25  1  0  0  0  0
 19 24  1  0  0  0  0
 19 23  1  0  0  0  0
 20 18  2  0  0  0  0
 21 18  2  0  0  0  0
 22 18  1  0  0  0  0
M  RAD  3   2   2   3   3   4   2
M  END
