Coordinates from ORCA-job 4-MeOPhN2+~TfO-_B3LYPG-6-31G_dp-CH-Scan-d09-49-n800
 OpenBabel11261919093D

 25 24  0  0  0  0  0  0  0  0999 V2000
   -1.8346   -0.3828    0.6497 C   0  0  0  0  0  0  0  0  0  0  0  0
   -3.0786   -0.7721    1.0736 N   0  0  0  0  0  0  0  0  0  0  0  0
   -4.1037   -1.0565    1.4211 N   0  0  0  0  0  0  0  0  0  0  0  0
   -1.6665    0.9910    0.3388 C   0  0  0  0  0  0  0  0  0  0  0  0
   -0.3660    1.2839   -0.0731 C   0  0  0  0  0  0  0  0  0  0  0  0
    0.6550    0.3199   -0.1672 C   0  0  0  0  0  0  0  0  0  0  0  0
    1.8544    0.7690   -0.5816 O   0  0  0  0  0  0  0  0  0  0  0  0
    2.9495   -0.1369   -0.7065 C   0  0  0  0  0  0  0  0  0  0  0  0
    0.4072   -1.0396    0.1623 C   0  0  0  0  0  0  0  0  0  0  0  0
   -0.8527   -1.4031    0.5785 C   0  0  0  0  0  0  0  0  0  0  0  0
   -2.8967    2.1793    0.3822 H   0  0  0  0  0  0  0  0  0  0  0  0
   -0.0942    2.3010   -0.3465 H   0  0  0  0  0  0  0  0  0  0  0  0
    3.7899    0.4636   -1.0544 H   0  0  0  0  0  0  0  0  0  0  0  0
    2.7357   -0.9224   -1.4399 H   0  0  0  0  0  0  0  0  0  0  0  0
    3.2039   -0.5910    0.2581 H   0  0  0  0  0  0  0  0  0  0  0  0
    1.1861   -1.7878    0.0908 H   0  0  0  0  0  0  0  0  0  0  0  0
   -1.0831   -2.4314    0.8413 H   0  0  0  0  0  0  0  0  0  0  0  0
   -5.0986    2.4916    0.2790 S   0  0  0  0  0  0  0  0  0  0  0  0
   -5.5691    2.4757    2.0775 C   0  0  0  0  0  0  0  0  0  0  0  0
   -5.9347    3.4964   -0.3570 O   0  0  0  0  0  0  0  0  0  0  0  0
   -5.1557    1.0873   -0.1390 O   0  0  0  0  0  0  0  0  0  0  0  0
   -3.6202    2.9892    0.3855 O   0  0  0  0  0  0  0  0  0  0  0  0
   -5.4414    3.6881    2.6158 F   0  0  0  0  0  0  0  0  0  0  0  0
   -6.8333    2.0665    2.2081 F   0  0  0  0  0  0  0  0  0  0  0  0
   -4.7683    1.6198    2.7398 F   0  0  0  0  0  0  0  0  0  0  0  0
  1  2  1  0  0  0  0
  2  3  1  0  0  0  0
  4  1  2  0  0  0  0
  5  4  1  0  0  0  0
  6  5  2  0  0  0  0
  6  9  1  0  0  0  0
  7  6  1  0  0  0  0
  8  7  1  0  0  0  0
  8 15  1  0  0  0  0
  9 10  2  0  0  0  0
 10  1  1  0  0  0  0
 10 17  1  0  0  0  0
 11 22  1  0  0  0  0
 12  5  1  0  0  0  0
 13  8  1  0  0  0  0
 14  8  1  0  0  0  0
 16  9  1  0  0  0  0
 18 22  1  0  0  0  0
 18 19  1  0  0  0  0
 19 24  1  0  0  0  0
 19 23  1  0  0  0  0
 19 25  1  0  0  0  0
 20 18  2  0  0  0  0
 21 18  2  0  0  0  0
M  RAD  3   2   2   3   3   4   2
M  END
