Coordinates from ORCA-job 4-MeOPhN2+~TfO-_B3LYPG-6-31G_dp-CH-Scan-d09-49-n800
 OpenBabel11261919093D

 25 24  0  0  0  0  0  0  0  0999 V2000
   -1.5237   -0.3413    0.6616 C   0  0  0  0  0  0  0  0  0  0  0  0
   -2.8307   -0.5769    1.0296 N   0  0  0  0  0  0  0  0  0  0  0  0
   -3.9024   -0.6929    1.3423 N   0  0  0  0  0  0  0  0  0  0  0  0
   -1.2177    1.0349    0.5442 C   0  0  0  0  0  0  0  0  0  0  0  0
    0.1335    1.1918    0.1808 C   0  0  0  0  0  0  0  0  0  0  0  0
    1.0235    0.1272   -0.0301 C   0  0  0  0  0  0  0  0  0  0  0  0
    2.2897    0.4628   -0.3765 O   0  0  0  0  0  0  0  0  0  0  0  0
    3.2558   -0.5574   -0.6007 C   0  0  0  0  0  0  0  0  0  0  0  0
    0.6048   -1.2280    0.1145 C   0  0  0  0  0  0  0  0  0  0  0  0
   -0.6988   -1.4813    0.4698 C   0  0  0  0  0  0  0  0  0  0  0  0
   -4.5702    3.7635   -0.6117 H   0  0  0  0  0  0  0  0  0  0  0  0
    0.5563    2.1881    0.0433 H   0  0  0  0  0  0  0  0  0  0  0  0
    4.1814   -0.0400   -0.8552 H   0  0  0  0  0  0  0  0  0  0  0  0
    2.9682   -1.2110   -1.4330 H   0  0  0  0  0  0  0  0  0  0  0  0
    3.4186   -1.1643    0.2986 H   0  0  0  0  0  0  0  0  0  0  0  0
    1.2902   -2.0498   -0.0500 H   0  0  0  0  0  0  0  0  0  0  0  0
   -1.0662   -2.4973    0.5943 H   0  0  0  0  0  0  0  0  0  0  0  0
   -6.0909    2.6123    0.3703 S   0  0  0  0  0  0  0  0  0  0  0  0
   -5.3718    2.4758    2.0867 C   0  0  0  0  0  0  0  0  0  0  0  0
   -7.5043    2.8926    0.5126 O   0  0  0  0  0  0  0  0  0  0  0  0
   -5.5641    1.5009   -0.4086 O   0  0  0  0  0  0  0  0  0  0  0  0
   -5.3736    3.9898   -0.1105 O   0  0  0  0  0  0  0  0  0  0  0  0
   -5.6970    3.5492    2.8009 F   0  0  0  0  0  0  0  0  0  0  0  0
   -5.8780    1.3826    2.6590 F   0  0  0  0  0  0  0  0  0  0  0  0
   -4.0481    2.3674    2.0049 F   0  0  0  0  0  0  0  0  0  0  0  0
  1  2  1  0  0  0  0
  2  3  1  0  0  0  0
  4  1  1  0  0  0  0
  5  4  2  0  0  0  0
  6  9  2  0  0  0  0
  6  5  1  0  0  0  0
  7  6  1  0  0  0  0
  8  7  1  0  0  0  0
  8 15  1  0  0  0  0
  9 10  1  0  0  0  0
 10 17  1  0  0  0  0
 10  1  2  0  0  0  0
 11 22  1  0  0  0  0
 12  5  1  0  0  0  0
 13  8  1  0  0  0  0
 14  8  1  0  0  0  0
 16  9  1  0  0  0  0
 18 20  2  0  0  0  0
 18 19  1  0  0  0  0
 19 24  1  0  0  0  0
 19 23  1  0  0  0  0
 21 18  2  0  0  0  0
 22 18  1  0  0  0  0
 25 19  1  0  0  0  0
M  RAD  3   2   2   3   3   4   2
M  END
