Coordinates from ORCA-job 4-MeOPhN2+~TfO-_B3LYPG-6-31G_dp-CH-Scan-d09-49-n800
 OpenBabel11261919093D

 25 24  0  0  0  0  0  0  0  0999 V2000
   -1.5506   -0.3482    0.6557 C   0  0  0  0  0  0  0  0  0  0  0  0
   -2.8518   -0.5959    1.0346 N   0  0  0  0  0  0  0  0  0  0  0  0
   -3.9201   -0.7256    1.3535 N   0  0  0  0  0  0  0  0  0  0  0  0
   -1.2703    1.0274    0.4792 C   0  0  0  0  0  0  0  0  0  0  0  0
    0.0772    1.1941    0.1071 C   0  0  0  0  0  0  0  0  0  0  0  0
    0.9871    0.1389   -0.0609 C   0  0  0  0  0  0  0  0  0  0  0  0
    2.2459    0.4836   -0.4245 O   0  0  0  0  0  0  0  0  0  0  0  0
    3.2304   -0.5266   -0.6113 C   0  0  0  0  0  0  0  0  0  0  0  0
    0.5946   -1.2165    0.1423 C   0  0  0  0  0  0  0  0  0  0  0  0
   -0.7034   -1.4789    0.5109 C   0  0  0  0  0  0  0  0  0  0  0  0
   -4.3823    3.7217   -0.5133 H   0  0  0  0  0  0  0  0  0  0  0  0
    0.4807    2.1915   -0.0738 H   0  0  0  0  0  0  0  0  0  0  0  0
    4.1450   -0.0026   -0.8909 H   0  0  0  0  0  0  0  0  0  0  0  0
    2.9518   -1.2187   -1.4149 H   0  0  0  0  0  0  0  0  0  0  0  0
    3.4082   -1.0929    0.3113 H   0  0  0  0  0  0  0  0  0  0  0  0
    1.2951   -2.0316    0.0117 H   0  0  0  0  0  0  0  0  0  0  0  0
   -1.0508   -2.4954    0.6803 H   0  0  0  0  0  0  0  0  0  0  0  0
   -6.0132    2.6262    0.3524 S   0  0  0  0  0  0  0  0  0  0  0  0
   -5.3972    2.4421    2.1040 C   0  0  0  0  0  0  0  0  0  0  0  0
   -7.4184    2.9690    0.4193 O   0  0  0  0  0  0  0  0  0  0  0  0
   -5.4944    1.4971   -0.4062 O   0  0  0  0  0  0  0  0  0  0  0  0
   -5.2116    3.9751   -0.0712 O   0  0  0  0  0  0  0  0  0  0  0  0
   -5.7435    3.5068    2.8211 F   0  0  0  0  0  0  0  0  0  0  0  0
   -5.9524    1.3471    2.6248 F   0  0  0  0  0  0  0  0  0  0  0  0
   -4.0719    2.3113    2.0959 F   0  0  0  0  0  0  0  0  0  0  0  0
  1  2  1  0  0  0  0
  2  3  1  0  0  0  0
  4  1  2  0  0  0  0
  5  4  1  0  0  0  0
  6  5  2  0  0  0  0
  6  9  1  0  0  0  0
  7  6  1  0  0  0  0
  8  7  1  0  0  0  0
  8 15  1  0  0  0  0
  9 10  2  0  0  0  0
 10  1  1  0  0  0  0
 10 17  1  0  0  0  0
 11 22  1  0  0  0  0
 12  5  1  0  0  0  0
 13  8  1  0  0  0  0
 14  8  1  0  0  0  0
 16  9  1  0  0  0  0
 18 20  2  0  0  0  0
 18 19  1  0  0  0  0
 19 24  1  0  0  0  0
 19 23  1  0  0  0  0
 21 18  2  0  0  0  0
 22 18  1  0  0  0  0
 25 19  1  0  0  0  0
M  RAD  3   2   2   3   3   4   2
M  END
