Coordinates from ORCA-job 4-MeOPhN2+~TfO-_B3LYPG-6-31G_dp-CH-Scan-d09-49-n800
 OpenBabel11261919093D

 25 24  0  0  0  0  0  0  0  0999 V2000
   -1.4481   -0.3005    0.5870 C   0  0  0  0  0  0  0  0  0  0  0  0
   -2.7479   -0.5137    0.9890 N   0  0  0  0  0  0  0  0  0  0  0  0
   -3.8143   -0.6218    1.3218 N   0  0  0  0  0  0  0  0  0  0  0  0
   -1.1648    1.0518    0.2793 C   0  0  0  0  0  0  0  0  0  0  0  0
    0.1827    1.1811   -0.1062 C   0  0  0  0  0  0  0  0  0  0  0  0
    1.0918    0.1136   -0.1717 C   0  0  0  0  0  0  0  0  0  0  0  0
    2.3511    0.4212   -0.5637 O   0  0  0  0  0  0  0  0  0  0  0  0
    3.3349   -0.6028   -0.6551 C   0  0  0  0  0  0  0  0  0  0  0  0
    0.6973   -1.2157    0.1591 C   0  0  0  0  0  0  0  0  0  0  0  0
   -0.6011   -1.4405    0.5499 C   0  0  0  0  0  0  0  0  0  0  0  0
   -4.1978    3.5773   -0.1839 H   0  0  0  0  0  0  0  0  0  0  0  0
    0.5865    2.1561   -0.3817 H   0  0  0  0  0  0  0  0  0  0  0  0
    4.2497   -0.1079   -0.9827 H   0  0  0  0  0  0  0  0  0  0  0  0
    3.0557   -1.3666   -1.3906 H   0  0  0  0  0  0  0  0  0  0  0  0
    3.5128   -1.0800    0.3164 H   0  0  0  0  0  0  0  0  0  0  0  0
    1.3967   -2.0407    0.1083 H   0  0  0  0  0  0  0  0  0  0  0  0
   -0.9496   -2.4358    0.8150 H   0  0  0  0  0  0  0  0  0  0  0  0
   -6.0720    2.6946    0.3797 S   0  0  0  0  0  0  0  0  0  0  0  0
   -5.8082    2.4481    2.2092 C   0  0  0  0  0  0  0  0  0  0  0  0
   -7.4151    3.2056    0.2020 O   0  0  0  0  0  0  0  0  0  0  0  0
   -5.5683    1.5031   -0.2881 O   0  0  0  0  0  0  0  0  0  0  0  0
   -5.0496    3.9298    0.1292 O   0  0  0  0  0  0  0  0  0  0  0  0
   -6.1053    3.5640    2.8672 F   0  0  0  0  0  0  0  0  0  0  0  0
   -6.6003    1.4581    2.6166 F   0  0  0  0  0  0  0  0  0  0  0  0
   -4.5327    2.1207    2.4310 F   0  0  0  0  0  0  0  0  0  0  0  0
  1  2  1  0  0  0  0
  2  3  1  0  0  0  0
  4  1  2  0  0  0  0
  5  4  1  0  0  0  0
  6  5  2  0  0  0  0
  6  9  1  0  0  0  0
  7  6  1  0  0  0  0
  8  7  1  0  0  0  0
  8 15  1  0  0  0  0
  9 10  2  0  0  0  0
 10  1  1  0  0  0  0
 10 17  1  0  0  0  0
 11 22  1  0  0  0  0
 12  5  1  0  0  0  0
 13  8  1  0  0  0  0
 14  8  1  0  0  0  0
 16  9  1  0  0  0  0
 18 19  1  0  0  0  0
 19 25  1  0  0  0  0
 19 24  1  0  0  0  0
 19 23  1  0  0  0  0
 20 18  2  0  0  0  0
 21 18  2  0  0  0  0
 22 18  1  0  0  0  0
M  RAD  3   2   2   3   3   4   2
M  END
