Coordinates from ORCA-job 4-MeOPhN2+~TfO-_B3LYPG-6-31G_dp-CH-Scan-d09-49-n800
 OpenBabel11261919093D

 25 24  0  0  0  0  0  0  0  0999 V2000
   -1.5405   -0.3426    0.6708 C   0  0  0  0  0  0  0  0  0  0  0  0
   -2.8455   -0.5841    1.0423 N   0  0  0  0  0  0  0  0  0  0  0  0
   -3.9172   -0.7026    1.3538 N   0  0  0  0  0  0  0  0  0  0  0  0
   -1.2462    1.0342    0.5333 C   0  0  0  0  0  0  0  0  0  0  0  0
    0.1022    1.1976    0.1627 C   0  0  0  0  0  0  0  0  0  0  0  0
    1.0000    0.1377   -0.0382 C   0  0  0  0  0  0  0  0  0  0  0  0
    2.2615    0.4792   -0.3955 O   0  0  0  0  0  0  0  0  0  0  0  0
    3.2348   -0.5358   -0.6128 C   0  0  0  0  0  0  0  0  0  0  0  0
    0.5934   -1.2187    0.1270 C   0  0  0  0  0  0  0  0  0  0  0  0
   -0.7066   -1.4778    0.4913 C   0  0  0  0  0  0  0  0  0  0  0  0
   -4.4471    3.7105   -0.5642 H   0  0  0  0  0  0  0  0  0  0  0  0
    0.5160    2.1955    0.0102 H   0  0  0  0  0  0  0  0  0  0  0  0
    4.1543   -0.0140   -0.8798 H   0  0  0  0  0  0  0  0  0  0  0  0
    2.9472   -1.2023   -1.4348 H   0  0  0  0  0  0  0  0  0  0  0  0
    3.4082   -1.1298    0.2931 H   0  0  0  0  0  0  0  0  0  0  0  0
    1.2849   -2.0370   -0.0290 H   0  0  0  0  0  0  0  0  0  0  0  0
   -1.0647   -2.4950    0.6323 H   0  0  0  0  0  0  0  0  0  0  0  0
   -6.0475    2.6145    0.3556 S   0  0  0  0  0  0  0  0  0  0  0  0
   -5.3758    2.4546    2.0894 C   0  0  0  0  0  0  0  0  0  0  0  0
   -7.4524    2.9489    0.4601 O   0  0  0  0  0  0  0  0  0  0  0  0
   -5.5431    1.4811   -0.4068 O   0  0  0  0  0  0  0  0  0  0  0  0
   -5.2684    3.9640   -0.1073 O   0  0  0  0  0  0  0  0  0  0  0  0
   -5.7087    3.5242    2.8054 F   0  0  0  0  0  0  0  0  0  0  0  0
   -5.9040    1.3609    2.6400 F   0  0  0  0  0  0  0  0  0  0  0  0
   -4.0506    2.3356    2.0382 F   0  0  0  0  0  0  0  0  0  0  0  0
  1  2  1  0  0  0  0
  2  3  1  0  0  0  0
  4  1  1  0  0  0  0
  5  4  2  0  0  0  0
  6  9  2  0  0  0  0
  6  5  1  0  0  0  0
  7  6  1  0  0  0  0
  8  7  1  0  0  0  0
  8 15  1  0  0  0  0
  9 10  1  0  0  0  0
 10 17  1  0  0  0  0
 10  1  2  0  0  0  0
 11 22  1  0  0  0  0
 12  5  1  0  0  0  0
 13  8  1  0  0  0  0
 14  8  1  0  0  0  0
 16  9  1  0  0  0  0
 18 20  2  0  0  0  0
 18 19  1  0  0  0  0
 19 24  1  0  0  0  0
 19 23  1  0  0  0  0
 21 18  2  0  0  0  0
 22 18  1  0  0  0  0
 25 19  1  0  0  0  0
M  RAD  3   2   2   3   3   4   2
M  END
