Coordinates from ORCA-job 4-MeOPhN2+~TfO-_B3LYPG-6-31G_dp-CH-Scan-d09-49-n800
 OpenBabel11261919093D

 25 24  0  0  0  0  0  0  0  0999 V2000
   -1.5286   -0.3424    0.6618 C   0  0  0  0  0  0  0  0  0  0  0  0
   -2.8347   -0.5801    1.0312 N   0  0  0  0  0  0  0  0  0  0  0  0
   -3.9061   -0.6981    1.3442 N   0  0  0  0  0  0  0  0  0  0  0  0
   -1.2270    1.0340    0.5353 C   0  0  0  0  0  0  0  0  0  0  0  0
    0.1235    1.1929    0.1702 C   0  0  0  0  0  0  0  0  0  0  0  0
    1.0168    0.1299   -0.0345 C   0  0  0  0  0  0  0  0  0  0  0  0
    2.2816    0.4674   -0.3842 O   0  0  0  0  0  0  0  0  0  0  0  0
    3.2508   -0.5511   -0.6033 C   0  0  0  0  0  0  0  0  0  0  0  0
    0.6026   -1.2256    0.1192 C   0  0  0  0  0  0  0  0  0  0  0  0
   -0.6999   -1.4808    0.4770 C   0  0  0  0  0  0  0  0  0  0  0  0
   -4.5320    3.7496   -0.5951 H   0  0  0  0  0  0  0  0  0  0  0  0
    0.5430    2.1897    0.0259 H   0  0  0  0  0  0  0  0  0  0  0  0
    4.1743   -0.0322   -0.8621 H   0  0  0  0  0  0  0  0  0  0  0  0
    2.9641   -1.2107   -1.4312 H   0  0  0  0  0  0  0  0  0  0  0  0
    3.4165   -1.1520    0.2995 H   0  0  0  0  0  0  0  0  0  0  0  0
    1.2905   -2.0463   -0.0404 H   0  0  0  0  0  0  0  0  0  0  0  0
   -1.0639   -2.4971    0.6086 H   0  0  0  0  0  0  0  0  0  0  0  0
   -6.0782    2.6149    0.3668 S   0  0  0  0  0  0  0  0  0  0  0  0
   -5.3758    2.4694    2.0893 C   0  0  0  0  0  0  0  0  0  0  0  0
   -7.4894    2.9119    0.4962 O   0  0  0  0  0  0  0  0  0  0  0  0
   -5.5576    1.4972   -0.4073 O   0  0  0  0  0  0  0  0  0  0  0  0
   -5.3408    3.9842   -0.1067 O   0  0  0  0  0  0  0  0  0  0  0  0
   -5.7035    3.5413    2.8046 F   0  0  0  0  0  0  0  0  0  0  0  0
   -5.8904    1.3759    2.6532 F   0  0  0  0  0  0  0  0  0  0  0  0
   -4.0515    2.3569    2.0189 F   0  0  0  0  0  0  0  0  0  0  0  0
  1  2  1  0  0  0  0
  2  3  1  0  0  0  0
  4  1  1  0  0  0  0
  5  4  2  0  0  0  0
  6  9  2  0  0  0  0
  6  5  1  0  0  0  0
  7  6  1  0  0  0  0
  8  7  1  0  0  0  0
  8 15  1  0  0  0  0
  9 10  1  0  0  0  0
 10 17  1  0  0  0  0
 10  1  2  0  0  0  0
 11 22  1  0  0  0  0
 12  5  1  0  0  0  0
 13  8  1  0  0  0  0
 14  8  1  0  0  0  0
 16  9  1  0  0  0  0
 18 20  2  0  0  0  0
 18 19  1  0  0  0  0
 19 24  1  0  0  0  0
 19 23  1  0  0  0  0
 21 18  2  0  0  0  0
 22 18  1  0  0  0  0
 25 19  1  0  0  0  0
M  RAD  3   2   2   3   3   4   2
M  END
