Coordinates from ORCA-job 4-MeOPhN2+~TfO-_B3LYPG-6-31G_dp-CH-Scan-d09-49-n800
 OpenBabel11261919093D

 25 24  0  0  0  0  0  0  0  0999 V2000
   -1.6196   -0.3897    0.4729 C   0  0  0  0  0  0  0  0  0  0  0  0
   -2.9130   -0.6926    0.8279 N   0  0  0  0  0  0  0  0  0  0  0  0
   -3.9789   -0.8914    1.1149 N   0  0  0  0  0  0  0  0  0  0  0  0
   -1.4122    0.9623    0.1033 C   0  0  0  0  0  0  0  0  0  0  0  0
   -0.0643    1.1735   -0.2328 C   0  0  0  0  0  0  0  0  0  0  0  0
    0.9225    0.1747   -0.2006 C   0  0  0  0  0  0  0  0  0  0  0  0
    2.1711    0.5555   -0.5550 O   0  0  0  0  0  0  0  0  0  0  0  0
    3.2322   -0.3936   -0.5453 C   0  0  0  0  0  0  0  0  0  0  0  0
    0.6093   -1.1599    0.1867 C   0  0  0  0  0  0  0  0  0  0  0  0
   -0.6866   -1.4596    0.5330 C   0  0  0  0  0  0  0  0  0  0  0  0
   -3.7745    3.0854   -0.1028 H   0  0  0  0  0  0  0  0  0  0  0  0
    0.2782    2.1604   -0.5441 H   0  0  0  0  0  0  0  0  0  0  0  0
    4.1212    0.1521   -0.8627 H   0  0  0  0  0  0  0  0  0  0  0  0
    3.0444   -1.2156   -1.2460 H   0  0  0  0  0  0  0  0  0  0  0  0
    3.3996   -0.8006    0.4591 H   0  0  0  0  0  0  0  0  0  0  0  0
    1.3672   -1.9324    0.2127 H   0  0  0  0  0  0  0  0  0  0  0  0
   -0.9734   -2.4632    0.8371 H   0  0  0  0  0  0  0  0  0  0  0  0
   -5.8187    2.6541    0.4008 S   0  0  0  0  0  0  0  0  0  0  0  0
   -5.6206    2.4886    2.2469 C   0  0  0  0  0  0  0  0  0  0  0  0
   -7.0254    3.4184    0.1621 O   0  0  0  0  0  0  0  0  0  0  0  0
   -5.5847    1.3310   -0.1615 O   0  0  0  0  0  0  0  0  0  0  0  0
   -4.5683    3.6244    0.0800 O   0  0  0  0  0  0  0  0  0  0  0  0
   -5.6658    3.6848    2.8247 F   0  0  0  0  0  0  0  0  0  0  0  0
   -6.6091    1.7259    2.7121 F   0  0  0  0  0  0  0  0  0  0  0  0
   -4.4466    1.9065    2.5136 F   0  0  0  0  0  0  0  0  0  0  0  0
  1 10  1  0  0  0  0
  1  2  1  0  0  0  0
  2  3  1  0  0  0  0
  4  1  2  0  0  0  0
  5  6  2  0  0  0  0
  5  4  1  0  0  0  0
  6  9  1  0  0  0  0
  7  8  1  0  0  0  0
  7  6  1  0  0  0  0
  8 15  1  0  0  0  0
  9 16  1  0  0  0  0
  9 10  2  0  0  0  0
 10 17  1  0  0  0  0
 11 22  1  0  0  0  0
 12  5  1  0  0  0  0
 13  8  1  0  0  0  0
 14  8  1  0  0  0  0
 18 19  1  0  0  0  0
 19 25  1  0  0  0  0
 19 24  1  0  0  0  0
 19 23  1  0  0  0  0
 20 18  2  0  0  0  0
 21 18  2  0  0  0  0
 22 18  1  0  0  0  0
M  RAD  3   2   2   3   3   4   2
M  END
