Coordinates from ORCA-job 4-MeOPhN2+~TfO-_B3LYPG-6-31G_dp-CH-Scan-d09-49-n800
 OpenBabel11261919093D

 25 24  0  0  0  0  0  0  0  0999 V2000
   -1.7731   -0.2901    0.7074 C   0  0  0  0  0  0  0  0  0  0  0  0
   -3.0282   -0.6005    1.1634 N   0  0  0  0  0  0  0  0  0  0  0  0
   -4.0931   -0.7348    1.4789 N   0  0  0  0  0  0  0  0  0  0  0  0
   -1.5128    1.0570    0.3672 C   0  0  0  0  0  0  0  0  0  0  0  0
   -0.2416    1.3363   -0.0941 C   0  0  0  0  0  0  0  0  0  0  0  0
    0.7338    0.3240   -0.2184 C   0  0  0  0  0  0  0  0  0  0  0  0
    1.9260    0.7231   -0.6830 O   0  0  0  0  0  0  0  0  0  0  0  0
    2.9821   -0.2268   -0.8469 C   0  0  0  0  0  0  0  0  0  0  0  0
    0.4358   -1.0137    0.1378 C   0  0  0  0  0  0  0  0  0  0  0  0
   -0.8236   -1.3265    0.6088 C   0  0  0  0  0  0  0  0  0  0  0  0
   -2.4489    1.9475    0.5157 H   0  0  0  0  0  0  0  0  0  0  0  0
    0.0341    2.3473   -0.3751 H   0  0  0  0  0  0  0  0  0  0  0  0
    3.8270    0.3404   -1.2356 H   0  0  0  0  0  0  0  0  0  0  0  0
    2.7041   -1.0064   -1.5642 H   0  0  0  0  0  0  0  0  0  0  0  0
    3.2577   -0.6808    0.1112 H   0  0  0  0  0  0  0  0  0  0  0  0
    1.1785   -1.7956    0.0463 H   0  0  0  0  0  0  0  0  0  0  0  0
   -1.0792   -2.3428    0.8897 H   0  0  0  0  0  0  0  0  0  0  0  0
   -4.9990    2.4812    0.4183 S   0  0  0  0  0  0  0  0  0  0  0  0
   -5.9122    2.4537    2.0353 C   0  0  0  0  0  0  0  0  0  0  0  0
   -5.7297    3.4250   -0.4278 O   0  0  0  0  0  0  0  0  0  0  0  0
   -5.0153    1.0522   -0.0012 O   0  0  0  0  0  0  0  0  0  0  0  0
   -3.6268    2.9281    0.8503 O   0  0  0  0  0  0  0  0  0  0  0  0
   -5.9117    3.6591    2.6141 F   0  0  0  0  0  0  0  0  0  0  0  0
   -7.1796    2.0621    1.8574 F   0  0  0  0  0  0  0  0  0  0  0  0
   -5.3199    1.5800    2.8815 F   0  0  0  0  0  0  0  0  0  0  0  0
  1  2  1  0  0  0  0
  2  3  1  0  0  0  0
  4 11  1  0  0  0  0
  4  1  2  0  0  0  0
  5  4  1  0  0  0  0
  6  5  2  0  0  0  0
  6  9  1  0  0  0  0
  7  6  1  0  0  0  0
  8  7  1  0  0  0  0
  8 15  1  0  0  0  0
  9 10  2  0  0  0  0
 10  1  1  0  0  0  0
 10 17  1  0  0  0  0
 12  5  1  0  0  0  0
 13  8  1  0  0  0  0
 14  8  1  0  0  0  0
 16  9  1  0  0  0  0
 18 22  1  0  0  0  0
 18 19  1  0  0  0  0
 19 23  1  0  0  0  0
 19 25  1  0  0  0  0
 20 18  2  0  0  0  0
 21 18  2  0  0  0  0
 24 19  1  0  0  0  0
M  RAD  3   2   2   3   3  22   2
M  END
