Coordinates from ORCA-job 4-MeOPhN2+~TfO-_B3LYPG-6-31G_dp-CH-Scan-d09-49-n800
 OpenBabel11261919093D

 25 24  0  0  0  0  0  0  0  0999 V2000
   -1.5162   -0.3405    0.6824 C   0  0  0  0  0  0  0  0  0  0  0  0
   -2.8275   -0.5733    1.0379 N   0  0  0  0  0  0  0  0  0  0  0  0
   -3.9025   -0.6854    1.3405 N   0  0  0  0  0  0  0  0  0  0  0  0
   -1.1917    1.0352    0.6275 C   0  0  0  0  0  0  0  0  0  0  0  0
    0.1611    1.1902    0.2689 C   0  0  0  0  0  0  0  0  0  0  0  0
    1.0357    0.1242    0.0073 C   0  0  0  0  0  0  0  0  0  0  0  0
    2.3057    0.4578   -0.3277 O   0  0  0  0  0  0  0  0  0  0  0  0
    3.2568   -0.5644   -0.6013 C   0  0  0  0  0  0  0  0  0  0  0  0
    0.5988   -1.2304    0.0913 C   0  0  0  0  0  0  0  0  0  0  0  0
   -0.7076   -1.4819    0.4374 C   0  0  0  0  0  0  0  0  0  0  0  0
   -4.6771    3.7561   -0.6929 H   0  0  0  0  0  0  0  0  0  0  0  0
    0.5974    2.1860    0.1767 H   0  0  0  0  0  0  0  0  0  0  0  0
    4.1880   -0.0487   -0.8379 H   0  0  0  0  0  0  0  0  0  0  0  0
    2.9566   -1.1771   -1.4600 H   0  0  0  0  0  0  0  0  0  0  0  0
    3.4156   -1.2123    0.2696 H   0  0  0  0  0  0  0  0  0  0  0  0
    1.2729   -2.0529   -0.1118 H   0  0  0  0  0  0  0  0  0  0  0  0
   -1.0890   -2.4974    0.5160 H   0  0  0  0  0  0  0  0  0  0  0  0
   -6.1257    2.5908    0.3772 S   0  0  0  0  0  0  0  0  0  0  0  0
   -5.3268    2.5054    2.0614 C   0  0  0  0  0  0  0  0  0  0  0  0
   -7.5379    2.8414    0.5761 O   0  0  0  0  0  0  0  0  0  0  0  0
   -5.6069    1.4773   -0.4048 O   0  0  0  0  0  0  0  0  0  0  0  0
   -5.4631    3.9749   -0.1619 O   0  0  0  0  0  0  0  0  0  0  0  0
   -5.6456    3.5851    2.7690 F   0  0  0  0  0  0  0  0  0  0  0  0
   -5.7800    1.4125    2.6772 F   0  0  0  0  0  0  0  0  0  0  0  0
   -4.0067    2.4264    1.9188 F   0  0  0  0  0  0  0  0  0  0  0  0
  1  2  1  0  0  0  0
  2  3  1  0  0  0  0
  4  1  1  0  0  0  0
  5  4  2  0  0  0  0
  6  9  2  0  0  0  0
  6  5  1  0  0  0  0
  7  6  1  0  0  0  0
  8  7  1  0  0  0  0
  8 15  1  0  0  0  0
  9 10  1  0  0  0  0
 10 17  1  0  0  0  0
 10  1  2  0  0  0  0
 11 22  1  0  0  0  0
 12  5  1  0  0  0  0
 13  8  1  0  0  0  0
 14  8  1  0  0  0  0
 16  9  1  0  0  0  0
 18 20  2  0  0  0  0
 18 19  1  0  0  0  0
 19 24  1  0  0  0  0
 19 23  1  0  0  0  0
 21 18  2  0  0  0  0
 22 18  1  0  0  0  0
 25 19  1  0  0  0  0
M  RAD  3   2   2   3   3   4   2
M  END
