Coordinates from ORCA-job 4-MeOPhN2+~TfO-_B3LYPG-6-31G_dp-CH-Scan-d09-49-n800
 OpenBabel11261919093D

 25 24  0  0  0  0  0  0  0  0999 V2000
   -1.5196   -0.3403    0.6623 C   0  0  0  0  0  0  0  0  0  0  0  0
   -2.8274   -0.5740    1.0290 N   0  0  0  0  0  0  0  0  0  0  0  0
   -3.8994   -0.6884    1.3411 N   0  0  0  0  0  0  0  0  0  0  0  0
   -1.2094    1.0356    0.5539 C   0  0  0  0  0  0  0  0  0  0  0  0
    0.1424    1.1908    0.1919 C   0  0  0  0  0  0  0  0  0  0  0  0
    1.0292    0.1250   -0.0255 C   0  0  0  0  0  0  0  0  0  0  0  0
    2.2966    0.4589   -0.3693 O   0  0  0  0  0  0  0  0  0  0  0  0
    3.2599   -0.5627   -0.5990 C   0  0  0  0  0  0  0  0  0  0  0  0
    0.6064   -1.2299    0.1103 C   0  0  0  0  0  0  0  0  0  0  0  0
   -0.6980   -1.4815    0.4635 C   0  0  0  0  0  0  0  0  0  0  0  0
   -4.6039    3.7756   -0.6275 H   0  0  0  0  0  0  0  0  0  0  0  0
    0.5681    2.1868    0.0609 H   0  0  0  0  0  0  0  0  0  0  0  0
    4.1871   -0.0465   -0.8499 H   0  0  0  0  0  0  0  0  0  0  0  0
    2.9708   -1.2105   -1.4354 H   0  0  0  0  0  0  0  0  0  0  0  0
    3.4203   -1.1755    0.2967 H   0  0  0  0  0  0  0  0  0  0  0  0
    1.2894   -2.0526   -0.0593 H   0  0  0  0  0  0  0  0  0  0  0  0
   -1.0686   -2.4972    0.5812 H   0  0  0  0  0  0  0  0  0  0  0  0
   -6.1017    2.6098    0.3731 S   0  0  0  0  0  0  0  0  0  0  0  0
   -5.3678    2.4813    2.0840 C   0  0  0  0  0  0  0  0  0  0  0  0
   -7.5166    2.8765    0.5267 O   0  0  0  0  0  0  0  0  0  0  0  0
   -5.5703    1.5028   -0.4095 O   0  0  0  0  0  0  0  0  0  0  0  0
   -5.4022    3.9941   -0.1153 O   0  0  0  0  0  0  0  0  0  0  0  0
   -5.6912    3.5559    2.7972 F   0  0  0  0  0  0  0  0  0  0  0  0
   -5.8659    1.3882    2.6636 F   0  0  0  0  0  0  0  0  0  0  0  0
   -4.0443    2.3769    1.9921 F   0  0  0  0  0  0  0  0  0  0  0  0
  1  2  1  0  0  0  0
  2  3  1  0  0  0  0
  4  1  1  0  0  0  0
  5  4  2  0  0  0  0
  6  9  2  0  0  0  0
  6  5  1  0  0  0  0
  7  6  1  0  0  0  0
  8  7  1  0  0  0  0
  8 15  1  0  0  0  0
  9 10  1  0  0  0  0
 10 17  1  0  0  0  0
 10  1  2  0  0  0  0
 11 22  1  0  0  0  0
 12  5  1  0  0  0  0
 13  8  1  0  0  0  0
 14  8  1  0  0  0  0
 16  9  1  0  0  0  0
 18 20  2  0  0  0  0
 18 19  1  0  0  0  0
 19 24  1  0  0  0  0
 19 23  1  0  0  0  0
 21 18  2  0  0  0  0
 22 18  1  0  0  0  0
 25 19  1  0  0  0  0
M  RAD  3   2   2   3   3   4   2
M  END
