Coordinates from ORCA-job 4-MeOPhN2+~TfO-_B3LYPG-6-31G_dp-CH-Scan-d09-49-n800
 OpenBabel11261919093D

 25 24  0  0  0  0  0  0  0  0999 V2000
   -1.7393   -0.4125    0.5171 C   0  0  0  0  0  0  0  0  0  0  0  0
   -3.0118   -0.7702    0.8877 N   0  0  0  0  0  0  0  0  0  0  0  0
   -4.0604   -1.0240    1.1910 N   0  0  0  0  0  0  0  0  0  0  0  0
   -1.5659    0.9521    0.1728 C   0  0  0  0  0  0  0  0  0  0  0  0
   -0.2353    1.2151   -0.1807 C   0  0  0  0  0  0  0  0  0  0  0  0
    0.7814    0.2447   -0.1867 C   0  0  0  0  0  0  0  0  0  0  0  0
    2.0095    0.6716   -0.5510 O   0  0  0  0  0  0  0  0  0  0  0  0
    3.1006   -0.2442   -0.5793 C   0  0  0  0  0  0  0  0  0  0  0  0
    0.5116   -1.1050    0.1746 C   0  0  0  0  0  0  0  0  0  0  0  0
   -0.7695   -1.4496    0.5351 C   0  0  0  0  0  0  0  0  0  0  0  0
   -3.3599    2.6294    0.1020 H   0  0  0  0  0  0  0  0  0  0  0  0
    0.0689    2.2187   -0.4745 H   0  0  0  0  0  0  0  0  0  0  0  0
    3.9666    0.3372   -0.8966 H   0  0  0  0  0  0  0  0  0  0  0  0
    2.9265   -1.0546   -1.2967 H   0  0  0  0  0  0  0  0  0  0  0  0
    3.2950   -0.6681    0.4130 H   0  0  0  0  0  0  0  0  0  0  0  0
    1.2907   -1.8565    0.1701 H   0  0  0  0  0  0  0  0  0  0  0  0
   -1.0211   -2.4677    0.8201 H   0  0  0  0  0  0  0  0  0  0  0  0
   -5.5023    2.5723    0.3407 S   0  0  0  0  0  0  0  0  0  0  0  0
   -5.5472    2.5048    2.2011 C   0  0  0  0  0  0  0  0  0  0  0  0
   -6.5417    3.4910   -0.0800 O   0  0  0  0  0  0  0  0  0  0  0  0
   -5.4469    1.1858   -0.1088 O   0  0  0  0  0  0  0  0  0  0  0  0
   -4.0925    3.2973    0.1252 O   0  0  0  0  0  0  0  0  0  0  0  0
   -5.4645    3.7287    2.7153 F   0  0  0  0  0  0  0  0  0  0  0  0
   -6.6902    1.9350    2.5844 F   0  0  0  0  0  0  0  0  0  0  0  0
   -4.5183    1.7675    2.6411 F   0  0  0  0  0  0  0  0  0  0  0  0
  1 10  1  0  0  0  0
  1  2  1  0  0  0  0
  2  3  1  0  0  0  0
  4  1  2  0  0  0  0
  5  4  1  0  0  0  0
  6  5  2  0  0  0  0
  6  9  1  0  0  0  0
  7  6  1  0  0  0  0
  8  7  1  0  0  0  0
  8 15  1  0  0  0  0
  9 10  2  0  0  0  0
 10 17  1  0  0  0  0
 11 22  1  0  0  0  0
 12  5  1  0  0  0  0
 13  8  1  0  0  0  0
 14  8  1  0  0  0  0
 16  9  1  0  0  0  0
 18 19  1  0  0  0  0
 19 24  1  0  0  0  0
 19 25  1  0  0  0  0
 19 23  1  0  0  0  0
 20 18  2  0  0  0  0
 21 18  2  0  0  0  0
 22 18  1  0  0  0  0
M  RAD  3   2   2   3   3   4   2
M  END
