Coordinates from ORCA-job 4-MeOPhN2+~TfO-_B3LYPG-6-31G_dp-CH-Scan-d09-49-n800
 OpenBabel11261919093D

 25 24  0  0  0  0  0  0  0  0999 V2000
   -1.8059   -0.2960    0.7552 C   0  0  0  0  0  0  0  0  0  0  0  0
   -3.0439   -0.6356    1.2315 N   0  0  0  0  0  0  0  0  0  0  0  0
   -4.0688   -0.8691    1.6091 N   0  0  0  0  0  0  0  0  0  0  0  0
   -1.5627    1.0635    0.4479 C   0  0  0  0  0  0  0  0  0  0  0  0
   -0.2921    1.3441   -0.0226 C   0  0  0  0  0  0  0  0  0  0  0  0
    0.6838    0.3388   -0.1833 C   0  0  0  0  0  0  0  0  0  0  0  0
    1.8712    0.7499   -0.6513 O   0  0  0  0  0  0  0  0  0  0  0  0
    2.9242   -0.1950   -0.8556 C   0  0  0  0  0  0  0  0  0  0  0  0
    0.3929   -1.0105    0.1400 C   0  0  0  0  0  0  0  0  0  0  0  0
   -0.8594   -1.3354    0.6161 C   0  0  0  0  0  0  0  0  0  0  0  0
   -2.5438    2.0100    0.5898 H   0  0  0  0  0  0  0  0  0  0  0  0
   -0.0167    2.3600   -0.2883 H   0  0  0  0  0  0  0  0  0  0  0  0
    3.7643    0.3824   -1.2400 H   0  0  0  0  0  0  0  0  0  0  0  0
    2.6366   -0.9548   -1.5903 H   0  0  0  0  0  0  0  0  0  0  0  0
    3.2131   -0.6757    0.0856 H   0  0  0  0  0  0  0  0  0  0  0  0
    1.1351   -1.7887    0.0179 H   0  0  0  0  0  0  0  0  0  0  0  0
   -1.1124   -2.3589    0.8730 H   0  0  0  0  0  0  0  0  0  0  0  0
   -4.9347    2.4835    0.3372 S   0  0  0  0  0  0  0  0  0  0  0  0
   -5.8011    2.4269    1.9794 C   0  0  0  0  0  0  0  0  0  0  0  0
   -5.6952    3.4308   -0.4743 O   0  0  0  0  0  0  0  0  0  0  0  0
   -4.9062    1.0645   -0.0868 O   0  0  0  0  0  0  0  0  0  0  0  0
   -3.5555    2.9715    0.7472 O   0  0  0  0  0  0  0  0  0  0  0  0
   -5.8131    3.6268    2.5667 F   0  0  0  0  0  0  0  0  0  0  0  0
   -7.0621    2.0050    1.8315 F   0  0  0  0  0  0  0  0  0  0  0  0
   -5.1636    1.5610    2.8015 F   0  0  0  0  0  0  0  0  0  0  0  0
  1  2  1  0  0  0  0
  2  3  1  0  0  0  0
  4 11  1  0  0  0  0
  4  1  2  0  0  0  0
  5  4  1  0  0  0  0
  6  5  2  0  0  0  0
  6  9  1  0  0  0  0
  7  6  1  0  0  0  0
  8  7  1  0  0  0  0
  8 15  1  0  0  0  0
  9 10  2  0  0  0  0
 10  1  1  0  0  0  0
 10 17  1  0  0  0  0
 12  5  1  0  0  0  0
 13  8  1  0  0  0  0
 14  8  1  0  0  0  0
 16  9  1  0  0  0  0
 18 22  1  0  0  0  0
 18 19  1  0  0  0  0
 19 23  1  0  0  0  0
 19 25  1  0  0  0  0
 20 18  2  0  0  0  0
 21 18  2  0  0  0  0
 24 19  1  0  0  0  0
M  RAD  3   2   2   3   3  22   2
M  END
