Coordinates from ORCA-job 4-MeOPhN2+~TfO-_B3LYPG-6-31G_dp-CH-Scan-d09-49-n800
 OpenBabel11261919093D

 25 24  0  0  0  0  0  0  0  0999 V2000
   -1.4617   -0.3076    0.5821 C   0  0  0  0  0  0  0  0  0  0  0  0
   -2.7602   -0.5283    0.9835 N   0  0  0  0  0  0  0  0  0  0  0  0
   -3.8262   -0.6442    1.3149 N   0  0  0  0  0  0  0  0  0  0  0  0
   -1.1875    1.0440    0.2628 C   0  0  0  0  0  0  0  0  0  0  0  0
    0.1593    1.1798   -0.1224 C   0  0  0  0  0  0  0  0  0  0  0  0
    1.0764    0.1186   -0.1776 C   0  0  0  0  0  0  0  0  0  0  0  0
    2.3336    0.4320   -0.5714 O   0  0  0  0  0  0  0  0  0  0  0  0
    3.3250   -0.5855   -0.6535 C   0  0  0  0  0  0  0  0  0  0  0  0
    0.6914   -1.2105    0.1649 C   0  0  0  0  0  0  0  0  0  0  0  0
   -0.6058   -1.4413    0.5561 C   0  0  0  0  0  0  0  0  0  0  0  0
   -4.1410    3.5383   -0.1578 H   0  0  0  0  0  0  0  0  0  0  0  0
    0.5561    2.1554   -0.4061 H   0  0  0  0  0  0  0  0  0  0  0  0
    4.2360   -0.0867   -0.9859 H   0  0  0  0  0  0  0  0  0  0  0  0
    3.0514   -1.3581   -1.3818 H   0  0  0  0  0  0  0  0  0  0  0  0
    3.5067   -1.0521    0.3224 H   0  0  0  0  0  0  0  0  0  0  0  0
    1.3969   -2.0307    0.1224 H   0  0  0  0  0  0  0  0  0  0  0  0
   -0.9470   -2.4368    0.8299 H   0  0  0  0  0  0  0  0  0  0  0  0
   -6.0416    2.6948    0.3780 S   0  0  0  0  0  0  0  0  0  0  0  0
   -5.8066    2.4471    2.2114 C   0  0  0  0  0  0  0  0  0  0  0  0
   -7.3716    3.2326    0.1818 O   0  0  0  0  0  0  0  0  0  0  0  0
   -5.5544    1.4910   -0.2799 O   0  0  0  0  0  0  0  0  0  0  0  0
   -4.9917    3.9082    0.1385 O   0  0  0  0  0  0  0  0  0  0  0  0
   -6.0942    3.5687    2.8639 F   0  0  0  0  0  0  0  0  0  0  0  0
   -6.6197    1.4707    2.6099 F   0  0  0  0  0  0  0  0  0  0  0  0
   -4.5395    2.0995    2.4510 F   0  0  0  0  0  0  0  0  0  0  0  0
  1  2  1  0  0  0  0
  2  3  1  0  0  0  0
  4  1  2  0  0  0  0
  5  4  1  0  0  0  0
  6  5  2  0  0  0  0
  6  9  1  0  0  0  0
  7  6  1  0  0  0  0
  8  7  1  0  0  0  0
  8 15  1  0  0  0  0
  9 10  2  0  0  0  0
 10  1  1  0  0  0  0
 10 17  1  0  0  0  0
 11 22  1  0  0  0  0
 12  5  1  0  0  0  0
 13  8  1  0  0  0  0
 14  8  1  0  0  0  0
 16  9  1  0  0  0  0
 18 19  1  0  0  0  0
 19 25  1  0  0  0  0
 19 24  1  0  0  0  0
 19 23  1  0  0  0  0
 20 18  2  0  0  0  0
 21 18  2  0  0  0  0
 22 18  1  0  0  0  0
M  RAD  3   2   2   3   3   4   2
M  END
