Coordinates from ORCA-job 4-MeOPhN2+~TfO-_B3LYPG-6-31G_dp-CH-Scan-d09-49-n800
 OpenBabel11261919093D

 25 24  0  0  0  0  0  0  0  0999 V2000
   -1.8122   -0.3215    0.7544 C   0  0  0  0  0  0  0  0  0  0  0  0
   -3.0455   -0.6836    1.2274 N   0  0  0  0  0  0  0  0  0  0  0  0
   -4.0604   -0.9495    1.6132 N   0  0  0  0  0  0  0  0  0  0  0  0
   -1.6011    1.0479    0.4589 C   0  0  0  0  0  0  0  0  0  0  0  0
   -0.3230    1.3295   -0.0062 C   0  0  0  0  0  0  0  0  0  0  0  0
    0.6647    0.3382   -0.1686 C   0  0  0  0  0  0  0  0  0  0  0  0
    1.8518    0.7638   -0.6313 O   0  0  0  0  0  0  0  0  0  0  0  0
    2.9130   -0.1697   -0.8375 C   0  0  0  0  0  0  0  0  0  0  0  0
    0.3910   -1.0184    0.1457 C   0  0  0  0  0  0  0  0  0  0  0  0
   -0.8585   -1.3578    0.6147 C   0  0  0  0  0  0  0  0  0  0  0  0
   -2.6736    2.0761    0.5811 H   0  0  0  0  0  0  0  0  0  0  0  0
   -0.0477    2.3471   -0.2698 H   0  0  0  0  0  0  0  0  0  0  0  0
    3.7493    0.4165   -1.2173 H   0  0  0  0  0  0  0  0  0  0  0  0
    2.6352   -0.9294   -1.5763 H   0  0  0  0  0  0  0  0  0  0  0  0
    3.2052   -0.6533    0.1014 H   0  0  0  0  0  0  0  0  0  0  0  0
    1.1430   -1.7869    0.0217 H   0  0  0  0  0  0  0  0  0  0  0  0
   -1.1032   -2.3852    0.8662 H   0  0  0  0  0  0  0  0  0  0  0  0
   -4.9478    2.4767    0.3003 S   0  0  0  0  0  0  0  0  0  0  0  0
   -5.7372    2.4383    1.9818 C   0  0  0  0  0  0  0  0  0  0  0  0
   -5.6963    3.4613   -0.4712 O   0  0  0  0  0  0  0  0  0  0  0  0
   -4.9454    1.0672   -0.1304 O   0  0  0  0  0  0  0  0  0  0  0  0
   -3.5294    2.9505    0.6644 O   0  0  0  0  0  0  0  0  0  0  0  0
   -5.7098    3.6415    2.5579 F   0  0  0  0  0  0  0  0  0  0  0  0
   -7.0061    2.0298    1.8837 F   0  0  0  0  0  0  0  0  0  0  0  0
   -5.0717    1.5699    2.7729 F   0  0  0  0  0  0  0  0  0  0  0  0
  1  2  1  0  0  0  0
  2  3  1  0  0  0  0
  4  1  2  0  0  0  0
  5  4  1  0  0  0  0
  6  5  2  0  0  0  0
  6  9  1  0  0  0  0
  7  6  1  0  0  0  0
  8  7  1  0  0  0  0
  8 15  1  0  0  0  0
  9 10  2  0  0  0  0
 10  1  1  0  0  0  0
 10 17  1  0  0  0  0
 11 22  1  0  0  0  0
 12  5  1  0  0  0  0
 13  8  1  0  0  0  0
 14  8  1  0  0  0  0
 16  9  1  0  0  0  0
 18 22  1  0  0  0  0
 18 19  1  0  0  0  0
 19 23  1  0  0  0  0
 19 25  1  0  0  0  0
 20 18  2  0  0  0  0
 21 18  2  0  0  0  0
 24 19  1  0  0  0  0
M  RAD  3   2   2   3   3   4   2
M  END
