Coordinates from ORCA-job 4-MeOPhN2+~TfO-_B3LYPG-6-31G_dp-CH-Scan-d09-49-n800
 OpenBabel11261919093D

 25 24  0  0  0  0  0  0  0  0999 V2000
   -1.4836   -0.3165    0.5767 C   0  0  0  0  0  0  0  0  0  0  0  0
   -2.7800   -0.5485    0.9778 N   0  0  0  0  0  0  0  0  0  0  0  0
   -3.8449   -0.6762    1.3079 N   0  0  0  0  0  0  0  0  0  0  0  0
   -1.2213    1.0346    0.2447 C   0  0  0  0  0  0  0  0  0  0  0  0
    0.1243    1.1802   -0.1401 C   0  0  0  0  0  0  0  0  0  0  0  0
    1.0520    0.1275   -0.1841 C   0  0  0  0  0  0  0  0  0  0  0  0
    2.3062    0.4495   -0.5797 O   0  0  0  0  0  0  0  0  0  0  0  0
    3.3078   -0.5589   -0.6513 C   0  0  0  0  0  0  0  0  0  0  0  0
    0.6796   -1.2018    0.1710 C   0  0  0  0  0  0  0  0  0  0  0  0
   -0.6158   -1.4414    0.5628 C   0  0  0  0  0  0  0  0  0  0  0  0
   -4.0566    3.4747   -0.1213 H   0  0  0  0  0  0  0  0  0  0  0  0
    0.5116    2.1568   -0.4327 H   0  0  0  0  0  0  0  0  0  0  0  0
    4.2138   -0.0543   -0.9886 H   0  0  0  0  0  0  0  0  0  0  0  0
    3.0420   -1.3415   -1.3717 H   0  0  0  0  0  0  0  0  0  0  0  0
    3.4939   -1.0135    0.3294 H   0  0  0  0  0  0  0  0  0  0  0  0
    1.3931   -2.0154    0.1375 H   0  0  0  0  0  0  0  0  0  0  0  0
   -0.9475   -2.4375    0.8458 H   0  0  0  0  0  0  0  0  0  0  0  0
   -5.9935    2.6903    0.3743 S   0  0  0  0  0  0  0  0  0  0  0  0
   -5.7987    2.4468    2.2129 C   0  0  0  0  0  0  0  0  0  0  0  0
   -7.3034    3.2657    0.1511 O   0  0  0  0  0  0  0  0  0  0  0  0
   -5.5318    1.4674   -0.2665 O   0  0  0  0  0  0  0  0  0  0  0  0
   -4.9052    3.8706    0.1467 O   0  0  0  0  0  0  0  0  0  0  0  0
   -6.0716    3.5780    2.8551 F   0  0  0  0  0  0  0  0  0  0  0  0
   -6.6415    1.4917    2.6013 F   0  0  0  0  0  0  0  0  0  0  0  0
   -4.5446    2.0707    2.4779 F   0  0  0  0  0  0  0  0  0  0  0  0
  1  2  1  0  0  0  0
  2  3  1  0  0  0  0
  4  1  2  0  0  0  0
  5  4  1  0  0  0  0
  6  5  2  0  0  0  0
  6  9  1  0  0  0  0
  7  6  1  0  0  0  0
  8  7  1  0  0  0  0
  8 15  1  0  0  0  0
  9 10  2  0  0  0  0
 10  1  1  0  0  0  0
 10 17  1  0  0  0  0
 11 22  1  0  0  0  0
 12  5  1  0  0  0  0
 13  8  1  0  0  0  0
 14  8  1  0  0  0  0
 16  9  1  0  0  0  0
 18 19  1  0  0  0  0
 19 25  1  0  0  0  0
 19 24  1  0  0  0  0
 19 23  1  0  0  0  0
 20 18  2  0  0  0  0
 21 18  2  0  0  0  0
 22 18  1  0  0  0  0
M  RAD  3   2   2   3   3   4   2
M  END
