Coordinates from ORCA-job 4-MeOPhN2+~TfO-_B3LYPG-6-31G_dp-CH-Scan-d09-49-n800
 OpenBabel11261919093D

 25 24  0  0  0  0  0  0  0  0999 V2000
   -1.5022   -0.3432    0.6887 C   0  0  0  0  0  0  0  0  0  0  0  0
   -2.8177   -0.5712    1.0322 N   0  0  0  0  0  0  0  0  0  0  0  0
   -3.8962   -0.6779    1.3248 N   0  0  0  0  0  0  0  0  0  0  0  0
   -1.1660    1.0303    0.6660 C   0  0  0  0  0  0  0  0  0  0  0  0
    0.1889    1.1821    0.3139 C   0  0  0  0  0  0  0  0  0  0  0  0
    1.0547    0.1147    0.0298 C   0  0  0  0  0  0  0  0  0  0  0  0
    2.3280    0.4449   -0.2961 O   0  0  0  0  0  0  0  0  0  0  0  0
    3.2704   -0.5789   -0.5929 C   0  0  0  0  0  0  0  0  0  0  0  0
    0.6065   -1.2378    0.0834 C   0  0  0  0  0  0  0  0  0  0  0  0
   -0.7029   -1.4859    0.4206 C   0  0  0  0  0  0  0  0  0  0  0  0
   -4.8143    3.7903   -0.7535 H   0  0  0  0  0  0  0  0  0  0  0  0
    0.6337    2.1760    0.2453 H   0  0  0  0  0  0  0  0  0  0  0  0
    4.2054   -0.0658   -0.8201 H   0  0  0  0  0  0  0  0  0  0  0  0
    2.9641   -1.1707   -1.4639 H   0  0  0  0  0  0  0  0  0  0  0  0
    3.4254   -1.2464    0.2638 H   0  0  0  0  0  0  0  0  0  0  0  0
    1.2744   -2.0611   -0.1358 H   0  0  0  0  0  0  0  0  0  0  0  0
   -1.0930   -2.4997    0.4757 H   0  0  0  0  0  0  0  0  0  0  0  0
   -6.1755    2.5930    0.3918 S   0  0  0  0  0  0  0  0  0  0  0  0
   -5.2961    2.5224    2.0361 C   0  0  0  0  0  0  0  0  0  0  0  0
   -7.5823    2.8105    0.6573 O   0  0  0  0  0  0  0  0  0  0  0  0
   -5.6686    1.4951   -0.4196 O   0  0  0  0  0  0  0  0  0  0  0  0
   -5.5679    3.9933   -0.1717 O   0  0  0  0  0  0  0  0  0  0  0  0
   -5.6075    3.5924    2.7615 F   0  0  0  0  0  0  0  0  0  0  0  0
   -5.6939    1.4174    2.6692 F   0  0  0  0  0  0  0  0  0  0  0  0
   -3.9833    2.4752    1.8308 F   0  0  0  0  0  0  0  0  0  0  0  0
  1  2  1  0  0  0  0
  2  3  1  0  0  0  0
  4  1  1  0  0  0  0
  5  4  2  0  0  0  0
  6  9  2  0  0  0  0
  6  5  1  0  0  0  0
  7  6  1  0  0  0  0
  8  7  1  0  0  0  0
  8 15  1  0  0  0  0
  9 10  1  0  0  0  0
 10 17  1  0  0  0  0
 10  1  2  0  0  0  0
 11 22  1  0  0  0  0
 12  5  1  0  0  0  0
 13  8  1  0  0  0  0
 14  8  1  0  0  0  0
 16  9  1  0  0  0  0
 18 20  2  0  0  0  0
 18 19  1  0  0  0  0
 19 24  1  0  0  0  0
 19 23  1  0  0  0  0
 21 18  2  0  0  0  0
 22 18  1  0  0  0  0
 25 19  1  0  0  0  0
M  RAD  3   2   2   3   3   4   2
M  END
