Coordinates from ORCA-job 4-MeOPhN2+~TfO-_B3LYPG-6-31G_dp-CH-Scan-d09-49-n800
 OpenBabel11261919093D

 25 24  0  0  0  0  0  0  0  0999 V2000
   -1.5284   -0.3282    0.5704 C   0  0  0  0  0  0  0  0  0  0  0  0
   -2.8201   -0.5804    0.9717 N   0  0  0  0  0  0  0  0  0  0  0  0
   -3.8822   -0.7300    1.3011 N   0  0  0  0  0  0  0  0  0  0  0  0
   -1.2847    1.0227    0.2215 C   0  0  0  0  0  0  0  0  0  0  0  0
    0.0584    1.1854   -0.1628 C   0  0  0  0  0  0  0  0  0  0  0  0
    1.0031    0.1471   -0.1917 C   0  0  0  0  0  0  0  0  0  0  0  0
    2.2523    0.4844   -0.5888 O   0  0  0  0  0  0  0  0  0  0  0  0
    3.2707   -0.5084   -0.6453 C   0  0  0  0  0  0  0  0  0  0  0  0
    0.6511   -1.1829    0.1796 C   0  0  0  0  0  0  0  0  0  0  0  0
   -0.6412   -1.4380    0.5719 C   0  0  0  0  0  0  0  0  0  0  0  0
   -3.9056    3.3450   -0.0614 H   0  0  0  0  0  0  0  0  0  0  0  0
    0.4302    2.1643   -0.4670 H   0  0  0  0  0  0  0  0  0  0  0  0
    4.1687    0.0065   -0.9880 H   0  0  0  0  0  0  0  0  0  0  0  0
    3.0189   -1.3047   -1.3557 H   0  0  0  0  0  0  0  0  0  0  0  0
    3.4623   -0.9466    0.3416 H   0  0  0  0  0  0  0  0  0  0  0  0
    1.3772   -1.9856    0.1579 H   0  0  0  0  0  0  0  0  0  0  0  0
   -0.9573   -2.4356    0.8666 H   0  0  0  0  0  0  0  0  0  0  0  0
   -5.9013    2.6751    0.3649 S   0  0  0  0  0  0  0  0  0  0  0  0
   -5.7679    2.4438    2.2103 C   0  0  0  0  0  0  0  0  0  0  0  0
   -7.1714    3.3184    0.1005 O   0  0  0  0  0  0  0  0  0  0  0  0
   -5.4949    1.4180   -0.2468 O   0  0  0  0  0  0  0  0  0  0  0  0
   -4.7464    3.7899    0.1518 O   0  0  0  0  0  0  0  0  0  0  0  0
   -6.0099    3.5917    2.8353 F   0  0  0  0  0  0  0  0  0  0  0  0
   -6.6598    1.5287    2.5855 F   0  0  0  0  0  0  0  0  0  0  0  0
   -4.5378    2.0184    2.5138 F   0  0  0  0  0  0  0  0  0  0  0  0
  1 10  1  0  0  0  0
  1  2  1  0  0  0  0
  2  3  1  0  0  0  0
  4  1  2  0  0  0  0
  5  4  1  0  0  0  0
  6  5  2  0  0  0  0
  6  9  1  0  0  0  0
  7  6  1  0  0  0  0
  8  7  1  0  0  0  0
  8 15  1  0  0  0  0
  9 10  2  0  0  0  0
 10 17  1  0  0  0  0
 11 22  1  0  0  0  0
 12  5  1  0  0  0  0
 13  8  1  0  0  0  0
 14  8  1  0  0  0  0
 16  9  1  0  0  0  0
 18 19  1  0  0  0  0
 19 25  1  0  0  0  0
 19 24  1  0  0  0  0
 19 23  1  0  0  0  0
 20 18  2  0  0  0  0
 21 18  2  0  0  0  0
 22 18  1  0  0  0  0
M  RAD  3   2   2   3   3   4   2
M  END
