Coordinates from ORCA-job 4-MeOPhN2+~TfO-_B3LYPG-6-31G_dp-CH-Scan-d09-49-n800
 OpenBabel11261919093D

 25 24  0  0  0  0  0  0  0  0999 V2000
   -1.6774   -0.4083    0.4745 C   0  0  0  0  0  0  0  0  0  0  0  0
   -2.9632   -0.7385    0.8292 N   0  0  0  0  0  0  0  0  0  0  0  0
   -4.0225   -0.9625    1.1206 N   0  0  0  0  0  0  0  0  0  0  0  0
   -1.4870    0.9500    0.1177 C   0  0  0  0  0  0  0  0  0  0  0  0
   -0.1444    1.1879   -0.2162 C   0  0  0  0  0  0  0  0  0  0  0  0
    0.8587    0.2045   -0.1931 C   0  0  0  0  0  0  0  0  0  0  0  0
    2.1003    0.6098   -0.5414 O   0  0  0  0  0  0  0  0  0  0  0  0
    3.1778   -0.3213   -0.5392 C   0  0  0  0  0  0  0  0  0  0  0  0
    0.5657   -1.1382    0.1796 C   0  0  0  0  0  0  0  0  0  0  0  0
   -0.7254   -1.4617    0.5225 C   0  0  0  0  0  0  0  0  0  0  0  0
   -3.6082    2.8867   -0.0546 H   0  0  0  0  0  0  0  0  0  0  0  0
    0.1810    2.1833   -0.5173 H   0  0  0  0  0  0  0  0  0  0  0  0
    4.0580    0.2436   -0.8475 H   0  0  0  0  0  0  0  0  0  0  0  0
    3.0058   -1.1380   -1.2499 H   0  0  0  0  0  0  0  0  0  0  0  0
    3.3488   -0.7365    0.4612 H   0  0  0  0  0  0  0  0  0  0  0  0
    1.3353   -1.8994    0.1972 H   0  0  0  0  0  0  0  0  0  0  0  0
   -0.9961   -2.4729    0.8154 H   0  0  0  0  0  0  0  0  0  0  0  0
   -5.6976    2.6189    0.3823 S   0  0  0  0  0  0  0  0  0  0  0  0
   -5.5625    2.5016    2.2372 C   0  0  0  0  0  0  0  0  0  0  0  0
   -6.8421    3.4561    0.0856 O   0  0  0  0  0  0  0  0  0  0  0  0
   -5.5515    1.2611   -0.1257 O   0  0  0  0  0  0  0  0  0  0  0  0
   -4.3771    3.4835    0.0651 O   0  0  0  0  0  0  0  0  0  0  0  0
   -5.5332    3.7161    2.7771 F   0  0  0  0  0  0  0  0  0  0  0  0
   -6.6166    1.8299    2.6996 F   0  0  0  0  0  0  0  0  0  0  0  0
   -4.4423    1.8431    2.5572 F   0  0  0  0  0  0  0  0  0  0  0  0
  1 10  1  0  0  0  0
  1  2  1  0  0  0  0
  2  3  1  0  0  0  0
  4  1  2  0  0  0  0
  5  6  2  0  0  0  0
  5  4  1  0  0  0  0
  6  9  1  0  0  0  0
  7  8  1  0  0  0  0
  7  6  1  0  0  0  0
  8 15  1  0  0  0  0
  9 16  1  0  0  0  0
  9 10  2  0  0  0  0
 10 17  1  0  0  0  0
 11 22  1  0  0  0  0
 12  5  1  0  0  0  0
 13  8  1  0  0  0  0
 14  8  1  0  0  0  0
 18 19  1  0  0  0  0
 19 25  1  0  0  0  0
 19 24  1  0  0  0  0
 19 23  1  0  0  0  0
 20 18  2  0  0  0  0
 21 18  2  0  0  0  0
 22 18  1  0  0  0  0
M  RAD  3   2   2   3   3   4   2
M  END
