Coordinates from ORCA-job 4-MeOPhN2+~TfO-_B3LYPG-6-31G_dp-CH-Scan-d09-49-n800
 OpenBabel11261919093D

 25 24  0  0  0  0  0  0  0  0999 V2000
   -1.5125   -0.3248    0.5721 C   0  0  0  0  0  0  0  0  0  0  0  0
   -2.8058   -0.5702    0.9733 N   0  0  0  0  0  0  0  0  0  0  0  0
   -3.8690   -0.7123    1.3028 N   0  0  0  0  0  0  0  0  0  0  0  0
   -1.2627    1.0261    0.2285 C   0  0  0  0  0  0  0  0  0  0  0  0
    0.0813    1.1830   -0.1560 C   0  0  0  0  0  0  0  0  0  0  0  0
    1.0204    0.1399   -0.1896 C   0  0  0  0  0  0  0  0  0  0  0  0
    2.2713    0.4721   -0.5863 O   0  0  0  0  0  0  0  0  0  0  0  0
    3.2841   -0.5260   -0.6477 C   0  0  0  0  0  0  0  0  0  0  0  0
    0.6617   -1.1898    0.1767 C   0  0  0  0  0  0  0  0  0  0  0  0
   -0.6317   -1.4397    0.5688 C   0  0  0  0  0  0  0  0  0  0  0  0
   -3.9567    3.3915   -0.0805 H   0  0  0  0  0  0  0  0  0  0  0  0
    0.4582    2.1611   -0.4566 H   0  0  0  0  0  0  0  0  0  0  0  0
    4.1848   -0.0145   -0.9888 H   0  0  0  0  0  0  0  0  0  0  0  0
    3.0276   -1.3179   -1.3612 H   0  0  0  0  0  0  0  0  0  0  0  0
    3.4740   -0.9694    0.3373 H   0  0  0  0  0  0  0  0  0  0  0  0
    1.3837   -1.9961    0.1513 H   0  0  0  0  0  0  0  0  0  0  0  0
   -0.9530   -2.4368    0.8600 H   0  0  0  0  0  0  0  0  0  0  0  0
   -5.9331    2.6807    0.3685 S   0  0  0  0  0  0  0  0  0  0  0  0
   -5.7808    2.4456    2.2120 C   0  0  0  0  0  0  0  0  0  0  0  0
   -7.2176    3.3000    0.1164 O   0  0  0  0  0  0  0  0  0  0  0  0
   -5.5056    1.4350   -0.2521 O   0  0  0  0  0  0  0  0  0  0  0  0
   -4.8011    3.8192    0.1511 O   0  0  0  0  0  0  0  0  0  0  0  0
   -6.0340    3.5883    2.8420 F   0  0  0  0  0  0  0  0  0  0  0  0
   -6.6568    1.5170    2.5913 F   0  0  0  0  0  0  0  0  0  0  0  0
   -4.5426    2.0367    2.5040 F   0  0  0  0  0  0  0  0  0  0  0  0
  1  2  1  0  0  0  0
  2  3  1  0  0  0  0
  4  1  2  0  0  0  0
  5  4  1  0  0  0  0
  6  5  2  0  0  0  0
  6  9  1  0  0  0  0
  7  6  1  0  0  0  0
  8  7  1  0  0  0  0
  8 15  1  0  0  0  0
  9 10  2  0  0  0  0
 10  1  1  0  0  0  0
 10 17  1  0  0  0  0
 11 22  1  0  0  0  0
 12  5  1  0  0  0  0
 13  8  1  0  0  0  0
 14  8  1  0  0  0  0
 16  9  1  0  0  0  0
 18 19  1  0  0  0  0
 19 25  1  0  0  0  0
 19 24  1  0  0  0  0
 19 23  1  0  0  0  0
 20 18  2  0  0  0  0
 21 18  2  0  0  0  0
 22 18  1  0  0  0  0
M  RAD  3   2   2   3   3   4   2
M  END
