Coordinates from ORCA-job 4-MeOPhN2+~TfO-_B3LYPG-6-31G_dp-CH-Scan-d09-49-n800
 OpenBabel11261919093D

 25 24  0  0  0  0  0  0  0  0999 V2000
   -1.5466   -0.3471    0.6563 C   0  0  0  0  0  0  0  0  0  0  0  0
   -2.8485   -0.5929    1.0340 N   0  0  0  0  0  0  0  0  0  0  0  0
   -3.9173   -0.7204    1.3519 N   0  0  0  0  0  0  0  0  0  0  0  0
   -1.2636    1.0288    0.4850 C   0  0  0  0  0  0  0  0  0  0  0  0
    0.0843    1.1939    0.1136 C   0  0  0  0  0  0  0  0  0  0  0  0
    0.9920    0.1373   -0.0583 C   0  0  0  0  0  0  0  0  0  0  0  0
    2.2515    0.4807   -0.4205 O   0  0  0  0  0  0  0  0  0  0  0  0
    3.2339   -0.5309   -0.6108 C   0  0  0  0  0  0  0  0  0  0  0  0
    0.5966   -1.2181    0.1398 C   0  0  0  0  0  0  0  0  0  0  0  0
   -0.7020   -1.4792    0.5073 C   0  0  0  0  0  0  0  0  0  0  0  0
   -4.4024    3.7262   -0.5214 H   0  0  0  0  0  0  0  0  0  0  0  0
    0.4900    2.1911   -0.0634 H   0  0  0  0  0  0  0  0  0  0  0  0
    4.1496   -0.0079   -0.8884 H   0  0  0  0  0  0  0  0  0  0  0  0
    2.9539   -1.2195   -1.4171 H   0  0  0  0  0  0  0  0  0  0  0  0
    3.4103   -1.1011    0.3096 H   0  0  0  0  0  0  0  0  0  0  0  0
    1.2954   -2.0341    0.0062 H   0  0  0  0  0  0  0  0  0  0  0  0
   -1.0516   -2.4955    0.6729 H   0  0  0  0  0  0  0  0  0  0  0  0
   -6.0224    2.6254    0.3542 S   0  0  0  0  0  0  0  0  0  0  0  0
   -5.3974    2.4456    2.1028 C   0  0  0  0  0  0  0  0  0  0  0  0
   -7.4294    2.9596    0.4277 O   0  0  0  0  0  0  0  0  0  0  0  0
   -5.5007    1.5002   -0.4077 O   0  0  0  0  0  0  0  0  0  0  0  0
   -5.2290    3.9779   -0.0727 O   0  0  0  0  0  0  0  0  0  0  0  0
   -5.7420    3.5109    2.8198 F   0  0  0  0  0  0  0  0  0  0  0  0
   -5.9480    1.3506    2.6284 F   0  0  0  0  0  0  0  0  0  0  0  0
   -4.0723    2.3176    2.0877 F   0  0  0  0  0  0  0  0  0  0  0  0
  1  2  1  0  0  0  0
  2  3  1  0  0  0  0
  4  1  2  0  0  0  0
  5  4  1  0  0  0  0
  6  5  2  0  0  0  0
  6  9  1  0  0  0  0
  7  6  1  0  0  0  0
  8  7  1  0  0  0  0
  8 15  1  0  0  0  0
  9 10  2  0  0  0  0
 10  1  1  0  0  0  0
 10 17  1  0  0  0  0
 11 22  1  0  0  0  0
 12  5  1  0  0  0  0
 13  8  1  0  0  0  0
 14  8  1  0  0  0  0
 16  9  1  0  0  0  0
 18 20  2  0  0  0  0
 18 19  1  0  0  0  0
 19 24  1  0  0  0  0
 19 23  1  0  0  0  0
 21 18  2  0  0  0  0
 22 18  1  0  0  0  0
 25 19  1  0  0  0  0
M  RAD  3   2   2   3   3   4   2
M  END
