Coordinates from ORCA-job 4-MeOPhN2+~TfO-_B3LYPG-6-31G_dp-CH-Scan-d09-49-n800
 OpenBabel11261919093D

 25 24  0  0  0  0  0  0  0  0999 V2000
   -1.8114   -0.3157    0.7574 C   0  0  0  0  0  0  0  0  0  0  0  0
   -3.0450   -0.6741    1.2325 N   0  0  0  0  0  0  0  0  0  0  0  0
   -4.0604   -0.9365    1.6185 N   0  0  0  0  0  0  0  0  0  0  0  0
   -1.5942    1.0520    0.4606 C   0  0  0  0  0  0  0  0  0  0  0  0
   -0.3180    1.3333   -0.0066 C   0  0  0  0  0  0  0  0  0  0  0  0
    0.6671    0.3393   -0.1706 C   0  0  0  0  0  0  0  0  0  0  0  0
    1.8538    0.7621   -0.6353 O   0  0  0  0  0  0  0  0  0  0  0  0
    2.9129   -0.1738   -0.8435 C   0  0  0  0  0  0  0  0  0  0  0  0
    0.3900   -1.0162    0.1445 C   0  0  0  0  0  0  0  0  0  0  0  0
   -0.8595   -1.3529    0.6159 C   0  0  0  0  0  0  0  0  0  0  0  0
   -2.6483    2.0624    0.5881 H   0  0  0  0  0  0  0  0  0  0  0  0
   -0.0428    2.3507   -0.2703 H   0  0  0  0  0  0  0  0  0  0  0  0
    3.7496    0.4109   -1.2247 H   0  0  0  0  0  0  0  0  0  0  0  0
    2.6319   -0.9327   -1.5819 H   0  0  0  0  0  0  0  0  0  0  0  0
    3.2055   -0.6578    0.0951 H   0  0  0  0  0  0  0  0  0  0  0  0
    1.1398   -1.7867    0.0193 H   0  0  0  0  0  0  0  0  0  0  0  0
   -1.1059   -2.3797    0.8679 H   0  0  0  0  0  0  0  0  0  0  0  0
   -4.9406    2.4766    0.3061 S   0  0  0  0  0  0  0  0  0  0  0  0
   -5.7494    2.4354    1.9781 C   0  0  0  0  0  0  0  0  0  0  0  0
   -5.6882    3.4555   -0.4746 O   0  0  0  0  0  0  0  0  0  0  0  0
   -4.9335    1.0656   -0.1238 O   0  0  0  0  0  0  0  0  0  0  0  0
   -3.5300    2.9508    0.6836 O   0  0  0  0  0  0  0  0  0  0  0  0
   -5.7295    3.6378    2.5570 F   0  0  0  0  0  0  0  0  0  0  0  0
   -7.0173    2.0261    1.8669 F   0  0  0  0  0  0  0  0  0  0  0  0
   -5.0926    1.5664    2.7768 F   0  0  0  0  0  0  0  0  0  0  0  0
  1  2  1  0  0  0  0
  2  3  1  0  0  0  0
  4  1  2  0  0  0  0
  5  4  1  0  0  0  0
  6  5  2  0  0  0  0
  6  9  1  0  0  0  0
  7  6  1  0  0  0  0
  8  7  1  0  0  0  0
  8 15  1  0  0  0  0
  9 10  2  0  0  0  0
 10  1  1  0  0  0  0
 10 17  1  0  0  0  0
 11 22  1  0  0  0  0
 12  5  1  0  0  0  0
 13  8  1  0  0  0  0
 14  8  1  0  0  0  0
 16  9  1  0  0  0  0
 18 22  1  0  0  0  0
 18 19  1  0  0  0  0
 19 23  1  0  0  0  0
 19 25  1  0  0  0  0
 20 18  2  0  0  0  0
 21 18  2  0  0  0  0
 24 19  1  0  0  0  0
M  RAD  3   2   2   3   3   4   2
M  END
