Coordinates from ORCA-job 4-MeOPhN2+~TfO-_B3LYPG-6-31G_dp-CH-Scan-d09-49-n800
 OpenBabel11261919093D

 25 24  0  0  0  0  0  0  0  0999 V2000
   -1.9889   -0.2874    0.4739 C   0  0  0  0  0  0  0  0  0  0  0  0
   -3.3008   -0.6610    0.6605 N   0  0  0  0  0  0  0  0  0  0  0  0
   -4.3170   -1.1015    0.8400 N   0  0  0  0  0  0  0  0  0  0  0  0
   -1.5665    1.0194    0.7949 C   0  0  0  0  0  0  0  0  0  0  0  0
   -0.2320    1.3225    0.6256 C   0  0  0  0  0  0  0  0  0  0  0  0
    0.6736    0.3605    0.1287 C   0  0  0  0  0  0  0  0  0  0  0  0
    1.9418    0.7767   -0.0025 O   0  0  0  0  0  0  0  0  0  0  0  0
    2.9311   -0.1209   -0.5128 C   0  0  0  0  0  0  0  0  0  0  0  0
    0.2278   -0.9391   -0.1916 C   0  0  0  0  0  0  0  0  0  0  0  0
   -1.1051   -1.2669   -0.0116 C   0  0  0  0  0  0  0  0  0  0  0  0
   -2.2463    1.7026    1.1292 H   0  0  0  0  0  0  0  0  0  0  0  0
    0.1446    2.3116    0.8593 H   0  0  0  0  0  0  0  0  0  0  0  0
    3.8614    0.4461   -0.5252 H   0  0  0  0  0  0  0  0  0  0  0  0
    2.6847   -0.4417   -1.5304 H   0  0  0  0  0  0  0  0  0  0  0  0
    3.0438   -0.9951    0.1375 H   0  0  0  0  0  0  0  0  0  0  0  0
    0.9102   -1.6865   -0.5744 H   0  0  0  0  0  0  0  0  0  0  0  0
   -1.4688   -2.2604   -0.2490 H   0  0  0  0  0  0  0  0  0  0  0  0
   -5.4512    1.8635    0.3847 S   0  0  0  0  0  0  0  0  0  0  0  0
   -5.0609    2.9823    1.8171 C   0  0  0  0  0  0  0  0  0  0  0  0
   -6.4392    2.6007   -0.4036 O   0  0  0  0  0  0  0  0  0  0  0  0
   -5.9322    0.6186    1.0550 O   0  0  0  0  0  0  0  0  0  0  0  0
   -4.1083    1.6768   -0.2401 O   0  0  0  0  0  0  0  0  0  0  0  0
   -4.6401    4.1812    1.3922 F   0  0  0  0  0  0  0  0  0  0  0  0
   -6.1173    3.1554    2.6157 F   0  0  0  0  0  0  0  0  0  0  0  0
   -4.0601    2.4415    2.5640 F   0  0  0  0  0  0  0  0  0  0  0  0
  1  2  1  0  0  0  0
  1  4  2  0  0  0  0
  2  3  1  0  0  0  0
  4 11  1  0  0  0  0
  5  4  1  0  0  0  0
  5 12  1  0  0  0  0
  6  5  2  0  0  0  0
  7  6  1  0  0  0  0
  8  7  1  0  0  0  0
  8 15  1  0  0  0  0
  9 10  2  0  0  0  0
  9  6  1  0  0  0  0
 10  1  1  0  0  0  0
 13  8  1  0  0  0  0
 14  8  1  0  0  0  0
 16  9  1  0  0  0  0
 17 10  1  0  0  0  0
 18 21  1  0  0  0  0
 18 19  1  0  0  0  0
 19 25  1  0  0  0  0
 19 24  1  0  0  0  0
 20 18  2  0  0  0  0
 22 18  2  0  0  0  0
 23 19  1  0  0  0  0
M  RAD  3   2   2   3   3  21   2
M  END
