Coordinates from ORCA-job 4-MeOPhN2+~TfO-_B3LYPG-6-31G_dp-CH-Scan-d09-49-n800
 OpenBabel11261919093D

 25 24  0  0  0  0  0  0  0  0999 V2000
   -1.4568   -0.3052    0.5836 C   0  0  0  0  0  0  0  0  0  0  0  0
   -2.7558   -0.5233    0.9852 N   0  0  0  0  0  0  0  0  0  0  0  0
   -3.8220   -0.6364    1.3170 N   0  0  0  0  0  0  0  0  0  0  0  0
   -1.1795    1.0465    0.2680 C   0  0  0  0  0  0  0  0  0  0  0  0
    0.1675    1.1801   -0.1173 C   0  0  0  0  0  0  0  0  0  0  0  0
    1.0819    0.1167   -0.1758 C   0  0  0  0  0  0  0  0  0  0  0  0
    2.3399    0.4281   -0.5690 O   0  0  0  0  0  0  0  0  0  0  0  0
    3.3287   -0.5916   -0.6540 C   0  0  0  0  0  0  0  0  0  0  0  0
    0.6937   -1.2124    0.1630 C   0  0  0  0  0  0  0  0  0  0  0  0
   -0.6039   -1.4411    0.5541 C   0  0  0  0  0  0  0  0  0  0  0  0
   -4.1609    3.5524   -0.1667 H   0  0  0  0  0  0  0  0  0  0  0  0
    0.5667    2.1554   -0.3984 H   0  0  0  0  0  0  0  0  0  0  0  0
    4.2410   -0.0942   -0.9849 H   0  0  0  0  0  0  0  0  0  0  0  0
    3.0531   -1.3614   -1.3846 H   0  0  0  0  0  0  0  0  0  0  0  0
    3.5091   -1.0616    0.3205 H   0  0  0  0  0  0  0  0  0  0  0  0
    1.3972   -2.0342    0.1179 H   0  0  0  0  0  0  0  0  0  0  0  0
   -0.9476   -2.4365    0.8252 H   0  0  0  0  0  0  0  0  0  0  0  0
   -6.0525    2.6951    0.3787 S   0  0  0  0  0  0  0  0  0  0  0  0
   -5.8075    2.4474    2.2107 C   0  0  0  0  0  0  0  0  0  0  0  0
   -7.3871    3.2238    0.1890 O   0  0  0  0  0  0  0  0  0  0  0  0
   -5.5595    1.4957   -0.2829 O   0  0  0  0  0  0  0  0  0  0  0  0
   -5.0120    3.9162    0.1357 O   0  0  0  0  0  0  0  0  0  0  0  0
   -6.0985    3.5669    2.8654 F   0  0  0  0  0  0  0  0  0  0  0  0
   -6.6134    1.4661    2.6121 F   0  0  0  0  0  0  0  0  0  0  0  0
   -4.5375    2.1067    2.4442 F   0  0  0  0  0  0  0  0  0  0  0  0
  1  2  1  0  0  0  0
  2  3  1  0  0  0  0
  4  1  2  0  0  0  0
  5  4  1  0  0  0  0
  6  5  2  0  0  0  0
  6  9  1  0  0  0  0
  7  6  1  0  0  0  0
  8  7  1  0  0  0  0
  8 15  1  0  0  0  0
  9 10  2  0  0  0  0
 10  1  1  0  0  0  0
 10 17  1  0  0  0  0
 11 22  1  0  0  0  0
 12  5  1  0  0  0  0
 13  8  1  0  0  0  0
 14  8  1  0  0  0  0
 16  9  1  0  0  0  0
 18 19  1  0  0  0  0
 19 25  1  0  0  0  0
 19 24  1  0  0  0  0
 19 23  1  0  0  0  0
 20 18  2  0  0  0  0
 21 18  2  0  0  0  0
 22 18  1  0  0  0  0
M  RAD  3   2   2   3   3   4   2
M  END
