Coordinates from ORCA-job 4-MeOPhN2+~TfO-_B3LYPG-6-31G_dp-CH-Scan-d09-49-n800
 OpenBabel11261919093D

 25 24  0  0  0  0  0  0  0  0999 V2000
   -1.5539   -0.3488    0.6560 C   0  0  0  0  0  0  0  0  0  0  0  0
   -2.8546   -0.5979    1.0357 N   0  0  0  0  0  0  0  0  0  0  0  0
   -3.9225   -0.7290    1.3550 N   0  0  0  0  0  0  0  0  0  0  0  0
   -1.2758    1.0270    0.4762 C   0  0  0  0  0  0  0  0  0  0  0  0
    0.0714    1.1948    0.1034 C   0  0  0  0  0  0  0  0  0  0  0  0
    0.9829    0.1405   -0.0625 C   0  0  0  0  0  0  0  0  0  0  0  0
    2.2410    0.4864   -0.4271 O   0  0  0  0  0  0  0  0  0  0  0  0
    3.2270   -0.5228   -0.6120 C   0  0  0  0  0  0  0  0  0  0  0  0
    0.5925   -1.2150    0.1438 C   0  0  0  0  0  0  0  0  0  0  0  0
   -0.7050   -1.4785    0.5134 C   0  0  0  0  0  0  0  0  0  0  0  0
   -4.3643    3.7127   -0.5058 H   0  0  0  0  0  0  0  0  0  0  0  0
    0.4734    2.1924   -0.0798 H   0  0  0  0  0  0  0  0  0  0  0  0
    4.1407    0.0020   -0.8931 H   0  0  0  0  0  0  0  0  0  0  0  0
    2.9492   -1.2171   -1.4140 H   0  0  0  0  0  0  0  0  0  0  0  0
    3.4060   -1.0868    0.3118 H   0  0  0  0  0  0  0  0  0  0  0  0
    1.2941   -2.0294    0.0149 H   0  0  0  0  0  0  0  0  0  0  0  0
   -1.0508   -2.4951    0.6853 H   0  0  0  0  0  0  0  0  0  0  0  0
   -6.0055    2.6263    0.3507 S   0  0  0  0  0  0  0  0  0  0  0  0
   -5.3965    2.4397    2.1043 C   0  0  0  0  0  0  0  0  0  0  0  0
   -7.4094    2.9756    0.4125 O   0  0  0  0  0  0  0  0  0  0  0  0
   -5.4896    1.4947   -0.4059 O   0  0  0  0  0  0  0  0  0  0  0  0
   -5.1958    3.9709   -0.0699 O   0  0  0  0  0  0  0  0  0  0  0  0
   -5.7437    3.5042    2.8213 F   0  0  0  0  0  0  0  0  0  0  0  0
   -5.9551    1.3450    2.6221 F   0  0  0  0  0  0  0  0  0  0  0  0
   -4.0715    2.3072    2.1007 F   0  0  0  0  0  0  0  0  0  0  0  0
  1  2  1  0  0  0  0
  2  3  1  0  0  0  0
  4  1  2  0  0  0  0
  5  4  1  0  0  0  0
  6  5  2  0  0  0  0
  6  9  1  0  0  0  0
  7  6  1  0  0  0  0
  8  7  1  0  0  0  0
  8 15  1  0  0  0  0
  9 10  2  0  0  0  0
 10  1  1  0  0  0  0
 10 17  1  0  0  0  0
 11 22  1  0  0  0  0
 12  5  1  0  0  0  0
 13  8  1  0  0  0  0
 14  8  1  0  0  0  0
 16  9  1  0  0  0  0
 18 20  2  0  0  0  0
 18 19  1  0  0  0  0
 19 24  1  0  0  0  0
 19 23  1  0  0  0  0
 21 18  2  0  0  0  0
 22 18  1  0  0  0  0
 25 19  1  0  0  0  0
M  RAD  3   2   2   3   3   4   2
M  END
