Coordinates from ORCA-job 4-MeOPhN2+~TfO-_B3LYPG-6-31G_dp-CH-Scan-d09-49-n800
 OpenBabel11261919093D

 25 24  0  0  0  0  0  0  0  0999 V2000
   -1.8215   -0.3925    0.6362 C   0  0  0  0  0  0  0  0  0  0  0  0
   -3.0687   -0.7809    1.0526 N   0  0  0  0  0  0  0  0  0  0  0  0
   -4.0970   -1.0626    1.3937 N   0  0  0  0  0  0  0  0  0  0  0  0
   -1.6581    0.9818    0.3242 C   0  0  0  0  0  0  0  0  0  0  0  0
   -0.3534    1.2726   -0.0810 C   0  0  0  0  0  0  0  0  0  0  0  0
    0.6690    0.3099   -0.1672 C   0  0  0  0  0  0  0  0  0  0  0  0
    1.8711    0.7592   -0.5764 O   0  0  0  0  0  0  0  0  0  0  0  0
    2.9671   -0.1460   -0.6932 C   0  0  0  0  0  0  0  0  0  0  0  0
    0.4221   -1.0498    0.1641 C   0  0  0  0  0  0  0  0  0  0  0  0
   -0.8395   -1.4140    0.5738 C   0  0  0  0  0  0  0  0  0  0  0  0
   -2.9617    2.2388    0.3533 H   0  0  0  0  0  0  0  0  0  0  0  0
   -0.0783    2.2888   -0.3556 H   0  0  0  0  0  0  0  0  0  0  0  0
    3.8092    0.4539   -1.0382 H   0  0  0  0  0  0  0  0  0  0  0  0
    2.7582   -0.9338   -1.4258 H   0  0  0  0  0  0  0  0  0  0  0  0
    3.2171   -0.5979    0.2737 H   0  0  0  0  0  0  0  0  0  0  0  0
    1.2028   -1.7967    0.0989 H   0  0  0  0  0  0  0  0  0  0  0  0
   -1.0704   -2.4420    0.8380 H   0  0  0  0  0  0  0  0  0  0  0  0
   -5.1487    2.5034    0.2816 S   0  0  0  0  0  0  0  0  0  0  0  0
   -5.5672    2.4820    2.0933 C   0  0  0  0  0  0  0  0  0  0  0  0
   -6.0030    3.5068   -0.3299 O   0  0  0  0  0  0  0  0  0  0  0  0
   -5.1967    1.1017   -0.1393 O   0  0  0  0  0  0  0  0  0  0  0  0
   -3.6679    3.0250    0.3478 O   0  0  0  0  0  0  0  0  0  0  0  0
   -5.4370    3.6960    2.6261 F   0  0  0  0  0  0  0  0  0  0  0  0
   -6.8233    2.0606    2.2553 F   0  0  0  0  0  0  0  0  0  0  0  0
   -4.7401    1.6346    2.7309 F   0  0  0  0  0  0  0  0  0  0  0  0
  1  2  1  0  0  0  0
  2  3  1  0  0  0  0
  4  1  2  0  0  0  0
  5  4  1  0  0  0  0
  6  5  2  0  0  0  0
  6  9  1  0  0  0  0
  7  6  1  0  0  0  0
  8  7  1  0  0  0  0
  8 15  1  0  0  0  0
  9 10  2  0  0  0  0
 10  1  1  0  0  0  0
 10 17  1  0  0  0  0
 12  5  1  0  0  0  0
 13  8  1  0  0  0  0
 14  8  1  0  0  0  0
 16  9  1  0  0  0  0
 18 22  1  0  0  0  0
 18 19  1  0  0  0  0
 19 24  1  0  0  0  0
 19 23  1  0  0  0  0
 19 25  1  0  0  0  0
 20 18  2  0  0  0  0
 21 18  2  0  0  0  0
 22 11  1  0  0  0  0
M  RAD  3   2   2   3   3   4   2
M  END
