Coordinates from ORCA-job 4-MeOPhN2+~TfO-_B3LYPG-6-31G_dp-CH-Scan-d09-49-n800
 OpenBabel11261919093D

 25 24  0  0  0  0  0  0  0  0999 V2000
   -1.7221   -0.4097    0.5077 C   0  0  0  0  0  0  0  0  0  0  0  0
   -2.9975   -0.7597    0.8766 N   0  0  0  0  0  0  0  0  0  0  0  0
   -4.0486   -1.0041    1.1795 N   0  0  0  0  0  0  0  0  0  0  0  0
   -1.5442    0.9529    0.1582 C   0  0  0  0  0  0  0  0  0  0  0  0
   -0.2106    1.2083   -0.1917 C   0  0  0  0  0  0  0  0  0  0  0  0
    0.8024    0.2341   -0.1898 C   0  0  0  0  0  0  0  0  0  0  0  0
    2.0339    0.6545   -0.5515 O   0  0  0  0  0  0  0  0  0  0  0  0
    3.1211   -0.2658   -0.5719 C   0  0  0  0  0  0  0  0  0  0  0  0
    0.5265   -1.1133    0.1763 C   0  0  0  0  0  0  0  0  0  0  0  0
   -0.7571   -1.4514    0.5337 C   0  0  0  0  0  0  0  0  0  0  0  0
   -3.4188    2.6966    0.0616 H   0  0  0  0  0  0  0  0  0  0  0  0
    0.0994    2.2093   -0.4890 H   0  0  0  0  0  0  0  0  0  0  0  0
    3.9908    0.3106   -0.8886 H   0  0  0  0  0  0  0  0  0  0  0  0
    2.9465   -1.0786   -1.2863 H   0  0  0  0  0  0  0  0  0  0  0  0
    3.3104   -0.6863    0.4229 H   0  0  0  0  0  0  0  0  0  0  0  0
    1.3028   -1.8676    0.1778 H   0  0  0  0  0  0  0  0  0  0  0  0
   -1.0138   -2.4674    0.8223 H   0  0  0  0  0  0  0  0  0  0  0  0
   -5.5511    2.5862    0.3507 S   0  0  0  0  0  0  0  0  0  0  0  0
   -5.5585    2.5011    2.2113 C   0  0  0  0  0  0  0  0  0  0  0  0
   -6.6166    3.4867   -0.0417 O   0  0  0  0  0  0  0  0  0  0  0  0
   -5.4698    1.2071   -0.1154 O   0  0  0  0  0  0  0  0  0  0  0  0
   -4.1602    3.3473    0.1163 O   0  0  0  0  0  0  0  0  0  0  0  0
   -5.4909    3.7219    2.7343 F   0  0  0  0  0  0  0  0  0  0  0  0
   -6.6827    1.9052    2.6094 F   0  0  0  0  0  0  0  0  0  0  0  0
   -4.5072    1.7809    2.6244 F   0  0  0  0  0  0  0  0  0  0  0  0
  1 10  1  0  0  0  0
  1  2  1  0  0  0  0
  2  3  1  0  0  0  0
  4  1  2  0  0  0  0
  5  6  2  0  0  0  0
  5  4  1  0  0  0  0
  6  9  1  0  0  0  0
  7  6  1  0  0  0  0
  8  7  1  0  0  0  0
  8 15  1  0  0  0  0
  9 16  1  0  0  0  0
  9 10  2  0  0  0  0
 10 17  1  0  0  0  0
 11 22  1  0  0  0  0
 12  5  1  0  0  0  0
 13  8  1  0  0  0  0
 14  8  1  0  0  0  0
 18 19  1  0  0  0  0
 19 24  1  0  0  0  0
 19 25  1  0  0  0  0
 19 23  1  0  0  0  0
 20 18  2  0  0  0  0
 21 18  2  0  0  0  0
 22 18  1  0  0  0  0
M  RAD  3   2   2   3   3   4   2
M  END
