Coordinates from ORCA-job 4-MeOPhN2+~TfO-_B3LYPG-6-31G_dp-CH-Scan-d09-49-n800
 OpenBabel11261919093D

 25 24  0  0  0  0  0  0  0  0999 V2000
   -1.8044   -0.2915    0.7550 C   0  0  0  0  0  0  0  0  0  0  0  0
   -3.0435   -0.6271    1.2309 N   0  0  0  0  0  0  0  0  0  0  0  0
   -4.0697   -0.8555    1.6077 N   0  0  0  0  0  0  0  0  0  0  0  0
   -1.5550    1.0662    0.4463 C   0  0  0  0  0  0  0  0  0  0  0  0
   -0.2854    1.3465   -0.0246 C   0  0  0  0  0  0  0  0  0  0  0  0
    0.6879    0.3384   -0.1855 C   0  0  0  0  0  0  0  0  0  0  0  0
    1.8757    0.7467   -0.6539 O   0  0  0  0  0  0  0  0  0  0  0  0
    2.9270   -0.2006   -0.8582 C   0  0  0  0  0  0  0  0  0  0  0  0
    0.3934   -1.0096    0.1385 C   0  0  0  0  0  0  0  0  0  0  0  0
   -0.8596   -1.3317    0.6153 C   0  0  0  0  0  0  0  0  0  0  0  0
   -2.5193    2.0007    0.5905 H   0  0  0  0  0  0  0  0  0  0  0  0
   -0.0094    2.3621   -0.2898 H   0  0  0  0  0  0  0  0  0  0  0  0
    3.7680    0.3752   -1.2428 H   0  0  0  0  0  0  0  0  0  0  0  0
    2.6374   -0.9597   -1.5927 H   0  0  0  0  0  0  0  0  0  0  0  0
    3.2147   -0.6814    0.0832 H   0  0  0  0  0  0  0  0  0  0  0  0
    1.1336   -1.7898    0.0163 H   0  0  0  0  0  0  0  0  0  0  0  0
   -1.1146   -2.3547    0.8722 H   0  0  0  0  0  0  0  0  0  0  0  0
   -4.9353    2.4861    0.3434 S   0  0  0  0  0  0  0  0  0  0  0  0
   -5.8124    2.4249    1.9798 C   0  0  0  0  0  0  0  0  0  0  0  0
   -5.7019    3.4233   -0.4751 O   0  0  0  0  0  0  0  0  0  0  0  0
   -4.8984    1.0650   -0.0777 O   0  0  0  0  0  0  0  0  0  0  0  0
   -3.5641    2.9821    0.7580 O   0  0  0  0  0  0  0  0  0  0  0  0
   -5.8340    3.6245    2.5679 F   0  0  0  0  0  0  0  0  0  0  0  0
   -7.0706    1.9967    1.8255 F   0  0  0  0  0  0  0  0  0  0  0  0
   -5.1759    1.5621    2.8069 F   0  0  0  0  0  0  0  0  0  0  0  0
  1  2  1  0  0  0  0
  2  3  1  0  0  0  0
  4 11  1  0  0  0  0
  4  1  2  0  0  0  0
  5  4  1  0  0  0  0
  6  5  2  0  0  0  0
  6  9  1  0  0  0  0
  7  6  1  0  0  0  0
  8  7  1  0  0  0  0
  8 15  1  0  0  0  0
  9 10  2  0  0  0  0
 10  1  1  0  0  0  0
 10 17  1  0  0  0  0
 12  5  1  0  0  0  0
 13  8  1  0  0  0  0
 14  8  1  0  0  0  0
 16  9  1  0  0  0  0
 18 22  1  0  0  0  0
 18 19  1  0  0  0  0
 19 23  1  0  0  0  0
 19 25  1  0  0  0  0
 20 18  2  0  0  0  0
 21 18  2  0  0  0  0
 24 19  1  0  0  0  0
M  RAD  3   2   2   3   3  22   2
M  END
