Coordinates from ORCA-job 4-MeOPhN2+~TfO-_B3LYPG-6-31G_dp-CH-Scan-d09-49-n800
 OpenBabel11261919093D

 25 24  0  0  0  0  0  0  0  0999 V2000
   -1.9775   -0.2961    0.4269 C   0  0  0  0  0  0  0  0  0  0  0  0
   -3.2910   -0.6691    0.5991 N   0  0  0  0  0  0  0  0  0  0  0  0
   -4.3142   -1.1011    0.7587 N   0  0  0  0  0  0  0  0  0  0  0  0
   -1.5554    1.0108    0.7451 C   0  0  0  0  0  0  0  0  0  0  0  0
   -0.2197    1.3148    0.5934 C   0  0  0  0  0  0  0  0  0  0  0  0
    0.6919    0.3470    0.1187 C   0  0  0  0  0  0  0  0  0  0  0  0
    1.9625    0.7599    0.0040 O   0  0  0  0  0  0  0  0  0  0  0  0
    2.9587   -0.1429   -0.4838 C   0  0  0  0  0  0  0  0  0  0  0  0
    0.2492   -0.9550   -0.1989 C   0  0  0  0  0  0  0  0  0  0  0  0
   -1.0864   -1.2802   -0.0382 C   0  0  0  0  0  0  0  0  0  0  0  0
   -2.3141    1.7619    1.0847 H   0  0  0  0  0  0  0  0  0  0  0  0
    0.1542    2.3054    0.8245 H   0  0  0  0  0  0  0  0  0  0  0  0
    3.8896    0.4231   -0.4859 H   0  0  0  0  0  0  0  0  0  0  0  0
    2.7278   -0.4710   -1.5028 H   0  0  0  0  0  0  0  0  0  0  0  0
    3.0601   -1.0122    0.1747 H   0  0  0  0  0  0  0  0  0  0  0  0
    0.9370   -1.7060   -0.5648 H   0  0  0  0  0  0  0  0  0  0  0  0
   -1.4469   -2.2756   -0.2729 H   0  0  0  0  0  0  0  0  0  0  0  0
   -5.4787    1.8665    0.4317 S   0  0  0  0  0  0  0  0  0  0  0  0
   -5.0915    3.0171    1.8397 C   0  0  0  0  0  0  0  0  0  0  0  0
   -6.5146    2.5580   -0.3367 O   0  0  0  0  0  0  0  0  0  0  0  0
   -5.8965    0.6136    1.1305 O   0  0  0  0  0  0  0  0  0  0  0  0
   -4.1484    1.7192   -0.2288 O   0  0  0  0  0  0  0  0  0  0  0  0
   -4.7383    4.2283    1.3891 F   0  0  0  0  0  0  0  0  0  0  0  0
   -6.1289    3.1527    2.6701 F   0  0  0  0  0  0  0  0  0  0  0  0
   -4.0446    2.5297    2.5591 F   0  0  0  0  0  0  0  0  0  0  0  0
  1  2  1  0  0  0  0
  1  4  2  0  0  0  0
  2  3  1  0  0  0  0
  4 11  1  0  0  0  0
  5  4  1  0  0  0  0
  5 12  1  0  0  0  0
  6  5  2  0  0  0  0
  7  6  1  0  0  0  0
  8  7  1  0  0  0  0
  8 15  1  0  0  0  0
  9 10  2  0  0  0  0
  9  6  1  0  0  0  0
 10  1  1  0  0  0  0
 13  8  1  0  0  0  0
 14  8  1  0  0  0  0
 16  9  1  0  0  0  0
 17 10  1  0  0  0  0
 18 21  1  0  0  0  0
 18 19  1  0  0  0  0
 19 25  1  0  0  0  0
 19 24  1  0  0  0  0
 20 18  2  0  0  0  0
 22 18  2  0  0  0  0
 23 19  1  0  0  0  0
M  RAD  3   2   2   3   3  21   2
M  END
