Coordinates from ORCA-job 4-MeOPhN2+~TfO-_B3LYPG-6-31G_dp-CH-Scan-d09-49-n800
 OpenBabel11261919093D

 25 24  0  0  0  0  0  0  0  0999 V2000
   -1.4536   -0.3036    0.5847 C   0  0  0  0  0  0  0  0  0  0  0  0
   -2.7529   -0.5199    0.9864 N   0  0  0  0  0  0  0  0  0  0  0  0
   -3.8192   -0.6312    1.3186 N   0  0  0  0  0  0  0  0  0  0  0  0
   -1.1742    1.0484    0.2718 C   0  0  0  0  0  0  0  0  0  0  0  0
    0.1730    1.1804   -0.1135 C   0  0  0  0  0  0  0  0  0  0  0  0
    1.0856    0.1155   -0.1744 C   0  0  0  0  0  0  0  0  0  0  0  0
    2.3440    0.4256   -0.5672 O   0  0  0  0  0  0  0  0  0  0  0  0
    3.3311   -0.5957   -0.6543 C   0  0  0  0  0  0  0  0  0  0  0  0
    0.6951   -1.2136    0.1617 C   0  0  0  0  0  0  0  0  0  0  0  0
   -0.6028   -1.4409    0.5527 C   0  0  0  0  0  0  0  0  0  0  0  0
   -4.1743    3.5615   -0.1728 H   0  0  0  0  0  0  0  0  0  0  0  0
    0.5738    2.1556   -0.3927 H   0  0  0  0  0  0  0  0  0  0  0  0
    4.2442   -0.0992   -0.9841 H   0  0  0  0  0  0  0  0  0  0  0  0
    3.0542   -1.3635   -1.3866 H   0  0  0  0  0  0  0  0  0  0  0  0
    3.5106   -1.0681    0.3191 H   0  0  0  0  0  0  0  0  0  0  0  0
    1.3971   -2.0366    0.1147 H   0  0  0  0  0  0  0  0  0  0  0  0
   -0.9482   -2.4363    0.8217 H   0  0  0  0  0  0  0  0  0  0  0  0
   -6.0597    2.6951    0.3791 S   0  0  0  0  0  0  0  0  0  0  0  0
   -5.8079    2.4476    2.2102 C   0  0  0  0  0  0  0  0  0  0  0  0
   -7.3974    3.2175    0.1938 O   0  0  0  0  0  0  0  0  0  0  0  0
   -5.5628    1.4986   -0.2848 O   0  0  0  0  0  0  0  0  0  0  0  0
   -5.0256    3.9213    0.1336 O   0  0  0  0  0  0  0  0  0  0  0  0
   -6.1011    3.5658    2.8662 F   0  0  0  0  0  0  0  0  0  0  0  0
   -6.6089    1.4631    2.6137 F   0  0  0  0  0  0  0  0  0  0  0  0
   -4.5359    2.1116    2.4395 F   0  0  0  0  0  0  0  0  0  0  0  0
  1  2  1  0  0  0  0
  2  3  1  0  0  0  0
  4  1  2  0  0  0  0
  5  4  1  0  0  0  0
  6  5  2  0  0  0  0
  6  9  1  0  0  0  0
  7  6  1  0  0  0  0
  8  7  1  0  0  0  0
  8 15  1  0  0  0  0
  9 10  2  0  0  0  0
 10  1  1  0  0  0  0
 10 17  1  0  0  0  0
 11 22  1  0  0  0  0
 12  5  1  0  0  0  0
 13  8  1  0  0  0  0
 14  8  1  0  0  0  0
 16  9  1  0  0  0  0
 18 19  1  0  0  0  0
 19 25  1  0  0  0  0
 19 24  1  0  0  0  0
 19 23  1  0  0  0  0
 20 18  2  0  0  0  0
 21 18  2  0  0  0  0
 22 18  1  0  0  0  0
M  RAD  3   2   2   3   3   4   2
M  END
