Coordinates from ORCA-job 4-MeOPhN2+~TfO-_B3LYPG-6-31G_dp-CH-Scan-d09-49-n800
 OpenBabel11261919093D

 25 24  0  0  0  0  0  0  0  0999 V2000
   -1.9939   -0.2849    0.4778 C   0  0  0  0  0  0  0  0  0  0  0  0
   -3.3055   -0.6603    0.6636 N   0  0  0  0  0  0  0  0  0  0  0  0
   -4.3212   -1.1017    0.8438 N   0  0  0  0  0  0  0  0  0  0  0  0
   -1.5735    1.0241    0.7919 C   0  0  0  0  0  0  0  0  0  0  0  0
   -0.2394    1.3282    0.6203 C   0  0  0  0  0  0  0  0  0  0  0  0
    0.6678    0.3655    0.1282 C   0  0  0  0  0  0  0  0  0  0  0  0
    1.9352    0.7833   -0.0060 O   0  0  0  0  0  0  0  0  0  0  0  0
    2.9259   -0.1156   -0.5115 C   0  0  0  0  0  0  0  0  0  0  0  0
    0.2242   -0.9368   -0.1843 C   0  0  0  0  0  0  0  0  0  0  0  0
   -1.1082   -1.2655   -0.0021 C   0  0  0  0  0  0  0  0  0  0  0  0
   -2.2486    1.7058    1.1236 H   0  0  0  0  0  0  0  0  0  0  0  0
    0.1352    2.3193    0.8490 H   0  0  0  0  0  0  0  0  0  0  0  0
    3.8550    0.4532   -0.5282 H   0  0  0  0  0  0  0  0  0  0  0  0
    2.6793   -0.4432   -1.5269 H   0  0  0  0  0  0  0  0  0  0  0  0
    3.0408   -0.9854    0.1442 H   0  0  0  0  0  0  0  0  0  0  0  0
    0.9076   -1.6854   -0.5629 H   0  0  0  0  0  0  0  0  0  0  0  0
   -1.4702   -2.2609   -0.2340 H   0  0  0  0  0  0  0  0  0  0  0  0
   -5.4502    1.8653    0.3758 S   0  0  0  0  0  0  0  0  0  0  0  0
   -5.0421    2.9667    1.8168 C   0  0  0  0  0  0  0  0  0  0  0  0
   -6.4328    2.6219   -0.4007 O   0  0  0  0  0  0  0  0  0  0  0  0
   -5.9418    0.6203    1.0377 O   0  0  0  0  0  0  0  0  0  0  0  0
   -4.1124    1.6685   -0.2570 O   0  0  0  0  0  0  0  0  0  0  0  0
   -4.6022    4.1623    1.4015 F   0  0  0  0  0  0  0  0  0  0  0  0
   -6.0953    3.1499    2.6172 F   0  0  0  0  0  0  0  0  0  0  0  0
   -4.0493    2.4046    2.5594 F   0  0  0  0  0  0  0  0  0  0  0  0
  1  2  1  0  0  0  0
  1  4  2  0  0  0  0
  2  3  1  0  0  0  0
  4 11  1  0  0  0  0
  5  4  1  0  0  0  0
  5 12  1  0  0  0  0
  6  5  2  0  0  0  0
  7  6  1  0  0  0  0
  8  7  1  0  0  0  0
  8 15  1  0  0  0  0
  9 10  2  0  0  0  0
  9  6  1  0  0  0  0
 10  1  1  0  0  0  0
 13  8  1  0  0  0  0
 14  8  1  0  0  0  0
 16  9  1  0  0  0  0
 17 10  1  0  0  0  0
 18 21  1  0  0  0  0
 18 19  1  0  0  0  0
 19 25  1  0  0  0  0
 19 24  1  0  0  0  0
 20 18  2  0  0  0  0
 22 18  2  0  0  0  0
 23 19  1  0  0  0  0
M  RAD  3   2   2   3   3  21   2
M  END
