Coordinates from ORCA-job 4-MeOPhN2+~TfO-_B3LYPG-6-31G_dp-CH-Scan-d09-49-n800
 OpenBabel11261919093D

 25 24  0  0  0  0  0  0  0  0999 V2000
   -1.5195   -0.3394    0.6848 C   0  0  0  0  0  0  0  0  0  0  0  0
   -2.8306   -0.5728    1.0408 N   0  0  0  0  0  0  0  0  0  0  0  0
   -3.9057   -0.6846    1.3431 N   0  0  0  0  0  0  0  0  0  0  0  0
   -1.1961    1.0364    0.6286 C   0  0  0  0  0  0  0  0  0  0  0  0
    0.1562    1.1923    0.2688 C   0  0  0  0  0  0  0  0  0  0  0  0
    1.0314    0.1267    0.0070 C   0  0  0  0  0  0  0  0  0  0  0  0
    2.3008    0.4610   -0.3291 O   0  0  0  0  0  0  0  0  0  0  0  0
    3.2525   -0.5606   -0.6031 C   0  0  0  0  0  0  0  0  0  0  0  0
    0.5955   -1.2282    0.0922 C   0  0  0  0  0  0  0  0  0  0  0  0
   -0.7105   -1.4803    0.4396 C   0  0  0  0  0  0  0  0  0  0  0  0
   -4.6548    3.7431   -0.6868 H   0  0  0  0  0  0  0  0  0  0  0  0
    0.5918    2.1883    0.1757 H   0  0  0  0  0  0  0  0  0  0  0  0
    4.1831   -0.0444   -0.8406 H   0  0  0  0  0  0  0  0  0  0  0  0
    2.9520   -1.1738   -1.4613 H   0  0  0  0  0  0  0  0  0  0  0  0
    3.4124   -1.2081    0.2680 H   0  0  0  0  0  0  0  0  0  0  0  0
    1.2700   -2.0503   -0.1111 H   0  0  0  0  0  0  0  0  0  0  0  0
   -1.0911   -2.4960    0.5191 H   0  0  0  0  0  0  0  0  0  0  0  0
   -6.1189    2.5894    0.3747 S   0  0  0  0  0  0  0  0  0  0  0  0
   -5.3248    2.5013    2.0611 C   0  0  0  0  0  0  0  0  0  0  0  0
   -7.5298    2.8505    0.5690 O   0  0  0  0  0  0  0  0  0  0  0  0
   -5.6059    1.4708   -0.4038 O   0  0  0  0  0  0  0  0  0  0  0  0
   -5.4451    3.9678   -0.1648 O   0  0  0  0  0  0  0  0  0  0  0  0
   -5.6426    3.5813    2.7684 F   0  0  0  0  0  0  0  0  0  0  0  0
   -5.7815    1.4092    2.6757 F   0  0  0  0  0  0  0  0  0  0  0  0
   -4.0045    2.4195    1.9210 F   0  0  0  0  0  0  0  0  0  0  0  0
  1  2  1  0  0  0  0
  2  3  1  0  0  0  0
  4  1  1  0  0  0  0
  5  4  2  0  0  0  0
  6  9  2  0  0  0  0
  6  5  1  0  0  0  0
  7  6  1  0  0  0  0
  8  7  1  0  0  0  0
  8 15  1  0  0  0  0
  9 10  1  0  0  0  0
 10 17  1  0  0  0  0
 10  1  2  0  0  0  0
 11 22  1  0  0  0  0
 12  5  1  0  0  0  0
 13  8  1  0  0  0  0
 14  8  1  0  0  0  0
 16  9  1  0  0  0  0
 18 20  2  0  0  0  0
 18 19  1  0  0  0  0
 19 24  1  0  0  0  0
 19 23  1  0  0  0  0
 21 18  2  0  0  0  0
 22 18  1  0  0  0  0
 25 19  1  0  0  0  0
M  RAD  3   2   2   3   3   4   2
M  END
