Coordinates from ORCA-job 4-MeOPhN2+~TfO-_B3LYPG-6-31G_dp-CH-Scan-d09-49-n800
 OpenBabel11261919093D

 25 24  0  0  0  0  0  0  0  0999 V2000
   -1.6564   -0.4027    0.4710 C   0  0  0  0  0  0  0  0  0  0  0  0
   -2.9456   -0.7226    0.8241 N   0  0  0  0  0  0  0  0  0  0  0  0
   -4.0083   -0.9362    1.1121 N   0  0  0  0  0  0  0  0  0  0  0  0
   -1.4600    0.9534    0.1092 C   0  0  0  0  0  0  0  0  0  0  0  0
   -0.1150    1.1816   -0.2238 C   0  0  0  0  0  0  0  0  0  0  0  0
    0.8824    0.1929   -0.1955 C   0  0  0  0  0  0  0  0  0  0  0  0
    2.1271    0.5895   -0.5445 O   0  0  0  0  0  0  0  0  0  0  0  0
    3.1989   -0.3479   -0.5375 C   0  0  0  0  0  0  0  0  0  0  0  0
    0.5820   -1.1469    0.1827 C   0  0  0  0  0  0  0  0  0  0  0  0
   -0.7113   -1.4619    0.5252 C   0  0  0  0  0  0  0  0  0  0  0  0
   -3.6760    2.9630   -0.0813 H   0  0  0  0  0  0  0  0  0  0  0  0
    0.2169    2.1739   -0.5286 H   0  0  0  0  0  0  0  0  0  0  0  0
    4.0827    0.2101   -0.8481 H   0  0  0  0  0  0  0  0  0  0  0  0
    3.0225   -1.1670   -1.2445 H   0  0  0  0  0  0  0  0  0  0  0  0
    3.3672   -0.7597    0.4647 H   0  0  0  0  0  0  0  0  0  0  0  0
    1.3476   -1.9119    0.2047 H   0  0  0  0  0  0  0  0  0  0  0  0
   -0.9880   -2.4703    0.8223 H   0  0  0  0  0  0  0  0  0  0  0  0
   -5.7472    2.6331    0.3910 S   0  0  0  0  0  0  0  0  0  0  0  0
   -5.5785    2.4970    2.2421 C   0  0  0  0  0  0  0  0  0  0  0  0
   -6.9178    3.4429    0.1228 O   0  0  0  0  0  0  0  0  0  0  0  0
   -5.5689    1.2879   -0.1389 O   0  0  0  0  0  0  0  0  0  0  0  0
   -4.4541    3.5389    0.0647 O   0  0  0  0  0  0  0  0  0  0  0  0
   -5.5777    3.7051    2.7966 F   0  0  0  0  0  0  0  0  0  0  0  0
   -6.6045    1.7875    2.7112 F   0  0  0  0  0  0  0  0  0  0  0  0
   -4.4341    1.8693    2.5353 F   0  0  0  0  0  0  0  0  0  0  0  0
  1 10  1  0  0  0  0
  1  2  1  0  0  0  0
  2  3  1  0  0  0  0
  4  1  2  0  0  0  0
  5  6  2  0  0  0  0
  5  4  1  0  0  0  0
  6  9  1  0  0  0  0
  7  8  1  0  0  0  0
  7  6  1  0  0  0  0
  8 15  1  0  0  0  0
  9 16  1  0  0  0  0
  9 10  2  0  0  0  0
 10 17  1  0  0  0  0
 11 22  1  0  0  0  0
 12  5  1  0  0  0  0
 13  8  1  0  0  0  0
 14  8  1  0  0  0  0
 18 19  1  0  0  0  0
 19 25  1  0  0  0  0
 19 24  1  0  0  0  0
 19 23  1  0  0  0  0
 20 18  2  0  0  0  0
 21 18  2  0  0  0  0
 22 18  1  0  0  0  0
M  RAD  3   2   2   3   3   4   2
M  END
