Coordinates from ORCA-job 4-MeOPhN2+~TfO-_B3LYPG-6-31G_dp-CH-Scan-d09-49-n800
 OpenBabel11261919093D

 25 24  0  0  0  0  0  0  0  0999 V2000
   -1.8104   -0.3089    0.7589 C   0  0  0  0  0  0  0  0  0  0  0  0
   -3.0446   -0.6622    1.2356 N   0  0  0  0  0  0  0  0  0  0  0  0
   -4.0618   -0.9186    1.6205 N   0  0  0  0  0  0  0  0  0  0  0  0
   -1.5853    1.0565    0.4595 C   0  0  0  0  0  0  0  0  0  0  0  0
   -0.3111    1.3375   -0.0096 C   0  0  0  0  0  0  0  0  0  0  0  0
    0.6709    0.3400   -0.1739 C   0  0  0  0  0  0  0  0  0  0  0  0
    1.8576    0.7592   -0.6403 O   0  0  0  0  0  0  0  0  0  0  0  0
    2.9144   -0.1795   -0.8488 C   0  0  0  0  0  0  0  0  0  0  0  0
    0.3897   -1.0138    0.1432 C   0  0  0  0  0  0  0  0  0  0  0  0
   -0.8604   -1.3469    0.6168 C   0  0  0  0  0  0  0  0  0  0  0  0
   -2.6169    2.0462    0.5923 H   0  0  0  0  0  0  0  0  0  0  0  0
   -0.0359    2.3545   -0.2737 H   0  0  0  0  0  0  0  0  0  0  0  0
    3.7520    0.4030   -1.2313 H   0  0  0  0  0  0  0  0  0  0  0  0
    2.6306   -0.9381   -1.5863 H   0  0  0  0  0  0  0  0  0  0  0  0
    3.2066   -0.6632    0.0900 H   0  0  0  0  0  0  0  0  0  0  0  0
    1.1369   -1.7867    0.0179 H   0  0  0  0  0  0  0  0  0  0  0  0
   -1.1088   -2.3728    0.8699 H   0  0  0  0  0  0  0  0  0  0  0  0
   -4.9349    2.4776    0.3143 S   0  0  0  0  0  0  0  0  0  0  0  0
   -5.7644    2.4320    1.9760 C   0  0  0  0  0  0  0  0  0  0  0  0
   -5.6843    3.4482   -0.4764 O   0  0  0  0  0  0  0  0  0  0  0  0
   -4.9218    1.0644   -0.1145 O   0  0  0  0  0  0  0  0  0  0  0  0
   -3.5340    2.9540    0.7050 O   0  0  0  0  0  0  0  0  0  0  0  0
   -5.7538    3.6334    2.5582 F   0  0  0  0  0  0  0  0  0  0  0  0
   -7.0305    2.0204    1.8512 F   0  0  0  0  0  0  0  0  0  0  0  0
   -5.1157    1.5629    2.7827 F   0  0  0  0  0  0  0  0  0  0  0  0
  1  2  1  0  0  0  0
  2  3  1  0  0  0  0
  4  1  2  0  0  0  0
  5  4  1  0  0  0  0
  6  5  2  0  0  0  0
  6  9  1  0  0  0  0
  7  6  1  0  0  0  0
  8  7  1  0  0  0  0
  8 15  1  0  0  0  0
  9 10  2  0  0  0  0
 10  1  1  0  0  0  0
 10 17  1  0  0  0  0
 11 22  1  0  0  0  0
 12  5  1  0  0  0  0
 13  8  1  0  0  0  0
 14  8  1  0  0  0  0
 16  9  1  0  0  0  0
 18 22  1  0  0  0  0
 18 19  1  0  0  0  0
 19 23  1  0  0  0  0
 19 25  1  0  0  0  0
 20 18  2  0  0  0  0
 21 18  2  0  0  0  0
 24 19  1  0  0  0  0
M  RAD  3   2   2   3   3   4   2
M  END
