Coordinates from ORCA-job 4-MeOPhN2+~TfO-_B3LYPG-6-31G_dp-CH-Scan-d09-49-n800
 OpenBabel11261919093D

 25 24  0  0  0  0  0  0  0  0999 V2000
   -1.6486   -0.4019    0.4730 C   0  0  0  0  0  0  0  0  0  0  0  0
   -2.9388   -0.7170    0.8268 N   0  0  0  0  0  0  0  0  0  0  0  0
   -4.0030   -0.9242    1.1141 N   0  0  0  0  0  0  0  0  0  0  0  0
   -1.4514    0.9535    0.1088 C   0  0  0  0  0  0  0  0  0  0  0  0
   -0.1058    1.1786   -0.2254 C   0  0  0  0  0  0  0  0  0  0  0  0
    0.8899    0.1883   -0.1961 C   0  0  0  0  0  0  0  0  0  0  0  0
    2.1351    0.5821   -0.5469 O   0  0  0  0  0  0  0  0  0  0  0  0
    3.2052   -0.3571   -0.5394 C   0  0  0  0  0  0  0  0  0  0  0  0
    0.5879   -1.1504    0.1849 C   0  0  0  0  0  0  0  0  0  0  0  0
   -0.7057   -1.4630    0.5289 C   0  0  0  0  0  0  0  0  0  0  0  0
   -3.6979    2.9962   -0.0883 H   0  0  0  0  0  0  0  0  0  0  0  0
    0.2279    2.1698   -0.5322 H   0  0  0  0  0  0  0  0  0  0  0  0
    4.0897    0.1986   -0.8522 H   0  0  0  0  0  0  0  0  0  0  0  0
    3.0265   -1.1774   -1.2445 H   0  0  0  0  0  0  0  0  0  0  0  0
    3.3741   -0.7672    0.4635 H   0  0  0  0  0  0  0  0  0  0  0  0
    1.3524   -1.9165    0.2080 H   0  0  0  0  0  0  0  0  0  0  0  0
   -0.9839   -2.4703    0.8282 H   0  0  0  0  0  0  0  0  0  0  0  0
   -5.7628    2.6397    0.3922 S   0  0  0  0  0  0  0  0  0  0  0  0
   -5.5847    2.4928    2.2417 C   0  0  0  0  0  0  0  0  0  0  0  0
   -6.9431    3.4386    0.1343 O   0  0  0  0  0  0  0  0  0  0  0  0
   -5.5706    1.3010   -0.1490 O   0  0  0  0  0  0  0  0  0  0  0  0
   -4.4801    3.5627    0.0675 O   0  0  0  0  0  0  0  0  0  0  0  0
   -5.5975    3.6969    2.8046 F   0  0  0  0  0  0  0  0  0  0  0  0
   -6.5995    1.7667    2.7094 F   0  0  0  0  0  0  0  0  0  0  0  0
   -4.4311    1.8782    2.5254 F   0  0  0  0  0  0  0  0  0  0  0  0
  1 10  1  0  0  0  0
  1  2  1  0  0  0  0
  2  3  1  0  0  0  0
  4  1  2  0  0  0  0
  5  6  2  0  0  0  0
  5  4  1  0  0  0  0
  6  9  1  0  0  0  0
  7  8  1  0  0  0  0
  7  6  1  0  0  0  0
  8 15  1  0  0  0  0
  9 16  1  0  0  0  0
  9 10  2  0  0  0  0
 10 17  1  0  0  0  0
 11 22  1  0  0  0  0
 12  5  1  0  0  0  0
 13  8  1  0  0  0  0
 14  8  1  0  0  0  0
 18 19  1  0  0  0  0
 19 25  1  0  0  0  0
 19 24  1  0  0  0  0
 19 23  1  0  0  0  0
 20 18  2  0  0  0  0
 21 18  2  0  0  0  0
 22 18  1  0  0  0  0
M  RAD  3   2   2   3   3   4   2
M  END
