Coordinates from ORCA-job 4-MeOPhN2+~TfO-_B3LYPG-6-31G_dp-CH-Scan-d09-49-n800
 OpenBabel11261919093D

 25 24  0  0  0  0  0  0  0  0999 V2000
   -1.8117   -0.3180    0.7565 C   0  0  0  0  0  0  0  0  0  0  0  0
   -3.0451   -0.6780    1.2308 N   0  0  0  0  0  0  0  0  0  0  0  0
   -4.0603   -0.9419    1.6169 N   0  0  0  0  0  0  0  0  0  0  0  0
   -1.5970    1.0504    0.4603 C   0  0  0  0  0  0  0  0  0  0  0  0
   -0.3200    1.3318   -0.0062 C   0  0  0  0  0  0  0  0  0  0  0  0
    0.6661    0.3389   -0.1698 C   0  0  0  0  0  0  0  0  0  0  0  0
    1.8529    0.7628   -0.6337 O   0  0  0  0  0  0  0  0  0  0  0  0
    2.9128   -0.1721   -0.8413 C   0  0  0  0  0  0  0  0  0  0  0  0
    0.3904   -1.0170    0.1450 C   0  0  0  0  0  0  0  0  0  0  0  0
   -0.8591   -1.3549    0.6155 C   0  0  0  0  0  0  0  0  0  0  0  0
   -2.6585    2.0679    0.5857 H   0  0  0  0  0  0  0  0  0  0  0  0
   -0.0448    2.3493   -0.2698 H   0  0  0  0  0  0  0  0  0  0  0  0
    3.7493    0.4132   -1.2220 H   0  0  0  0  0  0  0  0  0  0  0  0
    2.6330   -0.9312   -1.5799 H   0  0  0  0  0  0  0  0  0  0  0  0
    3.2053   -0.6560    0.0973 H   0  0  0  0  0  0  0  0  0  0  0  0
    1.1410   -1.7867    0.0201 H   0  0  0  0  0  0  0  0  0  0  0  0
   -1.1048   -2.3819    0.8672 H   0  0  0  0  0  0  0  0  0  0  0  0
   -4.9432    2.4766    0.3037 S   0  0  0  0  0  0  0  0  0  0  0  0
   -5.7446    2.4366    1.9793 C   0  0  0  0  0  0  0  0  0  0  0  0
   -5.6908    3.4578   -0.4735 O   0  0  0  0  0  0  0  0  0  0  0  0
   -4.9380    1.0662   -0.1266 O   0  0  0  0  0  0  0  0  0  0  0  0
   -3.5294    2.9504    0.6762 O   0  0  0  0  0  0  0  0  0  0  0  0
   -5.7217    3.6393    2.5572 F   0  0  0  0  0  0  0  0  0  0  0  0
   -7.0129    2.0277    1.8731 F   0  0  0  0  0  0  0  0  0  0  0  0
   -5.0846    1.5678    2.7752 F   0  0  0  0  0  0  0  0  0  0  0  0
  1  2  1  0  0  0  0
  2  3  1  0  0  0  0
  4  1  2  0  0  0  0
  5  4  1  0  0  0  0
  6  5  2  0  0  0  0
  6  9  1  0  0  0  0
  7  6  1  0  0  0  0
  8  7  1  0  0  0  0
  8 15  1  0  0  0  0
  9 10  2  0  0  0  0
 10  1  1  0  0  0  0
 10 17  1  0  0  0  0
 11 22  1  0  0  0  0
 12  5  1  0  0  0  0
 13  8  1  0  0  0  0
 14  8  1  0  0  0  0
 16  9  1  0  0  0  0
 18 22  1  0  0  0  0
 18 19  1  0  0  0  0
 19 23  1  0  0  0  0
 19 25  1  0  0  0  0
 20 18  2  0  0  0  0
 21 18  2  0  0  0  0
 24 19  1  0  0  0  0
M  RAD  3   2   2   3   3   4   2
M  END
