Coordinates from ORCA-job 4-MeOPhN2+~TfO-_B3LYPG-6-31G_dp-CH-Scan-d09-49-n800
 OpenBabel11261919093D

 25 24  0  0  0  0  0  0  0  0999 V2000
   -1.8256   -0.3899    0.6405 C   0  0  0  0  0  0  0  0  0  0  0  0
   -3.0718   -0.7788    1.0591 N   0  0  0  0  0  0  0  0  0  0  0  0
   -4.0991   -1.0615    1.4020 N   0  0  0  0  0  0  0  0  0  0  0  0
   -1.6612    0.9844    0.3289 C   0  0  0  0  0  0  0  0  0  0  0  0
   -0.3577    1.2758   -0.0784 C   0  0  0  0  0  0  0  0  0  0  0  0
    0.6644    0.3130   -0.1670 C   0  0  0  0  0  0  0  0  0  0  0  0
    1.8656    0.7624   -0.5779 O   0  0  0  0  0  0  0  0  0  0  0  0
    2.9615   -0.1429   -0.6973 C   0  0  0  0  0  0  0  0  0  0  0  0
    0.4175   -1.0467    0.1637 C   0  0  0  0  0  0  0  0  0  0  0  0
   -0.8435   -1.4109    0.5755 C   0  0  0  0  0  0  0  0  0  0  0  0
   -2.9425    2.2210    0.3623 H   0  0  0  0  0  0  0  0  0  0  0  0
   -0.0837    2.2924   -0.3526 H   0  0  0  0  0  0  0  0  0  0  0  0
    3.8029    0.4573   -1.0433 H   0  0  0  0  0  0  0  0  0  0  0  0
    2.7511   -0.9300   -1.4301 H   0  0  0  0  0  0  0  0  0  0  0  0
    3.2130   -0.5954    0.2689 H   0  0  0  0  0  0  0  0  0  0  0  0
    1.1978   -1.7939    0.0967 H   0  0  0  0  0  0  0  0  0  0  0  0
   -1.0741   -2.4390    0.8393 H   0  0  0  0  0  0  0  0  0  0  0  0
   -5.1332    2.4999    0.2805 S   0  0  0  0  0  0  0  0  0  0  0  0
   -5.5673    2.4801    2.0884 C   0  0  0  0  0  0  0  0  0  0  0  0
   -5.9815    3.5042   -0.3383 O   0  0  0  0  0  0  0  0  0  0  0  0
   -5.1843    1.0975   -0.1397 O   0  0  0  0  0  0  0  0  0  0  0  0
   -3.6527    3.0139    0.3589 O   0  0  0  0  0  0  0  0  0  0  0  0
   -5.4375    3.6935    2.6229 F   0  0  0  0  0  0  0  0  0  0  0  0
   -6.8260    2.0626    2.2409 F   0  0  0  0  0  0  0  0  0  0  0  0
   -4.7482    1.6298    2.7333 F   0  0  0  0  0  0  0  0  0  0  0  0
  1  2  1  0  0  0  0
  2  3  1  0  0  0  0
  4  1  2  0  0  0  0
  5  4  1  0  0  0  0
  6  5  2  0  0  0  0
  6  9  1  0  0  0  0
  7  6  1  0  0  0  0
  8  7  1  0  0  0  0
  8 15  1  0  0  0  0
  9 10  2  0  0  0  0
 10  1  1  0  0  0  0
 10 17  1  0  0  0  0
 12  5  1  0  0  0  0
 13  8  1  0  0  0  0
 14  8  1  0  0  0  0
 16  9  1  0  0  0  0
 18 22  1  0  0  0  0
 18 19  1  0  0  0  0
 19 24  1  0  0  0  0
 19 23  1  0  0  0  0
 19 25  1  0  0  0  0
 20 18  2  0  0  0  0
 21 18  2  0  0  0  0
 22 11  1  0  0  0  0
M  RAD  3   2   2   3   3   4   2
M  END
