Coordinates from ORCA-job 4-MeOPhN2+~TfO-_B3LYPG-6-31G_dp-CH-Scan-d09-49-n800
 OpenBabel11261919093D

 25 24  0  0  0  0  0  0  0  0999 V2000
   -1.7844   -0.4205    0.5285 C   0  0  0  0  0  0  0  0  0  0  0  0
   -3.0499   -0.7977    0.9013 N   0  0  0  0  0  0  0  0  0  0  0  0
   -4.0934   -1.0683    1.2067 N   0  0  0  0  0  0  0  0  0  0  0  0
   -1.6229    0.9475    0.1901 C   0  0  0  0  0  0  0  0  0  0  0  0
   -0.2977    1.2280   -0.1652 C   0  0  0  0  0  0  0  0  0  0  0  0
    0.7301    0.2688   -0.1792 C   0  0  0  0  0  0  0  0  0  0  0  0
    1.9512    0.7120   -0.5440 O   0  0  0  0  0  0  0  0  0  0  0  0
    3.0534   -0.1908   -0.5808 C   0  0  0  0  0  0  0  0  0  0  0  0
    0.4753   -1.0850    0.1754 C   0  0  0  0  0  0  0  0  0  0  0  0
   -0.8014   -1.4447    0.5375 C   0  0  0  0  0  0  0  0  0  0  0  0
   -3.2443    2.4799    0.1323 H   0  0  0  0  0  0  0  0  0  0  0  0
   -0.0071    2.2368   -0.4541 H   0  0  0  0  0  0  0  0  0  0  0  0
    3.9113    0.4031   -0.8964 H   0  0  0  0  0  0  0  0  0  0  0  0
    2.8866   -0.9983   -1.3029 H   0  0  0  0  0  0  0  0  0  0  0  0
    3.2548   -0.6183    0.4085 H   0  0  0  0  0  0  0  0  0  0  0  0
    1.2619   -1.8284    0.1649 H   0  0  0  0  0  0  0  0  0  0  0  0
   -1.0411   -2.4669    0.8177 H   0  0  0  0  0  0  0  0  0  0  0  0
   -5.3985    2.5443    0.3237 S   0  0  0  0  0  0  0  0  0  0  0  0
   -5.4957    2.5054    2.1825 C   0  0  0  0  0  0  0  0  0  0  0  0
   -6.3866    3.5026   -0.1330 O   0  0  0  0  0  0  0  0  0  0  0  0
   -5.4078    1.1481   -0.1027 O   0  0  0  0  0  0  0  0  0  0  0  0
   -3.9543    3.1884    0.1353 O   0  0  0  0  0  0  0  0  0  0  0  0
   -5.3545    3.7292    2.6853 F   0  0  0  0  0  0  0  0  0  0  0  0
   -6.6787    2.0078    2.5456 F   0  0  0  0  0  0  0  0  0  0  0  0
   -4.5223    1.7159    2.6601 F   0  0  0  0  0  0  0  0  0  0  0  0
  1 10  1  0  0  0  0
  1  2  1  0  0  0  0
  2  3  1  0  0  0  0
  4  1  2  0  0  0  0
  5  4  1  0  0  0  0
  6  5  2  0  0  0  0
  6  9  1  0  0  0  0
  7  6  1  0  0  0  0
  8  7  1  0  0  0  0
  8 15  1  0  0  0  0
  9 10  2  0  0  0  0
 10 17  1  0  0  0  0
 11 22  1  0  0  0  0
 12  5  1  0  0  0  0
 13  8  1  0  0  0  0
 14  8  1  0  0  0  0
 16  9  1  0  0  0  0
 18 19  1  0  0  0  0
 19 24  1  0  0  0  0
 19 25  1  0  0  0  0
 19 23  1  0  0  0  0
 20 18  2  0  0  0  0
 21 18  2  0  0  0  0
 22 18  1  0  0  0  0
M  RAD  3   2   2   3   3   4   2
M  END
