Coordinates from ORCA-job 4-MeOPhN2+~TfO-_B3LYPG-6-31G_dp-CH-Scan-d09-49-n800
 OpenBabel11261919093D

 25 24  0  0  0  0  0  0  0  0999 V2000
   -1.5686   -0.3345    0.5713 C   0  0  0  0  0  0  0  0  0  0  0  0
   -2.8563   -0.6017    0.9738 N   0  0  0  0  0  0  0  0  0  0  0  0
   -3.9161   -0.7653    1.3030 N   0  0  0  0  0  0  0  0  0  0  0  0
   -1.3385    1.0164    0.2116 C   0  0  0  0  0  0  0  0  0  0  0  0
    0.0018    1.1929   -0.1737 C   0  0  0  0  0  0  0  0  0  0  0  0
    0.9592    0.1657   -0.1938 C   0  0  0  0  0  0  0  0  0  0  0  0
    2.2039    0.5150   -0.5928 O   0  0  0  0  0  0  0  0  0  0  0  0
    3.2348   -0.4655   -0.6402 C   0  0  0  0  0  0  0  0  0  0  0  0
    0.6226   -1.1651    0.1879 C   0  0  0  0  0  0  0  0  0  0  0  0
   -0.6669   -1.4323    0.5813 C   0  0  0  0  0  0  0  0  0  0  0  0
   -3.7861    3.2294   -0.0219 H   0  0  0  0  0  0  0  0  0  0  0  0
    0.3613    2.1738   -0.4855 H   0  0  0  0  0  0  0  0  0  0  0  0
    4.1264    0.0578   -0.9868 H   0  0  0  0  0  0  0  0  0  0  0  0
    2.9933   -1.2709   -1.3439 H   0  0  0  0  0  0  0  0  0  0  0  0
    3.4311   -0.8925    0.3506 H   0  0  0  0  0  0  0  0  0  0  0  0
    1.3581   -1.9594    0.1730 H   0  0  0  0  0  0  0  0  0  0  0  0
   -0.9711   -2.4314    0.8837 H   0  0  0  0  0  0  0  0  0  0  0  0
   -5.8237    2.6621    0.3533 S   0  0  0  0  0  0  0  0  0  0  0  0
   -5.7267    2.4336    2.2011 C   0  0  0  0  0  0  0  0  0  0  0  0
   -7.0572    3.3654    0.0681 O   0  0  0  0  0  0  0  0  0  0  0  0
   -5.4753    1.3806   -0.2441 O   0  0  0  0  0  0  0  0  0  0  0  0
   -4.6145    3.7160    0.1501 O   0  0  0  0  0  0  0  0  0  0  0  0
   -5.9430    3.5897    2.8203 F   0  0  0  0  0  0  0  0  0  0  0  0
   -6.6506    1.5465    2.5665 F   0  0  0  0  0  0  0  0  0  0  0  0
   -4.5139    1.9725    2.5246 F   0  0  0  0  0  0  0  0  0  0  0  0
  1 10  1  0  0  0  0
  1  2  1  0  0  0  0
  2  3  1  0  0  0  0
  4  1  2  0  0  0  0
  5  4  1  0  0  0  0
  6  5  2  0  0  0  0
  6  9  1  0  0  0  0
  7  6  1  0  0  0  0
  8  7  1  0  0  0  0
  8 15  1  0  0  0  0
  9 10  2  0  0  0  0
 10 17  1  0  0  0  0
 11 22  1  0  0  0  0
 12  5  1  0  0  0  0
 13  8  1  0  0  0  0
 14  8  1  0  0  0  0
 16  9  1  0  0  0  0
 18 19  1  0  0  0  0
 19 25  1  0  0  0  0
 19 24  1  0  0  0  0
 19 23  1  0  0  0  0
 20 18  2  0  0  0  0
 21 18  2  0  0  0  0
 22 18  1  0  0  0  0
M  RAD  3   2   2   3   3   4   2
M  END
