Coordinates from ORCA-job 4-MeOPhN2+~TfO-_B3LYPG-6-31G_dp-CH-Scan-d09-49-n800
 OpenBabel11261919093D

 25 24  0  0  0  0  0  0  0  0999 V2000
   -1.8268   -0.4239    0.5493 C   0  0  0  0  0  0  0  0  0  0  0  0
   -3.0844   -0.8186    0.9288 N   0  0  0  0  0  0  0  0  0  0  0  0
   -4.1215   -1.1049    1.2397 N   0  0  0  0  0  0  0  0  0  0  0  0
   -1.6735    0.9480    0.2220 C   0  0  0  0  0  0  0  0  0  0  0  0
   -0.3555    1.2448   -0.1401 C   0  0  0  0  0  0  0  0  0  0  0  0
    0.6803    0.2939   -0.1716 C   0  0  0  0  0  0  0  0  0  0  0  0
    1.8936    0.7513   -0.5408 O   0  0  0  0  0  0  0  0  0  0  0  0
    3.0040   -0.1413   -0.5949 C   0  0  0  0  0  0  0  0  0  0  0  0
    0.4378   -1.0644    0.1711 C   0  0  0  0  0  0  0  0  0  0  0  0
   -0.8335   -1.4374    0.5395 C   0  0  0  0  0  0  0  0  0  0  0  0
   -3.1114    2.3181    0.1919 H   0  0  0  0  0  0  0  0  0  0  0  0
   -0.0782    2.2592   -0.4206 H   0  0  0  0  0  0  0  0  0  0  0  0
    3.8539    0.4642   -0.9102 H   0  0  0  0  0  0  0  0  0  0  0  0
    2.8388   -0.9422   -1.3246 H   0  0  0  0  0  0  0  0  0  0  0  0
    3.2158   -0.5769    0.3885 H   0  0  0  0  0  0  0  0  0  0  0  0
    1.2295   -1.8021    0.1470 H   0  0  0  0  0  0  0  0  0  0  0  0
   -1.0628   -2.4640    0.8111 H   0  0  0  0  0  0  0  0  0  0  0  0
   -5.2803    2.5136    0.3050 S   0  0  0  0  0  0  0  0  0  0  0  0
   -5.4623    2.5090    2.1567 C   0  0  0  0  0  0  0  0  0  0  0  0
   -6.2096    3.5044   -0.2064 O   0  0  0  0  0  0  0  0  0  0  0  0
   -5.3495    1.1095   -0.0963 O   0  0  0  0  0  0  0  0  0  0  0  0
   -3.8064    3.0721    0.1720 O   0  0  0  0  0  0  0  0  0  0  0  0
   -5.2847    3.7321    2.6515 F   0  0  0  0  0  0  0  0  0  0  0  0
   -6.6812    2.0722    2.4787 F   0  0  0  0  0  0  0  0  0  0  0  0
   -4.5479    1.6821    2.6898 F   0  0  0  0  0  0  0  0  0  0  0  0
  1  2  1  0  0  0  0
  2  3  1  0  0  0  0
  4  1  2  0  0  0  0
  5  4  1  0  0  0  0
  6  5  2  0  0  0  0
  6  9  1  0  0  0  0
  7  6  1  0  0  0  0
  8  7  1  0  0  0  0
  8 15  1  0  0  0  0
  9 10  2  0  0  0  0
 10  1  1  0  0  0  0
 10 17  1  0  0  0  0
 12  5  1  0  0  0  0
 13  8  1  0  0  0  0
 14  8  1  0  0  0  0
 16  9  1  0  0  0  0
 18 19  1  0  0  0  0
 19 24  1  0  0  0  0
 19 23  1  0  0  0  0
 19 25  1  0  0  0  0
 20 18  2  0  0  0  0
 21 18  2  0  0  0  0
 22 11  1  0  0  0  0
 22 18  1  0  0  0  0
M  RAD  3   2   2   3   3   4   2
M  END
