Coordinates from ORCA-job 4-MeOPhN2+~TfO-_B3LYPG-6-31G_dp-CH-Scan-d09-49-n800
 OpenBabel11261919093D

 25 24  0  0  0  0  0  0  0  0999 V2000
   -1.5295   -0.3425    0.6621 C   0  0  0  0  0  0  0  0  0  0  0  0
   -2.8356   -0.5807    1.0317 N   0  0  0  0  0  0  0  0  0  0  0  0
   -3.9069   -0.6990    1.3446 N   0  0  0  0  0  0  0  0  0  0  0  0
   -1.2287    1.0339    0.5339 C   0  0  0  0  0  0  0  0  0  0  0  0
    0.1216    1.1932    0.1685 C   0  0  0  0  0  0  0  0  0  0  0  0
    1.0154    0.1305   -0.0353 C   0  0  0  0  0  0  0  0  0  0  0  0
    2.2799    0.4683   -0.3856 O   0  0  0  0  0  0  0  0  0  0  0  0
    3.2496   -0.5498   -0.6039 C   0  0  0  0  0  0  0  0  0  0  0  0
    0.6021   -1.2251    0.1200 C   0  0  0  0  0  0  0  0  0  0  0  0
   -0.7003   -1.4806    0.4783 C   0  0  0  0  0  0  0  0  0  0  0  0
   -4.5244    3.7464   -0.5920 H   0  0  0  0  0  0  0  0  0  0  0  0
    0.5404    2.1901    0.0231 H   0  0  0  0  0  0  0  0  0  0  0  0
    4.1728   -0.0307   -0.8635 H   0  0  0  0  0  0  0  0  0  0  0  0
    2.9632   -1.2104   -1.4310 H   0  0  0  0  0  0  0  0  0  0  0  0
    3.4160   -1.1497    0.2994 H   0  0  0  0  0  0  0  0  0  0  0  0
    1.2904   -2.0456   -0.0387 H   0  0  0  0  0  0  0  0  0  0  0  0
   -1.0636   -2.4970    0.6112 H   0  0  0  0  0  0  0  0  0  0  0  0
   -6.0756    2.6153    0.3660 S   0  0  0  0  0  0  0  0  0  0  0  0
   -5.3764    2.4682    2.0897 C   0  0  0  0  0  0  0  0  0  0  0  0
   -7.4864    2.9157    0.4930 O   0  0  0  0  0  0  0  0  0  0  0  0
   -5.5564    1.4962   -0.4070 O   0  0  0  0  0  0  0  0  0  0  0  0
   -5.3343    3.9828   -0.1062 O   0  0  0  0  0  0  0  0  0  0  0  0
   -5.7047    3.5398    2.8051 F   0  0  0  0  0  0  0  0  0  0  0  0
   -5.8925    1.3746    2.6521 F   0  0  0  0  0  0  0  0  0  0  0  0
   -4.0520    2.3550    2.0214 F   0  0  0  0  0  0  0  0  0  0  0  0
  1  2  1  0  0  0  0
  2  3  1  0  0  0  0
  4  1  1  0  0  0  0
  5  4  2  0  0  0  0
  6  9  2  0  0  0  0
  6  5  1  0  0  0  0
  7  6  1  0  0  0  0
  8  7  1  0  0  0  0
  8 15  1  0  0  0  0
  9 10  1  0  0  0  0
 10 17  1  0  0  0  0
 10  1  2  0  0  0  0
 11 22  1  0  0  0  0
 12  5  1  0  0  0  0
 13  8  1  0  0  0  0
 14  8  1  0  0  0  0
 16  9  1  0  0  0  0
 18 20  2  0  0  0  0
 18 19  1  0  0  0  0
 19 24  1  0  0  0  0
 19 23  1  0  0  0  0
 21 18  2  0  0  0  0
 22 18  1  0  0  0  0
 25 19  1  0  0  0  0
M  RAD  3   2   2   3   3   4   2
M  END
