Coordinates from ORCA-job 4-MeOPhN2+~TfO-_B3LYPG-6-31G_dp-CH-Scan-d09-49-n800
 OpenBabel11261919093D

 25 24  0  0  0  0  0  0  0  0999 V2000
   -1.8151   -0.3973    0.6253 C   0  0  0  0  0  0  0  0  0  0  0  0
   -3.0644   -0.7845    1.0370 N   0  0  0  0  0  0  0  0  0  0  0  0
   -4.0947   -1.0642    1.3742 N   0  0  0  0  0  0  0  0  0  0  0  0
   -1.6531    0.9769    0.3120 C   0  0  0  0  0  0  0  0  0  0  0  0
   -0.3459    1.2665   -0.0882 C   0  0  0  0  0  0  0  0  0  0  0  0
    0.6773    0.3043   -0.1680 C   0  0  0  0  0  0  0  0  0  0  0  0
    1.8815    0.7534   -0.5726 O   0  0  0  0  0  0  0  0  0  0  0  0
    2.9782   -0.1516   -0.6824 C   0  0  0  0  0  0  0  0  0  0  0  0
    0.4300   -1.0552    0.1646 C   0  0  0  0  0  0  0  0  0  0  0  0
   -0.8330   -1.4194    0.5694 C   0  0  0  0  0  0  0  0  0  0  0  0
   -2.9980    2.2706    0.3320 H   0  0  0  0  0  0  0  0  0  0  0  0
   -0.0687    2.2821   -0.3635 H   0  0  0  0  0  0  0  0  0  0  0  0
    3.8219    0.4480   -1.0242 H   0  0  0  0  0  0  0  0  0  0  0  0
    2.7734   -0.9408   -1.4146 H   0  0  0  0  0  0  0  0  0  0  0  0
    3.2237   -0.6018    0.2865 H   0  0  0  0  0  0  0  0  0  0  0  0
    1.2116   -1.8016    0.1043 H   0  0  0  0  0  0  0  0  0  0  0  0
   -1.0647   -2.4470    0.8346 H   0  0  0  0  0  0  0  0  0  0  0  0
   -5.1795    2.5093    0.2846 S   0  0  0  0  0  0  0  0  0  0  0  0
   -5.5633    2.4859    2.1042 C   0  0  0  0  0  0  0  0  0  0  0  0
   -6.0476    3.5095   -0.3112 O   0  0  0  0  0  0  0  0  0  0  0  0
   -5.2226    1.1084   -0.1366 O   0  0  0  0  0  0  0  0  0  0  0  0
   -3.6991    3.0453    0.3227 O   0  0  0  0  0  0  0  0  0  0  0  0
   -5.4306    3.7011    2.6330 F   0  0  0  0  0  0  0  0  0  0  0  0
   -6.8137    2.0571    2.2882 F   0  0  0  0  0  0  0  0  0  0  0  0
   -4.7195    1.6439    2.7256 F   0  0  0  0  0  0  0  0  0  0  0  0
  1  2  1  0  0  0  0
  2  3  1  0  0  0  0
  4  1  2  0  0  0  0
  5  4  1  0  0  0  0
  6  5  2  0  0  0  0
  6  9  1  0  0  0  0
  7  6  1  0  0  0  0
  8  7  1  0  0  0  0
  8 15  1  0  0  0  0
  9 10  2  0  0  0  0
 10  1  1  0  0  0  0
 10 17  1  0  0  0  0
 12  5  1  0  0  0  0
 13  8  1  0  0  0  0
 14  8  1  0  0  0  0
 16  9  1  0  0  0  0
 18 22  1  0  0  0  0
 18 19  1  0  0  0  0
 19 24  1  0  0  0  0
 19 23  1  0  0  0  0
 19 25  1  0  0  0  0
 20 18  2  0  0  0  0
 21 18  2  0  0  0  0
 22 11  1  0  0  0  0
M  RAD  3   2   2   3   3   4   2
M  END
