Coordinates from ORCA-job 4-MeOPhN2+~TfO-_B3LYPG-6-31G_dp-CH-Scan-d09-49-n800
 OpenBabel11261919093D

 25 24  0  0  0  0  0  0  0  0999 V2000
   -1.5653   -0.3499    0.6604 C   0  0  0  0  0  0  0  0  0  0  0  0
   -2.8641   -0.6032    1.0432 N   0  0  0  0  0  0  0  0  0  0  0  0
   -3.9311   -0.7381    1.3641 N   0  0  0  0  0  0  0  0  0  0  0  0
   -1.2932    1.0261    0.4722 C   0  0  0  0  0  0  0  0  0  0  0  0
    0.0525    1.1976    0.0960 C   0  0  0  0  0  0  0  0  0  0  0  0
    0.9683    0.1464   -0.0657 C   0  0  0  0  0  0  0  0  0  0  0  0
    2.2242    0.4957   -0.4343 O   0  0  0  0  0  0  0  0  0  0  0  0
    3.2144   -0.5101   -0.6154 C   0  0  0  0  0  0  0  0  0  0  0  0
    0.5841   -1.2095    0.1487 C   0  0  0  0  0  0  0  0  0  0  0  0
   -0.7116   -1.4765    0.5222 C   0  0  0  0  0  0  0  0  0  0  0  0
   -4.3081    3.6874   -0.4859 H   0  0  0  0  0  0  0  0  0  0  0  0
    0.4498    2.1959   -0.0934 H   0  0  0  0  0  0  0  0  0  0  0  0
    4.1252    0.0172   -0.9009 H   0  0  0  0  0  0  0  0  0  0  0  0
    2.9381   -1.2099   -1.4131 H   0  0  0  0  0  0  0  0  0  0  0  0
    3.3974   -1.0682    0.3111 H   0  0  0  0  0  0  0  0  0  0  0  0
    1.2889   -2.0216    0.0228 H   0  0  0  0  0  0  0  0  0  0  0  0
   -1.0527   -2.4936    0.7004 H   0  0  0  0  0  0  0  0  0  0  0  0
   -5.9798    2.6255    0.3436 S   0  0  0  0  0  0  0  0  0  0  0  0
   -5.3903    2.4294    2.1029 C   0  0  0  0  0  0  0  0  0  0  0  0
   -7.3784    2.9976    0.3912 O   0  0  0  0  0  0  0  0  0  0  0  0
   -5.4748    1.4847   -0.4070 O   0  0  0  0  0  0  0  0  0  0  0  0
   -5.1457    3.9574   -0.0697 O   0  0  0  0  0  0  0  0  0  0  0  0
   -5.7398    3.4925    2.8208 F   0  0  0  0  0  0  0  0  0  0  0  0
   -5.9583    1.3351    2.6114 F   0  0  0  0  0  0  0  0  0  0  0  0
   -4.0656    2.2911    2.1115 F   0  0  0  0  0  0  0  0  0  0  0  0
  1  2  1  0  0  0  0
  2  3  1  0  0  0  0
  4  1  2  0  0  0  0
  5  4  1  0  0  0  0
  6  5  2  0  0  0  0
  6  9  1  0  0  0  0
  7  6  1  0  0  0  0
  8  7  1  0  0  0  0
  8 15  1  0  0  0  0
  9 10  2  0  0  0  0
 10  1  1  0  0  0  0
 10 17  1  0  0  0  0
 11 22  1  0  0  0  0
 12  5  1  0  0  0  0
 13  8  1  0  0  0  0
 14  8  1  0  0  0  0
 16  9  1  0  0  0  0
 18 20  2  0  0  0  0
 18 19  1  0  0  0  0
 19 25  1  0  0  0  0
 19 24  1  0  0  0  0
 19 23  1  0  0  0  0
 21 18  2  0  0  0  0
 22 18  1  0  0  0  0
M  RAD  3   2   2   3   3   4   2
M  END
