Coordinates from ORCA-job 4-MeOPhN2+~TfO-_B3LYPG-6-31G_dp-CH-Scan-d09-49-n800
 OpenBabel11261919093D

 25 24  0  0  0  0  0  0  0  0999 V2000
   -1.6881   -0.4106    0.4789 C   0  0  0  0  0  0  0  0  0  0  0  0
   -2.9716   -0.7451    0.8363 N   0  0  0  0  0  0  0  0  0  0  0  0
   -4.0299   -0.9731    1.1285 N   0  0  0  0  0  0  0  0  0  0  0  0
   -1.5014    0.9486    0.1228 C   0  0  0  0  0  0  0  0  0  0  0  0
   -0.1604    1.1911   -0.2130 C   0  0  0  0  0  0  0  0  0  0  0  0
    0.8456    0.2106   -0.1924 C   0  0  0  0  0  0  0  0  0  0  0  0
    2.0853    0.6200   -0.5422 O   0  0  0  0  0  0  0  0  0  0  0  0
    3.1658   -0.3078   -0.5427 C   0  0  0  0  0  0  0  0  0  0  0  0
    0.5571   -1.1333    0.1791 C   0  0  0  0  0  0  0  0  0  0  0  0
   -0.7326   -1.4609    0.5238 C   0  0  0  0  0  0  0  0  0  0  0  0
   -3.5694    2.8481   -0.0350 H   0  0  0  0  0  0  0  0  0  0  0  0
    0.1613    2.1878   -0.5136 H   0  0  0  0  0  0  0  0  0  0  0  0
    4.0437    0.2602   -0.8516 H   0  0  0  0  0  0  0  0  0  0  0  0
    2.9951   -1.1242   -1.2541 H   0  0  0  0  0  0  0  0  0  0  0  0
    3.3394   -0.7236    0.4570 H   0  0  0  0  0  0  0  0  0  0  0  0
    1.3288   -1.8923    0.1947 H   0  0  0  0  0  0  0  0  0  0  0  0
   -0.9998   -2.4731    0.8162 H   0  0  0  0  0  0  0  0  0  0  0  0
   -5.6686    2.6125    0.3763 S   0  0  0  0  0  0  0  0  0  0  0  0
   -5.5566    2.5015    2.2330 C   0  0  0  0  0  0  0  0  0  0  0  0
   -6.7985    3.4635    0.0634 O   0  0  0  0  0  0  0  0  0  0  0  0
   -5.5371    1.2500   -0.1234 O   0  0  0  0  0  0  0  0  0  0  0  0
   -4.3333    3.4560    0.0708 O   0  0  0  0  0  0  0  0  0  0  0  0
   -5.5156    3.7177    2.7686 F   0  0  0  0  0  0  0  0  0  0  0  0
   -6.6256    1.8472    2.6867 F   0  0  0  0  0  0  0  0  0  0  0  0
   -4.4497    1.8281    2.5688 F   0  0  0  0  0  0  0  0  0  0  0  0
  1 10  1  0  0  0  0
  1  2  1  0  0  0  0
  2  3  1  0  0  0  0
  4  1  2  0  0  0  0
  5  6  2  0  0  0  0
  5  4  1  0  0  0  0
  6  9  1  0  0  0  0
  7  6  1  0  0  0  0
  8  7  1  0  0  0  0
  8 15  1  0  0  0  0
  9 16  1  0  0  0  0
  9 10  2  0  0  0  0
 10 17  1  0  0  0  0
 11 22  1  0  0  0  0
 12  5  1  0  0  0  0
 13  8  1  0  0  0  0
 14  8  1  0  0  0  0
 18 19  1  0  0  0  0
 19 25  1  0  0  0  0
 19 24  1  0  0  0  0
 19 23  1  0  0  0  0
 20 18  2  0  0  0  0
 21 18  2  0  0  0  0
 22 18  1  0  0  0  0
M  RAD  3   2   2   3   3   4   2
M  END
