Coordinates from ORCA-job 4-MeOPhN2+~TfO-_B3LYPG-6-31G_dp-CH-Scan-d09-49-n800
 OpenBabel11261919093D

 25 24  0  0  0  0  0  0  0  0999 V2000
   -1.4768   -0.3140    0.5783 C   0  0  0  0  0  0  0  0  0  0  0  0
   -2.7738   -0.5425    0.9794 N   0  0  0  0  0  0  0  0  0  0  0  0
   -3.8391   -0.6666    1.3098 N   0  0  0  0  0  0  0  0  0  0  0  0
   -1.2110    1.0372    0.2497 C   0  0  0  0  0  0  0  0  0  0  0  0
    0.1350    1.1798   -0.1352 C   0  0  0  0  0  0  0  0  0  0  0  0
    1.0596    0.1246   -0.1823 C   0  0  0  0  0  0  0  0  0  0  0  0
    2.3147    0.4441   -0.5775 O   0  0  0  0  0  0  0  0  0  0  0  0
    3.3133   -0.5671   -0.6520 C   0  0  0  0  0  0  0  0  0  0  0  0
    0.6835   -1.2045    0.1693 C   0  0  0  0  0  0  0  0  0  0  0  0
   -0.6124   -1.4415    0.5610 C   0  0  0  0  0  0  0  0  0  0  0  0
   -4.0822    3.4947   -0.1322 H   0  0  0  0  0  0  0  0  0  0  0  0
    0.5251    2.1561   -0.4254 H   0  0  0  0  0  0  0  0  0  0  0  0
    4.2207   -0.0643   -0.9881 H   0  0  0  0  0  0  0  0  0  0  0  0
    3.0451   -1.3469   -1.3746 H   0  0  0  0  0  0  0  0  0  0  0  0
    3.4982   -1.0250    0.3273 H   0  0  0  0  0  0  0  0  0  0  0  0
    1.3947   -2.0201    0.1334 H   0  0  0  0  0  0  0  0  0  0  0  0
   -0.9469   -2.4374    0.8416 H   0  0  0  0  0  0  0  0  0  0  0  0
   -6.0084    2.6922    0.3756 S   0  0  0  0  0  0  0  0  0  0  0  0
   -5.8017    2.4469    2.2126 C   0  0  0  0  0  0  0  0  0  0  0  0
   -7.3246    3.2563    0.1604 O   0  0  0  0  0  0  0  0  0  0  0  0
   -5.5387    1.4751   -0.2706 O   0  0  0  0  0  0  0  0  0  0  0  0
   -4.9316    3.8826    0.1447 O   0  0  0  0  0  0  0  0  0  0  0  0
   -6.0792    3.5751    2.8581 F   0  0  0  0  0  0  0  0  0  0  0  0
   -6.6357    1.4851    2.6038 F   0  0  0  0  0  0  0  0  0  0  0  0
   -4.5436    2.0792    2.4701 F   0  0  0  0  0  0  0  0  0  0  0  0
  1  2  1  0  0  0  0
  2  3  1  0  0  0  0
  4  1  2  0  0  0  0
  5  4  1  0  0  0  0
  6  5  2  0  0  0  0
  6  9  1  0  0  0  0
  7  6  1  0  0  0  0
  8  7  1  0  0  0  0
  8 15  1  0  0  0  0
  9 10  2  0  0  0  0
 10  1  1  0  0  0  0
 10 17  1  0  0  0  0
 11 22  1  0  0  0  0
 12  5  1  0  0  0  0
 13  8  1  0  0  0  0
 14  8  1  0  0  0  0
 16  9  1  0  0  0  0
 18 19  1  0  0  0  0
 19 25  1  0  0  0  0
 19 24  1  0  0  0  0
 19 23  1  0  0  0  0
 20 18  2  0  0  0  0
 21 18  2  0  0  0  0
 22 18  1  0  0  0  0
M  RAD  3   2   2   3   3   4   2
M  END
