Coordinates from ORCA-job 4-MeOPhN2+~TfO-_B3LYPG-6-31G_dp-CH-Scan-d09-49-n800
 OpenBabel11261919093D

 25 24  0  0  0  0  0  0  0  0999 V2000
   -1.8132   -0.3262    0.7500 C   0  0  0  0  0  0  0  0  0  0  0  0
   -3.0467   -0.6912    1.2207 N   0  0  0  0  0  0  0  0  0  0  0  0
   -4.0616   -0.9593    1.6053 N   0  0  0  0  0  0  0  0  0  0  0  0
   -1.6068    1.0442    0.4550 C   0  0  0  0  0  0  0  0  0  0  0  0
   -0.3270    1.3261   -0.0075 C   0  0  0  0  0  0  0  0  0  0  0  0
    0.6631    0.3371   -0.1674 C   0  0  0  0  0  0  0  0  0  0  0  0
    1.8508    0.7648   -0.6277 O   0  0  0  0  0  0  0  0  0  0  0  0
    2.9141   -0.1667   -0.8308 C   0  0  0  0  0  0  0  0  0  0  0  0
    0.3919   -1.0202    0.1468 C   0  0  0  0  0  0  0  0  0  0  0  0
   -0.8578   -1.3618    0.6131 C   0  0  0  0  0  0  0  0  0  0  0  0
   -2.6938    2.0870    0.5720 H   0  0  0  0  0  0  0  0  0  0  0  0
   -0.0517    2.3438   -0.2713 H   0  0  0  0  0  0  0  0  0  0  0  0
    3.7503    0.4207   -1.2090 H   0  0  0  0  0  0  0  0  0  0  0  0
    2.6396   -0.9275   -1.5697 H   0  0  0  0  0  0  0  0  0  0  0  0
    3.2051   -0.6493    0.1091 H   0  0  0  0  0  0  0  0  0  0  0  0
    1.1458   -1.7872    0.0247 H   0  0  0  0  0  0  0  0  0  0  0  0
   -1.1013   -2.3895    0.8647 H   0  0  0  0  0  0  0  0  0  0  0  0
   -4.9558    2.4773    0.2960 S   0  0  0  0  0  0  0  0  0  0  0  0
   -5.7260    2.4406    1.9865 C   0  0  0  0  0  0  0  0  0  0  0  0
   -5.7073    3.4657   -0.4667 O   0  0  0  0  0  0  0  0  0  0  0  0
   -4.9572    1.0690   -0.1351 O   0  0  0  0  0  0  0  0  0  0  0  0
   -3.5309    2.9517    0.6461 O   0  0  0  0  0  0  0  0  0  0  0  0
   -5.6924    3.6445    2.5603 F   0  0  0  0  0  0  0  0  0  0  0  0
   -6.9955    2.0318    1.9018 F   0  0  0  0  0  0  0  0  0  0  0  0
   -5.0513    1.5733    2.7703 F   0  0  0  0  0  0  0  0  0  0  0  0
  1  2  1  0  0  0  0
  2  3  1  0  0  0  0
  4  1  2  0  0  0  0
  5  4  1  0  0  0  0
  6  5  2  0  0  0  0
  6  9  1  0  0  0  0
  7  6  1  0  0  0  0
  8  7  1  0  0  0  0
  8 15  1  0  0  0  0
  9 10  2  0  0  0  0
 10  1  1  0  0  0  0
 10 17  1  0  0  0  0
 11 22  1  0  0  0  0
 12  5  1  0  0  0  0
 13  8  1  0  0  0  0
 14  8  1  0  0  0  0
 16  9  1  0  0  0  0
 18 22  1  0  0  0  0
 18 19  1  0  0  0  0
 19 23  1  0  0  0  0
 19 25  1  0  0  0  0
 20 18  2  0  0  0  0
 21 18  2  0  0  0  0
 24 19  1  0  0  0  0
M  RAD  3   2   2   3   3   4   2
M  END
