Coordinates from ORCA-job 4-MeOPhN2+~TfO-_B3LYPG-6-31G_dp-CH-Scan-d09-49-n800
 OpenBabel11261919093D

 25 24  0  0  0  0  0  0  0  0999 V2000
   -1.6363   -0.3951    0.4720 C   0  0  0  0  0  0  0  0  0  0  0  0
   -2.9278   -0.7054    0.8265 N   0  0  0  0  0  0  0  0  0  0  0  0
   -3.9925   -0.9106    1.1136 N   0  0  0  0  0  0  0  0  0  0  0  0
   -1.4338    0.9585    0.1054 C   0  0  0  0  0  0  0  0  0  0  0  0
   -0.0870    1.1771   -0.2292 C   0  0  0  0  0  0  0  0  0  0  0  0
    0.9045    0.1827   -0.1983 C   0  0  0  0  0  0  0  0  0  0  0  0
    2.1515    0.5704   -0.5502 O   0  0  0  0  0  0  0  0  0  0  0  0
    3.2172   -0.3736   -0.5413 C   0  0  0  0  0  0  0  0  0  0  0  0
    0.5969   -1.1541    0.1854 C   0  0  0  0  0  0  0  0  0  0  0  0
   -0.6980   -1.4604    0.5299 C   0  0  0  0  0  0  0  0  0  0  0  0
   -3.7313    3.0341   -0.0944 H   0  0  0  0  0  0  0  0  0  0  0  0
    0.2509    2.1663   -0.5379 H   0  0  0  0  0  0  0  0  0  0  0  0
    4.1041    0.1774   -0.8558 H   0  0  0  0  0  0  0  0  0  0  0  0
    3.0345   -1.1946   -1.2445 H   0  0  0  0  0  0  0  0  0  0  0  0
    3.3849   -0.7824    0.4623 H   0  0  0  0  0  0  0  0  0  0  0  0
    1.3582   -1.9233    0.2099 H   0  0  0  0  0  0  0  0  0  0  0  0
   -0.9804   -2.4660    0.8313 H   0  0  0  0  0  0  0  0  0  0  0  0
   -5.7875    2.6451    0.3964 S   0  0  0  0  0  0  0  0  0  0  0  0
   -5.6001    2.4910    2.2444 C   0  0  0  0  0  0  0  0  0  0  0  0
   -6.9793    3.4292    0.1465 O   0  0  0  0  0  0  0  0  0  0  0  0
   -5.5777    1.3123   -0.1528 O   0  0  0  0  0  0  0  0  0  0  0  0
   -4.5191    3.5886    0.0720 O   0  0  0  0  0  0  0  0  0  0  0  0
   -5.6266    3.6922    2.8130 F   0  0  0  0  0  0  0  0  0  0  0  0
   -6.6035    1.7492    2.7120 F   0  0  0  0  0  0  0  0  0  0  0  0
   -4.4375    1.8904    2.5209 F   0  0  0  0  0  0  0  0  0  0  0  0
  1 10  1  0  0  0  0
  1  2  1  0  0  0  0
  2  3  1  0  0  0  0
  4  1  2  0  0  0  0
  5  6  2  0  0  0  0
  5  4  1  0  0  0  0
  6  9  1  0  0  0  0
  7  8  1  0  0  0  0
  7  6  1  0  0  0  0
  8 15  1  0  0  0  0
  9 16  1  0  0  0  0
  9 10  2  0  0  0  0
 10 17  1  0  0  0  0
 11 22  1  0  0  0  0
 12  5  1  0  0  0  0
 13  8  1  0  0  0  0
 14  8  1  0  0  0  0
 18 19  1  0  0  0  0
 19 25  1  0  0  0  0
 19 24  1  0  0  0  0
 19 23  1  0  0  0  0
 20 18  2  0  0  0  0
 21 18  2  0  0  0  0
 22 18  1  0  0  0  0
M  RAD  3   2   2   3   3   4   2
M  END
