Coordinates from ORCA-job 4-MeOPhN2+~TfO-_B3LYPG-6-31G_dp-CH-Scan-d09-49-n800
 OpenBabel11261919093D

 25 24  0  0  0  0  0  0  0  0999 V2000
   -1.5409   -0.3304    0.5695 C   0  0  0  0  0  0  0  0  0  0  0  0
   -2.8313   -0.5877    0.9710 N   0  0  0  0  0  0  0  0  0  0  0  0
   -3.8925   -0.7426    1.3003 N   0  0  0  0  0  0  0  0  0  0  0  0
   -1.3016    1.0203    0.2165 C   0  0  0  0  0  0  0  0  0  0  0  0
    0.0407    1.1874   -0.1678 C   0  0  0  0  0  0  0  0  0  0  0  0
    0.9897    0.1528   -0.1931 C   0  0  0  0  0  0  0  0  0  0  0  0
    2.2375    0.4938   -0.5906 O   0  0  0  0  0  0  0  0  0  0  0  0
    3.2601   -0.4950   -0.6433 C   0  0  0  0  0  0  0  0  0  0  0  0
    0.6427   -1.1774    0.1821 C   0  0  0  0  0  0  0  0  0  0  0  0
   -0.6488   -1.4363    0.5745 C   0  0  0  0  0  0  0  0  0  0  0  0
   -3.8674    3.3088   -0.0477 H   0  0  0  0  0  0  0  0  0  0  0  0
    0.4085    2.1668   -0.4748 H   0  0  0  0  0  0  0  0  0  0  0  0
    4.1561    0.0226   -0.9872 H   0  0  0  0  0  0  0  0  0  0  0  0
    3.0119   -1.2946   -1.3513 H   0  0  0  0  0  0  0  0  0  0  0  0
    3.4529   -0.9291    0.3452 H   0  0  0  0  0  0  0  0  0  0  0  0
    1.3719   -1.9774    0.1632 H   0  0  0  0  0  0  0  0  0  0  0  0
   -0.9611   -2.4343    0.8721 H   0  0  0  0  0  0  0  0  0  0  0  0
   -5.8771    2.6711    0.3620 S   0  0  0  0  0  0  0  0  0  0  0  0
   -5.7565    2.4414    2.2084 C   0  0  0  0  0  0  0  0  0  0  0  0
   -7.1358    3.3334    0.0899 O   0  0  0  0  0  0  0  0  0  0  0  0
   -5.4883    1.4057   -0.2443 O   0  0  0  0  0  0  0  0  0  0  0  0
   -4.7046    3.7670    0.1521 O   0  0  0  0  0  0  0  0  0  0  0  0
   -5.9900    3.5926    2.8306 F   0  0  0  0  0  0  0  0  0  0  0  0
   -6.6597    1.5361    2.5803 F   0  0  0  0  0  0  0  0  0  0  0  0
   -4.5323    2.0039    2.5194 F   0  0  0  0  0  0  0  0  0  0  0  0
  1 10  1  0  0  0  0
  1  2  1  0  0  0  0
  2  3  1  0  0  0  0
  4  1  2  0  0  0  0
  5  4  1  0  0  0  0
  6  5  2  0  0  0  0
  6  9  1  0  0  0  0
  7  6  1  0  0  0  0
  8  7  1  0  0  0  0
  8 15  1  0  0  0  0
  9 10  2  0  0  0  0
 10 17  1  0  0  0  0
 11 22  1  0  0  0  0
 12  5  1  0  0  0  0
 13  8  1  0  0  0  0
 14  8  1  0  0  0  0
 16  9  1  0  0  0  0
 18 19  1  0  0  0  0
 19 25  1  0  0  0  0
 19 24  1  0  0  0  0
 19 23  1  0  0  0  0
 20 18  2  0  0  0  0
 21 18  2  0  0  0  0
 22 18  1  0  0  0  0
M  RAD  3   2   2   3   3   4   2
M  END
