Coordinates from ORCA-job 4-MeOPhN2+~TfO-_B3LYPG-6-31G_dp-CH-Scan-d09-49-n800
 OpenBabel11261919093D

 25 24  0  0  0  0  0  0  0  0999 V2000
   -2.0000   -0.2853    0.4779 C   0  0  0  0  0  0  0  0  0  0  0  0
   -3.3112   -0.6624    0.6630 N   0  0  0  0  0  0  0  0  0  0  0  0
   -4.3274   -1.1030    0.8427 N   0  0  0  0  0  0  0  0  0  0  0  0
   -1.5842    1.0267    0.7869 C   0  0  0  0  0  0  0  0  0  0  0  0
   -0.2503    1.3323    0.6148 C   0  0  0  0  0  0  0  0  0  0  0  0
    0.6600    0.3699    0.1279 C   0  0  0  0  0  0  0  0  0  0  0  0
    1.9263    0.7905   -0.0070 O   0  0  0  0  0  0  0  0  0  0  0  0
    2.9199   -0.1080   -0.5072 C   0  0  0  0  0  0  0  0  0  0  0  0
    0.2201   -0.9348   -0.1791 C   0  0  0  0  0  0  0  0  0  0  0  0
   -1.1118   -1.2659    0.0032 C   0  0  0  0  0  0  0  0  0  0  0  0
   -2.2330    1.6817    1.1045 H   0  0  0  0  0  0  0  0  0  0  0  0
    0.1214    2.3254    0.8395 H   0  0  0  0  0  0  0  0  0  0  0  0
    3.8475    0.4632   -0.5258 H   0  0  0  0  0  0  0  0  0  0  0  0
    2.6752   -0.4411   -1.5213 H   0  0  0  0  0  0  0  0  0  0  0  0
    3.0366   -0.9744    0.1527 H   0  0  0  0  0  0  0  0  0  0  0  0
    0.9057   -1.6834   -0.5537 H   0  0  0  0  0  0  0  0  0  0  0  0
   -1.4714   -2.2630   -0.2248 H   0  0  0  0  0  0  0  0  0  0  0  0
   -5.4462    1.8670    0.3731 S   0  0  0  0  0  0  0  0  0  0  0  0
   -5.0253    2.9589    1.8175 C   0  0  0  0  0  0  0  0  0  0  0  0
   -6.4257    2.6334   -0.3976 O   0  0  0  0  0  0  0  0  0  0  0  0
   -5.9446    0.6227    1.0313 O   0  0  0  0  0  0  0  0  0  0  0  0
   -4.1116    1.6637   -0.2641 O   0  0  0  0  0  0  0  0  0  0  0  0
   -4.5721    4.1508    1.4061 F   0  0  0  0  0  0  0  0  0  0  0  0
   -6.0756    3.1514    2.6195 F   0  0  0  0  0  0  0  0  0  0  0  0
   -4.0383    2.3826    2.5571 F   0  0  0  0  0  0  0  0  0  0  0  0
  1  2  1  0  0  0  0
  1  4  2  0  0  0  0
  2  3  1  0  0  0  0
  4 11  1  0  0  0  0
  5  4  1  0  0  0  0
  5 12  1  0  0  0  0
  6  5  2  0  0  0  0
  7  6  1  0  0  0  0
  8  7  1  0  0  0  0
  8 15  1  0  0  0  0
  9 10  2  0  0  0  0
  9  6  1  0  0  0  0
 10  1  1  0  0  0  0
 13  8  1  0  0  0  0
 14  8  1  0  0  0  0
 16  9  1  0  0  0  0
 17 10  1  0  0  0  0
 18 21  1  0  0  0  0
 18 19  1  0  0  0  0
 19 25  1  0  0  0  0
 19 24  1  0  0  0  0
 20 18  2  0  0  0  0
 22 18  2  0  0  0  0
 23 19  1  0  0  0  0
M  RAD  3   2   2   3   3  21   2
M  END
