Coordinates from ORCA-job 4-MeOPhN2+~TfO-_B3LYPG-6-31G_dp-CH-Scan-d09-49-n800
 OpenBabel11261919093D

 25 24  0  0  0  0  0  0  0  0999 V2000
   -1.5215   -0.3408    0.6619 C   0  0  0  0  0  0  0  0  0  0  0  0
   -2.8289   -0.5754    1.0292 N   0  0  0  0  0  0  0  0  0  0  0  0
   -3.9007   -0.6906    1.3417 N   0  0  0  0  0  0  0  0  0  0  0  0
   -1.2132    1.0351    0.5491 C   0  0  0  0  0  0  0  0  0  0  0  0
    0.1383    1.1912    0.1865 C   0  0  0  0  0  0  0  0  0  0  0  0
    1.0266    0.1260   -0.0277 C   0  0  0  0  0  0  0  0  0  0  0  0
    2.2935    0.4607   -0.3728 O   0  0  0  0  0  0  0  0  0  0  0  0
    3.2581   -0.5603   -0.5997 C   0  0  0  0  0  0  0  0  0  0  0  0
    0.6058   -1.2290    0.1123 C   0  0  0  0  0  0  0  0  0  0  0  0
   -0.6983   -1.4814    0.4665 C   0  0  0  0  0  0  0  0  0  0  0  0
   -4.5886    3.7709   -0.6203 H   0  0  0  0  0  0  0  0  0  0  0  0
    0.5626    2.1873    0.0523 H   0  0  0  0  0  0  0  0  0  0  0  0
    4.1846   -0.0435   -0.8523 H   0  0  0  0  0  0  0  0  0  0  0  0
    2.9698   -1.2109   -1.4342 H   0  0  0  0  0  0  0  0  0  0  0  0
    3.4196   -1.1703    0.2977 H   0  0  0  0  0  0  0  0  0  0  0  0
    1.2899   -2.0514   -0.0548 H   0  0  0  0  0  0  0  0  0  0  0  0
   -1.0673   -2.4973    0.5875 H   0  0  0  0  0  0  0  0  0  0  0  0
   -6.0967    2.6111    0.3718 S   0  0  0  0  0  0  0  0  0  0  0  0
   -5.3698    2.4786    2.0854 C   0  0  0  0  0  0  0  0  0  0  0  0
   -7.5110    2.8843    0.5201 O   0  0  0  0  0  0  0  0  0  0  0  0
   -5.5674    1.5019   -0.4090 O   0  0  0  0  0  0  0  0  0  0  0  0
   -5.3892    3.9925   -0.1131 O   0  0  0  0  0  0  0  0  0  0  0  0
   -5.6941    3.5526    2.7992 F   0  0  0  0  0  0  0  0  0  0  0  0
   -5.8717    1.3854    2.6614 F   0  0  0  0  0  0  0  0  0  0  0  0
   -4.0461    2.3722    1.9984 F   0  0  0  0  0  0  0  0  0  0  0  0
  1  2  1  0  0  0  0
  2  3  1  0  0  0  0
  4  1  1  0  0  0  0
  5  4  2  0  0  0  0
  6  9  2  0  0  0  0
  6  5  1  0  0  0  0
  7  6  1  0  0  0  0
  8  7  1  0  0  0  0
  8 15  1  0  0  0  0
  9 10  1  0  0  0  0
 10 17  1  0  0  0  0
 10  1  2  0  0  0  0
 11 22  1  0  0  0  0
 12  5  1  0  0  0  0
 13  8  1  0  0  0  0
 14  8  1  0  0  0  0
 16  9  1  0  0  0  0
 18 20  2  0  0  0  0
 18 19  1  0  0  0  0
 19 24  1  0  0  0  0
 19 23  1  0  0  0  0
 21 18  2  0  0  0  0
 22 18  1  0  0  0  0
 25 19  1  0  0  0  0
M  RAD  3   2   2   3   3   4   2
M  END
