Coordinates from ORCA-job 4-MeOPhN2+~TfO-_B3LYPG-6-31G_dp-CH-Scan-d09-49-n800
 OpenBabel11261919093D

 25 24  0  0  0  0  0  0  0  0999 V2000
   -1.6808   -0.4083    0.4755 C   0  0  0  0  0  0  0  0  0  0  0  0
   -2.9659   -0.7401    0.8308 N   0  0  0  0  0  0  0  0  0  0  0  0
   -4.0246   -0.9658    1.1233 N   0  0  0  0  0  0  0  0  0  0  0  0
   -1.4910    0.9503    0.1195 C   0  0  0  0  0  0  0  0  0  0  0  0
   -0.1489    1.1893   -0.2150 C   0  0  0  0  0  0  0  0  0  0  0  0
    0.8549    0.2066   -0.1928 C   0  0  0  0  0  0  0  0  0  0  0  0
    2.0960    0.6129   -0.5414 O   0  0  0  0  0  0  0  0  0  0  0  0
    3.1743   -0.3174   -0.5400 C   0  0  0  0  0  0  0  0  0  0  0  0
    0.5629   -1.1365    0.1792 C   0  0  0  0  0  0  0  0  0  0  0  0
   -0.7279   -1.4609    0.5225 C   0  0  0  0  0  0  0  0  0  0  0  0
   -3.5968    2.8743   -0.0495 H   0  0  0  0  0  0  0  0  0  0  0  0
    0.1756    2.1851   -0.5157 H   0  0  0  0  0  0  0  0  0  0  0  0
    4.0540    0.2482   -0.8482 H   0  0  0  0  0  0  0  0  0  0  0  0
    3.0026   -1.1339   -1.2511 H   0  0  0  0  0  0  0  0  0  0  0  0
    3.3459   -0.7331    0.4601 H   0  0  0  0  0  0  0  0  0  0  0  0
    1.3329   -1.8972    0.1960 H   0  0  0  0  0  0  0  0  0  0  0  0
   -0.9978   -2.4725    0.8150 H   0  0  0  0  0  0  0  0  0  0  0  0
   -5.6891    2.6164    0.3806 S   0  0  0  0  0  0  0  0  0  0  0  0
   -5.5604    2.5016    2.2360 C   0  0  0  0  0  0  0  0  0  0  0  0
   -6.8291    3.4579    0.0789 O   0  0  0  0  0  0  0  0  0  0  0  0
   -5.5478    1.2568   -0.1242 O   0  0  0  0  0  0  0  0  0  0  0  0
   -4.3642    3.4745    0.0661 O   0  0  0  0  0  0  0  0  0  0  0  0
   -5.5271    3.7168    2.7741 F   0  0  0  0  0  0  0  0  0  0  0  0
   -6.6191    1.8356    2.6964 F   0  0  0  0  0  0  0  0  0  0  0  0
   -4.4443    1.8383    2.5609 F   0  0  0  0  0  0  0  0  0  0  0  0
  1 10  1  0  0  0  0
  1  2  1  0  0  0  0
  2  3  1  0  0  0  0
  4  1  2  0  0  0  0
  5  6  2  0  0  0  0
  5  4  1  0  0  0  0
  6  9  1  0  0  0  0
  7  8  1  0  0  0  0
  7  6  1  0  0  0  0
  8 15  1  0  0  0  0
  9 16  1  0  0  0  0
  9 10  2  0  0  0  0
 10 17  1  0  0  0  0
 11 22  1  0  0  0  0
 12  5  1  0  0  0  0
 13  8  1  0  0  0  0
 14  8  1  0  0  0  0
 18 19  1  0  0  0  0
 19 25  1  0  0  0  0
 19 24  1  0  0  0  0
 19 23  1  0  0  0  0
 20 18  2  0  0  0  0
 21 18  2  0  0  0  0
 22 18  1  0  0  0  0
M  RAD  3   2   2   3   3   4   2
M  END
