Coordinates from ORCA-job 4-MeOPhN2+~TfO-_B3LYPG-6-31G_dp-CH-Scan-d09-49-n800
 OpenBabel11261919093D

 25 24  0  0  0  0  0  0  0  0999 V2000
   -1.6416   -0.3964    0.4716 C   0  0  0  0  0  0  0  0  0  0  0  0
   -2.9328   -0.7093    0.8248 N   0  0  0  0  0  0  0  0  0  0  0  0
   -3.9964   -0.9164    1.1141 N   0  0  0  0  0  0  0  0  0  0  0  0
   -1.4401    0.9580    0.1073 C   0  0  0  0  0  0  0  0  0  0  0  0
   -0.0937    1.1787   -0.2270 C   0  0  0  0  0  0  0  0  0  0  0  0
    0.8990    0.1854   -0.1971 C   0  0  0  0  0  0  0  0  0  0  0  0
    2.1455    0.5752   -0.5480 O   0  0  0  0  0  0  0  0  0  0  0  0
    3.2125   -0.3674   -0.5398 C   0  0  0  0  0  0  0  0  0  0  0  0
    0.5928   -1.1522    0.1846 C   0  0  0  0  0  0  0  0  0  0  0  0
   -0.7018   -1.4605    0.5285 C   0  0  0  0  0  0  0  0  0  0  0  0
   -3.7190    3.0167   -0.0944 H   0  0  0  0  0  0  0  0  0  0  0  0
    0.2430    2.1688   -0.5342 H   0  0  0  0  0  0  0  0  0  0  0  0
    4.0988    0.1852   -0.8530 H   0  0  0  0  0  0  0  0  0  0  0  0
    3.0313   -1.1876   -1.2442 H   0  0  0  0  0  0  0  0  0  0  0  0
    3.3802   -0.7773    0.4634 H   0  0  0  0  0  0  0  0  0  0  0  0
    1.3549   -1.9206    0.2082 H   0  0  0  0  0  0  0  0  0  0  0  0
   -0.9831   -2.4669    0.8281 H   0  0  0  0  0  0  0  0  0  0  0  0
   -5.7783    2.6417    0.3951 S   0  0  0  0  0  0  0  0  0  0  0  0
   -5.5929    2.4920    2.2436 C   0  0  0  0  0  0  0  0  0  0  0  0
   -6.9653    3.4321    0.1423 O   0  0  0  0  0  0  0  0  0  0  0  0
   -5.5768    1.3057   -0.1496 O   0  0  0  0  0  0  0  0  0  0  0  0
   -4.5043    3.5762    0.0683 O   0  0  0  0  0  0  0  0  0  0  0  0
   -5.6128    3.6949    2.8089 F   0  0  0  0  0  0  0  0  0  0  0  0
   -6.6008    1.7574    2.7129 F   0  0  0  0  0  0  0  0  0  0  0  0
   -4.4339    1.8854    2.5227 F   0  0  0  0  0  0  0  0  0  0  0  0
  1 10  1  0  0  0  0
  1  2  1  0  0  0  0
  2  3  1  0  0  0  0
  4  1  2  0  0  0  0
  5  6  2  0  0  0  0
  5  4  1  0  0  0  0
  6  9  1  0  0  0  0
  7  8  1  0  0  0  0
  7  6  1  0  0  0  0
  8 15  1  0  0  0  0
  9 16  1  0  0  0  0
  9 10  2  0  0  0  0
 10 17  1  0  0  0  0
 11 22  1  0  0  0  0
 12  5  1  0  0  0  0
 13  8  1  0  0  0  0
 14  8  1  0  0  0  0
 18 19  1  0  0  0  0
 19 25  1  0  0  0  0
 19 24  1  0  0  0  0
 19 23  1  0  0  0  0
 20 18  2  0  0  0  0
 21 18  2  0  0  0  0
 22 18  1  0  0  0  0
M  RAD  3   2   2   3   3   4   2
M  END
