Coordinates from ORCA-job 4-MeOPhN2+~TfO-_B3LYPG-6-31G_dp-CH-Scan-d09-49-n800
 OpenBabel11261919093D

 25 24  0  0  0  0  0  0  0  0999 V2000
   -1.6375   -0.3956    0.4719 C   0  0  0  0  0  0  0  0  0  0  0  0
   -2.9291   -0.7066    0.8255 N   0  0  0  0  0  0  0  0  0  0  0  0
   -3.9933   -0.9118    1.1141 N   0  0  0  0  0  0  0  0  0  0  0  0
   -1.4352    0.9584    0.1066 C   0  0  0  0  0  0  0  0  0  0  0  0
   -0.0885    1.1775   -0.2280 C   0  0  0  0  0  0  0  0  0  0  0  0
    0.9032    0.1833   -0.1977 C   0  0  0  0  0  0  0  0  0  0  0  0
    2.1501    0.5716   -0.5492 O   0  0  0  0  0  0  0  0  0  0  0  0
    3.2162   -0.3721   -0.5407 C   0  0  0  0  0  0  0  0  0  0  0  0
    0.5959   -1.1538    0.1850 C   0  0  0  0  0  0  0  0  0  0  0  0
   -0.6989   -1.4607    0.5293 C   0  0  0  0  0  0  0  0  0  0  0  0
   -3.7294    3.0300   -0.0960 H   0  0  0  0  0  0  0  0  0  0  0  0
    0.2492    2.1670   -0.5360 H   0  0  0  0  0  0  0  0  0  0  0  0
    4.1029    0.1794   -0.8546 H   0  0  0  0  0  0  0  0  0  0  0  0
    3.0338   -1.1927   -1.2445 H   0  0  0  0  0  0  0  0  0  0  0  0
    3.3838   -0.7814    0.4627 H   0  0  0  0  0  0  0  0  0  0  0  0
    1.3573   -1.9229    0.2090 H   0  0  0  0  0  0  0  0  0  0  0  0
   -0.9812   -2.4666    0.8297 H   0  0  0  0  0  0  0  0  0  0  0  0
   -5.7859    2.6442    0.3961 S   0  0  0  0  0  0  0  0  0  0  0  0
   -5.5977    2.4915    2.2442 C   0  0  0  0  0  0  0  0  0  0  0  0
   -6.9768    3.4296    0.1462 O   0  0  0  0  0  0  0  0  0  0  0  0
   -5.5782    1.3106   -0.1519 O   0  0  0  0  0  0  0  0  0  0  0  0
   -4.5165    3.5857    0.0702 O   0  0  0  0  0  0  0  0  0  0  0  0
   -5.6225    3.6931    2.8119 F   0  0  0  0  0  0  0  0  0  0  0  0
   -6.6018    1.7513    2.7129 F   0  0  0  0  0  0  0  0  0  0  0  0
   -4.4357    1.8897    2.5205 F   0  0  0  0  0  0  0  0  0  0  0  0
  1 10  1  0  0  0  0
  1  2  1  0  0  0  0
  2  3  1  0  0  0  0
  4  1  2  0  0  0  0
  5  6  2  0  0  0  0
  5  4  1  0  0  0  0
  6  9  1  0  0  0  0
  7  8  1  0  0  0  0
  7  6  1  0  0  0  0
  8 15  1  0  0  0  0
  9 16  1  0  0  0  0
  9 10  2  0  0  0  0
 10 17  1  0  0  0  0
 11 22  1  0  0  0  0
 12  5  1  0  0  0  0
 13  8  1  0  0  0  0
 14  8  1  0  0  0  0
 18 19  1  0  0  0  0
 19 25  1  0  0  0  0
 19 24  1  0  0  0  0
 19 23  1  0  0  0  0
 20 18  2  0  0  0  0
 21 18  2  0  0  0  0
 22 18  1  0  0  0  0
M  RAD  3   2   2   3   3   4   2
M  END
