Coordinates from ORCA-job 4-MeOPhN2+~TfO-_B3LYPG-6-31G_dp-CH-Scan-d09-49-n800
 OpenBabel11261919093D

 25 24  0  0  0  0  0  0  0  0999 V2000
   -1.6650   -0.4055    0.4712 C   0  0  0  0  0  0  0  0  0  0  0  0
   -2.9527   -0.7305    0.8243 N   0  0  0  0  0  0  0  0  0  0  0  0
   -4.0136   -0.9495    1.1144 N   0  0  0  0  0  0  0  0  0  0  0  0
   -1.4707    0.9517    0.1130 C   0  0  0  0  0  0  0  0  0  0  0  0
   -0.1267    1.1842   -0.2199 C   0  0  0  0  0  0  0  0  0  0  0  0
    0.8731    0.1977   -0.1943 C   0  0  0  0  0  0  0  0  0  0  0  0
    2.1166    0.5982   -0.5422 O   0  0  0  0  0  0  0  0  0  0  0  0
    3.1908   -0.3365   -0.5375 C   0  0  0  0  0  0  0  0  0  0  0  0
    0.5756   -1.1437    0.1802 C   0  0  0  0  0  0  0  0  0  0  0  0
   -0.7169   -1.4624    0.5223 C   0  0  0  0  0  0  0  0  0  0  0  0
   -3.6484    2.9296   -0.0712 H   0  0  0  0  0  0  0  0  0  0  0  0
    0.2026    2.1782   -0.5221 H   0  0  0  0  0  0  0  0  0  0  0  0
    4.0733    0.2247   -0.8462 H   0  0  0  0  0  0  0  0  0  0  0  0
    3.0166   -1.1540   -1.2469 H   0  0  0  0  0  0  0  0  0  0  0  0
    3.3598   -0.7507    0.4636 H   0  0  0  0  0  0  0  0  0  0  0  0
    1.3428   -1.9072    0.1999 H   0  0  0  0  0  0  0  0  0  0  0  0
   -0.9913   -2.4723    0.8165 H   0  0  0  0  0  0  0  0  0  0  0  0
   -5.7277    2.6263    0.3881 S   0  0  0  0  0  0  0  0  0  0  0  0
   -5.5724    2.5014    2.2411 C   0  0  0  0  0  0  0  0  0  0  0  0
   -6.8871    3.4476    0.1066 O   0  0  0  0  0  0  0  0  0  0  0  0
   -5.5636    1.2744   -0.1298 O   0  0  0  0  0  0  0  0  0  0  0  0
   -4.4230    3.5141    0.0632 O   0  0  0  0  0  0  0  0  0  0  0  0
   -5.5576    3.7134    2.7869 F   0  0  0  0  0  0  0  0  0  0  0  0
   -6.6114    1.8103    2.7094 F   0  0  0  0  0  0  0  0  0  0  0  0
   -4.4390    1.8593    2.5465 F   0  0  0  0  0  0  0  0  0  0  0  0
  1 10  1  0  0  0  0
  1  2  1  0  0  0  0
  2  3  1  0  0  0  0
  4  1  2  0  0  0  0
  5  6  2  0  0  0  0
  5  4  1  0  0  0  0
  6  9  1  0  0  0  0
  7  8  1  0  0  0  0
  7  6  1  0  0  0  0
  8 15  1  0  0  0  0
  9 16  1  0  0  0  0
  9 10  2  0  0  0  0
 10 17  1  0  0  0  0
 11 22  1  0  0  0  0
 12  5  1  0  0  0  0
 13  8  1  0  0  0  0
 14  8  1  0  0  0  0
 18 19  1  0  0  0  0
 19 25  1  0  0  0  0
 19 24  1  0  0  0  0
 19 23  1  0  0  0  0
 20 18  2  0  0  0  0
 21 18  2  0  0  0  0
 22 18  1  0  0  0  0
M  RAD  3   2   2   3   3   4   2
M  END
