Coordinates from ORCA-job 4-MeOPhN2+~TfO-_B3LYPG-6-31G_dp-CH-Scan-d09-49-n800
 OpenBabel11261919093D

 25 24  0  0  0  0  0  0  0  0999 V2000
   -1.7260   -0.4093    0.5147 C   0  0  0  0  0  0  0  0  0  0  0  0
   -3.0003   -0.7610    0.8853 N   0  0  0  0  0  0  0  0  0  0  0  0
   -4.0501   -1.0099    1.1888 N   0  0  0  0  0  0  0  0  0  0  0  0
   -1.5488    0.9543    0.1687 C   0  0  0  0  0  0  0  0  0  0  0  0
   -0.2168    1.2118   -0.1846 C   0  0  0  0  0  0  0  0  0  0  0  0
    0.7965    0.2380   -0.1888 C   0  0  0  0  0  0  0  0  0  0  0  0
    2.0266    0.6598   -0.5531 O   0  0  0  0  0  0  0  0  0  0  0  0
    3.1142   -0.2600   -0.5795 C   0  0  0  0  0  0  0  0  0  0  0  0
    0.5221   -1.1105    0.1744 C   0  0  0  0  0  0  0  0  0  0  0  0
   -0.7603   -1.4503    0.5348 C   0  0  0  0  0  0  0  0  0  0  0  0
   -3.3938    2.6720    0.0923 H   0  0  0  0  0  0  0  0  0  0  0  0
    0.0915    2.2139   -0.4799 H   0  0  0  0  0  0  0  0  0  0  0  0
    3.9825    0.3177   -0.8974 H   0  0  0  0  0  0  0  0  0  0  0  0
    2.9376   -1.0709   -1.2956 H   0  0  0  0  0  0  0  0  0  0  0  0
    3.3068   -0.6830    0.4135 H   0  0  0  0  0  0  0  0  0  0  0  0
    1.2987   -1.8646    0.1714 H   0  0  0  0  0  0  0  0  0  0  0  0
   -1.0156   -2.4672    0.8212 H   0  0  0  0  0  0  0  0  0  0  0  0
   -5.5321    2.5802    0.3452 S   0  0  0  0  0  0  0  0  0  0  0  0
   -5.5625    2.5037    2.2058 C   0  0  0  0  0  0  0  0  0  0  0  0
   -6.5862    3.4867   -0.0641 O   0  0  0  0  0  0  0  0  0  0  0  0
   -5.4579    1.1975   -0.1123 O   0  0  0  0  0  0  0  0  0  0  0  0
   -4.1334    3.3283    0.1232 O   0  0  0  0  0  0  0  0  0  0  0  0
   -5.4926    3.7264    2.7244 F   0  0  0  0  0  0  0  0  0  0  0  0
   -6.6951    1.9171    2.5938 F   0  0  0  0  0  0  0  0  0  0  0  0
   -4.5208    1.7784    2.6349 F   0  0  0  0  0  0  0  0  0  0  0  0
  1 10  1  0  0  0  0
  1  2  1  0  0  0  0
  2  3  1  0  0  0  0
  4  1  2  0  0  0  0
  5  4  1  0  0  0  0
  6  5  2  0  0  0  0
  6  9  1  0  0  0  0
  7  6  1  0  0  0  0
  8  7  1  0  0  0  0
  8 15  1  0  0  0  0
  9 10  2  0  0  0  0
 10 17  1  0  0  0  0
 11 22  1  0  0  0  0
 12  5  1  0  0  0  0
 13  8  1  0  0  0  0
 14  8  1  0  0  0  0
 16  9  1  0  0  0  0
 18 19  1  0  0  0  0
 19 24  1  0  0  0  0
 19 25  1  0  0  0  0
 19 23  1  0  0  0  0
 20 18  2  0  0  0  0
 21 18  2  0  0  0  0
 22 18  1  0  0  0  0
M  RAD  3   2   2   3   3   4   2
M  END
