Coordinates from ORCA-job 4-MeOPhN2+~TfO-_B3LYPG-6-31G_dp-CH-Scan-d09-49-n800
 OpenBabel11261919093D

 25 24  0  0  0  0  0  0  0  0999 V2000
   -1.6455   -0.3978    0.4721 C   0  0  0  0  0  0  0  0  0  0  0  0
   -2.9362   -0.7121    0.8256 N   0  0  0  0  0  0  0  0  0  0  0  0
   -3.9998   -0.9202    1.1141 N   0  0  0  0  0  0  0  0  0  0  0  0
   -1.4454    0.9569    0.1078 C   0  0  0  0  0  0  0  0  0  0  0  0
   -0.0994    1.1794   -0.2264 C   0  0  0  0  0  0  0  0  0  0  0  0
    0.8945    0.1873   -0.1967 C   0  0  0  0  0  0  0  0  0  0  0  0
    2.1406    0.5787   -0.5475 O   0  0  0  0  0  0  0  0  0  0  0  0
    3.2088   -0.3626   -0.5394 C   0  0  0  0  0  0  0  0  0  0  0  0
    0.5899   -1.1507    0.1847 C   0  0  0  0  0  0  0  0  0  0  0  0
   -0.7043   -1.4606    0.5285 C   0  0  0  0  0  0  0  0  0  0  0  0
   -3.7083    3.0037   -0.0913 H   0  0  0  0  0  0  0  0  0  0  0  0
    0.2361    2.1700   -0.5334 H   0  0  0  0  0  0  0  0  0  0  0  0
    4.0944    0.1912   -0.8524 H   0  0  0  0  0  0  0  0  0  0  0  0
    3.0286   -1.1828   -1.2442 H   0  0  0  0  0  0  0  0  0  0  0  0
    3.3768   -0.7726    0.4636 H   0  0  0  0  0  0  0  0  0  0  0  0
    1.3529   -1.9182    0.2081 H   0  0  0  0  0  0  0  0  0  0  0  0
   -0.9845   -2.4674    0.8279 H   0  0  0  0  0  0  0  0  0  0  0  0
   -5.7702    2.6402    0.3937 S   0  0  0  0  0  0  0  0  0  0  0  0
   -5.5886    2.4921    2.2427 C   0  0  0  0  0  0  0  0  0  0  0  0
   -6.9534    3.4354    0.1382 O   0  0  0  0  0  0  0  0  0  0  0  0
   -5.5741    1.3025   -0.1488 O   0  0  0  0  0  0  0  0  0  0  0  0
   -4.4914    3.5678    0.0677 O   0  0  0  0  0  0  0  0  0  0  0  0
   -5.6046    3.6956    2.8067 F   0  0  0  0  0  0  0  0  0  0  0  0
   -6.6003    1.7621    2.7113 F   0  0  0  0  0  0  0  0  0  0  0  0
   -4.4325    1.8811    2.5244 F   0  0  0  0  0  0  0  0  0  0  0  0
  1 10  1  0  0  0  0
  1  2  1  0  0  0  0
  2  3  1  0  0  0  0
  4  1  2  0  0  0  0
  5  6  2  0  0  0  0
  5  4  1  0  0  0  0
  6  9  1  0  0  0  0
  7  8  1  0  0  0  0
  7  6  1  0  0  0  0
  8 15  1  0  0  0  0
  9 16  1  0  0  0  0
  9 10  2  0  0  0  0
 10 17  1  0  0  0  0
 11 22  1  0  0  0  0
 12  5  1  0  0  0  0
 13  8  1  0  0  0  0
 14  8  1  0  0  0  0
 18 19  1  0  0  0  0
 19 25  1  0  0  0  0
 19 24  1  0  0  0  0
 19 23  1  0  0  0  0
 20 18  2  0  0  0  0
 21 18  2  0  0  0  0
 22 18  1  0  0  0  0
M  RAD  3   2   2   3   3   4   2
M  END
