Coordinates from ORCA-job 4-MeOPhN2+~TfO-_B3LYPG-6-31G_dp-CH-Scan-d09-49-n800
 OpenBabel11261919093D

 25 24  0  0  0  0  0  0  0  0999 V2000
   -1.6864   -0.4092    0.4782 C   0  0  0  0  0  0  0  0  0  0  0  0
   -2.9702   -0.7431    0.8355 N   0  0  0  0  0  0  0  0  0  0  0  0
   -4.0286   -0.9712    1.1273 N   0  0  0  0  0  0  0  0  0  0  0  0
   -1.4985    0.9496    0.1215 C   0  0  0  0  0  0  0  0  0  0  0  0
   -0.1573    1.1909   -0.2140 C   0  0  0  0  0  0  0  0  0  0  0  0
    0.8480    0.2097   -0.1928 C   0  0  0  0  0  0  0  0  0  0  0  0
    2.0881    0.6181   -0.5425 O   0  0  0  0  0  0  0  0  0  0  0  0
    3.1679   -0.3105   -0.5423 C   0  0  0  0  0  0  0  0  0  0  0  0
    0.5584   -1.1338    0.1792 C   0  0  0  0  0  0  0  0  0  0  0  0
   -0.7316   -1.4602    0.5237 C   0  0  0  0  0  0  0  0  0  0  0  0
   -3.5753    2.8543   -0.0369 H   0  0  0  0  0  0  0  0  0  0  0  0
    0.1652    2.1873   -0.5150 H   0  0  0  0  0  0  0  0  0  0  0  0
    4.0463    0.2567   -0.8512 H   0  0  0  0  0  0  0  0  0  0  0  0
    2.9968   -1.1271   -1.2535 H   0  0  0  0  0  0  0  0  0  0  0  0
    3.3410   -0.7261    0.4575 H   0  0  0  0  0  0  0  0  0  0  0  0
    1.3295   -1.8933    0.1953 H   0  0  0  0  0  0  0  0  0  0  0  0
   -0.9996   -2.4721    0.8165 H   0  0  0  0  0  0  0  0  0  0  0  0
   -5.6731    2.6132    0.3773 S   0  0  0  0  0  0  0  0  0  0  0  0
   -5.5582    2.5011    2.2337 C   0  0  0  0  0  0  0  0  0  0  0  0
   -6.8051    3.4622    0.0664 O   0  0  0  0  0  0  0  0  0  0  0  0
   -5.5392    1.2513   -0.1235 O   0  0  0  0  0  0  0  0  0  0  0  0
   -4.3401    3.4602    0.0705 O   0  0  0  0  0  0  0  0  0  0  0  0
   -5.5192    3.7170    2.7700 F   0  0  0  0  0  0  0  0  0  0  0  0
   -6.6251    1.8441    2.6884 F   0  0  0  0  0  0  0  0  0  0  0  0
   -4.4494    1.8299    2.5677 F   0  0  0  0  0  0  0  0  0  0  0  0
  1 10  1  0  0  0  0
  1  2  1  0  0  0  0
  2  3  1  0  0  0  0
  4  1  2  0  0  0  0
  5  6  2  0  0  0  0
  5  4  1  0  0  0  0
  6  9  1  0  0  0  0
  7  8  1  0  0  0  0
  7  6  1  0  0  0  0
  8 15  1  0  0  0  0
  9 16  1  0  0  0  0
  9 10  2  0  0  0  0
 10 17  1  0  0  0  0
 11 22  1  0  0  0  0
 12  5  1  0  0  0  0
 13  8  1  0  0  0  0
 14  8  1  0  0  0  0
 18 19  1  0  0  0  0
 19 25  1  0  0  0  0
 19 24  1  0  0  0  0
 19 23  1  0  0  0  0
 20 18  2  0  0  0  0
 21 18  2  0  0  0  0
 22 18  1  0  0  0  0
M  RAD  3   2   2   3   3   4   2
M  END
