Coordinates from ORCA-job 4-MeOPhN2+~TfO-_B3LYPG-6-31G_dp-CH-Scan-d09-49-n800
 OpenBabel11261919093D

 25 24  0  0  0  0  0  0  0  0999 V2000
   -1.4819   -0.3159    0.5771 C   0  0  0  0  0  0  0  0  0  0  0  0
   -2.7785   -0.5470    0.9782 N   0  0  0  0  0  0  0  0  0  0  0  0
   -3.8434   -0.6738    1.3084 N   0  0  0  0  0  0  0  0  0  0  0  0
   -1.2187    1.0352    0.2459 C   0  0  0  0  0  0  0  0  0  0  0  0
    0.1270    1.1801   -0.1389 C   0  0  0  0  0  0  0  0  0  0  0  0
    1.0539    0.1267   -0.1837 C   0  0  0  0  0  0  0  0  0  0  0  0
    2.3083    0.4481   -0.5792 O   0  0  0  0  0  0  0  0  0  0  0  0
    3.3092   -0.5609   -0.6515 C   0  0  0  0  0  0  0  0  0  0  0  0
    0.6806   -1.2025    0.1706 C   0  0  0  0  0  0  0  0  0  0  0  0
   -0.6150   -1.4415    0.5624 C   0  0  0  0  0  0  0  0  0  0  0  0
   -4.0630    3.4797   -0.1240 H   0  0  0  0  0  0  0  0  0  0  0  0
    0.5150    2.1566   -0.4309 H   0  0  0  0  0  0  0  0  0  0  0  0
    4.2155   -0.0568   -0.9885 H   0  0  0  0  0  0  0  0  0  0  0  0
    3.0428   -1.3429   -1.3725 H   0  0  0  0  0  0  0  0  0  0  0  0
    3.4950   -1.0164    0.3288 H   0  0  0  0  0  0  0  0  0  0  0  0
    1.3935   -2.0166    0.1365 H   0  0  0  0  0  0  0  0  0  0  0  0
   -0.9473   -2.4375    0.8448 H   0  0  0  0  0  0  0  0  0  0  0  0
   -5.9973    2.6908    0.3747 S   0  0  0  0  0  0  0  0  0  0  0  0
   -5.7995    2.4468    2.2128 C   0  0  0  0  0  0  0  0  0  0  0  0
   -7.3087    3.2634    0.1534 O   0  0  0  0  0  0  0  0  0  0  0  0
   -5.5335    1.4693   -0.2675 O   0  0  0  0  0  0  0  0  0  0  0  0
   -4.9118    3.8736    0.1462 O   0  0  0  0  0  0  0  0  0  0  0  0
   -6.0736    3.5773    2.8559 F   0  0  0  0  0  0  0  0  0  0  0  0
   -6.6401    1.4901    2.6019 F   0  0  0  0  0  0  0  0  0  0  0  0
   -4.5444    2.0728    2.4760 F   0  0  0  0  0  0  0  0  0  0  0  0
  1  2  1  0  0  0  0
  2  3  1  0  0  0  0
  4  1  2  0  0  0  0
  5  4  1  0  0  0  0
  6  5  2  0  0  0  0
  6  9  1  0  0  0  0
  7  6  1  0  0  0  0
  8  7  1  0  0  0  0
  8 15  1  0  0  0  0
  9 10  2  0  0  0  0
 10  1  1  0  0  0  0
 10 17  1  0  0  0  0
 11 22  1  0  0  0  0
 12  5  1  0  0  0  0
 13  8  1  0  0  0  0
 14  8  1  0  0  0  0
 16  9  1  0  0  0  0
 18 19  1  0  0  0  0
 19 25  1  0  0  0  0
 19 24  1  0  0  0  0
 19 23  1  0  0  0  0
 20 18  2  0  0  0  0
 21 18  2  0  0  0  0
 22 18  1  0  0  0  0
M  RAD  3   2   2   3   3   4   2
M  END
