Coordinates from ORCA-job 4-MeOPhN2+~TfO-_B3LYPG-6-31G_dp-CH-Scan-d09-49-n800
 OpenBabel11261919093D

 25 24  0  0  0  0  0  0  0  0999 V2000
   -1.8140   -0.4030    0.6128 C   0  0  0  0  0  0  0  0  0  0  0  0
   -3.0648   -0.7912    1.0193 N   0  0  0  0  0  0  0  0  0  0  0  0
   -4.0964   -1.0716    1.3523 N   0  0  0  0  0  0  0  0  0  0  0  0
   -1.6536    0.9712    0.2984 C   0  0  0  0  0  0  0  0  0  0  0  0
   -0.3444    1.2617   -0.0957 C   0  0  0  0  0  0  0  0  0  0  0  0
    0.6807    0.3011   -0.1686 C   0  0  0  0  0  0  0  0  0  0  0  0
    1.8865    0.7515   -0.5674 O   0  0  0  0  0  0  0  0  0  0  0  0
    2.9853   -0.1517   -0.6692 C   0  0  0  0  0  0  0  0  0  0  0  0
    0.4340   -1.0585    0.1645 C   0  0  0  0  0  0  0  0  0  0  0  0
   -0.8304   -1.4241    0.5634 C   0  0  0  0  0  0  0  0  0  0  0  0
   -3.0217    2.2842    0.3106 H   0  0  0  0  0  0  0  0  0  0  0  0
   -0.0668    2.2772   -0.3711 H   0  0  0  0  0  0  0  0  0  0  0  0
    3.8302    0.4488   -1.0065 H   0  0  0  0  0  0  0  0  0  0  0  0
    2.7866   -0.9423   -1.4016 H   0  0  0  0  0  0  0  0  0  0  0  0
    3.2257   -0.6003    0.3018 H   0  0  0  0  0  0  0  0  0  0  0  0
    1.2172   -1.8036    0.1091 H   0  0  0  0  0  0  0  0  0  0  0  0
   -1.0618   -2.4518    0.8288 H   0  0  0  0  0  0  0  0  0  0  0  0
   -5.2010    2.5114    0.2880 S   0  0  0  0  0  0  0  0  0  0  0  0
   -5.5524    2.4924    2.1144 C   0  0  0  0  0  0  0  0  0  0  0  0
   -6.0799    3.5091   -0.2955 O   0  0  0  0  0  0  0  0  0  0  0  0
   -5.2464    1.1098   -0.1292 O   0  0  0  0  0  0  0  0  0  0  0  0
   -3.7205    3.0536    0.2981 O   0  0  0  0  0  0  0  0  0  0  0  0
   -5.4133    3.7095    2.6366 F   0  0  0  0  0  0  0  0  0  0  0  0
   -6.7985    2.0614    2.3208 F   0  0  0  0  0  0  0  0  0  0  0  0
   -4.6961    1.6542    2.7229 F   0  0  0  0  0  0  0  0  0  0  0  0
  1  2  1  0  0  0  0
  2  3  1  0  0  0  0
  4  1  2  0  0  0  0
  5  4  1  0  0  0  0
  6  5  2  0  0  0  0
  6  9  1  0  0  0  0
  7  6  1  0  0  0  0
  8  7  1  0  0  0  0
  8 15  1  0  0  0  0
  9 10  2  0  0  0  0
 10  1  1  0  0  0  0
 10 17  1  0  0  0  0
 12  5  1  0  0  0  0
 13  8  1  0  0  0  0
 14  8  1  0  0  0  0
 16  9  1  0  0  0  0
 18 22  1  0  0  0  0
 18 19  1  0  0  0  0
 19 24  1  0  0  0  0
 19 23  1  0  0  0  0
 19 25  1  0  0  0  0
 20 18  2  0  0  0  0
 21 18  2  0  0  0  0
 22 11  1  0  0  0  0
M  RAD  3   2   2   3   3   4   2
M  END
