Coordinates from ORCA-job 4-MeOPhN2+~TfO-_B3LYPG-6-31G_dp-CH-Scan-d09-49-n800
 OpenBabel11261919093D

 25 24  0  0  0  0  0  0  0  0999 V2000
   -1.5322   -0.3289    0.5701 C   0  0  0  0  0  0  0  0  0  0  0  0
   -2.8235   -0.5827    0.9715 N   0  0  0  0  0  0  0  0  0  0  0  0
   -3.8853   -0.7339    1.3008 N   0  0  0  0  0  0  0  0  0  0  0  0
   -1.2898    1.0219    0.2200 C   0  0  0  0  0  0  0  0  0  0  0  0
    0.0530    1.1860   -0.1643 C   0  0  0  0  0  0  0  0  0  0  0  0
    0.9990    0.1488   -0.1921 C   0  0  0  0  0  0  0  0  0  0  0  0
    2.2478    0.4873   -0.5894 O   0  0  0  0  0  0  0  0  0  0  0  0
    3.2674   -0.5043   -0.6447 C   0  0  0  0  0  0  0  0  0  0  0  0
    0.6486   -1.1812    0.1804 C   0  0  0  0  0  0  0  0  0  0  0  0
   -0.6435   -1.4375    0.5726 C   0  0  0  0  0  0  0  0  0  0  0  0
   -3.8938    3.3339   -0.0571 H   0  0  0  0  0  0  0  0  0  0  0  0
    0.4235    2.1651   -0.4694 H   0  0  0  0  0  0  0  0  0  0  0  0
    4.1649    0.0115   -0.9877 H   0  0  0  0  0  0  0  0  0  0  0  0
    3.0168   -1.3016   -1.3544 H   0  0  0  0  0  0  0  0  0  0  0  0
    3.4594   -0.9412    0.3427 H   0  0  0  0  0  0  0  0  0  0  0  0
    1.3756   -1.9831    0.1595 H   0  0  0  0  0  0  0  0  0  0  0  0
   -0.9585   -2.4352    0.8683 H   0  0  0  0  0  0  0  0  0  0  0  0
   -5.8938    2.6738    0.3641 S   0  0  0  0  0  0  0  0  0  0  0  0
   -5.7645    2.4432    2.2098 C   0  0  0  0  0  0  0  0  0  0  0  0
   -7.1605    3.3229    0.0971 O   0  0  0  0  0  0  0  0  0  0  0  0
   -5.4927    1.4141   -0.2458 O   0  0  0  0  0  0  0  0  0  0  0  0
   -4.7335    3.7829    0.1519 O   0  0  0  0  0  0  0  0  0  0  0  0
   -6.0039    3.5921    2.8338 F   0  0  0  0  0  0  0  0  0  0  0  0
   -6.6600    1.5311    2.5840 F   0  0  0  0  0  0  0  0  0  0  0  0
   -4.5362    2.0140    2.5157 F   0  0  0  0  0  0  0  0  0  0  0  0
  1 10  1  0  0  0  0
  1  2  1  0  0  0  0
  2  3  1  0  0  0  0
  4  1  2  0  0  0  0
  5  4  1  0  0  0  0
  6  5  2  0  0  0  0
  6  9  1  0  0  0  0
  7  6  1  0  0  0  0
  8  7  1  0  0  0  0
  8 15  1  0  0  0  0
  9 10  2  0  0  0  0
 10 17  1  0  0  0  0
 11 22  1  0  0  0  0
 12  5  1  0  0  0  0
 13  8  1  0  0  0  0
 14  8  1  0  0  0  0
 16  9  1  0  0  0  0
 18 19  1  0  0  0  0
 19 25  1  0  0  0  0
 19 24  1  0  0  0  0
 19 23  1  0  0  0  0
 20 18  2  0  0  0  0
 21 18  2  0  0  0  0
 22 18  1  0  0  0  0
M  RAD  3   2   2   3   3   4   2
M  END
