Coordinates from ORCA-job 4-MeOPhN2+~TfO-_B3LYPG-6-31G_dp-CH-Scan-d09-49-n800
 OpenBabel11261919093D

 25 24  0  0  0  0  0  0  0  0999 V2000
   -1.5088   -0.3239    0.5726 C   0  0  0  0  0  0  0  0  0  0  0  0
   -2.8025   -0.5676    0.9737 N   0  0  0  0  0  0  0  0  0  0  0  0
   -3.8659   -0.7080    1.3032 N   0  0  0  0  0  0  0  0  0  0  0  0
   -1.2575    1.0270    0.2302 C   0  0  0  0  0  0  0  0  0  0  0  0
    0.0866    1.1825   -0.1543 C   0  0  0  0  0  0  0  0  0  0  0  0
    1.0244    0.1383   -0.1891 C   0  0  0  0  0  0  0  0  0  0  0  0
    2.2757    0.4692   -0.5857 O   0  0  0  0  0  0  0  0  0  0  0  0
    3.2872   -0.5301   -0.6482 C   0  0  0  0  0  0  0  0  0  0  0  0
    0.6641   -1.1913    0.1760 C   0  0  0  0  0  0  0  0  0  0  0  0
   -0.6295   -1.4400    0.5681 C   0  0  0  0  0  0  0  0  0  0  0  0
   -3.9689    3.4023   -0.0852 H   0  0  0  0  0  0  0  0  0  0  0  0
    0.4648    2.1605   -0.4541 H   0  0  0  0  0  0  0  0  0  0  0  0
    4.1885   -0.0195   -0.9889 H   0  0  0  0  0  0  0  0  0  0  0  0
    3.0296   -1.3210   -1.3625 H   0  0  0  0  0  0  0  0  0  0  0  0
    3.4767   -0.9747    0.3363 H   0  0  0  0  0  0  0  0  0  0  0  0
    1.3851   -1.9986    0.1498 H   0  0  0  0  0  0  0  0  0  0  0  0
   -0.9520   -2.4370    0.8584 H   0  0  0  0  0  0  0  0  0  0  0  0
   -5.9406    2.6820    0.3693 S   0  0  0  0  0  0  0  0  0  0  0  0
   -5.7835    2.4459    2.2123 C   0  0  0  0  0  0  0  0  0  0  0  0
   -7.2284    3.2958    0.1204 O   0  0  0  0  0  0  0  0  0  0  0  0
   -5.5085    1.4391   -0.2537 O   0  0  0  0  0  0  0  0  0  0  0  0
   -4.8140    3.8259    0.1508 O   0  0  0  0  0  0  0  0  0  0  0  0
   -6.0393    3.5872    2.8437 F   0  0  0  0  0  0  0  0  0  0  0  0
   -6.6556    1.5140    2.5926 F   0  0  0  0  0  0  0  0  0  0  0  0
   -4.5434    2.0410    2.5013 F   0  0  0  0  0  0  0  0  0  0  0  0
  1  2  1  0  0  0  0
  2  3  1  0  0  0  0
  4  1  2  0  0  0  0
  5  4  1  0  0  0  0
  6  5  2  0  0  0  0
  6  9  1  0  0  0  0
  7  6  1  0  0  0  0
  8  7  1  0  0  0  0
  8 15  1  0  0  0  0
  9 10  2  0  0  0  0
 10  1  1  0  0  0  0
 10 17  1  0  0  0  0
 11 22  1  0  0  0  0
 12  5  1  0  0  0  0
 13  8  1  0  0  0  0
 14  8  1  0  0  0  0
 16  9  1  0  0  0  0
 18 19  1  0  0  0  0
 19 25  1  0  0  0  0
 19 24  1  0  0  0  0
 19 23  1  0  0  0  0
 20 18  2  0  0  0  0
 21 18  2  0  0  0  0
 22 18  1  0  0  0  0
M  RAD  3   2   2   3   3   4   2
M  END
