Coordinates from ORCA-job 4-MeOPhN2+~TfO-_B3LYPG-6-31G_dp-CH-Scan-d09-49-n800
 OpenBabel11261919093D

 25 24  0  0  0  0  0  0  0  0999 V2000
   -1.4658   -0.3095    0.5810 C   0  0  0  0  0  0  0  0  0  0  0  0
   -2.7640   -0.5324    0.9822 N   0  0  0  0  0  0  0  0  0  0  0  0
   -3.8298   -0.6505    1.3133 N   0  0  0  0  0  0  0  0  0  0  0  0
   -1.1940    1.0419    0.2589 C   0  0  0  0  0  0  0  0  0  0  0  0
    0.1525    1.1797   -0.1262 C   0  0  0  0  0  0  0  0  0  0  0  0
    1.0718    0.1202   -0.1790 C   0  0  0  0  0  0  0  0  0  0  0  0
    2.3284    0.4353   -0.5733 O   0  0  0  0  0  0  0  0  0  0  0  0
    3.3219   -0.5804   -0.6531 C   0  0  0  0  0  0  0  0  0  0  0  0
    0.6894   -1.2089    0.1662 C   0  0  0  0  0  0  0  0  0  0  0  0
   -0.6075   -1.4414    0.5577 C   0  0  0  0  0  0  0  0  0  0  0  0
   -4.1246    3.5264   -0.1505 H   0  0  0  0  0  0  0  0  0  0  0  0
    0.5474    2.1554   -0.4119 H   0  0  0  0  0  0  0  0  0  0  0  0
    4.2318   -0.0805   -0.9867 H   0  0  0  0  0  0  0  0  0  0  0  0
    3.0497   -1.3552   -1.3797 H   0  0  0  0  0  0  0  0  0  0  0  0
    3.5045   -1.0444    0.3238 H   0  0  0  0  0  0  0  0  0  0  0  0
    1.3965   -2.0278    0.1258 H   0  0  0  0  0  0  0  0  0  0  0  0
   -0.9468   -2.4370    0.8335 H   0  0  0  0  0  0  0  0  0  0  0  0
   -6.0325    2.6943    0.3774 S   0  0  0  0  0  0  0  0  0  0  0  0
   -5.8055    2.4470    2.2118 C   0  0  0  0  0  0  0  0  0  0  0  0
   -7.3586    3.2396    0.1758 O   0  0  0  0  0  0  0  0  0  0  0  0
   -5.5501    1.4868   -0.2773 O   0  0  0  0  0  0  0  0  0  0  0  0
   -4.9748    3.9013    0.1406 O   0  0  0  0  0  0  0  0  0  0  0  0
   -6.0904    3.5704    2.8625 F   0  0  0  0  0  0  0  0  0  0  0  0
   -6.6246    1.4746    2.6081 F   0  0  0  0  0  0  0  0  0  0  0  0
   -4.5409    2.0937    2.4565 F   0  0  0  0  0  0  0  0  0  0  0  0
  1  2  1  0  0  0  0
  2  3  1  0  0  0  0
  4  1  2  0  0  0  0
  5  4  1  0  0  0  0
  6  5  2  0  0  0  0
  6  9  1  0  0  0  0
  7  6  1  0  0  0  0
  8  7  1  0  0  0  0
  8 15  1  0  0  0  0
  9 10  2  0  0  0  0
 10  1  1  0  0  0  0
 10 17  1  0  0  0  0
 11 22  1  0  0  0  0
 12  5  1  0  0  0  0
 13  8  1  0  0  0  0
 14  8  1  0  0  0  0
 16  9  1  0  0  0  0
 18 19  1  0  0  0  0
 19 25  1  0  0  0  0
 19 24  1  0  0  0  0
 19 23  1  0  0  0  0
 20 18  2  0  0  0  0
 21 18  2  0  0  0  0
 22 18  1  0  0  0  0
M  RAD  3   2   2   3   3   4   2
M  END
