Coordinates from ORCA-job 4-MeOPhN2+~TfO-_B3LYPG-6-31G_dp-CH-Scan-d09-49-n800
 OpenBabel11261919093D

 25 24  0  0  0  0  0  0  0  0999 V2000
   -1.8188   -0.3360    0.7328 C   0  0  0  0  0  0  0  0  0  0  0  0
   -3.0538   -0.7063    1.1959 N   0  0  0  0  0  0  0  0  0  0  0  0
   -4.0699   -0.9785    1.5752 N   0  0  0  0  0  0  0  0  0  0  0  0
   -1.6207    1.0357    0.4358 C   0  0  0  0  0  0  0  0  0  0  0  0
   -0.3367    1.3189   -0.0179 C   0  0  0  0  0  0  0  0  0  0  0  0
    0.6596    0.3347   -0.1666 C   0  0  0  0  0  0  0  0  0  0  0  0
    1.8496    0.7667   -0.6184 O   0  0  0  0  0  0  0  0  0  0  0  0
    2.9190   -0.1602   -0.8081 C   0  0  0  0  0  0  0  0  0  0  0  0
    0.3930   -1.0234    0.1494 C   0  0  0  0  0  0  0  0  0  0  0  0
   -0.8585   -1.3692    0.6068 C   0  0  0  0  0  0  0  0  0  0  0  0
   -2.7327    2.1045    0.5390 H   0  0  0  0  0  0  0  0  0  0  0  0
   -0.0618    2.3366   -0.2831 H   0  0  0  0  0  0  0  0  0  0  0  0
    3.7560    0.4298   -1.1806 H   0  0  0  0  0  0  0  0  0  0  0  0
    2.6554   -0.9252   -1.5466 H   0  0  0  0  0  0  0  0  0  0  0  0
    3.2038   -0.6380    0.1362 H   0  0  0  0  0  0  0  0  0  0  0  0
    1.1518   -1.7869    0.0357 H   0  0  0  0  0  0  0  0  0  0  0  0
   -1.0994   -2.3971    0.8599 H   0  0  0  0  0  0  0  0  0  0  0  0
   -4.9784    2.4788    0.2888 S   0  0  0  0  0  0  0  0  0  0  0  0
   -5.6944    2.4459    2.0033 C   0  0  0  0  0  0  0  0  0  0  0  0
   -5.7455    3.4717   -0.4506 O   0  0  0  0  0  0  0  0  0  0  0  0
   -4.9907    1.0716   -0.1410 O   0  0  0  0  0  0  0  0  0  0  0  0
   -3.5397    2.9565    0.5956 O   0  0  0  0  0  0  0  0  0  0  0  0
   -5.6450    3.6517    2.5709 F   0  0  0  0  0  0  0  0  0  0  0  0
   -6.9648    2.0343    1.9583 F   0  0  0  0  0  0  0  0  0  0  0  0
   -4.9932    1.5823    2.7665 F   0  0  0  0  0  0  0  0  0  0  0  0
  1  2  1  0  0  0  0
  2  3  1  0  0  0  0
  4  1  2  0  0  0  0
  5  4  1  0  0  0  0
  6  5  2  0  0  0  0
  6  9  1  0  0  0  0
  7  6  1  0  0  0  0
  8  7  1  0  0  0  0
  8 15  1  0  0  0  0
  9 10  2  0  0  0  0
 10  1  1  0  0  0  0
 10 17  1  0  0  0  0
 11 22  1  0  0  0  0
 12  5  1  0  0  0  0
 13  8  1  0  0  0  0
 14  8  1  0  0  0  0
 16  9  1  0  0  0  0
 18 22  1  0  0  0  0
 18 19  1  0  0  0  0
 19 23  1  0  0  0  0
 19 25  1  0  0  0  0
 20 18  2  0  0  0  0
 21 18  2  0  0  0  0
 24 19  1  0  0  0  0
M  RAD  3   2   2   3   3   4   2
M  END
