Coordinates from ORCA-job 4-MeOPhN2+~TfO-_B3LYPG-6-31G_dp-CH-Scan-d09-49-n800
 OpenBabel11261919093D

 25 24  0  0  0  0  0  0  0  0999 V2000
   -1.4272   -0.2859    0.6001 C   0  0  0  0  0  0  0  0  0  0  0  0
   -2.7287   -0.4866    1.0039 N   0  0  0  0  0  0  0  0  0  0  0  0
   -3.7951   -0.5817    1.3408 N   0  0  0  0  0  0  0  0  0  0  0  0
   -1.1260    1.0684    0.3205 C   0  0  0  0  0  0  0  0  0  0  0  0
    0.2224    1.1862   -0.0665 C   0  0  0  0  0  0  0  0  0  0  0  0
    1.1156    0.1073   -0.1573 C   0  0  0  0  0  0  0  0  0  0  0  0
    2.3787    0.4049   -0.5454 O   0  0  0  0  0  0  0  0  0  0  0  0
    3.3474   -0.6311   -0.6597 C   0  0  0  0  0  0  0  0  0  0  0  0
    0.7026   -1.2232    0.1453 C   0  0  0  0  0  0  0  0  0  0  0  0
   -0.5979   -1.4376    0.5353 C   0  0  0  0  0  0  0  0  0  0  0  0
   -4.2928    3.6358   -0.2316 H   0  0  0  0  0  0  0  0  0  0  0  0
    0.6398    2.1610   -0.3221 H   0  0  0  0  0  0  0  0  0  0  0  0
    4.2695   -0.1425   -0.9761 H   0  0  0  0  0  0  0  0  0  0  0  0
    3.0573   -1.3742   -1.4120 H   0  0  0  0  0  0  0  0  0  0  0  0
    3.5178   -1.1325    0.3009 H   0  0  0  0  0  0  0  0  0  0  0  0
    1.3896   -2.0570    0.0738 H   0  0  0  0  0  0  0  0  0  0  0  0
   -0.9604   -2.4333    0.7795 H   0  0  0  0  0  0  0  0  0  0  0  0
   -6.1185    2.6861    0.3795 S   0  0  0  0  0  0  0  0  0  0  0  0
   -5.8037    2.4520    2.2026 C   0  0  0  0  0  0  0  0  0  0  0  0
   -7.4831    3.1471    0.2326 O   0  0  0  0  0  0  0  0  0  0  0  0
   -5.5857    1.5142   -0.3003 O   0  0  0  0  0  0  0  0  0  0  0  0
   -5.1479    3.9583    0.1041 O   0  0  0  0  0  0  0  0  0  0  0  0
   -6.1183    3.5602    2.8654 F   0  0  0  0  0  0  0  0  0  0  0  0
   -6.5566    1.4400    2.6297 F   0  0  0  0  0  0  0  0  0  0  0  0
   -4.5145    2.1630    2.3942 F   0  0  0  0  0  0  0  0  0  0  0  0
  1  2  1  0  0  0  0
  2  3  1  0  0  0  0
  4  1  2  0  0  0  0
  5  4  1  0  0  0  0
  6  5  2  0  0  0  0
  6  9  1  0  0  0  0
  7  6  1  0  0  0  0
  8  7  1  0  0  0  0
  8 15  1  0  0  0  0
  9 10  2  0  0  0  0
 10  1  1  0  0  0  0
 10 17  1  0  0  0  0
 11 22  1  0  0  0  0
 12  5  1  0  0  0  0
 13  8  1  0  0  0  0
 14  8  1  0  0  0  0
 16  9  1  0  0  0  0
 18 19  1  0  0  0  0
 19 25  1  0  0  0  0
 19 24  1  0  0  0  0
 19 23  1  0  0  0  0
 20 18  2  0  0  0  0
 21 18  2  0  0  0  0
 22 18  1  0  0  0  0
M  RAD  3   2   2   3   3   4   2
M  END
