Coordinates from ORCA-job 4-MeOPhN2+~TfO-_B3LYPG-6-31G_dp-CH-Scan-d09-49-n800
 OpenBabel11261919093D

 25 24  0  0  0  0  0  0  0  0999 V2000
   -1.8447   -0.3619    0.6708 C   0  0  0  0  0  0  0  0  0  0  0  0
   -3.0856   -0.7456    1.1077 N   0  0  0  0  0  0  0  0  0  0  0  0
   -4.1070   -1.0278    1.4656 N   0  0  0  0  0  0  0  0  0  0  0  0
   -1.6623    1.0094    0.3606 C   0  0  0  0  0  0  0  0  0  0  0  0
   -0.3684    1.3019   -0.0624 C   0  0  0  0  0  0  0  0  0  0  0  0
    0.6460    0.3313   -0.1692 C   0  0  0  0  0  0  0  0  0  0  0  0
    1.8428    0.7751   -0.5922 O   0  0  0  0  0  0  0  0  0  0  0  0
    2.9324   -0.1366   -0.7309 C   0  0  0  0  0  0  0  0  0  0  0  0
    0.3910   -1.0266    0.1576 C   0  0  0  0  0  0  0  0  0  0  0  0
   -0.8675   -1.3841    0.5851 C   0  0  0  0  0  0  0  0  0  0  0  0
   -2.8034    2.1087    0.4260 H   0  0  0  0  0  0  0  0  0  0  0  0
   -0.0985    2.3196   -0.3339 H   0  0  0  0  0  0  0  0  0  0  0  0
    3.7725    0.4612   -1.0836 H   0  0  0  0  0  0  0  0  0  0  0  0
    2.7071   -0.9172   -1.4659 H   0  0  0  0  0  0  0  0  0  0  0  0
    3.1923   -0.5958    0.2298 H   0  0  0  0  0  0  0  0  0  0  0  0
    1.1636   -1.7802    0.0757 H   0  0  0  0  0  0  0  0  0  0  0  0
   -1.1010   -2.4120    0.8459 H   0  0  0  0  0  0  0  0  0  0  0  0
   -5.0391    2.4789    0.2807 S   0  0  0  0  0  0  0  0  0  0  0  0
   -5.5913    2.4631    2.0552 C   0  0  0  0  0  0  0  0  0  0  0  0
   -5.8587    3.4760   -0.3922 O   0  0  0  0  0  0  0  0  0  0  0  0
   -5.0941    1.0705   -0.1356 O   0  0  0  0  0  0  0  0  0  0  0  0
   -3.5732    2.9571    0.4495 O   0  0  0  0  0  0  0  0  0  0  0  0
   -5.4810    3.6731    2.6048 F   0  0  0  0  0  0  0  0  0  0  0  0
   -6.8624    2.0599    2.1339 F   0  0  0  0  0  0  0  0  0  0  0  0
   -4.8253    1.6008    2.7539 F   0  0  0  0  0  0  0  0  0  0  0  0
  1  2  1  0  0  0  0
  2  3  1  0  0  0  0
  4  1  2  0  0  0  0
  5  4  1  0  0  0  0
  6  5  2  0  0  0  0
  6  9  1  0  0  0  0
  7  6  1  0  0  0  0
  8  7  1  0  0  0  0
  8 15  1  0  0  0  0
  9 10  2  0  0  0  0
 10  1  1  0  0  0  0
 10 17  1  0  0  0  0
 11 22  1  0  0  0  0
 12  5  1  0  0  0  0
 13  8  1  0  0  0  0
 14  8  1  0  0  0  0
 16  9  1  0  0  0  0
 18 22  1  0  0  0  0
 18 19  1  0  0  0  0
 19 24  1  0  0  0  0
 19 23  1  0  0  0  0
 19 25  1  0  0  0  0
 20 18  2  0  0  0  0
 21 18  2  0  0  0  0
M  RAD  3   2   2   3   3   4   2
M  END
