Coordinates from ORCA-job 4-MeOPhN2+~TfO-_B3LYPG-6-31G_dp-CH-Scan-d09-49-n800
 OpenBabel11261919093D

 25 24  0  0  0  0  0  0  0  0999 V2000
   -1.7741   -0.2901    0.7074 C   0  0  0  0  0  0  0  0  0  0  0  0
   -3.0291   -0.6009    1.1633 N   0  0  0  0  0  0  0  0  0  0  0  0
   -4.0935   -0.7368    1.4795 N   0  0  0  0  0  0  0  0  0  0  0  0
   -1.5137    1.0572    0.3677 C   0  0  0  0  0  0  0  0  0  0  0  0
   -0.2424    1.3364   -0.0935 C   0  0  0  0  0  0  0  0  0  0  0  0
    0.7330    0.3241   -0.2178 C   0  0  0  0  0  0  0  0  0  0  0  0
    1.9253    0.7232   -0.6821 O   0  0  0  0  0  0  0  0  0  0  0  0
    2.9814   -0.2267   -0.8459 C   0  0  0  0  0  0  0  0  0  0  0  0
    0.4349   -1.0137    0.1381 C   0  0  0  0  0  0  0  0  0  0  0  0
   -0.8246   -1.3265    0.6088 C   0  0  0  0  0  0  0  0  0  0  0  0
   -2.4530    1.9516    0.5160 H   0  0  0  0  0  0  0  0  0  0  0  0
    0.0334    2.3474   -0.3744 H   0  0  0  0  0  0  0  0  0  0  0  0
    3.8264    0.3406   -1.2344 H   0  0  0  0  0  0  0  0  0  0  0  0
    2.7035   -1.0062   -1.5633 H   0  0  0  0  0  0  0  0  0  0  0  0
    3.2569   -0.6807    0.1123 H   0  0  0  0  0  0  0  0  0  0  0  0
    1.1776   -1.7956    0.0463 H   0  0  0  0  0  0  0  0  0  0  0  0
   -1.0803   -2.3429    0.8892 H   0  0  0  0  0  0  0  0  0  0  0  0
   -4.9987    2.4817    0.4164 S   0  0  0  0  0  0  0  0  0  0  0  0
   -5.9086    2.4524    2.0352 C   0  0  0  0  0  0  0  0  0  0  0  0
   -5.7325    3.4248   -0.4279 O   0  0  0  0  0  0  0  0  0  0  0  0
   -5.0139    1.0529   -0.0036 O   0  0  0  0  0  0  0  0  0  0  0  0
   -3.6263    2.9307    0.8457 O   0  0  0  0  0  0  0  0  0  0  0  0
   -5.9092    3.6577    2.6142 F   0  0  0  0  0  0  0  0  0  0  0  0
   -7.1756    2.0585    1.8598 F   0  0  0  0  0  0  0  0  0  0  0  0
   -5.3129    1.5798    2.8801 F   0  0  0  0  0  0  0  0  0  0  0  0
  1  2  1  0  0  0  0
  2  3  1  0  0  0  0
  4 11  1  0  0  0  0
  4  1  2  0  0  0  0
  5  4  1  0  0  0  0
  6  5  2  0  0  0  0
  6  9  1  0  0  0  0
  7  6  1  0  0  0  0
  8  7  1  0  0  0  0
  8 15  1  0  0  0  0
  9 10  2  0  0  0  0
 10  1  1  0  0  0  0
 10 17  1  0  0  0  0
 12  5  1  0  0  0  0
 13  8  1  0  0  0  0
 14  8  1  0  0  0  0
 16  9  1  0  0  0  0
 18 22  1  0  0  0  0
 18 19  1  0  0  0  0
 19 23  1  0  0  0  0
 19 25  1  0  0  0  0
 20 18  2  0  0  0  0
 21 18  2  0  0  0  0
 24 19  1  0  0  0  0
M  RAD  3   2   2   3   3  22   2
M  END
