Coordinates from ORCA-job 4-MeOPhN2+~TfO-_B3LYPG-6-31G_dp-CH-Scan-d09-49-n800
 OpenBabel11261919093D

 25 24  0  0  0  0  0  0  0  0999 V2000
   -1.4473   -0.3000    0.5874 C   0  0  0  0  0  0  0  0  0  0  0  0
   -2.7472   -0.5128    0.9894 N   0  0  0  0  0  0  0  0  0  0  0  0
   -3.8136   -0.6204    1.3223 N   0  0  0  0  0  0  0  0  0  0  0  0
   -1.1635    1.0523    0.2805 C   0  0  0  0  0  0  0  0  0  0  0  0
    0.1841    1.1812   -0.1050 C   0  0  0  0  0  0  0  0  0  0  0  0
    1.0927    0.1133   -0.1713 C   0  0  0  0  0  0  0  0  0  0  0  0
    2.3522    0.4206   -0.5631 O   0  0  0  0  0  0  0  0  0  0  0  0
    3.3355   -0.6039   -0.6552 C   0  0  0  0  0  0  0  0  0  0  0  0
    0.6976   -1.2160    0.1587 C   0  0  0  0  0  0  0  0  0  0  0  0
   -0.6009   -1.4404    0.5494 C   0  0  0  0  0  0  0  0  0  0  0  0
   -4.2011    3.5795   -0.1855 H   0  0  0  0  0  0  0  0  0  0  0  0
    0.5883    2.1562   -0.3799 H   0  0  0  0  0  0  0  0  0  0  0  0
    4.2505   -0.1091   -0.9824 H   0  0  0  0  0  0  0  0  0  0  0  0
    3.0559   -1.3670   -1.3912 H   0  0  0  0  0  0  0  0  0  0  0  0
    3.5131   -1.0817    0.3160 H   0  0  0  0  0  0  0  0  0  0  0  0
    1.3966   -2.0413    0.1073 H   0  0  0  0  0  0  0  0  0  0  0  0
   -0.9498   -2.4358    0.8139 H   0  0  0  0  0  0  0  0  0  0  0  0
   -6.0738    2.6944    0.3797 S   0  0  0  0  0  0  0  0  0  0  0  0
   -5.8081    2.4482    2.2090 C   0  0  0  0  0  0  0  0  0  0  0  0
   -7.4176    3.2038    0.2031 O   0  0  0  0  0  0  0  0  0  0  0  0
   -5.5690    1.5036   -0.2886 O   0  0  0  0  0  0  0  0  0  0  0  0
   -5.0531    3.9310    0.1285 O   0  0  0  0  0  0  0  0  0  0  0  0
   -6.1058    3.5638    2.8673 F   0  0  0  0  0  0  0  0  0  0  0  0
   -6.5990    1.4574    2.6170 F   0  0  0  0  0  0  0  0  0  0  0  0
   -4.5322    2.1220    2.4298 F   0  0  0  0  0  0  0  0  0  0  0  0
  1  2  1  0  0  0  0
  2  3  1  0  0  0  0
  4  1  2  0  0  0  0
  5  4  1  0  0  0  0
  6  5  2  0  0  0  0
  6  9  1  0  0  0  0
  7  6  1  0  0  0  0
  8  7  1  0  0  0  0
  8 15  1  0  0  0  0
  9 10  2  0  0  0  0
 10  1  1  0  0  0  0
 10 17  1  0  0  0  0
 11 22  1  0  0  0  0
 12  5  1  0  0  0  0
 13  8  1  0  0  0  0
 14  8  1  0  0  0  0
 16  9  1  0  0  0  0
 18 19  1  0  0  0  0
 19 25  1  0  0  0  0
 19 24  1  0  0  0  0
 19 23  1  0  0  0  0
 20 18  2  0  0  0  0
 21 18  2  0  0  0  0
 22 18  1  0  0  0  0
M  RAD  3   2   2   3   3   4   2
M  END
