Coordinates from ORCA-job 4-MeOPhN2+~TfO-_B3LYPG-6-31G_dp-CH-Scan-d09-49-n800
 OpenBabel11261919093D

 25 24  0  0  0  0  0  0  0  0999 V2000
   -1.4998   -0.3441    0.6866 C   0  0  0  0  0  0  0  0  0  0  0  0
   -2.8155   -0.5718    1.0296 N   0  0  0  0  0  0  0  0  0  0  0  0
   -3.8940   -0.6789    1.3220 N   0  0  0  0  0  0  0  0  0  0  0  0
   -1.1631    1.0293    0.6646 C   0  0  0  0  0  0  0  0  0  0  0  0
    0.1921    1.1807    0.3135 C   0  0  0  0  0  0  0  0  0  0  0  0
    1.0578    0.1130    0.0298 C   0  0  0  0  0  0  0  0  0  0  0  0
    2.3315    0.4427   -0.2951 O   0  0  0  0  0  0  0  0  0  0  0  0
    3.2737   -0.5813   -0.5912 C   0  0  0  0  0  0  0  0  0  0  0  0
    0.6090   -1.2393    0.0828 C   0  0  0  0  0  0  0  0  0  0  0  0
   -0.7008   -1.4871    0.4190 C   0  0  0  0  0  0  0  0  0  0  0  0
   -4.8303    3.7976   -0.7580 H   0  0  0  0  0  0  0  0  0  0  0  0
    0.6374    2.1744    0.2454 H   0  0  0  0  0  0  0  0  0  0  0  0
    4.2091   -0.0686   -0.8178 H   0  0  0  0  0  0  0  0  0  0  0  0
    2.9678   -1.1730   -1.4626 H   0  0  0  0  0  0  0  0  0  0  0  0
    3.4279   -1.2489    0.2655 H   0  0  0  0  0  0  0  0  0  0  0  0
    1.2768   -2.0629   -0.1360 H   0  0  0  0  0  0  0  0  0  0  0  0
   -1.0912   -2.5007    0.4737 H   0  0  0  0  0  0  0  0  0  0  0  0
   -6.1807    2.5947    0.3940 S   0  0  0  0  0  0  0  0  0  0  0  0
   -5.2976    2.5253    2.0362 C   0  0  0  0  0  0  0  0  0  0  0  0
   -7.5876    2.8066    0.6632 O   0  0  0  0  0  0  0  0  0  0  0  0
   -5.6718    1.4994   -0.4199 O   0  0  0  0  0  0  0  0  0  0  0  0
   -5.5793    3.9976   -0.1694 O   0  0  0  0  0  0  0  0  0  0  0  0
   -5.6085    3.5952    2.7620 F   0  0  0  0  0  0  0  0  0  0  0  0
   -5.6935    1.4201    2.6701 F   0  0  0  0  0  0  0  0  0  0  0  0
   -3.9851    2.4788    1.8290 F   0  0  0  0  0  0  0  0  0  0  0  0
  1  2  1  0  0  0  0
  2  3  1  0  0  0  0
  4  1  1  0  0  0  0
  5  4  2  0  0  0  0
  6  9  2  0  0  0  0
  6  5  1  0  0  0  0
  7  6  1  0  0  0  0
  8  7  1  0  0  0  0
  8 15  1  0  0  0  0
  9 10  1  0  0  0  0
 10 17  1  0  0  0  0
 10  1  2  0  0  0  0
 11 22  1  0  0  0  0
 12  5  1  0  0  0  0
 13  8  1  0  0  0  0
 14  8  1  0  0  0  0
 16  9  1  0  0  0  0
 18 20  2  0  0  0  0
 18 19  1  0  0  0  0
 19 24  1  0  0  0  0
 19 23  1  0  0  0  0
 21 18  2  0  0  0  0
 22 18  1  0  0  0  0
 25 19  1  0  0  0  0
M  RAD  3   2   2   3   3   4   2
M  END
