Coordinates from ORCA-job 4-MeOPhN2+~TfO-_B3LYPG-6-31G_dp-CH-Scan-d09-49-n800
 OpenBabel11261919093D

 25 24  0  0  0  0  0  0  0  0999 V2000
   -1.7854   -0.4208    0.5289 C   0  0  0  0  0  0  0  0  0  0  0  0
   -3.0507   -0.7988    0.9018 N   0  0  0  0  0  0  0  0  0  0  0  0
   -4.0941   -1.0697    1.2072 N   0  0  0  0  0  0  0  0  0  0  0  0
   -1.6244    0.9473    0.1905 C   0  0  0  0  0  0  0  0  0  0  0  0
   -0.2992    1.2282   -0.1648 C   0  0  0  0  0  0  0  0  0  0  0  0
    0.7289    0.2693   -0.1790 C   0  0  0  0  0  0  0  0  0  0  0  0
    1.9498    0.7129   -0.5439 O   0  0  0  0  0  0  0  0  0  0  0  0
    3.0522   -0.1895   -0.5808 C   0  0  0  0  0  0  0  0  0  0  0  0
    0.4745   -1.0845    0.1755 C   0  0  0  0  0  0  0  0  0  0  0  0
   -0.8021   -1.4447    0.5377 C   0  0  0  0  0  0  0  0  0  0  0  0
   -3.2418    2.4767    0.1327 H   0  0  0  0  0  0  0  0  0  0  0  0
   -0.0090    2.2370   -0.4537 H   0  0  0  0  0  0  0  0  0  0  0  0
    3.9099    0.4047   -0.8964 H   0  0  0  0  0  0  0  0  0  0  0  0
    2.8857   -0.9971   -1.3030 H   0  0  0  0  0  0  0  0  0  0  0  0
    3.2539   -0.6170    0.4085 H   0  0  0  0  0  0  0  0  0  0  0  0
    1.2613   -1.8277    0.1650 H   0  0  0  0  0  0  0  0  0  0  0  0
   -1.0414   -2.4669    0.8179 H   0  0  0  0  0  0  0  0  0  0  0  0
   -5.3964    2.5440    0.3232 S   0  0  0  0  0  0  0  0  0  0  0  0
   -5.4942    2.5052    2.1819 C   0  0  0  0  0  0  0  0  0  0  0  0
   -6.3832    3.5035   -0.1337 O   0  0  0  0  0  0  0  0  0  0  0  0
   -5.4072    1.1479   -0.1033 O   0  0  0  0  0  0  0  0  0  0  0  0
   -3.9513    3.1862    0.1353 O   0  0  0  0  0  0  0  0  0  0  0  0
   -5.3520    3.7289    2.6848 F   0  0  0  0  0  0  0  0  0  0  0  0
   -6.6778    2.0089    2.5447 F   0  0  0  0  0  0  0  0  0  0  0  0
   -4.5218    1.7148    2.6600 F   0  0  0  0  0  0  0  0  0  0  0  0
  1 10  1  0  0  0  0
  1  2  1  0  0  0  0
  2  3  1  0  0  0  0
  4  1  2  0  0  0  0
  5  4  1  0  0  0  0
  6  5  2  0  0  0  0
  6  9  1  0  0  0  0
  7  6  1  0  0  0  0
  8  7  1  0  0  0  0
  8 15  1  0  0  0  0
  9 10  2  0  0  0  0
 10 17  1  0  0  0  0
 11 22  1  0  0  0  0
 12  5  1  0  0  0  0
 13  8  1  0  0  0  0
 14  8  1  0  0  0  0
 16  9  1  0  0  0  0
 18 19  1  0  0  0  0
 19 24  1  0  0  0  0
 19 25  1  0  0  0  0
 19 23  1  0  0  0  0
 20 18  2  0  0  0  0
 21 18  2  0  0  0  0
 22 18  1  0  0  0  0
M  RAD  3   2   2   3   3   4   2
M  END
