Coordinates from ORCA-job 4-MeOPhN2+~TfO-_B3LYPG-6-31G_dp-CH-Scan-d09-49-n800
 OpenBabel11261919093D

 25 24  0  0  0  0  0  0  0  0999 V2000
   -1.8176   -0.3953    0.6310 C   0  0  0  0  0  0  0  0  0  0  0  0
   -3.0658   -0.7832    1.0450 N   0  0  0  0  0  0  0  0  0  0  0  0
   -4.0951   -1.0639    1.3842 N   0  0  0  0  0  0  0  0  0  0  0  0
   -1.6550    0.9791    0.3186 C   0  0  0  0  0  0  0  0  0  0  0  0
   -0.3490    1.2692   -0.0842 C   0  0  0  0  0  0  0  0  0  0  0  0
    0.6737    0.3068   -0.1675 C   0  0  0  0  0  0  0  0  0  0  0  0
    1.8768    0.7560   -0.5746 O   0  0  0  0  0  0  0  0  0  0  0  0
    2.9731   -0.1491   -0.6883 C   0  0  0  0  0  0  0  0  0  0  0  0
    0.4267   -1.0529    0.1643 C   0  0  0  0  0  0  0  0  0  0  0  0
   -0.8356   -1.4171    0.5717 C   0  0  0  0  0  0  0  0  0  0  0  0
   -2.9811    2.2562    0.3432 H   0  0  0  0  0  0  0  0  0  0  0  0
   -0.0728    2.2851   -0.3591 H   0  0  0  0  0  0  0  0  0  0  0  0
    3.8159    0.4506   -1.0318 H   0  0  0  0  0  0  0  0  0  0  0  0
    2.7660   -0.9375   -1.4207 H   0  0  0  0  0  0  0  0  0  0  0  0
    3.2211   -0.6003    0.2795 H   0  0  0  0  0  0  0  0  0  0  0  0
    1.2078   -1.7995    0.1013 H   0  0  0  0  0  0  0  0  0  0  0  0
   -1.0669   -2.4450    0.8362 H   0  0  0  0  0  0  0  0  0  0  0  0
   -5.1649    2.5068    0.2831 S   0  0  0  0  0  0  0  0  0  0  0  0
   -5.5665    2.4844    2.0988 C   0  0  0  0  0  0  0  0  0  0  0  0
   -6.0259    3.5087   -0.3208 O   0  0  0  0  0  0  0  0  0  0  0  0
   -5.2100    1.1056   -0.1380 O   0  0  0  0  0  0  0  0  0  0  0  0
   -3.6842    3.0360    0.3357 O   0  0  0  0  0  0  0  0  0  0  0  0
   -5.4356    3.6991    2.6295 F   0  0  0  0  0  0  0  0  0  0  0  0
   -6.8198    2.0590    2.2714 F   0  0  0  0  0  0  0  0  0  0  0  0
   -4.7310    1.6400    2.7286 F   0  0  0  0  0  0  0  0  0  0  0  0
  1  2  1  0  0  0  0
  2  3  1  0  0  0  0
  4  1  2  0  0  0  0
  5  4  1  0  0  0  0
  6  5  2  0  0  0  0
  6  9  1  0  0  0  0
  7  6  1  0  0  0  0
  8  7  1  0  0  0  0
  8 15  1  0  0  0  0
  9 10  2  0  0  0  0
 10  1  1  0  0  0  0
 10 17  1  0  0  0  0
 12  5  1  0  0  0  0
 13  8  1  0  0  0  0
 14  8  1  0  0  0  0
 16  9  1  0  0  0  0
 18 22  1  0  0  0  0
 18 19  1  0  0  0  0
 19 24  1  0  0  0  0
 19 23  1  0  0  0  0
 19 25  1  0  0  0  0
 20 18  2  0  0  0  0
 21 18  2  0  0  0  0
 22 11  1  0  0  0  0
M  RAD  3   2   2   3   3   4   2
M  END
