Coordinates from ORCA-job 4-MeOPhN2+~TfO-_B3LYPG-6-31G_dp-CH-Scan-d09-49-n800
 OpenBabel11261919093D

 25 24  0  0  0  0  0  0  0  0999 V2000
   -1.8083   -0.3015    0.7580 C   0  0  0  0  0  0  0  0  0  0  0  0
   -3.0442   -0.6478    1.2353 N   0  0  0  0  0  0  0  0  0  0  0  0
   -4.0648   -0.8939    1.6170 N   0  0  0  0  0  0  0  0  0  0  0  0
   -1.5736    1.0608    0.4545 C   0  0  0  0  0  0  0  0  0  0  0  0
   -0.3015    1.3415   -0.0159 C   0  0  0  0  0  0  0  0  0  0  0  0
    0.6771    0.3398   -0.1787 C   0  0  0  0  0  0  0  0  0  0  0  0
    1.8640    0.7546   -0.6464 O   0  0  0  0  0  0  0  0  0  0  0  0
    2.9187   -0.1875   -0.8533 C   0  0  0  0  0  0  0  0  0  0  0  0
    0.3908   -1.0116    0.1416 C   0  0  0  0  0  0  0  0  0  0  0  0
   -0.8603   -1.3403    0.6170 C   0  0  0  0  0  0  0  0  0  0  0  0
   -2.5783    2.0269    0.5927 H   0  0  0  0  0  0  0  0  0  0  0  0
   -0.0263    2.3579   -0.2809 H   0  0  0  0  0  0  0  0  0  0  0  0
    3.7574    0.3923   -1.2371 H   0  0  0  0  0  0  0  0  0  0  0  0
    2.6324   -0.9465   -1.5893 H   0  0  0  0  0  0  0  0  0  0  0  0
    3.2094   -0.6697    0.0865 H   0  0  0  0  0  0  0  0  0  0  0  0
    1.1352   -1.7874    0.0176 H   0  0  0  0  0  0  0  0  0  0  0  0
   -1.1111   -2.3650    0.8721 H   0  0  0  0  0  0  0  0  0  0  0  0
   -4.9326    2.4802    0.3261 S   0  0  0  0  0  0  0  0  0  0  0  0
   -5.7837    2.4288    1.9765 C   0  0  0  0  0  0  0  0  0  0  0  0
   -5.6865    3.4394   -0.4760 O   0  0  0  0  0  0  0  0  0  0  0  0
   -4.9116    1.0642   -0.1008 O   0  0  0  0  0  0  0  0  0  0  0  0
   -3.5433    2.9615    0.7291 O   0  0  0  0  0  0  0  0  0  0  0  0
   -5.7848    3.6291    2.5621 F   0  0  0  0  0  0  0  0  0  0  0  0
   -7.0473    2.0128    1.8378 F   0  0  0  0  0  0  0  0  0  0  0  0
   -5.1426    1.5605    2.7918 F   0  0  0  0  0  0  0  0  0  0  0  0
  1  2  1  0  0  0  0
  2  3  1  0  0  0  0
  4  1  2  0  0  0  0
  5  4  1  0  0  0  0
  6  5  2  0  0  0  0
  6  9  1  0  0  0  0
  7  6  1  0  0  0  0
  8  7  1  0  0  0  0
  8 15  1  0  0  0  0
  9 10  2  0  0  0  0
 10  1  1  0  0  0  0
 10 17  1  0  0  0  0
 11 22  1  0  0  0  0
 12  5  1  0  0  0  0
 13  8  1  0  0  0  0
 14  8  1  0  0  0  0
 16  9  1  0  0  0  0
 18 22  1  0  0  0  0
 18 19  1  0  0  0  0
 19 23  1  0  0  0  0
 19 25  1  0  0  0  0
 20 18  2  0  0  0  0
 21 18  2  0  0  0  0
 24 19  1  0  0  0  0
M  RAD  3   2   2   3   3   4   2
M  END
