Coordinates from ORCA-job 4-MeOPhN2+~TfO-_B3LYPG-6-31G_dp-CH-Scan-d09-49-n800
 OpenBabel11261919093D

 25 24  0  0  0  0  0  0  0  0999 V2000
   -1.9839   -0.2888    0.4727 C   0  0  0  0  0  0  0  0  0  0  0  0
   -3.2960   -0.6620    0.6582 N   0  0  0  0  0  0  0  0  0  0  0  0
   -4.3124   -1.1026    0.8362 N   0  0  0  0  0  0  0  0  0  0  0  0
   -1.5577    1.0151    0.7985 C   0  0  0  0  0  0  0  0  0  0  0  0
   -0.2233    1.3182    0.6301 C   0  0  0  0  0  0  0  0  0  0  0  0
    0.6803    0.3564    0.1291 C   0  0  0  0  0  0  0  0  0  0  0  0
    1.9491    0.7707   -0.0013 O   0  0  0  0  0  0  0  0  0  0  0  0
    2.9367   -0.1267   -0.5154 C   0  0  0  0  0  0  0  0  0  0  0  0
    0.2321   -0.9415   -0.1958 C   0  0  0  0  0  0  0  0  0  0  0  0
   -1.1012   -1.2678   -0.0167 C   0  0  0  0  0  0  0  0  0  0  0  0
   -2.2712    1.7315    1.1492 H   0  0  0  0  0  0  0  0  0  0  0  0
    0.1548    2.3058    0.8675 H   0  0  0  0  0  0  0  0  0  0  0  0
    3.8679    0.4387   -0.5262 H   0  0  0  0  0  0  0  0  0  0  0  0
    2.6892   -0.4433   -1.5341 H   0  0  0  0  0  0  0  0  0  0  0  0
    3.0481   -1.0035    0.1315 H   0  0  0  0  0  0  0  0  0  0  0  0
    0.9130   -1.6887   -0.5815 H   0  0  0  0  0  0  0  0  0  0  0  0
   -1.4663   -2.2600   -0.2574 H   0  0  0  0  0  0  0  0  0  0  0  0
   -5.4559    1.8622    0.3880 S   0  0  0  0  0  0  0  0  0  0  0  0
   -5.0722    2.9894    1.8157 C   0  0  0  0  0  0  0  0  0  0  0  0
   -6.4487    2.5915   -0.4018 O   0  0  0  0  0  0  0  0  0  0  0  0
   -5.9291    0.6173    1.0637 O   0  0  0  0  0  0  0  0  0  0  0  0
   -4.1127    1.6803   -0.2375 O   0  0  0  0  0  0  0  0  0  0  0  0
   -4.6623    4.1903    1.3858 F   0  0  0  0  0  0  0  0  0  0  0  0
   -6.1287    3.1561    2.6154 F   0  0  0  0  0  0  0  0  0  0  0  0
   -4.0653    2.4604    2.5633 F   0  0  0  0  0  0  0  0  0  0  0  0
  1  2  1  0  0  0  0
  1  4  2  0  0  0  0
  2  3  1  0  0  0  0
  4 11  1  0  0  0  0
  5  4  1  0  0  0  0
  5 12  1  0  0  0  0
  6  5  2  0  0  0  0
  7  6  1  0  0  0  0
  8  7  1  0  0  0  0
  8 15  1  0  0  0  0
  9 10  2  0  0  0  0
  9  6  1  0  0  0  0
 10  1  1  0  0  0  0
 13  8  1  0  0  0  0
 14  8  1  0  0  0  0
 16  9  1  0  0  0  0
 17 10  1  0  0  0  0
 18 21  1  0  0  0  0
 18 19  1  0  0  0  0
 19 25  1  0  0  0  0
 19 24  1  0  0  0  0
 20 18  2  0  0  0  0
 22 18  2  0  0  0  0
 23 19  1  0  0  0  0
M  RAD  3   2   2   3   3  21   2
M  END
