Coordinates from ORCA-job 4-MeOPhN2+~TfO-_B3LYPG-6-31G_dp-CH-Scan-d09-49-n800
 OpenBabel11261919093D

 25 24  0  0  0  0  0  0  0  0999 V2000
   -1.6293   -0.3933    0.4720 C   0  0  0  0  0  0  0  0  0  0  0  0
   -2.9219   -0.7005    0.8258 N   0  0  0  0  0  0  0  0  0  0  0  0
   -3.9868   -0.9022    1.1143 N   0  0  0  0  0  0  0  0  0  0  0  0
   -1.4247    0.9600    0.1053 C   0  0  0  0  0  0  0  0  0  0  0  0
   -0.0774    1.1755   -0.2299 C   0  0  0  0  0  0  0  0  0  0  0  0
    0.9121    0.1793   -0.1988 C   0  0  0  0  0  0  0  0  0  0  0  0
    2.1598    0.5643   -0.5514 O   0  0  0  0  0  0  0  0  0  0  0  0
    3.2236   -0.3819   -0.5423 C   0  0  0  0  0  0  0  0  0  0  0  0
    0.6021   -1.1568    0.1856 C   0  0  0  0  0  0  0  0  0  0  0  0
   -0.6932   -1.4605    0.5307 C   0  0  0  0  0  0  0  0  0  0  0  0
   -3.7510    3.0556   -0.1004 H   0  0  0  0  0  0  0  0  0  0  0  0
    0.2625    2.1640   -0.5391 H   0  0  0  0  0  0  0  0  0  0  0  0
    4.1114    0.1671   -0.8576 H   0  0  0  0  0  0  0  0  0  0  0  0
    3.0389   -1.2030   -1.2449 H   0  0  0  0  0  0  0  0  0  0  0  0
    3.3910   -0.7903    0.4615 H   0  0  0  0  0  0  0  0  0  0  0  0
    1.3620   -1.9274    0.2103 H   0  0  0  0  0  0  0  0  0  0  0  0
   -0.9776   -2.4655    0.8324 H   0  0  0  0  0  0  0  0  0  0  0  0
   -5.8016    2.6488    0.3984 S   0  0  0  0  0  0  0  0  0  0  0  0
   -5.6075    2.4905    2.2455 C   0  0  0  0  0  0  0  0  0  0  0  0
   -7.0001    3.4244    0.1544 O   0  0  0  0  0  0  0  0  0  0  0  0
   -5.5819    1.3199   -0.1561 O   0  0  0  0  0  0  0  0  0  0  0  0
   -4.5412    3.6037    0.0738 O   0  0  0  0  0  0  0  0  0  0  0  0
   -5.6417    3.6897    2.8177 F   0  0  0  0  0  0  0  0  0  0  0  0
   -6.6037    1.7395    2.7135 F   0  0  0  0  0  0  0  0  0  0  0  0
   -4.4395    1.8982    2.5164 F   0  0  0  0  0  0  0  0  0  0  0  0
  1 10  1  0  0  0  0
  1  2  1  0  0  0  0
  2  3  1  0  0  0  0
  4  1  2  0  0  0  0
  5  6  2  0  0  0  0
  5  4  1  0  0  0  0
  6  9  1  0  0  0  0
  7  8  1  0  0  0  0
  7  6  1  0  0  0  0
  8 15  1  0  0  0  0
  9 16  1  0  0  0  0
  9 10  2  0  0  0  0
 10 17  1  0  0  0  0
 11 22  1  0  0  0  0
 12  5  1  0  0  0  0
 13  8  1  0  0  0  0
 14  8  1  0  0  0  0
 18 19  1  0  0  0  0
 19 25  1  0  0  0  0
 19 24  1  0  0  0  0
 19 23  1  0  0  0  0
 20 18  2  0  0  0  0
 21 18  2  0  0  0  0
 22 18  1  0  0  0  0
M  RAD  3   2   2   3   3   4   2
M  END
