Coordinates from ORCA-job 4-MeOPhN2+~TfO-_B3LYPG-6-31G_dp-CH-Scan-d09-49-n800
 OpenBabel11261919093D

 25 24  0  0  0  0  0  0  0  0999 V2000
   -1.8067   -0.2978    0.7562 C   0  0  0  0  0  0  0  0  0  0  0  0
   -3.0440   -0.6396    1.2330 N   0  0  0  0  0  0  0  0  0  0  0  0
   -4.0674   -0.8775    1.6119 N   0  0  0  0  0  0  0  0  0  0  0  0
   -1.5665    1.0626    0.4500 C   0  0  0  0  0  0  0  0  0  0  0  0
   -0.2954    1.3433   -0.0204 C   0  0  0  0  0  0  0  0  0  0  0  0
    0.6815    0.3392   -0.1818 C   0  0  0  0  0  0  0  0  0  0  0  0
    1.8687    0.7515   -0.6498 O   0  0  0  0  0  0  0  0  0  0  0  0
    2.9223   -0.1925   -0.8549 C   0  0  0  0  0  0  0  0  0  0  0  0
    0.3922   -1.0108    0.1406 C   0  0  0  0  0  0  0  0  0  0  0  0
   -0.8597   -1.3369    0.6166 C   0  0  0  0  0  0  0  0  0  0  0  0
   -2.5555    2.0156    0.5908 H   0  0  0  0  0  0  0  0  0  0  0  0
   -0.0201    2.3593   -0.2861 H   0  0  0  0  0  0  0  0  0  0  0  0
    3.7619    0.3858   -1.2392 H   0  0  0  0  0  0  0  0  0  0  0  0
    2.6351   -0.9521   -1.5900 H   0  0  0  0  0  0  0  0  0  0  0  0
    3.2118   -0.6736    0.0859 H   0  0  0  0  0  0  0  0  0  0  0  0
    1.1351   -1.7882    0.0179 H   0  0  0  0  0  0  0  0  0  0  0  0
   -1.1120   -2.3608    0.8729 H   0  0  0  0  0  0  0  0  0  0  0  0
   -4.9337    2.4823    0.3335 S   0  0  0  0  0  0  0  0  0  0  0  0
   -5.7952    2.4274    1.9783 C   0  0  0  0  0  0  0  0  0  0  0  0
   -5.6917    3.4339   -0.4748 O   0  0  0  0  0  0  0  0  0  0  0  0
   -4.9079    1.0644   -0.0917 O   0  0  0  0  0  0  0  0  0  0  0  0
   -3.5510    2.9677    0.7415 O   0  0  0  0  0  0  0  0  0  0  0  0
   -5.8034    3.6274    2.5653 F   0  0  0  0  0  0  0  0  0  0  0  0
   -7.0572    2.0078    1.8332 F   0  0  0  0  0  0  0  0  0  0  0  0
   -5.1569    1.5605    2.7981 F   0  0  0  0  0  0  0  0  0  0  0  0
  1  2  1  0  0  0  0
  2  3  1  0  0  0  0
  4 11  1  0  0  0  0
  4  1  2  0  0  0  0
  5  4  1  0  0  0  0
  6  5  2  0  0  0  0
  6  9  1  0  0  0  0
  7  6  1  0  0  0  0
  8  7  1  0  0  0  0
  8 15  1  0  0  0  0
  9 10  2  0  0  0  0
 10  1  1  0  0  0  0
 10 17  1  0  0  0  0
 12  5  1  0  0  0  0
 13  8  1  0  0  0  0
 14  8  1  0  0  0  0
 16  9  1  0  0  0  0
 18 22  1  0  0  0  0
 18 19  1  0  0  0  0
 19 23  1  0  0  0  0
 19 25  1  0  0  0  0
 20 18  2  0  0  0  0
 21 18  2  0  0  0  0
 24 19  1  0  0  0  0
M  RAD  3   2   2   3   3  22   2
M  END
