Coordinates from ORCA-job 4-MeOPhN2+~TfO-_B3LYPG-6-31G_dp-CH-Scan-d09-49-n800
 OpenBabel11261919093D

 25 24  0  0  0  0  0  0  0  0999 V2000
   -1.8329   -0.3839    0.6480 C   0  0  0  0  0  0  0  0  0  0  0  0
   -3.0775   -0.7729    1.0709 N   0  0  0  0  0  0  0  0  0  0  0  0
   -4.1030   -1.0567    1.4174 N   0  0  0  0  0  0  0  0  0  0  0  0
   -1.6657    0.9899    0.3367 C   0  0  0  0  0  0  0  0  0  0  0  0
   -0.3645    1.2823   -0.0743 C   0  0  0  0  0  0  0  0  0  0  0  0
    0.6567    0.3186   -0.1671 C   0  0  0  0  0  0  0  0  0  0  0  0
    1.8565    0.7677   -0.5809 O   0  0  0  0  0  0  0  0  0  0  0  0
    2.9517   -0.1382   -0.7045 C   0  0  0  0  0  0  0  0  0  0  0  0
    0.4091   -1.0409    0.1629 C   0  0  0  0  0  0  0  0  0  0  0  0
   -0.8511   -1.4044    0.5783 C   0  0  0  0  0  0  0  0  0  0  0  0
   -2.9067    2.1888    0.3777 H   0  0  0  0  0  0  0  0  0  0  0  0
   -0.0922    2.2993   -0.3481 H   0  0  0  0  0  0  0  0  0  0  0  0
    3.7924    0.4621   -1.0521 H   0  0  0  0  0  0  0  0  0  0  0  0
    2.7386   -0.9242   -1.4376 H   0  0  0  0  0  0  0  0  0  0  0  0
    3.2056   -0.5918    0.2606 H   0  0  0  0  0  0  0  0  0  0  0  0
    1.1882   -1.7889    0.0925 H   0  0  0  0  0  0  0  0  0  0  0  0
   -1.0816   -2.4326    0.8415 H   0  0  0  0  0  0  0  0  0  0  0  0
   -5.1056    2.4933    0.2790 S   0  0  0  0  0  0  0  0  0  0  0  0
   -5.5679    2.4757    2.0796 C   0  0  0  0  0  0  0  0  0  0  0  0
   -5.9445    3.4983   -0.3527 O   0  0  0  0  0  0  0  0  0  0  0  0
   -5.1613    1.0896   -0.1402 O   0  0  0  0  0  0  0  0  0  0  0  0
   -3.6266    2.9946    0.3794 O   0  0  0  0  0  0  0  0  0  0  0  0
   -5.4394    3.6880    2.6177 F   0  0  0  0  0  0  0  0  0  0  0  0
   -6.8310    2.0648    2.2150 F   0  0  0  0  0  0  0  0  0  0  0  0
   -4.7631    1.6205    2.7375 F   0  0  0  0  0  0  0  0  0  0  0  0
  1  2  1  0  0  0  0
  2  3  1  0  0  0  0
  4  1  2  0  0  0  0
  5  4  1  0  0  0  0
  6  5  2  0  0  0  0
  6  9  1  0  0  0  0
  7  6  1  0  0  0  0
  8  7  1  0  0  0  0
  8 15  1  0  0  0  0
  9 10  2  0  0  0  0
 10  1  1  0  0  0  0
 10 17  1  0  0  0  0
 11 22  1  0  0  0  0
 12  5  1  0  0  0  0
 13  8  1  0  0  0  0
 14  8  1  0  0  0  0
 16  9  1  0  0  0  0
 18 22  1  0  0  0  0
 18 19  1  0  0  0  0
 19 24  1  0  0  0  0
 19 23  1  0  0  0  0
 19 25  1  0  0  0  0
 20 18  2  0  0  0  0
 21 18  2  0  0  0  0
M  RAD  3   2   2   3   3   4   2
M  END
