Coordinates from ORCA-job 4-MeOPhN2+~TfO-_B3LYPG-6-31G_dp-CH-Scan-d09-49-n800
 OpenBabel11261919093D

 25 24  0  0  0  0  0  0  0  0999 V2000
   -1.7206   -0.4082    0.5075 C   0  0  0  0  0  0  0  0  0  0  0  0
   -2.9961   -0.7570    0.8773 N   0  0  0  0  0  0  0  0  0  0  0  0
   -4.0478   -1.0023    1.1774 N   0  0  0  0  0  0  0  0  0  0  0  0
   -1.5423    0.9536    0.1553 C   0  0  0  0  0  0  0  0  0  0  0  0
   -0.2086    1.2079   -0.1950 C   0  0  0  0  0  0  0  0  0  0  0  0
    0.8040    0.2334   -0.1913 C   0  0  0  0  0  0  0  0  0  0  0  0
    2.0357    0.6526   -0.5539 O   0  0  0  0  0  0  0  0  0  0  0  0
    3.1225   -0.2681   -0.5726 C   0  0  0  0  0  0  0  0  0  0  0  0
    0.5276   -1.1133    0.1773 C   0  0  0  0  0  0  0  0  0  0  0  0
   -0.7561   -1.4502    0.5355 C   0  0  0  0  0  0  0  0  0  0  0  0
   -3.4202    2.7016    0.0655 H   0  0  0  0  0  0  0  0  0  0  0  0
    0.1017    2.2082   -0.4943 H   0  0  0  0  0  0  0  0  0  0  0  0
    3.9924    0.3073   -0.8904 H   0  0  0  0  0  0  0  0  0  0  0  0
    2.9476   -1.0822   -1.2855 H   0  0  0  0  0  0  0  0  0  0  0  0
    3.3117   -0.6867    0.4229 H   0  0  0  0  0  0  0  0  0  0  0  0
    1.3037   -1.8679    0.1803 H   0  0  0  0  0  0  0  0  0  0  0  0
   -1.0131   -2.4655    0.8261 H   0  0  0  0  0  0  0  0  0  0  0  0
   -5.5526    2.5876    0.3515 S   0  0  0  0  0  0  0  0  0  0  0  0
   -5.5621    2.4995    2.2119 C   0  0  0  0  0  0  0  0  0  0  0  0
   -6.6189    3.4872   -0.0409 O   0  0  0  0  0  0  0  0  0  0  0  0
   -5.4688    1.2093   -0.1168 O   0  0  0  0  0  0  0  0  0  0  0  0
   -4.1625    3.3511    0.1198 O   0  0  0  0  0  0  0  0  0  0  0  0
   -5.4966    3.7196    2.7368 F   0  0  0  0  0  0  0  0  0  0  0  0
   -6.6860    1.9015    2.6078 F   0  0  0  0  0  0  0  0  0  0  0  0
   -4.5103    1.7800    2.6250 F   0  0  0  0  0  0  0  0  0  0  0  0
  1 10  1  0  0  0  0
  1  2  1  0  0  0  0
  2  3  1  0  0  0  0
  4  1  2  0  0  0  0
  5  6  2  0  0  0  0
  5  4  1  0  0  0  0
  6  9  1  0  0  0  0
  7  6  1  0  0  0  0
  8  7  1  0  0  0  0
  8 15  1  0  0  0  0
  9 16  1  0  0  0  0
  9 10  2  0  0  0  0
 10 17  1  0  0  0  0
 11 22  1  0  0  0  0
 12  5  1  0  0  0  0
 13  8  1  0  0  0  0
 14  8  1  0  0  0  0
 18 19  1  0  0  0  0
 19 24  1  0  0  0  0
 19 25  1  0  0  0  0
 19 23  1  0  0  0  0
 20 18  2  0  0  0  0
 21 18  2  0  0  0  0
 22 18  1  0  0  0  0
M  RAD  3   2   2   3   3   4   2
M  END
