Coordinates from ORCA-job 4-MeOPhN2+~TfO-_B3LYPG-6-31G_dp-CH-Scan-d09-49-n800
 OpenBabel11261919093D

 25 24  0  0  0  0  0  0  0  0999 V2000
   -1.4921   -0.3459    0.6806 C   0  0  0  0  0  0  0  0  0  0  0  0
   -2.8086   -0.5715    1.0216 N   0  0  0  0  0  0  0  0  0  0  0  0
   -3.8874   -0.6775    1.3133 N   0  0  0  0  0  0  0  0  0  0  0  0
   -1.1527    1.0267    0.6607 C   0  0  0  0  0  0  0  0  0  0  0  0
    0.2035    1.1762    0.3127 C   0  0  0  0  0  0  0  0  0  0  0  0
    1.0681    0.1074    0.0304 C   0  0  0  0  0  0  0  0  0  0  0  0
    2.3431    0.4351   -0.2912 O   0  0  0  0  0  0  0  0  0  0  0  0
    3.2844   -0.5904   -0.5853 C   0  0  0  0  0  0  0  0  0  0  0  0
    0.6169   -1.2443    0.0816 C   0  0  0  0  0  0  0  0  0  0  0  0
   -0.6941   -1.4901    0.4144 C   0  0  0  0  0  0  0  0  0  0  0  0
   -4.8899    3.8265   -0.7737 H   0  0  0  0  0  0  0  0  0  0  0  0
    0.6505    2.1693    0.2465 H   0  0  0  0  0  0  0  0  0  0  0  0
    4.2211   -0.0790   -0.8096 H   0  0  0  0  0  0  0  0  0  0  0  0
    2.9797   -1.1814   -1.4575 H   0  0  0  0  0  0  0  0  0  0  0  0
    3.4355   -1.2583    0.2717 H   0  0  0  0  0  0  0  0  0  0  0  0
    1.2839   -2.0688   -0.1359 H   0  0  0  0  0  0  0  0  0  0  0  0
   -1.0863   -2.5031    0.4674 H   0  0  0  0  0  0  0  0  0  0  0  0
   -6.1985    2.5993    0.4010 S   0  0  0  0  0  0  0  0  0  0  0  0
   -5.2994    2.5324    2.0349 C   0  0  0  0  0  0  0  0  0  0  0  0
   -7.6053    2.7897    0.6862 O   0  0  0  0  0  0  0  0  0  0  0  0
   -5.6827    1.5163   -0.4251 O   0  0  0  0  0  0  0  0  0  0  0  0
   -5.6217    4.0139   -0.1601 O   0  0  0  0  0  0  0  0  0  0  0  0
   -5.6075    3.6016    2.7630 F   0  0  0  0  0  0  0  0  0  0  0  0
   -5.6877    1.4261    2.6717 F   0  0  0  0  0  0  0  0  0  0  0  0
   -3.9884    2.4888    1.8180 F   0  0  0  0  0  0  0  0  0  0  0  0
  1  2  1  0  0  0  0
  2  3  1  0  0  0  0
  4  1  1  0  0  0  0
  5  4  2  0  0  0  0
  6  9  2  0  0  0  0
  6  5  1  0  0  0  0
  7  6  1  0  0  0  0
  8  7  1  0  0  0  0
  8 15  1  0  0  0  0
  9 10  1  0  0  0  0
 10 17  1  0  0  0  0
 10  1  2  0  0  0  0
 11 22  1  0  0  0  0
 12  5  1  0  0  0  0
 13  8  1  0  0  0  0
 14  8  1  0  0  0  0
 16  9  1  0  0  0  0
 18 20  2  0  0  0  0
 18 19  1  0  0  0  0
 19 24  1  0  0  0  0
 19 23  1  0  0  0  0
 21 18  2  0  0  0  0
 22 18  1  0  0  0  0
 25 19  1  0  0  0  0
M  RAD  3   2   2   3   3   4   2
M  END
