Coordinates from ORCA-job 4-MeOPhN2+~TfO-_B3LYPG-6-31G_dp-CH-Scan-d09-49-n800
 OpenBabel11261919093D

 25 24  0  0  0  0  0  0  0  0999 V2000
   -1.7016   -0.4089    0.4869 C   0  0  0  0  0  0  0  0  0  0  0  0
   -2.9823   -0.7493    0.8485 N   0  0  0  0  0  0  0  0  0  0  0  0
   -4.0378   -0.9848    1.1439 N   0  0  0  0  0  0  0  0  0  0  0  0
   -1.5175    0.9509    0.1316 C   0  0  0  0  0  0  0  0  0  0  0  0
   -0.1789    1.1977   -0.2081 C   0  0  0  0  0  0  0  0  0  0  0  0
    0.8297    0.2195   -0.1921 C   0  0  0  0  0  0  0  0  0  0  0  0
    2.0669    0.6324   -0.5452 O   0  0  0  0  0  0  0  0  0  0  0  0
    3.1498   -0.2928   -0.5504 C   0  0  0  0  0  0  0  0  0  0  0  0
    0.5452   -1.1253    0.1785 C   0  0  0  0  0  0  0  0  0  0  0  0
   -0.7427   -1.4562    0.5269 C   0  0  0  0  0  0  0  0  0  0  0  0
   -3.5158    2.7947   -0.0030 H   0  0  0  0  0  0  0  0  0  0  0  0
    0.1389    2.1956   -0.5083 H   0  0  0  0  0  0  0  0  0  0  0  0
    4.0252    0.2779   -0.8615 H   0  0  0  0  0  0  0  0  0  0  0  0
    2.9787   -1.1085   -1.2624 H   0  0  0  0  0  0  0  0  0  0  0  0
    3.3277   -0.7093    0.4481 H   0  0  0  0  0  0  0  0  0  0  0  0
    1.3185   -1.8827    0.1907 H   0  0  0  0  0  0  0  0  0  0  0  0
   -1.0065   -2.4694    0.8188 H   0  0  0  0  0  0  0  0  0  0  0  0
   -5.6275    2.6025    0.3676 S   0  0  0  0  0  0  0  0  0  0  0  0
   -5.5536    2.4996    2.2264 C   0  0  0  0  0  0  0  0  0  0  0  0
   -6.7359    3.4720    0.0288 O   0  0  0  0  0  0  0  0  0  0  0  0
   -5.5150    1.2336   -0.1201 O   0  0  0  0  0  0  0  0  0  0  0  0
   -4.2724    3.4174    0.0834 O   0  0  0  0  0  0  0  0  0  0  0  0
   -5.5005    3.7176    2.7571 F   0  0  0  0  0  0  0  0  0  0  0  0
   -6.6426    1.8672    2.6635 F   0  0  0  0  0  0  0  0  0  0  0  0
   -4.4657    1.8077    2.5876 F   0  0  0  0  0  0  0  0  0  0  0  0
  1 10  1  0  0  0  0
  1  2  1  0  0  0  0
  2  3  1  0  0  0  0
  4  1  2  0  0  0  0
  5  6  2  0  0  0  0
  5  4  1  0  0  0  0
  6  9  1  0  0  0  0
  7  6  1  0  0  0  0
  8  7  1  0  0  0  0
  8 15  1  0  0  0  0
  9 16  1  0  0  0  0
  9 10  2  0  0  0  0
 10 17  1  0  0  0  0
 11 22  1  0  0  0  0
 12  5  1  0  0  0  0
 13  8  1  0  0  0  0
 14  8  1  0  0  0  0
 18 19  1  0  0  0  0
 19 25  1  0  0  0  0
 19 24  1  0  0  0  0
 19 23  1  0  0  0  0
 20 18  2  0  0  0  0
 21 18  2  0  0  0  0
 22 18  1  0  0  0  0
M  RAD  3   2   2   3   3   4   2
M  END
