Coordinates from ORCA-job 4-MeOPhN2+~TfO-_B3LYPG-6-31G_dp-CH-Scan-d09-49-n800
 OpenBabel11261919093D

 25 24  0  0  0  0  0  0  0  0999 V2000
   -1.5063   -0.3417    0.6787 C   0  0  0  0  0  0  0  0  0  0  0  0
   -2.8187   -0.5711    1.0321 N   0  0  0  0  0  0  0  0  0  0  0  0
   -3.8943   -0.6809    1.3339 N   0  0  0  0  0  0  0  0  0  0  0  0
   -1.1774    1.0331    0.6294 C   0  0  0  0  0  0  0  0  0  0  0  0
    0.1764    1.1852    0.2736 C   0  0  0  0  0  0  0  0  0  0  0  0
    1.0481    0.1173    0.0100 C   0  0  0  0  0  0  0  0  0  0  0  0
    2.3198    0.4480   -0.3217 O   0  0  0  0  0  0  0  0  0  0  0  0
    3.2682   -0.5763   -0.5969 C   0  0  0  0  0  0  0  0  0  0  0  0
    0.6070   -1.2363    0.0892 C   0  0  0  0  0  0  0  0  0  0  0  0
   -0.7008   -1.4849    0.4319 C   0  0  0  0  0  0  0  0  0  0  0  0
   -4.7489    3.7942   -0.7132 H   0  0  0  0  0  0  0  0  0  0  0  0
    0.6160    2.1799    0.1854 H   0  0  0  0  0  0  0  0  0  0  0  0
    4.2012   -0.0627   -0.8311 H   0  0  0  0  0  0  0  0  0  0  0  0
    2.9672   -1.1857   -1.4577 H   0  0  0  0  0  0  0  0  0  0  0  0
    3.4240   -1.2270    0.2724 H   0  0  0  0  0  0  0  0  0  0  0  0
    1.2791   -2.0602   -0.1149 H   0  0  0  0  0  0  0  0  0  0  0  0
   -1.0854   -2.4994    0.5065 H   0  0  0  0  0  0  0  0  0  0  0  0
   -6.1458    2.5935    0.3834 S   0  0  0  0  0  0  0  0  0  0  0  0
   -5.3283    2.5146    2.0589 C   0  0  0  0  0  0  0  0  0  0  0  0
   -7.5611    2.8096    0.6002 O   0  0  0  0  0  0  0  0  0  0  0  0
   -5.6108    1.4987   -0.4137 O   0  0  0  0  0  0  0  0  0  0  0  0
   -5.5184    3.9955   -0.1520 O   0  0  0  0  0  0  0  0  0  0  0  0
   -5.6482    3.5925    2.7689 F   0  0  0  0  0  0  0  0  0  0  0  0
   -5.7688    1.4188    2.6792 F   0  0  0  0  0  0  0  0  0  0  0  0
   -4.0095    2.4442    1.9046 F   0  0  0  0  0  0  0  0  0  0  0  0
  1  2  1  0  0  0  0
  2  3  1  0  0  0  0
  4  1  1  0  0  0  0
  5  4  2  0  0  0  0
  6  9  2  0  0  0  0
  6  5  1  0  0  0  0
  7  6  1  0  0  0  0
  8  7  1  0  0  0  0
  8 15  1  0  0  0  0
  9 10  1  0  0  0  0
 10 17  1  0  0  0  0
 10  1  2  0  0  0  0
 11 22  1  0  0  0  0
 12  5  1  0  0  0  0
 13  8  1  0  0  0  0
 14  8  1  0  0  0  0
 16  9  1  0  0  0  0
 18 20  2  0  0  0  0
 18 19  1  0  0  0  0
 19 24  1  0  0  0  0
 19 23  1  0  0  0  0
 21 18  2  0  0  0  0
 22 18  1  0  0  0  0
 25 19  1  0  0  0  0
M  RAD  3   2   2   3   3   4   2
M  END
