Coordinates from ORCA-job 4-MeOPhN2+~TfO-_B3LYPG-6-31G_dp-CH-Scan-d09-49-n800
 OpenBabel11261919093D

 25 24  0  0  0  0  0  0  0  0999 V2000
   -1.5399   -0.3303    0.5696 C   0  0  0  0  0  0  0  0  0  0  0  0
   -2.8304   -0.5871    0.9710 N   0  0  0  0  0  0  0  0  0  0  0  0
   -3.8917   -0.7417    1.3003 N   0  0  0  0  0  0  0  0  0  0  0  0
   -1.3003    1.0205    0.2169 C   0  0  0  0  0  0  0  0  0  0  0  0
    0.0421    1.1872   -0.1674 C   0  0  0  0  0  0  0  0  0  0  0  0
    0.9907    0.1523   -0.1930 C   0  0  0  0  0  0  0  0  0  0  0  0
    2.2387    0.4931   -0.5904 O   0  0  0  0  0  0  0  0  0  0  0  0
    3.2609   -0.4960   -0.6435 C   0  0  0  0  0  0  0  0  0  0  0  0
    0.6433   -1.1778    0.1819 C   0  0  0  0  0  0  0  0  0  0  0  0
   -0.6482   -1.4365    0.5743 C   0  0  0  0  0  0  0  0  0  0  0  0
   -3.8703    3.3116   -0.0488 H   0  0  0  0  0  0  0  0  0  0  0  0
    0.4102    2.1666   -0.4742 H   0  0  0  0  0  0  0  0  0  0  0  0
    4.1571    0.0213   -0.9872 H   0  0  0  0  0  0  0  0  0  0  0  0
    3.0125   -1.2954   -1.3516 H   0  0  0  0  0  0  0  0  0  0  0  0
    3.4536   -0.9304    0.3449 H   0  0  0  0  0  0  0  0  0  0  0  0
    1.3723   -1.9780    0.1628 H   0  0  0  0  0  0  0  0  0  0  0  0
   -0.9608   -2.4344    0.8717 H   0  0  0  0  0  0  0  0  0  0  0  0
   -5.8790    2.6714    0.3622 S   0  0  0  0  0  0  0  0  0  0  0  0
   -5.7574    2.4417    2.2086 C   0  0  0  0  0  0  0  0  0  0  0  0
   -7.1386    3.3322    0.0906 O   0  0  0  0  0  0  0  0  0  0  0  0
   -5.4888    1.4066   -0.2444 O   0  0  0  0  0  0  0  0  0  0  0  0
   -4.7078    3.7687    0.1521 O   0  0  0  0  0  0  0  0  0  0  0  0
   -5.9915    3.5925    2.8310 F   0  0  0  0  0  0  0  0  0  0  0  0
   -6.6598    1.5355    2.5808 F   0  0  0  0  0  0  0  0  0  0  0  0
   -4.5328    2.0050    2.5190 F   0  0  0  0  0  0  0  0  0  0  0  0
  1 10  1  0  0  0  0
  1  2  1  0  0  0  0
  2  3  1  0  0  0  0
  4  1  2  0  0  0  0
  5  4  1  0  0  0  0
  6  5  2  0  0  0  0
  6  9  1  0  0  0  0
  7  6  1  0  0  0  0
  8  7  1  0  0  0  0
  8 15  1  0  0  0  0
  9 10  2  0  0  0  0
 10 17  1  0  0  0  0
 11 22  1  0  0  0  0
 12  5  1  0  0  0  0
 13  8  1  0  0  0  0
 14  8  1  0  0  0  0
 16  9  1  0  0  0  0
 18 19  1  0  0  0  0
 19 25  1  0  0  0  0
 19 24  1  0  0  0  0
 19 23  1  0  0  0  0
 20 18  2  0  0  0  0
 21 18  2  0  0  0  0
 22 18  1  0  0  0  0
M  RAD  3   2   2   3   3   4   2
M  END
