Coordinates from ORCA-job 4-MeOPhN2+~TfO-_B3LYPG-6-31G_dp-CH-Scan-d09-49-n800
 OpenBabel11261919093D

 25 24  0  0  0  0  0  0  0  0999 V2000
   -1.4960   -0.3205    0.5744 C   0  0  0  0  0  0  0  0  0  0  0  0
   -2.7911   -0.5583    0.9754 N   0  0  0  0  0  0  0  0  0  0  0  0
   -3.8552   -0.6925    1.3052 N   0  0  0  0  0  0  0  0  0  0  0  0
   -1.2394    1.0305    0.2367 C   0  0  0  0  0  0  0  0  0  0  0  0
    0.1055    1.1811   -0.1479 C   0  0  0  0  0  0  0  0  0  0  0  0
    1.0384    0.1327   -0.1869 C   0  0  0  0  0  0  0  0  0  0  0  0
    2.2911    0.4592   -0.5831 O   0  0  0  0  0  0  0  0  0  0  0  0
    3.2978   -0.5446   -0.6498 C   0  0  0  0  0  0  0  0  0  0  0  0
    0.6722   -1.1967    0.1736 C   0  0  0  0  0  0  0  0  0  0  0  0
   -0.6223   -1.4409    0.5656 C   0  0  0  0  0  0  0  0  0  0  0  0
   -4.0122    3.4390   -0.1024 H   0  0  0  0  0  0  0  0  0  0  0  0
    0.4882    2.1583   -0.4445 H   0  0  0  0  0  0  0  0  0  0  0  0
    4.2014   -0.0370   -0.9891 H   0  0  0  0  0  0  0  0  0  0  0  0
    3.0362   -1.3317   -1.3669 H   0  0  0  0  0  0  0  0  0  0  0  0
    3.4857   -0.9938    0.3329 H   0  0  0  0  0  0  0  0  0  0  0  0
    1.3895   -2.0070    0.1441 H   0  0  0  0  0  0  0  0  0  0  0  0
   -0.9493   -2.4373    0.8527 H   0  0  0  0  0  0  0  0  0  0  0  0
   -5.9672    2.6865    0.3720 S   0  0  0  0  0  0  0  0  0  0  0  0
   -5.7922    2.4465    2.2130 C   0  0  0  0  0  0  0  0  0  0  0  0
   -7.2661    3.2812    0.1352 O   0  0  0  0  0  0  0  0  0  0  0  0
   -5.5197    1.4535   -0.2597 O   0  0  0  0  0  0  0  0  0  0  0  0
   -4.8594    3.8488    0.1494 O   0  0  0  0  0  0  0  0  0  0  0  0
   -6.0568    3.5829    2.8496 F   0  0  0  0  0  0  0  0  0  0  0  0
   -6.6500    1.5030    2.5969 F   0  0  0  0  0  0  0  0  0  0  0  0
   -4.5451    2.0559    2.4906 F   0  0  0  0  0  0  0  0  0  0  0  0
  1  2  1  0  0  0  0
  2  3  1  0  0  0  0
  4  1  2  0  0  0  0
  5  4  1  0  0  0  0
  6  5  2  0  0  0  0
  6  9  1  0  0  0  0
  7  6  1  0  0  0  0
  8  7  1  0  0  0  0
  8 15  1  0  0  0  0
  9 10  2  0  0  0  0
 10  1  1  0  0  0  0
 10 17  1  0  0  0  0
 11 22  1  0  0  0  0
 12  5  1  0  0  0  0
 13  8  1  0  0  0  0
 14  8  1  0  0  0  0
 16  9  1  0  0  0  0
 18 19  1  0  0  0  0
 19 25  1  0  0  0  0
 19 24  1  0  0  0  0
 19 23  1  0  0  0  0
 20 18  2  0  0  0  0
 21 18  2  0  0  0  0
 22 18  1  0  0  0  0
M  RAD  3   2   2   3   3   4   2
M  END
