Coordinates from ORCA-job 4-MeOPhN2+~TfO-_B3LYPG-6-31G_dp-CH-Scan-d09-49-n800
 OpenBabel11261919093D

 25 24  0  0  0  0  0  0  0  0999 V2000
   -1.8318   -0.4206    0.5638 C   0  0  0  0  0  0  0  0  0  0  0  0
   -3.0867   -0.8170    0.9498 N   0  0  0  0  0  0  0  0  0  0  0  0
   -4.1217   -1.1048    1.2659 N   0  0  0  0  0  0  0  0  0  0  0  0
   -1.6779    0.9526    0.2419 C   0  0  0  0  0  0  0  0  0  0  0  0
   -0.3628    1.2510   -0.1272 C   0  0  0  0  0  0  0  0  0  0  0  0
    0.6722    0.2994   -0.1700 C   0  0  0  0  0  0  0  0  0  0  0  0
    1.8830    0.7580   -0.5446 O   0  0  0  0  0  0  0  0  0  0  0  0
    2.9927   -0.1349   -0.6104 C   0  0  0  0  0  0  0  0  0  0  0  0
    0.4305   -1.0601    0.1675 C   0  0  0  0  0  0  0  0  0  0  0  0
   -0.8388   -1.4338    0.5423 C   0  0  0  0  0  0  0  0  0  0  0  0
   -3.0710    2.2829    0.2261 H   0  0  0  0  0  0  0  0  0  0  0  0
   -0.0876    2.2668   -0.4043 H   0  0  0  0  0  0  0  0  0  0  0  0
    3.8406    0.4716   -0.9287 H   0  0  0  0  0  0  0  0  0  0  0  0
    2.8219   -0.9323   -1.3426 H   0  0  0  0  0  0  0  0  0  0  0  0
    3.2109   -0.5750    0.3696 H   0  0  0  0  0  0  0  0  0  0  0  0
    1.2212   -1.7984    0.1345 H   0  0  0  0  0  0  0  0  0  0  0  0
   -1.0671   -2.4616    0.8103 H   0  0  0  0  0  0  0  0  0  0  0  0
   -5.2459    2.5067    0.2987 S   0  0  0  0  0  0  0  0  0  0  0  0
   -5.4735    2.5085    2.1450 C   0  0  0  0  0  0  0  0  0  0  0  0
   -6.1572    3.5018   -0.2370 O   0  0  0  0  0  0  0  0  0  0  0  0
   -5.3206    1.1011   -0.0992 O   0  0  0  0  0  0  0  0  0  0  0  0
   -3.7664    3.0481    0.2010 O   0  0  0  0  0  0  0  0  0  0  0  0
   -5.2986    3.7313    2.6419 F   0  0  0  0  0  0  0  0  0  0  0  0
   -6.7029    2.0815    2.4397 F   0  0  0  0  0  0  0  0  0  0  0  0
   -4.5783    1.6760    2.7028 F   0  0  0  0  0  0  0  0  0  0  0  0
  1  2  1  0  0  0  0
  2  3  1  0  0  0  0
  4  1  2  0  0  0  0
  5  4  1  0  0  0  0
  6  5  2  0  0  0  0
  6  9  1  0  0  0  0
  7  6  1  0  0  0  0
  8  7  1  0  0  0  0
  8 15  1  0  0  0  0
  9 10  2  0  0  0  0
 10  1  1  0  0  0  0
 10 17  1  0  0  0  0
 12  5  1  0  0  0  0
 13  8  1  0  0  0  0
 14  8  1  0  0  0  0
 16  9  1  0  0  0  0
 18 19  1  0  0  0  0
 19 24  1  0  0  0  0
 19 23  1  0  0  0  0
 19 25  1  0  0  0  0
 20 18  2  0  0  0  0
 21 18  2  0  0  0  0
 22 11  1  0  0  0  0
 22 18  1  0  0  0  0
M  RAD  3   2   2   3   3   4   2
M  END
