Coordinates from ORCA-job 4-MeOPhN2+~TfO-_B3LYPG-6-31G_dp-CH-Scan-d09-49-n800
 OpenBabel11261919093D

 25 24  0  0  0  0  0  0  0  0999 V2000
   -1.5106   -0.3414    0.6796 C   0  0  0  0  0  0  0  0  0  0  0  0
   -2.8224   -0.5724    1.0341 N   0  0  0  0  0  0  0  0  0  0  0  0
   -3.8976   -0.6837    1.3367 N   0  0  0  0  0  0  0  0  0  0  0  0
   -1.1837    1.0337    0.6274 C   0  0  0  0  0  0  0  0  0  0  0  0
    0.1697    1.1872    0.2705 C   0  0  0  0  0  0  0  0  0  0  0  0
    1.0429    0.1202    0.0084 C   0  0  0  0  0  0  0  0  0  0  0  0
    2.3138    0.4522   -0.3246 O   0  0  0  0  0  0  0  0  0  0  0  0
    3.2636   -0.5712   -0.5985 C   0  0  0  0  0  0  0  0  0  0  0  0
    0.6038   -1.2339    0.0901 C   0  0  0  0  0  0  0  0  0  0  0  0
   -0.7035   -1.4837    0.4342 C   0  0  0  0  0  0  0  0  0  0  0  0
   -4.7178    3.7798   -0.7049 H   0  0  0  0  0  0  0  0  0  0  0  0
    0.6077    2.1824    0.1803 H   0  0  0  0  0  0  0  0  0  0  0  0
    4.1959   -0.0567   -0.8337 H   0  0  0  0  0  0  0  0  0  0  0  0
    2.9633   -1.1824   -1.4583 H   0  0  0  0  0  0  0  0  0  0  0  0
    3.4206   -1.2204    0.2718 H   0  0  0  0  0  0  0  0  0  0  0  0
    1.2768   -2.0572   -0.1132 H   0  0  0  0  0  0  0  0  0  0  0  0
   -1.0865   -2.4987    0.5108 H   0  0  0  0  0  0  0  0  0  0  0  0
   -6.1370    2.5926    0.3809 S   0  0  0  0  0  0  0  0  0  0  0  0
   -5.3283    2.5107    2.0607 C   0  0  0  0  0  0  0  0  0  0  0  0
   -7.5511    2.8244    0.5894 O   0  0  0  0  0  0  0  0  0  0  0  0
   -5.6088    1.4887   -0.4085 O   0  0  0  0  0  0  0  0  0  0  0  0
   -5.4951    3.9870   -0.1570 O   0  0  0  0  0  0  0  0  0  0  0  0
   -5.6479    3.5895    2.7694 F   0  0  0  0  0  0  0  0  0  0  0  0
   -5.7752    1.4163    2.6788 F   0  0  0  0  0  0  0  0  0  0  0  0
   -4.0085    2.4359    1.9128 F   0  0  0  0  0  0  0  0  0  0  0  0
  1  2  1  0  0  0  0
  2  3  1  0  0  0  0
  4  1  1  0  0  0  0
  5  4  2  0  0  0  0
  6  9  2  0  0  0  0
  6  5  1  0  0  0  0
  7  6  1  0  0  0  0
  8  7  1  0  0  0  0
  8 15  1  0  0  0  0
  9 10  1  0  0  0  0
 10 17  1  0  0  0  0
 10  1  2  0  0  0  0
 11 22  1  0  0  0  0
 12  5  1  0  0  0  0
 13  8  1  0  0  0  0
 14  8  1  0  0  0  0
 16  9  1  0  0  0  0
 18 20  2  0  0  0  0
 18 19  1  0  0  0  0
 19 24  1  0  0  0  0
 19 23  1  0  0  0  0
 21 18  2  0  0  0  0
 22 18  1  0  0  0  0
 25 19  1  0  0  0  0
M  RAD  3   2   2   3   3   4   2
M  END
