Coordinates from ORCA-job 4-MeOPhN2+~TfO-_B3LYPG-6-31G_dp-CH-Scan-d09-49-n800
 OpenBabel11261919093D

 25 24  0  0  0  0  0  0  0  0999 V2000
   -1.5626   -0.3333    0.5700 C   0  0  0  0  0  0  0  0  0  0  0  0
   -2.8508   -0.5985    0.9722 N   0  0  0  0  0  0  0  0  0  0  0  0
   -3.9108   -0.7611    1.3015 N   0  0  0  0  0  0  0  0  0  0  0  0
   -1.3304    1.0174    0.2112 C   0  0  0  0  0  0  0  0  0  0  0  0
    0.0104    1.1916   -0.1737 C   0  0  0  0  0  0  0  0  0  0  0  0
    0.9660    0.1628   -0.1942 C   0  0  0  0  0  0  0  0  0  0  0  0
    2.2115    0.5102   -0.5927 O   0  0  0  0  0  0  0  0  0  0  0  0
    3.2407   -0.4722   -0.6405 C   0  0  0  0  0  0  0  0  0  0  0  0
    0.6271   -1.1676    0.1867 C   0  0  0  0  0  0  0  0  0  0  0  0
   -0.6629   -1.4329    0.5797 C   0  0  0  0  0  0  0  0  0  0  0  0
   -3.8035    3.2466   -0.0270 H   0  0  0  0  0  0  0  0  0  0  0  0
    0.3718    2.1721   -0.4849 H   0  0  0  0  0  0  0  0  0  0  0  0
    4.1334    0.0498   -0.9865 H   0  0  0  0  0  0  0  0  0  0  0  0
    2.9980   -1.2766   -1.3447 H   0  0  0  0  0  0  0  0  0  0  0  0
    3.4359   -0.9001    0.3502 H   0  0  0  0  0  0  0  0  0  0  0  0
    1.3612   -1.9632    0.1716 H   0  0  0  0  0  0  0  0  0  0  0  0
   -0.9689   -2.4316    0.8815 H   0  0  0  0  0  0  0  0  0  0  0  0
   -5.8355    2.6641    0.3556 S   0  0  0  0  0  0  0  0  0  0  0  0
   -5.7337    2.4354    2.2032 C   0  0  0  0  0  0  0  0  0  0  0  0
   -7.0743    3.3588    0.0731 O   0  0  0  0  0  0  0  0  0  0  0  0
   -5.4785    1.3859   -0.2436 O   0  0  0  0  0  0  0  0  0  0  0  0
   -4.6340    3.7270    0.1511 O   0  0  0  0  0  0  0  0  0  0  0  0
   -5.9537    3.5906    2.8228 F   0  0  0  0  0  0  0  0  0  0  0  0
   -6.6536    1.5446    2.5698 F   0  0  0  0  0  0  0  0  0  0  0  0
   -4.5187    1.9790    2.5246 F   0  0  0  0  0  0  0  0  0  0  0  0
  1 10  1  0  0  0  0
  1  2  1  0  0  0  0
  2  3  1  0  0  0  0
  4  1  2  0  0  0  0
  5  4  1  0  0  0  0
  6  5  2  0  0  0  0
  6  9  1  0  0  0  0
  7  6  1  0  0  0  0
  8  7  1  0  0  0  0
  8 15  1  0  0  0  0
  9 10  2  0  0  0  0
 10 17  1  0  0  0  0
 11 22  1  0  0  0  0
 12  5  1  0  0  0  0
 13  8  1  0  0  0  0
 14  8  1  0  0  0  0
 16  9  1  0  0  0  0
 18 19  1  0  0  0  0
 19 25  1  0  0  0  0
 19 24  1  0  0  0  0
 19 23  1  0  0  0  0
 20 18  2  0  0  0  0
 21 18  2  0  0  0  0
 22 18  1  0  0  0  0
M  RAD  3   2   2   3   3   4   2
M  END
