Coordinates from ORCA-job 4-MeOPhN2+~TfO-_B3LYPG-6-31G_dp-CH-Scan-d09-49-n800
 OpenBabel11261919093D

 25 24  0  0  0  0  0  0  0  0999 V2000
   -1.7936   -0.2956    0.7203 C   0  0  0  0  0  0  0  0  0  0  0  0
   -3.0424   -0.6195    1.1812 N   0  0  0  0  0  0  0  0  0  0  0  0
   -4.0916   -0.7993    1.5210 N   0  0  0  0  0  0  0  0  0  0  0  0
   -1.5423    1.0565    0.3905 C   0  0  0  0  0  0  0  0  0  0  0  0
   -0.2706    1.3379   -0.0710 C   0  0  0  0  0  0  0  0  0  0  0  0
    0.7081    0.3304   -0.2037 C   0  0  0  0  0  0  0  0  0  0  0  0
    1.8989    0.7359   -0.6665 O   0  0  0  0  0  0  0  0  0  0  0  0
    2.9571   -0.2098   -0.8401 C   0  0  0  0  0  0  0  0  0  0  0  0
    0.4151   -1.0119    0.1420 C   0  0  0  0  0  0  0  0  0  0  0  0
   -0.8423   -1.3314    0.6114 C   0  0  0  0  0  0  0  0  0  0  0  0
   -2.4951    1.9671    0.5317 H   0  0  0  0  0  0  0  0  0  0  0  0
    0.0031    2.3509   -0.3478 H   0  0  0  0  0  0  0  0  0  0  0  0
    3.7997    0.3628   -1.2260 H   0  0  0  0  0  0  0  0  0  0  0  0
    2.6798   -0.9844   -1.5631 H   0  0  0  0  0  0  0  0  0  0  0  0
    3.2360   -0.6708    0.1137 H   0  0  0  0  0  0  0  0  0  0  0  0
    1.1600   -1.7909    0.0430 H   0  0  0  0  0  0  0  0  0  0  0  0
   -1.0953   -2.3505    0.8845 H   0  0  0  0  0  0  0  0  0  0  0  0
   -4.9729    2.4876    0.3796 S   0  0  0  0  0  0  0  0  0  0  0  0
   -5.8472    2.4402    2.0178 C   0  0  0  0  0  0  0  0  0  0  0  0
   -5.7310    3.4320   -0.4401 O   0  0  0  0  0  0  0  0  0  0  0  0
   -4.9696    1.0636   -0.0438 O   0  0  0  0  0  0  0  0  0  0  0  0
   -3.5949    2.9563    0.7866 O   0  0  0  0  0  0  0  0  0  0  0  0
   -5.8501    3.6414    2.6042 F   0  0  0  0  0  0  0  0  0  0  0  0
   -7.1125    2.0309    1.8671 F   0  0  0  0  0  0  0  0  0  0  0  0
   -5.2225    1.5696    2.8447 F   0  0  0  0  0  0  0  0  0  0  0  0
  1  2  1  0  0  0  0
  2  3  1  0  0  0  0
  4 11  1  0  0  0  0
  4  1  2  0  0  0  0
  5  4  1  0  0  0  0
  6  5  2  0  0  0  0
  6  9  1  0  0  0  0
  7  6  1  0  0  0  0
  8  7  1  0  0  0  0
  8 15  1  0  0  0  0
  9 10  2  0  0  0  0
 10  1  1  0  0  0  0
 10 17  1  0  0  0  0
 12  5  1  0  0  0  0
 13  8  1  0  0  0  0
 14  8  1  0  0  0  0
 16  9  1  0  0  0  0
 18 22  1  0  0  0  0
 18 19  1  0  0  0  0
 19 23  1  0  0  0  0
 19 25  1  0  0  0  0
 20 18  2  0  0  0  0
 21 18  2  0  0  0  0
 24 19  1  0  0  0  0
M  RAD  3   2   2   3   3  22   2
M  END
