Coordinates from ORCA-job 4-MeOPhN2+~TfO-_B3LYPG-6-31G_dp-CH-Scan-d09-49-n800
 OpenBabel11261919093D

 25 24  0  0  0  0  0  0  0  0999 V2000
   -1.6423   -0.3967    0.4721 C   0  0  0  0  0  0  0  0  0  0  0  0
   -2.9331   -0.7096    0.8266 N   0  0  0  0  0  0  0  0  0  0  0  0
   -3.9972   -0.9173    1.1136 N   0  0  0  0  0  0  0  0  0  0  0  0
   -1.4414    0.9574    0.1061 C   0  0  0  0  0  0  0  0  0  0  0  0
   -0.0951    1.1785   -0.2282 C   0  0  0  0  0  0  0  0  0  0  0  0
    0.8980    0.1857   -0.1976 C   0  0  0  0  0  0  0  0  0  0  0  0
    2.1443    0.5757   -0.5490 O   0  0  0  0  0  0  0  0  0  0  0  0
    3.2117   -0.3665   -0.5403 C   0  0  0  0  0  0  0  0  0  0  0  0
    0.5923   -1.1518    0.1851 C   0  0  0  0  0  0  0  0  0  0  0  0
   -0.7021   -1.4603    0.5293 C   0  0  0  0  0  0  0  0  0  0  0  0
   -3.7150    3.0150   -0.0906 H   0  0  0  0  0  0  0  0  0  0  0  0
    0.2411    2.1685   -0.5362 H   0  0  0  0  0  0  0  0  0  0  0  0
    4.0977    0.1863   -0.8540 H   0  0  0  0  0  0  0  0  0  0  0  0
    3.0307   -1.1872   -1.2443 H   0  0  0  0  0  0  0  0  0  0  0  0
    3.3796   -0.7757    0.4631 H   0  0  0  0  0  0  0  0  0  0  0  0
    1.3548   -1.9198    0.2093 H   0  0  0  0  0  0  0  0  0  0  0  0
   -0.9829   -2.4666    0.8299 H   0  0  0  0  0  0  0  0  0  0  0  0
   -5.7756    2.6419    0.3946 S   0  0  0  0  0  0  0  0  0  0  0  0
   -5.5934    2.4915    2.2434 C   0  0  0  0  0  0  0  0  0  0  0  0
   -6.9616    3.4334    0.1402 O   0  0  0  0  0  0  0  0  0  0  0  0
   -5.5747    1.3058   -0.1501 O   0  0  0  0  0  0  0  0  0  0  0  0
   -4.5003    3.5752    0.0701 O   0  0  0  0  0  0  0  0  0  0  0  0
   -5.6131    3.6942    2.8090 F   0  0  0  0  0  0  0  0  0  0  0  0
   -6.6027    1.7576    2.7108 F   0  0  0  0  0  0  0  0  0  0  0  0
   -4.4354    1.8837    2.5242 F   0  0  0  0  0  0  0  0  0  0  0  0
  1 10  1  0  0  0  0
  1  2  1  0  0  0  0
  2  3  1  0  0  0  0
  4  1  2  0  0  0  0
  5  6  2  0  0  0  0
  5  4  1  0  0  0  0
  6  9  1  0  0  0  0
  7  8  1  0  0  0  0
  7  6  1  0  0  0  0
  8 15  1  0  0  0  0
  9 16  1  0  0  0  0
  9 10  2  0  0  0  0
 10 17  1  0  0  0  0
 11 22  1  0  0  0  0
 12  5  1  0  0  0  0
 13  8  1  0  0  0  0
 14  8  1  0  0  0  0
 18 19  1  0  0  0  0
 19 25  1  0  0  0  0
 19 24  1  0  0  0  0
 19 23  1  0  0  0  0
 20 18  2  0  0  0  0
 21 18  2  0  0  0  0
 22 18  1  0  0  0  0
M  RAD  3   2   2   3   3   4   2
M  END
