Coordinates from ORCA-job 4-MeOPhN2+~TfO-_B3LYPG-6-31G_dp-CH-Scan-d09-49-n800
 OpenBabel11261919093D

 25 24  0  0  0  0  0  0  0  0999 V2000
   -1.5190   -0.3401    0.6625 C   0  0  0  0  0  0  0  0  0  0  0  0
   -2.8269   -0.5734    1.0289 N   0  0  0  0  0  0  0  0  0  0  0  0
   -3.8990   -0.6874    1.3409 N   0  0  0  0  0  0  0  0  0  0  0  0
   -1.2081    1.0359    0.5559 C   0  0  0  0  0  0  0  0  0  0  0  0
    0.1438    1.1909    0.1941 C   0  0  0  0  0  0  0  0  0  0  0  0
    1.0300    0.1248   -0.0245 C   0  0  0  0  0  0  0  0  0  0  0  0
    2.2976    0.4584   -0.3679 O   0  0  0  0  0  0  0  0  0  0  0  0
    3.2603   -0.5635   -0.5987 C   0  0  0  0  0  0  0  0  0  0  0  0
    0.6065   -1.2301    0.1094 C   0  0  0  0  0  0  0  0  0  0  0  0
   -0.6981   -1.4815    0.4622 C   0  0  0  0  0  0  0  0  0  0  0  0
   -4.6085    3.7753   -0.6294 H   0  0  0  0  0  0  0  0  0  0  0  0
    0.5701    2.1867    0.0644 H   0  0  0  0  0  0  0  0  0  0  0  0
    4.1878   -0.0475   -0.8490 H   0  0  0  0  0  0  0  0  0  0  0  0
    2.9710   -1.2101   -1.4359 H   0  0  0  0  0  0  0  0  0  0  0  0
    3.4204   -1.1775    0.2962 H   0  0  0  0  0  0  0  0  0  0  0  0
    1.2890   -2.0530   -0.0612 H   0  0  0  0  0  0  0  0  0  0  0  0
   -1.0693   -2.4971    0.5786 H   0  0  0  0  0  0  0  0  0  0  0  0
   -6.1033    2.6090    0.3735 S   0  0  0  0  0  0  0  0  0  0  0  0
   -5.3669    2.4825    2.0833 C   0  0  0  0  0  0  0  0  0  0  0  0
   -7.5185    2.8732    0.5291 O   0  0  0  0  0  0  0  0  0  0  0  0
   -5.5713    1.5032   -0.4099 O   0  0  0  0  0  0  0  0  0  0  0  0
   -5.4061    3.9940   -0.1157 O   0  0  0  0  0  0  0  0  0  0  0  0
   -5.6899    3.5574    2.7963 F   0  0  0  0  0  0  0  0  0  0  0  0
   -5.8635    1.3896    2.6645 F   0  0  0  0  0  0  0  0  0  0  0  0
   -4.0438    2.3790    1.9894 F   0  0  0  0  0  0  0  0  0  0  0  0
  1  2  1  0  0  0  0
  2  3  1  0  0  0  0
  4  1  1  0  0  0  0
  5  4  2  0  0  0  0
  6  9  2  0  0  0  0
  6  5  1  0  0  0  0
  7  6  1  0  0  0  0
  8  7  1  0  0  0  0
  8 15  1  0  0  0  0
  9 10  1  0  0  0  0
 10 17  1  0  0  0  0
 10  1  2  0  0  0  0
 11 22  1  0  0  0  0
 12  5  1  0  0  0  0
 13  8  1  0  0  0  0
 14  8  1  0  0  0  0
 16  9  1  0  0  0  0
 18 20  2  0  0  0  0
 18 19  1  0  0  0  0
 19 24  1  0  0  0  0
 19 23  1  0  0  0  0
 21 18  2  0  0  0  0
 22 18  1  0  0  0  0
 25 19  1  0  0  0  0
M  RAD  3   2   2   3   3   4   2
M  END
