Coordinates from ORCA-job 4-MeOPhN2+~TfO-_B3LYPG-6-31G_dp-CH-Scan-d09-49-n800
 OpenBabel11261919093D

 25 24  0  0  0  0  0  0  0  0999 V2000
   -1.5142   -0.3409    0.6814 C   0  0  0  0  0  0  0  0  0  0  0  0
   -2.8257   -0.5732    1.0366 N   0  0  0  0  0  0  0  0  0  0  0  0
   -3.9008   -0.6852    1.3392 N   0  0  0  0  0  0  0  0  0  0  0  0
   -1.1889    1.0345    0.6274 C   0  0  0  0  0  0  0  0  0  0  0  0
    0.1641    1.1891    0.2694 C   0  0  0  0  0  0  0  0  0  0  0  0
    1.0382    0.1227    0.0076 C   0  0  0  0  0  0  0  0  0  0  0  0
    2.3086    0.4558   -0.3266 O   0  0  0  0  0  0  0  0  0  0  0  0
    3.2593   -0.5667   -0.6003 C   0  0  0  0  0  0  0  0  0  0  0  0
    0.6007   -1.2317    0.0909 C   0  0  0  0  0  0  0  0  0  0  0  0
   -0.7061   -1.4826    0.4363 C   0  0  0  0  0  0  0  0  0  0  0  0
   -4.6915    3.7651   -0.6977 H   0  0  0  0  0  0  0  0  0  0  0  0
    0.6009    2.1847    0.1779 H   0  0  0  0  0  0  0  0  0  0  0  0
    4.1908   -0.0514   -0.8364 H   0  0  0  0  0  0  0  0  0  0  0  0
    2.9590   -1.1789   -1.4594 H   0  0  0  0  0  0  0  0  0  0  0  0
    3.4174   -1.2151    0.2704 H   0  0  0  0  0  0  0  0  0  0  0  0
    1.2744   -2.0544   -0.1122 H   0  0  0  0  0  0  0  0  0  0  0  0
   -1.0880   -2.4979    0.5142 H   0  0  0  0  0  0  0  0  0  0  0  0
   -6.1297    2.5916    0.3785 S   0  0  0  0  0  0  0  0  0  0  0  0
   -5.3274    2.5073    2.0614 C   0  0  0  0  0  0  0  0  0  0  0  0
   -7.5425    2.8362    0.5807 O   0  0  0  0  0  0  0  0  0  0  0  0
   -5.6078    1.4809   -0.4056 O   0  0  0  0  0  0  0  0  0  0  0  0
   -5.4745    3.9792   -0.1607 O   0  0  0  0  0  0  0  0  0  0  0  0
   -5.6465    3.5866    2.7693 F   0  0  0  0  0  0  0  0  0  0  0  0
   -5.7785    1.4138    2.6778 F   0  0  0  0  0  0  0  0  0  0  0  0
   -4.0072    2.4295    1.9172 F   0  0  0  0  0  0  0  0  0  0  0  0
  1  2  1  0  0  0  0
  2  3  1  0  0  0  0
  4  1  1  0  0  0  0
  5  4  2  0  0  0  0
  6  9  2  0  0  0  0
  6  5  1  0  0  0  0
  7  6  1  0  0  0  0
  8  7  1  0  0  0  0
  8 15  1  0  0  0  0
  9 10  1  0  0  0  0
 10 17  1  0  0  0  0
 10  1  2  0  0  0  0
 11 22  1  0  0  0  0
 12  5  1  0  0  0  0
 13  8  1  0  0  0  0
 14  8  1  0  0  0  0
 16  9  1  0  0  0  0
 18 20  2  0  0  0  0
 18 19  1  0  0  0  0
 19 24  1  0  0  0  0
 19 23  1  0  0  0  0
 21 18  2  0  0  0  0
 22 18  1  0  0  0  0
 25 19  1  0  0  0  0
M  RAD  3   2   2   3   3   4   2
M  END
