Coordinates from ORCA-job 4-MeOPhN2+~TfO-_B3LYPG-6-31G_dp-CH-Scan-d09-49-n800
 OpenBabel11261919093D

 25 24  0  0  0  0  0  0  0  0999 V2000
   -1.4994   -0.3442    0.6864 C   0  0  0  0  0  0  0  0  0  0  0  0
   -2.8152   -0.5718    1.0292 N   0  0  0  0  0  0  0  0  0  0  0  0
   -3.8936   -0.6789    1.3217 N   0  0  0  0  0  0  0  0  0  0  0  0
   -1.1625    1.0291    0.6644 C   0  0  0  0  0  0  0  0  0  0  0  0
    0.1928    1.1804    0.3135 C   0  0  0  0  0  0  0  0  0  0  0  0
    1.0584    0.1127    0.0299 C   0  0  0  0  0  0  0  0  0  0  0  0
    2.3321    0.4423   -0.2949 O   0  0  0  0  0  0  0  0  0  0  0  0
    3.2743   -0.5818   -0.5910 C   0  0  0  0  0  0  0  0  0  0  0  0
    0.6094   -1.2396    0.0827 C   0  0  0  0  0  0  0  0  0  0  0  0
   -0.7004   -1.4872    0.4187 C   0  0  0  0  0  0  0  0  0  0  0  0
   -4.8337    3.8000   -0.7594 H   0  0  0  0  0  0  0  0  0  0  0  0
    0.6382    2.1741    0.2456 H   0  0  0  0  0  0  0  0  0  0  0  0
    4.2097   -0.0691   -0.8174 H   0  0  0  0  0  0  0  0  0  0  0  0
    2.9684   -1.1734   -1.4624 H   0  0  0  0  0  0  0  0  0  0  0  0
    3.4283   -1.2495    0.2658 H   0  0  0  0  0  0  0  0  0  0  0  0
    1.2772   -2.0632   -0.1360 H   0  0  0  0  0  0  0  0  0  0  0  0
   -1.0910   -2.5008    0.4733 H   0  0  0  0  0  0  0  0  0  0  0  0
   -6.1816    2.5949    0.3943 S   0  0  0  0  0  0  0  0  0  0  0  0
   -5.2977    2.5255    2.0363 C   0  0  0  0  0  0  0  0  0  0  0  0
   -7.5885    2.8062    0.6643 O   0  0  0  0  0  0  0  0  0  0  0  0
   -5.6723    1.4999   -0.4198 O   0  0  0  0  0  0  0  0  0  0  0  0
   -5.5819    3.9986   -0.1695 O   0  0  0  0  0  0  0  0  0  0  0  0
   -5.6086    3.5953    2.7621 F   0  0  0  0  0  0  0  0  0  0  0  0
   -5.6932    1.4202    2.6703 F   0  0  0  0  0  0  0  0  0  0  0  0
   -3.9850    2.4791    1.8288 F   0  0  0  0  0  0  0  0  0  0  0  0
  1  2  1  0  0  0  0
  2  3  1  0  0  0  0
  4  1  1  0  0  0  0
  5  4  2  0  0  0  0
  6  9  2  0  0  0  0
  6  5  1  0  0  0  0
  7  6  1  0  0  0  0
  8  7  1  0  0  0  0
  8 15  1  0  0  0  0
  9 10  1  0  0  0  0
 10 17  1  0  0  0  0
 10  1  2  0  0  0  0
 11 22  1  0  0  0  0
 12  5  1  0  0  0  0
 13  8  1  0  0  0  0
 14  8  1  0  0  0  0
 16  9  1  0  0  0  0
 18 20  2  0  0  0  0
 18 19  1  0  0  0  0
 19 24  1  0  0  0  0
 19 23  1  0  0  0  0
 21 18  2  0  0  0  0
 22 18  1  0  0  0  0
 25 19  1  0  0  0  0
M  RAD  3   2   2   3   3   4   2
M  END
