Coordinates from ORCA-job 4-MeOPhN2+~TfO-_B3LYPG-6-31G_dp-CH-Scan-d09-49-n800
 OpenBabel11261919093D

 25 24  0  0  0  0  0  0  0  0999 V2000
   -1.5237   -0.3273    0.5709 C   0  0  0  0  0  0  0  0  0  0  0  0
   -2.8159   -0.5775    0.9721 N   0  0  0  0  0  0  0  0  0  0  0  0
   -3.8783   -0.7249    1.3015 N   0  0  0  0  0  0  0  0  0  0  0  0
   -1.2782    1.0236    0.2235 C   0  0  0  0  0  0  0  0  0  0  0  0
    0.0651    1.1847   -0.1608 C   0  0  0  0  0  0  0  0  0  0  0  0
    1.0083    0.1450   -0.1911 C   0  0  0  0  0  0  0  0  0  0  0  0
    2.2580    0.4808   -0.5881 O   0  0  0  0  0  0  0  0  0  0  0  0
    3.2747   -0.5136   -0.6461 C   0  0  0  0  0  0  0  0  0  0  0  0
    0.6543   -1.1850    0.1787 C   0  0  0  0  0  0  0  0  0  0  0  0
   -0.6383   -1.4385    0.5709 C   0  0  0  0  0  0  0  0  0  0  0  0
   -3.9205    3.3588   -0.0669 H   0  0  0  0  0  0  0  0  0  0  0  0
    0.4384    2.1633   -0.4640 H   0  0  0  0  0  0  0  0  0  0  0  0
    4.1735    0.0004   -0.9883 H   0  0  0  0  0  0  0  0  0  0  0  0
    3.0215   -1.3086   -1.3574 H   0  0  0  0  0  0  0  0  0  0  0  0
    3.4658   -0.9533    0.3403 H   0  0  0  0  0  0  0  0  0  0  0  0
    1.3792   -1.9888    0.1559 H   0  0  0  0  0  0  0  0  0  0  0  0
   -0.9560   -2.4360    0.8647 H   0  0  0  0  0  0  0  0  0  0  0  0
   -5.9106    2.6767    0.3660 S   0  0  0  0  0  0  0  0  0  0  0  0
   -5.7719    2.4445    2.2109 C   0  0  0  0  0  0  0  0  0  0  0  0
   -7.1850    3.3129    0.1050 O   0  0  0  0  0  0  0  0  0  0  0  0
   -5.4978    1.4229   -0.2481 O   0  0  0  0  0  0  0  0  0  0  0  0
   -4.7625    3.7986    0.1516 O   0  0  0  0  0  0  0  0  0  0  0  0
   -6.0172    3.5909    2.8372 F   0  0  0  0  0  0  0  0  0  0  0  0
   -6.6593    1.5255    2.5873 F   0  0  0  0  0  0  0  0  0  0  0  0
   -4.5395    2.0238    2.5112 F   0  0  0  0  0  0  0  0  0  0  0  0
  1 10  1  0  0  0  0
  1  2  1  0  0  0  0
  2  3  1  0  0  0  0
  4  1  2  0  0  0  0
  5  4  1  0  0  0  0
  6  5  2  0  0  0  0
  6  9  1  0  0  0  0
  7  6  1  0  0  0  0
  8  7  1  0  0  0  0
  8 15  1  0  0  0  0
  9 10  2  0  0  0  0
 10 17  1  0  0  0  0
 11 22  1  0  0  0  0
 12  5  1  0  0  0  0
 13  8  1  0  0  0  0
 14  8  1  0  0  0  0
 16  9  1  0  0  0  0
 18 19  1  0  0  0  0
 19 25  1  0  0  0  0
 19 24  1  0  0  0  0
 19 23  1  0  0  0  0
 20 18  2  0  0  0  0
 21 18  2  0  0  0  0
 22 18  1  0  0  0  0
M  RAD  3   2   2   3   3   4   2
M  END
