Coordinates from ORCA-job 4-MeOPhN2+~TfO-_B3LYPG-6-31G_dp-CH-Scan-d09-49-n800
 OpenBabel11261919093D

 25 24  0  0  0  0  0  0  0  0999 V2000
   -1.4560   -0.3048    0.5839 C   0  0  0  0  0  0  0  0  0  0  0  0
   -2.7551   -0.5225    0.9855 N   0  0  0  0  0  0  0  0  0  0  0  0
   -3.8213   -0.6351    1.3174 N   0  0  0  0  0  0  0  0  0  0  0  0
   -1.1782    1.0470    0.2689 C   0  0  0  0  0  0  0  0  0  0  0  0
    0.1689    1.1802   -0.1164 C   0  0  0  0  0  0  0  0  0  0  0  0
    1.0828    0.1164   -0.1754 C   0  0  0  0  0  0  0  0  0  0  0  0
    2.3409    0.4275   -0.5685 O   0  0  0  0  0  0  0  0  0  0  0  0
    3.3293   -0.5927   -0.6541 C   0  0  0  0  0  0  0  0  0  0  0  0
    0.6941   -1.2127    0.1627 C   0  0  0  0  0  0  0  0  0  0  0  0
   -0.6036   -1.4411    0.5538 C   0  0  0  0  0  0  0  0  0  0  0  0
   -4.1643    3.5547   -0.1682 H   0  0  0  0  0  0  0  0  0  0  0  0
    0.5685    2.1554   -0.3970 H   0  0  0  0  0  0  0  0  0  0  0  0
    4.2418   -0.0954   -0.9847 H   0  0  0  0  0  0  0  0  0  0  0  0
    3.0534   -1.3620   -1.3851 H   0  0  0  0  0  0  0  0  0  0  0  0
    3.5095   -1.0632    0.3202 H   0  0  0  0  0  0  0  0  0  0  0  0
    1.3972   -2.0348    0.1172 H   0  0  0  0  0  0  0  0  0  0  0  0
   -0.9477   -2.4364    0.8243 H   0  0  0  0  0  0  0  0  0  0  0  0
   -6.0543    2.6951    0.3788 S   0  0  0  0  0  0  0  0  0  0  0  0
   -5.8076    2.4474    2.2106 C   0  0  0  0  0  0  0  0  0  0  0  0
   -7.3897    3.2222    0.1902 O   0  0  0  0  0  0  0  0  0  0  0  0
   -5.5603    1.4964   -0.2834 O   0  0  0  0  0  0  0  0  0  0  0  0
   -5.0154    3.9175    0.1352 O   0  0  0  0  0  0  0  0  0  0  0  0
   -6.0991    3.5666    2.8656 F   0  0  0  0  0  0  0  0  0  0  0  0
   -6.6123    1.4653    2.6125 F   0  0  0  0  0  0  0  0  0  0  0  0
   -4.5371    2.1079    2.4430 F   0  0  0  0  0  0  0  0  0  0  0  0
  1  2  1  0  0  0  0
  2  3  1  0  0  0  0
  4  1  2  0  0  0  0
  5  4  1  0  0  0  0
  6  5  2  0  0  0  0
  6  9  1  0  0  0  0
  7  6  1  0  0  0  0
  8  7  1  0  0  0  0
  8 15  1  0  0  0  0
  9 10  2  0  0  0  0
 10  1  1  0  0  0  0
 10 17  1  0  0  0  0
 11 22  1  0  0  0  0
 12  5  1  0  0  0  0
 13  8  1  0  0  0  0
 14  8  1  0  0  0  0
 16  9  1  0  0  0  0
 18 19  1  0  0  0  0
 19 25  1  0  0  0  0
 19 24  1  0  0  0  0
 19 23  1  0  0  0  0
 20 18  2  0  0  0  0
 21 18  2  0  0  0  0
 22 18  1  0  0  0  0
M  RAD  3   2   2   3   3   4   2
M  END
