Coordinates from ORCA-job 4-MeOPhN2+~TfO-_B3LYPG-6-31G_dp-CH-Scan-d09-49-n800
 OpenBabel11261919093D

 25 24  0  0  0  0  0  0  0  0999 V2000
   -1.6492   -0.3998    0.4718 C   0  0  0  0  0  0  0  0  0  0  0  0
   -2.9394   -0.7159    0.8253 N   0  0  0  0  0  0  0  0  0  0  0  0
   -4.0029   -0.9255    1.1132 N   0  0  0  0  0  0  0  0  0  0  0  0
   -1.4507    0.9553    0.1081 C   0  0  0  0  0  0  0  0  0  0  0  0
   -0.1050    1.1799   -0.2257 C   0  0  0  0  0  0  0  0  0  0  0  0
    0.8903    0.1891   -0.1963 C   0  0  0  0  0  0  0  0  0  0  0  0
    2.1358    0.5824   -0.5465 O   0  0  0  0  0  0  0  0  0  0  0  0
    3.2053   -0.3574   -0.5388 C   0  0  0  0  0  0  0  0  0  0  0  0
    0.5872   -1.1495    0.1842 C   0  0  0  0  0  0  0  0  0  0  0  0
   -0.7066   -1.4613    0.5276 C   0  0  0  0  0  0  0  0  0  0  0  0
   -3.6972    2.9905   -0.0879 H   0  0  0  0  0  0  0  0  0  0  0  0
    0.2292    2.1711   -0.5321 H   0  0  0  0  0  0  0  0  0  0  0  0
    4.0902    0.1979   -0.8510 H   0  0  0  0  0  0  0  0  0  0  0  0
    3.0265   -1.1774   -1.2442 H   0  0  0  0  0  0  0  0  0  0  0  0
    3.3735   -0.7679    0.4641 H   0  0  0  0  0  0  0  0  0  0  0  0
    1.3512   -1.9160    0.2073 H   0  0  0  0  0  0  0  0  0  0  0  0
   -0.9855   -2.4686    0.8265 H   0  0  0  0  0  0  0  0  0  0  0  0
   -5.7623    2.6381    0.3927 S   0  0  0  0  0  0  0  0  0  0  0  0
   -5.5849    2.4935    2.2424 C   0  0  0  0  0  0  0  0  0  0  0  0
   -6.9414    3.4382    0.1333 O   0  0  0  0  0  0  0  0  0  0  0  0
   -5.5721    1.2980   -0.1460 O   0  0  0  0  0  0  0  0  0  0  0  0
   -4.4787    3.5586    0.0667 O   0  0  0  0  0  0  0  0  0  0  0  0
   -5.5955    3.6985    2.8035 F   0  0  0  0  0  0  0  0  0  0  0  0
   -6.6012    1.7700    2.7111 F   0  0  0  0  0  0  0  0  0  0  0  0
   -4.4325    1.8771    2.5276 F   0  0  0  0  0  0  0  0  0  0  0  0
  1 10  1  0  0  0  0
  1  2  1  0  0  0  0
  2  3  1  0  0  0  0
  4  1  2  0  0  0  0
  5  6  2  0  0  0  0
  5  4  1  0  0  0  0
  6  9  1  0  0  0  0
  7  8  1  0  0  0  0
  7  6  1  0  0  0  0
  8 15  1  0  0  0  0
  9 16  1  0  0  0  0
  9 10  2  0  0  0  0
 10 17  1  0  0  0  0
 11 22  1  0  0  0  0
 12  5  1  0  0  0  0
 13  8  1  0  0  0  0
 14  8  1  0  0  0  0
 18 19  1  0  0  0  0
 19 25  1  0  0  0  0
 19 24  1  0  0  0  0
 19 23  1  0  0  0  0
 20 18  2  0  0  0  0
 21 18  2  0  0  0  0
 22 18  1  0  0  0  0
M  RAD  3   2   2   3   3   4   2
M  END
