Coordinates from ORCA-job 4-MeOPhN2+~TfO-_B3LYPG-6-31G_dp-CH-Scan-d09-49-n800
 OpenBabel11261919093D

 25 24  0  0  0  0  0  0  0  0999 V2000
   -1.5159   -0.3393    0.6636 C   0  0  0  0  0  0  0  0  0  0  0  0
   -2.8244   -0.5712    1.0287 N   0  0  0  0  0  0  0  0  0  0  0  0
   -3.8969   -0.6840    1.3400 N   0  0  0  0  0  0  0  0  0  0  0  0
   -1.2017    1.0363    0.5643 C   0  0  0  0  0  0  0  0  0  0  0  0
    0.1506    1.1901    0.2034 C   0  0  0  0  0  0  0  0  0  0  0  0
    1.0344    0.1231   -0.0206 C   0  0  0  0  0  0  0  0  0  0  0  0
    2.3028    0.4555   -0.3621 O   0  0  0  0  0  0  0  0  0  0  0  0
    3.2632   -0.5675   -0.5978 C   0  0  0  0  0  0  0  0  0  0  0  0
    0.6076   -1.2314    0.1062 C   0  0  0  0  0  0  0  0  0  0  0  0
   -0.6976   -1.4816    0.4575 C   0  0  0  0  0  0  0  0  0  0  0  0
   -4.6345    3.7842   -0.6419 H   0  0  0  0  0  0  0  0  0  0  0  0
    0.5793    2.1856    0.0791 H   0  0  0  0  0  0  0  0  0  0  0  0
    4.1920   -0.0524   -0.8454 H   0  0  0  0  0  0  0  0  0  0  0  0
    2.9725   -1.2093   -1.4382 H   0  0  0  0  0  0  0  0  0  0  0  0
    3.4217   -1.1862    0.2941 H   0  0  0  0  0  0  0  0  0  0  0  0
    1.2883   -2.0550   -0.0685 H   0  0  0  0  0  0  0  0  0  0  0  0
   -1.0712   -2.4969    0.5684 H   0  0  0  0  0  0  0  0  0  0  0  0
   -6.1114    2.6070    0.3755 S   0  0  0  0  0  0  0  0  0  0  0  0
   -5.3636    2.4867    2.0810 C   0  0  0  0  0  0  0  0  0  0  0  0
   -7.5275    2.8612    0.5399 O   0  0  0  0  0  0  0  0  0  0  0  0
   -5.5762    1.5043   -0.4106 O   0  0  0  0  0  0  0  0  0  0  0  0
   -5.4277    3.9969   -0.1197 O   0  0  0  0  0  0  0  0  0  0  0  0
   -5.6856    3.5624    2.7932 F   0  0  0  0  0  0  0  0  0  0  0  0
   -5.8535    1.3937    2.6677 F   0  0  0  0  0  0  0  0  0  0  0  0
   -4.0406    2.3866    1.9792 F   0  0  0  0  0  0  0  0  0  0  0  0
  1  2  1  0  0  0  0
  2  3  1  0  0  0  0
  4  1  1  0  0  0  0
  5  4  2  0  0  0  0
  6  9  2  0  0  0  0
  6  5  1  0  0  0  0
  7  6  1  0  0  0  0
  8  7  1  0  0  0  0
  8 15  1  0  0  0  0
  9 10  1  0  0  0  0
 10 17  1  0  0  0  0
 10  1  2  0  0  0  0
 11 22  1  0  0  0  0
 12  5  1  0  0  0  0
 13  8  1  0  0  0  0
 14  8  1  0  0  0  0
 16  9  1  0  0  0  0
 18 20  2  0  0  0  0
 18 19  1  0  0  0  0
 19 24  1  0  0  0  0
 19 23  1  0  0  0  0
 21 18  2  0  0  0  0
 22 18  1  0  0  0  0
 25 19  1  0  0  0  0
M  RAD  3   2   2   3   3   4   2
M  END
