Coordinates from ORCA-job 4-MeOPhN2+~TfO-_B3LYPG-6-31G_dp-CH-Scan-d09-49-n800
 OpenBabel11261919093D

 25 24  0  0  0  0  0  0  0  0999 V2000
   -1.8152   -0.3317    0.7426 C   0  0  0  0  0  0  0  0  0  0  0  0
   -3.0492   -0.6997    1.2098 N   0  0  0  0  0  0  0  0  0  0  0  0
   -4.0645   -0.9702    1.5921 N   0  0  0  0  0  0  0  0  0  0  0  0
   -1.6133    1.0396    0.4474 C   0  0  0  0  0  0  0  0  0  0  0  0
   -0.3314    1.3222   -0.0112 C   0  0  0  0  0  0  0  0  0  0  0  0
    0.6617    0.3357   -0.1667 C   0  0  0  0  0  0  0  0  0  0  0  0
    1.8503    0.7658   -0.6232 O   0  0  0  0  0  0  0  0  0  0  0  0
    2.9164   -0.1634   -0.8209 C   0  0  0  0  0  0  0  0  0  0  0  0
    0.3930   -1.0222    0.1477 C   0  0  0  0  0  0  0  0  0  0  0  0
   -0.8574   -1.3661    0.6100 C   0  0  0  0  0  0  0  0  0  0  0  0
   -2.7146    2.0971    0.5580 H   0  0  0  0  0  0  0  0  0  0  0  0
   -0.0563    2.3401   -0.2754 H   0  0  0  0  0  0  0  0  0  0  0  0
    3.7528    0.4254   -1.1966 H   0  0  0  0  0  0  0  0  0  0  0  0
    2.6468   -0.9259   -1.5600 H   0  0  0  0  0  0  0  0  0  0  0  0
    3.2050   -0.6442    0.1206 H   0  0  0  0  0  0  0  0  0  0  0  0
    1.1493   -1.7874    0.0290 H   0  0  0  0  0  0  0  0  0  0  0  0
   -1.0995   -2.3941    0.8620 H   0  0  0  0  0  0  0  0  0  0  0  0
   -4.9665    2.4781    0.2923 S   0  0  0  0  0  0  0  0  0  0  0  0
   -5.7121    2.4441    1.9940 C   0  0  0  0  0  0  0  0  0  0  0  0
   -5.7241    3.4692   -0.4600 O   0  0  0  0  0  0  0  0  0  0  0  0
   -4.9731    1.0704   -0.1379 O   0  0  0  0  0  0  0  0  0  0  0  0
   -3.5347    2.9539    0.6229 O   0  0  0  0  0  0  0  0  0  0  0  0
   -5.6715    3.6493    2.5641 F   0  0  0  0  0  0  0  0  0  0  0  0
   -6.9821    2.0338    1.9273 F   0  0  0  0  0  0  0  0  0  0  0  0
   -5.0253    1.5792    2.7690 F   0  0  0  0  0  0  0  0  0  0  0  0
  1  2  1  0  0  0  0
  2  3  1  0  0  0  0
  4  1  2  0  0  0  0
  5  4  1  0  0  0  0
  6  5  2  0  0  0  0
  6  9  1  0  0  0  0
  7  6  1  0  0  0  0
  8  7  1  0  0  0  0
  8 15  1  0  0  0  0
  9 10  2  0  0  0  0
 10  1  1  0  0  0  0
 10 17  1  0  0  0  0
 11 22  1  0  0  0  0
 12  5  1  0  0  0  0
 13  8  1  0  0  0  0
 14  8  1  0  0  0  0
 16  9  1  0  0  0  0
 18 22  1  0  0  0  0
 18 19  1  0  0  0  0
 19 23  1  0  0  0  0
 19 25  1  0  0  0  0
 20 18  2  0  0  0  0
 21 18  2  0  0  0  0
 24 19  1  0  0  0  0
M  RAD  3   2   2   3   3   4   2
M  END
