Coordinates from ORCA-job 4-MeOPhN2+~TfO-_B3LYPG-6-31G_dp-CH-Scan-d09-49-n800
 OpenBabel11261919093D

 25 24  0  0  0  0  0  0  0  0999 V2000
   -1.8451   -0.3584    0.6745 C   0  0  0  0  0  0  0  0  0  0  0  0
   -3.0857   -0.7405    1.1134 N   0  0  0  0  0  0  0  0  0  0  0  0
   -4.1067   -1.0217    1.4729 N   0  0  0  0  0  0  0  0  0  0  0  0
   -1.6601    1.0124    0.3644 C   0  0  0  0  0  0  0  0  0  0  0  0
   -0.3672    1.3046   -0.0605 C   0  0  0  0  0  0  0  0  0  0  0  0
    0.6458    0.3326   -0.1694 C   0  0  0  0  0  0  0  0  0  0  0  0
    1.8423    0.7752   -0.5941 O   0  0  0  0  0  0  0  0  0  0  0  0
    2.9306   -0.1379   -0.7353 C   0  0  0  0  0  0  0  0  0  0  0  0
    0.3893   -1.0251    0.1570 C   0  0  0  0  0  0  0  0  0  0  0  0
   -0.8690   -1.3812    0.5864 C   0  0  0  0  0  0  0  0  0  0  0  0
   -2.7905    2.1010    0.4330 H   0  0  0  0  0  0  0  0  0  0  0  0
   -0.0973    2.3222   -0.3317 H   0  0  0  0  0  0  0  0  0  0  0  0
    3.7707    0.4592   -1.0891 H   0  0  0  0  0  0  0  0  0  0  0  0
    2.7028   -0.9176   -1.4705 H   0  0  0  0  0  0  0  0  0  0  0  0
    3.1915   -0.5979    0.2246 H   0  0  0  0  0  0  0  0  0  0  0  0
    1.1607   -1.7797    0.0735 H   0  0  0  0  0  0  0  0  0  0  0  0
   -1.1033   -2.4090    0.8470 H   0  0  0  0  0  0  0  0  0  0  0  0
   -5.0319    2.4780    0.2812 S   0  0  0  0  0  0  0  0  0  0  0  0
   -5.5964    2.4606    2.0517 C   0  0  0  0  0  0  0  0  0  0  0  0
   -5.8499    3.4733   -0.3967 O   0  0  0  0  0  0  0  0  0  0  0  0
   -5.0848    1.0691   -0.1356 O   0  0  0  0  0  0  0  0  0  0  0  0
   -3.5686    2.9551    0.4594 O   0  0  0  0  0  0  0  0  0  0  0  0
   -5.4901    3.6699    2.6036 F   0  0  0  0  0  0  0  0  0  0  0  0
   -6.8679    2.0569    2.1221 F   0  0  0  0  0  0  0  0  0  0  0  0
   -4.8350    1.5976    2.7553 F   0  0  0  0  0  0  0  0  0  0  0  0
  1  2  1  0  0  0  0
  2  3  1  0  0  0  0
  4  1  2  0  0  0  0
  5  4  1  0  0  0  0
  6  5  2  0  0  0  0
  6  9  1  0  0  0  0
  7  6  1  0  0  0  0
  8  7  1  0  0  0  0
  8 15  1  0  0  0  0
  9 10  2  0  0  0  0
 10  1  1  0  0  0  0
 10 17  1  0  0  0  0
 11 22  1  0  0  0  0
 12  5  1  0  0  0  0
 13  8  1  0  0  0  0
 14  8  1  0  0  0  0
 16  9  1  0  0  0  0
 18 22  1  0  0  0  0
 18 19  1  0  0  0  0
 19 24  1  0  0  0  0
 19 23  1  0  0  0  0
 19 25  1  0  0  0  0
 20 18  2  0  0  0  0
 21 18  2  0  0  0  0
M  RAD  3   2   2   3   3   4   2
M  END
