Coordinates from ORCA-job 4-MeOPhN2+~TfO-_B3LYPG-6-31G_dp-CH-Scan-d09-49-n800
 OpenBabel11261919093D

 25 24  0  0  0  0  0  0  0  0999 V2000
   -1.5389   -0.3301    0.5696 C   0  0  0  0  0  0  0  0  0  0  0  0
   -2.8295   -0.5866    0.9711 N   0  0  0  0  0  0  0  0  0  0  0  0
   -3.8909   -0.7407    1.3004 N   0  0  0  0  0  0  0  0  0  0  0  0
   -1.2990    1.0207    0.2173 C   0  0  0  0  0  0  0  0  0  0  0  0
    0.0435    1.1871   -0.1670 C   0  0  0  0  0  0  0  0  0  0  0  0
    0.9918    0.1519   -0.1929 C   0  0  0  0  0  0  0  0  0  0  0  0
    2.2399    0.4924   -0.5903 O   0  0  0  0  0  0  0  0  0  0  0  0
    3.2617   -0.4971   -0.6436 C   0  0  0  0  0  0  0  0  0  0  0  0
    0.6440   -1.1782    0.1817 C   0  0  0  0  0  0  0  0  0  0  0  0
   -0.6476   -1.4366    0.5741 C   0  0  0  0  0  0  0  0  0  0  0  0
   -3.8732    3.3144   -0.0498 H   0  0  0  0  0  0  0  0  0  0  0  0
    0.4119    2.1664   -0.4736 H   0  0  0  0  0  0  0  0  0  0  0  0
    4.1581    0.0201   -0.9873 H   0  0  0  0  0  0  0  0  0  0  0  0
    3.0130   -1.2961   -1.3519 H   0  0  0  0  0  0  0  0  0  0  0  0
    3.4543   -0.9318    0.3446 H   0  0  0  0  0  0  0  0  0  0  0  0
    1.3727   -1.9786    0.1624 H   0  0  0  0  0  0  0  0  0  0  0  0
   -0.9605   -2.4345    0.8712 H   0  0  0  0  0  0  0  0  0  0  0  0
   -5.8808    2.6717    0.3625 S   0  0  0  0  0  0  0  0  0  0  0  0
   -5.7583    2.4419    2.2087 C   0  0  0  0  0  0  0  0  0  0  0  0
   -7.1413    3.3311    0.0914 O   0  0  0  0  0  0  0  0  0  0  0  0
   -5.4893    1.4075   -0.2446 O   0  0  0  0  0  0  0  0  0  0  0  0
   -4.7110    3.7705    0.1520 O   0  0  0  0  0  0  0  0  0  0  0  0
   -5.9931    3.5925    2.8313 F   0  0  0  0  0  0  0  0  0  0  0  0
   -6.6598    1.5350    2.5812 F   0  0  0  0  0  0  0  0  0  0  0  0
   -4.5332    2.0062    2.5186 F   0  0  0  0  0  0  0  0  0  0  0  0
  1 10  1  0  0  0  0
  1  2  1  0  0  0  0
  2  3  1  0  0  0  0
  4  1  2  0  0  0  0
  5  4  1  0  0  0  0
  6  5  2  0  0  0  0
  6  9  1  0  0  0  0
  7  6  1  0  0  0  0
  8  7  1  0  0  0  0
  8 15  1  0  0  0  0
  9 10  2  0  0  0  0
 10 17  1  0  0  0  0
 11 22  1  0  0  0  0
 12  5  1  0  0  0  0
 13  8  1  0  0  0  0
 14  8  1  0  0  0  0
 16  9  1  0  0  0  0
 18 19  1  0  0  0  0
 19 25  1  0  0  0  0
 19 24  1  0  0  0  0
 19 23  1  0  0  0  0
 20 18  2  0  0  0  0
 21 18  2  0  0  0  0
 22 18  1  0  0  0  0
M  RAD  3   2   2   3   3   4   2
M  END
