Coordinates from ORCA-job 4-MeOPhN2+~TfO-_B3LYPG-6-31G_dp-CH-Scan-d09-49-n800
 OpenBabel11261919093D

 25 24  0  0  0  0  0  0  0  0999 V2000
   -1.4360   -0.2925    0.5936 C   0  0  0  0  0  0  0  0  0  0  0  0
   -2.7368   -0.4986    0.9965 N   0  0  0  0  0  0  0  0  0  0  0  0
   -3.8032   -0.5993    1.3316 N   0  0  0  0  0  0  0  0  0  0  0  0
   -1.1429    1.0609    0.3007 C   0  0  0  0  0  0  0  0  0  0  0  0
    0.2052    1.1836   -0.0854 C   0  0  0  0  0  0  0  0  0  0  0  0
    1.1057    0.1098   -0.1641 C   0  0  0  0  0  0  0  0  0  0  0  0
    2.3672    0.4117   -0.5539 O   0  0  0  0  0  0  0  0  0  0  0  0
    3.3426   -0.6191   -0.6572 C   0  0  0  0  0  0  0  0  0  0  0  0
    0.7009   -1.2202    0.1517 C   0  0  0  0  0  0  0  0  0  0  0  0
   -0.5987   -1.4390    0.5420 C   0  0  0  0  0  0  0  0  0  0  0  0
   -4.2521    3.6115   -0.2107 H   0  0  0  0  0  0  0  0  0  0  0  0
    0.6166    2.1585   -0.3504 H   0  0  0  0  0  0  0  0  0  0  0  0
    4.2615   -0.1277   -0.9788 H   0  0  0  0  0  0  0  0  0  0  0  0
    3.0574   -1.3719   -1.4018 H   0  0  0  0  0  0  0  0  0  0  0  0
    3.5163   -1.1092    0.3085 H   0  0  0  0  0  0  0  0  0  0  0  0
    1.3935   -2.0501    0.0901 H   0  0  0  0  0  0  0  0  0  0  0  0
   -0.9549   -2.4345    0.7960 H   0  0  0  0  0  0  0  0  0  0  0  0
   -6.0992    2.6908    0.3800 S   0  0  0  0  0  0  0  0  0  0  0  0
   -5.8065    2.4500    2.2059 C   0  0  0  0  0  0  0  0  0  0  0  0
   -7.4547    3.1739    0.2200 O   0  0  0  0  0  0  0  0  0  0  0  0
   -5.5791    1.5105   -0.2951 O   0  0  0  0  0  0  0  0  0  0  0  0
   -5.1056    3.9471    0.1161 O   0  0  0  0  0  0  0  0  0  0  0  0
   -6.1131    3.5614    2.8672 F   0  0  0  0  0  0  0  0  0  0  0  0
   -6.5770    1.4475    2.6240 F   0  0  0  0  0  0  0  0  0  0  0  0
   -4.5232    2.1437    2.4105 F   0  0  0  0  0  0  0  0  0  0  0  0
  1  2  1  0  0  0  0
  2  3  1  0  0  0  0
  4  1  2  0  0  0  0
  5  4  1  0  0  0  0
  6  5  2  0  0  0  0
  6  9  1  0  0  0  0
  7  6  1  0  0  0  0
  8  7  1  0  0  0  0
  8 15  1  0  0  0  0
  9 10  2  0  0  0  0
 10  1  1  0  0  0  0
 10 17  1  0  0  0  0
 11 22  1  0  0  0  0
 12  5  1  0  0  0  0
 13  8  1  0  0  0  0
 14  8  1  0  0  0  0
 16  9  1  0  0  0  0
 18 19  1  0  0  0  0
 19 25  1  0  0  0  0
 19 24  1  0  0  0  0
 19 23  1  0  0  0  0
 20 18  2  0  0  0  0
 21 18  2  0  0  0  0
 22 18  1  0  0  0  0
M  RAD  3   2   2   3   3   4   2
M  END
