Coordinates from ORCA-job 4-MeOPhN2+~TfO-_B3LYPG-6-31G_dp-CH-Scan-d09-49-n800
 OpenBabel11261919093D

 25 24  0  0  0  0  0  0  0  0999 V2000
   -1.7718   -0.4194    0.5247 C   0  0  0  0  0  0  0  0  0  0  0  0
   -3.0393   -0.7916    0.8966 N   0  0  0  0  0  0  0  0  0  0  0  0
   -4.0839   -1.0586    1.2013 N   0  0  0  0  0  0  0  0  0  0  0  0
   -1.6073    0.9479    0.1854 C   0  0  0  0  0  0  0  0  0  0  0  0
   -0.2806    1.2243   -0.1691 C   0  0  0  0  0  0  0  0  0  0  0  0
    0.7444    0.2622   -0.1814 C   0  0  0  0  0  0  0  0  0  0  0  0
    1.9674    0.7013   -0.5456 O   0  0  0  0  0  0  0  0  0  0  0  0
    3.0667   -0.2048   -0.5804 C   0  0  0  0  0  0  0  0  0  0  0  0
    0.4856   -1.0908    0.1742 C   0  0  0  0  0  0  0  0  0  0  0  0
   -0.7922   -1.4470    0.5355 C   0  0  0  0  0  0  0  0  0  0  0  0
   -3.2753    2.5183    0.1257 H   0  0  0  0  0  0  0  0  0  0  0  0
    0.0135    2.2319   -0.4587 H   0  0  0  0  0  0  0  0  0  0  0  0
    3.9268    0.3862   -0.8959 H   0  0  0  0  0  0  0  0  0  0  0  0
    2.8983   -1.0126   -1.3018 H   0  0  0  0  0  0  0  0  0  0  0  0
    3.2661   -0.6318    0.4095 H   0  0  0  0  0  0  0  0  0  0  0  0
    1.2704   -1.8362    0.1649 H   0  0  0  0  0  0  0  0  0  0  0  0
   -1.0349   -2.4683    0.8164 H   0  0  0  0  0  0  0  0  0  0  0  0
   -5.4267    2.5513    0.3290 S   0  0  0  0  0  0  0  0  0  0  0  0
   -5.5115    2.5078    2.1884 C   0  0  0  0  0  0  0  0  0  0  0  0
   -6.4278    3.4989   -0.1209 O   0  0  0  0  0  0  0  0  0  0  0  0
   -5.4190    1.1565   -0.1008 O   0  0  0  0  0  0  0  0  0  0  0  0
   -3.9906    3.2162    0.1331 O   0  0  0  0  0  0  0  0  0  0  0  0
   -5.3846    3.7328    2.6920 F   0  0  0  0  0  0  0  0  0  0  0  0
   -6.6853    1.9932    2.5570 F   0  0  0  0  0  0  0  0  0  0  0  0
   -4.5244    1.7313    2.6580 F   0  0  0  0  0  0  0  0  0  0  0  0
  1 10  1  0  0  0  0
  1  2  1  0  0  0  0
  2  3  1  0  0  0  0
  4  1  2  0  0  0  0
  5  4  1  0  0  0  0
  6  5  2  0  0  0  0
  6  9  1  0  0  0  0
  7  6  1  0  0  0  0
  8  7  1  0  0  0  0
  8 15  1  0  0  0  0
  9 10  2  0  0  0  0
 10 17  1  0  0  0  0
 11 22  1  0  0  0  0
 12  5  1  0  0  0  0
 13  8  1  0  0  0  0
 14  8  1  0  0  0  0
 16  9  1  0  0  0  0
 18 19  1  0  0  0  0
 19 24  1  0  0  0  0
 19 25  1  0  0  0  0
 19 23  1  0  0  0  0
 20 18  2  0  0  0  0
 21 18  2  0  0  0  0
 22 18  1  0  0  0  0
M  RAD  3   2   2   3   3   4   2
M  END
