Coordinates from ORCA-job 4-MeOPhN2+~TfO-_B3LYPG-6-31G_dp-CH-Scan-d09-49-n800
 OpenBabel11261919093D

 25 24  0  0  0  0  0  0  0  0999 V2000
   -1.5209   -0.3267    0.5712 C   0  0  0  0  0  0  0  0  0  0  0  0
   -2.8134   -0.5757    0.9724 N   0  0  0  0  0  0  0  0  0  0  0  0
   -3.8759   -0.7218    1.3018 N   0  0  0  0  0  0  0  0  0  0  0  0
   -1.2743    1.0242    0.2248 C   0  0  0  0  0  0  0  0  0  0  0  0
    0.0692    1.1842   -0.1596 C   0  0  0  0  0  0  0  0  0  0  0  0
    1.0113    0.1437   -0.1907 C   0  0  0  0  0  0  0  0  0  0  0  0
    2.2613    0.4786   -0.5877 O   0  0  0  0  0  0  0  0  0  0  0  0
    3.2771   -0.5167   -0.6465 C   0  0  0  0  0  0  0  0  0  0  0  0
    0.6562   -1.1862    0.1782 C   0  0  0  0  0  0  0  0  0  0  0  0
   -0.6366   -1.4389    0.5704 C   0  0  0  0  0  0  0  0  0  0  0  0
   -3.9295    3.3671   -0.0702 H   0  0  0  0  0  0  0  0  0  0  0  0
    0.4433    2.1628   -0.4621 H   0  0  0  0  0  0  0  0  0  0  0  0
    4.1763   -0.0033   -0.9884 H   0  0  0  0  0  0  0  0  0  0  0  0
    3.0230   -1.3109   -1.3584 H   0  0  0  0  0  0  0  0  0  0  0  0
    3.4679   -0.9573    0.3395 H   0  0  0  0  0  0  0  0  0  0  0  0
    1.3804   -1.9906    0.1548 H   0  0  0  0  0  0  0  0  0  0  0  0
   -0.9552   -2.4363    0.8635 H   0  0  0  0  0  0  0  0  0  0  0  0
   -5.9162    2.6777    0.3667 S   0  0  0  0  0  0  0  0  0  0  0  0
   -5.7742    2.4448    2.2112 C   0  0  0  0  0  0  0  0  0  0  0  0
   -7.1932    3.3096    0.1077 O   0  0  0  0  0  0  0  0  0  0  0  0
   -5.4996    1.4259   -0.2490 O   0  0  0  0  0  0  0  0  0  0  0  0
   -4.7721    3.8038    0.1515 O   0  0  0  0  0  0  0  0  0  0  0  0
   -6.0215    3.5904    2.8383 F   0  0  0  0  0  0  0  0  0  0  0  0
   -6.6589    1.5235    2.5883 F   0  0  0  0  0  0  0  0  0  0  0  0
   -4.5403    2.0271    2.5095 F   0  0  0  0  0  0  0  0  0  0  0  0
  1  2  1  0  0  0  0
  2  3  1  0  0  0  0
  4  1  2  0  0  0  0
  5  4  1  0  0  0  0
  6  5  2  0  0  0  0
  6  9  1  0  0  0  0
  7  6  1  0  0  0  0
  8  7  1  0  0  0  0
  8 15  1  0  0  0  0
  9 10  2  0  0  0  0
 10  1  1  0  0  0  0
 10 17  1  0  0  0  0
 11 22  1  0  0  0  0
 12  5  1  0  0  0  0
 13  8  1  0  0  0  0
 14  8  1  0  0  0  0
 16  9  1  0  0  0  0
 18 19  1  0  0  0  0
 19 25  1  0  0  0  0
 19 24  1  0  0  0  0
 19 23  1  0  0  0  0
 20 18  2  0  0  0  0
 21 18  2  0  0  0  0
 22 18  1  0  0  0  0
M  RAD  3   2   2   3   3   4   2
M  END
