Coordinates from ORCA-job 4-MeOPhN2+~TfO-_B3LYPG-6-31G_dp-CH-Scan-d09-49-n800
 OpenBabel11261919093D

 25 24  0  0  0  0  0  0  0  0999 V2000
   -1.4650   -0.3091    0.5812 C   0  0  0  0  0  0  0  0  0  0  0  0
   -2.7632   -0.5316    0.9825 N   0  0  0  0  0  0  0  0  0  0  0  0
   -3.8291   -0.6493    1.3136 N   0  0  0  0  0  0  0  0  0  0  0  0
   -1.1927    1.0423    0.2596 C   0  0  0  0  0  0  0  0  0  0  0  0
    0.1539    1.1797   -0.1255 C   0  0  0  0  0  0  0  0  0  0  0  0
    1.0727    0.1199   -0.1788 C   0  0  0  0  0  0  0  0  0  0  0  0
    2.3294    0.4346   -0.5729 O   0  0  0  0  0  0  0  0  0  0  0  0
    3.3225   -0.5814   -0.6532 C   0  0  0  0  0  0  0  0  0  0  0  0
    0.6898   -1.2092    0.1660 C   0  0  0  0  0  0  0  0  0  0  0  0
   -0.6071   -1.4414    0.5574 C   0  0  0  0  0  0  0  0  0  0  0  0
   -4.1278    3.5288   -0.1520 H   0  0  0  0  0  0  0  0  0  0  0  0
    0.5492    2.1554   -0.4108 H   0  0  0  0  0  0  0  0  0  0  0  0
    4.2327   -0.0818   -0.9865 H   0  0  0  0  0  0  0  0  0  0  0  0
    3.0501   -1.3558   -1.3801 H   0  0  0  0  0  0  0  0  0  0  0  0
    3.5050   -1.0459    0.3235 H   0  0  0  0  0  0  0  0  0  0  0  0
    1.3966   -2.0283    0.1251 H   0  0  0  0  0  0  0  0  0  0  0  0
   -0.9468   -2.4369    0.8328 H   0  0  0  0  0  0  0  0  0  0  0  0
   -6.0343    2.6944    0.3775 S   0  0  0  0  0  0  0  0  0  0  0  0
   -5.8057    2.4470    2.2117 C   0  0  0  0  0  0  0  0  0  0  0  0
   -7.3613    3.2382    0.1770 O   0  0  0  0  0  0  0  0  0  0  0  0
   -5.5510    1.4877   -0.2778 O   0  0  0  0  0  0  0  0  0  0  0  0
   -4.9782    3.9027    0.1402 O   0  0  0  0  0  0  0  0  0  0  0  0
   -6.0912    3.5701    2.8628 F   0  0  0  0  0  0  0  0  0  0  0  0
   -6.6236    1.4738    2.6084 F   0  0  0  0  0  0  0  0  0  0  0  0
   -4.5407    2.0948    2.4554 F   0  0  0  0  0  0  0  0  0  0  0  0
  1  2  1  0  0  0  0
  2  3  1  0  0  0  0
  4  1  2  0  0  0  0
  5  4  1  0  0  0  0
  6  5  2  0  0  0  0
  6  9  1  0  0  0  0
  7  6  1  0  0  0  0
  8  7  1  0  0  0  0
  8 15  1  0  0  0  0
  9 10  2  0  0  0  0
 10  1  1  0  0  0  0
 10 17  1  0  0  0  0
 11 22  1  0  0  0  0
 12  5  1  0  0  0  0
 13  8  1  0  0  0  0
 14  8  1  0  0  0  0
 16  9  1  0  0  0  0
 18 19  1  0  0  0  0
 19 25  1  0  0  0  0
 19 24  1  0  0  0  0
 19 23  1  0  0  0  0
 20 18  2  0  0  0  0
 21 18  2  0  0  0  0
 22 18  1  0  0  0  0
M  RAD  3   2   2   3   3   4   2
M  END
