Coordinates from ORCA-job 4-MeOPhN2+~TfO-_B3LYPG-6-31G_dp-CH-Scan-d09-49-n800
 OpenBabel11261919093D

 25 24  0  0  0  0  0  0  0  0999 V2000
   -1.7061   -0.4088    0.4899 C   0  0  0  0  0  0  0  0  0  0  0  0
   -2.9858   -0.7511    0.8526 N   0  0  0  0  0  0  0  0  0  0  0  0
   -4.0406   -0.9885    1.1492 N   0  0  0  0  0  0  0  0  0  0  0  0
   -1.5231    0.9514    0.1352 C   0  0  0  0  0  0  0  0  0  0  0  0
   -0.1853    1.1997   -0.2060 C   0  0  0  0  0  0  0  0  0  0  0  0
    0.8242    0.2224   -0.1917 C   0  0  0  0  0  0  0  0  0  0  0  0
    2.0604    0.6366   -0.5461 O   0  0  0  0  0  0  0  0  0  0  0  0
    3.1443   -0.2876   -0.5533 C   0  0  0  0  0  0  0  0  0  0  0  0
    0.5412   -1.1228    0.1785 C   0  0  0  0  0  0  0  0  0  0  0  0
   -0.7460   -1.4549    0.5282 C   0  0  0  0  0  0  0  0  0  0  0  0
   -3.4980    2.7767    0.0074 H   0  0  0  0  0  0  0  0  0  0  0  0
    0.1311    2.1981   -0.5060 H   0  0  0  0  0  0  0  0  0  0  0  0
    4.0187    0.2841   -0.8652 H   0  0  0  0  0  0  0  0  0  0  0  0
    2.9729   -1.1031   -1.2655 H   0  0  0  0  0  0  0  0  0  0  0  0
    3.3238   -0.7044    0.4448 H   0  0  0  0  0  0  0  0  0  0  0  0
    1.3152   -1.8796    0.1893 H   0  0  0  0  0  0  0  0  0  0  0  0
   -1.0084   -2.4686    0.8198 H   0  0  0  0  0  0  0  0  0  0  0  0
   -5.6136    2.5995    0.3646 S   0  0  0  0  0  0  0  0  0  0  0  0
   -5.5524    2.4991    2.2239 C   0  0  0  0  0  0  0  0  0  0  0  0
   -6.7147    3.4750    0.0174 O   0  0  0  0  0  0  0  0  0  0  0  0
   -5.5075    1.2287   -0.1196 O   0  0  0  0  0  0  0  0  0  0  0  0
   -4.2520    3.4045    0.0879 O   0  0  0  0  0  0  0  0  0  0  0  0
   -5.4960    3.7175    2.7534 F   0  0  0  0  0  0  0  0  0  0  0  0
   -6.6475    1.8732    2.6551 F   0  0  0  0  0  0  0  0  0  0  0  0
   -4.4705    1.8018    2.5932 F   0  0  0  0  0  0  0  0  0  0  0  0
  1 10  1  0  0  0  0
  1  2  1  0  0  0  0
  2  3  1  0  0  0  0
  4  1  2  0  0  0  0
  5  6  2  0  0  0  0
  5  4  1  0  0  0  0
  6  9  1  0  0  0  0
  7  6  1  0  0  0  0
  8  7  1  0  0  0  0
  8 15  1  0  0  0  0
  9 16  1  0  0  0  0
  9 10  2  0  0  0  0
 10 17  1  0  0  0  0
 11 22  1  0  0  0  0
 12  5  1  0  0  0  0
 13  8  1  0  0  0  0
 14  8  1  0  0  0  0
 18 19  1  0  0  0  0
 19 25  1  0  0  0  0
 19 24  1  0  0  0  0
 19 23  1  0  0  0  0
 20 18  2  0  0  0  0
 21 18  2  0  0  0  0
 22 18  1  0  0  0  0
M  RAD  3   2   2   3   3   4   2
M  END
