Coordinates from ORCA-job 4-MeOPhN2+~TfO-_B3LYPG-6-31G_dp-CH-Scan-d09-49-n800
 OpenBabel11261919093D

 25 24  0  0  0  0  0  0  0  0999 V2000
   -1.8239   -0.3407    0.7202 C   0  0  0  0  0  0  0  0  0  0  0  0
   -3.0601   -0.7135    1.1784 N   0  0  0  0  0  0  0  0  0  0  0  0
   -4.0772   -0.9876    1.5538 N   0  0  0  0  0  0  0  0  0  0  0  0
   -1.6290    1.0310    0.4208 C   0  0  0  0  0  0  0  0  0  0  0  0
   -0.3426    1.3156   -0.0267 C   0  0  0  0  0  0  0  0  0  0  0  0
    0.6571    0.3339   -0.1671 C   0  0  0  0  0  0  0  0  0  0  0  0
    1.8488    0.7681   -0.6129 O   0  0  0  0  0  0  0  0  0  0  0  0
    2.9221   -0.1561   -0.7925 C   0  0  0  0  0  0  0  0  0  0  0  0
    0.3926   -1.0242    0.1507 C   0  0  0  0  0  0  0  0  0  0  0  0
   -0.8604   -1.3720    0.6020 C   0  0  0  0  0  0  0  0  0  0  0  0
   -2.7481    2.1076    0.5163 H   0  0  0  0  0  0  0  0  0  0  0  0
   -0.0683    2.3333   -0.2929 H   0  0  0  0  0  0  0  0  0  0  0  0
    3.7601    0.4352   -1.1609 H   0  0  0  0  0  0  0  0  0  0  0  0
    2.6661   -0.9242   -1.5306 H   0  0  0  0  0  0  0  0  0  0  0  0
    3.2019   -0.6305    0.1551 H   0  0  0  0  0  0  0  0  0  0  0  0
    1.1541   -1.7860    0.0431 H   0  0  0  0  0  0  0  0  0  0  0  0
   -1.1002   -2.4000    0.8565 H   0  0  0  0  0  0  0  0  0  0  0  0
   -4.9912    2.4787    0.2864 S   0  0  0  0  0  0  0  0  0  0  0  0
   -5.6741    2.4489    2.0144 C   0  0  0  0  0  0  0  0  0  0  0  0
   -5.7697    3.4722   -0.4398 O   0  0  0  0  0  0  0  0  0  0  0  0
   -5.0110    1.0714   -0.1410 O   0  0  0  0  0  0  0  0  0  0  0  0
   -3.5459    2.9578    0.5655 O   0  0  0  0  0  0  0  0  0  0  0  0
   -5.6145    3.6560    2.5782 F   0  0  0  0  0  0  0  0  0  0  0  0
   -6.9448    2.0365    1.9945 F   0  0  0  0  0  0  0  0  0  0  0  0
   -4.9577    1.5873    2.7653 F   0  0  0  0  0  0  0  0  0  0  0  0
  1  2  1  0  0  0  0
  2  3  1  0  0  0  0
  4  1  2  0  0  0  0
  5  4  1  0  0  0  0
  6  5  2  0  0  0  0
  6  9  1  0  0  0  0
  7  6  1  0  0  0  0
  8  7  1  0  0  0  0
  8 15  1  0  0  0  0
  9 10  2  0  0  0  0
 10  1  1  0  0  0  0
 10 17  1  0  0  0  0
 11 22  1  0  0  0  0
 12  5  1  0  0  0  0
 13  8  1  0  0  0  0
 14  8  1  0  0  0  0
 16  9  1  0  0  0  0
 18 22  1  0  0  0  0
 18 19  1  0  0  0  0
 19 23  1  0  0  0  0
 19 25  1  0  0  0  0
 20 18  2  0  0  0  0
 21 18  2  0  0  0  0
 24 19  1  0  0  0  0
M  RAD  3   2   2   3   3   4   2
M  END
