Coordinates from ORCA-job 4-MeOPhN2+~TfO-_B3LYPG-6-31G_dp-CH-Scan-d09-49-n800
 OpenBabel11261919093D

 25 24  0  0  0  0  0  0  0  0999 V2000
   -1.9659   -0.2958    0.4245 C   0  0  0  0  0  0  0  0  0  0  0  0
   -3.2802   -0.6651    0.5978 N   0  0  0  0  0  0  0  0  0  0  0  0
   -4.3032   -1.0971    0.7583 N   0  0  0  0  0  0  0  0  0  0  0  0
   -1.5363    1.0064    0.7476 C   0  0  0  0  0  0  0  0  0  0  0  0
   -0.2010    1.3089    0.5971 C   0  0  0  0  0  0  0  0  0  0  0  0
    0.7063    0.3390    0.1176 C   0  0  0  0  0  0  0  0  0  0  0  0
    1.9785    0.7471    0.0037 O   0  0  0  0  0  0  0  0  0  0  0  0
    2.9706   -0.1574   -0.4895 C   0  0  0  0  0  0  0  0  0  0  0  0
    0.2582   -0.9600   -0.2059 C   0  0  0  0  0  0  0  0  0  0  0  0
   -1.0784   -1.2812   -0.0459 C   0  0  0  0  0  0  0  0  0  0  0  0
   -2.3526    1.8105    1.1055 H   0  0  0  0  0  0  0  0  0  0  0  0
    0.1768    2.2970    0.8322 H   0  0  0  0  0  0  0  0  0  0  0  0
    3.9038    0.4049   -0.4898 H   0  0  0  0  0  0  0  0  0  0  0  0
    2.7375   -0.4797   -1.5097 H   0  0  0  0  0  0  0  0  0  0  0  0
    3.0693   -1.0301    0.1649 H   0  0  0  0  0  0  0  0  0  0  0  0
    0.9430   -1.7118   -0.5754 H   0  0  0  0  0  0  0  0  0  0  0  0
   -1.4423   -2.2745   -0.2845 H   0  0  0  0  0  0  0  0  0  0  0  0
   -5.4870    1.8665    0.4378 S   0  0  0  0  0  0  0  0  0  0  0  0
   -5.1217    3.0287    1.8423 C   0  0  0  0  0  0  0  0  0  0  0  0
   -6.5274    2.5426   -0.3382 O   0  0  0  0  0  0  0  0  0  0  0  0
   -5.8924    0.6115    1.1396 O   0  0  0  0  0  0  0  0  0  0  0  0
   -4.1518    1.7327   -0.2164 O   0  0  0  0  0  0  0  0  0  0  0  0
   -4.7909    4.2446    1.3878 F   0  0  0  0  0  0  0  0  0  0  0  0
   -6.1624    3.1473    2.6712 F   0  0  0  0  0  0  0  0  0  0  0  0
   -4.0663    2.5639    2.5646 F   0  0  0  0  0  0  0  0  0  0  0  0
  1  2  1  0  0  0  0
  1  4  2  0  0  0  0
  2  3  1  0  0  0  0
  4 11  1  0  0  0  0
  5  4  1  0  0  0  0
  5 12  1  0  0  0  0
  6  5  2  0  0  0  0
  7  6  1  0  0  0  0
  8  7  1  0  0  0  0
  8 15  1  0  0  0  0
  9 10  2  0  0  0  0
  9  6  1  0  0  0  0
 10  1  1  0  0  0  0
 13  8  1  0  0  0  0
 14  8  1  0  0  0  0
 16  9  1  0  0  0  0
 17 10  1  0  0  0  0
 18 21  1  0  0  0  0
 18 19  1  0  0  0  0
 19 25  1  0  0  0  0
 19 24  1  0  0  0  0
 20 18  2  0  0  0  0
 22 18  2  0  0  0  0
 23 19  1  0  0  0  0
M  RAD  3   2   2   3   3  21   2
M  END
