Coordinates from ORCA-job 4-MeOPhN2+~TfO-_B3LYPG-6-31G_dp-CH-Scan-d09-49-n800
 OpenBabel11261919093D

 25 24  0  0  0  0  0  0  0  0999 V2000
   -2.0095   -0.2873    0.4772 C   0  0  0  0  0  0  0  0  0  0  0  0
   -3.3200   -0.6671    0.6612 N   0  0  0  0  0  0  0  0  0  0  0  0
   -4.3373   -1.1059    0.8396 N   0  0  0  0  0  0  0  0  0  0  0  0
   -1.6010    1.0288    0.7787 C   0  0  0  0  0  0  0  0  0  0  0  0
   -0.2678    1.3374    0.6063 C   0  0  0  0  0  0  0  0  0  0  0  0
    0.6476    0.3763    0.1271 C   0  0  0  0  0  0  0  0  0  0  0  0
    1.9123    0.8017   -0.0086 O   0  0  0  0  0  0  0  0  0  0  0  0
    2.9108   -0.0959   -0.5004 C   0  0  0  0  0  0  0  0  0  0  0  0
    0.2139   -0.9323   -0.1718 C   0  0  0  0  0  0  0  0  0  0  0  0
   -1.1170   -1.2675    0.0106 C   0  0  0  0  0  0  0  0  0  0  0  0
   -2.2072    1.6400    1.0739 H   0  0  0  0  0  0  0  0  0  0  0  0
    0.0990    2.3337    0.8251 H   0  0  0  0  0  0  0  0  0  0  0  0
    3.8359    0.4791   -0.5210 H   0  0  0  0  0  0  0  0  0  0  0  0
    2.6697   -0.4371   -1.5127 H   0  0  0  0  0  0  0  0  0  0  0  0
    3.0297   -0.9573    0.1657 H   0  0  0  0  0  0  0  0  0  0  0  0
    0.9032   -1.6805   -0.5405 H   0  0  0  0  0  0  0  0  0  0  0  0
   -1.4724   -2.2674   -0.2118 H   0  0  0  0  0  0  0  0  0  0  0  0
   -5.4381    1.8702    0.3704 S   0  0  0  0  0  0  0  0  0  0  0  0
   -5.0008    2.9496    1.8192 C   0  0  0  0  0  0  0  0  0  0  0  0
   -6.4129    2.6496   -0.3932 O   0  0  0  0  0  0  0  0  0  0  0  0
   -5.9461    0.6272    1.0238 O   0  0  0  0  0  0  0  0  0  0  0  0
   -4.1074    1.6577   -0.2722 O   0  0  0  0  0  0  0  0  0  0  0  0
   -4.5313    4.1370    1.4127 F   0  0  0  0  0  0  0  0  0  0  0  0
   -6.0476    3.1532    2.6231 F   0  0  0  0  0  0  0  0  0  0  0  0
   -4.0215    2.3558    2.5547 F   0  0  0  0  0  0  0  0  0  0  0  0
  1  2  1  0  0  0  0
  1  4  2  0  0  0  0
  2  3  1  0  0  0  0
  4 11  1  0  0  0  0
  5  4  1  0  0  0  0
  5 12  1  0  0  0  0
  6  5  2  0  0  0  0
  7  6  1  0  0  0  0
  8  7  1  0  0  0  0
  8 15  1  0  0  0  0
  9 10  2  0  0  0  0
  9  6  1  0  0  0  0
 10  1  1  0  0  0  0
 13  8  1  0  0  0  0
 14  8  1  0  0  0  0
 16  9  1  0  0  0  0
 17 10  1  0  0  0  0
 18 21  1  0  0  0  0
 18 19  1  0  0  0  0
 19 25  1  0  0  0  0
 19 24  1  0  0  0  0
 20 18  2  0  0  0  0
 22 18  2  0  0  0  0
 23 19  1  0  0  0  0
M  RAD  3   2   2   3   3  21   2
M  END
