Coordinates from ORCA-job 4-MeOPhN2+~TfO-_B3LYPG-6-31G_dp-CH-Scan-d09-49-n800
 OpenBabel11261919093D

 25 24  0  0  0  0  0  0  0  0999 V2000
   -1.7239   -0.4088    0.5143 C   0  0  0  0  0  0  0  0  0  0  0  0
   -2.9985   -0.7597    0.8849 N   0  0  0  0  0  0  0  0  0  0  0  0
   -4.0486   -1.0077    1.1885 N   0  0  0  0  0  0  0  0  0  0  0  0
   -1.5462    0.9546    0.1681 C   0  0  0  0  0  0  0  0  0  0  0  0
   -0.2140    1.2113   -0.1852 C   0  0  0  0  0  0  0  0  0  0  0  0
    0.7988    0.2369   -0.1891 C   0  0  0  0  0  0  0  0  0  0  0  0
    2.0292    0.6580   -0.5534 O   0  0  0  0  0  0  0  0  0  0  0  0
    3.1163   -0.2624   -0.5796 C   0  0  0  0  0  0  0  0  0  0  0  0
    0.5237   -1.1114    0.1744 C   0  0  0  0  0  0  0  0  0  0  0  0
   -0.7589   -1.4505    0.5348 C   0  0  0  0  0  0  0  0  0  0  0  0
   -3.3990    2.6785    0.0907 H   0  0  0  0  0  0  0  0  0  0  0  0
    0.0949    2.2131   -0.4806 H   0  0  0  0  0  0  0  0  0  0  0  0
    3.9849    0.3147   -0.8975 H   0  0  0  0  0  0  0  0  0  0  0  0
    2.9392   -1.0733   -1.2955 H   0  0  0  0  0  0  0  0  0  0  0  0
    3.3086   -0.6853    0.4136 H   0  0  0  0  0  0  0  0  0  0  0  0
    1.2999   -1.8659    0.1715 H   0  0  0  0  0  0  0  0  0  0  0  0
   -1.0147   -2.4672    0.8213 H   0  0  0  0  0  0  0  0  0  0  0  0
   -5.5367    2.5814    0.3459 S   0  0  0  0  0  0  0  0  0  0  0  0
   -5.5647    2.5036    2.2065 C   0  0  0  0  0  0  0  0  0  0  0  0
   -6.5931    3.4860   -0.0616 O   0  0  0  0  0  0  0  0  0  0  0  0
   -5.4595    1.1994   -0.1129 O   0  0  0  0  0  0  0  0  0  0  0  0
   -4.1397    3.3330    0.1229 O   0  0  0  0  0  0  0  0  0  0  0  0
   -5.4970    3.7261    2.7258 F   0  0  0  0  0  0  0  0  0  0  0  0
   -6.6957    1.9141    2.5952 F   0  0  0  0  0  0  0  0  0  0  0  0
   -4.5210    1.7803    2.6339 F   0  0  0  0  0  0  0  0  0  0  0  0
  1 10  1  0  0  0  0
  1  2  1  0  0  0  0
  2  3  1  0  0  0  0
  4  1  2  0  0  0  0
  5  4  1  0  0  0  0
  6  5  2  0  0  0  0
  6  9  1  0  0  0  0
  7  6  1  0  0  0  0
  8  7  1  0  0  0  0
  8 15  1  0  0  0  0
  9 10  2  0  0  0  0
 10 17  1  0  0  0  0
 11 22  1  0  0  0  0
 12  5  1  0  0  0  0
 13  8  1  0  0  0  0
 14  8  1  0  0  0  0
 16  9  1  0  0  0  0
 18 19  1  0  0  0  0
 19 24  1  0  0  0  0
 19 25  1  0  0  0  0
 19 23  1  0  0  0  0
 20 18  2  0  0  0  0
 21 18  2  0  0  0  0
 22 18  1  0  0  0  0
M  RAD  3   2   2   3   3   4   2
M  END
