Coordinates from ORCA-job 4-MeOPhN2+~TfO-_B3LYPG-6-31G_dp-CH-Scan-d09-49-n800
 OpenBabel11261919093D

 25 24  0  0  0  0  0  0  0  0999 V2000
   -1.7175   -0.4101    0.5006 C   0  0  0  0  0  0  0  0  0  0  0  0
   -2.9945   -0.7575    0.8666 N   0  0  0  0  0  0  0  0  0  0  0  0
   -4.0472   -0.9989    1.1671 N   0  0  0  0  0  0  0  0  0  0  0  0
   -1.5384    0.9516    0.1485 C   0  0  0  0  0  0  0  0  0  0  0  0
   -0.2032    1.2049   -0.1978 C   0  0  0  0  0  0  0  0  0  0  0  0
    0.8090    0.2301   -0.1905 C   0  0  0  0  0  0  0  0  0  0  0  0
    2.0422    0.6487   -0.5492 O   0  0  0  0  0  0  0  0  0  0  0  0
    3.1287   -0.2725   -0.5638 C   0  0  0  0  0  0  0  0  0  0  0  0
    0.5311   -1.1165    0.1779 C   0  0  0  0  0  0  0  0  0  0  0  0
   -0.7537   -1.4529    0.5321 C   0  0  0  0  0  0  0  0  0  0  0  0
   -3.4469    2.7244    0.0400 H   0  0  0  0  0  0  0  0  0  0  0  0
    0.1087    2.2049   -0.4966 H   0  0  0  0  0  0  0  0  0  0  0  0
    3.9999    0.3025   -0.8787 H   0  0  0  0  0  0  0  0  0  0  0  0
    2.9560   -1.0868   -1.2769 H   0  0  0  0  0  0  0  0  0  0  0  0
    3.3142   -0.6909    0.4326 H   0  0  0  0  0  0  0  0  0  0  0  0
    1.3071   -1.8712    0.1836 H   0  0  0  0  0  0  0  0  0  0  0  0
   -1.0121   -2.4680    0.8223 H   0  0  0  0  0  0  0  0  0  0  0  0
   -5.5734    2.5917    0.3556 S   0  0  0  0  0  0  0  0  0  0  0  0
   -5.5528    2.4994    2.2159 C   0  0  0  0  0  0  0  0  0  0  0  0
   -6.6519    3.4845   -0.0181 O   0  0  0  0  0  0  0  0  0  0  0  0
   -5.4849    1.2158   -0.1183 O   0  0  0  0  0  0  0  0  0  0  0  0
   -4.1924    3.3676    0.1040 O   0  0  0  0  0  0  0  0  0  0  0  0
   -5.4884    3.7189    2.7422 F   0  0  0  0  0  0  0  0  0  0  0  0
   -6.6659    1.8921    2.6276 F   0  0  0  0  0  0  0  0  0  0  0  0
   -4.4894    1.7872    2.6105 F   0  0  0  0  0  0  0  0  0  0  0  0
  1 10  1  0  0  0  0
  1  2  1  0  0  0  0
  2  3  1  0  0  0  0
  4  1  2  0  0  0  0
  5  6  2  0  0  0  0
  5  4  1  0  0  0  0
  6  9  1  0  0  0  0
  7  6  1  0  0  0  0
  8  7  1  0  0  0  0
  8 15  1  0  0  0  0
  9 16  1  0  0  0  0
  9 10  2  0  0  0  0
 10 17  1  0  0  0  0
 11 22  1  0  0  0  0
 12  5  1  0  0  0  0
 13  8  1  0  0  0  0
 14  8  1  0  0  0  0
 18 19  1  0  0  0  0
 19 25  1  0  0  0  0
 19 24  1  0  0  0  0
 19 23  1  0  0  0  0
 20 18  2  0  0  0  0
 21 18  2  0  0  0  0
 22 18  1  0  0  0  0
M  RAD  3   2   2   3   3   4   2
M  END
