Coordinates from ORCA-job 4-MeOPhN2+~TfO-_B3LYPG-6-31G_dp-CH-Scan-d09-49-n800
 OpenBabel11261919093D

 25 24  0  0  0  0  0  0  0  0999 V2000
   -1.8432   -0.3689    0.6637 C   0  0  0  0  0  0  0  0  0  0  0  0
   -3.0850   -0.7551    1.0964 N   0  0  0  0  0  0  0  0  0  0  0  0
   -4.1073   -1.0388    1.4509 N   0  0  0  0  0  0  0  0  0  0  0  0
   -1.6661    1.0033    0.3531 C   0  0  0  0  0  0  0  0  0  0  0  0
   -0.3701    1.2963   -0.0662 C   0  0  0  0  0  0  0  0  0  0  0  0
    0.6470    0.3284   -0.1684 C   0  0  0  0  0  0  0  0  0  0  0  0
    1.8446    0.7744   -0.5885 O   0  0  0  0  0  0  0  0  0  0  0  0
    2.9365   -0.1349   -0.7220 C   0  0  0  0  0  0  0  0  0  0  0  0
    0.3949   -1.0302    0.1594 C   0  0  0  0  0  0  0  0  0  0  0  0
   -0.8640   -1.3901    0.5830 C   0  0  0  0  0  0  0  0  0  0  0  0
   -2.8319    2.1280    0.4112 H   0  0  0  0  0  0  0  0  0  0  0  0
   -0.1000    2.3139   -0.3384 H   0  0  0  0  0  0  0  0  0  0  0  0
    3.7765    0.4642   -1.0729 H   0  0  0  0  0  0  0  0  0  0  0  0
    2.7156   -0.9173   -1.4565 H   0  0  0  0  0  0  0  0  0  0  0  0
    3.1944   -0.5920    0.2401 H   0  0  0  0  0  0  0  0  0  0  0  0
    1.1699   -1.7817    0.0812 H   0  0  0  0  0  0  0  0  0  0  0  0
   -1.0961   -2.4182    0.8446 H   0  0  0  0  0  0  0  0  0  0  0  0
   -5.0556    2.4819    0.2794 S   0  0  0  0  0  0  0  0  0  0  0  0
   -5.5808    2.4670    2.0622 C   0  0  0  0  0  0  0  0  0  0  0  0
   -5.8795    3.4826   -0.3814 O   0  0  0  0  0  0  0  0  0  0  0  0
   -5.1134    1.0748   -0.1372 O   0  0  0  0  0  0  0  0  0  0  0  0
   -3.5846    2.9640    0.4278 O   0  0  0  0  0  0  0  0  0  0  0  0
   -5.4625    3.6776    2.6081 F   0  0  0  0  0  0  0  0  0  0  0  0
   -6.8505    2.0639    2.1585 F   0  0  0  0  0  0  0  0  0  0  0  0
   -4.8044    1.6055    2.7490 F   0  0  0  0  0  0  0  0  0  0  0  0
  1  2  1  0  0  0  0
  2  3  1  0  0  0  0
  4  1  2  0  0  0  0
  5  4  1  0  0  0  0
  6  5  2  0  0  0  0
  6  9  1  0  0  0  0
  7  6  1  0  0  0  0
  8  7  1  0  0  0  0
  8 15  1  0  0  0  0
  9 10  2  0  0  0  0
 10  1  1  0  0  0  0
 10 17  1  0  0  0  0
 11 22  1  0  0  0  0
 12  5  1  0  0  0  0
 13  8  1  0  0  0  0
 14  8  1  0  0  0  0
 16  9  1  0  0  0  0
 18 22  1  0  0  0  0
 18 19  1  0  0  0  0
 19 24  1  0  0  0  0
 19 23  1  0  0  0  0
 19 25  1  0  0  0  0
 20 18  2  0  0  0  0
 21 18  2  0  0  0  0
M  RAD  3   2   2   3   3   4   2
M  END
