Coordinates from ORCA-job 4-MeOPhN2+~TfO-_B3LYPG-6-31G_dp-CH-Scan-d09-49-n800
 OpenBabel11261919093D

 25 24  0  0  0  0  0  0  0  0999 V2000
   -1.6476   -0.3999    0.4725 C   0  0  0  0  0  0  0  0  0  0  0  0
   -2.9381   -0.7148    0.8260 N   0  0  0  0  0  0  0  0  0  0  0  0
   -4.0018   -0.9226    1.1143 N   0  0  0  0  0  0  0  0  0  0  0  0
   -1.4490    0.9553    0.1086 C   0  0  0  0  0  0  0  0  0  0  0  0
   -0.1032    1.1792   -0.2255 C   0  0  0  0  0  0  0  0  0  0  0  0
    0.8917    0.1881   -0.1962 C   0  0  0  0  0  0  0  0  0  0  0  0
    2.1373    0.5809   -0.5469 O   0  0  0  0  0  0  0  0  0  0  0  0
    3.2065   -0.3593   -0.5393 C   0  0  0  0  0  0  0  0  0  0  0  0
    0.5884   -1.1503    0.1847 C   0  0  0  0  0  0  0  0  0  0  0  0
   -0.7054   -1.4617    0.5285 C   0  0  0  0  0  0  0  0  0  0  0  0
   -3.7020    2.9980   -0.0899 H   0  0  0  0  0  0  0  0  0  0  0  0
    0.2313    2.1702   -0.5322 H   0  0  0  0  0  0  0  0  0  0  0  0
    4.0915    0.1957   -0.8520 H   0  0  0  0  0  0  0  0  0  0  0  0
    3.0272   -1.1794   -1.2443 H   0  0  0  0  0  0  0  0  0  0  0  0
    3.3750   -0.7695    0.4636 H   0  0  0  0  0  0  0  0  0  0  0  0
    1.3523   -1.9171    0.2077 H   0  0  0  0  0  0  0  0  0  0  0  0
   -0.9845   -2.4689    0.8276 H   0  0  0  0  0  0  0  0  0  0  0  0
   -5.7656    2.6395    0.3928 S   0  0  0  0  0  0  0  0  0  0  0  0
   -5.5858    2.4925    2.2421 C   0  0  0  0  0  0  0  0  0  0  0  0
   -6.9470    3.4372    0.1359 O   0  0  0  0  0  0  0  0  0  0  0  0
   -5.5723    1.3011   -0.1486 O   0  0  0  0  0  0  0  0  0  0  0  0
   -4.4844    3.5639    0.0671 O   0  0  0  0  0  0  0  0  0  0  0  0
   -5.5995    3.6965    2.8052 F   0  0  0  0  0  0  0  0  0  0  0  0
   -6.5993    1.7651    2.7105 F   0  0  0  0  0  0  0  0  0  0  0  0
   -4.4312    1.8793    2.5248 F   0  0  0  0  0  0  0  0  0  0  0  0
  1 10  1  0  0  0  0
  1  2  1  0  0  0  0
  2  3  1  0  0  0  0
  4  1  2  0  0  0  0
  5  6  2  0  0  0  0
  5  4  1  0  0  0  0
  6  9  1  0  0  0  0
  7  8  1  0  0  0  0
  7  6  1  0  0  0  0
  8 15  1  0  0  0  0
  9 16  1  0  0  0  0
  9 10  2  0  0  0  0
 10 17  1  0  0  0  0
 11 22  1  0  0  0  0
 12  5  1  0  0  0  0
 13  8  1  0  0  0  0
 14  8  1  0  0  0  0
 18 19  1  0  0  0  0
 19 25  1  0  0  0  0
 19 24  1  0  0  0  0
 19 23  1  0  0  0  0
 20 18  2  0  0  0  0
 21 18  2  0  0  0  0
 22 18  1  0  0  0  0
M  RAD  3   2   2   3   3   4   2
M  END
