Coordinates from ORCA-job 4-MeOPhN2+~TfO-_B3LYPG-6-31G_dp-CH-Scan-d09-49-n800
 OpenBabel11261919093D

 25 24  0  0  0  0  0  0  0  0999 V2000
   -1.6796   -0.4080    0.4756 C   0  0  0  0  0  0  0  0  0  0  0  0
   -2.9646   -0.7391    0.8320 N   0  0  0  0  0  0  0  0  0  0  0  0
   -4.0239   -0.9649    1.1220 N   0  0  0  0  0  0  0  0  0  0  0  0
   -1.4898    0.9500    0.1176 C   0  0  0  0  0  0  0  0  0  0  0  0
   -0.1476    1.1886   -0.2168 C   0  0  0  0  0  0  0  0  0  0  0  0
    0.8561    0.2058   -0.1936 C   0  0  0  0  0  0  0  0  0  0  0  0
    2.0973    0.6116   -0.5427 O   0  0  0  0  0  0  0  0  0  0  0  0
    3.1754   -0.3189   -0.5405 C   0  0  0  0  0  0  0  0  0  0  0  0
    0.5640   -1.1369    0.1797 C   0  0  0  0  0  0  0  0  0  0  0  0
   -0.7269   -1.4608    0.5233 C   0  0  0  0  0  0  0  0  0  0  0  0
   -3.5983    2.8789   -0.0470 H   0  0  0  0  0  0  0  0  0  0  0  0
    0.1770    2.1841   -0.5186 H   0  0  0  0  0  0  0  0  0  0  0  0
    4.0551    0.2464   -0.8494 H   0  0  0  0  0  0  0  0  0  0  0  0
    3.0035   -1.1359   -1.2509 H   0  0  0  0  0  0  0  0  0  0  0  0
    3.3470   -0.7336    0.4599 H   0  0  0  0  0  0  0  0  0  0  0  0
    1.3339   -1.8976    0.1975 H   0  0  0  0  0  0  0  0  0  0  0  0
   -0.9968   -2.4720    0.8171 H   0  0  0  0  0  0  0  0  0  0  0  0
   -5.6906    2.6176    0.3809 S   0  0  0  0  0  0  0  0  0  0  0  0
   -5.5629    2.5011    2.2364 C   0  0  0  0  0  0  0  0  0  0  0  0
   -6.8315    3.4579    0.0794 O   0  0  0  0  0  0  0  0  0  0  0  0
   -5.5472    1.2587   -0.1253 O   0  0  0  0  0  0  0  0  0  0  0  0
   -4.3666    3.4778    0.0683 O   0  0  0  0  0  0  0  0  0  0  0  0
   -5.5315    3.7158    2.7756 F   0  0  0  0  0  0  0  0  0  0  0  0
   -6.6211    1.8333    2.6954 F   0  0  0  0  0  0  0  0  0  0  0  0
   -4.4462    1.8389    2.5613 F   0  0  0  0  0  0  0  0  0  0  0  0
  1 10  1  0  0  0  0
  1  2  1  0  0  0  0
  2  3  1  0  0  0  0
  4  1  2  0  0  0  0
  5  6  2  0  0  0  0
  5  4  1  0  0  0  0
  6  9  1  0  0  0  0
  7  8  1  0  0  0  0
  7  6  1  0  0  0  0
  8 15  1  0  0  0  0
  9 16  1  0  0  0  0
  9 10  2  0  0  0  0
 10 17  1  0  0  0  0
 11 22  1  0  0  0  0
 12  5  1  0  0  0  0
 13  8  1  0  0  0  0
 14  8  1  0  0  0  0
 18 19  1  0  0  0  0
 19 25  1  0  0  0  0
 19 24  1  0  0  0  0
 19 23  1  0  0  0  0
 20 18  2  0  0  0  0
 21 18  2  0  0  0  0
 22 18  1  0  0  0  0
M  RAD  3   2   2   3   3   4   2
M  END
