Coordinates from ORCA-job 4-MeOPhN2+~TfO-_B3LYPG-6-31G_dp-CH-Scan-d09-49-n800
 OpenBabel11261919093D

 25 24  0  0  0  0  0  0  0  0999 V2000
   -2.0626   -0.2078    0.1368 C   0  0  0  0  0  0  0  0  0  0  0  0
   -3.3859   -0.5668    0.2559 N   0  0  0  0  0  0  0  0  0  0  0  0
   -4.4293   -0.9613    0.3807 N   0  0  0  0  0  0  0  0  0  0  0  0
   -1.7086    1.1370   -0.0908 C   0  0  0  0  0  0  0  0  0  0  0  0
   -0.3690    1.4406   -0.2025 C   0  0  0  0  0  0  0  0  0  0  0  0
    0.6114    0.4319   -0.0854 C   0  0  0  0  0  0  0  0  0  0  0  0
    1.8812    0.8434   -0.2078 O   0  0  0  0  0  0  0  0  0  0  0  0
    2.9475   -0.1044   -0.1146 C   0  0  0  0  0  0  0  0  0  0  0  0
    0.2338   -0.9107    0.1432 C   0  0  0  0  0  0  0  0  0  0  0  0
   -1.1058   -1.2352    0.2515 C   0  0  0  0  0  0  0  0  0  0  0  0
   -2.6176    1.9368   -0.1964 H   0  0  0  0  0  0  0  0  0  0  0  0
   -0.0415    2.4582   -0.3832 H   0  0  0  0  0  0  0  0  0  0  0  0
    3.8623    0.4711   -0.2502 H   0  0  0  0  0  0  0  0  0  0  0  0
    2.8722   -0.8621   -0.9025 H   0  0  0  0  0  0  0  0  0  0  0  0
    2.9619   -0.5874    0.8684 H   0  0  0  0  0  0  0  0  0  0  0  0
    0.9765   -1.6923    0.2352 H   0  0  0  0  0  0  0  0  0  0  0  0
   -1.4173   -2.2594    0.4276 H   0  0  0  0  0  0  0  0  0  0  0  0
   -5.5654    2.1028    0.5251 S   0  0  0  0  0  0  0  0  0  0  0  0
   -4.7265    2.5036    2.1341 C   0  0  0  0  0  0  0  0  0  0  0  0
   -6.5869    3.1361    0.3557 O   0  0  0  0  0  0  0  0  0  0  0  0
   -6.0563    0.7135    0.7599 O   0  0  0  0  0  0  0  0  0  0  0  0
   -4.4198    2.1426   -0.4343 O   0  0  0  0  0  0  0  0  0  0  0  0
   -4.1472    3.7113    2.0960 F   0  0  0  0  0  0  0  0  0  0  0  0
   -5.5767    2.4679    3.1634 F   0  0  0  0  0  0  0  0  0  0  0  0
   -3.7463    1.5893    2.3715 F   0  0  0  0  0  0  0  0  0  0  0  0
  1 10  2  0  0  0  0
  1  2  1  0  0  0  0
  2  3  1  0  0  0  0
  4  1  1  0  0  0  0
  5  4  2  0  0  0  0
  5  6  1  0  0  0  0
  6  9  2  0  0  0  0
  7  8  1  0  0  0  0
  7  6  1  0  0  0  0
  8 15  1  0  0  0  0
  9 16  1  0  0  0  0
  9 10  1  0  0  0  0
 10 17  1  0  0  0  0
 11  4  1  0  0  0  0
 12  5  1  0  0  0  0
 13  8  1  0  0  0  0
 14  8  1  0  0  0  0
 18 21  1  0  0  0  0
 18 19  1  0  0  0  0
 19 25  1  0  0  0  0
 19 24  1  0  0  0  0
 20 18  2  0  0  0  0
 22 18  2  0  0  0  0
 23 19  1  0  0  0  0
M  RAD  3   2   2   3   3  21   2
M  END
