Coordinates from ORCA-job 4-MeOPhN2+~TfO-_B3LYPG-6-31G_dp-CH-Scan-d09-49-n800
 OpenBabel11261919093D

 25 24  0  0  0  0  0  0  0  0999 V2000
   -1.5282   -0.3424    0.6618 C   0  0  0  0  0  0  0  0  0  0  0  0
   -2.8344   -0.5800    1.0311 N   0  0  0  0  0  0  0  0  0  0  0  0
   -3.9058   -0.6979    1.3441 N   0  0  0  0  0  0  0  0  0  0  0  0
   -1.2263    1.0339    0.5356 C   0  0  0  0  0  0  0  0  0  0  0  0
    0.1242    1.1927    0.1706 C   0  0  0  0  0  0  0  0  0  0  0  0
    1.0173    0.1296   -0.0344 C   0  0  0  0  0  0  0  0  0  0  0  0
    2.2822    0.4670   -0.3839 O   0  0  0  0  0  0  0  0  0  0  0  0
    3.2512   -0.5516   -0.6031 C   0  0  0  0  0  0  0  0  0  0  0  0
    0.6029   -1.2259    0.1190 C   0  0  0  0  0  0  0  0  0  0  0  0
   -0.6997   -1.4809    0.4767 C   0  0  0  0  0  0  0  0  0  0  0  0
   -4.5352    3.7521   -0.5967 H   0  0  0  0  0  0  0  0  0  0  0  0
    0.5438    2.1895    0.0267 H   0  0  0  0  0  0  0  0  0  0  0  0
    4.1749   -0.0328   -0.8617 H   0  0  0  0  0  0  0  0  0  0  0  0
    2.9646   -1.2109   -1.4312 H   0  0  0  0  0  0  0  0  0  0  0  0
    3.4168   -1.1527    0.2995 H   0  0  0  0  0  0  0  0  0  0  0  0
    1.2907   -2.0466   -0.0407 H   0  0  0  0  0  0  0  0  0  0  0  0
   -1.0638   -2.4972    0.6080 H   0  0  0  0  0  0  0  0  0  0  0  0
   -6.0791    2.6150    0.3670 S   0  0  0  0  0  0  0  0  0  0  0  0
   -5.3757    2.4696    2.0893 C   0  0  0  0  0  0  0  0  0  0  0  0
   -7.4904    2.9113    0.4972 O   0  0  0  0  0  0  0  0  0  0  0  0
   -5.5580    1.4973   -0.4072 O   0  0  0  0  0  0  0  0  0  0  0  0
   -5.3435    3.9851   -0.1072 O   0  0  0  0  0  0  0  0  0  0  0  0
   -5.7034    3.5414    2.8046 F   0  0  0  0  0  0  0  0  0  0  0  0
   -5.8898    1.3760    2.6535 F   0  0  0  0  0  0  0  0  0  0  0  0
   -4.0512    2.3572    2.0184 F   0  0  0  0  0  0  0  0  0  0  0  0
  1  2  1  0  0  0  0
  2  3  1  0  0  0  0
  4  1  1  0  0  0  0
  5  4  2  0  0  0  0
  6  9  2  0  0  0  0
  6  5  1  0  0  0  0
  7  6  1  0  0  0  0
  8  7  1  0  0  0  0
  8 15  1  0  0  0  0
  9 10  1  0  0  0  0
 10 17  1  0  0  0  0
 10  1  2  0  0  0  0
 11 22  1  0  0  0  0
 12  5  1  0  0  0  0
 13  8  1  0  0  0  0
 14  8  1  0  0  0  0
 16  9  1  0  0  0  0
 18 20  2  0  0  0  0
 18 19  1  0  0  0  0
 19 24  1  0  0  0  0
 19 23  1  0  0  0  0
 21 18  2  0  0  0  0
 22 18  1  0  0  0  0
 25 19  1  0  0  0  0
M  RAD  3   2   2   3   3   4   2
M  END
