Coordinates from ORCA-job 4-MeOPhN2+~TfO-_B3LYPG-6-31G_dp-CH-Scan-d09-49-n800
 OpenBabel11261919093D

 25 24  0  0  0  0  0  0  0  0999 V2000
   -1.6229   -0.3912    0.4727 C   0  0  0  0  0  0  0  0  0  0  0  0
   -2.9162   -0.6955    0.8269 N   0  0  0  0  0  0  0  0  0  0  0  0
   -3.9817   -0.8947    1.1151 N   0  0  0  0  0  0  0  0  0  0  0  0
   -1.4166    0.9614    0.1046 C   0  0  0  0  0  0  0  0  0  0  0  0
   -0.0689    1.1741   -0.2313 C   0  0  0  0  0  0  0  0  0  0  0  0
    0.9188    0.1762   -0.1998 C   0  0  0  0  0  0  0  0  0  0  0  0
    2.1671    0.5586   -0.5535 O   0  0  0  0  0  0  0  0  0  0  0  0
    3.2291   -0.3895   -0.5442 C   0  0  0  0  0  0  0  0  0  0  0  0
    0.6068   -1.1590    0.1863 C   0  0  0  0  0  0  0  0  0  0  0  0
   -0.6889   -1.4601    0.5322 C   0  0  0  0  0  0  0  0  0  0  0  0
   -3.7669    3.0752   -0.1029 H   0  0  0  0  0  0  0  0  0  0  0  0
    0.2727    2.1617   -0.5417 H   0  0  0  0  0  0  0  0  0  0  0  0
    4.1177    0.1575   -0.8609 H   0  0  0  0  0  0  0  0  0  0  0  0
    3.0424   -1.2111   -1.2457 H   0  0  0  0  0  0  0  0  0  0  0  0
    3.3966   -0.7971    0.4599 H   0  0  0  0  0  0  0  0  0  0  0  0
    1.3654   -1.9308    0.2116 H   0  0  0  0  0  0  0  0  0  0  0  0
   -0.9749   -2.4643    0.8353 H   0  0  0  0  0  0  0  0  0  0  0  0
   -5.8130    2.6524    0.4000 S   0  0  0  0  0  0  0  0  0  0  0  0
   -5.6156    2.4893    2.2463 C   0  0  0  0  0  0  0  0  0  0  0  0
   -7.0171    3.4205    0.1599 O   0  0  0  0  0  0  0  0  0  0  0  0
   -5.5839    1.3274   -0.1600 O   0  0  0  0  0  0  0  0  0  0  0  0
   -4.5592    3.6175    0.0774 O   0  0  0  0  0  0  0  0  0  0  0  0
   -5.6573    3.6864    2.8224 F   0  0  0  0  0  0  0  0  0  0  0  0
   -6.6063    1.7301    2.7127 F   0  0  0  0  0  0  0  0  0  0  0  0
   -4.4433    1.9040    2.5138 F   0  0  0  0  0  0  0  0  0  0  0  0
  1 10  1  0  0  0  0
  1  2  1  0  0  0  0
  2  3  1  0  0  0  0
  4  1  2  0  0  0  0
  5  6  2  0  0  0  0
  5  4  1  0  0  0  0
  6  9  1  0  0  0  0
  7  8  1  0  0  0  0
  7  6  1  0  0  0  0
  8 15  1  0  0  0  0
  9 16  1  0  0  0  0
  9 10  2  0  0  0  0
 10 17  1  0  0  0  0
 11 22  1  0  0  0  0
 12  5  1  0  0  0  0
 13  8  1  0  0  0  0
 14  8  1  0  0  0  0
 18 19  1  0  0  0  0
 19 25  1  0  0  0  0
 19 24  1  0  0  0  0
 19 23  1  0  0  0  0
 20 18  2  0  0  0  0
 21 18  2  0  0  0  0
 22 18  1  0  0  0  0
M  RAD  3   2   2   3   3   4   2
M  END
