Coordinates from ORCA-job 4-MeOPhN2+~TfO-_B3LYPG-6-31G_dp-CH-Scan-d09-49-n800
 OpenBabel11261919093D

 25 24  0  0  0  0  0  0  0  0999 V2000
   -1.7472   -0.4145    0.5187 C   0  0  0  0  0  0  0  0  0  0  0  0
   -3.0185   -0.7758    0.8895 N   0  0  0  0  0  0  0  0  0  0  0  0
   -4.0663   -1.0327    1.1929 N   0  0  0  0  0  0  0  0  0  0  0  0
   -1.5761    0.9508    0.1757 C   0  0  0  0  0  0  0  0  0  0  0  0
   -0.2464    1.2172   -0.1780 C   0  0  0  0  0  0  0  0  0  0  0  0
    0.7724    0.2489   -0.1855 C   0  0  0  0  0  0  0  0  0  0  0  0
    1.9993    0.6788   -0.5496 O   0  0  0  0  0  0  0  0  0  0  0  0
    3.0925   -0.2346   -0.5795 C   0  0  0  0  0  0  0  0  0  0  0  0
    0.5054   -1.1017    0.1744 C   0  0  0  0  0  0  0  0  0  0  0  0
   -0.7749   -1.4492    0.5350 C   0  0  0  0  0  0  0  0  0  0  0  0
   -3.3392    2.6026    0.1082 H   0  0  0  0  0  0  0  0  0  0  0  0
    0.0553    2.2218   -0.4707 H   0  0  0  0  0  0  0  0  0  0  0  0
    3.9570    0.3493   -0.8963 H   0  0  0  0  0  0  0  0  0  0  0  0
    2.9199   -1.0443   -1.2978 H   0  0  0  0  0  0  0  0  0  0  0  0
    3.2880   -0.6591    0.4123 H   0  0  0  0  0  0  0  0  0  0  0  0
    1.2859   -1.8517    0.1688 H   0  0  0  0  0  0  0  0  0  0  0  0
   -1.0243   -2.4682    0.8189 H   0  0  0  0  0  0  0  0  0  0  0  0
   -5.4840    2.5672    0.3379 S   0  0  0  0  0  0  0  0  0  0  0  0
   -5.5387    2.5060    2.1983 C   0  0  0  0  0  0  0  0  0  0  0  0
   -6.5142    3.4928   -0.0903 O   0  0  0  0  0  0  0  0  0  0  0  0
   -5.4399    1.1783   -0.1061 O   0  0  0  0  0  0  0  0  0  0  0  0
   -4.0675    3.2777    0.1271 O   0  0  0  0  0  0  0  0  0  0  0  0
   -5.4460    3.7305    2.7095 F   0  0  0  0  0  0  0  0  0  0  0  0
   -6.6890    1.9489    2.5782 F   0  0  0  0  0  0  0  0  0  0  0  0
   -4.5192    1.7598    2.6455 F   0  0  0  0  0  0  0  0  0  0  0  0
  1 10  1  0  0  0  0
  1  2  1  0  0  0  0
  2  3  1  0  0  0  0
  4  1  2  0  0  0  0
  5  4  1  0  0  0  0
  6  5  2  0  0  0  0
  6  9  1  0  0  0  0
  7  6  1  0  0  0  0
  8  7  1  0  0  0  0
  8 15  1  0  0  0  0
  9 10  2  0  0  0  0
 10 17  1  0  0  0  0
 11 22  1  0  0  0  0
 12  5  1  0  0  0  0
 13  8  1  0  0  0  0
 14  8  1  0  0  0  0
 16  9  1  0  0  0  0
 18 19  1  0  0  0  0
 19 24  1  0  0  0  0
 19 25  1  0  0  0  0
 19 23  1  0  0  0  0
 20 18  2  0  0  0  0
 21 18  2  0  0  0  0
 22 18  1  0  0  0  0
M  RAD  3   2   2   3   3   4   2
M  END
