Coordinates from ORCA-job 4-MeOPhN2+~TfO-_B3LYPG-6-31G_dp-CH-Scan-d09-49-n800
 OpenBabel11261919093D

 25 24  0  0  0  0  0  0  0  0999 V2000
   -1.6668   -0.4063    0.4717 C   0  0  0  0  0  0  0  0  0  0  0  0
   -2.9543   -0.7320    0.8251 N   0  0  0  0  0  0  0  0  0  0  0  0
   -4.0151   -0.9514    1.1150 N   0  0  0  0  0  0  0  0  0  0  0  0
   -1.4734    0.9511    0.1135 C   0  0  0  0  0  0  0  0  0  0  0  0
   -0.1295    1.1845   -0.2195 C   0  0  0  0  0  0  0  0  0  0  0  0
    0.8709    0.1986   -0.1942 C   0  0  0  0  0  0  0  0  0  0  0  0
    2.1141    0.6000   -0.5421 O   0  0  0  0  0  0  0  0  0  0  0  0
    3.1889   -0.3341   -0.5377 C   0  0  0  0  0  0  0  0  0  0  0  0
    0.5742   -1.1430    0.1802 C   0  0  0  0  0  0  0  0  0  0  0  0
   -0.7181   -1.4626    0.5224 C   0  0  0  0  0  0  0  0  0  0  0  0
   -3.6425    2.9236   -0.0687 H   0  0  0  0  0  0  0  0  0  0  0  0
    0.1991    2.1787   -0.5217 H   0  0  0  0  0  0  0  0  0  0  0  0
    4.0710    0.2277   -0.8464 H   0  0  0  0  0  0  0  0  0  0  0  0
    3.0151   -1.1515   -1.2473 H   0  0  0  0  0  0  0  0  0  0  0  0
    3.3582   -0.7483    0.4633 H   0  0  0  0  0  0  0  0  0  0  0  0
    1.3419   -1.9060    0.1997 H   0  0  0  0  0  0  0  0  0  0  0  0
   -0.9917   -2.4727    0.8166 H   0  0  0  0  0  0  0  0  0  0  0  0
   -5.7233    2.6255    0.3872 S   0  0  0  0  0  0  0  0  0  0  0  0
   -5.5708    2.5014    2.2405 C   0  0  0  0  0  0  0  0  0  0  0  0
   -6.8807    3.4491    0.1038 O   0  0  0  0  0  0  0  0  0  0  0  0
   -5.5617    1.2728   -0.1295 O   0  0  0  0  0  0  0  0  0  0  0  0
   -4.4162    3.5100    0.0635 O   0  0  0  0  0  0  0  0  0  0  0  0
   -5.5540    3.7137    2.7856 F   0  0  0  0  0  0  0  0  0  0  0  0
   -6.6119    1.8129    2.7079 F   0  0  0  0  0  0  0  0  0  0  0  0
   -4.4392    1.8571    2.5478 F   0  0  0  0  0  0  0  0  0  0  0  0
  1 10  1  0  0  0  0
  1  2  1  0  0  0  0
  2  3  1  0  0  0  0
  4  1  2  0  0  0  0
  5  6  2  0  0  0  0
  5  4  1  0  0  0  0
  6  9  1  0  0  0  0
  7  8  1  0  0  0  0
  7  6  1  0  0  0  0
  8 15  1  0  0  0  0
  9 16  1  0  0  0  0
  9 10  2  0  0  0  0
 10 17  1  0  0  0  0
 11 22  1  0  0  0  0
 12  5  1  0  0  0  0
 13  8  1  0  0  0  0
 14  8  1  0  0  0  0
 18 19  1  0  0  0  0
 19 25  1  0  0  0  0
 19 24  1  0  0  0  0
 19 23  1  0  0  0  0
 20 18  2  0  0  0  0
 21 18  2  0  0  0  0
 22 18  1  0  0  0  0
M  RAD  3   2   2   3   3   4   2
M  END
