Coordinates from ORCA-job 4-MeOPhN2+~TfO-_B3LYPG-6-31G_dp-CH-Scan-d09-49-n800
 OpenBabel11261919093D

 25 24  0  0  0  0  0  0  0  0999 V2000
   -1.5033   -0.3225    0.5733 C   0  0  0  0  0  0  0  0  0  0  0  0
   -2.7976   -0.5637    0.9744 N   0  0  0  0  0  0  0  0  0  0  0  0
   -3.8613   -0.7015    1.3040 N   0  0  0  0  0  0  0  0  0  0  0  0
   -1.2498    1.0284    0.2329 C   0  0  0  0  0  0  0  0  0  0  0  0
    0.0947    1.1819   -0.1517 C   0  0  0  0  0  0  0  0  0  0  0  0
    1.0304    0.1359   -0.1882 C   0  0  0  0  0  0  0  0  0  0  0  0
    2.2823    0.4649   -0.5847 O   0  0  0  0  0  0  0  0  0  0  0  0
    3.2918   -0.5363   -0.6489 C   0  0  0  0  0  0  0  0  0  0  0  0
    0.6676   -1.1937    0.1750 C   0  0  0  0  0  0  0  0  0  0  0  0
   -0.6264   -1.4404    0.5671 C   0  0  0  0  0  0  0  0  0  0  0  0
   -3.9873    3.4182   -0.0925 H   0  0  0  0  0  0  0  0  0  0  0  0
    0.4748    2.1595   -0.4501 H   0  0  0  0  0  0  0  0  0  0  0  0
    4.1941   -0.0270   -0.9890 H   0  0  0  0  0  0  0  0  0  0  0  0
    3.0325   -1.3256   -1.3643 H   0  0  0  0  0  0  0  0  0  0  0  0
    3.4806   -0.9828    0.3349 H   0  0  0  0  0  0  0  0  0  0  0  0
    1.3871   -2.0022    0.1474 H   0  0  0  0  0  0  0  0  0  0  0  0
   -0.9508   -2.4372    0.8560 H   0  0  0  0  0  0  0  0  0  0  0  0
   -5.9520    2.6840    0.3705 S   0  0  0  0  0  0  0  0  0  0  0  0
   -5.7874    2.4462    2.2127 C   0  0  0  0  0  0  0  0  0  0  0  0
   -7.2445    3.2896    0.1266 O   0  0  0  0  0  0  0  0  0  0  0  0
   -5.5131    1.4453   -0.2561 O   0  0  0  0  0  0  0  0  0  0  0  0
   -4.8334    3.8358    0.1503 O   0  0  0  0  0  0  0  0  0  0  0  0
   -6.0471    3.5855    2.8462 F   0  0  0  0  0  0  0  0  0  0  0  0
   -6.6535    1.5094    2.5944 F   0  0  0  0  0  0  0  0  0  0  0  0
   -4.5443    2.0474    2.4969 F   0  0  0  0  0  0  0  0  0  0  0  0
  1  2  1  0  0  0  0
  2  3  1  0  0  0  0
  4  1  2  0  0  0  0
  5  4  1  0  0  0  0
  6  5  2  0  0  0  0
  6  9  1  0  0  0  0
  7  6  1  0  0  0  0
  8  7  1  0  0  0  0
  8 15  1  0  0  0  0
  9 10  2  0  0  0  0
 10  1  1  0  0  0  0
 10 17  1  0  0  0  0
 11 22  1  0  0  0  0
 12  5  1  0  0  0  0
 13  8  1  0  0  0  0
 14  8  1  0  0  0  0
 16  9  1  0  0  0  0
 18 19  1  0  0  0  0
 19 25  1  0  0  0  0
 19 24  1  0  0  0  0
 19 23  1  0  0  0  0
 20 18  2  0  0  0  0
 21 18  2  0  0  0  0
 22 18  1  0  0  0  0
M  RAD  3   2   2   3   3   4   2
M  END
