Coordinates from ORCA-job 4-MeOPhN2+~TfO-_B3LYPG-6-31G_dp-CH-Scan-d09-49-n800
 OpenBabel11261919093D

 25 24  0  0  0  0  0  0  0  0999 V2000
   -1.8223   -0.4243    0.5455 C   0  0  0  0  0  0  0  0  0  0  0  0
   -3.0810   -0.8174    0.9234 N   0  0  0  0  0  0  0  0  0  0  0  0
   -4.1190   -1.1021    1.2331 N   0  0  0  0  0  0  0  0  0  0  0  0
   -1.6685    0.9471    0.2166 C   0  0  0  0  0  0  0  0  0  0  0  0
   -0.3494    1.2424   -0.1439 C   0  0  0  0  0  0  0  0  0  0  0  0
    0.6858    0.2909   -0.1723 C   0  0  0  0  0  0  0  0  0  0  0  0
    1.9001    0.7470   -0.5403 O   0  0  0  0  0  0  0  0  0  0  0  0
    3.0099   -0.1463   -0.5916 C   0  0  0  0  0  0  0  0  0  0  0  0
    0.4422   -1.0669    0.1719 C   0  0  0  0  0  0  0  0  0  0  0  0
   -0.8299   -1.4387    0.5388 C   0  0  0  0  0  0  0  0  0  0  0  0
   -3.1290    2.3370    0.1818 H   0  0  0  0  0  0  0  0  0  0  0  0
   -0.0707    2.2561   -0.4254 H   0  0  0  0  0  0  0  0  0  0  0  0
    3.8607    0.4581   -0.9064 H   0  0  0  0  0  0  0  0  0  0  0  0
    2.8453   -0.9481   -1.3204 H   0  0  0  0  0  0  0  0  0  0  0  0
    3.2201   -0.5807    0.3927 H   0  0  0  0  0  0  0  0  0  0  0  0
    1.2336   -1.8049    0.1501 H   0  0  0  0  0  0  0  0  0  0  0  0
   -1.0601   -2.4649    0.8116 H   0  0  0  0  0  0  0  0  0  0  0  0
   -5.2956    2.5172    0.3075 S   0  0  0  0  0  0  0  0  0  0  0  0
   -5.4637    2.5090    2.1607 C   0  0  0  0  0  0  0  0  0  0  0  0
   -6.2323    3.5048   -0.1958 O   0  0  0  0  0  0  0  0  0  0  0  0
   -5.3590    1.1138   -0.0962 O   0  0  0  0  0  0  0  0  0  0  0  0
   -3.8247    3.0854    0.1644 O   0  0  0  0  0  0  0  0  0  0  0  0
   -5.2880    3.7323    2.6555 F   0  0  0  0  0  0  0  0  0  0  0  0
   -6.6784    2.0665    2.4902 F   0  0  0  0  0  0  0  0  0  0  0  0
   -4.5419    1.6855    2.6855 F   0  0  0  0  0  0  0  0  0  0  0  0
  1  2  1  0  0  0  0
  2  3  1  0  0  0  0
  4  1  2  0  0  0  0
  5  4  1  0  0  0  0
  6  5  2  0  0  0  0
  6  9  1  0  0  0  0
  7  6  1  0  0  0  0
  8  7  1  0  0  0  0
  8 15  1  0  0  0  0
  9 10  2  0  0  0  0
 10  1  1  0  0  0  0
 10 17  1  0  0  0  0
 12  5  1  0  0  0  0
 13  8  1  0  0  0  0
 14  8  1  0  0  0  0
 16  9  1  0  0  0  0
 18 19  1  0  0  0  0
 19 24  1  0  0  0  0
 19 23  1  0  0  0  0
 19 25  1  0  0  0  0
 20 18  2  0  0  0  0
 21 18  2  0  0  0  0
 22 11  1  0  0  0  0
 22 18  1  0  0  0  0
M  RAD  3   2   2   3   3   4   2
M  END
