Coordinates from ORCA-job 4-MeOPhN2+~TfO-_B3LYPG-6-31G_dp-CH-Scan-d09-49-n800
 OpenBabel11261919093D

 25 24  0  0  0  0  0  0  0  0999 V2000
   -1.5171   -0.3395    0.6631 C   0  0  0  0  0  0  0  0  0  0  0  0
   -2.8254   -0.5720    1.0287 N   0  0  0  0  0  0  0  0  0  0  0  0
   -3.8978   -0.6852    1.3404 N   0  0  0  0  0  0  0  0  0  0  0  0
   -1.2043    1.0363    0.5610 C   0  0  0  0  0  0  0  0  0  0  0  0
    0.1479    1.1905    0.1999 C   0  0  0  0  0  0  0  0  0  0  0  0
    1.0326    0.1238   -0.0221 C   0  0  0  0  0  0  0  0  0  0  0  0
    2.3007    0.4567   -0.3643 O   0  0  0  0  0  0  0  0  0  0  0  0
    3.2620   -0.5659   -0.5981 C   0  0  0  0  0  0  0  0  0  0  0  0
    0.6071   -1.2308    0.1074 C   0  0  0  0  0  0  0  0  0  0  0  0
   -0.6979   -1.4815    0.4592 C   0  0  0  0  0  0  0  0  0  0  0  0
   -4.6237    3.7797   -0.6366 H   0  0  0  0  0  0  0  0  0  0  0  0
    0.5757    2.1862    0.0735 H   0  0  0  0  0  0  0  0  0  0  0  0
    4.1903   -0.0504   -0.8467 H   0  0  0  0  0  0  0  0  0  0  0  0
    2.9719   -1.2095   -1.4373 H   0  0  0  0  0  0  0  0  0  0  0  0
    3.4210   -1.1828    0.2950 H   0  0  0  0  0  0  0  0  0  0  0  0
    1.2885   -2.0542   -0.0658 H   0  0  0  0  0  0  0  0  0  0  0  0
   -1.0706   -2.4970    0.5722 H   0  0  0  0  0  0  0  0  0  0  0  0
   -6.1082    2.6076    0.3747 S   0  0  0  0  0  0  0  0  0  0  0  0
   -5.3648    2.4852    2.0818 C   0  0  0  0  0  0  0  0  0  0  0  0
   -7.5240    2.8655    0.5357 O   0  0  0  0  0  0  0  0  0  0  0  0
   -5.5742    1.5040   -0.4105 O   0  0  0  0  0  0  0  0  0  0  0  0
   -5.4189    3.9954   -0.1178 O   0  0  0  0  0  0  0  0  0  0  0  0
   -5.6871    3.5607    2.7942 F   0  0  0  0  0  0  0  0  0  0  0  0
   -5.8573    1.3924    2.6665 F   0  0  0  0  0  0  0  0  0  0  0  0
   -4.0420    2.3839    1.9830 F   0  0  0  0  0  0  0  0  0  0  0  0
  1  2  1  0  0  0  0
  2  3  1  0  0  0  0
  4  1  1  0  0  0  0
  5  4  2  0  0  0  0
  6  9  2  0  0  0  0
  6  5  1  0  0  0  0
  7  6  1  0  0  0  0
  8  7  1  0  0  0  0
  8 15  1  0  0  0  0
  9 10  1  0  0  0  0
 10 17  1  0  0  0  0
 10  1  2  0  0  0  0
 11 22  1  0  0  0  0
 12  5  1  0  0  0  0
 13  8  1  0  0  0  0
 14  8  1  0  0  0  0
 16  9  1  0  0  0  0
 18 20  2  0  0  0  0
 18 19  1  0  0  0  0
 19 24  1  0  0  0  0
 19 23  1  0  0  0  0
 21 18  2  0  0  0  0
 22 18  1  0  0  0  0
 25 19  1  0  0  0  0
M  RAD  3   2   2   3   3   4   2
M  END
