Coordinates from ORCA-job 4-MeOPhN2+~TfO-_B3LYPG-6-31G_dp-CH-Scan-d09-49-n800
 OpenBabel11261919093D

 25 24  0  0  0  0  0  0  0  0999 V2000
   -1.5172   -0.3401    0.6831 C   0  0  0  0  0  0  0  0  0  0  0  0
   -2.8284   -0.5731    1.0388 N   0  0  0  0  0  0  0  0  0  0  0  0
   -3.9035   -0.6853    1.3412 N   0  0  0  0  0  0  0  0  0  0  0  0
   -1.1931    1.0356    0.6277 C   0  0  0  0  0  0  0  0  0  0  0  0
    0.1595    1.1909    0.2687 C   0  0  0  0  0  0  0  0  0  0  0  0
    1.0343    0.1250    0.0071 C   0  0  0  0  0  0  0  0  0  0  0  0
    2.3041    0.4588   -0.3282 O   0  0  0  0  0  0  0  0  0  0  0  0
    3.2555   -0.5632   -0.6018 C   0  0  0  0  0  0  0  0  0  0  0  0
    0.5978   -1.2297    0.0916 C   0  0  0  0  0  0  0  0  0  0  0  0
   -0.7085   -1.4814    0.4381 C   0  0  0  0  0  0  0  0  0  0  0  0
   -4.6697    3.7517   -0.6908 H   0  0  0  0  0  0  0  0  0  0  0  0
    0.5956    2.1867    0.1762 H   0  0  0  0  0  0  0  0  0  0  0  0
    4.1865   -0.0473   -0.8387 H   0  0  0  0  0  0  0  0  0  0  0  0
    2.9552   -1.1761   -1.4604 H   0  0  0  0  0  0  0  0  0  0  0  0
    3.4146   -1.2109    0.2692 H   0  0  0  0  0  0  0  0  0  0  0  0
    1.2720   -2.0521   -0.1115 H   0  0  0  0  0  0  0  0  0  0  0  0
   -1.0896   -2.4969    0.5170 H   0  0  0  0  0  0  0  0  0  0  0  0
   -6.1236    2.5904    0.3764 S   0  0  0  0  0  0  0  0  0  0  0  0
   -5.3263    2.5042    2.0614 C   0  0  0  0  0  0  0  0  0  0  0  0
   -7.5353    2.8446    0.5737 O   0  0  0  0  0  0  0  0  0  0  0  0
   -5.6067    1.4751   -0.4042 O   0  0  0  0  0  0  0  0  0  0  0  0
   -5.4572    3.9725   -0.1629 O   0  0  0  0  0  0  0  0  0  0  0  0
   -5.6449    3.5840    2.7688 F   0  0  0  0  0  0  0  0  0  0  0  0
   -5.7807    1.4115    2.6768 F   0  0  0  0  0  0  0  0  0  0  0  0
   -4.0061    2.4242    1.9197 F   0  0  0  0  0  0  0  0  0  0  0  0
  1  2  1  0  0  0  0
  2  3  1  0  0  0  0
  4  1  1  0  0  0  0
  5  4  2  0  0  0  0
  6  9  2  0  0  0  0
  6  5  1  0  0  0  0
  7  6  1  0  0  0  0
  8  7  1  0  0  0  0
  8 15  1  0  0  0  0
  9 10  1  0  0  0  0
 10 17  1  0  0  0  0
 10  1  2  0  0  0  0
 11 22  1  0  0  0  0
 12  5  1  0  0  0  0
 13  8  1  0  0  0  0
 14  8  1  0  0  0  0
 16  9  1  0  0  0  0
 18 20  2  0  0  0  0
 18 19  1  0  0  0  0
 19 24  1  0  0  0  0
 19 23  1  0  0  0  0
 21 18  2  0  0  0  0
 22 18  1  0  0  0  0
 25 19  1  0  0  0  0
M  RAD  3   2   2   3   3   4   2
M  END
