Coordinates from ORCA-job 4-MeOPhN2+~TfO-_B3LYPG-6-31G_dp-CH-Scan-d09-49-n800
 OpenBabel11261919093D

 25 24  0  0  0  0  0  0  0  0999 V2000
   -1.6515   -0.4029    0.4724 C   0  0  0  0  0  0  0  0  0  0  0  0
   -2.9414   -0.7195    0.8257 N   0  0  0  0  0  0  0  0  0  0  0  0
   -4.0051   -0.9283    1.1134 N   0  0  0  0  0  0  0  0  0  0  0  0
   -1.4549    0.9529    0.1092 C   0  0  0  0  0  0  0  0  0  0  0  0
   -0.1095    1.1793   -0.2246 C   0  0  0  0  0  0  0  0  0  0  0  0
    0.8870    0.1898   -0.1957 C   0  0  0  0  0  0  0  0  0  0  0  0
    2.1320    0.5849   -0.5458 O   0  0  0  0  0  0  0  0  0  0  0  0
    3.2028   -0.3535   -0.5386 C   0  0  0  0  0  0  0  0  0  0  0  0
    0.5859   -1.1494    0.1842 C   0  0  0  0  0  0  0  0  0  0  0  0
   -0.7075   -1.4632    0.5276 C   0  0  0  0  0  0  0  0  0  0  0  0
   -3.6905    2.9853   -0.0867 H   0  0  0  0  0  0  0  0  0  0  0  0
    0.2234    2.1710   -0.5306 H   0  0  0  0  0  0  0  0  0  0  0  0
    4.0870    0.2032   -0.8506 H   0  0  0  0  0  0  0  0  0  0  0  0
    3.0251   -1.1733   -1.2443 H   0  0  0  0  0  0  0  0  0  0  0  0
    3.3716   -0.7642    0.4641 H   0  0  0  0  0  0  0  0  0  0  0  0
    1.3510   -1.9149    0.2069 H   0  0  0  0  0  0  0  0  0  0  0  0
   -0.9850   -2.4710    0.8261 H   0  0  0  0  0  0  0  0  0  0  0  0
   -5.7575    2.6377    0.3917 S   0  0  0  0  0  0  0  0  0  0  0  0
   -5.5818    2.4943    2.2417 C   0  0  0  0  0  0  0  0  0  0  0  0
   -6.9346    3.4403    0.1310 O   0  0  0  0  0  0  0  0  0  0  0  0
   -5.5701    1.2969   -0.1459 O   0  0  0  0  0  0  0  0  0  0  0  0
   -4.4713    3.5549    0.0661 O   0  0  0  0  0  0  0  0  0  0  0  0
   -5.5899    3.6997    2.8018 F   0  0  0  0  0  0  0  0  0  0  0  0
   -6.6001    1.7735    2.7103 F   0  0  0  0  0  0  0  0  0  0  0  0
   -4.4310    1.8755    2.5280 F   0  0  0  0  0  0  0  0  0  0  0  0
  1 10  1  0  0  0  0
  1  2  1  0  0  0  0
  2  3  1  0  0  0  0
  4  1  2  0  0  0  0
  5  6  2  0  0  0  0
  5  4  1  0  0  0  0
  6  9  1  0  0  0  0
  7  8  1  0  0  0  0
  7  6  1  0  0  0  0
  8 15  1  0  0  0  0
  9 16  1  0  0  0  0
  9 10  2  0  0  0  0
 10 17  1  0  0  0  0
 11 22  1  0  0  0  0
 12  5  1  0  0  0  0
 13  8  1  0  0  0  0
 14  8  1  0  0  0  0
 18 19  1  0  0  0  0
 19 25  1  0  0  0  0
 19 24  1  0  0  0  0
 19 23  1  0  0  0  0
 20 18  2  0  0  0  0
 21 18  2  0  0  0  0
 22 18  1  0  0  0  0
M  RAD  3   2   2   3   3   4   2
M  END
