Coordinates from ORCA-job 4-MeOPhN2+~TfO-_B3LYPG-6-31G_dp-CH-Scan-d09-49-n800
 OpenBabel11261919093D

 25 24  0  0  0  0  0  0  0  0999 V2000
   -1.4301   -0.2881    0.5977 C   0  0  0  0  0  0  0  0  0  0  0  0
   -2.7314   -0.4906    1.0013 N   0  0  0  0  0  0  0  0  0  0  0  0
   -3.7978   -0.5876    1.3375 N   0  0  0  0  0  0  0  0  0  0  0  0
   -1.1317    1.0658    0.3135 C   0  0  0  0  0  0  0  0  0  0  0  0
    0.2166    1.1853   -0.0731 C   0  0  0  0  0  0  0  0  0  0  0  0
    1.1123    0.1081   -0.1597 C   0  0  0  0  0  0  0  0  0  0  0  0
    2.3749    0.4072   -0.5483 O   0  0  0  0  0  0  0  0  0  0  0  0
    3.3459   -0.6271   -0.6587 C   0  0  0  0  0  0  0  0  0  0  0  0
    0.7021   -1.2223    0.1475 C   0  0  0  0  0  0  0  0  0  0  0  0
   -0.5981   -1.4381    0.5375 C   0  0  0  0  0  0  0  0  0  0  0  0
   -4.2793    3.6278   -0.2245 H   0  0  0  0  0  0  0  0  0  0  0  0
    0.6320    2.1601   -0.3320 H   0  0  0  0  0  0  0  0  0  0  0  0
    4.2670   -0.1376   -0.9769 H   0  0  0  0  0  0  0  0  0  0  0  0
    3.0575   -1.3736   -1.4084 H   0  0  0  0  0  0  0  0  0  0  0  0
    3.5174   -1.1246    0.3037 H   0  0  0  0  0  0  0  0  0  0  0  0
    1.3910   -2.0547    0.0795 H   0  0  0  0  0  0  0  0  0  0  0  0
   -0.9584   -2.4337    0.7851 H   0  0  0  0  0  0  0  0  0  0  0  0
   -6.1122    2.6878    0.3798 S   0  0  0  0  0  0  0  0  0  0  0  0
   -5.8047    2.4513    2.2038 C   0  0  0  0  0  0  0  0  0  0  0  0
   -7.4738    3.1562    0.2285 O   0  0  0  0  0  0  0  0  0  0  0  0
   -5.5836    1.5131   -0.2986 O   0  0  0  0  0  0  0  0  0  0  0  0
   -5.1338    3.9547    0.1082 O   0  0  0  0  0  0  0  0  0  0  0  0
   -6.1165    3.5606    2.8662 F   0  0  0  0  0  0  0  0  0  0  0  0
   -6.5636    1.4425    2.6279 F   0  0  0  0  0  0  0  0  0  0  0  0
   -4.5175    2.1564    2.3997 F   0  0  0  0  0  0  0  0  0  0  0  0
  1  2  1  0  0  0  0
  2  3  1  0  0  0  0
  4  1  2  0  0  0  0
  5  4  1  0  0  0  0
  6  5  2  0  0  0  0
  6  9  1  0  0  0  0
  7  6  1  0  0  0  0
  8  7  1  0  0  0  0
  8 15  1  0  0  0  0
  9 10  2  0  0  0  0
 10  1  1  0  0  0  0
 10 17  1  0  0  0  0
 11 22  1  0  0  0  0
 12  5  1  0  0  0  0
 13  8  1  0  0  0  0
 14  8  1  0  0  0  0
 16  9  1  0  0  0  0
 18 19  1  0  0  0  0
 19 25  1  0  0  0  0
 19 24  1  0  0  0  0
 19 23  1  0  0  0  0
 20 18  2  0  0  0  0
 21 18  2  0  0  0  0
 22 18  1  0  0  0  0
M  RAD  3   2   2   3   3   4   2
M  END
