Coordinates from ORCA-job 4-MeOPhN2+~TfO-_B3LYPG-6-31G_dp-CH-Scan-d09-49-n800
 OpenBabel11261919093D

 25 24  0  0  0  0  0  0  0  0999 V2000
   -1.7709   -0.2852    0.7002 C   0  0  0  0  0  0  0  0  0  0  0  0
   -3.0282   -0.5910    1.1535 N   0  0  0  0  0  0  0  0  0  0  0  0
   -4.0961   -0.7176    1.4631 N   0  0  0  0  0  0  0  0  0  0  0  0
   -1.5060    1.0595    0.3545 C   0  0  0  0  0  0  0  0  0  0  0  0
   -0.2343    1.3369   -0.1050 C   0  0  0  0  0  0  0  0  0  0  0  0
    0.7400    0.3225   -0.2227 C   0  0  0  0  0  0  0  0  0  0  0  0
    1.9337    0.7182   -0.6861 O   0  0  0  0  0  0  0  0  0  0  0  0
    2.9891   -0.2337   -0.8432 C   0  0  0  0  0  0  0  0  0  0  0  0
    0.4391   -1.0129    0.1387 C   0  0  0  0  0  0  0  0  0  0  0  0
   -0.8220   -1.3222    0.6084 C   0  0  0  0  0  0  0  0  0  0  0  0
   -2.4341    1.9444    0.4990 H   0  0  0  0  0  0  0  0  0  0  0  0
    0.0427    2.3466   -0.3890 H   0  0  0  0  0  0  0  0  0  0  0  0
    3.8356    0.3309   -1.2322 H   0  0  0  0  0  0  0  0  0  0  0  0
    2.7119   -1.0160   -1.5578 H   0  0  0  0  0  0  0  0  0  0  0  0
    3.2616   -0.6838    0.1176 H   0  0  0  0  0  0  0  0  0  0  0  0
    1.1809   -1.7962    0.0523 H   0  0  0  0  0  0  0  0  0  0  0  0
   -1.0794   -2.3369    0.8928 H   0  0  0  0  0  0  0  0  0  0  0  0
   -5.0085    2.4835    0.4271 S   0  0  0  0  0  0  0  0  0  0  0  0
   -5.9221    2.4512    2.0438 C   0  0  0  0  0  0  0  0  0  0  0  0
   -5.7439    3.4243   -0.4189 O   0  0  0  0  0  0  0  0  0  0  0  0
   -5.0255    1.0539    0.0049 O   0  0  0  0  0  0  0  0  0  0  0  0
   -3.6383    2.9316    0.8572 O   0  0  0  0  0  0  0  0  0  0  0  0
   -5.9246    3.6559    2.6243 F   0  0  0  0  0  0  0  0  0  0  0  0
   -7.1887    2.0569    1.8657 F   0  0  0  0  0  0  0  0  0  0  0  0
   -5.3278    1.5780    2.8891 F   0  0  0  0  0  0  0  0  0  0  0  0
  1  2  1  0  0  0  0
  2  3  1  0  0  0  0
  4 11  1  0  0  0  0
  4  1  2  0  0  0  0
  5  4  1  0  0  0  0
  6  5  2  0  0  0  0
  6  9  1  0  0  0  0
  7  6  1  0  0  0  0
  8  7  1  0  0  0  0
  8 15  1  0  0  0  0
  9 10  2  0  0  0  0
 10  1  1  0  0  0  0
 10 17  1  0  0  0  0
 12  5  1  0  0  0  0
 13  8  1  0  0  0  0
 14  8  1  0  0  0  0
 16  9  1  0  0  0  0
 18 22  1  0  0  0  0
 18 19  1  0  0  0  0
 19 23  1  0  0  0  0
 19 25  1  0  0  0  0
 20 18  2  0  0  0  0
 21 18  2  0  0  0  0
 24 19  1  0  0  0  0
M  RAD  3   2   2   3   3  22   2
M  END
