Coordinates from ORCA-job 4-MeOPhN2+~TfO-_B3LYPG-6-31G_dp-CH-Scan-d09-49-n800
 OpenBabel11261919093D

 25 24  0  0  0  0  0  0  0  0999 V2000
   -1.6022   -0.3843    0.4752 C   0  0  0  0  0  0  0  0  0  0  0  0
   -2.8973   -0.6798    0.8312 N   0  0  0  0  0  0  0  0  0  0  0  0
   -3.9646   -0.8720    1.1181 N   0  0  0  0  0  0  0  0  0  0  0  0
   -1.3901    0.9660    0.1030 C   0  0  0  0  0  0  0  0  0  0  0  0
   -0.0413    1.1699   -0.2351 C   0  0  0  0  0  0  0  0  0  0  0  0
    0.9408    0.1666   -0.2026 C   0  0  0  0  0  0  0  0  0  0  0  0
    2.1908    0.5407   -0.5600 O   0  0  0  0  0  0  0  0  0  0  0  0
    3.2470   -0.4138   -0.5510 C   0  0  0  0  0  0  0  0  0  0  0  0
    0.6222   -1.1659    0.1880 C   0  0  0  0  0  0  0  0  0  0  0  0
   -0.6746   -1.4589    0.5367 C   0  0  0  0  0  0  0  0  0  0  0  0
   -3.8170    3.1367   -0.1095 H   0  0  0  0  0  0  0  0  0  0  0  0
    0.3058    2.1546   -0.5487 H   0  0  0  0  0  0  0  0  0  0  0  0
    4.1381    0.1267   -0.8718 H   0  0  0  0  0  0  0  0  0  0  0  0
    3.0533   -1.2363   -1.2495 H   0  0  0  0  0  0  0  0  0  0  0  0
    3.4149   -0.8197    0.4538 H   0  0  0  0  0  0  0  0  0  0  0  0
    1.3767   -1.9418    0.2146 H   0  0  0  0  0  0  0  0  0  0  0  0
   -0.9658   -2.4605    0.8434 H   0  0  0  0  0  0  0  0  0  0  0  0
   -5.8489    2.6631    0.4046 S   0  0  0  0  0  0  0  0  0  0  0  0
   -5.6432    2.4865    2.2489 C   0  0  0  0  0  0  0  0  0  0  0  0
   -7.0699    3.4071    0.1748 O   0  0  0  0  0  0  0  0  0  0  0  0
   -5.5901    1.3504   -0.1705 O   0  0  0  0  0  0  0  0  0  0  0  0
   -4.6166    3.6600    0.0898 O   0  0  0  0  0  0  0  0  0  0  0  0
   -5.7068    3.6774    2.8357 F   0  0  0  0  0  0  0  0  0  0  0  0
   -6.6180    1.7041    2.7101 F   0  0  0  0  0  0  0  0  0  0  0  0
   -4.4592    1.9220    2.5080 F   0  0  0  0  0  0  0  0  0  0  0  0
  1 10  1  0  0  0  0
  1  2  1  0  0  0  0
  2  3  1  0  0  0  0
  4  1  2  0  0  0  0
  5  6  2  0  0  0  0
  5  4  1  0  0  0  0
  6  9  1  0  0  0  0
  7  8  1  0  0  0  0
  7  6  1  0  0  0  0
  8 15  1  0  0  0  0
  9 16  1  0  0  0  0
  9 10  2  0  0  0  0
 10 17  1  0  0  0  0
 11 22  1  0  0  0  0
 12  5  1  0  0  0  0
 13  8  1  0  0  0  0
 14  8  1  0  0  0  0
 18 19  1  0  0  0  0
 19 25  1  0  0  0  0
 19 24  1  0  0  0  0
 19 23  1  0  0  0  0
 20 18  2  0  0  0  0
 21 18  2  0  0  0  0
 22 18  1  0  0  0  0
M  RAD  3   2   2   3   3   4   2
M  END
