Coordinates from ORCA-job 4-MeOPhN2+~TfO-_B3LYPG-6-31G_dp-CH-Scan-d09-49-n800
 OpenBabel11261919093D

 25 24  0  0  0  0  0  0  0  0999 V2000
   -1.5643   -0.3498    0.6596 C   0  0  0  0  0  0  0  0  0  0  0  0
   -2.8633   -0.6028    1.0422 N   0  0  0  0  0  0  0  0  0  0  0  0
   -3.9303   -0.7376    1.3628 N   0  0  0  0  0  0  0  0  0  0  0  0
   -1.2918    1.0262    0.4721 C   0  0  0  0  0  0  0  0  0  0  0  0
    0.0541    1.1974    0.0963 C   0  0  0  0  0  0  0  0  0  0  0  0
    0.9696    0.1459   -0.0655 C   0  0  0  0  0  0  0  0  0  0  0  0
    2.2257    0.4949   -0.4338 O   0  0  0  0  0  0  0  0  0  0  0  0
    3.2156   -0.5112   -0.6150 C   0  0  0  0  0  0  0  0  0  0  0  0
    0.5849   -1.2100    0.1483 C   0  0  0  0  0  0  0  0  0  0  0  0
   -0.7110   -1.4767    0.5213 C   0  0  0  0  0  0  0  0  0  0  0  0
   -4.3124    3.6885   -0.4870 H   0  0  0  0  0  0  0  0  0  0  0  0
    0.4518    2.1956   -0.0927 H   0  0  0  0  0  0  0  0  0  0  0  0
    4.1267    0.0159   -0.9001 H   0  0  0  0  0  0  0  0  0  0  0  0
    2.9393   -1.2106   -1.4130 H   0  0  0  0  0  0  0  0  0  0  0  0
    3.3982   -1.0697    0.3114 H   0  0  0  0  0  0  0  0  0  0  0  0
    1.2895   -2.0223    0.0222 H   0  0  0  0  0  0  0  0  0  0  0  0
   -1.0525   -2.4937    0.6990 H   0  0  0  0  0  0  0  0  0  0  0  0
   -5.9821    2.6256    0.3444 S   0  0  0  0  0  0  0  0  0  0  0  0
   -5.3911    2.4306    2.1032 C   0  0  0  0  0  0  0  0  0  0  0  0
   -7.3811    2.9958    0.3931 O   0  0  0  0  0  0  0  0  0  0  0  0
   -5.4764    1.4856   -0.4065 O   0  0  0  0  0  0  0  0  0  0  0  0
   -5.1496    3.9581   -0.0695 O   0  0  0  0  0  0  0  0  0  0  0  0
   -5.7404    3.4939    2.8209 F   0  0  0  0  0  0  0  0  0  0  0  0
   -5.9585    1.3364    2.6124 F   0  0  0  0  0  0  0  0  0  0  0  0
   -4.0665    2.2929    2.1110 F   0  0  0  0  0  0  0  0  0  0  0  0
  1  2  1  0  0  0  0
  2  3  1  0  0  0  0
  4  1  2  0  0  0  0
  5  4  1  0  0  0  0
  6  5  2  0  0  0  0
  6  9  1  0  0  0  0
  7  6  1  0  0  0  0
  8  7  1  0  0  0  0
  8 15  1  0  0  0  0
  9 10  2  0  0  0  0
 10  1  1  0  0  0  0
 10 17  1  0  0  0  0
 11 22  1  0  0  0  0
 12  5  1  0  0  0  0
 13  8  1  0  0  0  0
 14  8  1  0  0  0  0
 16  9  1  0  0  0  0
 18 20  2  0  0  0  0
 18 19  1  0  0  0  0
 19 25  1  0  0  0  0
 19 24  1  0  0  0  0
 19 23  1  0  0  0  0
 21 18  2  0  0  0  0
 22 18  1  0  0  0  0
M  RAD  3   2   2   3   3   4   2
M  END
