Coordinates from ORCA-job 4-MeOPhN2+~TfO-_B3LYPG-6-31G_dp-CH-Scan-d09-49-n800
 OpenBabel11261919093D

 25 24  0  0  0  0  0  0  0  0999 V2000
   -1.6272   -0.3924    0.4720 C   0  0  0  0  0  0  0  0  0  0  0  0
   -2.9201   -0.6988    0.8256 N   0  0  0  0  0  0  0  0  0  0  0  0
   -3.9851   -0.8999    1.1145 N   0  0  0  0  0  0  0  0  0  0  0  0
   -1.4218    0.9607    0.1051 C   0  0  0  0  0  0  0  0  0  0  0  0
   -0.0744    1.1752   -0.2303 C   0  0  0  0  0  0  0  0  0  0  0  0
    0.9144    0.1783   -0.1991 C   0  0  0  0  0  0  0  0  0  0  0  0
    2.1624    0.5624   -0.5519 O   0  0  0  0  0  0  0  0  0  0  0  0
    3.2255   -0.3845   -0.5427 C   0  0  0  0  0  0  0  0  0  0  0  0
    0.6036   -1.1575    0.1857 C   0  0  0  0  0  0  0  0  0  0  0  0
   -0.6919   -1.4603    0.5309 C   0  0  0  0  0  0  0  0  0  0  0  0
   -3.7566    3.0618   -0.1017 H   0  0  0  0  0  0  0  0  0  0  0  0
    0.2662    2.1634   -0.5397 H   0  0  0  0  0  0  0  0  0  0  0  0
    4.1137    0.1638   -0.8583 H   0  0  0  0  0  0  0  0  0  0  0  0
    3.0402   -1.2056   -1.2450 H   0  0  0  0  0  0  0  0  0  0  0  0
    3.3928   -0.7928    0.4612 H   0  0  0  0  0  0  0  0  0  0  0  0
    1.3630   -1.9286    0.2105 H   0  0  0  0  0  0  0  0  0  0  0  0
   -0.9770   -2.4650    0.8328 H   0  0  0  0  0  0  0  0  0  0  0  0
   -5.8057    2.6497    0.3991 S   0  0  0  0  0  0  0  0  0  0  0  0
   -5.6099    2.4903    2.2458 C   0  0  0  0  0  0  0  0  0  0  0  0
   -7.0060    3.4228    0.1564 O   0  0  0  0  0  0  0  0  0  0  0  0
   -5.5832    1.3219   -0.1568 O   0  0  0  0  0  0  0  0  0  0  0  0
   -4.5475    3.6079    0.0745 O   0  0  0  0  0  0  0  0  0  0  0  0
   -5.6464    3.6889    2.8191 F   0  0  0  0  0  0  0  0  0  0  0  0
   -6.6042    1.7367    2.7138 F   0  0  0  0  0  0  0  0  0  0  0  0
   -4.4404    1.9003    2.5155 F   0  0  0  0  0  0  0  0  0  0  0  0
  1 10  1  0  0  0  0
  1  2  1  0  0  0  0
  2  3  1  0  0  0  0
  4  1  2  0  0  0  0
  5  6  2  0  0  0  0
  5  4  1  0  0  0  0
  6  9  1  0  0  0  0
  7  8  1  0  0  0  0
  7  6  1  0  0  0  0
  8 15  1  0  0  0  0
  9 16  1  0  0  0  0
  9 10  2  0  0  0  0
 10 17  1  0  0  0  0
 11 22  1  0  0  0  0
 12  5  1  0  0  0  0
 13  8  1  0  0  0  0
 14  8  1  0  0  0  0
 18 19  1  0  0  0  0
 19 25  1  0  0  0  0
 19 24  1  0  0  0  0
 19 23  1  0  0  0  0
 20 18  2  0  0  0  0
 21 18  2  0  0  0  0
 22 18  1  0  0  0  0
M  RAD  3   2   2   3   3   4   2
M  END
