Coordinates from ORCA-job 4-MeOPhN2+~TfO-_B3LYPG-6-31G_dp-CH-Scan-d09-49-n800
 OpenBabel11261919093D

 25 24  0  0  0  0  0  0  0  0999 V2000
   -1.5303   -0.3286    0.5703 C   0  0  0  0  0  0  0  0  0  0  0  0
   -2.8218   -0.5815    0.9716 N   0  0  0  0  0  0  0  0  0  0  0  0
   -3.8838   -0.7320    1.3009 N   0  0  0  0  0  0  0  0  0  0  0  0
   -1.2873    1.0223    0.2207 C   0  0  0  0  0  0  0  0  0  0  0  0
    0.0557    1.1857   -0.1635 C   0  0  0  0  0  0  0  0  0  0  0  0
    1.0011    0.1480   -0.1919 C   0  0  0  0  0  0  0  0  0  0  0  0
    2.2501    0.4858   -0.5891 O   0  0  0  0  0  0  0  0  0  0  0  0
    3.2691   -0.5064   -0.6450 C   0  0  0  0  0  0  0  0  0  0  0  0
    0.6498   -1.1821    0.1800 C   0  0  0  0  0  0  0  0  0  0  0  0
   -0.6423   -1.4377    0.5722 C   0  0  0  0  0  0  0  0  0  0  0  0
   -3.8997    3.3395   -0.0593 H   0  0  0  0  0  0  0  0  0  0  0  0
    0.4268    2.1647   -0.4682 H   0  0  0  0  0  0  0  0  0  0  0  0
    4.1668    0.0090   -0.9878 H   0  0  0  0  0  0  0  0  0  0  0  0
    3.0179   -1.3032   -1.3551 H   0  0  0  0  0  0  0  0  0  0  0  0
    3.4609   -0.9439    0.3422 H   0  0  0  0  0  0  0  0  0  0  0  0
    1.3764   -1.9844    0.1587 H   0  0  0  0  0  0  0  0  0  0  0  0
   -0.9579   -2.4354    0.8675 H   0  0  0  0  0  0  0  0  0  0  0  0
   -5.8976    2.6745    0.3645 S   0  0  0  0  0  0  0  0  0  0  0  0
   -5.7662    2.4435    2.2101 C   0  0  0  0  0  0  0  0  0  0  0  0
   -7.1660    3.3206    0.0988 O   0  0  0  0  0  0  0  0  0  0  0  0
   -5.4938    1.4160   -0.2463 O   0  0  0  0  0  0  0  0  0  0  0  0
   -4.7400    3.7864    0.1518 O   0  0  0  0  0  0  0  0  0  0  0  0
   -6.0069    3.5919    2.8345 F   0  0  0  0  0  0  0  0  0  0  0  0
   -6.6600    1.5299    2.5847 F   0  0  0  0  0  0  0  0  0  0  0  0
   -4.5370    2.0162    2.5148 F   0  0  0  0  0  0  0  0  0  0  0  0
  1 10  1  0  0  0  0
  1  2  1  0  0  0  0
  2  3  1  0  0  0  0
  4  1  2  0  0  0  0
  5  4  1  0  0  0  0
  6  5  2  0  0  0  0
  6  9  1  0  0  0  0
  7  6  1  0  0  0  0
  8  7  1  0  0  0  0
  8 15  1  0  0  0  0
  9 10  2  0  0  0  0
 10 17  1  0  0  0  0
 11 22  1  0  0  0  0
 12  5  1  0  0  0  0
 13  8  1  0  0  0  0
 14  8  1  0  0  0  0
 16  9  1  0  0  0  0
 18 19  1  0  0  0  0
 19 25  1  0  0  0  0
 19 24  1  0  0  0  0
 19 23  1  0  0  0  0
 20 18  2  0  0  0  0
 21 18  2  0  0  0  0
 22 18  1  0  0  0  0
M  RAD  3   2   2   3   3   4   2
M  END
