Coordinates from ORCA-job 4-MeOPhN2+~TfO-_B3LYPG-6-31G_dp-CH-Scan-d09-49-n800
 OpenBabel11261919093D

 25 24  0  0  0  0  0  0  0  0999 V2000
   -1.4907   -0.3189    0.5753 C   0  0  0  0  0  0  0  0  0  0  0  0
   -2.7863   -0.5542    0.9763 N   0  0  0  0  0  0  0  0  0  0  0  0
   -3.8508   -0.6856    1.3063 N   0  0  0  0  0  0  0  0  0  0  0  0
   -1.2317    1.0321    0.2400 C   0  0  0  0  0  0  0  0  0  0  0  0
    0.1135    1.1806   -0.1447 C   0  0  0  0  0  0  0  0  0  0  0  0
    1.0442    0.1304   -0.1858 C   0  0  0  0  0  0  0  0  0  0  0  0
    2.2976    0.4551   -0.5817 O   0  0  0  0  0  0  0  0  0  0  0  0
    3.3022   -0.5507   -0.6504 C   0  0  0  0  0  0  0  0  0  0  0  0
    0.6754   -1.1989    0.1725 C   0  0  0  0  0  0  0  0  0  0  0  0
   -0.6195   -1.4412    0.5644 C   0  0  0  0  0  0  0  0  0  0  0  0
   -4.0312    3.4544   -0.1105 H   0  0  0  0  0  0  0  0  0  0  0  0
    0.4982    2.1576   -0.4396 H   0  0  0  0  0  0  0  0  0  0  0  0
    4.2067   -0.0444   -0.9888 H   0  0  0  0  0  0  0  0  0  0  0  0
    3.0388   -1.3359   -1.3689 H   0  0  0  0  0  0  0  0  0  0  0  0
    3.4893   -1.0022    0.3315 H   0  0  0  0  0  0  0  0  0  0  0  0
    1.3912   -2.0106    0.1414 H   0  0  0  0  0  0  0  0  0  0  0  0
   -0.9484   -2.4375    0.8498 H   0  0  0  0  0  0  0  0  0  0  0  0
   -5.9785    2.6882    0.3731 S   0  0  0  0  0  0  0  0  0  0  0  0
   -5.7951    2.4467    2.2130 C   0  0  0  0  0  0  0  0  0  0  0  0
   -7.2821    3.2747    0.1420 O   0  0  0  0  0  0  0  0  0  0  0  0
   -5.5248    1.4595   -0.2625 O   0  0  0  0  0  0  0  0  0  0  0  0
   -4.8790    3.8582    0.1483 O   0  0  0  0  0  0  0  0  0  0  0  0
   -6.0633    3.5809    2.8520 F   0  0  0  0  0  0  0  0  0  0  0  0
   -6.6465    1.4982    2.5989 F   0  0  0  0  0  0  0  0  0  0  0  0
   -4.5450    2.0622    2.4853 F   0  0  0  0  0  0  0  0  0  0  0  0
  1  2  1  0  0  0  0
  2  3  1  0  0  0  0
  4  1  2  0  0  0  0
  5  4  1  0  0  0  0
  6  5  2  0  0  0  0
  6  9  1  0  0  0  0
  7  6  1  0  0  0  0
  8  7  1  0  0  0  0
  8 15  1  0  0  0  0
  9 10  2  0  0  0  0
 10  1  1  0  0  0  0
 10 17  1  0  0  0  0
 11 22  1  0  0  0  0
 12  5  1  0  0  0  0
 13  8  1  0  0  0  0
 14  8  1  0  0  0  0
 16  9  1  0  0  0  0
 18 19  1  0  0  0  0
 19 25  1  0  0  0  0
 19 24  1  0  0  0  0
 19 23  1  0  0  0  0
 20 18  2  0  0  0  0
 21 18  2  0  0  0  0
 22 18  1  0  0  0  0
M  RAD  3   2   2   3   3   4   2
M  END
