Coordinates from ORCA-job 4-MeOPhN2+~TfO-_B3LYPG-6-31G_dp-CH-Scan-d09-49-n800
 OpenBabel11261919093D

 25 24  0  0  0  0  0  0  0  0999 V2000
   -1.8148   -0.3300    0.7447 C   0  0  0  0  0  0  0  0  0  0  0  0
   -3.0487   -0.6971    1.2129 N   0  0  0  0  0  0  0  0  0  0  0  0
   -4.0639   -0.9670    1.5959 N   0  0  0  0  0  0  0  0  0  0  0  0
   -1.6119    1.0411    0.4495 C   0  0  0  0  0  0  0  0  0  0  0  0
   -0.3305    1.3233   -0.0102 C   0  0  0  0  0  0  0  0  0  0  0  0
    0.6618    0.3361   -0.1667 C   0  0  0  0  0  0  0  0  0  0  0  0
    1.8502    0.7655   -0.6243 O   0  0  0  0  0  0  0  0  0  0  0  0
    2.9155   -0.1643   -0.8235 C   0  0  0  0  0  0  0  0  0  0  0  0
    0.3925   -1.0216    0.1477 C   0  0  0  0  0  0  0  0  0  0  0  0
   -0.8577   -1.3648    0.6111 C   0  0  0  0  0  0  0  0  0  0  0  0
   -2.7095    2.0949    0.5615 H   0  0  0  0  0  0  0  0  0  0  0  0
   -0.0553    2.3411   -0.2744 H   0  0  0  0  0  0  0  0  0  0  0  0
    3.7519    0.4242   -1.1999 H   0  0  0  0  0  0  0  0  0  0  0  0
    2.6446   -0.9264   -1.5624 H   0  0  0  0  0  0  0  0  0  0  0  0
    3.2048   -0.6455    0.1177 H   0  0  0  0  0  0  0  0  0  0  0  0
    1.1482   -1.7872    0.0282 H   0  0  0  0  0  0  0  0  0  0  0  0
   -1.1002   -2.3927    0.8631 H   0  0  0  0  0  0  0  0  0  0  0  0
   -4.9637    2.4780    0.2929 S   0  0  0  0  0  0  0  0  0  0  0  0
   -5.7151    2.4425    1.9919 C   0  0  0  0  0  0  0  0  0  0  0  0
   -5.7199    3.4687   -0.4615 O   0  0  0  0  0  0  0  0  0  0  0  0
   -4.9687    1.0703   -0.1382 O   0  0  0  0  0  0  0  0  0  0  0  0
   -3.5334    2.9535    0.6283 O   0  0  0  0  0  0  0  0  0  0  0  0
   -5.6760    3.6471    2.5636 F   0  0  0  0  0  0  0  0  0  0  0  0
   -6.9850    2.0327    1.9207 F   0  0  0  0  0  0  0  0  0  0  0  0
   -5.0311    1.5765    2.7685 F   0  0  0  0  0  0  0  0  0  0  0  0
  1  2  1  0  0  0  0
  2  3  1  0  0  0  0
  4  1  2  0  0  0  0
  5  4  1  0  0  0  0
  6  5  2  0  0  0  0
  6  9  1  0  0  0  0
  7  6  1  0  0  0  0
  8  7  1  0  0  0  0
  8 15  1  0  0  0  0
  9 10  2  0  0  0  0
 10  1  1  0  0  0  0
 10 17  1  0  0  0  0
 11 22  1  0  0  0  0
 12  5  1  0  0  0  0
 13  8  1  0  0  0  0
 14  8  1  0  0  0  0
 16  9  1  0  0  0  0
 18 22  1  0  0  0  0
 18 19  1  0  0  0  0
 19 23  1  0  0  0  0
 19 25  1  0  0  0  0
 20 18  2  0  0  0  0
 21 18  2  0  0  0  0
 24 19  1  0  0  0  0
M  RAD  3   2   2   3   3   4   2
M  END
