Coordinates from ORCA-job 4-MeOPhN2+~TfO-_B3LYPG-6-31G_dp-CH-Scan-d09-49-n800
 OpenBabel11261919093D

 25 24  0  0  0  0  0  0  0  0999 V2000
   -1.5005   -0.3437    0.6873 C   0  0  0  0  0  0  0  0  0  0  0  0
   -2.8162   -0.5715    1.0305 N   0  0  0  0  0  0  0  0  0  0  0  0
   -3.8946   -0.6785    1.3230 N   0  0  0  0  0  0  0  0  0  0  0  0
   -1.1638    1.0296    0.6651 C   0  0  0  0  0  0  0  0  0  0  0  0
    0.1912    1.1811    0.3137 C   0  0  0  0  0  0  0  0  0  0  0  0
    1.0570    0.1136    0.0298 C   0  0  0  0  0  0  0  0  0  0  0  0
    2.3305    0.4434   -0.2954 O   0  0  0  0  0  0  0  0  0  0  0  0
    3.2728   -0.5807   -0.5918 C   0  0  0  0  0  0  0  0  0  0  0  0
    0.6082   -1.2388    0.0830 C   0  0  0  0  0  0  0  0  0  0  0  0
   -0.7014   -1.4866    0.4195 C   0  0  0  0  0  0  0  0  0  0  0  0
   -4.8257    3.7963   -0.7571 H   0  0  0  0  0  0  0  0  0  0  0  0
    0.6364    2.1749    0.2455 H   0  0  0  0  0  0  0  0  0  0  0  0
    4.2080   -0.0678   -0.8185 H   0  0  0  0  0  0  0  0  0  0  0  0
    2.9667   -1.1724   -1.4630 H   0  0  0  0  0  0  0  0  0  0  0  0
    3.4271   -1.2483    0.2650 H   0  0  0  0  0  0  0  0  0  0  0  0
    1.2760   -2.0623   -0.1360 H   0  0  0  0  0  0  0  0  0  0  0  0
   -1.0918   -2.5003    0.4743 H   0  0  0  0  0  0  0  0  0  0  0  0
   -6.1792    2.5941    0.3933 S   0  0  0  0  0  0  0  0  0  0  0  0
   -5.2971    2.5242    2.0363 C   0  0  0  0  0  0  0  0  0  0  0  0
   -7.5859    2.8082    0.6614 O   0  0  0  0  0  0  0  0  0  0  0  0
   -5.6709    1.4976   -0.4195 O   0  0  0  0  0  0  0  0  0  0  0  0
   -5.5763    3.9964   -0.1707 O   0  0  0  0  0  0  0  0  0  0  0  0
   -5.6084    3.5940    2.7620 F   0  0  0  0  0  0  0  0  0  0  0  0
   -5.6936    1.4190    2.6698 F   0  0  0  0  0  0  0  0  0  0  0  0
   -3.9843    2.4775    1.8299 F   0  0  0  0  0  0  0  0  0  0  0  0
  1  2  1  0  0  0  0
  2  3  1  0  0  0  0
  4  1  1  0  0  0  0
  5  4  2  0  0  0  0
  6  9  2  0  0  0  0
  6  5  1  0  0  0  0
  7  6  1  0  0  0  0
  8  7  1  0  0  0  0
  8 15  1  0  0  0  0
  9 10  1  0  0  0  0
 10 17  1  0  0  0  0
 10  1  2  0  0  0  0
 11 22  1  0  0  0  0
 12  5  1  0  0  0  0
 13  8  1  0  0  0  0
 14  8  1  0  0  0  0
 16  9  1  0  0  0  0
 18 20  2  0  0  0  0
 18 19  1  0  0  0  0
 19 24  1  0  0  0  0
 19 23  1  0  0  0  0
 21 18  2  0  0  0  0
 22 18  1  0  0  0  0
 25 19  1  0  0  0  0
M  RAD  3   2   2   3   3   4   2
M  END
