Coordinates from ORCA-job 4-MeOPhN2+~TfO-_B3LYPG-6-31G_dp-CH-Scan-d09-49-n800
 OpenBabel11261919093D

 25 24  0  0  0  0  0  0  0  0999 V2000
   -1.8119   -0.3192    0.7559 C   0  0  0  0  0  0  0  0  0  0  0  0
   -3.0452   -0.6799    1.2298 N   0  0  0  0  0  0  0  0  0  0  0  0
   -4.0603   -0.9444    1.6158 N   0  0  0  0  0  0  0  0  0  0  0  0
   -1.5984    1.0496    0.4600 C   0  0  0  0  0  0  0  0  0  0  0  0
   -0.3210    1.3310   -0.0061 C   0  0  0  0  0  0  0  0  0  0  0  0
    0.6656    0.3387   -0.1694 C   0  0  0  0  0  0  0  0  0  0  0  0
    1.8525    0.7632   -0.6329 O   0  0  0  0  0  0  0  0  0  0  0  0
    2.9128   -0.1713   -0.8401 C   0  0  0  0  0  0  0  0  0  0  0  0
    0.3905   -1.0175    0.1452 C   0  0  0  0  0  0  0  0  0  0  0  0
   -0.8589   -1.3559    0.6152 C   0  0  0  0  0  0  0  0  0  0  0  0
   -2.6635    2.0706    0.5844 H   0  0  0  0  0  0  0  0  0  0  0  0
   -0.0458    2.3486   -0.2697 H   0  0  0  0  0  0  0  0  0  0  0  0
    3.7493    0.4143   -1.2206 H   0  0  0  0  0  0  0  0  0  0  0  0
    2.6336   -0.9306   -1.5788 H   0  0  0  0  0  0  0  0  0  0  0  0
    3.2053   -0.6551    0.0986 H   0  0  0  0  0  0  0  0  0  0  0  0
    1.1416   -1.7868    0.0206 H   0  0  0  0  0  0  0  0  0  0  0  0
   -1.1043   -2.3830    0.8669 H   0  0  0  0  0  0  0  0  0  0  0  0
   -4.9446    2.4766    0.3025 S   0  0  0  0  0  0  0  0  0  0  0  0
   -5.7422    2.4372    1.9800 C   0  0  0  0  0  0  0  0  0  0  0  0
   -5.6924    3.4590   -0.4728 O   0  0  0  0  0  0  0  0  0  0  0  0
   -4.9404    1.0665   -0.1279 O   0  0  0  0  0  0  0  0  0  0  0  0
   -3.5293    2.9503    0.6724 O   0  0  0  0  0  0  0  0  0  0  0  0
   -5.7178    3.6400    2.5573 F   0  0  0  0  0  0  0  0  0  0  0  0
   -7.0107    2.0285    1.8764 F   0  0  0  0  0  0  0  0  0  0  0  0
   -5.0804    1.5684    2.7744 F   0  0  0  0  0  0  0  0  0  0  0  0
  1  2  1  0  0  0  0
  2  3  1  0  0  0  0
  4  1  2  0  0  0  0
  5  4  1  0  0  0  0
  6  5  2  0  0  0  0
  6  9  1  0  0  0  0
  7  6  1  0  0  0  0
  8  7  1  0  0  0  0
  8 15  1  0  0  0  0
  9 10  2  0  0  0  0
 10  1  1  0  0  0  0
 10 17  1  0  0  0  0
 11 22  1  0  0  0  0
 12  5  1  0  0  0  0
 13  8  1  0  0  0  0
 14  8  1  0  0  0  0
 16  9  1  0  0  0  0
 18 22  1  0  0  0  0
 18 19  1  0  0  0  0
 19 23  1  0  0  0  0
 19 25  1  0  0  0  0
 20 18  2  0  0  0  0
 21 18  2  0  0  0  0
 24 19  1  0  0  0  0
M  RAD  3   2   2   3   3   4   2
M  END
