Coordinates from ORCA-job 4-MeOPhN2+~TfO-_B3LYPG-6-31G_dp-CH-Scan-d09-49-n800
 OpenBabel11261919093D

 25 24  0  0  0  0  0  0  0  0999 V2000
   -1.5234   -0.3413    0.6616 C   0  0  0  0  0  0  0  0  0  0  0  0
   -2.8304   -0.5767    1.0296 N   0  0  0  0  0  0  0  0  0  0  0  0
   -3.9021   -0.6927    1.3423 N   0  0  0  0  0  0  0  0  0  0  0  0
   -1.2170    1.0347    0.5447 C   0  0  0  0  0  0  0  0  0  0  0  0
    0.1342    1.1916    0.1814 C   0  0  0  0  0  0  0  0  0  0  0  0
    1.0240    0.1270   -0.0298 C   0  0  0  0  0  0  0  0  0  0  0  0
    2.2903    0.4624   -0.3762 O   0  0  0  0  0  0  0  0  0  0  0  0
    3.2563   -0.5579   -0.6006 C   0  0  0  0  0  0  0  0  0  0  0  0
    0.6051   -1.2282    0.1143 C   0  0  0  0  0  0  0  0  0  0  0  0
   -0.6986   -1.4813    0.4695 C   0  0  0  0  0  0  0  0  0  0  0  0
   -4.5734    3.7660   -0.6134 H   0  0  0  0  0  0  0  0  0  0  0  0
    0.5571    2.1879    0.0442 H   0  0  0  0  0  0  0  0  0  0  0  0
    4.1819   -0.0405   -0.8549 H   0  0  0  0  0  0  0  0  0  0  0  0
    2.9685   -1.2112   -1.4331 H   0  0  0  0  0  0  0  0  0  0  0  0
    3.4189   -1.1651    0.2985 H   0  0  0  0  0  0  0  0  0  0  0  0
    1.2903   -2.0501   -0.0504 H   0  0  0  0  0  0  0  0  0  0  0  0
   -1.0662   -2.4973    0.5937 H   0  0  0  0  0  0  0  0  0  0  0  0
   -6.0917    2.6124    0.3705 S   0  0  0  0  0  0  0  0  0  0  0  0
   -5.3717    2.4759    2.0867 C   0  0  0  0  0  0  0  0  0  0  0  0
   -7.5052    2.8920    0.5135 O   0  0  0  0  0  0  0  0  0  0  0  0
   -5.5646    1.5009   -0.4085 O   0  0  0  0  0  0  0  0  0  0  0  0
   -5.3762    3.9907   -0.1112 O   0  0  0  0  0  0  0  0  0  0  0  0
   -5.6969    3.5493    2.8009 F   0  0  0  0  0  0  0  0  0  0  0  0
   -5.8774    1.3827    2.6592 F   0  0  0  0  0  0  0  0  0  0  0  0
   -4.0477    2.3677    2.0044 F   0  0  0  0  0  0  0  0  0  0  0  0
  1  2  1  0  0  0  0
  2  3  1  0  0  0  0
  4  1  1  0  0  0  0
  5  4  2  0  0  0  0
  6  9  2  0  0  0  0
  6  5  1  0  0  0  0
  7  6  1  0  0  0  0
  8  7  1  0  0  0  0
  8 15  1  0  0  0  0
  9 10  1  0  0  0  0
 10 17  1  0  0  0  0
 10  1  2  0  0  0  0
 11 22  1  0  0  0  0
 12  5  1  0  0  0  0
 13  8  1  0  0  0  0
 14  8  1  0  0  0  0
 16  9  1  0  0  0  0
 18 20  2  0  0  0  0
 18 19  1  0  0  0  0
 19 24  1  0  0  0  0
 19 23  1  0  0  0  0
 21 18  2  0  0  0  0
 22 18  1  0  0  0  0
 25 19  1  0  0  0  0
M  RAD  3   2   2   3   3   4   2
M  END
