Coordinates from ORCA-job 4-MeOPhN2+~TfO-_B3LYPG-6-31G_dp-CH-Scan-d09-49-n800
 OpenBabel11261919093D

 25 24  0  0  0  0  0  0  0  0999 V2000
   -1.7589   -0.4172    0.5213 C   0  0  0  0  0  0  0  0  0  0  0  0
   -3.0284   -0.7839    0.8925 N   0  0  0  0  0  0  0  0  0  0  0  0
   -4.0746   -1.0459    1.1965 N   0  0  0  0  0  0  0  0  0  0  0  0
   -1.5910    0.9491    0.1802 C   0  0  0  0  0  0  0  0  0  0  0  0
   -0.2628    1.2204   -0.1738 C   0  0  0  0  0  0  0  0  0  0  0  0
    0.7590    0.2552   -0.1836 C   0  0  0  0  0  0  0  0  0  0  0  0
    1.9841    0.6897   -0.5477 O   0  0  0  0  0  0  0  0  0  0  0  0
    3.0803   -0.2201   -0.5798 C   0  0  0  0  0  0  0  0  0  0  0  0
    0.4961   -1.0966    0.1741 C   0  0  0  0  0  0  0  0  0  0  0  0
   -0.7830   -1.4484    0.5349 C   0  0  0  0  0  0  0  0  0  0  0  0
   -3.3085    2.5619    0.1169 H   0  0  0  0  0  0  0  0  0  0  0  0
    0.0352    2.2265   -0.4649 H   0  0  0  0  0  0  0  0  0  0  0  0
    3.9426    0.3673   -0.8959 H   0  0  0  0  0  0  0  0  0  0  0  0
    2.9099   -1.0289   -1.2997 H   0  0  0  0  0  0  0  0  0  0  0  0
    3.2777   -0.6459    0.4110 H   0  0  0  0  0  0  0  0  0  0  0  0
    1.2787   -1.8443    0.1667 H   0  0  0  0  0  0  0  0  0  0  0  0
   -1.0291   -2.4686    0.8172 H   0  0  0  0  0  0  0  0  0  0  0  0
   -5.4567    2.5594    0.3338 S   0  0  0  0  0  0  0  0  0  0  0  0
   -5.5261    2.5076    2.1938 C   0  0  0  0  0  0  0  0  0  0  0  0
   -6.4727    3.4957   -0.1054 O   0  0  0  0  0  0  0  0  0  0  0  0
   -5.4301    1.1673   -0.1026 O   0  0  0  0  0  0  0  0  0  0  0  0
   -4.0304    3.2479    0.1299 O   0  0  0  0  0  0  0  0  0  0  0  0
   -5.4162    3.7326    2.7007 F   0  0  0  0  0  0  0  0  0  0  0  0
   -6.6883    1.9717    2.5685 F   0  0  0  0  0  0  0  0  0  0  0  0
   -4.5225    1.7462    2.6522 F   0  0  0  0  0  0  0  0  0  0  0  0
  1 10  1  0  0  0  0
  1  2  1  0  0  0  0
  2  3  1  0  0  0  0
  4  1  2  0  0  0  0
  5  4  1  0  0  0  0
  6  5  2  0  0  0  0
  6  9  1  0  0  0  0
  7  6  1  0  0  0  0
  8  7  1  0  0  0  0
  8 15  1  0  0  0  0
  9 10  2  0  0  0  0
 10 17  1  0  0  0  0
 11 22  1  0  0  0  0
 12  5  1  0  0  0  0
 13  8  1  0  0  0  0
 14  8  1  0  0  0  0
 16  9  1  0  0  0  0
 18 19  1  0  0  0  0
 19 24  1  0  0  0  0
 19 25  1  0  0  0  0
 19 23  1  0  0  0  0
 20 18  2  0  0  0  0
 21 18  2  0  0  0  0
 22 18  1  0  0  0  0
M  RAD  3   2   2   3   3   4   2
M  END
