Coordinates from ORCA-job 4-MeOPhN2+~TfO-_B3LYPG-6-31G_dp-CH-Scan-d09-49-n800
 OpenBabel11261919093D

 25 24  0  0  0  0  0  0  0  0999 V2000
   -1.7195   -0.4096    0.5038 C   0  0  0  0  0  0  0  0  0  0  0  0
   -2.9958   -0.7582    0.8711 N   0  0  0  0  0  0  0  0  0  0  0  0
   -4.0476   -1.0011    1.1730 N   0  0  0  0  0  0  0  0  0  0  0  0
   -1.5407    0.9525    0.1529 C   0  0  0  0  0  0  0  0  0  0  0  0
   -0.2062    1.2066   -0.1950 C   0  0  0  0  0  0  0  0  0  0  0  0
    0.8062    0.2320   -0.1901 C   0  0  0  0  0  0  0  0  0  0  0  0
    2.0387    0.6512   -0.5502 O   0  0  0  0  0  0  0  0  0  0  0  0
    3.1254   -0.2697   -0.5675 C   0  0  0  0  0  0  0  0  0  0  0  0
    0.5291   -1.1150    0.1771 C   0  0  0  0  0  0  0  0  0  0  0  0
   -0.7553   -1.4520    0.5328 C   0  0  0  0  0  0  0  0  0  0  0  0
   -3.4345    2.7120    0.0492 H   0  0  0  0  0  0  0  0  0  0  0  0
    0.1049    2.2070   -0.4930 H   0  0  0  0  0  0  0  0  0  0  0  0
    3.9960    0.3058   -0.8832 H   0  0  0  0  0  0  0  0  0  0  0  0
    2.9517   -1.0833   -1.2813 H   0  0  0  0  0  0  0  0  0  0  0  0
    3.3126   -0.6891    0.4281 H   0  0  0  0  0  0  0  0  0  0  0  0
    1.3051   -1.8696    0.1810 H   0  0  0  0  0  0  0  0  0  0  0  0
   -1.0130   -2.4675    0.8223 H   0  0  0  0  0  0  0  0  0  0  0  0
   -5.5636    2.5891    0.3534 S   0  0  0  0  0  0  0  0  0  0  0  0
   -5.5556    2.5000    2.2139 C   0  0  0  0  0  0  0  0  0  0  0  0
   -6.6363    3.4854   -0.0287 O   0  0  0  0  0  0  0  0  0  0  0  0
   -5.4783    1.2118   -0.1169 O   0  0  0  0  0  0  0  0  0  0  0  0
   -4.1781    3.3585    0.1095 O   0  0  0  0  0  0  0  0  0  0  0  0
   -5.4895    3.7202    2.7386 F   0  0  0  0  0  0  0  0  0  0  0  0
   -6.6739    1.8981    2.6195 F   0  0  0  0  0  0  0  0  0  0  0  0
   -4.4977    1.7840    2.6169 F   0  0  0  0  0  0  0  0  0  0  0  0
  1 10  1  0  0  0  0
  1  2  1  0  0  0  0
  2  3  1  0  0  0  0
  4  1  2  0  0  0  0
  5  6  2  0  0  0  0
  5  4  1  0  0  0  0
  6  9  1  0  0  0  0
  7  6  1  0  0  0  0
  8  7  1  0  0  0  0
  8 15  1  0  0  0  0
  9 16  1  0  0  0  0
  9 10  2  0  0  0  0
 10 17  1  0  0  0  0
 11 22  1  0  0  0  0
 12  5  1  0  0  0  0
 13  8  1  0  0  0  0
 14  8  1  0  0  0  0
 18 19  1  0  0  0  0
 19 25  1  0  0  0  0
 19 24  1  0  0  0  0
 19 23  1  0  0  0  0
 20 18  2  0  0  0  0
 21 18  2  0  0  0  0
 22 18  1  0  0  0  0
M  RAD  3   2   2   3   3   4   2
M  END
