Coordinates from ORCA-job 4-MeOPhN2+~TfO-_B3LYPG-6-31G_dp-CH-Scan-d09-49-n800
 OpenBabel11261919093D

 25 24  0  0  0  0  0  0  0  0999 V2000
   -1.6988   -0.4094    0.4849 C   0  0  0  0  0  0  0  0  0  0  0  0
   -2.9801   -0.7485    0.8454 N   0  0  0  0  0  0  0  0  0  0  0  0
   -4.0363   -0.9822    1.1402 N   0  0  0  0  0  0  0  0  0  0  0  0
   -1.5141    0.9503    0.1295 C   0  0  0  0  0  0  0  0  0  0  0  0
   -0.1749    1.1962   -0.2092 C   0  0  0  0  0  0  0  0  0  0  0  0
    0.8331    0.2175   -0.1921 C   0  0  0  0  0  0  0  0  0  0  0  0
    2.0709    0.6297   -0.5443 O   0  0  0  0  0  0  0  0  0  0  0  0
    3.1533   -0.2960   -0.5483 C   0  0  0  0  0  0  0  0  0  0  0  0
    0.5477   -1.1271    0.1786 C   0  0  0  0  0  0  0  0  0  0  0  0
   -0.7406   -1.4573    0.5260 C   0  0  0  0  0  0  0  0  0  0  0  0
   -3.5280    2.8064   -0.0109 H   0  0  0  0  0  0  0  0  0  0  0  0
    0.1437    2.1939   -0.5094 H   0  0  0  0  0  0  0  0  0  0  0  0
    4.0293    0.2742   -0.8587 H   0  0  0  0  0  0  0  0  0  0  0  0
    2.9825   -1.1118   -1.2603 H   0  0  0  0  0  0  0  0  0  0  0  0
    3.3301   -0.7124    0.4505 H   0  0  0  0  0  0  0  0  0  0  0  0
    1.3207   -1.8848    0.1916 H   0  0  0  0  0  0  0  0  0  0  0  0
   -1.0051   -2.4703    0.8179 H   0  0  0  0  0  0  0  0  0  0  0  0
   -5.6368    2.6047    0.3696 S   0  0  0  0  0  0  0  0  0  0  0  0
   -5.5536    2.5001    2.2279 C   0  0  0  0  0  0  0  0  0  0  0  0
   -6.7502    3.4701    0.0370 O   0  0  0  0  0  0  0  0  0  0  0  0
   -5.5203    1.2371   -0.1207 O   0  0  0  0  0  0  0  0  0  0  0  0
   -4.2862    3.4258    0.0799 O   0  0  0  0  0  0  0  0  0  0  0  0
   -5.5026    3.7177    2.7596 F   0  0  0  0  0  0  0  0  0  0  0  0
   -6.6381    1.8631    2.6694 F   0  0  0  0  0  0  0  0  0  0  0  0
   -4.4614    1.8120    2.5831 F   0  0  0  0  0  0  0  0  0  0  0  0
  1 10  1  0  0  0  0
  1  2  1  0  0  0  0
  2  3  1  0  0  0  0
  4  1  2  0  0  0  0
  5  6  2  0  0  0  0
  5  4  1  0  0  0  0
  6  9  1  0  0  0  0
  7  6  1  0  0  0  0
  8  7  1  0  0  0  0
  8 15  1  0  0  0  0
  9 16  1  0  0  0  0
  9 10  2  0  0  0  0
 10 17  1  0  0  0  0
 11 22  1  0  0  0  0
 12  5  1  0  0  0  0
 13  8  1  0  0  0  0
 14  8  1  0  0  0  0
 18 19  1  0  0  0  0
 19 25  1  0  0  0  0
 19 24  1  0  0  0  0
 19 23  1  0  0  0  0
 20 18  2  0  0  0  0
 21 18  2  0  0  0  0
 22 18  1  0  0  0  0
M  RAD  3   2   2   3   3   4   2
M  END
