Coordinates from ORCA-job 4-MeOPhN2+~TfO-_B3LYPG-6-31G_dp-CH-Scan-d09-49-n800
 OpenBabel11261919093D

 25 24  0  0  0  0  0  0  0  0999 V2000
   -1.4683   -0.3106    0.5803 C   0  0  0  0  0  0  0  0  0  0  0  0
   -2.7662   -0.5348    0.9815 N   0  0  0  0  0  0  0  0  0  0  0  0
   -3.8319   -0.6543    1.3124 N   0  0  0  0  0  0  0  0  0  0  0  0
   -1.1979    1.0408    0.2566 C   0  0  0  0  0  0  0  0  0  0  0  0
    0.1485    1.1797   -0.1284 C   0  0  0  0  0  0  0  0  0  0  0  0
    1.0690    0.1212   -0.1799 C   0  0  0  0  0  0  0  0  0  0  0  0
    2.3252    0.4373   -0.5743 O   0  0  0  0  0  0  0  0  0  0  0  0
    3.3199   -0.5773   -0.6529 C   0  0  0  0  0  0  0  0  0  0  0  0
    0.6881   -1.2079    0.1670 C   0  0  0  0  0  0  0  0  0  0  0  0
   -0.6086   -1.4415    0.5585 C   0  0  0  0  0  0  0  0  0  0  0  0
   -4.1147    3.5192   -0.1462 H   0  0  0  0  0  0  0  0  0  0  0  0
    0.5422    2.1555   -0.4152 H   0  0  0  0  0  0  0  0  0  0  0  0
    4.2293   -0.0768   -0.9871 H   0  0  0  0  0  0  0  0  0  0  0  0
    3.0487   -1.3533   -1.3785 H   0  0  0  0  0  0  0  0  0  0  0  0
    3.5031   -1.0399    0.3246 H   0  0  0  0  0  0  0  0  0  0  0  0
    1.3962   -2.0260    0.1277 H   0  0  0  0  0  0  0  0  0  0  0  0
   -0.9467   -2.4371    0.8355 H   0  0  0  0  0  0  0  0  0  0  0  0
   -6.0270    2.6939    0.3770 S   0  0  0  0  0  0  0  0  0  0  0  0
   -5.8047    2.4470    2.2120 C   0  0  0  0  0  0  0  0  0  0  0  0
   -7.3508    3.2436    0.1722 O   0  0  0  0  0  0  0  0  0  0  0  0
   -5.5475    1.4842   -0.2758 O   0  0  0  0  0  0  0  0  0  0  0  0
   -4.9648    3.8971    0.1416 O   0  0  0  0  0  0  0  0  0  0  0  0
   -6.0879    3.5715    2.8615 F   0  0  0  0  0  0  0  0  0  0  0  0
   -6.6273    1.4770    2.6071 F   0  0  0  0  0  0  0  0  0  0  0  0
   -4.5417    2.0903    2.4597 F   0  0  0  0  0  0  0  0  0  0  0  0
  1  2  1  0  0  0  0
  2  3  1  0  0  0  0
  4  1  2  0  0  0  0
  5  4  1  0  0  0  0
  6  5  2  0  0  0  0
  6  9  1  0  0  0  0
  7  6  1  0  0  0  0
  8  7  1  0  0  0  0
  8 15  1  0  0  0  0
  9 10  2  0  0  0  0
 10  1  1  0  0  0  0
 10 17  1  0  0  0  0
 11 22  1  0  0  0  0
 12  5  1  0  0  0  0
 13  8  1  0  0  0  0
 14  8  1  0  0  0  0
 16  9  1  0  0  0  0
 18 19  1  0  0  0  0
 19 25  1  0  0  0  0
 19 24  1  0  0  0  0
 19 23  1  0  0  0  0
 20 18  2  0  0  0  0
 21 18  2  0  0  0  0
 22 18  1  0  0  0  0
M  RAD  3   2   2   3   3   4   2
M  END
