Coordinates from ORCA-job 4-MeOPhN2+~TfO-_B3LYPG-6-31G_dp-CH-Scan-d09-49-n800
 OpenBabel11261919093D

 25 24  0  0  0  0  0  0  0  0999 V2000
   -1.9952   -0.2850    0.4777 C   0  0  0  0  0  0  0  0  0  0  0  0
   -3.3068   -0.6607    0.6635 N   0  0  0  0  0  0  0  0  0  0  0  0
   -4.3226   -1.1019    0.8436 N   0  0  0  0  0  0  0  0  0  0  0  0
   -1.5759    1.0247    0.7908 C   0  0  0  0  0  0  0  0  0  0  0  0
   -0.2418    1.3292    0.6192 C   0  0  0  0  0  0  0  0  0  0  0  0
    0.6660    0.3665    0.1282 C   0  0  0  0  0  0  0  0  0  0  0  0
    1.9332    0.7849   -0.0061 O   0  0  0  0  0  0  0  0  0  0  0  0
    2.9245   -0.1139   -0.5104 C   0  0  0  0  0  0  0  0  0  0  0  0
    0.2233   -0.9363   -0.1832 C   0  0  0  0  0  0  0  0  0  0  0  0
   -1.1090   -1.2656   -0.0010 C   0  0  0  0  0  0  0  0  0  0  0  0
   -2.2446    1.6997    1.1190 H   0  0  0  0  0  0  0  0  0  0  0  0
    0.1321    2.3206    0.8470 H   0  0  0  0  0  0  0  0  0  0  0  0
    3.8533    0.4554   -0.5275 H   0  0  0  0  0  0  0  0  0  0  0  0
    2.6784   -0.4426   -1.5256 H   0  0  0  0  0  0  0  0  0  0  0  0
    3.0398   -0.9830    0.1461 H   0  0  0  0  0  0  0  0  0  0  0  0
    0.9071   -1.6849   -0.5610 H   0  0  0  0  0  0  0  0  0  0  0  0
   -1.4706   -2.2613   -0.2322 H   0  0  0  0  0  0  0  0  0  0  0  0
   -5.4494    1.8656    0.3753 S   0  0  0  0  0  0  0  0  0  0  0  0
   -5.0384    2.9650    1.8170 C   0  0  0  0  0  0  0  0  0  0  0  0
   -6.4314    2.6242   -0.4000 O   0  0  0  0  0  0  0  0  0  0  0  0
   -5.9424    0.6208    1.0365 O   0  0  0  0  0  0  0  0  0  0  0  0
   -4.1123    1.6675   -0.2584 O   0  0  0  0  0  0  0  0  0  0  0  0
   -4.5956    4.1598    1.4024 F   0  0  0  0  0  0  0  0  0  0  0  0
   -6.0908    3.1504    2.6178 F   0  0  0  0  0  0  0  0  0  0  0  0
   -4.0468    2.3998    2.5588 F   0  0  0  0  0  0  0  0  0  0  0  0
  1  2  1  0  0  0  0
  1  4  2  0  0  0  0
  2  3  1  0  0  0  0
  4 11  1  0  0  0  0
  5  4  1  0  0  0  0
  5 12  1  0  0  0  0
  6  5  2  0  0  0  0
  7  6  1  0  0  0  0
  8  7  1  0  0  0  0
  8 15  1  0  0  0  0
  9 10  2  0  0  0  0
  9  6  1  0  0  0  0
 10  1  1  0  0  0  0
 13  8  1  0  0  0  0
 14  8  1  0  0  0  0
 16  9  1  0  0  0  0
 17 10  1  0  0  0  0
 18 21  1  0  0  0  0
 18 19  1  0  0  0  0
 19 25  1  0  0  0  0
 19 24  1  0  0  0  0
 20 18  2  0  0  0  0
 22 18  2  0  0  0  0
 23 19  1  0  0  0  0
M  RAD  3   2   2   3   3  21   2
M  END
