Coordinates from ORCA-job 4-MeOPhN2+~TfO-_B3LYPG-6-31G_dp-CH-Scan-d09-49-n800
 OpenBabel11261919093D

 25 24  0  0  0  0  0  0  0  0999 V2000
   -1.7321   -0.4106    0.5158 C   0  0  0  0  0  0  0  0  0  0  0  0
   -3.0056   -0.7651    0.8863 N   0  0  0  0  0  0  0  0  0  0  0  0
   -4.0548   -1.0165    1.1897 N   0  0  0  0  0  0  0  0  0  0  0  0
   -1.5566    0.9534    0.1705 C   0  0  0  0  0  0  0  0  0  0  0  0
   -0.2253    1.2134   -0.1829 C   0  0  0  0  0  0  0  0  0  0  0  0
    0.7896    0.2411   -0.1879 C   0  0  0  0  0  0  0  0  0  0  0  0
    2.0188    0.6652   -0.5522 O   0  0  0  0  0  0  0  0  0  0  0  0
    3.1080   -0.2528   -0.5794 C   0  0  0  0  0  0  0  0  0  0  0  0
    0.5173   -1.1079    0.1745 C   0  0  0  0  0  0  0  0  0  0  0  0
   -0.7645   -1.4499    0.5350 C   0  0  0  0  0  0  0  0  0  0  0  0
   -3.3781    2.6524    0.0968 H   0  0  0  0  0  0  0  0  0  0  0  0
    0.0811    2.2161   -0.4776 H   0  0  0  0  0  0  0  0  0  0  0  0
    3.9752    0.3266   -0.8971 H   0  0  0  0  0  0  0  0  0  0  0  0
    2.9325   -1.0634   -1.2961 H   0  0  0  0  0  0  0  0  0  0  0  0
    3.3014   -0.6761    0.4133 H   0  0  0  0  0  0  0  0  0  0  0  0
    1.2950   -1.8608    0.1709 H   0  0  0  0  0  0  0  0  0  0  0  0
   -1.0181   -2.4673    0.8208 H   0  0  0  0  0  0  0  0  0  0  0  0
   -5.5185    2.5765    0.3432 S   0  0  0  0  0  0  0  0  0  0  0  0
   -5.5555    2.5041    2.2037 C   0  0  0  0  0  0  0  0  0  0  0  0
   -6.5657    3.4888   -0.0713 O   0  0  0  0  0  0  0  0  0  0  0  0
   -5.4529    1.1920   -0.1107 O   0  0  0  0  0  0  0  0  0  0  0  0
   -4.1146    3.3139    0.1241 O   0  0  0  0  0  0  0  0  0  0  0  0
   -5.4793    3.7274    2.7202 F   0  0  0  0  0  0  0  0  0  0  0  0
   -6.6931    1.9256    2.5895 F   0  0  0  0  0  0  0  0  0  0  0  0
   -4.5200    1.7729    2.6379 F   0  0  0  0  0  0  0  0  0  0  0  0
  1 10  1  0  0  0  0
  1  2  1  0  0  0  0
  2  3  1  0  0  0  0
  4  1  2  0  0  0  0
  5  4  1  0  0  0  0
  6  5  2  0  0  0  0
  6  9  1  0  0  0  0
  7  6  1  0  0  0  0
  8  7  1  0  0  0  0
  8 15  1  0  0  0  0
  9 10  2  0  0  0  0
 10 17  1  0  0  0  0
 11 22  1  0  0  0  0
 12  5  1  0  0  0  0
 13  8  1  0  0  0  0
 14  8  1  0  0  0  0
 16  9  1  0  0  0  0
 18 19  1  0  0  0  0
 19 24  1  0  0  0  0
 19 25  1  0  0  0  0
 19 23  1  0  0  0  0
 20 18  2  0  0  0  0
 21 18  2  0  0  0  0
 22 18  1  0  0  0  0
M  RAD  3   2   2   3   3   4   2
M  END
