Coordinates from ORCA-job 4-MeOPhN2+~TfO-_B3LYPG-6-31G_dp-CH-Scan-d09-49-n800
 OpenBabel11261919093D

 25 24  0  0  0  0  0  0  0  0999 V2000
   -1.8334   -0.3839    0.6484 C   0  0  0  0  0  0  0  0  0  0  0  0
   -3.0777   -0.7732    1.0715 N   0  0  0  0  0  0  0  0  0  0  0  0
   -4.1031   -1.0574    1.4183 N   0  0  0  0  0  0  0  0  0  0  0  0
   -1.6659    0.9899    0.3374 C   0  0  0  0  0  0  0  0  0  0  0  0
   -0.3650    1.2827   -0.0738 C   0  0  0  0  0  0  0  0  0  0  0  0
    0.6562    0.3189   -0.1671 C   0  0  0  0  0  0  0  0  0  0  0  0
    1.8559    0.7682   -0.5810 O   0  0  0  0  0  0  0  0  0  0  0  0
    2.9511   -0.1376   -0.7051 C   0  0  0  0  0  0  0  0  0  0  0  0
    0.4086   -1.0406    0.1625 C   0  0  0  0  0  0  0  0  0  0  0  0
   -0.8514   -1.4042    0.5781 C   0  0  0  0  0  0  0  0  0  0  0  0
   -2.9034    2.1853    0.3793 H   0  0  0  0  0  0  0  0  0  0  0  0
   -0.0929    2.2998   -0.3473 H   0  0  0  0  0  0  0  0  0  0  0  0
    3.7916    0.4628   -1.0528 H   0  0  0  0  0  0  0  0  0  0  0  0
    2.7378   -0.9233   -1.4385 H   0  0  0  0  0  0  0  0  0  0  0  0
    3.2052   -0.5915    0.2597 H   0  0  0  0  0  0  0  0  0  0  0  0
    1.1877   -1.7886    0.0918 H   0  0  0  0  0  0  0  0  0  0  0  0
   -1.0818   -2.4326    0.8411 H   0  0  0  0  0  0  0  0  0  0  0  0
   -5.1034    2.4927    0.2791 S   0  0  0  0  0  0  0  0  0  0  0  0
   -5.5686    2.4763    2.0790 C   0  0  0  0  0  0  0  0  0  0  0  0
   -5.9412    3.4977   -0.3544 O   0  0  0  0  0  0  0  0  0  0  0  0
   -5.1598    1.0888   -0.1392 O   0  0  0  0  0  0  0  0  0  0  0  0
   -3.6245    2.9926    0.3816 O   0  0  0  0  0  0  0  0  0  0  0  0
   -5.4404    3.6889    2.6168 F   0  0  0  0  0  0  0  0  0  0  0  0
   -6.8320    2.0660    2.2129 F   0  0  0  0  0  0  0  0  0  0  0  0
   -4.7652    1.6212    2.7388 F   0  0  0  0  0  0  0  0  0  0  0  0
  1  2  1  0  0  0  0
  2  3  1  0  0  0  0
  4  1  2  0  0  0  0
  5  4  1  0  0  0  0
  6  5  2  0  0  0  0
  6  9  1  0  0  0  0
  7  6  1  0  0  0  0
  8  7  1  0  0  0  0
  8 15  1  0  0  0  0
  9 10  2  0  0  0  0
 10  1  1  0  0  0  0
 10 17  1  0  0  0  0
 11 22  1  0  0  0  0
 12  5  1  0  0  0  0
 13  8  1  0  0  0  0
 14  8  1  0  0  0  0
 16  9  1  0  0  0  0
 18 22  1  0  0  0  0
 18 19  1  0  0  0  0
 19 24  1  0  0  0  0
 19 23  1  0  0  0  0
 19 25  1  0  0  0  0
 20 18  2  0  0  0  0
 21 18  2  0  0  0  0
M  RAD  3   2   2   3   3   4   2
M  END
