Coordinates from ORCA-job 4-MeOPhN2+~TfO-_B3LYPG-6-31G_dp-CH-Scan-d09-49-n800
 OpenBabel11261919093D

 25 24  0  0  0  0  0  0  0  0999 V2000
   -1.5506   -0.3319    0.5693 C   0  0  0  0  0  0  0  0  0  0  0  0
   -2.8401   -0.5929    0.9710 N   0  0  0  0  0  0  0  0  0  0  0  0
   -3.9007   -0.7516    1.3003 N   0  0  0  0  0  0  0  0  0  0  0  0
   -1.3147    1.0188    0.2133 C   0  0  0  0  0  0  0  0  0  0  0  0
    0.0270    1.1891   -0.1712 C   0  0  0  0  0  0  0  0  0  0  0  0
    0.9791    0.1572   -0.1939 C   0  0  0  0  0  0  0  0  0  0  0  0
    2.2259    0.5012   -0.5918 O   0  0  0  0  0  0  0  0  0  0  0  0
    3.2515   -0.4846   -0.6419 C   0  0  0  0  0  0  0  0  0  0  0  0
    0.6358   -1.1730    0.1842 C   0  0  0  0  0  0  0  0  0  0  0  0
   -0.6550   -1.4349    0.5768 C   0  0  0  0  0  0  0  0  0  0  0  0
   -3.8382    3.2807   -0.0378 H   0  0  0  0  0  0  0  0  0  0  0  0
    0.3918    2.1690   -0.4803 H   0  0  0  0  0  0  0  0  0  0  0  0
    4.1461    0.0350   -0.9867 H   0  0  0  0  0  0  0  0  0  0  0  0
    3.0060   -1.2867   -1.3479 H   0  0  0  0  0  0  0  0  0  0  0  0
    3.4454   -0.9157    0.3478 H   0  0  0  0  0  0  0  0  0  0  0  0
    1.3674   -1.9709    0.1673 H   0  0  0  0  0  0  0  0  0  0  0  0
   -0.9644   -2.4331    0.8765 H   0  0  0  0  0  0  0  0  0  0  0  0
   -5.8583    2.6681    0.3594 S   0  0  0  0  0  0  0  0  0  0  0  0
   -5.7467    2.4390    2.2064 C   0  0  0  0  0  0  0  0  0  0  0  0
   -7.1080    3.3452    0.0822 O   0  0  0  0  0  0  0  0  0  0  0  0
   -5.4839    1.3967   -0.2434 O   0  0  0  0  0  0  0  0  0  0  0  0
   -4.6724    3.7490    0.1520 O   0  0  0  0  0  0  0  0  0  0  0  0
   -5.9739    3.5922    2.8272 F   0  0  0  0  0  0  0  0  0  0  0  0
   -6.6579    1.5406    2.5758 F   0  0  0  0  0  0  0  0  0  0  0  0
   -4.5269    1.9926    2.5225 F   0  0  0  0  0  0  0  0  0  0  0  0
  1 10  1  0  0  0  0
  1  2  1  0  0  0  0
  2  3  1  0  0  0  0
  4  1  2  0  0  0  0
  5  4  1  0  0  0  0
  6  5  2  0  0  0  0
  6  9  1  0  0  0  0
  7  6  1  0  0  0  0
  8  7  1  0  0  0  0
  8 15  1  0  0  0  0
  9 10  2  0  0  0  0
 10 17  1  0  0  0  0
 11 22  1  0  0  0  0
 12  5  1  0  0  0  0
 13  8  1  0  0  0  0
 14  8  1  0  0  0  0
 16  9  1  0  0  0  0
 18 19  1  0  0  0  0
 19 25  1  0  0  0  0
 19 24  1  0  0  0  0
 19 23  1  0  0  0  0
 20 18  2  0  0  0  0
 21 18  2  0  0  0  0
 22 18  1  0  0  0  0
M  RAD  3   2   2   3   3   4   2
M  END
