Coordinates from ORCA-job 4-MeOPhN2+~TfO-_B3LYPG-6-31G_dp-CH-Scan-d09-49-n800
 OpenBabel11261919093D

 25 24  0  0  0  0  0  0  0  0999 V2000
   -1.6825   -0.4090    0.4763 C   0  0  0  0  0  0  0  0  0  0  0  0
   -2.9673   -0.7413    0.8320 N   0  0  0  0  0  0  0  0  0  0  0  0
   -4.0260   -0.9674    1.1242 N   0  0  0  0  0  0  0  0  0  0  0  0
   -1.4934    0.9498    0.1202 C   0  0  0  0  0  0  0  0  0  0  0  0
   -0.1516    1.1896   -0.2145 C   0  0  0  0  0  0  0  0  0  0  0  0
    0.8527    0.2075   -0.1927 C   0  0  0  0  0  0  0  0  0  0  0  0
    2.0935    0.6145   -0.5415 O   0  0  0  0  0  0  0  0  0  0  0  0
    3.1723   -0.3152   -0.5405 C   0  0  0  0  0  0  0  0  0  0  0  0
    0.5616   -1.1358    0.1792 C   0  0  0  0  0  0  0  0  0  0  0  0
   -0.7290   -1.4610    0.5228 C   0  0  0  0  0  0  0  0  0  0  0  0
   -3.5907    2.8685   -0.0465 H   0  0  0  0  0  0  0  0  0  0  0  0
    0.1722    2.1857   -0.5152 H   0  0  0  0  0  0  0  0  0  0  0  0
    4.0516    0.2511   -0.8488 H   0  0  0  0  0  0  0  0  0  0  0  0
    3.0009   -1.1316   -1.2517 H   0  0  0  0  0  0  0  0  0  0  0  0
    3.3443   -0.7308    0.4595 H   0  0  0  0  0  0  0  0  0  0  0  0
    1.3320   -1.8961    0.1958 H   0  0  0  0  0  0  0  0  0  0  0  0
   -0.9983   -2.4727    0.8153 H   0  0  0  0  0  0  0  0  0  0  0  0
   -5.6845    2.6156    0.3796 S   0  0  0  0  0  0  0  0  0  0  0  0
   -5.5592    2.5015    2.2353 C   0  0  0  0  0  0  0  0  0  0  0  0
   -6.8223    3.4592    0.0757 O   0  0  0  0  0  0  0  0  0  0  0  0
   -5.5455    1.2554   -0.1242 O   0  0  0  0  0  0  0  0  0  0  0  0
   -4.3573    3.4704    0.0669 O   0  0  0  0  0  0  0  0  0  0  0  0
   -5.5242    3.7169    2.7729 F   0  0  0  0  0  0  0  0  0  0  0  0
   -6.6200    1.8380    2.6944 F   0  0  0  0  0  0  0  0  0  0  0  0
   -4.4450    1.8360    2.5623 F   0  0  0  0  0  0  0  0  0  0  0  0
  1 10  1  0  0  0  0
  1  2  1  0  0  0  0
  2  3  1  0  0  0  0
  4  1  2  0  0  0  0
  5  6  2  0  0  0  0
  5  4  1  0  0  0  0
  6  9  1  0  0  0  0
  7  8  1  0  0  0  0
  7  6  1  0  0  0  0
  8 15  1  0  0  0  0
  9 16  1  0  0  0  0
  9 10  2  0  0  0  0
 10 17  1  0  0  0  0
 11 22  1  0  0  0  0
 12  5  1  0  0  0  0
 13  8  1  0  0  0  0
 14  8  1  0  0  0  0
 18 19  1  0  0  0  0
 19 25  1  0  0  0  0
 19 24  1  0  0  0  0
 19 23  1  0  0  0  0
 20 18  2  0  0  0  0
 21 18  2  0  0  0  0
 22 18  1  0  0  0  0
M  RAD  3   2   2   3   3   4   2
M  END
