Coordinates from ORCA-job 4-MeOPhN2+~TfO-_B3LYPG-6-31G_dp-CH-Scan-d09-49-n800
 OpenBabel11261919093D

 25 24  0  0  0  0  0  0  0  0999 V2000
   -1.8443   -0.3651    0.6675 C   0  0  0  0  0  0  0  0  0  0  0  0
   -3.0855   -0.7499    1.1025 N   0  0  0  0  0  0  0  0  0  0  0  0
   -4.1073   -1.0329    1.4589 N   0  0  0  0  0  0  0  0  0  0  0  0
   -1.6643    1.0066    0.3571 C   0  0  0  0  0  0  0  0  0  0  0  0
   -0.3694    1.2994   -0.0642 C   0  0  0  0  0  0  0  0  0  0  0  0
    0.6462    0.3301   -0.1689 C   0  0  0  0  0  0  0  0  0  0  0  0
    1.8434    0.7749   -0.5905 O   0  0  0  0  0  0  0  0  0  0  0  0
    2.9341   -0.1356   -0.7267 C   0  0  0  0  0  0  0  0  0  0  0  0
    0.3926   -1.0281    0.1584 C   0  0  0  0  0  0  0  0  0  0  0  0
   -0.8661   -1.3867    0.5841 C   0  0  0  0  0  0  0  0  0  0  0  0
   -2.8159    2.1169    0.4193 H   0  0  0  0  0  0  0  0  0  0  0  0
   -0.0995    2.3170   -0.3361 H   0  0  0  0  0  0  0  0  0  0  0  0
    3.7742    0.4628   -1.0786 H   0  0  0  0  0  0  0  0  0  0  0  0
    2.7109   -0.9171   -1.4615 H   0  0  0  0  0  0  0  0  0  0  0  0
    3.1931   -0.5938    0.2346 H   0  0  0  0  0  0  0  0  0  0  0  0
    1.1663   -1.7808    0.0782 H   0  0  0  0  0  0  0  0  0  0  0  0
   -1.0989   -2.4147    0.8453 H   0  0  0  0  0  0  0  0  0  0  0  0
   -5.0463    2.4801    0.2801 S   0  0  0  0  0  0  0  0  0  0  0  0
   -5.5862    2.4649    2.0584 C   0  0  0  0  0  0  0  0  0  0  0  0
   -5.8677    3.4789   -0.3874 O   0  0  0  0  0  0  0  0  0  0  0  0
   -5.1028    1.0723   -0.1363 O   0  0  0  0  0  0  0  0  0  0  0  0
   -3.5779    2.9598    0.4396 O   0  0  0  0  0  0  0  0  0  0  0  0
   -5.4721    3.6751    2.6063 F   0  0  0  0  0  0  0  0  0  0  0  0
   -6.8568    2.0620    2.1451 F   0  0  0  0  0  0  0  0  0  0  0  0
   -4.8157    1.6028    2.7518 F   0  0  0  0  0  0  0  0  0  0  0  0
  1  2  1  0  0  0  0
  2  3  1  0  0  0  0
  4  1  2  0  0  0  0
  5  4  1  0  0  0  0
  6  5  2  0  0  0  0
  6  9  1  0  0  0  0
  7  6  1  0  0  0  0
  8  7  1  0  0  0  0
  8 15  1  0  0  0  0
  9 10  2  0  0  0  0
 10  1  1  0  0  0  0
 10 17  1  0  0  0  0
 11 22  1  0  0  0  0
 12  5  1  0  0  0  0
 13  8  1  0  0  0  0
 14  8  1  0  0  0  0
 16  9  1  0  0  0  0
 18 22  1  0  0  0  0
 18 19  1  0  0  0  0
 19 24  1  0  0  0  0
 19 23  1  0  0  0  0
 19 25  1  0  0  0  0
 20 18  2  0  0  0  0
 21 18  2  0  0  0  0
M  RAD  3   2   2   3   3   4   2
M  END
