Coordinates from ORCA-job 4-MeOPhN2+~TfO-_B3LYPG-6-31G_dp-CH-Scan-d09-49-n800
 OpenBabel11261919093D

 25 24  0  0  0  0  0  0  0  0999 V2000
   -1.5376   -0.3424    0.6670 C   0  0  0  0  0  0  0  0  0  0  0  0
   -2.8428   -0.5832    1.0382 N   0  0  0  0  0  0  0  0  0  0  0  0
   -3.9141   -0.7029    1.3506 N   0  0  0  0  0  0  0  0  0  0  0  0
   -1.2417    1.0343    0.5309 C   0  0  0  0  0  0  0  0  0  0  0  0
    0.1074    1.1964    0.1621 C   0  0  0  0  0  0  0  0  0  0  0  0
    1.0044    0.1358   -0.0383 C   0  0  0  0  0  0  0  0  0  0  0  0
    2.2669    0.4762   -0.3934 O   0  0  0  0  0  0  0  0  0  0  0  0
    3.2394   -0.5397   -0.6096 C   0  0  0  0  0  0  0  0  0  0  0  0
    0.5961   -1.2204    0.1252 C   0  0  0  0  0  0  0  0  0  0  0  0
   -0.7046   -1.4784    0.4876 C   0  0  0  0  0  0  0  0  0  0  0  0
   -4.4668    3.7197   -0.5718 H   0  0  0  0  0  0  0  0  0  0  0  0
    0.5224    2.1940    0.0106 H   0  0  0  0  0  0  0  0  0  0  0  0
    4.1600   -0.0187   -0.8746 H   0  0  0  0  0  0  0  0  0  0  0  0
    2.9526   -1.2054   -1.4326 H   0  0  0  0  0  0  0  0  0  0  0  0
    3.4106   -1.1345    0.2962 H   0  0  0  0  0  0  0  0  0  0  0  0
    1.2869   -2.0393   -0.0306 H   0  0  0  0  0  0  0  0  0  0  0  0
   -1.0640   -2.4953    0.6270 H   0  0  0  0  0  0  0  0  0  0  0  0
   -6.0554    2.6154    0.3591 S   0  0  0  0  0  0  0  0  0  0  0  0
   -5.3770    2.4582    2.0905 C   0  0  0  0  0  0  0  0  0  0  0  0
   -7.4615    2.9429    0.4693 O   0  0  0  0  0  0  0  0  0  0  0  0
   -5.5485    1.4844   -0.4053 O   0  0  0  0  0  0  0  0  0  0  0  0
   -5.2849    3.9688   -0.1070 O   0  0  0  0  0  0  0  0  0  0  0  0
   -5.7091    3.5281    2.8066 F   0  0  0  0  0  0  0  0  0  0  0  0
   -5.9026    1.3643    2.6434 F   0  0  0  0  0  0  0  0  0  0  0  0
   -4.0519    2.3406    2.0361 F   0  0  0  0  0  0  0  0  0  0  0  0
  1  2  1  0  0  0  0
  2  3  1  0  0  0  0
  4  1  1  0  0  0  0
  5  4  2  0  0  0  0
  6  9  2  0  0  0  0
  6  5  1  0  0  0  0
  7  6  1  0  0  0  0
  8  7  1  0  0  0  0
  8 15  1  0  0  0  0
  9 10  1  0  0  0  0
 10 17  1  0  0  0  0
 10  1  2  0  0  0  0
 11 22  1  0  0  0  0
 12  5  1  0  0  0  0
 13  8  1  0  0  0  0
 14  8  1  0  0  0  0
 16  9  1  0  0  0  0
 18 20  2  0  0  0  0
 18 19  1  0  0  0  0
 19 24  1  0  0  0  0
 19 23  1  0  0  0  0
 21 18  2  0  0  0  0
 22 18  1  0  0  0  0
 25 19  1  0  0  0  0
M  RAD  3   2   2   3   3   4   2
M  END
