Coordinates from ORCA-job 4-MeOPhN2+~TfO-_B3LYPG-6-31G_dp-CH-Scan-d09-49-n800
 OpenBabel11261919093D

 25 24  0  0  0  0  0  0  0  0999 V2000
   -1.9833   -0.2888    0.4726 C   0  0  0  0  0  0  0  0  0  0  0  0
   -3.2954   -0.6619    0.6582 N   0  0  0  0  0  0  0  0  0  0  0  0
   -4.3119   -1.1025    0.8361 N   0  0  0  0  0  0  0  0  0  0  0  0
   -1.5566    1.0148    0.7988 C   0  0  0  0  0  0  0  0  0  0  0  0
   -0.2223    1.3178    0.6305 C   0  0  0  0  0  0  0  0  0  0  0  0
    0.6810    0.3559    0.1291 C   0  0  0  0  0  0  0  0  0  0  0  0
    1.9500    0.7700   -0.0013 O   0  0  0  0  0  0  0  0  0  0  0  0
    2.9373   -0.1275   -0.5158 C   0  0  0  0  0  0  0  0  0  0  0  0
    0.2325   -0.9417   -0.1962 C   0  0  0  0  0  0  0  0  0  0  0  0
   -1.1008   -1.2679   -0.0171 C   0  0  0  0  0  0  0  0  0  0  0  0
   -2.2735    1.7346    1.1512 H   0  0  0  0  0  0  0  0  0  0  0  0
    0.1560    2.3052    0.8682 H   0  0  0  0  0  0  0  0  0  0  0  0
    3.8686    0.4378   -0.5265 H   0  0  0  0  0  0  0  0  0  0  0  0
    2.6897   -0.4436   -1.5346 H   0  0  0  0  0  0  0  0  0  0  0  0
    3.0486   -1.0045    0.1308 H   0  0  0  0  0  0  0  0  0  0  0  0
    0.9133   -1.6890   -0.5822 H   0  0  0  0  0  0  0  0  0  0  0  0
   -1.4661   -2.2599   -0.2581 H   0  0  0  0  0  0  0  0  0  0  0  0
   -5.4563    1.8621    0.3882 S   0  0  0  0  0  0  0  0  0  0  0  0
   -5.0737    2.9900    1.8157 C   0  0  0  0  0  0  0  0  0  0  0  0
   -6.4493    2.5907   -0.4019 O   0  0  0  0  0  0  0  0  0  0  0  0
   -5.9288    0.6171    1.0642 O   0  0  0  0  0  0  0  0  0  0  0  0
   -4.1129    1.6807   -0.2371 O   0  0  0  0  0  0  0  0  0  0  0  0
   -4.6652    4.1913    1.3855 F   0  0  0  0  0  0  0  0  0  0  0  0
   -6.1305    3.1557    2.6152 F   0  0  0  0  0  0  0  0  0  0  0  0
   -4.0662    2.4624    2.5635 F   0  0  0  0  0  0  0  0  0  0  0  0
  1  2  1  0  0  0  0
  1  4  2  0  0  0  0
  2  3  1  0  0  0  0
  4 11  1  0  0  0  0
  5  4  1  0  0  0  0
  5 12  1  0  0  0  0
  6  5  2  0  0  0  0
  7  6  1  0  0  0  0
  8  7  1  0  0  0  0
  8 15  1  0  0  0  0
  9 10  2  0  0  0  0
  9  6  1  0  0  0  0
 10  1  1  0  0  0  0
 13  8  1  0  0  0  0
 14  8  1  0  0  0  0
 16  9  1  0  0  0  0
 17 10  1  0  0  0  0
 18 21  1  0  0  0  0
 18 19  1  0  0  0  0
 19 25  1  0  0  0  0
 19 24  1  0  0  0  0
 20 18  2  0  0  0  0
 22 18  2  0  0  0  0
 23 19  1  0  0  0  0
M  RAD  3   2   2   3   3  21   2
M  END
