Coordinates from ORCA-job 4-MeOPhN2+~TfO-_B3LYPG-6-31G_dp-CH-Scan-d09-49-n800
 OpenBabel11261919093D

 25 24  0  0  0  0  0  0  0  0999 V2000
   -1.7229   -0.4086    0.5142 C   0  0  0  0  0  0  0  0  0  0  0  0
   -2.9977   -0.7590    0.8847 N   0  0  0  0  0  0  0  0  0  0  0  0
   -4.0478   -1.0066    1.1883 N   0  0  0  0  0  0  0  0  0  0  0  0
   -1.5449    0.9547    0.1678 C   0  0  0  0  0  0  0  0  0  0  0  0
   -0.2126    1.2110   -0.1855 C   0  0  0  0  0  0  0  0  0  0  0  0
    0.8000    0.2364   -0.1892 C   0  0  0  0  0  0  0  0  0  0  0  0
    2.0305    0.6571   -0.5535 O   0  0  0  0  0  0  0  0  0  0  0  0
    3.1173   -0.2636   -0.5796 C   0  0  0  0  0  0  0  0  0  0  0  0
    0.5245   -1.1119    0.1743 C   0  0  0  0  0  0  0  0  0  0  0  0
   -0.7582   -1.4506    0.5347 C   0  0  0  0  0  0  0  0  0  0  0  0
   -3.4017    2.6818    0.0899 H   0  0  0  0  0  0  0  0  0  0  0  0
    0.0966    2.2127   -0.4810 H   0  0  0  0  0  0  0  0  0  0  0  0
    3.9861    0.3133   -0.8975 H   0  0  0  0  0  0  0  0  0  0  0  0
    2.9401   -1.0745   -1.2954 H   0  0  0  0  0  0  0  0  0  0  0  0
    3.3095   -0.6865    0.4136 H   0  0  0  0  0  0  0  0  0  0  0  0
    1.3005   -1.8665    0.1716 H   0  0  0  0  0  0  0  0  0  0  0  0
   -1.0143   -2.4672    0.8213 H   0  0  0  0  0  0  0  0  0  0  0  0
   -5.5390    2.5820    0.3463 S   0  0  0  0  0  0  0  0  0  0  0  0
   -5.5659    2.5035    2.2069 C   0  0  0  0  0  0  0  0  0  0  0  0
   -6.5965    3.4857   -0.0604 O   0  0  0  0  0  0  0  0  0  0  0  0
   -5.4603    1.2003   -0.1131 O   0  0  0  0  0  0  0  0  0  0  0  0
   -4.1429    3.3354    0.1227 O   0  0  0  0  0  0  0  0  0  0  0  0
   -5.4992    3.7259    2.7265 F   0  0  0  0  0  0  0  0  0  0  0  0
   -6.6960    1.9127    2.5960 F   0  0  0  0  0  0  0  0  0  0  0  0
   -4.5211    1.7813    2.6334 F   0  0  0  0  0  0  0  0  0  0  0  0
  1 10  1  0  0  0  0
  1  2  1  0  0  0  0
  2  3  1  0  0  0  0
  4  1  2  0  0  0  0
  5  4  1  0  0  0  0
  6  5  2  0  0  0  0
  6  9  1  0  0  0  0
  7  6  1  0  0  0  0
  8  7  1  0  0  0  0
  8 15  1  0  0  0  0
  9 10  2  0  0  0  0
 10 17  1  0  0  0  0
 11 22  1  0  0  0  0
 12  5  1  0  0  0  0
 13  8  1  0  0  0  0
 14  8  1  0  0  0  0
 16  9  1  0  0  0  0
 18 19  1  0  0  0  0
 19 24  1  0  0  0  0
 19 25  1  0  0  0  0
 19 23  1  0  0  0  0
 20 18  2  0  0  0  0
 21 18  2  0  0  0  0
 22 18  1  0  0  0  0
M  RAD  3   2   2   3   3   4   2
M  END
