Coordinates from ORCA-job 4-MeOPhN2+~TfO-_B3LYPG-6-31G_dp-CH-Scan-d09-49-n800
 OpenBabel11261919093D

 25 24  0  0  0  0  0  0  0  0999 V2000
   -1.5726   -0.3368    0.5729 C   0  0  0  0  0  0  0  0  0  0  0  0
   -2.8599   -0.6052    0.9755 N   0  0  0  0  0  0  0  0  0  0  0  0
   -3.9199   -0.7682    1.3044 N   0  0  0  0  0  0  0  0  0  0  0  0
   -1.3446    1.0146    0.2133 C   0  0  0  0  0  0  0  0  0  0  0  0
   -0.0048    1.1932   -0.1726 C   0  0  0  0  0  0  0  0  0  0  0  0
    0.9541    0.1674   -0.1932 C   0  0  0  0  0  0  0  0  0  0  0  0
    2.1981    0.5187   -0.5926 O   0  0  0  0  0  0  0  0  0  0  0  0
    3.2306   -0.4602   -0.6405 C   0  0  0  0  0  0  0  0  0  0  0  0
    0.6197   -1.1638    0.1885 C   0  0  0  0  0  0  0  0  0  0  0  0
   -0.6692   -1.4332    0.5825 C   0  0  0  0  0  0  0  0  0  0  0  0
   -3.7743    3.2177   -0.0188 H   0  0  0  0  0  0  0  0  0  0  0  0
    0.3531    2.1747   -0.4845 H   0  0  0  0  0  0  0  0  0  0  0  0
    4.1212    0.0646   -0.9874 H   0  0  0  0  0  0  0  0  0  0  0  0
    2.9901   -1.2659   -1.3440 H   0  0  0  0  0  0  0  0  0  0  0  0
    3.4279   -0.8868    0.3504 H   0  0  0  0  0  0  0  0  0  0  0  0
    1.3564   -1.9570    0.1733 H   0  0  0  0  0  0  0  0  0  0  0  0
   -0.9718   -2.4327    0.8848 H   0  0  0  0  0  0  0  0  0  0  0  0
   -5.8155    2.6611    0.3513 S   0  0  0  0  0  0  0  0  0  0  0  0
   -5.7216    2.4331    2.1993 C   0  0  0  0  0  0  0  0  0  0  0  0
   -7.0455    3.3697    0.0641 O   0  0  0  0  0  0  0  0  0  0  0  0
   -5.4724    1.3777   -0.2448 O   0  0  0  0  0  0  0  0  0  0  0  0
   -4.6010    3.7089    0.1491 O   0  0  0  0  0  0  0  0  0  0  0  0
   -5.9352    3.5898    2.8182 F   0  0  0  0  0  0  0  0  0  0  0  0
   -6.6483    1.5486    2.5641 F   0  0  0  0  0  0  0  0  0  0  0  0
   -4.5103    1.9687    2.5238 F   0  0  0  0  0  0  0  0  0  0  0  0
  1 10  1  0  0  0  0
  1  2  1  0  0  0  0
  2  3  1  0  0  0  0
  4  1  2  0  0  0  0
  5  4  1  0  0  0  0
  6  5  2  0  0  0  0
  6  9  1  0  0  0  0
  7  6  1  0  0  0  0
  8  7  1  0  0  0  0
  8 15  1  0  0  0  0
  9 10  2  0  0  0  0
 10 17  1  0  0  0  0
 11 22  1  0  0  0  0
 12  5  1  0  0  0  0
 13  8  1  0  0  0  0
 14  8  1  0  0  0  0
 16  9  1  0  0  0  0
 18 19  1  0  0  0  0
 19 25  1  0  0  0  0
 19 24  1  0  0  0  0
 19 23  1  0  0  0  0
 20 18  2  0  0  0  0
 21 18  2  0  0  0  0
 22 18  1  0  0  0  0
M  RAD  3   2   2   3   3   4   2
M  END
