Coordinates from ORCA-job 4-MeOPhN2+~TfO-_B3LYPG-6-31G_dp-CH-Scan-d09-49-n800
 OpenBabel11261919093D

 25 24  0  0  0  0  0  0  0  0999 V2000
   -1.8081   -0.4247    0.5372 C   0  0  0  0  0  0  0  0  0  0  0  0
   -3.0695   -0.8127    0.9122 N   0  0  0  0  0  0  0  0  0  0  0  0
   -4.1096   -1.0928    1.2195 N   0  0  0  0  0  0  0  0  0  0  0  0
   -1.6524    0.9456    0.2045 C   0  0  0  0  0  0  0  0  0  0  0  0
   -0.3307    1.2359   -0.1529 C   0  0  0  0  0  0  0  0  0  0  0  0
    0.7025    0.2822   -0.1747 C   0  0  0  0  0  0  0  0  0  0  0  0
    1.9194    0.7342   -0.5405 O   0  0  0  0  0  0  0  0  0  0  0  0
    3.0269   -0.1620   -0.5852 C   0  0  0  0  0  0  0  0  0  0  0  0
    0.4553   -1.0742    0.1737 C   0  0  0  0  0  0  0  0  0  0  0  0
   -0.8186   -1.4423    0.5377 C   0  0  0  0  0  0  0  0  0  0  0  0
   -3.1765    2.3917    0.1585 H   0  0  0  0  0  0  0  0  0  0  0  0
   -0.0477    2.2478   -0.4373 H   0  0  0  0  0  0  0  0  0  0  0  0
    3.8803    0.4389   -0.8997 H   0  0  0  0  0  0  0  0  0  0  0  0
    2.8627   -0.9663   -1.3114 H   0  0  0  0  0  0  0  0  0  0  0  0
    3.2333   -0.5935    0.4013 H   0  0  0  0  0  0  0  0  0  0  0  0
    1.2455   -1.8137    0.1571 H   0  0  0  0  0  0  0  0  0  0  0  0
   -1.0519   -2.4670    0.8134 H   0  0  0  0  0  0  0  0  0  0  0  0
   -5.3377    2.5283    0.3140 S   0  0  0  0  0  0  0  0  0  0  0  0
   -5.4729    2.5089    2.1702 C   0  0  0  0  0  0  0  0  0  0  0  0
   -6.2944    3.5061   -0.1690 O   0  0  0  0  0  0  0  0  0  0  0  0
   -5.3825    1.1274   -0.0977 O   0  0  0  0  0  0  0  0  0  0  0  0
   -3.8760    3.1246    0.1484 O   0  0  0  0  0  0  0  0  0  0  0  0
   -5.3068    3.7325    2.6668 F   0  0  0  0  0  0  0  0  0  0  0  0
   -6.6756    2.0475    2.5166 F   0  0  0  0  0  0  0  0  0  0  0  0
   -4.5308    1.6968    2.6745 F   0  0  0  0  0  0  0  0  0  0  0  0
  1 10  1  0  0  0  0
  1  2  1  0  0  0  0
  2  3  1  0  0  0  0
  4  1  2  0  0  0  0
  5  4  1  0  0  0  0
  6  5  2  0  0  0  0
  6  9  1  0  0  0  0
  7  6  1  0  0  0  0
  8  7  1  0  0  0  0
  8 15  1  0  0  0  0
  9 10  2  0  0  0  0
 10 17  1  0  0  0  0
 12  5  1  0  0  0  0
 13  8  1  0  0  0  0
 14  8  1  0  0  0  0
 16  9  1  0  0  0  0
 18 19  1  0  0  0  0
 19 24  1  0  0  0  0
 19 23  1  0  0  0  0
 19 25  1  0  0  0  0
 20 18  2  0  0  0  0
 21 18  2  0  0  0  0
 22 11  1  0  0  0  0
 22 18  1  0  0  0  0
M  RAD  3   2   2   3   3   4   2
M  END
