Coordinates from ORCA-job 4-MeOPhN2+~TfO-_B3LYPG-6-31G_dp-CH-Scan-d09-49-n800
 OpenBabel11261919093D

 25 24  0  0  0  0  0  0  0  0999 V2000
   -1.4880   -0.3180    0.5758 C   0  0  0  0  0  0  0  0  0  0  0  0
   -2.7839   -0.5521    0.9769 N   0  0  0  0  0  0  0  0  0  0  0  0
   -3.8486   -0.6821    1.3069 N   0  0  0  0  0  0  0  0  0  0  0  0
   -1.2278    1.0330    0.2417 C   0  0  0  0  0  0  0  0  0  0  0  0
    0.1176    1.1804   -0.1430 C   0  0  0  0  0  0  0  0  0  0  0  0
    1.0471    0.1293   -0.1852 C   0  0  0  0  0  0  0  0  0  0  0  0
    2.3008    0.4530   -0.5810 O   0  0  0  0  0  0  0  0  0  0  0  0
    3.3043   -0.5538   -0.6507 C   0  0  0  0  0  0  0  0  0  0  0  0
    0.6770   -1.2000    0.1720 C   0  0  0  0  0  0  0  0  0  0  0  0
   -0.6181   -1.4413    0.5638 C   0  0  0  0  0  0  0  0  0  0  0  0
   -4.0407    3.4621   -0.1145 H   0  0  0  0  0  0  0  0  0  0  0  0
    0.5032    2.1573   -0.4371 H   0  0  0  0  0  0  0  0  0  0  0  0
    4.2094   -0.0481   -0.9888 H   0  0  0  0  0  0  0  0  0  0  0  0
    3.0400   -1.3380   -1.3700 H   0  0  0  0  0  0  0  0  0  0  0  0
    3.4910   -1.0064    0.3307 H   0  0  0  0  0  0  0  0  0  0  0  0
    1.3919   -2.0124    0.1400 H   0  0  0  0  0  0  0  0  0  0  0  0
   -0.9480   -2.4375    0.8484 H   0  0  0  0  0  0  0  0  0  0  0  0
   -5.9841    2.6890    0.3735 S   0  0  0  0  0  0  0  0  0  0  0  0
   -5.7965    2.4468    2.2130 C   0  0  0  0  0  0  0  0  0  0  0  0
   -7.2901    3.2714    0.1454 O   0  0  0  0  0  0  0  0  0  0  0  0
   -5.5274    1.4625   -0.2640 O   0  0  0  0  0  0  0  0  0  0  0  0
   -4.8888    3.8629    0.1478 O   0  0  0  0  0  0  0  0  0  0  0  0
   -6.0665    3.5798    2.8532 F   0  0  0  0  0  0  0  0  0  0  0  0
   -6.6448    1.4958    2.5998 F   0  0  0  0  0  0  0  0  0  0  0  0
   -4.5449    2.0654    2.4826 F   0  0  0  0  0  0  0  0  0  0  0  0
  1  2  1  0  0  0  0
  2  3  1  0  0  0  0
  4  1  2  0  0  0  0
  5  4  1  0  0  0  0
  6  5  2  0  0  0  0
  6  9  1  0  0  0  0
  7  6  1  0  0  0  0
  8  7  1  0  0  0  0
  8 15  1  0  0  0  0
  9 10  2  0  0  0  0
 10  1  1  0  0  0  0
 10 17  1  0  0  0  0
 11 22  1  0  0  0  0
 12  5  1  0  0  0  0
 13  8  1  0  0  0  0
 14  8  1  0  0  0  0
 16  9  1  0  0  0  0
 18 19  1  0  0  0  0
 19 25  1  0  0  0  0
 19 24  1  0  0  0  0
 19 23  1  0  0  0  0
 20 18  2  0  0  0  0
 21 18  2  0  0  0  0
 22 18  1  0  0  0  0
M  RAD  3   2   2   3   3   4   2
M  END
