Coordinates from ORCA-job 4-MeOPhN2+~TfO-_B3LYPG-6-31G_dp-CH-Scan-d09-49-n800
 OpenBabel11261919093D

 25 24  0  0  0  0  0  0  0  0999 V2000
   -1.6763   -0.4078    0.4744 C   0  0  0  0  0  0  0  0  0  0  0  0
   -2.9620   -0.7375    0.8300 N   0  0  0  0  0  0  0  0  0  0  0  0
   -4.0218   -0.9615    1.1196 N   0  0  0  0  0  0  0  0  0  0  0  0
   -1.4857    0.9501    0.1163 C   0  0  0  0  0  0  0  0  0  0  0  0
   -0.1430    1.1874   -0.2176 C   0  0  0  0  0  0  0  0  0  0  0  0
    0.8599    0.2039   -0.1937 C   0  0  0  0  0  0  0  0  0  0  0  0
    2.1016    0.6086   -0.5424 O   0  0  0  0  0  0  0  0  0  0  0  0
    3.1789   -0.3227   -0.5395 C   0  0  0  0  0  0  0  0  0  0  0  0
    0.5667   -1.1385    0.1799 C   0  0  0  0  0  0  0  0  0  0  0  0
   -0.7246   -1.4614    0.5230 C   0  0  0  0  0  0  0  0  0  0  0  0
   -3.6102    2.8908   -0.0532 H   0  0  0  0  0  0  0  0  0  0  0  0
    0.1826    2.1826   -0.5195 H   0  0  0  0  0  0  0  0  0  0  0  0
    4.0592    0.2417   -0.8483 H   0  0  0  0  0  0  0  0  0  0  0  0
    3.0067   -1.1399   -1.2497 H   0  0  0  0  0  0  0  0  0  0  0  0
    3.3499   -0.7373    0.4611 H   0  0  0  0  0  0  0  0  0  0  0  0
    1.3361   -1.8998    0.1983 H   0  0  0  0  0  0  0  0  0  0  0  0
   -0.9954   -2.4723    0.8169 H   0  0  0  0  0  0  0  0  0  0  0  0
   -5.6994    2.6198    0.3826 S   0  0  0  0  0  0  0  0  0  0  0  0
   -5.5645    2.5012    2.2375 C   0  0  0  0  0  0  0  0  0  0  0  0
   -6.8447    3.4558    0.0863 O   0  0  0  0  0  0  0  0  0  0  0  0
   -5.5513    1.2626   -0.1265 O   0  0  0  0  0  0  0  0  0  0  0  0
   -4.3799    3.4864    0.0666 O   0  0  0  0  0  0  0  0  0  0  0  0
   -5.5369    3.7153    2.7783 F   0  0  0  0  0  0  0  0  0  0  0  0
   -6.6180    1.8278    2.6991 F   0  0  0  0  0  0  0  0  0  0  0  0
   -4.4437    1.8437    2.5573 F   0  0  0  0  0  0  0  0  0  0  0  0
  1 10  1  0  0  0  0
  1  2  1  0  0  0  0
  2  3  1  0  0  0  0
  4  1  2  0  0  0  0
  5  6  2  0  0  0  0
  5  4  1  0  0  0  0
  6  9  1  0  0  0  0
  7  8  1  0  0  0  0
  7  6  1  0  0  0  0
  8 15  1  0  0  0  0
  9 16  1  0  0  0  0
  9 10  2  0  0  0  0
 10 17  1  0  0  0  0
 11 22  1  0  0  0  0
 12  5  1  0  0  0  0
 13  8  1  0  0  0  0
 14  8  1  0  0  0  0
 18 19  1  0  0  0  0
 19 25  1  0  0  0  0
 19 24  1  0  0  0  0
 19 23  1  0  0  0  0
 20 18  2  0  0  0  0
 21 18  2  0  0  0  0
 22 18  1  0  0  0  0
M  RAD  3   2   2   3   3   4   2
M  END
