Coordinates from ORCA-job 4-MeOPhN2+~TfO-_B3LYPG-6-31G_dp-CH-Scan-d09-49-n800
 OpenBabel11261919093D

 25 24  0  0  0  0  0  0  0  0999 V2000
   -1.4854   -0.3171    0.5764 C   0  0  0  0  0  0  0  0  0  0  0  0
   -2.7816   -0.5499    0.9774 N   0  0  0  0  0  0  0  0  0  0  0  0
   -3.8464   -0.6786    1.3075 N   0  0  0  0  0  0  0  0  0  0  0  0
   -1.2239    1.0339    0.2435 C   0  0  0  0  0  0  0  0  0  0  0  0
    0.1216    1.1803   -0.1413 C   0  0  0  0  0  0  0  0  0  0  0  0
    1.0500    0.1282   -0.1845 C   0  0  0  0  0  0  0  0  0  0  0  0
    2.3040    0.4509   -0.5802 O   0  0  0  0  0  0  0  0  0  0  0  0
    3.3064   -0.5568   -0.6510 C   0  0  0  0  0  0  0  0  0  0  0  0
    0.6786   -1.2010    0.1714 C   0  0  0  0  0  0  0  0  0  0  0  0
   -0.6167   -1.4414    0.5632 C   0  0  0  0  0  0  0  0  0  0  0  0
   -4.0502    3.4696   -0.1185 H   0  0  0  0  0  0  0  0  0  0  0  0
    0.5083    2.1570   -0.4345 H   0  0  0  0  0  0  0  0  0  0  0  0
    4.2120   -0.0519   -0.9887 H   0  0  0  0  0  0  0  0  0  0  0  0
    3.0412   -1.3401   -1.3710 H   0  0  0  0  0  0  0  0  0  0  0  0
    3.4927   -1.0107    0.3299 H   0  0  0  0  0  0  0  0  0  0  0  0
    1.3926   -2.0142    0.1385 H   0  0  0  0  0  0  0  0  0  0  0  0
   -0.9477   -2.4375    0.8469 H   0  0  0  0  0  0  0  0  0  0  0  0
   -5.9898    2.6898    0.3740 S   0  0  0  0  0  0  0  0  0  0  0  0
   -5.7978    2.4468    2.2129 C   0  0  0  0  0  0  0  0  0  0  0  0
   -7.2981    3.2680    0.1488 O   0  0  0  0  0  0  0  0  0  0  0  0
   -5.5300    1.4654   -0.2655 O   0  0  0  0  0  0  0  0  0  0  0  0
   -4.8987    3.8675    0.1471 O   0  0  0  0  0  0  0  0  0  0  0  0
   -6.0696    3.5788    2.8544 F   0  0  0  0  0  0  0  0  0  0  0  0
   -6.6428    1.4933    2.6007 F   0  0  0  0  0  0  0  0  0  0  0  0
   -4.5447    2.0686    2.4798 F   0  0  0  0  0  0  0  0  0  0  0  0
  1  2  1  0  0  0  0
  2  3  1  0  0  0  0
  4  1  2  0  0  0  0
  5  4  1  0  0  0  0
  6  5  2  0  0  0  0
  6  9  1  0  0  0  0
  7  6  1  0  0  0  0
  8  7  1  0  0  0  0
  8 15  1  0  0  0  0
  9 10  2  0  0  0  0
 10  1  1  0  0  0  0
 10 17  1  0  0  0  0
 11 22  1  0  0  0  0
 12  5  1  0  0  0  0
 13  8  1  0  0  0  0
 14  8  1  0  0  0  0
 16  9  1  0  0  0  0
 18 19  1  0  0  0  0
 19 25  1  0  0  0  0
 19 24  1  0  0  0  0
 19 23  1  0  0  0  0
 20 18  2  0  0  0  0
 21 18  2  0  0  0  0
 22 18  1  0  0  0  0
M  RAD  3   2   2   3   3   4   2
M  END
