Coordinates from ORCA-job 4-MeOPhN2+~TfO-_B3LYPG-6-31G_dp-CH-Scan-d09-49-n800
 OpenBabel11261919093D

 25 24  0  0  0  0  0  0  0  0999 V2000
   -1.7331   -0.4109    0.5160 C   0  0  0  0  0  0  0  0  0  0  0  0
   -3.0065   -0.7658    0.8865 N   0  0  0  0  0  0  0  0  0  0  0  0
   -4.0556   -1.0175    1.1899 N   0  0  0  0  0  0  0  0  0  0  0  0
   -1.5579    0.9532    0.1708 C   0  0  0  0  0  0  0  0  0  0  0  0
   -0.2267    1.2137   -0.1826 C   0  0  0  0  0  0  0  0  0  0  0  0
    0.7885    0.2416   -0.1877 C   0  0  0  0  0  0  0  0  0  0  0  0
    2.0175    0.6661   -0.5520 O   0  0  0  0  0  0  0  0  0  0  0  0
    3.1070   -0.2516   -0.5794 C   0  0  0  0  0  0  0  0  0  0  0  0
    0.5165   -1.1075    0.1745 C   0  0  0  0  0  0  0  0  0  0  0  0
   -0.7652   -1.4498    0.5350 C   0  0  0  0  0  0  0  0  0  0  0  0
   -3.3755    2.6491    0.0975 H   0  0  0  0  0  0  0  0  0  0  0  0
    0.0794    2.2165   -0.4772 H   0  0  0  0  0  0  0  0  0  0  0  0
    3.9740    0.3281   -0.8970 H   0  0  0  0  0  0  0  0  0  0  0  0
    2.9316   -1.0622   -1.2961 H   0  0  0  0  0  0  0  0  0  0  0  0
    3.3005   -0.6750    0.4133 H   0  0  0  0  0  0  0  0  0  0  0  0
    1.2944   -1.8602    0.1708 H   0  0  0  0  0  0  0  0  0  0  0  0
   -1.0186   -2.4674    0.8207 H   0  0  0  0  0  0  0  0  0  0  0  0
   -5.5162    2.5759    0.3428 S   0  0  0  0  0  0  0  0  0  0  0  0
   -5.5543    2.5042    2.2034 C   0  0  0  0  0  0  0  0  0  0  0  0
   -6.5623    3.4891   -0.0725 O   0  0  0  0  0  0  0  0  0  0  0  0
   -5.4521    1.1911   -0.1104 O   0  0  0  0  0  0  0  0  0  0  0  0
   -4.1114    3.3115    0.1242 O   0  0  0  0  0  0  0  0  0  0  0  0
   -5.4771    3.7276    2.7195 F   0  0  0  0  0  0  0  0  0  0  0  0
   -6.6928    1.9270    2.5888 F   0  0  0  0  0  0  0  0  0  0  0  0
   -4.5198    1.7721    2.6384 F   0  0  0  0  0  0  0  0  0  0  0  0
  1 10  1  0  0  0  0
  1  2  1  0  0  0  0
  2  3  1  0  0  0  0
  4  1  2  0  0  0  0
  5  4  1  0  0  0  0
  6  5  2  0  0  0  0
  6  9  1  0  0  0  0
  7  6  1  0  0  0  0
  8  7  1  0  0  0  0
  8 15  1  0  0  0  0
  9 10  2  0  0  0  0
 10 17  1  0  0  0  0
 11 22  1  0  0  0  0
 12  5  1  0  0  0  0
 13  8  1  0  0  0  0
 14  8  1  0  0  0  0
 16  9  1  0  0  0  0
 18 19  1  0  0  0  0
 19 24  1  0  0  0  0
 19 25  1  0  0  0  0
 19 23  1  0  0  0  0
 20 18  2  0  0  0  0
 21 18  2  0  0  0  0
 22 18  1  0  0  0  0
M  RAD  3   2   2   3   3   4   2
M  END
