Coordinates from ORCA-job 4-MeOPhN2+~TfO-_B3LYPG-6-31G_dp-CH-Scan-d09-49-n800
 OpenBabel11261919093D

 25 24  0  0  0  0  0  0  0  0999 V2000
   -1.5370   -0.3297    0.5697 C   0  0  0  0  0  0  0  0  0  0  0  0
   -2.8278   -0.5855    0.9712 N   0  0  0  0  0  0  0  0  0  0  0  0
   -3.8893   -0.7388    1.3005 N   0  0  0  0  0  0  0  0  0  0  0  0
   -1.2964    1.0210    0.2180 C   0  0  0  0  0  0  0  0  0  0  0  0
    0.0462    1.1868   -0.1663 C   0  0  0  0  0  0  0  0  0  0  0  0
    0.9938    0.1510   -0.1927 C   0  0  0  0  0  0  0  0  0  0  0  0
    2.2421    0.4909   -0.5900 O   0  0  0  0  0  0  0  0  0  0  0  0
    3.2634   -0.4992   -0.6439 C   0  0  0  0  0  0  0  0  0  0  0  0
    0.6453   -1.1791    0.1813 C   0  0  0  0  0  0  0  0  0  0  0  0
   -0.6464   -1.4369    0.5736 C   0  0  0  0  0  0  0  0  0  0  0  0
   -3.8791    3.3200   -0.0519 H   0  0  0  0  0  0  0  0  0  0  0  0
    0.4152    2.1660   -0.4724 H   0  0  0  0  0  0  0  0  0  0  0  0
    4.1601    0.0176   -0.9874 H   0  0  0  0  0  0  0  0  0  0  0  0
    3.0141   -1.2977   -1.3526 H   0  0  0  0  0  0  0  0  0  0  0  0
    3.4558   -0.9345    0.3441 H   0  0  0  0  0  0  0  0  0  0  0  0
    1.3736   -1.9799    0.1615 H   0  0  0  0  0  0  0  0  0  0  0  0
   -0.9599   -2.4347    0.8704 H   0  0  0  0  0  0  0  0  0  0  0  0
   -5.8846    2.6723    0.3629 S   0  0  0  0  0  0  0  0  0  0  0  0
   -5.7601    2.4423    2.2091 C   0  0  0  0  0  0  0  0  0  0  0  0
   -7.1468    3.3287    0.0930 O   0  0  0  0  0  0  0  0  0  0  0  0
   -5.4902    1.4094   -0.2449 O   0  0  0  0  0  0  0  0  0  0  0  0
   -4.7175    3.7741    0.1520 O   0  0  0  0  0  0  0  0  0  0  0  0
   -5.9962    3.5924    2.8320 F   0  0  0  0  0  0  0  0  0  0  0  0
   -6.6599    1.5340    2.5820 F   0  0  0  0  0  0  0  0  0  0  0  0
   -4.5341    2.0084    2.5178 F   0  0  0  0  0  0  0  0  0  0  0  0
  1 10  1  0  0  0  0
  1  2  1  0  0  0  0
  2  3  1  0  0  0  0
  4  1  2  0  0  0  0
  5  4  1  0  0  0  0
  6  5  2  0  0  0  0
  6  9  1  0  0  0  0
  7  6  1  0  0  0  0
  8  7  1  0  0  0  0
  8 15  1  0  0  0  0
  9 10  2  0  0  0  0
 10 17  1  0  0  0  0
 11 22  1  0  0  0  0
 12  5  1  0  0  0  0
 13  8  1  0  0  0  0
 14  8  1  0  0  0  0
 16  9  1  0  0  0  0
 18 19  1  0  0  0  0
 19 25  1  0  0  0  0
 19 24  1  0  0  0  0
 19 23  1  0  0  0  0
 20 18  2  0  0  0  0
 21 18  2  0  0  0  0
 22 18  1  0  0  0  0
M  RAD  3   2   2   3   3   4   2
M  END
