Coordinates from ORCA-job 4-MeOPhN2+~TfO-_B3LYPG-6-31G_dp-CH-Scan-d09-49-n800
 OpenBabel11261919093D

 25 24  0  0  0  0  0  0  0  0999 V2000
   -1.4512   -0.3023    0.5857 C   0  0  0  0  0  0  0  0  0  0  0  0
   -2.7508   -0.5173    0.9874 N   0  0  0  0  0  0  0  0  0  0  0  0
   -3.8171   -0.6272    1.3199 N   0  0  0  0  0  0  0  0  0  0  0  0
   -1.1702    1.0498    0.2749 C   0  0  0  0  0  0  0  0  0  0  0  0
    0.1771    1.1806   -0.1105 C   0  0  0  0  0  0  0  0  0  0  0  0
    1.0883    0.1147   -0.1733 C   0  0  0  0  0  0  0  0  0  0  0  0
    2.3471    0.4237   -0.5657 O   0  0  0  0  0  0  0  0  0  0  0  0
    3.3328   -0.5988   -0.6546 C   0  0  0  0  0  0  0  0  0  0  0  0
    0.6961   -1.2146    0.1606 C   0  0  0  0  0  0  0  0  0  0  0  0
   -0.6020   -1.4408    0.5515 C   0  0  0  0  0  0  0  0  0  0  0  0
   -4.1843    3.5683   -0.1775 H   0  0  0  0  0  0  0  0  0  0  0  0
    0.5792    2.1557   -0.3882 H   0  0  0  0  0  0  0  0  0  0  0  0
    4.2466   -0.1029   -0.9835 H   0  0  0  0  0  0  0  0  0  0  0  0
    3.0549   -1.3649   -1.3882 H   0  0  0  0  0  0  0  0  0  0  0  0
    3.5116   -1.0731    0.3180 H   0  0  0  0  0  0  0  0  0  0  0  0
    1.3970   -2.0383    0.1121 H   0  0  0  0  0  0  0  0  0  0  0  0
   -0.9487   -2.4361    0.8189 H   0  0  0  0  0  0  0  0  0  0  0  0
   -6.0650    2.6950    0.3794 S   0  0  0  0  0  0  0  0  0  0  0  0
   -5.8081    2.4478    2.2098 C   0  0  0  0  0  0  0  0  0  0  0  0
   -7.4050    3.2125    0.1973 O   0  0  0  0  0  0  0  0  0  0  0  0
   -5.5652    1.5006   -0.2862 O   0  0  0  0  0  0  0  0  0  0  0  0
   -5.0359    3.9250    0.1318 O   0  0  0  0  0  0  0  0  0  0  0  0
   -6.1030    3.5650    2.8667 F   0  0  0  0  0  0  0  0  0  0  0  0
   -6.6053    1.4609    2.6149 F   0  0  0  0  0  0  0  0  0  0  0  0
   -4.5346    2.1155    2.4359 F   0  0  0  0  0  0  0  0  0  0  0  0
  1  2  1  0  0  0  0
  2  3  1  0  0  0  0
  4  1  2  0  0  0  0
  5  4  1  0  0  0  0
  6  5  2  0  0  0  0
  6  9  1  0  0  0  0
  7  6  1  0  0  0  0
  8  7  1  0  0  0  0
  8 15  1  0  0  0  0
  9 10  2  0  0  0  0
 10  1  1  0  0  0  0
 10 17  1  0  0  0  0
 11 22  1  0  0  0  0
 12  5  1  0  0  0  0
 13  8  1  0  0  0  0
 14  8  1  0  0  0  0
 16  9  1  0  0  0  0
 18 19  1  0  0  0  0
 19 25  1  0  0  0  0
 19 24  1  0  0  0  0
 19 23  1  0  0  0  0
 20 18  2  0  0  0  0
 21 18  2  0  0  0  0
 22 18  1  0  0  0  0
M  RAD  3   2   2   3   3   4   2
M  END
