Coordinates from ORCA-job 4-MeOPhN2+~TfO-_B3LYPG-6-31G_dp-CH-Scan-d09-49-n800
 OpenBabel11261919093D

 25 24  0  0  0  0  0  0  0  0999 V2000
   -1.8192   -0.4244    0.5433 C   0  0  0  0  0  0  0  0  0  0  0  0
   -3.0785   -0.8162    0.9204 N   0  0  0  0  0  0  0  0  0  0  0  0
   -4.1170   -1.0998    1.2294 N   0  0  0  0  0  0  0  0  0  0  0  0
   -1.6649    0.9468    0.2135 C   0  0  0  0  0  0  0  0  0  0  0  0
   -0.3452    1.2409   -0.1461 C   0  0  0  0  0  0  0  0  0  0  0  0
    0.6896    0.2889   -0.1729 C   0  0  0  0  0  0  0  0  0  0  0  0
    1.9045    0.7441   -0.5402 O   0  0  0  0  0  0  0  0  0  0  0  0
    3.0138   -0.1499   -0.5898 C   0  0  0  0  0  0  0  0  0  0  0  0
    0.4452   -1.0685    0.1724 C   0  0  0  0  0  0  0  0  0  0  0  0
   -0.8274   -1.4395    0.5386 C   0  0  0  0  0  0  0  0  0  0  0  0
   -3.1404    2.3498    0.1757 H   0  0  0  0  0  0  0  0  0  0  0  0
   -0.0654    2.2542   -0.4284 H   0  0  0  0  0  0  0  0  0  0  0  0
    3.8653    0.4537   -0.9045 H   0  0  0  0  0  0  0  0  0  0  0  0
    2.8494   -0.9523   -1.3180 H   0  0  0  0  0  0  0  0  0  0  0  0
    3.2230   -0.5836    0.3950 H   0  0  0  0  0  0  0  0  0  0  0  0
    1.2363   -1.8069    0.1520 H   0  0  0  0  0  0  0  0  0  0  0  0
   -1.0583   -2.4653    0.8121 H   0  0  0  0  0  0  0  0  0  0  0  0
   -5.3056    2.5197    0.3091 S   0  0  0  0  0  0  0  0  0  0  0  0
   -5.4653    2.5089    2.1630 C   0  0  0  0  0  0  0  0  0  0  0  0
   -6.2471    3.5050   -0.1892 O   0  0  0  0  0  0  0  0  0  0  0  0
   -5.3647    1.1168   -0.0965 O   0  0  0  0  0  0  0  0  0  0  0  0
   -3.8368    3.0945    0.1601 O   0  0  0  0  0  0  0  0  0  0  0  0
   -5.2915    3.7322    2.6582 F   0  0  0  0  0  0  0  0  0  0  0  0
   -6.6771    2.0621    2.4970 F   0  0  0  0  0  0  0  0  0  0  0  0
   -4.5386    1.6879    2.6828 F   0  0  0  0  0  0  0  0  0  0  0  0
  1  2  1  0  0  0  0
  2  3  1  0  0  0  0
  4  1  2  0  0  0  0
  5  4  1  0  0  0  0
  6  5  2  0  0  0  0
  6  9  1  0  0  0  0
  7  6  1  0  0  0  0
  8  7  1  0  0  0  0
  8 15  1  0  0  0  0
  9 10  2  0  0  0  0
 10  1  1  0  0  0  0
 10 17  1  0  0  0  0
 12  5  1  0  0  0  0
 13  8  1  0  0  0  0
 14  8  1  0  0  0  0
 16  9  1  0  0  0  0
 18 19  1  0  0  0  0
 19 24  1  0  0  0  0
 19 23  1  0  0  0  0
 19 25  1  0  0  0  0
 20 18  2  0  0  0  0
 21 18  2  0  0  0  0
 22 11  1  0  0  0  0
 22 18  1  0  0  0  0
M  RAD  3   2   2   3   3   4   2
M  END
