Coordinates from ORCA-job 4-MeOPhN2+~TfO-_B3LYPG-6-31G_dp-CH-Scan-d09-49-n800
 OpenBabel11261919093D

 25 24  0  0  0  0  0  0  0  0999 V2000
   -1.7044   -0.4085    0.4890 C   0  0  0  0  0  0  0  0  0  0  0  0
   -2.9844   -0.7502    0.8517 N   0  0  0  0  0  0  0  0  0  0  0  0
   -4.0394   -0.9872    1.1475 N   0  0  0  0  0  0  0  0  0  0  0  0
   -1.5210    0.9514    0.1337 C   0  0  0  0  0  0  0  0  0  0  0  0
   -0.1829    1.1990   -0.2071 C   0  0  0  0  0  0  0  0  0  0  0  0
    0.8262    0.2213   -0.1921 C   0  0  0  0  0  0  0  0  0  0  0  0
    2.0628    0.6350   -0.5462 O   0  0  0  0  0  0  0  0  0  0  0  0
    3.1462   -0.2896   -0.5527 C   0  0  0  0  0  0  0  0  0  0  0  0
    0.5427   -1.1236    0.1786 C   0  0  0  0  0  0  0  0  0  0  0  0
   -0.7448   -1.4551    0.5279 C   0  0  0  0  0  0  0  0  0  0  0  0
   -3.5035    2.7832    0.0053 H   0  0  0  0  0  0  0  0  0  0  0  0
    0.1339    2.1972   -0.5075 H   0  0  0  0  0  0  0  0  0  0  0  0
    4.0210    0.2816   -0.8645 H   0  0  0  0  0  0  0  0  0  0  0  0
    2.9748   -1.1053   -1.2646 H   0  0  0  0  0  0  0  0  0  0  0  0
    3.3253   -0.7061    0.4457 H   0  0  0  0  0  0  0  0  0  0  0  0
    1.3163   -1.8806    0.1900 H   0  0  0  0  0  0  0  0  0  0  0  0
   -1.0077   -2.4686    0.8200 H   0  0  0  0  0  0  0  0  0  0  0  0
   -5.6181    2.6005    0.3656 S   0  0  0  0  0  0  0  0  0  0  0  0
   -5.5537    2.4991    2.2247 C   0  0  0  0  0  0  0  0  0  0  0  0
   -6.7214    3.4740    0.0206 O   0  0  0  0  0  0  0  0  0  0  0  0
   -5.5095    1.2304   -0.1198 O   0  0  0  0  0  0  0  0  0  0  0  0
   -4.2586    3.4090    0.0873 O   0  0  0  0  0  0  0  0  0  0  0  0
   -5.4987    3.7173    2.7548 F   0  0  0  0  0  0  0  0  0  0  0  0
   -6.6471    1.8711    2.6572 F   0  0  0  0  0  0  0  0  0  0  0  0
   -4.4700    1.8036    2.5920 F   0  0  0  0  0  0  0  0  0  0  0  0
  1 10  1  0  0  0  0
  1  2  1  0  0  0  0
  2  3  1  0  0  0  0
  4  1  2  0  0  0  0
  5  6  2  0  0  0  0
  5  4  1  0  0  0  0
  6  9  1  0  0  0  0
  7  6  1  0  0  0  0
  8  7  1  0  0  0  0
  8 15  1  0  0  0  0
  9 16  1  0  0  0  0
  9 10  2  0  0  0  0
 10 17  1  0  0  0  0
 11 22  1  0  0  0  0
 12  5  1  0  0  0  0
 13  8  1  0  0  0  0
 14  8  1  0  0  0  0
 18 19  1  0  0  0  0
 19 25  1  0  0  0  0
 19 24  1  0  0  0  0
 19 23  1  0  0  0  0
 20 18  2  0  0  0  0
 21 18  2  0  0  0  0
 22 18  1  0  0  0  0
M  RAD  3   2   2   3   3   4   2
M  END
