Coordinates from ORCA-job 4-MeOPhN2+~TfO-_B3LYPG-6-31G_dp-CH-Scan-d09-49-n800
 OpenBabel11261919093D

 25 24  0  0  0  0  0  0  0  0999 V2000
   -1.4916   -0.3459    0.6803 C   0  0  0  0  0  0  0  0  0  0  0  0
   -2.8082   -0.5713    1.0212 N   0  0  0  0  0  0  0  0  0  0  0  0
   -3.8870   -0.6773    1.3129 N   0  0  0  0  0  0  0  0  0  0  0  0
   -1.1520    1.0266    0.6605 C   0  0  0  0  0  0  0  0  0  0  0  0
    0.2043    1.1760    0.3128 C   0  0  0  0  0  0  0  0  0  0  0  0
    1.0687    0.1071    0.0305 C   0  0  0  0  0  0  0  0  0  0  0  0
    2.3438    0.4347   -0.2910 O   0  0  0  0  0  0  0  0  0  0  0  0
    3.2850   -0.5909   -0.5850 C   0  0  0  0  0  0  0  0  0  0  0  0
    0.6173   -1.2445    0.0816 C   0  0  0  0  0  0  0  0  0  0  0  0
   -0.6937   -1.4902    0.4141 C   0  0  0  0  0  0  0  0  0  0  0  0
   -4.8936    3.8288   -0.7749 H   0  0  0  0  0  0  0  0  0  0  0  0
    0.6514    2.1690    0.2467 H   0  0  0  0  0  0  0  0  0  0  0  0
    4.2218   -0.0797   -0.8091 H   0  0  0  0  0  0  0  0  0  0  0  0
    2.9803   -1.1819   -1.4573 H   0  0  0  0  0  0  0  0  0  0  0  0
    3.4359   -1.2590    0.2720 H   0  0  0  0  0  0  0  0  0  0  0  0
    1.2842   -2.0692   -0.1359 H   0  0  0  0  0  0  0  0  0  0  0  0
   -1.0861   -2.5032    0.4670 H   0  0  0  0  0  0  0  0  0  0  0  0
   -6.1995    2.5995    0.4014 S   0  0  0  0  0  0  0  0  0  0  0  0
   -5.2994    2.5326    2.0348 C   0  0  0  0  0  0  0  0  0  0  0  0
   -7.6063    2.7889    0.6875 O   0  0  0  0  0  0  0  0  0  0  0  0
   -5.6834    1.5169   -0.4252 O   0  0  0  0  0  0  0  0  0  0  0  0
   -5.6245    4.0148   -0.1599 O   0  0  0  0  0  0  0  0  0  0  0  0
   -5.6074    3.6017    2.7630 F   0  0  0  0  0  0  0  0  0  0  0  0
   -5.6873    1.4263    2.6717 F   0  0  0  0  0  0  0  0  0  0  0  0
   -3.9885    2.4892    1.8175 F   0  0  0  0  0  0  0  0  0  0  0  0
  1  2  1  0  0  0  0
  2  3  1  0  0  0  0
  4  1  1  0  0  0  0
  5  4  2  0  0  0  0
  6  9  2  0  0  0  0
  6  5  1  0  0  0  0
  7  6  1  0  0  0  0
  8  7  1  0  0  0  0
  8 15  1  0  0  0  0
  9 10  1  0  0  0  0
 10 17  1  0  0  0  0
 10  1  2  0  0  0  0
 11 22  1  0  0  0  0
 12  5  1  0  0  0  0
 13  8  1  0  0  0  0
 14  8  1  0  0  0  0
 16  9  1  0  0  0  0
 18 20  2  0  0  0  0
 18 19  1  0  0  0  0
 19 24  1  0  0  0  0
 19 23  1  0  0  0  0
 21 18  2  0  0  0  0
 22 18  1  0  0  0  0
 25 19  1  0  0  0  0
M  RAD  3   2   2   3   3   4   2
M  END
