Coordinates from ORCA-job 4-MeOPhN2+~TfO-_B3LYPG-6-31G_dp-CH-Scan-d09-49-n800
 OpenBabel11261919093D

 25 24  0  0  0  0  0  0  0  0999 V2000
   -1.8153   -0.4044    0.6079 C   0  0  0  0  0  0  0  0  0  0  0  0
   -3.0666   -0.7931    1.0126 N   0  0  0  0  0  0  0  0  0  0  0  0
   -4.0986   -1.0738    1.3440 N   0  0  0  0  0  0  0  0  0  0  0  0
   -1.6554    0.9696    0.2928 C   0  0  0  0  0  0  0  0  0  0  0  0
   -0.3455    1.2606   -0.0988 C   0  0  0  0  0  0  0  0  0  0  0  0
    0.6804    0.3007   -0.1689 C   0  0  0  0  0  0  0  0  0  0  0  0
    1.8869    0.7517   -0.5652 O   0  0  0  0  0  0  0  0  0  0  0  0
    2.9866   -0.1507   -0.6635 C   0  0  0  0  0  0  0  0  0  0  0  0
    0.4340   -1.0589    0.1646 C   0  0  0  0  0  0  0  0  0  0  0  0
   -0.8310   -1.4250    0.5612 C   0  0  0  0  0  0  0  0  0  0  0  0
   -3.0275    2.2857    0.3022 H   0  0  0  0  0  0  0  0  0  0  0  0
   -0.0679    2.2761   -0.3743 H   0  0  0  0  0  0  0  0  0  0  0  0
    3.8319    0.4503   -0.9989 H   0  0  0  0  0  0  0  0  0  0  0  0
    2.7905   -0.9419   -1.3959 H   0  0  0  0  0  0  0  0  0  0  0  0
    3.2247   -0.5985    0.3084 H   0  0  0  0  0  0  0  0  0  0  0  0
    1.2178   -1.8035    0.1113 H   0  0  0  0  0  0  0  0  0  0  0  0
   -1.0623   -2.4527    0.8268 H   0  0  0  0  0  0  0  0  0  0  0  0
   -5.2064    2.5108    0.2891 S   0  0  0  0  0  0  0  0  0  0  0  0
   -5.5455    2.4938    2.1178 C   0  0  0  0  0  0  0  0  0  0  0  0
   -6.0891    3.5078   -0.2899 O   0  0  0  0  0  0  0  0  0  0  0  0
   -5.2537    1.1088   -0.1263 O   0  0  0  0  0  0  0  0  0  0  0  0
   -3.7259    3.0541    0.2884 O   0  0  0  0  0  0  0  0  0  0  0  0
   -5.4030    3.7117    2.6374 F   0  0  0  0  0  0  0  0  0  0  0  0
   -6.7901    2.0630    2.3330 F   0  0  0  0  0  0  0  0  0  0  0  0
   -4.6849    1.6565    2.7214 F   0  0  0  0  0  0  0  0  0  0  0  0
  1  2  1  0  0  0  0
  2  3  1  0  0  0  0
  4  1  2  0  0  0  0
  5  4  1  0  0  0  0
  6  5  2  0  0  0  0
  6  9  1  0  0  0  0
  7  6  1  0  0  0  0
  8  7  1  0  0  0  0
  8 15  1  0  0  0  0
  9 10  2  0  0  0  0
 10  1  1  0  0  0  0
 10 17  1  0  0  0  0
 12  5  1  0  0  0  0
 13  8  1  0  0  0  0
 14  8  1  0  0  0  0
 16  9  1  0  0  0  0
 18 19  1  0  0  0  0
 19 24  1  0  0  0  0
 19 23  1  0  0  0  0
 19 25  1  0  0  0  0
 20 18  2  0  0  0  0
 21 18  2  0  0  0  0
 22 18  1  0  0  0  0
 22 11  1  0  0  0  0
M  RAD  3   2   2   3   3   4   2
M  END
