Coordinates from ORCA-job 4-MeOPhN2+~TfO-_B3LYPG-6-31G_dp-CH-Scan-d09-49-n800
 OpenBabel11261919093D

 25 24  0  0  0  0  0  0  0  0999 V2000
   -1.7909   -0.4210    0.5313 C   0  0  0  0  0  0  0  0  0  0  0  0
   -3.0554   -0.8007    0.9049 N   0  0  0  0  0  0  0  0  0  0  0  0
   -4.0980   -1.0733    1.2110 N   0  0  0  0  0  0  0  0  0  0  0  0
   -1.6309    0.9476    0.1941 C   0  0  0  0  0  0  0  0  0  0  0  0
   -0.3066    1.2305   -0.1619 C   0  0  0  0  0  0  0  0  0  0  0  0
    0.7225    0.2726   -0.1780 C   0  0  0  0  0  0  0  0  0  0  0  0
    1.9426    0.7178   -0.5433 O   0  0  0  0  0  0  0  0  0  0  0  0
    3.0460   -0.1833   -0.5821 C   0  0  0  0  0  0  0  0  0  0  0  0
    0.4696   -1.0818    0.1752 C   0  0  0  0  0  0  0  0  0  0  0  0
   -0.8063   -1.4436    0.5381 C   0  0  0  0  0  0  0  0  0  0  0  0
   -3.2259    2.4568    0.1392 H   0  0  0  0  0  0  0  0  0  0  0  0
   -0.0179    2.2400   -0.4498 H   0  0  0  0  0  0  0  0  0  0  0  0
    3.9028    0.4123   -0.8976 H   0  0  0  0  0  0  0  0  0  0  0  0
    2.8798   -0.9901   -1.3052 H   0  0  0  0  0  0  0  0  0  0  0  0
    3.2489   -0.6117    0.4064 H   0  0  0  0  0  0  0  0  0  0  0  0
    1.2571   -1.8243    0.1632 H   0  0  0  0  0  0  0  0  0  0  0  0
   -1.0444   -2.4663    0.8173 H   0  0  0  0  0  0  0  0  0  0  0  0
   -5.3819    2.5396    0.3207 S   0  0  0  0  0  0  0  0  0  0  0  0
   -5.4892    2.5052    2.1789 C   0  0  0  0  0  0  0  0  0  0  0  0
   -6.3619    3.5031   -0.1427 O   0  0  0  0  0  0  0  0  0  0  0  0
   -5.3999    1.1423   -0.1023 O   0  0  0  0  0  0  0  0  0  0  0  0
   -3.9329    3.1716    0.1385 O   0  0  0  0  0  0  0  0  0  0  0  0
   -5.3414    3.7289    2.6804 F   0  0  0  0  0  0  0  0  0  0  0  0
   -6.6776    2.0172    2.5374 F   0  0  0  0  0  0  0  0  0  0  0  0
   -4.5240    1.7094    2.6633 F   0  0  0  0  0  0  0  0  0  0  0  0
  1 10  1  0  0  0  0
  1  2  1  0  0  0  0
  2  3  1  0  0  0  0
  4  1  2  0  0  0  0
  5  4  1  0  0  0  0
  6  5  2  0  0  0  0
  6  9  1  0  0  0  0
  7  6  1  0  0  0  0
  8  7  1  0  0  0  0
  8 15  1  0  0  0  0
  9 10  2  0  0  0  0
 10 17  1  0  0  0  0
 12  5  1  0  0  0  0
 13  8  1  0  0  0  0
 14  8  1  0  0  0  0
 16  9  1  0  0  0  0
 18 19  1  0  0  0  0
 19 24  1  0  0  0  0
 19 25  1  0  0  0  0
 19 23  1  0  0  0  0
 20 18  2  0  0  0  0
 21 18  2  0  0  0  0
 22 11  1  0  0  0  0
 22 18  1  0  0  0  0
M  RAD  3   2   2   3   3   4   2
M  END
