Coordinates from ORCA-job 4-MeOPhN2+~TfO-_B3LYPG-6-31G_dp-CH-Scan-d09-49-n800
 OpenBabel11261919093D

 25 24  0  0  0  0  0  0  0  0999 V2000
   -1.8238   -0.4242    0.5468 C   0  0  0  0  0  0  0  0  0  0  0  0
   -3.0821   -0.8178    0.9253 N   0  0  0  0  0  0  0  0  0  0  0  0
   -4.1197   -1.1030    1.2354 N   0  0  0  0  0  0  0  0  0  0  0  0
   -1.6701    0.9474    0.2185 C   0  0  0  0  0  0  0  0  0  0  0  0
   -0.3514    1.2432   -0.1426 C   0  0  0  0  0  0  0  0  0  0  0  0
    0.6840    0.2919   -0.1721 C   0  0  0  0  0  0  0  0  0  0  0  0
    1.8979    0.7484   -0.5405 O   0  0  0  0  0  0  0  0  0  0  0  0
    3.0079   -0.1446   -0.5928 C   0  0  0  0  0  0  0  0  0  0  0  0
    0.4408   -1.0661    0.1716 C   0  0  0  0  0  0  0  0  0  0  0  0
   -0.8310   -1.4383    0.5391 C   0  0  0  0  0  0  0  0  0  0  0  0
   -3.1231    2.3307    0.1853 H   0  0  0  0  0  0  0  0  0  0  0  0
   -0.0732    2.2571   -0.4238 H   0  0  0  0  0  0  0  0  0  0  0  0
    3.8585    0.4601   -0.9078 H   0  0  0  0  0  0  0  0  0  0  0  0
    2.8431   -0.9462   -1.3219 H   0  0  0  0  0  0  0  0  0  0  0  0
    3.2187   -0.5795    0.3912 H   0  0  0  0  0  0  0  0  0  0  0  0
    1.2323   -1.8040    0.1490 H   0  0  0  0  0  0  0  0  0  0  0  0
   -1.0610   -2.4646    0.8115 H   0  0  0  0  0  0  0  0  0  0  0  0
   -5.2904    2.5161    0.3067 S   0  0  0  0  0  0  0  0  0  0  0  0
   -5.4634    2.5091    2.1593 C   0  0  0  0  0  0  0  0  0  0  0  0
   -6.2246    3.5047   -0.1995 O   0  0  0  0  0  0  0  0  0  0  0  0
   -5.3558    1.1124   -0.0963 O   0  0  0  0  0  0  0  0  0  0  0  0
   -3.8185    3.0810    0.1671 O   0  0  0  0  0  0  0  0  0  0  0  0
   -5.2873    3.7323    2.6542 F   0  0  0  0  0  0  0  0  0  0  0  0
   -6.6795    2.0684    2.4862 F   0  0  0  0  0  0  0  0  0  0  0  0
   -4.5441    1.6845    2.6871 F   0  0  0  0  0  0  0  0  0  0  0  0
  1  2  1  0  0  0  0
  2  3  1  0  0  0  0
  4  1  2  0  0  0  0
  5  4  1  0  0  0  0
  6  5  2  0  0  0  0
  6  9  1  0  0  0  0
  7  6  1  0  0  0  0
  8  7  1  0  0  0  0
  8 15  1  0  0  0  0
  9 10  2  0  0  0  0
 10  1  1  0  0  0  0
 10 17  1  0  0  0  0
 12  5  1  0  0  0  0
 13  8  1  0  0  0  0
 14  8  1  0  0  0  0
 16  9  1  0  0  0  0
 18 19  1  0  0  0  0
 19 24  1  0  0  0  0
 19 23  1  0  0  0  0
 19 25  1  0  0  0  0
 20 18  2  0  0  0  0
 21 18  2  0  0  0  0
 22 11  1  0  0  0  0
 22 18  1  0  0  0  0
M  RAD  3   2   2   3   3   4   2
M  END
