Coordinates from ORCA-job 4-MeOPhN2+~TfO-_B3LYPG-6-31G_dp-CH-Scan-d09-49-n800
 OpenBabel11261919093D

 25 24  0  0  0  0  0  0  0  0999 V2000
   -1.4967   -0.3451    0.6844 C   0  0  0  0  0  0  0  0  0  0  0  0
   -2.8127   -0.5721    1.0265 N   0  0  0  0  0  0  0  0  0  0  0  0
   -3.8913   -0.6791    1.3186 N   0  0  0  0  0  0  0  0  0  0  0  0
   -1.1590    1.0280    0.6632 C   0  0  0  0  0  0  0  0  0  0  0  0
    0.1966    1.1787    0.3133 C   0  0  0  0  0  0  0  0  0  0  0  0
    1.0619    0.1107    0.0301 C   0  0  0  0  0  0  0  0  0  0  0  0
    2.3360    0.4398   -0.2937 O   0  0  0  0  0  0  0  0  0  0  0  0
    3.2780   -0.5847   -0.5892 C   0  0  0  0  0  0  0  0  0  0  0  0
    0.6123   -1.2414    0.0825 C   0  0  0  0  0  0  0  0  0  0  0  0
   -0.6979   -1.4885    0.4173 C   0  0  0  0  0  0  0  0  0  0  0  0
   -4.8534    3.8096   -0.7647 H   0  0  0  0  0  0  0  0  0  0  0  0
    0.6424    2.1723    0.2459 H   0  0  0  0  0  0  0  0  0  0  0  0
    4.2137   -0.0724   -0.8151 H   0  0  0  0  0  0  0  0  0  0  0  0
    2.9724   -1.1762   -1.4608 H   0  0  0  0  0  0  0  0  0  0  0  0
    3.4311   -1.2524    0.2676 H   0  0  0  0  0  0  0  0  0  0  0  0
    1.2798   -2.0653   -0.1358 H   0  0  0  0  0  0  0  0  0  0  0  0
   -1.0890   -2.5019    0.4714 H   0  0  0  0  0  0  0  0  0  0  0  0
   -6.1876    2.5967    0.3966 S   0  0  0  0  0  0  0  0  0  0  0  0
   -5.2987    2.5282    2.0360 C   0  0  0  0  0  0  0  0  0  0  0  0
   -7.5945    2.8006    0.6716 O   0  0  0  0  0  0  0  0  0  0  0  0
   -5.6757    1.5058   -0.4215 O   0  0  0  0  0  0  0  0  0  0  0  0
   -5.5958    4.0042   -0.1662 O   0  0  0  0  0  0  0  0  0  0  0  0
   -5.6088    3.5979    2.7625 F   0  0  0  0  0  0  0  0  0  0  0  0
   -5.6921    1.4226    2.6709 F   0  0  0  0  0  0  0  0  0  0  0  0
   -3.9866    2.4828    1.8257 F   0  0  0  0  0  0  0  0  0  0  0  0
  1  2  1  0  0  0  0
  2  3  1  0  0  0  0
  4  1  1  0  0  0  0
  5  4  2  0  0  0  0
  6  9  2  0  0  0  0
  6  5  1  0  0  0  0
  7  6  1  0  0  0  0
  8  7  1  0  0  0  0
  8 15  1  0  0  0  0
  9 10  1  0  0  0  0
 10 17  1  0  0  0  0
 10  1  2  0  0  0  0
 11 22  1  0  0  0  0
 12  5  1  0  0  0  0
 13  8  1  0  0  0  0
 14  8  1  0  0  0  0
 16  9  1  0  0  0  0
 18 20  2  0  0  0  0
 18 19  1  0  0  0  0
 19 24  1  0  0  0  0
 19 23  1  0  0  0  0
 21 18  2  0  0  0  0
 22 18  1  0  0  0  0
 25 19  1  0  0  0  0
M  RAD  3   2   2   3   3   4   2
M  END
