Coordinates from ORCA-job 4-MeOPhN2+~TfO-_B3LYPG-6-31G_dp-CH-Scan-d09-49-n800
 OpenBabel11261919093D

 25 24  0  0  0  0  0  0  0  0999 V2000
   -1.5612   -0.3497    0.6580 C   0  0  0  0  0  0  0  0  0  0  0  0
   -2.8607   -0.6017    1.0397 N   0  0  0  0  0  0  0  0  0  0  0  0
   -3.9279   -0.7357    1.3600 N   0  0  0  0  0  0  0  0  0  0  0  0
   -1.2872    1.0263    0.4724 C   0  0  0  0  0  0  0  0  0  0  0  0
    0.0591    1.1965    0.0976 C   0  0  0  0  0  0  0  0  0  0  0  0
    0.9736    0.1442   -0.0650 C   0  0  0  0  0  0  0  0  0  0  0  0
    2.2303    0.4924   -0.4321 O   0  0  0  0  0  0  0  0  0  0  0  0
    3.2192   -0.5146   -0.6139 C   0  0  0  0  0  0  0  0  0  0  0  0
    0.5873   -1.2115    0.1470 C   0  0  0  0  0  0  0  0  0  0  0  0
   -0.7090   -1.4773    0.5189 C   0  0  0  0  0  0  0  0  0  0  0  0
   -4.3273    3.6956   -0.4922 H   0  0  0  0  0  0  0  0  0  0  0  0
    0.4580    2.1945   -0.0900 H   0  0  0  0  0  0  0  0  0  0  0  0
    4.1310    0.0118   -0.8978 H   0  0  0  0  0  0  0  0  0  0  0  0
    2.9426   -1.2128   -1.4129 H   0  0  0  0  0  0  0  0  0  0  0  0
    3.4007   -1.0744    0.3119 H   0  0  0  0  0  0  0  0  0  0  0  0
    1.2912   -2.0244    0.0205 H   0  0  0  0  0  0  0  0  0  0  0  0
   -1.0517   -2.4943    0.6952 H   0  0  0  0  0  0  0  0  0  0  0  0
   -5.9890    2.6260    0.3465 S   0  0  0  0  0  0  0  0  0  0  0  0
   -5.3932    2.4336    2.1040 C   0  0  0  0  0  0  0  0  0  0  0  0
   -7.3894    2.9904    0.3986 O   0  0  0  0  0  0  0  0  0  0  0  0
   -5.4803    1.4883   -0.4058 O   0  0  0  0  0  0  0  0  0  0  0  0
   -5.1628    3.9619   -0.0693 O   0  0  0  0  0  0  0  0  0  0  0  0
   -5.7421    3.4973    2.8213 F   0  0  0  0  0  0  0  0  0  0  0  0
   -5.9583    1.3393    2.6155 F   0  0  0  0  0  0  0  0  0  0  0  0
   -4.0685    2.2973    2.1089 F   0  0  0  0  0  0  0  0  0  0  0  0
  1  2  1  0  0  0  0
  2  3  1  0  0  0  0
  4  1  2  0  0  0  0
  5  4  1  0  0  0  0
  6  5  2  0  0  0  0
  6  9  1  0  0  0  0
  7  6  1  0  0  0  0
  8  7  1  0  0  0  0
  8 15  1  0  0  0  0
  9 10  2  0  0  0  0
 10  1  1  0  0  0  0
 10 17  1  0  0  0  0
 11 22  1  0  0  0  0
 12  5  1  0  0  0  0
 13  8  1  0  0  0  0
 14  8  1  0  0  0  0
 16  9  1  0  0  0  0
 18 20  2  0  0  0  0
 18 19  1  0  0  0  0
 19 25  1  0  0  0  0
 19 24  1  0  0  0  0
 19 23  1  0  0  0  0
 21 18  2  0  0  0  0
 22 18  1  0  0  0  0
M  RAD  3   2   2   3   3   4   2
M  END
