Coordinates from ORCA-job 4-MeOPhN2+~TfO-_B3LYPG-6-31G_dp-CH-Scan-d09-49-n800
 OpenBabel11261919093D

 25 24  0  0  0  0  0  0  0  0999 V2000
   -1.7886   -0.2923    0.7181 C   0  0  0  0  0  0  0  0  0  0  0  0
   -3.0396   -0.6109    1.1770 N   0  0  0  0  0  0  0  0  0  0  0  0
   -4.0928   -0.7795    1.5110 N   0  0  0  0  0  0  0  0  0  0  0  0
   -1.5317    1.0584    0.3876 C   0  0  0  0  0  0  0  0  0  0  0  0
   -0.2605    1.3392   -0.0737 C   0  0  0  0  0  0  0  0  0  0  0  0
    0.7156    0.3289   -0.2063 C   0  0  0  0  0  0  0  0  0  0  0  0
    1.9071    0.7317   -0.6690 O   0  0  0  0  0  0  0  0  0  0  0  0
    2.9634   -0.2164   -0.8424 C   0  0  0  0  0  0  0  0  0  0  0  0
    0.4190   -1.0123    0.1397 C   0  0  0  0  0  0  0  0  0  0  0  0
   -0.8393   -1.3291    0.6094 C   0  0  0  0  0  0  0  0  0  0  0  0
   -2.4730    1.9588    0.5310 H   0  0  0  0  0  0  0  0  0  0  0  0
    0.0146    2.3519   -0.3496 H   0  0  0  0  0  0  0  0  0  0  0  0
    3.8073    0.3544   -1.2281 H   0  0  0  0  0  0  0  0  0  0  0  0
    2.6844   -0.9904   -1.5653 H   0  0  0  0  0  0  0  0  0  0  0  0
    3.2410   -0.6778    0.1116 H   0  0  0  0  0  0  0  0  0  0  0  0
    1.1621   -1.7930    0.0408 H   0  0  0  0  0  0  0  0  0  0  0  0
   -1.0945   -2.3476    0.8824 H   0  0  0  0  0  0  0  0  0  0  0  0
   -4.9810    2.4879    0.3880 S   0  0  0  0  0  0  0  0  0  0  0  0
   -5.8636    2.4420    2.0217 C   0  0  0  0  0  0  0  0  0  0  0  0
   -5.7416    3.4237   -0.4397 O   0  0  0  0  0  0  0  0  0  0  0  0
   -4.9751    1.0609   -0.0308 O   0  0  0  0  0  0  0  0  0  0  0  0
   -3.6080    2.9611    0.7972 O   0  0  0  0  0  0  0  0  0  0  0  0
   -5.8728    3.6449    2.6051 F   0  0  0  0  0  0  0  0  0  0  0  0
   -7.1273    2.0289    1.8669 F   0  0  0  0  0  0  0  0  0  0  0  0
   -5.2407    1.5755    2.8546 F   0  0  0  0  0  0  0  0  0  0  0  0
  1  2  1  0  0  0  0
  2  3  1  0  0  0  0
  4 11  1  0  0  0  0
  4  1  2  0  0  0  0
  5  4  1  0  0  0  0
  6  5  2  0  0  0  0
  6  9  1  0  0  0  0
  7  6  1  0  0  0  0
  8  7  1  0  0  0  0
  8 15  1  0  0  0  0
  9 10  2  0  0  0  0
 10  1  1  0  0  0  0
 10 17  1  0  0  0  0
 12  5  1  0  0  0  0
 13  8  1  0  0  0  0
 14  8  1  0  0  0  0
 16  9  1  0  0  0  0
 18 22  1  0  0  0  0
 18 19  1  0  0  0  0
 19 23  1  0  0  0  0
 19 25  1  0  0  0  0
 20 18  2  0  0  0  0
 21 18  2  0  0  0  0
 24 19  1  0  0  0  0
M  RAD  3   2   2   3   3  22   2
M  END
