Coordinates from ORCA-job 4-MeOPhN2+~TfO-_B3LYPG-6-31G_dp-CH-Scan-d09-49-n800
 OpenBabel11261919093D

 25 24  0  0  0  0  0  0  0  0999 V2000
   -1.7088   -0.4083    0.4922 C   0  0  0  0  0  0  0  0  0  0  0  0
   -2.9878   -0.7519    0.8559 N   0  0  0  0  0  0  0  0  0  0  0  0
   -4.0420   -0.9911    1.1530 N   0  0  0  0  0  0  0  0  0  0  0  0
   -1.5264    0.9520    0.1374 C   0  0  0  0  0  0  0  0  0  0  0  0
   -0.1891    1.2011   -0.2049 C   0  0  0  0  0  0  0  0  0  0  0  0
    0.8209    0.2242   -0.1918 C   0  0  0  0  0  0  0  0  0  0  0  0
    2.0565    0.6392   -0.5472 O   0  0  0  0  0  0  0  0  0  0  0  0
    3.1408   -0.2845   -0.5557 C   0  0  0  0  0  0  0  0  0  0  0  0
    0.5388   -1.1210    0.1786 C   0  0  0  0  0  0  0  0  0  0  0  0
   -0.7479   -1.4538    0.5293 C   0  0  0  0  0  0  0  0  0  0  0  0
   -3.4857    2.7650    0.0159 H   0  0  0  0  0  0  0  0  0  0  0  0
    0.1263    2.1998   -0.5051 H   0  0  0  0  0  0  0  0  0  0  0  0
    4.0146    0.2876   -0.8686 H   0  0  0  0  0  0  0  0  0  0  0  0
    2.9690   -1.1000   -1.2678 H   0  0  0  0  0  0  0  0  0  0  0  0
    3.3216   -0.7013    0.4422 H   0  0  0  0  0  0  0  0  0  0  0  0
    1.3131   -1.8775    0.1887 H   0  0  0  0  0  0  0  0  0  0  0  0
   -1.0096   -2.4676    0.8211 H   0  0  0  0  0  0  0  0  0  0  0  0
   -5.6042    2.5976    0.3626 S   0  0  0  0  0  0  0  0  0  0  0  0
   -5.5529    2.4986    2.2222 C   0  0  0  0  0  0  0  0  0  0  0  0
   -6.6999    3.4773    0.0090 O   0  0  0  0  0  0  0  0  0  0  0  0
   -5.5023    1.2256   -0.1192 O   0  0  0  0  0  0  0  0  0  0  0  0
   -4.2381    3.3960    0.0921 O   0  0  0  0  0  0  0  0  0  0  0  0
   -5.4950    3.7172    2.7512 F   0  0  0  0  0  0  0  0  0  0  0  0
   -6.6522    1.8767    2.6485 F   0  0  0  0  0  0  0  0  0  0  0  0
   -4.4752    1.7979    2.5977 F   0  0  0  0  0  0  0  0  0  0  0  0
  1 10  1  0  0  0  0
  1  2  1  0  0  0  0
  2  3  1  0  0  0  0
  4  1  2  0  0  0  0
  5  6  2  0  0  0  0
  5  4  1  0  0  0  0
  6  9  1  0  0  0  0
  7  6  1  0  0  0  0
  8  7  1  0  0  0  0
  8 15  1  0  0  0  0
  9 16  1  0  0  0  0
  9 10  2  0  0  0  0
 10 17  1  0  0  0  0
 11 22  1  0  0  0  0
 12  5  1  0  0  0  0
 13  8  1  0  0  0  0
 14  8  1  0  0  0  0
 18 19  1  0  0  0  0
 19 25  1  0  0  0  0
 19 24  1  0  0  0  0
 19 23  1  0  0  0  0
 20 18  2  0  0  0  0
 21 18  2  0  0  0  0
 22 18  1  0  0  0  0
M  RAD  3   2   2   3   3   4   2
M  END
