Coordinates from ORCA-job 4-MeOPhN2+~TfO-_B3LYPG-6-31G_dp-CH-Scan-d09-49-n800
 OpenBabel11261919093D

 25 24  0  0  0  0  0  0  0  0999 V2000
   -1.7158   -0.4100    0.4983 C   0  0  0  0  0  0  0  0  0  0  0  0
   -2.9934   -0.7566    0.8634 N   0  0  0  0  0  0  0  0  0  0  0  0
   -4.0464   -0.9973    1.1632 N   0  0  0  0  0  0  0  0  0  0  0  0
   -1.5361    0.9514    0.1457 C   0  0  0  0  0  0  0  0  0  0  0  0
   -0.2004    1.2039   -0.1995 C   0  0  0  0  0  0  0  0  0  0  0  0
    0.8114    0.2288   -0.1906 C   0  0  0  0  0  0  0  0  0  0  0  0
    2.0452    0.6467   -0.5483 O   0  0  0  0  0  0  0  0  0  0  0  0
    3.1313   -0.2749   -0.5612 C   0  0  0  0  0  0  0  0  0  0  0  0
    0.5327   -1.1175    0.1781 C   0  0  0  0  0  0  0  0  0  0  0  0
   -0.7526   -1.4533    0.5313 C   0  0  0  0  0  0  0  0  0  0  0  0
   -3.4564    2.7334    0.0330 H   0  0  0  0  0  0  0  0  0  0  0  0
    0.1122    2.2037   -0.4985 H   0  0  0  0  0  0  0  0  0  0  0  0
    4.0031    0.2995   -0.8755 H   0  0  0  0  0  0  0  0  0  0  0  0
    2.9591   -1.0895   -1.2742 H   0  0  0  0  0  0  0  0  0  0  0  0
    3.3156   -0.6929    0.4355 H   0  0  0  0  0  0  0  0  0  0  0  0
    1.3083   -1.8726    0.1850 H   0  0  0  0  0  0  0  0  0  0  0  0
   -1.0117   -2.4681    0.8218 H   0  0  0  0  0  0  0  0  0  0  0  0
   -5.5809    2.5932    0.3572 S   0  0  0  0  0  0  0  0  0  0  0  0
   -5.5513    2.4991    2.2173 C   0  0  0  0  0  0  0  0  0  0  0  0
   -6.6636    3.4833   -0.0107 O   0  0  0  0  0  0  0  0  0  0  0  0
   -5.4900    1.2182   -0.1187 O   0  0  0  0  0  0  0  0  0  0  0  0
   -4.2033    3.3740    0.1000 O   0  0  0  0  0  0  0  0  0  0  0  0
   -5.4884    3.7184    2.7444 F   0  0  0  0  0  0  0  0  0  0  0  0
   -6.6606    1.8880    2.6335 F   0  0  0  0  0  0  0  0  0  0  0  0
   -4.4839    1.7899    2.6063 F   0  0  0  0  0  0  0  0  0  0  0  0
  1 10  1  0  0  0  0
  1  2  1  0  0  0  0
  2  3  1  0  0  0  0
  4  1  2  0  0  0  0
  5  6  2  0  0  0  0
  5  4  1  0  0  0  0
  6  9  1  0  0  0  0
  7  6  1  0  0  0  0
  8  7  1  0  0  0  0
  8 15  1  0  0  0  0
  9 16  1  0  0  0  0
  9 10  2  0  0  0  0
 10 17  1  0  0  0  0
 11 22  1  0  0  0  0
 12  5  1  0  0  0  0
 13  8  1  0  0  0  0
 14  8  1  0  0  0  0
 18 19  1  0  0  0  0
 19 25  1  0  0  0  0
 19 24  1  0  0  0  0
 19 23  1  0  0  0  0
 20 18  2  0  0  0  0
 21 18  2  0  0  0  0
 22 18  1  0  0  0  0
M  RAD  3   2   2   3   3   4   2
M  END
