Coordinates from ORCA-job 4-MeOPhN2+~TfO-_B3LYPG-6-31G_dp-CH-Scan-d09-49-n800
 OpenBabel11261919093D

 25 24  0  0  0  0  0  0  0  0999 V2000
   -1.5364   -0.3425    0.6658 C   0  0  0  0  0  0  0  0  0  0  0  0
   -2.8416   -0.5830    1.0368 N   0  0  0  0  0  0  0  0  0  0  0  0
   -3.9129   -0.7028    1.3493 N   0  0  0  0  0  0  0  0  0  0  0  0
   -1.2399    1.0342    0.5304 C   0  0  0  0  0  0  0  0  0  0  0  0
    0.1093    1.1959    0.1621 C   0  0  0  0  0  0  0  0  0  0  0  0
    1.0061    0.1349   -0.0382 C   0  0  0  0  0  0  0  0  0  0  0  0
    2.2688    0.4750   -0.3926 O   0  0  0  0  0  0  0  0  0  0  0  0
    3.2411   -0.5412   -0.6086 C   0  0  0  0  0  0  0  0  0  0  0  0
    0.5972   -1.2211    0.1246 C   0  0  0  0  0  0  0  0  0  0  0  0
   -0.7038   -1.4788    0.4863 C   0  0  0  0  0  0  0  0  0  0  0  0
   -4.4748    3.7233   -0.5742 H   0  0  0  0  0  0  0  0  0  0  0  0
    0.5249    2.1933    0.0113 H   0  0  0  0  0  0  0  0  0  0  0  0
    4.1620   -0.0205   -0.8729 H   0  0  0  0  0  0  0  0  0  0  0  0
    2.9546   -1.2064   -1.4320 H   0  0  0  0  0  0  0  0  0  0  0  0
    3.4115   -1.1364    0.2971 H   0  0  0  0  0  0  0  0  0  0  0  0
    1.2877   -2.0402   -0.0313 H   0  0  0  0  0  0  0  0  0  0  0  0
   -1.0637   -2.4956    0.6251 H   0  0  0  0  0  0  0  0  0  0  0  0
   -6.0584    2.6157    0.3603 S   0  0  0  0  0  0  0  0  0  0  0  0
   -5.3775    2.4598    2.0908 C   0  0  0  0  0  0  0  0  0  0  0  0
   -7.4652    2.9394    0.4726 O   0  0  0  0  0  0  0  0  0  0  0  0
   -5.5497    1.4864   -0.4054 O   0  0  0  0  0  0  0  0  0  0  0  0
   -5.2916    3.9709   -0.1064 O   0  0  0  0  0  0  0  0  0  0  0  0
   -5.7092    3.5299    2.8067 F   0  0  0  0  0  0  0  0  0  0  0  0
   -5.9020    1.3659    2.6447 F   0  0  0  0  0  0  0  0  0  0  0  0
   -4.0524    2.3428    2.0346 F   0  0  0  0  0  0  0  0  0  0  0  0
  1  2  1  0  0  0  0
  2  3  1  0  0  0  0
  4  1  1  0  0  0  0
  5  4  2  0  0  0  0
  6  9  2  0  0  0  0
  6  5  1  0  0  0  0
  7  6  1  0  0  0  0
  8  7  1  0  0  0  0
  8 15  1  0  0  0  0
  9 10  1  0  0  0  0
 10 17  1  0  0  0  0
 10  1  2  0  0  0  0
 11 22  1  0  0  0  0
 12  5  1  0  0  0  0
 13  8  1  0  0  0  0
 14  8  1  0  0  0  0
 16  9  1  0  0  0  0
 18 20  2  0  0  0  0
 18 19  1  0  0  0  0
 19 24  1  0  0  0  0
 19 23  1  0  0  0  0
 21 18  2  0  0  0  0
 22 18  1  0  0  0  0
 25 19  1  0  0  0  0
M  RAD  3   2   2   3   3   4   2
M  END
