Coordinates from ORCA-job 4-MeOPhN2+~TfO-_B3LYPG-6-31G_dp-CH-Scan-d09-49-n800
 OpenBabel11261919093D

 25 24  0  0  0  0  0  0  0  0999 V2000
   -1.8325   -0.4219    0.5589 C   0  0  0  0  0  0  0  0  0  0  0  0
   -3.0881   -0.8186    0.9426 N   0  0  0  0  0  0  0  0  0  0  0  0
   -4.1235   -1.1067    1.2568 N   0  0  0  0  0  0  0  0  0  0  0  0
   -1.6792    0.9509    0.2353 C   0  0  0  0  0  0  0  0  0  0  0  0
   -0.3633    1.2496   -0.1313 C   0  0  0  0  0  0  0  0  0  0  0  0
    0.6725    0.2987   -0.1703 C   0  0  0  0  0  0  0  0  0  0  0  0
    1.8838    0.7575   -0.5428 O   0  0  0  0  0  0  0  0  0  0  0  0
    2.9943   -0.1347   -0.6045 C   0  0  0  0  0  0  0  0  0  0  0  0
    0.4311   -1.0605    0.1687 C   0  0  0  0  0  0  0  0  0  0  0  0
   -0.8388   -1.4346    0.5413 C   0  0  0  0  0  0  0  0  0  0  0  0
   -3.0796    2.2879    0.2155 H   0  0  0  0  0  0  0  0  0  0  0  0
   -0.0880    2.2651   -0.4093 H   0  0  0  0  0  0  0  0  0  0  0  0
    3.8427    0.4720   -0.9214 H   0  0  0  0  0  0  0  0  0  0  0  0
    2.8261   -0.9332   -1.3360 H   0  0  0  0  0  0  0  0  0  0  0  0
    3.2103   -0.5732    0.3767 H   0  0  0  0  0  0  0  0  0  0  0  0
    1.2224   -1.7983    0.1387 H   0  0  0  0  0  0  0  0  0  0  0  0
   -1.0670   -2.4621    0.8103 H   0  0  0  0  0  0  0  0  0  0  0  0
   -5.2532    2.5077    0.3002 S   0  0  0  0  0  0  0  0  0  0  0  0
   -5.4661    2.5086    2.1482 C   0  0  0  0  0  0  0  0  0  0  0  0
   -6.1690    3.5025   -0.2282 O   0  0  0  0  0  0  0  0  0  0  0  0
   -5.3292    1.1024   -0.0979 O   0  0  0  0  0  0  0  0  0  0  0  0
   -3.7747    3.0513    0.1906 O   0  0  0  0  0  0  0  0  0  0  0  0
   -5.2884    3.7314    2.6441 F   0  0  0  0  0  0  0  0  0  0  0  0
   -6.6927    2.0804    2.4523 F   0  0  0  0  0  0  0  0  0  0  0  0
   -4.5658    1.6767    2.6985 F   0  0  0  0  0  0  0  0  0  0  0  0
  1  2  1  0  0  0  0
  2  3  1  0  0  0  0
  4  1  2  0  0  0  0
  5  4  1  0  0  0  0
  6  5  2  0  0  0  0
  6  9  1  0  0  0  0
  7  6  1  0  0  0  0
  8  7  1  0  0  0  0
  8 15  1  0  0  0  0
  9 10  2  0  0  0  0
 10  1  1  0  0  0  0
 10 17  1  0  0  0  0
 12  5  1  0  0  0  0
 13  8  1  0  0  0  0
 14  8  1  0  0  0  0
 16  9  1  0  0  0  0
 18 19  1  0  0  0  0
 19 24  1  0  0  0  0
 19 23  1  0  0  0  0
 19 25  1  0  0  0  0
 20 18  2  0  0  0  0
 21 18  2  0  0  0  0
 22 11  1  0  0  0  0
 22 18  1  0  0  0  0
M  RAD  3   2   2   3   3   4   2
M  END
