Coordinates from ORCA-job 4-MeOPhN2+~TfO-_B3LYPG-6-31G_dp-CH-Scan-d09-49-n800
 OpenBabel11261919093D

 25 24  0  0  0  0  0  0  0  0999 V2000
   -1.6739   -0.4088    0.4736 C   0  0  0  0  0  0  0  0  0  0  0  0
   -2.9602   -0.7374    0.8278 N   0  0  0  0  0  0  0  0  0  0  0  0
   -4.0203   -0.9592    1.1182 N   0  0  0  0  0  0  0  0  0  0  0  0
   -1.4832    0.9494    0.1164 C   0  0  0  0  0  0  0  0  0  0  0  0
   -0.1403    1.1862   -0.2172 C   0  0  0  0  0  0  0  0  0  0  0  0
    0.8623    0.2024   -0.1933 C   0  0  0  0  0  0  0  0  0  0  0  0
    2.1043    0.6068   -0.5415 O   0  0  0  0  0  0  0  0  0  0  0  0
    3.1813   -0.3248   -0.5386 C   0  0  0  0  0  0  0  0  0  0  0  0
    0.5687   -1.1402    0.1799 C   0  0  0  0  0  0  0  0  0  0  0  0
   -0.7227   -1.4629    0.5225 C   0  0  0  0  0  0  0  0  0  0  0  0
   -3.6193    2.8992   -0.0597 H   0  0  0  0  0  0  0  0  0  0  0  0
    0.1859    2.1814   -0.5187 H   0  0  0  0  0  0  0  0  0  0  0  0
    4.0619    0.2393   -0.8469 H   0  0  0  0  0  0  0  0  0  0  0  0
    3.0090   -1.1419   -1.2489 H   0  0  0  0  0  0  0  0  0  0  0  0
    3.3519   -0.7397    0.4620 H   0  0  0  0  0  0  0  0  0  0  0  0
    1.3379   -1.9016    0.1981 H   0  0  0  0  0  0  0  0  0  0  0  0
   -0.9940   -2.4738    0.8159 H   0  0  0  0  0  0  0  0  0  0  0  0
   -5.7061    2.6215    0.3839 S   0  0  0  0  0  0  0  0  0  0  0  0
   -5.5648    2.5019    2.2383 C   0  0  0  0  0  0  0  0  0  0  0  0
   -6.8549    3.4542    0.0921 O   0  0  0  0  0  0  0  0  0  0  0  0
   -5.5547    1.2657   -0.1275 O   0  0  0  0  0  0  0  0  0  0  0  0
   -4.3898    3.4927    0.0645 O   0  0  0  0  0  0  0  0  0  0  0  0
   -5.5395    3.7156    2.7800 F   0  0  0  0  0  0  0  0  0  0  0  0
   -6.6146    1.8246    2.7025 F   0  0  0  0  0  0  0  0  0  0  0  0
   -4.4407    1.8482    2.5536 F   0  0  0  0  0  0  0  0  0  0  0  0
  1 10  1  0  0  0  0
  1  2  1  0  0  0  0
  2  3  1  0  0  0  0
  4  1  2  0  0  0  0
  5  6  2  0  0  0  0
  5  4  1  0  0  0  0
  6  9  1  0  0  0  0
  7  8  1  0  0  0  0
  7  6  1  0  0  0  0
  8 15  1  0  0  0  0
  9 16  1  0  0  0  0
  9 10  2  0  0  0  0
 10 17  1  0  0  0  0
 11 22  1  0  0  0  0
 12  5  1  0  0  0  0
 13  8  1  0  0  0  0
 14  8  1  0  0  0  0
 18 19  1  0  0  0  0
 19 25  1  0  0  0  0
 19 24  1  0  0  0  0
 19 23  1  0  0  0  0
 20 18  2  0  0  0  0
 21 18  2  0  0  0  0
 22 18  1  0  0  0  0
M  RAD  3   2   2   3   3   4   2
M  END
