Coordinates from ORCA-job 4-MeOPhN2+~TfO-_B3LYPG-6-31G_dp-CH-Scan-d09-49-n800
 OpenBabel11261919093D

 25 24  0  0  0  0  0  0  0  0999 V2000
   -1.6953   -0.4095    0.4823 C   0  0  0  0  0  0  0  0  0  0  0  0
   -2.9776   -0.7472    0.8410 N   0  0  0  0  0  0  0  0  0  0  0  0
   -4.0340   -0.9790    1.1364 N   0  0  0  0  0  0  0  0  0  0  0  0
   -1.5094    0.9502    0.1279 C   0  0  0  0  0  0  0  0  0  0  0  0
   -0.1695    1.1948   -0.2097 C   0  0  0  0  0  0  0  0  0  0  0  0
    0.8376    0.2153   -0.1918 C   0  0  0  0  0  0  0  0  0  0  0  0
    2.0762    0.6265   -0.5427 O   0  0  0  0  0  0  0  0  0  0  0  0
    3.1578   -0.3002   -0.5457 C   0  0  0  0  0  0  0  0  0  0  0  0
    0.5508   -1.1292    0.1785 C   0  0  0  0  0  0  0  0  0  0  0  0
   -0.7382   -1.4583    0.5246 C   0  0  0  0  0  0  0  0  0  0  0  0
   -3.5438    2.8203   -0.0221 H   0  0  0  0  0  0  0  0  0  0  0  0
    0.1504    2.1923   -0.5095 H   0  0  0  0  0  0  0  0  0  0  0  0
    4.0346    0.2692   -0.8550 H   0  0  0  0  0  0  0  0  0  0  0  0
    2.9870   -1.1158   -1.2579 H   0  0  0  0  0  0  0  0  0  0  0  0
    3.3331   -0.7169    0.4532 H   0  0  0  0  0  0  0  0  0  0  0  0
    1.3231   -1.8876    0.1919 H   0  0  0  0  0  0  0  0  0  0  0  0
   -1.0039   -2.4713    0.8159 H   0  0  0  0  0  0  0  0  0  0  0  0
   -5.6488    2.6069    0.3721 S   0  0  0  0  0  0  0  0  0  0  0  0
   -5.5534    2.5008    2.2298 C   0  0  0  0  0  0  0  0  0  0  0  0
   -6.7683    3.4672    0.0472 O   0  0  0  0  0  0  0  0  0  0  0  0
   -5.5277    1.2407   -0.1208 O   0  0  0  0  0  0  0  0  0  0  0  0
   -4.3038    3.4357    0.0748 O   0  0  0  0  0  0  0  0  0  0  0  0
   -5.5052    3.7182    2.7622 F   0  0  0  0  0  0  0  0  0  0  0  0
   -6.6321    1.8581    2.6771 F   0  0  0  0  0  0  0  0  0  0  0  0
   -4.4557    1.8178    2.5774 F   0  0  0  0  0  0  0  0  0  0  0  0
  1 10  1  0  0  0  0
  1  2  1  0  0  0  0
  2  3  1  0  0  0  0
  4  1  2  0  0  0  0
  5  6  2  0  0  0  0
  5  4  1  0  0  0  0
  6  9  1  0  0  0  0
  7  6  1  0  0  0  0
  8  7  1  0  0  0  0
  8 15  1  0  0  0  0
  9 16  1  0  0  0  0
  9 10  2  0  0  0  0
 10 17  1  0  0  0  0
 11 22  1  0  0  0  0
 12  5  1  0  0  0  0
 13  8  1  0  0  0  0
 14  8  1  0  0  0  0
 18 19  1  0  0  0  0
 19 25  1  0  0  0  0
 19 24  1  0  0  0  0
 19 23  1  0  0  0  0
 20 18  2  0  0  0  0
 21 18  2  0  0  0  0
 22 18  1  0  0  0  0
M  RAD  3   2   2   3   3   4   2
M  END
