Coordinates from ORCA-job 4-MeOPhN2+~TfO-_B3LYPG-6-31G_dp-CH-Scan-d09-49-n800
 OpenBabel11261919093D

 25 24  0  0  0  0  0  0  0  0999 V2000
   -1.4496   -0.3014    0.5863 C   0  0  0  0  0  0  0  0  0  0  0  0
   -2.7493   -0.5155    0.9882 N   0  0  0  0  0  0  0  0  0  0  0  0
   -3.8157   -0.6245    1.3208 N   0  0  0  0  0  0  0  0  0  0  0  0
   -1.1675    1.0508    0.2770 C   0  0  0  0  0  0  0  0  0  0  0  0
    0.1799    1.1808   -0.1084 C   0  0  0  0  0  0  0  0  0  0  0  0
    1.0900    0.1141   -0.1725 C   0  0  0  0  0  0  0  0  0  0  0  0
    2.3491    0.4224   -0.5647 O   0  0  0  0  0  0  0  0  0  0  0  0
    3.3339   -0.6008   -0.6548 C   0  0  0  0  0  0  0  0  0  0  0  0
    0.6968   -1.2152    0.1599 C   0  0  0  0  0  0  0  0  0  0  0  0
   -0.6015   -1.4407    0.5507 C   0  0  0  0  0  0  0  0  0  0  0  0
   -4.1911    3.5728   -0.1807 H   0  0  0  0  0  0  0  0  0  0  0  0
    0.5829    2.1559   -0.3850 H   0  0  0  0  0  0  0  0  0  0  0  0
    4.2482   -0.1054   -0.9831 H   0  0  0  0  0  0  0  0  0  0  0  0
    3.0553   -1.3658   -1.3894 H   0  0  0  0  0  0  0  0  0  0  0  0
    3.5122   -1.0765    0.3173 H   0  0  0  0  0  0  0  0  0  0  0  0
    1.3969   -2.0395    0.1102 H   0  0  0  0  0  0  0  0  0  0  0  0
   -0.9491   -2.4360    0.8170 H   0  0  0  0  0  0  0  0  0  0  0  0
   -6.0686    2.6948    0.3795 S   0  0  0  0  0  0  0  0  0  0  0  0
   -5.8082    2.4479    2.2095 C   0  0  0  0  0  0  0  0  0  0  0  0
   -7.4101    3.2091    0.1997 O   0  0  0  0  0  0  0  0  0  0  0  0
   -5.5668    1.5019   -0.2872 O   0  0  0  0  0  0  0  0  0  0  0  0
   -5.0428    3.9274    0.1306 O   0  0  0  0  0  0  0  0  0  0  0  0
   -6.1042    3.5645    2.8670 F   0  0  0  0  0  0  0  0  0  0  0  0
   -6.6028    1.4595    2.6157 F   0  0  0  0  0  0  0  0  0  0  0  0
   -4.5337    2.1181    2.4335 F   0  0  0  0  0  0  0  0  0  0  0  0
  1  2  1  0  0  0  0
  2  3  1  0  0  0  0
  4  1  2  0  0  0  0
  5  4  1  0  0  0  0
  6  5  2  0  0  0  0
  6  9  1  0  0  0  0
  7  6  1  0  0  0  0
  8  7  1  0  0  0  0
  8 15  1  0  0  0  0
  9 10  2  0  0  0  0
 10  1  1  0  0  0  0
 10 17  1  0  0  0  0
 11 22  1  0  0  0  0
 12  5  1  0  0  0  0
 13  8  1  0  0  0  0
 14  8  1  0  0  0  0
 16  9  1  0  0  0  0
 18 19  1  0  0  0  0
 19 25  1  0  0  0  0
 19 24  1  0  0  0  0
 19 23  1  0  0  0  0
 20 18  2  0  0  0  0
 21 18  2  0  0  0  0
 22 18  1  0  0  0  0
M  RAD  3   2   2   3   3   4   2
M  END
