Coordinates from ORCA-job 4-MeOPhN2+~TfO-_B3LYPG-6-31G_dp-CH-Scan-d09-49-n800
 OpenBabel11261919093D

 25 24  0  0  0  0  0  0  0  0999 V2000
   -1.8304   -0.3860    0.6454 C   0  0  0  0  0  0  0  0  0  0  0  0
   -3.0755   -0.7749    1.0668 N   0  0  0  0  0  0  0  0  0  0  0  0
   -4.1017   -1.0583    1.4120 N   0  0  0  0  0  0  0  0  0  0  0  0
   -1.6642    0.9880    0.3339 C   0  0  0  0  0  0  0  0  0  0  0  0
   -0.3623    1.2800   -0.0758 C   0  0  0  0  0  0  0  0  0  0  0  0
    0.6593    0.3166   -0.1670 C   0  0  0  0  0  0  0  0  0  0  0  0
    1.8596    0.7658   -0.5798 O   0  0  0  0  0  0  0  0  0  0  0  0
    2.9551   -0.1398   -0.7019 C   0  0  0  0  0  0  0  0  0  0  0  0
    0.4120   -1.0430    0.1633 C   0  0  0  0  0  0  0  0  0  0  0  0
   -0.8484   -1.4067    0.5774 C   0  0  0  0  0  0  0  0  0  0  0  0
   -2.9198    2.2007    0.3722 H   0  0  0  0  0  0  0  0  0  0  0  0
   -0.0893    2.2968   -0.3498 H   0  0  0  0  0  0  0  0  0  0  0  0
    3.7960    0.4604   -1.0491 H   0  0  0  0  0  0  0  0  0  0  0  0
    2.7429   -0.9263   -1.4348 H   0  0  0  0  0  0  0  0  0  0  0  0
    3.2082   -0.5929    0.2636 H   0  0  0  0  0  0  0  0  0  0  0  0
    1.1916   -1.7906    0.0942 H   0  0  0  0  0  0  0  0  0  0  0  0
   -1.0789   -2.4349    0.8410 H   0  0  0  0  0  0  0  0  0  0  0  0
   -5.1154    2.4957    0.2793 S   0  0  0  0  0  0  0  0  0  0  0  0
   -5.5673    2.4769    2.0827 C   0  0  0  0  0  0  0  0  0  0  0  0
   -5.9576    3.5007   -0.3475 O   0  0  0  0  0  0  0  0  0  0  0  0
   -5.1694    1.0926   -0.1405 O   0  0  0  0  0  0  0  0  0  0  0  0
   -3.6357    3.0016    0.3718 O   0  0  0  0  0  0  0  0  0  0  0  0
   -5.4383    3.6895    2.6197 F   0  0  0  0  0  0  0  0  0  0  0  0
   -6.8289    2.0636    2.2242 F   0  0  0  0  0  0  0  0  0  0  0  0
   -4.7573    1.6233    2.7356 F   0  0  0  0  0  0  0  0  0  0  0  0
  1  2  1  0  0  0  0
  2  3  1  0  0  0  0
  4  1  2  0  0  0  0
  5  4  1  0  0  0  0
  6  5  2  0  0  0  0
  6  9  1  0  0  0  0
  7  6  1  0  0  0  0
  8  7  1  0  0  0  0
  8 15  1  0  0  0  0
  9 10  2  0  0  0  0
 10  1  1  0  0  0  0
 10 17  1  0  0  0  0
 12  5  1  0  0  0  0
 13  8  1  0  0  0  0
 14  8  1  0  0  0  0
 16  9  1  0  0  0  0
 18 22  1  0  0  0  0
 18 19  1  0  0  0  0
 19 24  1  0  0  0  0
 19 23  1  0  0  0  0
 19 25  1  0  0  0  0
 20 18  2  0  0  0  0
 21 18  2  0  0  0  0
 22 11  1  0  0  0  0
M  RAD  3   2   2   3   3   4   2
M  END
