Coordinates from ORCA-job 4-MeOPhN2+~TfO-_B3LYPG-6-31G_dp-CH-Scan-d09-49-n800
 OpenBabel11261919093D

 25 24  0  0  0  0  0  0  0  0999 V2000
   -1.5014   -0.3220    0.5735 C   0  0  0  0  0  0  0  0  0  0  0  0
   -2.7960   -0.5624    0.9746 N   0  0  0  0  0  0  0  0  0  0  0  0
   -3.8598   -0.6992    1.3043 N   0  0  0  0  0  0  0  0  0  0  0  0
   -1.2472    1.0289    0.2338 C   0  0  0  0  0  0  0  0  0  0  0  0
    0.0974    1.1816   -0.1508 C   0  0  0  0  0  0  0  0  0  0  0  0
    1.0324    0.1351   -0.1879 C   0  0  0  0  0  0  0  0  0  0  0  0
    2.2845    0.4635   -0.5843 O   0  0  0  0  0  0  0  0  0  0  0  0
    3.2933   -0.5384   -0.6491 C   0  0  0  0  0  0  0  0  0  0  0  0
    0.6688   -1.1944    0.1747 C   0  0  0  0  0  0  0  0  0  0  0  0
   -0.6253   -1.4405    0.5667 C   0  0  0  0  0  0  0  0  0  0  0  0
   -3.9935    3.4234   -0.0949 H   0  0  0  0  0  0  0  0  0  0  0  0
    0.4781    2.1592   -0.4488 H   0  0  0  0  0  0  0  0  0  0  0  0
    4.1959   -0.0295   -0.9890 H   0  0  0  0  0  0  0  0  0  0  0  0
    3.0334   -1.3272   -1.3650 H   0  0  0  0  0  0  0  0  0  0  0  0
    3.4819   -0.9856    0.3344 H   0  0  0  0  0  0  0  0  0  0  0  0
    1.3877   -2.0034    0.1466 H   0  0  0  0  0  0  0  0  0  0  0  0
   -0.9504   -2.4372    0.8552 H   0  0  0  0  0  0  0  0  0  0  0  0
   -5.9558    2.6846    0.3709 S   0  0  0  0  0  0  0  0  0  0  0  0
   -5.7886    2.4463    2.2128 C   0  0  0  0  0  0  0  0  0  0  0  0
   -7.2499    3.2875    0.1287 O   0  0  0  0  0  0  0  0  0  0  0  0
   -5.5147    1.4474   -0.2570 O   0  0  0  0  0  0  0  0  0  0  0  0
   -4.8399    3.8391    0.1501 O   0  0  0  0  0  0  0  0  0  0  0  0
   -6.0496    3.5848    2.8471 F   0  0  0  0  0  0  0  0  0  0  0  0
   -6.6527    1.5078    2.5951 F   0  0  0  0  0  0  0  0  0  0  0  0
   -4.5445    2.0495    2.4954 F   0  0  0  0  0  0  0  0  0  0  0  0
  1  2  1  0  0  0  0
  2  3  1  0  0  0  0
  4  1  2  0  0  0  0
  5  4  1  0  0  0  0
  6  5  2  0  0  0  0
  6  9  1  0  0  0  0
  7  6  1  0  0  0  0
  8  7  1  0  0  0  0
  8 15  1  0  0  0  0
  9 10  2  0  0  0  0
 10  1  1  0  0  0  0
 10 17  1  0  0  0  0
 11 22  1  0  0  0  0
 12  5  1  0  0  0  0
 13  8  1  0  0  0  0
 14  8  1  0  0  0  0
 16  9  1  0  0  0  0
 18 19  1  0  0  0  0
 19 25  1  0  0  0  0
 19 24  1  0  0  0  0
 19 23  1  0  0  0  0
 20 18  2  0  0  0  0
 21 18  2  0  0  0  0
 22 18  1  0  0  0  0
M  RAD  3   2   2   3   3   4   2
M  END
