Coordinates from ORCA-job 4-MeOPhN2+~TfO-_B3LYPG-6-31G_dp-CH-Scan-d09-49-n800
 OpenBabel11261919093D

 25 24  0  0  0  0  0  0  0  0999 V2000
   -1.4996   -0.3215    0.5738 C   0  0  0  0  0  0  0  0  0  0  0  0
   -2.7943   -0.5610    0.9749 N   0  0  0  0  0  0  0  0  0  0  0  0
   -3.8583   -0.6970    1.3046 N   0  0  0  0  0  0  0  0  0  0  0  0
   -1.2446    1.0294    0.2347 C   0  0  0  0  0  0  0  0  0  0  0  0
    0.1001    1.1814   -0.1498 C   0  0  0  0  0  0  0  0  0  0  0  0
    1.0344    0.1343   -0.1876 C   0  0  0  0  0  0  0  0  0  0  0  0
    2.2867    0.4620   -0.5839 O   0  0  0  0  0  0  0  0  0  0  0  0
    3.2948   -0.5404   -0.6494 C   0  0  0  0  0  0  0  0  0  0  0  0
    0.6699   -1.1952    0.1743 C   0  0  0  0  0  0  0  0  0  0  0  0
   -0.6243   -1.4407    0.5664 C   0  0  0  0  0  0  0  0  0  0  0  0
   -3.9997    3.4286   -0.0974 H   0  0  0  0  0  0  0  0  0  0  0  0
    0.4815    2.1589   -0.4474 H   0  0  0  0  0  0  0  0  0  0  0  0
    4.1977   -0.0320   -0.9891 H   0  0  0  0  0  0  0  0  0  0  0  0
    3.0343   -1.3287   -1.3656 H   0  0  0  0  0  0  0  0  0  0  0  0
    3.4832   -0.9883    0.3339 H   0  0  0  0  0  0  0  0  0  0  0  0
    1.3883   -2.0046    0.1458 H   0  0  0  0  0  0  0  0  0  0  0  0
   -0.9500   -2.4373    0.8544 H   0  0  0  0  0  0  0  0  0  0  0  0
   -5.9596    2.6853    0.3713 S   0  0  0  0  0  0  0  0  0  0  0  0
   -5.7898    2.4464    2.2128 C   0  0  0  0  0  0  0  0  0  0  0  0
   -7.2553    3.2854    0.1309 O   0  0  0  0  0  0  0  0  0  0  0  0
   -5.5164    1.4494   -0.2579 O   0  0  0  0  0  0  0  0  0  0  0  0
   -4.8464    3.8423    0.1499 O   0  0  0  0  0  0  0  0  0  0  0  0
   -6.0520    3.5842    2.8479 F   0  0  0  0  0  0  0  0  0  0  0  0
   -6.6518    1.5062    2.5957 F   0  0  0  0  0  0  0  0  0  0  0  0
   -4.5447    2.0516    2.4938 F   0  0  0  0  0  0  0  0  0  0  0  0
  1  2  1  0  0  0  0
  2  3  1  0  0  0  0
  4  1  2  0  0  0  0
  5  4  1  0  0  0  0
  6  5  2  0  0  0  0
  6  9  1  0  0  0  0
  7  6  1  0  0  0  0
  8  7  1  0  0  0  0
  8 15  1  0  0  0  0
  9 10  2  0  0  0  0
 10  1  1  0  0  0  0
 10 17  1  0  0  0  0
 11 22  1  0  0  0  0
 12  5  1  0  0  0  0
 13  8  1  0  0  0  0
 14  8  1  0  0  0  0
 16  9  1  0  0  0  0
 18 19  1  0  0  0  0
 19 25  1  0  0  0  0
 19 24  1  0  0  0  0
 19 23  1  0  0  0  0
 20 18  2  0  0  0  0
 21 18  2  0  0  0  0
 22 18  1  0  0  0  0
M  RAD  3   2   2   3   3   4   2
M  END
