Coordinates from ORCA-job 4-MeOPhN2+~TfO-_B3LYPG-6-31G_dp-CH-Scan-d09-49-n800
 OpenBabel11261919093D

 25 24  0  0  0  0  0  0  0  0999 V2000
   -1.7708   -0.4193    0.5244 C   0  0  0  0  0  0  0  0  0  0  0  0
   -3.0384   -0.7911    0.8962 N   0  0  0  0  0  0  0  0  0  0  0  0
   -4.0832   -1.0577    1.2009 N   0  0  0  0  0  0  0  0  0  0  0  0
   -1.6060    0.9479    0.1850 C   0  0  0  0  0  0  0  0  0  0  0  0
   -0.2793    1.2240   -0.1695 C   0  0  0  0  0  0  0  0  0  0  0  0
    0.7455    0.2617   -0.1816 C   0  0  0  0  0  0  0  0  0  0  0  0
    1.9687    0.7004   -0.5458 O   0  0  0  0  0  0  0  0  0  0  0  0
    3.0678   -0.2059   -0.5803 C   0  0  0  0  0  0  0  0  0  0  0  0
    0.4865   -1.0912    0.1741 C   0  0  0  0  0  0  0  0  0  0  0  0
   -0.7914   -1.4471    0.5355 C   0  0  0  0  0  0  0  0  0  0  0  0
   -3.2778    2.5216    0.1251 H   0  0  0  0  0  0  0  0  0  0  0  0
    0.0151    2.2314   -0.4592 H   0  0  0  0  0  0  0  0  0  0  0  0
    3.9280    0.3847   -0.8959 H   0  0  0  0  0  0  0  0  0  0  0  0
    2.8992   -1.0139   -1.3016 H   0  0  0  0  0  0  0  0  0  0  0  0
    3.2670   -0.6328    0.4096 H   0  0  0  0  0  0  0  0  0  0  0  0
    1.2711   -1.8369    0.1650 H   0  0  0  0  0  0  0  0  0  0  0  0
   -1.0344   -2.4684    0.8164 H   0  0  0  0  0  0  0  0  0  0  0  0
   -5.4290    2.5519    0.3294 S   0  0  0  0  0  0  0  0  0  0  0  0
   -5.5127    2.5079    2.1888 C   0  0  0  0  0  0  0  0  0  0  0  0
   -6.4312    3.4987   -0.1197 O   0  0  0  0  0  0  0  0  0  0  0  0
   -5.4199    1.1573   -0.1009 O   0  0  0  0  0  0  0  0  0  0  0  0
   -3.9937    3.2186    0.1328 O   0  0  0  0  0  0  0  0  0  0  0  0
   -5.3869    3.7329    2.6926 F   0  0  0  0  0  0  0  0  0  0  0  0
   -6.6857    1.9918    2.5579 F   0  0  0  0  0  0  0  0  0  0  0  0
   -4.5244    1.7324    2.6576 F   0  0  0  0  0  0  0  0  0  0  0  0
  1 10  1  0  0  0  0
  1  2  1  0  0  0  0
  2  3  1  0  0  0  0
  4  1  2  0  0  0  0
  5  4  1  0  0  0  0
  6  5  2  0  0  0  0
  6  9  1  0  0  0  0
  7  6  1  0  0  0  0
  8  7  1  0  0  0  0
  8 15  1  0  0  0  0
  9 10  2  0  0  0  0
 10 17  1  0  0  0  0
 11 22  1  0  0  0  0
 12  5  1  0  0  0  0
 13  8  1  0  0  0  0
 14  8  1  0  0  0  0
 16  9  1  0  0  0  0
 18 19  1  0  0  0  0
 19 24  1  0  0  0  0
 19 25  1  0  0  0  0
 19 23  1  0  0  0  0
 20 18  2  0  0  0  0
 21 18  2  0  0  0  0
 22 18  1  0  0  0  0
M  RAD  3   2   2   3   3   4   2
M  END
