Coordinates from ORCA-job 4-MeOPhN2+~TfO-_B3LYPG-6-31G_dp-CH-Scan-d09-49-n800
 OpenBabel11261919093D

 25 24  0  0  0  0  0  0  0  0999 V2000
   -1.7889   -0.4207    0.5309 C   0  0  0  0  0  0  0  0  0  0  0  0
   -3.0536   -0.7996    0.9045 N   0  0  0  0  0  0  0  0  0  0  0  0
   -4.0965   -1.0714    1.2105 N   0  0  0  0  0  0  0  0  0  0  0  0
   -1.6284    0.9477    0.1933 C   0  0  0  0  0  0  0  0  0  0  0  0
   -0.3039    1.2299   -0.1627 C   0  0  0  0  0  0  0  0  0  0  0  0
    0.7248    0.2715   -0.1783 C   0  0  0  0  0  0  0  0  0  0  0  0
    1.9451    0.7161   -0.5437 O   0  0  0  0  0  0  0  0  0  0  0  0
    3.0481   -0.1856   -0.5821 C   0  0  0  0  0  0  0  0  0  0  0  0
    0.4713   -1.0827    0.1752 C   0  0  0  0  0  0  0  0  0  0  0  0
   -0.8048   -1.4438    0.5381 C   0  0  0  0  0  0  0  0  0  0  0  0
   -3.2310    2.4636    0.1378 H   0  0  0  0  0  0  0  0  0  0  0  0
   -0.0146    2.2391   -0.4508 H   0  0  0  0  0  0  0  0  0  0  0  0
    3.9052    0.4095   -0.8978 H   0  0  0  0  0  0  0  0  0  0  0  0
    2.8815   -0.9926   -1.3050 H   0  0  0  0  0  0  0  0  0  0  0  0
    3.2507   -0.6138    0.4066 H   0  0  0  0  0  0  0  0  0  0  0  0
    1.2585   -1.8255    0.1635 H   0  0  0  0  0  0  0  0  0  0  0  0
   -1.0434   -2.4664    0.8176 H   0  0  0  0  0  0  0  0  0  0  0  0
   -5.3865    2.5410    0.3214 S   0  0  0  0  0  0  0  0  0  0  0  0
   -5.4915    2.5050    2.1797 C   0  0  0  0  0  0  0  0  0  0  0  0
   -6.3687    3.5031   -0.1403 O   0  0  0  0  0  0  0  0  0  0  0  0
   -5.4018    1.1441   -0.1029 O   0  0  0  0  0  0  0  0  0  0  0  0
   -3.9388    3.1766    0.1380 O   0  0  0  0  0  0  0  0  0  0  0  0
   -5.3458    3.7287    2.6818 F   0  0  0  0  0  0  0  0  0  0  0  0
   -6.6784    2.0142    2.5391 F   0  0  0  0  0  0  0  0  0  0  0  0
   -4.5241    1.7110    2.6624 F   0  0  0  0  0  0  0  0  0  0  0  0
  1 10  1  0  0  0  0
  1  2  1  0  0  0  0
  2  3  1  0  0  0  0
  4  1  2  0  0  0  0
  5  4  1  0  0  0  0
  6  5  2  0  0  0  0
  6  9  1  0  0  0  0
  7  6  1  0  0  0  0
  8  7  1  0  0  0  0
  8 15  1  0  0  0  0
  9 10  2  0  0  0  0
 10 17  1  0  0  0  0
 11 22  1  0  0  0  0
 12  5  1  0  0  0  0
 13  8  1  0  0  0  0
 14  8  1  0  0  0  0
 16  9  1  0  0  0  0
 18 19  1  0  0  0  0
 19 24  1  0  0  0  0
 19 25  1  0  0  0  0
 19 23  1  0  0  0  0
 20 18  2  0  0  0  0
 21 18  2  0  0  0  0
 22 18  1  0  0  0  0
M  RAD  3   2   2   3   3   4   2
M  END
