Coordinates from ORCA-job 4-MeOPhN2+~TfO-_B3LYPG-6-31G_dp-CH-Scan-d09-49-n800
 OpenBabel11261919093D

 25 24  0  0  0  0  0  0  0  0999 V2000
   -1.7136   -0.4093    0.4952 C   0  0  0  0  0  0  0  0  0  0  0  0
   -2.9919   -0.7548    0.8593 N   0  0  0  0  0  0  0  0  0  0  0  0
   -4.0454   -0.9949    1.1578 N   0  0  0  0  0  0  0  0  0  0  0  0
   -1.5328    0.9517    0.1417 C   0  0  0  0  0  0  0  0  0  0  0  0
   -0.1964    1.2029   -0.2020 C   0  0  0  0  0  0  0  0  0  0  0  0
    0.8148    0.2271   -0.1909 C   0  0  0  0  0  0  0  0  0  0  0  0
    2.0494    0.6439   -0.5473 O   0  0  0  0  0  0  0  0  0  0  0  0
    3.1349   -0.2784   -0.5579 C   0  0  0  0  0  0  0  0  0  0  0  0
    0.5347   -1.1187    0.1786 C   0  0  0  0  0  0  0  0  0  0  0  0
   -0.7513   -1.4533    0.5304 C   0  0  0  0  0  0  0  0  0  0  0  0
   -3.4689    2.7458    0.0239 H   0  0  0  0  0  0  0  0  0  0  0  0
    0.1174    2.2022   -0.5014 H   0  0  0  0  0  0  0  0  0  0  0  0
    4.0075    0.2951   -0.8714 H   0  0  0  0  0  0  0  0  0  0  0  0
    2.9631   -1.0935   -1.2705 H   0  0  0  0  0  0  0  0  0  0  0  0
    3.3174   -0.6958    0.4394 H   0  0  0  0  0  0  0  0  0  0  0  0
    1.3099   -1.8743    0.1871 H   0  0  0  0  0  0  0  0  0  0  0  0
   -1.0114   -2.4677    0.8214 H   0  0  0  0  0  0  0  0  0  0  0  0
   -5.5906    2.5949    0.3595 S   0  0  0  0  0  0  0  0  0  0  0  0
   -5.5497    2.4985    2.2194 C   0  0  0  0  0  0  0  0  0  0  0  0
   -6.6790    3.4811   -0.0010 O   0  0  0  0  0  0  0  0  0  0  0  0
   -5.4962    1.2211   -0.1190 O   0  0  0  0  0  0  0  0  0  0  0  0
   -4.2179    3.3826    0.0950 O   0  0  0  0  0  0  0  0  0  0  0  0
   -5.4886    3.7173    2.7474 F   0  0  0  0  0  0  0  0  0  0  0  0
   -6.6540    1.8824    2.6412 F   0  0  0  0  0  0  0  0  0  0  0  0
   -4.4771    1.7931    2.6012 F   0  0  0  0  0  0  0  0  0  0  0  0
  1 10  1  0  0  0  0
  1  2  1  0  0  0  0
  2  3  1  0  0  0  0
  4  1  2  0  0  0  0
  5  6  2  0  0  0  0
  5  4  1  0  0  0  0
  6  9  1  0  0  0  0
  7  6  1  0  0  0  0
  8  7  1  0  0  0  0
  8 15  1  0  0  0  0
  9 16  1  0  0  0  0
  9 10  2  0  0  0  0
 10 17  1  0  0  0  0
 11 22  1  0  0  0  0
 12  5  1  0  0  0  0
 13  8  1  0  0  0  0
 14  8  1  0  0  0  0
 18 19  1  0  0  0  0
 19 25  1  0  0  0  0
 19 24  1  0  0  0  0
 19 23  1  0  0  0  0
 20 18  2  0  0  0  0
 21 18  2  0  0  0  0
 22 18  1  0  0  0  0
M  RAD  3   2   2   3   3   4   2
M  END
