Coordinates from ORCA-job 4-MeOPhN2+~TfO-_B3LYPG-6-31G_dp-CH-Scan-d09-49-n800
 OpenBabel11261919093D

 25 24  0  0  0  0  0  0  0  0999 V2000
   -1.4412   -0.2961    0.5905 C   0  0  0  0  0  0  0  0  0  0  0  0
   -2.7416   -0.5053    0.9929 N   0  0  0  0  0  0  0  0  0  0  0  0
   -3.8081   -0.6093    1.3269 N   0  0  0  0  0  0  0  0  0  0  0  0
   -1.1526    1.0567    0.2907 C   0  0  0  0  0  0  0  0  0  0  0  0
    0.1953    1.1824   -0.0951 C   0  0  0  0  0  0  0  0  0  0  0  0
    1.0997    0.1113   -0.1677 C   0  0  0  0  0  0  0  0  0  0  0  0
    2.3602    0.4158   -0.5584 O   0  0  0  0  0  0  0  0  0  0  0  0
    3.3394   -0.6120   -0.6562 C   0  0  0  0  0  0  0  0  0  0  0  0
    0.6996   -1.2183    0.1552 C   0  0  0  0  0  0  0  0  0  0  0  0
   -0.5995   -1.4398    0.5456 C   0  0  0  0  0  0  0  0  0  0  0  0
   -4.2282    3.5968   -0.1988 H   0  0  0  0  0  0  0  0  0  0  0  0
    0.6032    2.1573   -0.3650 H   0  0  0  0  0  0  0  0  0  0  0  0
    4.2565   -0.1190   -0.9805 H   0  0  0  0  0  0  0  0  0  0  0  0
    3.0569   -1.3699   -1.3966 H   0  0  0  0  0  0  0  0  0  0  0  0
    3.5151   -1.0961    0.3123 H   0  0  0  0  0  0  0  0  0  0  0  0
    1.3952   -2.0460    0.0986 H   0  0  0  0  0  0  0  0  0  0  0  0
   -0.9522   -2.4352    0.8049 H   0  0  0  0  0  0  0  0  0  0  0  0
   -6.0875    2.6928    0.3800 S   0  0  0  0  0  0  0  0  0  0  0  0
   -5.8076    2.4490    2.2075 C   0  0  0  0  0  0  0  0  0  0  0  0
   -7.4376    3.1884    0.2122 O   0  0  0  0  0  0  0  0  0  0  0  0
   -5.5746    1.5077   -0.2921 O   0  0  0  0  0  0  0  0  0  0  0  0
   -5.0810    3.9399    0.1223 O   0  0  0  0  0  0  0  0  0  0  0  0
   -6.1099    3.5624    2.8676 F   0  0  0  0  0  0  0  0  0  0  0  0
   -6.5878    1.4520    2.6207 F   0  0  0  0  0  0  0  0  0  0  0  0
   -4.5277    2.1332    2.4197 F   0  0  0  0  0  0  0  0  0  0  0  0
  1  2  1  0  0  0  0
  2  3  1  0  0  0  0
  4  1  2  0  0  0  0
  5  4  1  0  0  0  0
  6  5  2  0  0  0  0
  6  9  1  0  0  0  0
  7  6  1  0  0  0  0
  8  7  1  0  0  0  0
  8 15  1  0  0  0  0
  9 10  2  0  0  0  0
 10  1  1  0  0  0  0
 10 17  1  0  0  0  0
 11 22  1  0  0  0  0
 12  5  1  0  0  0  0
 13  8  1  0  0  0  0
 14  8  1  0  0  0  0
 16  9  1  0  0  0  0
 18 19  1  0  0  0  0
 19 25  1  0  0  0  0
 19 24  1  0  0  0  0
 19 23  1  0  0  0  0
 20 18  2  0  0  0  0
 21 18  2  0  0  0  0
 22 18  1  0  0  0  0
M  RAD  3   2   2   3   3   4   2
M  END
