Coordinates from ORCA-job 4-MeOPhN2+~TfO-_B3LYPG-6-31G_dp-CH-Scan-d09-49-n800
 OpenBabel11261919093D

 25 24  0  0  0  0  0  0  0  0999 V2000
   -1.7420   -0.2603    0.7045 C   0  0  0  0  0  0  0  0  0  0  0  0
   -3.0020   -0.5501    1.1652 N   0  0  0  0  0  0  0  0  0  0  0  0
   -4.0787   -0.6441    1.4613 N   0  0  0  0  0  0  0  0  0  0  0  0
   -1.4635    1.0768    0.3437 C   0  0  0  0  0  0  0  0  0  0  0  0
   -0.1938    1.3429   -0.1260 C   0  0  0  0  0  0  0  0  0  0  0  0
    0.7706    0.3184   -0.2404 C   0  0  0  0  0  0  0  0  0  0  0  0
    1.9646    0.6997   -0.7156 O   0  0  0  0  0  0  0  0  0  0  0  0
    3.0106   -0.2631   -0.8692 C   0  0  0  0  0  0  0  0  0  0  0  0
    0.4599   -1.0096    0.1365 C   0  0  0  0  0  0  0  0  0  0  0  0
   -0.8013   -1.3036    0.6181 C   0  0  0  0  0  0  0  0  0  0  0  0
   -2.3727    1.9509    0.4966 H   0  0  0  0  0  0  0  0  0  0  0  0
    0.0894    2.3480   -0.4191 H   0  0  0  0  0  0  0  0  0  0  0  0
    3.8601    0.2900   -1.2680 H   0  0  0  0  0  0  0  0  0  0  0  0
    2.7226   -1.0497   -1.5750 H   0  0  0  0  0  0  0  0  0  0  0  0
    3.2841   -0.7067    0.0943 H   0  0  0  0  0  0  0  0  0  0  0  0
    1.1942   -1.8004    0.0536 H   0  0  0  0  0  0  0  0  0  0  0  0
   -1.0649   -2.3132    0.9145 H   0  0  0  0  0  0  0  0  0  0  0  0
   -5.0250    2.4691    0.4736 S   0  0  0  0  0  0  0  0  0  0  0  0
   -6.0155    2.4523    2.0443 C   0  0  0  0  0  0  0  0  0  0  0  0
   -5.7023    3.4222   -0.4074 O   0  0  0  0  0  0  0  0  0  0  0  0
   -5.0598    1.0392    0.0415 O   0  0  0  0  0  0  0  0  0  0  0  0
   -3.6688    2.8800    0.9663 O   0  0  0  0  0  0  0  0  0  0  0  0
   -6.0221    3.6578    2.6240 F   0  0  0  0  0  0  0  0  0  0  0  0
   -7.2796    2.0838    1.8042 F   0  0  0  0  0  0  0  0  0  0  0  0
   -5.4802    1.5685    2.9157 F   0  0  0  0  0  0  0  0  0  0  0  0
  1  2  1  0  0  0  0
  2  3  1  0  0  0  0
  4 11  1  0  0  0  0
  4  1  2  0  0  0  0
  5  4  1  0  0  0  0
  6  5  2  0  0  0  0
  6  9  1  0  0  0  0
  7  6  1  0  0  0  0
  8  7  1  0  0  0  0
  8 15  1  0  0  0  0
  9 10  2  0  0  0  0
 10  1  1  0  0  0  0
 10 17  1  0  0  0  0
 12  5  1  0  0  0  0
 13  8  1  0  0  0  0
 14  8  1  0  0  0  0
 16  9  1  0  0  0  0
 18 22  1  0  0  0  0
 18 19  1  0  0  0  0
 19 23  1  0  0  0  0
 19 25  1  0  0  0  0
 20 18  2  0  0  0  0
 21 18  2  0  0  0  0
 24 19  1  0  0  0  0
M  RAD  3   2   2   3   3  22   2
M  END
