Coordinates from ORCA-job 4-MeOPhN2+~TfO-_B3LYPG-6-31G_dp-CH-Scan-d09-49-n800
 OpenBabel11261919093D

 25 24  0  0  0  0  0  0  0  0999 V2000
   -1.5368   -0.3424    0.6660 C   0  0  0  0  0  0  0  0  0  0  0  0
   -2.8420   -0.5830    1.0371 N   0  0  0  0  0  0  0  0  0  0  0  0
   -3.9133   -0.7029    1.3496 N   0  0  0  0  0  0  0  0  0  0  0  0
   -1.2405    1.0344    0.5304 C   0  0  0  0  0  0  0  0  0  0  0  0
    0.1086    1.1962    0.1620 C   0  0  0  0  0  0  0  0  0  0  0  0
    1.0055    0.1352   -0.0382 C   0  0  0  0  0  0  0  0  0  0  0  0
    2.2681    0.4754   -0.3928 O   0  0  0  0  0  0  0  0  0  0  0  0
    3.2405   -0.5407   -0.6089 C   0  0  0  0  0  0  0  0  0  0  0  0
    0.5967   -1.2208    0.1247 C   0  0  0  0  0  0  0  0  0  0  0  0
   -0.7041   -1.4787    0.4866 C   0  0  0  0  0  0  0  0  0  0  0  0
   -4.4716    3.7207   -0.5727 H   0  0  0  0  0  0  0  0  0  0  0  0
    0.5241    2.1936    0.0110 H   0  0  0  0  0  0  0  0  0  0  0  0
    4.1614   -0.0199   -0.8733 H   0  0  0  0  0  0  0  0  0  0  0  0
    2.9539   -1.2060   -1.4322 H   0  0  0  0  0  0  0  0  0  0  0  0
    3.4112   -1.1357    0.2968 H   0  0  0  0  0  0  0  0  0  0  0  0
    1.2874   -2.0399   -0.0311 H   0  0  0  0  0  0  0  0  0  0  0  0
   -1.0639   -2.4955    0.6256 H   0  0  0  0  0  0  0  0  0  0  0  0
   -6.0574    2.6155    0.3599 S   0  0  0  0  0  0  0  0  0  0  0  0
   -5.3774    2.4596    2.0906 C   0  0  0  0  0  0  0  0  0  0  0  0
   -7.4640    2.9401    0.4715 O   0  0  0  0  0  0  0  0  0  0  0  0
   -5.5493    1.4861   -0.4055 O   0  0  0  0  0  0  0  0  0  0  0  0
   -5.2889    3.9698   -0.1061 O   0  0  0  0  0  0  0  0  0  0  0  0
   -5.7091    3.5297    2.8065 F   0  0  0  0  0  0  0  0  0  0  0  0
   -5.9023    1.3658    2.6444 F   0  0  0  0  0  0  0  0  0  0  0  0
   -4.0525    2.3425    2.0349 F   0  0  0  0  0  0  0  0  0  0  0  0
  1  2  1  0  0  0  0
  2  3  1  0  0  0  0
  4  1  1  0  0  0  0
  5  4  2  0  0  0  0
  6  9  2  0  0  0  0
  6  5  1  0  0  0  0
  7  6  1  0  0  0  0
  8  7  1  0  0  0  0
  8 15  1  0  0  0  0
  9 10  1  0  0  0  0
 10 17  1  0  0  0  0
 10  1  2  0  0  0  0
 11 22  1  0  0  0  0
 12  5  1  0  0  0  0
 13  8  1  0  0  0  0
 14  8  1  0  0  0  0
 16  9  1  0  0  0  0
 18 20  2  0  0  0  0
 18 19  1  0  0  0  0
 19 24  1  0  0  0  0
 19 23  1  0  0  0  0
 21 18  2  0  0  0  0
 22 18  1  0  0  0  0
 25 19  1  0  0  0  0
M  RAD  3   2   2   3   3   4   2
M  END
