Coordinates from ORCA-job 4-MeOPhN2+~TfO-_B3LYPG-6-31G_dp-CH-Scan-d09-49-n800
 OpenBabel11261919093D

 25 24  0  0  0  0  0  0  0  0999 V2000
   -1.7975   -0.4235    0.5329 C   0  0  0  0  0  0  0  0  0  0  0  0
   -3.0607   -0.8070    0.9066 N   0  0  0  0  0  0  0  0  0  0  0  0
   -4.1023   -1.0831    1.2128 N   0  0  0  0  0  0  0  0  0  0  0  0
   -1.6396    0.9458    0.1973 C   0  0  0  0  0  0  0  0  0  0  0  0
   -0.3162    1.2319   -0.1588 C   0  0  0  0  0  0  0  0  0  0  0  0
    0.7148    0.2760   -0.1766 C   0  0  0  0  0  0  0  0  0  0  0  0
    1.9336    0.7243   -0.5418 O   0  0  0  0  0  0  0  0  0  0  0  0
    3.0390   -0.1746   -0.5824 C   0  0  0  0  0  0  0  0  0  0  0  0
    0.4645   -1.0792    0.1748 C   0  0  0  0  0  0  0  0  0  0  0  0
   -0.8106   -1.4438    0.5377 C   0  0  0  0  0  0  0  0  0  0  0  0
   -3.2084    2.4319    0.1448 H   0  0  0  0  0  0  0  0  0  0  0  0
   -0.0299    2.2424   -0.4454 H   0  0  0  0  0  0  0  0  0  0  0  0
    3.8944    0.4233   -0.8974 H   0  0  0  0  0  0  0  0  0  0  0  0
    2.8740   -0.9805   -1.3067 H   0  0  0  0  0  0  0  0  0  0  0  0
    3.2430   -0.6040    0.4054 H   0  0  0  0  0  0  0  0  0  0  0  0
    1.2534   -1.8202    0.1613 H   0  0  0  0  0  0  0  0  0  0  0  0
   -1.0466   -2.4674    0.8156 H   0  0  0  0  0  0  0  0  0  0  0  0
   -5.3663    2.5359    0.3184 S   0  0  0  0  0  0  0  0  0  0  0  0
   -5.4820    2.5075    2.1760 C   0  0  0  0  0  0  0  0  0  0  0  0
   -6.3374    3.5055   -0.1515 O   0  0  0  0  0  0  0  0  0  0  0  0
   -5.3957    1.1372   -0.1001 O   0  0  0  0  0  0  0  0  0  0  0  0
   -3.9122    3.1537    0.1405 O   0  0  0  0  0  0  0  0  0  0  0  0
   -5.3259    3.7312    2.6752 F   0  0  0  0  0  0  0  0  0  0  0  0
   -6.6759    2.0305    2.5315 F   0  0  0  0  0  0  0  0  0  0  0  0
   -4.5255    1.7049    2.6671 F   0  0  0  0  0  0  0  0  0  0  0  0
  1 10  1  0  0  0  0
  1  2  1  0  0  0  0
  2  3  1  0  0  0  0
  4  1  2  0  0  0  0
  5  4  1  0  0  0  0
  6  5  2  0  0  0  0
  6  9  1  0  0  0  0
  7  6  1  0  0  0  0
  8  7  1  0  0  0  0
  8 15  1  0  0  0  0
  9 10  2  0  0  0  0
 10 17  1  0  0  0  0
 12  5  1  0  0  0  0
 13  8  1  0  0  0  0
 14  8  1  0  0  0  0
 16  9  1  0  0  0  0
 18 19  1  0  0  0  0
 19 24  1  0  0  0  0
 19 25  1  0  0  0  0
 19 23  1  0  0  0  0
 20 18  2  0  0  0  0
 21 18  2  0  0  0  0
 22 11  1  0  0  0  0
 22 18  1  0  0  0  0
M  RAD  3   2   2   3   3   4   2
M  END
