Coordinates from ORCA-job 4-MeOPhN2+~TfO-_B3LYPG-6-31G_dp-CH-Scan-d09-49-n800
 OpenBabel11261919093D

 25 24  0  0  0  0  0  0  0  0999 V2000
   -1.6704   -0.4067    0.4724 C   0  0  0  0  0  0  0  0  0  0  0  0
   -2.9573   -0.7340    0.8260 N   0  0  0  0  0  0  0  0  0  0  0  0
   -4.0175   -0.9553    1.1169 N   0  0  0  0  0  0  0  0  0  0  0  0
   -1.4777    0.9511    0.1150 C   0  0  0  0  0  0  0  0  0  0  0  0
   -0.1342    1.1859   -0.2183 C   0  0  0  0  0  0  0  0  0  0  0  0
    0.8669    0.2007   -0.1938 C   0  0  0  0  0  0  0  0  0  0  0  0
    2.1097    0.6032   -0.5417 O   0  0  0  0  0  0  0  0  0  0  0  0
    3.1853   -0.3300   -0.5380 C   0  0  0  0  0  0  0  0  0  0  0  0
    0.5713   -1.1413    0.1799 C   0  0  0  0  0  0  0  0  0  0  0  0
   -0.7207   -1.4621    0.5222 C   0  0  0  0  0  0  0  0  0  0  0  0
   -3.6313    2.9110   -0.0646 H   0  0  0  0  0  0  0  0  0  0  0  0
    0.1934    2.1805   -0.5199 H   0  0  0  0  0  0  0  0  0  0  0  0
    4.0668    0.2328   -0.8464 H   0  0  0  0  0  0  0  0  0  0  0  0
    3.0121   -1.1471   -1.2481 H   0  0  0  0  0  0  0  0  0  0  0  0
    3.3550   -0.7446    0.4628 H   0  0  0  0  0  0  0  0  0  0  0  0
    1.3395   -1.9038    0.1986 H   0  0  0  0  0  0  0  0  0  0  0  0
   -0.9935   -2.4726    0.8157 H   0  0  0  0  0  0  0  0  0  0  0  0
   -5.7150    2.6230    0.3857 S   0  0  0  0  0  0  0  0  0  0  0  0
   -5.5679    2.5016    2.2395 C   0  0  0  0  0  0  0  0  0  0  0  0
   -6.8681    3.4512    0.0979 O   0  0  0  0  0  0  0  0  0  0  0  0
   -5.5588    1.2684   -0.1277 O   0  0  0  0  0  0  0  0  0  0  0  0
   -4.4036    3.5008    0.0636 O   0  0  0  0  0  0  0  0  0  0  0  0
   -5.5466    3.7148    2.7825 F   0  0  0  0  0  0  0  0  0  0  0  0
   -6.6133    1.8189    2.7057 F   0  0  0  0  0  0  0  0  0  0  0  0
   -4.4401    1.8524    2.5511 F   0  0  0  0  0  0  0  0  0  0  0  0
  1 10  1  0  0  0  0
  1  2  1  0  0  0  0
  2  3  1  0  0  0  0
  4  1  2  0  0  0  0
  5  6  2  0  0  0  0
  5  4  1  0  0  0  0
  6  9  1  0  0  0  0
  7  8  1  0  0  0  0
  7  6  1  0  0  0  0
  8 15  1  0  0  0  0
  9 16  1  0  0  0  0
  9 10  2  0  0  0  0
 10 17  1  0  0  0  0
 11 22  1  0  0  0  0
 12  5  1  0  0  0  0
 13  8  1  0  0  0  0
 14  8  1  0  0  0  0
 18 19  1  0  0  0  0
 19 25  1  0  0  0  0
 19 24  1  0  0  0  0
 19 23  1  0  0  0  0
 20 18  2  0  0  0  0
 21 18  2  0  0  0  0
 22 18  1  0  0  0  0
M  RAD  3   2   2   3   3   4   2
M  END
