Coordinates from ORCA-job 4-MeOPhN2+~TfO-_B3LYPG-6-31G_dp-CH-Scan-d09-49-n800
 OpenBabel11261919093D

 25 24  0  0  0  0  0  0  0  0999 V2000
   -1.4951   -0.3202    0.5745 C   0  0  0  0  0  0  0  0  0  0  0  0
   -2.7903   -0.5576    0.9756 N   0  0  0  0  0  0  0  0  0  0  0  0
   -3.8545   -0.6913    1.3054 N   0  0  0  0  0  0  0  0  0  0  0  0
   -1.2381    1.0308    0.2372 C   0  0  0  0  0  0  0  0  0  0  0  0
    0.1069    1.1810   -0.1474 C   0  0  0  0  0  0  0  0  0  0  0  0
    1.0394    0.1323   -0.1868 C   0  0  0  0  0  0  0  0  0  0  0  0
    2.2922    0.4585   -0.5829 O   0  0  0  0  0  0  0  0  0  0  0  0
    3.2986   -0.5456   -0.6499 C   0  0  0  0  0  0  0  0  0  0  0  0
    0.6728   -1.1970    0.1735 C   0  0  0  0  0  0  0  0  0  0  0  0
   -0.6218   -1.4409    0.5654 C   0  0  0  0  0  0  0  0  0  0  0  0
   -4.0154    3.4416   -0.1037 H   0  0  0  0  0  0  0  0  0  0  0  0
    0.4899    2.1582   -0.4437 H   0  0  0  0  0  0  0  0  0  0  0  0
    4.2023   -0.0383   -0.9890 H   0  0  0  0  0  0  0  0  0  0  0  0
    3.0366   -1.3324   -1.3672 H   0  0  0  0  0  0  0  0  0  0  0  0
    3.4863   -0.9952    0.3327 H   0  0  0  0  0  0  0  0  0  0  0  0
    1.3898   -2.0076    0.1437 H   0  0  0  0  0  0  0  0  0  0  0  0
   -0.9491   -2.4373    0.8522 H   0  0  0  0  0  0  0  0  0  0  0  0
   -5.9690    2.6868    0.3722 S   0  0  0  0  0  0  0  0  0  0  0  0
   -5.7927    2.4466    2.2130 C   0  0  0  0  0  0  0  0  0  0  0  0
   -7.2687    3.2801    0.1363 O   0  0  0  0  0  0  0  0  0  0  0  0
   -5.5205    1.4545   -0.2601 O   0  0  0  0  0  0  0  0  0  0  0  0
   -4.8627    3.8504    0.1493 O   0  0  0  0  0  0  0  0  0  0  0  0
   -6.0580    3.5826    2.8500 F   0  0  0  0  0  0  0  0  0  0  0  0
   -6.6495    1.5022    2.5972 F   0  0  0  0  0  0  0  0  0  0  0  0
   -4.5451    2.0569    2.4898 F   0  0  0  0  0  0  0  0  0  0  0  0
  1  2  1  0  0  0  0
  2  3  1  0  0  0  0
  4  1  2  0  0  0  0
  5  4  1  0  0  0  0
  6  5  2  0  0  0  0
  6  9  1  0  0  0  0
  7  6  1  0  0  0  0
  8  7  1  0  0  0  0
  8 15  1  0  0  0  0
  9 10  2  0  0  0  0
 10  1  1  0  0  0  0
 10 17  1  0  0  0  0
 11 22  1  0  0  0  0
 12  5  1  0  0  0  0
 13  8  1  0  0  0  0
 14  8  1  0  0  0  0
 16  9  1  0  0  0  0
 18 19  1  0  0  0  0
 19 25  1  0  0  0  0
 19 24  1  0  0  0  0
 19 23  1  0  0  0  0
 20 18  2  0  0  0  0
 21 18  2  0  0  0  0
 22 18  1  0  0  0  0
M  RAD  3   2   2   3   3   4   2
M  END
