Coordinates from ORCA-job 4-MeOPhN2+~TfO-_B3LYPG-6-31G_dp-CH-Scan-d09-49-n800
 OpenBabel11261919093D

 25 24  0  0  0  0  0  0  0  0999 V2000
   -1.9845   -0.2888    0.4727 C   0  0  0  0  0  0  0  0  0  0  0  0
   -3.2965   -0.6621    0.6583 N   0  0  0  0  0  0  0  0  0  0  0  0
   -4.3129   -1.1027    0.8363 N   0  0  0  0  0  0  0  0  0  0  0  0
   -1.5587    1.0154    0.7982 C   0  0  0  0  0  0  0  0  0  0  0  0
   -0.2243    1.3186    0.6298 C   0  0  0  0  0  0  0  0  0  0  0  0
    0.6795    0.3568    0.1292 C   0  0  0  0  0  0  0  0  0  0  0  0
    1.9483    0.7714   -0.0012 O   0  0  0  0  0  0  0  0  0  0  0  0
    2.9361   -0.1260   -0.5150 C   0  0  0  0  0  0  0  0  0  0  0  0
    0.2316   -0.9412   -0.1954 C   0  0  0  0  0  0  0  0  0  0  0  0
   -1.1016   -1.2678   -0.0163 C   0  0  0  0  0  0  0  0  0  0  0  0
   -2.2691    1.7284    1.1472 H   0  0  0  0  0  0  0  0  0  0  0  0
    0.1536    2.3063    0.8669 H   0  0  0  0  0  0  0  0  0  0  0  0
    3.8671    0.4397   -0.5259 H   0  0  0  0  0  0  0  0  0  0  0  0
    2.6888   -0.4429   -1.5337 H   0  0  0  0  0  0  0  0  0  0  0  0
    3.0477   -1.0025    0.1322 H   0  0  0  0  0  0  0  0  0  0  0  0
    0.9127   -1.6884   -0.5808 H   0  0  0  0  0  0  0  0  0  0  0  0
   -1.4665   -2.2601   -0.2568 H   0  0  0  0  0  0  0  0  0  0  0  0
   -5.4556    1.8622    0.3878 S   0  0  0  0  0  0  0  0  0  0  0  0
   -5.0707    2.9888    1.8156 C   0  0  0  0  0  0  0  0  0  0  0  0
   -6.4482    2.5921   -0.4017 O   0  0  0  0  0  0  0  0  0  0  0  0
   -5.9294    0.6174    1.0631 O   0  0  0  0  0  0  0  0  0  0  0  0
   -4.1126    1.6799   -0.2378 O   0  0  0  0  0  0  0  0  0  0  0  0
   -4.6594    4.1893    1.3860 F   0  0  0  0  0  0  0  0  0  0  0  0
   -6.1269    3.1567    2.6155 F   0  0  0  0  0  0  0  0  0  0  0  0
   -4.0643    2.4583    2.5629 F   0  0  0  0  0  0  0  0  0  0  0  0
  1  2  1  0  0  0  0
  1  4  2  0  0  0  0
  2  3  1  0  0  0  0
  4 11  1  0  0  0  0
  5  4  1  0  0  0  0
  5 12  1  0  0  0  0
  6  5  2  0  0  0  0
  7  6  1  0  0  0  0
  8  7  1  0  0  0  0
  8 15  1  0  0  0  0
  9 10  2  0  0  0  0
  9  6  1  0  0  0  0
 10  1  1  0  0  0  0
 13  8  1  0  0  0  0
 14  8  1  0  0  0  0
 16  9  1  0  0  0  0
 17 10  1  0  0  0  0
 18 21  1  0  0  0  0
 18 19  1  0  0  0  0
 19 25  1  0  0  0  0
 19 24  1  0  0  0  0
 20 18  2  0  0  0  0
 22 18  2  0  0  0  0
 23 19  1  0  0  0  0
M  RAD  3   2   2   3   3  21   2
M  END
