Coordinates from ORCA-job 4-MeOPhN2+~TfO-_B3LYPG-6-31G_dp-CH-Scan-d09-49-n800
 OpenBabel11261919093D

 25 24  0  0  0  0  0  0  0  0999 V2000
   -1.4924   -0.3459    0.6807 C   0  0  0  0  0  0  0  0  0  0  0  0
   -2.8089   -0.5715    1.0218 N   0  0  0  0  0  0  0  0  0  0  0  0
   -3.8877   -0.6776    1.3136 N   0  0  0  0  0  0  0  0  0  0  0  0
   -1.1533    1.0269    0.6607 C   0  0  0  0  0  0  0  0  0  0  0  0
    0.2029    1.1765    0.3127 C   0  0  0  0  0  0  0  0  0  0  0  0
    1.0675    0.1077    0.0303 C   0  0  0  0  0  0  0  0  0  0  0  0
    2.3425    0.4355   -0.2914 O   0  0  0  0  0  0  0  0  0  0  0  0
    3.2839   -0.5899   -0.5856 C   0  0  0  0  0  0  0  0  0  0  0  0
    0.6165   -1.2441    0.0816 C   0  0  0  0  0  0  0  0  0  0  0  0
   -0.6944   -1.4900    0.4145 C   0  0  0  0  0  0  0  0  0  0  0  0
   -4.8865    3.8240   -0.7723 H   0  0  0  0  0  0  0  0  0  0  0  0
    0.6499    2.1696    0.2464 H   0  0  0  0  0  0  0  0  0  0  0  0
    4.2205   -0.0785   -0.8099 H   0  0  0  0  0  0  0  0  0  0  0  0
    2.9791   -1.1810   -1.4577 H   0  0  0  0  0  0  0  0  0  0  0  0
    3.4351   -1.2578    0.2715 H   0  0  0  0  0  0  0  0  0  0  0  0
    1.2836   -2.0685   -0.1359 H   0  0  0  0  0  0  0  0  0  0  0  0
   -1.0866   -2.5031    0.4676 H   0  0  0  0  0  0  0  0  0  0  0  0
   -6.1976    2.5990    0.4007 S   0  0  0  0  0  0  0  0  0  0  0  0
   -5.2994    2.5323    2.0348 C   0  0  0  0  0  0  0  0  0  0  0  0
   -7.6046    2.7900    0.6851 O   0  0  0  0  0  0  0  0  0  0  0  0
   -5.6821    1.5159   -0.4250 O   0  0  0  0  0  0  0  0  0  0  0  0
   -5.6192    4.0129   -0.1599 O   0  0  0  0  0  0  0  0  0  0  0  0
   -5.6076    3.6016    2.7627 F   0  0  0  0  0  0  0  0  0  0  0  0
   -5.6882    1.4262    2.6717 F   0  0  0  0  0  0  0  0  0  0  0  0
   -3.9886    2.4887    1.8183 F   0  0  0  0  0  0  0  0  0  0  0  0
  1  2  1  0  0  0  0
  2  3  1  0  0  0  0
  4  1  1  0  0  0  0
  5  4  2  0  0  0  0
  6  9  2  0  0  0  0
  6  5  1  0  0  0  0
  7  6  1  0  0  0  0
  8  7  1  0  0  0  0
  8 15  1  0  0  0  0
  9 10  1  0  0  0  0
 10 17  1  0  0  0  0
 10  1  2  0  0  0  0
 11 22  1  0  0  0  0
 12  5  1  0  0  0  0
 13  8  1  0  0  0  0
 14  8  1  0  0  0  0
 16  9  1  0  0  0  0
 18 20  2  0  0  0  0
 18 19  1  0  0  0  0
 19 24  1  0  0  0  0
 19 23  1  0  0  0  0
 21 18  2  0  0  0  0
 22 18  1  0  0  0  0
 25 19  1  0  0  0  0
M  RAD  3   2   2   3   3   4   2
M  END
