Coordinates from ORCA-job 4-MeOPhN2+~TfO-_B3LYPG-6-31G_dp-CH-Scan-d09-49-n800
 OpenBabel11261919093D

 25 24  0  0  0  0  0  0  0  0999 V2000
   -1.7822   -0.4203    0.5278 C   0  0  0  0  0  0  0  0  0  0  0  0
   -3.0481   -0.7967    0.9004 N   0  0  0  0  0  0  0  0  0  0  0  0
   -4.0917   -1.0668    1.2057 N   0  0  0  0  0  0  0  0  0  0  0  0
   -1.6202    0.9475    0.1893 C   0  0  0  0  0  0  0  0  0  0  0  0
   -0.2947    1.2274   -0.1658 C   0  0  0  0  0  0  0  0  0  0  0  0
    0.7326    0.2677   -0.1796 C   0  0  0  0  0  0  0  0  0  0  0  0
    1.9540    0.7102   -0.5442 O   0  0  0  0  0  0  0  0  0  0  0  0
    3.0557   -0.1932   -0.5807 C   0  0  0  0  0  0  0  0  0  0  0  0
    0.4770   -1.0859    0.1751 C   0  0  0  0  0  0  0  0  0  0  0  0
   -0.7998   -1.4452    0.5370 C   0  0  0  0  0  0  0  0  0  0  0  0
   -3.2495    2.4860    0.1313 H   0  0  0  0  0  0  0  0  0  0  0  0
   -0.0036    2.2360   -0.4547 H   0  0  0  0  0  0  0  0  0  0  0  0
    3.9140    0.4003   -0.8962 H   0  0  0  0  0  0  0  0  0  0  0  0
    2.8887   -1.0007   -1.3028 H   0  0  0  0  0  0  0  0  0  0  0  0
    3.2568   -0.6206    0.4087 H   0  0  0  0  0  0  0  0  0  0  0  0
    1.2634   -1.8297    0.1647 H   0  0  0  0  0  0  0  0  0  0  0  0
   -1.0400   -2.4672    0.8173 H   0  0  0  0  0  0  0  0  0  0  0  0
   -5.4033    2.5454    0.3247 S   0  0  0  0  0  0  0  0  0  0  0  0
   -5.4985    2.5060    2.1835 C   0  0  0  0  0  0  0  0  0  0  0  0
   -6.3934    3.5019   -0.1312 O   0  0  0  0  0  0  0  0  0  0  0  0
   -5.4098    1.1493   -0.1020 O   0  0  0  0  0  0  0  0  0  0  0  0
   -3.9603    3.1928    0.1350 O   0  0  0  0  0  0  0  0  0  0  0  0
   -5.3595    3.7301    2.6863 F   0  0  0  0  0  0  0  0  0  0  0  0
   -6.6801    2.0059    2.5476 F   0  0  0  0  0  0  0  0  0  0  0  0
   -4.5230    1.7186    2.6600 F   0  0  0  0  0  0  0  0  0  0  0  0
  1 10  1  0  0  0  0
  1  2  1  0  0  0  0
  2  3  1  0  0  0  0
  4  1  2  0  0  0  0
  5  4  1  0  0  0  0
  6  5  2  0  0  0  0
  6  9  1  0  0  0  0
  7  6  1  0  0  0  0
  8  7  1  0  0  0  0
  8 15  1  0  0  0  0
  9 10  2  0  0  0  0
 10 17  1  0  0  0  0
 11 22  1  0  0  0  0
 12  5  1  0  0  0  0
 13  8  1  0  0  0  0
 14  8  1  0  0  0  0
 16  9  1  0  0  0  0
 18 19  1  0  0  0  0
 19 24  1  0  0  0  0
 19 25  1  0  0  0  0
 19 23  1  0  0  0  0
 20 18  2  0  0  0  0
 21 18  2  0  0  0  0
 22 18  1  0  0  0  0
M  RAD  3   2   2   3   3   4   2
M  END
