Coordinates from ORCA-job 4-MeOPhN2+~TfO-_B3LYPG-6-31G_dp-CH-Scan-d09-49-n800
 OpenBabel11261919093D

 25 24  0  0  0  0  0  0  0  0999 V2000
   -1.4323   -0.2897    0.5961 C   0  0  0  0  0  0  0  0  0  0  0  0
   -2.7334   -0.4936    0.9995 N   0  0  0  0  0  0  0  0  0  0  0  0
   -3.7998   -0.5920    1.3352 N   0  0  0  0  0  0  0  0  0  0  0  0
   -1.1359    1.0640    0.3085 C   0  0  0  0  0  0  0  0  0  0  0  0
    0.2124    1.1847   -0.0779 C   0  0  0  0  0  0  0  0  0  0  0  0
    1.1099    0.1087   -0.1614 C   0  0  0  0  0  0  0  0  0  0  0  0
    2.3721    0.4088   -0.5505 O   0  0  0  0  0  0  0  0  0  0  0  0
    3.3447   -0.6241   -0.6581 C   0  0  0  0  0  0  0  0  0  0  0  0
    0.7017   -1.2215    0.1491 C   0  0  0  0  0  0  0  0  0  0  0  0
   -0.5983   -1.4384    0.5392 C   0  0  0  0  0  0  0  0  0  0  0  0
   -4.2691    3.6218   -0.2192 H   0  0  0  0  0  0  0  0  0  0  0  0
    0.6262    2.1595   -0.3392 H   0  0  0  0  0  0  0  0  0  0  0  0
    4.2650   -0.1339   -0.9776 H   0  0  0  0  0  0  0  0  0  0  0  0
    3.0575   -1.3730   -1.4059 H   0  0  0  0  0  0  0  0  0  0  0  0
    3.5170   -1.1188    0.3056 H   0  0  0  0  0  0  0  0  0  0  0  0
    1.3920   -2.0530    0.0836 H   0  0  0  0  0  0  0  0  0  0  0  0
   -0.9571   -2.4340    0.7893 H   0  0  0  0  0  0  0  0  0  0  0  0
   -6.1074    2.6890    0.3799 S   0  0  0  0  0  0  0  0  0  0  0  0
   -5.8055    2.4507    2.2046 C   0  0  0  0  0  0  0  0  0  0  0  0
   -7.4667    3.1629    0.2253 O   0  0  0  0  0  0  0  0  0  0  0  0
   -5.5819    1.5122   -0.2973 O   0  0  0  0  0  0  0  0  0  0  0  0
   -5.1232    3.9520    0.1113 O   0  0  0  0  0  0  0  0  0  0  0  0
   -6.1153    3.5608    2.8666 F   0  0  0  0  0  0  0  0  0  0  0  0
   -6.5688    1.4443    2.6264 F   0  0  0  0  0  0  0  0  0  0  0  0
   -4.5197    2.1515    2.4039 F   0  0  0  0  0  0  0  0  0  0  0  0
  1  2  1  0  0  0  0
  2  3  1  0  0  0  0
  4  1  2  0  0  0  0
  5  4  1  0  0  0  0
  6  5  2  0  0  0  0
  6  9  1  0  0  0  0
  7  6  1  0  0  0  0
  8  7  1  0  0  0  0
  8 15  1  0  0  0  0
  9 10  2  0  0  0  0
 10  1  1  0  0  0  0
 10 17  1  0  0  0  0
 11 22  1  0  0  0  0
 12  5  1  0  0  0  0
 13  8  1  0  0  0  0
 14  8  1  0  0  0  0
 16  9  1  0  0  0  0
 18 19  1  0  0  0  0
 19 25  1  0  0  0  0
 19 24  1  0  0  0  0
 19 23  1  0  0  0  0
 20 18  2  0  0  0  0
 21 18  2  0  0  0  0
 22 18  1  0  0  0  0
M  RAD  3   2   2   3   3   4   2
M  END
