Coordinates from ORCA-job 4-MeOPhN2+~TfO-_B3LYPG-6-31G_dp-CH-Scan-d09-49-n800
 OpenBabel11261919093D

 25 24  0  0  0  0  0  0  0  0999 V2000
   -1.7668   -0.4187    0.5233 C   0  0  0  0  0  0  0  0  0  0  0  0
   -3.0350   -0.7888    0.8949 N   0  0  0  0  0  0  0  0  0  0  0  0
   -4.0803   -1.0540    1.1993 N   0  0  0  0  0  0  0  0  0  0  0  0
   -1.6010    0.9482    0.1834 C   0  0  0  0  0  0  0  0  0  0  0  0
   -0.2738    1.2228   -0.1709 C   0  0  0  0  0  0  0  0  0  0  0  0
    0.7500    0.2595   -0.1822 C   0  0  0  0  0  0  0  0  0  0  0  0
    1.9738    0.6969   -0.5464 O   0  0  0  0  0  0  0  0  0  0  0  0
    3.0720   -0.2106   -0.5802 C   0  0  0  0  0  0  0  0  0  0  0  0
    0.4897   -1.0931    0.1740 C   0  0  0  0  0  0  0  0  0  0  0  0
   -0.7886   -1.4476    0.5352 C   0  0  0  0  0  0  0  0  0  0  0  0
   -3.2881    2.5349    0.1225 H   0  0  0  0  0  0  0  0  0  0  0  0
    0.0218    2.2298   -0.4610 H   0  0  0  0  0  0  0  0  0  0  0  0
    3.9330    0.3790   -0.8958 H   0  0  0  0  0  0  0  0  0  0  0  0
    2.9029   -1.0188   -1.3010 H   0  0  0  0  0  0  0  0  0  0  0  0
    3.2706   -0.6372    0.4101 H   0  0  0  0  0  0  0  0  0  0  0  0
    1.2737   -1.8394    0.1655 H   0  0  0  0  0  0  0  0  0  0  0  0
   -1.0326   -2.4685    0.8165 H   0  0  0  0  0  0  0  0  0  0  0  0
   -5.4383    2.5543    0.3309 S   0  0  0  0  0  0  0  0  0  0  0  0
   -5.5173    2.5080    2.1906 C   0  0  0  0  0  0  0  0  0  0  0  0
   -6.4450    3.4977   -0.1151 O   0  0  0  0  0  0  0  0  0  0  0  0
   -5.4233    1.1605   -0.1012 O   0  0  0  0  0  0  0  0  0  0  0  0
   -4.0059    3.2282    0.1319 O   0  0  0  0  0  0  0  0  0  0  0  0
   -5.3966    3.7331    2.6952 F   0  0  0  0  0  0  0  0  0  0  0  0
   -6.6869    1.9857    2.5616 F   0  0  0  0  0  0  0  0  0  0  0  0
   -4.5241    1.7370    2.6561 F   0  0  0  0  0  0  0  0  0  0  0  0
  1 10  1  0  0  0  0
  1  2  1  0  0  0  0
  2  3  1  0  0  0  0
  4  1  2  0  0  0  0
  5  4  1  0  0  0  0
  6  5  2  0  0  0  0
  6  9  1  0  0  0  0
  7  6  1  0  0  0  0
  8  7  1  0  0  0  0
  8 15  1  0  0  0  0
  9 10  2  0  0  0  0
 10 17  1  0  0  0  0
 11 22  1  0  0  0  0
 12  5  1  0  0  0  0
 13  8  1  0  0  0  0
 14  8  1  0  0  0  0
 16  9  1  0  0  0  0
 18 19  1  0  0  0  0
 19 24  1  0  0  0  0
 19 25  1  0  0  0  0
 19 23  1  0  0  0  0
 20 18  2  0  0  0  0
 21 18  2  0  0  0  0
 22 18  1  0  0  0  0
M  RAD  3   2   2   3   3   4   2
M  END
