Coordinates from ORCA-job 4-MeOPhN2+~TfO-_B3LYPG-6-31G_dp-CH-Scan-d09-49-n800
 OpenBabel11261919093D

 25 24  0  0  0  0  0  0  0  0999 V2000
   -1.5275   -0.3280    0.5705 C   0  0  0  0  0  0  0  0  0  0  0  0
   -2.8193   -0.5798    0.9718 N   0  0  0  0  0  0  0  0  0  0  0  0
   -3.8814   -0.7290    1.3012 N   0  0  0  0  0  0  0  0  0  0  0  0
   -1.2834    1.0228    0.2219 C   0  0  0  0  0  0  0  0  0  0  0  0
    0.0597    1.1852   -0.1624 C   0  0  0  0  0  0  0  0  0  0  0  0
    1.0042    0.1467   -0.1916 C   0  0  0  0  0  0  0  0  0  0  0  0
    2.2535    0.4837   -0.5887 O   0  0  0  0  0  0  0  0  0  0  0  0
    3.2715   -0.5095   -0.6455 C   0  0  0  0  0  0  0  0  0  0  0  0
    0.6518   -1.1833    0.1794 C   0  0  0  0  0  0  0  0  0  0  0  0
   -0.6406   -1.4381    0.5717 C   0  0  0  0  0  0  0  0  0  0  0  0
   -3.9086    3.3478   -0.0625 H   0  0  0  0  0  0  0  0  0  0  0  0
    0.4318    2.1641   -0.4664 H   0  0  0  0  0  0  0  0  0  0  0  0
    4.1697    0.0053   -0.9880 H   0  0  0  0  0  0  0  0  0  0  0  0
    3.0194   -1.3055   -1.3561 H   0  0  0  0  0  0  0  0  0  0  0  0
    3.4630   -0.9479    0.3413 H   0  0  0  0  0  0  0  0  0  0  0  0
    1.3776   -1.9863    0.1575 H   0  0  0  0  0  0  0  0  0  0  0  0
   -0.9571   -2.4357    0.8662 H   0  0  0  0  0  0  0  0  0  0  0  0
   -5.9032    2.6754    0.3652 S   0  0  0  0  0  0  0  0  0  0  0  0
   -5.7687    2.4439    2.2104 C   0  0  0  0  0  0  0  0  0  0  0  0
   -7.1742    3.3173    0.1014 O   0  0  0  0  0  0  0  0  0  0  0  0
   -5.4954    1.4189   -0.2470 O   0  0  0  0  0  0  0  0  0  0  0  0
   -4.7496    3.7917    0.1518 O   0  0  0  0  0  0  0  0  0  0  0  0
   -6.0114    3.5915    2.8356 F   0  0  0  0  0  0  0  0  0  0  0  0
   -6.6598    1.5281    2.5858 F   0  0  0  0  0  0  0  0  0  0  0  0
   -4.5381    2.0195    2.5133 F   0  0  0  0  0  0  0  0  0  0  0  0
  1 10  1  0  0  0  0
  1  2  1  0  0  0  0
  2  3  1  0  0  0  0
  4  1  2  0  0  0  0
  5  4  1  0  0  0  0
  6  5  2  0  0  0  0
  6  9  1  0  0  0  0
  7  6  1  0  0  0  0
  8  7  1  0  0  0  0
  8 15  1  0  0  0  0
  9 10  2  0  0  0  0
 10 17  1  0  0  0  0
 11 22  1  0  0  0  0
 12  5  1  0  0  0  0
 13  8  1  0  0  0  0
 14  8  1  0  0  0  0
 16  9  1  0  0  0  0
 18 19  1  0  0  0  0
 19 25  1  0  0  0  0
 19 24  1  0  0  0  0
 19 23  1  0  0  0  0
 20 18  2  0  0  0  0
 21 18  2  0  0  0  0
 22 18  1  0  0  0  0
M  RAD  3   2   2   3   3   4   2
M  END
