Coordinates from ORCA-job 4-MeOPhN2+~TfO-_B3LYPG-6-31G_dp-CH-Scan-d09-49-n800
 OpenBabel11261919093D

 25 24  0  0  0  0  0  0  0  0999 V2000
   -1.5143   -0.3253    0.5719 C   0  0  0  0  0  0  0  0  0  0  0  0
   -2.8075   -0.5714    0.9731 N   0  0  0  0  0  0  0  0  0  0  0  0
   -3.8705   -0.7145    1.3025 N   0  0  0  0  0  0  0  0  0  0  0  0
   -1.2653    1.0257    0.2276 C   0  0  0  0  0  0  0  0  0  0  0  0
    0.0786    1.1833   -0.1568 C   0  0  0  0  0  0  0  0  0  0  0  0
    1.0184    0.1408   -0.1899 C   0  0  0  0  0  0  0  0  0  0  0  0
    2.2691    0.4735   -0.5867 O   0  0  0  0  0  0  0  0  0  0  0  0
    3.2826   -0.5239   -0.6474 C   0  0  0  0  0  0  0  0  0  0  0  0
    0.6605   -1.1890    0.1770 C   0  0  0  0  0  0  0  0  0  0  0  0
   -0.6328   -1.4395    0.5692 C   0  0  0  0  0  0  0  0  0  0  0  0
   -3.9506    3.3861   -0.0782 H   0  0  0  0  0  0  0  0  0  0  0  0
    0.4549    2.1615   -0.4578 H   0  0  0  0  0  0  0  0  0  0  0  0
    4.1829   -0.0120   -0.9887 H   0  0  0  0  0  0  0  0  0  0  0  0
    3.0266   -1.3164   -1.3606 H   0  0  0  0  0  0  0  0  0  0  0  0
    3.4727   -0.9667    0.3378 H   0  0  0  0  0  0  0  0  0  0  0  0
    1.3830   -1.9949    0.1521 H   0  0  0  0  0  0  0  0  0  0  0  0
   -0.9534   -2.4367    0.8608 H   0  0  0  0  0  0  0  0  0  0  0  0
   -5.9293    2.6800    0.3681 S   0  0  0  0  0  0  0  0  0  0  0  0
   -5.7794    2.4455    2.2119 C   0  0  0  0  0  0  0  0  0  0  0  0
   -7.2121    3.3021    0.1144 O   0  0  0  0  0  0  0  0  0  0  0  0
   -5.5042    1.4330   -0.2514 O   0  0  0  0  0  0  0  0  0  0  0  0
   -4.7946    3.8158    0.1512 O   0  0  0  0  0  0  0  0  0  0  0  0
   -6.0313    3.5888    2.8412 F   0  0  0  0  0  0  0  0  0  0  0  0
   -6.6574    1.5185    2.5906 F   0  0  0  0  0  0  0  0  0  0  0  0
   -4.5422    2.0346    2.5053 F   0  0  0  0  0  0  0  0  0  0  0  0
  1  2  1  0  0  0  0
  2  3  1  0  0  0  0
  4  1  2  0  0  0  0
  5  4  1  0  0  0  0
  6  5  2  0  0  0  0
  6  9  1  0  0  0  0
  7  6  1  0  0  0  0
  8  7  1  0  0  0  0
  8 15  1  0  0  0  0
  9 10  2  0  0  0  0
 10  1  1  0  0  0  0
 10 17  1  0  0  0  0
 11 22  1  0  0  0  0
 12  5  1  0  0  0  0
 13  8  1  0  0  0  0
 14  8  1  0  0  0  0
 16  9  1  0  0  0  0
 18 19  1  0  0  0  0
 19 25  1  0  0  0  0
 19 24  1  0  0  0  0
 19 23  1  0  0  0  0
 20 18  2  0  0  0  0
 21 18  2  0  0  0  0
 22 18  1  0  0  0  0
M  RAD  3   2   2   3   3   4   2
M  END
