Coordinates from ORCA-job 4-MeOPhN2+~TfO-_B3LYPG-6-31G_dp-CH-Scan-d09-49-n800
 OpenBabel11261919093D

 25 24  0  0  0  0  0  0  0  0999 V2000
   -1.6560   -0.4050    0.4720 C   0  0  0  0  0  0  0  0  0  0  0  0
   -2.9452   -0.7239    0.8254 N   0  0  0  0  0  0  0  0  0  0  0  0
   -4.0086   -0.9349    1.1125 N   0  0  0  0  0  0  0  0  0  0  0  0
   -1.4611    0.9513    0.1096 C   0  0  0  0  0  0  0  0  0  0  0  0
   -0.1160    1.1801   -0.2237 C   0  0  0  0  0  0  0  0  0  0  0  0
    0.8820    0.1921   -0.1953 C   0  0  0  0  0  0  0  0  0  0  0  0
    2.1263    0.5893   -0.5448 O   0  0  0  0  0  0  0  0  0  0  0  0
    3.1987   -0.3474   -0.5379 C   0  0  0  0  0  0  0  0  0  0  0  0
    0.5826   -1.1479    0.1835 C   0  0  0  0  0  0  0  0  0  0  0  0
   -0.7104   -1.4638    0.5264 C   0  0  0  0  0  0  0  0  0  0  0  0
   -3.6767    2.9687   -0.0819 H   0  0  0  0  0  0  0  0  0  0  0  0
    0.2153    2.1726   -0.5290 H   0  0  0  0  0  0  0  0  0  0  0  0
    4.0820    0.2111   -0.8490 H   0  0  0  0  0  0  0  0  0  0  0  0
    3.0225   -1.1668   -1.2445 H   0  0  0  0  0  0  0  0  0  0  0  0
    3.3677   -0.7587    0.4644 H   0  0  0  0  0  0  0  0  0  0  0  0
    1.3488   -1.9123    0.2056 H   0  0  0  0  0  0  0  0  0  0  0  0
   -0.9864   -2.4722    0.8241 H   0  0  0  0  0  0  0  0  0  0  0  0
   -5.7477    2.6349    0.3906 S   0  0  0  0  0  0  0  0  0  0  0  0
   -5.5778    2.4962    2.2414 C   0  0  0  0  0  0  0  0  0  0  0  0
   -6.9196    3.4435    0.1243 O   0  0  0  0  0  0  0  0  0  0  0  0
   -5.5676    1.2910   -0.1421 O   0  0  0  0  0  0  0  0  0  0  0  0
   -4.4556    3.5431    0.0652 O   0  0  0  0  0  0  0  0  0  0  0  0
   -5.5791    3.7034    2.7978 F   0  0  0  0  0  0  0  0  0  0  0  0
   -6.6021    1.7839    2.7098 F   0  0  0  0  0  0  0  0  0  0  0  0
   -4.4320    1.8705    2.5326 F   0  0  0  0  0  0  0  0  0  0  0  0
  1 10  1  0  0  0  0
  1  2  1  0  0  0  0
  2  3  1  0  0  0  0
  4  1  2  0  0  0  0
  5  6  2  0  0  0  0
  5  4  1  0  0  0  0
  6  9  1  0  0  0  0
  7  8  1  0  0  0  0
  7  6  1  0  0  0  0
  8 15  1  0  0  0  0
  9 16  1  0  0  0  0
  9 10  2  0  0  0  0
 10 17  1  0  0  0  0
 11 22  1  0  0  0  0
 12  5  1  0  0  0  0
 13  8  1  0  0  0  0
 14  8  1  0  0  0  0
 18 19  1  0  0  0  0
 19 25  1  0  0  0  0
 19 24  1  0  0  0  0
 19 23  1  0  0  0  0
 20 18  2  0  0  0  0
 21 18  2  0  0  0  0
 22 18  1  0  0  0  0
M  RAD  3   2   2   3   3   4   2
M  END
