Coordinates from ORCA-job 4-MeOPhN2+~TfO-_B3LYPG-6-31G_dp-CH-Scan-d09-49-n800
 OpenBabel11261919093D

 25 24  0  0  0  0  0  0  0  0999 V2000
   -1.7957   -0.4232    0.5322 C   0  0  0  0  0  0  0  0  0  0  0  0
   -3.0592   -0.8059    0.9058 N   0  0  0  0  0  0  0  0  0  0  0  0
   -4.1011   -1.0812    1.2119 N   0  0  0  0  0  0  0  0  0  0  0  0
   -1.6373    0.9459    0.1962 C   0  0  0  0  0  0  0  0  0  0  0  0
   -0.3137    1.2313   -0.1598 C   0  0  0  0  0  0  0  0  0  0  0  0
    0.7169    0.2750   -0.1769 C   0  0  0  0  0  0  0  0  0  0  0  0
    1.9361    0.7226   -0.5420 O   0  0  0  0  0  0  0  0  0  0  0  0
    3.0410   -0.1768   -0.5821 C   0  0  0  0  0  0  0  0  0  0  0  0
    0.4661   -1.0800    0.1749 C   0  0  0  0  0  0  0  0  0  0  0  0
   -0.8093   -1.4440    0.5377 C   0  0  0  0  0  0  0  0  0  0  0  0
   -3.2136    2.4387    0.1427 H   0  0  0  0  0  0  0  0  0  0  0  0
   -0.0268    2.2415   -0.4467 H   0  0  0  0  0  0  0  0  0  0  0  0
    3.8967    0.4206   -0.8971 H   0  0  0  0  0  0  0  0  0  0  0  0
    2.8759   -0.9830   -1.3060 H   0  0  0  0  0  0  0  0  0  0  0  0
    3.2447   -0.6059    0.4060 H   0  0  0  0  0  0  0  0  0  0  0  0
    1.2546   -1.8213    0.1620 H   0  0  0  0  0  0  0  0  0  0  0  0
   -1.0457   -2.4674    0.8160 H   0  0  0  0  0  0  0  0  0  0  0  0
   -5.3710    2.5372    0.3191 S   0  0  0  0  0  0  0  0  0  0  0  0
   -5.4837    2.5072    2.1769 C   0  0  0  0  0  0  0  0  0  0  0  0
   -6.3445    3.5053   -0.1487 O   0  0  0  0  0  0  0  0  0  0  0  0
   -5.3977    1.1388   -0.1006 O   0  0  0  0  0  0  0  0  0  0  0  0
   -3.9182    3.1586    0.1395 O   0  0  0  0  0  0  0  0  0  0  0  0
   -5.3295    3.7309    2.6766 F   0  0  0  0  0  0  0  0  0  0  0  0
   -6.6760    2.0274    2.5337 F   0  0  0  0  0  0  0  0  0  0  0  0
   -4.5248    1.7064    2.6659 F   0  0  0  0  0  0  0  0  0  0  0  0
  1 10  1  0  0  0  0
  1  2  1  0  0  0  0
  2  3  1  0  0  0  0
  4  1  2  0  0  0  0
  5  4  1  0  0  0  0
  6  5  2  0  0  0  0
  6  9  1  0  0  0  0
  7  6  1  0  0  0  0
  8  7  1  0  0  0  0
  8 15  1  0  0  0  0
  9 10  2  0  0  0  0
 10 17  1  0  0  0  0
 12  5  1  0  0  0  0
 13  8  1  0  0  0  0
 14  8  1  0  0  0  0
 16  9  1  0  0  0  0
 18 19  1  0  0  0  0
 19 24  1  0  0  0  0
 19 25  1  0  0  0  0
 19 23  1  0  0  0  0
 20 18  2  0  0  0  0
 21 18  2  0  0  0  0
 22 11  1  0  0  0  0
 22 18  1  0  0  0  0
M  RAD  3   2   2   3   3   4   2
M  END
