Coordinates from ORCA-job 4-MeOPhN2+~TfO-_B3LYPG-6-31G_dp-CH-Scan-d09-49-n800
 OpenBabel11261919093D

 25 24  0  0  0  0  0  0  0  0999 V2000
   -1.4978   -0.3210    0.5741 C   0  0  0  0  0  0  0  0  0  0  0  0
   -2.7927   -0.5597    0.9752 N   0  0  0  0  0  0  0  0  0  0  0  0
   -3.8567   -0.6947    1.3049 N   0  0  0  0  0  0  0  0  0  0  0  0
   -1.2420    1.0300    0.2357 C   0  0  0  0  0  0  0  0  0  0  0  0
    0.1028    1.1813   -0.1489 C   0  0  0  0  0  0  0  0  0  0  0  0
    1.0364    0.1335   -0.1873 C   0  0  0  0  0  0  0  0  0  0  0  0
    2.2889    0.4606   -0.5835 O   0  0  0  0  0  0  0  0  0  0  0  0
    3.2963   -0.5425   -0.6496 C   0  0  0  0  0  0  0  0  0  0  0  0
    0.6711   -1.1959    0.1740 C   0  0  0  0  0  0  0  0  0  0  0  0
   -0.6233   -1.4408    0.5660 C   0  0  0  0  0  0  0  0  0  0  0  0
   -4.0060    3.4339   -0.0999 H   0  0  0  0  0  0  0  0  0  0  0  0
    0.4848    2.1586   -0.4459 H   0  0  0  0  0  0  0  0  0  0  0  0
    4.1996   -0.0345   -0.9891 H   0  0  0  0  0  0  0  0  0  0  0  0
    3.0353   -1.3302   -1.3662 H   0  0  0  0  0  0  0  0  0  0  0  0
    3.4845   -0.9911    0.3334 H   0  0  0  0  0  0  0  0  0  0  0  0
    1.3890   -2.0058    0.1450 H   0  0  0  0  0  0  0  0  0  0  0  0
   -0.9496   -2.4373    0.8535 H   0  0  0  0  0  0  0  0  0  0  0  0
   -5.9634    2.6859    0.3716 S   0  0  0  0  0  0  0  0  0  0  0  0
   -5.7910    2.4465    2.2129 C   0  0  0  0  0  0  0  0  0  0  0  0
   -7.2607    3.2833    0.1330 O   0  0  0  0  0  0  0  0  0  0  0  0
   -5.5180    1.4515   -0.2588 O   0  0  0  0  0  0  0  0  0  0  0  0
   -4.8529    3.8456    0.1497 O   0  0  0  0  0  0  0  0  0  0  0  0
   -6.0545    3.5836    2.8488 F   0  0  0  0  0  0  0  0  0  0  0  0
   -6.6509    1.5046    2.5963 F   0  0  0  0  0  0  0  0  0  0  0  0
   -4.5449    2.0537    2.4922 F   0  0  0  0  0  0  0  0  0  0  0  0
  1  2  1  0  0  0  0
  2  3  1  0  0  0  0
  4  1  2  0  0  0  0
  5  4  1  0  0  0  0
  6  5  2  0  0  0  0
  6  9  1  0  0  0  0
  7  6  1  0  0  0  0
  8  7  1  0  0  0  0
  8 15  1  0  0  0  0
  9 10  2  0  0  0  0
 10  1  1  0  0  0  0
 10 17  1  0  0  0  0
 11 22  1  0  0  0  0
 12  5  1  0  0  0  0
 13  8  1  0  0  0  0
 14  8  1  0  0  0  0
 16  9  1  0  0  0  0
 18 19  1  0  0  0  0
 19 25  1  0  0  0  0
 19 24  1  0  0  0  0
 19 23  1  0  0  0  0
 20 18  2  0  0  0  0
 21 18  2  0  0  0  0
 22 18  1  0  0  0  0
M  RAD  3   2   2   3   3   4   2
M  END
