Coordinates from ORCA-job 4-MeOPhN2+~TfO-_B3LYPG-6-31G_dp-CH-Scan-d09-49-n800
 OpenBabel11261919093D

 25 24  0  0  0  0  0  0  0  0999 V2000
   -1.8422   -0.3715    0.6611 C   0  0  0  0  0  0  0  0  0  0  0  0
   -3.0843   -0.7585    1.0922 N   0  0  0  0  0  0  0  0  0  0  0  0
   -4.1070   -1.0425    1.4455 N   0  0  0  0  0  0  0  0  0  0  0  0
   -1.6670    1.0010    0.3504 C   0  0  0  0  0  0  0  0  0  0  0  0
   -0.3702    1.2941   -0.0675 C   0  0  0  0  0  0  0  0  0  0  0  0
    0.6478    0.3270   -0.1681 C   0  0  0  0  0  0  0  0  0  0  0  0
    1.8457    0.7738   -0.5871 O   0  0  0  0  0  0  0  0  0  0  0  0
    2.9384   -0.1347   -0.7189 C   0  0  0  0  0  0  0  0  0  0  0  0
    0.3967   -1.0317    0.1600 C   0  0  0  0  0  0  0  0  0  0  0  0
   -0.8623   -1.3924    0.5822 C   0  0  0  0  0  0  0  0  0  0  0  0
   -2.8433    2.1365    0.4058 H   0  0  0  0  0  0  0  0  0  0  0  0
   -0.0998    2.3116   -0.3399 H   0  0  0  0  0  0  0  0  0  0  0  0
    3.7784    0.4648   -1.0693 H   0  0  0  0  0  0  0  0  0  0  0  0
    2.7190   -0.9177   -1.4532 H   0  0  0  0  0  0  0  0  0  0  0  0
    3.1957   -0.5912    0.2437 H   0  0  0  0  0  0  0  0  0  0  0  0
    1.1726   -1.7825    0.0831 H   0  0  0  0  0  0  0  0  0  0  0  0
   -1.0940   -2.4206    0.8441 H   0  0  0  0  0  0  0  0  0  0  0  0
   -5.0626    2.4834    0.2791 S   0  0  0  0  0  0  0  0  0  0  0  0
   -5.5776    2.4685    2.0649 C   0  0  0  0  0  0  0  0  0  0  0  0
   -5.8883    3.4852   -0.3772 O   0  0  0  0  0  0  0  0  0  0  0  0
   -5.1209    1.0768   -0.1378 O   0  0  0  0  0  0  0  0  0  0  0  0
   -3.5899    2.9677    0.4198 O   0  0  0  0  0  0  0  0  0  0  0  0
   -5.4570    3.6794    2.6094 F   0  0  0  0  0  0  0  0  0  0  0  0
   -6.8465    2.0648    2.1676 F   0  0  0  0  0  0  0  0  0  0  0  0
   -4.7970    1.6077    2.7472 F   0  0  0  0  0  0  0  0  0  0  0  0
  1  2  1  0  0  0  0
  2  3  1  0  0  0  0
  4  1  2  0  0  0  0
  5  4  1  0  0  0  0
  6  5  2  0  0  0  0
  6  9  1  0  0  0  0
  7  6  1  0  0  0  0
  8  7  1  0  0  0  0
  8 15  1  0  0  0  0
  9 10  2  0  0  0  0
 10  1  1  0  0  0  0
 10 17  1  0  0  0  0
 11 22  1  0  0  0  0
 12  5  1  0  0  0  0
 13  8  1  0  0  0  0
 14  8  1  0  0  0  0
 16  9  1  0  0  0  0
 18 22  1  0  0  0  0
 18 19  1  0  0  0  0
 19 24  1  0  0  0  0
 19 23  1  0  0  0  0
 19 25  1  0  0  0  0
 20 18  2  0  0  0  0
 21 18  2  0  0  0  0
M  RAD  3   2   2   3   3   4   2
M  END
