Coordinates from ORCA-job 4-MeOPhN2+~TfO-_B3LYPG-6-31G_dp-CH-Scan-d09-49-n800
 OpenBabel11261919093D

 25 24  0  0  0  0  0  0  0  0999 V2000
   -1.5253   -0.3418    0.6615 C   0  0  0  0  0  0  0  0  0  0  0  0
   -2.8320   -0.5781    1.0301 N   0  0  0  0  0  0  0  0  0  0  0  0
   -3.9036   -0.6949    1.3429 N   0  0  0  0  0  0  0  0  0  0  0  0
   -1.2208    1.0344    0.5407 C   0  0  0  0  0  0  0  0  0  0  0  0
    0.1302    1.1920    0.1767 C   0  0  0  0  0  0  0  0  0  0  0  0
    1.0213    0.1280   -0.0318 C   0  0  0  0  0  0  0  0  0  0  0  0
    2.2871    0.4642   -0.3794 O   0  0  0  0  0  0  0  0  0  0  0  0
    3.2543   -0.5554   -0.6015 C   0  0  0  0  0  0  0  0  0  0  0  0
    0.6043   -1.2273    0.1163 C   0  0  0  0  0  0  0  0  0  0  0  0
   -0.6989   -1.4812    0.4724 C   0  0  0  0  0  0  0  0  0  0  0  0
   -4.5581    3.7608   -0.6065 H   0  0  0  0  0  0  0  0  0  0  0  0
    0.5517    2.1885    0.0366 H   0  0  0  0  0  0  0  0  0  0  0  0
    4.1792   -0.0374   -0.8576 H   0  0  0  0  0  0  0  0  0  0  0  0
    2.9671   -1.2112   -1.4322 H   0  0  0  0  0  0  0  0  0  0  0  0
    3.4181   -1.1600    0.2991 H   0  0  0  0  0  0  0  0  0  0  0  0
    1.2906   -2.0487   -0.0463 H   0  0  0  0  0  0  0  0  0  0  0  0
   -1.0651   -2.4973    0.5996 H   0  0  0  0  0  0  0  0  0  0  0  0
   -6.0867    2.6136    0.3692 S   0  0  0  0  0  0  0  0  0  0  0  0
   -5.3734    2.4734    2.0879 C   0  0  0  0  0  0  0  0  0  0  0  0
   -7.4994    2.8998    0.5070 O   0  0  0  0  0  0  0  0  0  0  0  0
   -5.5619    1.4996   -0.4080 O   0  0  0  0  0  0  0  0  0  0  0  0
   -5.3631    3.9887   -0.1094 O   0  0  0  0  0  0  0  0  0  0  0  0
   -5.6996    3.5461    2.8026 F   0  0  0  0  0  0  0  0  0  0  0  0
   -5.8827    1.3800    2.6569 F   0  0  0  0  0  0  0  0  0  0  0  0
   -4.0493    2.3633    2.0103 F   0  0  0  0  0  0  0  0  0  0  0  0
  1  2  1  0  0  0  0
  2  3  1  0  0  0  0
  4  1  1  0  0  0  0
  5  4  2  0  0  0  0
  6  9  2  0  0  0  0
  6  5  1  0  0  0  0
  7  6  1  0  0  0  0
  8  7  1  0  0  0  0
  8 15  1  0  0  0  0
  9 10  1  0  0  0  0
 10 17  1  0  0  0  0
 10  1  2  0  0  0  0
 11 22  1  0  0  0  0
 12  5  1  0  0  0  0
 13  8  1  0  0  0  0
 14  8  1  0  0  0  0
 16  9  1  0  0  0  0
 18 20  2  0  0  0  0
 18 19  1  0  0  0  0
 19 24  1  0  0  0  0
 19 23  1  0  0  0  0
 21 18  2  0  0  0  0
 22 18  1  0  0  0  0
 25 19  1  0  0  0  0
M  RAD  3   2   2   3   3   4   2
M  END
