Coordinates from ORCA-job 4-MeOPhN2+~TfO-_B3LYPG-6-31G_dp-CH-Scan-d09-49-n800
 OpenBabel11261919093D

 25 24  0  0  0  0  0  0  0  0999 V2000
   -1.6250   -0.3927    0.4729 C   0  0  0  0  0  0  0  0  0  0  0  0
   -2.9180   -0.6978    0.8270 N   0  0  0  0  0  0  0  0  0  0  0  0
   -3.9837   -0.8970    1.1149 N   0  0  0  0  0  0  0  0  0  0  0  0
   -1.4198    0.9602    0.1050 C   0  0  0  0  0  0  0  0  0  0  0  0
   -0.0723    1.1742   -0.2308 C   0  0  0  0  0  0  0  0  0  0  0  0
    0.9163    0.1771   -0.1994 C   0  0  0  0  0  0  0  0  0  0  0  0
    2.1642    0.5607   -0.5530 O   0  0  0  0  0  0  0  0  0  0  0  0
    3.2271   -0.3865   -0.5438 C   0  0  0  0  0  0  0  0  0  0  0  0
    0.6054   -1.1585    0.1863 C   0  0  0  0  0  0  0  0  0  0  0  0
   -0.6901   -1.4609    0.5321 C   0  0  0  0  0  0  0  0  0  0  0  0
   -3.7612    3.0690   -0.1017 H   0  0  0  0  0  0  0  0  0  0  0  0
    0.2685    2.1621   -0.5409 H   0  0  0  0  0  0  0  0  0  0  0  0
    4.1152    0.1613   -0.8602 H   0  0  0  0  0  0  0  0  0  0  0  0
    3.0412   -1.2080   -1.2455 H   0  0  0  0  0  0  0  0  0  0  0  0
    3.3948   -0.7943    0.4602 H   0  0  0  0  0  0  0  0  0  0  0  0
    1.3646   -1.9297    0.2114 H   0  0  0  0  0  0  0  0  0  0  0  0
   -0.9752   -2.4653    0.8348 H   0  0  0  0  0  0  0  0  0  0  0  0
   -5.8089    2.6516    0.3993 S   0  0  0  0  0  0  0  0  0  0  0  0
   -5.6129    2.4897    2.2458 C   0  0  0  0  0  0  0  0  0  0  0  0
   -7.0111    3.4222    0.1579 O   0  0  0  0  0  0  0  0  0  0  0  0
   -5.5826    1.3257   -0.1594 O   0  0  0  0  0  0  0  0  0  0  0  0
   -4.5526    3.6134    0.0767 O   0  0  0  0  0  0  0  0  0  0  0  0
   -5.6524    3.6873    2.8210 F   0  0  0  0  0  0  0  0  0  0  0  0
   -6.6054    1.7329    2.7124 F   0  0  0  0  0  0  0  0  0  0  0  0
   -4.4419    1.9023    2.5143 F   0  0  0  0  0  0  0  0  0  0  0  0
  1 10  1  0  0  0  0
  1  2  1  0  0  0  0
  2  3  1  0  0  0  0
  4  1  2  0  0  0  0
  5  6  2  0  0  0  0
  5  4  1  0  0  0  0
  6  9  1  0  0  0  0
  7  8  1  0  0  0  0
  7  6  1  0  0  0  0
  8 15  1  0  0  0  0
  9 16  1  0  0  0  0
  9 10  2  0  0  0  0
 10 17  1  0  0  0  0
 11 22  1  0  0  0  0
 12  5  1  0  0  0  0
 13  8  1  0  0  0  0
 14  8  1  0  0  0  0
 18 19  1  0  0  0  0
 19 25  1  0  0  0  0
 19 24  1  0  0  0  0
 19 23  1  0  0  0  0
 20 18  2  0  0  0  0
 21 18  2  0  0  0  0
 22 18  1  0  0  0  0
M  RAD  3   2   2   3   3   4   2
M  END
