Coordinates from ORCA-job 4-MeOPhN2+~TfO-_B3LYPG-6-31G_dp-CH-Scan-d09-49-n800
 OpenBabel11261919093D

 25 24  0  0  0  0  0  0  0  0999 V2000
   -1.6592   -0.4034    0.4708 C   0  0  0  0  0  0  0  0  0  0  0  0
   -2.9480   -0.7249    0.8235 N   0  0  0  0  0  0  0  0  0  0  0  0
   -4.0101   -0.9400    1.1125 N   0  0  0  0  0  0  0  0  0  0  0  0
   -1.4633    0.9530    0.1104 C   0  0  0  0  0  0  0  0  0  0  0  0
   -0.1185    1.1825   -0.2225 C   0  0  0  0  0  0  0  0  0  0  0  0
    0.8796    0.1944   -0.1950 C   0  0  0  0  0  0  0  0  0  0  0  0
    2.1240    0.5922   -0.5435 O   0  0  0  0  0  0  0  0  0  0  0  0
    3.1965   -0.3444   -0.5371 C   0  0  0  0  0  0  0  0  0  0  0  0
    0.5800   -1.1459    0.1819 C   0  0  0  0  0  0  0  0  0  0  0  0
   -0.7132   -1.4620    0.5242 C   0  0  0  0  0  0  0  0  0  0  0  0
   -3.6684    2.9523   -0.0795 H   0  0  0  0  0  0  0  0  0  0  0  0
    0.2127    2.1753   -0.5264 H   0  0  0  0  0  0  0  0  0  0  0  0
    4.0799    0.2145   -0.8470 H   0  0  0  0  0  0  0  0  0  0  0  0
    3.0208   -1.1630   -1.2449 H   0  0  0  0  0  0  0  0  0  0  0  0
    3.3648   -0.7570    0.4648 H   0  0  0  0  0  0  0  0  0  0  0  0
    1.3460   -1.9105    0.2033 H   0  0  0  0  0  0  0  0  0  0  0  0
   -0.9893   -2.4709    0.8202 H   0  0  0  0  0  0  0  0  0  0  0  0
   -5.7416    2.6310    0.3903 S   0  0  0  0  0  0  0  0  0  0  0  0
   -5.5759    2.4983    2.2418 C   0  0  0  0  0  0  0  0  0  0  0  0
   -6.9091    3.4443    0.1188 O   0  0  0  0  0  0  0  0  0  0  0  0
   -5.5679    1.2837   -0.1361 O   0  0  0  0  0  0  0  0  0  0  0  0
   -4.4451    3.5312    0.0635 O   0  0  0  0  0  0  0  0  0  0  0  0
   -5.5708    3.7075    2.7938 F   0  0  0  0  0  0  0  0  0  0  0  0
   -6.6054    1.7941    2.7113 F   0  0  0  0  0  0  0  0  0  0  0  0
   -4.4344    1.8665    2.5380 F   0  0  0  0  0  0  0  0  0  0  0  0
  1 10  1  0  0  0  0
  1  2  1  0  0  0  0
  2  3  1  0  0  0  0
  4  1  2  0  0  0  0
  5  6  2  0  0  0  0
  5  4  1  0  0  0  0
  6  9  1  0  0  0  0
  7  8  1  0  0  0  0
  7  6  1  0  0  0  0
  8 15  1  0  0  0  0
  9 16  1  0  0  0  0
  9 10  2  0  0  0  0
 10 17  1  0  0  0  0
 11 22  1  0  0  0  0
 12  5  1  0  0  0  0
 13  8  1  0  0  0  0
 14  8  1  0  0  0  0
 18 19  1  0  0  0  0
 19 25  1  0  0  0  0
 19 24  1  0  0  0  0
 19 23  1  0  0  0  0
 20 18  2  0  0  0  0
 21 18  2  0  0  0  0
 22 18  1  0  0  0  0
M  RAD  3   2   2   3   3   4   2
M  END
