Coordinates from ORCA-job 4-MeOPhN2+~TfO-_B3LYPG-6-31G_dp-CH-Scan-d09-49-n800
 OpenBabel11261919093D

 25 24  0  0  0  0  0  0  0  0999 V2000
   -1.9864   -0.2886    0.4732 C   0  0  0  0  0  0  0  0  0  0  0  0
   -3.2983   -0.6625    0.6587 N   0  0  0  0  0  0  0  0  0  0  0  0
   -4.3147   -1.1031    0.8369 N   0  0  0  0  0  0  0  0  0  0  0  0
   -1.5620    1.0166    0.7969 C   0  0  0  0  0  0  0  0  0  0  0  0
   -0.2277    1.3200    0.6281 C   0  0  0  0  0  0  0  0  0  0  0  0
    0.6770    0.3583    0.1290 C   0  0  0  0  0  0  0  0  0  0  0  0
    1.9455    0.7737   -0.0019 O   0  0  0  0  0  0  0  0  0  0  0  0
    2.9340   -0.1237   -0.5141 C   0  0  0  0  0  0  0  0  0  0  0  0
    0.2302   -0.9405   -0.1937 C   0  0  0  0  0  0  0  0  0  0  0  0
   -1.1029   -1.2677   -0.0143 C   0  0  0  0  0  0  0  0  0  0  0  0
   -2.2620    1.7198    1.1412 H   0  0  0  0  0  0  0  0  0  0  0  0
    0.1495    2.3084    0.8639 H   0  0  0  0  0  0  0  0  0  0  0  0
    3.8646    0.4427   -0.5258 H   0  0  0  0  0  0  0  0  0  0  0  0
    2.6871   -0.4424   -1.5323 H   0  0  0  0  0  0  0  0  0  0  0  0
    3.0463   -0.9991    0.1345 H   0  0  0  0  0  0  0  0  0  0  0  0
    0.9119   -1.6878   -0.5779 H   0  0  0  0  0  0  0  0  0  0  0  0
   -1.4671   -2.2606   -0.2534 H   0  0  0  0  0  0  0  0  0  0  0  0
   -5.4538    1.8628    0.3865 S   0  0  0  0  0  0  0  0  0  0  0  0
   -5.0660    2.9862    1.8161 C   0  0  0  0  0  0  0  0  0  0  0  0
   -6.4445    2.5962   -0.4021 O   0  0  0  0  0  0  0  0  0  0  0  0
   -5.9306    0.6181    1.0600 O   0  0  0  0  0  0  0  0  0  0  0  0
   -4.1112    1.6783   -0.2392 O   0  0  0  0  0  0  0  0  0  0  0  0
   -4.6506    4.1860    1.3883 F   0  0  0  0  0  0  0  0  0  0  0  0
   -6.1221    3.1565    2.6156 F   0  0  0  0  0  0  0  0  0  0  0  0
   -4.0619    2.4513    2.5631 F   0  0  0  0  0  0  0  0  0  0  0  0
  1  2  1  0  0  0  0
  1  4  2  0  0  0  0
  2  3  1  0  0  0  0
  4 11  1  0  0  0  0
  5  4  1  0  0  0  0
  5 12  1  0  0  0  0
  6  5  2  0  0  0  0
  7  6  1  0  0  0  0
  8  7  1  0  0  0  0
  8 15  1  0  0  0  0
  9 10  2  0  0  0  0
  9  6  1  0  0  0  0
 10  1  1  0  0  0  0
 13  8  1  0  0  0  0
 14  8  1  0  0  0  0
 16  9  1  0  0  0  0
 17 10  1  0  0  0  0
 18 21  1  0  0  0  0
 18 19  1  0  0  0  0
 19 25  1  0  0  0  0
 19 24  1  0  0  0  0
 20 18  2  0  0  0  0
 22 18  2  0  0  0  0
 23 19  1  0  0  0  0
M  RAD  3   2   2   3   3  21   2
M  END
