Coordinates from ORCA-job 4-MeOPhN2+~TfO-_B3LYPG-6-31G_dp-CH-Scan-d09-49-n800
 OpenBabel11261919093D

 25 24  0  0  0  0  0  0  0  0999 V2000
   -1.6443   -0.3974    0.4722 C   0  0  0  0  0  0  0  0  0  0  0  0
   -2.9349   -0.7111    0.8265 N   0  0  0  0  0  0  0  0  0  0  0  0
   -3.9989   -0.9192    1.1137 N   0  0  0  0  0  0  0  0  0  0  0  0
   -1.4441    0.9569    0.1067 C   0  0  0  0  0  0  0  0  0  0  0  0
   -0.0980    1.1790   -0.2275 C   0  0  0  0  0  0  0  0  0  0  0  0
    0.8957    0.1867   -0.1972 C   0  0  0  0  0  0  0  0  0  0  0  0
    2.1418    0.5776   -0.5484 O   0  0  0  0  0  0  0  0  0  0  0  0
    3.2098   -0.3640   -0.5400 C   0  0  0  0  0  0  0  0  0  0  0  0
    0.5908   -1.1510    0.1850 C   0  0  0  0  0  0  0  0  0  0  0  0
   -0.7035   -1.4604    0.5291 C   0  0  0  0  0  0  0  0  0  0  0  0
   -3.7099    3.0081   -0.0899 H   0  0  0  0  0  0  0  0  0  0  0  0
    0.2377    2.1692   -0.5352 H   0  0  0  0  0  0  0  0  0  0  0  0
    4.0954    0.1895   -0.8534 H   0  0  0  0  0  0  0  0  0  0  0  0
    3.0293   -1.1846   -1.2442 H   0  0  0  0  0  0  0  0  0  0  0  0
    3.3778   -0.7735    0.4633 H   0  0  0  0  0  0  0  0  0  0  0  0
    1.3537   -1.9187    0.2089 H   0  0  0  0  0  0  0  0  0  0  0  0
   -0.9838   -2.4670    0.8294 H   0  0  0  0  0  0  0  0  0  0  0  0
   -5.7717    2.6409    0.3939 S   0  0  0  0  0  0  0  0  0  0  0  0
   -5.5908    2.4916    2.2430 C   0  0  0  0  0  0  0  0  0  0  0  0
   -6.9558    3.4349    0.1384 O   0  0  0  0  0  0  0  0  0  0  0  0
   -5.5737    1.3039   -0.1495 O   0  0  0  0  0  0  0  0  0  0  0  0
   -4.4940    3.5707    0.0693 O   0  0  0  0  0  0  0  0  0  0  0  0
   -5.6083    3.6948    2.8077 F   0  0  0  0  0  0  0  0  0  0  0  0
   -6.6019    1.7602    2.7105 F   0  0  0  0  0  0  0  0  0  0  0  0
   -4.4342    1.8817    2.5248 F   0  0  0  0  0  0  0  0  0  0  0  0
  1 10  1  0  0  0  0
  1  2  1  0  0  0  0
  2  3  1  0  0  0  0
  4  1  2  0  0  0  0
  5  6  2  0  0  0  0
  5  4  1  0  0  0  0
  6  9  1  0  0  0  0
  7  8  1  0  0  0  0
  7  6  1  0  0  0  0
  8 15  1  0  0  0  0
  9 16  1  0  0  0  0
  9 10  2  0  0  0  0
 10 17  1  0  0  0  0
 11 22  1  0  0  0  0
 12  5  1  0  0  0  0
 13  8  1  0  0  0  0
 14  8  1  0  0  0  0
 18 19  1  0  0  0  0
 19 25  1  0  0  0  0
 19 24  1  0  0  0  0
 19 23  1  0  0  0  0
 20 18  2  0  0  0  0
 21 18  2  0  0  0  0
 22 18  1  0  0  0  0
M  RAD  3   2   2   3   3   4   2
M  END
