Coordinates from ORCA-job 4-MeOPhN2+~TfO-_B3LYPG-6-31G_dp-CH-Scan-d09-49-n800
 OpenBabel11261919093D

 25 24  0  0  0  0  0  0  0  0999 V2000
   -1.8108   -0.3112    0.7587 C   0  0  0  0  0  0  0  0  0  0  0  0
   -3.0448   -0.6662    1.2349 N   0  0  0  0  0  0  0  0  0  0  0  0
   -4.0612   -0.9249    1.6204 N   0  0  0  0  0  0  0  0  0  0  0  0
   -1.5884    1.0551    0.4602 C   0  0  0  0  0  0  0  0  0  0  0  0
   -0.3135    1.3361   -0.0083 C   0  0  0  0  0  0  0  0  0  0  0  0
    0.6695    0.3398   -0.1727 C   0  0  0  0  0  0  0  0  0  0  0  0
    1.8562    0.7603   -0.6386 O   0  0  0  0  0  0  0  0  0  0  0  0
    2.9137   -0.1775   -0.8472 C   0  0  0  0  0  0  0  0  0  0  0  0
    0.3897   -1.0145    0.1436 C   0  0  0  0  0  0  0  0  0  0  0  0
   -0.8602   -1.3489    0.6166 C   0  0  0  0  0  0  0  0  0  0  0  0
   -2.6275    2.0516    0.5913 H   0  0  0  0  0  0  0  0  0  0  0  0
   -0.0383    2.3533   -0.2723 H   0  0  0  0  0  0  0  0  0  0  0  0
    3.7509    0.4058   -1.2293 H   0  0  0  0  0  0  0  0  0  0  0  0
    2.6307   -0.9361   -1.5850 H   0  0  0  0  0  0  0  0  0  0  0  0
    3.2061   -0.6614    0.0914 H   0  0  0  0  0  0  0  0  0  0  0  0
    1.1377   -1.7866    0.0183 H   0  0  0  0  0  0  0  0  0  0  0  0
   -1.1079   -2.3751    0.8692 H   0  0  0  0  0  0  0  0  0  0  0  0
   -4.9364    2.4771    0.3114 S   0  0  0  0  0  0  0  0  0  0  0  0
   -5.7592    2.4331    1.9765 C   0  0  0  0  0  0  0  0  0  0  0  0
   -5.6850    3.4506   -0.4761 O   0  0  0  0  0  0  0  0  0  0  0  0
   -4.9254    1.0647   -0.1178 O   0  0  0  0  0  0  0  0  0  0  0  0
   -3.5322    2.9526    0.6979 O   0  0  0  0  0  0  0  0  0  0  0  0
   -5.7455    3.6348    2.5576 F   0  0  0  0  0  0  0  0  0  0  0  0
   -7.0260    2.0224    1.8560 F   0  0  0  0  0  0  0  0  0  0  0  0
   -5.1080    1.5639    2.7805 F   0  0  0  0  0  0  0  0  0  0  0  0
  1  2  1  0  0  0  0
  2  3  1  0  0  0  0
  4  1  2  0  0  0  0
  5  4  1  0  0  0  0
  6  5  2  0  0  0  0
  6  9  1  0  0  0  0
  7  6  1  0  0  0  0
  8  7  1  0  0  0  0
  8 15  1  0  0  0  0
  9 10  2  0  0  0  0
 10  1  1  0  0  0  0
 10 17  1  0  0  0  0
 11 22  1  0  0  0  0
 12  5  1  0  0  0  0
 13  8  1  0  0  0  0
 14  8  1  0  0  0  0
 16  9  1  0  0  0  0
 18 22  1  0  0  0  0
 18 19  1  0  0  0  0
 19 23  1  0  0  0  0
 19 25  1  0  0  0  0
 20 18  2  0  0  0  0
 21 18  2  0  0  0  0
 24 19  1  0  0  0  0
M  RAD  3   2   2   3   3   4   2
M  END
