Coordinates from ORCA-job 4-MeOPhN2+~TfO-_B3LYPG-6-31G_dp-CH-Scan-d09-49-n800
 OpenBabel11261919093D

 25 24  0  0  0  0  0  0  0  0999 V2000
   -1.5224   -0.3411    0.6617 C   0  0  0  0  0  0  0  0  0  0  0  0
   -2.8296   -0.5761    1.0294 N   0  0  0  0  0  0  0  0  0  0  0  0
   -3.9014   -0.6917    1.3420 N   0  0  0  0  0  0  0  0  0  0  0  0
   -1.2151    1.0349    0.5468 C   0  0  0  0  0  0  0  0  0  0  0  0
    0.1363    1.1914    0.1839 C   0  0  0  0  0  0  0  0  0  0  0  0
    1.0253    0.1265   -0.0288 C   0  0  0  0  0  0  0  0  0  0  0  0
    2.2919    0.4616   -0.3745 O   0  0  0  0  0  0  0  0  0  0  0  0
    3.2572   -0.5591   -0.6001 C   0  0  0  0  0  0  0  0  0  0  0  0
    0.6055   -1.2286    0.1133 C   0  0  0  0  0  0  0  0  0  0  0  0
   -0.6984   -1.4814    0.4680 C   0  0  0  0  0  0  0  0  0  0  0  0
   -4.5810    3.7685   -0.6168 H   0  0  0  0  0  0  0  0  0  0  0  0
    0.5598    2.1876    0.0482 H   0  0  0  0  0  0  0  0  0  0  0  0
    4.1832   -0.0420   -0.8536 H   0  0  0  0  0  0  0  0  0  0  0  0
    2.9692   -1.2111   -1.4336 H   0  0  0  0  0  0  0  0  0  0  0  0
    3.4193   -1.1676    0.2981 H   0  0  0  0  0  0  0  0  0  0  0  0
    1.2901   -2.0507   -0.0526 H   0  0  0  0  0  0  0  0  0  0  0  0
   -1.0667   -2.4973    0.5906 H   0  0  0  0  0  0  0  0  0  0  0  0
   -6.0942    2.6118    0.3712 S   0  0  0  0  0  0  0  0  0  0  0  0
   -5.3708    2.4772    2.0861 C   0  0  0  0  0  0  0  0  0  0  0  0
   -7.5081    2.8882    0.5168 O   0  0  0  0  0  0  0  0  0  0  0  0
   -5.5660    1.5014   -0.4088 O   0  0  0  0  0  0  0  0  0  0  0  0
   -5.3827    3.9916   -0.1121 O   0  0  0  0  0  0  0  0  0  0  0  0
   -5.6955    3.5509    2.8001 F   0  0  0  0  0  0  0  0  0  0  0  0
   -5.8746    1.3840    2.6603 F   0  0  0  0  0  0  0  0  0  0  0  0
   -4.0469    2.3699    2.0014 F   0  0  0  0  0  0  0  0  0  0  0  0
  1  2  1  0  0  0  0
  2  3  1  0  0  0  0
  4  1  1  0  0  0  0
  5  4  2  0  0  0  0
  6  9  2  0  0  0  0
  6  5  1  0  0  0  0
  7  6  1  0  0  0  0
  8  7  1  0  0  0  0
  8 15  1  0  0  0  0
  9 10  1  0  0  0  0
 10 17  1  0  0  0  0
 10  1  2  0  0  0  0
 11 22  1  0  0  0  0
 12  5  1  0  0  0  0
 13  8  1  0  0  0  0
 14  8  1  0  0  0  0
 16  9  1  0  0  0  0
 18 20  2  0  0  0  0
 18 19  1  0  0  0  0
 19 24  1  0  0  0  0
 19 23  1  0  0  0  0
 21 18  2  0  0  0  0
 22 18  1  0  0  0  0
 25 19  1  0  0  0  0
M  RAD  3   2   2   3   3   4   2
M  END
