Coordinates from ORCA-job 4-MeOPhN2+~TfO-_B3LYPG-6-31G_dp-CH-Scan-d09-49-n800
 OpenBabel11261919093D

 25 24  0  0  0  0  0  0  0  0999 V2000
   -1.6101   -0.3886    0.4743 C   0  0  0  0  0  0  0  0  0  0  0  0
   -2.9046   -0.6873    0.8288 N   0  0  0  0  0  0  0  0  0  0  0  0
   -3.9714   -0.8810    1.1167 N   0  0  0  0  0  0  0  0  0  0  0  0
   -1.4009    0.9631    0.1043 C   0  0  0  0  0  0  0  0  0  0  0  0
   -0.0525    1.1709   -0.2330 C   0  0  0  0  0  0  0  0  0  0  0  0
    0.9321    0.1700   -0.2012 C   0  0  0  0  0  0  0  0  0  0  0  0
    2.1813    0.5479   -0.5570 O   0  0  0  0  0  0  0  0  0  0  0  0
    3.2401   -0.4037   -0.5481 C   0  0  0  0  0  0  0  0  0  0  0  0
    0.6165   -1.1638    0.1873 C   0  0  0  0  0  0  0  0  0  0  0  0
   -0.6797   -1.4607    0.5348 C   0  0  0  0  0  0  0  0  0  0  0  0
   -3.7987    3.1136   -0.1086 H   0  0  0  0  0  0  0  0  0  0  0  0
    0.2921    2.1569   -0.5450 H   0  0  0  0  0  0  0  0  0  0  0  0
    4.1300    0.1397   -0.8671 H   0  0  0  0  0  0  0  0  0  0  0  0
    3.0495   -1.2258   -1.2479 H   0  0  0  0  0  0  0  0  0  0  0  0
    3.4080   -0.8104    0.4564 H   0  0  0  0  0  0  0  0  0  0  0  0
    1.3730   -1.9378    0.2131 H   0  0  0  0  0  0  0  0  0  0  0  0
   -0.9685   -2.4635    0.8396 H   0  0  0  0  0  0  0  0  0  0  0  0
   -5.8356    2.6595    0.4029 S   0  0  0  0  0  0  0  0  0  0  0  0
   -5.6317    2.4883    2.2478 C   0  0  0  0  0  0  0  0  0  0  0  0
   -7.0507    3.4124    0.1702 O   0  0  0  0  0  0  0  0  0  0  0  0
   -5.5880    1.3424   -0.1670 O   0  0  0  0  0  0  0  0  0  0  0  0
   -4.5952    3.6445    0.0844 O   0  0  0  0  0  0  0  0  0  0  0  0
   -5.6865    3.6817    2.8305 F   0  0  0  0  0  0  0  0  0  0  0  0
   -6.6124    1.7148    2.7119 F   0  0  0  0  0  0  0  0  0  0  0  0
   -4.4520    1.9159    2.5090 F   0  0  0  0  0  0  0  0  0  0  0  0
  1 10  1  0  0  0  0
  1  2  1  0  0  0  0
  2  3  1  0  0  0  0
  4  1  2  0  0  0  0
  5  6  2  0  0  0  0
  5  4  1  0  0  0  0
  6  9  1  0  0  0  0
  7  8  1  0  0  0  0
  7  6  1  0  0  0  0
  8 15  1  0  0  0  0
  9 16  1  0  0  0  0
  9 10  2  0  0  0  0
 10 17  1  0  0  0  0
 11 22  1  0  0  0  0
 12  5  1  0  0  0  0
 13  8  1  0  0  0  0
 14  8  1  0  0  0  0
 18 19  1  0  0  0  0
 19 25  1  0  0  0  0
 19 24  1  0  0  0  0
 19 23  1  0  0  0  0
 20 18  2  0  0  0  0
 21 18  2  0  0  0  0
 22 18  1  0  0  0  0
M  RAD  3   2   2   3   3   4   2
M  END
