Coordinates from ORCA-job 4-MeOPhN2+~TfO-_B3LYPG-6-31G_dp-CH-Scan-d09-49-n800
 OpenBabel11261919093D

 25 24  0  0  0  0  0  0  0  0999 V2000
   -2.0607   -0.2342    0.1447 C   0  0  0  0  0  0  0  0  0  0  0  0
   -3.3818   -0.5966    0.2663 N   0  0  0  0  0  0  0  0  0  0  0  0
   -4.4374   -0.9596    0.3855 N   0  0  0  0  0  0  0  0  0  0  0  0
   -1.7210    1.1110   -0.1039 C   0  0  0  0  0  0  0  0  0  0  0  0
   -0.3842    1.4240   -0.2234 C   0  0  0  0  0  0  0  0  0  0  0  0
    0.6050    0.4253   -0.0934 C   0  0  0  0  0  0  0  0  0  0  0  0
    1.8709    0.8457   -0.2256 O   0  0  0  0  0  0  0  0  0  0  0  0
    2.9456   -0.0910   -0.1176 C   0  0  0  0  0  0  0  0  0  0  0  0
    0.2405   -0.9172    0.1576 C   0  0  0  0  0  0  0  0  0  0  0  0
   -1.0957   -1.2520    0.2741 C   0  0  0  0  0  0  0  0  0  0  0  0
   -2.6465    1.9063   -0.2161 H   0  0  0  0  0  0  0  0  0  0  0  0
   -0.0649    2.4414   -0.4200 H   0  0  0  0  0  0  0  0  0  0  0  0
    3.8552    0.4901   -0.2642 H   0  0  0  0  0  0  0  0  0  0  0  0
    2.8757   -0.8629   -0.8920 H   0  0  0  0  0  0  0  0  0  0  0  0
    2.9654   -0.5566    0.8735 H   0  0  0  0  0  0  0  0  0  0  0  0
    0.9908   -1.6901    0.2604 H   0  0  0  0  0  0  0  0  0  0  0  0
   -1.3983   -2.2758    0.4664 H   0  0  0  0  0  0  0  0  0  0  0  0
   -5.5503    2.1468    0.5135 S   0  0  0  0  0  0  0  0  0  0  0  0
   -4.7267    2.4934    2.1431 C   0  0  0  0  0  0  0  0  0  0  0  0
   -6.5776    3.1789    0.3743 O   0  0  0  0  0  0  0  0  0  0  0  0
   -6.0369    0.7477    0.6958 O   0  0  0  0  0  0  0  0  0  0  0  0
   -4.3991    2.2304   -0.4359 O   0  0  0  0  0  0  0  0  0  0  0  0
   -4.1526    3.7035    2.1547 F   0  0  0  0  0  0  0  0  0  0  0  0
   -5.5863    2.4164    3.1623 F   0  0  0  0  0  0  0  0  0  0  0  0
   -3.7450    1.5740    2.3568 F   0  0  0  0  0  0  0  0  0  0  0  0
  1  2  1  0  0  0  0
  1 10  2  0  0  0  0
  2  3  1  0  0  0  0
  4  1  1  0  0  0  0
  5  4  2  0  0  0  0
  5  6  1  0  0  0  0
  6  9  2  0  0  0  0
  7  8  1  0  0  0  0
  7  6  1  0  0  0  0
  8 15  1  0  0  0  0
  9 16  1  0  0  0  0
  9 10  1  0  0  0  0
 10 17  1  0  0  0  0
 11  4  1  0  0  0  0
 12  5  1  0  0  0  0
 13  8  1  0  0  0  0
 14  8  1  0  0  0  0
 18 21  1  0  0  0  0
 18 19  1  0  0  0  0
 19 23  1  0  0  0  0
 19 25  1  0  0  0  0
 19 24  1  0  0  0  0
 20 18  2  0  0  0  0
 22 18  2  0  0  0  0
M  RAD  3   2   2   3   3  21   2
M  END
