Coordinates from ORCA-job 4-MeOPhN2+~TfO-_B3LYPG-6-31G_dp-CH-Scan-d09-49-n800
 OpenBabel11261919093D

 25 24  0  0  0  0  0  0  0  0999 V2000
   -1.6174   -0.3889    0.4730 C   0  0  0  0  0  0  0  0  0  0  0  0
   -2.9110   -0.6910    0.8280 N   0  0  0  0  0  0  0  0  0  0  0  0
   -3.9771   -0.8893    1.1149 N   0  0  0  0  0  0  0  0  0  0  0  0
   -1.4094    0.9628    0.1029 C   0  0  0  0  0  0  0  0  0  0  0  0
   -0.0614    1.1730   -0.2333 C   0  0  0  0  0  0  0  0  0  0  0  0
    0.9248    0.1736   -0.2009 C   0  0  0  0  0  0  0  0  0  0  0  0
    2.1737    0.5537   -0.5556 O   0  0  0  0  0  0  0  0  0  0  0  0
    3.2341   -0.3962   -0.5458 C   0  0  0  0  0  0  0  0  0  0  0  0
    0.6109   -1.1607    0.1869 C   0  0  0  0  0  0  0  0  0  0  0  0
   -0.6851   -1.4595    0.5334 C   0  0  0  0  0  0  0  0  0  0  0  0
   -3.7799    3.0918   -0.1036 H   0  0  0  0  0  0  0  0  0  0  0  0
    0.2817    2.1597   -0.5449 H   0  0  0  0  0  0  0  0  0  0  0  0
    4.1234    0.1489   -0.8636 H   0  0  0  0  0  0  0  0  0  0  0  0
    3.0456   -1.2182   -1.2462 H   0  0  0  0  0  0  0  0  0  0  0  0
    3.4015   -0.8030    0.4587 H   0  0  0  0  0  0  0  0  0  0  0  0
    1.3684   -1.9336    0.2130 H   0  0  0  0  0  0  0  0  0  0  0  0
   -0.9725   -2.4628    0.8378 H   0  0  0  0  0  0  0  0  0  0  0  0
   -5.8225    2.6551    0.4014 S   0  0  0  0  0  0  0  0  0  0  0  0
   -5.6234    2.4885    2.2473 C   0  0  0  0  0  0  0  0  0  0  0  0
   -7.0311    3.4169    0.1638 O   0  0  0  0  0  0  0  0  0  0  0  0
   -5.5856    1.3332   -0.1624 O   0  0  0  0  0  0  0  0  0  0  0  0
   -4.5745    3.6288    0.0811 O   0  0  0  0  0  0  0  0  0  0  0  0
   -5.6707    3.6841    2.8261 F   0  0  0  0  0  0  0  0  0  0  0  0
   -6.6103    1.7235    2.7122 F   0  0  0  0  0  0  0  0  0  0  0  0
   -4.4482    1.9084    2.5130 F   0  0  0  0  0  0  0  0  0  0  0  0
  1 10  1  0  0  0  0
  1  2  1  0  0  0  0
  2  3  1  0  0  0  0
  4  1  2  0  0  0  0
  5  6  2  0  0  0  0
  5  4  1  0  0  0  0
  6  9  1  0  0  0  0
  7  8  1  0  0  0  0
  7  6  1  0  0  0  0
  8 15  1  0  0  0  0
  9 16  1  0  0  0  0
  9 10  2  0  0  0  0
 10 17  1  0  0  0  0
 11 22  1  0  0  0  0
 12  5  1  0  0  0  0
 13  8  1  0  0  0  0
 14  8  1  0  0  0  0
 18 19  1  0  0  0  0
 19 25  1  0  0  0  0
 19 24  1  0  0  0  0
 19 23  1  0  0  0  0
 20 18  2  0  0  0  0
 21 18  2  0  0  0  0
 22 18  1  0  0  0  0
M  RAD  3   2   2   3   3   4   2
M  END
