Coordinates from ORCA-job 4-MeOPhN2+~TfO-_B3LYPG-6-31G_dp-CH-Scan-d09-49-n800
 OpenBabel11261919093D

 25 24  0  0  0  0  0  0  0  0999 V2000
   -1.9966   -0.2850    0.4777 C   0  0  0  0  0  0  0  0  0  0  0  0
   -3.3080   -0.6610    0.6634 N   0  0  0  0  0  0  0  0  0  0  0  0
   -4.3239   -1.1022    0.8435 N   0  0  0  0  0  0  0  0  0  0  0  0
   -1.5783    1.0253    0.7899 C   0  0  0  0  0  0  0  0  0  0  0  0
   -0.2442    1.3300    0.6182 C   0  0  0  0  0  0  0  0  0  0  0  0
    0.6643    0.3675    0.1283 C   0  0  0  0  0  0  0  0  0  0  0  0
    1.9312    0.7865   -0.0061 O   0  0  0  0  0  0  0  0  0  0  0  0
    2.9232   -0.1121   -0.5094 C   0  0  0  0  0  0  0  0  0  0  0  0
    0.2223   -0.9358   -0.1822 C   0  0  0  0  0  0  0  0  0  0  0  0
   -1.1099   -1.2656   -0.0001 C   0  0  0  0  0  0  0  0  0  0  0  0
   -2.2406    1.6934    1.1144 H   0  0  0  0  0  0  0  0  0  0  0  0
    0.1292    2.3219    0.8453 H   0  0  0  0  0  0  0  0  0  0  0  0
    3.8516    0.4576   -0.5267 H   0  0  0  0  0  0  0  0  0  0  0  0
    2.6775   -0.4419   -1.5244 H   0  0  0  0  0  0  0  0  0  0  0  0
    3.0388   -0.9806    0.1479 H   0  0  0  0  0  0  0  0  0  0  0  0
    0.9066   -1.6843   -0.5592 H   0  0  0  0  0  0  0  0  0  0  0  0
   -1.4709   -2.2616   -0.2306 H   0  0  0  0  0  0  0  0  0  0  0  0
   -5.4488    1.8658    0.3749 S   0  0  0  0  0  0  0  0  0  0  0  0
   -5.0346    2.9635    1.8168 C   0  0  0  0  0  0  0  0  0  0  0  0
   -6.4306    2.6259   -0.3993 O   0  0  0  0  0  0  0  0  0  0  0  0
   -5.9431    0.6212    1.0354 O   0  0  0  0  0  0  0  0  0  0  0  0
   -4.1124    1.6667   -0.2596 O   0  0  0  0  0  0  0  0  0  0  0  0
   -4.5884    4.1572    1.4028 F   0  0  0  0  0  0  0  0  0  0  0  0
   -6.0860    3.1517    2.6183 F   0  0  0  0  0  0  0  0  0  0  0  0
   -4.0443    2.3948    2.5578 F   0  0  0  0  0  0  0  0  0  0  0  0
  1  2  1  0  0  0  0
  1  4  2  0  0  0  0
  2  3  1  0  0  0  0
  4 11  1  0  0  0  0
  5  4  1  0  0  0  0
  5 12  1  0  0  0  0
  6  5  2  0  0  0  0
  7  6  1  0  0  0  0
  8  7  1  0  0  0  0
  8 15  1  0  0  0  0
  9 10  2  0  0  0  0
  9  6  1  0  0  0  0
 10  1  1  0  0  0  0
 13  8  1  0  0  0  0
 14  8  1  0  0  0  0
 16  9  1  0  0  0  0
 17 10  1  0  0  0  0
 18 21  1  0  0  0  0
 18 19  1  0  0  0  0
 19 25  1  0  0  0  0
 19 24  1  0  0  0  0
 20 18  2  0  0  0  0
 22 18  2  0  0  0  0
 23 19  1  0  0  0  0
M  RAD  3   2   2   3   3  21   2
M  END
