Coordinates from ORCA-job 4-MeOPhN2+~TfO-_B3LYPG-6-31G_dp-CH-Scan-d09-49-n800
 OpenBabel11261919093D

 25 24  0  0  0  0  0  0  0  0999 V2000
   -1.8448   -0.3608    0.6720 C   0  0  0  0  0  0  0  0  0  0  0  0
   -3.0856   -0.7440    1.1095 N   0  0  0  0  0  0  0  0  0  0  0  0
   -4.1068   -1.0259    1.4679 N   0  0  0  0  0  0  0  0  0  0  0  0
   -1.6616    1.0103    0.3619 C   0  0  0  0  0  0  0  0  0  0  0  0
   -0.3680    1.3028   -0.0618 C   0  0  0  0  0  0  0  0  0  0  0  0
    0.6459    0.3318   -0.1693 C   0  0  0  0  0  0  0  0  0  0  0  0
    1.8427    0.7751   -0.5928 O   0  0  0  0  0  0  0  0  0  0  0  0
    2.9318   -0.1370   -0.7323 C   0  0  0  0  0  0  0  0  0  0  0  0
    0.3905   -1.0261    0.1574 C   0  0  0  0  0  0  0  0  0  0  0  0
   -0.8680   -1.3832    0.5854 C   0  0  0  0  0  0  0  0  0  0  0  0
   -2.7991    2.1061    0.4284 H   0  0  0  0  0  0  0  0  0  0  0  0
   -0.0981    2.3204   -0.3331 H   0  0  0  0  0  0  0  0  0  0  0  0
    3.7720    0.4606   -1.0853 H   0  0  0  0  0  0  0  0  0  0  0  0
    2.7057   -0.9172   -1.4674 H   0  0  0  0  0  0  0  0  0  0  0  0
    3.1920   -0.5965    0.2281 H   0  0  0  0  0  0  0  0  0  0  0  0
    1.1627   -1.7800    0.0749 H   0  0  0  0  0  0  0  0  0  0  0  0
   -1.1018   -2.4111    0.8461 H   0  0  0  0  0  0  0  0  0  0  0  0
   -5.0368    2.4786    0.2809 S   0  0  0  0  0  0  0  0  0  0  0  0
   -5.5931    2.4625    2.0541 C   0  0  0  0  0  0  0  0  0  0  0  0
   -5.8558    3.4750   -0.3937 O   0  0  0  0  0  0  0  0  0  0  0  0
   -5.0911    1.0699   -0.1354 O   0  0  0  0  0  0  0  0  0  0  0  0
   -3.5716    2.9563    0.4528 O   0  0  0  0  0  0  0  0  0  0  0  0
   -5.4841    3.6723    2.6043 F   0  0  0  0  0  0  0  0  0  0  0  0
   -6.8643    2.0591    2.1301 F   0  0  0  0  0  0  0  0  0  0  0  0
   -4.8286    1.6001    2.7546 F   0  0  0  0  0  0  0  0  0  0  0  0
  1  2  1  0  0  0  0
  2  3  1  0  0  0  0
  4  1  2  0  0  0  0
  5  4  1  0  0  0  0
  6  5  2  0  0  0  0
  6  9  1  0  0  0  0
  7  6  1  0  0  0  0
  8  7  1  0  0  0  0
  8 15  1  0  0  0  0
  9 10  2  0  0  0  0
 10  1  1  0  0  0  0
 10 17  1  0  0  0  0
 11 22  1  0  0  0  0
 12  5  1  0  0  0  0
 13  8  1  0  0  0  0
 14  8  1  0  0  0  0
 16  9  1  0  0  0  0
 18 22  1  0  0  0  0
 18 19  1  0  0  0  0
 19 24  1  0  0  0  0
 19 23  1  0  0  0  0
 19 25  1  0  0  0  0
 20 18  2  0  0  0  0
 21 18  2  0  0  0  0
M  RAD  3   2   2   3   3   4   2
M  END
