Coordinates from ORCA-job 4-MeOPhN2+~TfO-_B3LYPG-6-31G_dp-CH-Scan-d09-49-n800
 OpenBabel11261919093D

 25 24  0  0  0  0  0  0  0  0999 V2000
   -1.5162   -0.3257    0.5717 C   0  0  0  0  0  0  0  0  0  0  0  0
   -2.8092   -0.5727    0.9729 N   0  0  0  0  0  0  0  0  0  0  0  0
   -3.8720   -0.7166    1.3023 N   0  0  0  0  0  0  0  0  0  0  0  0
   -1.2679    1.0252    0.2268 C   0  0  0  0  0  0  0  0  0  0  0  0
    0.0759    1.1835   -0.1576 C   0  0  0  0  0  0  0  0  0  0  0  0
    1.0164    0.1416   -0.1901 C   0  0  0  0  0  0  0  0  0  0  0  0
    2.2669    0.4750   -0.5870 O   0  0  0  0  0  0  0  0  0  0  0  0
    3.2810   -0.5218   -0.6472 C   0  0  0  0  0  0  0  0  0  0  0  0
    0.6593   -1.1882    0.1774 C   0  0  0  0  0  0  0  0  0  0  0  0
   -0.6339   -1.4393    0.5695 C   0  0  0  0  0  0  0  0  0  0  0  0
   -3.9445    3.3807   -0.0759 H   0  0  0  0  0  0  0  0  0  0  0  0
    0.4516    2.1619   -0.4591 H   0  0  0  0  0  0  0  0  0  0  0  0
    4.1810   -0.0095   -0.9887 H   0  0  0  0  0  0  0  0  0  0  0  0
    3.0256   -1.3148   -1.3600 H   0  0  0  0  0  0  0  0  0  0  0  0
    3.4713   -0.9640    0.3383 H   0  0  0  0  0  0  0  0  0  0  0  0
    1.3822   -1.9937    0.1528 H   0  0  0  0  0  0  0  0  0  0  0  0
   -0.9539   -2.4366    0.8615 H   0  0  0  0  0  0  0  0  0  0  0  0
   -5.9256    2.6794    0.3677 S   0  0  0  0  0  0  0  0  0  0  0  0
   -5.7780    2.4453    2.2117 C   0  0  0  0  0  0  0  0  0  0  0  0
   -7.2067    3.3042    0.1124 O   0  0  0  0  0  0  0  0  0  0  0  0
   -5.5028    1.4309   -0.2507 O   0  0  0  0  0  0  0  0  0  0  0  0
   -4.7882    3.8124    0.1513 O   0  0  0  0  0  0  0  0  0  0  0  0
   -6.0285    3.5893    2.8403 F   0  0  0  0  0  0  0  0  0  0  0  0
   -6.6579    1.5199    2.5900 F   0  0  0  0  0  0  0  0  0  0  0  0
   -4.5417    2.0325    2.5066 F   0  0  0  0  0  0  0  0  0  0  0  0
  1  2  1  0  0  0  0
  2  3  1  0  0  0  0
  4  1  2  0  0  0  0
  5  4  1  0  0  0  0
  6  5  2  0  0  0  0
  6  9  1  0  0  0  0
  7  6  1  0  0  0  0
  8  7  1  0  0  0  0
  8 15  1  0  0  0  0
  9 10  2  0  0  0  0
 10  1  1  0  0  0  0
 10 17  1  0  0  0  0
 11 22  1  0  0  0  0
 12  5  1  0  0  0  0
 13  8  1  0  0  0  0
 14  8  1  0  0  0  0
 16  9  1  0  0  0  0
 18 19  1  0  0  0  0
 19 25  1  0  0  0  0
 19 24  1  0  0  0  0
 19 23  1  0  0  0  0
 20 18  2  0  0  0  0
 21 18  2  0  0  0  0
 22 18  1  0  0  0  0
M  RAD  3   2   2   3   3   4   2
M  END
