Coordinates from ORCA-job 4-MeOPhN2+~TfO-_B3LYPG-6-31G_dp-CH-Scan-d09-49-n800
 OpenBabel11261919093D

 25 24  0  0  0  0  0  0  0  0999 V2000
   -1.5179   -0.3398    0.6836 C   0  0  0  0  0  0  0  0  0  0  0  0
   -2.8291   -0.5730    1.0394 N   0  0  0  0  0  0  0  0  0  0  0  0
   -3.9042   -0.6851    1.3419 N   0  0  0  0  0  0  0  0  0  0  0  0
   -1.1939    1.0358    0.6280 C   0  0  0  0  0  0  0  0  0  0  0  0
    0.1586    1.1913    0.2688 C   0  0  0  0  0  0  0  0  0  0  0  0
    1.0335    0.1255    0.0071 C   0  0  0  0  0  0  0  0  0  0  0  0
    2.3032    0.4594   -0.3285 O   0  0  0  0  0  0  0  0  0  0  0  0
    3.2546   -0.5625   -0.6022 C   0  0  0  0  0  0  0  0  0  0  0  0
    0.5972   -1.2292    0.0918 C   0  0  0  0  0  0  0  0  0  0  0  0
   -0.7091   -1.4810    0.4386 C   0  0  0  0  0  0  0  0  0  0  0  0
   -4.6655    3.7501   -0.6902 H   0  0  0  0  0  0  0  0  0  0  0  0
    0.5945    2.1872    0.1760 H   0  0  0  0  0  0  0  0  0  0  0  0
    4.1856   -0.0465   -0.8393 H   0  0  0  0  0  0  0  0  0  0  0  0
    2.9543   -1.1754   -1.4607 H   0  0  0  0  0  0  0  0  0  0  0  0
    3.4140   -1.2101    0.2688 H   0  0  0  0  0  0  0  0  0  0  0  0
    1.2714   -2.0516   -0.1114 H   0  0  0  0  0  0  0  0  0  0  0  0
   -1.0900   -2.4966    0.5177 H   0  0  0  0  0  0  0  0  0  0  0  0
   -6.1222    2.5901    0.3759 S   0  0  0  0  0  0  0  0  0  0  0  0
   -5.3258    2.5030    2.0614 C   0  0  0  0  0  0  0  0  0  0  0  0
   -7.5336    2.8470    0.5723 O   0  0  0  0  0  0  0  0  0  0  0  0
   -5.6068    1.4733   -0.4038 O   0  0  0  0  0  0  0  0  0  0  0  0
   -5.4539    3.9712   -0.1640 O   0  0  0  0  0  0  0  0  0  0  0  0
   -5.6442    3.5829    2.7689 F   0  0  0  0  0  0  0  0  0  0  0  0
   -5.7810    1.4105    2.6764 F   0  0  0  0  0  0  0  0  0  0  0  0
   -4.0054    2.4224    1.9204 F   0  0  0  0  0  0  0  0  0  0  0  0
  1  2  1  0  0  0  0
  2  3  1  0  0  0  0
  4  1  1  0  0  0  0
  5  4  2  0  0  0  0
  6  9  2  0  0  0  0
  6  5  1  0  0  0  0
  7  6  1  0  0  0  0
  8  7  1  0  0  0  0
  8 15  1  0  0  0  0
  9 10  1  0  0  0  0
 10 17  1  0  0  0  0
 10  1  2  0  0  0  0
 11 22  1  0  0  0  0
 12  5  1  0  0  0  0
 13  8  1  0  0  0  0
 14  8  1  0  0  0  0
 16  9  1  0  0  0  0
 18 20  2  0  0  0  0
 18 19  1  0  0  0  0
 19 24  1  0  0  0  0
 19 23  1  0  0  0  0
 21 18  2  0  0  0  0
 22 18  1  0  0  0  0
 25 19  1  0  0  0  0
M  RAD  3   2   2   3   3   4   2
M  END
