Coordinates from ORCA-job 4-MeOPhN2+~TfO-_B3LYPG-6-31G_dp-CH-Scan-d09-49-n800
 OpenBabel11261919093D

 25 24  0  0  0  0  0  0  0  0999 V2000
   -1.5256   -0.3418    0.6615 C   0  0  0  0  0  0  0  0  0  0  0  0
   -2.8323   -0.5782    1.0301 N   0  0  0  0  0  0  0  0  0  0  0  0
   -3.9039   -0.6951    1.3430 N   0  0  0  0  0  0  0  0  0  0  0  0
   -1.2215    1.0345    0.5402 C   0  0  0  0  0  0  0  0  0  0  0  0
    0.1295    1.1922    0.1762 C   0  0  0  0  0  0  0  0  0  0  0  0
    1.0208    0.1283   -0.0320 C   0  0  0  0  0  0  0  0  0  0  0  0
    2.2865    0.4646   -0.3798 O   0  0  0  0  0  0  0  0  0  0  0  0
    3.2539   -0.5549   -0.6016 C   0  0  0  0  0  0  0  0  0  0  0  0
    0.6040   -1.2271    0.1165 C   0  0  0  0  0  0  0  0  0  0  0  0
   -0.6992   -1.4811    0.4727 C   0  0  0  0  0  0  0  0  0  0  0  0
   -4.5549    3.7582   -0.6049 H   0  0  0  0  0  0  0  0  0  0  0  0
    0.5508    2.1887    0.0358 H   0  0  0  0  0  0  0  0  0  0  0  0
    4.1786   -0.0369   -0.8579 H   0  0  0  0  0  0  0  0  0  0  0  0
    2.9667   -1.2111   -1.4321 H   0  0  0  0  0  0  0  0  0  0  0  0
    3.4178   -1.1592    0.2991 H   0  0  0  0  0  0  0  0  0  0  0  0
    1.2904   -2.0484   -0.0459 H   0  0  0  0  0  0  0  0  0  0  0  0
   -1.0651   -2.4973    0.6003 H   0  0  0  0  0  0  0  0  0  0  0  0
   -6.0858    2.6135    0.3689 S   0  0  0  0  0  0  0  0  0  0  0  0
   -5.3736    2.4732    2.0879 C   0  0  0  0  0  0  0  0  0  0  0  0
   -7.4984    2.9004    0.5060 O   0  0  0  0  0  0  0  0  0  0  0  0
   -5.5614    1.4996   -0.4081 O   0  0  0  0  0  0  0  0  0  0  0  0
   -5.3605    3.9878   -0.1088 O   0  0  0  0  0  0  0  0  0  0  0  0
   -5.6998    3.5460    2.8025 F   0  0  0  0  0  0  0  0  0  0  0  0
   -5.8833    1.3799    2.6567 F   0  0  0  0  0  0  0  0  0  0  0  0
   -4.0496    2.3630    2.0107 F   0  0  0  0  0  0  0  0  0  0  0  0
  1  2  1  0  0  0  0
  2  3  1  0  0  0  0
  4  1  1  0  0  0  0
  5  4  2  0  0  0  0
  6  9  2  0  0  0  0
  6  5  1  0  0  0  0
  7  6  1  0  0  0  0
  8  7  1  0  0  0  0
  8 15  1  0  0  0  0
  9 10  1  0  0  0  0
 10 17  1  0  0  0  0
 10  1  2  0  0  0  0
 11 22  1  0  0  0  0
 12  5  1  0  0  0  0
 13  8  1  0  0  0  0
 14  8  1  0  0  0  0
 16  9  1  0  0  0  0
 18 20  2  0  0  0  0
 18 19  1  0  0  0  0
 19 24  1  0  0  0  0
 19 23  1  0  0  0  0
 21 18  2  0  0  0  0
 22 18  1  0  0  0  0
 25 19  1  0  0  0  0
M  RAD  3   2   2   3   3   4   2
M  END
