Coordinates from ORCA-job 4-MeOPhN2+~TfO-_B3LYPG-6-31G_dp-CH-Scan-d09-49-n800
 OpenBabel11261919093D

 25 24  0  0  0  0  0  0  0  0999 V2000
   -1.4979   -0.3446    0.6852 C   0  0  0  0  0  0  0  0  0  0  0  0
   -2.8138   -0.5719    1.0277 N   0  0  0  0  0  0  0  0  0  0  0  0
   -3.8923   -0.6790    1.3200 N   0  0  0  0  0  0  0  0  0  0  0  0
   -1.1604    1.0285    0.6637 C   0  0  0  0  0  0  0  0  0  0  0  0
    0.1950    1.1795    0.3134 C   0  0  0  0  0  0  0  0  0  0  0  0
    1.0604    0.1116    0.0300 C   0  0  0  0  0  0  0  0  0  0  0  0
    2.3344    0.4409   -0.2941 O   0  0  0  0  0  0  0  0  0  0  0  0
    3.2764   -0.5836   -0.5899 C   0  0  0  0  0  0  0  0  0  0  0  0
    0.6110   -1.2406    0.0825 C   0  0  0  0  0  0  0  0  0  0  0  0
   -0.6990   -1.4879    0.4178 C   0  0  0  0  0  0  0  0  0  0  0  0
   -4.8453    3.8061   -0.7628 H   0  0  0  0  0  0  0  0  0  0  0  0
    0.6407    2.1731    0.2459 H   0  0  0  0  0  0  0  0  0  0  0  0
    4.2121   -0.0711   -0.8158 H   0  0  0  0  0  0  0  0  0  0  0  0
    2.9708   -1.1750   -1.4614 H   0  0  0  0  0  0  0  0  0  0  0  0
    3.4298   -1.2513    0.2669 H   0  0  0  0  0  0  0  0  0  0  0  0
    1.2786   -2.0644   -0.1360 H   0  0  0  0  0  0  0  0  0  0  0  0
   -1.0899   -2.5013    0.4720 H   0  0  0  0  0  0  0  0  0  0  0  0
   -6.1851    2.5959    0.3957 S   0  0  0  0  0  0  0  0  0  0  0  0
   -5.2982    2.5270    2.0362 C   0  0  0  0  0  0  0  0  0  0  0  0
   -7.5919    2.8032    0.6686 O   0  0  0  0  0  0  0  0  0  0  0  0
   -5.6744    1.5028   -0.4204 O   0  0  0  0  0  0  0  0  0  0  0  0
   -5.5903    4.0018   -0.1680 O   0  0  0  0  0  0  0  0  0  0  0  0
   -5.6086    3.5967    2.7624 F   0  0  0  0  0  0  0  0  0  0  0  0
   -5.6924    1.4216    2.6707 F   0  0  0  0  0  0  0  0  0  0  0  0
   -3.9858    2.4811    1.8272 F   0  0  0  0  0  0  0  0  0  0  0  0
  1  2  1  0  0  0  0
  2  3  1  0  0  0  0
  4  1  1  0  0  0  0
  5  4  2  0  0  0  0
  6  9  2  0  0  0  0
  6  5  1  0  0  0  0
  7  6  1  0  0  0  0
  8  7  1  0  0  0  0
  8 15  1  0  0  0  0
  9 10  1  0  0  0  0
 10 17  1  0  0  0  0
 10  1  2  0  0  0  0
 11 22  1  0  0  0  0
 12  5  1  0  0  0  0
 13  8  1  0  0  0  0
 14  8  1  0  0  0  0
 16  9  1  0  0  0  0
 18 20  2  0  0  0  0
 18 19  1  0  0  0  0
 19 24  1  0  0  0  0
 19 23  1  0  0  0  0
 21 18  2  0  0  0  0
 22 18  1  0  0  0  0
 25 19  1  0  0  0  0
M  RAD  3   2   2   3   3   4   2
M  END
