Coordinates from ORCA-job 4-MeOPhN2+~TfO-_B3LYPG-6-31G_dp-CH-Scan-d09-49-n800
 OpenBabel11261919093D

 25 24  0  0  0  0  0  0  0  0999 V2000
   -1.6912   -0.4097    0.4805 C   0  0  0  0  0  0  0  0  0  0  0  0
   -2.9741   -0.7456    0.8388 N   0  0  0  0  0  0  0  0  0  0  0  0
   -4.0316   -0.9756    1.1318 N   0  0  0  0  0  0  0  0  0  0  0  0
   -1.5047    0.9496    0.1245 C   0  0  0  0  0  0  0  0  0  0  0  0
   -0.1642    1.1928   -0.2121 C   0  0  0  0  0  0  0  0  0  0  0  0
    0.8423    0.2127   -0.1925 C   0  0  0  0  0  0  0  0  0  0  0  0
    2.0815    0.6226   -0.5429 O   0  0  0  0  0  0  0  0  0  0  0  0
    3.1624   -0.3048   -0.5442 C   0  0  0  0  0  0  0  0  0  0  0  0
    0.5543   -1.1314    0.1789 C   0  0  0  0  0  0  0  0  0  0  0  0
   -0.7351   -1.4594    0.5244 C   0  0  0  0  0  0  0  0  0  0  0  0
   -3.5577    2.8362   -0.0278 H   0  0  0  0  0  0  0  0  0  0  0  0
    0.1568    2.1897   -0.5127 H   0  0  0  0  0  0  0  0  0  0  0  0
    4.0399    0.2637   -0.8535 H   0  0  0  0  0  0  0  0  0  0  0  0
    2.9916   -1.1210   -1.2558 H   0  0  0  0  0  0  0  0  0  0  0  0
    3.3368   -0.7207    0.4552 H   0  0  0  0  0  0  0  0  0  0  0  0
    1.3262   -1.8901    0.1938 H   0  0  0  0  0  0  0  0  0  0  0  0
   -1.0016   -2.4718    0.8167 H   0  0  0  0  0  0  0  0  0  0  0  0
   -5.6596    2.6100    0.3745 S   0  0  0  0  0  0  0  0  0  0  0  0
   -5.5559    2.5009    2.2317 C   0  0  0  0  0  0  0  0  0  0  0  0
   -6.7848    3.4652    0.0558 O   0  0  0  0  0  0  0  0  0  0  0  0
   -5.5325    1.2459   -0.1223 O   0  0  0  0  0  0  0  0  0  0  0  0
   -4.3200    3.4472    0.0733 O   0  0  0  0  0  0  0  0  0  0  0  0
   -5.5119    3.7176    2.7659 F   0  0  0  0  0  0  0  0  0  0  0  0
   -6.6294    1.8518    2.6820 F   0  0  0  0  0  0  0  0  0  0  0  0
   -4.4533    1.8231    2.5732 F   0  0  0  0  0  0  0  0  0  0  0  0
  1 10  1  0  0  0  0
  1  2  1  0  0  0  0
  2  3  1  0  0  0  0
  4  1  2  0  0  0  0
  5  6  2  0  0  0  0
  5  4  1  0  0  0  0
  6  9  1  0  0  0  0
  7  6  1  0  0  0  0
  8  7  1  0  0  0  0
  8 15  1  0  0  0  0
  9 16  1  0  0  0  0
  9 10  2  0  0  0  0
 10 17  1  0  0  0  0
 11 22  1  0  0  0  0
 12  5  1  0  0  0  0
 13  8  1  0  0  0  0
 14  8  1  0  0  0  0
 18 19  1  0  0  0  0
 19 25  1  0  0  0  0
 19 24  1  0  0  0  0
 19 23  1  0  0  0  0
 20 18  2  0  0  0  0
 21 18  2  0  0  0  0
 22 18  1  0  0  0  0
M  RAD  3   2   2   3   3   4   2
M  END
