Coordinates from ORCA-job 4-MeOPhN2+~TfO-_B3LYPG-6-31G_dp-CH-Scan-d09-49-n800
 OpenBabel11261919093D

 25 24  0  0  0  0  0  0  0  0999 V2000
   -1.4936   -0.3457    0.6818 C   0  0  0  0  0  0  0  0  0  0  0  0
   -2.8100   -0.5718    1.0232 N   0  0  0  0  0  0  0  0  0  0  0  0
   -3.8886   -0.6782    1.3152 N   0  0  0  0  0  0  0  0  0  0  0  0
   -1.1549    1.0271    0.6615 C   0  0  0  0  0  0  0  0  0  0  0  0
    0.2011    1.1770    0.3129 C   0  0  0  0  0  0  0  0  0  0  0  0
    1.0660    0.1085    0.0303 C   0  0  0  0  0  0  0  0  0  0  0  0
    2.3407    0.4367   -0.2921 O   0  0  0  0  0  0  0  0  0  0  0  0
    3.2823   -0.5885   -0.5866 C   0  0  0  0  0  0  0  0  0  0  0  0
    0.6153   -1.2433    0.0818 C   0  0  0  0  0  0  0  0  0  0  0  0
   -0.6954   -1.4896    0.4153 C   0  0  0  0  0  0  0  0  0  0  0  0
   -4.8777    3.8209   -0.7709 H   0  0  0  0  0  0  0  0  0  0  0  0
    0.6478    2.1703    0.2463 H   0  0  0  0  0  0  0  0  0  0  0  0
    4.2187   -0.0767   -0.8113 H   0  0  0  0  0  0  0  0  0  0  0  0
    2.9773   -1.1796   -1.4586 H   0  0  0  0  0  0  0  0  0  0  0  0
    3.4340   -1.2564    0.2704 H   0  0  0  0  0  0  0  0  0  0  0  0
    1.2826   -2.0676   -0.1359 H   0  0  0  0  0  0  0  0  0  0  0  0
   -1.0872   -2.5028    0.4686 H   0  0  0  0  0  0  0  0  0  0  0  0
   -6.1948    2.5984    0.3995 S   0  0  0  0  0  0  0  0  0  0  0  0
   -5.2992    2.5311    2.0353 C   0  0  0  0  0  0  0  0  0  0  0  0
   -7.6017    2.7933    0.6812 O   0  0  0  0  0  0  0  0  0  0  0  0
   -5.6802    1.5128   -0.4238 O   0  0  0  0  0  0  0  0  0  0  0  0
   -5.6130    4.0107   -0.1621 O   0  0  0  0  0  0  0  0  0  0  0  0
   -5.6080    3.6005    2.7628 F   0  0  0  0  0  0  0  0  0  0  0  0
   -5.6893    1.4251    2.6715 F   0  0  0  0  0  0  0  0  0  0  0  0
   -3.9879    2.4868    1.8208 F   0  0  0  0  0  0  0  0  0  0  0  0
  1  2  1  0  0  0  0
  2  3  1  0  0  0  0
  4  1  1  0  0  0  0
  5  4  2  0  0  0  0
  6  9  2  0  0  0  0
  6  5  1  0  0  0  0
  7  6  1  0  0  0  0
  8  7  1  0  0  0  0
  8 15  1  0  0  0  0
  9 10  1  0  0  0  0
 10 17  1  0  0  0  0
 10  1  2  0  0  0  0
 11 22  1  0  0  0  0
 12  5  1  0  0  0  0
 13  8  1  0  0  0  0
 14  8  1  0  0  0  0
 16  9  1  0  0  0  0
 18 20  2  0  0  0  0
 18 19  1  0  0  0  0
 19 24  1  0  0  0  0
 19 23  1  0  0  0  0
 21 18  2  0  0  0  0
 22 18  1  0  0  0  0
 25 19  1  0  0  0  0
M  RAD  3   2   2   3   3   4   2
M  END
