Coordinates from ORCA-job 4-MeOPhN2+~TfO-_B3LYPG-6-31G_dp-CH-Scan-d09-49-n800
 OpenBabel11261919093D

 25 24  0  0  0  0  0  0  0  0999 V2000
   -1.8045   -0.2926    0.7546 C   0  0  0  0  0  0  0  0  0  0  0  0
   -3.0436   -0.6287    1.2306 N   0  0  0  0  0  0  0  0  0  0  0  0
   -4.0698   -0.8569    1.6074 N   0  0  0  0  0  0  0  0  0  0  0  0
   -1.5566    1.0655    0.4461 C   0  0  0  0  0  0  0  0  0  0  0  0
   -0.2867    1.3458   -0.0246 C   0  0  0  0  0  0  0  0  0  0  0  0
    0.6873    0.3384   -0.1851 C   0  0  0  0  0  0  0  0  0  0  0  0
    1.8750    0.7473   -0.6534 O   0  0  0  0  0  0  0  0  0  0  0  0
    2.9267   -0.1995   -0.8573 C   0  0  0  0  0  0  0  0  0  0  0  0
    0.3935   -1.0099    0.1388 C   0  0  0  0  0  0  0  0  0  0  0  0
   -0.8594   -1.3326    0.6153 C   0  0  0  0  0  0  0  0  0  0  0  0
   -2.5253    2.0028    0.5898 H   0  0  0  0  0  0  0  0  0  0  0  0
   -0.0108    2.3615   -0.2900 H   0  0  0  0  0  0  0  0  0  0  0  0
    3.7676    0.3767   -1.2418 H   0  0  0  0  0  0  0  0  0  0  0  0
    2.6378   -0.9589   -1.5918 H   0  0  0  0  0  0  0  0  0  0  0  0
    3.2146   -0.6801    0.0841 H   0  0  0  0  0  0  0  0  0  0  0  0
    1.1342   -1.7897    0.0168 H   0  0  0  0  0  0  0  0  0  0  0  0
   -1.1140   -2.3557    0.8724 H   0  0  0  0  0  0  0  0  0  0  0  0
   -4.9357    2.4855    0.3422 S   0  0  0  0  0  0  0  0  0  0  0  0
   -5.8100    2.4252    1.9801 C   0  0  0  0  0  0  0  0  0  0  0  0
   -5.7011    3.4250   -0.4744 O   0  0  0  0  0  0  0  0  0  0  0  0
   -4.9010    1.0649   -0.0797 O   0  0  0  0  0  0  0  0  0  0  0  0
   -3.5625    2.9796    0.7554 O   0  0  0  0  0  0  0  0  0  0  0  0
   -5.8294    3.6250    2.5680 F   0  0  0  0  0  0  0  0  0  0  0  0
   -7.0689    1.9984    1.8276 F   0  0  0  0  0  0  0  0  0  0  0  0
   -5.1731    1.5618    2.8059 F   0  0  0  0  0  0  0  0  0  0  0  0
  1  2  1  0  0  0  0
  2  3  1  0  0  0  0
  4 11  1  0  0  0  0
  4  1  2  0  0  0  0
  5  4  1  0  0  0  0
  6  5  2  0  0  0  0
  6  9  1  0  0  0  0
  7  6  1  0  0  0  0
  8  7  1  0  0  0  0
  8 15  1  0  0  0  0
  9 10  2  0  0  0  0
 10  1  1  0  0  0  0
 10 17  1  0  0  0  0
 12  5  1  0  0  0  0
 13  8  1  0  0  0  0
 14  8  1  0  0  0  0
 16  9  1  0  0  0  0
 18 22  1  0  0  0  0
 18 19  1  0  0  0  0
 19 23  1  0  0  0  0
 19 25  1  0  0  0  0
 20 18  2  0  0  0  0
 21 18  2  0  0  0  0
 24 19  1  0  0  0  0
M  RAD  3   2   2   3   3  22   2
M  END
