Coordinates from ORCA-job 4-MeOPhN2+~TfO-_B3LYPG-6-31G_dp-CH-Scan-d09-49-n800
 OpenBabel11261919093D

 25 24  0  0  0  0  0  0  0  0999 V2000
   -1.7951   -0.4219    0.5319 C   0  0  0  0  0  0  0  0  0  0  0  0
   -3.0589   -0.8037    0.9054 N   0  0  0  0  0  0  0  0  0  0  0  0
   -4.1011   -1.0781    1.2113 N   0  0  0  0  0  0  0  0  0  0  0  0
   -1.6361    0.9470    0.1954 C   0  0  0  0  0  0  0  0  0  0  0  0
   -0.3122    1.2315   -0.1605 C   0  0  0  0  0  0  0  0  0  0  0  0
    0.7179    0.2747   -0.1771 C   0  0  0  0  0  0  0  0  0  0  0  0
    1.9373    0.7216   -0.5422 O   0  0  0  0  0  0  0  0  0  0  0  0
    3.0418   -0.1784   -0.5817 C   0  0  0  0  0  0  0  0  0  0  0  0
    0.4663   -1.0800    0.1753 C   0  0  0  0  0  0  0  0  0  0  0  0
   -0.8092   -1.4433    0.5380 C   0  0  0  0  0  0  0  0  0  0  0  0
   -3.2161    2.4430    0.1412 H   0  0  0  0  0  0  0  0  0  0  0  0
   -0.0248    2.2415   -0.4478 H   0  0  0  0  0  0  0  0  0  0  0  0
    3.8979    0.4184   -0.8969 H   0  0  0  0  0  0  0  0  0  0  0  0
    2.8764   -0.9848   -1.3054 H   0  0  0  0  0  0  0  0  0  0  0  0
    3.2451   -0.6072    0.4065 H   0  0  0  0  0  0  0  0  0  0  0  0
    1.2546   -1.8218    0.1627 H   0  0  0  0  0  0  0  0  0  0  0  0
   -1.0462   -2.4665    0.8166 H   0  0  0  0  0  0  0  0  0  0  0  0
   -5.3730    2.5370    0.3194 S   0  0  0  0  0  0  0  0  0  0  0  0
   -5.4838    2.5059    2.1773 C   0  0  0  0  0  0  0  0  0  0  0  0
   -6.3486    3.5037   -0.1470 O   0  0  0  0  0  0  0  0  0  0  0  0
   -5.3973    1.1389   -0.1011 O   0  0  0  0  0  0  0  0  0  0  0  0
   -3.9215    3.1615    0.1387 O   0  0  0  0  0  0  0  0  0  0  0  0
   -5.3311    3.7296    2.6774 F   0  0  0  0  0  0  0  0  0  0  0  0
   -6.6749    2.0238    2.5349 F   0  0  0  0  0  0  0  0  0  0  0  0
   -4.5230    1.7064    2.6648 F   0  0  0  0  0  0  0  0  0  0  0  0
  1 10  1  0  0  0  0
  1  2  1  0  0  0  0
  2  3  1  0  0  0  0
  4  1  2  0  0  0  0
  5  4  1  0  0  0  0
  6  5  2  0  0  0  0
  6  9  1  0  0  0  0
  7  6  1  0  0  0  0
  8  7  1  0  0  0  0
  8 15  1  0  0  0  0
  9 10  2  0  0  0  0
 10 17  1  0  0  0  0
 12  5  1  0  0  0  0
 13  8  1  0  0  0  0
 14  8  1  0  0  0  0
 16  9  1  0  0  0  0
 18 19  1  0  0  0  0
 19 24  1  0  0  0  0
 19 25  1  0  0  0  0
 19 23  1  0  0  0  0
 20 18  2  0  0  0  0
 21 18  2  0  0  0  0
 22 11  1  0  0  0  0
 22 18  1  0  0  0  0
M  RAD  3   2   2   3   3   4   2
M  END
