Coordinates from ORCA-job 4-MeOPhN2+~TfO-_B3LYPG-6-31G_dp-CH-Scan-d09-49-n800
 OpenBabel11261919093D

 25 24  0  0  0  0  0  0  0  0999 V2000
   -1.5628   -0.3497    0.6587 C   0  0  0  0  0  0  0  0  0  0  0  0
   -2.8620   -0.6023    1.0408 N   0  0  0  0  0  0  0  0  0  0  0  0
   -3.9291   -0.7367    1.3613 N   0  0  0  0  0  0  0  0  0  0  0  0
   -1.2895    1.0262    0.4722 C   0  0  0  0  0  0  0  0  0  0  0  0
    0.0566    1.1970    0.0969 C   0  0  0  0  0  0  0  0  0  0  0  0
    0.9716    0.1451   -0.0653 C   0  0  0  0  0  0  0  0  0  0  0  0
    2.2280    0.4936   -0.4329 O   0  0  0  0  0  0  0  0  0  0  0  0
    3.2174   -0.5129   -0.6144 C   0  0  0  0  0  0  0  0  0  0  0  0
    0.5861   -1.2108    0.1476 C   0  0  0  0  0  0  0  0  0  0  0  0
   -0.7100   -1.4770    0.5201 C   0  0  0  0  0  0  0  0  0  0  0  0
   -4.3199    3.6920   -0.4897 H   0  0  0  0  0  0  0  0  0  0  0  0
    0.4549    2.1950   -0.0914 H   0  0  0  0  0  0  0  0  0  0  0  0
    4.1289    0.0138   -0.8989 H   0  0  0  0  0  0  0  0  0  0  0  0
    2.9410   -1.2117   -1.4129 H   0  0  0  0  0  0  0  0  0  0  0  0
    3.3994   -1.0721    0.3117 H   0  0  0  0  0  0  0  0  0  0  0  0
    1.2903   -2.0233    0.0214 H   0  0  0  0  0  0  0  0  0  0  0  0
   -1.0521   -2.4940    0.6970 H   0  0  0  0  0  0  0  0  0  0  0  0
   -5.9856    2.6258    0.3455 S   0  0  0  0  0  0  0  0  0  0  0  0
   -5.3922    2.4322    2.1036 C   0  0  0  0  0  0  0  0  0  0  0  0
   -7.3853    2.9931    0.3959 O   0  0  0  0  0  0  0  0  0  0  0  0
   -5.4785    1.4869   -0.4060 O   0  0  0  0  0  0  0  0  0  0  0  0
   -5.1562    3.9600   -0.0694 O   0  0  0  0  0  0  0  0  0  0  0  0
   -5.7413    3.4957    2.8212 F   0  0  0  0  0  0  0  0  0  0  0  0
   -5.9584    1.3379    2.6140 F   0  0  0  0  0  0  0  0  0  0  0  0
   -4.0675    2.2951    2.1100 F   0  0  0  0  0  0  0  0  0  0  0  0
  1  2  1  0  0  0  0
  2  3  1  0  0  0  0
  4  1  2  0  0  0  0
  5  4  1  0  0  0  0
  6  5  2  0  0  0  0
  6  9  1  0  0  0  0
  7  6  1  0  0  0  0
  8  7  1  0  0  0  0
  8 15  1  0  0  0  0
  9 10  2  0  0  0  0
 10  1  1  0  0  0  0
 10 17  1  0  0  0  0
 11 22  1  0  0  0  0
 12  5  1  0  0  0  0
 13  8  1  0  0  0  0
 14  8  1  0  0  0  0
 16  9  1  0  0  0  0
 18 20  2  0  0  0  0
 18 19  1  0  0  0  0
 19 25  1  0  0  0  0
 19 24  1  0  0  0  0
 19 23  1  0  0  0  0
 21 18  2  0  0  0  0
 22 18  1  0  0  0  0
M  RAD  3   2   2   3   3   4   2
M  END
