Coordinates from ORCA-job 4-MeOPhN2+~TfO-_B3LYPG-6-31G_dp-CH-Scan-d09-49-n800
 OpenBabel11261919093D

 25 24  0  0  0  0  0  0  0  0999 V2000
   -1.7749   -0.4198    0.5255 C   0  0  0  0  0  0  0  0  0  0  0  0
   -3.0419   -0.7933    0.8976 N   0  0  0  0  0  0  0  0  0  0  0  0
   -4.0862   -1.0613    1.2026 N   0  0  0  0  0  0  0  0  0  0  0  0
   -1.6111    0.9477    0.1865 C   0  0  0  0  0  0  0  0  0  0  0  0
   -0.2848    1.2252   -0.1681 C   0  0  0  0  0  0  0  0  0  0  0  0
    0.7409    0.2638   -0.1809 C   0  0  0  0  0  0  0  0  0  0  0  0
    1.9634    0.7040   -0.5452 O   0  0  0  0  0  0  0  0  0  0  0  0
    3.0635   -0.2012   -0.5805 C   0  0  0  0  0  0  0  0  0  0  0  0
    0.4831   -1.0894    0.1744 C   0  0  0  0  0  0  0  0  0  0  0  0
   -0.7944   -1.4465    0.5359 C   0  0  0  0  0  0  0  0  0  0  0  0
   -3.2676    2.5084    0.1275 H   0  0  0  0  0  0  0  0  0  0  0  0
    0.0084    2.2331   -0.4575 H   0  0  0  0  0  0  0  0  0  0  0  0
    3.9230    0.3905   -0.8959 H   0  0  0  0  0  0  0  0  0  0  0  0
    2.8955   -1.0090   -1.3021 H   0  0  0  0  0  0  0  0  0  0  0  0
    3.2634   -0.6284    0.4092 H   0  0  0  0  0  0  0  0  0  0  0  0
    1.2684   -1.8343    0.1648 H   0  0  0  0  0  0  0  0  0  0  0  0
   -1.0363   -2.4681    0.8165 H   0  0  0  0  0  0  0  0  0  0  0  0
   -5.4198    2.5495    0.3278 S   0  0  0  0  0  0  0  0  0  0  0  0
   -5.5078    2.5075    2.1870 C   0  0  0  0  0  0  0  0  0  0  0  0
   -6.4174    3.4998   -0.1241 O   0  0  0  0  0  0  0  0  0  0  0  0
   -5.4164    1.1542   -0.1009 O   0  0  0  0  0  0  0  0  0  0  0  0
   -3.9815    3.2090    0.1337 O   0  0  0  0  0  0  0  0  0  0  0  0
   -5.3770    3.7323    2.6902 F   0  0  0  0  0  0  0  0  0  0  0  0
   -6.6841    1.9976    2.5543 F   0  0  0  0  0  0  0  0  0  0  0  0
   -4.5243    1.7276    2.6588 F   0  0  0  0  0  0  0  0  0  0  0  0
  1 10  1  0  0  0  0
  1  2  1  0  0  0  0
  2  3  1  0  0  0  0
  4  1  2  0  0  0  0
  5  4  1  0  0  0  0
  6  5  2  0  0  0  0
  6  9  1  0  0  0  0
  7  6  1  0  0  0  0
  8  7  1  0  0  0  0
  8 15  1  0  0  0  0
  9 10  2  0  0  0  0
 10 17  1  0  0  0  0
 11 22  1  0  0  0  0
 12  5  1  0  0  0  0
 13  8  1  0  0  0  0
 14  8  1  0  0  0  0
 16  9  1  0  0  0  0
 18 19  1  0  0  0  0
 19 24  1  0  0  0  0
 19 25  1  0  0  0  0
 19 23  1  0  0  0  0
 20 18  2  0  0  0  0
 21 18  2  0  0  0  0
 22 18  1  0  0  0  0
M  RAD  3   2   2   3   3   4   2
M  END
