Coordinates from ORCA-job 4-MeOPhN2+~TfO-_B3LYPG-6-31G_dp-CH-Scan-d09-49-n800
 OpenBabel11261919093D

 25 24  0  0  0  0  0  0  0  0999 V2000
   -1.5352   -0.3425    0.6647 C   0  0  0  0  0  0  0  0  0  0  0  0
   -2.8405   -0.5827    1.0355 N   0  0  0  0  0  0  0  0  0  0  0  0
   -3.9117   -0.7024    1.3482 N   0  0  0  0  0  0  0  0  0  0  0  0
   -1.2380    1.0342    0.5301 C   0  0  0  0  0  0  0  0  0  0  0  0
    0.1114    1.1954    0.1625 C   0  0  0  0  0  0  0  0  0  0  0  0
    1.0077    0.1341   -0.0380 C   0  0  0  0  0  0  0  0  0  0  0  0
    2.2708    0.4738   -0.3916 O   0  0  0  0  0  0  0  0  0  0  0  0
    3.2428   -0.5428   -0.6076 C   0  0  0  0  0  0  0  0  0  0  0  0
    0.5982   -1.2219    0.1238 C   0  0  0  0  0  0  0  0  0  0  0  0
   -0.7031   -1.4792    0.4849 C   0  0  0  0  0  0  0  0  0  0  0  0
   -4.4830    3.7267   -0.5765 H   0  0  0  0  0  0  0  0  0  0  0  0
    0.5275    2.1927    0.0123 H   0  0  0  0  0  0  0  0  0  0  0  0
    4.1641   -0.0223   -0.8711 H   0  0  0  0  0  0  0  0  0  0  0  0
    2.9564   -1.2075   -1.4315 H   0  0  0  0  0  0  0  0  0  0  0  0
    3.4124   -1.1384    0.2979 H   0  0  0  0  0  0  0  0  0  0  0  0
    1.2884   -2.0412   -0.0321 H   0  0  0  0  0  0  0  0  0  0  0  0
   -1.0635   -2.4959    0.6230 H   0  0  0  0  0  0  0  0  0  0  0  0
   -6.0615    2.6158    0.3614 S   0  0  0  0  0  0  0  0  0  0  0  0
   -5.3778    2.4615    2.0908 C   0  0  0  0  0  0  0  0  0  0  0  0
   -7.4690    2.9353    0.4761 O   0  0  0  0  0  0  0  0  0  0  0  0
   -5.5509    1.4886   -0.4056 O   0  0  0  0  0  0  0  0  0  0  0  0
   -5.2986    3.9730   -0.1056 O   0  0  0  0  0  0  0  0  0  0  0  0
   -5.7089    3.5319    2.8066 F   0  0  0  0  0  0  0  0  0  0  0  0
   -5.9011    1.3677    2.6461 F   0  0  0  0  0  0  0  0  0  0  0  0
   -4.0530    2.3451    2.0328 F   0  0  0  0  0  0  0  0  0  0  0  0
  1  2  1  0  0  0  0
  2  3  1  0  0  0  0
  4  1  1  0  0  0  0
  5  4  2  0  0  0  0
  6  9  2  0  0  0  0
  6  5  1  0  0  0  0
  7  6  1  0  0  0  0
  8  7  1  0  0  0  0
  8 15  1  0  0  0  0
  9 10  1  0  0  0  0
 10 17  1  0  0  0  0
 10  1  2  0  0  0  0
 11 22  1  0  0  0  0
 12  5  1  0  0  0  0
 13  8  1  0  0  0  0
 14  8  1  0  0  0  0
 16  9  1  0  0  0  0
 18 20  2  0  0  0  0
 18 19  1  0  0  0  0
 19 24  1  0  0  0  0
 19 23  1  0  0  0  0
 21 18  2  0  0  0  0
 22 18  1  0  0  0  0
 25 19  1  0  0  0  0
M  RAD  3   2   2   3   3   4   2
M  END
