Coordinates from ORCA-job 4-MeOPhN2+~TfO-_B3LYPG-6-31G_dp-CH-Scan-d09-49-n800
 OpenBabel11261919093D

 25 24  0  0  0  0  0  0  0  0999 V2000
   -1.7249   -0.4090    0.5145 C   0  0  0  0  0  0  0  0  0  0  0  0
   -2.9994   -0.7603    0.8851 N   0  0  0  0  0  0  0  0  0  0  0  0
   -4.0493   -1.0088    1.1887 N   0  0  0  0  0  0  0  0  0  0  0  0
   -1.5475    0.9544    0.1684 C   0  0  0  0  0  0  0  0  0  0  0  0
   -0.2154    1.2116   -0.1849 C   0  0  0  0  0  0  0  0  0  0  0  0
    0.7977    0.2374   -0.1889 C   0  0  0  0  0  0  0  0  0  0  0  0
    2.0279    0.6589   -0.5533 O   0  0  0  0  0  0  0  0  0  0  0  0
    3.1153   -0.2612   -0.5795 C   0  0  0  0  0  0  0  0  0  0  0  0
    0.5229   -1.1110    0.1744 C   0  0  0  0  0  0  0  0  0  0  0  0
   -0.7596   -1.4504    0.5348 C   0  0  0  0  0  0  0  0  0  0  0  0
   -3.3964    2.6753    0.0915 H   0  0  0  0  0  0  0  0  0  0  0  0
    0.0932    2.2135   -0.4803 H   0  0  0  0  0  0  0  0  0  0  0  0
    3.9837    0.3162   -0.8975 H   0  0  0  0  0  0  0  0  0  0  0  0
    2.9384   -1.0721   -1.2956 H   0  0  0  0  0  0  0  0  0  0  0  0
    3.3077   -0.6842    0.4135 H   0  0  0  0  0  0  0  0  0  0  0  0
    1.2993   -1.8652    0.1714 H   0  0  0  0  0  0  0  0  0  0  0  0
   -1.0152   -2.4672    0.8212 H   0  0  0  0  0  0  0  0  0  0  0  0
   -5.5344    2.5808    0.3456 S   0  0  0  0  0  0  0  0  0  0  0  0
   -5.5636    2.5036    2.2062 C   0  0  0  0  0  0  0  0  0  0  0  0
   -6.5897    3.4864   -0.0629 O   0  0  0  0  0  0  0  0  0  0  0  0
   -5.4587    1.1984   -0.1126 O   0  0  0  0  0  0  0  0  0  0  0  0
   -4.1366    3.3307    0.1231 O   0  0  0  0  0  0  0  0  0  0  0  0
   -5.4948    3.7262    2.7251 F   0  0  0  0  0  0  0  0  0  0  0  0
   -6.6954    1.9156    2.5945 F   0  0  0  0  0  0  0  0  0  0  0  0
   -4.5209    1.7793    2.6344 F   0  0  0  0  0  0  0  0  0  0  0  0
  1 10  1  0  0  0  0
  1  2  1  0  0  0  0
  2  3  1  0  0  0  0
  4  1  2  0  0  0  0
  5  4  1  0  0  0  0
  6  5  2  0  0  0  0
  6  9  1  0  0  0  0
  7  6  1  0  0  0  0
  8  7  1  0  0  0  0
  8 15  1  0  0  0  0
  9 10  2  0  0  0  0
 10 17  1  0  0  0  0
 11 22  1  0  0  0  0
 12  5  1  0  0  0  0
 13  8  1  0  0  0  0
 14  8  1  0  0  0  0
 16  9  1  0  0  0  0
 18 19  1  0  0  0  0
 19 24  1  0  0  0  0
 19 25  1  0  0  0  0
 19 23  1  0  0  0  0
 20 18  2  0  0  0  0
 21 18  2  0  0  0  0
 22 18  1  0  0  0  0
M  RAD  3   2   2   3   3   4   2
M  END
