Coordinates from ORCA-job 4-MeOPhN2+~TfO-_B3LYPG-6-31G_dp-CH-Scan-d09-49-n800
 OpenBabel11261919093D

 25 24  0  0  0  0  0  0  0  0999 V2000
   -1.5011   -0.3415    0.6785 C   0  0  0  0  0  0  0  0  0  0  0  0
   -2.8144   -0.5688    1.0299 N   0  0  0  0  0  0  0  0  0  0  0  0
   -3.8905   -0.6767    1.3305 N   0  0  0  0  0  0  0  0  0  0  0  0
   -1.1688    1.0325    0.6343 C   0  0  0  0  0  0  0  0  0  0  0  0
    0.1857    1.1828    0.2799 C   0  0  0  0  0  0  0  0  0  0  0  0
    1.0551    0.1139    0.0133 C   0  0  0  0  0  0  0  0  0  0  0  0
    2.3277    0.4428   -0.3166 O   0  0  0  0  0  0  0  0  0  0  0  0
    3.2738   -0.5827   -0.5949 C   0  0  0  0  0  0  0  0  0  0  0  0
    0.6109   -1.2389    0.0879 C   0  0  0  0  0  0  0  0  0  0  0  0
   -0.6978   -1.4857    0.4287 C   0  0  0  0  0  0  0  0  0  0  0  0
   -4.7900    3.8139   -0.7275 H   0  0  0  0  0  0  0  0  0  0  0  0
    0.6274    2.1769    0.1956 H   0  0  0  0  0  0  0  0  0  0  0  0
    4.2080   -0.0705   -0.8274 H   0  0  0  0  0  0  0  0  0  0  0  0
    2.9715   -1.1888   -1.4576 H   0  0  0  0  0  0  0  0  0  0  0  0
    3.4282   -1.2365    0.2724 H   0  0  0  0  0  0  0  0  0  0  0  0
    1.2812   -2.0636   -0.1183 H   0  0  0  0  0  0  0  0  0  0  0  0
   -1.0848   -2.4996    0.4996 H   0  0  0  0  0  0  0  0  0  0  0  0
   -6.1583    2.5945    0.3868 S   0  0  0  0  0  0  0  0  0  0  0  0
   -5.3262    2.5183    2.0556 C   0  0  0  0  0  0  0  0  0  0  0  0
   -7.5737    2.7963    0.6166 O   0  0  0  0  0  0  0  0  0  0  0  0
   -5.6192    1.5072   -0.4184 O   0  0  0  0  0  0  0  0  0  0  0  0
   -5.5499    4.0048   -0.1502 O   0  0  0  0  0  0  0  0  0  0  0  0
   -5.6458    3.5943    2.7685 F   0  0  0  0  0  0  0  0  0  0  0  0
   -5.7567    1.4202    2.6786 F   0  0  0  0  0  0  0  0  0  0  0  0
   -4.0080    2.4539    1.8915 F   0  0  0  0  0  0  0  0  0  0  0  0
  1  2  1  0  0  0  0
  2  3  1  0  0  0  0
  4  1  1  0  0  0  0
  5  4  2  0  0  0  0
  6  9  2  0  0  0  0
  6  5  1  0  0  0  0
  7  6  1  0  0  0  0
  8  7  1  0  0  0  0
  8 15  1  0  0  0  0
  9 10  1  0  0  0  0
 10 17  1  0  0  0  0
 10  1  2  0  0  0  0
 11 22  1  0  0  0  0
 12  5  1  0  0  0  0
 13  8  1  0  0  0  0
 14  8  1  0  0  0  0
 16  9  1  0  0  0  0
 18 20  2  0  0  0  0
 18 19  1  0  0  0  0
 19 24  1  0  0  0  0
 19 23  1  0  0  0  0
 21 18  2  0  0  0  0
 22 18  1  0  0  0  0
 25 19  1  0  0  0  0
M  RAD  3   2   2   3   3   4   2
M  END
