Coordinates from ORCA-job 4-MeOPhN2+~TfO-_B3LYPG-6-31G_dp-CH-Scan-d09-49-n800
 OpenBabel11261919093D

 25 24  0  0  0  0  0  0  0  0999 V2000
   -1.8072   -0.2986    0.7567 C   0  0  0  0  0  0  0  0  0  0  0  0
   -3.0441   -0.6416    1.2337 N   0  0  0  0  0  0  0  0  0  0  0  0
   -4.0667   -0.8818    1.6133 N   0  0  0  0  0  0  0  0  0  0  0  0
   -1.5683    1.0622    0.4512 C   0  0  0  0  0  0  0  0  0  0  0  0
   -0.2969    1.3428   -0.0193 C   0  0  0  0  0  0  0  0  0  0  0  0
    0.6803    0.3394   -0.1810 C   0  0  0  0  0  0  0  0  0  0  0  0
    1.8675    0.7523   -0.6490 O   0  0  0  0  0  0  0  0  0  0  0  0
    2.9213   -0.1912   -0.8546 C   0  0  0  0  0  0  0  0  0  0  0  0
    0.3918   -1.0110    0.1409 C   0  0  0  0  0  0  0  0  0  0  0  0
   -0.8599   -1.3377    0.6167 C   0  0  0  0  0  0  0  0  0  0  0  0
   -2.5612    2.0185    0.5913 H   0  0  0  0  0  0  0  0  0  0  0  0
   -0.0217    2.3590   -0.2848 H   0  0  0  0  0  0  0  0  0  0  0  0
    3.7607    0.3874   -1.2387 H   0  0  0  0  0  0  0  0  0  0  0  0
    2.6343   -0.9507   -1.5898 H   0  0  0  0  0  0  0  0  0  0  0  0
    3.2112   -0.6726    0.0860 H   0  0  0  0  0  0  0  0  0  0  0  0
    1.1351   -1.7880    0.0179 H   0  0  0  0  0  0  0  0  0  0  0  0
   -1.1118   -2.3618    0.8728 H   0  0  0  0  0  0  0  0  0  0  0  0
   -4.9332    2.4817    0.3316 S   0  0  0  0  0  0  0  0  0  0  0  0
   -5.7923    2.4277    1.9778 C   0  0  0  0  0  0  0  0  0  0  0  0
   -5.6901    3.4354   -0.4751 O   0  0  0  0  0  0  0  0  0  0  0  0
   -4.9087    1.0644   -0.0941 O   0  0  0  0  0  0  0  0  0  0  0  0
   -3.5489    2.9660    0.7386 O   0  0  0  0  0  0  0  0  0  0  0  0
   -5.7987    3.6277    2.5645 F   0  0  0  0  0  0  0  0  0  0  0  0
   -7.0547    2.0091    1.8341 F   0  0  0  0  0  0  0  0  0  0  0  0
   -5.1534    1.5603    2.7964 F   0  0  0  0  0  0  0  0  0  0  0  0
  1  2  1  0  0  0  0
  2  3  1  0  0  0  0
  4  1  2  0  0  0  0
  5  4  1  0  0  0  0
  6  5  2  0  0  0  0
  6  9  1  0  0  0  0
  7  6  1  0  0  0  0
  8  7  1  0  0  0  0
  8 15  1  0  0  0  0
  9 10  2  0  0  0  0
 10  1  1  0  0  0  0
 10 17  1  0  0  0  0
 11 22  1  0  0  0  0
 12  5  1  0  0  0  0
 13  8  1  0  0  0  0
 14  8  1  0  0  0  0
 16  9  1  0  0  0  0
 18 22  1  0  0  0  0
 18 19  1  0  0  0  0
 19 23  1  0  0  0  0
 19 25  1  0  0  0  0
 20 18  2  0  0  0  0
 21 18  2  0  0  0  0
 24 19  1  0  0  0  0
M  RAD  3   2   2   3   3   4   2
M  END
