Coordinates from ORCA-job 4-MeOPhN2+~TfO-_B3LYPG-6-31G_dp-CH-Scan-d09-49-n800
 OpenBabel11261919093D

 25 24  0  0  0  0  0  0  0  0999 V2000
   -1.5467   -0.3313    0.5693 C   0  0  0  0  0  0  0  0  0  0  0  0
   -2.8365   -0.5909    0.9709 N   0  0  0  0  0  0  0  0  0  0  0  0
   -3.8974   -0.7481    1.3002 N   0  0  0  0  0  0  0  0  0  0  0  0
   -1.3095    1.0193    0.2145 C   0  0  0  0  0  0  0  0  0  0  0  0
    0.0325    1.1884   -0.1699 C   0  0  0  0  0  0  0  0  0  0  0  0
    0.9833    0.1554   -0.1936 C   0  0  0  0  0  0  0  0  0  0  0  0
    2.2306    0.4982   -0.5913 O   0  0  0  0  0  0  0  0  0  0  0  0
    3.2550   -0.4888   -0.6424 C   0  0  0  0  0  0  0  0  0  0  0  0
    0.6386   -1.1748    0.1834 C   0  0  0  0  0  0  0  0  0  0  0  0
   -0.6525   -1.4355    0.5759 C   0  0  0  0  0  0  0  0  0  0  0  0
   -3.8498    3.2919   -0.0417 H   0  0  0  0  0  0  0  0  0  0  0  0
    0.3985    2.1681   -0.4782 H   0  0  0  0  0  0  0  0  0  0  0  0
    4.1501    0.0300   -0.9868 H   0  0  0  0  0  0  0  0  0  0  0  0
    3.0084   -1.2898   -1.3492 H   0  0  0  0  0  0  0  0  0  0  0  0
    3.4484   -0.9210    0.3468 H   0  0  0  0  0  0  0  0  0  0  0  0
    1.3692   -1.9735    0.1657 H   0  0  0  0  0  0  0  0  0  0  0  0
   -0.9630   -2.4336    0.8748 H   0  0  0  0  0  0  0  0  0  0  0  0
   -5.8658    2.6693    0.3605 S   0  0  0  0  0  0  0  0  0  0  0  0
   -5.7507    2.4400    2.2073 C   0  0  0  0  0  0  0  0  0  0  0  0
   -7.1191    3.3405    0.0852 O   0  0  0  0  0  0  0  0  0  0  0  0
   -5.4856    1.4003   -0.2437 O   0  0  0  0  0  0  0  0  0  0  0  0
   -4.6853    3.7562    0.1521 O   0  0  0  0  0  0  0  0  0  0  0  0
   -5.9804    3.5924    2.8285 F   0  0  0  0  0  0  0  0  0  0  0  0
   -6.6588    1.5389    2.5777 F   0  0  0  0  0  0  0  0  0  0  0  0
   -4.5292    1.9971    2.5214 F   0  0  0  0  0  0  0  0  0  0  0  0
  1 10  1  0  0  0  0
  1  2  1  0  0  0  0
  2  3  1  0  0  0  0
  4  1  2  0  0  0  0
  5  4  1  0  0  0  0
  6  5  2  0  0  0  0
  6  9  1  0  0  0  0
  7  6  1  0  0  0  0
  8  7  1  0  0  0  0
  8 15  1  0  0  0  0
  9 10  2  0  0  0  0
 10 17  1  0  0  0  0
 11 22  1  0  0  0  0
 12  5  1  0  0  0  0
 13  8  1  0  0  0  0
 14  8  1  0  0  0  0
 16  9  1  0  0  0  0
 18 19  1  0  0  0  0
 19 25  1  0  0  0  0
 19 24  1  0  0  0  0
 19 23  1  0  0  0  0
 20 18  2  0  0  0  0
 21 18  2  0  0  0  0
 22 18  1  0  0  0  0
M  RAD  3   2   2   3   3   4   2
M  END
