Coordinates from ORCA-job 4-MeOPhN2+~TfO-_B3LYPG-6-31G_dp-CH-Scan-d09-49-n800
 OpenBabel11261919093D

 25 24  0  0  0  0  0  0  0  0999 V2000
   -1.6013   -0.3840    0.4751 C   0  0  0  0  0  0  0  0  0  0  0  0
   -2.8968   -0.6793    0.8300 N   0  0  0  0  0  0  0  0  0  0  0  0
   -3.9637   -0.8708    1.1187 N   0  0  0  0  0  0  0  0  0  0  0  0
   -1.3887    0.9666    0.1042 C   0  0  0  0  0  0  0  0  0  0  0  0
   -0.0398    1.1700   -0.2341 C   0  0  0  0  0  0  0  0  0  0  0  0
    0.9419    0.1662   -0.2022 C   0  0  0  0  0  0  0  0  0  0  0  0
    2.1921    0.5400   -0.5595 O   0  0  0  0  0  0  0  0  0  0  0  0
    3.2478   -0.4149   -0.5509 C   0  0  0  0  0  0  0  0  0  0  0  0
    0.6227   -1.1663    0.1877 C   0  0  0  0  0  0  0  0  0  0  0  0
   -0.6742   -1.4590    0.5363 C   0  0  0  0  0  0  0  0  0  0  0  0
   -3.8207    3.1387   -0.1122 H   0  0  0  0  0  0  0  0  0  0  0  0
    0.3077    2.1548   -0.5472 H   0  0  0  0  0  0  0  0  0  0  0  0
    4.1391    0.1254   -0.8714 H   0  0  0  0  0  0  0  0  0  0  0  0
    3.0538   -1.2370   -1.2497 H   0  0  0  0  0  0  0  0  0  0  0  0
    3.4156   -0.8213    0.4537 H   0  0  0  0  0  0  0  0  0  0  0  0
    1.3769   -1.9425    0.2137 H   0  0  0  0  0  0  0  0  0  0  0  0
   -0.9658   -2.4607    0.8422 H   0  0  0  0  0  0  0  0  0  0  0  0
   -5.8513    2.6632    0.4049 S   0  0  0  0  0  0  0  0  0  0  0  0
   -5.6433    2.4869    2.2490 C   0  0  0  0  0  0  0  0  0  0  0  0
   -7.0733    3.4059    0.1764 O   0  0  0  0  0  0  0  0  0  0  0  0
   -5.5916    1.3507   -0.1705 O   0  0  0  0  0  0  0  0  0  0  0  0
   -4.6202    3.6613    0.0888 O   0  0  0  0  0  0  0  0  0  0  0  0
   -5.7075    3.6778    2.8358 F   0  0  0  0  0  0  0  0  0  0  0  0
   -6.6169    1.7035    2.7113 F   0  0  0  0  0  0  0  0  0  0  0  0
   -4.4585    1.9235    2.5068 F   0  0  0  0  0  0  0  0  0  0  0  0
  1 10  1  0  0  0  0
  1  2  1  0  0  0  0
  2  3  1  0  0  0  0
  4  1  2  0  0  0  0
  5  6  2  0  0  0  0
  5  4  1  0  0  0  0
  6  9  1  0  0  0  0
  7  8  1  0  0  0  0
  7  6  1  0  0  0  0
  8 15  1  0  0  0  0
  9 16  1  0  0  0  0
  9 10  2  0  0  0  0
 10 17  1  0  0  0  0
 11 22  1  0  0  0  0
 12  5  1  0  0  0  0
 13  8  1  0  0  0  0
 14  8  1  0  0  0  0
 18 19  1  0  0  0  0
 19 25  1  0  0  0  0
 19 24  1  0  0  0  0
 19 23  1  0  0  0  0
 20 18  2  0  0  0  0
 21 18  2  0  0  0  0
 22 18  1  0  0  0  0
M  RAD  3   2   2   3   3   4   2
M  END
