Coordinates from ORCA-job 4-MeOPhN2+~TfO-_B3LYPG-6-31G_dp-CH-Scan-d09-49-n800
 OpenBabel11261919093D

 25 24  0  0  0  0  0  0  0  0999 V2000
   -1.5321   -0.3427    0.6631 C   0  0  0  0  0  0  0  0  0  0  0  0
   -2.8378   -0.5819    1.0333 N   0  0  0  0  0  0  0  0  0  0  0  0
   -3.9091   -0.7011    1.3462 N   0  0  0  0  0  0  0  0  0  0  0  0
   -1.2332    1.0337    0.5312 C   0  0  0  0  0  0  0  0  0  0  0  0
    0.1167    1.1940    0.1647 C   0  0  0  0  0  0  0  0  0  0  0  0
    1.0119    0.1321   -0.0370 C   0  0  0  0  0  0  0  0  0  0  0  0
    2.2757    0.4708   -0.3890 O   0  0  0  0  0  0  0  0  0  0  0  0
    3.2466   -0.5465   -0.6056 C   0  0  0  0  0  0  0  0  0  0  0  0
    0.6005   -1.2237    0.1221 C   0  0  0  0  0  0  0  0  0  0  0  0
   -0.7012   -1.4801    0.4818 C   0  0  0  0  0  0  0  0  0  0  0  0
   -4.5049    3.7389   -0.5847 H   0  0  0  0  0  0  0  0  0  0  0  0
    0.5340    2.1911    0.0165 H   0  0  0  0  0  0  0  0  0  0  0  0
    4.1688   -0.0267   -0.8673 H   0  0  0  0  0  0  0  0  0  0  0  0
    2.9603   -1.2095   -1.4309 H   0  0  0  0  0  0  0  0  0  0  0  0
    3.4147   -1.1439    0.2990 H   0  0  0  0  0  0  0  0  0  0  0  0
    1.2899   -2.0436   -0.0348 H   0  0  0  0  0  0  0  0  0  0  0  0
   -1.0630   -2.4966    0.6177 H   0  0  0  0  0  0  0  0  0  0  0  0
   -6.0689    2.6161    0.3639 S   0  0  0  0  0  0  0  0  0  0  0  0
   -5.3777    2.4647    2.0907 C   0  0  0  0  0  0  0  0  0  0  0  0
   -7.4781    2.9260    0.4845 O   0  0  0  0  0  0  0  0  0  0  0  0
   -5.5536    1.4928   -0.4061 O   0  0  0  0  0  0  0  0  0  0  0  0
   -5.3174    3.9790   -0.1057 O   0  0  0  0  0  0  0  0  0  0  0  0
   -5.7075    3.5356    2.8064 F   0  0  0  0  0  0  0  0  0  0  0  0
   -5.8976    1.3709    2.6491 F   0  0  0  0  0  0  0  0  0  0  0  0
   -4.0529    2.3497    2.0280 F   0  0  0  0  0  0  0  0  0  0  0  0
  1  2  1  0  0  0  0
  2  3  1  0  0  0  0
  4  1  1  0  0  0  0
  5  4  2  0  0  0  0
  6  9  2  0  0  0  0
  6  5  1  0  0  0  0
  7  6  1  0  0  0  0
  8  7  1  0  0  0  0
  8 15  1  0  0  0  0
  9 10  1  0  0  0  0
 10 17  1  0  0  0  0
 10  1  2  0  0  0  0
 11 22  1  0  0  0  0
 12  5  1  0  0  0  0
 13  8  1  0  0  0  0
 14  8  1  0  0  0  0
 16  9  1  0  0  0  0
 18 20  2  0  0  0  0
 18 19  1  0  0  0  0
 19 24  1  0  0  0  0
 19 23  1  0  0  0  0
 21 18  2  0  0  0  0
 22 18  1  0  0  0  0
 25 19  1  0  0  0  0
M  RAD  3   2   2   3   3   4   2
M  END
