Coordinates from ORCA-job 4-MeOPhN2+~TfO-_B3LYPG-6-31G_dp-CH-Scan-d09-49-n800
 OpenBabel11261919093D

 25 24  0  0  0  0  0  0  0  0999 V2000
   -1.5106   -0.3244    0.5723 C   0  0  0  0  0  0  0  0  0  0  0  0
   -2.8042   -0.5689    0.9735 N   0  0  0  0  0  0  0  0  0  0  0  0
   -3.8674   -0.7102    1.3030 N   0  0  0  0  0  0  0  0  0  0  0  0
   -1.2601    1.0265    0.2293 C   0  0  0  0  0  0  0  0  0  0  0  0
    0.0840    1.1828   -0.1551 C   0  0  0  0  0  0  0  0  0  0  0  0
    1.0224    0.1391   -0.1893 C   0  0  0  0  0  0  0  0  0  0  0  0
    2.2735    0.4707   -0.5860 O   0  0  0  0  0  0  0  0  0  0  0  0
    3.2857   -0.5280   -0.6479 C   0  0  0  0  0  0  0  0  0  0  0  0
    0.6629   -1.1906    0.1764 C   0  0  0  0  0  0  0  0  0  0  0  0
   -0.6306   -1.4399    0.5685 C   0  0  0  0  0  0  0  0  0  0  0  0
   -3.9628    3.3969   -0.0829 H   0  0  0  0  0  0  0  0  0  0  0  0
    0.4615    2.1608   -0.4553 H   0  0  0  0  0  0  0  0  0  0  0  0
    4.1866   -0.0170   -0.9889 H   0  0  0  0  0  0  0  0  0  0  0  0
    3.0286   -1.3195   -1.3618 H   0  0  0  0  0  0  0  0  0  0  0  0
    3.4754   -0.9720    0.3368 H   0  0  0  0  0  0  0  0  0  0  0  0
    1.3844   -1.9974    0.1505 H   0  0  0  0  0  0  0  0  0  0  0  0
   -0.9525   -2.4369    0.8592 H   0  0  0  0  0  0  0  0  0  0  0  0
   -5.9369    2.6814    0.3689 S   0  0  0  0  0  0  0  0  0  0  0  0
   -5.7822    2.4458    2.2122 C   0  0  0  0  0  0  0  0  0  0  0  0
   -7.2230    3.2979    0.1184 O   0  0  0  0  0  0  0  0  0  0  0  0
   -5.5071    1.4371   -0.2529 O   0  0  0  0  0  0  0  0  0  0  0  0
   -4.8075    3.8225    0.1510 O   0  0  0  0  0  0  0  0  0  0  0  0
   -6.0367    3.5878    2.8428 F   0  0  0  0  0  0  0  0  0  0  0  0
   -6.6563    1.5155    2.5919 F   0  0  0  0  0  0  0  0  0  0  0  0
   -4.5430    2.0389    2.5027 F   0  0  0  0  0  0  0  0  0  0  0  0
  1  2  1  0  0  0  0
  2  3  1  0  0  0  0
  4  1  2  0  0  0  0
  5  4  1  0  0  0  0
  6  5  2  0  0  0  0
  6  9  1  0  0  0  0
  7  6  1  0  0  0  0
  8  7  1  0  0  0  0
  8 15  1  0  0  0  0
  9 10  2  0  0  0  0
 10  1  1  0  0  0  0
 10 17  1  0  0  0  0
 11 22  1  0  0  0  0
 12  5  1  0  0  0  0
 13  8  1  0  0  0  0
 14  8  1  0  0  0  0
 16  9  1  0  0  0  0
 18 19  1  0  0  0  0
 19 25  1  0  0  0  0
 19 24  1  0  0  0  0
 19 23  1  0  0  0  0
 20 18  2  0  0  0  0
 21 18  2  0  0  0  0
 22 18  1  0  0  0  0
M  RAD  3   2   2   3   3   4   2
M  END
