Coordinates from ORCA-job 4-MeOPhN2+~TfO-_B3LYPG-6-31G_dp-CH-Scan-d09-49-n800
 OpenBabel11261919093D

 25 24  0  0  0  0  0  0  0  0999 V2000
   -1.7362   -0.4116    0.5165 C   0  0  0  0  0  0  0  0  0  0  0  0
   -3.0091   -0.7679    0.8871 N   0  0  0  0  0  0  0  0  0  0  0  0
   -4.0580   -1.0208    1.1904 N   0  0  0  0  0  0  0  0  0  0  0  0
   -1.5619    0.9527    0.1718 C   0  0  0  0  0  0  0  0  0  0  0  0
   -0.2310    1.2144   -0.1817 C   0  0  0  0  0  0  0  0  0  0  0  0
    0.7850    0.2432   -0.1872 C   0  0  0  0  0  0  0  0  0  0  0  0
    2.0135    0.6688   -0.5515 O   0  0  0  0  0  0  0  0  0  0  0  0
    3.1038   -0.2479   -0.5794 C   0  0  0  0  0  0  0  0  0  0  0  0
    0.5140   -1.1063    0.1746 C   0  0  0  0  0  0  0  0  0  0  0  0
   -0.7674   -1.4497    0.5351 C   0  0  0  0  0  0  0  0  0  0  0  0
   -3.3677    2.6392    0.0998 H   0  0  0  0  0  0  0  0  0  0  0  0
    0.0742    2.2176   -0.4759 H   0  0  0  0  0  0  0  0  0  0  0  0
    3.9703    0.3326   -0.8968 H   0  0  0  0  0  0  0  0  0  0  0  0
    2.9291   -1.0584   -1.2964 H   0  0  0  0  0  0  0  0  0  0  0  0
    3.2978   -0.6715    0.4131 H   0  0  0  0  0  0  0  0  0  0  0  0
    1.2925   -1.8584    0.1705 H   0  0  0  0  0  0  0  0  0  0  0  0
   -1.0199   -2.4675    0.8204 H   0  0  0  0  0  0  0  0  0  0  0  0
   -5.5093    2.5741    0.3418 S   0  0  0  0  0  0  0  0  0  0  0  0
   -5.5508    2.5045    2.2023 C   0  0  0  0  0  0  0  0  0  0  0  0
   -6.5520    3.4900   -0.0762 O   0  0  0  0  0  0  0  0  0  0  0  0
   -5.4495    1.1885   -0.1096 O   0  0  0  0  0  0  0  0  0  0  0  0
   -4.1020    3.3044    0.1247 O   0  0  0  0  0  0  0  0  0  0  0  0
   -5.4707    3.7281    2.7174 F   0  0  0  0  0  0  0  0  0  0  0  0
   -6.6915    1.9311    2.5866 F   0  0  0  0  0  0  0  0  0  0  0  0
   -4.5191    1.7696    2.6398 F   0  0  0  0  0  0  0  0  0  0  0  0
  1 10  1  0  0  0  0
  1  2  1  0  0  0  0
  2  3  1  0  0  0  0
  4  1  2  0  0  0  0
  5  4  1  0  0  0  0
  6  5  2  0  0  0  0
  6  9  1  0  0  0  0
  7  6  1  0  0  0  0
  8  7  1  0  0  0  0
  8 15  1  0  0  0  0
  9 10  2  0  0  0  0
 10 17  1  0  0  0  0
 11 22  1  0  0  0  0
 12  5  1  0  0  0  0
 13  8  1  0  0  0  0
 14  8  1  0  0  0  0
 16  9  1  0  0  0  0
 18 19  1  0  0  0  0
 19 24  1  0  0  0  0
 19 25  1  0  0  0  0
 19 23  1  0  0  0  0
 20 18  2  0  0  0  0
 21 18  2  0  0  0  0
 22 18  1  0  0  0  0
M  RAD  3   2   2   3   3   4   2
M  END
