Coordinates from ORCA-job 4-MeOPhN2+~TfO-_B3LYPG-6-31G_dp-CH-Scan-d09-49-n800
 OpenBabel11261919093D

 25 24  0  0  0  0  0  0  0  0999 V2000
   -1.4932   -0.3457    0.6815 C   0  0  0  0  0  0  0  0  0  0  0  0
   -2.8096   -0.5716    1.0228 N   0  0  0  0  0  0  0  0  0  0  0  0
   -3.8883   -0.6780    1.3148 N   0  0  0  0  0  0  0  0  0  0  0  0
   -1.1542    1.0270    0.6613 C   0  0  0  0  0  0  0  0  0  0  0  0
    0.2019    1.1768    0.3129 C   0  0  0  0  0  0  0  0  0  0  0  0
    1.0666    0.1082    0.0303 C   0  0  0  0  0  0  0  0  0  0  0  0
    2.3414    0.4362   -0.2918 O   0  0  0  0  0  0  0  0  0  0  0  0
    3.2829   -0.5890   -0.5863 C   0  0  0  0  0  0  0  0  0  0  0  0
    0.6158   -1.2436    0.0818 C   0  0  0  0  0  0  0  0  0  0  0  0
   -0.6950   -1.4897    0.4150 C   0  0  0  0  0  0  0  0  0  0  0  0
   -4.8814    3.8232   -0.7720 H   0  0  0  0  0  0  0  0  0  0  0  0
    0.6486    2.1700    0.2464 H   0  0  0  0  0  0  0  0  0  0  0  0
    4.2194   -0.0775   -0.8108 H   0  0  0  0  0  0  0  0  0  0  0  0
    2.9780   -1.1801   -1.4584 H   0  0  0  0  0  0  0  0  0  0  0  0
    3.4344   -1.2570    0.2707 H   0  0  0  0  0  0  0  0  0  0  0  0
    1.2829   -2.0680   -0.1359 H   0  0  0  0  0  0  0  0  0  0  0  0
   -1.0870   -2.5028    0.4683 H   0  0  0  0  0  0  0  0  0  0  0  0
   -6.1958    2.5986    0.3999 S   0  0  0  0  0  0  0  0  0  0  0  0
   -5.2993    2.5313    2.0353 C   0  0  0  0  0  0  0  0  0  0  0  0
   -7.6027    2.7925    0.6826 O   0  0  0  0  0  0  0  0  0  0  0  0
   -5.6809    1.5134   -0.4239 O   0  0  0  0  0  0  0  0  0  0  0  0
   -5.6158    4.0116   -0.1619 O   0  0  0  0  0  0  0  0  0  0  0  0
   -5.6079    3.6006    2.7629 F   0  0  0  0  0  0  0  0  0  0  0  0
   -5.6889    1.4253    2.6716 F   0  0  0  0  0  0  0  0  0  0  0  0
   -3.9879    2.4872    1.8203 F   0  0  0  0  0  0  0  0  0  0  0  0
  1  2  1  0  0  0  0
  2  3  1  0  0  0  0
  4  1  1  0  0  0  0
  5  4  2  0  0  0  0
  6  9  2  0  0  0  0
  6  5  1  0  0  0  0
  7  6  1  0  0  0  0
  8  7  1  0  0  0  0
  8 15  1  0  0  0  0
  9 10  1  0  0  0  0
 10 17  1  0  0  0  0
 10  1  2  0  0  0  0
 11 22  1  0  0  0  0
 12  5  1  0  0  0  0
 13  8  1  0  0  0  0
 14  8  1  0  0  0  0
 16  9  1  0  0  0  0
 18 20  2  0  0  0  0
 18 19  1  0  0  0  0
 19 24  1  0  0  0  0
 19 23  1  0  0  0  0
 21 18  2  0  0  0  0
 22 18  1  0  0  0  0
 25 19  1  0  0  0  0
M  RAD  3   2   2   3   3   4   2
M  END
