Coordinates from ORCA-job 4-MeOPhN2+~TfO-_B3LYPG-6-31G_dp-CH-Scan-d09-49-n800
 OpenBabel11261919093D

 25 24  0  0  0  0  0  0  0  0999 V2000
   -1.5409   -0.3427    0.6715 C   0  0  0  0  0  0  0  0  0  0  0  0
   -2.8460   -0.5843    1.0429 N   0  0  0  0  0  0  0  0  0  0  0  0
   -3.9178   -0.7026    1.3543 N   0  0  0  0  0  0  0  0  0  0  0  0
   -1.2470    1.0342    0.5338 C   0  0  0  0  0  0  0  0  0  0  0  0
    0.1012    1.1979    0.1629 C   0  0  0  0  0  0  0  0  0  0  0  0
    0.9992    0.1381   -0.0381 C   0  0  0  0  0  0  0  0  0  0  0  0
    2.2605    0.4798   -0.3959 O   0  0  0  0  0  0  0  0  0  0  0  0
    3.2339   -0.5351   -0.6134 C   0  0  0  0  0  0  0  0  0  0  0  0
    0.5929   -1.2184    0.1273 C   0  0  0  0  0  0  0  0  0  0  0  0
   -0.7069   -1.4778    0.4920 C   0  0  0  0  0  0  0  0  0  0  0  0
   -4.4436    3.7082   -0.5623 H   0  0  0  0  0  0  0  0  0  0  0  0
    0.5148    2.1958    0.0102 H   0  0  0  0  0  0  0  0  0  0  0  0
    4.1533   -0.0132   -0.8808 H   0  0  0  0  0  0  0  0  0  0  0  0
    2.9462   -1.2017   -1.4352 H   0  0  0  0  0  0  0  0  0  0  0  0
    3.4078   -1.1289    0.2925 H   0  0  0  0  0  0  0  0  0  0  0  0
    1.2846   -2.0366   -0.0287 H   0  0  0  0  0  0  0  0  0  0  0  0
   -1.0648   -2.4950    0.6333 H   0  0  0  0  0  0  0  0  0  0  0  0
   -6.0461    2.6144    0.3549 S   0  0  0  0  0  0  0  0  0  0  0  0
   -5.3756    2.4541    2.0891 C   0  0  0  0  0  0  0  0  0  0  0  0
   -7.4510    2.9495    0.4584 O   0  0  0  0  0  0  0  0  0  0  0  0
   -5.5419    1.4809   -0.4073 O   0  0  0  0  0  0  0  0  0  0  0  0
   -5.2653    3.9631   -0.1070 O   0  0  0  0  0  0  0  0  0  0  0  0
   -5.7086    3.5238    2.8050 F   0  0  0  0  0  0  0  0  0  0  0  0
   -5.9043    1.3605    2.6395 F   0  0  0  0  0  0  0  0  0  0  0  0
   -4.0506    2.3350    2.0383 F   0  0  0  0  0  0  0  0  0  0  0  0
  1  2  1  0  0  0  0
  2  3  1  0  0  0  0
  4  1  1  0  0  0  0
  5  4  2  0  0  0  0
  6  9  2  0  0  0  0
  6  5  1  0  0  0  0
  7  6  1  0  0  0  0
  8  7  1  0  0  0  0
  8 15  1  0  0  0  0
  9 10  1  0  0  0  0
 10 17  1  0  0  0  0
 10  1  2  0  0  0  0
 11 22  1  0  0  0  0
 12  5  1  0  0  0  0
 13  8  1  0  0  0  0
 14  8  1  0  0  0  0
 16  9  1  0  0  0  0
 18 20  2  0  0  0  0
 18 19  1  0  0  0  0
 19 24  1  0  0  0  0
 19 23  1  0  0  0  0
 21 18  2  0  0  0  0
 22 18  1  0  0  0  0
 25 19  1  0  0  0  0
M  RAD  3   2   2   3   3   4   2
M  END
