Coordinates from ORCA-job 4-MeOPhN2+~TfO-_B3LYPG-6-31G_dp-CH-Scan-d09-49-n800
 OpenBabel11261919093D

 25 24  0  0  0  0  0  0  0  0999 V2000
   -1.8054   -0.2951    0.7549 C   0  0  0  0  0  0  0  0  0  0  0  0
   -3.0438   -0.6335    1.2310 N   0  0  0  0  0  0  0  0  0  0  0  0
   -4.0693   -0.8649    1.6081 N   0  0  0  0  0  0  0  0  0  0  0  0
   -1.5608    1.0640    0.4470 C   0  0  0  0  0  0  0  0  0  0  0  0
   -0.2904    1.3445   -0.0234 C   0  0  0  0  0  0  0  0  0  0  0  0
    0.6849    0.3386   -0.1839 C   0  0  0  0  0  0  0  0  0  0  0  0
    1.8725    0.7491   -0.6520 O   0  0  0  0  0  0  0  0  0  0  0  0
    2.9252   -0.1964   -0.8561 C   0  0  0  0  0  0  0  0  0  0  0  0
    0.3933   -1.0103    0.1396 C   0  0  0  0  0  0  0  0  0  0  0  0
   -0.8592   -1.3346    0.6158 C   0  0  0  0  0  0  0  0  0  0  0  0
   -2.5378    2.0073    0.5896 H   0  0  0  0  0  0  0  0  0  0  0  0
   -0.0149    2.3604   -0.2891 H   0  0  0  0  0  0  0  0  0  0  0  0
    3.7654    0.3807   -1.2405 H   0  0  0  0  0  0  0  0  0  0  0  0
    2.6372   -0.9561   -1.5906 H   0  0  0  0  0  0  0  0  0  0  0  0
    3.2137   -0.6769    0.0853 H   0  0  0  0  0  0  0  0  0  0  0  0
    1.1351   -1.7890    0.0177 H   0  0  0  0  0  0  0  0  0  0  0  0
   -1.1127   -2.3580    0.8728 H   0  0  0  0  0  0  0  0  0  0  0  0
   -4.9351    2.4841    0.3390 S   0  0  0  0  0  0  0  0  0  0  0  0
   -5.8041    2.4266    1.9798 C   0  0  0  0  0  0  0  0  0  0  0  0
   -5.6970    3.4290   -0.4742 O   0  0  0  0  0  0  0  0  0  0  0  0
   -4.9050    1.0646   -0.0843 O   0  0  0  0  0  0  0  0  0  0  0  0
   -3.5577    2.9738    0.7500 O   0  0  0  0  0  0  0  0  0  0  0  0
   -5.8183    3.6264    2.5673 F   0  0  0  0  0  0  0  0  0  0  0  0
   -7.0645    2.0034    1.8304 F   0  0  0  0  0  0  0  0  0  0  0  0
   -5.1670    1.5614    2.8031 F   0  0  0  0  0  0  0  0  0  0  0  0
  1  2  1  0  0  0  0
  2  3  1  0  0  0  0
  4 11  1  0  0  0  0
  4  1  2  0  0  0  0
  5  4  1  0  0  0  0
  6  5  2  0  0  0  0
  6  9  1  0  0  0  0
  7  6  1  0  0  0  0
  8  7  1  0  0  0  0
  8 15  1  0  0  0  0
  9 10  2  0  0  0  0
 10  1  1  0  0  0  0
 10 17  1  0  0  0  0
 12  5  1  0  0  0  0
 13  8  1  0  0  0  0
 14  8  1  0  0  0  0
 16  9  1  0  0  0  0
 18 22  1  0  0  0  0
 18 19  1  0  0  0  0
 19 23  1  0  0  0  0
 19 25  1  0  0  0  0
 20 18  2  0  0  0  0
 21 18  2  0  0  0  0
 24 19  1  0  0  0  0
M  RAD  3   2   2   3   3  22   2
M  END
