Coordinates from ORCA-job 4-MeOPhN2+~TfO-_B3LYPG-6-31G_dp-CH-Scan-d09-49-n800
 OpenBabel11261919093D

 25 24  0  0  0  0  0  0  0  0999 V2000
   -1.9827   -0.2888    0.4726 C   0  0  0  0  0  0  0  0  0  0  0  0
   -3.2949   -0.6618    0.6581 N   0  0  0  0  0  0  0  0  0  0  0  0
   -4.3113   -1.1024    0.8361 N   0  0  0  0  0  0  0  0  0  0  0  0
   -1.5556    1.0145    0.7992 C   0  0  0  0  0  0  0  0  0  0  0  0
   -0.2213    1.3174    0.6310 C   0  0  0  0  0  0  0  0  0  0  0  0
    0.6818    0.3555    0.1291 C   0  0  0  0  0  0  0  0  0  0  0  0
    1.9508    0.7693   -0.0012 O   0  0  0  0  0  0  0  0  0  0  0  0
    2.9379   -0.1282   -0.5162 C   0  0  0  0  0  0  0  0  0  0  0  0
    0.2330   -0.9419   -0.1967 C   0  0  0  0  0  0  0  0  0  0  0  0
   -1.1004   -1.2679   -0.0176 C   0  0  0  0  0  0  0  0  0  0  0  0
   -2.2758    1.7376    1.1533 H   0  0  0  0  0  0  0  0  0  0  0  0
    0.1573    2.3046    0.8690 H   0  0  0  0  0  0  0  0  0  0  0  0
    3.8693    0.4368   -0.5267 H   0  0  0  0  0  0  0  0  0  0  0  0
    2.6901   -0.4439   -1.5351 H   0  0  0  0  0  0  0  0  0  0  0  0
    3.0491   -1.0055    0.1301 H   0  0  0  0  0  0  0  0  0  0  0  0
    0.9135   -1.6892   -0.5829 H   0  0  0  0  0  0  0  0  0  0  0  0
   -1.4659   -2.2598   -0.2589 H   0  0  0  0  0  0  0  0  0  0  0  0
   -5.4567    1.8620    0.3885 S   0  0  0  0  0  0  0  0  0  0  0  0
   -5.0752    2.9907    1.8156 C   0  0  0  0  0  0  0  0  0  0  0  0
   -6.4500    2.5898   -0.4020 O   0  0  0  0  0  0  0  0  0  0  0  0
   -5.9285    0.6169    1.0649 O   0  0  0  0  0  0  0  0  0  0  0  0
   -4.1132    1.6811   -0.2367 O   0  0  0  0  0  0  0  0  0  0  0  0
   -4.6679    4.1923    1.3851 F   0  0  0  0  0  0  0  0  0  0  0  0
   -6.1322    3.1555    2.6151 F   0  0  0  0  0  0  0  0  0  0  0  0
   -4.0672    2.4644    2.5637 F   0  0  0  0  0  0  0  0  0  0  0  0
  1  2  1  0  0  0  0
  1  4  2  0  0  0  0
  2  3  1  0  0  0  0
  4 11  1  0  0  0  0
  5  4  1  0  0  0  0
  5 12  1  0  0  0  0
  6  5  2  0  0  0  0
  7  6  1  0  0  0  0
  8  7  1  0  0  0  0
  8 15  1  0  0  0  0
  9 10  2  0  0  0  0
  9  6  1  0  0  0  0
 10  1  1  0  0  0  0
 13  8  1  0  0  0  0
 14  8  1  0  0  0  0
 16  9  1  0  0  0  0
 17 10  1  0  0  0  0
 18 21  1  0  0  0  0
 18 19  1  0  0  0  0
 19 25  1  0  0  0  0
 19 24  1  0  0  0  0
 20 18  2  0  0  0  0
 22 18  2  0  0  0  0
 23 19  1  0  0  0  0
M  RAD  3   2   2   3   3  21   2
M  END
