Coordinates from ORCA-job 4-MeOPhN2+~TfO-_B3LYPG-6-31G_dp-CH-Scan-d09-49-n800
 OpenBabel11261919093D

 25 24  0  0  0  0  0  0  0  0999 V2000
   -1.4293   -0.2875    0.5983 C   0  0  0  0  0  0  0  0  0  0  0  0
   -2.7307   -0.4896    1.0020 N   0  0  0  0  0  0  0  0  0  0  0  0
   -3.7971   -0.5861    1.3383 N   0  0  0  0  0  0  0  0  0  0  0  0
   -1.1302    1.0665    0.3152 C   0  0  0  0  0  0  0  0  0  0  0  0
    0.2181    1.1855   -0.0715 C   0  0  0  0  0  0  0  0  0  0  0  0
    1.1132    0.1079   -0.1591 C   0  0  0  0  0  0  0  0  0  0  0  0
    2.3759    0.4066   -0.5476 O   0  0  0  0  0  0  0  0  0  0  0  0
    3.3463   -0.6281   -0.6590 C   0  0  0  0  0  0  0  0  0  0  0  0
    0.7022   -1.2225    0.1469 C   0  0  0  0  0  0  0  0  0  0  0  0
   -0.5980   -1.4379    0.5370 C   0  0  0  0  0  0  0  0  0  0  0  0
   -4.2826    3.6299   -0.2262 H   0  0  0  0  0  0  0  0  0  0  0  0
    0.6340    2.1603   -0.3296 H   0  0  0  0  0  0  0  0  0  0  0  0
    4.2676   -0.1388   -0.9767 H   0  0  0  0  0  0  0  0  0  0  0  0
    3.0574   -1.3738   -1.4093 H   0  0  0  0  0  0  0  0  0  0  0  0
    3.5175   -1.1266    0.3030 H   0  0  0  0  0  0  0  0  0  0  0  0
    1.3907   -2.0553    0.0781 H   0  0  0  0  0  0  0  0  0  0  0  0
   -0.9589   -2.4336    0.7838 H   0  0  0  0  0  0  0  0  0  0  0  0
   -6.1138    2.6874    0.3797 S   0  0  0  0  0  0  0  0  0  0  0  0
   -5.8045    2.4514    2.2035 C   0  0  0  0  0  0  0  0  0  0  0  0
   -7.4761    3.1539    0.2295 O   0  0  0  0  0  0  0  0  0  0  0  0
   -5.5841    1.5134   -0.2990 O   0  0  0  0  0  0  0  0  0  0  0  0
   -5.1373    3.9557    0.1072 O   0  0  0  0  0  0  0  0  0  0  0  0
   -6.1171    3.5605    2.8660 F   0  0  0  0  0  0  0  0  0  0  0  0
   -6.5619    1.4418    2.6282 F   0  0  0  0  0  0  0  0  0  0  0  0
   -4.5168    2.1580    2.3984 F   0  0  0  0  0  0  0  0  0  0  0  0
  1  2  1  0  0  0  0
  2  3  1  0  0  0  0
  4  1  2  0  0  0  0
  5  4  1  0  0  0  0
  6  5  2  0  0  0  0
  6  9  1  0  0  0  0
  7  6  1  0  0  0  0
  8  7  1  0  0  0  0
  8 15  1  0  0  0  0
  9 10  2  0  0  0  0
 10  1  1  0  0  0  0
 10 17  1  0  0  0  0
 11 22  1  0  0  0  0
 12  5  1  0  0  0  0
 13  8  1  0  0  0  0
 14  8  1  0  0  0  0
 16  9  1  0  0  0  0
 18 19  1  0  0  0  0
 19 25  1  0  0  0  0
 19 24  1  0  0  0  0
 19 23  1  0  0  0  0
 20 18  2  0  0  0  0
 21 18  2  0  0  0  0
 22 18  1  0  0  0  0
M  RAD  3   2   2   3   3   4   2
M  END
