Coordinates from ORCA-job 4-MeOPhN2+~TfO-_B3LYPG-6-31G_dp-CH-Scan-d09-49-n800
 OpenBabel11261919093D

 25 24  0  0  0  0  0  0  0  0999 V2000
   -1.5218   -0.3269    0.5711 C   0  0  0  0  0  0  0  0  0  0  0  0
   -2.8142   -0.5763    0.9723 N   0  0  0  0  0  0  0  0  0  0  0  0
   -3.8767   -0.7229    1.3017 N   0  0  0  0  0  0  0  0  0  0  0  0
   -1.2756    1.0240    0.2244 C   0  0  0  0  0  0  0  0  0  0  0  0
    0.0678    1.1844   -0.1600 C   0  0  0  0  0  0  0  0  0  0  0  0
    1.0103    0.1441   -0.1908 C   0  0  0  0  0  0  0  0  0  0  0  0
    2.2602    0.4793   -0.5878 O   0  0  0  0  0  0  0  0  0  0  0  0
    3.2763   -0.5156   -0.6464 C   0  0  0  0  0  0  0  0  0  0  0  0
    0.6555   -1.1858    0.1784 C   0  0  0  0  0  0  0  0  0  0  0  0
   -0.6372   -1.4388    0.5706 C   0  0  0  0  0  0  0  0  0  0  0  0
   -3.9265    3.3644   -0.0691 H   0  0  0  0  0  0  0  0  0  0  0  0
    0.4417    2.1630   -0.4627 H   0  0  0  0  0  0  0  0  0  0  0  0
    4.1754   -0.0021   -0.9884 H   0  0  0  0  0  0  0  0  0  0  0  0
    3.0225   -1.3101   -1.3581 H   0  0  0  0  0  0  0  0  0  0  0  0
    3.4672   -0.9560    0.3398 H   0  0  0  0  0  0  0  0  0  0  0  0
    1.3800   -1.9900    0.1551 H   0  0  0  0  0  0  0  0  0  0  0  0
   -0.9554   -2.4362    0.8639 H   0  0  0  0  0  0  0  0  0  0  0  0
   -5.9143    2.6774    0.3664 S   0  0  0  0  0  0  0  0  0  0  0  0
   -5.7734    2.4447    2.2111 C   0  0  0  0  0  0  0  0  0  0  0  0
   -7.1905    3.3107    0.1068 O   0  0  0  0  0  0  0  0  0  0  0  0
   -5.4990    1.4249   -0.2487 O   0  0  0  0  0  0  0  0  0  0  0  0
   -4.7689    3.8021    0.1515 O   0  0  0  0  0  0  0  0  0  0  0  0
   -6.0201    3.5906    2.8379 F   0  0  0  0  0  0  0  0  0  0  0  0
   -6.6590    1.5241    2.5879 F   0  0  0  0  0  0  0  0  0  0  0  0
   -4.5401    2.0260    2.5101 F   0  0  0  0  0  0  0  0  0  0  0  0
  1  2  1  0  0  0  0
  2  3  1  0  0  0  0
  4  1  2  0  0  0  0
  5  4  1  0  0  0  0
  6  5  2  0  0  0  0
  6  9  1  0  0  0  0
  7  6  1  0  0  0  0
  8  7  1  0  0  0  0
  8 15  1  0  0  0  0
  9 10  2  0  0  0  0
 10  1  1  0  0  0  0
 10 17  1  0  0  0  0
 11 22  1  0  0  0  0
 12  5  1  0  0  0  0
 13  8  1  0  0  0  0
 14  8  1  0  0  0  0
 16  9  1  0  0  0  0
 18 19  1  0  0  0  0
 19 25  1  0  0  0  0
 19 24  1  0  0  0  0
 19 23  1  0  0  0  0
 20 18  2  0  0  0  0
 21 18  2  0  0  0  0
 22 18  1  0  0  0  0
M  RAD  3   2   2   3   3   4   2
M  END
