Coordinates from ORCA-job 4-MeOPhN2+~TfO-_B3LYPG-6-31G_dp-CH-Scan-d09-49-n800
 OpenBabel11261919093D

 25 24  0  0  0  0  0  0  0  0999 V2000
   -1.9734   -0.2958    0.4274 C   0  0  0  0  0  0  0  0  0  0  0  0
   -3.2871   -0.6676    0.6002 N   0  0  0  0  0  0  0  0  0  0  0  0
   -4.3102   -1.0997    0.7604 N   0  0  0  0  0  0  0  0  0  0  0  0
   -1.5483    1.0091    0.7480 C   0  0  0  0  0  0  0  0  0  0  0  0
   -0.2128    1.3125    0.5963 C   0  0  0  0  0  0  0  0  0  0  0  0
    0.6970    0.3443    0.1187 C   0  0  0  0  0  0  0  0  0  0  0  0
    1.9682    0.7553    0.0039 O   0  0  0  0  0  0  0  0  0  0  0  0
    2.9625   -0.1478   -0.4869 C   0  0  0  0  0  0  0  0  0  0  0  0
    0.2521   -0.9565   -0.2016 C   0  0  0  0  0  0  0  0  0  0  0  0
   -1.0838   -1.2801   -0.0407 C   0  0  0  0  0  0  0  0  0  0  0  0
   -2.3275    1.7803    1.0963 H   0  0  0  0  0  0  0  0  0  0  0  0
    0.1627    2.3020    0.8294 H   0  0  0  0  0  0  0  0  0  0  0  0
    3.8943    0.4167   -0.4884 H   0  0  0  0  0  0  0  0  0  0  0  0
    2.7303   -0.4731   -1.5064 H   0  0  0  0  0  0  0  0  0  0  0  0
    3.0632   -1.0187    0.1696 H   0  0  0  0  0  0  0  0  0  0  0  0
    0.9385   -1.7076   -0.5696 H   0  0  0  0  0  0  0  0  0  0  0  0
   -1.4458   -2.2746   -0.2773 H   0  0  0  0  0  0  0  0  0  0  0  0
   -5.4815    1.8661    0.4327 S   0  0  0  0  0  0  0  0  0  0  0  0
   -5.1018    3.0208    1.8395 C   0  0  0  0  0  0  0  0  0  0  0  0
   -6.5183    2.5530   -0.3386 O   0  0  0  0  0  0  0  0  0  0  0  0
   -5.8958    0.6128    1.1326 O   0  0  0  0  0  0  0  0  0  0  0  0
   -4.1495    1.7223   -0.2254 O   0  0  0  0  0  0  0  0  0  0  0  0
   -4.7557    4.2334    1.3876 F   0  0  0  0  0  0  0  0  0  0  0  0
   -6.1408    3.1509    2.6688 F   0  0  0  0  0  0  0  0  0  0  0  0
   -4.0524    2.5410    2.5605 F   0  0  0  0  0  0  0  0  0  0  0  0
  1  2  1  0  0  0  0
  1  4  2  0  0  0  0
  2  3  1  0  0  0  0
  4 11  1  0  0  0  0
  5  4  1  0  0  0  0
  5 12  1  0  0  0  0
  6  5  2  0  0  0  0
  7  6  1  0  0  0  0
  8  7  1  0  0  0  0
  8 15  1  0  0  0  0
  9 10  2  0  0  0  0
  9  6  1  0  0  0  0
 10  1  1  0  0  0  0
 13  8  1  0  0  0  0
 14  8  1  0  0  0  0
 16  9  1  0  0  0  0
 17 10  1  0  0  0  0
 18 21  1  0  0  0  0
 18 19  1  0  0  0  0
 19 25  1  0  0  0  0
 19 24  1  0  0  0  0
 20 18  2  0  0  0  0
 22 18  2  0  0  0  0
 23 19  1  0  0  0  0
M  RAD  3   2   2   3   3  21   2
M  END
