Coordinates from ORCA-job 4-MeOPhN2+~TfO-_B3LYPG-6-31G_dp-CH-Scan-d09-49-n800
 OpenBabel11261919093D

 25 24  0  0  0  0  0  0  0  0999 V2000
   -1.5199   -0.3403    0.6622 C   0  0  0  0  0  0  0  0  0  0  0  0
   -2.8276   -0.5741    1.0290 N   0  0  0  0  0  0  0  0  0  0  0  0
   -3.8997   -0.6885    1.3412 N   0  0  0  0  0  0  0  0  0  0  0  0
   -1.2101    1.0357    0.5534 C   0  0  0  0  0  0  0  0  0  0  0  0
    0.1417    1.1910    0.1913 C   0  0  0  0  0  0  0  0  0  0  0  0
    1.0287    0.1252   -0.0257 C   0  0  0  0  0  0  0  0  0  0  0  0
    2.2960    0.4593   -0.3697 O   0  0  0  0  0  0  0  0  0  0  0  0
    3.2595   -0.5623   -0.5991 C   0  0  0  0  0  0  0  0  0  0  0  0
    0.6062   -1.2297    0.1105 C   0  0  0  0  0  0  0  0  0  0  0  0
   -0.6982   -1.4814    0.4637 C   0  0  0  0  0  0  0  0  0  0  0  0
   -4.6008    3.7731   -0.6258 H   0  0  0  0  0  0  0  0  0  0  0  0
    0.5673    2.1870    0.0600 H   0  0  0  0  0  0  0  0  0  0  0  0
    4.1866   -0.0460   -0.8501 H   0  0  0  0  0  0  0  0  0  0  0  0
    2.9705   -1.2104   -1.4353 H   0  0  0  0  0  0  0  0  0  0  0  0
    3.4200   -1.1748    0.2968 H   0  0  0  0  0  0  0  0  0  0  0  0
    1.2893   -2.0524   -0.0589 H   0  0  0  0  0  0  0  0  0  0  0  0
   -1.0686   -2.4971    0.5818 H   0  0  0  0  0  0  0  0  0  0  0  0
   -6.1008    2.6097    0.3729 S   0  0  0  0  0  0  0  0  0  0  0  0
   -5.3680    2.4811    2.0841 C   0  0  0  0  0  0  0  0  0  0  0  0
   -7.5157    2.8771    0.5258 O   0  0  0  0  0  0  0  0  0  0  0  0
   -5.5698    1.5028   -0.4096 O   0  0  0  0  0  0  0  0  0  0  0  0
   -5.3996    3.9933   -0.1146 O   0  0  0  0  0  0  0  0  0  0  0  0
   -5.6914    3.5557    2.7972 F   0  0  0  0  0  0  0  0  0  0  0  0
   -5.8665    1.3882    2.6634 F   0  0  0  0  0  0  0  0  0  0  0  0
   -4.0447    2.3766    1.9926 F   0  0  0  0  0  0  0  0  0  0  0  0
  1  2  1  0  0  0  0
  2  3  1  0  0  0  0
  4  1  1  0  0  0  0
  5  4  2  0  0  0  0
  6  9  2  0  0  0  0
  6  5  1  0  0  0  0
  7  6  1  0  0  0  0
  8  7  1  0  0  0  0
  8 15  1  0  0  0  0
  9 10  1  0  0  0  0
 10 17  1  0  0  0  0
 10  1  2  0  0  0  0
 11 22  1  0  0  0  0
 12  5  1  0  0  0  0
 13  8  1  0  0  0  0
 14  8  1  0  0  0  0
 16  9  1  0  0  0  0
 18 20  2  0  0  0  0
 18 19  1  0  0  0  0
 19 24  1  0  0  0  0
 19 23  1  0  0  0  0
 21 18  2  0  0  0  0
 22 18  1  0  0  0  0
 25 19  1  0  0  0  0
M  RAD  3   2   2   3   3   4   2
M  END
