Coordinates from ORCA-job 4-MeOPhN2+~TfO-_B3LYPG-6-31G_dp-CH-Scan-d09-49-n800
 OpenBabel11261919093D

 25 24  0  0  0  0  0  0  0  0999 V2000
   -1.8313   -0.4236    0.5548 C   0  0  0  0  0  0  0  0  0  0  0  0
   -3.0874   -0.8204    0.9366 N   0  0  0  0  0  0  0  0  0  0  0  0
   -4.1233   -1.1085    1.2493 N   0  0  0  0  0  0  0  0  0  0  0  0
   -1.6784    0.9490    0.2300 C   0  0  0  0  0  0  0  0  0  0  0  0
   -0.3618    1.2476   -0.1346 C   0  0  0  0  0  0  0  0  0  0  0  0
    0.6744    0.2972   -0.1707 C   0  0  0  0  0  0  0  0  0  0  0  0
    1.8864    0.7560   -0.5416 O   0  0  0  0  0  0  0  0  0  0  0  0
    2.9973   -0.1357   -0.6002 C   0  0  0  0  0  0  0  0  0  0  0  0
    0.4331   -1.0618    0.1695 C   0  0  0  0  0  0  0  0  0  0  0  0
   -0.8372   -1.4361    0.5401 C   0  0  0  0  0  0  0  0  0  0  0  0
   -3.0901    2.2959    0.2065 H   0  0  0  0  0  0  0  0  0  0  0  0
   -0.0862    2.2628   -0.4134 H   0  0  0  0  0  0  0  0  0  0  0  0
    3.8460    0.4709   -0.9161 H   0  0  0  0  0  0  0  0  0  0  0  0
    2.8308   -0.9351   -1.3312 H   0  0  0  0  0  0  0  0  0  0  0  0
    3.2116   -0.5732    0.3818 H   0  0  0  0  0  0  0  0  0  0  0  0
    1.2249   -1.7993    0.1418 H   0  0  0  0  0  0  0  0  0  0  0  0
   -1.0654   -2.4634    0.8100 H   0  0  0  0  0  0  0  0  0  0  0  0
   -5.2621    2.5097    0.3019 S   0  0  0  0  0  0  0  0  0  0  0  0
   -5.4631    2.5098    2.1515 C   0  0  0  0  0  0  0  0  0  0  0  0
   -6.1821    3.5038   -0.2204 O   0  0  0  0  0  0  0  0  0  0  0  0
   -5.3377    1.1046   -0.0963 O   0  0  0  0  0  0  0  0  0  0  0  0
   -3.7848    3.0568    0.1829 O   0  0  0  0  0  0  0  0  0  0  0  0
   -5.2840    3.7328    2.6463 F   0  0  0  0  0  0  0  0  0  0  0  0
   -6.6873    2.0799    2.4629 F   0  0  0  0  0  0  0  0  0  0  0  0
   -4.5582    1.6791    2.6956 F   0  0  0  0  0  0  0  0  0  0  0  0
  1  2  1  0  0  0  0
  2  3  1  0  0  0  0
  4  1  2  0  0  0  0
  5  4  1  0  0  0  0
  6  5  2  0  0  0  0
  6  9  1  0  0  0  0
  7  6  1  0  0  0  0
  8  7  1  0  0  0  0
  8 15  1  0  0  0  0
  9 10  2  0  0  0  0
 10  1  1  0  0  0  0
 10 17  1  0  0  0  0
 12  5  1  0  0  0  0
 13  8  1  0  0  0  0
 14  8  1  0  0  0  0
 16  9  1  0  0  0  0
 18 19  1  0  0  0  0
 19 24  1  0  0  0  0
 19 23  1  0  0  0  0
 19 25  1  0  0  0  0
 20 18  2  0  0  0  0
 21 18  2  0  0  0  0
 22 11  1  0  0  0  0
 22 18  1  0  0  0  0
M  RAD  3   2   2   3   3   4   2
M  END
