Coordinates from ORCA-job 4-MeOPhN2+~TfO-_B3LYPG-6-31G_dp-CH-Scan-d09-49-n800
 OpenBabel11261919093D

 25 24  0  0  0  0  0  0  0  0999 V2000
   -1.5005   -0.3218    0.5737 C   0  0  0  0  0  0  0  0  0  0  0  0
   -2.7951   -0.5617    0.9748 N   0  0  0  0  0  0  0  0  0  0  0  0
   -3.8590   -0.6981    1.3044 N   0  0  0  0  0  0  0  0  0  0  0  0
   -1.2459    1.0292    0.2343 C   0  0  0  0  0  0  0  0  0  0  0  0
    0.0988    1.1815   -0.1503 C   0  0  0  0  0  0  0  0  0  0  0  0
    1.0334    0.1347   -0.1878 C   0  0  0  0  0  0  0  0  0  0  0  0
    2.2856    0.4628   -0.5841 O   0  0  0  0  0  0  0  0  0  0  0  0
    3.2941   -0.5394   -0.6492 C   0  0  0  0  0  0  0  0  0  0  0  0
    0.6694   -1.1948    0.1745 C   0  0  0  0  0  0  0  0  0  0  0  0
   -0.6248   -1.4406    0.5665 C   0  0  0  0  0  0  0  0  0  0  0  0
   -3.9966    3.4260   -0.0962 H   0  0  0  0  0  0  0  0  0  0  0  0
    0.4798    2.1590   -0.4481 H   0  0  0  0  0  0  0  0  0  0  0  0
    4.1968   -0.0307   -0.9891 H   0  0  0  0  0  0  0  0  0  0  0  0
    3.0339   -1.3279   -1.3653 H   0  0  0  0  0  0  0  0  0  0  0  0
    3.4826   -0.9869    0.3341 H   0  0  0  0  0  0  0  0  0  0  0  0
    1.3880   -2.0040    0.1462 H   0  0  0  0  0  0  0  0  0  0  0  0
   -0.9502   -2.4372    0.8548 H   0  0  0  0  0  0  0  0  0  0  0  0
   -5.9577    2.6850    0.3711 S   0  0  0  0  0  0  0  0  0  0  0  0
   -5.7893    2.4464    2.2128 C   0  0  0  0  0  0  0  0  0  0  0  0
   -7.2526    3.2864    0.1298 O   0  0  0  0  0  0  0  0  0  0  0  0
   -5.5156    1.4484   -0.2574 O   0  0  0  0  0  0  0  0  0  0  0  0
   -4.8432    3.8407    0.1500 O   0  0  0  0  0  0  0  0  0  0  0  0
   -6.0508    3.5845    2.8475 F   0  0  0  0  0  0  0  0  0  0  0  0
   -6.6523    1.5070    2.5954 F   0  0  0  0  0  0  0  0  0  0  0  0
   -4.5446    2.0506    2.4946 F   0  0  0  0  0  0  0  0  0  0  0  0
  1  2  1  0  0  0  0
  2  3  1  0  0  0  0
  4  1  2  0  0  0  0
  5  4  1  0  0  0  0
  6  5  2  0  0  0  0
  6  9  1  0  0  0  0
  7  6  1  0  0  0  0
  8  7  1  0  0  0  0
  8 15  1  0  0  0  0
  9 10  2  0  0  0  0
 10  1  1  0  0  0  0
 10 17  1  0  0  0  0
 11 22  1  0  0  0  0
 12  5  1  0  0  0  0
 13  8  1  0  0  0  0
 14  8  1  0  0  0  0
 16  9  1  0  0  0  0
 18 19  1  0  0  0  0
 19 25  1  0  0  0  0
 19 24  1  0  0  0  0
 19 23  1  0  0  0  0
 20 18  2  0  0  0  0
 21 18  2  0  0  0  0
 22 18  1  0  0  0  0
M  RAD  3   2   2   3   3   4   2
M  END
