Coordinates from ORCA-job 4-MeOPhN2+~TfO-_B3LYPG-6-31G_dp-CH-Scan-d09-49-n800
 OpenBabel11261919093D

 25 24  0  0  0  0  0  0  0  0999 V2000
   -1.8202   -0.3934    0.6346 C   0  0  0  0  0  0  0  0  0  0  0  0
   -3.0677   -0.7817    1.0502 N   0  0  0  0  0  0  0  0  0  0  0  0
   -4.0963   -1.0630    1.3907 N   0  0  0  0  0  0  0  0  0  0  0  0
   -1.6571    0.9809    0.3225 C   0  0  0  0  0  0  0  0  0  0  0  0
   -0.3519    1.2714   -0.0820 C   0  0  0  0  0  0  0  0  0  0  0  0
    0.6706    0.3089   -0.1673 C   0  0  0  0  0  0  0  0  0  0  0  0
    1.8730    0.7582   -0.5758 O   0  0  0  0  0  0  0  0  0  0  0  0
    2.9691   -0.1471   -0.6917 C   0  0  0  0  0  0  0  0  0  0  0  0
    0.4236   -1.0508    0.1642 C   0  0  0  0  0  0  0  0  0  0  0  0
   -0.8382   -1.4150    0.5732 C   0  0  0  0  0  0  0  0  0  0  0  0
   -2.9681    2.2446    0.3502 H   0  0  0  0  0  0  0  0  0  0  0  0
   -0.0765    2.2876   -0.3567 H   0  0  0  0  0  0  0  0  0  0  0  0
    3.8114    0.4528   -1.0363 H   0  0  0  0  0  0  0  0  0  0  0  0
    2.7607   -0.9350   -1.4242 H   0  0  0  0  0  0  0  0  0  0  0  0
    3.2185   -0.5987    0.2755 H   0  0  0  0  0  0  0  0  0  0  0  0
    1.2045   -1.7976    0.0997 H   0  0  0  0  0  0  0  0  0  0  0  0
   -1.0692   -2.4430    0.8375 H   0  0  0  0  0  0  0  0  0  0  0  0
   -5.1540    2.5046    0.2821 S   0  0  0  0  0  0  0  0  0  0  0  0
   -5.5671    2.4828    2.0950 C   0  0  0  0  0  0  0  0  0  0  0  0
   -6.0104    3.5075   -0.3270 O   0  0  0  0  0  0  0  0  0  0  0  0
   -5.2010    1.1030   -0.1390 O   0  0  0  0  0  0  0  0  0  0  0  0
   -3.6732    3.0287    0.3439 O   0  0  0  0  0  0  0  0  0  0  0  0
   -5.4367    3.6970    2.6272 F   0  0  0  0  0  0  0  0  0  0  0  0
   -6.8223    2.0599    2.2604 F   0  0  0  0  0  0  0  0  0  0  0  0
   -4.7373    1.6363    2.7301 F   0  0  0  0  0  0  0  0  0  0  0  0
  1  2  1  0  0  0  0
  2  3  1  0  0  0  0
  4  1  2  0  0  0  0
  5  4  1  0  0  0  0
  6  5  2  0  0  0  0
  6  9  1  0  0  0  0
  7  6  1  0  0  0  0
  8  7  1  0  0  0  0
  8 15  1  0  0  0  0
  9 10  2  0  0  0  0
 10  1  1  0  0  0  0
 10 17  1  0  0  0  0
 12  5  1  0  0  0  0
 13  8  1  0  0  0  0
 14  8  1  0  0  0  0
 16  9  1  0  0  0  0
 18 22  1  0  0  0  0
 18 19  1  0  0  0  0
 19 24  1  0  0  0  0
 19 23  1  0  0  0  0
 19 25  1  0  0  0  0
 20 18  2  0  0  0  0
 21 18  2  0  0  0  0
 22 11  1  0  0  0  0
M  RAD  3   2   2   3   3   4   2
M  END
