Coordinates from ORCA-job 4-MeOPhN2+~TfO-_B3LYPG-6-31G_dp-CH-Scan-d09-49-n800
 OpenBabel11261919093D

 25 24  0  0  0  0  0  0  0  0999 V2000
   -1.8138   -0.4017    0.6158 C   0  0  0  0  0  0  0  0  0  0  0  0
   -3.0643   -0.7896    1.0236 N   0  0  0  0  0  0  0  0  0  0  0  0
   -4.0956   -1.0697    1.3575 N   0  0  0  0  0  0  0  0  0  0  0  0
   -1.6531    0.9725    0.3016 C   0  0  0  0  0  0  0  0  0  0  0  0
   -0.3442    1.2626   -0.0939 C   0  0  0  0  0  0  0  0  0  0  0  0
    0.6803    0.3016   -0.1685 C   0  0  0  0  0  0  0  0  0  0  0  0
    1.8858    0.7516   -0.5688 O   0  0  0  0  0  0  0  0  0  0  0  0
    2.9841   -0.1520   -0.6724 C   0  0  0  0  0  0  0  0  0  0  0  0
    0.4335   -1.0580    0.1645 C   0  0  0  0  0  0  0  0  0  0  0  0
   -0.8306   -1.4231    0.5649 C   0  0  0  0  0  0  0  0  0  0  0  0
   -3.0172    2.2823    0.3155 H   0  0  0  0  0  0  0  0  0  0  0  0
   -0.0667    2.2781   -0.3694 H   0  0  0  0  0  0  0  0  0  0  0  0
    3.8287    0.4482   -1.0108 H   0  0  0  0  0  0  0  0  0  0  0  0
    2.7838   -0.9423   -1.4047 H   0  0  0  0  0  0  0  0  0  0  0  0
    3.2256   -0.6010    0.2981 H   0  0  0  0  0  0  0  0  0  0  0  0
    1.2163   -1.8034    0.1080 H   0  0  0  0  0  0  0  0  0  0  0  0
   -1.0622   -2.4508    0.8303 H   0  0  0  0  0  0  0  0  0  0  0  0
   -5.1968    2.5113    0.2872 S   0  0  0  0  0  0  0  0  0  0  0  0
   -5.5556    2.4908    2.1121 C   0  0  0  0  0  0  0  0  0  0  0  0
   -6.0735    3.5096   -0.2989 O   0  0  0  0  0  0  0  0  0  0  0  0
   -5.2413    1.1099   -0.1312 O   0  0  0  0  0  0  0  0  0  0  0  0
   -3.7164    3.0526    0.3038 O   0  0  0  0  0  0  0  0  0  0  0  0
   -5.4182    3.7075    2.6360 F   0  0  0  0  0  0  0  0  0  0  0  0
   -6.8025    2.0601    2.3134 F   0  0  0  0  0  0  0  0  0  0  0  0
   -4.7019    1.6519    2.7234 F   0  0  0  0  0  0  0  0  0  0  0  0
  1  2  1  0  0  0  0
  2  3  1  0  0  0  0
  4  1  2  0  0  0  0
  5  4  1  0  0  0  0
  6  5  2  0  0  0  0
  6  9  1  0  0  0  0
  7  6  1  0  0  0  0
  8  7  1  0  0  0  0
  8 15  1  0  0  0  0
  9 10  2  0  0  0  0
 10  1  1  0  0  0  0
 10 17  1  0  0  0  0
 12  5  1  0  0  0  0
 13  8  1  0  0  0  0
 14  8  1  0  0  0  0
 16  9  1  0  0  0  0
 18 22  1  0  0  0  0
 18 19  1  0  0  0  0
 19 24  1  0  0  0  0
 19 23  1  0  0  0  0
 19 25  1  0  0  0  0
 20 18  2  0  0  0  0
 21 18  2  0  0  0  0
 22 11  1  0  0  0  0
M  RAD  3   2   2   3   3   4   2
M  END
