Coordinates from ORCA-job 4-MeOPhN2+~TfO-_B3LYPG-6-31G_dp-CH-Scan-d09-49-n800
 OpenBabel11261919093D

 25 24  0  0  0  0  0  0  0  0999 V2000
   -1.8136   -0.3274    0.7486 C   0  0  0  0  0  0  0  0  0  0  0  0
   -3.0473   -0.6931    1.2185 N   0  0  0  0  0  0  0  0  0  0  0  0
   -4.0622   -0.9618    1.6027 N   0  0  0  0  0  0  0  0  0  0  0  0
   -1.6084    1.0432    0.4535 C   0  0  0  0  0  0  0  0  0  0  0  0
   -0.3281    1.3252   -0.0082 C   0  0  0  0  0  0  0  0  0  0  0  0
    0.6627    0.3368   -0.1671 C   0  0  0  0  0  0  0  0  0  0  0  0
    1.8506    0.7650   -0.6267 O   0  0  0  0  0  0  0  0  0  0  0  0
    2.9145   -0.1660   -0.8287 C   0  0  0  0  0  0  0  0  0  0  0  0
    0.3921   -1.0207    0.1471 C   0  0  0  0  0  0  0  0  0  0  0  0
   -0.8577   -1.3628    0.6125 C   0  0  0  0  0  0  0  0  0  0  0  0
   -2.6989    2.0896    0.5690 H   0  0  0  0  0  0  0  0  0  0  0  0
   -0.0528    2.3430   -0.2721 H   0  0  0  0  0  0  0  0  0  0  0  0
    3.7507    0.4218   -1.2064 H   0  0  0  0  0  0  0  0  0  0  0  0
    2.6410   -0.9272   -1.5676 H   0  0  0  0  0  0  0  0  0  0  0  0
    3.2051   -0.6481    0.1115 H   0  0  0  0  0  0  0  0  0  0  0  0
    1.1466   -1.7872    0.0257 H   0  0  0  0  0  0  0  0  0  0  0  0
   -1.1009   -2.3905    0.8642 H   0  0  0  0  0  0  0  0  0  0  0  0
   -4.9582    2.4775    0.2950 S   0  0  0  0  0  0  0  0  0  0  0  0
   -5.7227    2.4412    1.9881 C   0  0  0  0  0  0  0  0  0  0  0  0
   -5.7110    3.4668   -0.4652 O   0  0  0  0  0  0  0  0  0  0  0  0
   -4.9607    1.0694   -0.1361 O   0  0  0  0  0  0  0  0  0  0  0  0
   -3.5316    2.9522    0.6407 O   0  0  0  0  0  0  0  0  0  0  0  0
   -5.6874    3.6454    2.5612 F   0  0  0  0  0  0  0  0  0  0  0  0
   -6.9924    2.0322    1.9074 F   0  0  0  0  0  0  0  0  0  0  0  0
   -5.0453    1.5743    2.7697 F   0  0  0  0  0  0  0  0  0  0  0  0
  1  2  1  0  0  0  0
  2  3  1  0  0  0  0
  4  1  2  0  0  0  0
  5  4  1  0  0  0  0
  6  5  2  0  0  0  0
  6  9  1  0  0  0  0
  7  6  1  0  0  0  0
  8  7  1  0  0  0  0
  8 15  1  0  0  0  0
  9 10  2  0  0  0  0
 10  1  1  0  0  0  0
 10 17  1  0  0  0  0
 11 22  1  0  0  0  0
 12  5  1  0  0  0  0
 13  8  1  0  0  0  0
 14  8  1  0  0  0  0
 16  9  1  0  0  0  0
 18 22  1  0  0  0  0
 18 19  1  0  0  0  0
 19 23  1  0  0  0  0
 19 25  1  0  0  0  0
 20 18  2  0  0  0  0
 21 18  2  0  0  0  0
 24 19  1  0  0  0  0
M  RAD  3   2   2   3   3   4   2
M  END
