Coordinates from ORCA-job 4-MeOPhN2+~TfO-_B3LYPG-6-31G_dp-CH-Scan-d09-49-n800
 OpenBabel11261919093D

 25 24  0  0  0  0  0  0  0  0999 V2000
   -1.8321   -0.3850    0.6471 C   0  0  0  0  0  0  0  0  0  0  0  0
   -3.0768   -0.7743    1.0695 N   0  0  0  0  0  0  0  0  0  0  0  0
   -4.1025   -1.0582    1.4156 N   0  0  0  0  0  0  0  0  0  0  0  0
   -1.6653    0.9890    0.3360 C   0  0  0  0  0  0  0  0  0  0  0  0
   -0.3640    1.2815   -0.0746 C   0  0  0  0  0  0  0  0  0  0  0  0
    0.6574    0.3180   -0.1670 C   0  0  0  0  0  0  0  0  0  0  0  0
    1.8574    0.7673   -0.5805 O   0  0  0  0  0  0  0  0  0  0  0  0
    2.9527   -0.1384   -0.7038 C   0  0  0  0  0  0  0  0  0  0  0  0
    0.4101   -1.0416    0.1628 C   0  0  0  0  0  0  0  0  0  0  0  0
   -0.8501   -1.4054    0.5777 C   0  0  0  0  0  0  0  0  0  0  0  0
   -2.9100    2.1913    0.3765 H   0  0  0  0  0  0  0  0  0  0  0  0
   -0.0916    2.2985   -0.3482 H   0  0  0  0  0  0  0  0  0  0  0  0
    3.7934    0.4621   -1.0512 H   0  0  0  0  0  0  0  0  0  0  0  0
    2.7400   -0.9244   -1.4370 H   0  0  0  0  0  0  0  0  0  0  0  0
    3.2064   -0.5920    0.2613 H   0  0  0  0  0  0  0  0  0  0  0  0
    1.1894   -1.7894    0.0926 H   0  0  0  0  0  0  0  0  0  0  0  0
   -1.0805   -2.4337    0.8409 H   0  0  0  0  0  0  0  0  0  0  0  0
   -5.1083    2.4939    0.2793 S   0  0  0  0  0  0  0  0  0  0  0  0
   -5.5682    2.4769    2.0806 C   0  0  0  0  0  0  0  0  0  0  0  0
   -5.9477    3.4989   -0.3517 O   0  0  0  0  0  0  0  0  0  0  0  0
   -5.1639    1.0902   -0.1394 O   0  0  0  0  0  0  0  0  0  0  0  0
   -3.6290    2.9960    0.3777 O   0  0  0  0  0  0  0  0  0  0  0  0
   -5.4396    3.6896    2.6178 F   0  0  0  0  0  0  0  0  0  0  0  0
   -6.8309    2.0655    2.2175 F   0  0  0  0  0  0  0  0  0  0  0  0
   -4.7622    1.6225    2.7378 F   0  0  0  0  0  0  0  0  0  0  0  0
  1  2  1  0  0  0  0
  2  3  1  0  0  0  0
  4  1  2  0  0  0  0
  5  4  1  0  0  0  0
  6  5  2  0  0  0  0
  6  9  1  0  0  0  0
  7  6  1  0  0  0  0
  8  7  1  0  0  0  0
  8 15  1  0  0  0  0
  9 10  2  0  0  0  0
 10  1  1  0  0  0  0
 10 17  1  0  0  0  0
 11 22  1  0  0  0  0
 12  5  1  0  0  0  0
 13  8  1  0  0  0  0
 14  8  1  0  0  0  0
 16  9  1  0  0  0  0
 18 22  1  0  0  0  0
 18 19  1  0  0  0  0
 19 24  1  0  0  0  0
 19 23  1  0  0  0  0
 19 25  1  0  0  0  0
 20 18  2  0  0  0  0
 21 18  2  0  0  0  0
M  RAD  3   2   2   3   3   4   2
M  END
