Coordinates from ORCA-job 4-MeOPhN2+~TfO-_B3LYPG-6-31G_dp-CH-Scan-d09-49-n800
 OpenBabel11261919093D

 25 24  0  0  0  0  0  0  0  0999 V2000
   -1.7880   -0.4243    0.5257 C   0  0  0  0  0  0  0  0  0  0  0  0
   -3.0532   -0.8049    0.8963 N   0  0  0  0  0  0  0  0  0  0  0  0
   -4.0965   -1.0780    1.1997 N   0  0  0  0  0  0  0  0  0  0  0  0
   -1.6283    0.9444    0.1890 C   0  0  0  0  0  0  0  0  0  0  0  0
   -0.3031    1.2276   -0.1642 C   0  0  0  0  0  0  0  0  0  0  0  0
    0.7263    0.2701   -0.1782 C   0  0  0  0  0  0  0  0  0  0  0  0
    1.9471    0.7159   -0.5411 O   0  0  0  0  0  0  0  0  0  0  0  0
    3.0508   -0.1850   -0.5779 C   0  0  0  0  0  0  0  0  0  0  0  0
    0.4734   -1.0844    0.1744 C   0  0  0  0  0  0  0  0  0  0  0  0
   -0.8031   -1.4467    0.5345 C   0  0  0  0  0  0  0  0  0  0  0  0
   -3.2387    2.4665    0.1315 H   0  0  0  0  0  0  0  0  0  0  0  0
   -0.0139    2.2371   -0.4514 H   0  0  0  0  0  0  0  0  0  0  0  0
    3.9081    0.4109   -0.8916 H   0  0  0  0  0  0  0  0  0  0  0  0
    2.8863   -0.9917   -1.3015 H   0  0  0  0  0  0  0  0  0  0  0  0
    3.2518   -0.6135    0.4109 H   0  0  0  0  0  0  0  0  0  0  0  0
    1.2613   -1.8265    0.1640 H   0  0  0  0  0  0  0  0  0  0  0  0
   -1.0414   -2.4696    0.8133 H   0  0  0  0  0  0  0  0  0  0  0  0
   -5.3934    2.5411    0.3246 S   0  0  0  0  0  0  0  0  0  0  0  0
   -5.4898    2.5112    2.1835 C   0  0  0  0  0  0  0  0  0  0  0  0
   -6.3783    3.5008   -0.1362 O   0  0  0  0  0  0  0  0  0  0  0  0
   -5.4086    1.1429   -0.0949 O   0  0  0  0  0  0  0  0  0  0  0  0
   -3.9469    3.1781    0.1323 O   0  0  0  0  0  0  0  0  0  0  0  0
   -5.3415    3.7365    2.6808 F   0  0  0  0  0  0  0  0  0  0  0  0
   -6.6753    2.0219    2.5497 F   0  0  0  0  0  0  0  0  0  0  0  0
   -4.5205    1.7185    2.6640 F   0  0  0  0  0  0  0  0  0  0  0  0
  1 10  1  0  0  0  0
  1  2  1  0  0  0  0
  2  3  1  0  0  0  0
  4  1  2  0  0  0  0
  5  4  1  0  0  0  0
  6  5  2  0  0  0  0
  6  9  1  0  0  0  0
  7  6  1  0  0  0  0
  8  7  1  0  0  0  0
  8 15  1  0  0  0  0
  9 10  2  0  0  0  0
 10 17  1  0  0  0  0
 11 22  1  0  0  0  0
 12  5  1  0  0  0  0
 13  8  1  0  0  0  0
 14  8  1  0  0  0  0
 16  9  1  0  0  0  0
 18 19  1  0  0  0  0
 19 24  1  0  0  0  0
 19 25  1  0  0  0  0
 19 23  1  0  0  0  0
 20 18  2  0  0  0  0
 21 18  2  0  0  0  0
 22 18  1  0  0  0  0
M  RAD  3   2   2   3   3   4   2
M  END
