Coordinates from ORCA-job 4-MeOPhN2+~TfO-_B3LYPG-6-31G_dp-CH-Scan-d09-49-n800
 OpenBabel11261919093D

 25 24  0  0  0  0  0  0  0  0999 V2000
   -1.6335   -0.3942    0.4715 C   0  0  0  0  0  0  0  0  0  0  0  0
   -2.9256   -0.7035    0.8248 N   0  0  0  0  0  0  0  0  0  0  0  0
   -3.9899   -0.9074    1.1140 N   0  0  0  0  0  0  0  0  0  0  0  0
   -1.4297    0.9595    0.1060 C   0  0  0  0  0  0  0  0  0  0  0  0
   -0.0827    1.1768   -0.2287 C   0  0  0  0  0  0  0  0  0  0  0  0
    0.9078    0.1814   -0.1982 C   0  0  0  0  0  0  0  0  0  0  0  0
    2.1552    0.5680   -0.5499 O   0  0  0  0  0  0  0  0  0  0  0  0
    3.2200   -0.3771   -0.5411 C   0  0  0  0  0  0  0  0  0  0  0  0
    0.5989   -1.1553    0.1850 C   0  0  0  0  0  0  0  0  0  0  0  0
   -0.6962   -1.4604    0.5295 C   0  0  0  0  0  0  0  0  0  0  0  0
   -3.7407    3.0423   -0.0990 H   0  0  0  0  0  0  0  0  0  0  0  0
    0.2563    2.1658   -0.5370 H   0  0  0  0  0  0  0  0  0  0  0  0
    4.1074    0.1731   -0.8555 H   0  0  0  0  0  0  0  0  0  0  0  0
    3.0365   -1.1977   -1.2445 H   0  0  0  0  0  0  0  0  0  0  0  0
    3.3873   -0.7862    0.4624 H   0  0  0  0  0  0  0  0  0  0  0  0
    1.3594   -1.9252    0.2092 H   0  0  0  0  0  0  0  0  0  0  0  0
   -0.9797   -2.4660    0.8302 H   0  0  0  0  0  0  0  0  0  0  0  0
   -5.7941    2.6461    0.3975 S   0  0  0  0  0  0  0  0  0  0  0  0
   -5.6023    2.4914    2.2450 C   0  0  0  0  0  0  0  0  0  0  0  0
   -6.9889    3.4266    0.1506 O   0  0  0  0  0  0  0  0  0  0  0  0
   -5.5808    1.3145   -0.1532 O   0  0  0  0  0  0  0  0  0  0  0  0
   -4.5293    3.5941    0.0713 O   0  0  0  0  0  0  0  0  0  0  0  0
   -5.6313    3.6921    2.8144 F   0  0  0  0  0  0  0  0  0  0  0  0
   -6.6025    1.7462    2.7141 F   0  0  0  0  0  0  0  0  0  0  0  0
   -4.4373    1.8941    2.5186 F   0  0  0  0  0  0  0  0  0  0  0  0
  1 10  1  0  0  0  0
  1  2  1  0  0  0  0
  2  3  1  0  0  0  0
  4  1  2  0  0  0  0
  5  6  2  0  0  0  0
  5  4  1  0  0  0  0
  6  9  1  0  0  0  0
  7  8  1  0  0  0  0
  7  6  1  0  0  0  0
  8 15  1  0  0  0  0
  9 16  1  0  0  0  0
  9 10  2  0  0  0  0
 10 17  1  0  0  0  0
 11 22  1  0  0  0  0
 12  5  1  0  0  0  0
 13  8  1  0  0  0  0
 14  8  1  0  0  0  0
 18 19  1  0  0  0  0
 19 25  1  0  0  0  0
 19 24  1  0  0  0  0
 19 23  1  0  0  0  0
 20 18  2  0  0  0  0
 21 18  2  0  0  0  0
 22 18  1  0  0  0  0
M  RAD  3   2   2   3   3   4   2
M  END
