Coordinates from ORCA-job 4-MeOPhN2+~TfO-_B3LYPG-6-31G_dp-CH-Scan-d09-49-n800
 OpenBabel11261919093D

 25 24  0  0  0  0  0  0  0  0999 V2000
   -1.4397   -0.2951    0.5913 C   0  0  0  0  0  0  0  0  0  0  0  0
   -2.7402   -0.5034    0.9939 N   0  0  0  0  0  0  0  0  0  0  0  0
   -3.8067   -0.6064    1.3282 N   0  0  0  0  0  0  0  0  0  0  0  0
   -1.1498    1.0579    0.2935 C   0  0  0  0  0  0  0  0  0  0  0  0
    0.1981    1.1827   -0.0924 C   0  0  0  0  0  0  0  0  0  0  0  0
    1.1014    0.1109   -0.1667 C   0  0  0  0  0  0  0  0  0  0  0  0
    2.3622    0.4146   -0.5572 O   0  0  0  0  0  0  0  0  0  0  0  0
    3.3404   -0.6140   -0.6565 C   0  0  0  0  0  0  0  0  0  0  0  0
    0.7000   -1.2189    0.1542 C   0  0  0  0  0  0  0  0  0  0  0  0
   -0.5993   -1.4396    0.5446 C   0  0  0  0  0  0  0  0  0  0  0  0
   -4.2350    3.6011   -0.2022 H   0  0  0  0  0  0  0  0  0  0  0  0
    0.6070    2.1576   -0.3610 H   0  0  0  0  0  0  0  0  0  0  0  0
    4.2579   -0.1215   -0.9800 H   0  0  0  0  0  0  0  0  0  0  0  0
    3.0571   -1.3705   -1.3980 H   0  0  0  0  0  0  0  0  0  0  0  0
    3.5155   -1.0998    0.3112 H   0  0  0  0  0  0  0  0  0  0  0  0
    1.3948   -2.0472    0.0963 H   0  0  0  0  0  0  0  0  0  0  0  0
   -0.9529   -2.4350    0.8024 H   0  0  0  0  0  0  0  0  0  0  0  0
   -6.0909    2.6923    0.3800 S   0  0  0  0  0  0  0  0  0  0  0  0
   -5.8073    2.4493    2.2071 C   0  0  0  0  0  0  0  0  0  0  0  0
   -7.4425    3.1844    0.2145 O   0  0  0  0  0  0  0  0  0  0  0  0
   -5.5759    1.5086   -0.2930 O   0  0  0  0  0  0  0  0  0  0  0  0
   -5.0880    3.9420    0.1206 O   0  0  0  0  0  0  0  0  0  0  0  0
   -6.1108    3.5621    2.8675 F   0  0  0  0  0  0  0  0  0  0  0  0
   -6.5848    1.4507    2.6216 F   0  0  0  0  0  0  0  0  0  0  0  0
   -4.5264    2.1361    2.4171 F   0  0  0  0  0  0  0  0  0  0  0  0
  1  2  1  0  0  0  0
  2  3  1  0  0  0  0
  4  1  2  0  0  0  0
  5  4  1  0  0  0  0
  6  5  2  0  0  0  0
  6  9  1  0  0  0  0
  7  6  1  0  0  0  0
  8  7  1  0  0  0  0
  8 15  1  0  0  0  0
  9 10  2  0  0  0  0
 10  1  1  0  0  0  0
 10 17  1  0  0  0  0
 11 22  1  0  0  0  0
 12  5  1  0  0  0  0
 13  8  1  0  0  0  0
 14  8  1  0  0  0  0
 16  9  1  0  0  0  0
 18 19  1  0  0  0  0
 19 25  1  0  0  0  0
 19 24  1  0  0  0  0
 19 23  1  0  0  0  0
 20 18  2  0  0  0  0
 21 18  2  0  0  0  0
 22 18  1  0  0  0  0
M  RAD  3   2   2   3   3   4   2
M  END
