Coordinates from ORCA-job 4-MeOPhN2+~TfO-_B3LYPG-6-31G_dp-CH-Scan-d09-49-n800
 OpenBabel11261919093D

 25 24  0  0  0  0  0  0  0  0999 V2000
   -1.5735   -0.3379    0.5736 C   0  0  0  0  0  0  0  0  0  0  0  0
   -2.8606   -0.6065    0.9763 N   0  0  0  0  0  0  0  0  0  0  0  0
   -3.9208   -0.7691    1.3048 N   0  0  0  0  0  0  0  0  0  0  0  0
   -1.3465    1.0138    0.2140 C   0  0  0  0  0  0  0  0  0  0  0  0
   -0.0068    1.1931   -0.1722 C   0  0  0  0  0  0  0  0  0  0  0  0
    0.9526    0.1678   -0.1929 C   0  0  0  0  0  0  0  0  0  0  0  0
    2.1964    0.5198   -0.5926 O   0  0  0  0  0  0  0  0  0  0  0  0
    3.2294   -0.4586   -0.6407 C   0  0  0  0  0  0  0  0  0  0  0  0
    0.6191   -1.1637    0.1888 C   0  0  0  0  0  0  0  0  0  0  0  0
   -0.6696   -1.4338    0.5829 C   0  0  0  0  0  0  0  0  0  0  0  0
   -3.7711    3.2150   -0.0178 H   0  0  0  0  0  0  0  0  0  0  0  0
    0.3506    2.1747   -0.4840 H   0  0  0  0  0  0  0  0  0  0  0  0
    4.1197    0.0667   -0.9878 H   0  0  0  0  0  0  0  0  0  0  0  0
    2.9892   -1.2644   -1.3442 H   0  0  0  0  0  0  0  0  0  0  0  0
    3.4272   -0.8852    0.3500 H   0  0  0  0  0  0  0  0  0  0  0  0
    1.3562   -1.9564    0.1733 H   0  0  0  0  0  0  0  0  0  0  0  0
   -0.9716   -2.4335    0.8853 H   0  0  0  0  0  0  0  0  0  0  0  0
   -5.8133    2.6611    0.3506 S   0  0  0  0  0  0  0  0  0  0  0  0
   -5.7204    2.4332    2.1988 C   0  0  0  0  0  0  0  0  0  0  0  0
   -7.0424    3.3709    0.0628 O   0  0  0  0  0  0  0  0  0  0  0  0
   -5.4711    1.3773   -0.2451 O   0  0  0  0  0  0  0  0  0  0  0  0
   -4.5974    3.7074    0.1491 O   0  0  0  0  0  0  0  0  0  0  0  0
   -5.9334    3.5900    2.8177 F   0  0  0  0  0  0  0  0  0  0  0  0
   -6.6480    1.5494    2.5632 F   0  0  0  0  0  0  0  0  0  0  0  0
   -4.5096    1.9679    2.5236 F   0  0  0  0  0  0  0  0  0  0  0  0
  1 10  1  0  0  0  0
  1  2  1  0  0  0  0
  2  3  1  0  0  0  0
  4  1  2  0  0  0  0
  5  4  1  0  0  0  0
  6  5  2  0  0  0  0
  6  9  1  0  0  0  0
  7  6  1  0  0  0  0
  8  7  1  0  0  0  0
  8 15  1  0  0  0  0
  9 10  2  0  0  0  0
 10 17  1  0  0  0  0
 11 22  1  0  0  0  0
 12  5  1  0  0  0  0
 13  8  1  0  0  0  0
 14  8  1  0  0  0  0
 16  9  1  0  0  0  0
 18 19  1  0  0  0  0
 19 25  1  0  0  0  0
 19 24  1  0  0  0  0
 19 23  1  0  0  0  0
 20 18  2  0  0  0  0
 21 18  2  0  0  0  0
 22 18  1  0  0  0  0
M  RAD  3   2   2   3   3   4   2
M  END
