Coordinates from ORCA-job 4-MeOPhN2+~TfO-_B3LYPG-6-31G_dp-CH-Scan-d09-49-n800
 OpenBabel11261919093D

 25 24  0  0  0  0  0  0  0  0999 V2000
   -1.7658   -0.4185    0.5230 C   0  0  0  0  0  0  0  0  0  0  0  0
   -3.0342   -0.7882    0.8945 N   0  0  0  0  0  0  0  0  0  0  0  0
   -4.0796   -1.0530    1.1989 N   0  0  0  0  0  0  0  0  0  0  0  0
   -1.5998    0.9483    0.1830 C   0  0  0  0  0  0  0  0  0  0  0  0
   -0.2724    1.2225   -0.1712 C   0  0  0  0  0  0  0  0  0  0  0  0
    0.7512    0.2589   -0.1824 C   0  0  0  0  0  0  0  0  0  0  0  0
    1.9751    0.6960   -0.5465 O   0  0  0  0  0  0  0  0  0  0  0  0
    3.0731   -0.2118   -0.5801 C   0  0  0  0  0  0  0  0  0  0  0  0
    0.4905   -1.0935    0.1740 C   0  0  0  0  0  0  0  0  0  0  0  0
   -0.7879   -1.4478    0.5351 C   0  0  0  0  0  0  0  0  0  0  0  0
   -3.2906    2.5383    0.1218 H   0  0  0  0  0  0  0  0  0  0  0  0
    0.0235    2.2294   -0.4615 H   0  0  0  0  0  0  0  0  0  0  0  0
    3.9342    0.3775   -0.8958 H   0  0  0  0  0  0  0  0  0  0  0  0
    2.9038   -1.0201   -1.3008 H   0  0  0  0  0  0  0  0  0  0  0  0
    3.2715   -0.6383    0.4102 H   0  0  0  0  0  0  0  0  0  0  0  0
    1.2743   -1.8400    0.1656 H   0  0  0  0  0  0  0  0  0  0  0  0
   -1.0321   -2.4686    0.8166 H   0  0  0  0  0  0  0  0  0  0  0  0
   -5.4406    2.5550    0.3313 S   0  0  0  0  0  0  0  0  0  0  0  0
   -5.5184    2.5080    2.1910 C   0  0  0  0  0  0  0  0  0  0  0  0
   -6.4485    3.4974   -0.1139 O   0  0  0  0  0  0  0  0  0  0  0  0
   -5.4242    1.1613   -0.1013 O   0  0  0  0  0  0  0  0  0  0  0  0
   -4.0089    3.2307    0.1316 O   0  0  0  0  0  0  0  0  0  0  0  0
   -5.3990    3.7331    2.6959 F   0  0  0  0  0  0  0  0  0  0  0  0
   -6.6871    1.9840    2.5625 F   0  0  0  0  0  0  0  0  0  0  0  0
   -4.5239    1.7382    2.6556 F   0  0  0  0  0  0  0  0  0  0  0  0
  1 10  1  0  0  0  0
  1  2  1  0  0  0  0
  2  3  1  0  0  0  0
  4  1  2  0  0  0  0
  5  4  1  0  0  0  0
  6  5  2  0  0  0  0
  6  9  1  0  0  0  0
  7  6  1  0  0  0  0
  8  7  1  0  0  0  0
  8 15  1  0  0  0  0
  9 10  2  0  0  0  0
 10 17  1  0  0  0  0
 11 22  1  0  0  0  0
 12  5  1  0  0  0  0
 13  8  1  0  0  0  0
 14  8  1  0  0  0  0
 16  9  1  0  0  0  0
 18 19  1  0  0  0  0
 19 24  1  0  0  0  0
 19 25  1  0  0  0  0
 19 23  1  0  0  0  0
 20 18  2  0  0  0  0
 21 18  2  0  0  0  0
 22 18  1  0  0  0  0
M  RAD  3   2   2   3   3   4   2
M  END
