Coordinates from ORCA-job 4-MeOPhN2+~TfO-_B3LYPG-6-31G_dp-CH-Scan-d09-49-n800
 OpenBabel11261919093D

 25 24  0  0  0  0  0  0  0  0999 V2000
   -1.6691   -0.4063    0.4726 C   0  0  0  0  0  0  0  0  0  0  0  0
   -2.9558   -0.7329    0.8275 N   0  0  0  0  0  0  0  0  0  0  0  0
   -4.0167   -0.9543    1.1157 N   0  0  0  0  0  0  0  0  0  0  0  0
   -1.4764    0.9509    0.1131 C   0  0  0  0  0  0  0  0  0  0  0  0
   -0.1329    1.1852   -0.2202 C   0  0  0  0  0  0  0  0  0  0  0  0
    0.8682    0.1999   -0.1946 C   0  0  0  0  0  0  0  0  0  0  0  0
    2.1110    0.6019   -0.5431 O   0  0  0  0  0  0  0  0  0  0  0  0
    3.1864   -0.3315   -0.5387 C   0  0  0  0  0  0  0  0  0  0  0  0
    0.5725   -1.1416    0.1804 C   0  0  0  0  0  0  0  0  0  0  0  0
   -0.7196   -1.4619    0.5231 C   0  0  0  0  0  0  0  0  0  0  0  0
   -3.6327    2.9158   -0.0617 H   0  0  0  0  0  0  0  0  0  0  0  0
    0.1949    2.1794   -0.5230 H   0  0  0  0  0  0  0  0  0  0  0  0
    4.0680    0.2308   -0.8478 H   0  0  0  0  0  0  0  0  0  0  0  0
    3.0130   -1.1492   -1.2480 H   0  0  0  0  0  0  0  0  0  0  0  0
    3.3562   -0.7452    0.4624 H   0  0  0  0  0  0  0  0  0  0  0  0
    1.3405   -1.9042    0.2002 H   0  0  0  0  0  0  0  0  0  0  0  0
   -0.9925   -2.4719    0.8181 H   0  0  0  0  0  0  0  0  0  0  0  0
   -5.7164    2.6242    0.3860 S   0  0  0  0  0  0  0  0  0  0  0  0
   -5.5707    2.5010    2.2398 C   0  0  0  0  0  0  0  0  0  0  0  0
   -6.8703    3.4512    0.0980 O   0  0  0  0  0  0  0  0  0  0  0  0
   -5.5579    1.2704   -0.1289 O   0  0  0  0  0  0  0  0  0  0  0  0
   -4.4059    3.5042    0.0660 O   0  0  0  0  0  0  0  0  0  0  0  0
   -5.5515    3.7137    2.7841 F   0  0  0  0  0  0  0  0  0  0  0  0
   -6.6157    1.8165    2.7044 F   0  0  0  0  0  0  0  0  0  0  0  0
   -4.4424    1.8529    2.5517 F   0  0  0  0  0  0  0  0  0  0  0  0
  1 10  1  0  0  0  0
  1  2  1  0  0  0  0
  2  3  1  0  0  0  0
  4  1  2  0  0  0  0
  5  6  2  0  0  0  0
  5  4  1  0  0  0  0
  6  9  1  0  0  0  0
  7  8  1  0  0  0  0
  7  6  1  0  0  0  0
  8 15  1  0  0  0  0
  9 16  1  0  0  0  0
  9 10  2  0  0  0  0
 10 17  1  0  0  0  0
 11 22  1  0  0  0  0
 12  5  1  0  0  0  0
 13  8  1  0  0  0  0
 14  8  1  0  0  0  0
 18 19  1  0  0  0  0
 19 25  1  0  0  0  0
 19 24  1  0  0  0  0
 19 23  1  0  0  0  0
 20 18  2  0  0  0  0
 21 18  2  0  0  0  0
 22 18  1  0  0  0  0
M  RAD  3   2   2   3   3   4   2
M  END
