Coordinates from ORCA-job 4-MeOPhN2+~TfO-_B3LYPG-6-31G_dp-CH-Scan-d09-49-n800
 OpenBabel11261919093D

 25 24  0  0  0  0  0  0  0  0999 V2000
   -1.6982   -0.4092    0.4842 C   0  0  0  0  0  0  0  0  0  0  0  0
   -2.9799   -0.7483    0.8436 N   0  0  0  0  0  0  0  0  0  0  0  0
   -4.0357   -0.9816    1.1401 N   0  0  0  0  0  0  0  0  0  0  0  0
   -1.5130    0.9508    0.1302 C   0  0  0  0  0  0  0  0  0  0  0  0
   -0.1736    1.1963   -0.2083 C   0  0  0  0  0  0  0  0  0  0  0  0
    0.8341    0.2173   -0.1917 C   0  0  0  0  0  0  0  0  0  0  0  0
    2.0721    0.6293   -0.5432 O   0  0  0  0  0  0  0  0  0  0  0  0
    3.1542   -0.2968   -0.5474 C   0  0  0  0  0  0  0  0  0  0  0  0
    0.5481   -1.1275    0.1782 C   0  0  0  0  0  0  0  0  0  0  0  0
   -0.7404   -1.4574    0.5251 C   0  0  0  0  0  0  0  0  0  0  0  0
   -3.5319    2.8082   -0.0155 H   0  0  0  0  0  0  0  0  0  0  0  0
    0.1455    2.1941   -0.5078 H   0  0  0  0  0  0  0  0  0  0  0  0
    4.0305    0.2733   -0.8572 H   0  0  0  0  0  0  0  0  0  0  0  0
    2.9833   -1.1122   -1.2599 H   0  0  0  0  0  0  0  0  0  0  0  0
    3.3306   -0.7138    0.4512 H   0  0  0  0  0  0  0  0  0  0  0  0
    1.3208   -1.8855    0.1908 H   0  0  0  0  0  0  0  0  0  0  0  0
   -1.0054   -2.4706    0.8161 H   0  0  0  0  0  0  0  0  0  0  0  0
   -5.6397    2.6046    0.3701 S   0  0  0  0  0  0  0  0  0  0  0  0
   -5.5527    2.5005    2.2284 C   0  0  0  0  0  0  0  0  0  0  0  0
   -6.7544    3.4690    0.0394 O   0  0  0  0  0  0  0  0  0  0  0  0
   -5.5228    1.2370   -0.1200 O   0  0  0  0  0  0  0  0  0  0  0  0
   -4.2903    3.4270    0.0775 O   0  0  0  0  0  0  0  0  0  0  0  0
   -5.5017    3.7183    2.7595 F   0  0  0  0  0  0  0  0  0  0  0  0
   -6.6359    1.8628    2.6720 F   0  0  0  0  0  0  0  0  0  0  0  0
   -4.4592    1.8135    2.5816 F   0  0  0  0  0  0  0  0  0  0  0  0
  1 10  1  0  0  0  0
  1  2  1  0  0  0  0
  2  3  1  0  0  0  0
  4  1  2  0  0  0  0
  5  6  2  0  0  0  0
  5  4  1  0  0  0  0
  6  9  1  0  0  0  0
  7  6  1  0  0  0  0
  8  7  1  0  0  0  0
  8 15  1  0  0  0  0
  9 16  1  0  0  0  0
  9 10  2  0  0  0  0
 10 17  1  0  0  0  0
 11 22  1  0  0  0  0
 12  5  1  0  0  0  0
 13  8  1  0  0  0  0
 14  8  1  0  0  0  0
 18 19  1  0  0  0  0
 19 25  1  0  0  0  0
 19 24  1  0  0  0  0
 19 23  1  0  0  0  0
 20 18  2  0  0  0  0
 21 18  2  0  0  0  0
 22 18  1  0  0  0  0
M  RAD  3   2   2   3   3   4   2
M  END
