Coordinates from ORCA-job 4-MeOPhN2+~TfO-_B3LYPG-6-31G_dp-CH-Scan-d09-49-n800
 OpenBabel11261919093D

 25 24  0  0  0  0  0  0  0  0999 V2000
   -1.5046   -0.3417    0.6787 C   0  0  0  0  0  0  0  0  0  0  0  0
   -2.8173   -0.5704    1.0315 N   0  0  0  0  0  0  0  0  0  0  0  0
   -3.8930   -0.6795    1.3329 N   0  0  0  0  0  0  0  0  0  0  0  0
   -1.1745    1.0328    0.6311 C   0  0  0  0  0  0  0  0  0  0  0  0
    0.1795    1.1843    0.2758 C   0  0  0  0  0  0  0  0  0  0  0  0
    1.0505    0.1161    0.0112 C   0  0  0  0  0  0  0  0  0  0  0  0
    2.3224    0.4462   -0.3200 O   0  0  0  0  0  0  0  0  0  0  0  0
    3.2701   -0.5785   -0.5963 C   0  0  0  0  0  0  0  0  0  0  0  0
    0.6084   -1.2372    0.0888 C   0  0  0  0  0  0  0  0  0  0  0  0
   -0.6998   -1.4852    0.4309 C   0  0  0  0  0  0  0  0  0  0  0  0
   -4.7634    3.8021   -0.7186 H   0  0  0  0  0  0  0  0  0  0  0  0
    0.6198    2.1788    0.1889 H   0  0  0  0  0  0  0  0  0  0  0  0
    4.2035   -0.0653   -0.8299 H   0  0  0  0  0  0  0  0  0  0  0  0
    2.9686   -1.1868   -1.4577 H   0  0  0  0  0  0  0  0  0  0  0  0
    3.4254   -1.2302    0.2723 H   0  0  0  0  0  0  0  0  0  0  0  0
    1.2798   -2.0614   -0.1161 H   0  0  0  0  0  0  0  0  0  0  0  0
   -1.0852   -2.4996    0.5043 H   0  0  0  0  0  0  0  0  0  0  0  0
   -6.1499    2.5938    0.3845 S   0  0  0  0  0  0  0  0  0  0  0  0
   -5.3275    2.5157    2.0578 C   0  0  0  0  0  0  0  0  0  0  0  0
   -7.5653    2.8049    0.6056 O   0  0  0  0  0  0  0  0  0  0  0  0
   -5.6131    1.5016   -0.4153 O   0  0  0  0  0  0  0  0  0  0  0  0
   -5.5296    3.9990   -0.1516 O   0  0  0  0  0  0  0  0  0  0  0  0
   -5.6474    3.5929    2.7688 F   0  0  0  0  0  0  0  0  0  0  0  0
   -5.7646    1.4191    2.6790 F   0  0  0  0  0  0  0  0  0  0  0  0
   -4.0087    2.4473    1.9004 F   0  0  0  0  0  0  0  0  0  0  0  0
  1  2  1  0  0  0  0
  2  3  1  0  0  0  0
  4  1  1  0  0  0  0
  5  4  2  0  0  0  0
  6  9  2  0  0  0  0
  6  5  1  0  0  0  0
  7  6  1  0  0  0  0
  8  7  1  0  0  0  0
  8 15  1  0  0  0  0
  9 10  1  0  0  0  0
 10 17  1  0  0  0  0
 10  1  2  0  0  0  0
 11 22  1  0  0  0  0
 12  5  1  0  0  0  0
 13  8  1  0  0  0  0
 14  8  1  0  0  0  0
 16  9  1  0  0  0  0
 18 20  2  0  0  0  0
 18 19  1  0  0  0  0
 19 24  1  0  0  0  0
 19 23  1  0  0  0  0
 21 18  2  0  0  0  0
 22 18  1  0  0  0  0
 25 19  1  0  0  0  0
M  RAD  3   2   2   3   3   4   2
M  END
