Coordinates from ORCA-job 4-MeOPhN2+~TfO-_B3LYPG-6-31G_dp-CH-Scan-d09-49-n800
 OpenBabel11261919093D

 25 24  0  0  0  0  0  0  0  0999 V2000
   -1.5079   -0.3237    0.5727 C   0  0  0  0  0  0  0  0  0  0  0  0
   -2.8017   -0.5670    0.9738 N   0  0  0  0  0  0  0  0  0  0  0  0
   -3.8651   -0.7070    1.3034 N   0  0  0  0  0  0  0  0  0  0  0  0
   -1.2562    1.0272    0.2306 C   0  0  0  0  0  0  0  0  0  0  0  0
    0.0880    1.1824   -0.1539 C   0  0  0  0  0  0  0  0  0  0  0  0
    1.0254    0.1379   -0.1889 C   0  0  0  0  0  0  0  0  0  0  0  0
    2.2768    0.4685   -0.5855 O   0  0  0  0  0  0  0  0  0  0  0  0
    3.2880   -0.5311   -0.6483 C   0  0  0  0  0  0  0  0  0  0  0  0
    0.6647   -1.1917    0.1759 C   0  0  0  0  0  0  0  0  0  0  0  0
   -0.6290   -1.4401    0.5679 C   0  0  0  0  0  0  0  0  0  0  0  0
   -3.9719    3.4049   -0.0864 H   0  0  0  0  0  0  0  0  0  0  0  0
    0.4665    2.1603   -0.4534 H   0  0  0  0  0  0  0  0  0  0  0  0
    4.1894   -0.0207   -0.9889 H   0  0  0  0  0  0  0  0  0  0  0  0
    3.0300   -1.3218   -1.3628 H   0  0  0  0  0  0  0  0  0  0  0  0
    3.4774   -0.9761    0.3361 H   0  0  0  0  0  0  0  0  0  0  0  0
    1.3854   -1.9992    0.1494 H   0  0  0  0  0  0  0  0  0  0  0  0
   -0.9518   -2.4370    0.8580 H   0  0  0  0  0  0  0  0  0  0  0  0
   -5.9425    2.6824    0.3695 S   0  0  0  0  0  0  0  0  0  0  0  0
   -5.7842    2.4460    2.2124 C   0  0  0  0  0  0  0  0  0  0  0  0
   -7.2311    3.2948    0.1214 O   0  0  0  0  0  0  0  0  0  0  0  0
   -5.5093    1.4402   -0.2541 O   0  0  0  0  0  0  0  0  0  0  0  0
   -4.8172    3.8275    0.1507 O   0  0  0  0  0  0  0  0  0  0  0  0
   -6.0407    3.5870    2.8441 F   0  0  0  0  0  0  0  0  0  0  0  0
   -6.6553    1.5132    2.5929 F   0  0  0  0  0  0  0  0  0  0  0  0
   -4.5436    2.0421    2.5006 F   0  0  0  0  0  0  0  0  0  0  0  0
  1  2  1  0  0  0  0
  2  3  1  0  0  0  0
  4  1  2  0  0  0  0
  5  4  1  0  0  0  0
  6  5  2  0  0  0  0
  6  9  1  0  0  0  0
  7  6  1  0  0  0  0
  8  7  1  0  0  0  0
  8 15  1  0  0  0  0
  9 10  2  0  0  0  0
 10  1  1  0  0  0  0
 10 17  1  0  0  0  0
 11 22  1  0  0  0  0
 12  5  1  0  0  0  0
 13  8  1  0  0  0  0
 14  8  1  0  0  0  0
 16  9  1  0  0  0  0
 18 19  1  0  0  0  0
 19 25  1  0  0  0  0
 19 24  1  0  0  0  0
 19 23  1  0  0  0  0
 20 18  2  0  0  0  0
 21 18  2  0  0  0  0
 22 18  1  0  0  0  0
M  RAD  3   2   2   3   3   4   2
M  END
