Coordinates from ORCA-job 4-MeOPhN2+~TfO-_B3LYPG-6-31G_dp-CH-Scan-d09-49-n800
 OpenBabel11261919093D

 25 24  0  0  0  0  0  0  0  0999 V2000
   -1.9850   -0.2887    0.4728 C   0  0  0  0  0  0  0  0  0  0  0  0
   -3.2970   -0.6622    0.6584 N   0  0  0  0  0  0  0  0  0  0  0  0
   -4.3134   -1.1029    0.8363 N   0  0  0  0  0  0  0  0  0  0  0  0
   -1.5597    1.0157    0.7982 C   0  0  0  0  0  0  0  0  0  0  0  0
   -0.2254    1.3190    0.6297 C   0  0  0  0  0  0  0  0  0  0  0  0
    0.6787    0.3573    0.1294 C   0  0  0  0  0  0  0  0  0  0  0  0
    1.9474    0.7721   -0.0011 O   0  0  0  0  0  0  0  0  0  0  0  0
    2.9354   -0.1252   -0.5146 C   0  0  0  0  0  0  0  0  0  0  0  0
    0.2311   -0.9409   -0.1950 C   0  0  0  0  0  0  0  0  0  0  0  0
   -1.1021   -1.2677   -0.0159 C   0  0  0  0  0  0  0  0  0  0  0  0
   -2.2670    1.7251    1.1453 H   0  0  0  0  0  0  0  0  0  0  0  0
    0.1523    2.3068    0.8667 H   0  0  0  0  0  0  0  0  0  0  0  0
    3.8663    0.4407   -0.5256 H   0  0  0  0  0  0  0  0  0  0  0  0
    2.6882   -0.4424   -1.5332 H   0  0  0  0  0  0  0  0  0  0  0  0
    3.0472   -1.0015    0.1328 H   0  0  0  0  0  0  0  0  0  0  0  0
    0.9124   -1.6881   -0.5802 H   0  0  0  0  0  0  0  0  0  0  0  0
   -1.4668   -2.2601   -0.2562 H   0  0  0  0  0  0  0  0  0  0  0  0
   -5.4555    1.8622    0.3876 S   0  0  0  0  0  0  0  0  0  0  0  0
   -5.0689    2.9882    1.8153 C   0  0  0  0  0  0  0  0  0  0  0  0
   -6.4479    2.5927   -0.4016 O   0  0  0  0  0  0  0  0  0  0  0  0
   -5.9298    0.6175    1.0626 O   0  0  0  0  0  0  0  0  0  0  0  0
   -4.1127    1.6797   -0.2380 O   0  0  0  0  0  0  0  0  0  0  0  0
   -4.6565    4.1884    1.3859 F   0  0  0  0  0  0  0  0  0  0  0  0
   -6.1245    3.1571    2.6158 F   0  0  0  0  0  0  0  0  0  0  0  0
   -4.0626    2.4561    2.5617 F   0  0  0  0  0  0  0  0  0  0  0  0
  1  2  1  0  0  0  0
  1  4  2  0  0  0  0
  2  3  1  0  0  0  0
  4 11  1  0  0  0  0
  5  4  1  0  0  0  0
  5 12  1  0  0  0  0
  6  5  2  0  0  0  0
  7  6  1  0  0  0  0
  8  7  1  0  0  0  0
  8 15  1  0  0  0  0
  9 10  2  0  0  0  0
  9  6  1  0  0  0  0
 10  1  1  0  0  0  0
 13  8  1  0  0  0  0
 14  8  1  0  0  0  0
 16  9  1  0  0  0  0
 17 10  1  0  0  0  0
 18 21  1  0  0  0  0
 18 19  1  0  0  0  0
 19 25  1  0  0  0  0
 19 24  1  0  0  0  0
 20 18  2  0  0  0  0
 22 18  2  0  0  0  0
 23 19  1  0  0  0  0
M  RAD  3   2   2   3   3  21   2
M  END
