Coordinates from ORCA-job 4-NO2PhN2+~TfO-_B3LYPG-6-31G_dp-CH-Scan-d09-49-n800
 OpenBabel11261919523D

 23 22  0  0  0  0  0  0  0  0999 V2000
   -1.8568   -0.6602   -0.1084 C   0  0  0  0  0  0  0  0  0  0  0  0
   -3.1144   -1.2154    0.1513 N   0  0  0  0  0  0  0  0  0  0  0  0
   -4.1351   -1.6190    0.3460 N   0  0  0  0  0  0  0  0  0  0  0  0
   -1.8967    0.6591   -0.5774 C   0  0  0  0  0  0  0  0  0  0  0  0
   -0.5809    1.1453   -0.8094 C   0  0  0  0  0  0  0  0  0  0  0  0
    0.5419    0.3636   -0.5789 C   0  0  0  0  0  0  0  0  0  0  0  0
    1.8896    0.9357   -0.8419 N   0  0  0  0  0  0  0  0  0  0  0  0
    1.9456    2.0889   -1.2560 O   0  0  0  0  0  0  0  0  0  0  0  0
    2.8606    0.2123   -0.6263 O   0  0  0  0  0  0  0  0  0  0  0  0
    0.4919   -0.9621   -0.1033 C   0  0  0  0  0  0  0  0  0  0  0  0
   -0.7466   -1.5079    0.1463 C   0  0  0  0  0  0  0  0  0  0  0  0
   -3.8337    1.9160   -0.9680 H   0  0  0  0  0  0  0  0  0  0  0  0
   -0.4250    2.1542   -1.1773 H   0  0  0  0  0  0  0  0  0  0  0  0
    1.4095   -1.5127    0.0539 H   0  0  0  0  0  0  0  0  0  0  0  0
   -0.8616   -2.5227    0.5141 H   0  0  0  0  0  0  0  0  0  0  0  0
   -5.8001    1.4521   -1.7181 S   0  0  0  0  0  0  0  0  0  0  0  0
   -5.5161    1.6773   -3.5456 C   0  0  0  0  0  0  0  0  0  0  0  0
   -5.4720    0.0599   -1.4185 O   0  0  0  0  0  0  0  0  0  0  0  0
   -7.0942    2.0265   -1.4088 O   0  0  0  0  0  0  0  0  0  0  0  0
   -4.6698    2.4246   -1.1381 O   0  0  0  0  0  0  0  0  0  0  0  0
   -4.2669    1.3145   -3.8475 F   0  0  0  0  0  0  0  0  0  0  0  0
   -6.3762    0.9039   -4.2079 F   0  0  0  0  0  0  0  0  0  0  0  0
   -5.7050    2.9496   -3.8831 F   0  0  0  0  0  0  0  0  0  0  0  0
  1 11  1  0  0  0  0
  1  2  1  0  0  0  0
  2  3  1  0  0  0  0
  4  1  2  0  0  0  0
  5  6  2  0  0  0  0
  5  4  1  0  0  0  0
  6 10  1  0  0  0  0
  7  9  2  0  0  0  0
  7  6  1  0  0  0  0
  8  7  2  0  0  0  0
 10 14  1  0  0  0  0
 10 11  2  0  0  0  0
 11 15  1  0  0  0  0
 13  5  1  0  0  0  0
 16 18  2  0  0  0  0
 16 19  2  0  0  0  0
 16 20  1  0  0  0  0
 17 16  1  0  0  0  0
 20 12  1  0  0  0  0
 21 17  1  0  0  0  0
 22 17  1  0  0  0  0
 23 17  1  0  0  0  0
M  RAD  3   2   2   3   3   4   2
M  END
