Coordinates from ORCA-job 4-NO2PhN2+~TfO-_B3LYPG-6-31G_dp-CH-Scan-d09-49-n800
 OpenBabel11261919523D

 23 22  0  0  0  0  0  0  0  0999 V2000
   -1.6376   -0.6742   -0.1251 C   0  0  0  0  0  0  0  0  0  0  0  0
   -2.9358   -1.1746    0.0586 N   0  0  0  0  0  0  0  0  0  0  0  0
   -3.9882   -1.5204    0.1933 N   0  0  0  0  0  0  0  0  0  0  0  0
   -1.6183    0.6636   -0.5310 C   0  0  0  0  0  0  0  0  0  0  0  0
   -0.2697    1.0992   -0.6907 C   0  0  0  0  0  0  0  0  0  0  0  0
    0.8095    0.2595   -0.4589 C   0  0  0  0  0  0  0  0  0  0  0  0
    2.1895    0.7816   -0.6468 N   0  0  0  0  0  0  0  0  0  0  0  0
    2.3129    1.9481   -1.0067 O   0  0  0  0  0  0  0  0  0  0  0  0
    3.1215    0.0080   -0.4292 O   0  0  0  0  0  0  0  0  0  0  0  0
    0.6880   -1.0853   -0.0481 C   0  0  0  0  0  0  0  0  0  0  0  0
   -0.5800   -1.5877    0.1310 C   0  0  0  0  0  0  0  0  0  0  0  0
   -4.2752    2.4425   -1.1293 H   0  0  0  0  0  0  0  0  0  0  0  0
   -0.0539    2.1163   -1.0039 H   0  0  0  0  0  0  0  0  0  0  0  0
    1.5763   -1.6801    0.1153 H   0  0  0  0  0  0  0  0  0  0  0  0
   -0.7528   -2.6120    0.4477 H   0  0  0  0  0  0  0  0  0  0  0  0
   -6.1108    1.5496   -1.7938 S   0  0  0  0  0  0  0  0  0  0  0  0
   -5.9208    1.6767   -3.6449 C   0  0  0  0  0  0  0  0  0  0  0  0
   -5.4994    0.2894   -1.3883 O   0  0  0  0  0  0  0  0  0  0  0  0
   -7.4759    1.9060   -1.4692 O   0  0  0  0  0  0  0  0  0  0  0  0
   -5.1634    2.7825   -1.3468 O   0  0  0  0  0  0  0  0  0  0  0  0
   -4.6327    1.5451   -3.9638 F   0  0  0  0  0  0  0  0  0  0  0  0
   -6.6249    0.6959   -4.2070 F   0  0  0  0  0  0  0  0  0  0  0  0
   -6.3706    2.8542   -4.0652 F   0  0  0  0  0  0  0  0  0  0  0  0
  1  2  1  0  0  0  0
  1 11  2  0  0  0  0
  2  3  1  0  0  0  0
  4  1  1  0  0  0  0
  5  4  2  0  0  0  0
  5  6  1  0  0  0  0
  6 10  2  0  0  0  0
  7  6  1  0  0  0  0
  7  9  2  0  0  0  0
  8  7  2  0  0  0  0
 10 14  1  0  0  0  0
 10 11  1  0  0  0  0
 11 15  1  0  0  0  0
 13  5  1  0  0  0  0
 16 19  2  0  0  0  0
 16 18  2  0  0  0  0
 16 20  1  0  0  0  0
 17 16  1  0  0  0  0
 20 12  1  0  0  0  0
 21 17  1  0  0  0  0
 22 17  1  0  0  0  0
 23 17  1  0  0  0  0
M  RAD  3   2   2   3   3   4   2
M  END
