Coordinates from ORCA-job 4-NO2PhN2+~TfO-_B3LYPG-6-31G_dp-CH-Scan-d09-49-n800
 OpenBabel11261919533D

 23 22  0  0  0  0  0  0  0  0999 V2000
   -1.5832   -0.6733   -0.1259 C   0  0  0  0  0  0  0  0  0  0  0  0
   -2.8925   -1.1535    0.0425 N   0  0  0  0  0  0  0  0  0  0  0  0
   -3.9536   -1.4773    0.1647 N   0  0  0  0  0  0  0  0  0  0  0  0
   -1.5450    0.6695   -0.5105 C   0  0  0  0  0  0  0  0  0  0  0  0
   -0.1882    1.0869   -0.6564 C   0  0  0  0  0  0  0  0  0  0  0  0
    0.8772    0.2275   -0.4332 C   0  0  0  0  0  0  0  0  0  0  0  0
    2.2658    0.7312   -0.6061 N   0  0  0  0  0  0  0  0  0  0  0  0
    2.4093    1.9017   -0.9459 O   0  0  0  0  0  0  0  0  0  0  0  0
    3.1852   -0.0597   -0.3972 O   0  0  0  0  0  0  0  0  0  0  0  0
    0.7338   -1.1221   -0.0442 C   0  0  0  0  0  0  0  0  0  0  0  0
   -0.5423   -1.6081    0.1212 C   0  0  0  0  0  0  0  0  0  0  0  0
   -4.4304    2.6186   -1.1667 H   0  0  0  0  0  0  0  0  0  0  0  0
    0.0451    2.1056   -0.9521 H   0  0  0  0  0  0  0  0  0  0  0  0
    1.6126   -1.7323    0.1139 H   0  0  0  0  0  0  0  0  0  0  0  0
   -0.7324   -2.6344    0.4213 H   0  0  0  0  0  0  0  0  0  0  0  0
   -6.1942    1.5778   -1.8106 S   0  0  0  0  0  0  0  0  0  0  0  0
   -6.0015    1.6682   -3.6641 C   0  0  0  0  0  0  0  0  0  0  0  0
   -5.4937    0.3789   -1.3672 O   0  0  0  0  0  0  0  0  0  0  0  0
   -7.5821    1.8461   -1.4995 O   0  0  0  0  0  0  0  0  0  0  0  0
   -5.3381    2.8896   -1.3945 O   0  0  0  0  0  0  0  0  0  0  0  0
   -4.7036    1.6489   -3.9696 F   0  0  0  0  0  0  0  0  0  0  0  0
   -6.6047    0.6088   -4.1997 F   0  0  0  0  0  0  0  0  0  0  0  0
   -6.5560    2.7847   -4.1228 F   0  0  0  0  0  0  0  0  0  0  0  0
  1  2  1  0  0  0  0
  1 11  2  0  0  0  0
  2  3  1  0  0  0  0
  4  1  1  0  0  0  0
  5  4  2  0  0  0  0
  5  6  1  0  0  0  0
  6 10  2  0  0  0  0
  7  6  1  0  0  0  0
  7  9  2  0  0  0  0
  8  7  2  0  0  0  0
 10 14  1  0  0  0  0
 10 11  1  0  0  0  0
 11 15  1  0  0  0  0
 13  5  1  0  0  0  0
 16 19  2  0  0  0  0
 16 20  1  0  0  0  0
 16 18  2  0  0  0  0
 17 16  1  0  0  0  0
 20 12  1  0  0  0  0
 21 17  1  0  0  0  0
 22 17  1  0  0  0  0
 23 17  1  0  0  0  0
M  RAD  3   2   2   3   3   4   2
M  END
