Coordinates from ORCA-job 4-NO2PhN2+~TfO-_B3LYPG-6-31G_dp-CH-Scan-d09-49-n800
 OpenBabel11261919523D

 23 22  0  0  0  0  0  0  0  0999 V2000
   -1.7330   -0.6609   -0.1009 C   0  0  0  0  0  0  0  0  0  0  0  0
   -3.0146   -1.1787    0.1315 N   0  0  0  0  0  0  0  0  0  0  0  0
   -4.0539   -1.5444    0.3061 N   0  0  0  0  0  0  0  0  0  0  0  0
   -1.7387    0.6715   -0.5279 C   0  0  0  0  0  0  0  0  0  0  0  0
   -0.4032    1.1223   -0.7354 C   0  0  0  0  0  0  0  0  0  0  0  0
    0.6935    0.3001   -0.5227 C   0  0  0  0  0  0  0  0  0  0  0  0
    2.0602    0.8373   -0.7597 N   0  0  0  0  0  0  0  0  0  0  0  0
    2.1565    1.9998   -1.1400 O   0  0  0  0  0  0  0  0  0  0  0  0
    3.0079    0.0788   -0.5589 O   0  0  0  0  0  0  0  0  0  0  0  0
    0.6013   -1.0388   -0.0881 C   0  0  0  0  0  0  0  0  0  0  0  0
   -0.6543   -1.5543    0.1364 C   0  0  0  0  0  0  0  0  0  0  0  0
   -4.1336    2.2456   -1.0182 H   0  0  0  0  0  0  0  0  0  0  0  0
   -0.2112    2.1369   -1.0708 H   0  0  0  0  0  0  0  0  0  0  0  0
    1.5014   -1.6204    0.0577 H   0  0  0  0  0  0  0  0  0  0  0  0
   -0.8035   -2.5758    0.4732 H   0  0  0  0  0  0  0  0  0  0  0  0
   -6.0006    1.4942   -1.7699 S   0  0  0  0  0  0  0  0  0  0  0  0
   -5.7082    1.6807   -3.6021 C   0  0  0  0  0  0  0  0  0  0  0  0
   -5.4970    0.1771   -1.3956 O   0  0  0  0  0  0  0  0  0  0  0  0
   -7.3564    1.9236   -1.4978 O   0  0  0  0  0  0  0  0  0  0  0  0
   -5.0065    2.6395   -1.2204 O   0  0  0  0  0  0  0  0  0  0  0  0
   -4.4123    1.4986   -3.8612 F   0  0  0  0  0  0  0  0  0  0  0  0
   -6.4266    0.7574   -4.2394 F   0  0  0  0  0  0  0  0  0  0  0  0
   -6.0795    2.8935   -3.9987 F   0  0  0  0  0  0  0  0  0  0  0  0
  1  2  1  0  0  0  0
  1 11  2  0  0  0  0
  2  3  1  0  0  0  0
  4  1  1  0  0  0  0
  5  4  2  0  0  0  0
  5  6  1  0  0  0  0
  6 10  2  0  0  0  0
  7  9  2  0  0  0  0
  7  6  1  0  0  0  0
  8  7  2  0  0  0  0
 10 14  1  0  0  0  0
 10 11  1  0  0  0  0
 11 15  1  0  0  0  0
 13  5  1  0  0  0  0
 16 19  2  0  0  0  0
 16 18  2  0  0  0  0
 16 20  1  0  0  0  0
 17 16  1  0  0  0  0
 20 12  1  0  0  0  0
 21 17  1  0  0  0  0
 22 17  1  0  0  0  0
 23 17  1  0  0  0  0
M  RAD  3   2   2   3   3   4   2
M  END
