Coordinates from ORCA-job 4-NO2PhN2+~TfO-_B3LYPG-6-31G_dp-CH-Scan-d09-49-n800
 OpenBabel11261919533D

 23 22  0  0  0  0  0  0  0  0999 V2000
   -1.4609   -0.5813   -0.0031 C   0  0  0  0  0  0  0  0  0  0  0  0
   -2.7998   -0.9525    0.2224 N   0  0  0  0  0  0  0  0  0  0  0  0
   -3.8807   -1.1717    0.3973 N   0  0  0  0  0  0  0  0  0  0  0  0
   -1.3347    0.7786   -0.2865 C   0  0  0  0  0  0  0  0  0  0  0  0
    0.0421    1.0943   -0.4978 C   0  0  0  0  0  0  0  0  0  0  0  0
    1.0391    0.1335   -0.4219 C   0  0  0  0  0  0  0  0  0  0  0  0
    2.4522    0.5317   -0.6583 N   0  0  0  0  0  0  0  0  0  0  0  0
    2.6751    1.7055   -0.9392 O   0  0  0  0  0  0  0  0  0  0  0  0
    3.3119   -0.3441   -0.5627 O   0  0  0  0  0  0  0  0  0  0  0  0
    0.8037   -1.2276   -0.1254 C   0  0  0  0  0  0  0  0  0  0  0  0
   -0.4960   -1.6186    0.0975 C   0  0  0  0  0  0  0  0  0  0  0  0
   -5.1486    3.0280   -1.0868 H   0  0  0  0  0  0  0  0  0  0  0  0
    0.3442    2.1120   -0.7291 H   0  0  0  0  0  0  0  0  0  0  0  0
    1.6346   -1.9184   -0.0791 H   0  0  0  0  0  0  0  0  0  0  0  0
   -0.7558   -2.6465    0.3349 H   0  0  0  0  0  0  0  0  0  0  0  0
   -6.4270    1.5131   -1.9155 S   0  0  0  0  0  0  0  0  0  0  0  0
   -6.0289    1.6987   -3.7287 C   0  0  0  0  0  0  0  0  0  0  0  0
   -5.4633    0.5740   -1.3566 O   0  0  0  0  0  0  0  0  0  0  0  0
   -7.8600    1.3524   -1.7935 O   0  0  0  0  0  0  0  0  0  0  0  0
   -6.0642    3.0162   -1.4167 O   0  0  0  0  0  0  0  0  0  0  0  0
   -4.7530    2.0650   -3.8590 F   0  0  0  0  0  0  0  0  0  0  0  0
   -6.2228    0.5238   -4.3232 F   0  0  0  0  0  0  0  0  0  0  0  0
   -6.8193    2.6175   -4.2720 F   0  0  0  0  0  0  0  0  0  0  0  0
  1 11  1  0  0  0  0
  1  2  1  0  0  0  0
  2  3  1  0  0  0  0
  4  1  2  0  0  0  0
  5  6  2  0  0  0  0
  5  4  1  0  0  0  0
  6 10  1  0  0  0  0
  7  9  2  0  0  0  0
  7  6  1  0  0  0  0
  8  7  2  0  0  0  0
 10 14  1  0  0  0  0
 10 11  2  0  0  0  0
 11 15  1  0  0  0  0
 13  5  1  0  0  0  0
 16 19  2  0  0  0  0
 16 20  1  0  0  0  0
 16 18  2  0  0  0  0
 17 16  1  0  0  0  0
 20 12  1  0  0  0  0
 21 17  1  0  0  0  0
 22 17  1  0  0  0  0
 23 17  1  0  0  0  0
M  RAD  3   2   2   3   3   4   2
M  END
