Coordinates from ORCA-job 4-NO2PhN2+~TfO-_B3LYPG-6-31G_dp-CH-Scan-d09-49-n800
 OpenBabel11261919523D

 23 22  0  0  0  0  0  0  0  0999 V2000
   -2.1430   -0.2819    0.0886 C   0  0  0  0  0  0  0  0  0  0  0  0
   -3.4190   -0.5835    0.5624 N   0  0  0  0  0  0  0  0  0  0  0  0
   -4.5329   -0.4736    0.6834 N   0  0  0  0  0  0  0  0  0  0  0  0
   -1.9979    0.9090   -0.6341 C   0  0  0  0  0  0  0  0  0  0  0  0
   -0.7311    1.2227   -1.1083 C   0  0  0  0  0  0  0  0  0  0  0  0
    0.3176    0.3431   -0.8407 C   0  0  0  0  0  0  0  0  0  0  0  0
    1.6716    0.6838   -1.3468 N   0  0  0  0  0  0  0  0  0  0  0  0
    1.7881    1.7363   -1.9640 O   0  0  0  0  0  0  0  0  0  0  0  0
    2.5752   -0.1086   -1.0988 O   0  0  0  0  0  0  0  0  0  0  0  0
    0.1659   -0.8426   -0.1197 C   0  0  0  0  0  0  0  0  0  0  0  0
   -1.0939   -1.1683    0.3640 C   0  0  0  0  0  0  0  0  0  0  0  0
   -3.0325    1.6116   -0.8280 H   0  0  0  0  0  0  0  0  0  0  0  0
   -0.5473    2.1233   -1.6803 H   0  0  0  0  0  0  0  0  0  0  0  0
    1.0246   -1.4795    0.0482 H   0  0  0  0  0  0  0  0  0  0  0  0
   -1.2684   -2.0778    0.9272 H   0  0  0  0  0  0  0  0  0  0  0  0
   -5.4870    0.6085   -1.8967 S   0  0  0  0  0  0  0  0  0  0  0  0
   -5.0732    1.9696   -3.0999 C   0  0  0  0  0  0  0  0  0  0  0  0
   -4.5428   -0.4825   -2.2172 O   0  0  0  0  0  0  0  0  0  0  0  0
   -6.9184    0.3656   -2.0658 O   0  0  0  0  0  0  0  0  0  0  0  0
   -5.1035    1.2797   -0.5775 O   0  0  0  0  0  0  0  0  0  0  0  0
   -3.7817    2.3474   -2.9486 F   0  0  0  0  0  0  0  0  0  0  0  0
   -5.2369    1.5434   -4.3542 F   0  0  0  0  0  0  0  0  0  0  0  0
   -5.8457    3.0381   -2.8959 F   0  0  0  0  0  0  0  0  0  0  0  0
  1 11  1  0  0  0  0
  1  2  1  0  0  0  0
  2  3  1  0  0  0  0
  4  1  2  0  0  0  0
  5  6  2  0  0  0  0
  5  4  1  0  0  0  0
  6 10  1  0  0  0  0
  7  9  2  0  0  0  0
  7  6  1  0  0  0  0
  8  7  2  0  0  0  0
 10 14  1  0  0  0  0
 10 11  2  0  0  0  0
 11 15  1  0  0  0  0
 12  4  1  0  0  0  0
 13  5  1  0  0  0  0
 16 20  1  0  0  0  0
 17 21  1  0  0  0  0
 17 23  1  0  0  0  0
 17 16  1  0  0  0  0
 18 16  2  0  0  0  0
 19 16  2  0  0  0  0
 22 17  1  0  0  0  0
M  RAD  3   2   2   3   3  20   2
M  END
