Coordinates from ORCA-job 4-NO2PhN2+~TfO-_B3LYPG-6-31G_dp-CH-Scan-d09-49-n800
 OpenBabel11261919533D

 23 22  0  0  0  0  0  0  0  0999 V2000
   -1.5996   -0.6247   -0.0229 C   0  0  0  0  0  0  0  0  0  0  0  0
   -2.9111   -1.0617    0.2342 N   0  0  0  0  0  0  0  0  0  0  0  0
   -3.9733   -1.3426    0.4313 N   0  0  0  0  0  0  0  0  0  0  0  0
   -1.5462    0.7268   -0.3702 C   0  0  0  0  0  0  0  0  0  0  0  0
   -0.1897    1.1029   -0.6093 C   0  0  0  0  0  0  0  0  0  0  0  0
    0.8581    0.2014   -0.4970 C   0  0  0  0  0  0  0  0  0  0  0  0
    2.2463    0.6628   -0.7645 N   0  0  0  0  0  0  0  0  0  0  0  0
    2.4047    1.8348   -1.0924 O   0  0  0  0  0  0  0  0  0  0  0  0
    3.1515   -0.1618   -0.6396 O   0  0  0  0  0  0  0  0  0  0  0  0
    0.6974   -1.1545   -0.1361 C   0  0  0  0  0  0  0  0  0  0  0  0
   -0.5785   -1.6023    0.1159 C   0  0  0  0  0  0  0  0  0  0  0  0
   -4.7779    2.8186   -0.9872 H   0  0  0  0  0  0  0  0  0  0  0  0
    0.0568    2.1226   -0.8915 H   0  0  0  0  0  0  0  0  0  0  0  0
    1.5637   -1.7980   -0.0651 H   0  0  0  0  0  0  0  0  0  0  0  0
   -0.7816   -2.6304    0.4022 H   0  0  0  0  0  0  0  0  0  0  0  0
   -6.2428    1.5075   -1.8548 S   0  0  0  0  0  0  0  0  0  0  0  0
   -5.7786    1.6709   -3.6547 C   0  0  0  0  0  0  0  0  0  0  0  0
   -5.4350    0.4286   -1.3014 O   0  0  0  0  0  0  0  0  0  0  0  0
   -7.6868    1.5458   -1.7664 O   0  0  0  0  0  0  0  0  0  0  0  0
   -5.6893    2.9324   -1.3101 O   0  0  0  0  0  0  0  0  0  0  0  0
   -4.4656    1.8856   -3.7480 F   0  0  0  0  0  0  0  0  0  0  0  0
   -6.0938    0.5352   -4.2736 F   0  0  0  0  0  0  0  0  0  0  0  0
   -6.4410    2.6838   -4.2017 F   0  0  0  0  0  0  0  0  0  0  0  0
  1 11  1  0  0  0  0
  1  2  1  0  0  0  0
  2  3  1  0  0  0  0
  4  1  2  0  0  0  0
  5  6  2  0  0  0  0
  5  4  1  0  0  0  0
  6 10  1  0  0  0  0
  7  9  2  0  0  0  0
  7  6  1  0  0  0  0
  8  7  2  0  0  0  0
 10 14  1  0  0  0  0
 10 11  2  0  0  0  0
 11 15  1  0  0  0  0
 13  5  1  0  0  0  0
 16 19  2  0  0  0  0
 16 20  1  0  0  0  0
 16 18  2  0  0  0  0
 17 16  1  0  0  0  0
 20 12  1  0  0  0  0
 21 17  1  0  0  0  0
 22 17  1  0  0  0  0
 23 17  1  0  0  0  0
M  RAD  3   2   2   3   3   4   2
M  END
