Coordinates from ORCA-job 4-NO2PhN2+~TfO-_B3LYPG-6-31G_dp-CH-Scan-d09-49-n800
 OpenBabel11261919523D

 23 22  0  0  0  0  0  0  0  0999 V2000
   -1.6744   -0.6691   -0.1158 C   0  0  0  0  0  0  0  0  0  0  0  0
   -2.9664   -1.1768    0.0864 N   0  0  0  0  0  0  0  0  0  0  0  0
   -4.0136   -1.5308    0.2369 N   0  0  0  0  0  0  0  0  0  0  0  0
   -1.6649    0.6668   -0.5295 C   0  0  0  0  0  0  0  0  0  0  0  0
   -0.3211    1.1087   -0.7071 C   0  0  0  0  0  0  0  0  0  0  0  0
    0.7650    0.2759   -0.4826 C   0  0  0  0  0  0  0  0  0  0  0  0
    2.1400    0.8042   -0.6888 N   0  0  0  0  0  0  0  0  0  0  0  0
    2.2529    1.9693   -1.0567 O   0  0  0  0  0  0  0  0  0  0  0  0
    3.0782    0.0364   -0.4783 O   0  0  0  0  0  0  0  0  0  0  0  0
    0.6548   -1.0669   -0.0630 C   0  0  0  0  0  0  0  0  0  0  0  0
   -0.6085   -1.5748    0.1331 C   0  0  0  0  0  0  0  0  0  0  0  0
   -4.2156    2.3615   -1.0874 H   0  0  0  0  0  0  0  0  0  0  0  0
   -0.1145    2.1251   -1.0286 H   0  0  0  0  0  0  0  0  0  0  0  0
    1.5478   -1.6565    0.0938 H   0  0  0  0  0  0  0  0  0  0  0  0
   -0.7722   -2.5982    0.4572 H   0  0  0  0  0  0  0  0  0  0  0  0
   -6.0673    1.5278   -1.7847 S   0  0  0  0  0  0  0  0  0  0  0  0
   -5.8418    1.6786   -3.6298 C   0  0  0  0  0  0  0  0  0  0  0  0
   -5.4996    0.2433   -1.3913 O   0  0  0  0  0  0  0  0  0  0  0  0
   -7.4281    1.9156   -1.4779 O   0  0  0  0  0  0  0  0  0  0  0  0
   -5.0964    2.7255   -1.3001 O   0  0  0  0  0  0  0  0  0  0  0  0
   -4.5515    1.5225   -3.9289 F   0  0  0  0  0  0  0  0  0  0  0  0
   -6.5579    0.7231   -4.2199 F   0  0  0  0  0  0  0  0  0  0  0  0
   -6.2572    2.8724   -4.0396 F   0  0  0  0  0  0  0  0  0  0  0  0
  1  2  1  0  0  0  0
  1 11  2  0  0  0  0
  2  3  1  0  0  0  0
  4  1  1  0  0  0  0
  5  4  2  0  0  0  0
  5  6  1  0  0  0  0
  6 10  2  0  0  0  0
  7  6  1  0  0  0  0
  7  9  2  0  0  0  0
  8  7  2  0  0  0  0
 10 14  1  0  0  0  0
 10 11  1  0  0  0  0
 11 15  1  0  0  0  0
 13  5  1  0  0  0  0
 16 19  2  0  0  0  0
 16 18  2  0  0  0  0
 16 20  1  0  0  0  0
 17 16  1  0  0  0  0
 20 12  1  0  0  0  0
 21 17  1  0  0  0  0
 22 17  1  0  0  0  0
 23 17  1  0  0  0  0
M  RAD  3   2   2   3   3   4   2
M  END
