Coordinates from ORCA-job 4-NO2PhN2+~TfO-_B3LYPG-6-31G_dp-CH-Scan-d09-49-n800
 OpenBabel11261919523D

 23 22  0  0  0  0  0  0  0  0999 V2000
   -1.9480   -0.6513   -0.0984 C   0  0  0  0  0  0  0  0  0  0  0  0
   -3.1894   -1.2244    0.1902 N   0  0  0  0  0  0  0  0  0  0  0  0
   -4.1988   -1.6440    0.4054 N   0  0  0  0  0  0  0  0  0  0  0  0
   -2.0071    0.6604   -0.5892 C   0  0  0  0  0  0  0  0  0  0  0  0
   -0.7060    1.1636   -0.8502 C   0  0  0  0  0  0  0  0  0  0  0  0
    0.4318    0.4021   -0.6241 C   0  0  0  0  0  0  0  0  0  0  0  0
    1.7660    0.9904   -0.9179 N   0  0  0  0  0  0  0  0  0  0  0  0
    1.7962    2.1365   -1.3529 O   0  0  0  0  0  0  0  0  0  0  0  0
    2.7505    0.2855   -0.7041 O   0  0  0  0  0  0  0  0  0  0  0  0
    0.4077   -0.9145   -0.1260 C   0  0  0  0  0  0  0  0  0  0  0  0
   -0.8194   -1.4740    0.1518 C   0  0  0  0  0  0  0  0  0  0  0  0
   -3.6435    1.7110   -0.9123 H   0  0  0  0  0  0  0  0  0  0  0  0
   -0.5743    2.1685   -1.2372 H   0  0  0  0  0  0  0  0  0  0  0  0
    1.3350   -1.4500    0.0264 H   0  0  0  0  0  0  0  0  0  0  0  0
   -0.9134   -2.4839    0.5375 H   0  0  0  0  0  0  0  0  0  0  0  0
   -5.6529    1.4104   -1.6871 S   0  0  0  0  0  0  0  0  0  0  0  0
   -5.3614    1.6818   -3.5054 C   0  0  0  0  0  0  0  0  0  0  0  0
   -5.4128   -0.0143   -1.4489 O   0  0  0  0  0  0  0  0  0  0  0  0
   -6.9220    2.0330   -1.3608 O   0  0  0  0  0  0  0  0  0  0  0  0
   -4.4761    2.2797   -1.0762 O   0  0  0  0  0  0  0  0  0  0  0  0
   -4.1280    1.2758   -3.8239 F   0  0  0  0  0  0  0  0  0  0  0  0
   -6.2527    0.9694   -4.1959 F   0  0  0  0  0  0  0  0  0  0  0  0
   -5.4936    2.9720   -3.8038 F   0  0  0  0  0  0  0  0  0  0  0  0
  1 11  1  0  0  0  0
  1  2  1  0  0  0  0
  2  3  1  0  0  0  0
  4  1  2  0  0  0  0
  5  6  2  0  0  0  0
  5  4  1  0  0  0  0
  6 10  1  0  0  0  0
  7  9  2  0  0  0  0
  7  6  1  0  0  0  0
  8  7  2  0  0  0  0
 10 14  1  0  0  0  0
 10 11  2  0  0  0  0
 11 15  1  0  0  0  0
 13  5  1  0  0  0  0
 16 18  2  0  0  0  0
 16 19  2  0  0  0  0
 16 20  1  0  0  0  0
 17 16  1  0  0  0  0
 20 12  1  0  0  0  0
 21 17  1  0  0  0  0
 22 17  1  0  0  0  0
 23 17  1  0  0  0  0
M  RAD  3   2   2   3   3   4   2
M  END
