Coordinates from ORCA-job 4-NO2PhN2+~TfO-_B3LYPG-6-31G_dp-CH-Scan-d09-49-n800
 OpenBabel11261919523D

 23 22  0  0  0  0  0  0  0  0999 V2000
   -1.8949   -0.6585   -0.1073 C   0  0  0  0  0  0  0  0  0  0  0  0
   -3.1456   -1.2226    0.1624 N   0  0  0  0  0  0  0  0  0  0  0  0
   -4.1612   -1.6347    0.3643 N   0  0  0  0  0  0  0  0  0  0  0  0
   -1.9437    0.6575   -0.5860 C   0  0  0  0  0  0  0  0  0  0  0  0
   -0.6341    1.1525   -0.8279 C   0  0  0  0  0  0  0  0  0  0  0  0
    0.4956    0.3807   -0.5969 C   0  0  0  0  0  0  0  0  0  0  0  0
    1.8374    0.9614   -0.8706 N   0  0  0  0  0  0  0  0  0  0  0  0
    1.8820    2.1118   -1.2931 O   0  0  0  0  0  0  0  0  0  0  0  0
    2.8147    0.2469   -0.6538 O   0  0  0  0  0  0  0  0  0  0  0  0
    0.4572   -0.9412   -0.1116 C   0  0  0  0  0  0  0  0  0  0  0  0
   -0.7763   -1.4944    0.1478 C   0  0  0  0  0  0  0  0  0  0  0  0
   -3.7501    1.8259   -0.9483 H   0  0  0  0  0  0  0  0  0  0  0  0
   -0.4888    2.1600   -1.2038 H   0  0  0  0  0  0  0  0  0  0  0  0
    1.3793   -1.4843    0.0453 H   0  0  0  0  0  0  0  0  0  0  0  0
   -0.8819   -2.5072    0.5232 H   0  0  0  0  0  0  0  0  0  0  0  0
   -5.7375    1.4382   -1.7031 S   0  0  0  0  0  0  0  0  0  0  0  0
   -5.4538    1.6773   -3.5282 C   0  0  0  0  0  0  0  0  0  0  0  0
   -5.4537    0.0304   -1.4264 O   0  0  0  0  0  0  0  0  0  0  0  0
   -7.0164    2.0420   -1.3847 O   0  0  0  0  0  0  0  0  0  0  0  0
   -4.5799    2.3631   -1.1144 O   0  0  0  0  0  0  0  0  0  0  0  0
   -4.2143    1.2883   -3.8395 F   0  0  0  0  0  0  0  0  0  0  0  0
   -6.3337    0.9328   -4.1984 F   0  0  0  0  0  0  0  0  0  0  0  0
   -5.6126    2.9577   -3.8516 F   0  0  0  0  0  0  0  0  0  0  0  0
  1 11  1  0  0  0  0
  1  2  1  0  0  0  0
  2  3  1  0  0  0  0
  4  1  2  0  0  0  0
  5  6  2  0  0  0  0
  5  4  1  0  0  0  0
  6 10  1  0  0  0  0
  7  9  2  0  0  0  0
  7  6  1  0  0  0  0
  8  7  2  0  0  0  0
 10 14  1  0  0  0  0
 10 11  2  0  0  0  0
 11 15  1  0  0  0  0
 13  5  1  0  0  0  0
 16 18  2  0  0  0  0
 16 19  2  0  0  0  0
 16 20  1  0  0  0  0
 17 16  1  0  0  0  0
 20 12  1  0  0  0  0
 21 17  1  0  0  0  0
 22 17  1  0  0  0  0
 23 17  1  0  0  0  0
M  RAD  3   2   2   3   3   4   2
M  END
