Coordinates from ORCA-job 4-NO2PhN2+~TfO-_B3LYPG-6-31G_dp-CH-Scan-d09-49-n800
 OpenBabel11261919533D

 23 22  0  0  0  0  0  0  0  0999 V2000
   -1.5789   -0.6729   -0.1258 C   0  0  0  0  0  0  0  0  0  0  0  0
   -2.8892   -1.1515    0.0415 N   0  0  0  0  0  0  0  0  0  0  0  0
   -3.9509   -1.4730    0.1642 N   0  0  0  0  0  0  0  0  0  0  0  0
   -1.5391    0.6703   -0.5080 C   0  0  0  0  0  0  0  0  0  0  0  0
   -0.1817    1.0862   -0.6530 C   0  0  0  0  0  0  0  0  0  0  0  0
    0.8825    0.2250   -0.4313 C   0  0  0  0  0  0  0  0  0  0  0  0
    2.2719    0.7271   -0.6033 N   0  0  0  0  0  0  0  0  0  0  0  0
    2.4170    1.8979   -0.9411 O   0  0  0  0  0  0  0  0  0  0  0  0
    3.1902   -0.0656   -0.3958 O   0  0  0  0  0  0  0  0  0  0  0  0
    0.7373   -1.1251   -0.0446 C   0  0  0  0  0  0  0  0  0  0  0  0
   -0.5395   -1.6097    0.1198 C   0  0  0  0  0  0  0  0  0  0  0  0
   -4.4445    2.6336   -1.1692 H   0  0  0  0  0  0  0  0  0  0  0  0
    0.0530    2.1052   -0.9470 H   0  0  0  0  0  0  0  0  0  0  0  0
    1.6153   -1.7368    0.1124 H   0  0  0  0  0  0  0  0  0  0  0  0
   -0.7310   -2.6363    0.4182 H   0  0  0  0  0  0  0  0  0  0  0  0
   -6.2010    1.5799   -1.8120 S   0  0  0  0  0  0  0  0  0  0  0  0
   -6.0067    1.6671   -3.6656 C   0  0  0  0  0  0  0  0  0  0  0  0
   -5.4933    0.3865   -1.3649 O   0  0  0  0  0  0  0  0  0  0  0  0
   -7.5909    1.8403   -1.5029 O   0  0  0  0  0  0  0  0  0  0  0  0
   -5.3537    2.8983   -1.3982 O   0  0  0  0  0  0  0  0  0  0  0  0
   -4.7084    1.6559   -3.9694 F   0  0  0  0  0  0  0  0  0  0  0  0
   -6.6021    0.6024   -4.1993 F   0  0  0  0  0  0  0  0  0  0  0  0
   -6.5683    2.7787   -4.1276 F   0  0  0  0  0  0  0  0  0  0  0  0
  1  2  1  0  0  0  0
  1 11  2  0  0  0  0
  2  3  1  0  0  0  0
  4  1  1  0  0  0  0
  5  4  2  0  0  0  0
  5  6  1  0  0  0  0
  6 10  2  0  0  0  0
  7  6  1  0  0  0  0
  7  9  2  0  0  0  0
  8  7  2  0  0  0  0
 10 14  1  0  0  0  0
 10 11  1  0  0  0  0
 11 15  1  0  0  0  0
 13  5  1  0  0  0  0
 16 19  2  0  0  0  0
 16 20  1  0  0  0  0
 16 18  2  0  0  0  0
 17 16  1  0  0  0  0
 20 12  1  0  0  0  0
 21 17  1  0  0  0  0
 22 17  1  0  0  0  0
 23 17  1  0  0  0  0
M  RAD  3   2   2   3   3   4   2
M  END
