Coordinates from ORCA-job 4-NO2PhN2+~TfO-_B3LYPG-6-31G_dp-CH-Scan-d09-49-n800
 OpenBabel11261919533D

 23 22  0  0  0  0  0  0  0  0999 V2000
   -1.5358   -0.6120   -0.0219 C   0  0  0  0  0  0  0  0  0  0  0  0
   -2.8598   -1.0236    0.2162 N   0  0  0  0  0  0  0  0  0  0  0  0
   -3.9309   -1.2799    0.3995 N   0  0  0  0  0  0  0  0  0  0  0  0
   -1.4534    0.7423   -0.3488 C   0  0  0  0  0  0  0  0  0  0  0  0
   -0.0872    1.0955   -0.5690 C   0  0  0  0  0  0  0  0  0  0  0  0
    0.9413    0.1717   -0.4597 C   0  0  0  0  0  0  0  0  0  0  0  0
    2.3411    0.6092   -0.7061 N   0  0  0  0  0  0  0  0  0  0  0  0
    2.5253    1.7804   -1.0235 O   0  0  0  0  0  0  0  0  0  0  0  0
    3.2277   -0.2371   -0.5933 O   0  0  0  0  0  0  0  0  0  0  0  0
    0.7504   -1.1861   -0.1204 C   0  0  0  0  0  0  0  0  0  0  0  0
   -0.5364   -1.6124    0.1127 C   0  0  0  0  0  0  0  0  0  0  0  0
   -4.9285    2.9114   -1.0380 H   0  0  0  0  0  0  0  0  0  0  0  0
    0.1819    2.1142   -0.8336 H   0  0  0  0  0  0  0  0  0  0  0  0
    1.6033   -1.8473   -0.0505 H   0  0  0  0  0  0  0  0  0  0  0  0
   -0.7626   -2.6402    0.3820 H   0  0  0  0  0  0  0  0  0  0  0  0
   -6.3283    1.5145   -1.8796 S   0  0  0  0  0  0  0  0  0  0  0  0
   -5.9002    1.6867   -3.6874 C   0  0  0  0  0  0  0  0  0  0  0  0
   -5.4535    0.4884   -1.3275 O   0  0  0  0  0  0  0  0  0  0  0  0
   -7.7708    1.4741   -1.7699 O   0  0  0  0  0  0  0  0  0  0  0  0
   -5.8460    2.9742   -1.3572 O   0  0  0  0  0  0  0  0  0  0  0  0
   -4.6005    1.9633   -3.8026 F   0  0  0  0  0  0  0  0  0  0  0  0
   -6.1703    0.5331   -4.2941 F   0  0  0  0  0  0  0  0  0  0  0  0
   -6.6189    2.6629   -4.2300 F   0  0  0  0  0  0  0  0  0  0  0  0
  1 11  1  0  0  0  0
  1  2  1  0  0  0  0
  2  3  1  0  0  0  0
  4  1  2  0  0  0  0
  5  6  2  0  0  0  0
  5  4  1  0  0  0  0
  6 10  1  0  0  0  0
  7  9  2  0  0  0  0
  7  6  1  0  0  0  0
  8  7  2  0  0  0  0
 10 14  1  0  0  0  0
 10 11  2  0  0  0  0
 11 15  1  0  0  0  0
 13  5  1  0  0  0  0
 16 19  2  0  0  0  0
 16 20  1  0  0  0  0
 16 18  2  0  0  0  0
 17 16  1  0  0  0  0
 20 12  1  0  0  0  0
 21 17  1  0  0  0  0
 22 17  1  0  0  0  0
 23 17  1  0  0  0  0
M  RAD  3   2   2   3   3   4   2
M  END
