Coordinates from ORCA-job 4-NO2PhN2+~TfO-_B3LYPG-6-31G_dp-CH-Scan-d09-49-n800
 OpenBabel11261919523D

 23 22  0  0  0  0  0  0  0  0999 V2000
   -1.6026   -0.6755   -0.1289 C   0  0  0  0  0  0  0  0  0  0  0  0
   -2.9077   -1.1647    0.0422 N   0  0  0  0  0  0  0  0  0  0  0  0
   -3.9654   -1.4982    0.1669 N   0  0  0  0  0  0  0  0  0  0  0  0
   -1.5719    0.6649   -0.5235 C   0  0  0  0  0  0  0  0  0  0  0  0
   -0.2183    1.0906   -0.6715 C   0  0  0  0  0  0  0  0  0  0  0  0
    0.8527    0.2403   -0.4407 C   0  0  0  0  0  0  0  0  0  0  0  0
    2.2380    0.7524   -0.6162 N   0  0  0  0  0  0  0  0  0  0  0  0
    2.3735    1.9212   -0.9645 O   0  0  0  0  0  0  0  0  0  0  0  0
    3.1625   -0.0304   -0.3994 O   0  0  0  0  0  0  0  0  0  0  0  0
    0.7180   -1.1071   -0.0416 C   0  0  0  0  0  0  0  0  0  0  0  0
   -0.5549   -1.6006    0.1260 C   0  0  0  0  0  0  0  0  0  0  0  0
   -4.3610    2.5453   -1.1584 H   0  0  0  0  0  0  0  0  0  0  0  0
    0.0080    2.1086   -0.9748 H   0  0  0  0  0  0  0  0  0  0  0  0
    1.6007   -1.7102    0.1219 H   0  0  0  0  0  0  0  0  0  0  0  0
   -0.7381   -2.6260    0.4334 H   0  0  0  0  0  0  0  0  0  0  0  0
   -6.1606    1.5689   -1.8037 S   0  0  0  0  0  0  0  0  0  0  0  0
   -5.9801    1.6725   -3.6575 C   0  0  0  0  0  0  0  0  0  0  0  0
   -5.4965    0.3426   -1.3786 O   0  0  0  0  0  0  0  0  0  0  0  0
   -7.5373    1.8772   -1.4794 O   0  0  0  0  0  0  0  0  0  0  0  0
   -5.2605    2.8475   -1.3811 O   0  0  0  0  0  0  0  0  0  0  0  0
   -4.6872    1.6009   -3.9759 F   0  0  0  0  0  0  0  0  0  0  0  0
   -6.6333    0.6464   -4.1995 F   0  0  0  0  0  0  0  0  0  0  0  0
   -6.4902    2.8171   -4.0983 F   0  0  0  0  0  0  0  0  0  0  0  0
  1  2  1  0  0  0  0
  1 11  2  0  0  0  0
  2  3  1  0  0  0  0
  4  1  1  0  0  0  0
  5  4  2  0  0  0  0
  5  6  1  0  0  0  0
  6 10  2  0  0  0  0
  7  6  1  0  0  0  0
  7  9  2  0  0  0  0
  8  7  2  0  0  0  0
 10 14  1  0  0  0  0
 10 11  1  0  0  0  0
 11 15  1  0  0  0  0
 13  5  1  0  0  0  0
 16 19  2  0  0  0  0
 16 20  1  0  0  0  0
 16 18  2  0  0  0  0
 17 16  1  0  0  0  0
 20 12  1  0  0  0  0
 21 17  1  0  0  0  0
 22 17  1  0  0  0  0
 23 17  1  0  0  0  0
M  RAD  3   2   2   3   3   4   2
M  END
