Coordinates from ORCA-job 4-NO2PhN2+~TfO-_B3LYPG-6-31G_dp-CH-Scan-d09-49-n800
 OpenBabel11261919533D

 23 22  0  0  0  0  0  0  0  0999 V2000
   -1.4712   -0.5881   -0.0092 C   0  0  0  0  0  0  0  0  0  0  0  0
   -2.8080   -0.9661    0.2166 N   0  0  0  0  0  0  0  0  0  0  0  0
   -3.8877   -1.1914    0.3910 N   0  0  0  0  0  0  0  0  0  0  0  0
   -1.3527    0.7706   -0.3024 C   0  0  0  0  0  0  0  0  0  0  0  0
    0.0227    1.0930   -0.5128 C   0  0  0  0  0  0  0  0  0  0  0  0
    1.0256    0.1391   -0.4268 C   0  0  0  0  0  0  0  0  0  0  0  0
    2.4368    0.5443   -0.6622 N   0  0  0  0  0  0  0  0  0  0  0  0
    2.6533    1.7178   -0.9494 O   0  0  0  0  0  0  0  0  0  0  0  0
    3.3014   -0.3259   -0.5600 O   0  0  0  0  0  0  0  0  0  0  0  0
    0.7978   -1.2212   -0.1210 C   0  0  0  0  0  0  0  0  0  0  0  0
   -0.5001   -1.6186    0.1014 C   0  0  0  0  0  0  0  0  0  0  0  0
   -5.1116    3.0104   -1.0815 H   0  0  0  0  0  0  0  0  0  0  0  0
    0.3192    2.1107   -0.7511 H   0  0  0  0  0  0  0  0  0  0  0  0
    1.6327   -1.9065   -0.0673 H   0  0  0  0  0  0  0  0  0  0  0  0
   -0.7542   -2.6462    0.3455 H   0  0  0  0  0  0  0  0  0  0  0  0
   -6.4131    1.5147   -1.9092 S   0  0  0  0  0  0  0  0  0  0  0  0
   -6.0139    1.6981   -3.7224 C   0  0  0  0  0  0  0  0  0  0  0  0
   -5.4626    0.5605   -1.3532 O   0  0  0  0  0  0  0  0  0  0  0  0
   -7.8482    1.3742   -1.7862 O   0  0  0  0  0  0  0  0  0  0  0  0
   -6.0287    3.0112   -1.4074 O   0  0  0  0  0  0  0  0  0  0  0  0
   -4.7335    2.0479   -3.8530 F   0  0  0  0  0  0  0  0  0  0  0  0
   -6.2235    0.5268   -4.3187 F   0  0  0  0  0  0  0  0  0  0  0  0
   -6.7927    2.6280   -4.2635 F   0  0  0  0  0  0  0  0  0  0  0  0
  1 11  1  0  0  0  0
  1  2  1  0  0  0  0
  2  3  1  0  0  0  0
  4  1  2  0  0  0  0
  5  6  2  0  0  0  0
  5  4  1  0  0  0  0
  6 10  1  0  0  0  0
  7  9  2  0  0  0  0
  7  6  1  0  0  0  0
  8  7  2  0  0  0  0
 10 14  1  0  0  0  0
 10 11  2  0  0  0  0
 11 15  1  0  0  0  0
 13  5  1  0  0  0  0
 16 19  2  0  0  0  0
 16 20  1  0  0  0  0
 16 18  2  0  0  0  0
 17 16  1  0  0  0  0
 20 12  1  0  0  0  0
 21 17  1  0  0  0  0
 22 17  1  0  0  0  0
 23 17  1  0  0  0  0
M  RAD  3   2   2   3   3   4   2
M  END
