Coordinates from ORCA-job 4-NO2PhN2+~TfO-_B3LYPG-6-31G_dp-CH-Scan-d09-49-n800
 OpenBabel11261919523D

 23 22  0  0  0  0  0  0  0  0999 V2000
   -1.9410   -0.6531   -0.1008 C   0  0  0  0  0  0  0  0  0  0  0  0
   -3.1836   -1.2257    0.1844 N   0  0  0  0  0  0  0  0  0  0  0  0
   -4.1937   -1.6449    0.3972 N   0  0  0  0  0  0  0  0  0  0  0  0
   -1.9990    0.6591   -0.5901 C   0  0  0  0  0  0  0  0  0  0  0  0
   -0.6969    1.1619   -0.8476 C   0  0  0  0  0  0  0  0  0  0  0  0
    0.4401    0.3996   -0.6200 C   0  0  0  0  0  0  0  0  0  0  0  0
    1.7753    0.9875   -0.9103 N   0  0  0  0  0  0  0  0  0  0  0  0
    1.8072    2.1344   -1.3431 O   0  0  0  0  0  0  0  0  0  0  0  0
    2.7590    0.2820   -0.6949 O   0  0  0  0  0  0  0  0  0  0  0  0
    0.4144   -0.9177   -0.1236 C   0  0  0  0  0  0  0  0  0  0  0  0
   -0.8135   -1.4770    0.1509 C   0  0  0  0  0  0  0  0  0  0  0  0
   -3.6550    1.7246   -0.9191 H   0  0  0  0  0  0  0  0  0  0  0  0
   -0.5636    2.1671   -1.2331 H   0  0  0  0  0  0  0  0  0  0  0  0
    1.3412   -1.4538    0.0300 H   0  0  0  0  0  0  0  0  0  0  0  0
   -0.9088   -2.4873    0.5353 H   0  0  0  0  0  0  0  0  0  0  0  0
   -5.6629    1.4156   -1.6883 S   0  0  0  0  0  0  0  0  0  0  0  0
   -5.3753    1.6806   -3.5084 C   0  0  0  0  0  0  0  0  0  0  0  0
   -5.4194   -0.0072   -1.4441 O   0  0  0  0  0  0  0  0  0  0  0  0
   -6.9314    2.0386   -1.3613 O   0  0  0  0  0  0  0  0  0  0  0  0
   -4.4856    2.2907   -1.0834 O   0  0  0  0  0  0  0  0  0  0  0  0
   -4.1422    1.2750   -3.8276 F   0  0  0  0  0  0  0  0  0  0  0  0
   -6.2672    0.9643   -4.1939 F   0  0  0  0  0  0  0  0  0  0  0  0
   -5.5101    2.9694   -3.8111 F   0  0  0  0  0  0  0  0  0  0  0  0
  1 11  1  0  0  0  0
  1  2  1  0  0  0  0
  2  3  1  0  0  0  0
  4  1  2  0  0  0  0
  5  6  2  0  0  0  0
  5  4  1  0  0  0  0
  6 10  1  0  0  0  0
  7  9  2  0  0  0  0
  7  6  1  0  0  0  0
  8  7  2  0  0  0  0
 10 14  1  0  0  0  0
 10 11  2  0  0  0  0
 11 15  1  0  0  0  0
 13  5  1  0  0  0  0
 16 18  2  0  0  0  0
 16 19  2  0  0  0  0
 16 20  1  0  0  0  0
 17 16  1  0  0  0  0
 20 12  1  0  0  0  0
 21 17  1  0  0  0  0
 22 17  1  0  0  0  0
 23 17  1  0  0  0  0
M  RAD  3   2   2   3   3   4   2
M  END
