Coordinates from ORCA-job 4-NO2PhN2+~TfO-_B3LYPG-6-31G_dp-CH-Scan-d09-49-n800
 OpenBabel11261919523D

 23 22  0  0  0  0  0  0  0  0999 V2000
   -1.8181   -0.6578   -0.1007 C   0  0  0  0  0  0  0  0  0  0  0  0
   -3.0834   -1.1993    0.1556 N   0  0  0  0  0  0  0  0  0  0  0  0
   -4.1103   -1.5888    0.3483 N   0  0  0  0  0  0  0  0  0  0  0  0
   -1.8473    0.6674   -0.5518 C   0  0  0  0  0  0  0  0  0  0  0  0
   -0.5248    1.1398   -0.7822 C   0  0  0  0  0  0  0  0  0  0  0  0
    0.5891    0.3416   -0.5665 C   0  0  0  0  0  0  0  0  0  0  0  0
    1.9428    0.9002   -0.8276 N   0  0  0  0  0  0  0  0  0  0  0  0
    2.0123    2.0578   -1.2274 O   0  0  0  0  0  0  0  0  0  0  0  0
    2.9060    0.1623   -0.6252 O   0  0  0  0  0  0  0  0  0  0  0  0
    0.5254   -0.9900   -0.1078 C   0  0  0  0  0  0  0  0  0  0  0  0
   -0.7185   -1.5241    0.1395 C   0  0  0  0  0  0  0  0  0  0  0  0
   -3.9518    2.0409   -0.9669 H   0  0  0  0  0  0  0  0  0  0  0  0
   -0.3568    2.1515   -1.1375 H   0  0  0  0  0  0  0  0  0  0  0  0
    1.4370   -1.5532    0.0385 H   0  0  0  0  0  0  0  0  0  0  0  0
   -0.8447   -2.5421    0.4949 H   0  0  0  0  0  0  0  0  0  0  0  0
   -5.8762    1.4645   -1.7365 S   0  0  0  0  0  0  0  0  0  0  0  0
   -5.5573    1.6751   -3.5607 C   0  0  0  0  0  0  0  0  0  0  0  0
   -5.4875    0.0969   -1.4032 O   0  0  0  0  0  0  0  0  0  0  0  0
   -7.1990    1.9876   -1.4625 O   0  0  0  0  0  0  0  0  0  0  0  0
   -4.8033    2.5040   -1.1470 O   0  0  0  0  0  0  0  0  0  0  0  0
   -4.2784    1.3936   -3.8196 F   0  0  0  0  0  0  0  0  0  0  0  0
   -6.3437    0.8315   -4.2282 F   0  0  0  0  0  0  0  0  0  0  0  0
   -5.8239    2.9245   -3.9283 F   0  0  0  0  0  0  0  0  0  0  0  0
  1 11  1  0  0  0  0
  1  2  1  0  0  0  0
  2  3  1  0  0  0  0
  4  1  2  0  0  0  0
  5  6  2  0  0  0  0
  5  4  1  0  0  0  0
  6 10  1  0  0  0  0
  7  9  2  0  0  0  0
  7  6  1  0  0  0  0
  8  7  2  0  0  0  0
 10 14  1  0  0  0  0
 10 11  2  0  0  0  0
 11 15  1  0  0  0  0
 13  5  1  0  0  0  0
 16 19  2  0  0  0  0
 16 18  2  0  0  0  0
 16 20  1  0  0  0  0
 17 16  1  0  0  0  0
 20 12  1  0  0  0  0
 21 17  1  0  0  0  0
 22 17  1  0  0  0  0
 23 17  1  0  0  0  0
M  RAD  3   2   2   3   3   4   2
M  END
