Coordinates from ORCA-job 4-NO2PhN2+~TfO-_B3LYPG-6-31G_dp-CH-Scan-d09-49-n800
 OpenBabel11261919523D

 23 22  0  0  0  0  0  0  0  0999 V2000
   -1.6220   -0.6751   -0.1272 C   0  0  0  0  0  0  0  0  0  0  0  0
   -2.9232   -1.1710    0.0506 N   0  0  0  0  0  0  0  0  0  0  0  0
   -3.9777   -1.5125    0.1795 N   0  0  0  0  0  0  0  0  0  0  0  0
   -1.5980    0.6634   -0.5293 C   0  0  0  0  0  0  0  0  0  0  0  0
   -0.2473    1.0951   -0.6836 C   0  0  0  0  0  0  0  0  0  0  0  0
    0.8286    0.2514   -0.4510 C   0  0  0  0  0  0  0  0  0  0  0  0
    2.2108    0.7694   -0.6333 N   0  0  0  0  0  0  0  0  0  0  0  0
    2.3393    1.9373   -0.9871 O   0  0  0  0  0  0  0  0  0  0  0  0
    3.1397   -0.0069   -0.4124 O   0  0  0  0  0  0  0  0  0  0  0  0
    0.7015   -1.0943   -0.0440 C   0  0  0  0  0  0  0  0  0  0  0  0
   -0.5686   -1.5931    0.1298 C   0  0  0  0  0  0  0  0  0  0  0  0
   -4.3095    2.4837   -1.1430 H   0  0  0  0  0  0  0  0  0  0  0  0
   -0.0271    2.1125   -0.9934 H   0  0  0  0  0  0  0  0  0  0  0  0
    1.5875   -1.6923    0.1204 H   0  0  0  0  0  0  0  0  0  0  0  0
   -0.7457   -2.6177    0.4433 H   0  0  0  0  0  0  0  0  0  0  0  0
   -6.1320    1.5578   -1.7981 S   0  0  0  0  0  0  0  0  0  0  0  0
   -5.9490    1.6757   -3.6507 C   0  0  0  0  0  0  0  0  0  0  0  0
   -5.4988    0.3108   -1.3857 O   0  0  0  0  0  0  0  0  0  0  0  0
   -7.5013    1.8953   -1.4715 O   0  0  0  0  0  0  0  0  0  0  0  0
   -5.2022    2.8091   -1.3625 O   0  0  0  0  0  0  0  0  0  0  0  0
   -4.6597    1.5640   -3.9718 F   0  0  0  0  0  0  0  0  0  0  0  0
   -6.6374    0.6789   -4.2039 F   0  0  0  0  0  0  0  0  0  0  0  0
   -6.4202    2.8422   -4.0778 F   0  0  0  0  0  0  0  0  0  0  0  0
  1  2  1  0  0  0  0
  1 11  2  0  0  0  0
  2  3  1  0  0  0  0
  4  1  1  0  0  0  0
  5  4  2  0  0  0  0
  5  6  1  0  0  0  0
  6 10  2  0  0  0  0
  7  6  1  0  0  0  0
  7  9  2  0  0  0  0
  8  7  2  0  0  0  0
 10 14  1  0  0  0  0
 10 11  1  0  0  0  0
 11 15  1  0  0  0  0
 13  5  1  0  0  0  0
 16 19  2  0  0  0  0
 16 18  2  0  0  0  0
 16 20  1  0  0  0  0
 17 16  1  0  0  0  0
 20 12  1  0  0  0  0
 21 17  1  0  0  0  0
 22 17  1  0  0  0  0
 23 17  1  0  0  0  0
M  RAD  3   2   2   3   3   4   2
M  END
