Coordinates from ORCA-job 4-NO2PhN2+~TfO-_B3LYPG-6-31G_dp-CH-Scan-d09-49-n800
 OpenBabel11261919523D

 23 22  0  0  0  0  0  0  0  0999 V2000
   -1.7412   -0.6602   -0.0993 C   0  0  0  0  0  0  0  0  0  0  0  0
   -3.0212   -1.1798    0.1368 N   0  0  0  0  0  0  0  0  0  0  0  0
   -4.0594   -1.5474    0.3142 N   0  0  0  0  0  0  0  0  0  0  0  0
   -1.7492    0.6717   -0.5283 C   0  0  0  0  0  0  0  0  0  0  0  0
   -0.4149    1.1242   -0.7394 C   0  0  0  0  0  0  0  0  0  0  0  0
    0.6834    0.3037   -0.5279 C   0  0  0  0  0  0  0  0  0  0  0  0
    2.0488    0.8424   -0.7686 N   0  0  0  0  0  0  0  0  0  0  0  0
    2.1426    2.0043   -1.1511 O   0  0  0  0  0  0  0  0  0  0  0  0
    2.9979    0.0853   -0.5693 O   0  0  0  0  0  0  0  0  0  0  0  0
    0.5938   -1.0347   -0.0912 C   0  0  0  0  0  0  0  0  0  0  0  0
   -0.6606   -1.5516    0.1368 C   0  0  0  0  0  0  0  0  0  0  0  0
   -4.1204    2.2289   -1.0100 H   0  0  0  0  0  0  0  0  0  0  0  0
   -0.2251    2.1386   -1.0766 H   0  0  0  0  0  0  0  0  0  0  0  0
    1.4950   -1.6149    0.0535 H   0  0  0  0  0  0  0  0  0  0  0  0
   -0.8076   -2.5727    0.4753 H   0  0  0  0  0  0  0  0  0  0  0  0
   -5.9906    1.4903   -1.7676 S   0  0  0  0  0  0  0  0  0  0  0  0
   -5.6904    1.6807   -3.5981 C   0  0  0  0  0  0  0  0  0  0  0  0
   -5.4964    0.1688   -1.3962 O   0  0  0  0  0  0  0  0  0  0  0  0
   -7.3450    1.9264   -1.4990 O   0  0  0  0  0  0  0  0  0  0  0  0
   -4.9922    2.6275   -1.2104 O   0  0  0  0  0  0  0  0  0  0  0  0
   -4.3942    1.4940   -3.8528 F   0  0  0  0  0  0  0  0  0  0  0  0
   -6.4101    0.7622   -4.2408 F   0  0  0  0  0  0  0  0  0  0  0  0
   -6.0552    2.8961   -3.9929 F   0  0  0  0  0  0  0  0  0  0  0  0
  1  2  1  0  0  0  0
  1 11  2  0  0  0  0
  2  3  1  0  0  0  0
  4  1  1  0  0  0  0
  5  4  2  0  0  0  0
  5  6  1  0  0  0  0
  6 10  2  0  0  0  0
  7  9  2  0  0  0  0
  7  6  1  0  0  0  0
  8  7  2  0  0  0  0
 10 14  1  0  0  0  0
 10 11  1  0  0  0  0
 11 15  1  0  0  0  0
 13  5  1  0  0  0  0
 16 19  2  0  0  0  0
 16 18  2  0  0  0  0
 16 20  1  0  0  0  0
 17 16  1  0  0  0  0
 20 12  1  0  0  0  0
 21 17  1  0  0  0  0
 22 17  1  0  0  0  0
 23 17  1  0  0  0  0
M  RAD  3   2   2   3   3   4   2
M  END
