Coordinates from ORCA-job 4-NO2PhN2+~TfO-_B3LYPG-6-31G_dp-CH-Scan-d09-49-n800
 OpenBabel11261919523D

 23 22  0  0  0  0  0  0  0  0999 V2000
   -1.7864   -0.6567   -0.0958 C   0  0  0  0  0  0  0  0  0  0  0  0
   -3.0581   -1.1871    0.1560 N   0  0  0  0  0  0  0  0  0  0  0  0
   -4.0896   -1.5657    0.3466 N   0  0  0  0  0  0  0  0  0  0  0  0
   -1.8062    0.6723   -0.5346 C   0  0  0  0  0  0  0  0  0  0  0  0
   -0.4786    1.1343   -0.7612 C   0  0  0  0  0  0  0  0  0  0  0  0
    0.6281    0.3242   -0.5536 C   0  0  0  0  0  0  0  0  0  0  0  0
    1.9869    0.8723   -0.8106 N   0  0  0  0  0  0  0  0  0  0  0  0
    2.0673    2.0326   -1.2006 O   0  0  0  0  0  0  0  0  0  0  0  0
    2.9436    0.1241   -0.6148 O   0  0  0  0  0  0  0  0  0  0  0  0
    0.5528   -1.0113   -0.1067 C   0  0  0  0  0  0  0  0  0  0  0  0
   -0.6955   -1.5363    0.1364 C   0  0  0  0  0  0  0  0  0  0  0  0
   -4.0369    2.1327   -0.9746 H   0  0  0  0  0  0  0  0  0  0  0  0
   -0.3008    2.1477   -1.1075 H   0  0  0  0  0  0  0  0  0  0  0  0
    1.4596   -1.5837    0.0340 H   0  0  0  0  0  0  0  0  0  0  0  0
   -0.8310   -2.5562    0.4831 H   0  0  0  0  0  0  0  0  0  0  0  0
   -5.9298    1.4730   -1.7515 S   0  0  0  0  0  0  0  0  0  0  0  0
   -5.6017    1.6770   -3.5754 C   0  0  0  0  0  0  0  0  0  0  0  0
   -5.4916    0.1263   -1.3975 O   0  0  0  0  0  0  0  0  0  0  0  0
   -7.2717    1.9523   -1.4927 O   0  0  0  0  0  0  0  0  0  0  0  0
   -4.8998    2.5616   -1.1649 O   0  0  0  0  0  0  0  0  0  0  0  0
   -4.3080    1.4559   -3.8170 F   0  0  0  0  0  0  0  0  0  0  0  0
   -6.3388    0.7874   -4.2392 F   0  0  0  0  0  0  0  0  0  0  0  0
   -5.9261    2.9070   -3.9605 F   0  0  0  0  0  0  0  0  0  0  0  0
  1 11  1  0  0  0  0
  1  2  1  0  0  0  0
  2  3  1  0  0  0  0
  4  1  2  0  0  0  0
  5  6  2  0  0  0  0
  5  4  1  0  0  0  0
  6 10  1  0  0  0  0
  7  9  2  0  0  0  0
  7  6  1  0  0  0  0
  8  7  2  0  0  0  0
 10 14  1  0  0  0  0
 10 11  2  0  0  0  0
 11 15  1  0  0  0  0
 13  5  1  0  0  0  0
 16 19  2  0  0  0  0
 16 18  2  0  0  0  0
 16 20  1  0  0  0  0
 17 16  1  0  0  0  0
 20 12  1  0  0  0  0
 21 17  1  0  0  0  0
 22 17  1  0  0  0  0
 23 17  1  0  0  0  0
M  RAD  3   2   2   3   3   4   2
M  END
