Coordinates from ORCA-job 4-NO2PhN2+~TfO-_B3LYPG-6-31G_dp-CH-Scan-d09-49-n800
 OpenBabel11261919533D

 23 22  0  0  0  0  0  0  0  0999 V2000
   -2.0182   -0.2267    0.5237 C   0  0  0  0  0  0  0  0  0  0  0  0
   -3.1223   -0.5334    1.3406 N   0  0  0  0  0  0  0  0  0  0  0  0
   -3.9765   -0.7004    2.0395 N   0  0  0  0  0  0  0  0  0  0  0  0
   -1.4098    0.9641    0.9163 C   0  0  0  0  0  0  0  0  0  0  0  0
   -0.2969    1.2340    0.0634 C   0  0  0  0  0  0  0  0  0  0  0  0
    0.0550    0.3856   -0.9761 C   0  0  0  0  0  0  0  0  0  0  0  0
    1.2229    0.7293   -1.8299 N   0  0  0  0  0  0  0  0  0  0  0  0
    1.8457    1.7519   -1.5603 O   0  0  0  0  0  0  0  0  0  0  0  0
    1.4924   -0.0333   -2.7582 O   0  0  0  0  0  0  0  0  0  0  0  0
   -0.6355   -0.8057   -1.2931 C   0  0  0  0  0  0  0  0  0  0  0  0
   -1.7229   -1.1417   -0.5200 C   0  0  0  0  0  0  0  0  0  0  0  0
   -5.3621    2.8018   -0.7734 H   0  0  0  0  0  0  0  0  0  0  0  0
    0.3081    2.1244    0.2107 H   0  0  0  0  0  0  0  0  0  0  0  0
   -0.3018   -1.4162   -2.1214 H   0  0  0  0  0  0  0  0  0  0  0  0
   -2.3075   -2.0384   -0.7024 H   0  0  0  0  0  0  0  0  0  0  0  0
   -5.4259    1.0045   -1.9478 S   0  0  0  0  0  0  0  0  0  0  0  0
   -3.8519    1.1630   -2.9397 C   0  0  0  0  0  0  0  0  0  0  0  0
   -5.0774    0.3425   -0.6952 O   0  0  0  0  0  0  0  0  0  0  0  0
   -6.4647    0.5285   -2.8344 O   0  0  0  0  0  0  0  0  0  0  0  0
   -5.7129    2.5758   -1.6528 O   0  0  0  0  0  0  0  0  0  0  0  0
   -2.9408    1.8045   -2.2080 F   0  0  0  0  0  0  0  0  0  0  0  0
   -3.4197   -0.0640   -3.2250 F   0  0  0  0  0  0  0  0  0  0  0  0
   -4.0895    1.8334   -4.0593 F   0  0  0  0  0  0  0  0  0  0  0  0
  1  4  1  0  0  0  0
  1  2  1  0  0  0  0
  2  3  1  0  0  0  0
  5 13  1  0  0  0  0
  5  4  2  0  0  0  0
  6  5  1  0  0  0  0
  7  8  2  0  0  0  0
  7  6  1  0  0  0  0
  9  7  2  0  0  0  0
 10  6  2  0  0  0  0
 10 11  1  0  0  0  0
 11  1  2  0  0  0  0
 14 10  1  0  0  0  0
 15 11  1  0  0  0  0
 16 20  1  0  0  0  0
 16 18  2  0  0  0  0
 17 21  1  0  0  0  0
 17 16  1  0  0  0  0
 19 16  2  0  0  0  0
 20 12  1  0  0  0  0
 22 17  1  0  0  0  0
 23 17  1  0  0  0  0
M  RAD  3   2   2   3   3   4   2
M  END
