Coordinates from ORCA-job 4-NO2PhN2+~TfO-_B3LYPG-6-31G_dp-CH-Scan-d09-49-n800
 OpenBabel11261919523D

 23 22  0  0  0  0  0  0  0  0999 V2000
   -1.9875   -0.6417   -0.0887 C   0  0  0  0  0  0  0  0  0  0  0  0
   -3.2231   -1.2179    0.2146 N   0  0  0  0  0  0  0  0  0  0  0  0
   -4.2283   -1.6411    0.4403 N   0  0  0  0  0  0  0  0  0  0  0  0
   -2.0491    0.6661   -0.5905 C   0  0  0  0  0  0  0  0  0  0  0  0
   -0.7545    1.1726   -0.8661 C   0  0  0  0  0  0  0  0  0  0  0  0
    0.3875    0.4163   -0.6420 C   0  0  0  0  0  0  0  0  0  0  0  0
    1.7174    1.0067   -0.9510 N   0  0  0  0  0  0  0  0  0  0  0  0
    1.7394    2.1488   -1.3963 O   0  0  0  0  0  0  0  0  0  0  0  0
    2.7054    0.3071   -0.7372 O   0  0  0  0  0  0  0  0  0  0  0  0
    0.3703   -0.8951   -0.1326 C   0  0  0  0  0  0  0  0  0  0  0  0
   -0.8534   -1.4561    0.1593 C   0  0  0  0  0  0  0  0  0  0  0  0
   -3.5521    1.6223   -0.8889 H   0  0  0  0  0  0  0  0  0  0  0  0
   -0.6314    2.1745   -1.2631 H   0  0  0  0  0  0  0  0  0  0  0  0
    1.3001   -1.4271    0.0176 H   0  0  0  0  0  0  0  0  0  0  0  0
   -0.9411   -2.4630    0.5539 H   0  0  0  0  0  0  0  0  0  0  0  0
   -5.5848    1.3823   -1.6790 S   0  0  0  0  0  0  0  0  0  0  0  0
   -5.3047    1.6919   -3.4919 C   0  0  0  0  0  0  0  0  0  0  0  0
   -5.3604   -0.0536   -1.4822 O   0  0  0  0  0  0  0  0  0  0  0  0
   -6.8536    1.9985   -1.3348 O   0  0  0  0  0  0  0  0  0  0  0  0
   -4.4001    2.2152   -1.0571 O   0  0  0  0  0  0  0  0  0  0  0  0
   -4.0758    1.2842   -3.8295 F   0  0  0  0  0  0  0  0  0  0  0  0
   -6.2049    1.0029   -4.1953 F   0  0  0  0  0  0  0  0  0  0  0  0
   -5.4278    2.9900   -3.7621 F   0  0  0  0  0  0  0  0  0  0  0  0
  1 11  1  0  0  0  0
  1  2  1  0  0  0  0
  2  3  1  0  0  0  0
  4  1  2  0  0  0  0
  5  6  2  0  0  0  0
  5  4  1  0  0  0  0
  6 10  1  0  0  0  0
  7  9  2  0  0  0  0
  7  6  1  0  0  0  0
  8  7  2  0  0  0  0
 10 14  1  0  0  0  0
 10 11  2  0  0  0  0
 11 15  1  0  0  0  0
 13  5  1  0  0  0  0
 16 18  2  0  0  0  0
 16 19  2  0  0  0  0
 16 20  1  0  0  0  0
 17 16  1  0  0  0  0
 20 12  1  0  0  0  0
 21 17  1  0  0  0  0
 22 17  1  0  0  0  0
 23 17  1  0  0  0  0
M  RAD  3   2   2   3   3   4   2
M  END
