Coordinates from ORCA-job 4-NO2PhN2+~TfO-_B3LYPG-6-31G_dp-CH-Scan-d09-49-n800
 OpenBabel11261919533D

 23 22  0  0  0  0  0  0  0  0999 V2000
   -1.5508   -0.6699   -0.1230 C   0  0  0  0  0  0  0  0  0  0  0  0
   -2.8667   -1.1366    0.0391 N   0  0  0  0  0  0  0  0  0  0  0  0
   -3.9328   -1.4461    0.1561 N   0  0  0  0  0  0  0  0  0  0  0  0
   -1.5005    0.6757   -0.4941 C   0  0  0  0  0  0  0  0  0  0  0  0
   -0.1390    1.0808   -0.6349 C   0  0  0  0  0  0  0  0  0  0  0  0
    0.9175    0.2085   -0.4202 C   0  0  0  0  0  0  0  0  0  0  0  0
    2.3113    0.6995   -0.5876 N   0  0  0  0  0  0  0  0  0  0  0  0
    2.4673    1.8717   -0.9160 O   0  0  0  0  0  0  0  0  0  0  0  0
    3.2227   -0.1027   -0.3857 O   0  0  0  0  0  0  0  0  0  0  0  0
    0.7605   -1.1437   -0.0444 C   0  0  0  0  0  0  0  0  0  0  0  0
   -0.5205   -1.6184    0.1157 C   0  0  0  0  0  0  0  0  0  0  0  0
   -4.5397    2.7233   -1.1815 H   0  0  0  0  0  0  0  0  0  0  0  0
    0.1049    2.1001   -0.9201 H   0  0  0  0  0  0  0  0  0  0  0  0
    1.6332   -1.7640    0.1079 H   0  0  0  0  0  0  0  0  0  0  0  0
   -0.7213   -2.6457    0.4058 H   0  0  0  0  0  0  0  0  0  0  0  0
   -6.2468    1.5899   -1.8221 S   0  0  0  0  0  0  0  0  0  0  0  0
   -6.0408    1.6637   -3.6752 C   0  0  0  0  0  0  0  0  0  0  0  0
   -5.4933    0.4336   -1.3540 O   0  0  0  0  0  0  0  0  0  0  0  0
   -7.6485    1.7973   -1.5268 O   0  0  0  0  0  0  0  0  0  0  0  0
   -5.4573    2.9480   -1.4182 O   0  0  0  0  0  0  0  0  0  0  0  0
   -4.7404    1.6984   -3.9682 F   0  0  0  0  0  0  0  0  0  0  0  0
   -6.5914    0.5718   -4.2015 F   0  0  0  0  0  0  0  0  0  0  0  0
   -6.6397    2.7484   -4.1538 F   0  0  0  0  0  0  0  0  0  0  0  0
  1  2  1  0  0  0  0
  1 11  2  0  0  0  0
  2  3  1  0  0  0  0
  4  1  1  0  0  0  0
  5  4  2  0  0  0  0
  5  6  1  0  0  0  0
  6 10  2  0  0  0  0
  7  6  1  0  0  0  0
  7  9  2  0  0  0  0
  8  7  2  0  0  0  0
 10 14  1  0  0  0  0
 10 11  1  0  0  0  0
 11 15  1  0  0  0  0
 13  5  1  0  0  0  0
 16 19  2  0  0  0  0
 16 20  1  0  0  0  0
 16 18  2  0  0  0  0
 17 16  1  0  0  0  0
 20 12  1  0  0  0  0
 21 17  1  0  0  0  0
 22 17  1  0  0  0  0
 23 17  1  0  0  0  0
M  RAD  3   2   2   3   3   4   2
M  END
