Coordinates from ORCA-job 4-NO2PhN2+~TfO-_B3LYPG-6-31G_dp-CH-Scan-d09-49-n800
 OpenBabel11261919523D

 23 22  0  0  0  0  0  0  0  0999 V2000
   -1.7571   -0.6588   -0.0975 C   0  0  0  0  0  0  0  0  0  0  0  0
   -3.0343   -1.1820    0.1444 N   0  0  0  0  0  0  0  0  0  0  0  0
   -4.0702   -1.5534    0.3266 N   0  0  0  0  0  0  0  0  0  0  0  0
   -1.7694    0.6721   -0.5298 C   0  0  0  0  0  0  0  0  0  0  0  0
   -0.4373    1.1277   -0.7469 C   0  0  0  0  0  0  0  0  0  0  0  0
    0.6639    0.3107   -0.5373 C   0  0  0  0  0  0  0  0  0  0  0  0
    2.0270    0.8525   -0.7843 N   0  0  0  0  0  0  0  0  0  0  0  0
    2.1161    2.0139   -1.1694 O   0  0  0  0  0  0  0  0  0  0  0  0
    2.9788    0.0985   -0.5863 O   0  0  0  0  0  0  0  0  0  0  0  0
    0.5793   -1.0267   -0.0971 C   0  0  0  0  0  0  0  0  0  0  0  0
   -0.6730   -1.5463    0.1367 C   0  0  0  0  0  0  0  0  0  0  0  0
   -4.0924    2.1965   -0.9964 H   0  0  0  0  0  0  0  0  0  0  0  0
   -0.2517    2.1418   -1.0873 H   0  0  0  0  0  0  0  0  0  0  0  0
    1.4824   -1.6043    0.0459 H   0  0  0  0  0  0  0  0  0  0  0  0
   -0.8160   -2.5670    0.4782 H   0  0  0  0  0  0  0  0  0  0  0  0
   -5.9696    1.4837   -1.7622 S   0  0  0  0  0  0  0  0  0  0  0  0
   -5.6582    1.6795   -3.5901 C   0  0  0  0  0  0  0  0  0  0  0  0
   -5.4942    0.1535   -1.3964 O   0  0  0  0  0  0  0  0  0  0  0  0
   -7.3203    1.9341   -1.4982 O   0  0  0  0  0  0  0  0  0  0  0  0
   -4.9612    2.6049   -1.1936 O   0  0  0  0  0  0  0  0  0  0  0  0
   -4.3623    1.4827   -3.8389 F   0  0  0  0  0  0  0  0  0  0  0  0
   -6.3822    0.7701   -4.2409 F   0  0  0  0  0  0  0  0  0  0  0  0
   -6.0103    2.8997   -3.9818 F   0  0  0  0  0  0  0  0  0  0  0  0
  1 11  1  0  0  0  0
  1  2  1  0  0  0  0
  2  3  1  0  0  0  0
  4  1  2  0  0  0  0
  5  6  2  0  0  0  0
  5  4  1  0  0  0  0
  6 10  1  0  0  0  0
  7  9  2  0  0  0  0
  7  6  1  0  0  0  0
  8  7  2  0  0  0  0
 10 14  1  0  0  0  0
 10 11  2  0  0  0  0
 11 15  1  0  0  0  0
 13  5  1  0  0  0  0
 16 19  2  0  0  0  0
 16 18  2  0  0  0  0
 16 20  1  0  0  0  0
 17 16  1  0  0  0  0
 20 12  1  0  0  0  0
 21 17  1  0  0  0  0
 22 17  1  0  0  0  0
 23 17  1  0  0  0  0
M  RAD  3   2   2   3   3   4   2
M  END
