Coordinates from ORCA-job 4-NO2PhN2+~TfO-_B3LYPG-6-31G_dp-CH-Scan-d09-49-n800
 OpenBabel11261919523D

 23 22  0  0  0  0  0  0  0  0999 V2000
   -1.9046   -0.6582   -0.1075 C   0  0  0  0  0  0  0  0  0  0  0  0
   -3.1535   -1.2249    0.1643 N   0  0  0  0  0  0  0  0  0  0  0  0
   -4.1680   -1.6389    0.3676 N   0  0  0  0  0  0  0  0  0  0  0  0
   -1.9557    0.6572   -0.5880 C   0  0  0  0  0  0  0  0  0  0  0  0
   -0.6477    1.1545   -0.8320 C   0  0  0  0  0  0  0  0  0  0  0  0
    0.4837    0.3851   -0.6013 C   0  0  0  0  0  0  0  0  0  0  0  0
    1.8241    0.9680   -0.8774 N   0  0  0  0  0  0  0  0  0  0  0  0
    1.8659    2.1178   -1.3018 O   0  0  0  0  0  0  0  0  0  0  0  0
    2.8029    0.2556   -0.6610 O   0  0  0  0  0  0  0  0  0  0  0  0
    0.4483   -0.9361   -0.1142 C   0  0  0  0  0  0  0  0  0  0  0  0
   -0.7840   -1.4912    0.1473 C   0  0  0  0  0  0  0  0  0  0  0  0
   -3.7287    1.8045   -0.9435 H   0  0  0  0  0  0  0  0  0  0  0  0
   -0.5050    2.1617   -1.2095 H   0  0  0  0  0  0  0  0  0  0  0  0
    1.3716   -1.4773    0.0424 H   0  0  0  0  0  0  0  0  0  0  0  0
   -0.8872   -2.5037    0.5241 H   0  0  0  0  0  0  0  0  0  0  0  0
   -5.7216    1.4357   -1.6987 S   0  0  0  0  0  0  0  0  0  0  0  0
   -5.4377    1.6762   -3.5235 C   0  0  0  0  0  0  0  0  0  0  0  0
   -5.4491    0.0246   -1.4262 O   0  0  0  0  0  0  0  0  0  0  0  0
   -6.9967    2.0472   -1.3788 O   0  0  0  0  0  0  0  0  0  0  0  0
   -4.5573    2.3489   -1.1090 O   0  0  0  0  0  0  0  0  0  0  0  0
   -4.2002    1.2815   -3.8363 F   0  0  0  0  0  0  0  0  0  0  0  0
   -6.3215    0.9374   -4.1949 F   0  0  0  0  0  0  0  0  0  0  0  0
   -5.5900    2.9580   -3.8449 F   0  0  0  0  0  0  0  0  0  0  0  0
  1 11  1  0  0  0  0
  1  2  1  0  0  0  0
  2  3  1  0  0  0  0
  4  1  2  0  0  0  0
  5  6  2  0  0  0  0
  5  4  1  0  0  0  0
  6 10  1  0  0  0  0
  7  9  2  0  0  0  0
  7  6  1  0  0  0  0
  8  7  2  0  0  0  0
 10 14  1  0  0  0  0
 10 11  2  0  0  0  0
 11 15  1  0  0  0  0
 13  5  1  0  0  0  0
 16 18  2  0  0  0  0
 16 19  2  0  0  0  0
 16 20  1  0  0  0  0
 17 16  1  0  0  0  0
 20 12  1  0  0  0  0
 21 17  1  0  0  0  0
 22 17  1  0  0  0  0
 23 17  1  0  0  0  0
M  RAD  3   2   2   3   3   4   2
M  END
