Coordinates from ORCA-job 4-NO2PhN2+~TfO-_B3LYPG-6-31G_dp-CH-Scan-d09-49-n800
 OpenBabel11261919523D

 23 22  0  0  0  0  0  0  0  0999 V2000
   -1.5958   -0.6749   -0.1272 C   0  0  0  0  0  0  0  0  0  0  0  0
   -2.9022   -1.1611    0.0439 N   0  0  0  0  0  0  0  0  0  0  0  0
   -3.9613   -1.4916    0.1661 N   0  0  0  0  0  0  0  0  0  0  0  0
   -1.5629    0.6662   -0.5193 C   0  0  0  0  0  0  0  0  0  0  0  0
   -0.2082    1.0890   -0.6673 C   0  0  0  0  0  0  0  0  0  0  0  0
    0.8610    0.2356   -0.4389 C   0  0  0  0  0  0  0  0  0  0  0  0
    2.2474    0.7447   -0.6145 N   0  0  0  0  0  0  0  0  0  0  0  0
    2.3855    1.9146   -0.9581 O   0  0  0  0  0  0  0  0  0  0  0  0
    3.1702   -0.0401   -0.3978 O   0  0  0  0  0  0  0  0  0  0  0  0
    0.7236   -1.1123   -0.0424 C   0  0  0  0  0  0  0  0  0  0  0  0
   -0.5504   -1.6031    0.1253 C   0  0  0  0  0  0  0  0  0  0  0  0
   -4.3843    2.5695   -1.1603 H   0  0  0  0  0  0  0  0  0  0  0  0
    0.0204    2.1070   -0.9688 H   0  0  0  0  0  0  0  0  0  0  0  0
    1.6050   -1.7177    0.1193 H   0  0  0  0  0  0  0  0  0  0  0  0
   -0.7358   -2.6287    0.4309 H   0  0  0  0  0  0  0  0  0  0  0  0
   -6.1726    1.5719   -1.8063 S   0  0  0  0  0  0  0  0  0  0  0  0
   -5.9872    1.6718   -3.6600 C   0  0  0  0  0  0  0  0  0  0  0  0
   -5.4961    0.3548   -1.3754 O   0  0  0  0  0  0  0  0  0  0  0  0
   -7.5533    1.8666   -1.4868 O   0  0  0  0  0  0  0  0  0  0  0  0
   -5.2871    2.8614   -1.3847 O   0  0  0  0  0  0  0  0  0  0  0  0
   -4.6921    1.6201   -3.9733 F   0  0  0  0  0  0  0  0  0  0  0  0
   -6.6217    0.6333   -4.2005 F   0  0  0  0  0  0  0  0  0  0  0  0
   -6.5142    2.8064   -4.1068 F   0  0  0  0  0  0  0  0  0  0  0  0
  1  2  1  0  0  0  0
  1 11  2  0  0  0  0
  2  3  1  0  0  0  0
  4  1  1  0  0  0  0
  5  4  2  0  0  0  0
  5  6  1  0  0  0  0
  6 10  2  0  0  0  0
  7  6  1  0  0  0  0
  7  9  2  0  0  0  0
  8  7  2  0  0  0  0
 10 14  1  0  0  0  0
 10 11  1  0  0  0  0
 11 15  1  0  0  0  0
 13  5  1  0  0  0  0
 16 19  2  0  0  0  0
 16 20  1  0  0  0  0
 16 18  2  0  0  0  0
 17 16  1  0  0  0  0
 20 12  1  0  0  0  0
 21 17  1  0  0  0  0
 22 17  1  0  0  0  0
 23 17  1  0  0  0  0
M  RAD  3   2   2   3   3   4   2
M  END
