Coordinates from ORCA-job 4-NO2PhN2+~TfO-_B3LYPG-6-31G_dp-CH-Scan-d09-49-n800
 OpenBabel11261919533D

 23 22  0  0  0  0  0  0  0  0999 V2000
   -1.4806   -0.5940   -0.0135 C   0  0  0  0  0  0  0  0  0  0  0  0
   -2.8154   -0.9786    0.2129 N   0  0  0  0  0  0  0  0  0  0  0  0
   -3.8937   -1.2080    0.3898 N   0  0  0  0  0  0  0  0  0  0  0  0
   -1.3687    0.7642   -0.3121 C   0  0  0  0  0  0  0  0  0  0  0  0
    0.0053    1.0927   -0.5226 C   0  0  0  0  0  0  0  0  0  0  0  0
    1.0130    0.1444   -0.4315 C   0  0  0  0  0  0  0  0  0  0  0  0
    2.4224    0.5560   -0.6670 N   0  0  0  0  0  0  0  0  0  0  0  0
    2.6336    1.7304   -0.9541 O   0  0  0  0  0  0  0  0  0  0  0  0
    3.2915   -0.3089   -0.5584 O   0  0  0  0  0  0  0  0  0  0  0  0
    0.7919   -1.2158   -0.1204 C   0  0  0  0  0  0  0  0  0  0  0  0
   -0.5042   -1.6189    0.1021 C   0  0  0  0  0  0  0  0  0  0  0  0
   -5.0759    2.9953   -1.0795 H   0  0  0  0  0  0  0  0  0  0  0  0
    0.2968    2.1108   -0.7650 H   0  0  0  0  0  0  0  0  0  0  0  0
    1.6303   -1.8966   -0.0631 H   0  0  0  0  0  0  0  0  0  0  0  0
   -0.7533   -2.6470    0.3500 H   0  0  0  0  0  0  0  0  0  0  0  0
   -6.4003    1.5174   -1.9035 S   0  0  0  0  0  0  0  0  0  0  0  0
   -6.0007    1.6953   -3.7172 C   0  0  0  0  0  0  0  0  0  0  0  0
   -5.4630    0.5493   -1.3491 O   0  0  0  0  0  0  0  0  0  0  0  0
   -7.8370    1.3975   -1.7787 O   0  0  0  0  0  0  0  0  0  0  0  0
   -5.9943    3.0081   -1.4018 O   0  0  0  0  0  0  0  0  0  0  0  0
   -4.7161    2.0291   -3.8492 F   0  0  0  0  0  0  0  0  0  0  0  0
   -6.2255    0.5265   -4.3129 F   0  0  0  0  0  0  0  0  0  0  0  0
   -6.7684    2.6345   -4.2579 F   0  0  0  0  0  0  0  0  0  0  0  0
  1 11  1  0  0  0  0
  1  2  1  0  0  0  0
  2  3  1  0  0  0  0
  4  1  2  0  0  0  0
  5  6  2  0  0  0  0
  5  4  1  0  0  0  0
  6 10  1  0  0  0  0
  7  9  2  0  0  0  0
  7  6  1  0  0  0  0
  8  7  2  0  0  0  0
 10 14  1  0  0  0  0
 10 11  2  0  0  0  0
 11 15  1  0  0  0  0
 13  5  1  0  0  0  0
 16 19  2  0  0  0  0
 16 20  1  0  0  0  0
 16 18  2  0  0  0  0
 17 16  1  0  0  0  0
 20 12  1  0  0  0  0
 21 17  1  0  0  0  0
 22 17  1  0  0  0  0
 23 17  1  0  0  0  0
M  RAD  3   2   2   3   3   4   2
M  END
