Coordinates from ORCA-job 4-NO2PhN2+~TfO-_B3LYPG-6-31G_dp-CH-Scan-d09-49-n800
 OpenBabel11261919523D

 23 22  0  0  0  0  0  0  0  0999 V2000
   -1.6700   -0.6700   -0.1166 C   0  0  0  0  0  0  0  0  0  0  0  0
   -2.9624   -1.1769    0.0846 N   0  0  0  0  0  0  0  0  0  0  0  0
   -4.0106   -1.5302    0.2322 N   0  0  0  0  0  0  0  0  0  0  0  0
   -1.6596    0.6662   -0.5299 C   0  0  0  0  0  0  0  0  0  0  0  0
   -0.3153    1.1074   -0.7056 C   0  0  0  0  0  0  0  0  0  0  0  0
    0.7702    0.2739   -0.4803 C   0  0  0  0  0  0  0  0  0  0  0  0
    2.1457    0.8015   -0.6847 N   0  0  0  0  0  0  0  0  0  0  0  0
    2.2598    1.9673   -1.0500 O   0  0  0  0  0  0  0  0  0  0  0  0
    3.0833    0.0336   -0.4716 O   0  0  0  0  0  0  0  0  0  0  0  0
    0.6588   -1.0691   -0.0615 C   0  0  0  0  0  0  0  0  0  0  0  0
   -0.6049   -1.5764    0.1330 C   0  0  0  0  0  0  0  0  0  0  0  0
   -4.2216    2.3701   -1.0921 H   0  0  0  0  0  0  0  0  0  0  0  0
   -0.1076    2.1238   -1.0263 H   0  0  0  0  0  0  0  0  0  0  0  0
    1.5514   -1.6592    0.0960 H   0  0  0  0  0  0  0  0  0  0  0  0
   -0.7694   -2.5999    0.4567 H   0  0  0  0  0  0  0  0  0  0  0  0
   -6.0726    1.5305   -1.7860 S   0  0  0  0  0  0  0  0  0  0  0  0
   -5.8514    1.6788   -3.6319 C   0  0  0  0  0  0  0  0  0  0  0  0
   -5.5000    0.2490   -1.3912 O   0  0  0  0  0  0  0  0  0  0  0  0
   -7.4338    1.9150   -1.4771 O   0  0  0  0  0  0  0  0  0  0  0  0
   -5.1037    2.7317   -1.3056 O   0  0  0  0  0  0  0  0  0  0  0  0
   -4.5613    1.5252   -3.9333 F   0  0  0  0  0  0  0  0  0  0  0  0
   -6.5664    0.7206   -4.2188 F   0  0  0  0  0  0  0  0  0  0  0  0
   -6.2705    2.8709   -4.0427 F   0  0  0  0  0  0  0  0  0  0  0  0
  1  2  1  0  0  0  0
  1 11  2  0  0  0  0
  2  3  1  0  0  0  0
  4  1  1  0  0  0  0
  5  4  2  0  0  0  0
  5  6  1  0  0  0  0
  6 10  2  0  0  0  0
  7  6  1  0  0  0  0
  7  9  2  0  0  0  0
  8  7  2  0  0  0  0
 10 14  1  0  0  0  0
 10 11  1  0  0  0  0
 11 15  1  0  0  0  0
 13  5  1  0  0  0  0
 16 19  2  0  0  0  0
 16 18  2  0  0  0  0
 16 20  1  0  0  0  0
 17 16  1  0  0  0  0
 20 12  1  0  0  0  0
 21 17  1  0  0  0  0
 22 17  1  0  0  0  0
 23 17  1  0  0  0  0
M  RAD  3   2   2   3   3   4   2
M  END
