Coordinates from ORCA-job 4-NO2PhN2+~TfO-_B3LYPG-6-31G_dp-CH-Scan-d09-49-n800
 OpenBabel11261919533D

 23 22  0  0  0  0  0  0  0  0999 V2000
   -1.5841   -0.6732   -0.1246 C   0  0  0  0  0  0  0  0  0  0  0  0
   -2.8931   -1.1536    0.0453 N   0  0  0  0  0  0  0  0  0  0  0  0
   -3.9541   -1.4796    0.1643 N   0  0  0  0  0  0  0  0  0  0  0  0
   -1.5465    0.6693   -0.5106 C   0  0  0  0  0  0  0  0  0  0  0  0
   -0.1899    1.0869   -0.6575 C   0  0  0  0  0  0  0  0  0  0  0  0
    0.8758    0.2280   -0.4343 C   0  0  0  0  0  0  0  0  0  0  0  0
    2.2642    0.7318   -0.6086 N   0  0  0  0  0  0  0  0  0  0  0  0
    2.4073    1.9020   -0.9491 O   0  0  0  0  0  0  0  0  0  0  0  0
    3.1839   -0.0587   -0.3991 O   0  0  0  0  0  0  0  0  0  0  0  0
    0.7330   -1.1213   -0.0438 C   0  0  0  0  0  0  0  0  0  0  0  0
   -0.5429   -1.6075    0.1228 C   0  0  0  0  0  0  0  0  0  0  0  0
   -4.4285    2.6151   -1.1644 H   0  0  0  0  0  0  0  0  0  0  0  0
    0.0430    2.1054   -0.9543 H   0  0  0  0  0  0  0  0  0  0  0  0
    1.6120   -1.7312    0.1142 H   0  0  0  0  0  0  0  0  0  0  0  0
   -0.7325   -2.6336    0.4240 H   0  0  0  0  0  0  0  0  0  0  0  0
   -6.1933    1.5768   -1.8107 S   0  0  0  0  0  0  0  0  0  0  0  0
   -5.9990    1.6694   -3.6640 C   0  0  0  0  0  0  0  0  0  0  0  0
   -5.4941    0.3770   -1.3683 O   0  0  0  0  0  0  0  0  0  0  0  0
   -7.5813    1.8457   -1.5004 O   0  0  0  0  0  0  0  0  0  0  0  0
   -5.3363    2.8872   -1.3921 O   0  0  0  0  0  0  0  0  0  0  0  0
   -4.7008    1.6494   -3.9684 F   0  0  0  0  0  0  0  0  0  0  0  0
   -6.6026    0.6112   -4.2014 F   0  0  0  0  0  0  0  0  0  0  0  0
   -6.5522    2.7869   -4.1217 F   0  0  0  0  0  0  0  0  0  0  0  0
  1  2  1  0  0  0  0
  1 11  2  0  0  0  0
  2  3  1  0  0  0  0
  4  1  1  0  0  0  0
  5  4  2  0  0  0  0
  5  6  1  0  0  0  0
  6 10  2  0  0  0  0
  7  6  1  0  0  0  0
  7  9  2  0  0  0  0
  8  7  2  0  0  0  0
 10 14  1  0  0  0  0
 10 11  1  0  0  0  0
 11 15  1  0  0  0  0
 13  5  1  0  0  0  0
 16 19  2  0  0  0  0
 16 20  1  0  0  0  0
 16 18  2  0  0  0  0
 17 16  1  0  0  0  0
 20 12  1  0  0  0  0
 21 17  1  0  0  0  0
 22 17  1  0  0  0  0
 23 17  1  0  0  0  0
M  RAD  3   2   2   3   3   4   2
M  END
