Coordinates from ORCA-job 4-NO2PhN2+~TfO-_B3LYPG-6-31G_dp-CH-Scan-d09-49-n800
 OpenBabel11261919533D

 23 22  0  0  0  0  0  0  0  0999 V2000
   -1.4554   -0.5767    0.0025 C   0  0  0  0  0  0  0  0  0  0  0  0
   -2.7956   -0.9424    0.2301 N   0  0  0  0  0  0  0  0  0  0  0  0
   -3.8774   -1.1552    0.4074 N   0  0  0  0  0  0  0  0  0  0  0  0
   -1.3246    0.7842   -0.2741 C   0  0  0  0  0  0  0  0  0  0  0  0
    0.0528    1.0953   -0.4881 C   0  0  0  0  0  0  0  0  0  0  0  0
    1.0460    0.1299   -0.4209 C   0  0  0  0  0  0  0  0  0  0  0  0
    2.4599    0.5233   -0.6600 N   0  0  0  0  0  0  0  0  0  0  0  0
    2.6871    1.6981   -0.9333 O   0  0  0  0  0  0  0  0  0  0  0  0
    3.3167   -0.3557   -0.5675 O   0  0  0  0  0  0  0  0  0  0  0  0
    0.8058   -1.2318   -0.1308 C   0  0  0  0  0  0  0  0  0  0  0  0
   -0.4948   -1.6186    0.0946 C   0  0  0  0  0  0  0  0  0  0  0  0
   -5.1740    3.0384   -1.0882 H   0  0  0  0  0  0  0  0  0  0  0  0
    0.3585    2.1130   -0.7146 H   0  0  0  0  0  0  0  0  0  0  0  0
    1.6339   -1.9263   -0.0909 H   0  0  0  0  0  0  0  0  0  0  0  0
   -0.7581   -2.6466    0.3276 H   0  0  0  0  0  0  0  0  0  0  0  0
   -6.4344    1.5108   -1.9199 S   0  0  0  0  0  0  0  0  0  0  0  0
   -6.0340    1.6989   -3.7323 C   0  0  0  0  0  0  0  0  0  0  0  0
   -5.4619    0.5831   -1.3575 O   0  0  0  0  0  0  0  0  0  0  0  0
   -7.8659    1.3350   -1.8013 O   0  0  0  0  0  0  0  0  0  0  0  0
   -6.0883    3.0180   -1.4215 O   0  0  0  0  0  0  0  0  0  0  0  0
   -4.7618    2.0786   -3.8598 F   0  0  0  0  0  0  0  0  0  0  0  0
   -6.2139    0.5214   -4.3260 F   0  0  0  0  0  0  0  0  0  0  0  0
   -6.8328    2.6087   -4.2783 F   0  0  0  0  0  0  0  0  0  0  0  0
  1 11  1  0  0  0  0
  1  2  1  0  0  0  0
  2  3  1  0  0  0  0
  4  1  2  0  0  0  0
  5  6  2  0  0  0  0
  5  4  1  0  0  0  0
  6 10  1  0  0  0  0
  7  9  2  0  0  0  0
  7  6  1  0  0  0  0
  8  7  2  0  0  0  0
 10 14  1  0  0  0  0
 10 11  2  0  0  0  0
 11 15  1  0  0  0  0
 13  5  1  0  0  0  0
 16 19  2  0  0  0  0
 16 20  1  0  0  0  0
 16 18  2  0  0  0  0
 17 16  1  0  0  0  0
 20 12  1  0  0  0  0
 21 17  1  0  0  0  0
 22 17  1  0  0  0  0
 23 17  1  0  0  0  0
M  RAD  3   2   2   3   3   4   2
M  END
