Coordinates from ORCA-job 4-NO2PhN2+~TfO-_B3LYPG-6-31G_dp-CH-Scan-d09-49-n800
 OpenBabel11261919523D

 23 22  0  0  0  0  0  0  0  0999 V2000
   -2.0030   -0.6357   -0.0847 C   0  0  0  0  0  0  0  0  0  0  0  0
   -3.2371   -1.2116    0.2237 N   0  0  0  0  0  0  0  0  0  0  0  0
   -4.2411   -1.6353    0.4525 N   0  0  0  0  0  0  0  0  0  0  0  0
   -2.0626    0.6702   -0.5917 C   0  0  0  0  0  0  0  0  0  0  0  0
   -0.7702    1.1767   -0.8722 C   0  0  0  0  0  0  0  0  0  0  0  0
    0.3723    0.4213   -0.6470 C   0  0  0  0  0  0  0  0  0  0  0  0
    1.7014    1.0108   -0.9609 N   0  0  0  0  0  0  0  0  0  0  0  0
    1.7218    2.1510   -1.4107 O   0  0  0  0  0  0  0  0  0  0  0  0
    2.6897    0.3119   -0.7467 O   0  0  0  0  0  0  0  0  0  0  0  0
    0.3556   -0.8877   -0.1326 C   0  0  0  0  0  0  0  0  0  0  0  0
   -0.8677   -1.4477    0.1639 C   0  0  0  0  0  0  0  0  0  0  0  0
   -3.5087    1.5858   -0.8821 H   0  0  0  0  0  0  0  0  0  0  0  0
   -0.6495    2.1771   -1.2735 H   0  0  0  0  0  0  0  0  0  0  0  0
    1.2855   -1.4194    0.0180 H   0  0  0  0  0  0  0  0  0  0  0  0
   -0.9545   -2.4531    0.5623 H   0  0  0  0  0  0  0  0  0  0  0  0
   -5.5560    1.3691   -1.6772 S   0  0  0  0  0  0  0  0  0  0  0  0
   -5.2895    1.6975   -3.4884 C   0  0  0  0  0  0  0  0  0  0  0  0
   -5.3319   -0.0708   -1.5007 O   0  0  0  0  0  0  0  0  0  0  0  0
   -6.8268    1.9755   -1.3205 O   0  0  0  0  0  0  0  0  0  0  0  0
   -4.3694    2.1898   -1.0553 O   0  0  0  0  0  0  0  0  0  0  0  0
   -4.0629    1.2929   -3.8401 F   0  0  0  0  0  0  0  0  0  0  0  0
   -6.1946    1.0169   -4.1942 F   0  0  0  0  0  0  0  0  0  0  0  0
   -5.4132    2.9986   -3.7449 F   0  0  0  0  0  0  0  0  0  0  0  0
  1 11  1  0  0  0  0
  1  2  1  0  0  0  0
  2  3  1  0  0  0  0
  4  1  2  0  0  0  0
  5  6  2  0  0  0  0
  5  4  1  0  0  0  0
  6 10  1  0  0  0  0
  7  9  2  0  0  0  0
  7  6  1  0  0  0  0
  8  7  2  0  0  0  0
 10 14  1  0  0  0  0
 10 11  2  0  0  0  0
 11 15  1  0  0  0  0
 13  5  1  0  0  0  0
 16 18  2  0  0  0  0
 16 19  2  0  0  0  0
 16 20  1  0  0  0  0
 17 16  1  0  0  0  0
 20 12  1  0  0  0  0
 21 17  1  0  0  0  0
 22 17  1  0  0  0  0
 23 17  1  0  0  0  0
M  RAD  3   2   2   3   3   4   2
M  END
