Coordinates from ORCA-job 4-NO2PhN2+~TfO-_B3LYPG-6-31G_dp-CH-Scan-d09-49-n800
 OpenBabel11261919523D

 23 22  0  0  0  0  0  0  0  0999 V2000
   -1.7128   -0.6635   -0.1056 C   0  0  0  0  0  0  0  0  0  0  0  0
   -2.9980   -1.1777    0.1169 N   0  0  0  0  0  0  0  0  0  0  0  0
   -4.0402   -1.5391    0.2836 N   0  0  0  0  0  0  0  0  0  0  0  0
   -1.7134    0.6703   -0.5279 C   0  0  0  0  0  0  0  0  0  0  0  0
   -0.3748    1.1178   -0.7254 C   0  0  0  0  0  0  0  0  0  0  0  0
    0.7182    0.2918   -0.5090 C   0  0  0  0  0  0  0  0  0  0  0  0
    2.0879    0.8258   -0.7357 N   0  0  0  0  0  0  0  0  0  0  0  0
    2.1899    1.9893   -1.1114 O   0  0  0  0  0  0  0  0  0  0  0  0
    3.0323    0.0640   -0.5319 O   0  0  0  0  0  0  0  0  0  0  0  0
    0.6198   -1.0486   -0.0798 C   0  0  0  0  0  0  0  0  0  0  0  0
   -0.6386   -1.5614    0.1353 C   0  0  0  0  0  0  0  0  0  0  0  0
   -4.1619    2.2849   -1.0411 H   0  0  0  0  0  0  0  0  0  0  0  0
   -0.1777    2.1331   -1.0559 H   0  0  0  0  0  0  0  0  0  0  0  0
    1.5174   -1.6330    0.0695 H   0  0  0  0  0  0  0  0  0  0  0  0
   -0.7928   -2.5836    0.4676 H   0  0  0  0  0  0  0  0  0  0  0  0
   -6.0239    1.5052   -1.7752 S   0  0  0  0  0  0  0  0  0  0  0  0
   -5.7540    1.6802   -3.6121 C   0  0  0  0  0  0  0  0  0  0  0  0
   -5.4983    0.1991   -1.3938 O   0  0  0  0  0  0  0  0  0  0  0  0
   -7.3818    1.9203   -1.4919 O   0  0  0  0  0  0  0  0  0  0  0  0
   -5.0375    2.6687   -1.2474 O   0  0  0  0  0  0  0  0  0  0  0  0
   -4.4598    1.5068   -3.8846 F   0  0  0  0  0  0  0  0  0  0  0  0
   -6.4721    0.7462   -4.2337 F   0  0  0  0  0  0  0  0  0  0  0  0
   -6.1400    2.8869   -4.0130 F   0  0  0  0  0  0  0  0  0  0  0  0
  1  2  1  0  0  0  0
  1 11  2  0  0  0  0
  2  3  1  0  0  0  0
  4  1  1  0  0  0  0
  5  4  2  0  0  0  0
  5  6  1  0  0  0  0
  6 10  2  0  0  0  0
  7  9  2  0  0  0  0
  7  6  1  0  0  0  0
  8  7  2  0  0  0  0
 10 14  1  0  0  0  0
 10 11  1  0  0  0  0
 11 15  1  0  0  0  0
 13  5  1  0  0  0  0
 16 19  2  0  0  0  0
 16 18  2  0  0  0  0
 16 20  1  0  0  0  0
 17 16  1  0  0  0  0
 20 12  1  0  0  0  0
 21 17  1  0  0  0  0
 22 17  1  0  0  0  0
 23 17  1  0  0  0  0
M  RAD  3   2   2   3   3   4   2
M  END
