Coordinates from ORCA-job 4-NO2PhN2+~TfO-_B3LYPG-6-31G_dp-CH-Scan-d09-49-n800
 OpenBabel11261919523D

 23 22  0  0  0  0  0  0  0  0999 V2000
   -1.6689   -0.6700   -0.1177 C   0  0  0  0  0  0  0  0  0  0  0  0
   -2.9618   -1.1766    0.0814 N   0  0  0  0  0  0  0  0  0  0  0  0
   -4.0098   -1.5297    0.2290 N   0  0  0  0  0  0  0  0  0  0  0  0
   -1.6578    0.6663   -0.5301 C   0  0  0  0  0  0  0  0  0  0  0  0
   -0.3133    1.1073   -0.7046 C   0  0  0  0  0  0  0  0  0  0  0  0
    0.7718    0.2735   -0.4787 C   0  0  0  0  0  0  0  0  0  0  0  0
    2.1477    0.8010   -0.6818 N   0  0  0  0  0  0  0  0  0  0  0  0
    2.2622    1.9665   -1.0477 O   0  0  0  0  0  0  0  0  0  0  0  0
    3.0849    0.0325   -0.4695 O   0  0  0  0  0  0  0  0  0  0  0  0
    0.6599   -1.0697   -0.0606 C   0  0  0  0  0  0  0  0  0  0  0  0
   -0.6042   -1.5768    0.1325 C   0  0  0  0  0  0  0  0  0  0  0  0
   -4.2231    2.3735   -1.0948 H   0  0  0  0  0  0  0  0  0  0  0  0
   -0.1052    2.1238   -1.0247 H   0  0  0  0  0  0  0  0  0  0  0  0
    1.5521   -1.6600    0.0973 H   0  0  0  0  0  0  0  0  0  0  0  0
   -0.7693   -2.6004    0.4553 H   0  0  0  0  0  0  0  0  0  0  0  0
   -6.0733    1.5314   -1.7858 S   0  0  0  0  0  0  0  0  0  0  0  0
   -5.8549    1.6780   -3.6322 C   0  0  0  0  0  0  0  0  0  0  0  0
   -5.4991    0.2505   -1.3905 O   0  0  0  0  0  0  0  0  0  0  0  0
   -7.4343    1.9152   -1.4753 O   0  0  0  0  0  0  0  0  0  0  0  0
   -5.1049    2.7343   -1.3084 O   0  0  0  0  0  0  0  0  0  0  0  0
   -4.5653    1.5245   -3.9355 F   0  0  0  0  0  0  0  0  0  0  0  0
   -6.5706    0.7190   -4.2170 F   0  0  0  0  0  0  0  0  0  0  0  0
   -6.2751    2.8696   -4.0435 F   0  0  0  0  0  0  0  0  0  0  0  0
  1  2  1  0  0  0  0
  1 11  2  0  0  0  0
  2  3  1  0  0  0  0
  4  1  1  0  0  0  0
  5  4  2  0  0  0  0
  5  6  1  0  0  0  0
  6 10  2  0  0  0  0
  7  6  1  0  0  0  0
  7  9  2  0  0  0  0
  8  7  2  0  0  0  0
 10 14  1  0  0  0  0
 10 11  1  0  0  0  0
 11 15  1  0  0  0  0
 13  5  1  0  0  0  0
 16 19  2  0  0  0  0
 16 18  2  0  0  0  0
 16 20  1  0  0  0  0
 17 16  1  0  0  0  0
 20 12  1  0  0  0  0
 21 17  1  0  0  0  0
 22 17  1  0  0  0  0
 23 17  1  0  0  0  0
M  RAD  3   2   2   3   3   4   2
M  END
