Coordinates from ORCA-job 4-NO2PhN2+~TfO-_B3LYPG-6-31G_dp-CH-Scan-d09-49-n800
 OpenBabel11261919523D

 23 22  0  0  0  0  0  0  0  0999 V2000
   -2.1613   -0.2491    0.0815 C   0  0  0  0  0  0  0  0  0  0  0  0
   -3.4316   -0.5466    0.5719 N   0  0  0  0  0  0  0  0  0  0  0  0
   -4.5495   -0.4537    0.7014 N   0  0  0  0  0  0  0  0  0  0  0  0
   -2.0085    0.9073   -0.6972 C   0  0  0  0  0  0  0  0  0  0  0  0
   -0.7338    1.1929   -1.1717 C   0  0  0  0  0  0  0  0  0  0  0  0
    0.3129    0.3273   -0.8585 C   0  0  0  0  0  0  0  0  0  0  0  0
    1.6698    0.6441   -1.3704 N   0  0  0  0  0  0  0  0  0  0  0  0
    1.7898    1.6633   -2.0405 O   0  0  0  0  0  0  0  0  0  0  0  0
    2.5710   -0.1370   -1.0810 O   0  0  0  0  0  0  0  0  0  0  0  0
    0.1532   -0.8224   -0.0849 C   0  0  0  0  0  0  0  0  0  0  0  0
   -1.1122   -1.1198    0.4029 C   0  0  0  0  0  0  0  0  0  0  0  0
   -2.8836    1.5461   -0.9156 H   0  0  0  0  0  0  0  0  0  0  0  0
   -0.5456    2.0665   -1.7830 H   0  0  0  0  0  0  0  0  0  0  0  0
    1.0080   -1.4535    0.1203 H   0  0  0  0  0  0  0  0  0  0  0  0
   -1.2935   -2.0012    1.0073 H   0  0  0  0  0  0  0  0  0  0  0  0
   -5.4626    0.5603   -1.9328 S   0  0  0  0  0  0  0  0  0  0  0  0
   -5.0948    2.0236   -3.0269 C   0  0  0  0  0  0  0  0  0  0  0  0
   -4.4077   -0.4255   -2.2519 O   0  0  0  0  0  0  0  0  0  0  0  0
   -6.8527    0.2084   -2.2154 O   0  0  0  0  0  0  0  0  0  0  0  0
   -5.2198    1.1822   -0.5586 O   0  0  0  0  0  0  0  0  0  0  0  0
   -3.8363    2.4731   -2.7990 F   0  0  0  0  0  0  0  0  0  0  0  0
   -5.1808    1.6723   -4.3118 F   0  0  0  0  0  0  0  0  0  0  0  0
   -5.9428    3.0251   -2.7889 F   0  0  0  0  0  0  0  0  0  0  0  0
  1 11  1  0  0  0  0
  1  2  1  0  0  0  0
  2  3  1  0  0  0  0
  4  1  2  0  0  0  0
  5  6  2  0  0  0  0
  5  4  1  0  0  0  0
  6 10  1  0  0  0  0
  7  9  2  0  0  0  0
  7  6  1  0  0  0  0
  8  7  2  0  0  0  0
 10 14  1  0  0  0  0
 10 11  2  0  0  0  0
 11 15  1  0  0  0  0
 12  4  1  0  0  0  0
 13  5  1  0  0  0  0
 16 20  1  0  0  0  0
 17 21  1  0  0  0  0
 17 23  1  0  0  0  0
 17 16  1  0  0  0  0
 18 16  2  0  0  0  0
 19 16  2  0  0  0  0
 22 17  1  0  0  0  0
M  RAD  3   2   2   3   3  20   2
M  END
