Coordinates from ORCA-job 4-NO2PhN2+~TfO-_B3LYPG-6-31G_dp-CH-Scan-d09-49-n800
 OpenBabel11261919523D

 23 22  0  0  0  0  0  0  0  0999 V2000
   -2.0248   -0.6232   -0.0796 C   0  0  0  0  0  0  0  0  0  0  0  0
   -3.2589   -1.1946    0.2335 N   0  0  0  0  0  0  0  0  0  0  0  0
   -4.2632   -1.6161    0.4636 N   0  0  0  0  0  0  0  0  0  0  0  0
   -2.0741    0.6788   -0.5974 C   0  0  0  0  0  0  0  0  0  0  0  0
   -0.7847    1.1832   -0.8825 C   0  0  0  0  0  0  0  0  0  0  0  0
    0.3562    0.4268   -0.6501 C   0  0  0  0  0  0  0  0  0  0  0  0
    1.6864    1.0115   -0.9679 N   0  0  0  0  0  0  0  0  0  0  0  0
    1.7082    2.1487   -1.4248 O   0  0  0  0  0  0  0  0  0  0  0  0
    2.6727    0.3120   -0.7478 O   0  0  0  0  0  0  0  0  0  0  0  0
    0.3352   -0.8770   -0.1255 C   0  0  0  0  0  0  0  0  0  0  0  0
   -0.8900   -1.4324    0.1750 C   0  0  0  0  0  0  0  0  0  0  0  0
   -3.4221    1.5242   -0.8793 H   0  0  0  0  0  0  0  0  0  0  0  0
   -0.6652    2.1802   -1.2923 H   0  0  0  0  0  0  0  0  0  0  0  0
    1.2635   -1.4102    0.0300 H   0  0  0  0  0  0  0  0  0  0  0  0
   -0.9786   -2.4344    0.5810 H   0  0  0  0  0  0  0  0  0  0  0  0
   -5.5070    1.3433   -1.6773 S   0  0  0  0  0  0  0  0  0  0  0  0
   -5.2900    1.7128   -3.4862 C   0  0  0  0  0  0  0  0  0  0  0  0
   -5.2680   -0.1020   -1.5452 O   0  0  0  0  0  0  0  0  0  0  0  0
   -6.7847    1.9147   -1.2831 O   0  0  0  0  0  0  0  0  0  0  0  0
   -4.3189    2.1503   -1.0675 O   0  0  0  0  0  0  0  0  0  0  0  0
   -4.0687    1.3271   -3.8790 F   0  0  0  0  0  0  0  0  0  0  0  0
   -6.2059    1.0413   -4.1877 F   0  0  0  0  0  0  0  0  0  0  0  0
   -5.4295    3.0188   -3.7125 F   0  0  0  0  0  0  0  0  0  0  0  0
  1 11  1  0  0  0  0
  1  2  1  0  0  0  0
  2  3  1  0  0  0  0
  4  1  2  0  0  0  0
  5  6  2  0  0  0  0
  5  4  1  0  0  0  0
  6 10  1  0  0  0  0
  7  9  2  0  0  0  0
  7  6  1  0  0  0  0
  8  7  2  0  0  0  0
 10 14  1  0  0  0  0
 10 11  2  0  0  0  0
 11 15  1  0  0  0  0
 13  5  1  0  0  0  0
 16 18  2  0  0  0  0
 16 19  2  0  0  0  0
 16 20  1  0  0  0  0
 17 16  1  0  0  0  0
 20 12  1  0  0  0  0
 21 17  1  0  0  0  0
 22 17  1  0  0  0  0
 23 17  1  0  0  0  0
M  RAD  3   2   2   3   3   4   2
M  END
