Coordinates from ORCA-job 4-NO2PhN2+~TfO-_B3LYPG-6-31G_dp-CH-Scan-d09-49-n800
 OpenBabel11261919533D

 23 22  0  0  0  0  0  0  0  0999 V2000
   -1.5379   -0.6127   -0.0229 C   0  0  0  0  0  0  0  0  0  0  0  0
   -2.8614   -1.0250    0.2161 N   0  0  0  0  0  0  0  0  0  0  0  0
   -3.9322   -1.2816    0.4008 N   0  0  0  0  0  0  0  0  0  0  0  0
   -1.4565    0.7415   -0.3507 C   0  0  0  0  0  0  0  0  0  0  0  0
   -0.0906    1.0954   -0.5718 C   0  0  0  0  0  0  0  0  0  0  0  0
    0.9385    0.1724   -0.4625 C   0  0  0  0  0  0  0  0  0  0  0  0
    2.3379    0.6106   -0.7100 N   0  0  0  0  0  0  0  0  0  0  0  0
    2.5221    1.7839   -1.0192 O   0  0  0  0  0  0  0  0  0  0  0  0
    3.2260   -0.2330   -0.5884 O   0  0  0  0  0  0  0  0  0  0  0  0
    0.7486   -1.1853   -0.1223 C   0  0  0  0  0  0  0  0  0  0  0  0
   -0.5377   -1.6123    0.1117 C   0  0  0  0  0  0  0  0  0  0  0  0
   -4.9213    2.9085   -1.0378 H   0  0  0  0  0  0  0  0  0  0  0  0
    0.1777    2.1141   -0.8372 H   0  0  0  0  0  0  0  0  0  0  0  0
    1.6021   -1.8460   -0.0524 H   0  0  0  0  0  0  0  0  0  0  0  0
   -0.7632   -2.6402    0.3816 H   0  0  0  0  0  0  0  0  0  0  0  0
   -6.3253    1.5150   -1.8781 S   0  0  0  0  0  0  0  0  0  0  0  0
   -5.8975    1.6854   -3.6862 C   0  0  0  0  0  0  0  0  0  0  0  0
   -5.4529    0.4868   -1.3260 O   0  0  0  0  0  0  0  0  0  0  0  0
   -7.7678    1.4785   -1.7677 O   0  0  0  0  0  0  0  0  0  0  0  0
   -5.8389    2.9736   -1.3564 O   0  0  0  0  0  0  0  0  0  0  0  0
   -4.5973    1.9590   -3.8020 F   0  0  0  0  0  0  0  0  0  0  0  0
   -6.1703    0.5320   -4.2921 F   0  0  0  0  0  0  0  0  0  0  0  0
   -6.6142    2.6628   -4.2290 F   0  0  0  0  0  0  0  0  0  0  0  0
  1 11  1  0  0  0  0
  1  2  1  0  0  0  0
  2  3  1  0  0  0  0
  4  1  2  0  0  0  0
  5  6  2  0  0  0  0
  5  4  1  0  0  0  0
  6 10  1  0  0  0  0
  7  9  2  0  0  0  0
  7  6  1  0  0  0  0
  8  7  2  0  0  0  0
 10 14  1  0  0  0  0
 10 11  2  0  0  0  0
 11 15  1  0  0  0  0
 13  5  1  0  0  0  0
 16 19  2  0  0  0  0
 16 20  1  0  0  0  0
 16 18  2  0  0  0  0
 17 16  1  0  0  0  0
 20 12  1  0  0  0  0
 21 17  1  0  0  0  0
 22 17  1  0  0  0  0
 23 17  1  0  0  0  0
M  RAD  3   2   2   3   3   4   2
M  END
