Coordinates from ORCA-job 4-NO2PhN2+~TfO-_B3LYPG-6-31G_dp-CH-Scan-d09-49-n800
 OpenBabel11261919523D

 23 22  0  0  0  0  0  0  0  0999 V2000
   -1.8237   -0.6592   -0.1032 C   0  0  0  0  0  0  0  0  0  0  0  0
   -3.0877   -1.2041    0.1516 N   0  0  0  0  0  0  0  0  0  0  0  0
   -4.1141   -1.5940    0.3460 N   0  0  0  0  0  0  0  0  0  0  0  0
   -1.8551    0.6653   -0.5566 C   0  0  0  0  0  0  0  0  0  0  0  0
   -0.5336    1.1408   -0.7854 C   0  0  0  0  0  0  0  0  0  0  0  0
    0.5821    0.3460   -0.5661 C   0  0  0  0  0  0  0  0  0  0  0  0
    1.9348    0.9079   -0.8254 N   0  0  0  0  0  0  0  0  0  0  0  0
    2.0014    2.0629   -1.2328 O   0  0  0  0  0  0  0  0  0  0  0  0
    2.8992    0.1709   -0.6258 O   0  0  0  0  0  0  0  0  0  0  0  0
    0.5208   -0.9850   -0.1053 C   0  0  0  0  0  0  0  0  0  0  0  0
   -0.7221   -1.5219    0.1404 C   0  0  0  0  0  0  0  0  0  0  0  0
   -3.9303    2.0193   -0.9695 H   0  0  0  0  0  0  0  0  0  0  0  0
   -0.3677    2.1523   -1.1421 H   0  0  0  0  0  0  0  0  0  0  0  0
    1.4336   -1.5456    0.0436 H   0  0  0  0  0  0  0  0  0  0  0  0
   -0.8463   -2.5396    0.4972 H   0  0  0  0  0  0  0  0  0  0  0  0
   -5.8638    1.4634   -1.7334 S   0  0  0  0  0  0  0  0  0  0  0  0
   -5.5534    1.6749   -3.5589 C   0  0  0  0  0  0  0  0  0  0  0  0
   -5.4862    0.0913   -1.4054 O   0  0  0  0  0  0  0  0  0  0  0  0
   -7.1808    1.9973   -1.4519 O   0  0  0  0  0  0  0  0  0  0  0  0
   -4.7788    2.4910   -1.1477 O   0  0  0  0  0  0  0  0  0  0  0  0
   -4.2812    1.3726   -3.8275 F   0  0  0  0  0  0  0  0  0  0  0  0
   -6.3585    0.8471   -4.2242 F   0  0  0  0  0  0  0  0  0  0  0  0
   -5.8010    2.9299   -3.9206 F   0  0  0  0  0  0  0  0  0  0  0  0
  1 11  1  0  0  0  0
  1  2  1  0  0  0  0
  2  3  1  0  0  0  0
  4  1  2  0  0  0  0
  5  6  2  0  0  0  0
  5  4  1  0  0  0  0
  6 10  1  0  0  0  0
  7  9  2  0  0  0  0
  7  6  1  0  0  0  0
  8  7  2  0  0  0  0
 10 14  1  0  0  0  0
 10 11  2  0  0  0  0
 11 15  1  0  0  0  0
 13  5  1  0  0  0  0
 16 19  2  0  0  0  0
 16 18  2  0  0  0  0
 16 20  1  0  0  0  0
 17 16  1  0  0  0  0
 20 12  1  0  0  0  0
 21 17  1  0  0  0  0
 22 17  1  0  0  0  0
 23 17  1  0  0  0  0
M  RAD  3   2   2   3   3   4   2
M  END
