Coordinates from ORCA-job 4-NO2PhN2+~TfO-_B3LYPG-6-31G_dp-CH-Scan-d09-49-n800
 OpenBabel11261919523D

 23 22  0  0  0  0  0  0  0  0999 V2000
   -2.0376   -0.6045   -0.0779 C   0  0  0  0  0  0  0  0  0  0  0  0
   -3.2780   -1.1621    0.2305 N   0  0  0  0  0  0  0  0  0  0  0  0
   -4.2891   -1.5715    0.4502 N   0  0  0  0  0  0  0  0  0  0  0  0
   -2.0616    0.6917   -0.6110 C   0  0  0  0  0  0  0  0  0  0  0  0
   -0.7732    1.1890   -0.8931 C   0  0  0  0  0  0  0  0  0  0  0  0
    0.3599    0.4262   -0.6417 C   0  0  0  0  0  0  0  0  0  0  0  0
    1.6968    0.9982   -0.9545 N   0  0  0  0  0  0  0  0  0  0  0  0
    1.7289    2.1302   -1.4229 O   0  0  0  0  0  0  0  0  0  0  0  0
    2.6753    0.2931   -0.7201 O   0  0  0  0  0  0  0  0  0  0  0  0
    0.3232   -0.8701   -0.1030 C   0  0  0  0  0  0  0  0  0  0  0  0
   -0.9092   -1.4141    0.1939 C   0  0  0  0  0  0  0  0  0  0  0  0
   -3.3106    1.4664   -0.8889 H   0  0  0  0  0  0  0  0  0  0  0  0
   -0.6484    2.1806   -1.3137 H   0  0  0  0  0  0  0  0  0  0  0  0
    1.2457   -1.4090    0.0665 H   0  0  0  0  0  0  0  0  0  0  0  0
   -1.0076   -2.4110    0.6097 H   0  0  0  0  0  0  0  0  0  0  0  0
   -5.4602    1.3110   -1.6860 S   0  0  0  0  0  0  0  0  0  0  0  0
   -5.3399    1.7369   -3.4904 C   0  0  0  0  0  0  0  0  0  0  0  0
   -5.1770   -0.1355   -1.6176 O   0  0  0  0  0  0  0  0  0  0  0  0
   -6.7494    1.8097   -1.2276 O   0  0  0  0  0  0  0  0  0  0  0  0
   -4.2785    2.1219   -1.1056 O   0  0  0  0  0  0  0  0  0  0  0  0
   -4.1277    1.4003   -3.9538 F   0  0  0  0  0  0  0  0  0  0  0  0
   -6.2675    1.0607   -4.1734 F   0  0  0  0  0  0  0  0  0  0  0  0
   -5.5265    3.0453   -3.6725 F   0  0  0  0  0  0  0  0  0  0  0  0
  1 11  1  0  0  0  0
  1  2  1  0  0  0  0
  2  3  1  0  0  0  0
  4  1  2  0  0  0  0
  5  6  2  0  0  0  0
  5  4  1  0  0  0  0
  6 10  1  0  0  0  0
  7  9  2  0  0  0  0
  7  6  1  0  0  0  0
  8  7  2  0  0  0  0
 10 14  1  0  0  0  0
 10 11  2  0  0  0  0
 11 15  1  0  0  0  0
 13  5  1  0  0  0  0
 16 18  2  0  0  0  0
 16 19  2  0  0  0  0
 16 20  1  0  0  0  0
 17 16  1  0  0  0  0
 20 12  1  0  0  0  0
 21 17  1  0  0  0  0
 22 17  1  0  0  0  0
 23 17  1  0  0  0  0
M  RAD  3   2   2   3   3   4   2
M  END
