Coordinates from ORCA-job 4-NO2PhN2+~TfO-_B3LYPG-6-31G_dp-CH-Scan-d09-49-n800
 OpenBabel11261919523D

 23 22  0  0  0  0  0  0  0  0999 V2000
   -2.0170   -0.5926   -0.1086 C   0  0  0  0  0  0  0  0  0  0  0  0
   -3.2774   -1.1271    0.1519 N   0  0  0  0  0  0  0  0  0  0  0  0
   -4.3203   -1.4873    0.2991 N   0  0  0  0  0  0  0  0  0  0  0  0
   -1.9885    0.6917   -0.6676 C   0  0  0  0  0  0  0  0  0  0  0  0
   -0.6960    1.1827   -0.9085 C   0  0  0  0  0  0  0  0  0  0  0  0
    0.4182    0.4138   -0.5931 C   0  0  0  0  0  0  0  0  0  0  0  0
    1.7716    0.9696   -0.8597 N   0  0  0  0  0  0  0  0  0  0  0  0
    1.8308    2.0926   -1.3460 O   0  0  0  0  0  0  0  0  0  0  0  0
    2.7322    0.2605   -0.5721 O   0  0  0  0  0  0  0  0  0  0  0  0
    0.3440   -0.8688   -0.0315 C   0  0  0  0  0  0  0  0  0  0  0  0
   -0.9062   -1.3977    0.2249 C   0  0  0  0  0  0  0  0  0  0  0  0
   -3.1318    1.4048   -0.9682 H   0  0  0  0  0  0  0  0  0  0  0  0
   -0.5526    2.1653   -1.3427 H   0  0  0  0  0  0  0  0  0  0  0  0
    1.2530   -1.4127    0.1879 H   0  0  0  0  0  0  0  0  0  0  0  0
   -1.0298   -2.3851    0.6557 H   0  0  0  0  0  0  0  0  0  0  0  0
   -5.4231    1.3040   -1.7069 S   0  0  0  0  0  0  0  0  0  0  0  0
   -5.5343    1.7606   -3.5035 C   0  0  0  0  0  0  0  0  0  0  0  0
   -5.0953   -0.1431   -1.7189 O   0  0  0  0  0  0  0  0  0  0  0  0
   -6.6873    1.7161   -1.1044 O   0  0  0  0  0  0  0  0  0  0  0  0
   -4.2240    2.1272   -1.2440 O   0  0  0  0  0  0  0  0  0  0  0  0
   -4.3814    1.4677   -4.1240 F   0  0  0  0  0  0  0  0  0  0  0  0
   -6.5221    1.0734   -4.0857 F   0  0  0  0  0  0  0  0  0  0  0  0
   -5.7746    3.0678   -3.6369 F   0  0  0  0  0  0  0  0  0  0  0  0
  1  2  1  0  0  0  0
  1 11  2  0  0  0  0
  2  3  1  0  0  0  0
  4  1  1  0  0  0  0
  5  4  2  0  0  0  0
  5  6  1  0  0  0  0
  6 10  2  0  0  0  0
  7  6  1  0  0  0  0
  7  9  2  0  0  0  0
  8  7  2  0  0  0  0
 10 14  1  0  0  0  0
 10 11  1  0  0  0  0
 11 15  1  0  0  0  0
 13  5  1  0  0  0  0
 16 20  1  0  0  0  0
 16 19  2  0  0  0  0
 17 16  1  0  0  0  0
 18 16  2  0  0  0  0
 20 12  1  0  0  0  0
 21 17  1  0  0  0  0
 22 17  1  0  0  0  0
 23 17  1  0  0  0  0
M  RAD  3   2   2   3   3   4   2
M  END
