Coordinates from ORCA-job 4-NO2PhN2+~TfO-_B3LYPG-6-31G_dp-CH-Scan-d09-49-n800
 OpenBabel11261919533D

 23 22  0  0  0  0  0  0  0  0999 V2000
   -1.4766   -0.5920   -0.0111 C   0  0  0  0  0  0  0  0  0  0  0  0
   -2.8122   -0.9736    0.2158 N   0  0  0  0  0  0  0  0  0  0  0  0
   -3.8913   -1.2009    0.3913 N   0  0  0  0  0  0  0  0  0  0  0  0
   -1.3624    0.7665   -0.3075 C   0  0  0  0  0  0  0  0  0  0  0  0
    0.0119    1.0925   -0.5191 C   0  0  0  0  0  0  0  0  0  0  0  0
    1.0178    0.1420   -0.4309 C   0  0  0  0  0  0  0  0  0  0  0  0
    2.4277    0.5510   -0.6675 N   0  0  0  0  0  0  0  0  0  0  0  0
    2.6413    1.7263   -0.9495 O   0  0  0  0  0  0  0  0  0  0  0  0
    3.2957   -0.3147   -0.5567 O   0  0  0  0  0  0  0  0  0  0  0  0
    0.7943   -1.2183   -0.1217 C   0  0  0  0  0  0  0  0  0  0  0  0
   -0.5023   -1.6192    0.1017 C   0  0  0  0  0  0  0  0  0  0  0  0
   -5.0900    3.0013   -1.0804 H   0  0  0  0  0  0  0  0  0  0  0  0
    0.3052    2.1104   -0.7602 H   0  0  0  0  0  0  0  0  0  0  0  0
    1.6314   -1.9009   -0.0666 H   0  0  0  0  0  0  0  0  0  0  0  0
   -0.7532   -2.6471    0.3482 H   0  0  0  0  0  0  0  0  0  0  0  0
   -6.4055    1.5167   -1.9059 S   0  0  0  0  0  0  0  0  0  0  0  0
   -6.0060    1.6963   -3.7194 C   0  0  0  0  0  0  0  0  0  0  0  0
   -5.4629    0.5545   -1.3505 O   0  0  0  0  0  0  0  0  0  0  0  0
   -7.8416    1.3885   -1.7819 O   0  0  0  0  0  0  0  0  0  0  0  0
   -6.0079    3.0097   -1.4044 O   0  0  0  0  0  0  0  0  0  0  0  0
   -4.7230    2.0363   -3.8509 F   0  0  0  0  0  0  0  0  0  0  0  0
   -6.2249    0.5264   -4.3151 F   0  0  0  0  0  0  0  0  0  0  0  0
   -6.7780    2.6318   -4.2605 F   0  0  0  0  0  0  0  0  0  0  0  0
  1 11  1  0  0  0  0
  1  2  1  0  0  0  0
  2  3  1  0  0  0  0
  4  1  2  0  0  0  0
  5  6  2  0  0  0  0
  5  4  1  0  0  0  0
  6 10  1  0  0  0  0
  7  9  2  0  0  0  0
  7  6  1  0  0  0  0
  8  7  2  0  0  0  0
 10 14  1  0  0  0  0
 10 11  2  0  0  0  0
 11 15  1  0  0  0  0
 13  5  1  0  0  0  0
 16 19  2  0  0  0  0
 16 20  1  0  0  0  0
 16 18  2  0  0  0  0
 17 16  1  0  0  0  0
 20 12  1  0  0  0  0
 21 17  1  0  0  0  0
 22 17  1  0  0  0  0
 23 17  1  0  0  0  0
M  RAD  3   2   2   3   3   4   2
M  END
