Coordinates from ORCA-job 4-NO2PhN2+~TfO-_B3LYPG-6-31G_dp-CH-Scan-d09-49-n800
 OpenBabel11261919533D

 23 22  0  0  0  0  0  0  0  0999 V2000
   -1.5658   -0.6191   -0.0228 C   0  0  0  0  0  0  0  0  0  0  0  0
   -2.8841   -1.0424    0.2241 N   0  0  0  0  0  0  0  0  0  0  0  0
   -3.9515   -1.3095    0.4129 N   0  0  0  0  0  0  0  0  0  0  0  0
   -1.4978    0.7341   -0.3591 C   0  0  0  0  0  0  0  0  0  0  0  0
   -0.1363    1.0987   -0.5884 C   0  0  0  0  0  0  0  0  0  0  0  0
    0.9018    0.1858   -0.4778 C   0  0  0  0  0  0  0  0  0  0  0  0
    2.2960    0.6352   -0.7341 N   0  0  0  0  0  0  0  0  0  0  0  0
    2.4681    1.8084   -1.0509 O   0  0  0  0  0  0  0  0  0  0  0  0
    3.1921   -0.1996   -0.6119 O   0  0  0  0  0  0  0  0  0  0  0  0
    0.7257   -1.1714   -0.1285 C   0  0  0  0  0  0  0  0  0  0  0  0
   -0.5558   -1.6085    0.1135 C   0  0  0  0  0  0  0  0  0  0  0  0
   -4.8525    2.8665   -1.0158 H   0  0  0  0  0  0  0  0  0  0  0  0
    0.1218    2.1181   -0.8614 H   0  0  0  0  0  0  0  0  0  0  0  0
    1.5853   -1.8239   -0.0582 H   0  0  0  0  0  0  0  0  0  0  0  0
   -0.7707   -2.6367    0.3906 H   0  0  0  0  0  0  0  0  0  0  0  0
   -6.2875    1.5124   -1.8672 S   0  0  0  0  0  0  0  0  0  0  0  0
   -5.8445    1.6784   -3.6722 C   0  0  0  0  0  0  0  0  0  0  0  0
   -5.4450    0.4602   -1.3144 O   0  0  0  0  0  0  0  0  0  0  0  0
   -7.7311    1.5120   -1.7659 O   0  0  0  0  0  0  0  0  0  0  0  0
   -5.7675    2.9556   -1.3362 O   0  0  0  0  0  0  0  0  0  0  0  0
   -4.5380    1.9244   -3.7790 F   0  0  0  0  0  0  0  0  0  0  0  0
   -6.1380    0.5326   -4.2829 F   0  0  0  0  0  0  0  0  0  0  0  0
   -6.5366    2.6723   -4.2171 F   0  0  0  0  0  0  0  0  0  0  0  0
  1 11  1  0  0  0  0
  1  2  1  0  0  0  0
  2  3  1  0  0  0  0
  4  1  2  0  0  0  0
  5  6  2  0  0  0  0
  5  4  1  0  0  0  0
  6 10  1  0  0  0  0
  7  9  2  0  0  0  0
  7  6  1  0  0  0  0
  8  7  2  0  0  0  0
 10 14  1  0  0  0  0
 10 11  2  0  0  0  0
 11 15  1  0  0  0  0
 13  5  1  0  0  0  0
 16 19  2  0  0  0  0
 16 20  1  0  0  0  0
 16 18  2  0  0  0  0
 17 16  1  0  0  0  0
 20 12  1  0  0  0  0
 21 17  1  0  0  0  0
 22 17  1  0  0  0  0
 23 17  1  0  0  0  0
M  RAD  3   2   2   3   3   4   2
M  END
