Coordinates from ORCA-job 4-NO2PhN2+~TfO-_B3LYPG-6-31G_dp-CH-Scan-d09-49-n800
 OpenBabel11261919523D

 23 22  0  0  0  0  0  0  0  0999 V2000
   -1.8371   -0.6599   -0.1058 C   0  0  0  0  0  0  0  0  0  0  0  0
   -3.0983   -1.2092    0.1512 N   0  0  0  0  0  0  0  0  0  0  0  0
   -4.1214   -1.6103    0.3393 N   0  0  0  0  0  0  0  0  0  0  0  0
   -1.8721    0.6616   -0.5680 C   0  0  0  0  0  0  0  0  0  0  0  0
   -0.5530    1.1421   -0.7973 C   0  0  0  0  0  0  0  0  0  0  0  0
    0.5658    0.3537   -0.5708 C   0  0  0  0  0  0  0  0  0  0  0  0
    1.9164    0.9203   -0.8310 N   0  0  0  0  0  0  0  0  0  0  0  0
    1.9784    2.0743   -1.2421 O   0  0  0  0  0  0  0  0  0  0  0  0
    2.8838    0.1902   -0.6215 O   0  0  0  0  0  0  0  0  0  0  0  0
    0.5095   -0.9743   -0.1018 C   0  0  0  0  0  0  0  0  0  0  0  0
   -0.7316   -1.5153    0.1450 C   0  0  0  0  0  0  0  0  0  0  0  0
   -3.8866    1.9721   -0.9718 H   0  0  0  0  0  0  0  0  0  0  0  0
   -0.3916    2.1522   -1.1600 H   0  0  0  0  0  0  0  0  0  0  0  0
    1.4244   -1.5301    0.0525 H   0  0  0  0  0  0  0  0  0  0  0  0
   -0.8517   -2.5313    0.5080 H   0  0  0  0  0  0  0  0  0  0  0  0
   -5.8365    1.4590   -1.7268 S   0  0  0  0  0  0  0  0  0  0  0  0
   -5.5415    1.6770   -3.5537 C   0  0  0  0  0  0  0  0  0  0  0  0
   -5.4812    0.0772   -1.4126 O   0  0  0  0  0  0  0  0  0  0  0  0
   -7.1424    2.0122   -1.4301 O   0  0  0  0  0  0  0  0  0  0  0  0
   -4.7290    2.4613   -1.1454 O   0  0  0  0  0  0  0  0  0  0  0  0
   -4.2821    1.3397   -3.8411 F   0  0  0  0  0  0  0  0  0  0  0  0
   -6.3785    0.8793   -4.2166 F   0  0  0  0  0  0  0  0  0  0  0  0
   -5.7559    2.9419   -3.9023 F   0  0  0  0  0  0  0  0  0  0  0  0
  1 11  1  0  0  0  0
  1  2  1  0  0  0  0
  2  3  1  0  0  0  0
  4  1  2  0  0  0  0
  5  6  2  0  0  0  0
  5  4  1  0  0  0  0
  6 10  1  0  0  0  0
  7  9  2  0  0  0  0
  7  6  1  0  0  0  0
  8  7  2  0  0  0  0
 10 14  1  0  0  0  0
 10 11  2  0  0  0  0
 11 15  1  0  0  0  0
 13  5  1  0  0  0  0
 16 19  2  0  0  0  0
 16 18  2  0  0  0  0
 16 20  1  0  0  0  0
 17 16  1  0  0  0  0
 20 12  1  0  0  0  0
 21 17  1  0  0  0  0
 22 17  1  0  0  0  0
 23 17  1  0  0  0  0
M  RAD  3   2   2   3   3   4   2
M  END
