Coordinates from ORCA-job 4-NO2PhN2+~TfO-_B3LYPG-6-31G_dp-CH-Scan-d09-49-n800
 OpenBabel11261919533D

 23 22  0  0  0  0  0  0  0  0999 V2000
   -1.5557   -0.6702   -0.1218 C   0  0  0  0  0  0  0  0  0  0  0  0
   -2.8705   -1.1386    0.0425 N   0  0  0  0  0  0  0  0  0  0  0  0
   -3.9359   -1.4518    0.1574 N   0  0  0  0  0  0  0  0  0  0  0  0
   -1.5073    0.6750   -0.4953 C   0  0  0  0  0  0  0  0  0  0  0  0
   -0.1464    1.0817   -0.6378 C   0  0  0  0  0  0  0  0  0  0  0  0
    0.9114    0.2111   -0.4226 C   0  0  0  0  0  0  0  0  0  0  0  0
    2.3044    0.7037   -0.5919 N   0  0  0  0  0  0  0  0  0  0  0  0
    2.4584    1.8753   -0.9231 O   0  0  0  0  0  0  0  0  0  0  0  0
    3.2169   -0.0972   -0.3903 O   0  0  0  0  0  0  0  0  0  0  0  0
    0.7565   -1.1406   -0.0446 C   0  0  0  0  0  0  0  0  0  0  0  0
   -0.5237   -1.6168    0.1174 C   0  0  0  0  0  0  0  0  0  0  0  0
   -4.5258    2.7095   -1.1776 H   0  0  0  0  0  0  0  0  0  0  0  0
    0.0958    2.1009   -0.9248 H   0  0  0  0  0  0  0  0  0  0  0  0
    1.6300   -1.7596    0.1080 H   0  0  0  0  0  0  0  0  0  0  0  0
   -0.7229   -2.6439    0.4095 H   0  0  0  0  0  0  0  0  0  0  0  0
   -6.2399    1.5877   -1.8209 S   0  0  0  0  0  0  0  0  0  0  0  0
   -6.0332    1.6649   -3.6737 C   0  0  0  0  0  0  0  0  0  0  0  0
   -5.4930    0.4261   -1.3556 O   0  0  0  0  0  0  0  0  0  0  0  0
   -7.6404    1.8021   -1.5252 O   0  0  0  0  0  0  0  0  0  0  0  0
   -5.4426    2.9400   -1.4132 O   0  0  0  0  0  0  0  0  0  0  0  0
   -4.7325    1.6940   -3.9664 F   0  0  0  0  0  0  0  0  0  0  0  0
   -6.5889    0.5768   -4.2027 F   0  0  0  0  0  0  0  0  0  0  0  0
   -6.6268    2.7535   -4.1499 F   0  0  0  0  0  0  0  0  0  0  0  0
  1  2  1  0  0  0  0
  1 11  2  0  0  0  0
  2  3  1  0  0  0  0
  4  1  1  0  0  0  0
  5  4  2  0  0  0  0
  5  6  1  0  0  0  0
  6 10  2  0  0  0  0
  7  6  1  0  0  0  0
  7  9  2  0  0  0  0
  8  7  2  0  0  0  0
 10 14  1  0  0  0  0
 10 11  1  0  0  0  0
 11 15  1  0  0  0  0
 13  5  1  0  0  0  0
 16 19  2  0  0  0  0
 16 20  1  0  0  0  0
 16 18  2  0  0  0  0
 17 16  1  0  0  0  0
 20 12  1  0  0  0  0
 21 17  1  0  0  0  0
 22 17  1  0  0  0  0
 23 17  1  0  0  0  0
M  RAD  3   2   2   3   3   4   2
M  END
