Coordinates from ORCA-job 4-NO2PhN2+~TfO-_B3LYPG-6-31G_dp-CH-Scan-d09-49-n800
 OpenBabel11261919533D

 23 22  0  0  0  0  0  0  0  0999 V2000
   -1.4947   -0.6000   -0.0174 C   0  0  0  0  0  0  0  0  0  0  0  0
   -2.8268   -0.9919    0.2113 N   0  0  0  0  0  0  0  0  0  0  0  0
   -3.9034   -1.2295    0.3875 N   0  0  0  0  0  0  0  0  0  0  0  0
   -1.3912    0.7568   -0.3259 C   0  0  0  0  0  0  0  0  0  0  0  0
   -0.0193    1.0923   -0.5381 C   0  0  0  0  0  0  0  0  0  0  0  0
    0.9945    0.1513   -0.4391 C   0  0  0  0  0  0  0  0  0  0  0  0
    2.4014    0.5703   -0.6765 N   0  0  0  0  0  0  0  0  0  0  0  0
    2.6054    1.7443   -0.9705 O   0  0  0  0  0  0  0  0  0  0  0  0
    3.2759   -0.2884   -0.5621 O   0  0  0  0  0  0  0  0  0  0  0  0
    0.7820   -1.2079   -0.1183 C   0  0  0  0  0  0  0  0  0  0  0  0
   -0.5117   -1.6177    0.1062 C   0  0  0  0  0  0  0  0  0  0  0  0
   -5.0349    2.9734   -1.0695 H   0  0  0  0  0  0  0  0  0  0  0  0
    0.2659    2.1104   -0.7880 H   0  0  0  0  0  0  0  0  0  0  0  0
    1.6247   -1.8829   -0.0554 H   0  0  0  0  0  0  0  0  0  0  0  0
   -0.7543   -2.6454    0.3613 H   0  0  0  0  0  0  0  0  0  0  0  0
   -6.3814    1.5174   -1.8965 S   0  0  0  0  0  0  0  0  0  0  0  0
   -5.9765    1.6940   -3.7092 C   0  0  0  0  0  0  0  0  0  0  0  0
   -5.4599    0.5333   -1.3438 O   0  0  0  0  0  0  0  0  0  0  0  0
   -7.8200    1.4189   -1.7740 O   0  0  0  0  0  0  0  0  0  0  0  0
   -5.9537    3.0000   -1.3897 O   0  0  0  0  0  0  0  0  0  0  0  0
   -4.6877    2.0120   -3.8384 F   0  0  0  0  0  0  0  0  0  0  0  0
   -6.2148    0.5292   -4.3076 F   0  0  0  0  0  0  0  0  0  0  0  0
   -6.7317    2.6437   -4.2492 F   0  0  0  0  0  0  0  0  0  0  0  0
  1 11  1  0  0  0  0
  1  2  1  0  0  0  0
  2  3  1  0  0  0  0
  4  1  2  0  0  0  0
  5  6  2  0  0  0  0
  5  4  1  0  0  0  0
  6 10  1  0  0  0  0
  7  9  2  0  0  0  0
  7  6  1  0  0  0  0
  8  7  2  0  0  0  0
 10 14  1  0  0  0  0
 10 11  2  0  0  0  0
 11 15  1  0  0  0  0
 13  5  1  0  0  0  0
 16 19  2  0  0  0  0
 16 20  1  0  0  0  0
 16 18  2  0  0  0  0
 17 16  1  0  0  0  0
 20 12  1  0  0  0  0
 21 17  1  0  0  0  0
 22 17  1  0  0  0  0
 23 17  1  0  0  0  0
M  RAD  3   2   2   3   3   4   2
M  END
