Coordinates from ORCA-job 4-NO2PhN2+~TfO-_B3LYPG-6-31G_dp-CH-Scan-d09-49-n800
 OpenBabel11261919533D

 23 22  0  0  0  0  0  0  0  0999 V2000
   -2.0105   -0.2213    0.5290 C   0  0  0  0  0  0  0  0  0  0  0  0
   -3.1167   -0.5201    1.3462 N   0  0  0  0  0  0  0  0  0  0  0  0
   -3.9720   -0.6804    2.0454 N   0  0  0  0  0  0  0  0  0  0  0  0
   -1.3879    0.9599    0.9281 C   0  0  0  0  0  0  0  0  0  0  0  0
   -0.2753    1.2242    0.0729 C   0  0  0  0  0  0  0  0  0  0  0  0
    0.0631    0.3801   -0.9745 C   0  0  0  0  0  0  0  0  0  0  0  0
    1.2307    0.7181   -1.8311 N   0  0  0  0  0  0  0  0  0  0  0  0
    1.8600    1.7370   -1.5620 O   0  0  0  0  0  0  0  0  0  0  0  0
    1.4912   -0.0429   -2.7632 O   0  0  0  0  0  0  0  0  0  0  0  0
   -0.6403   -0.8024   -1.2964 C   0  0  0  0  0  0  0  0  0  0  0  0
   -1.7280   -1.1327   -0.5213 C   0  0  0  0  0  0  0  0  0  0  0  0
   -5.4164    2.7929   -0.7821 H   0  0  0  0  0  0  0  0  0  0  0  0
    0.3400    2.1067    0.2246 H   0  0  0  0  0  0  0  0  0  0  0  0
   -0.3156   -1.4110   -2.1296 H   0  0  0  0  0  0  0  0  0  0  0  0
   -2.3218   -2.0228   -0.7069 H   0  0  0  0  0  0  0  0  0  0  0  0
   -5.4296    0.9929   -1.9542 S   0  0  0  0  0  0  0  0  0  0  0  0
   -3.8532    1.1770   -2.9378 C   0  0  0  0  0  0  0  0  0  0  0  0
   -5.0759    0.3425   -0.6968 O   0  0  0  0  0  0  0  0  0  0  0  0
   -6.4537    0.4935   -2.8451 O   0  0  0  0  0  0  0  0  0  0  0  0
   -5.7479    2.5597   -1.6670 O   0  0  0  0  0  0  0  0  0  0  0  0
   -2.9523    1.8228   -2.1975 F   0  0  0  0  0  0  0  0  0  0  0  0
   -3.4065   -0.0431   -3.2302 F   0  0  0  0  0  0  0  0  0  0  0  0
   -4.0936    1.8530   -4.0535 F   0  0  0  0  0  0  0  0  0  0  0  0
  1  4  1  0  0  0  0
  1  2  1  0  0  0  0
  2  3  1  0  0  0  0
  5 13  1  0  0  0  0
  5  4  2  0  0  0  0
  6  5  1  0  0  0  0
  7  8  2  0  0  0  0
  7  6  1  0  0  0  0
  9  7  2  0  0  0  0
 10  6  2  0  0  0  0
 10 11  1  0  0  0  0
 11  1  2  0  0  0  0
 14 10  1  0  0  0  0
 15 11  1  0  0  0  0
 16 20  1  0  0  0  0
 16 18  2  0  0  0  0
 17 21  1  0  0  0  0
 17 16  1  0  0  0  0
 19 16  2  0  0  0  0
 20 12  1  0  0  0  0
 22 17  1  0  0  0  0
 23 17  1  0  0  0  0
M  RAD  3   2   2   3   3   4   2
M  END
