Coordinates from ORCA-job 4-NO2PhN2+~TfO-_B3LYPG-6-31G_dp-CH-Scan-d09-49-n800
 OpenBabel11261919523D

 23 22  0  0  0  0  0  0  0  0999 V2000
   -1.6490   -0.6725   -0.1225 C   0  0  0  0  0  0  0  0  0  0  0  0
   -2.9454   -1.1752    0.0671 N   0  0  0  0  0  0  0  0  0  0  0  0
   -3.9961   -1.5228    0.2090 N   0  0  0  0  0  0  0  0  0  0  0  0
   -1.6326    0.6647   -0.5305 C   0  0  0  0  0  0  0  0  0  0  0  0
   -0.2855    1.1024   -0.6957 C   0  0  0  0  0  0  0  0  0  0  0  0
    0.7959    0.2648   -0.4663 C   0  0  0  0  0  0  0  0  0  0  0  0
    2.1744    0.7888   -0.6597 N   0  0  0  0  0  0  0  0  0  0  0  0
    2.2945    1.9551   -1.0215 O   0  0  0  0  0  0  0  0  0  0  0  0
    3.1082    0.0171   -0.4441 O   0  0  0  0  0  0  0  0  0  0  0  0
    0.6777   -1.0795   -0.0530 C   0  0  0  0  0  0  0  0  0  0  0  0
   -0.5889   -1.5836    0.1312 C   0  0  0  0  0  0  0  0  0  0  0  0
   -4.2560    2.4154   -1.1163 H   0  0  0  0  0  0  0  0  0  0  0  0
   -0.0725    2.1194   -1.0114 H   0  0  0  0  0  0  0  0  0  0  0  0
    1.5675   -1.6728    0.1083 H   0  0  0  0  0  0  0  0  0  0  0  0
   -0.7588   -2.6077    0.4501 H   0  0  0  0  0  0  0  0  0  0  0  0
   -6.0974    1.5425   -1.7911 S   0  0  0  0  0  0  0  0  0  0  0  0
   -5.8966    1.6774   -3.6405 C   0  0  0  0  0  0  0  0  0  0  0  0
   -5.5008    0.2737   -1.3898 O   0  0  0  0  0  0  0  0  0  0  0  0
   -7.4609    1.9098   -1.4718 O   0  0  0  0  0  0  0  0  0  0  0  0
   -5.1415    2.7637   -1.3324 O   0  0  0  0  0  0  0  0  0  0  0  0
   -4.6081    1.5360   -3.9536 F   0  0  0  0  0  0  0  0  0  0  0  0
   -6.6065    0.7059   -4.2115 F   0  0  0  0  0  0  0  0  0  0  0  0
   -6.3337    2.8610   -4.0571 F   0  0  0  0  0  0  0  0  0  0  0  0
  1  2  1  0  0  0  0
  1 11  2  0  0  0  0
  2  3  1  0  0  0  0
  4  1  1  0  0  0  0
  5  4  2  0  0  0  0
  5  6  1  0  0  0  0
  6 10  2  0  0  0  0
  7  6  1  0  0  0  0
  7  9  2  0  0  0  0
  8  7  2  0  0  0  0
 10 14  1  0  0  0  0
 10 11  1  0  0  0  0
 11 15  1  0  0  0  0
 13  5  1  0  0  0  0
 16 19  2  0  0  0  0
 16 18  2  0  0  0  0
 16 20  1  0  0  0  0
 17 16  1  0  0  0  0
 20 12  1  0  0  0  0
 21 17  1  0  0  0  0
 22 17  1  0  0  0  0
 23 17  1  0  0  0  0
M  RAD  3   2   2   3   3   4   2
M  END
