Coordinates from ORCA-job 4-NO2PhN2+~TfO-_B3LYPG-6-31G_dp-CH-Scan-d09-49-n800
 OpenBabel11261919523D

 23 22  0  0  0  0  0  0  0  0999 V2000
   -1.9969   -0.6382   -0.0861 C   0  0  0  0  0  0  0  0  0  0  0  0
   -3.2315   -1.2143    0.2204 N   0  0  0  0  0  0  0  0  0  0  0  0
   -4.2359   -1.6379    0.4482 N   0  0  0  0  0  0  0  0  0  0  0  0
   -2.0576    0.6686   -0.5907 C   0  0  0  0  0  0  0  0  0  0  0  0
   -0.7642    1.1751   -0.8695 C   0  0  0  0  0  0  0  0  0  0  0  0
    0.3782    0.4193   -0.6452 C   0  0  0  0  0  0  0  0  0  0  0  0
    1.7074    1.0092   -0.9574 N   0  0  0  0  0  0  0  0  0  0  0  0
    1.7284    2.1502   -1.4054 O   0  0  0  0  0  0  0  0  0  0  0  0
    2.6957    0.3100   -0.7438 O   0  0  0  0  0  0  0  0  0  0  0  0
    0.3614   -0.8908   -0.1330 C   0  0  0  0  0  0  0  0  0  0  0  0
   -0.8620   -1.4512    0.1618 C   0  0  0  0  0  0  0  0  0  0  0  0
   -3.5281    1.6016   -0.8842 H   0  0  0  0  0  0  0  0  0  0  0  0
   -0.6426    2.1762   -1.2689 H   0  0  0  0  0  0  0  0  0  0  0  0
    1.2913   -1.4226    0.0171 H   0  0  0  0  0  0  0  0  0  0  0  0
   -0.9490   -2.4573    0.5586 H   0  0  0  0  0  0  0  0  0  0  0  0
   -5.5683    1.3749   -1.6779 S   0  0  0  0  0  0  0  0  0  0  0  0
   -5.2938    1.6945   -3.4897 C   0  0  0  0  0  0  0  0  0  0  0  0
   -5.3449   -0.0633   -1.4920 O   0  0  0  0  0  0  0  0  0  0  0  0
   -6.8383    1.9863   -1.3281 O   0  0  0  0  0  0  0  0  0  0  0  0
   -4.3829    2.2006   -1.0550 O   0  0  0  0  0  0  0  0  0  0  0  0
   -4.0660    1.2879   -3.8338 F   0  0  0  0  0  0  0  0  0  0  0  0
   -6.1963    1.0105   -4.1953 F   0  0  0  0  0  0  0  0  0  0  0  0
   -5.4164    2.9943   -3.7527 F   0  0  0  0  0  0  0  0  0  0  0  0
  1 11  1  0  0  0  0
  1  2  1  0  0  0  0
  2  3  1  0  0  0  0
  4  1  2  0  0  0  0
  5  6  2  0  0  0  0
  5  4  1  0  0  0  0
  6 10  1  0  0  0  0
  7  9  2  0  0  0  0
  7  6  1  0  0  0  0
  8  7  2  0  0  0  0
 10 14  1  0  0  0  0
 10 11  2  0  0  0  0
 11 15  1  0  0  0  0
 13  5  1  0  0  0  0
 16 18  2  0  0  0  0
 16 19  2  0  0  0  0
 16 20  1  0  0  0  0
 17 16  1  0  0  0  0
 20 12  1  0  0  0  0
 21 17  1  0  0  0  0
 22 17  1  0  0  0  0
 23 17  1  0  0  0  0
M  RAD  3   2   2   3   3   4   2
M  END
