Coordinates from ORCA-job 4-NO2PhN2+~TfO-_B3LYPG-6-31G_dp-CH-Scan-d09-49-n800
 OpenBabel11261919533D

 23 22  0  0  0  0  0  0  0  0999 V2000
   -2.0140   -0.2233    0.5265 C   0  0  0  0  0  0  0  0  0  0  0  0
   -3.1196   -0.5254    1.3432 N   0  0  0  0  0  0  0  0  0  0  0  0
   -3.9746   -0.6883    2.0420 N   0  0  0  0  0  0  0  0  0  0  0  0
   -1.3978    0.9623    0.9226 C   0  0  0  0  0  0  0  0  0  0  0  0
   -0.2848    1.2287    0.0687 C   0  0  0  0  0  0  0  0  0  0  0  0
    0.0595    0.3826   -0.9752 C   0  0  0  0  0  0  0  0  0  0  0  0
    1.2272    0.7231   -1.8307 N   0  0  0  0  0  0  0  0  0  0  0  0
    1.8538    1.7435   -1.5613 O   0  0  0  0  0  0  0  0  0  0  0  0
    1.4927   -0.0396   -2.7599 O   0  0  0  0  0  0  0  0  0  0  0  0
   -0.6383   -0.8038   -1.2949 C   0  0  0  0  0  0  0  0  0  0  0  0
   -1.7258   -1.1365   -0.5207 C   0  0  0  0  0  0  0  0  0  0  0  0
   -5.3901    2.7941   -0.7770 H   0  0  0  0  0  0  0  0  0  0  0  0
    0.3262    2.1145    0.2185 H   0  0  0  0  0  0  0  0  0  0  0  0
   -0.3096   -1.4133   -2.1259 H   0  0  0  0  0  0  0  0  0  0  0  0
   -2.3155   -2.0296   -0.7047 H   0  0  0  0  0  0  0  0  0  0  0  0
   -5.4281    0.9978   -1.9515 S   0  0  0  0  0  0  0  0  0  0  0  0
   -3.8532    1.1712   -2.9391 C   0  0  0  0  0  0  0  0  0  0  0  0
   -5.0765    0.3428   -0.6961 O   0  0  0  0  0  0  0  0  0  0  0  0
   -6.4588    0.5083   -2.8403 O   0  0  0  0  0  0  0  0  0  0  0  0
   -5.7318    2.5665   -1.6595 O   0  0  0  0  0  0  0  0  0  0  0  0
   -2.9481    1.8150   -2.2023 F   0  0  0  0  0  0  0  0  0  0  0  0
   -3.4126   -0.0519   -3.2290 F   0  0  0  0  0  0  0  0  0  0  0  0
   -4.0925    1.8451   -4.0563 F   0  0  0  0  0  0  0  0  0  0  0  0
  1  4  1  0  0  0  0
  1  2  1  0  0  0  0
  2  3  1  0  0  0  0
  5 13  1  0  0  0  0
  5  4  2  0  0  0  0
  6  5  1  0  0  0  0
  7  8  2  0  0  0  0
  7  6  1  0  0  0  0
  9  7  2  0  0  0  0
 10  6  2  0  0  0  0
 10 11  1  0  0  0  0
 11  1  2  0  0  0  0
 14 10  1  0  0  0  0
 15 11  1  0  0  0  0
 16 20  1  0  0  0  0
 16 18  2  0  0  0  0
 17 21  1  0  0  0  0
 17 16  1  0  0  0  0
 19 16  2  0  0  0  0
 20 12  1  0  0  0  0
 22 17  1  0  0  0  0
 23 17  1  0  0  0  0
M  RAD  3   2   2   3   3   4   2
M  END
