Coordinates from ORCA-job 4-NO2PhN2+~TfO-_B3LYPG-6-31G_dp-CH-Scan-d09-49-n800
 OpenBabel11261919533D

 23 22  0  0  0  0  0  0  0  0999 V2000
   -1.4652   -0.5829   -0.0044 C   0  0  0  0  0  0  0  0  0  0  0  0
   -2.8034   -0.9557    0.2227 N   0  0  0  0  0  0  0  0  0  0  0  0
   -3.8839   -1.1799    0.3936 N   0  0  0  0  0  0  0  0  0  0  0  0
   -1.3419    0.7761   -0.2938 C   0  0  0  0  0  0  0  0  0  0  0  0
    0.0344    1.0936   -0.5062 C   0  0  0  0  0  0  0  0  0  0  0  0
    1.0334    0.1353   -0.4256 C   0  0  0  0  0  0  0  0  0  0  0  0
    2.4458    0.5354   -0.6633 N   0  0  0  0  0  0  0  0  0  0  0  0
    2.6667    1.7093   -0.9454 O   0  0  0  0  0  0  0  0  0  0  0  0
    3.3075   -0.3377   -0.5611 O   0  0  0  0  0  0  0  0  0  0  0  0
    0.8007   -1.2250   -0.1232 C   0  0  0  0  0  0  0  0  0  0  0  0
   -0.4982   -1.6178    0.1010 C   0  0  0  0  0  0  0  0  0  0  0  0
   -5.1380    3.0201   -1.0807 H   0  0  0  0  0  0  0  0  0  0  0  0
    0.3344    2.1108   -0.7420 H   0  0  0  0  0  0  0  0  0  0  0  0
    1.6330   -1.9138   -0.0735 H   0  0  0  0  0  0  0  0  0  0  0  0
   -0.7560   -2.6451    0.3428 H   0  0  0  0  0  0  0  0  0  0  0  0
   -6.4216    1.5121   -1.9134 S   0  0  0  0  0  0  0  0  0  0  0  0
   -6.0206    1.7000   -3.7258 C   0  0  0  0  0  0  0  0  0  0  0  0
   -5.4621    0.5682   -1.3554 O   0  0  0  0  0  0  0  0  0  0  0  0
   -7.8553    1.3565   -1.7936 O   0  0  0  0  0  0  0  0  0  0  0  0
   -6.0536    3.0125   -1.4108 O   0  0  0  0  0  0  0  0  0  0  0  0
   -4.7432    2.0619   -3.8537 F   0  0  0  0  0  0  0  0  0  0  0  0
   -6.2179    0.5269   -4.3229 F   0  0  0  0  0  0  0  0  0  0  0  0
   -6.8070    2.6226   -4.2681 F   0  0  0  0  0  0  0  0  0  0  0  0
  1 11  1  0  0  0  0
  1  2  1  0  0  0  0
  2  3  1  0  0  0  0
  4  1  2  0  0  0  0
  5  6  2  0  0  0  0
  5  4  1  0  0  0  0
  6 10  1  0  0  0  0
  7  9  2  0  0  0  0
  7  6  1  0  0  0  0
  8  7  2  0  0  0  0
 10 14  1  0  0  0  0
 10 11  2  0  0  0  0
 11 15  1  0  0  0  0
 13  5  1  0  0  0  0
 16 19  2  0  0  0  0
 16 20  1  0  0  0  0
 16 18  2  0  0  0  0
 17 16  1  0  0  0  0
 20 12  1  0  0  0  0
 21 17  1  0  0  0  0
 22 17  1  0  0  0  0
 23 17  1  0  0  0  0
M  RAD  3   2   2   3   3   4   2
M  END
