Coordinates from ORCA-job 4-NO2PhN2+~TfO-_B3LYPG-6-31G_dp-CH-Scan-d09-49-n800
 OpenBabel11261919523D

 23 22  0  0  0  0  0  0  0  0999 V2000
   -1.9797   -0.6440   -0.0907 C   0  0  0  0  0  0  0  0  0  0  0  0
   -3.2162   -1.2201    0.2100 N   0  0  0  0  0  0  0  0  0  0  0  0
   -4.2220   -1.6428    0.4340 N   0  0  0  0  0  0  0  0  0  0  0  0
   -2.0416    0.6647   -0.5897 C   0  0  0  0  0  0  0  0  0  0  0  0
   -0.7457    1.1708   -0.8628 C   0  0  0  0  0  0  0  0  0  0  0  0
    0.3957    0.4137   -0.6392 C   0  0  0  0  0  0  0  0  0  0  0  0
    1.7262    1.0041   -0.9457 N   0  0  0  0  0  0  0  0  0  0  0  0
    1.7494    2.1471   -1.3888 O   0  0  0  0  0  0  0  0  0  0  0  0
    2.7138    0.3035   -0.7329 O   0  0  0  0  0  0  0  0  0  0  0  0
    0.3777   -0.8990   -0.1326 C   0  0  0  0  0  0  0  0  0  0  0  0
   -0.8464   -1.4601    0.1569 C   0  0  0  0  0  0  0  0  0  0  0  0
   -3.5731    1.6409   -0.8920 H   0  0  0  0  0  0  0  0  0  0  0  0
   -0.6212    2.1736   -1.2574 H   0  0  0  0  0  0  0  0  0  0  0  0
    1.3072   -1.4316    0.0173 H   0  0  0  0  0  0  0  0  0  0  0  0
   -0.9350   -2.4678    0.5494 H   0  0  0  0  0  0  0  0  0  0  0  0
   -5.5995    1.3883   -1.6800 S   0  0  0  0  0  0  0  0  0  0  0  0
   -5.3132    1.6893   -3.4937 C   0  0  0  0  0  0  0  0  0  0  0  0
   -5.3734   -0.0454   -1.4737 O   0  0  0  0  0  0  0  0  0  0  0  0
   -6.8680    2.0076   -1.3418 O   0  0  0  0  0  0  0  0  0  0  0  0
   -4.4167    2.2283   -1.0583 O   0  0  0  0  0  0  0  0  0  0  0  0
   -4.0830    1.2810   -3.8247 F   0  0  0  0  0  0  0  0  0  0  0  0
   -6.2106    0.9958   -4.1960 F   0  0  0  0  0  0  0  0  0  0  0  0
   -5.4368    2.9857   -3.7704 F   0  0  0  0  0  0  0  0  0  0  0  0
  1 11  1  0  0  0  0
  1  2  1  0  0  0  0
  2  3  1  0  0  0  0
  4  1  2  0  0  0  0
  5  6  2  0  0  0  0
  5  4  1  0  0  0  0
  6 10  1  0  0  0  0
  7  9  2  0  0  0  0
  7  6  1  0  0  0  0
  8  7  2  0  0  0  0
 10 14  1  0  0  0  0
 10 11  2  0  0  0  0
 11 15  1  0  0  0  0
 13  5  1  0  0  0  0
 16 18  2  0  0  0  0
 16 19  2  0  0  0  0
 16 20  1  0  0  0  0
 17 16  1  0  0  0  0
 20 12  1  0  0  0  0
 21 17  1  0  0  0  0
 22 17  1  0  0  0  0
 23 17  1  0  0  0  0
M  RAD  3   2   2   3   3   4   2
M  END
