Coordinates from ORCA-job 4-NO2PhN2+~TfO-_B3LYPG-6-31G_dp-CH-Scan-d09-49-n800
 OpenBabel11261919523D

 23 22  0  0  0  0  0  0  0  0999 V2000
   -1.7750   -0.6576   -0.0963 C   0  0  0  0  0  0  0  0  0  0  0  0
   -3.0489   -1.1853    0.1516 N   0  0  0  0  0  0  0  0  0  0  0  0
   -4.0821   -1.5612    0.3385 N   0  0  0  0  0  0  0  0  0  0  0  0
   -1.7921    0.6723   -0.5323 C   0  0  0  0  0  0  0  0  0  0  0  0
   -0.4627    1.1317   -0.7553 C   0  0  0  0  0  0  0  0  0  0  0  0
    0.6419    0.3189   -0.5472 C   0  0  0  0  0  0  0  0  0  0  0  0
    2.0023    0.8646   -0.8005 N   0  0  0  0  0  0  0  0  0  0  0  0
    2.0860    2.0253   -1.1886 O   0  0  0  0  0  0  0  0  0  0  0  0
    2.9572    0.1141   -0.6040 O   0  0  0  0  0  0  0  0  0  0  0  0
    0.5631   -1.0174   -0.1031 C   0  0  0  0  0  0  0  0  0  0  0  0
   -0.6868   -1.5404    0.1365 C   0  0  0  0  0  0  0  0  0  0  0  0
   -4.0584    2.1584   -0.9830 H   0  0  0  0  0  0  0  0  0  0  0  0
   -0.2818    2.1454   -1.0992 H   0  0  0  0  0  0  0  0  0  0  0  0
    1.4685   -1.5919    0.0383 H   0  0  0  0  0  0  0  0  0  0  0  0
   -0.8251   -2.5606    0.4811 H   0  0  0  0  0  0  0  0  0  0  0  0
   -5.9451    1.4772   -1.7557 S   0  0  0  0  0  0  0  0  0  0  0  0
   -5.6236    1.6778   -3.5812 C   0  0  0  0  0  0  0  0  0  0  0  0
   -5.4919    0.1373   -1.3966 O   0  0  0  0  0  0  0  0  0  0  0  0
   -7.2906    1.9451   -1.4951 O   0  0  0  0  0  0  0  0  0  0  0  0
   -4.9236    2.5791   -1.1763 O   0  0  0  0  0  0  0  0  0  0  0  0
   -4.3288    1.4670   -3.8255 F   0  0  0  0  0  0  0  0  0  0  0  0
   -6.3551    0.7799   -4.2397 F   0  0  0  0  0  0  0  0  0  0  0  0
   -5.9596    2.9038   -3.9691 F   0  0  0  0  0  0  0  0  0  0  0  0
  1 11  1  0  0  0  0
  1  2  1  0  0  0  0
  2  3  1  0  0  0  0
  4  1  2  0  0  0  0
  5  6  2  0  0  0  0
  5  4  1  0  0  0  0
  6 10  1  0  0  0  0
  7  9  2  0  0  0  0
  7  6  1  0  0  0  0
  8  7  2  0  0  0  0
 10 14  1  0  0  0  0
 10 11  2  0  0  0  0
 11 15  1  0  0  0  0
 13  5  1  0  0  0  0
 16 19  2  0  0  0  0
 16 18  2  0  0  0  0
 16 20  1  0  0  0  0
 17 16  1  0  0  0  0
 20 12  1  0  0  0  0
 21 17  1  0  0  0  0
 22 17  1  0  0  0  0
 23 17  1  0  0  0  0
M  RAD  3   2   2   3   3   4   2
M  END
