Coordinates from ORCA-job 4-NO2PhN2+~TfO-_B3LYPG-6-31G_dp-CH-Scan-d09-49-n800
 OpenBabel11261919523D

 23 22  0  0  0  0  0  0  0  0999 V2000
   -2.1534   -0.2540    0.0869 C   0  0  0  0  0  0  0  0  0  0  0  0
   -3.4259   -0.5495    0.5733 N   0  0  0  0  0  0  0  0  0  0  0  0
   -4.5425   -0.4470    0.7001 N   0  0  0  0  0  0  0  0  0  0  0  0
   -1.9959    0.9215   -0.6597 C   0  0  0  0  0  0  0  0  0  0  0  0
   -0.7241    1.2146   -1.1351 C   0  0  0  0  0  0  0  0  0  0  0  0
    0.3181    0.3331   -0.8505 C   0  0  0  0  0  0  0  0  0  0  0  0
    1.6747    0.6546   -1.3607 N   0  0  0  0  0  0  0  0  0  0  0  0
    1.7988    1.6922   -2.0014 O   0  0  0  0  0  0  0  0  0  0  0  0
    2.5716   -0.1412   -1.0994 O   0  0  0  0  0  0  0  0  0  0  0  0
    0.1550   -0.8369   -0.1079 C   0  0  0  0  0  0  0  0  0  0  0  0
   -1.1091   -1.1406    0.3794 C   0  0  0  0  0  0  0  0  0  0  0  0
   -2.9495    1.6114   -0.8682 H   0  0  0  0  0  0  0  0  0  0  0  0
   -0.5330    2.1032   -1.7233 H   0  0  0  0  0  0  0  0  0  0  0  0
    1.0073   -1.4784    0.0745 H   0  0  0  0  0  0  0  0  0  0  0  0
   -1.2923   -2.0372    0.9603 H   0  0  0  0  0  0  0  0  0  0  0  0
   -5.4720    0.5707   -1.9194 S   0  0  0  0  0  0  0  0  0  0  0  0
   -5.0903    1.9948   -3.0594 C   0  0  0  0  0  0  0  0  0  0  0  0
   -4.4540   -0.4531   -2.2363 O   0  0  0  0  0  0  0  0  0  0  0  0
   -6.8786    0.2530   -2.1581 O   0  0  0  0  0  0  0  0  0  0  0  0
   -5.1792    1.2193   -0.5665 O   0  0  0  0  0  0  0  0  0  0  0  0
   -3.8213    2.4261   -2.8596 F   0  0  0  0  0  0  0  0  0  0  0  0
   -5.2000    1.6086   -4.3324 F   0  0  0  0  0  0  0  0  0  0  0  0
   -5.9166    3.0185   -2.8394 F   0  0  0  0  0  0  0  0  0  0  0  0
  1 11  1  0  0  0  0
  1  2  1  0  0  0  0
  2  3  1  0  0  0  0
  4  1  2  0  0  0  0
  5  6  2  0  0  0  0
  5  4  1  0  0  0  0
  6 10  1  0  0  0  0
  7  9  2  0  0  0  0
  7  6  1  0  0  0  0
  8  7  2  0  0  0  0
 10 14  1  0  0  0  0
 10 11  2  0  0  0  0
 11 15  1  0  0  0  0
 12  4  1  0  0  0  0
 13  5  1  0  0  0  0
 16 20  1  0  0  0  0
 17 21  1  0  0  0  0
 17 23  1  0  0  0  0
 17 16  1  0  0  0  0
 18 16  2  0  0  0  0
 19 16  2  0  0  0  0
 22 17  1  0  0  0  0
M  RAD  3   2   2   3   3  20   2
M  END
