Coordinates from ORCA-job 4-NO2PhN2+~TfO-_B3LYPG-6-31G_dp-CH-Scan-d09-49-n800
 OpenBabel11261919523D

 23 22  0  0  0  0  0  0  0  0999 V2000
   -1.6041   -0.6756   -0.1290 C   0  0  0  0  0  0  0  0  0  0  0  0
   -2.9089   -1.1656    0.0424 N   0  0  0  0  0  0  0  0  0  0  0  0
   -3.9663   -1.4996    0.1680 N   0  0  0  0  0  0  0  0  0  0  0  0
   -1.5741    0.6646   -0.5243 C   0  0  0  0  0  0  0  0  0  0  0  0
   -0.2208    1.0911   -0.6725 C   0  0  0  0  0  0  0  0  0  0  0  0
    0.8507    0.2414   -0.4412 C   0  0  0  0  0  0  0  0  0  0  0  0
    2.2357    0.7542   -0.6170 N   0  0  0  0  0  0  0  0  0  0  0  0
    2.3705    1.9227   -0.9666 O   0  0  0  0  0  0  0  0  0  0  0  0
    3.1606   -0.0281   -0.4002 O   0  0  0  0  0  0  0  0  0  0  0  0
    0.7168   -1.1058   -0.0414 C   0  0  0  0  0  0  0  0  0  0  0  0
   -0.5560   -1.5999    0.1265 C   0  0  0  0  0  0  0  0  0  0  0  0
   -4.3556    2.5386   -1.1574 H   0  0  0  0  0  0  0  0  0  0  0  0
    0.0049    2.1090   -0.9765 H   0  0  0  0  0  0  0  0  0  0  0  0
    1.5997   -1.7084    0.1225 H   0  0  0  0  0  0  0  0  0  0  0  0
   -0.7386   -2.6253    0.4345 H   0  0  0  0  0  0  0  0  0  0  0  0
   -6.1580    1.5679   -1.8033 S   0  0  0  0  0  0  0  0  0  0  0  0
   -5.9781    1.6730   -3.6571 C   0  0  0  0  0  0  0  0  0  0  0  0
   -5.4973    0.3392   -1.3798 O   0  0  0  0  0  0  0  0  0  0  0  0
   -7.5337    1.8796   -1.4781 O   0  0  0  0  0  0  0  0  0  0  0  0
   -5.2543    2.8435   -1.3797 O   0  0  0  0  0  0  0  0  0  0  0  0
   -4.6857    1.5964   -3.9764 F   0  0  0  0  0  0  0  0  0  0  0  0
   -6.6360    0.6503   -4.2000 F   0  0  0  0  0  0  0  0  0  0  0  0
   -6.4836    2.8203   -4.0961 F   0  0  0  0  0  0  0  0  0  0  0  0
  1  2  1  0  0  0  0
  1 11  2  0  0  0  0
  2  3  1  0  0  0  0
  4  1  1  0  0  0  0
  5  4  2  0  0  0  0
  5  6  1  0  0  0  0
  6 10  2  0  0  0  0
  7  6  1  0  0  0  0
  7  9  2  0  0  0  0
  8  7  2  0  0  0  0
 10 14  1  0  0  0  0
 10 11  1  0  0  0  0
 11 15  1  0  0  0  0
 13  5  1  0  0  0  0
 16 19  2  0  0  0  0
 16 18  2  0  0  0  0
 16 20  1  0  0  0  0
 17 16  1  0  0  0  0
 20 12  1  0  0  0  0
 21 17  1  0  0  0  0
 22 17  1  0  0  0  0
 23 17  1  0  0  0  0
M  RAD  3   2   2   3   3   4   2
M  END
