Coordinates from ORCA-job 4-NO2PhN2+~TfO-_B3LYPG-6-31G_dp-CH-Scan-d09-49-n800
 OpenBabel11261919533D

 23 22  0  0  0  0  0  0  0  0999 V2000
   -1.5806   -0.6729   -0.1256 C   0  0  0  0  0  0  0  0  0  0  0  0
   -2.8906   -1.1520    0.0423 N   0  0  0  0  0  0  0  0  0  0  0  0
   -3.9520   -1.4750    0.1641 N   0  0  0  0  0  0  0  0  0  0  0  0
   -1.5414    0.6701   -0.5090 C   0  0  0  0  0  0  0  0  0  0  0  0
   -0.1842    1.0865   -0.6545 C   0  0  0  0  0  0  0  0  0  0  0  0
    0.8804    0.2260   -0.4321 C   0  0  0  0  0  0  0  0  0  0  0  0
    2.2695    0.7287   -0.6047 N   0  0  0  0  0  0  0  0  0  0  0  0
    2.4140    1.8992   -0.9436 O   0  0  0  0  0  0  0  0  0  0  0  0
    3.1882   -0.0634   -0.3967 O   0  0  0  0  0  0  0  0  0  0  0  0
    0.7359   -1.1238   -0.0443 C   0  0  0  0  0  0  0  0  0  0  0  0
   -0.5406   -1.6089    0.1207 C   0  0  0  0  0  0  0  0  0  0  0  0
   -4.4391    2.6273   -1.1679 H   0  0  0  0  0  0  0  0  0  0  0  0
    0.0498    2.1053   -0.9493 H   0  0  0  0  0  0  0  0  0  0  0  0
    1.6142   -1.7349    0.1132 H   0  0  0  0  0  0  0  0  0  0  0  0
   -0.7316   -2.6354    0.4199 H   0  0  0  0  0  0  0  0  0  0  0  0
   -6.1984    1.5789   -1.8115 S   0  0  0  0  0  0  0  0  0  0  0  0
   -6.0044    1.6678   -3.6650 C   0  0  0  0  0  0  0  0  0  0  0  0
   -5.4936    0.3831   -1.3661 O   0  0  0  0  0  0  0  0  0  0  0  0
   -7.5876    1.8423   -1.5018 O   0  0  0  0  0  0  0  0  0  0  0  0
   -5.3477    2.8946   -1.3963 O   0  0  0  0  0  0  0  0  0  0  0  0
   -4.7062    1.6535   -3.9693 F   0  0  0  0  0  0  0  0  0  0  0  0
   -6.6028    0.6053   -4.1998 F   0  0  0  0  0  0  0  0  0  0  0  0
   -6.5632    2.7814   -4.1255 F   0  0  0  0  0  0  0  0  0  0  0  0
  1  2  1  0  0  0  0
  1 11  2  0  0  0  0
  2  3  1  0  0  0  0
  4  1  1  0  0  0  0
  5  4  2  0  0  0  0
  5  6  1  0  0  0  0
  6 10  2  0  0  0  0
  7  6  1  0  0  0  0
  7  9  2  0  0  0  0
  8  7  2  0  0  0  0
 10 14  1  0  0  0  0
 10 11  1  0  0  0  0
 11 15  1  0  0  0  0
 13  5  1  0  0  0  0
 16 19  2  0  0  0  0
 16 20  1  0  0  0  0
 16 18  2  0  0  0  0
 17 16  1  0  0  0  0
 20 12  1  0  0  0  0
 21 17  1  0  0  0  0
 22 17  1  0  0  0  0
 23 17  1  0  0  0  0
M  RAD  3   2   2   3   3   4   2
M  END
