Coordinates from ORCA-job 4-NO2PhN2+~TfO-_B3LYPG-6-31G_dp-CH-Scan-d09-49-n800
 OpenBabel11261919523D

 23 22  0  0  0  0  0  0  0  0999 V2000
   -1.8985   -0.6584   -0.1076 C   0  0  0  0  0  0  0  0  0  0  0  0
   -3.1485   -1.2232    0.1635 N   0  0  0  0  0  0  0  0  0  0  0  0
   -4.1637   -1.6358    0.3664 N   0  0  0  0  0  0  0  0  0  0  0  0
   -1.9482    0.6573   -0.5873 C   0  0  0  0  0  0  0  0  0  0  0  0
   -0.6391    1.1529   -0.8306 C   0  0  0  0  0  0  0  0  0  0  0  0
    0.4911    0.3819   -0.5999 C   0  0  0  0  0  0  0  0  0  0  0  0
    1.8325    0.9631   -0.8751 N   0  0  0  0  0  0  0  0  0  0  0  0
    1.8763    2.1152   -1.2931 O   0  0  0  0  0  0  0  0  0  0  0  0
    2.8105    0.2513   -0.6530 O   0  0  0  0  0  0  0  0  0  0  0  0
    0.4539   -0.9396   -0.1135 C   0  0  0  0  0  0  0  0  0  0  0  0
   -0.7792   -1.4932    0.1472 C   0  0  0  0  0  0  0  0  0  0  0  0
   -3.7420    1.8180   -0.9467 H   0  0  0  0  0  0  0  0  0  0  0  0
   -0.4948    2.1601   -1.2074 H   0  0  0  0  0  0  0  0  0  0  0  0
    1.3763   -1.4821    0.0431 H   0  0  0  0  0  0  0  0  0  0  0  0
   -0.8839   -2.5059    0.5234 H   0  0  0  0  0  0  0  0  0  0  0  0
   -5.7315    1.4374   -1.7013 S   0  0  0  0  0  0  0  0  0  0  0  0
   -5.4479    1.6767   -3.5263 C   0  0  0  0  0  0  0  0  0  0  0  0
   -5.4521    0.0284   -1.4259 O   0  0  0  0  0  0  0  0  0  0  0  0
   -7.0090    2.0443   -1.3823 O   0  0  0  0  0  0  0  0  0  0  0  0
   -4.5713    2.3579   -1.1124 O   0  0  0  0  0  0  0  0  0  0  0  0
   -4.2093    1.2851   -3.8382 F   0  0  0  0  0  0  0  0  0  0  0  0
   -6.3295    0.9344   -4.1967 F   0  0  0  0  0  0  0  0  0  0  0  0
   -5.6040    2.9576   -3.8491 F   0  0  0  0  0  0  0  0  0  0  0  0
  1 11  1  0  0  0  0
  1  2  1  0  0  0  0
  2  3  1  0  0  0  0
  4  1  2  0  0  0  0
  5  6  2  0  0  0  0
  5  4  1  0  0  0  0
  6 10  1  0  0  0  0
  7  9  2  0  0  0  0
  7  6  1  0  0  0  0
  8  7  2  0  0  0  0
 10 14  1  0  0  0  0
 10 11  2  0  0  0  0
 11 15  1  0  0  0  0
 13  5  1  0  0  0  0
 16 18  2  0  0  0  0
 16 19  2  0  0  0  0
 16 20  1  0  0  0  0
 17 16  1  0  0  0  0
 20 12  1  0  0  0  0
 21 17  1  0  0  0  0
 22 17  1  0  0  0  0
 23 17  1  0  0  0  0
M  RAD  3   2   2   3   3   4   2
M  END
