Coordinates from ORCA-job 4-NO2PhN2+~TfO-_B3LYPG-6-31G_dp-CH-Scan-d09-49-n800
 OpenBabel11261919523D

 23 22  0  0  0  0  0  0  0  0999 V2000
   -1.8058   -0.6563   -0.0967 C   0  0  0  0  0  0  0  0  0  0  0  0
   -3.0737   -1.1925    0.1597 N   0  0  0  0  0  0  0  0  0  0  0  0
   -4.1024   -1.5776    0.3521 N   0  0  0  0  0  0  0  0  0  0  0  0
   -1.8311    0.6710   -0.5413 C   0  0  0  0  0  0  0  0  0  0  0  0
   -0.5065    1.1382   -0.7721 C   0  0  0  0  0  0  0  0  0  0  0  0
    0.6043    0.3339   -0.5629 C   0  0  0  0  0  0  0  0  0  0  0  0
    1.9600    0.8873   -0.8244 N   0  0  0  0  0  0  0  0  0  0  0  0
    2.0342    2.0463   -1.2194 O   0  0  0  0  0  0  0  0  0  0  0  0
    2.9203    0.1440   -0.6278 O   0  0  0  0  0  0  0  0  0  0  0  0
    0.5356   -0.9998   -0.1102 C   0  0  0  0  0  0  0  0  0  0  0  0
   -0.7101   -1.5293    0.1372 C   0  0  0  0  0  0  0  0  0  0  0  0
   -3.9926    2.0845   -0.9650 H   0  0  0  0  0  0  0  0  0  0  0  0
   -0.3342    2.1508   -1.1230 H   0  0  0  0  0  0  0  0  0  0  0  0
    1.4450   -1.5677    0.0313 H   0  0  0  0  0  0  0  0  0  0  0  0
   -0.8403   -2.5483    0.4883 H   0  0  0  0  0  0  0  0  0  0  0  0
   -5.9000    1.4671   -1.7432 S   0  0  0  0  0  0  0  0  0  0  0  0
   -5.5693    1.6753   -3.5659 C   0  0  0  0  0  0  0  0  0  0  0  0
   -5.4887    0.1092   -1.3990 O   0  0  0  0  0  0  0  0  0  0  0  0
   -7.2333    1.9691   -1.4815 O   0  0  0  0  0  0  0  0  0  0  0  0
   -4.8501    2.5304   -1.1502 O   0  0  0  0  0  0  0  0  0  0  0  0
   -4.2804    1.4291   -3.8101 F   0  0  0  0  0  0  0  0  0  0  0  0
   -6.3248    0.8050   -4.2348 F   0  0  0  0  0  0  0  0  0  0  0  0
   -5.8683    2.9140   -3.9439 F   0  0  0  0  0  0  0  0  0  0  0  0
  1 11  1  0  0  0  0
  1  2  1  0  0  0  0
  2  3  1  0  0  0  0
  4  1  2  0  0  0  0
  5  6  2  0  0  0  0
  5  4  1  0  0  0  0
  6 10  1  0  0  0  0
  7  9  2  0  0  0  0
  7  6  1  0  0  0  0
  8  7  2  0  0  0  0
 10 14  1  0  0  0  0
 10 11  2  0  0  0  0
 11 15  1  0  0  0  0
 13  5  1  0  0  0  0
 16 19  2  0  0  0  0
 16 18  2  0  0  0  0
 16 20  1  0  0  0  0
 17 16  1  0  0  0  0
 20 12  1  0  0  0  0
 21 17  1  0  0  0  0
 22 17  1  0  0  0  0
 23 17  1  0  0  0  0
M  RAD  3   2   2   3   3   4   2
M  END
