Coordinates from ORCA-job 4-NO2PhN2+~TfO-_B3LYPG-6-31G_dp-CH-Scan-d09-49-n800
 OpenBabel11261919523D

 23 22  0  0  0  0  0  0  0  0999 V2000
   -1.7788   -0.6574   -0.0965 C   0  0  0  0  0  0  0  0  0  0  0  0
   -3.0520   -1.1861    0.1524 N   0  0  0  0  0  0  0  0  0  0  0  0
   -4.0847   -1.5624    0.3413 N   0  0  0  0  0  0  0  0  0  0  0  0
   -1.7967    0.6723   -0.5332 C   0  0  0  0  0  0  0  0  0  0  0  0
   -0.4679    1.1327   -0.7571 C   0  0  0  0  0  0  0  0  0  0  0  0
    0.6374    0.3207   -0.5492 C   0  0  0  0  0  0  0  0  0  0  0  0
    1.9973    0.8673   -0.8034 N   0  0  0  0  0  0  0  0  0  0  0  0
    2.0799    2.0279   -1.1919 O   0  0  0  0  0  0  0  0  0  0  0  0
    2.9527    0.1175   -0.6072 O   0  0  0  0  0  0  0  0  0  0  0  0
    0.5597   -1.0154   -0.1044 C   0  0  0  0  0  0  0  0  0  0  0  0
   -0.6897   -1.5391    0.1361 C   0  0  0  0  0  0  0  0  0  0  0  0
   -4.0508    2.1501   -0.9807 H   0  0  0  0  0  0  0  0  0  0  0  0
   -0.2880    2.1463   -1.1015 H   0  0  0  0  0  0  0  0  0  0  0  0
    1.4655   -1.5892    0.0368 H   0  0  0  0  0  0  0  0  0  0  0  0
   -0.8272   -2.5593    0.4812 H   0  0  0  0  0  0  0  0  0  0  0  0
   -5.9398    1.4761   -1.7541 S   0  0  0  0  0  0  0  0  0  0  0  0
   -5.6167    1.6772   -3.5793 C   0  0  0  0  0  0  0  0  0  0  0  0
   -5.4917    0.1338   -1.3965 O   0  0  0  0  0  0  0  0  0  0  0  0
   -7.2840    1.9480   -1.4939 O   0  0  0  0  0  0  0  0  0  0  0  0
   -4.9152    2.5736   -1.1730 O   0  0  0  0  0  0  0  0  0  0  0  0
   -4.3223    1.4628   -3.8230 F   0  0  0  0  0  0  0  0  0  0  0  0
   -6.3503    0.7819   -4.2390 F   0  0  0  0  0  0  0  0  0  0  0  0
   -5.9489    2.9044   -3.9665 F   0  0  0  0  0  0  0  0  0  0  0  0
  1 11  1  0  0  0  0
  1  2  1  0  0  0  0
  2  3  1  0  0  0  0
  4  1  2  0  0  0  0
  5  6  2  0  0  0  0
  5  4  1  0  0  0  0
  6 10  1  0  0  0  0
  7  9  2  0  0  0  0
  7  6  1  0  0  0  0
  8  7  2  0  0  0  0
 10 14  1  0  0  0  0
 10 11  2  0  0  0  0
 11 15  1  0  0  0  0
 13  5  1  0  0  0  0
 16 19  2  0  0  0  0
 16 18  2  0  0  0  0
 16 20  1  0  0  0  0
 17 16  1  0  0  0  0
 20 12  1  0  0  0  0
 21 17  1  0  0  0  0
 22 17  1  0  0  0  0
 23 17  1  0  0  0  0
M  RAD  3   2   2   3   3   4   2
M  END
