Coordinates from ORCA-job 4-NO2PhN2+~TfO-_B3LYPG-6-31G_dp-CH-Scan-d09-49-n800
 OpenBabel11261919523D

 23 22  0  0  0  0  0  0  0  0999 V2000
   -2.0123   -0.6317   -0.0831 C   0  0  0  0  0  0  0  0  0  0  0  0
   -3.2459   -1.2069    0.2271 N   0  0  0  0  0  0  0  0  0  0  0  0
   -4.2495   -1.6308    0.4566 N   0  0  0  0  0  0  0  0  0  0  0  0
   -2.0690    0.6726   -0.5944 C   0  0  0  0  0  0  0  0  0  0  0  0
   -0.7778    1.1790   -0.8764 C   0  0  0  0  0  0  0  0  0  0  0  0
    0.3646    0.4240   -0.6483 C   0  0  0  0  0  0  0  0  0  0  0  0
    1.6937    1.0126   -0.9635 N   0  0  0  0  0  0  0  0  0  0  0  0
    1.7139    2.1515   -1.4165 O   0  0  0  0  0  0  0  0  0  0  0  0
    2.6817    0.3141   -0.7469 O   0  0  0  0  0  0  0  0  0  0  0  0
    0.3471   -0.8830   -0.1298 C   0  0  0  0  0  0  0  0  0  0  0  0
   -0.8767   -1.4419    0.1681 C   0  0  0  0  0  0  0  0  0  0  0  0
   -3.4735    1.5598   -0.8820 H   0  0  0  0  0  0  0  0  0  0  0  0
   -0.6581    2.1782   -1.2810 H   0  0  0  0  0  0  0  0  0  0  0  0
    1.2767   -1.4146    0.0229 H   0  0  0  0  0  0  0  0  0  0  0  0
   -0.9636   -2.4460    0.5695 H   0  0  0  0  0  0  0  0  0  0  0  0
   -5.5352    1.3605   -1.6765 S   0  0  0  0  0  0  0  0  0  0  0  0
   -5.2882    1.7026   -3.4875 C   0  0  0  0  0  0  0  0  0  0  0  0
   -5.3088   -0.0820   -1.5160 O   0  0  0  0  0  0  0  0  0  0  0  0
   -6.8069    1.9573   -1.3048 O   0  0  0  0  0  0  0  0  0  0  0  0
   -4.3454    2.1735   -1.0609 O   0  0  0  0  0  0  0  0  0  0  0  0
   -4.0644    1.3027   -3.8554 F   0  0  0  0  0  0  0  0  0  0  0  0
   -6.1990    1.0266   -4.1906 F   0  0  0  0  0  0  0  0  0  0  0  0
   -5.4157    3.0058   -3.7336 F   0  0  0  0  0  0  0  0  0  0  0  0
  1 11  1  0  0  0  0
  1  2  1  0  0  0  0
  2  3  1  0  0  0  0
  4  1  2  0  0  0  0
  5  6  2  0  0  0  0
  5  4  1  0  0  0  0
  6 10  1  0  0  0  0
  7  9  2  0  0  0  0
  7  6  1  0  0  0  0
  8  7  2  0  0  0  0
 10 14  1  0  0  0  0
 10 11  2  0  0  0  0
 11 15  1  0  0  0  0
 13  5  1  0  0  0  0
 16 18  2  0  0  0  0
 16 19  2  0  0  0  0
 16 20  1  0  0  0  0
 17 16  1  0  0  0  0
 20 12  1  0  0  0  0
 21 17  1  0  0  0  0
 22 17  1  0  0  0  0
 23 17  1  0  0  0  0
M  RAD  3   2   2   3   3   4   2
M  END
