Coordinates from ORCA-job 4-NO2PhN2+~TfO-_B3LYPG-6-31G_dp-CH-Scan-d09-49-n800
 OpenBabel11261919523D

 23 22  0  0  0  0  0  0  0  0999 V2000
   -2.0146   -0.6301   -0.0819 C   0  0  0  0  0  0  0  0  0  0  0  0
   -3.2482   -1.2046    0.2293 N   0  0  0  0  0  0  0  0  0  0  0  0
   -4.2519   -1.6279    0.4594 N   0  0  0  0  0  0  0  0  0  0  0  0
   -2.0703    0.6740   -0.5941 C   0  0  0  0  0  0  0  0  0  0  0  0
   -0.7796    1.1799   -0.8774 C   0  0  0  0  0  0  0  0  0  0  0  0
    0.3626    0.4245   -0.6493 C   0  0  0  0  0  0  0  0  0  0  0  0
    1.6918    1.0124   -0.9656 N   0  0  0  0  0  0  0  0  0  0  0  0
    1.7122    2.1510   -1.4193 O   0  0  0  0  0  0  0  0  0  0  0  0
    2.6796    0.3135   -0.7493 O   0  0  0  0  0  0  0  0  0  0  0  0
    0.3448   -0.8820   -0.1299 C   0  0  0  0  0  0  0  0  0  0  0  0
   -0.8791   -1.4403    0.1691 C   0  0  0  0  0  0  0  0  0  0  0  0
   -3.4673    1.5547   -0.8800 H   0  0  0  0  0  0  0  0  0  0  0  0
   -0.6600    2.1787   -1.2828 H   0  0  0  0  0  0  0  0  0  0  0  0
    1.2742   -1.4140    0.0226 H   0  0  0  0  0  0  0  0  0  0  0  0
   -0.9661   -2.4441    0.5712 H   0  0  0  0  0  0  0  0  0  0  0  0
   -5.5312    1.3570   -1.6767 S   0  0  0  0  0  0  0  0  0  0  0  0
   -5.2859    1.7042   -3.4869 C   0  0  0  0  0  0  0  0  0  0  0  0
   -5.3025   -0.0859   -1.5206 O   0  0  0  0  0  0  0  0  0  0  0  0
   -6.8046    1.9494   -1.3033 O   0  0  0  0  0  0  0  0  0  0  0  0
   -4.3430    2.1694   -1.0596 O   0  0  0  0  0  0  0  0  0  0  0  0
   -4.0619    1.3065   -3.8569 F   0  0  0  0  0  0  0  0  0  0  0  0
   -6.1965    1.0292   -4.1914 F   0  0  0  0  0  0  0  0  0  0  0  0
   -5.4148    3.0079   -3.7295 F   0  0  0  0  0  0  0  0  0  0  0  0
  1 11  1  0  0  0  0
  1  2  1  0  0  0  0
  2  3  1  0  0  0  0
  4  1  2  0  0  0  0
  5  6  2  0  0  0  0
  5  4  1  0  0  0  0
  6 10  1  0  0  0  0
  7  9  2  0  0  0  0
  7  6  1  0  0  0  0
  8  7  2  0  0  0  0
 10 14  1  0  0  0  0
 10 11  2  0  0  0  0
 11 15  1  0  0  0  0
 13  5  1  0  0  0  0
 16 18  2  0  0  0  0
 16 19  2  0  0  0  0
 16 20  1  0  0  0  0
 17 16  1  0  0  0  0
 20 12  1  0  0  0  0
 21 17  1  0  0  0  0
 22 17  1  0  0  0  0
 23 17  1  0  0  0  0
M  RAD  3   2   2   3   3   4   2
M  END
