Coordinates from ORCA-job 4-NO2PhN2+~TfO-_B3LYPG-6-31G_dp-CH-Scan-d09-49-n800
 OpenBabel11261919533D

 23 22  0  0  0  0  0  0  0  0999 V2000
   -2.0026   -0.2117    0.5361 C   0  0  0  0  0  0  0  0  0  0  0  0
   -3.1092   -0.5019    1.3558 N   0  0  0  0  0  0  0  0  0  0  0  0
   -3.9637   -0.6562    2.0573 N   0  0  0  0  0  0  0  0  0  0  0  0
   -1.3589    0.9547    0.9451 C   0  0  0  0  0  0  0  0  0  0  0  0
   -0.2477    1.2117    0.0860 C   0  0  0  0  0  0  0  0  0  0  0  0
    0.0711    0.3748   -0.9732 C   0  0  0  0  0  0  0  0  0  0  0  0
    1.2383    0.7048   -1.8334 N   0  0  0  0  0  0  0  0  0  0  0  0
    1.8852    1.7104   -1.5564 O   0  0  0  0  0  0  0  0  0  0  0  0
    1.4833   -0.0511   -2.7738 O   0  0  0  0  0  0  0  0  0  0  0  0
   -0.6526   -0.7930   -1.3042 C   0  0  0  0  0  0  0  0  0  0  0  0
   -1.7406   -1.1153   -0.5263 C   0  0  0  0  0  0  0  0  0  0  0  0
   -5.4793    2.7770   -0.7953 H   0  0  0  0  0  0  0  0  0  0  0  0
    0.3822    2.0827    0.2440 H   0  0  0  0  0  0  0  0  0  0  0  0
   -0.3426   -1.3969   -2.1464 H   0  0  0  0  0  0  0  0  0  0  0  0
   -2.3498   -1.9934   -0.7186 H   0  0  0  0  0  0  0  0  0  0  0  0
   -5.4309    0.9746   -1.9618 S   0  0  0  0  0  0  0  0  0  0  0  0
   -3.8517    1.1920   -2.9339 C   0  0  0  0  0  0  0  0  0  0  0  0
   -5.0726    0.3404   -0.6974 O   0  0  0  0  0  0  0  0  0  0  0  0
   -6.4347    0.4450   -2.8585 O   0  0  0  0  0  0  0  0  0  0  0  0
   -5.7892    2.5349   -1.6856 O   0  0  0  0  0  0  0  0  0  0  0  0
   -2.9668    1.8484   -2.1841 F   0  0  0  0  0  0  0  0  0  0  0  0
   -3.3827   -0.0187   -3.2310 F   0  0  0  0  0  0  0  0  0  0  0  0
   -4.0968    1.8704   -4.0471 F   0  0  0  0  0  0  0  0  0  0  0  0
  1  4  1  0  0  0  0
  1  2  1  0  0  0  0
  2  3  1  0  0  0  0
  5 13  1  0  0  0  0
  5  4  2  0  0  0  0
  6  5  1  0  0  0  0
  7  8  2  0  0  0  0
  7  6  1  0  0  0  0
  9  7  2  0  0  0  0
 10  6  2  0  0  0  0
 10 11  1  0  0  0  0
 11  1  2  0  0  0  0
 14 10  1  0  0  0  0
 15 11  1  0  0  0  0
 16 20  1  0  0  0  0
 16 18  2  0  0  0  0
 17 21  1  0  0  0  0
 17 16  1  0  0  0  0
 19 16  2  0  0  0  0
 20 12  1  0  0  0  0
 22 17  1  0  0  0  0
 23 17  1  0  0  0  0
M  RAD  3   2   2   3   3   4   2
M  END
