Coordinates from ORCA-job 4-NO2PhN2+~TfO-_B3LYPG-6-31G_dp-CH-Scan-d09-49-n800
 OpenBabel11261919523D

 23 22  0  0  0  0  0  0  0  0999 V2000
   -1.9572   -0.6493   -0.0961 C   0  0  0  0  0  0  0  0  0  0  0  0
   -3.1971   -1.2233    0.1963 N   0  0  0  0  0  0  0  0  0  0  0  0
   -4.2054   -1.6438    0.4142 N   0  0  0  0  0  0  0  0  0  0  0  0
   -2.0174    0.6617   -0.5889 C   0  0  0  0  0  0  0  0  0  0  0  0
   -0.7179    1.1658   -0.8537 C   0  0  0  0  0  0  0  0  0  0  0  0
    0.4211    0.4055   -0.6290 C   0  0  0  0  0  0  0  0  0  0  0  0
    1.7541    0.9945   -0.9268 N   0  0  0  0  0  0  0  0  0  0  0  0
    1.7821    2.1398   -1.3640 O   0  0  0  0  0  0  0  0  0  0  0  0
    2.7396    0.2909   -0.7136 O   0  0  0  0  0  0  0  0  0  0  0  0
    0.3990   -0.9101   -0.1287 C   0  0  0  0  0  0  0  0  0  0  0  0
   -0.8272   -1.4702    0.1528 C   0  0  0  0  0  0  0  0  0  0  0  0
   -3.6260    1.6922   -0.9050 H   0  0  0  0  0  0  0  0  0  0  0  0
   -0.5883    2.1702   -1.2427 H   0  0  0  0  0  0  0  0  0  0  0  0
    1.3270   -1.4448    0.0224 H   0  0  0  0  0  0  0  0  0  0  0  0
   -0.9194   -2.4796    0.5402 H   0  0  0  0  0  0  0  0  0  0  0  0
   -5.6388    1.4045   -1.6849 S   0  0  0  0  0  0  0  0  0  0  0  0
   -5.3450    1.6831   -3.5016 C   0  0  0  0  0  0  0  0  0  0  0  0
   -5.4038   -0.0228   -1.4544 O   0  0  0  0  0  0  0  0  0  0  0  0
   -6.9078    2.0274   -1.3578 O   0  0  0  0  0  0  0  0  0  0  0  0
   -4.4609    2.2655   -1.0690 O   0  0  0  0  0  0  0  0  0  0  0  0
   -4.1120    1.2759   -3.8208 F   0  0  0  0  0  0  0  0  0  0  0  0
   -6.2369    0.9757   -4.1967 F   0  0  0  0  0  0  0  0  0  0  0  0
   -5.4740    2.9749   -3.7949 F   0  0  0  0  0  0  0  0  0  0  0  0
  1 11  1  0  0  0  0
  1  2  1  0  0  0  0
  2  3  1  0  0  0  0
  4  1  2  0  0  0  0
  5  6  2  0  0  0  0
  5  4  1  0  0  0  0
  6 10  1  0  0  0  0
  7  9  2  0  0  0  0
  7  6  1  0  0  0  0
  8  7  2  0  0  0  0
 10 14  1  0  0  0  0
 10 11  2  0  0  0  0
 11 15  1  0  0  0  0
 13  5  1  0  0  0  0
 16 18  2  0  0  0  0
 16 19  2  0  0  0  0
 16 20  1  0  0  0  0
 17 16  1  0  0  0  0
 20 12  1  0  0  0  0
 21 17  1  0  0  0  0
 22 17  1  0  0  0  0
 23 17  1  0  0  0  0
M  RAD  3   2   2   3   3   4   2
M  END
