Coordinates from ORCA-job 4-NO2PhN2+~TfO-_B3LYPG-6-31G_dp-CH-Scan-d09-49-n800
 OpenBabel11261919533D

 23 22  0  0  0  0  0  0  0  0999 V2000
   -1.5106   -0.6049   -0.0202 C   0  0  0  0  0  0  0  0  0  0  0  0
   -2.8396   -1.0046    0.2120 N   0  0  0  0  0  0  0  0  0  0  0  0
   -3.9141   -1.2503    0.3901 N   0  0  0  0  0  0  0  0  0  0  0  0
   -1.4155    0.7507   -0.3372 C   0  0  0  0  0  0  0  0  0  0  0  0
   -0.0457    1.0931   -0.5523 C   0  0  0  0  0  0  0  0  0  0  0  0
    0.9740    0.1591   -0.4478 C   0  0  0  0  0  0  0  0  0  0  0  0
    2.3782    0.5854   -0.6885 N   0  0  0  0  0  0  0  0  0  0  0  0
    2.5747    1.7590   -0.9890 O   0  0  0  0  0  0  0  0  0  0  0  0
    3.2579   -0.2674   -0.5701 O   0  0  0  0  0  0  0  0  0  0  0  0
    0.7700   -1.1993   -0.1185 C   0  0  0  0  0  0  0  0  0  0  0  0
   -0.5210   -1.6156    0.1091 C   0  0  0  0  0  0  0  0  0  0  0  0
   -4.9920    2.9486   -1.0572 H   0  0  0  0  0  0  0  0  0  0  0  0
    0.2331    2.1113   -0.8089 H   0  0  0  0  0  0  0  0  0  0  0  0
    1.6168   -1.8687   -0.0517 H   0  0  0  0  0  0  0  0  0  0  0  0
   -0.7572   -2.6432    0.3707 H   0  0  0  0  0  0  0  0  0  0  0  0
   -6.3612    1.5165   -1.8895 S   0  0  0  0  0  0  0  0  0  0  0  0
   -5.9477    1.6914   -3.7004 C   0  0  0  0  0  0  0  0  0  0  0  0
   -5.4584    0.5150   -1.3373 O   0  0  0  0  0  0  0  0  0  0  0  0
   -7.8016    1.4419   -1.7715 O   0  0  0  0  0  0  0  0  0  0  0  0
   -5.9106    2.9901   -1.3767 O   0  0  0  0  0  0  0  0  0  0  0  0
   -4.6543    1.9925   -3.8245 F   0  0  0  0  0  0  0  0  0  0  0  0
   -6.1993    0.5310   -4.3021 F   0  0  0  0  0  0  0  0  0  0  0  0
   -6.6883    2.6520   -4.2412 F   0  0  0  0  0  0  0  0  0  0  0  0
  1 11  1  0  0  0  0
  1  2  1  0  0  0  0
  2  3  1  0  0  0  0
  4  1  2  0  0  0  0
  5  6  2  0  0  0  0
  5  4  1  0  0  0  0
  6 10  1  0  0  0  0
  7  9  2  0  0  0  0
  7  6  1  0  0  0  0
  8  7  2  0  0  0  0
 10 14  1  0  0  0  0
 10 11  2  0  0  0  0
 11 15  1  0  0  0  0
 13  5  1  0  0  0  0
 16 19  2  0  0  0  0
 16 20  1  0  0  0  0
 16 18  2  0  0  0  0
 17 16  1  0  0  0  0
 20 12  1  0  0  0  0
 21 17  1  0  0  0  0
 22 17  1  0  0  0  0
 23 17  1  0  0  0  0
M  RAD  3   2   2   3   3   4   2
M  END
