Coordinates from ORCA-job 4-NO2PhN2+~TfO-_B3LYPG-6-31G_dp-CH-Scan-d09-49-n800
 OpenBabel11261919523D

 23 22  0  0  0  0  0  0  0  0999 V2000
   -1.8778   -0.6593   -0.1080 C   0  0  0  0  0  0  0  0  0  0  0  0
   -3.1315   -1.2195    0.1571 N   0  0  0  0  0  0  0  0  0  0  0  0
   -4.1494   -1.6279    0.3558 N   0  0  0  0  0  0  0  0  0  0  0  0
   -1.9227    0.6580   -0.5828 C   0  0  0  0  0  0  0  0  0  0  0  0
   -0.6102    1.1492   -0.8200 C   0  0  0  0  0  0  0  0  0  0  0  0
    0.5164    0.3731   -0.5886 C   0  0  0  0  0  0  0  0  0  0  0  0
    1.8609    0.9501   -0.8571 N   0  0  0  0  0  0  0  0  0  0  0  0
    1.9106    2.1016   -1.2762 O   0  0  0  0  0  0  0  0  0  0  0  0
    2.8354    0.2317   -0.6405 O   0  0  0  0  0  0  0  0  0  0  0  0
    0.4729   -0.9503   -0.1072 C   0  0  0  0  0  0  0  0  0  0  0  0
   -0.7629   -1.5003    0.1476 C   0  0  0  0  0  0  0  0  0  0  0  0
   -3.7863    1.8648   -0.9580 H   0  0  0  0  0  0  0  0  0  0  0  0
   -0.4601    2.1572   -1.1926 H   0  0  0  0  0  0  0  0  0  0  0  0
    1.3930   -1.4967    0.0503 H   0  0  0  0  0  0  0  0  0  0  0  0
   -0.8727   -2.5139    0.5199 H   0  0  0  0  0  0  0  0  0  0  0  0
   -5.7650    1.4440   -1.7100 S   0  0  0  0  0  0  0  0  0  0  0  0
   -5.4829    1.6778   -3.5363 C   0  0  0  0  0  0  0  0  0  0  0  0
   -5.4616    0.0428   -1.4239 O   0  0  0  0  0  0  0  0  0  0  0  0
   -7.0502    2.0353   -1.3941 O   0  0  0  0  0  0  0  0  0  0  0  0
   -4.6184    2.3897   -1.1257 O   0  0  0  0  0  0  0  0  0  0  0  0
   -4.2398    1.2992   -3.8451 F   0  0  0  0  0  0  0  0  0  0  0  0
   -6.3557    0.9217   -4.2025 F   0  0  0  0  0  0  0  0  0  0  0  0
   -5.6541    2.9551   -3.8650 F   0  0  0  0  0  0  0  0  0  0  0  0
  1 11  1  0  0  0  0
  1  2  1  0  0  0  0
  2  3  1  0  0  0  0
  4  1  2  0  0  0  0
  5  6  2  0  0  0  0
  5  4  1  0  0  0  0
  6 10  1  0  0  0  0
  7  9  2  0  0  0  0
  7  6  1  0  0  0  0
  8  7  2  0  0  0  0
 10 14  1  0  0  0  0
 10 11  2  0  0  0  0
 11 15  1  0  0  0  0
 13  5  1  0  0  0  0
 16 18  2  0  0  0  0
 16 19  2  0  0  0  0
 16 20  1  0  0  0  0
 17 16  1  0  0  0  0
 20 12  1  0  0  0  0
 21 17  1  0  0  0  0
 22 17  1  0  0  0  0
 23 17  1  0  0  0  0
M  RAD  3   2   2   3   3   4   2
M  END
