Coordinates from ORCA-job 4-NO2PhN2+~TfO-_B3LYPG-6-31G_dp-CH-Scan-d09-49-n800
 OpenBabel11261919523D

 23 22  0  0  0  0  0  0  0  0999 V2000
   -1.9885   -0.6415   -0.0885 C   0  0  0  0  0  0  0  0  0  0  0  0
   -3.2240   -1.2179    0.2150 N   0  0  0  0  0  0  0  0  0  0  0  0
   -4.2290   -1.6412    0.4409 N   0  0  0  0  0  0  0  0  0  0  0  0
   -2.0502    0.6661   -0.5907 C   0  0  0  0  0  0  0  0  0  0  0  0
   -0.7556    1.1727   -0.8666 C   0  0  0  0  0  0  0  0  0  0  0  0
    0.3865    0.4167   -0.6421 C   0  0  0  0  0  0  0  0  0  0  0  0
    1.7162    1.0071   -0.9514 N   0  0  0  0  0  0  0  0  0  0  0  0
    1.7380    2.1489   -1.3975 O   0  0  0  0  0  0  0  0  0  0  0  0
    2.7043    0.3076   -0.7377 O   0  0  0  0  0  0  0  0  0  0  0  0
    0.3694   -0.8946   -0.1323 C   0  0  0  0  0  0  0  0  0  0  0  0
   -0.8542   -1.4556    0.1597 C   0  0  0  0  0  0  0  0  0  0  0  0
   -3.5489    1.6196   -0.8888 H   0  0  0  0  0  0  0  0  0  0  0  0
   -0.6328    2.1746   -1.2638 H   0  0  0  0  0  0  0  0  0  0  0  0
    1.2993   -1.4264    0.0181 H   0  0  0  0  0  0  0  0  0  0  0  0
   -0.9418   -2.4624    0.5547 H   0  0  0  0  0  0  0  0  0  0  0  0
   -5.5826    1.3814   -1.6788 S   0  0  0  0  0  0  0  0  0  0  0  0
   -5.3040    1.6925   -3.4918 C   0  0  0  0  0  0  0  0  0  0  0  0
   -5.3583   -0.0547   -1.4835 O   0  0  0  0  0  0  0  0  0  0  0  0
   -6.8513    1.9972   -1.3333 O   0  0  0  0  0  0  0  0  0  0  0  0
   -4.3974    2.2135   -1.0574 O   0  0  0  0  0  0  0  0  0  0  0  0
   -4.0754    1.2848   -3.8308 F   0  0  0  0  0  0  0  0  0  0  0  0
   -6.2049    1.0043   -4.1951 F   0  0  0  0  0  0  0  0  0  0  0  0
   -5.4270    2.9908   -3.7609 F   0  0  0  0  0  0  0  0  0  0  0  0
  1 11  1  0  0  0  0
  1  2  1  0  0  0  0
  2  3  1  0  0  0  0
  4  1  2  0  0  0  0
  5  6  2  0  0  0  0
  5  4  1  0  0  0  0
  6 10  1  0  0  0  0
  7  9  2  0  0  0  0
  7  6  1  0  0  0  0
  8  7  2  0  0  0  0
 10 14  1  0  0  0  0
 10 11  2  0  0  0  0
 11 15  1  0  0  0  0
 13  5  1  0  0  0  0
 16 18  2  0  0  0  0
 16 19  2  0  0  0  0
 16 20  1  0  0  0  0
 17 16  1  0  0  0  0
 20 12  1  0  0  0  0
 21 17  1  0  0  0  0
 22 17  1  0  0  0  0
 23 17  1  0  0  0  0
M  RAD  3   2   2   3   3   4   2
M  END
