Coordinates from ORCA-job 4-NO2PhN2+~TfO-_B3LYPG-6-31G_dp-CH-Scan-d09-49-n800
 OpenBabel11261919523D

 23 22  0  0  0  0  0  0  0  0999 V2000
   -1.9531   -0.6515   -0.0987 C   0  0  0  0  0  0  0  0  0  0  0  0
   -3.1934   -1.2262    0.1905 N   0  0  0  0  0  0  0  0  0  0  0  0
   -4.2019   -1.6476    0.4061 N   0  0  0  0  0  0  0  0  0  0  0  0
   -2.0129    0.6597   -0.5909 C   0  0  0  0  0  0  0  0  0  0  0  0
   -0.7128    1.1643   -0.8523 C   0  0  0  0  0  0  0  0  0  0  0  0
    0.4260    0.4043   -0.6253 C   0  0  0  0  0  0  0  0  0  0  0  0
    1.7595    0.9940   -0.9197 N   0  0  0  0  0  0  0  0  0  0  0  0
    1.7882    2.1395   -1.3561 O   0  0  0  0  0  0  0  0  0  0  0  0
    2.7447    0.2904   -0.7051 O   0  0  0  0  0  0  0  0  0  0  0  0
    0.4032   -0.9116   -0.1259 C   0  0  0  0  0  0  0  0  0  0  0  0
   -0.8234   -1.4722    0.1524 C   0  0  0  0  0  0  0  0  0  0  0  0
   -3.6279    1.6973   -0.9124 H   0  0  0  0  0  0  0  0  0  0  0  0
   -0.5825    2.1689   -1.2405 H   0  0  0  0  0  0  0  0  0  0  0  0
    1.3311   -1.4460    0.0272 H   0  0  0  0  0  0  0  0  0  0  0  0
   -0.9162   -2.4819    0.5391 H   0  0  0  0  0  0  0  0  0  0  0  0
   -5.6425    1.4097   -1.6849 S   0  0  0  0  0  0  0  0  0  0  0  0
   -5.3569    1.6823   -3.5039 C   0  0  0  0  0  0  0  0  0  0  0  0
   -5.4082   -0.0169   -1.4507 O   0  0  0  0  0  0  0  0  0  0  0  0
   -6.9086    2.0360   -1.3536 O   0  0  0  0  0  0  0  0  0  0  0  0
   -4.4602    2.2716   -1.0776 O   0  0  0  0  0  0  0  0  0  0  0  0
   -4.1252    1.2743   -3.8271 F   0  0  0  0  0  0  0  0  0  0  0  0
   -6.2517    0.9723   -4.1925 F   0  0  0  0  0  0  0  0  0  0  0  0
   -5.4876    2.9730   -3.8009 F   0  0  0  0  0  0  0  0  0  0  0  0
  1 11  1  0  0  0  0
  1  2  1  0  0  0  0
  2  3  1  0  0  0  0
  4  1  2  0  0  0  0
  5  6  2  0  0  0  0
  5  4  1  0  0  0  0
  6 10  1  0  0  0  0
  7  9  2  0  0  0  0
  7  6  1  0  0  0  0
  8  7  2  0  0  0  0
 10 14  1  0  0  0  0
 10 11  2  0  0  0  0
 11 15  1  0  0  0  0
 13  5  1  0  0  0  0
 16 18  2  0  0  0  0
 16 19  2  0  0  0  0
 16 20  1  0  0  0  0
 17 16  1  0  0  0  0
 20 12  1  0  0  0  0
 21 17  1  0  0  0  0
 22 17  1  0  0  0  0
 23 17  1  0  0  0  0
M  RAD  3   2   2   3   3   4   2
M  END
