Coordinates from ORCA-job 4-NO2PhN2+~TfO-_B3LYPG-6-31G_dp-CH-Scan-d09-49-n800
 OpenBabel11261919523D

 23 22  0  0  0  0  0  0  0  0999 V2000
   -1.7073   -0.6641   -0.1067 C   0  0  0  0  0  0  0  0  0  0  0  0
   -2.9936   -1.1772    0.1132 N   0  0  0  0  0  0  0  0  0  0  0  0
   -4.0363   -1.5384    0.2774 N   0  0  0  0  0  0  0  0  0  0  0  0
   -1.7062    0.6698   -0.5280 C   0  0  0  0  0  0  0  0  0  0  0  0
   -0.3670    1.1167   -0.7228 C   0  0  0  0  0  0  0  0  0  0  0  0
    0.7251    0.2895   -0.5053 C   0  0  0  0  0  0  0  0  0  0  0  0
    2.0955    0.8226   -0.7293 N   0  0  0  0  0  0  0  0  0  0  0  0
    2.1992    1.9860   -1.1048 O   0  0  0  0  0  0  0  0  0  0  0  0
    3.0390    0.0596   -0.5251 O   0  0  0  0  0  0  0  0  0  0  0  0
    0.6248   -1.0512   -0.0773 C   0  0  0  0  0  0  0  0  0  0  0  0
   -0.6343   -1.5631    0.1353 C   0  0  0  0  0  0  0  0  0  0  0  0
   -4.1705    2.2956   -1.0471 H   0  0  0  0  0  0  0  0  0  0  0  0
   -0.1685    2.1321   -1.0522 H   0  0  0  0  0  0  0  0  0  0  0  0
    1.5217   -1.6364    0.0731 H   0  0  0  0  0  0  0  0  0  0  0  0
   -0.7899   -2.5854    0.4667 H   0  0  0  0  0  0  0  0  0  0  0  0
   -6.0307    1.5081   -1.7768 S   0  0  0  0  0  0  0  0  0  0  0  0
   -5.7661    1.6804   -3.6148 C   0  0  0  0  0  0  0  0  0  0  0  0
   -5.4990    0.2048   -1.3939 O   0  0  0  0  0  0  0  0  0  0  0  0
   -7.3893    1.9189   -1.4905 O   0  0  0  0  0  0  0  0  0  0  0  0
   -5.0469    2.6766   -1.2542 O   0  0  0  0  0  0  0  0  0  0  0  0
   -4.4722    1.5099   -3.8904 F   0  0  0  0  0  0  0  0  0  0  0  0
   -6.4835    0.7434   -4.2326 F   0  0  0  0  0  0  0  0  0  0  0  0
   -6.1563    2.8854   -4.0168 F   0  0  0  0  0  0  0  0  0  0  0  0
  1  2  1  0  0  0  0
  1 11  2  0  0  0  0
  2  3  1  0  0  0  0
  4  1  1  0  0  0  0
  5  4  2  0  0  0  0
  5  6  1  0  0  0  0
  6 10  2  0  0  0  0
  7  9  2  0  0  0  0
  7  6  1  0  0  0  0
  8  7  2  0  0  0  0
 10 14  1  0  0  0  0
 10 11  1  0  0  0  0
 11 15  1  0  0  0  0
 13  5  1  0  0  0  0
 16 19  2  0  0  0  0
 16 18  2  0  0  0  0
 16 20  1  0  0  0  0
 17 16  1  0  0  0  0
 20 12  1  0  0  0  0
 21 17  1  0  0  0  0
 22 17  1  0  0  0  0
 23 17  1  0  0  0  0
M  RAD  3   2   2   3   3   4   2
M  END
