Coordinates from ORCA-job 4-NO2PhN2+~TfO-_B3LYPG-6-31G_dp-CH-Scan-d09-49-n800
 OpenBabel11261919533D

 23 22  0  0  0  0  0  0  0  0999 V2000
   -2.0084   -0.2150    0.5317 C   0  0  0  0  0  0  0  0  0  0  0  0
   -3.1141   -0.5103    1.3507 N   0  0  0  0  0  0  0  0  0  0  0  0
   -3.9682   -0.6700    2.0515 N   0  0  0  0  0  0  0  0  0  0  0  0
   -1.3745    0.9583    0.9363 C   0  0  0  0  0  0  0  0  0  0  0  0
   -0.2624    1.2186    0.0793 C   0  0  0  0  0  0  0  0  0  0  0  0
    0.0656    0.3784   -0.9745 C   0  0  0  0  0  0  0  0  0  0  0  0
    1.2336    0.7119   -1.8323 N   0  0  0  0  0  0  0  0  0  0  0  0
    1.8732    1.7228   -1.5578 O   0  0  0  0  0  0  0  0  0  0  0  0
    1.4859   -0.0463   -2.7690 O   0  0  0  0  0  0  0  0  0  0  0  0
   -0.6493   -0.7956   -1.3021 C   0  0  0  0  0  0  0  0  0  0  0  0
   -1.7373   -1.1216   -0.5258 C   0  0  0  0  0  0  0  0  0  0  0  0
   -5.4407    2.7845   -0.7894 H   0  0  0  0  0  0  0  0  0  0  0  0
    0.3609    2.0948    0.2348 H   0  0  0  0  0  0  0  0  0  0  0  0
   -0.3329   -1.4013   -2.1408 H   0  0  0  0  0  0  0  0  0  0  0  0
   -2.3401   -2.0046   -0.7158 H   0  0  0  0  0  0  0  0  0  0  0  0
   -5.4284    0.9819   -1.9568 S   0  0  0  0  0  0  0  0  0  0  0  0
   -3.8503    1.1824   -2.9344 C   0  0  0  0  0  0  0  0  0  0  0  0
   -5.0731    0.3399   -0.6954 O   0  0  0  0  0  0  0  0  0  0  0  0
   -6.4425    0.4677   -2.8507 O   0  0  0  0  0  0  0  0  0  0  0  0
   -5.7662    2.5458   -1.6751 O   0  0  0  0  0  0  0  0  0  0  0  0
   -2.9588    1.8362   -2.1898 F   0  0  0  0  0  0  0  0  0  0  0  0
   -3.3904   -0.0326   -3.2273 F   0  0  0  0  0  0  0  0  0  0  0  0
   -4.0936    1.8576   -4.0500 F   0  0  0  0  0  0  0  0  0  0  0  0
  1  4  1  0  0  0  0
  1  2  1  0  0  0  0
  2  3  1  0  0  0  0
  5 13  1  0  0  0  0
  5  4  2  0  0  0  0
  6  5  1  0  0  0  0
  7  8  2  0  0  0  0
  7  6  1  0  0  0  0
  9  7  2  0  0  0  0
 10  6  2  0  0  0  0
 10 11  1  0  0  0  0
 11  1  2  0  0  0  0
 14 10  1  0  0  0  0
 15 11  1  0  0  0  0
 16 20  1  0  0  0  0
 16 18  2  0  0  0  0
 17 21  1  0  0  0  0
 17 16  1  0  0  0  0
 19 16  2  0  0  0  0
 20 12  1  0  0  0  0
 22 17  1  0  0  0  0
 23 17  1  0  0  0  0
M  RAD  3   2   2   3   3   4   2
M  END
