Coordinates from ORCA-job 4-NO2PhN2+~TfO-_B3LYPG-6-31G_dp-CH-Scan-d09-49-n800
 OpenBabel11261919533D

 23 22  0  0  0  0  0  0  0  0999 V2000
   -1.5751   -0.6200   -0.0224 C   0  0  0  0  0  0  0  0  0  0  0  0
   -2.8914   -1.0472    0.2282 N   0  0  0  0  0  0  0  0  0  0  0  0
   -3.9570   -1.3187    0.4205 N   0  0  0  0  0  0  0  0  0  0  0  0
   -1.5109    0.7325   -0.3624 C   0  0  0  0  0  0  0  0  0  0  0  0
   -0.1507    1.0999   -0.5950 C   0  0  0  0  0  0  0  0  0  0  0  0
    0.8899    0.1900   -0.4837 C   0  0  0  0  0  0  0  0  0  0  0  0
    2.2825    0.6424   -0.7437 N   0  0  0  0  0  0  0  0  0  0  0  0
    2.4510    1.8152   -1.0639 O   0  0  0  0  0  0  0  0  0  0  0  0
    3.1810   -0.1898   -0.6206 O   0  0  0  0  0  0  0  0  0  0  0  0
    0.7178   -1.1666   -0.1305 C   0  0  0  0  0  0  0  0  0  0  0  0
   -0.5621   -1.6063    0.1148 C   0  0  0  0  0  0  0  0  0  0  0  0
   -4.8340    2.8524   -1.0062 H   0  0  0  0  0  0  0  0  0  0  0  0
    0.1042    2.1192   -0.8711 H   0  0  0  0  0  0  0  0  0  0  0  0
    1.5792   -1.8168   -0.0599 H   0  0  0  0  0  0  0  0  0  0  0  0
   -0.7739   -2.6343    0.3949 H   0  0  0  0  0  0  0  0  0  0  0  0
   -6.2765    1.5102   -1.8645 S   0  0  0  0  0  0  0  0  0  0  0  0
   -5.8249    1.6771   -3.6672 C   0  0  0  0  0  0  0  0  0  0  0  0
   -5.4448    0.4495   -1.3114 O   0  0  0  0  0  0  0  0  0  0  0  0
   -7.7205    1.5208   -1.7687 O   0  0  0  0  0  0  0  0  0  0  0  0
   -5.7480    2.9480   -1.3276 O   0  0  0  0  0  0  0  0  0  0  0  0
   -4.5164    1.9149   -3.7680 F   0  0  0  0  0  0  0  0  0  0  0  0
   -6.1233    0.5345   -4.2816 F   0  0  0  0  0  0  0  0  0  0  0  0
   -6.5081    2.6767   -4.2129 F   0  0  0  0  0  0  0  0  0  0  0  0
  1 11  1  0  0  0  0
  1  2  1  0  0  0  0
  2  3  1  0  0  0  0
  4  1  2  0  0  0  0
  5  6  2  0  0  0  0
  5  4  1  0  0  0  0
  6 10  1  0  0  0  0
  7  9  2  0  0  0  0
  7  6  1  0  0  0  0
  8  7  2  0  0  0  0
 10 14  1  0  0  0  0
 10 11  2  0  0  0  0
 11 15  1  0  0  0  0
 13  5  1  0  0  0  0
 16 19  2  0  0  0  0
 16 20  1  0  0  0  0
 16 18  2  0  0  0  0
 17 16  1  0  0  0  0
 20 12  1  0  0  0  0
 21 17  1  0  0  0  0
 22 17  1  0  0  0  0
 23 17  1  0  0  0  0
M  RAD  3   2   2   3   3   4   2
M  END
