Coordinates from ORCA-job 4-NO2PhN2+~TfO-_B3LYPG-6-31G_dp-CH-Scan-d09-49-n800
 OpenBabel11261919523D

 23 22  0  0  0  0  0  0  0  0999 V2000
   -2.0379   -0.6019   -0.0788 C   0  0  0  0  0  0  0  0  0  0  0  0
   -3.2798   -1.1571    0.2274 N   0  0  0  0  0  0  0  0  0  0  0  0
   -4.2929   -1.5635    0.4433 N   0  0  0  0  0  0  0  0  0  0  0  0
   -2.0571    0.6933   -0.6141 C   0  0  0  0  0  0  0  0  0  0  0  0
   -0.7685    1.1895   -0.8945 C   0  0  0  0  0  0  0  0  0  0  0  0
    0.3629    0.4254   -0.6390 C   0  0  0  0  0  0  0  0  0  0  0  0
    1.7012    0.9953   -0.9496 N   0  0  0  0  0  0  0  0  0  0  0  0
    1.7356    2.1266   -1.4195 O   0  0  0  0  0  0  0  0  0  0  0  0
    2.6782    0.2892   -0.7119 O   0  0  0  0  0  0  0  0  0  0  0  0
    0.3230   -0.8697   -0.0982 C   0  0  0  0  0  0  0  0  0  0  0  0
   -0.9110   -1.4117    0.1968 C   0  0  0  0  0  0  0  0  0  0  0  0
   -3.2932    1.4595   -0.8924 H   0  0  0  0  0  0  0  0  0  0  0  0
   -0.6424    2.1802   -1.3165 H   0  0  0  0  0  0  0  0  0  0  0  0
    1.2444   -1.4096    0.0744 H   0  0  0  0  0  0  0  0  0  0  0  0
   -1.0115   -2.4078    0.6140 H   0  0  0  0  0  0  0  0  0  0  0  0
   -5.4547    1.3076   -1.6877 S   0  0  0  0  0  0  0  0  0  0  0  0
   -5.3526    1.7401   -3.4916 C   0  0  0  0  0  0  0  0  0  0  0  0
   -5.1643   -0.1387   -1.6285 O   0  0  0  0  0  0  0  0  0  0  0  0
   -6.7447    1.7946   -1.2180 O   0  0  0  0  0  0  0  0  0  0  0  0
   -4.2738    2.1203   -1.1142 O   0  0  0  0  0  0  0  0  0  0  0  0
   -4.1430    1.4114   -3.9675 F   0  0  0  0  0  0  0  0  0  0  0  0
   -6.2829    1.0620   -4.1692 F   0  0  0  0  0  0  0  0  0  0  0  0
   -5.5473    3.0484   -3.6675 F   0  0  0  0  0  0  0  0  0  0  0  0
  1 11  1  0  0  0  0
  1  2  1  0  0  0  0
  2  3  1  0  0  0  0
  4  1  2  0  0  0  0
  5  6  2  0  0  0  0
  5  4  1  0  0  0  0
  6 10  1  0  0  0  0
  7  9  2  0  0  0  0
  7  6  1  0  0  0  0
  8  7  2  0  0  0  0
 10 14  1  0  0  0  0
 10 11  2  0  0  0  0
 11 15  1  0  0  0  0
 13  5  1  0  0  0  0
 16 18  2  0  0  0  0
 16 19  2  0  0  0  0
 16 20  1  0  0  0  0
 17 16  1  0  0  0  0
 20 12  1  0  0  0  0
 21 17  1  0  0  0  0
 22 17  1  0  0  0  0
 23 17  1  0  0  0  0
M  RAD  3   2   2   3   3   4   2
M  END
