Coordinates from ORCA-job 4-NO2PhN2+~TfO-_B3LYPG-6-31G_dp-CH-Scan-d09-49-n800
 OpenBabel11261919523D

 23 22  0  0  0  0  0  0  0  0999 V2000
   -1.8271   -0.6594   -0.1041 C   0  0  0  0  0  0  0  0  0  0  0  0
   -3.0904   -1.2051    0.1516 N   0  0  0  0  0  0  0  0  0  0  0  0
   -4.1159   -1.5986    0.3436 N   0  0  0  0  0  0  0  0  0  0  0  0
   -1.8594    0.6642   -0.5603 C   0  0  0  0  0  0  0  0  0  0  0  0
   -0.5385    1.1408   -0.7895 C   0  0  0  0  0  0  0  0  0  0  0  0
    0.5779    0.3477   -0.5683 C   0  0  0  0  0  0  0  0  0  0  0  0
    1.9301    0.9106   -0.8283 N   0  0  0  0  0  0  0  0  0  0  0  0
    1.9958    2.0670   -1.2320 O   0  0  0  0  0  0  0  0  0  0  0  0
    2.8955    0.1771   -0.6210 O   0  0  0  0  0  0  0  0  0  0  0  0
    0.5180   -0.9823   -0.1049 C   0  0  0  0  0  0  0  0  0  0  0  0
   -0.7245   -1.5202    0.1414 C   0  0  0  0  0  0  0  0  0  0  0  0
   -3.9183    2.0069   -0.9708 H   0  0  0  0  0  0  0  0  0  0  0  0
   -0.3738    2.1519   -1.1482 H   0  0  0  0  0  0  0  0  0  0  0  0
    1.4313   -1.5417    0.0455 H   0  0  0  0  0  0  0  0  0  0  0  0
   -0.8476   -2.5373    0.5002 H   0  0  0  0  0  0  0  0  0  0  0  0
   -5.8566    1.4625   -1.7314 S   0  0  0  0  0  0  0  0  0  0  0  0
   -5.5511    1.6752   -3.5575 C   0  0  0  0  0  0  0  0  0  0  0  0
   -5.4851    0.0878   -1.4068 O   0  0  0  0  0  0  0  0  0  0  0  0
   -7.1704    2.0020   -1.4454 O   0  0  0  0  0  0  0  0  0  0  0  0
   -4.7650    2.4834   -1.1476 O   0  0  0  0  0  0  0  0  0  0  0  0
   -4.2827    1.3618   -3.8317 F   0  0  0  0  0  0  0  0  0  0  0  0
   -6.3662    0.8563   -4.2216 F   0  0  0  0  0  0  0  0  0  0  0  0
   -5.7884    2.9332   -3.9156 F   0  0  0  0  0  0  0  0  0  0  0  0
  1 11  1  0  0  0  0
  1  2  1  0  0  0  0
  2  3  1  0  0  0  0
  4  1  2  0  0  0  0
  5  6  2  0  0  0  0
  5  4  1  0  0  0  0
  6 10  1  0  0  0  0
  7  9  2  0  0  0  0
  7  6  1  0  0  0  0
  8  7  2  0  0  0  0
 10 14  1  0  0  0  0
 10 11  2  0  0  0  0
 11 15  1  0  0  0  0
 13  5  1  0  0  0  0
 16 19  2  0  0  0  0
 16 18  2  0  0  0  0
 16 20  1  0  0  0  0
 17 16  1  0  0  0  0
 20 12  1  0  0  0  0
 21 17  1  0  0  0  0
 22 17  1  0  0  0  0
 23 17  1  0  0  0  0
M  RAD  3   2   2   3   3   4   2
M  END
