Coordinates from ORCA-job 4-NO2PhN2+~TfO-_B3LYPG-6-31G_dp-CH-Scan-d09-49-n800
 OpenBabel11261919523D

 23 22  0  0  0  0  0  0  0  0999 V2000
   -1.8204   -0.6585   -0.1022 C   0  0  0  0  0  0  0  0  0  0  0  0
   -3.0852   -1.2014    0.1535 N   0  0  0  0  0  0  0  0  0  0  0  0
   -4.1118   -1.5909    0.3474 N   0  0  0  0  0  0  0  0  0  0  0  0
   -1.8504    0.6663   -0.5545 C   0  0  0  0  0  0  0  0  0  0  0  0
   -0.5283    1.1401   -0.7841 C   0  0  0  0  0  0  0  0  0  0  0  0
    0.5863    0.3433   -0.5667 C   0  0  0  0  0  0  0  0  0  0  0  0
    1.9396    0.9032   -0.8271 N   0  0  0  0  0  0  0  0  0  0  0  0
    2.0081    2.0606   -1.2276 O   0  0  0  0  0  0  0  0  0  0  0  0
    2.9035    0.1666   -0.6231 O   0  0  0  0  0  0  0  0  0  0  0  0
    0.5236   -0.9879   -0.1069 C   0  0  0  0  0  0  0  0  0  0  0  0
   -0.7199   -1.5232    0.1396 C   0  0  0  0  0  0  0  0  0  0  0  0
   -3.9423    2.0314   -0.9686 H   0  0  0  0  0  0  0  0  0  0  0  0
   -0.3612    2.1516   -1.1402 H   0  0  0  0  0  0  0  0  0  0  0  0
    1.4357   -1.5501    0.0406 H   0  0  0  0  0  0  0  0  0  0  0  0
   -0.8453   -2.5410    0.4958 H   0  0  0  0  0  0  0  0  0  0  0  0
   -5.8709    1.4643   -1.7350 S   0  0  0  0  0  0  0  0  0  0  0  0
   -5.5564    1.6749   -3.5600 C   0  0  0  0  0  0  0  0  0  0  0  0
   -5.4874    0.0946   -1.4039 O   0  0  0  0  0  0  0  0  0  0  0  0
   -7.1910    1.9925   -1.4573 O   0  0  0  0  0  0  0  0  0  0  0  0
   -4.7924    2.4985   -1.1478 O   0  0  0  0  0  0  0  0  0  0  0  0
   -4.2807    1.3831   -3.8235 F   0  0  0  0  0  0  0  0  0  0  0  0
   -6.3520    0.8387   -4.2260 F   0  0  0  0  0  0  0  0  0  0  0  0
   -5.8137    2.9269   -3.9250 F   0  0  0  0  0  0  0  0  0  0  0  0
  1 11  1  0  0  0  0
  1  2  1  0  0  0  0
  2  3  1  0  0  0  0
  4  1  2  0  0  0  0
  5  6  2  0  0  0  0
  5  4  1  0  0  0  0
  6 10  1  0  0  0  0
  7  9  2  0  0  0  0
  7  6  1  0  0  0  0
  8  7  2  0  0  0  0
 10 14  1  0  0  0  0
 10 11  2  0  0  0  0
 11 15  1  0  0  0  0
 13  5  1  0  0  0  0
 16 19  2  0  0  0  0
 16 18  2  0  0  0  0
 16 20  1  0  0  0  0
 17 16  1  0  0  0  0
 20 12  1  0  0  0  0
 21 17  1  0  0  0  0
 22 17  1  0  0  0  0
 23 17  1  0  0  0  0
M  RAD  3   2   2   3   3   4   2
M  END
