Coordinates from ORCA-job 4-NO2PhN2+~TfO-_B3LYPG-6-31G_dp-CH-Scan-d09-49-n800
 OpenBabel11261919523D

 23 22  0  0  0  0  0  0  0  0999 V2000
   -2.1581   -0.2496    0.0835 C   0  0  0  0  0  0  0  0  0  0  0  0
   -3.4292   -0.5456    0.5728 N   0  0  0  0  0  0  0  0  0  0  0  0
   -4.5465   -0.4489    0.7018 N   0  0  0  0  0  0  0  0  0  0  0  0
   -2.0022    0.9148   -0.6816 C   0  0  0  0  0  0  0  0  0  0  0  0
   -0.7284    1.2025   -1.1565 C   0  0  0  0  0  0  0  0  0  0  0  0
    0.3156    0.3291   -0.8555 C   0  0  0  0  0  0  0  0  0  0  0  0
    1.6727    0.6468   -1.3668 N   0  0  0  0  0  0  0  0  0  0  0  0
    1.7953    1.6742   -2.0239 O   0  0  0  0  0  0  0  0  0  0  0  0
    2.5716   -0.1408   -1.0884 O   0  0  0  0  0  0  0  0  0  0  0  0
    0.1535   -0.8291   -0.0950 C   0  0  0  0  0  0  0  0  0  0  0  0
   -1.1116   -1.1280    0.3926 C   0  0  0  0  0  0  0  0  0  0  0  0
   -2.9106    1.5781   -0.8972 H   0  0  0  0  0  0  0  0  0  0  0  0
   -0.5383    2.0824   -1.7580 H   0  0  0  0  0  0  0  0  0  0  0  0
    1.0067   -1.4655    0.1006 H   0  0  0  0  0  0  0  0  0  0  0  0
   -1.2945   -2.0157    0.9871 H   0  0  0  0  0  0  0  0  0  0  0  0
   -5.4664    0.5628   -1.9276 S   0  0  0  0  0  0  0  0  0  0  0  0
   -5.0941    2.0115   -3.0394 C   0  0  0  0  0  0  0  0  0  0  0  0
   -4.4243   -0.4366   -2.2454 O   0  0  0  0  0  0  0  0  0  0  0  0
   -6.8626    0.2226   -2.1941 O   0  0  0  0  0  0  0  0  0  0  0  0
   -5.2057    1.1958   -0.5615 O   0  0  0  0  0  0  0  0  0  0  0  0
   -3.8322    2.4560   -2.8212 F   0  0  0  0  0  0  0  0  0  0  0  0
   -5.1874    1.6462   -4.3198 F   0  0  0  0  0  0  0  0  0  0  0  0
   -5.9354    3.0206   -2.8092 F   0  0  0  0  0  0  0  0  0  0  0  0
  1 11  1  0  0  0  0
  1  2  1  0  0  0  0
  2  3  1  0  0  0  0
  4  1  2  0  0  0  0
  5  6  2  0  0  0  0
  5  4  1  0  0  0  0
  6 10  1  0  0  0  0
  7  9  2  0  0  0  0
  7  6  1  0  0  0  0
  8  7  2  0  0  0  0
 10 14  1  0  0  0  0
 10 11  2  0  0  0  0
 11 15  1  0  0  0  0
 12  4  1  0  0  0  0
 13  5  1  0  0  0  0
 16 20  1  0  0  0  0
 17 21  1  0  0  0  0
 17 23  1  0  0  0  0
 17 16  1  0  0  0  0
 18 16  2  0  0  0  0
 19 16  2  0  0  0  0
 22 17  1  0  0  0  0
M  RAD  3   2   2   3   3  20   2
M  END
