Coordinates from ORCA-job 4-NO2PhN2+~TfO-_B3LYPG-6-31G_dp-CH-Scan-d09-49-n800
 OpenBabel11261919533D

 23 22  0  0  0  0  0  0  0  0999 V2000
   -1.5637   -0.6711   -0.1222 C   0  0  0  0  0  0  0  0  0  0  0  0
   -2.8769   -1.1428    0.0441 N   0  0  0  0  0  0  0  0  0  0  0  0
   -3.9411   -1.4596    0.1601 N   0  0  0  0  0  0  0  0  0  0  0  0
   -1.5185    0.6735   -0.4989 C   0  0  0  0  0  0  0  0  0  0  0  0
   -0.1588    1.0832   -0.6429 C   0  0  0  0  0  0  0  0  0  0  0  0
    0.9013    0.2157   -0.4261 C   0  0  0  0  0  0  0  0  0  0  0  0
    2.2930    0.7114   -0.5971 N   0  0  0  0  0  0  0  0  0  0  0  0
    2.4439    1.8827   -0.9306 O   0  0  0  0  0  0  0  0  0  0  0  0
    3.2075   -0.0867   -0.3938 O   0  0  0  0  0  0  0  0  0  0  0  0
    0.7498   -1.1355   -0.0449 C   0  0  0  0  0  0  0  0  0  0  0  0
   -0.5292   -1.6144    0.1187 C   0  0  0  0  0  0  0  0  0  0  0  0
   -4.4992    2.6846   -1.1737 H   0  0  0  0  0  0  0  0  0  0  0  0
    0.0809    2.1023   -0.9324 H   0  0  0  0  0  0  0  0  0  0  0  0
    1.6249   -1.7520    0.1088 H   0  0  0  0  0  0  0  0  0  0  0  0
   -0.7256   -2.6413    0.4131 H   0  0  0  0  0  0  0  0  0  0  0  0
   -6.2271    1.5848   -1.8181 S   0  0  0  0  0  0  0  0  0  0  0  0
   -6.0229    1.6659   -3.6710 C   0  0  0  0  0  0  0  0  0  0  0  0
   -5.4928    0.4130   -1.3585 O   0  0  0  0  0  0  0  0  0  0  0  0
   -7.6246    1.8139   -1.5191 O   0  0  0  0  0  0  0  0  0  0  0  0
   -5.4138    2.9262   -1.4072 O   0  0  0  0  0  0  0  0  0  0  0  0
   -4.7225    1.6830   -3.9661 F   0  0  0  0  0  0  0  0  0  0  0  0
   -6.5902    0.5849   -4.2023 F   0  0  0  0  0  0  0  0  0  0  0  0
   -6.6067    2.7617   -4.1428 F   0  0  0  0  0  0  0  0  0  0  0  0
  1  2  1  0  0  0  0
  1 11  2  0  0  0  0
  2  3  1  0  0  0  0
  4  1  1  0  0  0  0
  5  4  2  0  0  0  0
  5  6  1  0  0  0  0
  6 10  2  0  0  0  0
  7  6  1  0  0  0  0
  7  9  2  0  0  0  0
  8  7  2  0  0  0  0
 10 14  1  0  0  0  0
 10 11  1  0  0  0  0
 11 15  1  0  0  0  0
 13  5  1  0  0  0  0
 16 19  2  0  0  0  0
 16 20  1  0  0  0  0
 16 18  2  0  0  0  0
 17 16  1  0  0  0  0
 20 12  1  0  0  0  0
 21 17  1  0  0  0  0
 22 17  1  0  0  0  0
 23 17  1  0  0  0  0
M  RAD  3   2   2   3   3   4   2
M  END
