Coordinates from ORCA-job 4-NO2PhN2+~TfO-_B3LYPG-6-31G_dp-CH-Scan-d09-49-n800
 OpenBabel11261919523D

 23 22  0  0  0  0  0  0  0  0999 V2000
   -1.6273   -0.6749   -0.1268 C   0  0  0  0  0  0  0  0  0  0  0  0
   -2.9275   -1.1725    0.0527 N   0  0  0  0  0  0  0  0  0  0  0  0
   -3.9814   -1.5152    0.1839 N   0  0  0  0  0  0  0  0  0  0  0  0
   -1.6050    0.6635   -0.5300 C   0  0  0  0  0  0  0  0  0  0  0  0
   -0.2550    1.0967   -0.6857 C   0  0  0  0  0  0  0  0  0  0  0  0
    0.8220    0.2544   -0.4532 C   0  0  0  0  0  0  0  0  0  0  0  0
    2.2035    0.7740   -0.6369 N   0  0  0  0  0  0  0  0  0  0  0  0
    2.3302    1.9410   -0.9943 O   0  0  0  0  0  0  0  0  0  0  0  0
    3.1334   -0.0018   -0.4186 O   0  0  0  0  0  0  0  0  0  0  0  0
    0.6969   -1.0910   -0.0451 C   0  0  0  0  0  0  0  0  0  0  0  0
   -0.5725   -1.5912    0.1301 C   0  0  0  0  0  0  0  0  0  0  0  0
   -4.2969    2.4690   -1.1387 H   0  0  0  0  0  0  0  0  0  0  0  0
   -0.0363    2.1140   -0.9964 H   0  0  0  0  0  0  0  0  0  0  0  0
    1.5837   -1.6879    0.1192 H   0  0  0  0  0  0  0  0  0  0  0  0
   -0.7481   -2.6158    0.4445 H   0  0  0  0  0  0  0  0  0  0  0  0
   -6.1244    1.5550   -1.7966 S   0  0  0  0  0  0  0  0  0  0  0  0
   -5.9398    1.6759   -3.6488 C   0  0  0  0  0  0  0  0  0  0  0  0
   -5.4990    0.3032   -1.3867 O   0  0  0  0  0  0  0  0  0  0  0  0
   -7.4921    1.8995   -1.4702 O   0  0  0  0  0  0  0  0  0  0  0  0
   -5.1879    2.7997   -1.3575 O   0  0  0  0  0  0  0  0  0  0  0  0
   -4.6511    1.5563   -3.9697 F   0  0  0  0  0  0  0  0  0  0  0  0
   -6.6348    0.6852   -4.2047 F   0  0  0  0  0  0  0  0  0  0  0  0
   -6.4028    2.8467   -4.0733 F   0  0  0  0  0  0  0  0  0  0  0  0
  1  2  1  0  0  0  0
  1 11  2  0  0  0  0
  2  3  1  0  0  0  0
  4  1  1  0  0  0  0
  5  4  2  0  0  0  0
  5  6  1  0  0  0  0
  6 10  2  0  0  0  0
  7  6  1  0  0  0  0
  7  9  2  0  0  0  0
  8  7  2  0  0  0  0
 10 14  1  0  0  0  0
 10 11  1  0  0  0  0
 11 15  1  0  0  0  0
 13  5  1  0  0  0  0
 16 19  2  0  0  0  0
 16 18  2  0  0  0  0
 16 20  1  0  0  0  0
 17 16  1  0  0  0  0
 20 12  1  0  0  0  0
 21 17  1  0  0  0  0
 22 17  1  0  0  0  0
 23 17  1  0  0  0  0
M  RAD  3   2   2   3   3   4   2
M  END
