Coordinates from ORCA-job 4-NO2PhN2+~TfO-_B3LYPG-6-31G_dp-CH-Scan-d09-49-n800
 OpenBabel11261919533D

 23 22  0  0  0  0  0  0  0  0999 V2000
   -1.4546   -0.5746    0.0043 C   0  0  0  0  0  0  0  0  0  0  0  0
   -2.7951   -0.9391    0.2323 N   0  0  0  0  0  0  0  0  0  0  0  0
   -3.8770   -1.1511    0.4097 N   0  0  0  0  0  0  0  0  0  0  0  0
   -1.3224    0.7861   -0.2721 C   0  0  0  0  0  0  0  0  0  0  0  0
    0.0553    1.0956   -0.4874 C   0  0  0  0  0  0  0  0  0  0  0  0
    1.0473    0.1289   -0.4213 C   0  0  0  0  0  0  0  0  0  0  0  0
    2.4615    0.5205   -0.6619 N   0  0  0  0  0  0  0  0  0  0  0  0
    2.6898    1.6949   -0.9360 O   0  0  0  0  0  0  0  0  0  0  0  0
    3.3173   -0.3594   -0.5698 O   0  0  0  0  0  0  0  0  0  0  0  0
    0.8057   -1.2325   -0.1310 C   0  0  0  0  0  0  0  0  0  0  0  0
   -0.4952   -1.6178    0.0954 C   0  0  0  0  0  0  0  0  0  0  0  0
   -5.1836    3.0406   -1.0851 H   0  0  0  0  0  0  0  0  0  0  0  0
    0.3619    2.1129   -0.7141 H   0  0  0  0  0  0  0  0  0  0  0  0
    1.6329   -1.9281   -0.0920 H   0  0  0  0  0  0  0  0  0  0  0  0
   -0.7596   -2.6454    0.3284 H   0  0  0  0  0  0  0  0  0  0  0  0
   -6.4360    1.5087   -1.9212 S   0  0  0  0  0  0  0  0  0  0  0  0
   -6.0328    1.7003   -3.7326 C   0  0  0  0  0  0  0  0  0  0  0  0
   -5.4608    0.5843   -1.3578 O   0  0  0  0  0  0  0  0  0  0  0  0
   -7.8670    1.3269   -1.8055 O   0  0  0  0  0  0  0  0  0  0  0  0
   -6.0970    3.0169   -1.4207 O   0  0  0  0  0  0  0  0  0  0  0  0
   -4.7620    2.0857   -3.8572 F   0  0  0  0  0  0  0  0  0  0  0  0
   -6.2062    0.5225   -4.3277 F   0  0  0  0  0  0  0  0  0  0  0  0
   -6.8345    2.6070   -4.2794 F   0  0  0  0  0  0  0  0  0  0  0  0
  1 11  1  0  0  0  0
  1  2  1  0  0  0  0
  2  3  1  0  0  0  0
  4  1  2  0  0  0  0
  5  6  2  0  0  0  0
  5  4  1  0  0  0  0
  6 10  1  0  0  0  0
  7  9  2  0  0  0  0
  7  6  1  0  0  0  0
  8  7  2  0  0  0  0
 10 14  1  0  0  0  0
 10 11  2  0  0  0  0
 11 15  1  0  0  0  0
 13  5  1  0  0  0  0
 16 19  2  0  0  0  0
 16 20  1  0  0  0  0
 16 18  2  0  0  0  0
 17 16  1  0  0  0  0
 20 12  1  0  0  0  0
 21 17  1  0  0  0  0
 22 17  1  0  0  0  0
 23 17  1  0  0  0  0
M  RAD  3   2   2   3   3   4   2
M  END
