Coordinates from ORCA-job 4-NO2PhN2+~TfO-_B3LYPG-6-31G_dp-CH-Scan-d09-49-n800
 OpenBabel11261919533D

 23 22  0  0  0  0  0  0  0  0999 V2000
   -2.0030   -0.2117    0.5352 C   0  0  0  0  0  0  0  0  0  0  0  0
   -3.1092   -0.5025    1.3551 N   0  0  0  0  0  0  0  0  0  0  0  0
   -3.9635   -0.6572    2.0568 N   0  0  0  0  0  0  0  0  0  0  0  0
   -1.3603    0.9554    0.9438 C   0  0  0  0  0  0  0  0  0  0  0  0
   -0.2492    1.2130    0.0846 C   0  0  0  0  0  0  0  0  0  0  0  0
    0.0703    0.3759   -0.9743 C   0  0  0  0  0  0  0  0  0  0  0  0
    1.2373    0.7066   -1.8345 N   0  0  0  0  0  0  0  0  0  0  0  0
    1.8882    1.7084   -1.5530 O   0  0  0  0  0  0  0  0  0  0  0  0
    1.4874   -0.0536   -2.7701 O   0  0  0  0  0  0  0  0  0  0  0  0
   -0.6525   -0.7925   -1.3049 C   0  0  0  0  0  0  0  0  0  0  0  0
   -1.7403   -1.1154   -0.5269 C   0  0  0  0  0  0  0  0  0  0  0  0
   -5.4763    2.7768   -0.7941 H   0  0  0  0  0  0  0  0  0  0  0  0
    0.3800    2.0846    0.2423 H   0  0  0  0  0  0  0  0  0  0  0  0
   -0.3420   -1.3965   -2.1468 H   0  0  0  0  0  0  0  0  0  0  0  0
   -2.3488   -1.9940   -0.7189 H   0  0  0  0  0  0  0  0  0  0  0  0
   -5.4314    0.9750   -1.9612 S   0  0  0  0  0  0  0  0  0  0  0  0
   -3.8526    1.1913   -2.9342 C   0  0  0  0  0  0  0  0  0  0  0  0
   -5.0730    0.3402   -0.6971 O   0  0  0  0  0  0  0  0  0  0  0  0
   -6.4362    0.4466   -2.8574 O   0  0  0  0  0  0  0  0  0  0  0  0
   -5.7879    2.5355   -1.6840 O   0  0  0  0  0  0  0  0  0  0  0  0
   -2.9672    1.8477   -2.1849 F   0  0  0  0  0  0  0  0  0  0  0  0
   -3.3842   -0.0196   -3.2310 F   0  0  0  0  0  0  0  0  0  0  0  0
   -4.0979    1.8695   -4.0475 F   0  0  0  0  0  0  0  0  0  0  0  0
  1  4  1  0  0  0  0
  1  2  1  0  0  0  0
  2  3  1  0  0  0  0
  5 13  1  0  0  0  0
  5  4  2  0  0  0  0
  6  5  1  0  0  0  0
  7  8  2  0  0  0  0
  7  6  1  0  0  0  0
  9  7  2  0  0  0  0
 10  6  2  0  0  0  0
 10 11  1  0  0  0  0
 11  1  2  0  0  0  0
 14 10  1  0  0  0  0
 15 11  1  0  0  0  0
 16 20  1  0  0  0  0
 16 18  2  0  0  0  0
 17 21  1  0  0  0  0
 17 16  1  0  0  0  0
 19 16  2  0  0  0  0
 20 12  1  0  0  0  0
 22 17  1  0  0  0  0
 23 17  1  0  0  0  0
M  RAD  3   2   2   3   3   4   2
M  END
