Coordinates from ORCA-job 4-NO2PhN2+~TfO-_B3LYPG-6-31G_dp-CH-Scan-d09-49-n800
 OpenBabel11261919523D

 23 22  0  0  0  0  0  0  0  0999 V2000
   -1.9745   -0.6452   -0.0917 C   0  0  0  0  0  0  0  0  0  0  0  0
   -3.2117   -1.2207    0.2075 N   0  0  0  0  0  0  0  0  0  0  0  0
   -4.2181   -1.6429    0.4305 N   0  0  0  0  0  0  0  0  0  0  0  0
   -2.0363    0.6643   -0.5887 C   0  0  0  0  0  0  0  0  0  0  0  0
   -0.7396    1.1699   -0.8604 C   0  0  0  0  0  0  0  0  0  0  0  0
    0.4013    0.4118   -0.6375 C   0  0  0  0  0  0  0  0  0  0  0  0
    1.7322    1.0019   -0.9425 N   0  0  0  0  0  0  0  0  0  0  0  0
    1.7564    2.1455   -1.3840 O   0  0  0  0  0  0  0  0  0  0  0  0
    2.7194    0.3004   -0.7304 O   0  0  0  0  0  0  0  0  0  0  0  0
    0.3825   -0.9018   -0.1329 C   0  0  0  0  0  0  0  0  0  0  0  0
   -0.8419   -1.4626    0.1552 C   0  0  0  0  0  0  0  0  0  0  0  0
   -3.5885    1.6546   -0.8931 H   0  0  0  0  0  0  0  0  0  0  0  0
   -0.6140    2.1732   -1.2533 H   0  0  0  0  0  0  0  0  0  0  0  0
    1.3117   -1.4350    0.0165 H   0  0  0  0  0  0  0  0  0  0  0  0
   -0.9312   -2.4709    0.5461 H   0  0  0  0  0  0  0  0  0  0  0  0
   -5.6101    1.3922   -1.6810 S   0  0  0  0  0  0  0  0  0  0  0  0
   -5.3178    1.6871   -3.4949 C   0  0  0  0  0  0  0  0  0  0  0  0
   -5.3825   -0.0398   -1.4677 O   0  0  0  0  0  0  0  0  0  0  0  0
   -6.8792    2.0129   -1.3485 O   0  0  0  0  0  0  0  0  0  0  0  0
   -4.4298    2.2377   -1.0581 O   0  0  0  0  0  0  0  0  0  0  0  0
   -4.0861    1.2789   -3.8199 F   0  0  0  0  0  0  0  0  0  0  0  0
   -6.2122    0.9898   -4.1972 F   0  0  0  0  0  0  0  0  0  0  0  0
   -5.4422    2.9822   -3.7765 F   0  0  0  0  0  0  0  0  0  0  0  0
  1 11  1  0  0  0  0
  1  2  1  0  0  0  0
  2  3  1  0  0  0  0
  4  1  2  0  0  0  0
  5  6  2  0  0  0  0
  5  4  1  0  0  0  0
  6 10  1  0  0  0  0
  7  9  2  0  0  0  0
  7  6  1  0  0  0  0
  8  7  2  0  0  0  0
 10 14  1  0  0  0  0
 10 11  2  0  0  0  0
 11 15  1  0  0  0  0
 13  5  1  0  0  0  0
 16 18  2  0  0  0  0
 16 19  2  0  0  0  0
 16 20  1  0  0  0  0
 17 16  1  0  0  0  0
 20 12  1  0  0  0  0
 21 17  1  0  0  0  0
 22 17  1  0  0  0  0
 23 17  1  0  0  0  0
M  RAD  3   2   2   3   3   4   2
M  END
