Coordinates from ORCA-job 4-NO2PhN2+~TfO-_B3LYPG-6-31G_dp-CH-Scan-d09-49-n800
 OpenBabel11261919523D

 23 22  0  0  0  0  0  0  0  0999 V2000
   -1.8025   -0.6565   -0.0964 C   0  0  0  0  0  0  0  0  0  0  0  0
   -3.0709   -1.1918    0.1596 N   0  0  0  0  0  0  0  0  0  0  0  0
   -4.1003   -1.5753    0.3522 N   0  0  0  0  0  0  0  0  0  0  0  0
   -1.8270    0.6712   -0.5398 C   0  0  0  0  0  0  0  0  0  0  0  0
   -0.5019    1.1375   -0.7701 C   0  0  0  0  0  0  0  0  0  0  0  0
    0.6082    0.3321   -0.5616 C   0  0  0  0  0  0  0  0  0  0  0  0
    1.9644    0.8846   -0.8226 N   0  0  0  0  0  0  0  0  0  0  0  0
    2.0396    2.0442   -1.2158 O   0  0  0  0  0  0  0  0  0  0  0  0
    2.9242    0.1407   -0.6258 O   0  0  0  0  0  0  0  0  0  0  0  0
    0.5385   -1.0019   -0.1102 C   0  0  0  0  0  0  0  0  0  0  0  0
   -0.7075   -1.5308    0.1368 C   0  0  0  0  0  0  0  0  0  0  0  0
   -4.0004    2.0934   -0.9664 H   0  0  0  0  0  0  0  0  0  0  0  0
   -0.3287    2.1503   -1.1200 H   0  0  0  0  0  0  0  0  0  0  0  0
    1.4475   -1.5706    0.0309 H   0  0  0  0  0  0  0  0  0  0  0  0
   -0.8385   -2.5500    0.4870 H   0  0  0  0  0  0  0  0  0  0  0  0
   -5.9053    1.4683   -1.7447 S   0  0  0  0  0  0  0  0  0  0  0  0
   -5.5744    1.6754   -3.5676 C   0  0  0  0  0  0  0  0  0  0  0  0
   -5.4893    0.1125   -1.3984 O   0  0  0  0  0  0  0  0  0  0  0  0
   -7.2402    1.9663   -1.4841 O   0  0  0  0  0  0  0  0  0  0  0  0
   -4.8591    2.5361   -1.1525 O   0  0  0  0  0  0  0  0  0  0  0  0
   -4.2844    1.4341   -3.8107 F   0  0  0  0  0  0  0  0  0  0  0  0
   -6.3260    0.8013   -4.2357 F   0  0  0  0  0  0  0  0  0  0  0  0
   -5.8782    2.9124   -3.9472 F   0  0  0  0  0  0  0  0  0  0  0  0
  1 11  1  0  0  0  0
  1  2  1  0  0  0  0
  2  3  1  0  0  0  0
  4  1  2  0  0  0  0
  5  6  2  0  0  0  0
  5  4  1  0  0  0  0
  6 10  1  0  0  0  0
  7  9  2  0  0  0  0
  7  6  1  0  0  0  0
  8  7  2  0  0  0  0
 10 14  1  0  0  0  0
 10 11  2  0  0  0  0
 11 15  1  0  0  0  0
 13  5  1  0  0  0  0
 16 19  2  0  0  0  0
 16 18  2  0  0  0  0
 16 20  1  0  0  0  0
 17 16  1  0  0  0  0
 20 12  1  0  0  0  0
 21 17  1  0  0  0  0
 22 17  1  0  0  0  0
 23 17  1  0  0  0  0
M  RAD  3   2   2   3   3   4   2
M  END
