Coordinates from ORCA-job 4-NO2PhN2+~TfO-_B3LYPG-6-31G_dp-CH-Scan-d09-49-n800
 OpenBabel11261919523D

 23 22  0  0  0  0  0  0  0  0999 V2000
   -1.6307   -0.6743   -0.1262 C   0  0  0  0  0  0  0  0  0  0  0  0
   -2.9304   -1.1722    0.0559 N   0  0  0  0  0  0  0  0  0  0  0  0
   -3.9835   -1.5168    0.1878 N   0  0  0  0  0  0  0  0  0  0  0  0
   -1.6091    0.6635   -0.5311 C   0  0  0  0  0  0  0  0  0  0  0  0
   -0.2596    1.0972   -0.6892 C   0  0  0  0  0  0  0  0  0  0  0  0
    0.8180    0.2556   -0.4569 C   0  0  0  0  0  0  0  0  0  0  0  0
    2.1991    0.7755   -0.6432 N   0  0  0  0  0  0  0  0  0  0  0  0
    2.3249    1.9441   -0.9953 O   0  0  0  0  0  0  0  0  0  0  0  0
    3.1297    0.0024   -0.4182 O   0  0  0  0  0  0  0  0  0  0  0  0
    0.6939   -1.0893   -0.0469 C   0  0  0  0  0  0  0  0  0  0  0  0
   -0.5751   -1.5898    0.1305 C   0  0  0  0  0  0  0  0  0  0  0  0
   -4.2902    2.4593   -1.1350 H   0  0  0  0  0  0  0  0  0  0  0  0
   -0.0418    2.1142   -1.0016 H   0  0  0  0  0  0  0  0  0  0  0  0
    1.5811   -1.6856    0.1170 H   0  0  0  0  0  0  0  0  0  0  0  0
   -0.7499   -2.6140    0.4465 H   0  0  0  0  0  0  0  0  0  0  0  0
   -6.1204    1.5528   -1.7956 S   0  0  0  0  0  0  0  0  0  0  0  0
   -5.9333    1.6765   -3.6473 C   0  0  0  0  0  0  0  0  0  0  0  0
   -5.5001    0.2977   -1.3876 O   0  0  0  0  0  0  0  0  0  0  0  0
   -7.4872    1.9013   -1.4701 O   0  0  0  0  0  0  0  0  0  0  0  0
   -5.1803    2.7933   -1.3531 O   0  0  0  0  0  0  0  0  0  0  0  0
   -4.6447    1.5526   -3.9671 F   0  0  0  0  0  0  0  0  0  0  0  0
   -6.6314    0.6896   -4.2060 F   0  0  0  0  0  0  0  0  0  0  0  0
   -6.3914    2.8499   -4.0701 F   0  0  0  0  0  0  0  0  0  0  0  0
  1  2  1  0  0  0  0
  1 11  2  0  0  0  0
  2  3  1  0  0  0  0
  4  1  1  0  0  0  0
  5  4  2  0  0  0  0
  5  6  1  0  0  0  0
  6 10  2  0  0  0  0
  7  6  1  0  0  0  0
  7  9  2  0  0  0  0
  8  7  2  0  0  0  0
 10 14  1  0  0  0  0
 10 11  1  0  0  0  0
 11 15  1  0  0  0  0
 13  5  1  0  0  0  0
 16 19  2  0  0  0  0
 16 18  2  0  0  0  0
 16 20  1  0  0  0  0
 17 16  1  0  0  0  0
 20 12  1  0  0  0  0
 21 17  1  0  0  0  0
 22 17  1  0  0  0  0
 23 17  1  0  0  0  0
M  RAD  3   2   2   3   3   4   2
M  END
