Coordinates from ORCA-job 4-NO2PhN2+~TfO-_B3LYPG-6-31G_dp-CH-Scan-d09-49-n800
 OpenBabel11261919523D

 23 22  0  0  0  0  0  0  0  0999 V2000
   -1.9816   -0.6446   -0.0907 C   0  0  0  0  0  0  0  0  0  0  0  0
   -3.2178   -1.2214    0.2096 N   0  0  0  0  0  0  0  0  0  0  0  0
   -4.2232   -1.6452    0.4333 N   0  0  0  0  0  0  0  0  0  0  0  0
   -2.0436    0.6633   -0.5917 C   0  0  0  0  0  0  0  0  0  0  0  0
   -0.7482    1.1703   -0.8644 C   0  0  0  0  0  0  0  0  0  0  0  0
    0.3937    0.4145   -0.6386 C   0  0  0  0  0  0  0  0  0  0  0  0
    1.7239    1.0055   -0.9449 N   0  0  0  0  0  0  0  0  0  0  0  0
    1.7465    2.1479   -1.3894 O   0  0  0  0  0  0  0  0  0  0  0  0
    2.7119    0.3060   -0.7302 O   0  0  0  0  0  0  0  0  0  0  0  0
    0.3762   -0.8975   -0.1300 C   0  0  0  0  0  0  0  0  0  0  0  0
   -0.8477   -1.4591    0.1591 C   0  0  0  0  0  0  0  0  0  0  0  0
   -3.5617    1.6320   -0.8951 H   0  0  0  0  0  0  0  0  0  0  0  0
   -0.6244    2.1726   -1.2603 H   0  0  0  0  0  0  0  0  0  0  0  0
    1.3060   -1.4291    0.0216 H   0  0  0  0  0  0  0  0  0  0  0  0
   -0.9359   -2.4662    0.5530 H   0  0  0  0  0  0  0  0  0  0  0  0
   -5.5925    1.3876   -1.6798 S   0  0  0  0  0  0  0  0  0  0  0  0
   -5.3160    1.6917   -3.4944 C   0  0  0  0  0  0  0  0  0  0  0  0
   -5.3675   -0.0472   -1.4780 O   0  0  0  0  0  0  0  0  0  0  0  0
   -6.8592    2.0068   -1.3339 O   0  0  0  0  0  0  0  0  0  0  0  0
   -4.4054    2.2237   -1.0633 O   0  0  0  0  0  0  0  0  0  0  0  0
   -4.0882    1.2821   -3.8332 F   0  0  0  0  0  0  0  0  0  0  0  0
   -6.2182    1.0008   -4.1933 F   0  0  0  0  0  0  0  0  0  0  0  0
   -5.4392    2.9888   -3.7681 F   0  0  0  0  0  0  0  0  0  0  0  0
  1 11  1  0  0  0  0
  1  2  1  0  0  0  0
  2  3  1  0  0  0  0
  4  1  2  0  0  0  0
  5  6  2  0  0  0  0
  5  4  1  0  0  0  0
  6 10  1  0  0  0  0
  7  9  2  0  0  0  0
  7  6  1  0  0  0  0
  8  7  2  0  0  0  0
 10 14  1  0  0  0  0
 10 11  2  0  0  0  0
 11 15  1  0  0  0  0
 13  5  1  0  0  0  0
 16 18  2  0  0  0  0
 16 19  2  0  0  0  0
 16 20  1  0  0  0  0
 17 16  1  0  0  0  0
 20 12  1  0  0  0  0
 21 17  1  0  0  0  0
 22 17  1  0  0  0  0
 23 17  1  0  0  0  0
M  RAD  3   2   2   3   3   4   2
M  END
