Coordinates from ORCA-job 4-NO2PhN2+~TfO-_B3LYPG-6-31G_dp-CH-Scan-d09-49-n800
 OpenBabel11261919533D

 23 22  0  0  0  0  0  0  0  0999 V2000
   -2.0054   -0.2134    0.5343 C   0  0  0  0  0  0  0  0  0  0  0  0
   -3.1116   -0.5058    1.3536 N   0  0  0  0  0  0  0  0  0  0  0  0
   -3.9660   -0.6613    2.0551 N   0  0  0  0  0  0  0  0  0  0  0  0
   -1.3661    0.9561    0.9415 C   0  0  0  0  0  0  0  0  0  0  0  0
   -0.2544    1.2147    0.0834 C   0  0  0  0  0  0  0  0  0  0  0  0
    0.0686    0.3762   -0.9735 C   0  0  0  0  0  0  0  0  0  0  0  0
    1.2363    0.7078   -1.8325 N   0  0  0  0  0  0  0  0  0  0  0  0
    1.8787    1.7169   -1.5577 O   0  0  0  0  0  0  0  0  0  0  0  0
    1.4830   -0.0476   -2.7729 O   0  0  0  0  0  0  0  0  0  0  0  0
   -0.6511   -0.7944   -1.3031 C   0  0  0  0  0  0  0  0  0  0  0  0
   -1.7392   -1.1183   -0.5259 C   0  0  0  0  0  0  0  0  0  0  0  0
   -5.4601    2.7790   -0.7917 H   0  0  0  0  0  0  0  0  0  0  0  0
    0.3726    2.0880    0.2403 H   0  0  0  0  0  0  0  0  0  0  0  0
   -0.3382   -1.3990   -2.1437 H   0  0  0  0  0  0  0  0  0  0  0  0
   -2.3456   -1.9986   -0.7173 H   0  0  0  0  0  0  0  0  0  0  0  0
   -5.4296    0.9780   -1.9599 S   0  0  0  0  0  0  0  0  0  0  0  0
   -3.8510    1.1875   -2.9345 C   0  0  0  0  0  0  0  0  0  0  0  0
   -5.0731    0.3406   -0.6969 O   0  0  0  0  0  0  0  0  0  0  0  0
   -6.4382    0.4555   -2.8553 O   0  0  0  0  0  0  0  0  0  0  0  0
   -5.7776    2.5398   -1.6808 O   0  0  0  0  0  0  0  0  0  0  0  0
   -2.9634    1.8428   -2.1871 F   0  0  0  0  0  0  0  0  0  0  0  0
   -3.3862   -0.0252   -3.2295 F   0  0  0  0  0  0  0  0  0  0  0  0
   -4.0949    1.8645   -4.0488 F   0  0  0  0  0  0  0  0  0  0  0  0
  1  4  1  0  0  0  0
  1  2  1  0  0  0  0
  2  3  1  0  0  0  0
  5 13  1  0  0  0  0
  5  4  2  0  0  0  0
  6  5  1  0  0  0  0
  7  8  2  0  0  0  0
  7  6  1  0  0  0  0
  9  7  2  0  0  0  0
 10  6  2  0  0  0  0
 10 11  1  0  0  0  0
 11  1  2  0  0  0  0
 14 10  1  0  0  0  0
 15 11  1  0  0  0  0
 16 20  1  0  0  0  0
 16 18  2  0  0  0  0
 17 21  1  0  0  0  0
 17 16  1  0  0  0  0
 19 16  2  0  0  0  0
 20 12  1  0  0  0  0
 22 17  1  0  0  0  0
 23 17  1  0  0  0  0
M  RAD  3   2   2   3   3   4   2
M  END
