Coordinates from ORCA-job 4-NO2PhN2+~TfO-_B3LYPG-6-31G_dp-CH-Scan-d09-49-n800
 OpenBabel11261919533D

 23 22  0  0  0  0  0  0  0  0999 V2000
   -2.0013   -0.2100    0.5372 C   0  0  0  0  0  0  0  0  0  0  0  0
   -3.1080   -0.4987    1.3571 N   0  0  0  0  0  0  0  0  0  0  0  0
   -3.9622   -0.6501    2.0596 N   0  0  0  0  0  0  0  0  0  0  0  0
   -1.3539    0.9537    0.9480 C   0  0  0  0  0  0  0  0  0  0  0  0
   -0.2427    1.2093    0.0884 C   0  0  0  0  0  0  0  0  0  0  0  0
    0.0725    0.3736   -0.9730 C   0  0  0  0  0  0  0  0  0  0  0  0
    1.2398    0.7021   -1.8337 N   0  0  0  0  0  0  0  0  0  0  0  0
    1.8893    1.7058   -1.5559 O   0  0  0  0  0  0  0  0  0  0  0  0
    1.4820   -0.0529   -2.7756 O   0  0  0  0  0  0  0  0  0  0  0  0
   -0.6548   -0.7914   -1.3056 C   0  0  0  0  0  0  0  0  0  0  0  0
   -1.7429   -1.1123   -0.5272 C   0  0  0  0  0  0  0  0  0  0  0  0
   -5.4908    2.7734   -0.7977 H   0  0  0  0  0  0  0  0  0  0  0  0
    0.3900    2.0781    0.2476 H   0  0  0  0  0  0  0  0  0  0  0  0
   -0.3475   -1.3945   -2.1494 H   0  0  0  0  0  0  0  0  0  0  0  0
   -2.3548   -1.9882   -0.7207 H   0  0  0  0  0  0  0  0  0  0  0  0
   -5.4309    0.9710   -1.9632 S   0  0  0  0  0  0  0  0  0  0  0  0
   -3.8514    1.1951   -2.9332 C   0  0  0  0  0  0  0  0  0  0  0  0
   -5.0719    0.3401   -0.6974 O   0  0  0  0  0  0  0  0  0  0  0  0
   -6.4307    0.4356   -2.8609 O   0  0  0  0  0  0  0  0  0  0  0  0
   -5.7969    2.5298   -1.6890 O   0  0  0  0  0  0  0  0  0  0  0  0
   -2.9695    1.8530   -2.1811 F   0  0  0  0  0  0  0  0  0  0  0  0
   -3.3782   -0.0135   -3.2319 F   0  0  0  0  0  0  0  0  0  0  0  0
   -4.0975    1.8748   -4.0454 F   0  0  0  0  0  0  0  0  0  0  0  0
  1  4  1  0  0  0  0
  1  2  1  0  0  0  0
  2  3  1  0  0  0  0
  5 13  1  0  0  0  0
  5  4  2  0  0  0  0
  6  5  1  0  0  0  0
  7  8  2  0  0  0  0
  7  6  1  0  0  0  0
  9  7  2  0  0  0  0
 10  6  2  0  0  0  0
 10 11  1  0  0  0  0
 11  1  2  0  0  0  0
 14 10  1  0  0  0  0
 15 11  1  0  0  0  0
 16 20  1  0  0  0  0
 16 18  2  0  0  0  0
 17 21  1  0  0  0  0
 17 16  1  0  0  0  0
 19 16  2  0  0  0  0
 20 12  1  0  0  0  0
 22 17  1  0  0  0  0
 23 17  1  0  0  0  0
M  RAD  3   2   2   3   3   4   2
M  END
