Coordinates from ORCA-job 4-NO2PhN2+~TfO-_B3LYPG-6-31G_dp-CH-Scan-d09-49-n800
 OpenBabel11261919533D

 23 22  0  0  0  0  0  0  0  0999 V2000
   -1.4698   -0.5879   -0.0085 C   0  0  0  0  0  0  0  0  0  0  0  0
   -2.8069   -0.9653    0.2172 N   0  0  0  0  0  0  0  0  0  0  0  0
   -3.8867   -1.1893    0.3921 N   0  0  0  0  0  0  0  0  0  0  0  0
   -1.3507    0.7712   -0.2997 C   0  0  0  0  0  0  0  0  0  0  0  0
    0.0247    1.0931   -0.5105 C   0  0  0  0  0  0  0  0  0  0  0  0
    1.0271    0.1385   -0.4265 C   0  0  0  0  0  0  0  0  0  0  0  0
    2.4384    0.5432   -0.6623 N   0  0  0  0  0  0  0  0  0  0  0  0
    2.6558    1.7177   -0.9447 O   0  0  0  0  0  0  0  0  0  0  0  0
    3.3029   -0.3268   -0.5583 O   0  0  0  0  0  0  0  0  0  0  0  0
    0.7987   -1.2221   -0.1225 C   0  0  0  0  0  0  0  0  0  0  0  0
   -0.4993   -1.6191    0.1000 C   0  0  0  0  0  0  0  0  0  0  0  0
   -5.1135    3.0126   -1.0839 H   0  0  0  0  0  0  0  0  0  0  0  0
    0.3217    2.1110   -0.7475 H   0  0  0  0  0  0  0  0  0  0  0  0
    1.6333   -1.9080   -0.0704 H   0  0  0  0  0  0  0  0  0  0  0  0
   -0.7539   -2.6470    0.3428 H   0  0  0  0  0  0  0  0  0  0  0  0
   -6.4145    1.5156   -1.9097 S   0  0  0  0  0  0  0  0  0  0  0  0
   -6.0168    1.6974   -3.7234 C   0  0  0  0  0  0  0  0  0  0  0  0
   -5.4629    0.5628   -1.3534 O   0  0  0  0  0  0  0  0  0  0  0  0
   -7.8494    1.3742   -1.7855 O   0  0  0  0  0  0  0  0  0  0  0  0
   -6.0307    3.0128   -1.4097 O   0  0  0  0  0  0  0  0  0  0  0  0
   -4.7367    2.0477   -3.8554 F   0  0  0  0  0  0  0  0  0  0  0  0
   -6.2264    0.5253   -4.3183 F   0  0  0  0  0  0  0  0  0  0  0  0
   -6.7965    2.6263   -4.2648 F   0  0  0  0  0  0  0  0  0  0  0  0
  1 11  1  0  0  0  0
  1  2  1  0  0  0  0
  2  3  1  0  0  0  0
  4  1  2  0  0  0  0
  5  6  2  0  0  0  0
  5  4  1  0  0  0  0
  6 10  1  0  0  0  0
  7  9  2  0  0  0  0
  7  6  1  0  0  0  0
  8  7  2  0  0  0  0
 10 14  1  0  0  0  0
 10 11  2  0  0  0  0
 11 15  1  0  0  0  0
 13  5  1  0  0  0  0
 16 19  2  0  0  0  0
 16 20  1  0  0  0  0
 16 18  2  0  0  0  0
 17 16  1  0  0  0  0
 20 12  1  0  0  0  0
 21 17  1  0  0  0  0
 22 17  1  0  0  0  0
 23 17  1  0  0  0  0
M  RAD  3   2   2   3   3   4   2
M  END
