Coordinates from ORCA-job 4-NO2PhN2+~TfO-_B3LYPG-6-31G_dp-CH-Scan-d09-49-n800
 OpenBabel11261919533D

 23 22  0  0  0  0  0  0  0  0999 V2000
   -1.5909   -0.6227   -0.0225 C   0  0  0  0  0  0  0  0  0  0  0  0
   -2.9040   -1.0560    0.2328 N   0  0  0  0  0  0  0  0  0  0  0  0
   -3.9674   -1.3334    0.4288 N   0  0  0  0  0  0  0  0  0  0  0  0
   -1.5334    0.7291   -0.3673 C   0  0  0  0  0  0  0  0  0  0  0  0
   -0.1756    1.1019   -0.6044 C   0  0  0  0  0  0  0  0  0  0  0  0
    0.8695    0.1972   -0.4925 C   0  0  0  0  0  0  0  0  0  0  0  0
    2.2594    0.6551   -0.7575 N   0  0  0  0  0  0  0  0  0  0  0  0
    2.4215    1.8275   -1.0824 O   0  0  0  0  0  0  0  0  0  0  0  0
    3.1620   -0.1724   -0.6337 O   0  0  0  0  0  0  0  0  0  0  0  0
    0.7046   -1.1589   -0.1342 C   0  0  0  0  0  0  0  0  0  0  0  0
   -0.5727   -1.6036    0.1156 C   0  0  0  0  0  0  0  0  0  0  0  0
   -4.7992    2.8308   -0.9933 H   0  0  0  0  0  0  0  0  0  0  0  0
    0.0740    2.1214   -0.8846 H   0  0  0  0  0  0  0  0  0  0  0  0
    1.5691   -1.8050   -0.0635 H   0  0  0  0  0  0  0  0  0  0  0  0
   -0.7790   -2.6316    0.3998 H   0  0  0  0  0  0  0  0  0  0  0  0
   -6.2553    1.5079   -1.8586 S   0  0  0  0  0  0  0  0  0  0  0  0
   -5.7945    1.6734   -3.6591 C   0  0  0  0  0  0  0  0  0  0  0  0
   -5.4388    0.4355   -1.3051 O   0  0  0  0  0  0  0  0  0  0  0  0
   -7.6994    1.5358   -1.7683 O   0  0  0  0  0  0  0  0  0  0  0  0
   -5.7117    2.9376   -1.3159 O   0  0  0  0  0  0  0  0  0  0  0  0
   -4.4831    1.8971   -3.7542 F   0  0  0  0  0  0  0  0  0  0  0  0
   -6.1028    0.5353   -4.2769 F   0  0  0  0  0  0  0  0  0  0  0  0
   -6.4645    2.6815   -4.2057 F   0  0  0  0  0  0  0  0  0  0  0  0
  1 11  1  0  0  0  0
  1  2  1  0  0  0  0
  2  3  1  0  0  0  0
  4  1  2  0  0  0  0
  5  6  2  0  0  0  0
  5  4  1  0  0  0  0
  6 10  1  0  0  0  0
  7  9  2  0  0  0  0
  7  6  1  0  0  0  0
  8  7  2  0  0  0  0
 10 14  1  0  0  0  0
 10 11  2  0  0  0  0
 11 15  1  0  0  0  0
 13  5  1  0  0  0  0
 16 19  2  0  0  0  0
 16 20  1  0  0  0  0
 16 18  2  0  0  0  0
 17 16  1  0  0  0  0
 20 12  1  0  0  0  0
 21 17  1  0  0  0  0
 22 17  1  0  0  0  0
 23 17  1  0  0  0  0
M  RAD  3   2   2   3   3   4   2
M  END
