Coordinates from ORCA-job 4-NO2PhN2+~TfO-_B3LYPG-6-31G_dp-CH-Scan-d09-49-n800
 OpenBabel11261919533D

 23 22  0  0  0  0  0  0  0  0999 V2000
   -1.5095   -0.6030   -0.0189 C   0  0  0  0  0  0  0  0  0  0  0  0
   -2.8389   -1.0007    0.2144 N   0  0  0  0  0  0  0  0  0  0  0  0
   -3.9135   -1.2493    0.3874 N   0  0  0  0  0  0  0  0  0  0  0  0
   -1.4132    0.7519   -0.3388 C   0  0  0  0  0  0  0  0  0  0  0  0
   -0.0431    1.0926   -0.5548 C   0  0  0  0  0  0  0  0  0  0  0  0
    0.9757    0.1578   -0.4487 C   0  0  0  0  0  0  0  0  0  0  0  0
    2.3802    0.5822   -0.6906 N   0  0  0  0  0  0  0  0  0  0  0  0
    2.5779    1.7551   -0.9934 O   0  0  0  0  0  0  0  0  0  0  0  0
    3.2592   -0.2710   -0.5702 O   0  0  0  0  0  0  0  0  0  0  0  0
    0.7705   -1.1998   -0.1165 C   0  0  0  0  0  0  0  0  0  0  0  0
   -0.5209   -1.6143    0.1123 C   0  0  0  0  0  0  0  0  0  0  0  0
   -5.0028    2.9500   -1.0520 H   0  0  0  0  0  0  0  0  0  0  0  0
    0.2366    2.1100   -0.8135 H   0  0  0  0  0  0  0  0  0  0  0  0
    1.6167   -1.8698   -0.0486 H   0  0  0  0  0  0  0  0  0  0  0  0
   -0.7580   -2.6412    0.3760 H   0  0  0  0  0  0  0  0  0  0  0  0
   -6.3636    1.5139   -1.8908 S   0  0  0  0  0  0  0  0  0  0  0  0
   -5.9467    1.6944   -3.7004 C   0  0  0  0  0  0  0  0  0  0  0  0
   -5.4576    0.5153   -1.3386 O   0  0  0  0  0  0  0  0  0  0  0  0
   -7.8039    1.4326   -1.7764 O   0  0  0  0  0  0  0  0  0  0  0  0
   -5.9207    2.9883   -1.3739 O   0  0  0  0  0  0  0  0  0  0  0  0
   -4.6542    2.0009   -3.8209 F   0  0  0  0  0  0  0  0  0  0  0  0
   -6.1924    0.5344   -4.3052 F   0  0  0  0  0  0  0  0  0  0  0  0
   -6.6899    2.6533   -4.2407 F   0  0  0  0  0  0  0  0  0  0  0  0
  1 11  1  0  0  0  0
  1  2  1  0  0  0  0
  2  3  1  0  0  0  0
  4  1  2  0  0  0  0
  5  6  2  0  0  0  0
  5  4  1  0  0  0  0
  6 10  1  0  0  0  0
  7  9  2  0  0  0  0
  7  6  1  0  0  0  0
  8  7  2  0  0  0  0
 10 14  1  0  0  0  0
 10 11  2  0  0  0  0
 11 15  1  0  0  0  0
 13  5  1  0  0  0  0
 16 19  2  0  0  0  0
 16 20  1  0  0  0  0
 16 18  2  0  0  0  0
 17 16  1  0  0  0  0
 20 12  1  0  0  0  0
 21 17  1  0  0  0  0
 22 17  1  0  0  0  0
 23 17  1  0  0  0  0
M  RAD  3   2   2   3   3   4   2
M  END
