Coordinates from ORCA-job 4-NO2PhN2+~TfO-_B3LYPG-6-31G_dp-CH-Scan-d09-49-n800
 OpenBabel11261919523D

 23 22  0  0  0  0  0  0  0  0999 V2000
   -1.7935   -0.6565   -0.0959 C   0  0  0  0  0  0  0  0  0  0  0  0
   -3.0638   -1.1890    0.1579 N   0  0  0  0  0  0  0  0  0  0  0  0
   -4.0943   -1.5696    0.3492 N   0  0  0  0  0  0  0  0  0  0  0  0
   -1.8154    0.6720   -0.5364 C   0  0  0  0  0  0  0  0  0  0  0  0
   -0.4888    1.1358   -0.7648 C   0  0  0  0  0  0  0  0  0  0  0  0
    0.6194    0.3276   -0.5571 C   0  0  0  0  0  0  0  0  0  0  0  0
    1.9770    0.8776   -0.8160 N   0  0  0  0  0  0  0  0  0  0  0  0
    2.0551    2.0376   -1.2075 O   0  0  0  0  0  0  0  0  0  0  0  0
    2.9350    0.1311   -0.6203 O   0  0  0  0  0  0  0  0  0  0  0  0
    0.5465   -1.0073   -0.1085 C   0  0  0  0  0  0  0  0  0  0  0  0
   -0.7009   -1.5340    0.1364 C   0  0  0  0  0  0  0  0  0  0  0  0
   -4.0214    2.1163   -0.9706 H   0  0  0  0  0  0  0  0  0  0  0  0
   -0.3130    2.1489   -1.1126 H   0  0  0  0  0  0  0  0  0  0  0  0
    1.4542   -1.5782    0.0321 H   0  0  0  0  0  0  0  0  0  0  0  0
   -0.8344   -2.5536    0.4846 H   0  0  0  0  0  0  0  0  0  0  0  0
   -5.9192    1.4708   -1.7486 S   0  0  0  0  0  0  0  0  0  0  0  0
   -5.5893    1.6762   -3.5719 C   0  0  0  0  0  0  0  0  0  0  0  0
   -5.4903    0.1204   -1.3976 O   0  0  0  0  0  0  0  0  0  0  0  0
   -7.2583    1.9580   -1.4895 O   0  0  0  0  0  0  0  0  0  0  0  0
   -4.8825    2.5508   -1.1593 O   0  0  0  0  0  0  0  0  0  0  0  0
   -4.2969    1.4471   -3.8137 F   0  0  0  0  0  0  0  0  0  0  0  0
   -6.3319    0.7927   -4.2377 F   0  0  0  0  0  0  0  0  0  0  0  0
   -5.9055    2.9090   -3.9549 F   0  0  0  0  0  0  0  0  0  0  0  0
  1 11  1  0  0  0  0
  1  2  1  0  0  0  0
  2  3  1  0  0  0  0
  4  1  2  0  0  0  0
  5  6  2  0  0  0  0
  5  4  1  0  0  0  0
  6 10  1  0  0  0  0
  7  9  2  0  0  0  0
  7  6  1  0  0  0  0
  8  7  2  0  0  0  0
 10 14  1  0  0  0  0
 10 11  2  0  0  0  0
 11 15  1  0  0  0  0
 13  5  1  0  0  0  0
 16 19  2  0  0  0  0
 16 18  2  0  0  0  0
 16 20  1  0  0  0  0
 17 16  1  0  0  0  0
 20 12  1  0  0  0  0
 21 17  1  0  0  0  0
 22 17  1  0  0  0  0
 23 17  1  0  0  0  0
M  RAD  3   2   2   3   3   4   2
M  END
