Coordinates from ORCA-job 4-NO2PhN2+~TfO-_B3LYPG-6-31G_dp-CH-Scan-d09-49-n800
 OpenBabel11261919523D

 23 22  0  0  0  0  0  0  0  0999 V2000
   -1.9830   -0.5813   -0.1436 C   0  0  0  0  0  0  0  0  0  0  0  0
   -3.2648   -1.0915    0.0595 N   0  0  0  0  0  0  0  0  0  0  0  0
   -4.3457   -1.3685    0.0906 N   0  0  0  0  0  0  0  0  0  0  0  0
   -1.8994    0.6879   -0.7299 C   0  0  0  0  0  0  0  0  0  0  0  0
   -0.6004    1.1696   -0.9236 C   0  0  0  0  0  0  0  0  0  0  0  0
    0.4893    0.3960   -0.5372 C   0  0  0  0  0  0  0  0  0  0  0  0
    1.8587    0.9330   -0.7532 N   0  0  0  0  0  0  0  0  0  0  0  0
    1.9505    2.0431   -1.2631 O   0  0  0  0  0  0  0  0  0  0  0  0
    2.7971    0.2224   -0.4041 O   0  0  0  0  0  0  0  0  0  0  0  0
    0.3722   -0.8694    0.0504 C   0  0  0  0  0  0  0  0  0  0  0  0
   -0.8961   -1.3802    0.2614 C   0  0  0  0  0  0  0  0  0  0  0  0
   -2.9740    1.3682   -1.0661 H   0  0  0  0  0  0  0  0  0  0  0  0
   -0.4318    2.1412   -1.3721 H   0  0  0  0  0  0  0  0  0  0  0  0
    1.2635   -1.4172    0.3263 H   0  0  0  0  0  0  0  0  0  0  0  0
   -1.0498   -2.3549    0.7104 H   0  0  0  0  0  0  0  0  0  0  0  0
   -5.4018    1.3016   -1.7430 S   0  0  0  0  0  0  0  0  0  0  0  0
   -5.7496    1.7772   -3.5051 C   0  0  0  0  0  0  0  0  0  0  0  0
   -5.0363   -0.1437   -1.8447 O   0  0  0  0  0  0  0  0  0  0  0  0
   -6.6122    1.6244   -0.9885 O   0  0  0  0  0  0  0  0  0  0  0  0
   -4.1960    2.1457   -1.4010 O   0  0  0  0  0  0  0  0  0  0  0  0
   -4.6772    1.5300   -4.2712 F   0  0  0  0  0  0  0  0  0  0  0  0
   -6.7837    1.0707   -3.9730 F   0  0  0  0  0  0  0  0  0  0  0  0
   -6.0415    3.0792   -3.5820 F   0  0  0  0  0  0  0  0  0  0  0  0
  1  2  1  0  0  0  0
  1 11  2  0  0  0  0
  2  3  1  0  0  0  0
  4  1  1  0  0  0  0
  5  4  2  0  0  0  0
  5  6  1  0  0  0  0
  6 10  2  0  0  0  0
  7  6  1  0  0  0  0
  7  9  2  0  0  0  0
  8  7  2  0  0  0  0
 10 11  1  0  0  0  0
 10 14  1  0  0  0  0
 11 15  1  0  0  0  0
 12  4  1  0  0  0  0
 13  5  1  0  0  0  0
 16 20  2  0  0  0  0
 16 19  1  0  0  0  0
 17 16  1  0  0  0  0
 18 16  2  0  0  0  0
 21 17  1  0  0  0  0
 22 17  1  0  0  0  0
 23 17  1  0  0  0  0
M  RAD  3   2   2   3   3  19   2
M  END
