Coordinates from ORCA-job 4-NO2PhN2+~TfO-_B3LYPG-6-31G_dp-CH-Scan-d09-49-n800
 OpenBabel11261919523D

 23 22  0  0  0  0  0  0  0  0999 V2000
   -1.7980   -0.6566   -0.0960 C   0  0  0  0  0  0  0  0  0  0  0  0
   -3.0674   -1.1905    0.1589 N   0  0  0  0  0  0  0  0  0  0  0  0
   -4.0973   -1.5725    0.3511 N   0  0  0  0  0  0  0  0  0  0  0  0
   -1.8213    0.6716   -0.5380 C   0  0  0  0  0  0  0  0  0  0  0  0
   -0.4954    1.1367   -0.7674 C   0  0  0  0  0  0  0  0  0  0  0  0
    0.6137    0.3299   -0.5594 C   0  0  0  0  0  0  0  0  0  0  0  0
    1.9706    0.8812   -0.8194 N   0  0  0  0  0  0  0  0  0  0  0  0
    2.0472    2.0408   -1.2121 O   0  0  0  0  0  0  0  0  0  0  0  0
    2.9295    0.1358   -0.6235 O   0  0  0  0  0  0  0  0  0  0  0  0
    0.5424   -1.0046   -0.1094 C   0  0  0  0  0  0  0  0  0  0  0  0
   -0.7042   -1.5324    0.1366 C   0  0  0  0  0  0  0  0  0  0  0  0
   -4.0110    2.1048   -0.9683 H   0  0  0  0  0  0  0  0  0  0  0  0
   -0.3210    2.1496   -1.1163 H   0  0  0  0  0  0  0  0  0  0  0  0
    1.4509   -1.5744    0.0314 H   0  0  0  0  0  0  0  0  0  0  0  0
   -0.8364   -2.5518    0.4858 H   0  0  0  0  0  0  0  0  0  0  0  0
   -5.9124    1.4696   -1.7467 S   0  0  0  0  0  0  0  0  0  0  0  0
   -5.5815    1.6759   -3.5697 C   0  0  0  0  0  0  0  0  0  0  0  0
   -5.4900    0.1164   -1.3980 O   0  0  0  0  0  0  0  0  0  0  0  0
   -7.2494    1.9621   -1.4871 O   0  0  0  0  0  0  0  0  0  0  0  0
   -4.8710    2.5434   -1.1556 O   0  0  0  0  0  0  0  0  0  0  0  0
   -4.2902    1.4409   -3.8118 F   0  0  0  0  0  0  0  0  0  0  0  0
   -6.3283    0.7969   -4.2369 F   0  0  0  0  0  0  0  0  0  0  0  0
   -5.8917    2.9107   -3.9511 F   0  0  0  0  0  0  0  0  0  0  0  0
  1 11  1  0  0  0  0
  1  2  1  0  0  0  0
  2  3  1  0  0  0  0
  4  1  2  0  0  0  0
  5  6  2  0  0  0  0
  5  4  1  0  0  0  0
  6 10  1  0  0  0  0
  7  9  2  0  0  0  0
  7  6  1  0  0  0  0
  8  7  2  0  0  0  0
 10 14  1  0  0  0  0
 10 11  2  0  0  0  0
 11 15  1  0  0  0  0
 13  5  1  0  0  0  0
 16 19  2  0  0  0  0
 16 18  2  0  0  0  0
 16 20  1  0  0  0  0
 17 16  1  0  0  0  0
 20 12  1  0  0  0  0
 21 17  1  0  0  0  0
 22 17  1  0  0  0  0
 23 17  1  0  0  0  0
M  RAD  3   2   2   3   3   4   2
M  END
