Coordinates from ORCA-job 4-NO2PhN2+~TfO-_B3LYPG-6-31G_dp-CH-Scan-d09-49-n800
 OpenBabel11261919533D

 23 22  0  0  0  0  0  0  0  0999 V2000
   -1.5622   -0.6183   -0.0241 C   0  0  0  0  0  0  0  0  0  0  0  0
   -2.8811   -1.0409    0.2213 N   0  0  0  0  0  0  0  0  0  0  0  0
   -3.9486   -1.3070    0.4110 N   0  0  0  0  0  0  0  0  0  0  0  0
   -1.4922    0.7349   -0.3599 C   0  0  0  0  0  0  0  0  0  0  0  0
   -0.1299    1.0981   -0.5872 C   0  0  0  0  0  0  0  0  0  0  0  0
    0.9069    0.1840   -0.4756 C   0  0  0  0  0  0  0  0  0  0  0  0
    2.3020    0.6320   -0.7301 N   0  0  0  0  0  0  0  0  0  0  0  0
    2.4758    1.8051   -1.0463 O   0  0  0  0  0  0  0  0  0  0  0  0
    3.1971   -0.2038   -0.6068 O   0  0  0  0  0  0  0  0  0  0  0  0
    0.7289   -1.1730   -0.1270 C   0  0  0  0  0  0  0  0  0  0  0  0
   -0.5534   -1.6088    0.1132 C   0  0  0  0  0  0  0  0  0  0  0  0
   -4.8610    2.8725   -1.0194 H   0  0  0  0  0  0  0  0  0  0  0  0
    0.1295    2.1173   -0.8595 H   0  0  0  0  0  0  0  0  0  0  0  0
    1.5877   -1.8266   -0.0558 H   0  0  0  0  0  0  0  0  0  0  0  0
   -0.7698   -2.6368    0.3897 H   0  0  0  0  0  0  0  0  0  0  0  0
   -6.2928    1.5129   -1.8683 S   0  0  0  0  0  0  0  0  0  0  0  0
   -5.8522    1.6794   -3.6738 C   0  0  0  0  0  0  0  0  0  0  0  0
   -5.4467    0.4630   -1.3161 O   0  0  0  0  0  0  0  0  0  0  0  0
   -7.7363    1.5084   -1.7652 O   0  0  0  0  0  0  0  0  0  0  0  0
   -5.7767    2.9581   -1.3387 O   0  0  0  0  0  0  0  0  0  0  0  0
   -4.5465    1.9290   -3.7821 F   0  0  0  0  0  0  0  0  0  0  0  0
   -6.1432    0.5326   -4.2838 F   0  0  0  0  0  0  0  0  0  0  0  0
   -6.5476    2.6713   -4.2183 F   0  0  0  0  0  0  0  0  0  0  0  0
  1 11  1  0  0  0  0
  1  2  1  0  0  0  0
  2  3  1  0  0  0  0
  4  1  2  0  0  0  0
  5  6  2  0  0  0  0
  5  4  1  0  0  0  0
  6 10  1  0  0  0  0
  7  9  2  0  0  0  0
  7  6  1  0  0  0  0
  8  7  2  0  0  0  0
 10 14  1  0  0  0  0
 10 11  2  0  0  0  0
 11 15  1  0  0  0  0
 13  5  1  0  0  0  0
 16 19  2  0  0  0  0
 16 20  1  0  0  0  0
 16 18  2  0  0  0  0
 17 16  1  0  0  0  0
 20 12  1  0  0  0  0
 21 17  1  0  0  0  0
 22 17  1  0  0  0  0
 23 17  1  0  0  0  0
M  RAD  3   2   2   3   3   4   2
M  END
