Coordinates from ORCA-job 4-NO2PhN2+~TfO-_B3LYPG-6-31G_dp-CH-Scan-d09-49-n800
 OpenBabel11261919523D

 23 22  0  0  0  0  0  0  0  0999 V2000
   -1.8790   -0.6592   -0.1079 C   0  0  0  0  0  0  0  0  0  0  0  0
   -3.1325   -1.2198    0.1575 N   0  0  0  0  0  0  0  0  0  0  0  0
   -4.1503   -1.6285    0.3564 N   0  0  0  0  0  0  0  0  0  0  0  0
   -1.9242    0.6580   -0.5830 C   0  0  0  0  0  0  0  0  0  0  0  0
   -0.6119    1.1494   -0.8205 C   0  0  0  0  0  0  0  0  0  0  0  0
    0.5149    0.3737   -0.5891 C   0  0  0  0  0  0  0  0  0  0  0  0
    1.8592    0.9509   -0.8581 N   0  0  0  0  0  0  0  0  0  0  0  0
    1.9086    2.1024   -1.2774 O   0  0  0  0  0  0  0  0  0  0  0  0
    2.8339    0.2328   -0.6415 O   0  0  0  0  0  0  0  0  0  0  0  0
    0.4718   -0.9497   -0.1075 C   0  0  0  0  0  0  0  0  0  0  0  0
   -0.7639   -1.4999    0.1475 C   0  0  0  0  0  0  0  0  0  0  0  0
   -3.7837    1.8622   -0.9573 H   0  0  0  0  0  0  0  0  0  0  0  0
   -0.4621    2.1574   -1.1933 H   0  0  0  0  0  0  0  0  0  0  0  0
    1.3920   -1.4958    0.0499 H   0  0  0  0  0  0  0  0  0  0  0  0
   -0.8734   -2.5134    0.5200 H   0  0  0  0  0  0  0  0  0  0  0  0
   -5.7631    1.4436   -1.7095 S   0  0  0  0  0  0  0  0  0  0  0  0
   -5.4808    1.6777   -3.5358 C   0  0  0  0  0  0  0  0  0  0  0  0
   -5.4610    0.0420   -1.4240 O   0  0  0  0  0  0  0  0  0  0  0  0
   -7.0478    2.0359   -1.3935 O   0  0  0  0  0  0  0  0  0  0  0  0
   -4.6156    2.3879   -1.1249 O   0  0  0  0  0  0  0  0  0  0  0  0
   -4.2381    1.2983   -3.8447 F   0  0  0  0  0  0  0  0  0  0  0  0
   -6.3542    0.9225   -4.2022 F   0  0  0  0  0  0  0  0  0  0  0  0
   -5.6511    2.9552   -3.8640 F   0  0  0  0  0  0  0  0  0  0  0  0
  1 11  1  0  0  0  0
  1  2  1  0  0  0  0
  2  3  1  0  0  0  0
  4  1  2  0  0  0  0
  5  6  2  0  0  0  0
  5  4  1  0  0  0  0
  6 10  1  0  0  0  0
  7  9  2  0  0  0  0
  7  6  1  0  0  0  0
  8  7  2  0  0  0  0
 10 14  1  0  0  0  0
 10 11  2  0  0  0  0
 11 15  1  0  0  0  0
 13  5  1  0  0  0  0
 16 18  2  0  0  0  0
 16 19  2  0  0  0  0
 16 20  1  0  0  0  0
 17 16  1  0  0  0  0
 20 12  1  0  0  0  0
 21 17  1  0  0  0  0
 22 17  1  0  0  0  0
 23 17  1  0  0  0  0
M  RAD  3   2   2   3   3   4   2
M  END
