Coordinates from ORCA-job 4-NO2PhN2+~TfO-_B3LYPG-6-31G_dp-CH-Scan-d09-49-n800
 OpenBabel11261919523D

 23 22  0  0  0  0  0  0  0  0999 V2000
   -2.0350   -0.6113   -0.0775 C   0  0  0  0  0  0  0  0  0  0  0  0
   -3.2722   -1.1749    0.2345 N   0  0  0  0  0  0  0  0  0  0  0  0
   -4.2798   -1.5900    0.4605 N   0  0  0  0  0  0  0  0  0  0  0  0
   -2.0697    0.6872   -0.6047 C   0  0  0  0  0  0  0  0  0  0  0  0
   -0.7813    1.1875   -0.8893 C   0  0  0  0  0  0  0  0  0  0  0  0
    0.3553    0.4275   -0.6466 C   0  0  0  0  0  0  0  0  0  0  0  0
    1.6891    1.0048   -0.9627 N   0  0  0  0  0  0  0  0  0  0  0  0
    1.7164    2.1388   -1.4268 O   0  0  0  0  0  0  0  0  0  0  0  0
    2.6711    0.3019   -0.7354 O   0  0  0  0  0  0  0  0  0  0  0  0
    0.3256   -0.8718   -0.1133 C   0  0  0  0  0  0  0  0  0  0  0  0
   -0.9036   -1.4205    0.1863 C   0  0  0  0  0  0  0  0  0  0  0  0
   -3.3521    1.4849   -0.8830 H   0  0  0  0  0  0  0  0  0  0  0  0
   -0.6594    2.1813   -1.3059 H   0  0  0  0  0  0  0  0  0  0  0  0
    1.2507   -1.4083    0.0496 H   0  0  0  0  0  0  0  0  0  0  0  0
   -0.9974   -2.4195    0.5983 H   0  0  0  0  0  0  0  0  0  0  0  0
   -5.4755    1.3220   -1.6818 S   0  0  0  0  0  0  0  0  0  0  0  0
   -5.3146    1.7278   -3.4880 C   0  0  0  0  0  0  0  0  0  0  0  0
   -5.2109   -0.1249   -1.5896 O   0  0  0  0  0  0  0  0  0  0  0  0
   -6.7612    1.8499   -1.2495 O   0  0  0  0  0  0  0  0  0  0  0  0
   -4.2912    2.1290   -1.0880 O   0  0  0  0  0  0  0  0  0  0  0  0
   -4.0981    1.3704   -3.9227 F   0  0  0  0  0  0  0  0  0  0  0  0
   -6.2377    1.0556   -4.1804 F   0  0  0  0  0  0  0  0  0  0  0  0
   -5.4807    3.0361   -3.6867 F   0  0  0  0  0  0  0  0  0  0  0  0
  1 11  1  0  0  0  0
  1  2  1  0  0  0  0
  2  3  1  0  0  0  0
  4  1  2  0  0  0  0
  5  6  2  0  0  0  0
  5  4  1  0  0  0  0
  6 10  1  0  0  0  0
  7  9  2  0  0  0  0
  7  6  1  0  0  0  0
  8  7  2  0  0  0  0
 10 14  1  0  0  0  0
 10 11  2  0  0  0  0
 11 15  1  0  0  0  0
 13  5  1  0  0  0  0
 16 18  2  0  0  0  0
 16 19  2  0  0  0  0
 16 20  1  0  0  0  0
 17 16  1  0  0  0  0
 20 12  1  0  0  0  0
 21 17  1  0  0  0  0
 22 17  1  0  0  0  0
 23 17  1  0  0  0  0
M  RAD  3   2   2   3   3   4   2
M  END
