Coordinates from ORCA-job 4-NO2PhN2+~TfO-_B3LYPG-6-31G_dp-CH-Scan-d09-49-n800
 OpenBabel11261919523D

 23 22  0  0  0  0  0  0  0  0999 V2000
   -1.6882   -0.6676   -0.1126 C   0  0  0  0  0  0  0  0  0  0  0  0
   -2.9776   -1.1783    0.0960 N   0  0  0  0  0  0  0  0  0  0  0  0
   -4.0235   -1.5323    0.2559 N   0  0  0  0  0  0  0  0  0  0  0  0
   -1.6824    0.6680   -0.5285 C   0  0  0  0  0  0  0  0  0  0  0  0
   -0.3405    1.1123   -0.7126 C   0  0  0  0  0  0  0  0  0  0  0  0
    0.7482    0.2820   -0.4910 C   0  0  0  0  0  0  0  0  0  0  0  0
    2.1213    0.8129   -0.7037 N   0  0  0  0  0  0  0  0  0  0  0  0
    2.2301    1.9765   -1.0771 O   0  0  0  0  0  0  0  0  0  0  0  0
    3.0617    0.0462   -0.4991 O   0  0  0  0  0  0  0  0  0  0  0  0
    0.6424   -1.0602   -0.0688 C   0  0  0  0  0  0  0  0  0  0  0  0
   -0.6191   -1.5703    0.1333 C   0  0  0  0  0  0  0  0  0  0  0  0
   -4.1951    2.3329   -1.0711 H   0  0  0  0  0  0  0  0  0  0  0  0
   -0.1374    2.1285   -1.0367 H   0  0  0  0  0  0  0  0  0  0  0  0
    1.5371   -1.6479    0.0851 H   0  0  0  0  0  0  0  0  0  0  0  0
   -0.7793   -2.5936    0.4596 H   0  0  0  0  0  0  0  0  0  0  0  0
   -6.0516    1.5199   -1.7814 S   0  0  0  0  0  0  0  0  0  0  0  0
   -5.8108    1.6790   -3.6239 C   0  0  0  0  0  0  0  0  0  0  0  0
   -5.4998    0.2272   -1.3921 O   0  0  0  0  0  0  0  0  0  0  0  0
   -7.4110    1.9185   -1.4827 O   0  0  0  0  0  0  0  0  0  0  0  0
   -5.0738    2.7047   -1.2819 O   0  0  0  0  0  0  0  0  0  0  0  0
   -4.5193    1.5155   -3.9140 F   0  0  0  0  0  0  0  0  0  0  0  0
   -6.5289    0.7318   -4.2249 F   0  0  0  0  0  0  0  0  0  0  0  0
   -6.2147    2.8779   -4.0305 F   0  0  0  0  0  0  0  0  0  0  0  0
  1  2  1  0  0  0  0
  1 11  2  0  0  0  0
  2  3  1  0  0  0  0
  4  1  1  0  0  0  0
  5  4  2  0  0  0  0
  5  6  1  0  0  0  0
  6 10  2  0  0  0  0
  7  9  2  0  0  0  0
  7  6  1  0  0  0  0
  8  7  2  0  0  0  0
 10 14  1  0  0  0  0
 10 11  1  0  0  0  0
 11 15  1  0  0  0  0
 13  5  1  0  0  0  0
 16 19  2  0  0  0  0
 16 18  2  0  0  0  0
 16 20  1  0  0  0  0
 17 16  1  0  0  0  0
 20 12  1  0  0  0  0
 21 17  1  0  0  0  0
 22 17  1  0  0  0  0
 23 17  1  0  0  0  0
M  RAD  3   2   2   3   3   4   2
M  END
