Coordinates from ORCA-job 4-NO2PhN2+~TfO-_B3LYPG-6-31G_dp-CH-Scan-d09-49-n800
 OpenBabel11261919523D

 23 22  0  0  0  0  0  0  0  0999 V2000
   -2.0318   -0.6161   -0.0780 C   0  0  0  0  0  0  0  0  0  0  0  0
   -3.2674   -1.1832    0.2349 N   0  0  0  0  0  0  0  0  0  0  0  0
   -4.2733   -1.6014    0.4630 N   0  0  0  0  0  0  0  0  0  0  0  0
   -2.0728    0.6838   -0.6014 C   0  0  0  0  0  0  0  0  0  0  0  0
   -0.7842    1.1861   -0.8866 C   0  0  0  0  0  0  0  0  0  0  0  0
    0.3544    0.4277   -0.6484 C   0  0  0  0  0  0  0  0  0  0  0  0
    1.6866    1.0083   -0.9656 N   0  0  0  0  0  0  0  0  0  0  0  0
    1.7112    2.1433   -1.4275 O   0  0  0  0  0  0  0  0  0  0  0  0
    2.6704    0.3066   -0.7425 O   0  0  0  0  0  0  0  0  0  0  0  0
    0.3287   -0.8734   -0.1187 C   0  0  0  0  0  0  0  0  0  0  0  0
   -0.8987   -1.4251    0.1816 C   0  0  0  0  0  0  0  0  0  0  0  0
   -3.3799    1.4993   -0.8808 H   0  0  0  0  0  0  0  0  0  0  0  0
   -0.6636    2.1812   -1.3004 H   0  0  0  0  0  0  0  0  0  0  0  0
    1.2552   -1.4085    0.0408 H   0  0  0  0  0  0  0  0  0  0  0  0
   -0.9901   -2.4254    0.5912 H   0  0  0  0  0  0  0  0  0  0  0  0
   -5.4872    1.3303   -1.6796 S   0  0  0  0  0  0  0  0  0  0  0  0
   -5.3023    1.7217   -3.4869 C   0  0  0  0  0  0  0  0  0  0  0  0
   -5.2340   -0.1163   -1.5713 O   0  0  0  0  0  0  0  0  0  0  0  0
   -6.7698    1.8767   -1.2632 O   0  0  0  0  0  0  0  0  0  0  0  0
   -4.3011    2.1362   -1.0787 O   0  0  0  0  0  0  0  0  0  0  0  0
   -4.0836    1.3519   -3.9041 F   0  0  0  0  0  0  0  0  0  0  0  0
   -6.2226    1.0507   -4.1837 F   0  0  0  0  0  0  0  0  0  0  0  0
   -5.4565    3.0293   -3.6968 F   0  0  0  0  0  0  0  0  0  0  0  0
  1 11  1  0  0  0  0
  1  2  1  0  0  0  0
  2  3  1  0  0  0  0
  4  1  2  0  0  0  0
  5  6  2  0  0  0  0
  5  4  1  0  0  0  0
  6 10  1  0  0  0  0
  7  9  2  0  0  0  0
  7  6  1  0  0  0  0
  8  7  2  0  0  0  0
 10 14  1  0  0  0  0
 10 11  2  0  0  0  0
 11 15  1  0  0  0  0
 13  5  1  0  0  0  0
 16 18  2  0  0  0  0
 16 19  2  0  0  0  0
 16 20  1  0  0  0  0
 17 16  1  0  0  0  0
 20 12  1  0  0  0  0
 21 17  1  0  0  0  0
 22 17  1  0  0  0  0
 23 17  1  0  0  0  0
M  RAD  3   2   2   3   3   4   2
M  END
