Coordinates from ORCA-job 4-NO2PhN2+~TfO-_B3LYPG-6-31G_dp-CH-Scan-d09-49-n800
 OpenBabel11261919523D

 23 22  0  0  0  0  0  0  0  0999 V2000
   -1.9376   -0.6535   -0.1013 C   0  0  0  0  0  0  0  0  0  0  0  0
   -3.1807   -1.2255    0.1827 N   0  0  0  0  0  0  0  0  0  0  0  0
   -4.1913   -1.6441    0.3947 N   0  0  0  0  0  0  0  0  0  0  0  0
   -1.9950    0.6592   -0.5895 C   0  0  0  0  0  0  0  0  0  0  0  0
   -0.6923    1.1614   -0.8458 C   0  0  0  0  0  0  0  0  0  0  0  0
    0.4442    0.3983   -0.6182 C   0  0  0  0  0  0  0  0  0  0  0  0
    1.7799    0.9858   -0.9072 N   0  0  0  0  0  0  0  0  0  0  0  0
    1.8126    2.1326   -1.3400 O   0  0  0  0  0  0  0  0  0  0  0  0
    2.7631    0.2791   -0.6932 O   0  0  0  0  0  0  0  0  0  0  0  0
    0.4176   -0.9195   -0.1230 C   0  0  0  0  0  0  0  0  0  0  0  0
   -0.8107   -1.4784    0.1504 C   0  0  0  0  0  0  0  0  0  0  0  0
   -3.6633    1.7329   -0.9206 H   0  0  0  0  0  0  0  0  0  0  0  0
   -0.5580    2.1669   -1.2303 H   0  0  0  0  0  0  0  0  0  0  0  0
    1.3440   -1.4561    0.0307 H   0  0  0  0  0  0  0  0  0  0  0  0
   -0.9068   -2.4890    0.5338 H   0  0  0  0  0  0  0  0  0  0  0  0
   -5.6692    1.4175   -1.6893 S   0  0  0  0  0  0  0  0  0  0  0  0
   -5.3802    1.6799   -3.5096 C   0  0  0  0  0  0  0  0  0  0  0  0
   -5.4230   -0.0042   -1.4419 O   0  0  0  0  0  0  0  0  0  0  0  0
   -6.9385    2.0396   -1.3642 O   0  0  0  0  0  0  0  0  0  0  0  0
   -4.4937    2.2964   -1.0848 O   0  0  0  0  0  0  0  0  0  0  0  0
   -4.1463    1.2753   -3.8270 F   0  0  0  0  0  0  0  0  0  0  0  0
   -6.2706    0.9612   -4.1945 F   0  0  0  0  0  0  0  0  0  0  0  0
   -5.5164    2.9679   -3.8145 F   0  0  0  0  0  0  0  0  0  0  0  0
  1 11  1  0  0  0  0
  1  2  1  0  0  0  0
  2  3  1  0  0  0  0
  4  1  2  0  0  0  0
  5  6  2  0  0  0  0
  5  4  1  0  0  0  0
  6 10  1  0  0  0  0
  7  9  2  0  0  0  0
  7  6  1  0  0  0  0
  8  7  2  0  0  0  0
 10 14  1  0  0  0  0
 10 11  2  0  0  0  0
 11 15  1  0  0  0  0
 13  5  1  0  0  0  0
 16 18  2  0  0  0  0
 16 19  2  0  0  0  0
 16 20  1  0  0  0  0
 17 16  1  0  0  0  0
 20 12  1  0  0  0  0
 21 17  1  0  0  0  0
 22 17  1  0  0  0  0
 23 17  1  0  0  0  0
M  RAD  3   2   2   3   3   4   2
M  END
