Coordinates from ORCA-job 4-NO2PhN2+~TfO-_B3LYPG-6-31G_dp-CH-Scan-d09-49-n800
 OpenBabel11261919523D

 23 22  0  0  0  0  0  0  0  0999 V2000
   -2.0105   -0.5896   -0.1148 C   0  0  0  0  0  0  0  0  0  0  0  0
   -3.2760   -1.1177    0.1331 N   0  0  0  0  0  0  0  0  0  0  0  0
   -4.3288   -1.4590    0.2561 N   0  0  0  0  0  0  0  0  0  0  0  0
   -1.9694    0.6918   -0.6796 C   0  0  0  0  0  0  0  0  0  0  0  0
   -0.6761    1.1809   -0.9119 C   0  0  0  0  0  0  0  0  0  0  0  0
    0.4331    0.4102   -0.5823 C   0  0  0  0  0  0  0  0  0  0  0  0
    1.7901    0.9615   -0.8393 N   0  0  0  0  0  0  0  0  0  0  0  0
    1.8560    2.0820   -1.3304 O   0  0  0  0  0  0  0  0  0  0  0  0
    2.7462    0.2514   -0.5397 O   0  0  0  0  0  0  0  0  0  0  0  0
    0.3498   -0.8688   -0.0152 C   0  0  0  0  0  0  0  0  0  0  0  0
   -0.9044   -1.3937    0.2326 C   0  0  0  0  0  0  0  0  0  0  0  0
   -3.0942    1.3941   -0.9843 H   0  0  0  0  0  0  0  0  0  0  0  0
   -0.5280    2.1613   -1.3492 H   0  0  0  0  0  0  0  0  0  0  0  0
    1.2553   -1.4141    0.2153 H   0  0  0  0  0  0  0  0  0  0  0  0
   -1.0342   -2.3786    0.6671 H   0  0  0  0  0  0  0  0  0  0  0  0
   -5.4201    1.3026   -1.7125 S   0  0  0  0  0  0  0  0  0  0  0  0
   -5.5776    1.7644   -3.5044 C   0  0  0  0  0  0  0  0  0  0  0  0
   -5.0821   -0.1443   -1.7437 O   0  0  0  0  0  0  0  0  0  0  0  0
   -6.6780    1.6928   -1.0812 O   0  0  0  0  0  0  0  0  0  0  0  0
   -4.2214    2.1304   -1.2714 O   0  0  0  0  0  0  0  0  0  0  0  0
   -4.4377    1.4830   -4.1538 F   0  0  0  0  0  0  0  0  0  0  0  0
   -6.5739    1.0725   -4.0664 F   0  0  0  0  0  0  0  0  0  0  0  0
   -5.8306    3.0706   -3.6270 F   0  0  0  0  0  0  0  0  0  0  0  0
  1  2  1  0  0  0  0
  1 11  2  0  0  0  0
  2  3  1  0  0  0  0
  4  1  1  0  0  0  0
  5  4  2  0  0  0  0
  5  6  1  0  0  0  0
  6 10  2  0  0  0  0
  7  6  1  0  0  0  0
  7  9  2  0  0  0  0
  8  7  2  0  0  0  0
 10 14  1  0  0  0  0
 10 11  1  0  0  0  0
 11 15  1  0  0  0  0
 12  4  1  0  0  0  0
 13  5  1  0  0  0  0
 16 20  2  0  0  0  0
 16 19  1  0  0  0  0
 17 16  1  0  0  0  0
 18 16  2  0  0  0  0
 21 17  1  0  0  0  0
 22 17  1  0  0  0  0
 23 17  1  0  0  0  0
M  RAD  3   2   2   3   3  19   2
M  END
