Coordinates from ORCA-job 4-NO2PhN2+~TfO-_B3LYPG-6-31G_dp-CH-Scan-d09-49-n800
 OpenBabel11261919523D

 23 22  0  0  0  0  0  0  0  0999 V2000
   -1.8418   -0.6606   -0.1082 C   0  0  0  0  0  0  0  0  0  0  0  0
   -3.1021   -1.2122    0.1481 N   0  0  0  0  0  0  0  0  0  0  0  0
   -4.1252   -1.6103    0.3423 N   0  0  0  0  0  0  0  0  0  0  0  0
   -1.8780    0.6606   -0.5713 C   0  0  0  0  0  0  0  0  0  0  0  0
   -0.5597    1.1429   -0.8002 C   0  0  0  0  0  0  0  0  0  0  0  0
    0.5602    0.3563   -0.5723 C   0  0  0  0  0  0  0  0  0  0  0  0
    1.9100    0.9248   -0.8320 N   0  0  0  0  0  0  0  0  0  0  0  0
    1.9706    2.0792   -1.2420 O   0  0  0  0  0  0  0  0  0  0  0  0
    2.8785    0.1968   -0.6196 O   0  0  0  0  0  0  0  0  0  0  0  0
    0.5054   -0.9714   -0.1025 C   0  0  0  0  0  0  0  0  0  0  0  0
   -0.7351   -1.5140    0.1438 C   0  0  0  0  0  0  0  0  0  0  0  0
   -3.8716    1.9575   -0.9727 H   0  0  0  0  0  0  0  0  0  0  0  0
   -0.3996    2.1529   -1.1636 H   0  0  0  0  0  0  0  0  0  0  0  0
    1.4210   -1.5258    0.0528 H   0  0  0  0  0  0  0  0  0  0  0  0
   -0.8539   -2.5299    0.5072 H   0  0  0  0  0  0  0  0  0  0  0  0
   -5.8270    1.4583   -1.7241 S   0  0  0  0  0  0  0  0  0  0  0  0
   -5.5370    1.6759   -3.5519 C   0  0  0  0  0  0  0  0  0  0  0  0
   -5.4798    0.0738   -1.4126 O   0  0  0  0  0  0  0  0  0  0  0  0
   -7.1289    2.0187   -1.4232 O   0  0  0  0  0  0  0  0  0  0  0  0
   -4.7118    2.4525   -1.1454 O   0  0  0  0  0  0  0  0  0  0  0  0
   -4.2812    1.3293   -3.8444 F   0  0  0  0  0  0  0  0  0  0  0  0
   -6.3825    0.8854   -4.2127 F   0  0  0  0  0  0  0  0  0  0  0  0
   -5.7429    2.9429   -3.8984 F   0  0  0  0  0  0  0  0  0  0  0  0
  1 11  1  0  0  0  0
  1  2  1  0  0  0  0
  2  3  1  0  0  0  0
  4  1  2  0  0  0  0
  5  6  2  0  0  0  0
  5  4  1  0  0  0  0
  6 10  1  0  0  0  0
  7  9  2  0  0  0  0
  7  6  1  0  0  0  0
  8  7  2  0  0  0  0
 10 14  1  0  0  0  0
 10 11  2  0  0  0  0
 11 15  1  0  0  0  0
 13  5  1  0  0  0  0
 16 19  2  0  0  0  0
 16 18  2  0  0  0  0
 16 20  1  0  0  0  0
 17 16  1  0  0  0  0
 20 12  1  0  0  0  0
 21 17  1  0  0  0  0
 22 17  1  0  0  0  0
 23 17  1  0  0  0  0
M  RAD  3   2   2   3   3   4   2
M  END
