Coordinates from ORCA-job 4-NO2PhN2+~TfO-_B3LYPG-6-31G_dp-CH-Scan-d09-49-n800
 OpenBabel11261919523D

 23 22  0  0  0  0  0  0  0  0999 V2000
   -1.6802   -0.6681   -0.1145 C   0  0  0  0  0  0  0  0  0  0  0  0
   -2.9712   -1.1765    0.0910 N   0  0  0  0  0  0  0  0  0  0  0  0
   -4.0177   -1.5313    0.2453 N   0  0  0  0  0  0  0  0  0  0  0  0
   -1.6718    0.6675   -0.5293 C   0  0  0  0  0  0  0  0  0  0  0  0
   -0.3289    1.1102   -0.7100 C   0  0  0  0  0  0  0  0  0  0  0  0
    0.7582    0.2782   -0.4867 C   0  0  0  0  0  0  0  0  0  0  0  0
    2.1325    0.8073   -0.6960 N   0  0  0  0  0  0  0  0  0  0  0  0
    2.2440    1.9723   -1.0642 O   0  0  0  0  0  0  0  0  0  0  0  0
    3.0716    0.0403   -0.4860 O   0  0  0  0  0  0  0  0  0  0  0  0
    0.6496   -1.0643   -0.0659 C   0  0  0  0  0  0  0  0  0  0  0  0
   -0.6131   -1.5727    0.1331 C   0  0  0  0  0  0  0  0  0  0  0  0
   -4.2079    2.3496   -1.0802 H   0  0  0  0  0  0  0  0  0  0  0  0
   -0.1236    2.1265   -1.0327 H   0  0  0  0  0  0  0  0  0  0  0  0
    1.5432   -1.6532    0.0897 H   0  0  0  0  0  0  0  0  0  0  0  0
   -0.7755   -2.5960    0.4583 H   0  0  0  0  0  0  0  0  0  0  0  0
   -6.0612    1.5242   -1.7833 S   0  0  0  0  0  0  0  0  0  0  0  0
   -5.8286    1.6788   -3.6273 C   0  0  0  0  0  0  0  0  0  0  0  0
   -5.5001    0.2361   -1.3918 O   0  0  0  0  0  0  0  0  0  0  0  0
   -7.4216    1.9163   -1.4803 O   0  0  0  0  0  0  0  0  0  0  0  0
   -5.0879    2.7167   -1.2920 O   0  0  0  0  0  0  0  0  0  0  0  0
   -4.5376    1.5201   -3.9221 F   0  0  0  0  0  0  0  0  0  0  0  0
   -6.5451    0.7267   -4.2224 F   0  0  0  0  0  0  0  0  0  0  0  0
   -6.2394    2.8747   -4.0357 F   0  0  0  0  0  0  0  0  0  0  0  0
  1  2  1  0  0  0  0
  1 11  2  0  0  0  0
  2  3  1  0  0  0  0
  4  1  1  0  0  0  0
  5  4  2  0  0  0  0
  5  6  1  0  0  0  0
  6 10  2  0  0  0  0
  7  6  1  0  0  0  0
  7  9  2  0  0  0  0
  8  7  2  0  0  0  0
 10 14  1  0  0  0  0
 10 11  1  0  0  0  0
 11 15  1  0  0  0  0
 13  5  1  0  0  0  0
 16 19  2  0  0  0  0
 16 18  2  0  0  0  0
 16 20  1  0  0  0  0
 17 16  1  0  0  0  0
 20 12  1  0  0  0  0
 21 17  1  0  0  0  0
 22 17  1  0  0  0  0
 23 17  1  0  0  0  0
M  RAD  3   2   2   3   3   4   2
M  END
