Coordinates from ORCA-job 4-NO2PhN2+~TfO-_B3LYPG-6-31G_dp-CH-Scan-d09-49-n800
 OpenBabel11261919523D

 23 22  0  0  0  0  0  0  0  0999 V2000
   -1.7946   -0.6566   -0.0961 C   0  0  0  0  0  0  0  0  0  0  0  0
   -3.0648   -1.1897    0.1573 N   0  0  0  0  0  0  0  0  0  0  0  0
   -4.0952   -1.5696    0.3506 N   0  0  0  0  0  0  0  0  0  0  0  0
   -1.8168    0.6719   -0.5367 C   0  0  0  0  0  0  0  0  0  0  0  0
   -0.4904    1.1362   -0.7649 C   0  0  0  0  0  0  0  0  0  0  0  0
    0.6180    0.3285   -0.5570 C   0  0  0  0  0  0  0  0  0  0  0  0
    1.9755    0.8790   -0.8155 N   0  0  0  0  0  0  0  0  0  0  0  0
    2.0531    2.0379   -1.2101 O   0  0  0  0  0  0  0  0  0  0  0  0
    2.9335    0.1317   -0.6228 O   0  0  0  0  0  0  0  0  0  0  0  0
    0.5455   -1.0065   -0.1084 C   0  0  0  0  0  0  0  0  0  0  0  0
   -0.7017   -1.5336    0.1363 C   0  0  0  0  0  0  0  0  0  0  0  0
   -4.0190    2.1130   -0.9700 H   0  0  0  0  0  0  0  0  0  0  0  0
   -0.3149    2.1495   -1.1126 H   0  0  0  0  0  0  0  0  0  0  0  0
    1.4534   -1.5771    0.0324 H   0  0  0  0  0  0  0  0  0  0  0  0
   -0.8350   -2.5533    0.4844 H   0  0  0  0  0  0  0  0  0  0  0  0
   -5.9175    1.4704   -1.7482 S   0  0  0  0  0  0  0  0  0  0  0  0
   -5.5871    1.6761   -3.5714 C   0  0  0  0  0  0  0  0  0  0  0  0
   -5.4906    0.1191   -1.3979 O   0  0  0  0  0  0  0  0  0  0  0  0
   -7.2561    1.9591   -1.4891 O   0  0  0  0  0  0  0  0  0  0  0  0
   -4.8797    2.5487   -1.1582 O   0  0  0  0  0  0  0  0  0  0  0  0
   -4.2950    1.4456   -3.8130 F   0  0  0  0  0  0  0  0  0  0  0  0
   -6.3306    0.7937   -4.2377 F   0  0  0  0  0  0  0  0  0  0  0  0
   -5.9019    2.9094   -3.9540 F   0  0  0  0  0  0  0  0  0  0  0  0
  1 11  1  0  0  0  0
  1  2  1  0  0  0  0
  2  3  1  0  0  0  0
  4  1  2  0  0  0  0
  5  6  2  0  0  0  0
  5  4  1  0  0  0  0
  6 10  1  0  0  0  0
  7  9  2  0  0  0  0
  7  6  1  0  0  0  0
  8  7  2  0  0  0  0
 10 14  1  0  0  0  0
 10 11  2  0  0  0  0
 11 15  1  0  0  0  0
 13  5  1  0  0  0  0
 16 19  2  0  0  0  0
 16 18  2  0  0  0  0
 16 20  1  0  0  0  0
 17 16  1  0  0  0  0
 20 12  1  0  0  0  0
 21 17  1  0  0  0  0
 22 17  1  0  0  0  0
 23 17  1  0  0  0  0
M  RAD  3   2   2   3   3   4   2
M  END
