Coordinates from ORCA-job 4-NO2PhN2+~TfO-_B3LYPG-6-31G_dp-CH-Scan-d09-49-n800
 OpenBabel11261919523D

 23 22  0  0  0  0  0  0  0  0999 V2000
   -2.1578   -0.2491    0.0827 C   0  0  0  0  0  0  0  0  0  0  0  0
   -3.4290   -0.5456    0.5719 N   0  0  0  0  0  0  0  0  0  0  0  0
   -4.5464   -0.4497    0.7009 N   0  0  0  0  0  0  0  0  0  0  0  0
   -2.0016    0.9144   -0.6839 C   0  0  0  0  0  0  0  0  0  0  0  0
   -0.7273    1.2015   -1.1580 C   0  0  0  0  0  0  0  0  0  0  0  0
    0.3167    0.3288   -0.8551 C   0  0  0  0  0  0  0  0  0  0  0  0
    1.6740    0.6460   -1.3657 N   0  0  0  0  0  0  0  0  0  0  0  0
    1.7968    1.6721   -2.0249 O   0  0  0  0  0  0  0  0  0  0  0  0
    2.5728   -0.1415   -1.0863 O   0  0  0  0  0  0  0  0  0  0  0  0
    0.1542   -0.8285   -0.0933 C   0  0  0  0  0  0  0  0  0  0  0  0
   -1.1113   -1.1268    0.3937 C   0  0  0  0  0  0  0  0  0  0  0  0
   -2.9052    1.5754   -0.9003 H   0  0  0  0  0  0  0  0  0  0  0  0
   -0.5369    2.0807   -1.7605 H   0  0  0  0  0  0  0  0  0  0  0  0
    1.0072   -1.4645    0.1039 H   0  0  0  0  0  0  0  0  0  0  0  0
   -1.2946   -2.0137    0.9893 H   0  0  0  0  0  0  0  0  0  0  0  0
   -5.4676    0.5624   -1.9285 S   0  0  0  0  0  0  0  0  0  0  0  0
   -5.0968    2.0132   -3.0383 C   0  0  0  0  0  0  0  0  0  0  0  0
   -4.4239   -0.4351   -2.2474 O   0  0  0  0  0  0  0  0  0  0  0  0
   -6.8631    0.2206   -2.1962 O   0  0  0  0  0  0  0  0  0  0  0  0
   -5.2083    1.1937   -0.5613 O   0  0  0  0  0  0  0  0  0  0  0  0
   -3.8352    2.4584   -2.8201 F   0  0  0  0  0  0  0  0  0  0  0  0
   -5.1903    1.6497   -4.3192 F   0  0  0  0  0  0  0  0  0  0  0  0
   -5.9388    3.0212   -2.8062 F   0  0  0  0  0  0  0  0  0  0  0  0
  1 11  1  0  0  0  0
  1  2  1  0  0  0  0
  2  3  1  0  0  0  0
  4  1  2  0  0  0  0
  5  6  2  0  0  0  0
  5  4  1  0  0  0  0
  6 10  1  0  0  0  0
  7  9  2  0  0  0  0
  7  6  1  0  0  0  0
  8  7  2  0  0  0  0
 10 14  1  0  0  0  0
 10 11  2  0  0  0  0
 11 15  1  0  0  0  0
 12  4  1  0  0  0  0
 13  5  1  0  0  0  0
 16 20  1  0  0  0  0
 17 21  1  0  0  0  0
 17 23  1  0  0  0  0
 17 16  1  0  0  0  0
 18 16  2  0  0  0  0
 19 16  2  0  0  0  0
 22 17  1  0  0  0  0
M  RAD  3   2   2   3   3  20   2
M  END
