Coordinates from ORCA-job 4-NO2PhN2+~TfO-_B3LYPG-6-31G_dp-CH-Scan-d09-49-n800
 OpenBabel11261919523D

 23 22  0  0  0  0  0  0  0  0999 V2000
   -1.9139   -0.6579   -0.1072 C   0  0  0  0  0  0  0  0  0  0  0  0
   -3.1610   -1.2272    0.1669 N   0  0  0  0  0  0  0  0  0  0  0  0
   -4.1743   -1.6431    0.3716 N   0  0  0  0  0  0  0  0  0  0  0  0
   -1.9672    0.6567   -0.5898 C   0  0  0  0  0  0  0  0  0  0  0  0
   -0.6606    1.1561   -0.8361 C   0  0  0  0  0  0  0  0  0  0  0  0
    0.4725    0.3892   -0.6053 C   0  0  0  0  0  0  0  0  0  0  0  0
    1.8115    0.9742   -0.8838 N   0  0  0  0  0  0  0  0  0  0  0  0
    1.8504    2.1234   -1.3102 O   0  0  0  0  0  0  0  0  0  0  0  0
    2.7917    0.2640   -0.6672 O   0  0  0  0  0  0  0  0  0  0  0  0
    0.4399   -0.9311   -0.1160 C   0  0  0  0  0  0  0  0  0  0  0  0
   -0.7912   -1.4880    0.1477 C   0  0  0  0  0  0  0  0  0  0  0  0
   -3.7068    1.7826   -0.9397 H   0  0  0  0  0  0  0  0  0  0  0  0
   -0.5205    2.1629   -1.2154 H   0  0  0  0  0  0  0  0  0  0  0  0
    1.3642   -1.4706    0.0405 H   0  0  0  0  0  0  0  0  0  0  0  0
   -0.8922   -2.5000    0.5262 H   0  0  0  0  0  0  0  0  0  0  0  0
   -5.7055    1.4327   -1.6950 S   0  0  0  0  0  0  0  0  0  0  0  0
   -5.4238    1.6764   -3.5195 C   0  0  0  0  0  0  0  0  0  0  0  0
   -5.4433    0.0183   -1.4282 O   0  0  0  0  0  0  0  0  0  0  0  0
   -6.9768    2.0508   -1.3717 O   0  0  0  0  0  0  0  0  0  0  0  0
   -4.5344    2.3343   -1.1050 O   0  0  0  0  0  0  0  0  0  0  0  0
   -4.1885    1.2767   -3.8357 F   0  0  0  0  0  0  0  0  0  0  0  0
   -6.3119    0.9434   -4.1918 F   0  0  0  0  0  0  0  0  0  0  0  0
   -5.5705    2.9597   -3.8379 F   0  0  0  0  0  0  0  0  0  0  0  0
  1 11  1  0  0  0  0
  1  2  1  0  0  0  0
  2  3  1  0  0  0  0
  4  1  2  0  0  0  0
  5  6  2  0  0  0  0
  5  4  1  0  0  0  0
  6 10  1  0  0  0  0
  7  9  2  0  0  0  0
  7  6  1  0  0  0  0
  8  7  2  0  0  0  0
 10 14  1  0  0  0  0
 10 11  2  0  0  0  0
 11 15  1  0  0  0  0
 13  5  1  0  0  0  0
 16 18  2  0  0  0  0
 16 19  2  0  0  0  0
 16 20  1  0  0  0  0
 17 16  1  0  0  0  0
 20 12  1  0  0  0  0
 21 17  1  0  0  0  0
 22 17  1  0  0  0  0
 23 17  1  0  0  0  0
M  RAD  3   2   2   3   3   4   2
M  END
