Coordinates from ORCA-job 4-NO2PhN2+~TfO-_B3LYPG-6-31G_dp-CH-Scan-d09-49-n800
 OpenBabel11261919523D

 23 22  0  0  0  0  0  0  0  0999 V2000
   -1.6928   -0.6664   -0.1114 C   0  0  0  0  0  0  0  0  0  0  0  0
   -2.9816   -1.1772    0.1004 N   0  0  0  0  0  0  0  0  0  0  0  0
   -4.0265   -1.5334    0.2616 N   0  0  0  0  0  0  0  0  0  0  0  0
   -1.6878    0.6685   -0.5287 C   0  0  0  0  0  0  0  0  0  0  0  0
   -0.3466    1.1133   -0.7157 C   0  0  0  0  0  0  0  0  0  0  0  0
    0.7428    0.2836   -0.4952 C   0  0  0  0  0  0  0  0  0  0  0  0
    2.1154    0.8146   -0.7109 N   0  0  0  0  0  0  0  0  0  0  0  0
    2.2232    1.9791   -1.0821 O   0  0  0  0  0  0  0  0  0  0  0  0
    3.0564    0.0496   -0.5036 O   0  0  0  0  0  0  0  0  0  0  0  0
    0.6381   -1.0582   -0.0714 C   0  0  0  0  0  0  0  0  0  0  0  0
   -0.6230   -1.5684    0.1335 C   0  0  0  0  0  0  0  0  0  0  0  0
   -4.1898    2.3241   -1.0652 H   0  0  0  0  0  0  0  0  0  0  0  0
   -0.1445    2.1292   -1.0413 H   0  0  0  0  0  0  0  0  0  0  0  0
    1.5332   -1.6454    0.0817 H   0  0  0  0  0  0  0  0  0  0  0  0
   -0.7822   -2.5914    0.4612 H   0  0  0  0  0  0  0  0  0  0  0  0
   -6.0468    1.5169   -1.7802 S   0  0  0  0  0  0  0  0  0  0  0  0
   -5.7999    1.6792   -3.6216 C   0  0  0  0  0  0  0  0  0  0  0  0
   -5.4999    0.2214   -1.3924 O   0  0  0  0  0  0  0  0  0  0  0  0
   -7.4061    1.9183   -1.4846 O   0  0  0  0  0  0  0  0  0  0  0  0
   -5.0678    2.6980   -1.2749 O   0  0  0  0  0  0  0  0  0  0  0  0
   -4.5077    1.5146   -3.9079 F   0  0  0  0  0  0  0  0  0  0  0  0
   -6.5174    0.7342   -4.2268 F   0  0  0  0  0  0  0  0  0  0  0  0
   -6.2009    2.8794   -4.0272 F   0  0  0  0  0  0  0  0  0  0  0  0
  1  2  1  0  0  0  0
  1 11  2  0  0  0  0
  2  3  1  0  0  0  0
  4  1  1  0  0  0  0
  5  4  2  0  0  0  0
  5  6  1  0  0  0  0
  6 10  2  0  0  0  0
  7  9  2  0  0  0  0
  7  6  1  0  0  0  0
  8  7  2  0  0  0  0
 10 14  1  0  0  0  0
 10 11  1  0  0  0  0
 11 15  1  0  0  0  0
 13  5  1  0  0  0  0
 16 19  2  0  0  0  0
 16 18  2  0  0  0  0
 16 20  1  0  0  0  0
 17 16  1  0  0  0  0
 20 12  1  0  0  0  0
 21 17  1  0  0  0  0
 22 17  1  0  0  0  0
 23 17  1  0  0  0  0
M  RAD  3   2   2   3   3   4   2
M  END
