Coordinates from ORCA-job 4-NO2PhN2+~TfO-_B3LYPG-6-31G_dp-CH-Scan-d09-49-n800
 OpenBabel11261919523D

 23 22  0  0  0  0  0  0  0  0999 V2000
   -1.8378   -0.6606   -0.1072 C   0  0  0  0  0  0  0  0  0  0  0  0
   -3.0987   -1.2108    0.1490 N   0  0  0  0  0  0  0  0  0  0  0  0
   -4.1225   -1.6077    0.3425 N   0  0  0  0  0  0  0  0  0  0  0  0
   -1.8732    0.6612   -0.5690 C   0  0  0  0  0  0  0  0  0  0  0  0
   -0.5542    1.1421   -0.7978 C   0  0  0  0  0  0  0  0  0  0  0  0
    0.5649    0.3541   -0.5713 C   0  0  0  0  0  0  0  0  0  0  0  0
    1.9153    0.9212   -0.8310 N   0  0  0  0  0  0  0  0  0  0  0  0
    1.9772    2.0764   -1.2387 O   0  0  0  0  0  0  0  0  0  0  0  0
    2.8831    0.1923   -0.6186 O   0  0  0  0  0  0  0  0  0  0  0  0
    0.5089   -0.9741   -0.1028 C   0  0  0  0  0  0  0  0  0  0  0  0
   -0.7320   -1.5157    0.1435 C   0  0  0  0  0  0  0  0  0  0  0  0
   -3.8830    1.9695   -0.9728 H   0  0  0  0  0  0  0  0  0  0  0  0
   -0.3929    2.1523   -1.1603 H   0  0  0  0  0  0  0  0  0  0  0  0
    1.4240   -1.5296    0.0516 H   0  0  0  0  0  0  0  0  0  0  0  0
   -0.8518   -2.5318    0.5060 H   0  0  0  0  0  0  0  0  0  0  0  0
   -5.8347    1.4595   -1.7261 S   0  0  0  0  0  0  0  0  0  0  0  0
   -5.5415    1.6760   -3.5535 C   0  0  0  0  0  0  0  0  0  0  0  0
   -5.4815    0.0774   -1.4115 O   0  0  0  0  0  0  0  0  0  0  0  0
   -7.1394    2.0150   -1.4283 O   0  0  0  0  0  0  0  0  0  0  0  0
   -4.7248    2.4601   -1.1464 O   0  0  0  0  0  0  0  0  0  0  0  0
   -4.2830    1.3361   -3.8422 F   0  0  0  0  0  0  0  0  0  0  0  0
   -6.3808    0.8795   -4.2150 F   0  0  0  0  0  0  0  0  0  0  0  0
   -5.7539    2.9412   -3.9025 F   0  0  0  0  0  0  0  0  0  0  0  0
  1 11  1  0  0  0  0
  1  2  1  0  0  0  0
  2  3  1  0  0  0  0
  4  1  2  0  0  0  0
  5  6  2  0  0  0  0
  5  4  1  0  0  0  0
  6 10  1  0  0  0  0
  7  9  2  0  0  0  0
  7  6  1  0  0  0  0
  8  7  2  0  0  0  0
 10 14  1  0  0  0  0
 10 11  2  0  0  0  0
 11 15  1  0  0  0  0
 13  5  1  0  0  0  0
 16 19  2  0  0  0  0
 16 18  2  0  0  0  0
 16 20  1  0  0  0  0
 17 16  1  0  0  0  0
 20 12  1  0  0  0  0
 21 17  1  0  0  0  0
 22 17  1  0  0  0  0
 23 17  1  0  0  0  0
M  RAD  3   2   2   3   3   4   2
M  END
