Coordinates from ORCA-job 4-NO2PhN2+~TfO-_B3LYPG-6-31G_dp-CH-Scan-d09-49-n800
 OpenBabel11261919523D

 23 22  0  0  0  0  0  0  0  0999 V2000
   -1.6318   -0.6746   -0.1260 C   0  0  0  0  0  0  0  0  0  0  0  0
   -2.9311   -1.1735    0.0553 N   0  0  0  0  0  0  0  0  0  0  0  0
   -3.9843   -1.5173    0.1885 N   0  0  0  0  0  0  0  0  0  0  0  0
   -1.6108    0.6635   -0.5304 C   0  0  0  0  0  0  0  0  0  0  0  0
   -0.2615    1.0978   -0.6879 C   0  0  0  0  0  0  0  0  0  0  0  0
    0.8166    0.2567   -0.4556 C   0  0  0  0  0  0  0  0  0  0  0  0
    2.1974    0.7774   -0.6411 N   0  0  0  0  0  0  0  0  0  0  0  0
    2.3226    1.9440   -1.0005 O   0  0  0  0  0  0  0  0  0  0  0  0
    3.1282    0.0024   -0.4238 O   0  0  0  0  0  0  0  0  0  0  0  0
    0.6930   -1.0884   -0.0462 C   0  0  0  0  0  0  0  0  0  0  0  0
   -0.5757   -1.5896    0.1307 C   0  0  0  0  0  0  0  0  0  0  0  0
   -4.2875    2.4567   -1.1343 H   0  0  0  0  0  0  0  0  0  0  0  0
   -0.0440    2.1150   -0.9998 H   0  0  0  0  0  0  0  0  0  0  0  0
    1.5805   -1.6844    0.1178 H   0  0  0  0  0  0  0  0  0  0  0  0
   -0.7500   -2.6141    0.4461 H   0  0  0  0  0  0  0  0  0  0  0  0
   -6.1186    1.5524   -1.7955 S   0  0  0  0  0  0  0  0  0  0  0  0
   -5.9314    1.6766   -3.6472 C   0  0  0  0  0  0  0  0  0  0  0  0
   -5.4997    0.2967   -1.3878 O   0  0  0  0  0  0  0  0  0  0  0  0
   -7.4852    1.9023   -1.4700 O   0  0  0  0  0  0  0  0  0  0  0  0
   -5.1772    2.7917   -1.3525 O   0  0  0  0  0  0  0  0  0  0  0  0
   -4.6430    1.5513   -3.9671 F   0  0  0  0  0  0  0  0  0  0  0  0
   -6.6307    0.6906   -4.2062 F   0  0  0  0  0  0  0  0  0  0  0  0
   -6.3882    2.8505   -4.0696 F   0  0  0  0  0  0  0  0  0  0  0  0
  1  2  1  0  0  0  0
  1 11  2  0  0  0  0
  2  3  1  0  0  0  0
  4  1  1  0  0  0  0
  5  4  2  0  0  0  0
  5  6  1  0  0  0  0
  6 10  2  0  0  0  0
  7  6  1  0  0  0  0
  7  9  2  0  0  0  0
  8  7  2  0  0  0  0
 10 14  1  0  0  0  0
 10 11  1  0  0  0  0
 11 15  1  0  0  0  0
 13  5  1  0  0  0  0
 16 19  2  0  0  0  0
 16 18  2  0  0  0  0
 16 20  1  0  0  0  0
 17 16  1  0  0  0  0
 20 12  1  0  0  0  0
 21 17  1  0  0  0  0
 22 17  1  0  0  0  0
 23 17  1  0  0  0  0
M  RAD  3   2   2   3   3   4   2
M  END
