Coordinates from ORCA-job 4-NO2PhN2+~TfO-_B3LYPG-6-31G_dp-CH-Scan-d09-49-n800
 OpenBabel11261919533D

 23 22  0  0  0  0  0  0  0  0999 V2000
   -1.4539   -0.5715    0.0071 C   0  0  0  0  0  0  0  0  0  0  0  0
   -2.7948   -0.9336    0.2369 N   0  0  0  0  0  0  0  0  0  0  0  0
   -3.8769   -1.1446    0.4144 N   0  0  0  0  0  0  0  0  0  0  0  0
   -1.3197    0.7888   -0.2701 C   0  0  0  0  0  0  0  0  0  0  0  0
    0.0582    1.0958   -0.4876 C   0  0  0  0  0  0  0  0  0  0  0  0
    1.0485    0.1273   -0.4226 C   0  0  0  0  0  0  0  0  0  0  0  0
    2.4630    0.5162   -0.6660 N   0  0  0  0  0  0  0  0  0  0  0  0
    2.6929    1.6898   -0.9419 O   0  0  0  0  0  0  0  0  0  0  0  0
    3.3174   -0.3652   -0.5745 O   0  0  0  0  0  0  0  0  0  0  0  0
    0.8049   -1.2335   -0.1313 C   0  0  0  0  0  0  0  0  0  0  0  0
   -0.4963   -1.6163    0.0974 C   0  0  0  0  0  0  0  0  0  0  0  0
   -5.1994    3.0434   -1.0790 H   0  0  0  0  0  0  0  0  0  0  0  0
    0.3663    2.1125   -0.7151 H   0  0  0  0  0  0  0  0  0  0  0  0
    1.6310   -1.9305   -0.0933 H   0  0  0  0  0  0  0  0  0  0  0  0
   -0.7621   -2.6434    0.3314 H   0  0  0  0  0  0  0  0  0  0  0  0
   -6.4380    1.5046   -1.9233 S   0  0  0  0  0  0  0  0  0  0  0  0
   -6.0288    1.7030   -3.7327 C   0  0  0  0  0  0  0  0  0  0  0  0
   -5.4586    0.5858   -1.3580 O   0  0  0  0  0  0  0  0  0  0  0  0
   -7.8681    1.3128   -1.8136 O   0  0  0  0  0  0  0  0  0  0  0  0
   -6.1113    3.0141   -1.4182 O   0  0  0  0  0  0  0  0  0  0  0  0
   -4.7606    2.0986   -3.8512 F   0  0  0  0  0  0  0  0  0  0  0  0
   -6.1906    0.5251   -4.3308 F   0  0  0  0  0  0  0  0  0  0  0  0
   -6.8354    2.6045   -4.2810 F   0  0  0  0  0  0  0  0  0  0  0  0
  1 11  1  0  0  0  0
  1  2  1  0  0  0  0
  2  3  1  0  0  0  0
  4  1  2  0  0  0  0
  5  6  2  0  0  0  0
  5  4  1  0  0  0  0
  6 10  1  0  0  0  0
  7  9  2  0  0  0  0
  7  6  1  0  0  0  0
  8  7  2  0  0  0  0
 10 14  1  0  0  0  0
 10 11  2  0  0  0  0
 11 15  1  0  0  0  0
 13  5  1  0  0  0  0
 16 19  2  0  0  0  0
 16 20  1  0  0  0  0
 16 18  2  0  0  0  0
 17 16  1  0  0  0  0
 20 12  1  0  0  0  0
 21 17  1  0  0  0  0
 22 17  1  0  0  0  0
 23 17  1  0  0  0  0
M  RAD  3   2   2   3   3   4   2
M  END
