Coordinates from ORCA-job 4-NO2PhN2+~TfO-_B3LYPG-6-31G_dp-CH-Scan-d09-49-n800
 OpenBabel11261919533D

 23 22  0  0  0  0  0  0  0  0999 V2000
   -1.5644   -0.6188   -0.0237 C   0  0  0  0  0  0  0  0  0  0  0  0
   -2.8829   -1.0421    0.2222 N   0  0  0  0  0  0  0  0  0  0  0  0
   -3.9503   -1.3080    0.4127 N   0  0  0  0  0  0  0  0  0  0  0  0
   -1.4955    0.7346   -0.3590 C   0  0  0  0  0  0  0  0  0  0  0  0
   -0.1336    1.0987   -0.5873 C   0  0  0  0  0  0  0  0  0  0  0  0
    0.9039    0.1852   -0.4768 C   0  0  0  0  0  0  0  0  0  0  0  0
    2.2985    0.6341   -0.7320 N   0  0  0  0  0  0  0  0  0  0  0  0
    2.4715    1.8077   -1.0470 O   0  0  0  0  0  0  0  0  0  0  0  0
    3.1942   -0.2010   -0.6090 O   0  0  0  0  0  0  0  0  0  0  0  0
    0.7269   -1.1721   -0.1285 C   0  0  0  0  0  0  0  0  0  0  0  0
   -0.5549   -1.6088    0.1124 C   0  0  0  0  0  0  0  0  0  0  0  0
   -4.8544    2.8689   -1.0185 H   0  0  0  0  0  0  0  0  0  0  0  0
    0.1250    2.1182   -0.8594 H   0  0  0  0  0  0  0  0  0  0  0  0
    1.5862   -1.8251   -0.0582 H   0  0  0  0  0  0  0  0  0  0  0  0
   -0.7705   -2.6370    0.3886 H   0  0  0  0  0  0  0  0  0  0  0  0
   -6.2894    1.5131   -1.8674 S   0  0  0  0  0  0  0  0  0  0  0  0
   -5.8484    1.6780   -3.6729 C   0  0  0  0  0  0  0  0  0  0  0  0
   -5.4460    0.4614   -1.3148 O   0  0  0  0  0  0  0  0  0  0  0  0
   -7.7329    1.5121   -1.7645 O   0  0  0  0  0  0  0  0  0  0  0  0
   -5.7698    2.9570   -1.3381 O   0  0  0  0  0  0  0  0  0  0  0  0
   -4.5421    1.9246   -3.7813 F   0  0  0  0  0  0  0  0  0  0  0  0
   -6.1420    0.5317   -4.2826 F   0  0  0  0  0  0  0  0  0  0  0  0
   -6.5415    2.6712   -4.2178 F   0  0  0  0  0  0  0  0  0  0  0  0
  1 11  1  0  0  0  0
  1  2  1  0  0  0  0
  2  3  1  0  0  0  0
  4  1  2  0  0  0  0
  5  6  2  0  0  0  0
  5  4  1  0  0  0  0
  6 10  1  0  0  0  0
  7  9  2  0  0  0  0
  7  6  1  0  0  0  0
  8  7  2  0  0  0  0
 10 14  1  0  0  0  0
 10 11  2  0  0  0  0
 11 15  1  0  0  0  0
 13  5  1  0  0  0  0
 16 19  2  0  0  0  0
 16 20  1  0  0  0  0
 16 18  2  0  0  0  0
 17 16  1  0  0  0  0
 20 12  1  0  0  0  0
 21 17  1  0  0  0  0
 22 17  1  0  0  0  0
 23 17  1  0  0  0  0
M  RAD  3   2   2   3   3   4   2
M  END
