Coordinates from ORCA-job 4-NO2PhN2+~TfO-_B3LYPG-6-31G_dp-CH-Scan-d09-49-n800
 OpenBabel11261919523D

 23 22  0  0  0  0  0  0  0  0999 V2000
   -1.9400   -0.6531   -0.1007 C   0  0  0  0  0  0  0  0  0  0  0  0
   -3.1827   -1.2254    0.1844 N   0  0  0  0  0  0  0  0  0  0  0  0
   -4.1930   -1.6443    0.3971 N   0  0  0  0  0  0  0  0  0  0  0  0
   -1.9979    0.6593   -0.5896 C   0  0  0  0  0  0  0  0  0  0  0  0
   -0.6956    1.1618   -0.8470 C   0  0  0  0  0  0  0  0  0  0  0  0
    0.4412    0.3992   -0.6196 C   0  0  0  0  0  0  0  0  0  0  0  0
    1.7765    0.9869   -0.9098 N   0  0  0  0  0  0  0  0  0  0  0  0
    1.8087    2.1337   -1.3428 O   0  0  0  0  0  0  0  0  0  0  0  0
    2.7601    0.2809   -0.6952 O   0  0  0  0  0  0  0  0  0  0  0  0
    0.4153   -0.9183   -0.1235 C   0  0  0  0  0  0  0  0  0  0  0  0
   -0.8127   -1.4774    0.1508 C   0  0  0  0  0  0  0  0  0  0  0  0
   -3.6581    1.7274   -0.9190 H   0  0  0  0  0  0  0  0  0  0  0  0
   -0.5620    2.1671   -1.2323 H   0  0  0  0  0  0  0  0  0  0  0  0
    1.3419   -1.4546    0.0299 H   0  0  0  0  0  0  0  0  0  0  0  0
   -0.9083   -2.4878    0.5349 H   0  0  0  0  0  0  0  0  0  0  0  0
   -5.6650    1.4158   -1.6888 S   0  0  0  0  0  0  0  0  0  0  0  0
   -5.3761    1.6805   -3.5087 C   0  0  0  0  0  0  0  0  0  0  0  0
   -5.4204   -0.0066   -1.4438 O   0  0  0  0  0  0  0  0  0  0  0  0
   -6.9341    2.0381   -1.3628 O   0  0  0  0  0  0  0  0  0  0  0  0
   -4.4888    2.2923   -1.0831 O   0  0  0  0  0  0  0  0  0  0  0  0
   -4.1425    1.2756   -3.8268 F   0  0  0  0  0  0  0  0  0  0  0  0
   -6.2671    0.9635   -4.1946 F   0  0  0  0  0  0  0  0  0  0  0  0
   -5.5114    2.9691   -3.8118 F   0  0  0  0  0  0  0  0  0  0  0  0
  1 11  1  0  0  0  0
  1  2  1  0  0  0  0
  2  3  1  0  0  0  0
  4  1  2  0  0  0  0
  5  6  2  0  0  0  0
  5  4  1  0  0  0  0
  6 10  1  0  0  0  0
  7  9  2  0  0  0  0
  7  6  1  0  0  0  0
  8  7  2  0  0  0  0
 10 14  1  0  0  0  0
 10 11  2  0  0  0  0
 11 15  1  0  0  0  0
 13  5  1  0  0  0  0
 16 18  2  0  0  0  0
 16 19  2  0  0  0  0
 16 20  1  0  0  0  0
 17 16  1  0  0  0  0
 20 12  1  0  0  0  0
 21 17  1  0  0  0  0
 22 17  1  0  0  0  0
 23 17  1  0  0  0  0
M  RAD  3   2   2   3   3   4   2
M  END
