Coordinates from ORCA-job 4-NO2PhN2+~TfO-_B3LYPG-6-31G_dp-CH-Scan-d09-49-n800
 OpenBabel11261919533D

 23 22  0  0  0  0  0  0  0  0999 V2000
   -1.4820   -0.5943   -0.0130 C   0  0  0  0  0  0  0  0  0  0  0  0
   -2.8166   -0.9790    0.2141 N   0  0  0  0  0  0  0  0  0  0  0  0
   -3.8949   -1.2097    0.3895 N   0  0  0  0  0  0  0  0  0  0  0  0
   -1.3709    0.7637   -0.3132 C   0  0  0  0  0  0  0  0  0  0  0  0
    0.0028    1.0925   -0.5247 C   0  0  0  0  0  0  0  0  0  0  0  0
    1.0110    0.1449   -0.4328 C   0  0  0  0  0  0  0  0  0  0  0  0
    2.4201    0.5569   -0.6692 N   0  0  0  0  0  0  0  0  0  0  0  0
    2.6306    1.7312   -0.9576 O   0  0  0  0  0  0  0  0  0  0  0  0
    3.2897   -0.3074   -0.5598 O   0  0  0  0  0  0  0  0  0  0  0  0
    0.7907   -1.2151   -0.1200 C   0  0  0  0  0  0  0  0  0  0  0  0
   -0.5051   -1.6186    0.1035 C   0  0  0  0  0  0  0  0  0  0  0  0
   -5.0742    2.9929   -1.0766 H   0  0  0  0  0  0  0  0  0  0  0  0
    0.2937    2.1105   -0.7685 H   0  0  0  0  0  0  0  0  0  0  0  0
    1.6295   -1.8954   -0.0622 H   0  0  0  0  0  0  0  0  0  0  0  0
   -0.7536   -2.6464    0.3526 H   0  0  0  0  0  0  0  0  0  0  0  0
   -6.3984    1.5166   -1.9032 S   0  0  0  0  0  0  0  0  0  0  0  0
   -5.9971    1.6959   -3.7164 C   0  0  0  0  0  0  0  0  0  0  0  0
   -5.4621    0.5479   -1.3487 O   0  0  0  0  0  0  0  0  0  0  0  0
   -7.8353    1.3971   -1.7799 O   0  0  0  0  0  0  0  0  0  0  0  0
   -5.9922    3.0066   -1.3997 O   0  0  0  0  0  0  0  0  0  0  0  0
   -4.7123    2.0295   -3.8469 F   0  0  0  0  0  0  0  0  0  0  0  0
   -6.2216    0.5276   -4.3132 F   0  0  0  0  0  0  0  0  0  0  0  0
   -6.7641    2.6358   -4.2570 F   0  0  0  0  0  0  0  0  0  0  0  0
  1 11  1  0  0  0  0
  1  2  1  0  0  0  0
  2  3  1  0  0  0  0
  4  1  2  0  0  0  0
  5  6  2  0  0  0  0
  5  4  1  0  0  0  0
  6 10  1  0  0  0  0
  7  9  2  0  0  0  0
  7  6  1  0  0  0  0
  8  7  2  0  0  0  0
 10 14  1  0  0  0  0
 10 11  2  0  0  0  0
 11 15  1  0  0  0  0
 13  5  1  0  0  0  0
 16 19  2  0  0  0  0
 16 20  1  0  0  0  0
 16 18  2  0  0  0  0
 17 16  1  0  0  0  0
 20 12  1  0  0  0  0
 21 17  1  0  0  0  0
 22 17  1  0  0  0  0
 23 17  1  0  0  0  0
M  RAD  3   2   2   3   3   4   2
M  END
