Coordinates from ORCA-job 4-NO2PhN2+~TfO-_B3LYPG-6-31G_dp-CH-Scan-d09-49-n800
 OpenBabel11261919533D

 23 22  0  0  0  0  0  0  0  0999 V2000
   -1.8989   -0.1959    0.6081 C   0  0  0  0  0  0  0  0  0  0  0  0
   -3.0550   -0.5244    1.3402 N   0  0  0  0  0  0  0  0  0  0  0  0
   -3.9482   -0.7202    1.9804 N   0  0  0  0  0  0  0  0  0  0  0  0
   -1.2280    0.8869    1.1737 C   0  0  0  0  0  0  0  0  0  0  0  0
   -0.0623    1.1800    0.4024 C   0  0  0  0  0  0  0  0  0  0  0  0
    0.2776    0.4453   -0.7239 C   0  0  0  0  0  0  0  0  0  0  0  0
    1.5051    0.8038   -1.4827 N   0  0  0  0  0  0  0  0  0  0  0  0
    2.1743    1.7476   -1.0732 O   0  0  0  0  0  0  0  0  0  0  0  0
    1.7735    0.1324   -2.4792 O   0  0  0  0  0  0  0  0  0  0  0  0
   -0.4798   -0.6407   -1.2180 C   0  0  0  0  0  0  0  0  0  0  0  0
   -1.6224   -0.9887   -0.5357 C   0  0  0  0  0  0  0  0  0  0  0  0
   -4.7772    2.8147   -1.0271 H   0  0  0  0  0  0  0  0  0  0  0  0
    0.5942    1.9987    0.6850 H   0  0  0  0  0  0  0  0  0  0  0  0
   -0.1513   -1.1621   -2.1066 H   0  0  0  0  0  0  0  0  0  0  0  0
   -2.2639   -1.8036   -0.8574 H   0  0  0  0  0  0  0  0  0  0  0  0
   -5.5355    1.0137   -1.9156 S   0  0  0  0  0  0  0  0  0  0  0  0
   -4.5215    0.9384   -3.4812 C   0  0  0  0  0  0  0  0  0  0  0  0
   -4.7590    0.3461   -0.8760 O   0  0  0  0  0  0  0  0  0  0  0  0
   -6.8969    0.6542   -2.2449 O   0  0  0  0  0  0  0  0  0  0  0  0
   -5.4965    2.6156   -1.6525 O   0  0  0  0  0  0  0  0  0  0  0  0
   -3.3343    1.5016   -3.2532 F   0  0  0  0  0  0  0  0  0  0  0  0
   -4.3576   -0.3413   -3.8082 F   0  0  0  0  0  0  0  0  0  0  0  0
   -5.1487    1.5817   -4.4571 F   0  0  0  0  0  0  0  0  0  0  0  0
  1  4  1  0  0  0  0
  1  2  1  0  0  0  0
  2  3  1  0  0  0  0
  5 13  1  0  0  0  0
  5  4  2  0  0  0  0
  6  5  1  0  0  0  0
  7  8  2  0  0  0  0
  7  6  1  0  0  0  0
  9  7  2  0  0  0  0
 10  6  2  0  0  0  0
 10 11  1  0  0  0  0
 11  1  2  0  0  0  0
 14 10  1  0  0  0  0
 15 11  1  0  0  0  0
 16 20  1  0  0  0  0
 16 18  2  0  0  0  0
 17 21  1  0  0  0  0
 17 16  1  0  0  0  0
 19 16  2  0  0  0  0
 20 12  1  0  0  0  0
 22 17  1  0  0  0  0
 23 17  1  0  0  0  0
M  RAD  3   2   2   3   3   4   2
M  END
