Coordinates from ORCA-job 4-NO2PhN2+~TfO-_B3LYPG-6-31G_dp-CH-Scan-d09-49-n800
 OpenBabel11261919523D

 23 22  0  0  0  0  0  0  0  0999 V2000
   -2.0233   -0.6245   -0.0799 C   0  0  0  0  0  0  0  0  0  0  0  0
   -3.2572   -1.1966    0.2329 N   0  0  0  0  0  0  0  0  0  0  0  0
   -4.2612   -1.6186    0.4631 N   0  0  0  0  0  0  0  0  0  0  0  0
   -2.0739    0.6779   -0.5966 C   0  0  0  0  0  0  0  0  0  0  0  0
   -0.7843    1.1827   -0.8815 C   0  0  0  0  0  0  0  0  0  0  0  0
    0.3569    0.4266   -0.6500 C   0  0  0  0  0  0  0  0  0  0  0  0
    1.6869    1.0120   -0.9676 N   0  0  0  0  0  0  0  0  0  0  0  0
    1.7082    2.1492   -1.4247 O   0  0  0  0  0  0  0  0  0  0  0  0
    2.6734    0.3124   -0.7491 O   0  0  0  0  0  0  0  0  0  0  0  0
    0.3366   -0.8777   -0.1265 C   0  0  0  0  0  0  0  0  0  0  0  0
   -0.8883   -1.4338    0.1738 C   0  0  0  0  0  0  0  0  0  0  0  0
   -3.4301    1.5292   -0.8790 H   0  0  0  0  0  0  0  0  0  0  0  0
   -0.6650    2.1801   -1.2904 H   0  0  0  0  0  0  0  0  0  0  0  0
    1.2652   -1.4106    0.0283 H   0  0  0  0  0  0  0  0  0  0  0  0
   -0.9764   -2.4362    0.5790 H   0  0  0  0  0  0  0  0  0  0  0  0
   -5.5110    1.3458   -1.6770 S   0  0  0  0  0  0  0  0  0  0  0  0
   -5.2883    1.7111   -3.4861 C   0  0  0  0  0  0  0  0  0  0  0  0
   -5.2744   -0.0992   -1.5405 O   0  0  0  0  0  0  0  0  0  0  0  0
   -6.7879    1.9213   -1.2870 O   0  0  0  0  0  0  0  0  0  0  0  0
   -4.3228    2.1534   -1.0656 O   0  0  0  0  0  0  0  0  0  0  0  0
   -4.0665    1.3229   -3.8745 F   0  0  0  0  0  0  0  0  0  0  0  0
   -6.2032    1.0392   -4.1885 F   0  0  0  0  0  0  0  0  0  0  0  0
   -5.4255    3.0168   -3.7155 F   0  0  0  0  0  0  0  0  0  0  0  0
  1 11  1  0  0  0  0
  1  2  1  0  0  0  0
  2  3  1  0  0  0  0
  4  1  2  0  0  0  0
  5  6  2  0  0  0  0
  5  4  1  0  0  0  0
  6 10  1  0  0  0  0
  7  9  2  0  0  0  0
  7  6  1  0  0  0  0
  8  7  2  0  0  0  0
 10 14  1  0  0  0  0
 10 11  2  0  0  0  0
 11 15  1  0  0  0  0
 13  5  1  0  0  0  0
 16 18  2  0  0  0  0
 16 19  2  0  0  0  0
 16 20  1  0  0  0  0
 17 16  1  0  0  0  0
 20 12  1  0  0  0  0
 21 17  1  0  0  0  0
 22 17  1  0  0  0  0
 23 17  1  0  0  0  0
M  RAD  3   2   2   3   3   4   2
M  END
