Coordinates from ORCA-job 4-NO2PhN2+~TfO-_B3LYPG-6-31G_dp-CH-Scan-d09-49-n800
 OpenBabel11261919533D

 23 22  0  0  0  0  0  0  0  0999 V2000
   -1.4576   -0.5788   -0.0000 C   0  0  0  0  0  0  0  0  0  0  0  0
   -2.7973   -0.9475    0.2255 N   0  0  0  0  0  0  0  0  0  0  0  0
   -3.8786   -1.1639    0.4011 N   0  0  0  0  0  0  0  0  0  0  0  0
   -1.3289    0.7815   -0.2802 C   0  0  0  0  0  0  0  0  0  0  0  0
    0.0484    1.0949   -0.4921 C   0  0  0  0  0  0  0  0  0  0  0  0
    1.0434    0.1318   -0.4197 C   0  0  0  0  0  0  0  0  0  0  0  0
    2.4571    0.5275   -0.6567 N   0  0  0  0  0  0  0  0  0  0  0  0
    2.6816    1.7002   -0.9406 O   0  0  0  0  0  0  0  0  0  0  0  0
    3.3145   -0.3514   -0.5686 O   0  0  0  0  0  0  0  0  0  0  0  0
    0.8054   -1.2296   -0.1263 C   0  0  0  0  0  0  0  0  0  0  0  0
   -0.4949   -1.6184    0.0971 C   0  0  0  0  0  0  0  0  0  0  0  0
   -5.1634    3.0335   -1.0871 H   0  0  0  0  0  0  0  0  0  0  0  0
    0.3524    2.1125   -0.7209 H   0  0  0  0  0  0  0  0  0  0  0  0
    1.6348   -1.9223   -0.0826 H   0  0  0  0  0  0  0  0  0  0  0  0
   -0.7566   -2.6463    0.3323 H   0  0  0  0  0  0  0  0  0  0  0  0
   -6.4317    1.5117   -1.9182 S   0  0  0  0  0  0  0  0  0  0  0  0
   -6.0320    1.6997   -3.7309 C   0  0  0  0  0  0  0  0  0  0  0  0
   -5.4633    0.5784   -1.3578 O   0  0  0  0  0  0  0  0  0  0  0  0
   -7.8639    1.3426   -1.7983 O   0  0  0  0  0  0  0  0  0  0  0  0
   -6.0783    3.0168   -1.4188 O   0  0  0  0  0  0  0  0  0  0  0  0
   -4.7581    2.0733   -3.8591 F   0  0  0  0  0  0  0  0  0  0  0  0
   -6.2182    0.5236   -4.3256 F   0  0  0  0  0  0  0  0  0  0  0  0
   -6.8269    2.6139   -4.2752 F   0  0  0  0  0  0  0  0  0  0  0  0
  1 11  1  0  0  0  0
  1  2  1  0  0  0  0
  2  3  1  0  0  0  0
  4  1  2  0  0  0  0
  5  6  2  0  0  0  0
  5  4  1  0  0  0  0
  6 10  1  0  0  0  0
  7  9  2  0  0  0  0
  7  6  1  0  0  0  0
  8  7  2  0  0  0  0
 10 14  1  0  0  0  0
 10 11  2  0  0  0  0
 11 15  1  0  0  0  0
 13  5  1  0  0  0  0
 16 19  2  0  0  0  0
 16 20  1  0  0  0  0
 16 18  2  0  0  0  0
 17 16  1  0  0  0  0
 20 12  1  0  0  0  0
 21 17  1  0  0  0  0
 22 17  1  0  0  0  0
 23 17  1  0  0  0  0
M  RAD  3   2   2   3   3   4   2
M  END
