Coordinates from ORCA-job 4-NO2PhN2+~TfO-_B3LYPG-6-31G_dp-CH-Scan-d09-49-n800
 OpenBabel11261919523D

 23 22  0  0  0  0  0  0  0  0999 V2000
   -1.6127   -0.6755   -0.1282 C   0  0  0  0  0  0  0  0  0  0  0  0
   -2.9157   -1.1686    0.0460 N   0  0  0  0  0  0  0  0  0  0  0  0
   -3.9718   -1.5063    0.1726 N   0  0  0  0  0  0  0  0  0  0  0  0
   -1.5857    0.6639   -0.5268 C   0  0  0  0  0  0  0  0  0  0  0  0
   -0.2337    1.0930   -0.6778 C   0  0  0  0  0  0  0  0  0  0  0  0
    0.8400    0.2464   -0.4454 C   0  0  0  0  0  0  0  0  0  0  0  0
    2.2236    0.7620   -0.6241 N   0  0  0  0  0  0  0  0  0  0  0  0
    2.3552    1.9298   -0.9772 O   0  0  0  0  0  0  0  0  0  0  0  0
    3.1505   -0.0176   -0.4062 O   0  0  0  0  0  0  0  0  0  0  0  0
    0.7095   -1.1000   -0.0421 C   0  0  0  0  0  0  0  0  0  0  0  0
   -0.5619   -1.5966    0.1284 C   0  0  0  0  0  0  0  0  0  0  0  0
   -4.3322    2.5110   -1.1507 H   0  0  0  0  0  0  0  0  0  0  0  0
   -0.0107    2.1107   -0.9846 H   0  0  0  0  0  0  0  0  0  0  0  0
    1.5940   -1.7002    0.1224 H   0  0  0  0  0  0  0  0  0  0  0  0
   -0.7418   -2.6216    0.4391 H   0  0  0  0  0  0  0  0  0  0  0  0
   -6.1451    1.5630   -1.8009 S   0  0  0  0  0  0  0  0  0  0  0  0
   -5.9648    1.6745   -3.6542 C   0  0  0  0  0  0  0  0  0  0  0  0
   -5.4980    0.3250   -1.3832 O   0  0  0  0  0  0  0  0  0  0  0  0
   -7.5175    1.8877   -1.4743 O   0  0  0  0  0  0  0  0  0  0  0  0
   -5.2278    2.8264   -1.3717 O   0  0  0  0  0  0  0  0  0  0  0  0
   -4.6740    1.5792   -3.9751 F   0  0  0  0  0  0  0  0  0  0  0  0
   -6.6392    0.6653   -4.2020 F   0  0  0  0  0  0  0  0  0  0  0  0
   -6.4525    2.8321   -4.0868 F   0  0  0  0  0  0  0  0  0  0  0  0
  1  2  1  0  0  0  0
  1 11  2  0  0  0  0
  2  3  1  0  0  0  0
  4  1  1  0  0  0  0
  5  4  2  0  0  0  0
  5  6  1  0  0  0  0
  6 10  2  0  0  0  0
  7  6  1  0  0  0  0
  7  9  2  0  0  0  0
  8  7  2  0  0  0  0
 10 14  1  0  0  0  0
 10 11  1  0  0  0  0
 11 15  1  0  0  0  0
 13  5  1  0  0  0  0
 16 19  2  0  0  0  0
 16 18  2  0  0  0  0
 16 20  1  0  0  0  0
 17 16  1  0  0  0  0
 20 12  1  0  0  0  0
 21 17  1  0  0  0  0
 22 17  1  0  0  0  0
 23 17  1  0  0  0  0
M  RAD  3   2   2   3   3   4   2
M  END
