Coordinates from ORCA-job 4-NO2PhN2+~TfO-_B3LYPG-6-31G_dp-CH-Scan-d09-49-n800
 OpenBabel11261919523D

 23 22  0  0  0  0  0  0  0  0999 V2000
   -1.9455   -0.6518   -0.0994 C   0  0  0  0  0  0  0  0  0  0  0  0
   -3.1873   -1.2245    0.1883 N   0  0  0  0  0  0  0  0  0  0  0  0
   -4.1970   -1.6438    0.4028 N   0  0  0  0  0  0  0  0  0  0  0  0
   -2.0040    0.6601   -0.5896 C   0  0  0  0  0  0  0  0  0  0  0  0
   -0.7026    1.1630   -0.8496 C   0  0  0  0  0  0  0  0  0  0  0  0
    0.4349    0.4009   -0.6232 C   0  0  0  0  0  0  0  0  0  0  0  0
    1.7695    0.9889   -0.9161 N   0  0  0  0  0  0  0  0  0  0  0  0
    1.8005    2.1362   -1.3478 O   0  0  0  0  0  0  0  0  0  0  0  0
    2.7538    0.2845   -0.6994 O   0  0  0  0  0  0  0  0  0  0  0  0
    0.4101   -0.9159   -0.1258 C   0  0  0  0  0  0  0  0  0  0  0  0
   -0.8174   -1.4751    0.1511 C   0  0  0  0  0  0  0  0  0  0  0  0
   -3.6484    1.7166   -0.9144 H   0  0  0  0  0  0  0  0  0  0  0  0
   -0.5702    2.1680   -1.2361 H   0  0  0  0  0  0  0  0  0  0  0  0
    1.3371   -1.4518    0.0268 H   0  0  0  0  0  0  0  0  0  0  0  0
   -0.9119   -2.4852    0.5363 H   0  0  0  0  0  0  0  0  0  0  0  0
   -5.6570    1.4124   -1.6874 S   0  0  0  0  0  0  0  0  0  0  0  0
   -5.3660    1.6809   -3.5063 C   0  0  0  0  0  0  0  0  0  0  0  0
   -5.4158   -0.0115   -1.4465 O   0  0  0  0  0  0  0  0  0  0  0  0
   -6.9260    2.0353   -1.3617 O   0  0  0  0  0  0  0  0  0  0  0  0
   -4.4804    2.2841   -1.0784 O   0  0  0  0  0  0  0  0  0  0  0  0
   -4.1325    1.2749   -3.8243 F   0  0  0  0  0  0  0  0  0  0  0  0
   -6.2571    0.9668   -4.1952 F   0  0  0  0  0  0  0  0  0  0  0  0
   -5.4990    2.9704   -3.8069 F   0  0  0  0  0  0  0  0  0  0  0  0
  1 11  1  0  0  0  0
  1  2  1  0  0  0  0
  2  3  1  0  0  0  0
  4  1  2  0  0  0  0
  5  6  2  0  0  0  0
  5  4  1  0  0  0  0
  6 10  1  0  0  0  0
  7  9  2  0  0  0  0
  7  6  1  0  0  0  0
  8  7  2  0  0  0  0
 10 14  1  0  0  0  0
 10 11  2  0  0  0  0
 11 15  1  0  0  0  0
 13  5  1  0  0  0  0
 16 18  2  0  0  0  0
 16 19  2  0  0  0  0
 16 20  1  0  0  0  0
 17 16  1  0  0  0  0
 20 12  1  0  0  0  0
 21 17  1  0  0  0  0
 22 17  1  0  0  0  0
 23 17  1  0  0  0  0
M  RAD  3   2   2   3   3   4   2
M  END
