Coordinates from ORCA-job 4-NO2PhN2+~TfO-_B3LYPG-6-31G_dp-CH-Scan-d09-49-n800
 OpenBabel11261919523D

 23 22  0  0  0  0  0  0  0  0999 V2000
   -1.8108   -0.6567   -0.0972 C   0  0  0  0  0  0  0  0  0  0  0  0
   -3.0778   -1.1951    0.1587 N   0  0  0  0  0  0  0  0  0  0  0  0
   -4.1057   -1.5822    0.3509 N   0  0  0  0  0  0  0  0  0  0  0  0
   -1.8377    0.6701   -0.5432 C   0  0  0  0  0  0  0  0  0  0  0  0
   -0.5139    1.1396   -0.7735 C   0  0  0  0  0  0  0  0  0  0  0  0
    0.5981    0.3376   -0.5624 C   0  0  0  0  0  0  0  0  0  0  0  0
    1.9530    0.8933   -0.8231 N   0  0  0  0  0  0  0  0  0  0  0  0
    2.0247    2.0483   -1.2300 O   0  0  0  0  0  0  0  0  0  0  0  0
    2.9138    0.1483   -0.6358 O   0  0  0  0  0  0  0  0  0  0  0  0
    0.5313   -0.9957   -0.1085 C   0  0  0  0  0  0  0  0  0  0  0  0
   -0.7136   -1.5272    0.1384 C   0  0  0  0  0  0  0  0  0  0  0  0
   -3.9790    2.0691   -0.9636 H   0  0  0  0  0  0  0  0  0  0  0  0
   -0.3433    2.1522   -1.1252 H   0  0  0  0  0  0  0  0  0  0  0  0
    1.4417   -1.5619    0.0344 H   0  0  0  0  0  0  0  0  0  0  0  0
   -0.8422   -2.5461    0.4904 H   0  0  0  0  0  0  0  0  0  0  0  0
   -5.8913    1.4656   -1.7411 S   0  0  0  0  0  0  0  0  0  0  0  0
   -5.5621    1.6754   -3.5639 C   0  0  0  0  0  0  0  0  0  0  0  0
   -5.4880    0.1041   -1.4009 O   0  0  0  0  0  0  0  0  0  0  0  0
   -7.2215    1.9744   -1.4768 O   0  0  0  0  0  0  0  0  0  0  0  0
   -4.8346    2.5207   -1.1473 O   0  0  0  0  0  0  0  0  0  0  0  0
   -4.2758    1.4187   -3.8111 F   0  0  0  0  0  0  0  0  0  0  0  0
   -6.3262    0.8134   -4.2337 F   0  0  0  0  0  0  0  0  0  0  0  0
   -5.8510    2.9176   -3.9384 F   0  0  0  0  0  0  0  0  0  0  0  0
  1 11  1  0  0  0  0
  1  2  1  0  0  0  0
  2  3  1  0  0  0  0
  4  1  2  0  0  0  0
  5  6  2  0  0  0  0
  5  4  1  0  0  0  0
  6 10  1  0  0  0  0
  7  9  2  0  0  0  0
  7  6  1  0  0  0  0
  8  7  2  0  0  0  0
 10 14  1  0  0  0  0
 10 11  2  0  0  0  0
 11 15  1  0  0  0  0
 13  5  1  0  0  0  0
 16 19  2  0  0  0  0
 16 18  2  0  0  0  0
 16 20  1  0  0  0  0
 17 16  1  0  0  0  0
 20 12  1  0  0  0  0
 21 17  1  0  0  0  0
 22 17  1  0  0  0  0
 23 17  1  0  0  0  0
M  RAD  3   2   2   3   3   4   2
M  END
