Coordinates from ORCA-job 4-NO2PhN2+~TfO-_B3LYPG-6-31G_dp-CH-Scan-d09-49-n800
 OpenBabel11261919523D

 23 22  0  0  0  0  0  0  0  0999 V2000
   -1.9491   -0.6512   -0.0983 C   0  0  0  0  0  0  0  0  0  0  0  0
   -3.1903   -1.2245    0.1905 N   0  0  0  0  0  0  0  0  0  0  0  0
   -4.1996   -1.6443    0.4059 N   0  0  0  0  0  0  0  0  0  0  0  0
   -2.0083    0.6604   -0.5895 C   0  0  0  0  0  0  0  0  0  0  0  0
   -0.7075    1.1638   -0.8507 C   0  0  0  0  0  0  0  0  0  0  0  0
    0.4306    0.4025   -0.6245 C   0  0  0  0  0  0  0  0  0  0  0  0
    1.7646    0.9911   -0.9187 N   0  0  0  0  0  0  0  0  0  0  0  0
    1.7945    2.1371   -1.3537 O   0  0  0  0  0  0  0  0  0  0  0  0
    2.7493    0.2864   -0.7045 O   0  0  0  0  0  0  0  0  0  0  0  0
    0.4067   -0.9139   -0.1261 C   0  0  0  0  0  0  0  0  0  0  0  0
   -0.8203   -1.4736    0.1520 C   0  0  0  0  0  0  0  0  0  0  0  0
   -3.6406    1.7082   -0.9119 H   0  0  0  0  0  0  0  0  0  0  0  0
   -0.5760    2.1686   -1.2380 H   0  0  0  0  0  0  0  0  0  0  0  0
    1.3341   -1.4492    0.0263 H   0  0  0  0  0  0  0  0  0  0  0  0
   -0.9141   -2.4834    0.5379 H   0  0  0  0  0  0  0  0  0  0  0  0
   -5.6509    1.4099   -1.6867 S   0  0  0  0  0  0  0  0  0  0  0  0
   -5.3600    1.6820   -3.5050 C   0  0  0  0  0  0  0  0  0  0  0  0
   -5.4117   -0.0152   -1.4495 O   0  0  0  0  0  0  0  0  0  0  0  0
   -6.9196    2.0329   -1.3596 O   0  0  0  0  0  0  0  0  0  0  0  0
   -4.4732    2.2779   -1.0760 O   0  0  0  0  0  0  0  0  0  0  0  0
   -4.1270    1.2755   -3.8242 F   0  0  0  0  0  0  0  0  0  0  0  0
   -6.2519    0.9702   -4.1955 F   0  0  0  0  0  0  0  0  0  0  0  0
   -5.4918    2.9723   -3.8029 F   0  0  0  0  0  0  0  0  0  0  0  0
  1 11  1  0  0  0  0
  1  2  1  0  0  0  0
  2  3  1  0  0  0  0
  4  1  2  0  0  0  0
  5  6  2  0  0  0  0
  5  4  1  0  0  0  0
  6 10  1  0  0  0  0
  7  9  2  0  0  0  0
  7  6  1  0  0  0  0
  8  7  2  0  0  0  0
 10 14  1  0  0  0  0
 10 11  2  0  0  0  0
 11 15  1  0  0  0  0
 13  5  1  0  0  0  0
 16 18  2  0  0  0  0
 16 19  2  0  0  0  0
 16 20  1  0  0  0  0
 17 16  1  0  0  0  0
 20 12  1  0  0  0  0
 21 17  1  0  0  0  0
 22 17  1  0  0  0  0
 23 17  1  0  0  0  0
M  RAD  3   2   2   3   3   4   2
M  END
