Coordinates from ORCA-job 4-NO2PhN2+~TfO-_B3LYPG-6-31G_dp-CH-Scan-d09-49-n800
 OpenBabel11261919523D

 23 22  0  0  0  0  0  0  0  0999 V2000
   -1.8313   -0.6599   -0.1055 C   0  0  0  0  0  0  0  0  0  0  0  0
   -3.0937   -1.2076    0.1502 N   0  0  0  0  0  0  0  0  0  0  0  0
   -4.1183   -1.6029    0.3422 N   0  0  0  0  0  0  0  0  0  0  0  0
   -1.8649    0.6628   -0.5642 C   0  0  0  0  0  0  0  0  0  0  0  0
   -0.5447    1.1413   -0.7931 C   0  0  0  0  0  0  0  0  0  0  0  0
    0.5728    0.3504   -0.5693 C   0  0  0  0  0  0  0  0  0  0  0  0
    1.9242    0.9151   -0.8290 N   0  0  0  0  0  0  0  0  0  0  0  0
    1.9884    2.0708   -1.2347 O   0  0  0  0  0  0  0  0  0  0  0  0
    2.8907    0.1835   -0.6193 O   0  0  0  0  0  0  0  0  0  0  0  0
    0.5145   -0.9788   -0.1036 C   0  0  0  0  0  0  0  0  0  0  0  0
   -0.7274   -1.5182    0.1426 C   0  0  0  0  0  0  0  0  0  0  0  0
   -3.9033    1.9910   -0.9722 H   0  0  0  0  0  0  0  0  0  0  0  0
   -0.3814    2.1519   -1.1535 H   0  0  0  0  0  0  0  0  0  0  0  0
    1.4286   -1.5365    0.0488 H   0  0  0  0  0  0  0  0  0  0  0  0
   -0.8492   -2.5349    0.5031 H   0  0  0  0  0  0  0  0  0  0  0  0
   -5.8476    1.4613   -1.7292 S   0  0  0  0  0  0  0  0  0  0  0  0
   -5.5480    1.6757   -3.5560 C   0  0  0  0  0  0  0  0  0  0  0  0
   -5.4837    0.0834   -1.4091 O   0  0  0  0  0  0  0  0  0  0  0  0
   -7.1574    2.0076   -1.4377 O   0  0  0  0  0  0  0  0  0  0  0  0
   -4.7480    2.4735   -1.1475 O   0  0  0  0  0  0  0  0  0  0  0  0
   -4.2842    1.3499   -3.8371 F   0  0  0  0  0  0  0  0  0  0  0  0
   -6.3745    0.8672   -4.2189 F   0  0  0  0  0  0  0  0  0  0  0  0
   -5.7737    2.9371   -3.9098 F   0  0  0  0  0  0  0  0  0  0  0  0
  1 11  1  0  0  0  0
  1  2  1  0  0  0  0
  2  3  1  0  0  0  0
  4  1  2  0  0  0  0
  5  6  2  0  0  0  0
  5  4  1  0  0  0  0
  6 10  1  0  0  0  0
  7  9  2  0  0  0  0
  7  6  1  0  0  0  0
  8  7  2  0  0  0  0
 10 14  1  0  0  0  0
 10 11  2  0  0  0  0
 11 15  1  0  0  0  0
 13  5  1  0  0  0  0
 16 19  2  0  0  0  0
 16 18  2  0  0  0  0
 16 20  1  0  0  0  0
 17 16  1  0  0  0  0
 20 12  1  0  0  0  0
 21 17  1  0  0  0  0
 22 17  1  0  0  0  0
 23 17  1  0  0  0  0
M  RAD  3   2   2   3   3   4   2
M  END
