Coordinates from ORCA-job 4-NO2PhN2+~TfO-_B3LYPG-6-31G_dp-CH-Scan-d09-49-n800
 OpenBabel11261919523D

 23 22  0  0  0  0  0  0  0  0999 V2000
   -1.8246   -0.6592   -0.1027 C   0  0  0  0  0  0  0  0  0  0  0  0
   -3.0882   -1.2039    0.1538 N   0  0  0  0  0  0  0  0  0  0  0  0
   -4.1143   -1.5959    0.3456 N   0  0  0  0  0  0  0  0  0  0  0  0
   -1.8565    0.6650   -0.5576 C   0  0  0  0  0  0  0  0  0  0  0  0
   -0.5352    1.1403   -0.7875 C   0  0  0  0  0  0  0  0  0  0  0  0
    0.5807    0.3459   -0.5682 C   0  0  0  0  0  0  0  0  0  0  0  0
    1.9332    0.9076   -0.8290 N   0  0  0  0  0  0  0  0  0  0  0  0
    1.9998    2.0646   -1.2309 O   0  0  0  0  0  0  0  0  0  0  0  0
    2.8982    0.1733   -0.6226 O   0  0  0  0  0  0  0  0  0  0  0  0
    0.5200   -0.9846   -0.1061 C   0  0  0  0  0  0  0  0  0  0  0  0
   -0.7227   -1.5215    0.1410 C   0  0  0  0  0  0  0  0  0  0  0  0
   -3.9276    2.0164   -0.9691 H   0  0  0  0  0  0  0  0  0  0  0  0
   -0.3695    2.1516   -1.1453 H   0  0  0  0  0  0  0  0  0  0  0  0
    1.4330   -1.5449    0.0429 H   0  0  0  0  0  0  0  0  0  0  0  0
   -0.8464   -2.5388    0.4990 H   0  0  0  0  0  0  0  0  0  0  0  0
   -5.8624    1.4631   -1.7330 S   0  0  0  0  0  0  0  0  0  0  0  0
   -5.5521    1.6753   -3.5584 C   0  0  0  0  0  0  0  0  0  0  0  0
   -5.4860    0.0908   -1.4057 O   0  0  0  0  0  0  0  0  0  0  0  0
   -7.1788    1.9981   -1.4511 O   0  0  0  0  0  0  0  0  0  0  0  0
   -4.7759    2.4890   -1.1469 O   0  0  0  0  0  0  0  0  0  0  0  0
   -4.2804    1.3715   -3.8275 F   0  0  0  0  0  0  0  0  0  0  0  0
   -6.3584    0.8490   -4.2240 F   0  0  0  0  0  0  0  0  0  0  0  0
   -5.7981    2.9309   -3.9194 F   0  0  0  0  0  0  0  0  0  0  0  0
  1 11  1  0  0  0  0
  1  2  1  0  0  0  0
  2  3  1  0  0  0  0
  4  1  2  0  0  0  0
  5  6  2  0  0  0  0
  5  4  1  0  0  0  0
  6 10  1  0  0  0  0
  7  9  2  0  0  0  0
  7  6  1  0  0  0  0
  8  7  2  0  0  0  0
 10 14  1  0  0  0  0
 10 11  2  0  0  0  0
 11 15  1  0  0  0  0
 13  5  1  0  0  0  0
 16 19  2  0  0  0  0
 16 18  2  0  0  0  0
 16 20  1  0  0  0  0
 17 16  1  0  0  0  0
 20 12  1  0  0  0  0
 21 17  1  0  0  0  0
 22 17  1  0  0  0  0
 23 17  1  0  0  0  0
M  RAD  3   2   2   3   3   4   2
M  END
