Coordinates from ORCA-job 4-NO2PhN2+~TfO-_B3LYPG-6-31G_dp-CH-Scan-d09-49-n800
 OpenBabel11261919523D

 23 22  0  0  0  0  0  0  0  0999 V2000
   -2.1607   -0.2489    0.0795 C   0  0  0  0  0  0  0  0  0  0  0  0
   -3.4311   -0.5469    0.5695 N   0  0  0  0  0  0  0  0  0  0  0  0
   -4.5491   -0.4560    0.6995 N   0  0  0  0  0  0  0  0  0  0  0  0
   -2.0076    0.9045   -0.7036 C   0  0  0  0  0  0  0  0  0  0  0  0
   -0.7320    1.1891   -1.1767 C   0  0  0  0  0  0  0  0  0  0  0  0
    0.3149    0.3258   -0.8583 C   0  0  0  0  0  0  0  0  0  0  0  0
    1.6724    0.6418   -1.3691 N   0  0  0  0  0  0  0  0  0  0  0  0
    1.7926    1.6584   -2.0433 O   0  0  0  0  0  0  0  0  0  0  0  0
    2.5738   -0.1372   -1.0750 O   0  0  0  0  0  0  0  0  0  0  0  0
    0.1549   -0.8209   -0.0804 C   0  0  0  0  0  0  0  0  0  0  0  0
   -1.1113   -1.1173    0.4061 C   0  0  0  0  0  0  0  0  0  0  0  0
   -2.8778    1.5402   -0.9255 H   0  0  0  0  0  0  0  0  0  0  0  0
   -0.5436    2.0605   -1.7911 H   0  0  0  0  0  0  0  0  0  0  0  0
    1.0098   -1.4505    0.1290 H   0  0  0  0  0  0  0  0  0  0  0  0
   -1.2930   -1.9964    1.0137 H   0  0  0  0  0  0  0  0  0  0  0  0
   -5.4637    0.5600   -1.9344 S   0  0  0  0  0  0  0  0  0  0  0  0
   -5.1000    2.0283   -3.0234 C   0  0  0  0  0  0  0  0  0  0  0  0
   -4.4042   -0.4204   -2.2553 O   0  0  0  0  0  0  0  0  0  0  0  0
   -6.8519    0.2041   -2.2210 O   0  0  0  0  0  0  0  0  0  0  0  0
   -5.2255    1.1775   -0.5576 O   0  0  0  0  0  0  0  0  0  0  0  0
   -3.8429    2.4809   -2.7943 F   0  0  0  0  0  0  0  0  0  0  0  0
   -5.1851    1.6808   -4.3094 F   0  0  0  0  0  0  0  0  0  0  0  0
   -5.9511    3.0264   -2.7819 F   0  0  0  0  0  0  0  0  0  0  0  0
  1 11  1  0  0  0  0
  1  2  1  0  0  0  0
  2  3  1  0  0  0  0
  4  1  2  0  0  0  0
  5  6  2  0  0  0  0
  5  4  1  0  0  0  0
  6 10  1  0  0  0  0
  7  9  2  0  0  0  0
  7  6  1  0  0  0  0
  8  7  2  0  0  0  0
 10 14  1  0  0  0  0
 10 11  2  0  0  0  0
 11 15  1  0  0  0  0
 12  4  1  0  0  0  0
 13  5  1  0  0  0  0
 16 20  1  0  0  0  0
 17 21  1  0  0  0  0
 17 23  1  0  0  0  0
 17 16  1  0  0  0  0
 18 16  2  0  0  0  0
 19 16  2  0  0  0  0
 22 17  1  0  0  0  0
M  RAD  3   2   2   3   3  20   2
M  END
