Coordinates from ORCA-job 4-NO2PhN2+~TfO-_B3LYPG-6-31G_dp-CH-Scan-d09-49-n800
 OpenBabel11261919523D

 23 22  0  0  0  0  0  0  0  0999 V2000
   -1.5918   -0.6743   -0.1273 C   0  0  0  0  0  0  0  0  0  0  0  0
   -2.8993   -1.1586    0.0423 N   0  0  0  0  0  0  0  0  0  0  0  0
   -3.9589   -1.4868    0.1653 N   0  0  0  0  0  0  0  0  0  0  0  0
   -1.5571    0.6673   -0.5166 C   0  0  0  0  0  0  0  0  0  0  0  0
   -0.2017    1.0885   -0.6634 C   0  0  0  0  0  0  0  0  0  0  0  0
    0.8663    0.2333   -0.4364 C   0  0  0  0  0  0  0  0  0  0  0  0
    2.2534    0.7407   -0.6104 N   0  0  0  0  0  0  0  0  0  0  0  0
    2.3933    1.9103   -0.9545 O   0  0  0  0  0  0  0  0  0  0  0  0
    3.1751   -0.0466   -0.3982 O   0  0  0  0  0  0  0  0  0  0  0  0
    0.7268   -1.1153   -0.0426 C   0  0  0  0  0  0  0  0  0  0  0  0
   -0.5479   -1.6047    0.1237 C   0  0  0  0  0  0  0  0  0  0  0  0
   -4.3984    2.5848   -1.1629 H   0  0  0  0  0  0  0  0  0  0  0  0
    0.0285    2.1068   -0.9628 H   0  0  0  0  0  0  0  0  0  0  0  0
    1.6073   -1.7223    0.1181 H   0  0  0  0  0  0  0  0  0  0  0  0
   -0.7349   -2.6306    0.4273 H   0  0  0  0  0  0  0  0  0  0  0  0
   -6.1792    1.5739   -1.8076 S   0  0  0  0  0  0  0  0  0  0  0  0
   -5.9923    1.6705   -3.6613 C   0  0  0  0  0  0  0  0  0  0  0  0
   -5.4954    0.3620   -1.3730 O   0  0  0  0  0  0  0  0  0  0  0  0
   -7.5620    1.8607   -1.4902 O   0  0  0  0  0  0  0  0  0  0  0  0
   -5.3025    2.8704   -1.3882 O   0  0  0  0  0  0  0  0  0  0  0  0
   -4.6963    1.6289   -3.9726 F   0  0  0  0  0  0  0  0  0  0  0  0
   -6.6171    0.6252   -4.1999 F   0  0  0  0  0  0  0  0  0  0  0  0
   -6.5282    2.7994   -4.1118 F   0  0  0  0  0  0  0  0  0  0  0  0
  1  2  1  0  0  0  0
  1 11  2  0  0  0  0
  2  3  1  0  0  0  0
  4  1  1  0  0  0  0
  5  4  2  0  0  0  0
  5  6  1  0  0  0  0
  6 10  2  0  0  0  0
  7  6  1  0  0  0  0
  7  9  2  0  0  0  0
  8  7  2  0  0  0  0
 10 14  1  0  0  0  0
 10 11  1  0  0  0  0
 11 15  1  0  0  0  0
 13  5  1  0  0  0  0
 16 19  2  0  0  0  0
 16 20  1  0  0  0  0
 16 18  2  0  0  0  0
 17 16  1  0  0  0  0
 20 12  1  0  0  0  0
 21 17  1  0  0  0  0
 22 17  1  0  0  0  0
 23 17  1  0  0  0  0
M  RAD  3   2   2   3   3   4   2
M  END
