Coordinates from ORCA-job 4-NO2PhN2+~TfO-_B3LYPG-6-31G_dp-CH-Scan-d09-49-n800
 OpenBabel11261919523D

 23 22  0  0  0  0  0  0  0  0999 V2000
   -2.1699   -0.2563    0.0726 C   0  0  0  0  0  0  0  0  0  0  0  0
   -3.4383   -0.5603    0.5643 N   0  0  0  0  0  0  0  0  0  0  0  0
   -4.5575   -0.4802    0.6950 N   0  0  0  0  0  0  0  0  0  0  0  0
   -2.0322    0.8661   -0.7585 C   0  0  0  0  0  0  0  0  0  0  0  0
   -0.7551    1.1495   -1.2308 C   0  0  0  0  0  0  0  0  0  0  0  0
    0.3040    0.3199   -0.8684 C   0  0  0  0  0  0  0  0  0  0  0  0
    1.6598    0.6375   -1.3822 N   0  0  0  0  0  0  0  0  0  0  0  0
    1.7680    1.6263   -2.0984 O   0  0  0  0  0  0  0  0  0  0  0  0
    2.5718   -0.1129   -1.0486 O   0  0  0  0  0  0  0  0  0  0  0  0
    0.1568   -0.7949   -0.0434 C   0  0  0  0  0  0  0  0  0  0  0  0
   -1.1090   -1.0917    0.4439 C   0  0  0  0  0  0  0  0  0  0  0  0
   -2.8050    1.4151   -0.9870 H   0  0  0  0  0  0  0  0  0  0  0  0
   -0.5775    1.9974   -1.8805 H   0  0  0  0  0  0  0  0  0  0  0  0
    1.0201   -1.4001    0.2004 H   0  0  0  0  0  0  0  0  0  0  0  0
   -1.2818   -1.9472    1.0868 H   0  0  0  0  0  0  0  0  0  0  0  0
   -5.4509    0.5607   -1.9498 S   0  0  0  0  0  0  0  0  0  0  0  0
   -5.0972    2.0712   -2.9833 C   0  0  0  0  0  0  0  0  0  0  0  0
   -4.3572   -0.3812   -2.2759 O   0  0  0  0  0  0  0  0  0  0  0  0
   -6.8206    0.1777   -2.2854 O   0  0  0  0  0  0  0  0  0  0  0  0
   -5.2629    1.1383   -0.5495 O   0  0  0  0  0  0  0  0  0  0  0  0
   -3.8498    2.5344   -2.7238 F   0  0  0  0  0  0  0  0  0  0  0  0
   -5.1616    1.7668   -4.2815 F   0  0  0  0  0  0  0  0  0  0  0  0
   -5.9661    3.0477   -2.7188 F   0  0  0  0  0  0  0  0  0  0  0  0
  1 11  1  0  0  0  0
  1  2  1  0  0  0  0
  2  3  1  0  0  0  0
  4  1  2  0  0  0  0
  5  6  2  0  0  0  0
  5  4  1  0  0  0  0
  6 10  1  0  0  0  0
  7  9  2  0  0  0  0
  7  6  1  0  0  0  0
  8  7  2  0  0  0  0
 10 14  1  0  0  0  0
 10 11  2  0  0  0  0
 11 15  1  0  0  0  0
 12  4  1  0  0  0  0
 13  5  1  0  0  0  0
 16 20  1  0  0  0  0
 17 21  1  0  0  0  0
 17 23  1  0  0  0  0
 17 16  1  0  0  0  0
 18 16  2  0  0  0  0
 19 16  2  0  0  0  0
 22 17  1  0  0  0  0
M  RAD  3   2   2   3   3  20   2
M  END
