Coordinates from ORCA-job 4-NO2PhN2+~TfO-_B3LYPG-6-31G_dp-CH-Scan-d09-49-n800
 OpenBabel11261919523D

 23 22  0  0  0  0  0  0  0  0999 V2000
   -1.8447   -0.6606   -0.1082 C   0  0  0  0  0  0  0  0  0  0  0  0
   -3.1046   -1.2125    0.1488 N   0  0  0  0  0  0  0  0  0  0  0  0
   -4.1270   -1.6130    0.3415 N   0  0  0  0  0  0  0  0  0  0  0  0
   -1.8817    0.6601   -0.5731 C   0  0  0  0  0  0  0  0  0  0  0  0
   -0.5639    1.1432   -0.8026 C   0  0  0  0  0  0  0  0  0  0  0  0
    0.5566    0.3578   -0.5738 C   0  0  0  0  0  0  0  0  0  0  0  0
    1.9060    0.9269   -0.8342 N   0  0  0  0  0  0  0  0  0  0  0  0
    1.9657    2.0813   -1.2445 O   0  0  0  0  0  0  0  0  0  0  0  0
    2.8750    0.2003   -0.6198 O   0  0  0  0  0  0  0  0  0  0  0  0
    0.5028   -0.9693   -0.1022 C   0  0  0  0  0  0  0  0  0  0  0  0
   -0.7373   -1.5126    0.1449 C   0  0  0  0  0  0  0  0  0  0  0  0
   -3.8634    1.9480   -0.9721 H   0  0  0  0  0  0  0  0  0  0  0  0
   -0.4047    2.1529   -1.1674 H   0  0  0  0  0  0  0  0  0  0  0  0
    1.4188   -1.5228    0.0539 H   0  0  0  0  0  0  0  0  0  0  0  0
   -0.8553   -2.5281    0.5096 H   0  0  0  0  0  0  0  0  0  0  0  0
   -5.8215    1.4571   -1.7229 S   0  0  0  0  0  0  0  0  0  0  0  0
   -5.5334    1.6765   -3.5506 C   0  0  0  0  0  0  0  0  0  0  0  0
   -5.4784    0.0708   -1.4142 O   0  0  0  0  0  0  0  0  0  0  0  0
   -7.1215    2.0206   -1.4196 O   0  0  0  0  0  0  0  0  0  0  0  0
   -4.7026    2.4463   -1.1441 O   0  0  0  0  0  0  0  0  0  0  0  0
   -4.2794    1.3257   -3.8459 F   0  0  0  0  0  0  0  0  0  0  0  0
   -6.3829    0.8903   -4.2116 F   0  0  0  0  0  0  0  0  0  0  0  0
   -5.7350    2.9449   -3.8948 F   0  0  0  0  0  0  0  0  0  0  0  0
  1 11  1  0  0  0  0
  1  2  1  0  0  0  0
  2  3  1  0  0  0  0
  4  1  2  0  0  0  0
  5  6  2  0  0  0  0
  5  4  1  0  0  0  0
  6 10  1  0  0  0  0
  7  9  2  0  0  0  0
  7  6  1  0  0  0  0
  8  7  2  0  0  0  0
 10 14  1  0  0  0  0
 10 11  2  0  0  0  0
 11 15  1  0  0  0  0
 13  5  1  0  0  0  0
 16 19  2  0  0  0  0
 16 18  2  0  0  0  0
 16 20  1  0  0  0  0
 17 16  1  0  0  0  0
 20 12  1  0  0  0  0
 21 17  1  0  0  0  0
 22 17  1  0  0  0  0
 23 17  1  0  0  0  0
M  RAD  3   2   2   3   3   4   2
M  END
