Coordinates from ORCA-job 4-NO2PhN2+~TfO-_B3LYPG-6-31G_dp-CH-Scan-d09-49-n800
 OpenBabel11261919523D

 23 22  0  0  0  0  0  0  0  0999 V2000
   -1.7086   -0.6641   -0.1071 C   0  0  0  0  0  0  0  0  0  0  0  0
   -2.9947   -1.1776    0.1129 N   0  0  0  0  0  0  0  0  0  0  0  0
   -4.0373   -1.5377    0.2793 N   0  0  0  0  0  0  0  0  0  0  0  0
   -1.7077    0.6699   -0.5282 C   0  0  0  0  0  0  0  0  0  0  0  0
   -0.3687    1.1170   -0.7234 C   0  0  0  0  0  0  0  0  0  0  0  0
    0.7236    0.2901   -0.5060 C   0  0  0  0  0  0  0  0  0  0  0  0
    2.0939    0.8235   -0.7302 N   0  0  0  0  0  0  0  0  0  0  0  0
    2.1972    1.9872   -1.1049 O   0  0  0  0  0  0  0  0  0  0  0  0
    3.0375    0.0609   -0.5256 O   0  0  0  0  0  0  0  0  0  0  0  0
    0.6236   -1.0506   -0.0781 C   0  0  0  0  0  0  0  0  0  0  0  0
   -0.6353   -1.5628    0.1347 C   0  0  0  0  0  0  0  0  0  0  0  0
   -4.1679    2.2931   -1.0464 H   0  0  0  0  0  0  0  0  0  0  0  0
   -0.1705    2.1324   -1.0527 H   0  0  0  0  0  0  0  0  0  0  0  0
    1.5207   -1.6357    0.0721 H   0  0  0  0  0  0  0  0  0  0  0  0
   -0.7907   -2.5852    0.4659 H   0  0  0  0  0  0  0  0  0  0  0  0
   -6.0288    1.5077   -1.7762 S   0  0  0  0  0  0  0  0  0  0  0  0
   -5.7639    1.6799   -3.6141 C   0  0  0  0  0  0  0  0  0  0  0  0
   -5.4988    0.2036   -1.3935 O   0  0  0  0  0  0  0  0  0  0  0  0
   -7.3870    1.9201   -1.4901 O   0  0  0  0  0  0  0  0  0  0  0  0
   -5.0439    2.6750   -1.2533 O   0  0  0  0  0  0  0  0  0  0  0  0
   -4.4701    1.5083   -3.8896 F   0  0  0  0  0  0  0  0  0  0  0  0
   -6.4818    0.7435   -4.2321 F   0  0  0  0  0  0  0  0  0  0  0  0
   -6.1530    2.8852   -4.0161 F   0  0  0  0  0  0  0  0  0  0  0  0
  1  2  1  0  0  0  0
  1 11  2  0  0  0  0
  2  3  1  0  0  0  0
  4  1  1  0  0  0  0
  5  4  2  0  0  0  0
  5  6  1  0  0  0  0
  6 10  2  0  0  0  0
  7  9  2  0  0  0  0
  7  6  1  0  0  0  0
  8  7  2  0  0  0  0
 10 14  1  0  0  0  0
 10 11  1  0  0  0  0
 11 15  1  0  0  0  0
 13  5  1  0  0  0  0
 16 19  2  0  0  0  0
 16 18  2  0  0  0  0
 16 20  1  0  0  0  0
 17 16  1  0  0  0  0
 20 12  1  0  0  0  0
 21 17  1  0  0  0  0
 22 17  1  0  0  0  0
 23 17  1  0  0  0  0
M  RAD  3   2   2   3   3   4   2
M  END
