Coordinates from ORCA-job 4-NO2PhN2+~TfO-_B3LYPG-6-31G_dp-CH-Scan-d09-49-n800
 OpenBabel11261919523D

 23 22  0  0  0  0  0  0  0  0999 V2000
   -1.7439   -0.6599   -0.0991 C   0  0  0  0  0  0  0  0  0  0  0  0
   -3.0235   -1.1801    0.1377 N   0  0  0  0  0  0  0  0  0  0  0  0
   -4.0613   -1.5483    0.3158 N   0  0  0  0  0  0  0  0  0  0  0  0
   -1.7525    0.6718   -0.5286 C   0  0  0  0  0  0  0  0  0  0  0  0
   -0.4186    1.1248   -0.7406 C   0  0  0  0  0  0  0  0  0  0  0  0
    0.6802    0.3048   -0.5294 C   0  0  0  0  0  0  0  0  0  0  0  0
    2.0452    0.8440   -0.7712 N   0  0  0  0  0  0  0  0  0  0  0  0
    2.1382    2.0060   -1.1537 O   0  0  0  0  0  0  0  0  0  0  0  0
    2.9948    0.0875   -0.5717 O   0  0  0  0  0  0  0  0  0  0  0  0
    0.5914   -1.0334   -0.0922 C   0  0  0  0  0  0  0  0  0  0  0  0
   -0.6628   -1.5507    0.1367 C   0  0  0  0  0  0  0  0  0  0  0  0
   -4.1156    2.2238   -1.0079 H   0  0  0  0  0  0  0  0  0  0  0  0
   -0.2295    2.1391   -1.0783 H   0  0  0  0  0  0  0  0  0  0  0  0
    1.4928   -1.6132    0.0522 H   0  0  0  0  0  0  0  0  0  0  0  0
   -0.8091   -2.5718    0.4756 H   0  0  0  0  0  0  0  0  0  0  0  0
   -5.9868    1.4892   -1.7666 S   0  0  0  0  0  0  0  0  0  0  0  0
   -5.6853    1.6803   -3.5967 C   0  0  0  0  0  0  0  0  0  0  0  0
   -5.4957    0.1663   -1.3960 O   0  0  0  0  0  0  0  0  0  0  0  0
   -7.3406    1.9277   -1.4986 O   0  0  0  0  0  0  0  0  0  0  0  0
   -4.9867    2.6240   -1.2079 O   0  0  0  0  0  0  0  0  0  0  0  0
   -4.3891    1.4921   -3.8507 F   0  0  0  0  0  0  0  0  0  0  0  0
   -6.4056    0.7631   -4.2405 F   0  0  0  0  0  0  0  0  0  0  0  0
   -6.0482    2.8964   -3.9911 F   0  0  0  0  0  0  0  0  0  0  0  0
  1 11  1  0  0  0  0
  1  2  1  0  0  0  0
  2  3  1  0  0  0  0
  4  1  2  0  0  0  0
  5  6  2  0  0  0  0
  5  4  1  0  0  0  0
  6 10  1  0  0  0  0
  7  9  2  0  0  0  0
  7  6  1  0  0  0  0
  8  7  2  0  0  0  0
 10 14  1  0  0  0  0
 10 11  2  0  0  0  0
 11 15  1  0  0  0  0
 13  5  1  0  0  0  0
 16 19  2  0  0  0  0
 16 18  2  0  0  0  0
 16 20  1  0  0  0  0
 17 16  1  0  0  0  0
 20 12  1  0  0  0  0
 21 17  1  0  0  0  0
 22 17  1  0  0  0  0
 23 17  1  0  0  0  0
M  RAD  3   2   2   3   3   4   2
M  END
