Coordinates from ORCA-job 4-NO2PhN2+~TfO-_B3LYPG-6-31G_dp-CH-Scan-d09-49-n800
 OpenBabel11261919533D

 23 22  0  0  0  0  0  0  0  0999 V2000
   -1.9997   -0.2091    0.5384 C   0  0  0  0  0  0  0  0  0  0  0  0
   -3.1066   -0.4962    1.3587 N   0  0  0  0  0  0  0  0  0  0  0  0
   -3.9610   -0.6473    2.0610 N   0  0  0  0  0  0  0  0  0  0  0  0
   -1.3496    0.9528    0.9503 C   0  0  0  0  0  0  0  0  0  0  0  0
   -0.2388    1.2075    0.0899 C   0  0  0  0  0  0  0  0  0  0  0  0
    0.0740    0.3726   -0.9728 C   0  0  0  0  0  0  0  0  0  0  0  0
    1.2411    0.7001   -1.8341 N   0  0  0  0  0  0  0  0  0  0  0  0
    1.8924    1.7025   -1.5558 O   0  0  0  0  0  0  0  0  0  0  0  0
    1.4815   -0.0545   -2.7767 O   0  0  0  0  0  0  0  0  0  0  0  0
   -0.6556   -0.7908   -1.3061 C   0  0  0  0  0  0  0  0  0  0  0  0
   -1.7437   -1.1106   -0.5273 C   0  0  0  0  0  0  0  0  0  0  0  0
   -5.5025    2.7723   -0.7997 H   0  0  0  0  0  0  0  0  0  0  0  0
    0.3956    2.0749    0.2497 H   0  0  0  0  0  0  0  0  0  0  0  0
   -0.3499   -1.3936   -2.1507 H   0  0  0  0  0  0  0  0  0  0  0  0
   -2.3573   -1.9853   -0.7213 H   0  0  0  0  0  0  0  0  0  0  0  0
   -5.4315    0.9691   -1.9644 S   0  0  0  0  0  0  0  0  0  0  0  0
   -3.8516    1.1977   -2.9328 C   0  0  0  0  0  0  0  0  0  0  0  0
   -5.0716    0.3400   -0.6979 O   0  0  0  0  0  0  0  0  0  0  0  0
   -6.4284    0.4297   -2.8630 O   0  0  0  0  0  0  0  0  0  0  0  0
   -5.8036    2.5269   -1.6921 O   0  0  0  0  0  0  0  0  0  0  0  0
   -2.9713    1.8562   -2.1794 F   0  0  0  0  0  0  0  0  0  0  0  0
   -3.3761   -0.0096   -3.2327 F   0  0  0  0  0  0  0  0  0  0  0  0
   -4.0982    1.8783   -4.0443 F   0  0  0  0  0  0  0  0  0  0  0  0
  1  4  1  0  0  0  0
  1  2  1  0  0  0  0
  2  3  1  0  0  0  0
  5 13  1  0  0  0  0
  5  4  2  0  0  0  0
  6  5  1  0  0  0  0
  7  8  2  0  0  0  0
  7  6  1  0  0  0  0
  9  7  2  0  0  0  0
 10  6  2  0  0  0  0
 10 11  1  0  0  0  0
 11  1  2  0  0  0  0
 14 10  1  0  0  0  0
 15 11  1  0  0  0  0
 16 20  1  0  0  0  0
 16 18  2  0  0  0  0
 17 21  1  0  0  0  0
 17 16  1  0  0  0  0
 19 16  2  0  0  0  0
 20 12  1  0  0  0  0
 22 17  1  0  0  0  0
 23 17  1  0  0  0  0
M  RAD  3   2   2   3   3   4   2
M  END
