Coordinates from ORCA-job 4-NO2PhN2+~TfO-_B3LYPG-6-31G_dp-CH-Scan-d09-49-n800
 OpenBabel11261919523D

 23 22  0  0  0  0  0  0  0  0999 V2000
   -1.7992   -0.6565   -0.0965 C   0  0  0  0  0  0  0  0  0  0  0  0
   -3.0684   -1.1908    0.1582 N   0  0  0  0  0  0  0  0  0  0  0  0
   -4.0982   -1.5726    0.3516 N   0  0  0  0  0  0  0  0  0  0  0  0
   -1.8226    0.6715   -0.5386 C   0  0  0  0  0  0  0  0  0  0  0  0
   -0.4969    1.1370   -0.7680 C   0  0  0  0  0  0  0  0  0  0  0  0
    0.6124    0.3305   -0.5598 C   0  0  0  0  0  0  0  0  0  0  0  0
    1.9692    0.8821   -0.8197 N   0  0  0  0  0  0  0  0  0  0  0  0
    2.0455    2.0418   -1.2124 O   0  0  0  0  0  0  0  0  0  0  0  0
    2.9282    0.1371   -0.6236 O   0  0  0  0  0  0  0  0  0  0  0  0
    0.5414   -1.0040   -0.1097 C   0  0  0  0  0  0  0  0  0  0  0  0
   -0.7052   -1.5320    0.1362 C   0  0  0  0  0  0  0  0  0  0  0  0
   -4.0082    2.1020   -0.9681 H   0  0  0  0  0  0  0  0  0  0  0  0
   -0.3227    2.1500   -1.1169 H   0  0  0  0  0  0  0  0  0  0  0  0
    1.4500   -1.5735    0.0312 H   0  0  0  0  0  0  0  0  0  0  0  0
   -0.8372   -2.5514    0.4855 H   0  0  0  0  0  0  0  0  0  0  0  0
   -5.9104    1.4693   -1.7460 S   0  0  0  0  0  0  0  0  0  0  0  0
   -5.5799    1.6754   -3.5691 C   0  0  0  0  0  0  0  0  0  0  0  0
   -5.4898    0.1154   -1.3978 O   0  0  0  0  0  0  0  0  0  0  0  0
   -7.2468    1.9635   -1.4860 O   0  0  0  0  0  0  0  0  0  0  0  0
   -4.8677    2.5418   -1.1552 O   0  0  0  0  0  0  0  0  0  0  0  0
   -4.2891    1.4386   -3.8117 F   0  0  0  0  0  0  0  0  0  0  0  0
   -6.3283    0.7976   -4.2361 F   0  0  0  0  0  0  0  0  0  0  0  0
   -5.8884    2.9108   -3.9502 F   0  0  0  0  0  0  0  0  0  0  0  0
  1 11  1  0  0  0  0
  1  2  1  0  0  0  0
  2  3  1  0  0  0  0
  4  1  2  0  0  0  0
  5  6  2  0  0  0  0
  5  4  1  0  0  0  0
  6 10  1  0  0  0  0
  7  9  2  0  0  0  0
  7  6  1  0  0  0  0
  8  7  2  0  0  0  0
 10 14  1  0  0  0  0
 10 11  2  0  0  0  0
 11 15  1  0  0  0  0
 13  5  1  0  0  0  0
 16 19  2  0  0  0  0
 16 18  2  0  0  0  0
 16 20  1  0  0  0  0
 17 16  1  0  0  0  0
 20 12  1  0  0  0  0
 21 17  1  0  0  0  0
 22 17  1  0  0  0  0
 23 17  1  0  0  0  0
M  RAD  3   2   2   3   3   4   2
M  END
