Coordinates from ORCA-job 4-NO2PhN2+~TfO-_B3LYPG-6-31G_dp-CH-Scan-d09-49-n800
 OpenBabel11261919523D

 23 22  0  0  0  0  0  0  0  0999 V2000
   -2.1769   -0.2651    0.0696 C   0  0  0  0  0  0  0  0  0  0  0  0
   -3.4437   -0.5751    0.5620 N   0  0  0  0  0  0  0  0  0  0  0  0
   -4.5637   -0.4984    0.6903 N   0  0  0  0  0  0  0  0  0  0  0  0
   -2.0511    0.8382   -0.7885 C   0  0  0  0  0  0  0  0  0  0  0  0
   -0.7751    1.1250   -1.2618 C   0  0  0  0  0  0  0  0  0  0  0  0
    0.2933    0.3191   -0.8753 C   0  0  0  0  0  0  0  0  0  0  0  0
    1.6467    0.6413   -1.3923 N   0  0  0  0  0  0  0  0  0  0  0  0
    1.7449    1.6129   -2.1328 O   0  0  0  0  0  0  0  0  0  0  0  0
    2.5671   -0.0883   -1.0363 O   0  0  0  0  0  0  0  0  0  0  0  0
    0.1571   -0.7766   -0.0232 C   0  0  0  0  0  0  0  0  0  0  0  0
   -1.1072   -1.0775    0.4653 C   0  0  0  0  0  0  0  0  0  0  0  0
   -2.7678    1.3332   -1.0150 H   0  0  0  0  0  0  0  0  0  0  0  0
   -0.6068    1.9590   -1.9319 H   0  0  0  0  0  0  0  0  0  0  0  0
    1.0268   -1.3644    0.2394 H   0  0  0  0  0  0  0  0  0  0  0  0
   -1.2723   -1.9190    1.1283 H   0  0  0  0  0  0  0  0  0  0  0  0
   -5.4436    0.5646   -1.9569 S   0  0  0  0  0  0  0  0  0  0  0  0
   -5.0838    2.0934   -2.9609 C   0  0  0  0  0  0  0  0  0  0  0  0
   -4.3407   -0.3661   -2.2860 O   0  0  0  0  0  0  0  0  0  0  0  0
   -6.8067    0.1799   -2.3165 O   0  0  0  0  0  0  0  0  0  0  0  0
   -5.2756    1.1189   -0.5452 O   0  0  0  0  0  0  0  0  0  0  0  0
   -3.8391    2.5533   -2.6845 F   0  0  0  0  0  0  0  0  0  0  0  0
   -5.1383    1.8115   -4.2648 F   0  0  0  0  0  0  0  0  0  0  0  0
   -5.9558    3.0640   -2.6858 F   0  0  0  0  0  0  0  0  0  0  0  0
  1 11  1  0  0  0  0
  1  2  1  0  0  0  0
  2  3  1  0  0  0  0
  4  1  2  0  0  0  0
  5  6  2  0  0  0  0
  5  4  1  0  0  0  0
  6 10  1  0  0  0  0
  7  9  2  0  0  0  0
  7  6  1  0  0  0  0
  8  7  2  0  0  0  0
 10 14  1  0  0  0  0
 10 11  2  0  0  0  0
 11 15  1  0  0  0  0
 12  4  1  0  0  0  0
 13  5  1  0  0  0  0
 16 20  1  0  0  0  0
 17 23  1  0  0  0  0
 17 21  1  0  0  0  0
 17 16  1  0  0  0  0
 18 16  2  0  0  0  0
 19 16  2  0  0  0  0
 22 17  1  0  0  0  0
M  RAD  3   2   2   3   3  20   2
M  END
