Coordinates from ORCA-job 4-NO2PhN2+~TfO-_B3LYPG-6-31G_dp-CH-Scan-d09-49-n800
 OpenBabel11261919533D

 23 22  0  0  0  0  0  0  0  0999 V2000
   -1.5392   -0.6131   -0.0225 C   0  0  0  0  0  0  0  0  0  0  0  0
   -2.8625   -1.0258    0.2171 N   0  0  0  0  0  0  0  0  0  0  0  0
   -3.9332   -1.2831    0.4009 N   0  0  0  0  0  0  0  0  0  0  0  0
   -1.4586    0.7410   -0.3510 C   0  0  0  0  0  0  0  0  0  0  0  0
   -0.0930    1.0954   -0.5728 C   0  0  0  0  0  0  0  0  0  0  0  0
    0.9367    0.1729   -0.4634 C   0  0  0  0  0  0  0  0  0  0  0  0
    2.3357    0.6117   -0.7117 N   0  0  0  0  0  0  0  0  0  0  0  0
    2.5193    1.7850   -1.0216 O   0  0  0  0  0  0  0  0  0  0  0  0
    3.2243   -0.2314   -0.5900 O   0  0  0  0  0  0  0  0  0  0  0  0
    0.7476   -1.1847   -0.1224 C   0  0  0  0  0  0  0  0  0  0  0  0
   -0.5385   -1.6122    0.1123 C   0  0  0  0  0  0  0  0  0  0  0  0
   -4.9187    2.9065   -1.0361 H   0  0  0  0  0  0  0  0  0  0  0  0
    0.1748    2.1141   -0.8389 H   0  0  0  0  0  0  0  0  0  0  0  0
    1.6014   -1.8449   -0.0524 H   0  0  0  0  0  0  0  0  0  0  0  0
   -0.7634   -2.6400    0.3829 H   0  0  0  0  0  0  0  0  0  0  0  0
   -6.3235    1.5147   -1.8777 S   0  0  0  0  0  0  0  0  0  0  0  0
   -5.8946    1.6854   -3.6856 C   0  0  0  0  0  0  0  0  0  0  0  0
   -5.4521    0.4858   -1.3255 O   0  0  0  0  0  0  0  0  0  0  0  0
   -7.7660    1.4793   -1.7682 O   0  0  0  0  0  0  0  0  0  0  0  0
   -5.8360    2.9727   -1.3552 O   0  0  0  0  0  0  0  0  0  0  0  0
   -4.5941    1.9582   -3.8006 F   0  0  0  0  0  0  0  0  0  0  0  0
   -6.1680    0.5325   -4.2920 F   0  0  0  0  0  0  0  0  0  0  0  0
   -6.6104    2.6636   -4.2284 F   0  0  0  0  0  0  0  0  0  0  0  0
  1 11  1  0  0  0  0
  1  2  1  0  0  0  0
  2  3  1  0  0  0  0
  4  1  2  0  0  0  0
  5  6  2  0  0  0  0
  5  4  1  0  0  0  0
  6 10  1  0  0  0  0
  7  9  2  0  0  0  0
  7  6  1  0  0  0  0
  8  7  2  0  0  0  0
 10 14  1  0  0  0  0
 10 11  2  0  0  0  0
 11 15  1  0  0  0  0
 13  5  1  0  0  0  0
 16 19  2  0  0  0  0
 16 20  1  0  0  0  0
 16 18  2  0  0  0  0
 17 16  1  0  0  0  0
 20 12  1  0  0  0  0
 21 17  1  0  0  0  0
 22 17  1  0  0  0  0
 23 17  1  0  0  0  0
M  RAD  3   2   2   3   3   4   2
M  END
