Coordinates from ORCA-job 4-NO2PhN2+~TfO-_B3LYPG-6-31G_dp-CH-Scan-d09-49-n800
 OpenBabel11261919533D

 23 22  0  0  0  0  0  0  0  0999 V2000
   -1.4561   -0.5772    0.0007 C   0  0  0  0  0  0  0  0  0  0  0  0
   -2.7961   -0.9441    0.2274 N   0  0  0  0  0  0  0  0  0  0  0  0
   -3.8776   -1.1590    0.4036 N   0  0  0  0  0  0  0  0  0  0  0  0
   -1.3259    0.7832   -0.2788 C   0  0  0  0  0  0  0  0  0  0  0  0
    0.0516    1.0948   -0.4919 C   0  0  0  0  0  0  0  0  0  0  0  0
    1.0454    0.1303   -0.4212 C   0  0  0  0  0  0  0  0  0  0  0  0
    2.4593    0.5241   -0.6597 N   0  0  0  0  0  0  0  0  0  0  0  0
    2.6860    1.6986   -0.9349 O   0  0  0  0  0  0  0  0  0  0  0  0
    3.3167   -0.3540   -0.5642 O   0  0  0  0  0  0  0  0  0  0  0  0
    0.8058   -1.2309   -0.1283 C   0  0  0  0  0  0  0  0  0  0  0  0
   -0.4947   -1.6181    0.0962 C   0  0  0  0  0  0  0  0  0  0  0  0
   -5.1712    3.0364   -1.0867 H   0  0  0  0  0  0  0  0  0  0  0  0
    0.3567    2.1121   -0.7206 H   0  0  0  0  0  0  0  0  0  0  0  0
    1.6344   -1.9247   -0.0859 H   0  0  0  0  0  0  0  0  0  0  0  0
   -0.7576   -2.6458    0.3311 H   0  0  0  0  0  0  0  0  0  0  0  0
   -6.4340    1.5107   -1.9191 S   0  0  0  0  0  0  0  0  0  0  0  0
   -6.0335    1.6999   -3.7314 C   0  0  0  0  0  0  0  0  0  0  0  0
   -5.4629    0.5806   -1.3579 O   0  0  0  0  0  0  0  0  0  0  0  0
   -7.8657    1.3371   -1.8003 O   0  0  0  0  0  0  0  0  0  0  0  0
   -6.0857    3.0170   -1.4195 O   0  0  0  0  0  0  0  0  0  0  0  0
   -4.7607    2.0777   -3.8587 F   0  0  0  0  0  0  0  0  0  0  0  0
   -6.2154    0.5232   -4.3262 F   0  0  0  0  0  0  0  0  0  0  0  0
   -6.8310    2.6115   -4.2765 F   0  0  0  0  0  0  0  0  0  0  0  0
  1 11  1  0  0  0  0
  1  2  1  0  0  0  0
  2  3  1  0  0  0  0
  4  1  2  0  0  0  0
  5  6  2  0  0  0  0
  5  4  1  0  0  0  0
  6 10  1  0  0  0  0
  7  9  2  0  0  0  0
  7  6  1  0  0  0  0
  8  7  2  0  0  0  0
 10 14  1  0  0  0  0
 10 11  2  0  0  0  0
 11 15  1  0  0  0  0
 13  5  1  0  0  0  0
 16 19  2  0  0  0  0
 16 20  1  0  0  0  0
 16 18  2  0  0  0  0
 17 16  1  0  0  0  0
 20 12  1  0  0  0  0
 21 17  1  0  0  0  0
 22 17  1  0  0  0  0
 23 17  1  0  0  0  0
M  RAD  3   2   2   3   3   4   2
M  END
