Coordinates from ORCA-job 4-NO2PhN2+~TfO-_B3LYPG-6-31G_dp-CH-Scan-d09-49-n800
 OpenBabel11261919523D

 23 22  0  0  0  0  0  0  0  0999 V2000
   -1.6087   -0.6755   -0.1288 C   0  0  0  0  0  0  0  0  0  0  0  0
   -2.9126   -1.1671    0.0440 N   0  0  0  0  0  0  0  0  0  0  0  0
   -3.9693   -1.5032    0.1701 N   0  0  0  0  0  0  0  0  0  0  0  0
   -1.5803    0.6642   -0.5259 C   0  0  0  0  0  0  0  0  0  0  0  0
   -0.2277    1.0922   -0.6754 C   0  0  0  0  0  0  0  0  0  0  0  0
    0.8450    0.2442   -0.4434 C   0  0  0  0  0  0  0  0  0  0  0  0
    2.2293    0.7585   -0.6205 N   0  0  0  0  0  0  0  0  0  0  0  0
    2.3624    1.9267   -0.9717 O   0  0  0  0  0  0  0  0  0  0  0  0
    3.1553   -0.0223   -0.4028 O   0  0  0  0  0  0  0  0  0  0  0  0
    0.7129   -1.1026   -0.0417 C   0  0  0  0  0  0  0  0  0  0  0  0
   -0.5591   -1.5981    0.1274 C   0  0  0  0  0  0  0  0  0  0  0  0
   -4.3423    2.5232   -1.1542 H   0  0  0  0  0  0  0  0  0  0  0  0
   -0.0034    2.1099   -0.9809 H   0  0  0  0  0  0  0  0  0  0  0  0
    1.5967   -1.7039    0.1226 H   0  0  0  0  0  0  0  0  0  0  0  0
   -0.7403   -2.6233    0.4368 H   0  0  0  0  0  0  0  0  0  0  0  0
   -6.1509    1.5653   -1.8019 S   0  0  0  0  0  0  0  0  0  0  0  0
   -5.9714    1.6737   -3.6555 C   0  0  0  0  0  0  0  0  0  0  0  0
   -5.4978    0.3313   -1.3817 O   0  0  0  0  0  0  0  0  0  0  0  0
   -7.5246    1.8845   -1.4756 O   0  0  0  0  0  0  0  0  0  0  0  0
   -5.2393    2.8341   -1.3757 O   0  0  0  0  0  0  0  0  0  0  0  0
   -4.6801    1.5862   -3.9762 F   0  0  0  0  0  0  0  0  0  0  0  0
   -6.6392    0.6587   -4.2008 F   0  0  0  0  0  0  0  0  0  0  0  0
   -6.4667    2.8269   -4.0909 F   0  0  0  0  0  0  0  0  0  0  0  0
  1  2  1  0  0  0  0
  1 11  2  0  0  0  0
  2  3  1  0  0  0  0
  4  1  1  0  0  0  0
  5  4  2  0  0  0  0
  5  6  1  0  0  0  0
  6 10  2  0  0  0  0
  7  6  1  0  0  0  0
  7  9  2  0  0  0  0
  8  7  2  0  0  0  0
 10 14  1  0  0  0  0
 10 11  1  0  0  0  0
 11 15  1  0  0  0  0
 13  5  1  0  0  0  0
 16 19  2  0  0  0  0
 16 18  2  0  0  0  0
 16 20  1  0  0  0  0
 17 16  1  0  0  0  0
 20 12  1  0  0  0  0
 21 17  1  0  0  0  0
 22 17  1  0  0  0  0
 23 17  1  0  0  0  0
M  RAD  3   2   2   3   3   4   2
M  END
