Coordinates from ORCA-job 4-NO2PhN2+~TfO-_B3LYPG-6-31G_dp-CH-Scan-d09-49-n800
 OpenBabel11261919523D

 23 22  0  0  0  0  0  0  0  0999 V2000
   -1.6857   -0.6674   -0.1133 C   0  0  0  0  0  0  0  0  0  0  0  0
   -2.9758   -1.1769    0.0947 N   0  0  0  0  0  0  0  0  0  0  0  0
   -4.0215   -1.5328    0.2512 N   0  0  0  0  0  0  0  0  0  0  0  0
   -1.6788    0.6679   -0.5293 C   0  0  0  0  0  0  0  0  0  0  0  0
   -0.3366    1.1116   -0.7125 C   0  0  0  0  0  0  0  0  0  0  0  0
    0.7516    0.2806   -0.4903 C   0  0  0  0  0  0  0  0  0  0  0  0
    2.1251    0.8106   -0.7021 N   0  0  0  0  0  0  0  0  0  0  0  0
    2.2350    1.9754   -1.0716 O   0  0  0  0  0  0  0  0  0  0  0  0
    3.0650    0.0445   -0.4930 O   0  0  0  0  0  0  0  0  0  0  0  0
    0.6446   -1.0616   -0.0681 C   0  0  0  0  0  0  0  0  0  0  0  0
   -0.6174   -1.5709    0.1333 C   0  0  0  0  0  0  0  0  0  0  0  0
   -4.1994    2.3385   -1.0742 H   0  0  0  0  0  0  0  0  0  0  0  0
   -0.1326    2.1277   -1.0364 H   0  0  0  0  0  0  0  0  0  0  0  0
    1.5389   -1.6498    0.0865 H   0  0  0  0  0  0  0  0  0  0  0  0
   -0.7784   -2.5940    0.4596 H   0  0  0  0  0  0  0  0  0  0  0  0
   -6.0546    1.5213   -1.7818 S   0  0  0  0  0  0  0  0  0  0  0  0
   -5.8167    1.6789   -3.6248 C   0  0  0  0  0  0  0  0  0  0  0  0
   -5.4996    0.2299   -1.3919 O   0  0  0  0  0  0  0  0  0  0  0  0
   -7.4143    1.9176   -1.4815 O   0  0  0  0  0  0  0  0  0  0  0  0
   -5.0785    2.7088   -1.2851 O   0  0  0  0  0  0  0  0  0  0  0  0
   -4.5254    1.5172   -3.9165 F   0  0  0  0  0  0  0  0  0  0  0  0
   -6.5342    0.7299   -4.2238 F   0  0  0  0  0  0  0  0  0  0  0  0
   -6.2231    2.8767   -4.0320 F   0  0  0  0  0  0  0  0  0  0  0  0
  1  2  1  0  0  0  0
  1 11  2  0  0  0  0
  2  3  1  0  0  0  0
  4  1  1  0  0  0  0
  5  4  2  0  0  0  0
  5  6  1  0  0  0  0
  6 10  2  0  0  0  0
  7  9  2  0  0  0  0
  7  6  1  0  0  0  0
  8  7  2  0  0  0  0
 10 14  1  0  0  0  0
 10 11  1  0  0  0  0
 11 15  1  0  0  0  0
 13  5  1  0  0  0  0
 16 19  2  0  0  0  0
 16 18  2  0  0  0  0
 16 20  1  0  0  0  0
 17 16  1  0  0  0  0
 20 12  1  0  0  0  0
 21 17  1  0  0  0  0
 22 17  1  0  0  0  0
 23 17  1  0  0  0  0
M  RAD  3   2   2   3   3   4   2
M  END
