Coordinates from ORCA-job 4-NO2PhN2+~TfO-_B3LYPG-6-31G_dp-CH-Scan-d09-49-n800
 OpenBabel11261919533D

 23 22  0  0  0  0  0  0  0  0999 V2000
   -2.0193   -0.2267    0.5229 C   0  0  0  0  0  0  0  0  0  0  0  0
   -3.1232   -0.5342    1.3401 N   0  0  0  0  0  0  0  0  0  0  0  0
   -3.9773   -0.7020    2.0390 N   0  0  0  0  0  0  0  0  0  0  0  0
   -1.4122    0.9649    0.9150 C   0  0  0  0  0  0  0  0  0  0  0  0
   -0.2993    1.2353    0.0622 C   0  0  0  0  0  0  0  0  0  0  0  0
    0.0538    0.3865   -0.9765 C   0  0  0  0  0  0  0  0  0  0  0  0
    1.2219    0.7305   -1.8300 N   0  0  0  0  0  0  0  0  0  0  0  0
    1.8450    1.7528   -1.5596 O   0  0  0  0  0  0  0  0  0  0  0  0
    1.4927   -0.0327   -2.7574 O   0  0  0  0  0  0  0  0  0  0  0  0
   -0.6357   -0.8056   -1.2931 C   0  0  0  0  0  0  0  0  0  0  0  0
   -1.7230   -1.1420   -0.5202 C   0  0  0  0  0  0  0  0  0  0  0  0
   -5.3549    2.8006   -0.7716 H   0  0  0  0  0  0  0  0  0  0  0  0
    0.3048    2.1263    0.2091 H   0  0  0  0  0  0  0  0  0  0  0  0
   -0.3012   -1.4162   -2.1210 H   0  0  0  0  0  0  0  0  0  0  0  0
   -2.3069   -2.0392   -0.7024 H   0  0  0  0  0  0  0  0  0  0  0  0
   -5.4252    1.0052   -1.9471 S   0  0  0  0  0  0  0  0  0  0  0  0
   -3.8516    1.1616   -2.9398 C   0  0  0  0  0  0  0  0  0  0  0  0
   -5.0774    0.3424   -0.6950 O   0  0  0  0  0  0  0  0  0  0  0  0
   -6.4653    0.5313   -2.8334 O   0  0  0  0  0  0  0  0  0  0  0  0
   -5.7087    2.5766   -1.6507 O   0  0  0  0  0  0  0  0  0  0  0  0
   -2.9399    1.8029   -2.2089 F   0  0  0  0  0  0  0  0  0  0  0  0
   -3.4204   -0.0660   -3.2244 F   0  0  0  0  0  0  0  0  0  0  0  0
   -4.0890    1.8315   -4.0598 F   0  0  0  0  0  0  0  0  0  0  0  0
  1  4  1  0  0  0  0
  1  2  1  0  0  0  0
  2  3  1  0  0  0  0
  5 13  1  0  0  0  0
  5  4  2  0  0  0  0
  6  5  1  0  0  0  0
  7  8  2  0  0  0  0
  7  6  1  0  0  0  0
  9  7  2  0  0  0  0
 10  6  2  0  0  0  0
 10 11  1  0  0  0  0
 11  1  2  0  0  0  0
 14 10  1  0  0  0  0
 15 11  1  0  0  0  0
 16 20  1  0  0  0  0
 16 18  2  0  0  0  0
 17 21  1  0  0  0  0
 17 16  1  0  0  0  0
 19 16  2  0  0  0  0
 20 12  1  0  0  0  0
 22 17  1  0  0  0  0
 23 17  1  0  0  0  0
M  RAD  3   2   2   3   3   4   2
M  END
