Coordinates from ORCA-job 4-NO2PhN2+~TfO-_B3LYPG-6-31G_dp-CH-Scan-d09-49-n800
 OpenBabel11261919523D

 23 22  0  0  0  0  0  0  0  0999 V2000
   -1.7289   -0.6613   -0.1020 C   0  0  0  0  0  0  0  0  0  0  0  0
   -3.0114   -1.1782    0.1288 N   0  0  0  0  0  0  0  0  0  0  0  0
   -4.0512   -1.5419    0.3042 N   0  0  0  0  0  0  0  0  0  0  0  0
   -1.7334    0.6713   -0.5281 C   0  0  0  0  0  0  0  0  0  0  0  0
   -0.3973    1.1214   -0.7340 C   0  0  0  0  0  0  0  0  0  0  0  0
    0.6986    0.2982   -0.5209 C   0  0  0  0  0  0  0  0  0  0  0  0
    2.0659    0.8345   -0.7562 N   0  0  0  0  0  0  0  0  0  0  0  0
    2.1636    1.9980   -1.1328 O   0  0  0  0  0  0  0  0  0  0  0  0
    3.0130    0.0760   -0.5522 O   0  0  0  0  0  0  0  0  0  0  0  0
    0.6050   -1.0410   -0.0872 C   0  0  0  0  0  0  0  0  0  0  0  0
   -0.6512   -1.5558    0.1358 C   0  0  0  0  0  0  0  0  0  0  0  0
   -4.1404    2.2535   -1.0222 H   0  0  0  0  0  0  0  0  0  0  0  0
   -0.2043    2.1361   -1.0686 H   0  0  0  0  0  0  0  0  0  0  0  0
    1.5045   -1.6233    0.0591 H   0  0  0  0  0  0  0  0  0  0  0  0
   -0.8015   -2.5773    0.4717 H   0  0  0  0  0  0  0  0  0  0  0  0
   -6.0059    1.4961   -1.7711 S   0  0  0  0  0  0  0  0  0  0  0  0
   -5.7167    1.6806   -3.6040 C   0  0  0  0  0  0  0  0  0  0  0  0
   -5.4981    0.1810   -1.3953 O   0  0  0  0  0  0  0  0  0  0  0  0
   -7.3624    1.9225   -1.4974 O   0  0  0  0  0  0  0  0  0  0  0  0
   -5.0139    2.6452   -1.2250 O   0  0  0  0  0  0  0  0  0  0  0  0
   -4.4209    1.5005   -3.8648 F   0  0  0  0  0  0  0  0  0  0  0  0
   -6.4344    0.7551   -4.2387 F   0  0  0  0  0  0  0  0  0  0  0  0
   -6.0909    2.8922   -4.0016 F   0  0  0  0  0  0  0  0  0  0  0  0
  1  2  1  0  0  0  0
  1 11  2  0  0  0  0
  2  3  1  0  0  0  0
  4  1  1  0  0  0  0
  5  4  2  0  0  0  0
  5  6  1  0  0  0  0
  6 10  2  0  0  0  0
  7  9  2  0  0  0  0
  7  6  1  0  0  0  0
  8  7  2  0  0  0  0
 10 14  1  0  0  0  0
 10 11  1  0  0  0  0
 11 15  1  0  0  0  0
 13  5  1  0  0  0  0
 16 19  2  0  0  0  0
 16 18  2  0  0  0  0
 16 20  1  0  0  0  0
 17 16  1  0  0  0  0
 20 12  1  0  0  0  0
 21 17  1  0  0  0  0
 22 17  1  0  0  0  0
 23 17  1  0  0  0  0
M  RAD  3   2   2   3   3   4   2
M  END
