Coordinates from ORCA-job 4-NO2PhN2+~TfO-_B3LYPG-6-31G_dp-CH-Scan-d09-49-n800
 OpenBabel11261919523D

 23 22  0  0  0  0  0  0  0  0999 V2000
   -2.1673   -0.2538    0.0735 C   0  0  0  0  0  0  0  0  0  0  0  0
   -3.4362   -0.5560    0.5649 N   0  0  0  0  0  0  0  0  0  0  0  0
   -4.5551   -0.4737    0.6961 N   0  0  0  0  0  0  0  0  0  0  0  0
   -2.0252    0.8756   -0.7469 C   0  0  0  0  0  0  0  0  0  0  0  0
   -0.7481    1.1583   -1.2191 C   0  0  0  0  0  0  0  0  0  0  0  0
    0.3077    0.3203   -0.8663 C   0  0  0  0  0  0  0  0  0  0  0  0
    1.6642    0.6366   -1.3791 N   0  0  0  0  0  0  0  0  0  0  0  0
    1.7764    1.6336   -2.0832 O   0  0  0  0  0  0  0  0  0  0  0  0
    2.5739   -0.1190   -1.0512 O   0  0  0  0  0  0  0  0  0  0  0  0
    0.1568   -0.8018   -0.0518 C   0  0  0  0  0  0  0  0  0  0  0  0
   -1.1094   -1.0975    0.4350 C   0  0  0  0  0  0  0  0  0  0  0  0
   -2.8207    1.4460   -0.9754 H   0  0  0  0  0  0  0  0  0  0  0  0
   -0.5673    2.0116   -1.8609 H   0  0  0  0  0  0  0  0  0  0  0  0
    1.0177   -1.4133    0.1845 H   0  0  0  0  0  0  0  0  0  0  0  0
   -1.2849   -1.9583    1.0700 H   0  0  0  0  0  0  0  0  0  0  0  0
   -5.4546    0.5601   -1.9464 S   0  0  0  0  0  0  0  0  0  0  0  0
   -5.1007    2.0618   -2.9923 C   0  0  0  0  0  0  0  0  0  0  0  0
   -4.3674   -0.3892   -2.2719 O   0  0  0  0  0  0  0  0  0  0  0  0
   -6.8283    0.1814   -2.2706 O   0  0  0  0  0  0  0  0  0  0  0  0
   -5.2556    1.1468   -0.5511 O   0  0  0  0  0  0  0  0  0  0  0  0
   -3.8513    2.5239   -2.7407 F   0  0  0  0  0  0  0  0  0  0  0  0
   -5.1705    1.7479   -4.2880 F   0  0  0  0  0  0  0  0  0  0  0  0
   -5.9663    3.0424   -2.7319 F   0  0  0  0  0  0  0  0  0  0  0  0
  1 11  1  0  0  0  0
  1  2  1  0  0  0  0
  2  3  1  0  0  0  0
  4  1  2  0  0  0  0
  5  6  2  0  0  0  0
  5  4  1  0  0  0  0
  6 10  1  0  0  0  0
  7  9  2  0  0  0  0
  7  6  1  0  0  0  0
  8  7  2  0  0  0  0
 10 14  1  0  0  0  0
 10 11  2  0  0  0  0
 11 15  1  0  0  0  0
 12  4  1  0  0  0  0
 13  5  1  0  0  0  0
 16 20  1  0  0  0  0
 17 21  1  0  0  0  0
 17 23  1  0  0  0  0
 17 16  1  0  0  0  0
 18 16  2  0  0  0  0
 19 16  2  0  0  0  0
 22 17  1  0  0  0  0
M  RAD  3   2   2   3   3  20   2
M  END
