Coordinates from ORCA-job 4-NO2PhN2+~TfO-_B3LYPG-6-31G_dp-CH-Scan-d09-49-n800
 OpenBabel11261919523D

 23 22  0  0  0  0  0  0  0  0999 V2000
   -1.6176   -0.6755   -0.1283 C   0  0  0  0  0  0  0  0  0  0  0  0
   -2.9197   -1.1702    0.0473 N   0  0  0  0  0  0  0  0  0  0  0  0
   -3.9750   -1.5093    0.1765 N   0  0  0  0  0  0  0  0  0  0  0  0
   -1.5922    0.6636   -0.5284 C   0  0  0  0  0  0  0  0  0  0  0  0
   -0.2409    1.0943   -0.6806 C   0  0  0  0  0  0  0  0  0  0  0  0
    0.8340    0.2493   -0.4478 C   0  0  0  0  0  0  0  0  0  0  0  0
    2.2169    0.7664   -0.6277 N   0  0  0  0  0  0  0  0  0  0  0  0
    2.3468    1.9339   -0.9823 O   0  0  0  0  0  0  0  0  0  0  0  0
    3.1448   -0.0118   -0.4095 O   0  0  0  0  0  0  0  0  0  0  0  0
    0.7053   -1.0968   -0.0430 C   0  0  0  0  0  0  0  0  0  0  0  0
   -0.5654   -1.5948    0.1287 C   0  0  0  0  0  0  0  0  0  0  0  0
   -4.3191    2.4958   -1.1473 H   0  0  0  0  0  0  0  0  0  0  0  0
   -0.0194    2.1119   -0.9886 H   0  0  0  0  0  0  0  0  0  0  0  0
    1.5906   -1.6958    0.1217 H   0  0  0  0  0  0  0  0  0  0  0  0
   -0.7438   -2.6197    0.4406 H   0  0  0  0  0  0  0  0  0  0  0  0
   -6.1378    1.5604   -1.7993 S   0  0  0  0  0  0  0  0  0  0  0  0
   -5.9571    1.6749   -3.6524 C   0  0  0  0  0  0  0  0  0  0  0  0
   -5.4987    0.3172   -1.3846 O   0  0  0  0  0  0  0  0  0  0  0  0
   -7.5082    1.8927   -1.4720 O   0  0  0  0  0  0  0  0  0  0  0  0
   -5.2130    2.8170   -1.3674 O   0  0  0  0  0  0  0  0  0  0  0  0
   -4.6673    1.5695   -3.9742 F   0  0  0  0  0  0  0  0  0  0  0  0
   -6.6403    0.6729   -4.2025 F   0  0  0  0  0  0  0  0  0  0  0  0
   -6.4351    2.8377   -4.0819 F   0  0  0  0  0  0  0  0  0  0  0  0
  1  2  1  0  0  0  0
  1 11  2  0  0  0  0
  2  3  1  0  0  0  0
  4  1  1  0  0  0  0
  5  4  2  0  0  0  0
  5  6  1  0  0  0  0
  6 10  2  0  0  0  0
  7  6  1  0  0  0  0
  7  9  2  0  0  0  0
  8  7  2  0  0  0  0
 10 14  1  0  0  0  0
 10 11  1  0  0  0  0
 11 15  1  0  0  0  0
 13  5  1  0  0  0  0
 16 19  2  0  0  0  0
 16 18  2  0  0  0  0
 16 20  1  0  0  0  0
 17 16  1  0  0  0  0
 20 12  1  0  0  0  0
 21 17  1  0  0  0  0
 22 17  1  0  0  0  0
 23 17  1  0  0  0  0
M  RAD  3   2   2   3   3   4   2
M  END
