Coordinates from ORCA-job 4-NO2PhN2+~TfO-_B3LYPG-6-31G_dp-CH-Scan-d09-49-n800
 OpenBabel11261919523D

 23 22  0  0  0  0  0  0  0  0999 V2000
   -2.1682   -0.2552    0.0724 C   0  0  0  0  0  0  0  0  0  0  0  0
   -3.4369   -0.5586    0.5634 N   0  0  0  0  0  0  0  0  0  0  0  0
   -4.5560   -0.4781    0.6944 N   0  0  0  0  0  0  0  0  0  0  0  0
   -2.0282    0.8696   -0.7549 C   0  0  0  0  0  0  0  0  0  0  0  0
   -0.7508    1.1525   -1.2265 C   0  0  0  0  0  0  0  0  0  0  0  0
    0.3068    0.3197   -0.8669 C   0  0  0  0  0  0  0  0  0  0  0  0
    1.6632    0.6366   -1.3796 N   0  0  0  0  0  0  0  0  0  0  0  0
    1.7732    1.6277   -2.0923 O   0  0  0  0  0  0  0  0  0  0  0  0
    2.5739   -0.1163   -1.0484 O   0  0  0  0  0  0  0  0  0  0  0  0
    0.1577   -0.7976   -0.0457 C   0  0  0  0  0  0  0  0  0  0  0  0
   -1.1086   -1.0938    0.4407 C   0  0  0  0  0  0  0  0  0  0  0  0
   -2.8122    1.4287   -0.9849 H   0  0  0  0  0  0  0  0  0  0  0  0
   -0.5715    2.0024   -1.8732 H   0  0  0  0  0  0  0  0  0  0  0  0
    1.0199   -1.4053    0.1960 H   0  0  0  0  0  0  0  0  0  0  0  0
   -1.2829   -1.9511    1.0808 H   0  0  0  0  0  0  0  0  0  0  0  0
   -5.4535    0.5605   -1.9487 S   0  0  0  0  0  0  0  0  0  0  0  0
   -5.1009    2.0682   -2.9866 C   0  0  0  0  0  0  0  0  0  0  0  0
   -4.3620   -0.3836   -2.2753 O   0  0  0  0  0  0  0  0  0  0  0  0
   -6.8248    0.1788   -2.2797 O   0  0  0  0  0  0  0  0  0  0  0  0
   -5.2610    1.1410   -0.5501 O   0  0  0  0  0  0  0  0  0  0  0  0
   -3.8529    2.5315   -2.7306 F   0  0  0  0  0  0  0  0  0  0  0  0
   -5.1677    1.7604   -4.2839 F   0  0  0  0  0  0  0  0  0  0  0  0
   -5.9689    3.0457   -2.7231 F   0  0  0  0  0  0  0  0  0  0  0  0
  1 11  1  0  0  0  0
  1  2  1  0  0  0  0
  2  3  1  0  0  0  0
  4  1  2  0  0  0  0
  5  6  2  0  0  0  0
  5  4  1  0  0  0  0
  6 10  1  0  0  0  0
  7  9  2  0  0  0  0
  7  6  1  0  0  0  0
  8  7  2  0  0  0  0
 10 14  1  0  0  0  0
 10 11  2  0  0  0  0
 11 15  1  0  0  0  0
 12  4  1  0  0  0  0
 13  5  1  0  0  0  0
 16 20  1  0  0  0  0
 17 21  1  0  0  0  0
 17 23  1  0  0  0  0
 17 16  1  0  0  0  0
 18 16  2  0  0  0  0
 19 16  2  0  0  0  0
 22 17  1  0  0  0  0
M  RAD  3   2   2   3   3  20   2
M  END
