Coordinates from ORCA-job 4-NO2PhN2+~TfO-_B3LYPG-6-31G_dp-CH-Scan-d09-49-n800
 OpenBabel11261919523D

 23 22  0  0  0  0  0  0  0  0999 V2000
   -2.0219   -0.5951   -0.1027 C   0  0  0  0  0  0  0  0  0  0  0  0
   -3.2780   -1.1350    0.1682 N   0  0  0  0  0  0  0  0  0  0  0  0
   -4.3129   -1.5096    0.3326 N   0  0  0  0  0  0  0  0  0  0  0  0
   -2.0042    0.6915   -0.6571 C   0  0  0  0  0  0  0  0  0  0  0  0
   -0.7122    1.1838   -0.9058 C   0  0  0  0  0  0  0  0  0  0  0  0
    0.4060    0.4165   -0.6021 C   0  0  0  0  0  0  0  0  0  0  0  0
    1.7563    0.9758   -0.8772 N   0  0  0  0  0  0  0  0  0  0  0  0
    1.8101    2.1006   -1.3601 O   0  0  0  0  0  0  0  0  0  0  0  0
    2.7207    0.2677   -0.5994 O   0  0  0  0  0  0  0  0  0  0  0  0
    0.3394   -0.8688   -0.0446 C   0  0  0  0  0  0  0  0  0  0  0  0
   -0.9073   -1.4009    0.2194 C   0  0  0  0  0  0  0  0  0  0  0  0
   -3.1656    1.4154   -0.9550 H   0  0  0  0  0  0  0  0  0  0  0  0
   -0.5727    2.1681   -1.3376 H   0  0  0  0  0  0  0  0  0  0  0  0
    1.2514   -1.4115    0.1657 H   0  0  0  0  0  0  0  0  0  0  0  0
   -1.0258   -2.3901    0.6476 H   0  0  0  0  0  0  0  0  0  0  0  0
   -5.4265    1.3049   -1.7030 S   0  0  0  0  0  0  0  0  0  0  0  0
   -5.4983    1.7577   -3.5026 C   0  0  0  0  0  0  0  0  0  0  0  0
   -5.1072   -0.1422   -1.6999 O   0  0  0  0  0  0  0  0  0  0  0  0
   -6.6952    1.7346   -1.1243 O   0  0  0  0  0  0  0  0  0  0  0  0
   -4.2275    2.1246   -1.2209 O   0  0  0  0  0  0  0  0  0  0  0  0
   -4.3347    1.4559   -4.0979 F   0  0  0  0  0  0  0  0  0  0  0  0
   -6.4780    1.0740   -4.1021 F   0  0  0  0  0  0  0  0  0  0  0  0
   -5.7282    3.0656   -3.6440 F   0  0  0  0  0  0  0  0  0  0  0  0
  1  2  1  0  0  0  0
  1 11  2  0  0  0  0
  2  3  1  0  0  0  0
  4  1  1  0  0  0  0
  5  4  2  0  0  0  0
  5  6  1  0  0  0  0
  6 10  2  0  0  0  0
  7  6  1  0  0  0  0
  7  9  2  0  0  0  0
  8  7  2  0  0  0  0
 10 14  1  0  0  0  0
 10 11  1  0  0  0  0
 11 15  1  0  0  0  0
 13  5  1  0  0  0  0
 16 18  2  0  0  0  0
 16 20  1  0  0  0  0
 16 19  2  0  0  0  0
 17 16  1  0  0  0  0
 20 12  1  0  0  0  0
 21 17  1  0  0  0  0
 22 17  1  0  0  0  0
 23 17  1  0  0  0  0
M  RAD  3   2   2   3   3   4   2
M  END
