Coordinates from ORCA-job 4-NO2PhN2+~TfO-_B3LYPG-6-31G_dp-CH-Scan-d09-49-n800
 OpenBabel11261919533D

 23 22  0  0  0  0  0  0  0  0999 V2000
   -1.5455   -0.6681   -0.1205 C   0  0  0  0  0  0  0  0  0  0  0  0
   -2.8624   -1.1322    0.0415 N   0  0  0  0  0  0  0  0  0  0  0  0
   -3.9291   -1.4396    0.1583 N   0  0  0  0  0  0  0  0  0  0  0  0
   -1.4927    0.6776   -0.4903 C   0  0  0  0  0  0  0  0  0  0  0  0
   -0.1303    1.0801   -0.6313 C   0  0  0  0  0  0  0  0  0  0  0  0
    0.9244    0.2053   -0.4178 C   0  0  0  0  0  0  0  0  0  0  0  0
    2.3192    0.6937   -0.5851 N   0  0  0  0  0  0  0  0  0  0  0  0
    2.4773    1.8638   -0.9197 O   0  0  0  0  0  0  0  0  0  0  0  0
    3.2287   -0.1126   -0.3918 O   0  0  0  0  0  0  0  0  0  0  0  0
    0.7648   -1.1469   -0.0434 C   0  0  0  0  0  0  0  0  0  0  0  0
   -0.5171   -1.6191    0.1168 C   0  0  0  0  0  0  0  0  0  0  0  0
   -4.5660    2.7401   -1.1729 H   0  0  0  0  0  0  0  0  0  0  0  0
    0.1155    2.0992   -0.9155 H   0  0  0  0  0  0  0  0  0  0  0  0
    1.6362   -1.7692    0.1080 H   0  0  0  0  0  0  0  0  0  0  0  0
   -0.7199   -2.6462    0.4060 H   0  0  0  0  0  0  0  0  0  0  0  0
   -6.2574    1.5897   -1.8259 S   0  0  0  0  0  0  0  0  0  0  0  0
   -6.0435    1.6647   -3.6780 C   0  0  0  0  0  0  0  0  0  0  0  0
   -5.4947    0.4412   -1.3533 O   0  0  0  0  0  0  0  0  0  0  0  0
   -7.6624    1.7836   -1.5372 O   0  0  0  0  0  0  0  0  0  0  0  0
   -5.4830    2.9560   -1.4195 O   0  0  0  0  0  0  0  0  0  0  0  0
   -4.7421    1.7093   -3.9652 F   0  0  0  0  0  0  0  0  0  0  0  0
   -6.5835    0.5685   -4.2063 F   0  0  0  0  0  0  0  0  0  0  0  0
   -6.6487    2.7447   -4.1595 F   0  0  0  0  0  0  0  0  0  0  0  0
  1  2  1  0  0  0  0
  1 11  2  0  0  0  0
  2  3  1  0  0  0  0
  4  1  1  0  0  0  0
  5  4  2  0  0  0  0
  5  6  1  0  0  0  0
  6 10  2  0  0  0  0
  7  6  1  0  0  0  0
  7  9  2  0  0  0  0
  8  7  2  0  0  0  0
 10 14  1  0  0  0  0
 10 11  1  0  0  0  0
 11 15  1  0  0  0  0
 13  5  1  0  0  0  0
 16 19  2  0  0  0  0
 16 20  1  0  0  0  0
 16 18  2  0  0  0  0
 17 16  1  0  0  0  0
 20 12  1  0  0  0  0
 21 17  1  0  0  0  0
 22 17  1  0  0  0  0
 23 17  1  0  0  0  0
M  RAD  3   2   2   3   3   4   2
M  END
