Coordinates from ORCA-job 4-NO2PhN2+~TfO-_B3LYPG-6-31G_dp-CH-Scan-d09-49-n800
 OpenBabel11261919533D

 23 22  0  0  0  0  0  0  0  0999 V2000
   -1.5368   -0.6126   -0.0223 C   0  0  0  0  0  0  0  0  0  0  0  0
   -2.8605   -1.0242    0.2169 N   0  0  0  0  0  0  0  0  0  0  0  0
   -3.9316   -1.2804    0.4005 N   0  0  0  0  0  0  0  0  0  0  0  0
   -1.4551    0.7416   -0.3502 C   0  0  0  0  0  0  0  0  0  0  0  0
   -0.0892    1.0950   -0.5718 C   0  0  0  0  0  0  0  0  0  0  0  0
    0.9397    0.1717   -0.4625 C   0  0  0  0  0  0  0  0  0  0  0  0
    2.3391    0.6094   -0.7104 N   0  0  0  0  0  0  0  0  0  0  0  0
    2.5238    1.7829   -1.0187 O   0  0  0  0  0  0  0  0  0  0  0  0
    3.2271   -0.2341   -0.5877 O   0  0  0  0  0  0  0  0  0  0  0  0
    0.7495   -1.1859   -0.1220 C   0  0  0  0  0  0  0  0  0  0  0  0
   -0.5370   -1.6125    0.1123 C   0  0  0  0  0  0  0  0  0  0  0  0
   -4.9250    2.9100   -1.0377 H   0  0  0  0  0  0  0  0  0  0  0  0
    0.1794    2.1136   -0.8374 H   0  0  0  0  0  0  0  0  0  0  0  0
    1.6027   -1.8468   -0.0522 H   0  0  0  0  0  0  0  0  0  0  0  0
   -0.7627   -2.6402    0.3824 H   0  0  0  0  0  0  0  0  0  0  0  0
   -6.3267    1.5148   -1.8787 S   0  0  0  0  0  0  0  0  0  0  0  0
   -5.8987    1.6862   -3.6867 C   0  0  0  0  0  0  0  0  0  0  0  0
   -5.4529    0.4880   -1.3265 O   0  0  0  0  0  0  0  0  0  0  0  0
   -7.7692    1.4761   -1.7688 O   0  0  0  0  0  0  0  0  0  0  0  0
   -5.8426    2.9740   -1.3567 O   0  0  0  0  0  0  0  0  0  0  0  0
   -4.5988    1.9614   -3.8021 F   0  0  0  0  0  0  0  0  0  0  0  0
   -6.1700    0.5327   -4.2930 F   0  0  0  0  0  0  0  0  0  0  0  0
   -6.6165    2.6629   -4.2294 F   0  0  0  0  0  0  0  0  0  0  0  0
  1 11  1  0  0  0  0
  1  2  1  0  0  0  0
  2  3  1  0  0  0  0
  4  1  2  0  0  0  0
  5  6  2  0  0  0  0
  5  4  1  0  0  0  0
  6 10  1  0  0  0  0
  7  9  2  0  0  0  0
  7  6  1  0  0  0  0
  8  7  2  0  0  0  0
 10 14  1  0  0  0  0
 10 11  2  0  0  0  0
 11 15  1  0  0  0  0
 13  5  1  0  0  0  0
 16 19  2  0  0  0  0
 16 20  1  0  0  0  0
 16 18  2  0  0  0  0
 17 16  1  0  0  0  0
 20 12  1  0  0  0  0
 21 17  1  0  0  0  0
 22 17  1  0  0  0  0
 23 17  1  0  0  0  0
M  RAD  3   2   2   3   3   4   2
M  END
