Coordinates from ORCA-job 4-NO2PhN2+~TfO-_B3LYPG-6-31G_dp-CH-Scan-d09-49-n800
 OpenBabel11261919533D

 23 22  0  0  0  0  0  0  0  0999 V2000
   -1.5869   -0.6737   -0.1268 C   0  0  0  0  0  0  0  0  0  0  0  0
   -2.8955   -1.1558    0.0419 N   0  0  0  0  0  0  0  0  0  0  0  0
   -3.9559   -1.4813    0.1652 N   0  0  0  0  0  0  0  0  0  0  0  0
   -1.5501    0.6685   -0.5135 C   0  0  0  0  0  0  0  0  0  0  0  0
   -0.1939    1.0877   -0.6596 C   0  0  0  0  0  0  0  0  0  0  0  0
    0.8725    0.2301   -0.4345 C   0  0  0  0  0  0  0  0  0  0  0  0
    2.2605    0.7355   -0.6076 N   0  0  0  0  0  0  0  0  0  0  0  0
    2.4025    1.9055   -0.9494 O   0  0  0  0  0  0  0  0  0  0  0  0
    3.1809   -0.0539   -0.3972 O   0  0  0  0  0  0  0  0  0  0  0  0
    0.7308   -1.1190   -0.0433 C   0  0  0  0  0  0  0  0  0  0  0  0
   -0.5447   -1.6065    0.1223 C   0  0  0  0  0  0  0  0  0  0  0  0
   -4.4157    2.6029   -1.1653 H   0  0  0  0  0  0  0  0  0  0  0  0
    0.0379    2.1062   -0.9569 H   0  0  0  0  0  0  0  0  0  0  0  0
    1.6103   -1.7278    0.1161 H   0  0  0  0  0  0  0  0  0  0  0  0
   -0.7335   -2.6327    0.4239 H   0  0  0  0  0  0  0  0  0  0  0  0
   -6.1876    1.5761   -1.8093 S   0  0  0  0  0  0  0  0  0  0  0  0
   -5.9979    1.6693   -3.6630 C   0  0  0  0  0  0  0  0  0  0  0  0
   -5.4950    0.3708   -1.3702 O   0  0  0  0  0  0  0  0  0  0  0  0
   -7.5731    1.8532   -1.4949 O   0  0  0  0  0  0  0  0  0  0  0  0
   -5.3217    2.8808   -1.3919 O   0  0  0  0  0  0  0  0  0  0  0  0
   -4.7009    1.6399   -3.9713 F   0  0  0  0  0  0  0  0  0  0  0  0
   -6.6111    0.6163   -4.1998 F   0  0  0  0  0  0  0  0  0  0  0  0
   -6.5442    2.7915   -4.1178 F   0  0  0  0  0  0  0  0  0  0  0  0
  1  2  1  0  0  0  0
  1 11  2  0  0  0  0
  2  3  1  0  0  0  0
  4  1  1  0  0  0  0
  5  4  2  0  0  0  0
  5  6  1  0  0  0  0
  6 10  2  0  0  0  0
  7  6  1  0  0  0  0
  7  9  2  0  0  0  0
  8  7  2  0  0  0  0
 10 14  1  0  0  0  0
 10 11  1  0  0  0  0
 11 15  1  0  0  0  0
 13  5  1  0  0  0  0
 16 19  2  0  0  0  0
 16 20  1  0  0  0  0
 16 18  2  0  0  0  0
 17 16  1  0  0  0  0
 20 12  1  0  0  0  0
 21 17  1  0  0  0  0
 22 17  1  0  0  0  0
 23 17  1  0  0  0  0
M  RAD  3   2   2   3   3   4   2
M  END
