Coordinates from ORCA-job 4-NO2PhN2+~TfO-_B3LYPG-6-31G_dp-CH-Scan-d09-49-n800
 OpenBabel11261919523D

 23 22  0  0  0  0  0  0  0  0999 V2000
   -1.8479   -0.6605   -0.1085 C   0  0  0  0  0  0  0  0  0  0  0  0
   -3.1071   -1.2132    0.1495 N   0  0  0  0  0  0  0  0  0  0  0  0
   -4.1291   -1.6144    0.3430 N   0  0  0  0  0  0  0  0  0  0  0  0
   -1.8857    0.6598   -0.5747 C   0  0  0  0  0  0  0  0  0  0  0  0
   -0.5683    1.1435   -0.8052 C   0  0  0  0  0  0  0  0  0  0  0  0
    0.5527    0.3590   -0.5759 C   0  0  0  0  0  0  0  0  0  0  0  0
    1.9017    0.9288   -0.8373 N   0  0  0  0  0  0  0  0  0  0  0  0
    1.9606    2.0841   -1.2451 O   0  0  0  0  0  0  0  0  0  0  0  0
    2.8713    0.2043   -0.6189 O   0  0  0  0  0  0  0  0  0  0  0  0
    0.4999   -0.9676   -0.1030 C   0  0  0  0  0  0  0  0  0  0  0  0
   -0.7398   -1.5114    0.1450 C   0  0  0  0  0  0  0  0  0  0  0  0
   -3.8550    1.9395   -0.9714 H   0  0  0  0  0  0  0  0  0  0  0  0
   -0.4100    2.1529   -1.1710 H   0  0  0  0  0  0  0  0  0  0  0  0
    1.4163   -1.5204    0.0533 H   0  0  0  0  0  0  0  0  0  0  0  0
   -0.8570   -2.5267    0.5107 H   0  0  0  0  0  0  0  0  0  0  0  0
   -5.8157    1.4559   -1.7214 S   0  0  0  0  0  0  0  0  0  0  0  0
   -5.5292    1.6765   -3.5492 C   0  0  0  0  0  0  0  0  0  0  0  0
   -5.4767    0.0680   -1.4150 O   0  0  0  0  0  0  0  0  0  0  0  0
   -7.1139    2.0227   -1.4163 O   0  0  0  0  0  0  0  0  0  0  0  0
   -4.6934    2.4406   -1.1428 O   0  0  0  0  0  0  0  0  0  0  0  0
   -4.2767    1.3219   -3.8466 F   0  0  0  0  0  0  0  0  0  0  0  0
   -6.3821    0.8940   -4.2102 F   0  0  0  0  0  0  0  0  0  0  0  0
   -5.7270    2.9460   -3.8917 F   0  0  0  0  0  0  0  0  0  0  0  0
  1 11  1  0  0  0  0
  1  2  1  0  0  0  0
  2  3  1  0  0  0  0
  4  1  2  0  0  0  0
  5  6  2  0  0  0  0
  5  4  1  0  0  0  0
  6 10  1  0  0  0  0
  7  9  2  0  0  0  0
  7  6  1  0  0  0  0
  8  7  2  0  0  0  0
 10 14  1  0  0  0  0
 10 11  2  0  0  0  0
 11 15  1  0  0  0  0
 13  5  1  0  0  0  0
 16 19  2  0  0  0  0
 16 18  2  0  0  0  0
 16 20  1  0  0  0  0
 17 16  1  0  0  0  0
 20 12  1  0  0  0  0
 21 17  1  0  0  0  0
 22 17  1  0  0  0  0
 23 17  1  0  0  0  0
M  RAD  3   2   2   3   3   4   2
M  END
