Coordinates from ORCA-job 4-NO2PhN2+~TfO-_B3LYPG-6-31G_dp-CH-Scan-d09-49-n800
 OpenBabel11261919523D

 23 22  0  0  0  0  0  0  0  0999 V2000
   -1.6413   -0.6734   -0.1241 C   0  0  0  0  0  0  0  0  0  0  0  0
   -2.9390   -1.1743    0.0616 N   0  0  0  0  0  0  0  0  0  0  0  0
   -3.9909   -1.5205    0.1993 N   0  0  0  0  0  0  0  0  0  0  0  0
   -1.6228    0.6642   -0.5306 C   0  0  0  0  0  0  0  0  0  0  0  0
   -0.2748    1.1004   -0.6922 C   0  0  0  0  0  0  0  0  0  0  0  0
    0.8051    0.2613   -0.4614 C   0  0  0  0  0  0  0  0  0  0  0  0
    2.1847    0.7838   -0.6512 N   0  0  0  0  0  0  0  0  0  0  0  0
    2.3071    1.9504   -1.0115 O   0  0  0  0  0  0  0  0  0  0  0  0
    3.1172    0.0107   -0.4345 O   0  0  0  0  0  0  0  0  0  0  0  0
    0.6846   -1.0834   -0.0499 C   0  0  0  0  0  0  0  0  0  0  0  0
   -0.5830   -1.5862    0.1309 C   0  0  0  0  0  0  0  0  0  0  0  0
   -4.2691    2.4329   -1.1246 H   0  0  0  0  0  0  0  0  0  0  0  0
   -0.0598    2.1175   -1.0062 H   0  0  0  0  0  0  0  0  0  0  0  0
    1.5733   -1.6778    0.1127 H   0  0  0  0  0  0  0  0  0  0  0  0
   -0.7550   -2.6105    0.4483 H   0  0  0  0  0  0  0  0  0  0  0  0
   -6.1066    1.5469   -1.7930 S   0  0  0  0  0  0  0  0  0  0  0  0
   -5.9126    1.6770   -3.6435 C   0  0  0  0  0  0  0  0  0  0  0  0
   -5.5005    0.2836   -1.3890 O   0  0  0  0  0  0  0  0  0  0  0  0
   -7.4712    1.9071   -1.4704 O   0  0  0  0  0  0  0  0  0  0  0  0
   -5.1564    2.7758   -1.3417 O   0  0  0  0  0  0  0  0  0  0  0  0
   -4.6243    1.5420   -3.9602 F   0  0  0  0  0  0  0  0  0  0  0  0
   -6.6187    0.6994   -4.2089 F   0  0  0  0  0  0  0  0  0  0  0  0
   -6.3580    2.8566   -4.0624 F   0  0  0  0  0  0  0  0  0  0  0  0
  1  2  1  0  0  0  0
  1 11  2  0  0  0  0
  2  3  1  0  0  0  0
  4  1  1  0  0  0  0
  5  4  2  0  0  0  0
  5  6  1  0  0  0  0
  6 10  2  0  0  0  0
  7  6  1  0  0  0  0
  7  9  2  0  0  0  0
  8  7  2  0  0  0  0
 10 14  1  0  0  0  0
 10 11  1  0  0  0  0
 11 15  1  0  0  0  0
 13  5  1  0  0  0  0
 16 19  2  0  0  0  0
 16 18  2  0  0  0  0
 16 20  1  0  0  0  0
 17 16  1  0  0  0  0
 20 12  1  0  0  0  0
 21 17  1  0  0  0  0
 22 17  1  0  0  0  0
 23 17  1  0  0  0  0
M  RAD  3   2   2   3   3   4   2
M  END
