Coordinates from ORCA-job 4-NO2PhN2+~TfO-_B3LYPG-6-31G_dp-CH-Scan-d09-49-n800
 OpenBabel11261919533D

 23 22  0  0  0  0  0  0  0  0999 V2000
   -2.0243   -0.2267    0.5198 C   0  0  0  0  0  0  0  0  0  0  0  0
   -3.1273   -0.5377    1.3370 N   0  0  0  0  0  0  0  0  0  0  0  0
   -3.9802   -0.7092    2.0362 N   0  0  0  0  0  0  0  0  0  0  0  0
   -1.4222    0.9682    0.9096 C   0  0  0  0  0  0  0  0  0  0  0  0
   -0.3086    1.2396    0.0581 C   0  0  0  0  0  0  0  0  0  0  0  0
    0.0493    0.3890   -0.9777 C   0  0  0  0  0  0  0  0  0  0  0  0
    1.2183    0.7341   -1.8293 N   0  0  0  0  0  0  0  0  0  0  0  0
    1.8390    1.7579   -1.5589 O   0  0  0  0  0  0  0  0  0  0  0  0
    1.4907   -0.0284   -2.7567 O   0  0  0  0  0  0  0  0  0  0  0  0
   -0.6368   -0.8051   -1.2932 C   0  0  0  0  0  0  0  0  0  0  0  0
   -1.7245   -1.1429   -0.5212 C   0  0  0  0  0  0  0  0  0  0  0  0
   -5.3287    2.8007   -0.7681 H   0  0  0  0  0  0  0  0  0  0  0  0
    0.2924    2.1329    0.2037 H   0  0  0  0  0  0  0  0  0  0  0  0
   -0.3002   -1.4161   -2.1199 H   0  0  0  0  0  0  0  0  0  0  0  0
   -2.3067   -2.0412   -0.7039 H   0  0  0  0  0  0  0  0  0  0  0  0
   -5.4208    1.0069   -1.9432 S   0  0  0  0  0  0  0  0  0  0  0  0
   -3.8483    1.1549   -2.9390 C   0  0  0  0  0  0  0  0  0  0  0  0
   -5.0755    0.3409   -0.6918 O   0  0  0  0  0  0  0  0  0  0  0  0
   -6.4657    0.5414   -2.8281 O   0  0  0  0  0  0  0  0  0  0  0  0
   -5.6919    2.5801   -1.6439 O   0  0  0  0  0  0  0  0  0  0  0  0
   -2.9343    1.7963   -2.2106 F   0  0  0  0  0  0  0  0  0  0  0  0
   -3.4198   -0.0741   -3.2211 F   0  0  0  0  0  0  0  0  0  0  0  0
   -4.0859    1.8224   -4.0605 F   0  0  0  0  0  0  0  0  0  0  0  0
  1  4  1  0  0  0  0
  1  2  1  0  0  0  0
  2  3  1  0  0  0  0
  5 13  1  0  0  0  0
  5  4  2  0  0  0  0
  6  5  1  0  0  0  0
  7  8  2  0  0  0  0
  7  6  1  0  0  0  0
  9  7  2  0  0  0  0
 10  6  2  0  0  0  0
 10 11  1  0  0  0  0
 11  1  2  0  0  0  0
 14 10  1  0  0  0  0
 15 11  1  0  0  0  0
 16 20  1  0  0  0  0
 16 18  2  0  0  0  0
 17 21  1  0  0  0  0
 17 16  1  0  0  0  0
 19 16  2  0  0  0  0
 20 12  1  0  0  0  0
 22 17  1  0  0  0  0
 23 17  1  0  0  0  0
M  RAD  3   2   2   3   3   4   2
M  END
