Coordinates from ORCA-job 4-NO2PhN2+~TfO-_B3LYPG-6-31G_dp-CH-Scan-d09-49-n800
 OpenBabel11261919533D

 23 22  0  0  0  0  0  0  0  0999 V2000
   -1.5072   -0.6039   -0.0195 C   0  0  0  0  0  0  0  0  0  0  0  0
   -2.8370   -1.0017    0.2117 N   0  0  0  0  0  0  0  0  0  0  0  0
   -3.9121   -1.2451    0.3893 N   0  0  0  0  0  0  0  0  0  0  0  0
   -1.4103    0.7521   -0.3342 C   0  0  0  0  0  0  0  0  0  0  0  0
   -0.0400    1.0931   -0.5486 C   0  0  0  0  0  0  0  0  0  0  0  0
    0.9783    0.1575   -0.4458 C   0  0  0  0  0  0  0  0  0  0  0  0
    2.3831    0.5822   -0.6858 N   0  0  0  0  0  0  0  0  0  0  0  0
    2.5813    1.7559   -0.9849 O   0  0  0  0  0  0  0  0  0  0  0  0
    3.2617   -0.2719   -0.5685 O   0  0  0  0  0  0  0  0  0  0  0  0
    0.7725   -1.2013   -0.1188 C   0  0  0  0  0  0  0  0  0  0  0  0
   -0.5191   -1.6162    0.1082 C   0  0  0  0  0  0  0  0  0  0  0  0
   -5.0011    2.9540   -1.0599 H   0  0  0  0  0  0  0  0  0  0  0  0
    0.2402    2.1113   -0.8034 H   0  0  0  0  0  0  0  0  0  0  0  0
    1.6184   -1.8719   -0.0532 H   0  0  0  0  0  0  0  0  0  0  0  0
   -0.7567   -2.6439    0.3681 H   0  0  0  0  0  0  0  0  0  0  0  0
   -6.3651    1.5167   -1.8909 S   0  0  0  0  0  0  0  0  0  0  0  0
   -5.9540    1.6916   -3.7024 C   0  0  0  0  0  0  0  0  0  0  0  0
   -5.4578    0.5195   -1.3385 O   0  0  0  0  0  0  0  0  0  0  0  0
   -7.8051    1.4366   -1.7717 O   0  0  0  0  0  0  0  0  0  0  0  0
   -5.9196    2.9925   -1.3799 O   0  0  0  0  0  0  0  0  0  0  0  0
   -4.6616    1.9964   -3.8280 F   0  0  0  0  0  0  0  0  0  0  0  0
   -6.2029    0.5302   -4.3030 F   0  0  0  0  0  0  0  0  0  0  0  0
   -6.6980    2.6498   -4.2430 F   0  0  0  0  0  0  0  0  0  0  0  0
  1 11  1  0  0  0  0
  1  2  1  0  0  0  0
  2  3  1  0  0  0  0
  4  1  2  0  0  0  0
  5  6  2  0  0  0  0
  5  4  1  0  0  0  0
  6 10  1  0  0  0  0
  7  9  2  0  0  0  0
  7  6  1  0  0  0  0
  8  7  2  0  0  0  0
 10 14  1  0  0  0  0
 10 11  2  0  0  0  0
 11 15  1  0  0  0  0
 13  5  1  0  0  0  0
 16 19  2  0  0  0  0
 16 20  1  0  0  0  0
 16 18  2  0  0  0  0
 17 16  1  0  0  0  0
 20 12  1  0  0  0  0
 21 17  1  0  0  0  0
 22 17  1  0  0  0  0
 23 17  1  0  0  0  0
M  RAD  3   2   2   3   3   4   2
M  END
