Coordinates from ORCA-job 4-NO2PhN2+~TfO-_B3LYPG-6-31G_dp-CH-Scan-d09-49-n800
 OpenBabel11261919523D

 23 22  0  0  0  0  0  0  0  0999 V2000
   -1.8261   -0.6594   -0.1043 C   0  0  0  0  0  0  0  0  0  0  0  0
   -3.0896   -1.2049    0.1511 N   0  0  0  0  0  0  0  0  0  0  0  0
   -4.1152   -1.5973    0.3442 N   0  0  0  0  0  0  0  0  0  0  0  0
   -1.8579    0.6643   -0.5600 C   0  0  0  0  0  0  0  0  0  0  0  0
   -0.5369    1.1407   -0.7889 C   0  0  0  0  0  0  0  0  0  0  0  0
    0.5793    0.3472   -0.5679 C   0  0  0  0  0  0  0  0  0  0  0  0
    1.9316    0.9098   -0.8274 N   0  0  0  0  0  0  0  0  0  0  0  0
    1.9978    2.0663   -1.2307 O   0  0  0  0  0  0  0  0  0  0  0  0
    2.8968    0.1759   -0.6203 O   0  0  0  0  0  0  0  0  0  0  0  0
    0.5189   -0.9830   -0.1050 C   0  0  0  0  0  0  0  0  0  0  0  0
   -0.7238   -1.5206    0.1410 C   0  0  0  0  0  0  0  0  0  0  0  0
   -3.9210    2.0096   -0.9712 H   0  0  0  0  0  0  0  0  0  0  0  0
   -0.3718    2.1518   -1.1472 H   0  0  0  0  0  0  0  0  0  0  0  0
    1.4321   -1.5427    0.0453 H   0  0  0  0  0  0  0  0  0  0  0  0
   -0.8472   -2.5378    0.4994 H   0  0  0  0  0  0  0  0  0  0  0  0
   -5.8584    1.4629   -1.7318 S   0  0  0  0  0  0  0  0  0  0  0  0
   -5.5526    1.6751   -3.5579 C   0  0  0  0  0  0  0  0  0  0  0  0
   -5.4856    0.0887   -1.4065 O   0  0  0  0  0  0  0  0  0  0  0  0
   -7.1727    2.0013   -1.4462 O   0  0  0  0  0  0  0  0  0  0  0  0
   -4.7680    2.4852   -1.1482 O   0  0  0  0  0  0  0  0  0  0  0  0
   -4.2837    1.3634   -3.8316 F   0  0  0  0  0  0  0  0  0  0  0  0
   -6.3664    0.8547   -4.2219 F   0  0  0  0  0  0  0  0  0  0  0  0
   -5.7917    2.9326   -3.9168 F   0  0  0  0  0  0  0  0  0  0  0  0
  1 11  1  0  0  0  0
  1  2  1  0  0  0  0
  2  3  1  0  0  0  0
  4  1  2  0  0  0  0
  5  6  2  0  0  0  0
  5  4  1  0  0  0  0
  6 10  1  0  0  0  0
  7  9  2  0  0  0  0
  7  6  1  0  0  0  0
  8  7  2  0  0  0  0
 10 14  1  0  0  0  0
 10 11  2  0  0  0  0
 11 15  1  0  0  0  0
 13  5  1  0  0  0  0
 16 19  2  0  0  0  0
 16 18  2  0  0  0  0
 16 20  1  0  0  0  0
 17 16  1  0  0  0  0
 20 12  1  0  0  0  0
 21 17  1  0  0  0  0
 22 17  1  0  0  0  0
 23 17  1  0  0  0  0
M  RAD  3   2   2   3   3   4   2
M  END
