Coordinates from ORCA-job 4-NO2PhN2+~TfO-_B3LYPG-6-31G_dp-CH-Scan-d09-49-n800
 OpenBabel11261919523D

 23 22  0  0  0  0  0  0  0  0999 V2000
   -1.7492   -0.6594   -0.0985 C   0  0  0  0  0  0  0  0  0  0  0  0
   -3.0279   -1.1808    0.1404 N   0  0  0  0  0  0  0  0  0  0  0  0
   -4.0649   -1.5502    0.3202 N   0  0  0  0  0  0  0  0  0  0  0  0
   -1.7593    0.6720   -0.5290 C   0  0  0  0  0  0  0  0  0  0  0  0
   -0.4261    1.1260   -0.7431 C   0  0  0  0  0  0  0  0  0  0  0  0
    0.6736    0.3072   -0.5326 C   0  0  0  0  0  0  0  0  0  0  0  0
    2.0379    0.8474   -0.7765 N   0  0  0  0  0  0  0  0  0  0  0  0
    2.1293    2.0092   -1.1600 O   0  0  0  0  0  0  0  0  0  0  0  0
    2.9883    0.0919   -0.5776 O   0  0  0  0  0  0  0  0  0  0  0  0
    0.5865   -1.0308   -0.0942 C   0  0  0  0  0  0  0  0  0  0  0  0
   -0.6669   -1.5489    0.1367 C   0  0  0  0  0  0  0  0  0  0  0  0
   -4.1063    2.2129   -1.0033 H   0  0  0  0  0  0  0  0  0  0  0  0
   -0.2384    2.1402   -1.0819 H   0  0  0  0  0  0  0  0  0  0  0  0
    1.4886   -1.6097    0.0496 H   0  0  0  0  0  0  0  0  0  0  0  0
   -0.8119   -2.5699    0.4766 H   0  0  0  0  0  0  0  0  0  0  0  0
   -5.9799    1.4870   -1.7648 S   0  0  0  0  0  0  0  0  0  0  0  0
   -5.6744    1.6800   -3.5941 C   0  0  0  0  0  0  0  0  0  0  0  0
   -5.4950    0.1611   -1.3961 O   0  0  0  0  0  0  0  0  0  0  0  0
   -7.3325    1.9302   -1.4985 O   0  0  0  0  0  0  0  0  0  0  0  0
   -4.9765    2.6164   -1.2021 O   0  0  0  0  0  0  0  0  0  0  0  0
   -4.3783    1.4884   -3.8459 F   0  0  0  0  0  0  0  0  0  0  0  0
   -6.3961    0.7658   -4.2407 F   0  0  0  0  0  0  0  0  0  0  0  0
   -6.0330    2.8977   -3.9874 F   0  0  0  0  0  0  0  0  0  0  0  0
  1 11  1  0  0  0  0
  1  2  1  0  0  0  0
  2  3  1  0  0  0  0
  4  1  2  0  0  0  0
  5  6  2  0  0  0  0
  5  4  1  0  0  0  0
  6 10  1  0  0  0  0
  7  9  2  0  0  0  0
  7  6  1  0  0  0  0
  8  7  2  0  0  0  0
 10 14  1  0  0  0  0
 10 11  2  0  0  0  0
 11 15  1  0  0  0  0
 13  5  1  0  0  0  0
 16 19  2  0  0  0  0
 16 18  2  0  0  0  0
 16 20  1  0  0  0  0
 17 16  1  0  0  0  0
 20 12  1  0  0  0  0
 21 17  1  0  0  0  0
 22 17  1  0  0  0  0
 23 17  1  0  0  0  0
M  RAD  3   2   2   3   3   4   2
M  END
