Coordinates from ORCA-job 4-NO2PhN2+~TfO-_B3LYPG-6-31G_dp-CH-Scan-d09-49-n800
 OpenBabel11261919533D

 23 22  0  0  0  0  0  0  0  0999 V2000
   -1.8977   -0.1952    0.6095 C   0  0  0  0  0  0  0  0  0  0  0  0
   -3.0542   -0.5224    1.3416 N   0  0  0  0  0  0  0  0  0  0  0  0
   -3.9474   -0.7168    1.9822 N   0  0  0  0  0  0  0  0  0  0  0  0
   -1.2241    0.8851    1.1768 C   0  0  0  0  0  0  0  0  0  0  0  0
   -0.0585    1.1775    0.4050 C   0  0  0  0  0  0  0  0  0  0  0  0
    0.2783    0.4451   -0.7237 C   0  0  0  0  0  0  0  0  0  0  0  0
    1.5052    0.8034   -1.4836 N   0  0  0  0  0  0  0  0  0  0  0  0
    2.1748    1.7473   -1.0749 O   0  0  0  0  0  0  0  0  0  0  0  0
    1.7739    0.1306   -2.4791 O   0  0  0  0  0  0  0  0  0  0  0  0
   -0.4814   -0.6387   -1.2191 C   0  0  0  0  0  0  0  0  0  0  0  0
   -1.6237   -0.9864   -0.5360 C   0  0  0  0  0  0  0  0  0  0  0  0
   -4.7824    2.8151   -1.0283 H   0  0  0  0  0  0  0  0  0  0  0  0
    0.6002    1.9939    0.6890 H   0  0  0  0  0  0  0  0  0  0  0  0
   -0.1548   -1.1589   -2.1091 H   0  0  0  0  0  0  0  0  0  0  0  0
   -2.2666   -1.7999   -0.8583 H   0  0  0  0  0  0  0  0  0  0  0  0
   -5.5367    1.0119   -1.9169 S   0  0  0  0  0  0  0  0  0  0  0  0
   -4.5209    0.9386   -3.4814 C   0  0  0  0  0  0  0  0  0  0  0  0
   -4.7603    0.3450   -0.8768 O   0  0  0  0  0  0  0  0  0  0  0  0
   -6.8973    0.6504   -2.2476 O   0  0  0  0  0  0  0  0  0  0  0  0
   -5.5010    2.6139   -1.6538 O   0  0  0  0  0  0  0  0  0  0  0  0
   -3.3351    1.5041   -3.2520 F   0  0  0  0  0  0  0  0  0  0  0  0
   -4.3542   -0.3407   -3.8083 F   0  0  0  0  0  0  0  0  0  0  0  0
   -5.1483    1.5807   -4.4580 F   0  0  0  0  0  0  0  0  0  0  0  0
  1  4  1  0  0  0  0
  1  2  1  0  0  0  0
  2  3  1  0  0  0  0
  5 13  1  0  0  0  0
  5  4  2  0  0  0  0
  6  5  1  0  0  0  0
  7  8  2  0  0  0  0
  7  6  1  0  0  0  0
  9  7  2  0  0  0  0
 10  6  2  0  0  0  0
 10 11  1  0  0  0  0
 11  1  2  0  0  0  0
 14 10  1  0  0  0  0
 15 11  1  0  0  0  0
 16 20  1  0  0  0  0
 16 18  2  0  0  0  0
 17 21  1  0  0  0  0
 17 16  1  0  0  0  0
 19 16  2  0  0  0  0
 20 12  1  0  0  0  0
 22 17  1  0  0  0  0
 23 17  1  0  0  0  0
M  RAD  3   2   2   3   3   4   2
M  END
