Coordinates from ORCA-job 4-NO2PhN2+~TfO-_B3LYPG-6-31G_dp-CH-Scan-d09-49-n800
 OpenBabel11261919533D

 23 22  0  0  0  0  0  0  0  0999 V2000
   -1.4744   -0.5926   -0.0120 C   0  0  0  0  0  0  0  0  0  0  0  0
   -2.8103   -0.9747    0.2124 N   0  0  0  0  0  0  0  0  0  0  0  0
   -3.8895   -1.1976    0.3927 N   0  0  0  0  0  0  0  0  0  0  0  0
   -1.3593    0.7668   -0.3033 C   0  0  0  0  0  0  0  0  0  0  0  0
    0.0153    1.0931   -0.5127 C   0  0  0  0  0  0  0  0  0  0  0  0
    1.0207    0.1418   -0.4272 C   0  0  0  0  0  0  0  0  0  0  0  0
    2.4310    0.5512   -0.6611 N   0  0  0  0  0  0  0  0  0  0  0  0
    2.6449    1.7265   -0.9427 O   0  0  0  0  0  0  0  0  0  0  0  0
    3.2981   -0.3162   -0.5568 O   0  0  0  0  0  0  0  0  0  0  0  0
    0.7964   -1.2195   -0.1232 C   0  0  0  0  0  0  0  0  0  0  0  0
   -0.5006   -1.6206    0.0978 C   0  0  0  0  0  0  0  0  0  0  0  0
   -5.0882    3.0052   -1.0884 H   0  0  0  0  0  0  0  0  0  0  0  0
    0.3092    2.1118   -0.7497 H   0  0  0  0  0  0  0  0  0  0  0  0
    1.6331   -1.9026   -0.0700 H   0  0  0  0  0  0  0  0  0  0  0  0
   -0.7521   -2.6493    0.3403 H   0  0  0  0  0  0  0  0  0  0  0  0
   -6.4074    1.5195   -1.9060 S   0  0  0  0  0  0  0  0  0  0  0  0
   -6.0133    1.6937   -3.7213 C   0  0  0  0  0  0  0  0  0  0  0  0
   -5.4641    0.5577   -1.3509 O   0  0  0  0  0  0  0  0  0  0  0  0
   -7.8432    1.3932   -1.7773 O   0  0  0  0  0  0  0  0  0  0  0  0
   -6.0068    3.0136   -1.4100 O   0  0  0  0  0  0  0  0  0  0  0  0
   -4.7303    2.0317   -3.8577 F   0  0  0  0  0  0  0  0  0  0  0  0
   -6.2355    0.5224   -4.3131 F   0  0  0  0  0  0  0  0  0  0  0  0
   -6.7858    2.6287   -4.2625 F   0  0  0  0  0  0  0  0  0  0  0  0
  1 11  1  0  0  0  0
  1  2  1  0  0  0  0
  2  3  1  0  0  0  0
  4  1  2  0  0  0  0
  5  6  2  0  0  0  0
  5  4  1  0  0  0  0
  6 10  1  0  0  0  0
  7  9  2  0  0  0  0
  7  6  1  0  0  0  0
  8  7  2  0  0  0  0
 10 14  1  0  0  0  0
 10 11  2  0  0  0  0
 11 15  1  0  0  0  0
 13  5  1  0  0  0  0
 16 19  2  0  0  0  0
 16 20  1  0  0  0  0
 16 18  2  0  0  0  0
 17 16  1  0  0  0  0
 20 12  1  0  0  0  0
 21 17  1  0  0  0  0
 22 17  1  0  0  0  0
 23 17  1  0  0  0  0
M  RAD  3   2   2   3   3   4   2
M  END
