Coordinates from ORCA-job 4-NO2PhN2+~TfO-_B3LYPG-6-31G_dp-CH-Scan-d09-49-n800
 OpenBabel11261919523D

 23 22  0  0  0  0  0  0  0  0999 V2000
   -1.6098   -0.6757   -0.1286 C   0  0  0  0  0  0  0  0  0  0  0  0
   -2.9133   -1.1677    0.0445 N   0  0  0  0  0  0  0  0  0  0  0  0
   -3.9700   -1.5039    0.1704 N   0  0  0  0  0  0  0  0  0  0  0  0
   -1.5819    0.6641   -0.5260 C   0  0  0  0  0  0  0  0  0  0  0  0
   -0.2294    1.0923   -0.6758 C   0  0  0  0  0  0  0  0  0  0  0  0
    0.8436    0.2447   -0.4438 C   0  0  0  0  0  0  0  0  0  0  0  0
    2.2277    0.7594   -0.6213 N   0  0  0  0  0  0  0  0  0  0  0  0
    2.3603    1.9276   -0.9730 O   0  0  0  0  0  0  0  0  0  0  0  0
    3.1540   -0.0210   -0.4039 O   0  0  0  0  0  0  0  0  0  0  0  0
    0.7120   -1.1021   -0.0419 C   0  0  0  0  0  0  0  0  0  0  0  0
   -0.5598   -1.5979    0.1275 C   0  0  0  0  0  0  0  0  0  0  0  0
   -4.3396    2.5207   -1.1534 H   0  0  0  0  0  0  0  0  0  0  0  0
   -0.0054    2.1101   -0.9815 H   0  0  0  0  0  0  0  0  0  0  0  0
    1.5960   -1.7030    0.1223 H   0  0  0  0  0  0  0  0  0  0  0  0
   -0.7407   -2.6230    0.4371 H   0  0  0  0  0  0  0  0  0  0  0  0
   -6.1492    1.5649   -1.8016 S   0  0  0  0  0  0  0  0  0  0  0  0
   -5.9697    1.6737   -3.6551 C   0  0  0  0  0  0  0  0  0  0  0  0
   -5.4973    0.3304   -1.3817 O   0  0  0  0  0  0  0  0  0  0  0  0
   -7.5227    1.8854   -1.4753 O   0  0  0  0  0  0  0  0  0  0  0  0
   -5.2363    2.8325   -1.3749 O   0  0  0  0  0  0  0  0  0  0  0  0
   -4.6785    1.5848   -3.9759 F   0  0  0  0  0  0  0  0  0  0  0  0
   -6.6387    0.6597   -4.2007 F   0  0  0  0  0  0  0  0  0  0  0  0
   -6.4637    2.8277   -4.0901 F   0  0  0  0  0  0  0  0  0  0  0  0
  1  2  1  0  0  0  0
  1 11  2  0  0  0  0
  2  3  1  0  0  0  0
  4  1  1  0  0  0  0
  5  4  2  0  0  0  0
  5  6  1  0  0  0  0
  6 10  2  0  0  0  0
  7  6  1  0  0  0  0
  7  9  2  0  0  0  0
  8  7  2  0  0  0  0
 10 14  1  0  0  0  0
 10 11  1  0  0  0  0
 11 15  1  0  0  0  0
 13  5  1  0  0  0  0
 16 19  2  0  0  0  0
 16 18  2  0  0  0  0
 16 20  1  0  0  0  0
 17 16  1  0  0  0  0
 20 12  1  0  0  0  0
 21 17  1  0  0  0  0
 22 17  1  0  0  0  0
 23 17  1  0  0  0  0
M  RAD  3   2   2   3   3   4   2
M  END
