Coordinates from ORCA-job 4-NO2PhN2+~TfO-_B3LYPG-6-31G_dp-CH-Scan-d09-49-n800
 OpenBabel11261919523D

 23 22  0  0  0  0  0  0  0  0999 V2000
   -1.9128   -0.6579   -0.1073 C   0  0  0  0  0  0  0  0  0  0  0  0
   -3.1601   -1.2268    0.1667 N   0  0  0  0  0  0  0  0  0  0  0  0
   -4.1736   -1.6423    0.3713 N   0  0  0  0  0  0  0  0  0  0  0  0
   -1.9658    0.6568   -0.5897 C   0  0  0  0  0  0  0  0  0  0  0  0
   -0.6590    1.1559   -0.8357 C   0  0  0  0  0  0  0  0  0  0  0  0
    0.4738    0.3886   -0.6051 C   0  0  0  0  0  0  0  0  0  0  0  0
    1.8130    0.9733   -0.8834 N   0  0  0  0  0  0  0  0  0  0  0  0
    1.8523    2.1229   -1.3088 O   0  0  0  0  0  0  0  0  0  0  0  0
    2.7931    0.2631   -0.6661 O   0  0  0  0  0  0  0  0  0  0  0  0
    0.4409   -0.9317   -0.1160 C   0  0  0  0  0  0  0  0  0  0  0  0
   -0.7903   -1.4883    0.1475 C   0  0  0  0  0  0  0  0  0  0  0  0
   -3.7096    1.7854   -0.9401 H   0  0  0  0  0  0  0  0  0  0  0  0
   -0.5186    2.1628   -1.2148 H   0  0  0  0  0  0  0  0  0  0  0  0
    1.3651   -1.4714    0.0405 H   0  0  0  0  0  0  0  0  0  0  0  0
   -0.8916   -2.5005    0.5259 H   0  0  0  0  0  0  0  0  0  0  0  0
   -5.7075    1.4330   -1.6955 S   0  0  0  0  0  0  0  0  0  0  0  0
   -5.4253    1.6763   -3.5199 C   0  0  0  0  0  0  0  0  0  0  0  0
   -5.4440    0.0191   -1.4279 O   0  0  0  0  0  0  0  0  0  0  0  0
   -6.9794    2.0502   -1.3727 O   0  0  0  0  0  0  0  0  0  0  0  0
   -4.5374    2.3361   -1.1053 O   0  0  0  0  0  0  0  0  0  0  0  0
   -4.1898    1.2769   -3.8356 F   0  0  0  0  0  0  0  0  0  0  0  0
   -6.3130    0.9429   -4.1923 F   0  0  0  0  0  0  0  0  0  0  0  0
   -5.5723    2.9595   -3.8386 F   0  0  0  0  0  0  0  0  0  0  0  0
  1 11  1  0  0  0  0
  1  2  1  0  0  0  0
  2  3  1  0  0  0  0
  4  1  2  0  0  0  0
  5  6  2  0  0  0  0
  5  4  1  0  0  0  0
  6 10  1  0  0  0  0
  7  9  2  0  0  0  0
  7  6  1  0  0  0  0
  8  7  2  0  0  0  0
 10 14  1  0  0  0  0
 10 11  2  0  0  0  0
 11 15  1  0  0  0  0
 13  5  1  0  0  0  0
 16 18  2  0  0  0  0
 16 19  2  0  0  0  0
 16 20  1  0  0  0  0
 17 16  1  0  0  0  0
 20 12  1  0  0  0  0
 21 17  1  0  0  0  0
 22 17  1  0  0  0  0
 23 17  1  0  0  0  0
M  RAD  3   2   2   3   3   4   2
M  END
