Coordinates from ORCA-job 4-NO2PhN2+~TfO-_B3LYPG-6-31G_dp-CH-Scan-d09-49-n800
 OpenBabel11261919523D

 23 22  0  0  0  0  0  0  0  0999 V2000
   -1.8590   -0.6602   -0.1086 C   0  0  0  0  0  0  0  0  0  0  0  0
   -3.1162   -1.2157    0.1520 N   0  0  0  0  0  0  0  0  0  0  0  0
   -4.1366   -1.6197    0.3474 N   0  0  0  0  0  0  0  0  0  0  0  0
   -1.8994    0.6588   -0.5786 C   0  0  0  0  0  0  0  0  0  0  0  0
   -0.5839    1.1454   -0.8114 C   0  0  0  0  0  0  0  0  0  0  0  0
    0.5393    0.3643   -0.5807 C   0  0  0  0  0  0  0  0  0  0  0  0
    1.8866    0.9368   -0.8446 N   0  0  0  0  0  0  0  0  0  0  0  0
    1.9421    2.0911   -1.2556 O   0  0  0  0  0  0  0  0  0  0  0  0
    2.8582    0.2153   -0.6248 O   0  0  0  0  0  0  0  0  0  0  0  0
    0.4900   -0.9610   -0.1041 C   0  0  0  0  0  0  0  0  0  0  0  0
   -0.7483   -1.5072    0.1463 C   0  0  0  0  0  0  0  0  0  0  0  0
   -3.8281    1.9102   -0.9674 H   0  0  0  0  0  0  0  0  0  0  0  0
   -0.4286    2.1541   -1.1802 H   0  0  0  0  0  0  0  0  0  0  0  0
    1.4078   -1.5112    0.0532 H   0  0  0  0  0  0  0  0  0  0  0  0
   -0.8627   -2.5217    0.5149 H   0  0  0  0  0  0  0  0  0  0  0  0
   -5.7963    1.4514   -1.7171 S   0  0  0  0  0  0  0  0  0  0  0  0
   -5.5131    1.6774   -3.5446 C   0  0  0  0  0  0  0  0  0  0  0  0
   -5.4711    0.0581   -1.4190 O   0  0  0  0  0  0  0  0  0  0  0  0
   -7.0891    2.0280   -1.4066 O   0  0  0  0  0  0  0  0  0  0  0  0
   -4.6637    2.4208   -1.1371 O   0  0  0  0  0  0  0  0  0  0  0  0
   -4.2650    1.3121   -3.8478 F   0  0  0  0  0  0  0  0  0  0  0  0
   -6.3755    0.9063   -4.2069 F   0  0  0  0  0  0  0  0  0  0  0  0
   -5.6996    2.9503   -3.8811 F   0  0  0  0  0  0  0  0  0  0  0  0
  1 11  1  0  0  0  0
  1  2  1  0  0  0  0
  2  3  1  0  0  0  0
  4  1  2  0  0  0  0
  5  6  2  0  0  0  0
  5  4  1  0  0  0  0
  6 10  1  0  0  0  0
  7  9  2  0  0  0  0
  7  6  1  0  0  0  0
  8  7  2  0  0  0  0
 10 14  1  0  0  0  0
 10 11  2  0  0  0  0
 11 15  1  0  0  0  0
 13  5  1  0  0  0  0
 16 18  2  0  0  0  0
 16 19  2  0  0  0  0
 16 20  1  0  0  0  0
 17 16  1  0  0  0  0
 20 12  1  0  0  0  0
 21 17  1  0  0  0  0
 22 17  1  0  0  0  0
 23 17  1  0  0  0  0
M  RAD  3   2   2   3   3   4   2
M  END
