Coordinates from ORCA-job 4-NO2PhN2+~TfO-_B3LYPG-6-31G_dp-CH-Scan-d09-49-n800
 OpenBabel11261919533D

 23 22  0  0  0  0  0  0  0  0999 V2000
   -1.5398   -0.6660   -0.1169 C   0  0  0  0  0  0  0  0  0  0  0  0
   -2.8581   -1.1257    0.0475 N   0  0  0  0  0  0  0  0  0  0  0  0
   -3.9261   -1.4281    0.1661 N   0  0  0  0  0  0  0  0  0  0  0  0
   -1.4845    0.6801   -0.4847 C   0  0  0  0  0  0  0  0  0  0  0  0
   -0.1212    1.0789   -0.6287 C   0  0  0  0  0  0  0  0  0  0  0  0
    0.9316    0.2008   -0.4193 C   0  0  0  0  0  0  0  0  0  0  0  0
    2.3273    0.6853   -0.5896 N   0  0  0  0  0  0  0  0  0  0  0  0
    2.4882    1.8575   -0.9157 O   0  0  0  0  0  0  0  0  0  0  0  0
    3.2353   -0.1218   -0.3923 O   0  0  0  0  0  0  0  0  0  0  0  0
    0.7691   -1.1515   -0.0463 C   0  0  0  0  0  0  0  0  0  0  0  0
   -0.5137   -1.6204    0.1165 C   0  0  0  0  0  0  0  0  0  0  0  0
   -4.5955    2.7593   -1.1674 H   0  0  0  0  0  0  0  0  0  0  0  0
    0.1268    2.0978   -0.9121 H   0  0  0  0  0  0  0  0  0  0  0  0
    1.6391   -1.7764    0.1019 H   0  0  0  0  0  0  0  0  0  0  0  0
   -0.7188   -2.6473    0.4048 H   0  0  0  0  0  0  0  0  0  0  0  0
   -6.2696    1.5891   -1.8295 S   0  0  0  0  0  0  0  0  0  0  0  0
   -6.0445    1.6652   -3.6803 C   0  0  0  0  0  0  0  0  0  0  0  0
   -5.4967    0.4501   -1.3507 O   0  0  0  0  0  0  0  0  0  0  0  0
   -7.6785    1.7672   -1.5504 O   0  0  0  0  0  0  0  0  0  0  0  0
   -5.5135    2.9646   -1.4191 O   0  0  0  0  0  0  0  0  0  0  0  0
   -4.7417    1.7227   -3.9592 F   0  0  0  0  0  0  0  0  0  0  0  0
   -6.5700    0.5634   -4.2114 F   0  0  0  0  0  0  0  0  0  0  0  0
   -6.6573    2.7388   -4.1662 F   0  0  0  0  0  0  0  0  0  0  0  0
  1  2  1  0  0  0  0
  1 11  2  0  0  0  0
  2  3  1  0  0  0  0
  4  1  1  0  0  0  0
  5  4  2  0  0  0  0
  5  6  1  0  0  0  0
  6 10  2  0  0  0  0
  7  6  1  0  0  0  0
  7  9  2  0  0  0  0
  8  7  2  0  0  0  0
 10 14  1  0  0  0  0
 10 11  1  0  0  0  0
 11 15  1  0  0  0  0
 13  5  1  0  0  0  0
 16 19  2  0  0  0  0
 16 20  1  0  0  0  0
 16 18  2  0  0  0  0
 17 16  1  0  0  0  0
 20 12  1  0  0  0  0
 21 17  1  0  0  0  0
 22 17  1  0  0  0  0
 23 17  1  0  0  0  0
M  RAD  3   2   2   3   3   4   2
M  END
