Coordinates from ORCA-job 4-NO2PhN2+~TfO-_B3LYPG-6-31G_dp-CH-Scan-d09-49-n800
 OpenBabel11261919533D

 23 22  0  0  0  0  0  0  0  0999 V2000
   -1.5189   -0.6084   -0.0193 C   0  0  0  0  0  0  0  0  0  0  0  0
   -2.8458   -1.0120    0.2163 N   0  0  0  0  0  0  0  0  0  0  0  0
   -3.9197   -1.2613    0.3941 N   0  0  0  0  0  0  0  0  0  0  0  0
   -1.4292    0.7466   -0.3413 C   0  0  0  0  0  0  0  0  0  0  0  0
   -0.0609    1.0930   -0.5592 C   0  0  0  0  0  0  0  0  0  0  0  0
    0.9623    0.1631   -0.4529 C   0  0  0  0  0  0  0  0  0  0  0  0
    2.3647    0.5936   -0.6970 N   0  0  0  0  0  0  0  0  0  0  0  0
    2.5564    1.7667   -1.0027 O   0  0  0  0  0  0  0  0  0  0  0  0
    3.2474   -0.2560   -0.5785 O   0  0  0  0  0  0  0  0  0  0  0  0
    0.7637   -1.1950   -0.1187 C   0  0  0  0  0  0  0  0  0  0  0  0
   -0.5255   -1.6151    0.1122 C   0  0  0  0  0  0  0  0  0  0  0  0
   -4.9718    2.9357   -1.0491 H   0  0  0  0  0  0  0  0  0  0  0  0
    0.2140    2.1113   -0.8198 H   0  0  0  0  0  0  0  0  0  0  0  0
    1.6130   -1.8611   -0.0507 H   0  0  0  0  0  0  0  0  0  0  0  0
   -0.7576   -2.6426    0.3776 H   0  0  0  0  0  0  0  0  0  0  0  0
   -6.3504    1.5158   -1.8868 S   0  0  0  0  0  0  0  0  0  0  0  0
   -5.9303    1.6912   -3.6962 C   0  0  0  0  0  0  0  0  0  0  0  0
   -5.4569    0.5065   -1.3343 O   0  0  0  0  0  0  0  0  0  0  0  0
   -7.7916    1.4519   -1.7731 O   0  0  0  0  0  0  0  0  0  0  0  0
   -5.8901    2.9845   -1.3692 O   0  0  0  0  0  0  0  0  0  0  0  0
   -4.6347    1.9847   -3.8158 F   0  0  0  0  0  0  0  0  0  0  0  0
   -6.1870    0.5334   -4.3006 F   0  0  0  0  0  0  0  0  0  0  0  0
   -6.6634    2.6572   -4.2377 F   0  0  0  0  0  0  0  0  0  0  0  0
  1 11  1  0  0  0  0
  1  2  1  0  0  0  0
  2  3  1  0  0  0  0
  4  1  2  0  0  0  0
  5  6  2  0  0  0  0
  5  4  1  0  0  0  0
  6 10  1  0  0  0  0
  7  9  2  0  0  0  0
  7  6  1  0  0  0  0
  8  7  2  0  0  0  0
 10 14  1  0  0  0  0
 10 11  2  0  0  0  0
 11 15  1  0  0  0  0
 13  5  1  0  0  0  0
 16 19  2  0  0  0  0
 16 20  1  0  0  0  0
 16 18  2  0  0  0  0
 17 16  1  0  0  0  0
 20 12  1  0  0  0  0
 21 17  1  0  0  0  0
 22 17  1  0  0  0  0
 23 17  1  0  0  0  0
M  RAD  3   2   2   3   3   4   2
M  END
