Coordinates from ORCA-job 4-NO2PhN2+~TfO-_B3LYPG-6-31G_dp-CH-Scan-d09-49-n800
 OpenBabel11261919523D

 23 22  0  0  0  0  0  0  0  0999 V2000
   -1.9893   -0.5835   -0.1365 C   0  0  0  0  0  0  0  0  0  0  0  0
   -3.2678   -1.0969    0.0768 N   0  0  0  0  0  0  0  0  0  0  0  0
   -4.3436   -1.3874    0.1294 N   0  0  0  0  0  0  0  0  0  0  0  0
   -1.9156    0.6891   -0.7169 C   0  0  0  0  0  0  0  0  0  0  0  0
   -0.6184    1.1731   -0.9204 C   0  0  0  0  0  0  0  0  0  0  0  0
    0.4762    0.3996   -0.5487 C   0  0  0  0  0  0  0  0  0  0  0  0
    1.8427    0.9401   -0.7749 N   0  0  0  0  0  0  0  0  0  0  0  0
    1.9280    2.0532   -1.2794 O   0  0  0  0  0  0  0  0  0  0  0  0
    2.7857    0.2293   -0.4385 O   0  0  0  0  0  0  0  0  0  0  0  0
    0.3675   -0.8696    0.0332 C   0  0  0  0  0  0  0  0  0  0  0  0
   -0.8975   -1.3839    0.2534 C   0  0  0  0  0  0  0  0  0  0  0  0
   -2.9986    1.3712   -1.0421 H   0  0  0  0  0  0  0  0  0  0  0  0
   -0.4552    2.1473   -1.3656 H   0  0  0  0  0  0  0  0  0  0  0  0
    1.2625   -1.4170    0.2972 H   0  0  0  0  0  0  0  0  0  0  0  0
   -1.0452   -2.3615    0.6983 H   0  0  0  0  0  0  0  0  0  0  0  0
   -5.4100    1.3029   -1.7330 S   0  0  0  0  0  0  0  0  0  0  0  0
   -5.7065    1.7730   -3.5056 C   0  0  0  0  0  0  0  0  0  0  0  0
   -5.0513   -0.1435   -1.8154 O   0  0  0  0  0  0  0  0  0  0  0  0
   -6.6359    1.6430   -1.0125 O   0  0  0  0  0  0  0  0  0  0  0  0
   -4.2062    2.1423   -1.3646 O   0  0  0  0  0  0  0  0  0  0  0  0
   -4.6144    1.5154   -4.2406 F   0  0  0  0  0  0  0  0  0  0  0  0
   -6.7315    1.0708   -3.9993 F   0  0  0  0  0  0  0  0  0  0  0  0
   -5.9877    3.0764   -3.5972 F   0  0  0  0  0  0  0  0  0  0  0  0
  1  2  1  0  0  0  0
  1 11  2  0  0  0  0
  2  3  1  0  0  0  0
  4  1  1  0  0  0  0
  5  4  2  0  0  0  0
  5  6  1  0  0  0  0
  6 10  2  0  0  0  0
  7  6  1  0  0  0  0
  7  9  2  0  0  0  0
  8  7  2  0  0  0  0
 10 11  1  0  0  0  0
 10 14  1  0  0  0  0
 11 15  1  0  0  0  0
 12  4  1  0  0  0  0
 13  5  1  0  0  0  0
 16 20  2  0  0  0  0
 16 19  1  0  0  0  0
 17 16  1  0  0  0  0
 18 16  2  0  0  0  0
 21 17  1  0  0  0  0
 22 17  1  0  0  0  0
 23 17  1  0  0  0  0
M  RAD  3   2   2   3   3  19   2
M  END
