Coordinates from ORCA-job 4-NO2PhN2+~TfO-_B3LYPG-6-31G_dp-CH-Scan-d09-49-n800
 OpenBabel11261919533D

 23 22  0  0  0  0  0  0  0  0999 V2000
   -2.0070   -0.2141    0.5329 C   0  0  0  0  0  0  0  0  0  0  0  0
   -3.1129   -0.5081    1.3521 N   0  0  0  0  0  0  0  0  0  0  0  0
   -3.9671   -0.6658    2.0531 N   0  0  0  0  0  0  0  0  0  0  0  0
   -1.3707    0.9575    0.9387 C   0  0  0  0  0  0  0  0  0  0  0  0
   -0.2588    1.2170    0.0811 C   0  0  0  0  0  0  0  0  0  0  0  0
    0.0669    0.3776   -0.9741 C   0  0  0  0  0  0  0  0  0  0  0  0
    1.2346    0.7102   -1.8326 N   0  0  0  0  0  0  0  0  0  0  0  0
    1.8764    1.7196   -1.5571 O   0  0  0  0  0  0  0  0  0  0  0  0
    1.4850   -0.0472   -2.7703 O   0  0  0  0  0  0  0  0  0  0  0  0
   -0.6502   -0.7949   -1.3026 C   0  0  0  0  0  0  0  0  0  0  0  0
   -1.7382   -1.1200   -0.5258 C   0  0  0  0  0  0  0  0  0  0  0  0
   -5.4488    2.7806   -0.7900 H   0  0  0  0  0  0  0  0  0  0  0  0
    0.3662    2.0919    0.2372 H   0  0  0  0  0  0  0  0  0  0  0  0
   -0.3354   -1.4001   -2.1421 H   0  0  0  0  0  0  0  0  0  0  0  0
   -2.3426   -2.0018   -0.7165 H   0  0  0  0  0  0  0  0  0  0  0  0
   -5.4291    0.9801   -1.9583 S   0  0  0  0  0  0  0  0  0  0  0  0
   -3.8509    1.1849   -2.9348 C   0  0  0  0  0  0  0  0  0  0  0  0
   -5.0732    0.3403   -0.6963 O   0  0  0  0  0  0  0  0  0  0  0  0
   -6.4407    0.4621   -2.8529 O   0  0  0  0  0  0  0  0  0  0  0  0
   -5.7710    2.5430   -1.6772 O   0  0  0  0  0  0  0  0  0  0  0  0
   -2.9613    1.8394   -2.1888 F   0  0  0  0  0  0  0  0  0  0  0  0
   -3.3888   -0.0292   -3.2285 F   0  0  0  0  0  0  0  0  0  0  0  0
   -4.0945    1.8608   -4.0498 F   0  0  0  0  0  0  0  0  0  0  0  0
  1  4  1  0  0  0  0
  1  2  1  0  0  0  0
  2  3  1  0  0  0  0
  5 13  1  0  0  0  0
  5  4  2  0  0  0  0
  6  5  1  0  0  0  0
  7  8  2  0  0  0  0
  7  6  1  0  0  0  0
  9  7  2  0  0  0  0
 10  6  2  0  0  0  0
 10 11  1  0  0  0  0
 11  1  2  0  0  0  0
 14 10  1  0  0  0  0
 15 11  1  0  0  0  0
 16 20  1  0  0  0  0
 16 18  2  0  0  0  0
 17 21  1  0  0  0  0
 17 16  1  0  0  0  0
 19 16  2  0  0  0  0
 20 12  1  0  0  0  0
 22 17  1  0  0  0  0
 23 17  1  0  0  0  0
M  RAD  3   2   2   3   3   4   2
M  END
