Coordinates from ORCA-job 4-NO2PhN2+~TfO-_B3LYPG-6-31G_dp-CH-Scan-d09-49-n800
 OpenBabel11261919523D

 23 22  0  0  0  0  0  0  0  0999 V2000
   -1.6145   -0.6755   -0.1285 C   0  0  0  0  0  0  0  0  0  0  0  0
   -2.9172   -1.1692    0.0460 N   0  0  0  0  0  0  0  0  0  0  0  0
   -3.9730   -1.5072    0.1744 N   0  0  0  0  0  0  0  0  0  0  0  0
   -1.5880    0.6637   -0.5277 C   0  0  0  0  0  0  0  0  0  0  0  0
   -0.2363    1.0936   -0.6788 C   0  0  0  0  0  0  0  0  0  0  0  0
    0.8378    0.2476   -0.4462 C   0  0  0  0  0  0  0  0  0  0  0  0
    2.2212    0.7637   -0.6250 N   0  0  0  0  0  0  0  0  0  0  0  0
    2.3522    1.9315   -0.9785 O   0  0  0  0  0  0  0  0  0  0  0  0
    3.1485   -0.0153   -0.4069 O   0  0  0  0  0  0  0  0  0  0  0  0
    0.7080   -1.0988   -0.0424 C   0  0  0  0  0  0  0  0  0  0  0  0
   -0.5632   -1.5959    0.1283 C   0  0  0  0  0  0  0  0  0  0  0  0
   -4.3267    2.5047   -1.1498 H   0  0  0  0  0  0  0  0  0  0  0  0
   -0.0139    2.1113   -0.9860 H   0  0  0  0  0  0  0  0  0  0  0  0
    1.5927   -1.6985    0.1222 H   0  0  0  0  0  0  0  0  0  0  0  0
   -0.7426   -2.6209    0.4393 H   0  0  0  0  0  0  0  0  0  0  0  0
   -6.1423    1.5621   -1.8003 S   0  0  0  0  0  0  0  0  0  0  0  0
   -5.9623    1.6745   -3.6535 C   0  0  0  0  0  0  0  0  0  0  0  0
   -5.4986    0.3218   -1.3839 O   0  0  0  0  0  0  0  0  0  0  0  0
   -7.5137    1.8902   -1.4730 O   0  0  0  0  0  0  0  0  0  0  0  0
   -5.2216    2.8226   -1.3704 O   0  0  0  0  0  0  0  0  0  0  0  0
   -4.6721    1.5747   -3.9752 F   0  0  0  0  0  0  0  0  0  0  0  0
   -6.6409    0.6685   -4.2020 F   0  0  0  0  0  0  0  0  0  0  0  0
   -6.4458    2.8344   -4.0848 F   0  0  0  0  0  0  0  0  0  0  0  0
  1  2  1  0  0  0  0
  1 11  2  0  0  0  0
  2  3  1  0  0  0  0
  4  1  1  0  0  0  0
  5  4  2  0  0  0  0
  5  6  1  0  0  0  0
  6 10  2  0  0  0  0
  7  6  1  0  0  0  0
  7  9  2  0  0  0  0
  8  7  2  0  0  0  0
 10 14  1  0  0  0  0
 10 11  1  0  0  0  0
 11 15  1  0  0  0  0
 13  5  1  0  0  0  0
 16 19  2  0  0  0  0
 16 18  2  0  0  0  0
 16 20  1  0  0  0  0
 17 16  1  0  0  0  0
 20 12  1  0  0  0  0
 21 17  1  0  0  0  0
 22 17  1  0  0  0  0
 23 17  1  0  0  0  0
M  RAD  3   2   2   3   3   4   2
M  END
