Coordinates from ORCA-job 4-NO2PhN2+~TfO-_B3LYPG-6-31G_dp-CH-Scan-d09-49-n800
 OpenBabel11261919523D

 23 22  0  0  0  0  0  0  0  0999 V2000
   -1.8232   -0.6587   -0.1025 C   0  0  0  0  0  0  0  0  0  0  0  0
   -3.0874   -1.2026    0.1535 N   0  0  0  0  0  0  0  0  0  0  0  0
   -4.1135   -1.5942    0.3458 N   0  0  0  0  0  0  0  0  0  0  0  0
   -1.8542    0.6657   -0.5561 C   0  0  0  0  0  0  0  0  0  0  0  0
   -0.5326    1.1404   -0.7860 C   0  0  0  0  0  0  0  0  0  0  0  0
    0.5828    0.3450   -0.5676 C   0  0  0  0  0  0  0  0  0  0  0  0
    1.9356    0.9060   -0.8283 N   0  0  0  0  0  0  0  0  0  0  0  0
    2.0029    2.0630   -1.2300 O   0  0  0  0  0  0  0  0  0  0  0  0
    2.9000    0.1705   -0.6235 O   0  0  0  0  0  0  0  0  0  0  0  0
    0.5212   -0.9859   -0.1066 C   0  0  0  0  0  0  0  0  0  0  0  0
   -0.7219   -1.5220    0.1403 C   0  0  0  0  0  0  0  0  0  0  0  0
   -3.9335    2.0228   -0.9687 H   0  0  0  0  0  0  0  0  0  0  0  0
   -0.3664    2.1518   -1.1430 H   0  0  0  0  0  0  0  0  0  0  0  0
    1.4338   -1.5470    0.0417 H   0  0  0  0  0  0  0  0  0  0  0  0
   -0.8464   -2.5396    0.4974 H   0  0  0  0  0  0  0  0  0  0  0  0
   -5.8655    1.4635   -1.7336 S   0  0  0  0  0  0  0  0  0  0  0  0
   -5.5532    1.6748   -3.5588 C   0  0  0  0  0  0  0  0  0  0  0  0
   -5.4862    0.0922   -1.4045 O   0  0  0  0  0  0  0  0  0  0  0  0
   -7.1834    1.9957   -1.4537 O   0  0  0  0  0  0  0  0  0  0  0  0
   -4.7825    2.4931   -1.1471 O   0  0  0  0  0  0  0  0  0  0  0  0
   -4.2798    1.3758   -3.8254 F   0  0  0  0  0  0  0  0  0  0  0  0
   -6.3550    0.8443   -4.2246 F   0  0  0  0  0  0  0  0  0  0  0  0
   -5.8038    2.9289   -3.9216 F   0  0  0  0  0  0  0  0  0  0  0  0
  1 11  1  0  0  0  0
  1  2  1  0  0  0  0
  2  3  1  0  0  0  0
  4  1  2  0  0  0  0
  5  6  2  0  0  0  0
  5  4  1  0  0  0  0
  6 10  1  0  0  0  0
  7  9  2  0  0  0  0
  7  6  1  0  0  0  0
  8  7  2  0  0  0  0
 10 14  1  0  0  0  0
 10 11  2  0  0  0  0
 11 15  1  0  0  0  0
 13  5  1  0  0  0  0
 16 19  2  0  0  0  0
 16 18  2  0  0  0  0
 16 20  1  0  0  0  0
 17 16  1  0  0  0  0
 20 12  1  0  0  0  0
 21 17  1  0  0  0  0
 22 17  1  0  0  0  0
 23 17  1  0  0  0  0
M  RAD  3   2   2   3   3   4   2
M  END
