Coordinates from ORCA-job 4-NO2PhN2+~TfO-_B3LYPG-6-31G_dp-CH-Scan-d09-49-n800
 OpenBabel11261919533D

 23 22  0  0  0  0  0  0  0  0999 V2000
   -1.4841   -0.5953   -0.0138 C   0  0  0  0  0  0  0  0  0  0  0  0
   -2.8182   -0.9812    0.2135 N   0  0  0  0  0  0  0  0  0  0  0  0
   -3.8963   -1.2130    0.3892 N   0  0  0  0  0  0  0  0  0  0  0  0
   -1.3742    0.7625   -0.3154 C   0  0  0  0  0  0  0  0  0  0  0  0
   -0.0008    1.0925   -0.5269 C   0  0  0  0  0  0  0  0  0  0  0  0
    1.0083    0.1459   -0.4337 C   0  0  0  0  0  0  0  0  0  0  0  0
    2.4171    0.5592   -0.6703 N   0  0  0  0  0  0  0  0  0  0  0  0
    2.6265    1.7334   -0.9595 O   0  0  0  0  0  0  0  0  0  0  0  0
    3.2875   -0.3042   -0.5600 O   0  0  0  0  0  0  0  0  0  0  0  0
    0.7893   -1.2139   -0.1197 C   0  0  0  0  0  0  0  0  0  0  0  0
   -0.5061   -1.6185    0.1038 C   0  0  0  0  0  0  0  0  0  0  0  0
   -5.0675    2.9897   -1.0757 H   0  0  0  0  0  0  0  0  0  0  0  0
    0.2891    2.1105   -0.7716 H   0  0  0  0  0  0  0  0  0  0  0  0
    1.6288   -1.8933   -0.0611 H   0  0  0  0  0  0  0  0  0  0  0  0
   -0.7536   -2.6464    0.3539 H   0  0  0  0  0  0  0  0  0  0  0  0
   -6.3957    1.5168   -1.9020 S   0  0  0  0  0  0  0  0  0  0  0  0
   -5.9938    1.6956   -3.7152 C   0  0  0  0  0  0  0  0  0  0  0  0
   -5.4619    0.5454   -1.3479 O   0  0  0  0  0  0  0  0  0  0  0  0
   -7.8329    1.4010   -1.7789 O   0  0  0  0  0  0  0  0  0  0  0  0
   -5.9857    3.0056   -1.3981 O   0  0  0  0  0  0  0  0  0  0  0  0
   -4.7083    2.0263   -3.8456 F   0  0  0  0  0  0  0  0  0  0  0  0
   -6.2209    0.5278   -4.3123 F   0  0  0  0  0  0  0  0  0  0  0  0
   -6.7587    2.6372   -4.2557 F   0  0  0  0  0  0  0  0  0  0  0  0
  1 11  1  0  0  0  0
  1  2  1  0  0  0  0
  2  3  1  0  0  0  0
  4  1  2  0  0  0  0
  5  6  2  0  0  0  0
  5  4  1  0  0  0  0
  6 10  1  0  0  0  0
  7  9  2  0  0  0  0
  7  6  1  0  0  0  0
  8  7  2  0  0  0  0
 10 14  1  0  0  0  0
 10 11  2  0  0  0  0
 11 15  1  0  0  0  0
 13  5  1  0  0  0  0
 16 19  2  0  0  0  0
 16 20  1  0  0  0  0
 16 18  2  0  0  0  0
 17 16  1  0  0  0  0
 20 12  1  0  0  0  0
 21 17  1  0  0  0  0
 22 17  1  0  0  0  0
 23 17  1  0  0  0  0
M  RAD  3   2   2   3   3   4   2
M  END
