Coordinates from ORCA-job 4-NO2PhN2+~TfO-_B3LYPG-6-31G_dp-CH-Scan-d09-49-n800
 OpenBabel11261919533D

 23 22  0  0  0  0  0  0  0  0999 V2000
   -1.5821   -0.6731   -0.1260 C   0  0  0  0  0  0  0  0  0  0  0  0
   -2.8917   -1.1530    0.0421 N   0  0  0  0  0  0  0  0  0  0  0  0
   -3.9529   -1.4764    0.1647 N   0  0  0  0  0  0  0  0  0  0  0  0
   -1.5435    0.6696   -0.5102 C   0  0  0  0  0  0  0  0  0  0  0  0
   -0.1865    1.0868   -0.6558 C   0  0  0  0  0  0  0  0  0  0  0  0
    0.8785    0.2270   -0.4327 C   0  0  0  0  0  0  0  0  0  0  0  0
    2.2674    0.7304   -0.6053 N   0  0  0  0  0  0  0  0  0  0  0  0
    2.4113    1.9008   -0.9450 O   0  0  0  0  0  0  0  0  0  0  0  0
    3.1865   -0.0610   -0.3966 O   0  0  0  0  0  0  0  0  0  0  0  0
    0.7347   -1.1226   -0.0439 C   0  0  0  0  0  0  0  0  0  0  0  0
   -0.5416   -1.6083    0.1211 C   0  0  0  0  0  0  0  0  0  0  0  0
   -4.4333    2.6210   -1.1673 H   0  0  0  0  0  0  0  0  0  0  0  0
    0.0470    2.1055   -0.9513 H   0  0  0  0  0  0  0  0  0  0  0  0
    1.6133   -1.7331    0.1141 H   0  0  0  0  0  0  0  0  0  0  0  0
   -0.7320   -2.6347    0.4209 H   0  0  0  0  0  0  0  0  0  0  0  0
   -6.1959    1.5782   -1.8110 S   0  0  0  0  0  0  0  0  0  0  0  0
   -6.0030    1.6683   -3.6646 C   0  0  0  0  0  0  0  0  0  0  0  0
   -5.4943    0.3798   -1.3673 O   0  0  0  0  0  0  0  0  0  0  0  0
   -7.5841    1.8452   -1.5000 O   0  0  0  0  0  0  0  0  0  0  0  0
   -5.3412    2.8910   -1.3952 O   0  0  0  0  0  0  0  0  0  0  0  0
   -4.7051    1.6502   -3.9699 F   0  0  0  0  0  0  0  0  0  0  0  0
   -6.6051    0.6081   -4.2000 F   0  0  0  0  0  0  0  0  0  0  0  0
   -6.5587    2.7841   -4.1236 F   0  0  0  0  0  0  0  0  0  0  0  0
  1  2  1  0  0  0  0
  1 11  2  0  0  0  0
  2  3  1  0  0  0  0
  4  1  1  0  0  0  0
  5  4  2  0  0  0  0
  5  6  1  0  0  0  0
  6 10  2  0  0  0  0
  7  6  1  0  0  0  0
  7  9  2  0  0  0  0
  8  7  2  0  0  0  0
 10 14  1  0  0  0  0
 10 11  1  0  0  0  0
 11 15  1  0  0  0  0
 13  5  1  0  0  0  0
 16 19  2  0  0  0  0
 16 20  1  0  0  0  0
 16 18  2  0  0  0  0
 17 16  1  0  0  0  0
 20 12  1  0  0  0  0
 21 17  1  0  0  0  0
 22 17  1  0  0  0  0
 23 17  1  0  0  0  0
M  RAD  3   2   2   3   3   4   2
M  END
