Coordinates from ORCA-job 4-NO2PhN2+~TfO-_B3LYPG-6-31G_dp-CH-Scan-d09-49-n800
 OpenBabel11261919523D

 23 22  0  0  0  0  0  0  0  0999 V2000
   -1.9585   -0.6490   -0.0957 C   0  0  0  0  0  0  0  0  0  0  0  0
   -3.1982   -1.2231    0.1973 N   0  0  0  0  0  0  0  0  0  0  0  0
   -4.2063   -1.6437    0.4157 N   0  0  0  0  0  0  0  0  0  0  0  0
   -2.0189    0.6619   -0.5888 C   0  0  0  0  0  0  0  0  0  0  0  0
   -0.7196    1.1661   -0.8542 C   0  0  0  0  0  0  0  0  0  0  0  0
    0.4195    0.4060   -0.6297 C   0  0  0  0  0  0  0  0  0  0  0  0
    1.7524    0.9951   -0.9282 N   0  0  0  0  0  0  0  0  0  0  0  0
    1.7801    2.1402   -1.3656 O   0  0  0  0  0  0  0  0  0  0  0  0
    2.7380    0.2915   -0.7153 O   0  0  0  0  0  0  0  0  0  0  0  0
    0.3977   -0.9095   -0.1291 C   0  0  0  0  0  0  0  0  0  0  0  0
   -0.8283   -1.4696    0.1530 C   0  0  0  0  0  0  0  0  0  0  0  0
   -3.6235    1.6895   -0.9039 H   0  0  0  0  0  0  0  0  0  0  0  0
   -0.5903    2.1704   -1.2435 H   0  0  0  0  0  0  0  0  0  0  0  0
    1.3258   -1.4441    0.0218 H   0  0  0  0  0  0  0  0  0  0  0  0
   -0.9203   -2.4789    0.5407 H   0  0  0  0  0  0  0  0  0  0  0  0
   -5.6368    1.4034   -1.6847 S   0  0  0  0  0  0  0  0  0  0  0  0
   -5.3427    1.6835   -3.5011 C   0  0  0  0  0  0  0  0  0  0  0  0
   -5.4023   -0.0242   -1.4555 O   0  0  0  0  0  0  0  0  0  0  0  0
   -6.9058    2.0261   -1.3574 O   0  0  0  0  0  0  0  0  0  0  0  0
   -4.4589    2.2634   -1.0679 O   0  0  0  0  0  0  0  0  0  0  0  0
   -4.1097    1.2762   -3.8204 F   0  0  0  0  0  0  0  0  0  0  0  0
   -6.2346    0.9769   -4.1970 F   0  0  0  0  0  0  0  0  0  0  0  0
   -5.4712    2.9755   -3.7934 F   0  0  0  0  0  0  0  0  0  0  0  0
  1 11  1  0  0  0  0
  1  2  1  0  0  0  0
  2  3  1  0  0  0  0
  4  1  2  0  0  0  0
  5  6  2  0  0  0  0
  5  4  1  0  0  0  0
  6 10  1  0  0  0  0
  7  9  2  0  0  0  0
  7  6  1  0  0  0  0
  8  7  2  0  0  0  0
 10 14  1  0  0  0  0
 10 11  2  0  0  0  0
 11 15  1  0  0  0  0
 13  5  1  0  0  0  0
 16 18  2  0  0  0  0
 16 19  2  0  0  0  0
 16 20  1  0  0  0  0
 17 16  1  0  0  0  0
 20 12  1  0  0  0  0
 21 17  1  0  0  0  0
 22 17  1  0  0  0  0
 23 17  1  0  0  0  0
M  RAD  3   2   2   3   3   4   2
M  END
