Coordinates from ORCA-job 4-NO2PhN2+~TfO-_B3LYPG-6-31G_dp-CH-Scan-d09-49-n800
 OpenBabel11261919523D

 23 22  0  0  0  0  0  0  0  0999 V2000
   -1.9559   -0.6496   -0.0966 C   0  0  0  0  0  0  0  0  0  0  0  0
   -3.1960   -1.2233    0.1954 N   0  0  0  0  0  0  0  0  0  0  0  0
   -4.2045   -1.6436    0.4131 N   0  0  0  0  0  0  0  0  0  0  0  0
   -2.0159    0.6615   -0.5892 C   0  0  0  0  0  0  0  0  0  0  0  0
   -0.7161    1.1654   -0.8536 C   0  0  0  0  0  0  0  0  0  0  0  0
    0.4227    0.4048   -0.6287 C   0  0  0  0  0  0  0  0  0  0  0  0
    1.7559    0.9936   -0.9262 N   0  0  0  0  0  0  0  0  0  0  0  0
    1.7844    2.1399   -1.3608 O   0  0  0  0  0  0  0  0  0  0  0  0
    2.7413    0.2906   -0.7107 O   0  0  0  0  0  0  0  0  0  0  0  0
    0.4002   -0.9109   -0.1287 C   0  0  0  0  0  0  0  0  0  0  0  0
   -0.8261   -1.4708    0.1524 C   0  0  0  0  0  0  0  0  0  0  0  0
   -3.6284    1.6950   -0.9062 H   0  0  0  0  0  0  0  0  0  0  0  0
   -0.5862    2.1698   -1.2424 H   0  0  0  0  0  0  0  0  0  0  0  0
    1.3281   -1.4457    0.0225 H   0  0  0  0  0  0  0  0  0  0  0  0
   -0.9187   -2.4802    0.5396 H   0  0  0  0  0  0  0  0  0  0  0  0
   -5.6408    1.4055   -1.6851 S   0  0  0  0  0  0  0  0  0  0  0  0
   -5.3475    1.6827   -3.5021 C   0  0  0  0  0  0  0  0  0  0  0  0
   -5.4053   -0.0214   -1.4532 O   0  0  0  0  0  0  0  0  0  0  0  0
   -6.9097    2.0286   -1.3581 O   0  0  0  0  0  0  0  0  0  0  0  0
   -4.4629    2.2677   -1.0702 O   0  0  0  0  0  0  0  0  0  0  0  0
   -4.1145    1.2754   -3.8212 F   0  0  0  0  0  0  0  0  0  0  0  0
   -6.2394    0.9745   -4.1963 F   0  0  0  0  0  0  0  0  0  0  0  0
   -5.4768    2.9742   -3.7964 F   0  0  0  0  0  0  0  0  0  0  0  0
  1 11  1  0  0  0  0
  1  2  1  0  0  0  0
  2  3  1  0  0  0  0
  4  1  2  0  0  0  0
  5  6  2  0  0  0  0
  5  4  1  0  0  0  0
  6 10  1  0  0  0  0
  7  9  2  0  0  0  0
  7  6  1  0  0  0  0
  8  7  2  0  0  0  0
 10 14  1  0  0  0  0
 10 11  2  0  0  0  0
 11 15  1  0  0  0  0
 13  5  1  0  0  0  0
 16 18  2  0  0  0  0
 16 19  2  0  0  0  0
 16 20  1  0  0  0  0
 17 16  1  0  0  0  0
 20 12  1  0  0  0  0
 21 17  1  0  0  0  0
 22 17  1  0  0  0  0
 23 17  1  0  0  0  0
M  RAD  3   2   2   3   3   4   2
M  END
