Coordinates from ORCA-job 4-NO2PhN2+~TfO-_B3LYPG-6-31G_dp-CH-Scan-d09-49-n800
 OpenBabel11261919533D

 23 22  0  0  0  0  0  0  0  0999 V2000
   -1.5636   -0.6184   -0.0236 C   0  0  0  0  0  0  0  0  0  0  0  0
   -2.8823   -1.0412    0.2224 N   0  0  0  0  0  0  0  0  0  0  0  0
   -3.9497   -1.3082    0.4110 N   0  0  0  0  0  0  0  0  0  0  0  0
   -1.4943    0.7346   -0.3604 C   0  0  0  0  0  0  0  0  0  0  0  0
   -0.1323    1.0982   -0.5886 C   0  0  0  0  0  0  0  0  0  0  0  0
    0.9050    0.1846   -0.4767 C   0  0  0  0  0  0  0  0  0  0  0  0
    2.2997    0.6329   -0.7320 N   0  0  0  0  0  0  0  0  0  0  0  0
    2.4730    1.8059   -1.0491 O   0  0  0  0  0  0  0  0  0  0  0  0
    3.1952   -0.2024   -0.6085 O   0  0  0  0  0  0  0  0  0  0  0  0
    0.7276   -1.1723   -0.1271 C   0  0  0  0  0  0  0  0  0  0  0  0
   -0.5544   -1.6084    0.1140 C   0  0  0  0  0  0  0  0  0  0  0  0
   -4.8589    2.8703   -1.0171 H   0  0  0  0  0  0  0  0  0  0  0  0
    0.1267    2.1173   -0.8616 H   0  0  0  0  0  0  0  0  0  0  0  0
    1.5867   -1.8254   -0.0558 H   0  0  0  0  0  0  0  0  0  0  0  0
   -0.7703   -2.6364    0.3913 H   0  0  0  0  0  0  0  0  0  0  0  0
   -6.2908    1.5123   -1.8679 S   0  0  0  0  0  0  0  0  0  0  0  0
   -5.8489    1.6796   -3.6730 C   0  0  0  0  0  0  0  0  0  0  0  0
   -5.4457    0.4618   -1.3156 O   0  0  0  0  0  0  0  0  0  0  0  0
   -7.7344    1.5084   -1.7659 O   0  0  0  0  0  0  0  0  0  0  0  0
   -5.7743    2.9568   -1.3371 O   0  0  0  0  0  0  0  0  0  0  0  0
   -4.5429    1.9286   -3.7802 F   0  0  0  0  0  0  0  0  0  0  0  0
   -6.1400    0.5332   -4.2838 F   0  0  0  0  0  0  0  0  0  0  0  0
   -6.5434    2.6720   -4.2175 F   0  0  0  0  0  0  0  0  0  0  0  0
  1 11  1  0  0  0  0
  1  2  1  0  0  0  0
  2  3  1  0  0  0  0
  4  1  2  0  0  0  0
  5  6  2  0  0  0  0
  5  4  1  0  0  0  0
  6 10  1  0  0  0  0
  7  9  2  0  0  0  0
  7  6  1  0  0  0  0
  8  7  2  0  0  0  0
 10 14  1  0  0  0  0
 10 11  2  0  0  0  0
 11 15  1  0  0  0  0
 13  5  1  0  0  0  0
 16 19  2  0  0  0  0
 16 20  1  0  0  0  0
 16 18  2  0  0  0  0
 17 16  1  0  0  0  0
 20 12  1  0  0  0  0
 21 17  1  0  0  0  0
 22 17  1  0  0  0  0
 23 17  1  0  0  0  0
M  RAD  3   2   2   3   3   4   2
M  END
