Coordinates from ORCA-job 4-NO2PhN2+~TfO-_B3LYPG-6-31G_dp-CH-Scan-d09-49-n800
 OpenBabel11261919523D

 23 22  0  0  0  0  0  0  0  0999 V2000
   -1.7465   -0.6598   -0.0985 C   0  0  0  0  0  0  0  0  0  0  0  0
   -3.0255   -1.1807    0.1397 N   0  0  0  0  0  0  0  0  0  0  0  0
   -4.0630   -1.5494    0.3188 N   0  0  0  0  0  0  0  0  0  0  0  0
   -1.7560    0.6718   -0.5287 C   0  0  0  0  0  0  0  0  0  0  0  0
   -0.4224    1.1254   -0.7418 C   0  0  0  0  0  0  0  0  0  0  0  0
    0.6768    0.3060   -0.5311 C   0  0  0  0  0  0  0  0  0  0  0  0
    2.0415    0.8458   -0.7740 N   0  0  0  0  0  0  0  0  0  0  0  0
    2.1336    2.0075   -1.1576 O   0  0  0  0  0  0  0  0  0  0  0  0
    2.9915    0.0897   -0.5754 O   0  0  0  0  0  0  0  0  0  0  0  0
    0.5890   -1.0320   -0.0932 C   0  0  0  0  0  0  0  0  0  0  0  0
   -0.6647   -1.5499    0.1369 C   0  0  0  0  0  0  0  0  0  0  0  0
   -4.1112    2.2181   -1.0052 H   0  0  0  0  0  0  0  0  0  0  0  0
   -0.2341    2.1396   -1.0801 H   0  0  0  0  0  0  0  0  0  0  0  0
    1.4908   -1.6113    0.0509 H   0  0  0  0  0  0  0  0  0  0  0  0
   -0.8102   -2.5709    0.4764 H   0  0  0  0  0  0  0  0  0  0  0  0
   -5.9837    1.4881   -1.7659 S   0  0  0  0  0  0  0  0  0  0  0  0
   -5.6795    1.6805   -3.5955 C   0  0  0  0  0  0  0  0  0  0  0  0
   -5.4958    0.1637   -1.3964 O   0  0  0  0  0  0  0  0  0  0  0  0
   -7.3370    1.9288   -1.4991 O   0  0  0  0  0  0  0  0  0  0  0  0
   -4.9821    2.6199   -1.2046 O   0  0  0  0  0  0  0  0  0  0  0  0
   -4.3833    1.4905   -3.8480 F   0  0  0  0  0  0  0  0  0  0  0  0
   -6.4004    0.7650   -4.2411 F   0  0  0  0  0  0  0  0  0  0  0  0
   -6.0401    2.8975   -3.9892 F   0  0  0  0  0  0  0  0  0  0  0  0
  1 11  1  0  0  0  0
  1  2  1  0  0  0  0
  2  3  1  0  0  0  0
  4  1  2  0  0  0  0
  5  6  2  0  0  0  0
  5  4  1  0  0  0  0
  6 10  1  0  0  0  0
  7  9  2  0  0  0  0
  7  6  1  0  0  0  0
  8  7  2  0  0  0  0
 10 14  1  0  0  0  0
 10 11  2  0  0  0  0
 11 15  1  0  0  0  0
 13  5  1  0  0  0  0
 16 19  2  0  0  0  0
 16 18  2  0  0  0  0
 16 20  1  0  0  0  0
 17 16  1  0  0  0  0
 20 12  1  0  0  0  0
 21 17  1  0  0  0  0
 22 17  1  0  0  0  0
 23 17  1  0  0  0  0
M  RAD  3   2   2   3   3   4   2
M  END
