Coordinates from ORCA-job 4-NO2PhN2+~TfO-_B3LYPG-6-31G_dp-CH-Scan-d09-49-n800
 OpenBabel11261919523D

 23 22  0  0  0  0  0  0  0  0999 V2000
   -1.6759   -0.6688   -0.1159 C   0  0  0  0  0  0  0  0  0  0  0  0
   -2.9676   -1.1766    0.0870 N   0  0  0  0  0  0  0  0  0  0  0  0
   -4.0147   -1.5305    0.2393 N   0  0  0  0  0  0  0  0  0  0  0  0
   -1.6664    0.6670   -0.5297 C   0  0  0  0  0  0  0  0  0  0  0  0
   -0.3229    1.1092   -0.7079 C   0  0  0  0  0  0  0  0  0  0  0  0
    0.7635    0.2765   -0.4836 C   0  0  0  0  0  0  0  0  0  0  0  0
    2.1384    0.8049   -0.6903 N   0  0  0  0  0  0  0  0  0  0  0  0
    2.2510    1.9702   -1.0576 O   0  0  0  0  0  0  0  0  0  0  0  0
    3.0767    0.0374   -0.4795 O   0  0  0  0  0  0  0  0  0  0  0  0
    0.6535   -1.0663   -0.0639 C   0  0  0  0  0  0  0  0  0  0  0  0
   -0.6097   -1.5743    0.1327 C   0  0  0  0  0  0  0  0  0  0  0  0
   -4.2135    2.3585   -1.0860 H   0  0  0  0  0  0  0  0  0  0  0  0
   -0.1165    2.1255   -1.0295 H   0  0  0  0  0  0  0  0  0  0  0  0
    1.5466   -1.6558    0.0926 H   0  0  0  0  0  0  0  0  0  0  0  0
   -0.7731   -2.5977    0.4570 H   0  0  0  0  0  0  0  0  0  0  0  0
   -6.0657    1.5271   -1.7842 S   0  0  0  0  0  0  0  0  0  0  0  0
   -5.8388    1.6784   -3.6292 C   0  0  0  0  0  0  0  0  0  0  0  0
   -5.4999    0.2415   -1.3912 O   0  0  0  0  0  0  0  0  0  0  0  0
   -7.4263    1.9162   -1.4781 O   0  0  0  0  0  0  0  0  0  0  0  0
   -5.0941    2.7234   -1.2984 O   0  0  0  0  0  0  0  0  0  0  0  0
   -4.5484    1.5214   -3.9274 F   0  0  0  0  0  0  0  0  0  0  0  0
   -6.5553    0.7237   -4.2202 F   0  0  0  0  0  0  0  0  0  0  0  0
   -6.2530    2.8727   -4.0387 F   0  0  0  0  0  0  0  0  0  0  0  0
  1  2  1  0  0  0  0
  1 11  2  0  0  0  0
  2  3  1  0  0  0  0
  4  1  1  0  0  0  0
  5  4  2  0  0  0  0
  5  6  1  0  0  0  0
  6 10  2  0  0  0  0
  7  6  1  0  0  0  0
  7  9  2  0  0  0  0
  8  7  2  0  0  0  0
 10 14  1  0  0  0  0
 10 11  1  0  0  0  0
 11 15  1  0  0  0  0
 13  5  1  0  0  0  0
 16 19  2  0  0  0  0
 16 18  2  0  0  0  0
 16 20  1  0  0  0  0
 17 16  1  0  0  0  0
 20 12  1  0  0  0  0
 21 17  1  0  0  0  0
 22 17  1  0  0  0  0
 23 17  1  0  0  0  0
M  RAD  3   2   2   3   3   4   2
M  END
