Coordinates from ORCA-job 4-NO2PhN2+~TfO-_B3LYPG-6-31G_dp-CH-Scan-d09-49-n800
 OpenBabel11261919523D

 23 22  0  0  0  0  0  0  0  0999 V2000
   -1.8672   -0.6599   -0.1083 C   0  0  0  0  0  0  0  0  0  0  0  0
   -3.1228   -1.2176    0.1540 N   0  0  0  0  0  0  0  0  0  0  0  0
   -4.1422   -1.6236    0.3506 N   0  0  0  0  0  0  0  0  0  0  0  0
   -1.9096    0.6584   -0.5803 C   0  0  0  0  0  0  0  0  0  0  0  0
   -0.5954    1.1471   -0.8148 C   0  0  0  0  0  0  0  0  0  0  0  0
    0.5293    0.3683   -0.5836 C   0  0  0  0  0  0  0  0  0  0  0  0
    1.8754    0.9430   -0.8492 N   0  0  0  0  0  0  0  0  0  0  0  0
    1.9283    2.0954   -1.2657 O   0  0  0  0  0  0  0  0  0  0  0  0
    2.8482    0.2222   -0.6327 O   0  0  0  0  0  0  0  0  0  0  0  0
    0.4826   -0.9562   -0.1050 C   0  0  0  0  0  0  0  0  0  0  0  0
   -0.7546   -1.5042    0.1470 C   0  0  0  0  0  0  0  0  0  0  0  0
   -3.8098    1.8904   -0.9635 H   0  0  0  0  0  0  0  0  0  0  0  0
   -0.4424    2.1556   -1.1851 H   0  0  0  0  0  0  0  0  0  0  0  0
    1.4014   -1.5046    0.0524 H   0  0  0  0  0  0  0  0  0  0  0  0
   -0.8670   -2.5183    0.5171 H   0  0  0  0  0  0  0  0  0  0  0  0
   -5.7826    1.4481   -1.7141 S   0  0  0  0  0  0  0  0  0  0  0  0
   -5.5001    1.6776   -3.5411 C   0  0  0  0  0  0  0  0  0  0  0  0
   -5.4668    0.0513   -1.4213 O   0  0  0  0  0  0  0  0  0  0  0  0
   -7.0720    2.0312   -1.4011 O   0  0  0  0  0  0  0  0  0  0  0  0
   -4.6437    2.4072   -1.1323 O   0  0  0  0  0  0  0  0  0  0  0  0
   -4.2543    1.3061   -3.8470 F   0  0  0  0  0  0  0  0  0  0  0  0
   -6.3674    0.9134   -4.2050 F   0  0  0  0  0  0  0  0  0  0  0  0
   -5.6795    2.9526   -3.8740 F   0  0  0  0  0  0  0  0  0  0  0  0
  1 11  1  0  0  0  0
  1  2  1  0  0  0  0
  2  3  1  0  0  0  0
  4  1  2  0  0  0  0
  5  6  2  0  0  0  0
  5  4  1  0  0  0  0
  6 10  1  0  0  0  0
  7  9  2  0  0  0  0
  7  6  1  0  0  0  0
  8  7  2  0  0  0  0
 10 14  1  0  0  0  0
 10 11  2  0  0  0  0
 11 15  1  0  0  0  0
 13  5  1  0  0  0  0
 16 18  2  0  0  0  0
 16 19  2  0  0  0  0
 16 20  1  0  0  0  0
 17 16  1  0  0  0  0
 20 12  1  0  0  0  0
 21 17  1  0  0  0  0
 22 17  1  0  0  0  0
 23 17  1  0  0  0  0
M  RAD  3   2   2   3   3   4   2
M  END
