Coordinates from ORCA-job 4-NO2PhN2+~TfO-_B3LYPG-6-31G_dp-CH-Scan-d09-49-n800
 OpenBabel11261919533D

 23 22  0  0  0  0  0  0  0  0999 V2000
   -1.5293   -0.6111   -0.0216 C   0  0  0  0  0  0  0  0  0  0  0  0
   -2.8543   -1.0190    0.2169 N   0  0  0  0  0  0  0  0  0  0  0  0
   -3.9267   -1.2714    0.3989 N   0  0  0  0  0  0  0  0  0  0  0  0
   -1.4445    0.7434   -0.3472 C   0  0  0  0  0  0  0  0  0  0  0  0
   -0.0777    1.0938   -0.5682 C   0  0  0  0  0  0  0  0  0  0  0  0
    0.9488    0.1676   -0.4606 C   0  0  0  0  0  0  0  0  0  0  0  0
    2.3494    0.6022   -0.7079 N   0  0  0  0  0  0  0  0  0  0  0  0
    2.5378    1.7780   -1.0054 O   0  0  0  0  0  0  0  0  0  0  0  0
    3.2361   -0.2415   -0.5777 O   0  0  0  0  0  0  0  0  0  0  0  0
    0.7553   -1.1901   -0.1223 C   0  0  0  0  0  0  0  0  0  0  0  0
   -0.5322   -1.6139    0.1112 C   0  0  0  0  0  0  0  0  0  0  0  0
   -4.9430    2.9207   -1.0434 H   0  0  0  0  0  0  0  0  0  0  0  0
    0.1934    2.1122   -0.8321 H   0  0  0  0  0  0  0  0  0  0  0  0
    1.6069   -1.8532   -0.0537 H   0  0  0  0  0  0  0  0  0  0  0  0
   -0.7605   -2.6415    0.3796 H   0  0  0  0  0  0  0  0  0  0  0  0
   -6.3364    1.5157   -1.8816 S   0  0  0  0  0  0  0  0  0  0  0  0
   -5.9124    1.6876   -3.6904 C   0  0  0  0  0  0  0  0  0  0  0  0
   -5.4546    0.4961   -1.3290 O   0  0  0  0  0  0  0  0  0  0  0  0
   -7.7784    1.4673   -1.7695 O   0  0  0  0  0  0  0  0  0  0  0  0
   -5.8610    2.9789   -1.3623 O   0  0  0  0  0  0  0  0  0  0  0  0
   -4.6141    1.9697   -3.8084 F   0  0  0  0  0  0  0  0  0  0  0  0
   -6.1786    0.5321   -4.2952 F   0  0  0  0  0  0  0  0  0  0  0  0
   -6.6363    2.6600   -4.2328 F   0  0  0  0  0  0  0  0  0  0  0  0
  1 11  1  0  0  0  0
  1  2  1  0  0  0  0
  2  3  1  0  0  0  0
  4  1  2  0  0  0  0
  5  6  2  0  0  0  0
  5  4  1  0  0  0  0
  6 10  1  0  0  0  0
  7  9  2  0  0  0  0
  7  6  1  0  0  0  0
  8  7  2  0  0  0  0
 10 14  1  0  0  0  0
 10 11  2  0  0  0  0
 11 15  1  0  0  0  0
 13  5  1  0  0  0  0
 16 19  2  0  0  0  0
 16 20  1  0  0  0  0
 16 18  2  0  0  0  0
 17 16  1  0  0  0  0
 20 12  1  0  0  0  0
 21 17  1  0  0  0  0
 22 17  1  0  0  0  0
 23 17  1  0  0  0  0
M  RAD  3   2   2   3   3   4   2
M  END
