Coordinates from ORCA-job 4-NO2PhN2+~TfO-_B3LYPG-6-31G_dp-CH-Scan-d09-49-n800
 OpenBabel11261919523D

 23 22  0  0  0  0  0  0  0  0999 V2000
   -2.1472   -0.2685    0.0901 C   0  0  0  0  0  0  0  0  0  0  0  0
   -3.4220   -0.5666    0.5698 N   0  0  0  0  0  0  0  0  0  0  0  0
   -4.5375   -0.4573    0.6926 N   0  0  0  0  0  0  0  0  0  0  0  0
   -1.9951    0.9184   -0.6382 C   0  0  0  0  0  0  0  0  0  0  0  0
   -0.7265    1.2233   -1.1138 C   0  0  0  0  0  0  0  0  0  0  0  0
    0.3180    0.3396   -0.8441 C   0  0  0  0  0  0  0  0  0  0  0  0
    1.6731    0.6715   -1.3527 N   0  0  0  0  0  0  0  0  0  0  0  0
    1.7937    1.7192   -1.9773 O   0  0  0  0  0  0  0  0  0  0  0  0
    2.5720   -0.1267   -1.1063 O   0  0  0  0  0  0  0  0  0  0  0  0
    0.1602   -0.8422   -0.1185 C   0  0  0  0  0  0  0  0  0  0  0  0
   -1.1013   -1.1581    0.3676 C   0  0  0  0  0  0  0  0  0  0  0  0
   -3.0029    1.6228   -0.8361 H   0  0  0  0  0  0  0  0  0  0  0  0
   -0.5389    2.1206   -1.6896 H   0  0  0  0  0  0  0  0  0  0  0  0
    1.0152   -1.4835    0.0515 H   0  0  0  0  0  0  0  0  0  0  0  0
   -1.2803   -2.0641    0.9350 H   0  0  0  0  0  0  0  0  0  0  0  0
   -5.4800    0.5907   -1.9063 S   0  0  0  0  0  0  0  0  0  0  0  0
   -5.0793    1.9769   -3.0858 C   0  0  0  0  0  0  0  0  0  0  0  0
   -4.5045   -0.4731   -2.2241 O   0  0  0  0  0  0  0  0  0  0  0  0
   -6.9020    0.3156   -2.1035 O   0  0  0  0  0  0  0  0  0  0  0  0
   -5.1343    1.2555   -0.5735 O   0  0  0  0  0  0  0  0  0  0  0  0
   -3.7971    2.3789   -2.9151 F   0  0  0  0  0  0  0  0  0  0  0  0
   -5.2196    1.5642   -4.3474 F   0  0  0  0  0  0  0  0  0  0  0  0
   -5.8757    3.0267   -2.8771 F   0  0  0  0  0  0  0  0  0  0  0  0
  1 11  1  0  0  0  0
  1  2  1  0  0  0  0
  2  3  1  0  0  0  0
  4  1  2  0  0  0  0
  5  6  2  0  0  0  0
  5  4  1  0  0  0  0
  6 10  1  0  0  0  0
  7  9  2  0  0  0  0
  7  6  1  0  0  0  0
  8  7  2  0  0  0  0
 10 14  1  0  0  0  0
 10 11  2  0  0  0  0
 11 15  1  0  0  0  0
 12  4  1  0  0  0  0
 13  5  1  0  0  0  0
 16 20  1  0  0  0  0
 17 21  1  0  0  0  0
 17 23  1  0  0  0  0
 17 16  1  0  0  0  0
 18 16  2  0  0  0  0
 19 16  2  0  0  0  0
 22 17  1  0  0  0  0
M  RAD  3   2   2   3   3  20   2
M  END
