Coordinates from ORCA-job 4-NO2PhN2+~TfO-_B3LYPG-6-31G_dp-CH-Scan-d09-49-n800
 OpenBabel11261919523D

 23 22  0  0  0  0  0  0  0  0999 V2000
   -1.6556   -0.6716   -0.1211 C   0  0  0  0  0  0  0  0  0  0  0  0
   -2.9508   -1.1756    0.0714 N   0  0  0  0  0  0  0  0  0  0  0  0
   -4.0007   -1.5252    0.2147 N   0  0  0  0  0  0  0  0  0  0  0  0
   -1.6408    0.6653   -0.5306 C   0  0  0  0  0  0  0  0  0  0  0  0
   -0.2946    1.1040   -0.6988 C   0  0  0  0  0  0  0  0  0  0  0  0
    0.7880    0.2676   -0.4704 C   0  0  0  0  0  0  0  0  0  0  0  0
    2.1656    0.7927   -0.6668 N   0  0  0  0  0  0  0  0  0  0  0  0
    2.2841    1.9590   -1.0292 O   0  0  0  0  0  0  0  0  0  0  0  0
    3.1006    0.0222   -0.4516 O   0  0  0  0  0  0  0  0  0  0  0  0
    0.6718   -1.0763   -0.0555 C   0  0  0  0  0  0  0  0  0  0  0  0
   -0.5940   -1.5813    0.1315 C   0  0  0  0  0  0  0  0  0  0  0  0
   -4.2446    2.4018   -1.1096 H   0  0  0  0  0  0  0  0  0  0  0  0
   -0.0831    2.1209   -1.0159 H   0  0  0  0  0  0  0  0  0  0  0  0
    1.5623   -1.6686    0.1047 H   0  0  0  0  0  0  0  0  0  0  0  0
   -0.7624   -2.6053    0.4516 H   0  0  0  0  0  0  0  0  0  0  0  0
   -6.0892    1.5390   -1.7892 S   0  0  0  0  0  0  0  0  0  0  0  0
   -5.8833    1.6773   -3.6377 C   0  0  0  0  0  0  0  0  0  0  0  0
   -5.4997    0.2663   -1.3897 O   0  0  0  0  0  0  0  0  0  0  0  0
   -7.4518    1.9118   -1.4723 O   0  0  0  0  0  0  0  0  0  0  0  0
   -5.1289    2.7543   -1.3249 O   0  0  0  0  0  0  0  0  0  0  0  0
   -4.5945    1.5320   -3.9480 F   0  0  0  0  0  0  0  0  0  0  0  0
   -6.5953    0.7098   -4.2128 F   0  0  0  0  0  0  0  0  0  0  0  0
   -6.3151    2.8635   -4.0526 F   0  0  0  0  0  0  0  0  0  0  0  0
  1  2  1  0  0  0  0
  1 11  2  0  0  0  0
  2  3  1  0  0  0  0
  4  1  1  0  0  0  0
  5  4  2  0  0  0  0
  5  6  1  0  0  0  0
  6 10  2  0  0  0  0
  7  6  1  0  0  0  0
  7  9  2  0  0  0  0
  8  7  2  0  0  0  0
 10 14  1  0  0  0  0
 10 11  1  0  0  0  0
 11 15  1  0  0  0  0
 13  5  1  0  0  0  0
 16 19  2  0  0  0  0
 16 18  2  0  0  0  0
 16 20  1  0  0  0  0
 17 16  1  0  0  0  0
 20 12  1  0  0  0  0
 21 17  1  0  0  0  0
 22 17  1  0  0  0  0
 23 17  1  0  0  0  0
M  RAD  3   2   2   3   3   4   2
M  END
