Coordinates from ORCA-job 4-NO2PhN2+~TfO-_B3LYPG-6-31G_dp-CH-Scan-d09-49-n800
 OpenBabel11261919523D

 23 22  0  0  0  0  0  0  0  0999 V2000
   -1.6830   -0.6676   -0.1136 C   0  0  0  0  0  0  0  0  0  0  0  0
   -2.9735   -1.1767    0.0934 N   0  0  0  0  0  0  0  0  0  0  0  0
   -4.0196   -1.5320    0.2490 N   0  0  0  0  0  0  0  0  0  0  0  0
   -1.6754    0.6678   -0.5290 C   0  0  0  0  0  0  0  0  0  0  0  0
   -0.3329    1.1110   -0.7111 C   0  0  0  0  0  0  0  0  0  0  0  0
    0.7547    0.2795   -0.4885 C   0  0  0  0  0  0  0  0  0  0  0  0
    2.1286    0.8090   -0.6992 N   0  0  0  0  0  0  0  0  0  0  0  0
    2.2392    1.9736   -1.0693 O   0  0  0  0  0  0  0  0  0  0  0  0
    3.0681    0.0422   -0.4909 O   0  0  0  0  0  0  0  0  0  0  0  0
    0.6470   -1.0628   -0.0669 C   0  0  0  0  0  0  0  0  0  0  0  0
   -0.6153   -1.5717    0.1334 C   0  0  0  0  0  0  0  0  0  0  0  0
   -4.2041    2.3437   -1.0766 H   0  0  0  0  0  0  0  0  0  0  0  0
   -0.1283    2.1271   -1.0345 H   0  0  0  0  0  0  0  0  0  0  0  0
    1.5410   -1.6514    0.0881 H   0  0  0  0  0  0  0  0  0  0  0  0
   -0.7769   -2.5949    0.4593 H   0  0  0  0  0  0  0  0  0  0  0  0
   -6.0581    1.5224   -1.7827 S   0  0  0  0  0  0  0  0  0  0  0  0
   -5.8219    1.6791   -3.6260 C   0  0  0  0  0  0  0  0  0  0  0  0
   -5.5002    0.2326   -1.3921 O   0  0  0  0  0  0  0  0  0  0  0  0
   -7.4183    1.9164   -1.4815 O   0  0  0  0  0  0  0  0  0  0  0  0
   -5.0837    2.7124   -1.2879 O   0  0  0  0  0  0  0  0  0  0  0  0
   -4.5306    1.5191   -3.9187 F   0  0  0  0  0  0  0  0  0  0  0  0
   -6.5384    0.7286   -4.2237 F   0  0  0  0  0  0  0  0  0  0  0  0
   -6.2304    2.8760   -4.0337 F   0  0  0  0  0  0  0  0  0  0  0  0
  1  2  1  0  0  0  0
  1 11  2  0  0  0  0
  2  3  1  0  0  0  0
  4  1  1  0  0  0  0
  5  4  2  0  0  0  0
  5  6  1  0  0  0  0
  6 10  2  0  0  0  0
  7  9  2  0  0  0  0
  7  6  1  0  0  0  0
  8  7  2  0  0  0  0
 10 14  1  0  0  0  0
 10 11  1  0  0  0  0
 11 15  1  0  0  0  0
 13  5  1  0  0  0  0
 16 19  2  0  0  0  0
 16 18  2  0  0  0  0
 16 20  1  0  0  0  0
 17 16  1  0  0  0  0
 20 12  1  0  0  0  0
 21 17  1  0  0  0  0
 22 17  1  0  0  0  0
 23 17  1  0  0  0  0
M  RAD  3   2   2   3   3   4   2
M  END
