Coordinates from ORCA-job 4-NO2PhN2+~TfO-_B3LYPG-6-31G_dp-CH-Scan-d09-49-n800
 OpenBabel11261919523D

 23 22  0  0  0  0  0  0  0  0999 V2000
   -1.9188   -0.6575   -0.1062 C   0  0  0  0  0  0  0  0  0  0  0  0
   -3.1649   -1.2275    0.1697 N   0  0  0  0  0  0  0  0  0  0  0  0
   -4.1776   -1.6443    0.3758 N   0  0  0  0  0  0  0  0  0  0  0  0
   -1.9731    0.6566   -0.5903 C   0  0  0  0  0  0  0  0  0  0  0  0
   -0.6674    1.1569   -0.8384 C   0  0  0  0  0  0  0  0  0  0  0  0
    0.4666    0.3911   -0.6078 C   0  0  0  0  0  0  0  0  0  0  0  0
    1.8048    0.9769   -0.8882 N   0  0  0  0  0  0  0  0  0  0  0  0
    1.8422    2.1256   -1.3160 O   0  0  0  0  0  0  0  0  0  0  0  0
    2.7858    0.2678   -0.6714 O   0  0  0  0  0  0  0  0  0  0  0  0
    0.4354   -0.9286   -0.1169 C   0  0  0  0  0  0  0  0  0  0  0  0
   -0.7951   -1.4861    0.1485 C   0  0  0  0  0  0  0  0  0  0  0  0
   -3.6965    1.7713   -0.9368 H   0  0  0  0  0  0  0  0  0  0  0  0
   -0.5286    2.1634   -1.2189 H   0  0  0  0  0  0  0  0  0  0  0  0
    1.3603   -1.4672    0.0394 H   0  0  0  0  0  0  0  0  0  0  0  0
   -0.8949   -2.4978    0.5283 H   0  0  0  0  0  0  0  0  0  0  0  0
   -5.6973    1.4300   -1.6938 S   0  0  0  0  0  0  0  0  0  0  0  0
   -5.4158    1.6774   -3.5177 C   0  0  0  0  0  0  0  0  0  0  0  0
   -5.4391    0.0139   -1.4312 O   0  0  0  0  0  0  0  0  0  0  0  0
   -6.9675    2.0497   -1.3688 O   0  0  0  0  0  0  0  0  0  0  0  0
   -4.5240    2.3262   -1.1020 O   0  0  0  0  0  0  0  0  0  0  0  0
   -4.1812    1.2763   -3.8353 F   0  0  0  0  0  0  0  0  0  0  0  0
   -6.3052    0.9476   -4.1917 F   0  0  0  0  0  0  0  0  0  0  0  0
   -5.5603    2.9618   -3.8331 F   0  0  0  0  0  0  0  0  0  0  0  0
  1 11  1  0  0  0  0
  1  2  1  0  0  0  0
  2  3  1  0  0  0  0
  4  1  2  0  0  0  0
  5  6  2  0  0  0  0
  5  4  1  0  0  0  0
  6 10  1  0  0  0  0
  7  9  2  0  0  0  0
  7  6  1  0  0  0  0
  8  7  2  0  0  0  0
 10 14  1  0  0  0  0
 10 11  2  0  0  0  0
 11 15  1  0  0  0  0
 13  5  1  0  0  0  0
 16 18  2  0  0  0  0
 16 19  2  0  0  0  0
 16 20  1  0  0  0  0
 17 16  1  0  0  0  0
 20 12  1  0  0  0  0
 21 17  1  0  0  0  0
 22 17  1  0  0  0  0
 23 17  1  0  0  0  0
M  RAD  3   2   2   3   3   4   2
M  END
