Coordinates from ORCA-job 4-NO2PhN2+~TfO-_B3LYPG-6-31G_dp-CH-Scan-d09-49-n800
 OpenBabel11261919523D

 23 22  0  0  0  0  0  0  0  0999 V2000
   -1.5904   -0.6741   -0.1270 C   0  0  0  0  0  0  0  0  0  0  0  0
   -2.8982   -1.1577    0.0424 N   0  0  0  0  0  0  0  0  0  0  0  0
   -3.9581   -1.4848    0.1653 N   0  0  0  0  0  0  0  0  0  0  0  0
   -1.5552    0.6678   -0.5152 C   0  0  0  0  0  0  0  0  0  0  0  0
   -0.1995    1.0882   -0.6619 C   0  0  0  0  0  0  0  0  0  0  0  0
    0.8680    0.2322   -0.4359 C   0  0  0  0  0  0  0  0  0  0  0  0
    2.2554    0.7390   -0.6098 N   0  0  0  0  0  0  0  0  0  0  0  0
    2.3959    1.9089   -0.9528 O   0  0  0  0  0  0  0  0  0  0  0  0
    3.1767   -0.0491   -0.3985 O   0  0  0  0  0  0  0  0  0  0  0  0
    0.7279   -1.1166   -0.0432 C   0  0  0  0  0  0  0  0  0  0  0  0
   -0.5471   -1.6054    0.1230 C   0  0  0  0  0  0  0  0  0  0  0  0
   -4.4041    2.5916   -1.1635 H   0  0  0  0  0  0  0  0  0  0  0  0
    0.0312    2.1067   -0.9605 H   0  0  0  0  0  0  0  0  0  0  0  0
    1.6081   -1.7242    0.1168 H   0  0  0  0  0  0  0  0  0  0  0  0
   -0.7346   -2.6314    0.4257 H   0  0  0  0  0  0  0  0  0  0  0  0
   -6.1816    1.5747   -1.8080 S   0  0  0  0  0  0  0  0  0  0  0  0
   -5.9935    1.6698   -3.6617 C   0  0  0  0  0  0  0  0  0  0  0  0
   -5.4945    0.3656   -1.3714 O   0  0  0  0  0  0  0  0  0  0  0  0
   -7.5655    1.8579   -1.4921 O   0  0  0  0  0  0  0  0  0  0  0  0
   -5.3089    2.8743   -1.3894 O   0  0  0  0  0  0  0  0  0  0  0  0
   -4.6971    1.6331   -3.9717 F   0  0  0  0  0  0  0  0  0  0  0  0
   -6.6136    0.6212   -4.1995 F   0  0  0  0  0  0  0  0  0  0  0  0
   -6.5337    2.7959   -4.1141 F   0  0  0  0  0  0  0  0  0  0  0  0
  1  2  1  0  0  0  0
  1 11  2  0  0  0  0
  2  3  1  0  0  0  0
  4  1  1  0  0  0  0
  5  4  2  0  0  0  0
  5  6  1  0  0  0  0
  6 10  2  0  0  0  0
  7  6  1  0  0  0  0
  7  9  2  0  0  0  0
  8  7  2  0  0  0  0
 10 14  1  0  0  0  0
 10 11  1  0  0  0  0
 11 15  1  0  0  0  0
 13  5  1  0  0  0  0
 16 19  2  0  0  0  0
 16 20  1  0  0  0  0
 16 18  2  0  0  0  0
 17 16  1  0  0  0  0
 20 12  1  0  0  0  0
 21 17  1  0  0  0  0
 22 17  1  0  0  0  0
 23 17  1  0  0  0  0
M  RAD  3   2   2   3   3   4   2
M  END
