Coordinates from ORCA-job 4-NO2PhN2+~TfO-_B3LYPG-6-31G_dp-CH-Scan-d09-49-n800
 OpenBabel11261919523D

 23 22  0  0  0  0  0  0  0  0999 V2000
   -1.5941   -0.6746   -0.1279 C   0  0  0  0  0  0  0  0  0  0  0  0
   -2.9011   -1.1600    0.0418 N   0  0  0  0  0  0  0  0  0  0  0  0
   -3.9602   -1.4895    0.1653 N   0  0  0  0  0  0  0  0  0  0  0  0
   -1.5602    0.6667   -0.5185 C   0  0  0  0  0  0  0  0  0  0  0  0
   -0.2052    1.0890   -0.6653 C   0  0  0  0  0  0  0  0  0  0  0  0
    0.8634    0.2349   -0.4372 C   0  0  0  0  0  0  0  0  0  0  0  0
    2.2502    0.7434   -0.6113 N   0  0  0  0  0  0  0  0  0  0  0  0
    2.3891    1.9127   -0.9566 O   0  0  0  0  0  0  0  0  0  0  0  0
    3.1724   -0.0430   -0.3979 O   0  0  0  0  0  0  0  0  0  0  0  0
    0.7250   -1.1134   -0.0421 C   0  0  0  0  0  0  0  0  0  0  0  0
   -0.5494   -1.6037    0.1243 C   0  0  0  0  0  0  0  0  0  0  0  0
   -4.3896    2.5754   -1.1622 H   0  0  0  0  0  0  0  0  0  0  0  0
    0.0241    2.1072   -0.9656 H   0  0  0  0  0  0  0  0  0  0  0  0
    1.6059   -1.7195    0.1195 H   0  0  0  0  0  0  0  0  0  0  0  0
   -0.7356   -2.6295    0.4287 H   0  0  0  0  0  0  0  0  0  0  0  0
   -6.1750    1.5728   -1.8067 S   0  0  0  0  0  0  0  0  0  0  0  0
   -5.9901    1.6710   -3.6605 C   0  0  0  0  0  0  0  0  0  0  0  0
   -5.4960    0.3572   -1.3746 O   0  0  0  0  0  0  0  0  0  0  0  0
   -7.5563    1.8649   -1.4872 O   0  0  0  0  0  0  0  0  0  0  0  0
   -5.2926    2.8651   -1.3868 O   0  0  0  0  0  0  0  0  0  0  0  0
   -4.6949    1.6224   -3.9738 F   0  0  0  0  0  0  0  0  0  0  0  0
   -6.6218    0.6302   -4.1997 F   0  0  0  0  0  0  0  0  0  0  0  0
   -6.5201    2.8037   -4.1086 F   0  0  0  0  0  0  0  0  0  0  0  0
  1  2  1  0  0  0  0
  1 11  2  0  0  0  0
  2  3  1  0  0  0  0
  4  1  1  0  0  0  0
  5  4  2  0  0  0  0
  5  6  1  0  0  0  0
  6 10  2  0  0  0  0
  7  6  1  0  0  0  0
  7  9  2  0  0  0  0
  8  7  2  0  0  0  0
 10 14  1  0  0  0  0
 10 11  1  0  0  0  0
 11 15  1  0  0  0  0
 13  5  1  0  0  0  0
 16 19  2  0  0  0  0
 16 20  1  0  0  0  0
 16 18  2  0  0  0  0
 17 16  1  0  0  0  0
 20 12  1  0  0  0  0
 21 17  1  0  0  0  0
 22 17  1  0  0  0  0
 23 17  1  0  0  0  0
M  RAD  3   2   2   3   3   4   2
M  END
