Coordinates from ORCA-job 4-NO2PhN2+~TfO-_B3LYPG-6-31G_dp-CH-Scan-d09-49-n800
 OpenBabel11261919533D

 23 22  0  0  0  0  0  0  0  0999 V2000
   -1.4980   -0.6016   -0.0176 C   0  0  0  0  0  0  0  0  0  0  0  0
   -2.8294   -0.9951    0.2119 N   0  0  0  0  0  0  0  0  0  0  0  0
   -3.9058   -1.2337    0.3885 N   0  0  0  0  0  0  0  0  0  0  0  0
   -1.3967    0.7551   -0.3276 C   0  0  0  0  0  0  0  0  0  0  0  0
   -0.0252    1.0923   -0.5407 C   0  0  0  0  0  0  0  0  0  0  0  0
    0.9900    0.1530   -0.4409 C   0  0  0  0  0  0  0  0  0  0  0  0
    2.3962    0.5738   -0.6792 N   0  0  0  0  0  0  0  0  0  0  0  0
    2.5983    1.7478   -0.9746 O   0  0  0  0  0  0  0  0  0  0  0  0
    3.2719   -0.2835   -0.5644 O   0  0  0  0  0  0  0  0  0  0  0  0
    0.7796   -1.2062   -0.1185 C   0  0  0  0  0  0  0  0  0  0  0  0
   -0.5134   -1.6176    0.1069 C   0  0  0  0  0  0  0  0  0  0  0  0
   -5.0255    2.9682   -1.0671 H   0  0  0  0  0  0  0  0  0  0  0  0
    0.2584    2.1105   -0.7920 H   0  0  0  0  0  0  0  0  0  0  0  0
    1.6233   -1.8799   -0.0550 H   0  0  0  0  0  0  0  0  0  0  0  0
   -0.7545   -2.6455    0.3632 H   0  0  0  0  0  0  0  0  0  0  0  0
   -6.3769    1.5175   -1.8951 S   0  0  0  0  0  0  0  0  0  0  0  0
   -5.9704    1.6934   -3.7075 C   0  0  0  0  0  0  0  0  0  0  0  0
   -5.4593    0.5299   -1.3424 O   0  0  0  0  0  0  0  0  0  0  0  0
   -7.8159    1.4240   -1.7735 O   0  0  0  0  0  0  0  0  0  0  0  0
   -5.9442    2.9982   -1.3873 O   0  0  0  0  0  0  0  0  0  0  0  0
   -4.6806    2.0078   -3.8358 F   0  0  0  0  0  0  0  0  0  0  0  0
   -6.2117    0.5295   -4.3065 F   0  0  0  0  0  0  0  0  0  0  0  0
   -6.7225    2.6454   -4.2478 F   0  0  0  0  0  0  0  0  0  0  0  0
  1 11  1  0  0  0  0
  1  2  1  0  0  0  0
  2  3  1  0  0  0  0
  4  1  2  0  0  0  0
  5  6  2  0  0  0  0
  5  4  1  0  0  0  0
  6 10  1  0  0  0  0
  7  9  2  0  0  0  0
  7  6  1  0  0  0  0
  8  7  2  0  0  0  0
 10 14  1  0  0  0  0
 10 11  2  0  0  0  0
 11 15  1  0  0  0  0
 13  5  1  0  0  0  0
 16 19  2  0  0  0  0
 16 20  1  0  0  0  0
 16 18  2  0  0  0  0
 17 16  1  0  0  0  0
 20 12  1  0  0  0  0
 21 17  1  0  0  0  0
 22 17  1  0  0  0  0
 23 17  1  0  0  0  0
M  RAD  3   2   2   3   3   4   2
M  END
