Coordinates from ORCA-job 4-NO2PhN2+~TfO-_B3LYPG-6-31G_dp-CH-Scan-d09-49-n800
 OpenBabel11261919523D

 23 22  0  0  0  0  0  0  0  0999 V2000
   -2.0160   -0.5927   -0.1102 C   0  0  0  0  0  0  0  0  0  0  0  0
   -3.2771   -1.1265    0.1484 N   0  0  0  0  0  0  0  0  0  0  0  0
   -4.3214   -1.4841    0.2921 N   0  0  0  0  0  0  0  0  0  0  0  0
   -1.9861    0.6913   -0.6698 C   0  0  0  0  0  0  0  0  0  0  0  0
   -0.6934    1.1824   -0.9091 C   0  0  0  0  0  0  0  0  0  0  0  0
    0.4201    0.4135   -0.5916 C   0  0  0  0  0  0  0  0  0  0  0  0
    1.7739    0.9692   -0.8565 N   0  0  0  0  0  0  0  0  0  0  0  0
    1.8338    2.0919   -1.3433 O   0  0  0  0  0  0  0  0  0  0  0  0
    2.7340    0.2601   -0.5671 O   0  0  0  0  0  0  0  0  0  0  0  0
    0.3450   -0.8687   -0.0295 C   0  0  0  0  0  0  0  0  0  0  0  0
   -0.9057   -1.3975    0.2254 C   0  0  0  0  0  0  0  0  0  0  0  0
   -3.1250    1.4017   -0.9704 H   0  0  0  0  0  0  0  0  0  0  0  0
   -0.5496    2.1648   -1.3435 H   0  0  0  0  0  0  0  0  0  0  0  0
    1.2537   -1.4126    0.1916 H   0  0  0  0  0  0  0  0  0  0  0  0
   -1.0301   -2.3845    0.6566 H   0  0  0  0  0  0  0  0  0  0  0  0
   -5.4234    1.3049   -1.7068 S   0  0  0  0  0  0  0  0  0  0  0  0
   -5.5400    1.7606   -3.5034 C   0  0  0  0  0  0  0  0  0  0  0  0
   -5.0960   -0.1426   -1.7201 O   0  0  0  0  0  0  0  0  0  0  0  0
   -6.6865    1.7163   -1.1013 O   0  0  0  0  0  0  0  0  0  0  0  0
   -4.2233    2.1277   -1.2477 O   0  0  0  0  0  0  0  0  0  0  0  0
   -4.3889    1.4677   -4.1272 F   0  0  0  0  0  0  0  0  0  0  0  0
   -6.5294    1.0731   -4.0826 F   0  0  0  0  0  0  0  0  0  0  0  0
   -5.7808    3.0677   -3.6366 F   0  0  0  0  0  0  0  0  0  0  0  0
  1  2  1  0  0  0  0
  1 11  2  0  0  0  0
  2  3  1  0  0  0  0
  4  1  1  0  0  0  0
  5  4  2  0  0  0  0
  5  6  1  0  0  0  0
  6 10  2  0  0  0  0
  7  6  1  0  0  0  0
  7  9  2  0  0  0  0
  8  7  2  0  0  0  0
 10 14  1  0  0  0  0
 10 11  1  0  0  0  0
 11 15  1  0  0  0  0
 13  5  1  0  0  0  0
 16 20  1  0  0  0  0
 16 19  2  0  0  0  0
 17 16  1  0  0  0  0
 18 16  2  0  0  0  0
 20 12  1  0  0  0  0
 21 17  1  0  0  0  0
 22 17  1  0  0  0  0
 23 17  1  0  0  0  0
M  RAD  3   2   2   3   3   4   2
M  END
