Coordinates from ORCA-job 4-NO2PhN2+~TfO-_B3LYPG-6-31G_dp-CH-Scan-d09-49-n800
 OpenBabel11261919523D

 23 22  0  0  0  0  0  0  0  0999 V2000
   -1.7057   -0.6645   -0.1075 C   0  0  0  0  0  0  0  0  0  0  0  0
   -2.9922   -1.1775    0.1112 N   0  0  0  0  0  0  0  0  0  0  0  0
   -4.0352   -1.5379    0.2747 N   0  0  0  0  0  0  0  0  0  0  0  0
   -1.7042    0.6696   -0.5282 C   0  0  0  0  0  0  0  0  0  0  0  0
   -0.3647    1.1162   -0.7221 C   0  0  0  0  0  0  0  0  0  0  0  0
    0.7270    0.2888   -0.5041 C   0  0  0  0  0  0  0  0  0  0  0  0
    2.0977    0.8217   -0.7271 N   0  0  0  0  0  0  0  0  0  0  0  0
    2.2018    1.9855   -1.1013 O   0  0  0  0  0  0  0  0  0  0  0  0
    3.0409    0.0588   -0.5217 O   0  0  0  0  0  0  0  0  0  0  0  0
    0.6263   -1.0520   -0.0765 C   0  0  0  0  0  0  0  0  0  0  0  0
   -0.6330   -1.5638    0.1350 C   0  0  0  0  0  0  0  0  0  0  0  0
   -4.1719    2.2989   -1.0497 H   0  0  0  0  0  0  0  0  0  0  0  0
   -0.1658    2.1316   -1.0510 H   0  0  0  0  0  0  0  0  0  0  0  0
    1.5231   -1.6374    0.0742 H   0  0  0  0  0  0  0  0  0  0  0  0
   -0.7890   -2.5862    0.4659 H   0  0  0  0  0  0  0  0  0  0  0  0
   -6.0320    1.5093   -1.7770 S   0  0  0  0  0  0  0  0  0  0  0  0
   -5.7705    1.6800   -3.6155 C   0  0  0  0  0  0  0  0  0  0  0  0
   -5.4986    0.2070   -1.3934 O   0  0  0  0  0  0  0  0  0  0  0  0
   -7.3905    1.9193   -1.4891 O   0  0  0  0  0  0  0  0  0  0  0  0
   -5.0483    2.6792   -1.2572 O   0  0  0  0  0  0  0  0  0  0  0  0
   -4.4770    1.5100   -3.8931 F   0  0  0  0  0  0  0  0  0  0  0  0
   -6.4883    0.7421   -4.2313 F   0  0  0  0  0  0  0  0  0  0  0  0
   -6.1620    2.8845   -4.0180 F   0  0  0  0  0  0  0  0  0  0  0  0
  1  2  1  0  0  0  0
  1 11  2  0  0  0  0
  2  3  1  0  0  0  0
  4  1  1  0  0  0  0
  5  4  2  0  0  0  0
  5  6  1  0  0  0  0
  6 10  2  0  0  0  0
  7  9  2  0  0  0  0
  7  6  1  0  0  0  0
  8  7  2  0  0  0  0
 10 14  1  0  0  0  0
 10 11  1  0  0  0  0
 11 15  1  0  0  0  0
 13  5  1  0  0  0  0
 16 19  2  0  0  0  0
 16 18  2  0  0  0  0
 16 20  1  0  0  0  0
 17 16  1  0  0  0  0
 20 12  1  0  0  0  0
 21 17  1  0  0  0  0
 22 17  1  0  0  0  0
 23 17  1  0  0  0  0
M  RAD  3   2   2   3   3   4   2
M  END
