Coordinates from ORCA-job 4-NO2PhN2+~TfO-_B3LYPG-6-31G_dp-CH-Scan-d09-49-n800
 OpenBabel11261919523D

 23 22  0  0  0  0  0  0  0  0999 V2000
   -1.5989   -0.6752   -0.1282 C   0  0  0  0  0  0  0  0  0  0  0  0
   -2.9048   -1.1629    0.0426 N   0  0  0  0  0  0  0  0  0  0  0  0
   -3.9631   -1.4949    0.1664 N   0  0  0  0  0  0  0  0  0  0  0  0
   -1.5671    0.6654   -0.5216 C   0  0  0  0  0  0  0  0  0  0  0  0
   -0.2129    1.0898   -0.6693 C   0  0  0  0  0  0  0  0  0  0  0  0
    0.8572    0.2381   -0.4393 C   0  0  0  0  0  0  0  0  0  0  0  0
    2.2430    0.7487   -0.6144 N   0  0  0  0  0  0  0  0  0  0  0  0
    2.3798    1.9175   -0.9623 O   0  0  0  0  0  0  0  0  0  0  0  0
    3.1667   -0.0355   -0.3990 O   0  0  0  0  0  0  0  0  0  0  0  0
    0.7211   -1.1096   -0.0413 C   0  0  0  0  0  0  0  0  0  0  0  0
   -0.5524   -1.6018    0.1260 C   0  0  0  0  0  0  0  0  0  0  0  0
   -4.3728    2.5565   -1.1595 H   0  0  0  0  0  0  0  0  0  0  0  0
    0.0145    2.1078   -0.9718 H   0  0  0  0  0  0  0  0  0  0  0  0
    1.6031   -1.7138    0.1216 H   0  0  0  0  0  0  0  0  0  0  0  0
   -0.7368   -2.6273    0.4326 H   0  0  0  0  0  0  0  0  0  0  0  0
   -6.1669    1.5702   -1.8052 S   0  0  0  0  0  0  0  0  0  0  0  0
   -5.9843    1.6726   -3.6589 C   0  0  0  0  0  0  0  0  0  0  0  0
   -5.4971    0.3479   -1.3778 O   0  0  0  0  0  0  0  0  0  0  0  0
   -7.5455    1.8721   -1.4829 O   0  0  0  0  0  0  0  0  0  0  0  0
   -5.2737    2.8539   -1.3828 O   0  0  0  0  0  0  0  0  0  0  0  0
   -4.6903    1.6102   -3.9750 F   0  0  0  0  0  0  0  0  0  0  0  0
   -6.6289    0.6408   -4.2005 F   0  0  0  0  0  0  0  0  0  0  0  0
   -6.5022    2.8127   -4.1022 F   0  0  0  0  0  0  0  0  0  0  0  0
  1  2  1  0  0  0  0
  1 11  2  0  0  0  0
  2  3  1  0  0  0  0
  4  1  1  0  0  0  0
  5  4  2  0  0  0  0
  5  6  1  0  0  0  0
  6 10  2  0  0  0  0
  7  6  1  0  0  0  0
  7  9  2  0  0  0  0
  8  7  2  0  0  0  0
 10 14  1  0  0  0  0
 10 11  1  0  0  0  0
 11 15  1  0  0  0  0
 13  5  1  0  0  0  0
 16 19  2  0  0  0  0
 16 20  1  0  0  0  0
 16 18  2  0  0  0  0
 17 16  1  0  0  0  0
 20 12  1  0  0  0  0
 21 17  1  0  0  0  0
 22 17  1  0  0  0  0
 23 17  1  0  0  0  0
M  RAD  3   2   2   3   3   4   2
M  END
