Coordinates from ORCA-job 4-NO2PhN2+~TfO-_B3LYPG-6-31G_dp-CH-Scan-d09-49-n800
 OpenBabel11261919533D

 23 22  0  0  0  0  0  0  0  0999 V2000
   -1.4669   -0.5861   -0.0069 C   0  0  0  0  0  0  0  0  0  0  0  0
   -2.8046   -0.9615    0.2187 N   0  0  0  0  0  0  0  0  0  0  0  0
   -3.8848   -1.1836    0.3937 N   0  0  0  0  0  0  0  0  0  0  0  0
   -1.3457    0.7734   -0.2951 C   0  0  0  0  0  0  0  0  0  0  0  0
    0.0302    1.0935   -0.5061 C   0  0  0  0  0  0  0  0  0  0  0  0
    1.0309    0.1370   -0.4250 C   0  0  0  0  0  0  0  0  0  0  0  0
    2.4427    0.5398   -0.6609 N   0  0  0  0  0  0  0  0  0  0  0  0
    2.6619    1.7144   -0.9414 O   0  0  0  0  0  0  0  0  0  0  0  0
    3.3059   -0.3319   -0.5590 O   0  0  0  0  0  0  0  0  0  0  0  0
    0.8003   -1.2239   -0.1239 C   0  0  0  0  0  0  0  0  0  0  0  0
   -0.4982   -1.6192    0.0987 C   0  0  0  0  0  0  0  0  0  0  0  0
   -5.1233    3.0174   -1.0858 H   0  0  0  0  0  0  0  0  0  0  0  0
    0.3286    2.1114   -0.7409 H   0  0  0  0  0  0  0  0  0  0  0  0
    1.6338   -1.9113   -0.0739 H   0  0  0  0  0  0  0  0  0  0  0  0
   -0.7543   -2.6472    0.3394 H   0  0  0  0  0  0  0  0  0  0  0  0
   -6.4183    1.5152   -1.9114 S   0  0  0  0  0  0  0  0  0  0  0  0
   -6.0213    1.6973   -3.7252 C   0  0  0  0  0  0  0  0  0  0  0  0
   -5.4629    0.5667   -1.3543 O   0  0  0  0  0  0  0  0  0  0  0  0
   -7.8526    1.3684   -1.7872 O   0  0  0  0  0  0  0  0  0  0  0  0
   -6.0402    3.0144   -1.4126 O   0  0  0  0  0  0  0  0  0  0  0  0
   -4.7423    2.0519   -3.8574 F   0  0  0  0  0  0  0  0  0  0  0  0
   -6.2269    0.5242   -4.3194 F   0  0  0  0  0  0  0  0  0  0  0  0
   -6.8041    2.6233   -4.2672 F   0  0  0  0  0  0  0  0  0  0  0  0
  1 11  1  0  0  0  0
  1  2  1  0  0  0  0
  2  3  1  0  0  0  0
  4  1  2  0  0  0  0
  5  6  2  0  0  0  0
  5  4  1  0  0  0  0
  6 10  1  0  0  0  0
  7  9  2  0  0  0  0
  7  6  1  0  0  0  0
  8  7  2  0  0  0  0
 10 14  1  0  0  0  0
 10 11  2  0  0  0  0
 11 15  1  0  0  0  0
 13  5  1  0  0  0  0
 16 19  2  0  0  0  0
 16 20  1  0  0  0  0
 16 18  2  0  0  0  0
 17 16  1  0  0  0  0
 20 12  1  0  0  0  0
 21 17  1  0  0  0  0
 22 17  1  0  0  0  0
 23 17  1  0  0  0  0
M  RAD  3   2   2   3   3   4   2
M  END
