Coordinates from ORCA-job 4-NO2PhN2+~TfO-_B3LYPG-6-31G_dp-CH-Scan-d09-49-n800
 OpenBabel11261919533D

 23 22  0  0  0  0  0  0  0  0999 V2000
   -1.5774   -0.6727   -0.1251 C   0  0  0  0  0  0  0  0  0  0  0  0
   -2.8880   -1.1504    0.0423 N   0  0  0  0  0  0  0  0  0  0  0  0
   -3.9499   -1.4717    0.1637 N   0  0  0  0  0  0  0  0  0  0  0  0
   -1.5371    0.6707   -0.5068 C   0  0  0  0  0  0  0  0  0  0  0  0
   -0.1794    1.0859   -0.6520 C   0  0  0  0  0  0  0  0  0  0  0  0
    0.8844    0.2239   -0.4310 C   0  0  0  0  0  0  0  0  0  0  0  0
    2.2740    0.7253   -0.6032 N   0  0  0  0  0  0  0  0  0  0  0  0
    2.4197    1.8961   -0.9406 O   0  0  0  0  0  0  0  0  0  0  0  0
    3.1919   -0.0679   -0.3961 O   0  0  0  0  0  0  0  0  0  0  0  0
    0.7386   -1.1262   -0.0447 C   0  0  0  0  0  0  0  0  0  0  0  0
   -0.5385   -1.6101    0.1199 C   0  0  0  0  0  0  0  0  0  0  0  0
   -4.4508    2.6395   -1.1693 H   0  0  0  0  0  0  0  0  0  0  0  0
    0.0558    2.1048   -0.9456 H   0  0  0  0  0  0  0  0  0  0  0  0
    1.6162   -1.7384    0.1118 H   0  0  0  0  0  0  0  0  0  0  0  0
   -0.7305   -2.6368    0.4179 H   0  0  0  0  0  0  0  0  0  0  0  0
   -6.2039    1.5803   -1.8127 S   0  0  0  0  0  0  0  0  0  0  0  0
   -6.0079    1.6670   -3.6661 C   0  0  0  0  0  0  0  0  0  0  0  0
   -5.4930    0.3894   -1.3641 O   0  0  0  0  0  0  0  0  0  0  0  0
   -7.5948    1.8369   -1.5052 O   0  0  0  0  0  0  0  0  0  0  0  0
   -5.3606    2.9014   -1.3987 O   0  0  0  0  0  0  0  0  0  0  0  0
   -4.7092    1.6596   -3.9685 F   0  0  0  0  0  0  0  0  0  0  0  0
   -6.5995    0.6003   -4.1999 F   0  0  0  0  0  0  0  0  0  0  0  0
   -6.5723    2.7767   -4.1293 F   0  0  0  0  0  0  0  0  0  0  0  0
  1  2  1  0  0  0  0
  1 11  2  0  0  0  0
  2  3  1  0  0  0  0
  4  1  1  0  0  0  0
  5  4  2  0  0  0  0
  5  6  1  0  0  0  0
  6 10  2  0  0  0  0
  7  6  1  0  0  0  0
  7  9  2  0  0  0  0
  8  7  2  0  0  0  0
 10 14  1  0  0  0  0
 10 11  1  0  0  0  0
 11 15  1  0  0  0  0
 13  5  1  0  0  0  0
 16 19  2  0  0  0  0
 16 20  1  0  0  0  0
 16 18  2  0  0  0  0
 17 16  1  0  0  0  0
 20 12  1  0  0  0  0
 21 17  1  0  0  0  0
 22 17  1  0  0  0  0
 23 17  1  0  0  0  0
M  RAD  3   2   2   3   3   4   2
M  END
