Coordinates from ORCA-job 4-NO2PhN2+~TfO-_B3LYPG-6-31G_dp-CH-Scan-d09-49-n800
 OpenBabel11261919523D

 23 22  0  0  0  0  0  0  0  0999 V2000
   -1.7357   -0.6607   -0.1002 C   0  0  0  0  0  0  0  0  0  0  0  0
   -3.0168   -1.1792    0.1337 N   0  0  0  0  0  0  0  0  0  0  0  0
   -4.0557   -1.5454    0.3095 N   0  0  0  0  0  0  0  0  0  0  0  0
   -1.7423    0.6715   -0.5280 C   0  0  0  0  0  0  0  0  0  0  0  0
   -0.4072    1.1230   -0.7368 C   0  0  0  0  0  0  0  0  0  0  0  0
    0.6901    0.3013   -0.5246 C   0  0  0  0  0  0  0  0  0  0  0  0
    2.0563    0.8390   -0.7630 N   0  0  0  0  0  0  0  0  0  0  0  0
    2.1517    2.0012   -1.1442 O   0  0  0  0  0  0  0  0  0  0  0  0
    3.0045    0.0809   -0.5628 O   0  0  0  0  0  0  0  0  0  0  0  0
    0.5988   -1.0374   -0.0892 C   0  0  0  0  0  0  0  0  0  0  0  0
   -0.6564   -1.5534    0.1367 C   0  0  0  0  0  0  0  0  0  0  0  0
   -4.1294    2.2398   -1.0151 H   0  0  0  0  0  0  0  0  0  0  0  0
   -0.2160    2.1375   -1.0728 H   0  0  0  0  0  0  0  0  0  0  0  0
    1.4993   -1.6185    0.0562 H   0  0  0  0  0  0  0  0  0  0  0  0
   -0.8047   -2.5747    0.4741 H   0  0  0  0  0  0  0  0  0  0  0  0
   -5.9975    1.4928   -1.7693 S   0  0  0  0  0  0  0  0  0  0  0  0
   -5.7019    1.6809   -3.6008 C   0  0  0  0  0  0  0  0  0  0  0  0
   -5.4971    0.1742   -1.3960 O   0  0  0  0  0  0  0  0  0  0  0  0
   -7.3529    1.9243   -1.4987 O   0  0  0  0  0  0  0  0  0  0  0  0
   -5.0021    2.6353   -1.2167 O   0  0  0  0  0  0  0  0  0  0  0  0
   -4.4058    1.4973   -3.8580 F   0  0  0  0  0  0  0  0  0  0  0  0
   -6.4205    0.7593   -4.2403 F   0  0  0  0  0  0  0  0  0  0  0  0
   -6.0709    2.8946   -3.9967 F   0  0  0  0  0  0  0  0  0  0  0  0
  1  2  1  0  0  0  0
  1 11  2  0  0  0  0
  2  3  1  0  0  0  0
  4  1  1  0  0  0  0
  5  4  2  0  0  0  0
  5  6  1  0  0  0  0
  6 10  2  0  0  0  0
  7  9  2  0  0  0  0
  7  6  1  0  0  0  0
  8  7  2  0  0  0  0
 10 14  1  0  0  0  0
 10 11  1  0  0  0  0
 11 15  1  0  0  0  0
 13  5  1  0  0  0  0
 16 19  2  0  0  0  0
 16 18  2  0  0  0  0
 16 20  1  0  0  0  0
 17 16  1  0  0  0  0
 20 12  1  0  0  0  0
 21 17  1  0  0  0  0
 22 17  1  0  0  0  0
 23 17  1  0  0  0  0
M  RAD  3   2   2   3   3   4   2
M  END
