Coordinates from ORCA-job 4-NO2PhN2+~TfO-_B3LYPG-6-31G_dp-CH-Scan-d09-49-n800
 OpenBabel11261919533D

 23 22  0  0  0  0  0  0  0  0999 V2000
   -1.5613   -0.6180   -0.0235 C   0  0  0  0  0  0  0  0  0  0  0  0
   -2.8803   -1.0400    0.2221 N   0  0  0  0  0  0  0  0  0  0  0  0
   -3.9480   -1.3064    0.4104 N   0  0  0  0  0  0  0  0  0  0  0  0
   -1.4910    0.7350   -0.3602 C   0  0  0  0  0  0  0  0  0  0  0  0
   -0.1287    1.0977   -0.5879 C   0  0  0  0  0  0  0  0  0  0  0  0
    0.9080    0.1833   -0.4758 C   0  0  0  0  0  0  0  0  0  0  0  0
    2.3031    0.6308   -0.7307 N   0  0  0  0  0  0  0  0  0  0  0  0
    2.4773    1.8037   -1.0471 O   0  0  0  0  0  0  0  0  0  0  0  0
    3.1980   -0.2051   -0.6063 O   0  0  0  0  0  0  0  0  0  0  0  0
    0.7296   -1.1735   -0.1262 C   0  0  0  0  0  0  0  0  0  0  0  0
   -0.5528   -1.6087    0.1144 C   0  0  0  0  0  0  0  0  0  0  0  0
   -4.8653    2.8738   -1.0184 H   0  0  0  0  0  0  0  0  0  0  0  0
    0.1311    2.1166   -0.8608 H   0  0  0  0  0  0  0  0  0  0  0  0
    1.5882   -1.8272   -0.0547 H   0  0  0  0  0  0  0  0  0  0  0  0
   -0.7694   -2.6365    0.3915 H   0  0  0  0  0  0  0  0  0  0  0  0
   -6.2942    1.5123   -1.8690 S   0  0  0  0  0  0  0  0  0  0  0  0
   -5.8528    1.6807   -3.6741 C   0  0  0  0  0  0  0  0  0  0  0  0
   -5.4467    0.4637   -1.3168 O   0  0  0  0  0  0  0  0  0  0  0  0
   -7.7378    1.5053   -1.7667 O   0  0  0  0  0  0  0  0  0  0  0  0
   -5.7810    2.9581   -1.3382 O   0  0  0  0  0  0  0  0  0  0  0  0
   -4.5474    1.9324   -3.7813 F   0  0  0  0  0  0  0  0  0  0  0  0
   -6.1416    0.5338   -4.2850 F   0  0  0  0  0  0  0  0  0  0  0  0
   -6.5494    2.6717   -4.2184 F   0  0  0  0  0  0  0  0  0  0  0  0
  1 11  1  0  0  0  0
  1  2  1  0  0  0  0
  2  3  1  0  0  0  0
  4  1  2  0  0  0  0
  5  6  2  0  0  0  0
  5  4  1  0  0  0  0
  6 10  1  0  0  0  0
  7  9  2  0  0  0  0
  7  6  1  0  0  0  0
  8  7  2  0  0  0  0
 10 14  1  0  0  0  0
 10 11  2  0  0  0  0
 11 15  1  0  0  0  0
 13  5  1  0  0  0  0
 16 19  2  0  0  0  0
 16 20  1  0  0  0  0
 16 18  2  0  0  0  0
 17 16  1  0  0  0  0
 20 12  1  0  0  0  0
 21 17  1  0  0  0  0
 22 17  1  0  0  0  0
 23 17  1  0  0  0  0
M  RAD  3   2   2   3   3   4   2
M  END
