Coordinates from ORCA-job 4-NO2PhN2+~TfO-_B3LYPG-6-31G_dp-CH-Scan-d09-49-n800
 OpenBabel11261919523D

 23 22  0  0  0  0  0  0  0  0999 V2000
   -2.0379   -0.6027   -0.0784 C   0  0  0  0  0  0  0  0  0  0  0  0
   -3.2792   -1.1588    0.2286 N   0  0  0  0  0  0  0  0  0  0  0  0
   -4.2916   -1.5663    0.4458 N   0  0  0  0  0  0  0  0  0  0  0  0
   -2.0587    0.6928   -0.6130 C   0  0  0  0  0  0  0  0  0  0  0  0
   -0.7702    1.1894   -0.8940 C   0  0  0  0  0  0  0  0  0  0  0  0
    0.3619    0.4257   -0.6399 C   0  0  0  0  0  0  0  0  0  0  0  0
    1.6997    0.9963   -0.9514 N   0  0  0  0  0  0  0  0  0  0  0  0
    1.7333    2.1278   -1.4207 O   0  0  0  0  0  0  0  0  0  0  0  0
    2.6771    0.2905   -0.7149 O   0  0  0  0  0  0  0  0  0  0  0  0
    0.3230   -0.8698   -0.0999 C   0  0  0  0  0  0  0  0  0  0  0  0
   -0.9104   -1.4125    0.1959 C   0  0  0  0  0  0  0  0  0  0  0  0
   -3.2991    1.4618   -0.8911 H   0  0  0  0  0  0  0  0  0  0  0  0
   -0.6445    2.1803   -1.3156 H   0  0  0  0  0  0  0  0  0  0  0  0
    1.2448   -1.4094    0.0716 H   0  0  0  0  0  0  0  0  0  0  0  0
   -1.0102   -2.4088    0.6125 H   0  0  0  0  0  0  0  0  0  0  0  0
   -5.4565    1.3087   -1.6871 S   0  0  0  0  0  0  0  0  0  0  0  0
   -5.3482    1.7391   -3.4912 C   0  0  0  0  0  0  0  0  0  0  0  0
   -5.1685   -0.1377   -1.6249 O   0  0  0  0  0  0  0  0  0  0  0  0
   -6.7463    1.7996   -1.2213 O   0  0  0  0  0  0  0  0  0  0  0  0
   -4.2754    2.1208   -1.1112 O   0  0  0  0  0  0  0  0  0  0  0  0
   -4.1376    1.4078   -3.9627 F   0  0  0  0  0  0  0  0  0  0  0  0
   -6.2775    1.0616   -4.1707 F   0  0  0  0  0  0  0  0  0  0  0  0
   -5.5401    3.0474   -3.6692 F   0  0  0  0  0  0  0  0  0  0  0  0
  1 11  1  0  0  0  0
  1  2  1  0  0  0  0
  2  3  1  0  0  0  0
  4  1  2  0  0  0  0
  5  6  2  0  0  0  0
  5  4  1  0  0  0  0
  6 10  1  0  0  0  0
  7  9  2  0  0  0  0
  7  6  1  0  0  0  0
  8  7  2  0  0  0  0
 10 14  1  0  0  0  0
 10 11  2  0  0  0  0
 11 15  1  0  0  0  0
 13  5  1  0  0  0  0
 16 18  2  0  0  0  0
 16 19  2  0  0  0  0
 16 20  1  0  0  0  0
 17 16  1  0  0  0  0
 20 12  1  0  0  0  0
 21 17  1  0  0  0  0
 22 17  1  0  0  0  0
 23 17  1  0  0  0  0
M  RAD  3   2   2   3   3   4   2
M  END
