Coordinates from ORCA-job 4-NO2PhN2+~TfO-_B3LYPG-6-31G_dp-CH-Scan-d09-49-n800
 OpenBabel11261919523D

 23 22  0  0  0  0  0  0  0  0999 V2000
   -1.6943   -0.6661   -0.1103 C   0  0  0  0  0  0  0  0  0  0  0  0
   -2.9828   -1.1770    0.1026 N   0  0  0  0  0  0  0  0  0  0  0  0
   -4.0273   -1.5353    0.2613 N   0  0  0  0  0  0  0  0  0  0  0  0
   -1.6898    0.6687   -0.5285 C   0  0  0  0  0  0  0  0  0  0  0  0
   -0.3488    1.1135   -0.7167 C   0  0  0  0  0  0  0  0  0  0  0  0
    0.7409    0.2841   -0.4964 C   0  0  0  0  0  0  0  0  0  0  0  0
    2.1132    0.8153   -0.7133 N   0  0  0  0  0  0  0  0  0  0  0  0
    2.2206    1.9796   -1.0850 O   0  0  0  0  0  0  0  0  0  0  0  0
    3.0546    0.0506   -0.5059 O   0  0  0  0  0  0  0  0  0  0  0  0
    0.6368   -1.0575   -0.0717 C   0  0  0  0  0  0  0  0  0  0  0  0
   -0.6240   -1.5678    0.1344 C   0  0  0  0  0  0  0  0  0  0  0  0
   -4.1879    2.3214   -1.0632 H   0  0  0  0  0  0  0  0  0  0  0  0
   -0.1470    2.1293   -1.0429 H   0  0  0  0  0  0  0  0  0  0  0  0
    1.5321   -1.6444    0.0812 H   0  0  0  0  0  0  0  0  0  0  0  0
   -0.7828   -2.5906    0.4628 H   0  0  0  0  0  0  0  0  0  0  0  0
   -6.0451    1.5159   -1.7799 S   0  0  0  0  0  0  0  0  0  0  0  0
   -5.7965    1.6797   -3.6209 C   0  0  0  0  0  0  0  0  0  0  0  0
   -5.4992    0.2199   -1.3927 O   0  0  0  0  0  0  0  0  0  0  0  0
   -7.4044    1.9179   -1.4853 O   0  0  0  0  0  0  0  0  0  0  0  0
   -5.0658    2.6959   -1.2727 O   0  0  0  0  0  0  0  0  0  0  0  0
   -4.5041    1.5146   -3.9062 F   0  0  0  0  0  0  0  0  0  0  0  0
   -6.5140    0.7355   -4.2276 F   0  0  0  0  0  0  0  0  0  0  0  0
   -6.1965    2.8804   -4.0259 F   0  0  0  0  0  0  0  0  0  0  0  0
  1  2  1  0  0  0  0
  1 11  2  0  0  0  0
  2  3  1  0  0  0  0
  4  1  1  0  0  0  0
  5  4  2  0  0  0  0
  5  6  1  0  0  0  0
  6 10  2  0  0  0  0
  7  9  2  0  0  0  0
  7  6  1  0  0  0  0
  8  7  2  0  0  0  0
 10 14  1  0  0  0  0
 10 11  1  0  0  0  0
 11 15  1  0  0  0  0
 13  5  1  0  0  0  0
 16 19  2  0  0  0  0
 16 18  2  0  0  0  0
 16 20  1  0  0  0  0
 17 16  1  0  0  0  0
 20 12  1  0  0  0  0
 21 17  1  0  0  0  0
 22 17  1  0  0  0  0
 23 17  1  0  0  0  0
M  RAD  3   2   2   3   3   4   2
M  END
