Coordinates from ORCA-job 4-NO2PhN2+~TfO-_B3LYPG-6-31G_dp-CH-Scan-d09-49-n800
 OpenBabel11261919533D

 23 22  0  0  0  0  0  0  0  0999 V2000
   -1.5372   -0.6635   -0.1125 C   0  0  0  0  0  0  0  0  0  0  0  0
   -2.8563   -1.1200    0.0546 N   0  0  0  0  0  0  0  0  0  0  0  0
   -3.9251   -1.4190    0.1750 N   0  0  0  0  0  0  0  0  0  0  0  0
   -1.4801    0.6825   -0.4803 C   0  0  0  0  0  0  0  0  0  0  0  0
   -0.1162    1.0783   -0.6276 C   0  0  0  0  0  0  0  0  0  0  0  0
    0.9351    0.1978   -0.4212 C   0  0  0  0  0  0  0  0  0  0  0  0
    2.3315    0.6792   -0.5952 N   0  0  0  0  0  0  0  0  0  0  0  0
    2.4942    1.8509   -0.9220 O   0  0  0  0  0  0  0  0  0  0  0  0
    3.2382   -0.1299   -0.4001 O   0  0  0  0  0  0  0  0  0  0  0  0
    0.7707   -1.1542   -0.0478 C   0  0  0  0  0  0  0  0  0  0  0  0
   -0.5127   -1.6203    0.1183 C   0  0  0  0  0  0  0  0  0  0  0  0
   -4.6213    2.7732   -1.1572 H   0  0  0  0  0  0  0  0  0  0  0  0
    0.1333    2.0967   -0.9115 H   0  0  0  0  0  0  0  0  0  0  0  0
    1.6398   -1.7810    0.0981 H   0  0  0  0  0  0  0  0  0  0  0  0
   -0.7193   -2.6468    0.4071 H   0  0  0  0  0  0  0  0  0  0  0  0
   -6.2781    1.5859   -1.8326 S   0  0  0  0  0  0  0  0  0  0  0  0
   -6.0387    1.6671   -3.6814 C   0  0  0  0  0  0  0  0  0  0  0  0
   -5.4971    0.4546   -1.3489 O   0  0  0  0  0  0  0  0  0  0  0  0
   -7.6910    1.7491   -1.5648 O   0  0  0  0  0  0  0  0  0  0  0  0
   -5.5399    2.9689   -1.4140 O   0  0  0  0  0  0  0  0  0  0  0  0
   -4.7344    1.7375   -3.9497 F   0  0  0  0  0  0  0  0  0  0  0  0
   -6.5495    0.5611   -4.2183 F   0  0  0  0  0  0  0  0  0  0  0  0
   -6.6579    2.7355   -4.1707 F   0  0  0  0  0  0  0  0  0  0  0  0
  1  2  1  0  0  0  0
  1 11  2  0  0  0  0
  2  3  1  0  0  0  0
  4  1  1  0  0  0  0
  5  4  2  0  0  0  0
  5  6  1  0  0  0  0
  6 10  2  0  0  0  0
  7  6  1  0  0  0  0
  7  9  2  0  0  0  0
  8  7  2  0  0  0  0
 10 14  1  0  0  0  0
 10 11  1  0  0  0  0
 11 15  1  0  0  0  0
 13  5  1  0  0  0  0
 16 19  2  0  0  0  0
 16 20  1  0  0  0  0
 16 18  2  0  0  0  0
 17 16  1  0  0  0  0
 20 12  1  0  0  0  0
 21 17  1  0  0  0  0
 22 17  1  0  0  0  0
 23 17  1  0  0  0  0
M  RAD  3   2   2   3   3   4   2
M  END
