Coordinates from ORCA-job 4-NO2PhN2+~TfO-_B3LYPG-6-31G_dp-CH-Scan-d09-49-n800
 OpenBabel11261919523D

 23 22  0  0  0  0  0  0  0  0999 V2000
   -1.8048   -0.6565   -0.0967 C   0  0  0  0  0  0  0  0  0  0  0  0
   -3.0728   -1.1924    0.1594 N   0  0  0  0  0  0  0  0  0  0  0  0
   -4.1018   -1.5764    0.3524 N   0  0  0  0  0  0  0  0  0  0  0  0
   -1.8299    0.6711   -0.5405 C   0  0  0  0  0  0  0  0  0  0  0  0
   -0.5050    1.1380   -0.7712 C   0  0  0  0  0  0  0  0  0  0  0  0
    0.6055    0.3333   -0.5624 C   0  0  0  0  0  0  0  0  0  0  0  0
    1.9614    0.8865   -0.8236 N   0  0  0  0  0  0  0  0  0  0  0  0
    2.0358    2.0458   -1.2178 O   0  0  0  0  0  0  0  0  0  0  0  0
    2.9215    0.1430   -0.6272 O   0  0  0  0  0  0  0  0  0  0  0  0
    0.5365   -1.0006   -0.1105 C   0  0  0  0  0  0  0  0  0  0  0  0
   -0.7093   -1.5300    0.1367 C   0  0  0  0  0  0  0  0  0  0  0  0
   -3.9950    2.0880   -0.9656 H   0  0  0  0  0  0  0  0  0  0  0  0
   -0.3325    2.1507   -1.1215 H   0  0  0  0  0  0  0  0  0  0  0  0
    1.4458   -1.5688    0.0308 H   0  0  0  0  0  0  0  0  0  0  0  0
   -0.8397   -2.5491    0.4873 H   0  0  0  0  0  0  0  0  0  0  0  0
   -5.9016    1.4676   -1.7436 S   0  0  0  0  0  0  0  0  0  0  0  0
   -5.5709    1.6750   -3.5665 C   0  0  0  0  0  0  0  0  0  0  0  0
   -5.4886    0.1106   -1.3983 O   0  0  0  0  0  0  0  0  0  0  0  0
   -7.2354    1.9684   -1.4824 O   0  0  0  0  0  0  0  0  0  0  0  0
   -4.8529    2.5326   -1.1512 O   0  0  0  0  0  0  0  0  0  0  0  0
   -4.2817    1.4303   -3.8104 F   0  0  0  0  0  0  0  0  0  0  0  0
   -6.3252    0.8033   -4.2348 F   0  0  0  0  0  0  0  0  0  0  0  0
   -5.8716    2.9130   -3.9453 F   0  0  0  0  0  0  0  0  0  0  0  0
  1 11  1  0  0  0  0
  1  2  1  0  0  0  0
  2  3  1  0  0  0  0
  4  1  2  0  0  0  0
  5  6  2  0  0  0  0
  5  4  1  0  0  0  0
  6 10  1  0  0  0  0
  7  9  2  0  0  0  0
  7  6  1  0  0  0  0
  8  7  2  0  0  0  0
 10 14  1  0  0  0  0
 10 11  2  0  0  0  0
 11 15  1  0  0  0  0
 13  5  1  0  0  0  0
 16 19  2  0  0  0  0
 16 18  2  0  0  0  0
 16 20  1  0  0  0  0
 17 16  1  0  0  0  0
 20 12  1  0  0  0  0
 21 17  1  0  0  0  0
 22 17  1  0  0  0  0
 23 17  1  0  0  0  0
M  RAD  3   2   2   3   3   4   2
M  END
