Coordinates from ORCA-job 4-NO2PhN2+~TfO-_B3LYPG-6-31G_dp-CH-Scan-d09-49-n800
 OpenBabel11261919523D

 23 22  0  0  0  0  0  0  0  0999 V2000
   -1.6364   -0.6742   -0.1255 C   0  0  0  0  0  0  0  0  0  0  0  0
   -2.9349   -1.1743    0.0576 N   0  0  0  0  0  0  0  0  0  0  0  0
   -3.9874   -1.5194    0.1931 N   0  0  0  0  0  0  0  0  0  0  0  0
   -1.6166    0.6635   -0.5310 C   0  0  0  0  0  0  0  0  0  0  0  0
   -0.2679    1.0990   -0.6902 C   0  0  0  0  0  0  0  0  0  0  0  0
    0.8111    0.2589   -0.4583 C   0  0  0  0  0  0  0  0  0  0  0  0
    2.1913    0.7807   -0.6456 N   0  0  0  0  0  0  0  0  0  0  0  0
    2.3151    1.9474   -1.0049 O   0  0  0  0  0  0  0  0  0  0  0  0
    3.1230    0.0069   -0.4277 O   0  0  0  0  0  0  0  0  0  0  0  0
    0.6890   -1.0860   -0.0478 C   0  0  0  0  0  0  0  0  0  0  0  0
   -0.5792   -1.5880    0.1307 C   0  0  0  0  0  0  0  0  0  0  0  0
   -4.2777    2.4449   -1.1304 H   0  0  0  0  0  0  0  0  0  0  0  0
   -0.0517    2.1161   -1.0031 H   0  0  0  0  0  0  0  0  0  0  0  0
    1.5771   -1.6810    0.1158 H   0  0  0  0  0  0  0  0  0  0  0  0
   -0.7523   -2.6124    0.4471 H   0  0  0  0  0  0  0  0  0  0  0  0
   -6.1125    1.5501   -1.7941 S   0  0  0  0  0  0  0  0  0  0  0  0
   -5.9231    1.6766   -3.6454 C   0  0  0  0  0  0  0  0  0  0  0  0
   -5.5000    0.2905   -1.3883 O   0  0  0  0  0  0  0  0  0  0  0  0
   -7.4778    1.9055   -1.4693 O   0  0  0  0  0  0  0  0  0  0  0  0
   -5.1661    2.7842   -1.3480 O   0  0  0  0  0  0  0  0  0  0  0  0
   -4.6349    1.5460   -3.9645 F   0  0  0  0  0  0  0  0  0  0  0  0
   -6.6264    0.6949   -4.2068 F   0  0  0  0  0  0  0  0  0  0  0  0
   -6.3740    2.8535   -4.0661 F   0  0  0  0  0  0  0  0  0  0  0  0
  1  2  1  0  0  0  0
  1 11  2  0  0  0  0
  2  3  1  0  0  0  0
  4  1  1  0  0  0  0
  5  4  2  0  0  0  0
  5  6  1  0  0  0  0
  6 10  2  0  0  0  0
  7  6  1  0  0  0  0
  7  9  2  0  0  0  0
  8  7  2  0  0  0  0
 10 14  1  0  0  0  0
 10 11  1  0  0  0  0
 11 15  1  0  0  0  0
 13  5  1  0  0  0  0
 16 19  2  0  0  0  0
 16 18  2  0  0  0  0
 16 20  1  0  0  0  0
 17 16  1  0  0  0  0
 20 12  1  0  0  0  0
 21 17  1  0  0  0  0
 22 17  1  0  0  0  0
 23 17  1  0  0  0  0
M  RAD  3   2   2   3   3   4   2
M  END
