Coordinates from ORCA-job 4-NO2PhN2+~TfO-_B3LYPG-6-31G_dp-CH-Scan-d09-49-n800
 OpenBabel11261919523D

 23 22  0  0  0  0  0  0  0  0999 V2000
   -1.7838   -0.6571   -0.0962 C   0  0  0  0  0  0  0  0  0  0  0  0
   -3.0560   -1.1871    0.1543 N   0  0  0  0  0  0  0  0  0  0  0  0
   -4.0880   -1.5645    0.3444 N   0  0  0  0  0  0  0  0  0  0  0  0
   -1.8030    0.6722   -0.5340 C   0  0  0  0  0  0  0  0  0  0  0  0
   -0.4750    1.1337   -0.7595 C   0  0  0  0  0  0  0  0  0  0  0  0
    0.6313    0.3230   -0.5519 C   0  0  0  0  0  0  0  0  0  0  0  0
    1.9904    0.8707   -0.8077 N   0  0  0  0  0  0  0  0  0  0  0  0
    2.0715    2.0313   -1.1970 O   0  0  0  0  0  0  0  0  0  0  0  0
    2.9467    0.1220   -0.6118 O   0  0  0  0  0  0  0  0  0  0  0  0
    0.5552   -1.0128   -0.1060 C   0  0  0  0  0  0  0  0  0  0  0  0
   -0.6935   -1.5375    0.1360 C   0  0  0  0  0  0  0  0  0  0  0  0
   -4.0410    2.1390   -0.9772 H   0  0  0  0  0  0  0  0  0  0  0  0
   -0.2965    2.1472   -1.1050 H   0  0  0  0  0  0  0  0  0  0  0  0
    1.4617   -1.5856    0.0348 H   0  0  0  0  0  0  0  0  0  0  0  0
   -0.8296   -2.5575    0.4820 H   0  0  0  0  0  0  0  0  0  0  0  0
   -5.9329    1.4743   -1.7523 S   0  0  0  0  0  0  0  0  0  0  0  0
   -5.6073    1.6768   -3.5768 C   0  0  0  0  0  0  0  0  0  0  0  0
   -5.4912    0.1293   -1.3967 O   0  0  0  0  0  0  0  0  0  0  0  0
   -7.2755    1.9513   -1.4927 O   0  0  0  0  0  0  0  0  0  0  0  0
   -4.9044    2.5661   -1.1683 O   0  0  0  0  0  0  0  0  0  0  0  0
   -4.3135    1.4577   -3.8197 F   0  0  0  0  0  0  0  0  0  0  0  0
   -6.3437    0.7852   -4.2386 F   0  0  0  0  0  0  0  0  0  0  0  0
   -5.9343    2.9057   -3.9628 F   0  0  0  0  0  0  0  0  0  0  0  0
  1 11  1  0  0  0  0
  1  2  1  0  0  0  0
  2  3  1  0  0  0  0
  4  1  2  0  0  0  0
  5  6  2  0  0  0  0
  5  4  1  0  0  0  0
  6 10  1  0  0  0  0
  7  9  2  0  0  0  0
  7  6  1  0  0  0  0
  8  7  2  0  0  0  0
 10 14  1  0  0  0  0
 10 11  2  0  0  0  0
 11 15  1  0  0  0  0
 13  5  1  0  0  0  0
 16 19  2  0  0  0  0
 16 18  2  0  0  0  0
 16 20  1  0  0  0  0
 17 16  1  0  0  0  0
 20 12  1  0  0  0  0
 21 17  1  0  0  0  0
 22 17  1  0  0  0  0
 23 17  1  0  0  0  0
M  RAD  3   2   2   3   3   4   2
M  END
