Coordinates from ORCA-job 4-NO2PhN2+~TfO-_B3LYPG-6-31G_dp-CH-Scan-d09-49-n800
 OpenBabel11261919523D

 23 22  0  0  0  0  0  0  0  0999 V2000
   -1.8851   -0.6589   -0.1077 C   0  0  0  0  0  0  0  0  0  0  0  0
   -3.1375   -1.2208    0.1594 N   0  0  0  0  0  0  0  0  0  0  0  0
   -4.1544   -1.6308    0.3594 N   0  0  0  0  0  0  0  0  0  0  0  0
   -1.9316    0.6578   -0.5842 C   0  0  0  0  0  0  0  0  0  0  0  0
   -0.6203    1.1506   -0.8234 C   0  0  0  0  0  0  0  0  0  0  0  0
    0.5076    0.3764   -0.5921 C   0  0  0  0  0  0  0  0  0  0  0  0
    1.8510    0.9549   -0.8628 N   0  0  0  0  0  0  0  0  0  0  0  0
    1.8985    2.1060   -1.2834 O   0  0  0  0  0  0  0  0  0  0  0  0
    2.8266    0.2382   -0.6461 O   0  0  0  0  0  0  0  0  0  0  0  0
    0.4662   -0.9464   -0.1090 C   0  0  0  0  0  0  0  0  0  0  0  0
   -0.7686   -1.4977    0.1477 C   0  0  0  0  0  0  0  0  0  0  0  0
   -3.7708    1.8481   -0.9540 H   0  0  0  0  0  0  0  0  0  0  0  0
   -0.4723    2.1584   -1.1974 H   0  0  0  0  0  0  0  0  0  0  0  0
    1.3872   -1.4914    0.0483 H   0  0  0  0  0  0  0  0  0  0  0  0
   -0.8766   -2.5110    0.5214 H   0  0  0  0  0  0  0  0  0  0  0  0
   -5.7532    1.4414   -1.7071 S   0  0  0  0  0  0  0  0  0  0  0  0
   -5.4707    1.6777   -3.5330 C   0  0  0  0  0  0  0  0  0  0  0  0
   -5.4582    0.0374   -1.4251 O   0  0  0  0  0  0  0  0  0  0  0  0
   -7.0357    2.0381   -1.3899 O   0  0  0  0  0  0  0  0  0  0  0  0
   -4.6017    2.3782   -1.1210 O   0  0  0  0  0  0  0  0  0  0  0  0
   -4.2292    1.2945   -3.8430 F   0  0  0  0  0  0  0  0  0  0  0  0
   -6.3468    0.9267   -4.2007 F   0  0  0  0  0  0  0  0  0  0  0  0
   -5.6365    2.9564   -3.8591 F   0  0  0  0  0  0  0  0  0  0  0  0
  1 11  1  0  0  0  0
  1  2  1  0  0  0  0
  2  3  1  0  0  0  0
  4  1  2  0  0  0  0
  5  6  2  0  0  0  0
  5  4  1  0  0  0  0
  6 10  1  0  0  0  0
  7  9  2  0  0  0  0
  7  6  1  0  0  0  0
  8  7  2  0  0  0  0
 10 14  1  0  0  0  0
 10 11  2  0  0  0  0
 11 15  1  0  0  0  0
 13  5  1  0  0  0  0
 16 18  2  0  0  0  0
 16 19  2  0  0  0  0
 16 20  1  0  0  0  0
 17 16  1  0  0  0  0
 20 12  1  0  0  0  0
 21 17  1  0  0  0  0
 22 17  1  0  0  0  0
 23 17  1  0  0  0  0
M  RAD  3   2   2   3   3   4   2
M  END
