Coordinates from ORCA-job 4-NO2PhN2+~TfO-_B3LYPG-6-31G_dp-CH-Scan-d09-49-n800
 OpenBabel11261919533D

 23 22  0  0  0  0  0  0  0  0999 V2000
   -2.0237   -0.2269    0.5202 C   0  0  0  0  0  0  0  0  0  0  0  0
   -3.1266   -0.5374    1.3376 N   0  0  0  0  0  0  0  0  0  0  0  0
   -3.9798   -0.7087    2.0366 N   0  0  0  0  0  0  0  0  0  0  0  0
   -1.4210    0.9676    0.9103 C   0  0  0  0  0  0  0  0  0  0  0  0
   -0.3074    1.2391    0.0586 C   0  0  0  0  0  0  0  0  0  0  0  0
    0.0499    0.3888   -0.9776 C   0  0  0  0  0  0  0  0  0  0  0  0
    1.2188    0.7338   -1.8296 N   0  0  0  0  0  0  0  0  0  0  0  0
    1.8403    1.7569   -1.5587 O   0  0  0  0  0  0  0  0  0  0  0  0
    1.4916   -0.0293   -2.7564 O   0  0  0  0  0  0  0  0  0  0  0  0
   -0.6365   -0.8052   -1.2933 C   0  0  0  0  0  0  0  0  0  0  0  0
   -1.7240   -1.1429   -0.5212 C   0  0  0  0  0  0  0  0  0  0  0  0
   -5.3321    2.8015   -0.7690 H   0  0  0  0  0  0  0  0  0  0  0  0
    0.2939    2.1322    0.2042 H   0  0  0  0  0  0  0  0  0  0  0  0
   -0.3001   -1.4161   -2.1202 H   0  0  0  0  0  0  0  0  0  0  0  0
   -2.3063   -2.0412   -0.7035 H   0  0  0  0  0  0  0  0  0  0  0  0
   -5.4217    1.0069   -1.9437 S   0  0  0  0  0  0  0  0  0  0  0  0
   -3.8488    1.1558   -2.9390 C   0  0  0  0  0  0  0  0  0  0  0  0
   -5.0761    0.3411   -0.6924 O   0  0  0  0  0  0  0  0  0  0  0  0
   -6.4662    0.5403   -2.8286 O   0  0  0  0  0  0  0  0  0  0  0  0
   -5.6949    2.5798   -1.6449 O   0  0  0  0  0  0  0  0  0  0  0  0
   -2.9349    1.7971   -2.2106 F   0  0  0  0  0  0  0  0  0  0  0  0
   -3.4205   -0.0732   -3.2213 F   0  0  0  0  0  0  0  0  0  0  0  0
   -4.0862    1.8235   -4.0603 F   0  0  0  0  0  0  0  0  0  0  0  0
  1  4  1  0  0  0  0
  1  2  1  0  0  0  0
  2  3  1  0  0  0  0
  5 13  1  0  0  0  0
  5  4  2  0  0  0  0
  6  5  1  0  0  0  0
  7  8  2  0  0  0  0
  7  6  1  0  0  0  0
  9  7  2  0  0  0  0
 10  6  2  0  0  0  0
 10 11  1  0  0  0  0
 11  1  2  0  0  0  0
 14 10  1  0  0  0  0
 15 11  1  0  0  0  0
 16 20  1  0  0  0  0
 16 18  2  0  0  0  0
 17 21  1  0  0  0  0
 17 16  1  0  0  0  0
 19 16  2  0  0  0  0
 20 12  1  0  0  0  0
 22 17  1  0  0  0  0
 23 17  1  0  0  0  0
M  RAD  3   2   2   3   3   4   2
M  END
