Coordinates from ORCA-job 4-NO2PhN2+~TfO-_B3LYPG-6-31G_dp-CH-Scan-d09-49-n800
 OpenBabel11261919523D

 23 22  0  0  0  0  0  0  0  0999 V2000
   -2.0349   -0.6124   -0.0775 C   0  0  0  0  0  0  0  0  0  0  0  0
   -3.2716   -1.1769    0.2351 N   0  0  0  0  0  0  0  0  0  0  0  0
   -4.2786   -1.5928    0.4620 N   0  0  0  0  0  0  0  0  0  0  0  0
   -2.0714    0.6865   -0.6036 C   0  0  0  0  0  0  0  0  0  0  0  0
   -0.7831    1.1874   -0.8888 C   0  0  0  0  0  0  0  0  0  0  0  0
    0.3541    0.4278   -0.6477 C   0  0  0  0  0  0  0  0  0  0  0  0
    1.6874    1.0061   -0.9646 N   0  0  0  0  0  0  0  0  0  0  0  0
    1.7137    2.1404   -1.4279 O   0  0  0  0  0  0  0  0  0  0  0  0
    2.6699    0.3036   -0.7385 O   0  0  0  0  0  0  0  0  0  0  0  0
    0.3256   -0.8720   -0.1154 C   0  0  0  0  0  0  0  0  0  0  0  0
   -0.9029   -1.4215    0.1848 C   0  0  0  0  0  0  0  0  0  0  0  0
   -3.3581    1.4874   -0.8813 H   0  0  0  0  0  0  0  0  0  0  0  0
   -0.6617    2.1815   -1.3046 H   0  0  0  0  0  0  0  0  0  0  0  0
    1.2512   -1.4080    0.0464 H   0  0  0  0  0  0  0  0  0  0  0  0
   -0.9960   -2.4208    0.5962 H   0  0  0  0  0  0  0  0  0  0  0  0
   -5.4780    1.3238   -1.6809 S   0  0  0  0  0  0  0  0  0  0  0  0
   -5.3093    1.7260   -3.4873 C   0  0  0  0  0  0  0  0  0  0  0  0
   -5.2166   -0.1231   -1.5844 O   0  0  0  0  0  0  0  0  0  0  0  0
   -6.7632    1.8566   -1.2537 O   0  0  0  0  0  0  0  0  0  0  0  0
   -4.2935    2.1302   -1.0842 O   0  0  0  0  0  0  0  0  0  0  0  0
   -4.0920    1.3652   -3.9165 F   0  0  0  0  0  0  0  0  0  0  0  0
   -6.2313    1.0543   -4.1816 F   0  0  0  0  0  0  0  0  0  0  0  0
   -5.4719    3.0341   -3.6889 F   0  0  0  0  0  0  0  0  0  0  0  0
  1 11  1  0  0  0  0
  1  2  1  0  0  0  0
  2  3  1  0  0  0  0
  4  1  2  0  0  0  0
  5  6  2  0  0  0  0
  5  4  1  0  0  0  0
  6 10  1  0  0  0  0
  7  9  2  0  0  0  0
  7  6  1  0  0  0  0
  8  7  2  0  0  0  0
 10 14  1  0  0  0  0
 10 11  2  0  0  0  0
 11 15  1  0  0  0  0
 13  5  1  0  0  0  0
 16 18  2  0  0  0  0
 16 19  2  0  0  0  0
 16 20  1  0  0  0  0
 17 16  1  0  0  0  0
 20 12  1  0  0  0  0
 21 17  1  0  0  0  0
 22 17  1  0  0  0  0
 23 17  1  0  0  0  0
M  RAD  3   2   2   3   3   4   2
M  END
