Coordinates from ORCA-job 4-NO2PhN2+~TfO-_B3LYPG-6-31G_dp-CH-Scan-d09-49-n800
 OpenBabel11261919523D

 23 22  0  0  0  0  0  0  0  0999 V2000
   -2.1745   -0.2639    0.0688 C   0  0  0  0  0  0  0  0  0  0  0  0
   -3.4419   -0.5729    0.5604 N   0  0  0  0  0  0  0  0  0  0  0  0
   -4.5618   -0.4964    0.6894 N   0  0  0  0  0  0  0  0  0  0  0  0
   -2.0461    0.8415   -0.7861 C   0  0  0  0  0  0  0  0  0  0  0  0
   -0.7694    1.1275   -1.2583 C   0  0  0  0  0  0  0  0  0  0  0  0
    0.2972    0.3184   -0.8735 C   0  0  0  0  0  0  0  0  0  0  0  0
    1.6516    0.6395   -1.3889 N   0  0  0  0  0  0  0  0  0  0  0  0
    1.7520    1.6135   -2.1260 O   0  0  0  0  0  0  0  0  0  0  0  0
    2.5703   -0.0933   -1.0351 O   0  0  0  0  0  0  0  0  0  0  0  0
    0.1586   -0.7793   -0.0245 C   0  0  0  0  0  0  0  0  0  0  0  0
   -1.1064   -1.0794    0.4629 C   0  0  0  0  0  0  0  0  0  0  0  0
   -2.7741    1.3463   -1.0155 H   0  0  0  0  0  0  0  0  0  0  0  0
   -0.5991    1.9631   -1.9258 H   0  0  0  0  0  0  0  0  0  0  0  0
    1.0272   -1.3694    0.2368 H   0  0  0  0  0  0  0  0  0  0  0  0
   -1.2731   -1.9223    1.1236 H   0  0  0  0  0  0  0  0  0  0  0  0
   -5.4471    0.5644   -1.9562 S   0  0  0  0  0  0  0  0  0  0  0  0
   -5.0901    2.0915   -2.9639 C   0  0  0  0  0  0  0  0  0  0  0  0
   -4.3451   -0.3669   -2.2863 O   0  0  0  0  0  0  0  0  0  0  0  0
   -6.8112    0.1793   -2.3117 O   0  0  0  0  0  0  0  0  0  0  0  0
   -5.2756    1.1208   -0.5458 O   0  0  0  0  0  0  0  0  0  0  0  0
   -3.8451    2.5525   -2.6904 F   0  0  0  0  0  0  0  0  0  0  0  0
   -5.1466    1.8067   -4.2671 F   0  0  0  0  0  0  0  0  0  0  0  0
   -5.9621    3.0622   -2.6895 F   0  0  0  0  0  0  0  0  0  0  0  0
  1 11  1  0  0  0  0
  1  2  1  0  0  0  0
  2  3  1  0  0  0  0
  4  1  2  0  0  0  0
  5  6  2  0  0  0  0
  5  4  1  0  0  0  0
  6 10  1  0  0  0  0
  7  9  2  0  0  0  0
  7  6  1  0  0  0  0
  8  7  2  0  0  0  0
 10 14  1  0  0  0  0
 10 11  2  0  0  0  0
 11 15  1  0  0  0  0
 12  4  1  0  0  0  0
 13  5  1  0  0  0  0
 16 20  1  0  0  0  0
 17 21  1  0  0  0  0
 17 23  1  0  0  0  0
 17 16  1  0  0  0  0
 18 16  2  0  0  0  0
 19 16  2  0  0  0  0
 22 17  1  0  0  0  0
M  RAD  3   2   2   3   3  20   2
M  END
