Coordinates from ORCA-job 4-NO2PhN2+~TfO-_B3LYPG-6-31G_dp-CH-Scan-d09-49-n800
 OpenBabel11261919533D

 23 22  0  0  0  0  0  0  0  0999 V2000
   -1.5397   -0.6587   -0.1036 C   0  0  0  0  0  0  0  0  0  0  0  0
   -2.8592   -1.1113    0.0714 N   0  0  0  0  0  0  0  0  0  0  0  0
   -3.9283   -1.4074    0.1961 N   0  0  0  0  0  0  0  0  0  0  0  0
   -1.4814    0.6859   -0.4761 C   0  0  0  0  0  0  0  0  0  0  0  0
   -0.1174    1.0776   -0.6328 C   0  0  0  0  0  0  0  0  0  0  0  0
    0.9328    0.1951   -0.4299 C   0  0  0  0  0  0  0  0  0  0  0  0
    2.3294    0.6719   -0.6144 N   0  0  0  0  0  0  0  0  0  0  0  0
    2.4933    1.8419   -0.9468 O   0  0  0  0  0  0  0  0  0  0  0  0
    3.2352   -0.1386   -0.4208 O   0  0  0  0  0  0  0  0  0  0  0  0
    0.7671   -1.1552   -0.0506 C   0  0  0  0  0  0  0  0  0  0  0  0
   -0.5165   -1.6173    0.1248 C   0  0  0  0  0  0  0  0  0  0  0  0
   -4.6583    2.7860   -1.1284 H   0  0  0  0  0  0  0  0  0  0  0  0
    0.1330    2.0944   -0.9216 H   0  0  0  0  0  0  0  0  0  0  0  0
    1.6355   -1.7837    0.0925 H   0  0  0  0  0  0  0  0  0  0  0  0
   -0.7241   -2.6423    0.4185 H   0  0  0  0  0  0  0  0  0  0  0  0
   -6.2842    1.5750   -1.8365 S   0  0  0  0  0  0  0  0  0  0  0  0
   -6.0129    1.6729   -3.6800 C   0  0  0  0  0  0  0  0  0  0  0  0
   -5.4936    0.4534   -1.3460 O   0  0  0  0  0  0  0  0  0  0  0  0
   -7.7042    1.7135   -1.5932 O   0  0  0  0  0  0  0  0  0  0  0  0
   -5.5771    2.9672   -1.3947 O   0  0  0  0  0  0  0  0  0  0  0  0
   -4.7053    1.7662   -3.9242 F   0  0  0  0  0  0  0  0  0  0  0  0
   -6.4959    0.5625   -4.2332 F   0  0  0  0  0  0  0  0  0  0  0  0
   -6.6405    2.7345   -4.1732 F   0  0  0  0  0  0  0  0  0  0  0  0
  1  2  1  0  0  0  0
  1 11  2  0  0  0  0
  2  3  1  0  0  0  0
  4  1  1  0  0  0  0
  5  4  2  0  0  0  0
  5  6  1  0  0  0  0
  6 10  2  0  0  0  0
  7  6  1  0  0  0  0
  7  9  2  0  0  0  0
  8  7  2  0  0  0  0
 10 14  1  0  0  0  0
 10 11  1  0  0  0  0
 11 15  1  0  0  0  0
 13  5  1  0  0  0  0
 16 19  2  0  0  0  0
 16 20  1  0  0  0  0
 16 18  2  0  0  0  0
 17 16  1  0  0  0  0
 20 12  1  0  0  0  0
 21 17  1  0  0  0  0
 22 17  1  0  0  0  0
 23 17  1  0  0  0  0
M  RAD  3   2   2   3   3   4   2
M  END
