Coordinates from ORCA-job 4-NO2PhN2+~TfO-_B3LYPG-6-31G_dp-CH-Scan-d09-49-n800
 OpenBabel11261919523D

 23 22  0  0  0  0  0  0  0  0999 V2000
   -2.0342   -0.6130   -0.0776 C   0  0  0  0  0  0  0  0  0  0  0  0
   -3.2708   -1.1778    0.2349 N   0  0  0  0  0  0  0  0  0  0  0  0
   -4.2777   -1.5941    0.4619 N   0  0  0  0  0  0  0  0  0  0  0  0
   -2.0712    0.6860   -0.6033 C   0  0  0  0  0  0  0  0  0  0  0  0
   -0.7828    1.1871   -0.8884 C   0  0  0  0  0  0  0  0  0  0  0  0
    0.3546    0.4277   -0.6475 C   0  0  0  0  0  0  0  0  0  0  0  0
    1.6878    1.0062   -0.9643 N   0  0  0  0  0  0  0  0  0  0  0  0
    1.7139    2.1406   -1.4275 O   0  0  0  0  0  0  0  0  0  0  0  0
    2.6704    0.3037   -0.7387 O   0  0  0  0  0  0  0  0  0  0  0  0
    0.3264   -0.8723   -0.1156 C   0  0  0  0  0  0  0  0  0  0  0  0
   -0.9021   -1.4221    0.1845 C   0  0  0  0  0  0  0  0  0  0  0  0
   -3.3619    1.4898   -0.8816 H   0  0  0  0  0  0  0  0  0  0  0  0
   -0.6615    2.1814   -1.3039 H   0  0  0  0  0  0  0  0  0  0  0  0
    1.2520   -1.4083    0.0459 H   0  0  0  0  0  0  0  0  0  0  0  0
   -0.9950   -2.4216    0.5955 H   0  0  0  0  0  0  0  0  0  0  0  0
   -5.4796    1.3249   -1.6808 S   0  0  0  0  0  0  0  0  0  0  0  0
   -5.3091    1.7255   -3.4874 C   0  0  0  0  0  0  0  0  0  0  0  0
   -5.2191   -0.1219   -1.5827 O   0  0  0  0  0  0  0  0  0  0  0  0
   -6.7644    1.8594   -1.2549 O   0  0  0  0  0  0  0  0  0  0  0  0
   -4.2948    2.1314   -1.0839 O   0  0  0  0  0  0  0  0  0  0  0  0
   -4.0916    1.3635   -3.9152 F   0  0  0  0  0  0  0  0  0  0  0  0
   -6.2309    1.0537   -4.1818 F   0  0  0  0  0  0  0  0  0  0  0  0
   -5.4708    3.0335   -3.6903 F   0  0  0  0  0  0  0  0  0  0  0  0
  1 11  1  0  0  0  0
  1  2  1  0  0  0  0
  2  3  1  0  0  0  0
  4  1  2  0  0  0  0
  5  6  2  0  0  0  0
  5  4  1  0  0  0  0
  6 10  1  0  0  0  0
  7  9  2  0  0  0  0
  7  6  1  0  0  0  0
  8  7  2  0  0  0  0
 10 14  1  0  0  0  0
 10 11  2  0  0  0  0
 11 15  1  0  0  0  0
 13  5  1  0  0  0  0
 16 18  2  0  0  0  0
 16 19  2  0  0  0  0
 16 20  1  0  0  0  0
 17 16  1  0  0  0  0
 20 12  1  0  0  0  0
 21 17  1  0  0  0  0
 22 17  1  0  0  0  0
 23 17  1  0  0  0  0
M  RAD  3   2   2   3   3   4   2
M  END
