Coordinates from ORCA-job 4-NO2PhN2+~TfO-_B3LYPG-6-31G_dp-CH-Scan-d09-49-n800
 OpenBabel11261919523D

 23 22  0  0  0  0  0  0  0  0999 V2000
   -2.0277   -0.6207   -0.0790 C   0  0  0  0  0  0  0  0  0  0  0  0
   -3.2623   -1.1906    0.2342 N   0  0  0  0  0  0  0  0  0  0  0  0
   -4.2670   -1.6110    0.4637 N   0  0  0  0  0  0  0  0  0  0  0  0
   -2.0741    0.6806   -0.5990 C   0  0  0  0  0  0  0  0  0  0  0  0
   -0.7850    1.1843   -0.8843 C   0  0  0  0  0  0  0  0  0  0  0  0
    0.3550    0.4273   -0.6498 C   0  0  0  0  0  0  0  0  0  0  0  0
    1.6860    1.0105   -0.9675 N   0  0  0  0  0  0  0  0  0  0  0  0
    1.7087    2.1472   -1.4257 O   0  0  0  0  0  0  0  0  0  0  0  0
    2.6714    0.3105   -0.7458 O   0  0  0  0  0  0  0  0  0  0  0  0
    0.3325   -0.8755   -0.1232 C   0  0  0  0  0  0  0  0  0  0  0  0
   -0.8935   -1.4296    0.1774 C   0  0  0  0  0  0  0  0  0  0  0  0
   -3.4057    1.5140   -0.8798 H   0  0  0  0  0  0  0  0  0  0  0  0
   -0.6653    2.1806   -1.2956 H   0  0  0  0  0  0  0  0  0  0  0  0
    1.2602   -1.4093    0.0337 H   0  0  0  0  0  0  0  0  0  0  0  0
   -0.9830   -2.4310    0.5848 H   0  0  0  0  0  0  0  0  0  0  0  0
   -5.4992    1.3386   -1.6779 S   0  0  0  0  0  0  0  0  0  0  0  0
   -5.2939    1.7160   -3.4863 C   0  0  0  0  0  0  0  0  0  0  0  0
   -5.2555   -0.1074   -1.5546 O   0  0  0  0  0  0  0  0  0  0  0  0
   -6.7785    1.9012   -1.2755 O   0  0  0  0  0  0  0  0  0  0  0  0
   -4.3114    2.1445   -1.0715 O   0  0  0  0  0  0  0  0  0  0  0  0
   -4.0737    1.3357   -3.8882 F   0  0  0  0  0  0  0  0  0  0  0  0
   -6.2118    1.0451   -4.1861 F   0  0  0  0  0  0  0  0  0  0  0  0
   -5.4383    3.0228   -3.7066 F   0  0  0  0  0  0  0  0  0  0  0  0
  1 11  1  0  0  0  0
  1  2  1  0  0  0  0
  2  3  1  0  0  0  0
  4  1  2  0  0  0  0
  5  6  2  0  0  0  0
  5  4  1  0  0  0  0
  6 10  1  0  0  0  0
  7  9  2  0  0  0  0
  7  6  1  0  0  0  0
  8  7  2  0  0  0  0
 10 14  1  0  0  0  0
 10 11  2  0  0  0  0
 11 15  1  0  0  0  0
 13  5  1  0  0  0  0
 16 18  2  0  0  0  0
 16 19  2  0  0  0  0
 16 20  1  0  0  0  0
 17 16  1  0  0  0  0
 20 12  1  0  0  0  0
 21 17  1  0  0  0  0
 22 17  1  0  0  0  0
 23 17  1  0  0  0  0
M  RAD  3   2   2   3   3   4   2
M  END
