Coordinates from ORCA-job 4-NO2PhN2+~TfO-_B3LYPG-6-31G_dp-CH-Scan-d09-49-n800
 OpenBabel11261919523D

 23 22  0  0  0  0  0  0  0  0999 V2000
   -2.0248   -0.5957   -0.0985 C   0  0  0  0  0  0  0  0  0  0  0  0
   -3.2787   -1.1378    0.1779 N   0  0  0  0  0  0  0  0  0  0  0  0
   -4.3099   -1.5187    0.3509 N   0  0  0  0  0  0  0  0  0  0  0  0
   -2.0123    0.6920   -0.6508 C   0  0  0  0  0  0  0  0  0  0  0  0
   -0.7207    1.1845   -0.9045 C   0  0  0  0  0  0  0  0  0  0  0  0
    0.3994    0.4177   -0.6074 C   0  0  0  0  0  0  0  0  0  0  0  0
    1.7481    0.9783   -0.8880 N   0  0  0  0  0  0  0  0  0  0  0  0
    1.7992    2.1038   -1.3695 O   0  0  0  0  0  0  0  0  0  0  0  0
    2.7143    0.2704   -0.6156 O   0  0  0  0  0  0  0  0  0  0  0  0
    0.3367   -0.8687   -0.0516 C   0  0  0  0  0  0  0  0  0  0  0  0
   -0.9082   -1.4021    0.2172 C   0  0  0  0  0  0  0  0  0  0  0  0
   -3.1831    1.4212   -0.9463 H   0  0  0  0  0  0  0  0  0  0  0  0
   -0.5831    2.1695   -1.3355 H   0  0  0  0  0  0  0  0  0  0  0  0
    1.2500   -1.4111    0.1534 H   0  0  0  0  0  0  0  0  0  0  0  0
   -1.0242   -2.3921    0.6442 H   0  0  0  0  0  0  0  0  0  0  0  0
   -5.4286    1.3040   -1.7013 S   0  0  0  0  0  0  0  0  0  0  0  0
   -5.4781    1.7566   -3.5018 C   0  0  0  0  0  0  0  0  0  0  0  0
   -5.1116   -0.1426   -1.6920 O   0  0  0  0  0  0  0  0  0  0  0  0
   -6.7009    1.7400   -1.1363 O   0  0  0  0  0  0  0  0  0  0  0  0
   -4.2320    2.1231   -1.2065 O   0  0  0  0  0  0  0  0  0  0  0  0
   -4.3077    1.4531   -4.0823 F   0  0  0  0  0  0  0  0  0  0  0  0
   -6.4513    1.0736   -4.1125 F   0  0  0  0  0  0  0  0  0  0  0  0
   -5.7049    3.0646   -3.6462 F   0  0  0  0  0  0  0  0  0  0  0  0
  1  2  1  0  0  0  0
  1 11  2  0  0  0  0
  2  3  1  0  0  0  0
  4  1  1  0  0  0  0
  5  4  2  0  0  0  0
  5  6  1  0  0  0  0
  6 10  2  0  0  0  0
  7  9  2  0  0  0  0
  7  6  1  0  0  0  0
  8  7  2  0  0  0  0
 10 14  1  0  0  0  0
 10 11  1  0  0  0  0
 11 15  1  0  0  0  0
 13  5  1  0  0  0  0
 16 18  2  0  0  0  0
 16 20  1  0  0  0  0
 16 19  2  0  0  0  0
 17 16  1  0  0  0  0
 20 12  1  0  0  0  0
 21 17  1  0  0  0  0
 22 17  1  0  0  0  0
 23 17  1  0  0  0  0
M  RAD  3   2   2   3   3   4   2
M  END
