Coordinates from ORCA-job 4-NO2PhN2+~TfO-_B3LYPG-6-31G_dp-CH-Scan-d09-49-n800
 OpenBabel11261919533D

 23 22  0  0  0  0  0  0  0  0999 V2000
   -1.5715   -0.6718   -0.1229 C   0  0  0  0  0  0  0  0  0  0  0  0
   -2.8831   -1.1468    0.0451 N   0  0  0  0  0  0  0  0  0  0  0  0
   -3.9461   -1.4671    0.1624 N   0  0  0  0  0  0  0  0  0  0  0  0
   -1.5292    0.6720   -0.5030 C   0  0  0  0  0  0  0  0  0  0  0  0
   -0.1707    1.0846   -0.6484 C   0  0  0  0  0  0  0  0  0  0  0  0
    0.8915    0.2202   -0.4294 C   0  0  0  0  0  0  0  0  0  0  0  0
    2.2820    0.7190   -0.6019 N   0  0  0  0  0  0  0  0  0  0  0  0
    2.4299    1.8900   -0.9378 O   0  0  0  0  0  0  0  0  0  0  0  0
    3.1985   -0.0763   -0.3964 O   0  0  0  0  0  0  0  0  0  0  0  0
    0.7434   -1.1302   -0.0447 C   0  0  0  0  0  0  0  0  0  0  0  0
   -0.5344   -1.6118    0.1202 C   0  0  0  0  0  0  0  0  0  0  0  0
   -4.4727    2.6589   -1.1698 H   0  0  0  0  0  0  0  0  0  0  0  0
    0.0664    2.1035   -0.9406 H   0  0  0  0  0  0  0  0  0  0  0  0
    1.6200   -1.7443    0.1104 H   0  0  0  0  0  0  0  0  0  0  0  0
   -0.7283   -2.6385    0.4172 H   0  0  0  0  0  0  0  0  0  0  0  0
   -6.2145    1.5818   -1.8154 S   0  0  0  0  0  0  0  0  0  0  0  0
   -6.0133    1.6672   -3.6683 C   0  0  0  0  0  0  0  0  0  0  0  0
   -5.4933    0.3993   -1.3620 O   0  0  0  0  0  0  0  0  0  0  0  0
   -7.6087    1.8257   -1.5126 O   0  0  0  0  0  0  0  0  0  0  0  0
   -5.3850    2.9118   -1.4011 O   0  0  0  0  0  0  0  0  0  0  0  0
   -4.7135    1.6717   -3.9663 F   0  0  0  0  0  0  0  0  0  0  0  0
   -6.5930    0.5940   -4.2022 F   0  0  0  0  0  0  0  0  0  0  0  0
   -6.5866    2.7707   -4.1352 F   0  0  0  0  0  0  0  0  0  0  0  0
  1  2  1  0  0  0  0
  1 11  2  0  0  0  0
  2  3  1  0  0  0  0
  4  1  1  0  0  0  0
  5  4  2  0  0  0  0
  5  6  1  0  0  0  0
  6 10  2  0  0  0  0
  7  6  1  0  0  0  0
  7  9  2  0  0  0  0
  8  7  2  0  0  0  0
 10 14  1  0  0  0  0
 10 11  1  0  0  0  0
 11 15  1  0  0  0  0
 13  5  1  0  0  0  0
 16 19  2  0  0  0  0
 16 20  1  0  0  0  0
 16 18  2  0  0  0  0
 17 16  1  0  0  0  0
 20 12  1  0  0  0  0
 21 17  1  0  0  0  0
 22 17  1  0  0  0  0
 23 17  1  0  0  0  0
M  RAD  3   2   2   3   3   4   2
M  END
