Coordinates from ORCA-job 4-NO2PhN2+~TfO-_B3LYPG-6-31G_dp-CH-Scan-d09-49-n800
 OpenBabel11261919533D

 23 22  0  0  0  0  0  0  0  0999 V2000
   -1.5199   -0.6079   -0.0213 C   0  0  0  0  0  0  0  0  0  0  0  0
   -2.8469   -1.0121    0.2133 N   0  0  0  0  0  0  0  0  0  0  0  0
   -3.9201   -1.2617    0.3937 N   0  0  0  0  0  0  0  0  0  0  0  0
   -1.4296    0.7472   -0.3422 C   0  0  0  0  0  0  0  0  0  0  0  0
   -0.0612    1.0938   -0.5592 C   0  0  0  0  0  0  0  0  0  0  0  0
    0.9619    0.1637   -0.4528 C   0  0  0  0  0  0  0  0  0  0  0  0
    2.3644    0.5943   -0.6958 N   0  0  0  0  0  0  0  0  0  0  0  0
    2.5566    1.7679   -0.9991 O   0  0  0  0  0  0  0  0  0  0  0  0
    3.2471   -0.2552   -0.5760 O   0  0  0  0  0  0  0  0  0  0  0  0
    0.7629   -1.1945   -0.1196 C   0  0  0  0  0  0  0  0  0  0  0  0
   -0.5265   -1.6146    0.1101 C   0  0  0  0  0  0  0  0  0  0  0  0
   -4.9671    2.9347   -1.0509 H   0  0  0  0  0  0  0  0  0  0  0  0
    0.2139    2.1121   -0.8190 H   0  0  0  0  0  0  0  0  0  0  0  0
    1.6121   -1.8608   -0.0516 H   0  0  0  0  0  0  0  0  0  0  0  0
   -0.7589   -2.6424    0.3747 H   0  0  0  0  0  0  0  0  0  0  0  0
   -6.3491    1.5163   -1.8855 S   0  0  0  0  0  0  0  0  0  0  0  0
   -5.9308    1.6894   -3.6956 C   0  0  0  0  0  0  0  0  0  0  0  0
   -5.4571    0.5051   -1.3335 O   0  0  0  0  0  0  0  0  0  0  0  0
   -7.7903    1.4554   -1.7701 O   0  0  0  0  0  0  0  0  0  0  0  0
   -5.8855    2.9846   -1.3698 O   0  0  0  0  0  0  0  0  0  0  0  0
   -4.6348    1.9806   -3.8170 F   0  0  0  0  0  0  0  0  0  0  0  0
   -6.1902    0.5315   -4.2986 F   0  0  0  0  0  0  0  0  0  0  0  0
   -6.6629    2.6562   -4.2371 F   0  0  0  0  0  0  0  0  0  0  0  0
  1 11  1  0  0  0  0
  1  2  1  0  0  0  0
  2  3  1  0  0  0  0
  4  1  2  0  0  0  0
  5  6  2  0  0  0  0
  5  4  1  0  0  0  0
  6 10  1  0  0  0  0
  7  9  2  0  0  0  0
  7  6  1  0  0  0  0
  8  7  2  0  0  0  0
 10 14  1  0  0  0  0
 10 11  2  0  0  0  0
 11 15  1  0  0  0  0
 13  5  1  0  0  0  0
 16 19  2  0  0  0  0
 16 20  1  0  0  0  0
 16 18  2  0  0  0  0
 17 16  1  0  0  0  0
 20 12  1  0  0  0  0
 21 17  1  0  0  0  0
 22 17  1  0  0  0  0
 23 17  1  0  0  0  0
M  RAD  3   2   2   3   3   4   2
M  END
