Coordinates from ORCA-job 4-NO2PhN2+~TfO-_B3LYPG-6-31G_dp-CH-Scan-d09-49-n800
 OpenBabel11261919523D

 23 22  0  0  0  0  0  0  0  0999 V2000
   -1.9597   -0.6488   -0.0955 C   0  0  0  0  0  0  0  0  0  0  0  0
   -3.1992   -1.2230    0.1979 N   0  0  0  0  0  0  0  0  0  0  0  0
   -4.2072   -1.6438    0.4166 N   0  0  0  0  0  0  0  0  0  0  0  0
   -2.0202    0.6621   -0.5889 C   0  0  0  0  0  0  0  0  0  0  0  0
   -0.7211    1.1664   -0.8547 C   0  0  0  0  0  0  0  0  0  0  0  0
    0.4182    0.4064   -0.6302 C   0  0  0  0  0  0  0  0  0  0  0  0
    1.7509    0.9956   -0.9292 N   0  0  0  0  0  0  0  0  0  0  0  0
    1.7784    2.1407   -1.3667 O   0  0  0  0  0  0  0  0  0  0  0  0
    2.7367    0.2923   -0.7161 O   0  0  0  0  0  0  0  0  0  0  0  0
    0.3966   -0.9089   -0.1294 C   0  0  0  0  0  0  0  0  0  0  0  0
   -0.8293   -1.4691    0.1531 C   0  0  0  0  0  0  0  0  0  0  0  0
   -3.6207    1.6868   -0.9032 H   0  0  0  0  0  0  0  0  0  0  0  0
   -0.5921    2.1706   -1.2443 H   0  0  0  0  0  0  0  0  0  0  0  0
    1.3248   -1.4434    0.0215 H   0  0  0  0  0  0  0  0  0  0  0  0
   -0.9211   -2.4783    0.5410 H   0  0  0  0  0  0  0  0  0  0  0  0
   -5.6347    1.4028   -1.6843 S   0  0  0  0  0  0  0  0  0  0  0  0
   -5.3410    1.6836   -3.5006 C   0  0  0  0  0  0  0  0  0  0  0  0
   -5.4010   -0.0252   -1.4563 O   0  0  0  0  0  0  0  0  0  0  0  0
   -6.9036    2.0256   -1.3565 O   0  0  0  0  0  0  0  0  0  0  0  0
   -4.4564    2.2615   -1.0673 O   0  0  0  0  0  0  0  0  0  0  0  0
   -4.1082    1.2762   -3.8205 F   0  0  0  0  0  0  0  0  0  0  0  0
   -6.2332    0.9777   -4.1968 F   0  0  0  0  0  0  0  0  0  0  0  0
   -5.4692    2.9759   -3.7923 F   0  0  0  0  0  0  0  0  0  0  0  0
  1 11  1  0  0  0  0
  1  2  1  0  0  0  0
  2  3  1  0  0  0  0
  4  1  2  0  0  0  0
  5  6  2  0  0  0  0
  5  4  1  0  0  0  0
  6 10  1  0  0  0  0
  7  9  2  0  0  0  0
  7  6  1  0  0  0  0
  8  7  2  0  0  0  0
 10 14  1  0  0  0  0
 10 11  2  0  0  0  0
 11 15  1  0  0  0  0
 13  5  1  0  0  0  0
 16 18  2  0  0  0  0
 16 19  2  0  0  0  0
 16 20  1  0  0  0  0
 17 16  1  0  0  0  0
 20 12  1  0  0  0  0
 21 17  1  0  0  0  0
 22 17  1  0  0  0  0
 23 17  1  0  0  0  0
M  RAD  3   2   2   3   3   4   2
M  END
