Coordinates from ORCA-job 4-NO2PhN2+~TfO-_B3LYPG-6-31G_dp-CH-Scan-d09-49-n800
 OpenBabel11261919533D

 23 22  0  0  0  0  0  0  0  0999 V2000
   -2.0136   -0.2233    0.5267 C   0  0  0  0  0  0  0  0  0  0  0  0
   -3.1192   -0.5251    1.3435 N   0  0  0  0  0  0  0  0  0  0  0  0
   -3.9744   -0.6886    2.0421 N   0  0  0  0  0  0  0  0  0  0  0  0
   -1.3969    0.9620    0.9229 C   0  0  0  0  0  0  0  0  0  0  0  0
   -0.2840    1.2284    0.0689 C   0  0  0  0  0  0  0  0  0  0  0  0
    0.0599    0.3824   -0.9752 C   0  0  0  0  0  0  0  0  0  0  0  0
    1.2275    0.7228   -1.8308 N   0  0  0  0  0  0  0  0  0  0  0  0
    1.8546    1.7429   -1.5612 O   0  0  0  0  0  0  0  0  0  0  0  0
    1.4929   -0.0400   -2.7601 O   0  0  0  0  0  0  0  0  0  0  0  0
   -0.6383   -0.8037   -1.2950 C   0  0  0  0  0  0  0  0  0  0  0  0
   -1.7258   -1.1363   -0.5207 C   0  0  0  0  0  0  0  0  0  0  0  0
   -5.3936    2.7958   -0.7780 H   0  0  0  0  0  0  0  0  0  0  0  0
    0.3272    2.1140    0.2189 H   0  0  0  0  0  0  0  0  0  0  0  0
   -0.3098   -1.4132   -2.1262 H   0  0  0  0  0  0  0  0  0  0  0  0
   -2.3157   -2.0292   -0.7048 H   0  0  0  0  0  0  0  0  0  0  0  0
   -5.4283    0.9975   -1.9515 S   0  0  0  0  0  0  0  0  0  0  0  0
   -3.8531    1.1715   -2.9388 C   0  0  0  0  0  0  0  0  0  0  0  0
   -5.0764    0.3425   -0.6960 O   0  0  0  0  0  0  0  0  0  0  0  0
   -6.4586    0.5074   -2.8405 O   0  0  0  0  0  0  0  0  0  0  0  0
   -5.7337    2.5663   -1.6606 O   0  0  0  0  0  0  0  0  0  0  0  0
   -2.9481    1.8154   -2.2018 F   0  0  0  0  0  0  0  0  0  0  0  0
   -3.4122   -0.0513   -3.2288 F   0  0  0  0  0  0  0  0  0  0  0  0
   -4.0926    1.8455   -4.0559 F   0  0  0  0  0  0  0  0  0  0  0  0
  1  4  1  0  0  0  0
  1  2  1  0  0  0  0
  2  3  1  0  0  0  0
  5 13  1  0  0  0  0
  5  4  2  0  0  0  0
  6  5  1  0  0  0  0
  7  8  2  0  0  0  0
  7  6  1  0  0  0  0
  9  7  2  0  0  0  0
 10  6  2  0  0  0  0
 10 11  1  0  0  0  0
 11  1  2  0  0  0  0
 14 10  1  0  0  0  0
 15 11  1  0  0  0  0
 16 20  1  0  0  0  0
 16 18  2  0  0  0  0
 17 21  1  0  0  0  0
 17 16  1  0  0  0  0
 19 16  2  0  0  0  0
 20 12  1  0  0  0  0
 22 17  1  0  0  0  0
 23 17  1  0  0  0  0
M  RAD  3   2   2   3   3   4   2
M  END
