Coordinates from ORCA-job 4-NO2PhN2+~TfO-_B3LYPG-6-31G_dp-CH-Scan-d09-49-n800
 OpenBabel11261919523D

 23 22  0  0  0  0  0  0  0  0999 V2000
   -1.9765   -0.5706   -0.1504 C   0  0  0  0  0  0  0  0  0  0  0  0
   -3.2655   -1.0696    0.0403 N   0  0  0  0  0  0  0  0  0  0  0  0
   -4.3563   -1.3159    0.0174 N   0  0  0  0  0  0  0  0  0  0  0  0
   -1.8706    0.6931   -0.7450 C   0  0  0  0  0  0  0  0  0  0  0  0
   -0.5688    1.1667   -0.9282 C   0  0  0  0  0  0  0  0  0  0  0  0
    0.5105    0.3876   -0.5225 C   0  0  0  0  0  0  0  0  0  0  0  0
    1.8858    0.9130   -0.7267 N   0  0  0  0  0  0  0  0  0  0  0  0
    1.9913    2.0182   -1.2449 O   0  0  0  0  0  0  0  0  0  0  0  0
    2.8149    0.1989   -0.3604 O   0  0  0  0  0  0  0  0  0  0  0  0
    0.3759   -0.8710    0.0742 C   0  0  0  0  0  0  0  0  0  0  0  0
   -0.8997   -1.3700    0.2751 C   0  0  0  0  0  0  0  0  0  0  0  0
   -2.9181    1.3646   -1.0875 H   0  0  0  0  0  0  0  0  0  0  0  0
   -0.3886    2.1337   -1.3818 H   0  0  0  0  0  0  0  0  0  0  0  0
    1.2593   -1.4233    0.3657 H   0  0  0  0  0  0  0  0  0  0  0  0
   -1.0655   -2.3393    0.7313 H   0  0  0  0  0  0  0  0  0  0  0  0
   -5.3920    1.3010   -1.7567 S   0  0  0  0  0  0  0  0  0  0  0  0
   -5.8130    1.7786   -3.5027 C   0  0  0  0  0  0  0  0  0  0  0  0
   -4.9909   -0.1373   -1.8942 O   0  0  0  0  0  0  0  0  0  0  0  0
   -6.5910    1.5677   -0.9618 O   0  0  0  0  0  0  0  0  0  0  0  0
   -4.2040    2.1690   -1.4389 O   0  0  0  0  0  0  0  0  0  0  0  0
   -4.7593    1.5775   -4.3063 F   0  0  0  0  0  0  0  0  0  0  0  0
   -6.8370    1.0408   -3.9438 F   0  0  0  0  0  0  0  0  0  0  0  0
   -6.1529    3.0703   -3.5550 F   0  0  0  0  0  0  0  0  0  0  0  0
  1  2  1  0  0  0  0
  1 11  2  0  0  0  0
  3  2  1  0  0  0  0
  4  1  1  0  0  0  0
  5  4  2  0  0  0  0
  5  6  1  0  0  0  0
  6 10  2  0  0  0  0
  7  6  1  0  0  0  0
  7  9  2  0  0  0  0
  8  7  2  0  0  0  0
 10 11  1  0  0  0  0
 10 14  1  0  0  0  0
 11 15  1  0  0  0  0
 12  4  1  0  0  0  0
 13  5  1  0  0  0  0
 16 20  2  0  0  0  0
 16 19  1  0  0  0  0
 17 16  1  0  0  0  0
 18 16  2  0  0  0  0
 21 17  1  0  0  0  0
 22 17  1  0  0  0  0
 23 17  1  0  0  0  0
M  RAD  3   2   2   3   3  19   2
M  END
