Coordinates from ORCA-job 4-NO2PhN2+~TfO-_B3LYPG-6-31G_dp-CH-Scan-d09-49-n800
 OpenBabel11261919523D

 23 22  0  0  0  0  0  0  0  0999 V2000
   -1.6530   -0.6720   -0.1218 C   0  0  0  0  0  0  0  0  0  0  0  0
   -2.9487   -1.1755    0.0693 N   0  0  0  0  0  0  0  0  0  0  0  0
   -3.9989   -1.5244    0.2120 N   0  0  0  0  0  0  0  0  0  0  0  0
   -1.6375    0.6650   -0.5306 C   0  0  0  0  0  0  0  0  0  0  0  0
   -0.2910    1.1034   -0.6974 C   0  0  0  0  0  0  0  0  0  0  0  0
    0.7911    0.2665   -0.4685 C   0  0  0  0  0  0  0  0  0  0  0  0
    2.1691    0.7913   -0.6636 N   0  0  0  0  0  0  0  0  0  0  0  0
    2.2883    1.9574   -1.0262 O   0  0  0  0  0  0  0  0  0  0  0  0
    3.1036    0.0201   -0.4487 O   0  0  0  0  0  0  0  0  0  0  0  0
    0.6741   -1.0776   -0.0544 C   0  0  0  0  0  0  0  0  0  0  0  0
   -0.5920   -1.5823    0.1313 C   0  0  0  0  0  0  0  0  0  0  0  0
   -4.2490    2.4075   -1.1125 H   0  0  0  0  0  0  0  0  0  0  0  0
   -0.0789    2.1204   -1.0138 H   0  0  0  0  0  0  0  0  0  0  0  0
    1.5643   -1.6703    0.1063 H   0  0  0  0  0  0  0  0  0  0  0  0
   -0.7611   -2.6063    0.4508 H   0  0  0  0  0  0  0  0  0  0  0  0
   -6.0923    1.5405   -1.7899 S   0  0  0  0  0  0  0  0  0  0  0  0
   -5.8888    1.6772   -3.6388 C   0  0  0  0  0  0  0  0  0  0  0  0
   -5.4999    0.2694   -1.3896 O   0  0  0  0  0  0  0  0  0  0  0  0
   -7.4552    1.9110   -1.4718 O   0  0  0  0  0  0  0  0  0  0  0  0
   -5.1338    2.7583   -1.3281 O   0  0  0  0  0  0  0  0  0  0  0  0
   -4.6001    1.5337   -3.9504 F   0  0  0  0  0  0  0  0  0  0  0  0
   -6.5998    0.7079   -4.2120 F   0  0  0  0  0  0  0  0  0  0  0  0
   -6.3230    2.8622   -4.0545 F   0  0  0  0  0  0  0  0  0  0  0  0
  1  2  1  0  0  0  0
  1 11  2  0  0  0  0
  2  3  1  0  0  0  0
  4  1  1  0  0  0  0
  5  4  2  0  0  0  0
  5  6  1  0  0  0  0
  6 10  2  0  0  0  0
  7  6  1  0  0  0  0
  7  9  2  0  0  0  0
  8  7  2  0  0  0  0
 10 14  1  0  0  0  0
 10 11  1  0  0  0  0
 11 15  1  0  0  0  0
 13  5  1  0  0  0  0
 16 19  2  0  0  0  0
 16 18  2  0  0  0  0
 16 20  1  0  0  0  0
 17 16  1  0  0  0  0
 20 12  1  0  0  0  0
 21 17  1  0  0  0  0
 22 17  1  0  0  0  0
 23 17  1  0  0  0  0
M  RAD  3   2   2   3   3   4   2
M  END
