Coordinates from ORCA-job 4-NO2PhN2+~TfO-_B3LYPG-6-31G_dp-CH-Scan-d09-49-n800
 OpenBabel11261919533D

 23 22  0  0  0  0  0  0  0  0999 V2000
   -1.9969   -0.2059    0.5408 C   0  0  0  0  0  0  0  0  0  0  0  0
   -3.1041   -0.4895    1.3619 N   0  0  0  0  0  0  0  0  0  0  0  0
   -3.9585   -0.6389    2.0646 N   0  0  0  0  0  0  0  0  0  0  0  0
   -1.3400    0.9512    0.9555 C   0  0  0  0  0  0  0  0  0  0  0  0
   -0.2295    1.2031    0.0938 C   0  0  0  0  0  0  0  0  0  0  0  0
    0.0769    0.3704   -0.9723 C   0  0  0  0  0  0  0  0  0  0  0  0
    1.2439    0.6949   -1.8349 N   0  0  0  0  0  0  0  0  0  0  0  0
    1.9001    1.6938   -1.5553 O   0  0  0  0  0  0  0  0  0  0  0  0
    1.4793   -0.0584   -2.7799 O   0  0  0  0  0  0  0  0  0  0  0  0
   -0.6591   -0.7883   -1.3080 C   0  0  0  0  0  0  0  0  0  0  0  0
   -1.7474   -1.1052   -0.5282 C   0  0  0  0  0  0  0  0  0  0  0  0
   -5.5261    2.7659   -0.8038 H   0  0  0  0  0  0  0  0  0  0  0  0
    0.4096    2.0668    0.2554 H   0  0  0  0  0  0  0  0  0  0  0  0
   -0.3581   -1.3898   -2.1552 H   0  0  0  0  0  0  0  0  0  0  0  0
   -2.3658   -1.9761   -0.7239 H   0  0  0  0  0  0  0  0  0  0  0  0
   -5.4318    0.9631   -1.9671 S   0  0  0  0  0  0  0  0  0  0  0  0
   -3.8512    1.2040   -2.9315 C   0  0  0  0  0  0  0  0  0  0  0  0
   -5.0702    0.3394   -0.6984 O   0  0  0  0  0  0  0  0  0  0  0  0
   -6.4209    0.4131   -2.8678 O   0  0  0  0  0  0  0  0  0  0  0  0
   -5.8183    2.5180   -1.6984 O   0  0  0  0  0  0  0  0  0  0  0  0
   -2.9761    1.8649   -2.1743 F   0  0  0  0  0  0  0  0  0  0  0  0
   -3.3685    0.0002   -3.2344 F   0  0  0  0  0  0  0  0  0  0  0  0
   -4.0995    1.8868   -4.0413 F   0  0  0  0  0  0  0  0  0  0  0  0
  1  4  1  0  0  0  0
  1  2  1  0  0  0  0
  2  3  1  0  0  0  0
  5 13  1  0  0  0  0
  5  4  2  0  0  0  0
  6  5  1  0  0  0  0
  7  8  2  0  0  0  0
  7  6  1  0  0  0  0
  9  7  2  0  0  0  0
 10  6  2  0  0  0  0
 10 11  1  0  0  0  0
 11  1  2  0  0  0  0
 14 10  1  0  0  0  0
 15 11  1  0  0  0  0
 16 20  1  0  0  0  0
 16 18  2  0  0  0  0
 17 21  1  0  0  0  0
 17 16  1  0  0  0  0
 19 16  2  0  0  0  0
 20 12  1  0  0  0  0
 22 17  1  0  0  0  0
 23 17  1  0  0  0  0
M  RAD  3   2   2   3   3   4   2
M  END
