Coordinates from ORCA-job 4-NO2PhN2+~TfO-_B3LYPG-6-31G_dp-CH-Scan-d09-49-n800
 OpenBabel11261919533D

 23 22  0  0  0  0  0  0  0  0999 V2000
   -1.5425   -0.6569   -0.0982 C   0  0  0  0  0  0  0  0  0  0  0  0
   -2.8619   -1.1083    0.0811 N   0  0  0  0  0  0  0  0  0  0  0  0
   -3.9314   -1.4002    0.2123 N   0  0  0  0  0  0  0  0  0  0  0  0
   -1.4847    0.6869   -0.4733 C   0  0  0  0  0  0  0  0  0  0  0  0
   -0.1209    1.0773   -0.6359 C   0  0  0  0  0  0  0  0  0  0  0  0
    0.9294    0.1942   -0.4353 C   0  0  0  0  0  0  0  0  0  0  0  0
    2.3256    0.6694   -0.6265 N   0  0  0  0  0  0  0  0  0  0  0  0
    2.4892    1.8383   -0.9630 O   0  0  0  0  0  0  0  0  0  0  0  0
    3.2315   -0.1414   -0.4346 O   0  0  0  0  0  0  0  0  0  0  0  0
    0.7640   -1.1551   -0.0526 C   0  0  0  0  0  0  0  0  0  0  0  0
   -0.5193   -1.6159    0.1285 C   0  0  0  0  0  0  0  0  0  0  0  0
   -4.6746    2.7895   -1.1129 H   0  0  0  0  0  0  0  0  0  0  0  0
    0.1293    2.0933   -0.9275 H   0  0  0  0  0  0  0  0  0  0  0  0
    1.6324   -1.7840    0.0885 H   0  0  0  0  0  0  0  0  0  0  0  0
   -0.7266   -2.6401    0.4250 H   0  0  0  0  0  0  0  0  0  0  0  0
   -6.2852    1.5685   -1.8385 S   0  0  0  0  0  0  0  0  0  0  0  0
   -5.9958    1.6765   -3.6787 C   0  0  0  0  0  0  0  0  0  0  0  0
   -5.4910    0.4508   -1.3449 O   0  0  0  0  0  0  0  0  0  0  0  0
   -7.7085    1.6951   -1.6091 O   0  0  0  0  0  0  0  0  0  0  0  0
   -5.5937    2.9640   -1.3829 O   0  0  0  0  0  0  0  0  0  0  0  0
   -4.6866    1.7825   -3.9090 F   0  0  0  0  0  0  0  0  0  0  0  0
   -6.4633    0.5644   -4.2415 F   0  0  0  0  0  0  0  0  0  0  0  0
   -6.6277    2.7347   -4.1739 F   0  0  0  0  0  0  0  0  0  0  0  0
  1  2  1  0  0  0  0
  1 11  2  0  0  0  0
  2  3  1  0  0  0  0
  4  1  1  0  0  0  0
  5  4  2  0  0  0  0
  5  6  1  0  0  0  0
  6 10  2  0  0  0  0
  7  6  1  0  0  0  0
  7  9  2  0  0  0  0
  8  7  2  0  0  0  0
 10 14  1  0  0  0  0
 10 11  1  0  0  0  0
 11 15  1  0  0  0  0
 13  5  1  0  0  0  0
 16 19  2  0  0  0  0
 16 20  1  0  0  0  0
 16 18  2  0  0  0  0
 17 16  1  0  0  0  0
 20 12  1  0  0  0  0
 21 17  1  0  0  0  0
 22 17  1  0  0  0  0
 23 17  1  0  0  0  0
M  RAD  3   2   2   3   3   4   2
M  END
