Coordinates from ORCA-job 4-NO2PhN2+~TfO-_B3LYPG-6-31G_dp-CH-Scan-d09-49-n800
 OpenBabel11261919523D

 23 22  0  0  0  0  0  0  0  0999 V2000
   -2.0358   -0.5979   -0.0834 C   0  0  0  0  0  0  0  0  0  0  0  0
   -3.2817   -1.1478    0.2146 N   0  0  0  0  0  0  0  0  0  0  0  0
   -4.3003   -1.5465    0.4182 N   0  0  0  0  0  0  0  0  0  0  0  0
   -2.0435    0.6949   -0.6243 C   0  0  0  0  0  0  0  0  0  0  0  0
   -0.7543    1.1891   -0.8977 C   0  0  0  0  0  0  0  0  0  0  0  0
    0.3733    0.4231   -0.6299 C   0  0  0  0  0  0  0  0  0  0  0  0
    1.7152    0.9887   -0.9325 N   0  0  0  0  0  0  0  0  0  0  0  0
    1.7552    2.1181   -1.4061 O   0  0  0  0  0  0  0  0  0  0  0  0
    2.6884    0.2811   -0.6847 O   0  0  0  0  0  0  0  0  0  0  0  0
    0.3254   -0.8691   -0.0840 C   0  0  0  0  0  0  0  0  0  0  0  0
   -0.9123   -1.4073    0.2040 C   0  0  0  0  0  0  0  0  0  0  0  0
   -3.2529    1.4449   -0.9062 H   0  0  0  0  0  0  0  0  0  0  0  0
   -0.6244    2.1778   -1.3230 H   0  0  0  0  0  0  0  0  0  0  0  0
    1.2440   -1.4107    0.0981 H   0  0  0  0  0  0  0  0  0  0  0  0
   -1.0181   -2.4013    0.6244 H   0  0  0  0  0  0  0  0  0  0  0  0
   -5.4436    1.3032   -1.6921 S   0  0  0  0  0  0  0  0  0  0  0  0
   -5.3908    1.7469   -3.4950 C   0  0  0  0  0  0  0  0  0  0  0  0
   -5.1396   -0.1427   -1.6523 O   0  0  0  0  0  0  0  0  0  0  0  0
   -6.7316    1.7672   -1.1918 O   0  0  0  0  0  0  0  0  0  0  0  0
   -4.2605    2.1197   -1.1413 O   0  0  0  0  0  0  0  0  0  0  0  0
   -4.1910    1.4324   -4.0049 F   0  0  0  0  0  0  0  0  0  0  0  0
   -6.3320    1.0650   -4.1543 F   0  0  0  0  0  0  0  0  0  0  0  0
   -5.6013    3.0547   -3.6584 F   0  0  0  0  0  0  0  0  0  0  0  0
  1 11  1  0  0  0  0
  1  2  1  0  0  0  0
  2  3  1  0  0  0  0
  4  1  2  0  0  0  0
  5  6  2  0  0  0  0
  5  4  1  0  0  0  0
  6 10  1  0  0  0  0
  7  9  2  0  0  0  0
  7  6  1  0  0  0  0
  8  7  2  0  0  0  0
 10 14  1  0  0  0  0
 10 11  2  0  0  0  0
 11 15  1  0  0  0  0
 13  5  1  0  0  0  0
 16 18  2  0  0  0  0
 16 19  2  0  0  0  0
 16 20  1  0  0  0  0
 17 16  1  0  0  0  0
 20 12  1  0  0  0  0
 21 17  1  0  0  0  0
 22 17  1  0  0  0  0
 23 17  1  0  0  0  0
M  RAD  3   2   2   3   3   4   2
M  END
