Coordinates from ORCA-job 4-NO2PhN2+~TfO-_B3LYPG-6-31G_dp-CH-Scan-d09-49-n800
 OpenBabel11261919523D

 23 22  0  0  0  0  0  0  0  0999 V2000
   -2.1691   -0.2560    0.0722 C   0  0  0  0  0  0  0  0  0  0  0  0
   -3.4377   -0.5597    0.5637 N   0  0  0  0  0  0  0  0  0  0  0  0
   -4.5568   -0.4796    0.6947 N   0  0  0  0  0  0  0  0  0  0  0  0
   -2.0306    0.8668   -0.7581 C   0  0  0  0  0  0  0  0  0  0  0  0
   -0.7533    1.1499   -1.2301 C   0  0  0  0  0  0  0  0  0  0  0  0
    0.3052    0.3194   -0.8682 C   0  0  0  0  0  0  0  0  0  0  0  0
    1.6613    0.6365   -1.3816 N   0  0  0  0  0  0  0  0  0  0  0  0
    1.7705    1.6269   -2.0953 O   0  0  0  0  0  0  0  0  0  0  0  0
    2.5732   -0.1134   -1.0467 O   0  0  0  0  0  0  0  0  0  0  0  0
    0.1573   -0.7959   -0.0439 C   0  0  0  0  0  0  0  0  0  0  0  0
   -1.1087   -1.0923    0.4430 C   0  0  0  0  0  0  0  0  0  0  0  0
   -2.8070    1.4192   -0.9874 H   0  0  0  0  0  0  0  0  0  0  0  0
   -0.5750    1.9982   -1.8791 H   0  0  0  0  0  0  0  0  0  0  0  0
    1.0202   -1.4018    0.1995 H   0  0  0  0  0  0  0  0  0  0  0  0
   -1.2821   -1.9481    1.0852 H   0  0  0  0  0  0  0  0  0  0  0  0
   -5.4521    0.5608   -1.9495 S   0  0  0  0  0  0  0  0  0  0  0  0
   -5.0993    2.0706   -2.9842 C   0  0  0  0  0  0  0  0  0  0  0  0
   -4.3590   -0.3815   -2.2760 O   0  0  0  0  0  0  0  0  0  0  0  0
   -6.8223    0.1780   -2.2835 O   0  0  0  0  0  0  0  0  0  0  0  0
   -5.2626    1.1390   -0.5496 O   0  0  0  0  0  0  0  0  0  0  0  0
   -3.8517    2.5341   -2.7261 F   0  0  0  0  0  0  0  0  0  0  0  0
   -5.1646    1.7652   -4.2821 F   0  0  0  0  0  0  0  0  0  0  0  0
   -5.9680    3.0472   -2.7196 F   0  0  0  0  0  0  0  0  0  0  0  0
  1 11  1  0  0  0  0
  1  2  1  0  0  0  0
  2  3  1  0  0  0  0
  4  1  2  0  0  0  0
  5  6  2  0  0  0  0
  5  4  1  0  0  0  0
  6 10  1  0  0  0  0
  7  9  2  0  0  0  0
  7  6  1  0  0  0  0
  8  7  2  0  0  0  0
 10 14  1  0  0  0  0
 10 11  2  0  0  0  0
 11 15  1  0  0  0  0
 12  4  1  0  0  0  0
 13  5  1  0  0  0  0
 16 20  1  0  0  0  0
 17 21  1  0  0  0  0
 17 23  1  0  0  0  0
 17 16  1  0  0  0  0
 18 16  2  0  0  0  0
 19 16  2  0  0  0  0
 22 17  1  0  0  0  0
M  RAD  3   2   2   3   3  20   2
M  END
