Coordinates from ORCA-job 4-NO2PhN2+~TfO-_B3LYPG-6-31G_dp-CH-Scan-d09-49-n800
 OpenBabel11261919523D

 23 22  0  0  0  0  0  0  0  0999 V2000
   -1.9979   -0.6379   -0.0860 C   0  0  0  0  0  0  0  0  0  0  0  0
   -3.2324   -1.2141    0.2208 N   0  0  0  0  0  0  0  0  0  0  0  0
   -4.2367   -1.6378    0.4487 N   0  0  0  0  0  0  0  0  0  0  0  0
   -2.0585    0.6688   -0.5910 C   0  0  0  0  0  0  0  0  0  0  0  0
   -0.7653    1.1753   -0.8700 C   0  0  0  0  0  0  0  0  0  0  0  0
    0.3771    0.4197   -0.6455 C   0  0  0  0  0  0  0  0  0  0  0  0
    1.7063    1.0096   -0.9579 N   0  0  0  0  0  0  0  0  0  0  0  0
    1.7271    2.1505   -1.4063 O   0  0  0  0  0  0  0  0  0  0  0  0
    2.6947    0.3105   -0.7442 O   0  0  0  0  0  0  0  0  0  0  0  0
    0.3605   -0.8903   -0.1330 C   0  0  0  0  0  0  0  0  0  0  0  0
   -0.8629   -1.4507    0.1620 C   0  0  0  0  0  0  0  0  0  0  0  0
   -3.5249    1.5990   -0.8839 H   0  0  0  0  0  0  0  0  0  0  0  0
   -0.6439    2.1764   -1.2696 H   0  0  0  0  0  0  0  0  0  0  0  0
    1.2904   -1.4220    0.0172 H   0  0  0  0  0  0  0  0  0  0  0  0
   -0.9498   -2.4567    0.5590 H   0  0  0  0  0  0  0  0  0  0  0  0
   -5.5663    1.3742   -1.6777 S   0  0  0  0  0  0  0  0  0  0  0  0
   -5.2930    1.6949   -3.4894 C   0  0  0  0  0  0  0  0  0  0  0  0
   -5.3431   -0.0643   -1.4930 O   0  0  0  0  0  0  0  0  0  0  0  0
   -6.8362    1.9852   -1.3269 O   0  0  0  0  0  0  0  0  0  0  0  0
   -4.3805    2.1989   -1.0550 O   0  0  0  0  0  0  0  0  0  0  0  0
   -4.0654    1.2883   -3.8347 F   0  0  0  0  0  0  0  0  0  0  0  0
   -6.1960    1.0114   -4.1949 F   0  0  0  0  0  0  0  0  0  0  0  0
   -5.4155    2.9948   -3.7516 F   0  0  0  0  0  0  0  0  0  0  0  0
  1 11  1  0  0  0  0
  1  2  1  0  0  0  0
  2  3  1  0  0  0  0
  4  1  2  0  0  0  0
  5  6  2  0  0  0  0
  5  4  1  0  0  0  0
  6 10  1  0  0  0  0
  7  9  2  0  0  0  0
  7  6  1  0  0  0  0
  8  7  2  0  0  0  0
 10 14  1  0  0  0  0
 10 11  2  0  0  0  0
 11 15  1  0  0  0  0
 13  5  1  0  0  0  0
 16 18  2  0  0  0  0
 16 19  2  0  0  0  0
 16 20  1  0  0  0  0
 17 16  1  0  0  0  0
 20 12  1  0  0  0  0
 21 17  1  0  0  0  0
 22 17  1  0  0  0  0
 23 17  1  0  0  0  0
M  RAD  3   2   2   3   3   4   2
M  END
