Coordinates from ORCA-job 4-NO2PhN2+~TfO-_B3LYPG-6-31G_dp-CH-Scan-d09-49-n800
 OpenBabel11261919523D

 23 22  0  0  0  0  0  0  0  0999 V2000
   -2.0285   -0.6201   -0.0790 C   0  0  0  0  0  0  0  0  0  0  0  0
   -3.2631   -1.1898    0.2342 N   0  0  0  0  0  0  0  0  0  0  0  0
   -4.2680   -1.6101    0.4635 N   0  0  0  0  0  0  0  0  0  0  0  0
   -2.0743    0.6810   -0.5993 C   0  0  0  0  0  0  0  0  0  0  0  0
   -0.7853    1.1846   -0.8845 C   0  0  0  0  0  0  0  0  0  0  0  0
    0.3546    0.4275   -0.6496 C   0  0  0  0  0  0  0  0  0  0  0  0
    1.6857    1.0106   -0.9672 N   0  0  0  0  0  0  0  0  0  0  0  0
    1.7085    2.1468   -1.4264 O   0  0  0  0  0  0  0  0  0  0  0  0
    2.6710    0.3102   -0.7459 O   0  0  0  0  0  0  0  0  0  0  0  0
    0.3318   -0.8751   -0.1227 C   0  0  0  0  0  0  0  0  0  0  0  0
   -0.8943   -1.4290    0.1778 C   0  0  0  0  0  0  0  0  0  0  0  0
   -3.4018    1.5116   -0.8797 H   0  0  0  0  0  0  0  0  0  0  0  0
   -0.6655    2.1808   -1.2961 H   0  0  0  0  0  0  0  0  0  0  0  0
    1.2594   -1.4090    0.0346 H   0  0  0  0  0  0  0  0  0  0  0  0
   -0.9840   -2.4303    0.5854 H   0  0  0  0  0  0  0  0  0  0  0  0
   -5.4974    1.3376   -1.6780 S   0  0  0  0  0  0  0  0  0  0  0  0
   -5.2945    1.7166   -3.4863 C   0  0  0  0  0  0  0  0  0  0  0  0
   -5.2529   -0.1086   -1.5565 O   0  0  0  0  0  0  0  0  0  0  0  0
   -6.7770    1.8986   -1.2739 O   0  0  0  0  0  0  0  0  0  0  0  0
   -4.3095    2.1432   -1.0723 O   0  0  0  0  0  0  0  0  0  0  0  0
   -4.0745    1.3372   -3.8900 F   0  0  0  0  0  0  0  0  0  0  0  0
   -6.2128    1.0459   -4.1857 F   0  0  0  0  0  0  0  0  0  0  0  0
   -5.4397    3.0235   -3.7054 F   0  0  0  0  0  0  0  0  0  0  0  0
  1 11  1  0  0  0  0
  1  2  1  0  0  0  0
  2  3  1  0  0  0  0
  4  1  2  0  0  0  0
  5  6  2  0  0  0  0
  5  4  1  0  0  0  0
  6 10  1  0  0  0  0
  7  9  2  0  0  0  0
  7  6  1  0  0  0  0
  8  7  2  0  0  0  0
 10 14  1  0  0  0  0
 10 11  2  0  0  0  0
 11 15  1  0  0  0  0
 13  5  1  0  0  0  0
 16 18  2  0  0  0  0
 16 19  2  0  0  0  0
 16 20  1  0  0  0  0
 17 16  1  0  0  0  0
 20 12  1  0  0  0  0
 21 17  1  0  0  0  0
 22 17  1  0  0  0  0
 23 17  1  0  0  0  0
M  RAD  3   2   2   3   3   4   2
M  END
