Coordinates from ORCA-job 4-NO2PhN2+~TfO-_B3LYPG-6-31G_dp-CH-Scan-d09-49-n800
 OpenBabel11261919533D

 23 22  0  0  0  0  0  0  0  0999 V2000
   -1.5174   -0.6075   -0.0208 C   0  0  0  0  0  0  0  0  0  0  0  0
   -2.8450   -1.0104    0.2129 N   0  0  0  0  0  0  0  0  0  0  0  0
   -3.9187   -1.2586    0.3925 N   0  0  0  0  0  0  0  0  0  0  0  0
   -1.4261    0.7479   -0.3405 C   0  0  0  0  0  0  0  0  0  0  0  0
   -0.0574    1.0935   -0.5571 C   0  0  0  0  0  0  0  0  0  0  0  0
    0.9649    0.1625   -0.4514 C   0  0  0  0  0  0  0  0  0  0  0  0
    2.3678    0.5922   -0.6937 N   0  0  0  0  0  0  0  0  0  0  0  0
    2.5610    1.7658   -0.9964 O   0  0  0  0  0  0  0  0  0  0  0  0
    3.2498   -0.2581   -0.5745 O   0  0  0  0  0  0  0  0  0  0  0  0
    0.7648   -1.1958   -0.1194 C   0  0  0  0  0  0  0  0  0  0  0  0
   -0.5250   -1.6151    0.1099 C   0  0  0  0  0  0  0  0  0  0  0  0
   -4.9731    2.9383   -1.0528 H   0  0  0  0  0  0  0  0  0  0  0  0
    0.2186    2.1119   -0.8160 H   0  0  0  0  0  0  0  0  0  0  0  0
    1.6135   -1.8628   -0.0518 H   0  0  0  0  0  0  0  0  0  0  0  0
   -0.7582   -2.6429    0.3735 H   0  0  0  0  0  0  0  0  0  0  0  0
   -6.3519    1.5166   -1.8865 S   0  0  0  0  0  0  0  0  0  0  0  0
   -5.9354    1.6898   -3.6970 C   0  0  0  0  0  0  0  0  0  0  0  0
   -5.4569    0.5081   -1.3344 O   0  0  0  0  0  0  0  0  0  0  0  0
   -7.7930    1.4522   -1.7701 O   0  0  0  0  0  0  0  0  0  0  0  0
   -5.8914    2.9863   -1.3719 O   0  0  0  0  0  0  0  0  0  0  0  0
   -4.6401    1.9835   -3.8195 F   0  0  0  0  0  0  0  0  0  0  0  0
   -6.1930    0.5312   -4.2993 F   0  0  0  0  0  0  0  0  0  0  0  0
   -6.6699    2.6549   -4.2382 F   0  0  0  0  0  0  0  0  0  0  0  0
  1 11  1  0  0  0  0
  1  2  1  0  0  0  0
  2  3  1  0  0  0  0
  4  1  2  0  0  0  0
  5  6  2  0  0  0  0
  5  4  1  0  0  0  0
  6 10  1  0  0  0  0
  7  9  2  0  0  0  0
  7  6  1  0  0  0  0
  8  7  2  0  0  0  0
 10 14  1  0  0  0  0
 10 11  2  0  0  0  0
 11 15  1  0  0  0  0
 13  5  1  0  0  0  0
 16 19  2  0  0  0  0
 16 20  1  0  0  0  0
 16 18  2  0  0  0  0
 17 16  1  0  0  0  0
 20 12  1  0  0  0  0
 21 17  1  0  0  0  0
 22 17  1  0  0  0  0
 23 17  1  0  0  0  0
M  RAD  3   2   2   3   3   4   2
M  END
