Coordinates from ORCA-job 4-NO2PhN2+~TfO-_B3LYPG-6-31G_dp-CH-Scan-d09-49-n800
 OpenBabel11261919533D

 23 22  0  0  0  0  0  0  0  0999 V2000
   -1.5415   -0.6668   -0.1189 C   0  0  0  0  0  0  0  0  0  0  0  0
   -2.8593   -1.1282    0.0442 N   0  0  0  0  0  0  0  0  0  0  0  0
   -3.9268   -1.4322    0.1628 N   0  0  0  0  0  0  0  0  0  0  0  0
   -1.4869    0.6793   -0.4871 C   0  0  0  0  0  0  0  0  0  0  0  0
   -0.1239    1.0793   -0.6295 C   0  0  0  0  0  0  0  0  0  0  0  0
    0.9295    0.2023   -0.4187 C   0  0  0  0  0  0  0  0  0  0  0  0
    2.3250    0.6882   -0.5874 N   0  0  0  0  0  0  0  0  0  0  0  0
    2.4851    1.8604   -0.9135 O   0  0  0  0  0  0  0  0  0  0  0  0
    3.2335   -0.1180   -0.3890 O   0  0  0  0  0  0  0  0  0  0  0  0
    0.7679   -1.1500   -0.0456 C   0  0  0  0  0  0  0  0  0  0  0  0
   -0.5146   -1.6201    0.1158 C   0  0  0  0  0  0  0  0  0  0  0  0
   -4.5833    2.7523   -1.1716 H   0  0  0  0  0  0  0  0  0  0  0  0
    0.1235    2.0983   -0.9129 H   0  0  0  0  0  0  0  0  0  0  0  0
    1.6384   -1.7741    0.1038 H   0  0  0  0  0  0  0  0  0  0  0  0
   -0.7190   -2.6472    0.4041 H   0  0  0  0  0  0  0  0  0  0  0  0
   -6.2653    1.5900   -1.8280 S   0  0  0  0  0  0  0  0  0  0  0  0
   -6.0462    1.6645   -3.6795 C   0  0  0  0  0  0  0  0  0  0  0  0
   -5.4964    0.4472   -1.3517 O   0  0  0  0  0  0  0  0  0  0  0  0
   -7.6723    1.7751   -1.5439 O   0  0  0  0  0  0  0  0  0  0  0  0
   -5.5010    2.9619   -1.4207 O   0  0  0  0  0  0  0  0  0  0  0  0
   -4.7442    1.7162   -3.9630 F   0  0  0  0  0  0  0  0  0  0  0  0
   -6.5784    0.5648   -4.2085 F   0  0  0  0  0  0  0  0  0  0  0  0
   -6.6560    2.7406   -4.1638 F   0  0  0  0  0  0  0  0  0  0  0  0
  1  2  1  0  0  0  0
  1 11  2  0  0  0  0
  2  3  1  0  0  0  0
  4  1  1  0  0  0  0
  5  4  2  0  0  0  0
  5  6  1  0  0  0  0
  6 10  2  0  0  0  0
  7  6  1  0  0  0  0
  7  9  2  0  0  0  0
  8  7  2  0  0  0  0
 10 14  1  0  0  0  0
 10 11  1  0  0  0  0
 11 15  1  0  0  0  0
 13  5  1  0  0  0  0
 16 19  2  0  0  0  0
 16 20  1  0  0  0  0
 16 18  2  0  0  0  0
 17 16  1  0  0  0  0
 20 12  1  0  0  0  0
 21 17  1  0  0  0  0
 22 17  1  0  0  0  0
 23 17  1  0  0  0  0
M  RAD  3   2   2   3   3   4   2
M  END
