Coordinates from ORCA-job 4-NO2PhN2+~TfO-_B3LYPG-6-31G_dp-CH-Scan-d09-49-n800
 OpenBabel11261919523D

 23 22  0  0  0  0  0  0  0  0999 V2000
   -1.8815   -0.6591   -0.1079 C   0  0  0  0  0  0  0  0  0  0  0  0
   -3.1345   -1.2202    0.1583 N   0  0  0  0  0  0  0  0  0  0  0  0
   -4.1519   -1.6293    0.3577 N   0  0  0  0  0  0  0  0  0  0  0  0
   -1.9272    0.6580   -0.5836 C   0  0  0  0  0  0  0  0  0  0  0  0
   -0.6153    1.1499   -0.8217 C   0  0  0  0  0  0  0  0  0  0  0  0
    0.5120    0.3747   -0.5905 C   0  0  0  0  0  0  0  0  0  0  0  0
    1.8559    0.9524   -0.8602 N   0  0  0  0  0  0  0  0  0  0  0  0
    1.9046    2.1040   -1.2794 O   0  0  0  0  0  0  0  0  0  0  0  0
    2.8310    0.2351   -0.6429 O   0  0  0  0  0  0  0  0  0  0  0  0
    0.4695   -0.9484   -0.1082 C   0  0  0  0  0  0  0  0  0  0  0  0
   -0.7658   -1.4990    0.1476 C   0  0  0  0  0  0  0  0  0  0  0  0
   -3.7785    1.8566   -0.9560 H   0  0  0  0  0  0  0  0  0  0  0  0
   -0.4661    2.1578   -1.1950 H   0  0  0  0  0  0  0  0  0  0  0  0
    1.3900   -1.4941    0.0491 H   0  0  0  0  0  0  0  0  0  0  0  0
   -0.8747   -2.5125    0.5205 H   0  0  0  0  0  0  0  0  0  0  0  0
   -5.7591    1.4427   -1.7085 S   0  0  0  0  0  0  0  0  0  0  0  0
   -5.4768    1.6777   -3.5346 C   0  0  0  0  0  0  0  0  0  0  0  0
   -5.4598    0.0401   -1.4243 O   0  0  0  0  0  0  0  0  0  0  0  0
   -7.0429    2.0368   -1.3920 O   0  0  0  0  0  0  0  0  0  0  0  0
   -4.6100    2.3841   -1.1234 O   0  0  0  0  0  0  0  0  0  0  0  0
   -4.2345    1.2967   -3.8440 F   0  0  0  0  0  0  0  0  0  0  0  0
   -6.3513    0.9241   -4.2016 F   0  0  0  0  0  0  0  0  0  0  0  0
   -5.6452    2.9556   -3.8621 F   0  0  0  0  0  0  0  0  0  0  0  0
  1 11  1  0  0  0  0
  1  2  1  0  0  0  0
  2  3  1  0  0  0  0
  4  1  2  0  0  0  0
  5  6  2  0  0  0  0
  5  4  1  0  0  0  0
  6 10  1  0  0  0  0
  7  9  2  0  0  0  0
  7  6  1  0  0  0  0
  8  7  2  0  0  0  0
 10 14  1  0  0  0  0
 10 11  2  0  0  0  0
 11 15  1  0  0  0  0
 13  5  1  0  0  0  0
 16 18  2  0  0  0  0
 16 19  2  0  0  0  0
 16 20  1  0  0  0  0
 17 16  1  0  0  0  0
 20 12  1  0  0  0  0
 21 17  1  0  0  0  0
 22 17  1  0  0  0  0
 23 17  1  0  0  0  0
M  RAD  3   2   2   3   3   4   2
M  END
