Coordinates from ORCA-job 4-NO2PhN2+~TfO-_B3LYPG-6-31G_dp-CH-Scan-d09-49-n800
 OpenBabel11261919533D

 23 22  0  0  0  0  0  0  0  0999 V2000
   -1.4551   -0.5674    0.0118 C   0  0  0  0  0  0  0  0  0  0  0  0
   -2.7962   -0.9265    0.2447 N   0  0  0  0  0  0  0  0  0  0  0  0
   -3.8786   -1.1333    0.4257 N   0  0  0  0  0  0  0  0  0  0  0  0
   -1.3189    0.7918   -0.2700 C   0  0  0  0  0  0  0  0  0  0  0  0
    0.0590    1.0953   -0.4921 C   0  0  0  0  0  0  0  0  0  0  0  0
    1.0475    0.1250   -0.4271 C   0  0  0  0  0  0  0  0  0  0  0  0
    2.4621    0.5102   -0.6760 N   0  0  0  0  0  0  0  0  0  0  0  0
    2.6933    1.6820   -0.9584 O   0  0  0  0  0  0  0  0  0  0  0  0
    3.3150   -0.3727   -0.5844 O   0  0  0  0  0  0  0  0  0  0  0  0
    0.8021   -1.2343   -0.1305 C   0  0  0  0  0  0  0  0  0  0  0  0
   -0.4992   -1.6138    0.1030 C   0  0  0  0  0  0  0  0  0  0  0  0
   -5.2255    3.0456   -1.0645 H   0  0  0  0  0  0  0  0  0  0  0  0
    0.3685    2.1107   -0.7236 H   0  0  0  0  0  0  0  0  0  0  0  0
    1.6269   -1.9329   -0.0925 H   0  0  0  0  0  0  0  0  0  0  0  0
   -0.7664   -2.6395    0.3411 H   0  0  0  0  0  0  0  0  0  0  0  0
   -6.4384    1.4962   -1.9265 S   0  0  0  0  0  0  0  0  0  0  0  0
   -6.0159    1.7094   -3.7311 C   0  0  0  0  0  0  0  0  0  0  0  0
   -5.4528    0.5863   -1.3575 O   0  0  0  0  0  0  0  0  0  0  0  0
   -7.8670    1.2866   -1.8300 O   0  0  0  0  0  0  0  0  0  0  0  0
   -6.1345    3.0068   -1.4104 O   0  0  0  0  0  0  0  0  0  0  0  0
   -4.7530    2.1254   -3.8360 F   0  0  0  0  0  0  0  0  0  0  0  0
   -6.1537    0.5319   -4.3360 F   0  0  0  0  0  0  0  0  0  0  0  0
   -6.8314    2.6008   -4.2827 F   0  0  0  0  0  0  0  0  0  0  0  0
  1 11  1  0  0  0  0
  1  2  1  0  0  0  0
  2  3  1  0  0  0  0
  4  1  2  0  0  0  0
  5  6  2  0  0  0  0
  5  4  1  0  0  0  0
  6 10  1  0  0  0  0
  7  9  2  0  0  0  0
  7  6  1  0  0  0  0
  8  7  2  0  0  0  0
 10 14  1  0  0  0  0
 10 11  2  0  0  0  0
 11 15  1  0  0  0  0
 13  5  1  0  0  0  0
 16 19  2  0  0  0  0
 16 20  1  0  0  0  0
 16 18  2  0  0  0  0
 17 16  1  0  0  0  0
 20 12  1  0  0  0  0
 21 17  1  0  0  0  0
 22 17  1  0  0  0  0
 23 17  1  0  0  0  0
M  RAD  3   2   2   3   3   4   2
M  END
