Coordinates from ORCA-job 4-NO2PhN2+~TfO-_B3LYPG-6-31G_dp-CH-Scan-d09-49-n800
 OpenBabel11261919533D

 23 22  0  0  0  0  0  0  0  0999 V2000
   -1.5127   -0.6059   -0.0208 C   0  0  0  0  0  0  0  0  0  0  0  0
   -2.8411   -1.0071    0.2116 N   0  0  0  0  0  0  0  0  0  0  0  0
   -3.9153   -1.2531    0.3914 N   0  0  0  0  0  0  0  0  0  0  0  0
   -1.4188    0.7497   -0.3382 C   0  0  0  0  0  0  0  0  0  0  0  0
   -0.0493    1.0933   -0.5534 C   0  0  0  0  0  0  0  0  0  0  0  0
    0.9713    0.1603   -0.4487 C   0  0  0  0  0  0  0  0  0  0  0  0
    2.3751    0.5878   -0.6895 N   0  0  0  0  0  0  0  0  0  0  0  0
    2.5705    1.7616   -0.9901 O   0  0  0  0  0  0  0  0  0  0  0  0
    3.2555   -0.2641   -0.5710 O   0  0  0  0  0  0  0  0  0  0  0  0
    0.7685   -1.1983   -0.1190 C   0  0  0  0  0  0  0  0  0  0  0  0
   -0.5221   -1.6156    0.1088 C   0  0  0  0  0  0  0  0  0  0  0  0
   -4.9849    2.9455   -1.0570 H   0  0  0  0  0  0  0  0  0  0  0  0
    0.2286    2.1117   -0.8103 H   0  0  0  0  0  0  0  0  0  0  0  0
    1.6160   -1.8669   -0.0521 H   0  0  0  0  0  0  0  0  0  0  0  0
   -0.7573   -2.6434    0.3706 H   0  0  0  0  0  0  0  0  0  0  0  0
   -6.3584    1.5170   -1.8884 S   0  0  0  0  0  0  0  0  0  0  0  0
   -5.9445    1.6905   -3.6995 C   0  0  0  0  0  0  0  0  0  0  0  0
   -5.4586    0.5127   -1.3364 O   0  0  0  0  0  0  0  0  0  0  0  0
   -7.7990    1.4467   -1.7703 O   0  0  0  0  0  0  0  0  0  0  0  0
   -5.9036    2.9893   -1.3758 O   0  0  0  0  0  0  0  0  0  0  0  0
   -4.6504    1.9885   -3.8236 F   0  0  0  0  0  0  0  0  0  0  0  0
   -6.1989    0.5306   -4.3008 F   0  0  0  0  0  0  0  0  0  0  0  0
   -6.6829    2.6527   -4.2405 F   0  0  0  0  0  0  0  0  0  0  0  0
  1 11  1  0  0  0  0
  1  2  1  0  0  0  0
  2  3  1  0  0  0  0
  4  1  2  0  0  0  0
  5  6  2  0  0  0  0
  5  4  1  0  0  0  0
  6 10  1  0  0  0  0
  7  9  2  0  0  0  0
  7  6  1  0  0  0  0
  8  7  2  0  0  0  0
 10 14  1  0  0  0  0
 10 11  2  0  0  0  0
 11 15  1  0  0  0  0
 13  5  1  0  0  0  0
 16 19  2  0  0  0  0
 16 20  1  0  0  0  0
 16 18  2  0  0  0  0
 17 16  1  0  0  0  0
 20 12  1  0  0  0  0
 21 17  1  0  0  0  0
 22 17  1  0  0  0  0
 23 17  1  0  0  0  0
M  RAD  3   2   2   3   3   4   2
M  END
