Coordinates from ORCA-job 4-NO2PhN2+~TfO-_B3LYPG-6-31G_dp-CH-Scan-d09-49-n800
 OpenBabel11261919533D

 23 22  0  0  0  0  0  0  0  0999 V2000
   -1.5774   -0.6207   -0.0231 C   0  0  0  0  0  0  0  0  0  0  0  0
   -2.8931   -1.0492    0.2278 N   0  0  0  0  0  0  0  0  0  0  0  0
   -3.9583   -1.3203    0.4229 N   0  0  0  0  0  0  0  0  0  0  0  0
   -1.5141    0.7321   -0.3625 C   0  0  0  0  0  0  0  0  0  0  0  0
   -0.1542    1.1005   -0.5951 C   0  0  0  0  0  0  0  0  0  0  0  0
    0.8871    0.1913   -0.4844 C   0  0  0  0  0  0  0  0  0  0  0  0
    2.2793    0.6447   -0.7444 N   0  0  0  0  0  0  0  0  0  0  0  0
    2.4470    1.8178   -1.0639 O   0  0  0  0  0  0  0  0  0  0  0  0
    3.1784   -0.1869   -0.6218 O   0  0  0  0  0  0  0  0  0  0  0  0
    0.7160   -1.1656   -0.1318 C   0  0  0  0  0  0  0  0  0  0  0  0
   -0.5636   -1.6063    0.1135 C   0  0  0  0  0  0  0  0  0  0  0  0
   -4.8266    2.8495   -1.0066 H   0  0  0  0  0  0  0  0  0  0  0  0
    0.1001    2.1201   -0.8708 H   0  0  0  0  0  0  0  0  0  0  0  0
    1.5779   -1.8153   -0.0617 H   0  0  0  0  0  0  0  0  0  0  0  0
   -0.7746   -2.6345    0.3932 H   0  0  0  0  0  0  0  0  0  0  0  0
   -6.2733    1.5107   -1.8633 S   0  0  0  0  0  0  0  0  0  0  0  0
   -5.8218    1.6755   -3.6663 C   0  0  0  0  0  0  0  0  0  0  0  0
   -5.4445    0.4477   -1.3102 O   0  0  0  0  0  0  0  0  0  0  0  0
   -7.7172    1.5255   -1.7670 O   0  0  0  0  0  0  0  0  0  0  0  0
   -5.7406    2.9472   -1.3273 O   0  0  0  0  0  0  0  0  0  0  0  0
   -4.5128    1.9099   -3.7677 F   0  0  0  0  0  0  0  0  0  0  0  0
   -6.1233    0.5334   -4.2800 F   0  0  0  0  0  0  0  0  0  0  0  0
   -6.5027    2.6765   -4.2123 F   0  0  0  0  0  0  0  0  0  0  0  0
  1 11  1  0  0  0  0
  1  2  1  0  0  0  0
  2  3  1  0  0  0  0
  4  1  2  0  0  0  0
  5  6  2  0  0  0  0
  5  4  1  0  0  0  0
  6 10  1  0  0  0  0
  7  9  2  0  0  0  0
  7  6  1  0  0  0  0
  8  7  2  0  0  0  0
 10 14  1  0  0  0  0
 10 11  2  0  0  0  0
 11 15  1  0  0  0  0
 13  5  1  0  0  0  0
 16 19  2  0  0  0  0
 16 20  1  0  0  0  0
 16 18  2  0  0  0  0
 17 16  1  0  0  0  0
 20 12  1  0  0  0  0
 21 17  1  0  0  0  0
 22 17  1  0  0  0  0
 23 17  1  0  0  0  0
M  RAD  3   2   2   3   3   4   2
M  END
