Coordinates from ORCA-job 4-NO2PhN2+~TfO-_B3LYPG-6-31G_dp-CH-Scan-d09-49-n800
 OpenBabel11261919523D

 23 22  0  0  0  0  0  0  0  0999 V2000
   -2.0187   -0.5932   -0.1066 C   0  0  0  0  0  0  0  0  0  0  0  0
   -3.2778   -1.1293    0.1571 N   0  0  0  0  0  0  0  0  0  0  0  0
   -4.3182   -1.4938    0.3101 N   0  0  0  0  0  0  0  0  0  0  0  0
   -1.9934    0.6918   -0.6643 C   0  0  0  0  0  0  0  0  0  0  0  0
   -0.7010    1.1831   -0.9078 C   0  0  0  0  0  0  0  0  0  0  0  0
    0.4143    0.4146   -0.5959 C   0  0  0  0  0  0  0  0  0  0  0  0
    1.7668    0.9714   -0.8652 N   0  0  0  0  0  0  0  0  0  0  0  0
    1.8244    2.0949   -1.3506 O   0  0  0  0  0  0  0  0  0  0  0  0
    2.7285    0.2626   -0.5807 O   0  0  0  0  0  0  0  0  0  0  0  0
    0.3424   -0.8687   -0.0355 C   0  0  0  0  0  0  0  0  0  0  0  0
   -0.9067   -1.3986    0.2233 C   0  0  0  0  0  0  0  0  0  0  0  0
   -3.1414    1.4076   -0.9638 H   0  0  0  0  0  0  0  0  0  0  0  0
   -0.5589    2.1662   -1.3414 H   0  0  0  0  0  0  0  0  0  0  0  0
    1.2524   -1.4123    0.1811 H   0  0  0  0  0  0  0  0  0  0  0  0
   -1.0288   -2.3865    0.6533 H   0  0  0  0  0  0  0  0  0  0  0  0
   -5.4239    1.3040   -1.7057 S   0  0  0  0  0  0  0  0  0  0  0  0
   -5.5232    1.7599   -3.5033 C   0  0  0  0  0  0  0  0  0  0  0  0
   -5.0983   -0.1430   -1.7136 O   0  0  0  0  0  0  0  0  0  0  0  0
   -6.6898    1.7209   -1.1105 O   0  0  0  0  0  0  0  0  0  0  0  0
   -4.2250    2.1262   -1.2368 O   0  0  0  0  0  0  0  0  0  0  0  0
   -4.3668    1.4650   -4.1162 F   0  0  0  0  0  0  0  0  0  0  0  0
   -6.5083    1.0735   -4.0910 F   0  0  0  0  0  0  0  0  0  0  0  0
   -5.7609    3.0673   -3.6387 F   0  0  0  0  0  0  0  0  0  0  0  0
  1  2  1  0  0  0  0
  1 11  2  0  0  0  0
  2  3  1  0  0  0  0
  4  1  1  0  0  0  0
  5  4  2  0  0  0  0
  5  6  1  0  0  0  0
  6 10  2  0  0  0  0
  7  6  1  0  0  0  0
  7  9  2  0  0  0  0
  8  7  2  0  0  0  0
 10 14  1  0  0  0  0
 10 11  1  0  0  0  0
 11 15  1  0  0  0  0
 13  5  1  0  0  0  0
 16 20  1  0  0  0  0
 16 19  2  0  0  0  0
 17 16  1  0  0  0  0
 18 16  2  0  0  0  0
 20 12  1  0  0  0  0
 21 17  1  0  0  0  0
 22 17  1  0  0  0  0
 23 17  1  0  0  0  0
M  RAD  3   2   2   3   3   4   2
M  END
