Coordinates from ORCA-job 4-NO2PhN2+~TfO-_B3LYPG-6-31G_dp-CH-Scan-d09-49-n800
 OpenBabel11261919523D

 23 22  0  0  0  0  0  0  0  0999 V2000
   -1.7100   -0.6639   -0.1064 C   0  0  0  0  0  0  0  0  0  0  0  0
   -2.9957   -1.1777    0.1143 N   0  0  0  0  0  0  0  0  0  0  0  0
   -4.0382   -1.5389    0.2796 N   0  0  0  0  0  0  0  0  0  0  0  0
   -1.7096    0.6700   -0.5281 C   0  0  0  0  0  0  0  0  0  0  0  0
   -0.3707    1.1172   -0.7241 C   0  0  0  0  0  0  0  0  0  0  0  0
    0.7218    0.2906   -0.5070 C   0  0  0  0  0  0  0  0  0  0  0  0
    2.0919    0.8242   -0.7321 N   0  0  0  0  0  0  0  0  0  0  0  0
    2.1948    1.9878   -1.1072 O   0  0  0  0  0  0  0  0  0  0  0  0
    3.0358    0.0620   -0.5275 O   0  0  0  0  0  0  0  0  0  0  0  0
    0.6224   -1.0499   -0.0784 C   0  0  0  0  0  0  0  0  0  0  0  0
   -0.6363   -1.5623    0.1352 C   0  0  0  0  0  0  0  0  0  0  0  0
   -4.1657    2.2906   -1.0448 H   0  0  0  0  0  0  0  0  0  0  0  0
   -0.1729    2.1325   -1.0539 H   0  0  0  0  0  0  0  0  0  0  0  0
    1.5197   -1.6348    0.0715 H   0  0  0  0  0  0  0  0  0  0  0  0
   -0.7913   -2.5846    0.4669 H   0  0  0  0  0  0  0  0  0  0  0  0
   -6.0271    1.5070   -1.7759 S   0  0  0  0  0  0  0  0  0  0  0  0
   -5.7609    1.6801   -3.6135 C   0  0  0  0  0  0  0  0  0  0  0  0
   -5.4983    0.2024   -1.3936 O   0  0  0  0  0  0  0  0  0  0  0  0
   -7.3851    1.9201   -1.4904 O   0  0  0  0  0  0  0  0  0  0  0  0
   -5.0415    2.6731   -1.2516 O   0  0  0  0  0  0  0  0  0  0  0  0
   -4.4670    1.5080   -3.8883 F   0  0  0  0  0  0  0  0  0  0  0  0
   -6.4790    0.7444   -4.2325 F   0  0  0  0  0  0  0  0  0  0  0  0
   -6.1491    2.8858   -4.0150 F   0  0  0  0  0  0  0  0  0  0  0  0
  1  2  1  0  0  0  0
  1 11  2  0  0  0  0
  2  3  1  0  0  0  0
  4  1  1  0  0  0  0
  5  4  2  0  0  0  0
  5  6  1  0  0  0  0
  6 10  2  0  0  0  0
  7  9  2  0  0  0  0
  7  6  1  0  0  0  0
  8  7  2  0  0  0  0
 10 14  1  0  0  0  0
 10 11  1  0  0  0  0
 11 15  1  0  0  0  0
 13  5  1  0  0  0  0
 16 19  2  0  0  0  0
 16 18  2  0  0  0  0
 16 20  1  0  0  0  0
 17 16  1  0  0  0  0
 20 12  1  0  0  0  0
 21 17  1  0  0  0  0
 22 17  1  0  0  0  0
 23 17  1  0  0  0  0
M  RAD  3   2   2   3   3   4   2
M  END
