Coordinates from ORCA-job 4-NO2PhN2+~TfO-_B3LYPG-6-31G_dp-CH-Scan-d09-49-n800
 OpenBabel11261919523D

 23 22  0  0  0  0  0  0  0  0999 V2000
   -1.8742   -0.6595   -0.1082 C   0  0  0  0  0  0  0  0  0  0  0  0
   -3.1285   -1.2189    0.1561 N   0  0  0  0  0  0  0  0  0  0  0  0
   -4.1469   -1.6265    0.3540 N   0  0  0  0  0  0  0  0  0  0  0  0
   -1.9183    0.6582   -0.5822 C   0  0  0  0  0  0  0  0  0  0  0  0
   -0.6051    1.1484   -0.8184 C   0  0  0  0  0  0  0  0  0  0  0  0
    0.5208    0.3714   -0.5871 C   0  0  0  0  0  0  0  0  0  0  0  0
    1.8659    0.9475   -0.8548 N   0  0  0  0  0  0  0  0  0  0  0  0
    1.9167    2.0998   -1.2716 O   0  0  0  0  0  0  0  0  0  0  0  0
    2.8398    0.2288   -0.6368 O   0  0  0  0  0  0  0  0  0  0  0  0
    0.4762   -0.9524   -0.1066 C   0  0  0  0  0  0  0  0  0  0  0  0
   -0.7601   -1.5016    0.1473 C   0  0  0  0  0  0  0  0  0  0  0  0
   -3.7940    1.8736   -0.9601 H   0  0  0  0  0  0  0  0  0  0  0  0
   -0.4540    2.1565   -1.1903 H   0  0  0  0  0  0  0  0  0  0  0  0
    1.3958   -1.4995    0.0508 H   0  0  0  0  0  0  0  0  0  0  0  0
   -0.8708   -2.5154    0.5188 H   0  0  0  0  0  0  0  0  0  0  0  0
   -5.7709    1.4454   -1.7113 S   0  0  0  0  0  0  0  0  0  0  0  0
   -5.4890    1.6776   -3.5380 C   0  0  0  0  0  0  0  0  0  0  0  0
   -5.4634    0.0458   -1.4228 O   0  0  0  0  0  0  0  0  0  0  0  0
   -7.0574    2.0342   -1.3962 O   0  0  0  0  0  0  0  0  0  0  0  0
   -4.6266    2.3957   -1.1282 O   0  0  0  0  0  0  0  0  0  0  0  0
   -4.2452    1.3012   -3.8459 F   0  0  0  0  0  0  0  0  0  0  0  0
   -6.3602    0.9189   -4.2031 F   0  0  0  0  0  0  0  0  0  0  0  0
   -5.6629    2.9541   -3.8681 F   0  0  0  0  0  0  0  0  0  0  0  0
  1 11  1  0  0  0  0
  1  2  1  0  0  0  0
  2  3  1  0  0  0  0
  4  1  2  0  0  0  0
  5  6  2  0  0  0  0
  5  4  1  0  0  0  0
  6 10  1  0  0  0  0
  7  9  2  0  0  0  0
  7  6  1  0  0  0  0
  8  7  2  0  0  0  0
 10 14  1  0  0  0  0
 10 11  2  0  0  0  0
 11 15  1  0  0  0  0
 13  5  1  0  0  0  0
 16 18  2  0  0  0  0
 16 19  2  0  0  0  0
 16 20  1  0  0  0  0
 17 16  1  0  0  0  0
 20 12  1  0  0  0  0
 21 17  1  0  0  0  0
 22 17  1  0  0  0  0
 23 17  1  0  0  0  0
M  RAD  3   2   2   3   3   4   2
M  END
