Coordinates from ORCA-job 4-NO2PhN2+~TfO-_B3LYPG-6-31G_dp-CH-Scan-d09-49-n800
 OpenBabel11261919523D

 23 22  0  0  0  0  0  0  0  0999 V2000
   -1.7372   -0.6605   -0.1004 C   0  0  0  0  0  0  0  0  0  0  0  0
   -3.0181   -1.1792    0.1336 N   0  0  0  0  0  0  0  0  0  0  0  0
   -4.0568   -1.5452    0.3110 N   0  0  0  0  0  0  0  0  0  0  0  0
   -1.7439    0.6716   -0.5283 C   0  0  0  0  0  0  0  0  0  0  0  0
   -0.4090    1.1233   -0.7374 C   0  0  0  0  0  0  0  0  0  0  0  0
    0.6885    0.3020   -0.5254 C   0  0  0  0  0  0  0  0  0  0  0  0
    2.0545    0.8398   -0.7641 N   0  0  0  0  0  0  0  0  0  0  0  0
    2.1496    2.0022   -1.1451 O   0  0  0  0  0  0  0  0  0  0  0  0
    3.0029    0.0821   -0.5638 O   0  0  0  0  0  0  0  0  0  0  0  0
    0.5975   -1.0368   -0.0899 C   0  0  0  0  0  0  0  0  0  0  0  0
   -0.6576   -1.5530    0.1363 C   0  0  0  0  0  0  0  0  0  0  0  0
   -4.1270    2.2373   -1.0141 H   0  0  0  0  0  0  0  0  0  0  0  0
   -0.2182    2.1379   -1.0736 H   0  0  0  0  0  0  0  0  0  0  0  0
    1.4981   -1.6177    0.0554 H   0  0  0  0  0  0  0  0  0  0  0  0
   -0.8057   -2.5743    0.4738 H   0  0  0  0  0  0  0  0  0  0  0  0
   -5.9955    1.4922   -1.7687 S   0  0  0  0  0  0  0  0  0  0  0  0
   -5.6992    1.6805   -3.6000 C   0  0  0  0  0  0  0  0  0  0  0  0
   -5.4968    0.1727   -1.3957 O   0  0  0  0  0  0  0  0  0  0  0  0
   -7.3506    1.9251   -1.4983 O   0  0  0  0  0  0  0  0  0  0  0  0
   -4.9993    2.6335   -1.2154 O   0  0  0  0  0  0  0  0  0  0  0  0
   -4.4031    1.4961   -3.8568 F   0  0  0  0  0  0  0  0  0  0  0  0
   -6.4181    0.7595   -4.2399 F   0  0  0  0  0  0  0  0  0  0  0  0
   -6.0672    2.8945   -3.9958 F   0  0  0  0  0  0  0  0  0  0  0  0
  1  2  1  0  0  0  0
  1 11  2  0  0  0  0
  2  3  1  0  0  0  0
  4  1  1  0  0  0  0
  5  4  2  0  0  0  0
  5  6  1  0  0  0  0
  6 10  2  0  0  0  0
  7  9  2  0  0  0  0
  7  6  1  0  0  0  0
  8  7  2  0  0  0  0
 10 14  1  0  0  0  0
 10 11  1  0  0  0  0
 11 15  1  0  0  0  0
 13  5  1  0  0  0  0
 16 19  2  0  0  0  0
 16 18  2  0  0  0  0
 16 20  1  0  0  0  0
 17 16  1  0  0  0  0
 20 12  1  0  0  0  0
 21 17  1  0  0  0  0
 22 17  1  0  0  0  0
 23 17  1  0  0  0  0
M  RAD  3   2   2   3   3   4   2
M  END
