Coordinates from ORCA-job 4-NO2PhN2+~TfO-_B3LYPG-6-31G_dp-CH-Scan-d09-49-n800
 OpenBabel11261919523D

 23 22  0  0  0  0  0  0  0  0999 V2000
   -1.8732   -0.6596   -0.1075 C   0  0  0  0  0  0  0  0  0  0  0  0
   -3.1277   -1.2193    0.1553 N   0  0  0  0  0  0  0  0  0  0  0  0
   -4.1462   -1.6271    0.3522 N   0  0  0  0  0  0  0  0  0  0  0  0
   -1.9171    0.6584   -0.5805 C   0  0  0  0  0  0  0  0  0  0  0  0
   -0.6038    1.1490   -0.8154 C   0  0  0  0  0  0  0  0  0  0  0  0
    0.5220    0.3720   -0.5838 C   0  0  0  0  0  0  0  0  0  0  0  0
    1.8672    0.9485   -0.8498 N   0  0  0  0  0  0  0  0  0  0  0  0
    1.9176    2.0964   -1.2788 O   0  0  0  0  0  0  0  0  0  0  0  0
    2.8404    0.2251   -0.6446 O   0  0  0  0  0  0  0  0  0  0  0  0
    0.4772   -0.9522   -0.1044 C   0  0  0  0  0  0  0  0  0  0  0  0
   -0.7592   -1.5018    0.1482 C   0  0  0  0  0  0  0  0  0  0  0  0
   -3.7972    1.8759   -0.9597 H   0  0  0  0  0  0  0  0  0  0  0  0
   -0.4525    2.1575   -1.1864 H   0  0  0  0  0  0  0  0  0  0  0  0
    1.3968   -1.4993    0.0533 H   0  0  0  0  0  0  0  0  0  0  0  0
   -0.8700   -2.5159    0.5190 H   0  0  0  0  0  0  0  0  0  0  0  0
   -5.7728    1.4453   -1.7123 S   0  0  0  0  0  0  0  0  0  0  0  0
   -5.4899    1.6783   -3.5387 C   0  0  0  0  0  0  0  0  0  0  0  0
   -5.4635    0.0460   -1.4238 O   0  0  0  0  0  0  0  0  0  0  0  0
   -7.0601    2.0324   -1.3979 O   0  0  0  0  0  0  0  0  0  0  0  0
   -4.6301    2.3971   -1.1281 O   0  0  0  0  0  0  0  0  0  0  0  0
   -4.2454    1.3034   -3.8459 F   0  0  0  0  0  0  0  0  0  0  0  0
   -6.3597    0.9187   -4.2046 F   0  0  0  0  0  0  0  0  0  0  0  0
   -5.6650    2.9547   -3.8686 F   0  0  0  0  0  0  0  0  0  0  0  0
  1 11  1  0  0  0  0
  1  2  1  0  0  0  0
  2  3  1  0  0  0  0
  4  1  2  0  0  0  0
  5  6  2  0  0  0  0
  5  4  1  0  0  0  0
  6 10  1  0  0  0  0
  7  9  2  0  0  0  0
  7  6  1  0  0  0  0
  8  7  2  0  0  0  0
 10 14  1  0  0  0  0
 10 11  2  0  0  0  0
 11 15  1  0  0  0  0
 13  5  1  0  0  0  0
 16 18  2  0  0  0  0
 16 19  2  0  0  0  0
 16 20  1  0  0  0  0
 17 16  1  0  0  0  0
 20 12  1  0  0  0  0
 21 17  1  0  0  0  0
 22 17  1  0  0  0  0
 23 17  1  0  0  0  0
M  RAD  3   2   2   3   3   4   2
M  END
