Coordinates from ORCA-job 4-NO2PhN2+~TfO-_B3LYPG-6-31G_dp-CH-Scan-d09-49-n800
 OpenBabel11261919523D

 23 22  0  0  0  0  0  0  0  0999 V2000
   -2.1624   -0.2491    0.0797 C   0  0  0  0  0  0  0  0  0  0  0  0
   -3.4325   -0.5477    0.5704 N   0  0  0  0  0  0  0  0  0  0  0  0
   -4.5506   -0.4572    0.7003 N   0  0  0  0  0  0  0  0  0  0  0  0
   -2.0110    0.9023   -0.7069 C   0  0  0  0  0  0  0  0  0  0  0  0
   -0.7354    1.1868   -1.1804 C   0  0  0  0  0  0  0  0  0  0  0  0
    0.3126    0.3259   -0.8595 C   0  0  0  0  0  0  0  0  0  0  0  0
    1.6697    0.6421   -1.3711 N   0  0  0  0  0  0  0  0  0  0  0  0
    1.7884    1.6564   -2.0490 O   0  0  0  0  0  0  0  0  0  0  0  0
    2.5719   -0.1353   -1.0753 O   0  0  0  0  0  0  0  0  0  0  0  0
    0.1539   -0.8188   -0.0784 C   0  0  0  0  0  0  0  0  0  0  0  0
   -1.1120   -1.1153    0.4088 C   0  0  0  0  0  0  0  0  0  0  0  0
   -2.8694    1.5285   -0.9278 H   0  0  0  0  0  0  0  0  0  0  0  0
   -0.5482    2.0567   -1.7974 H   0  0  0  0  0  0  0  0  0  0  0  0
    1.0096   -1.4467    0.1330 H   0  0  0  0  0  0  0  0  0  0  0  0
   -1.2927   -1.9928    1.0189 H   0  0  0  0  0  0  0  0  0  0  0  0
   -5.4611    0.5596   -1.9356 S   0  0  0  0  0  0  0  0  0  0  0  0
   -5.0975    2.0311   -3.0202 C   0  0  0  0  0  0  0  0  0  0  0  0
   -4.3986   -0.4178   -2.2561 O   0  0  0  0  0  0  0  0  0  0  0  0
   -6.8477    0.2011   -2.2267 O   0  0  0  0  0  0  0  0  0  0  0  0
   -5.2278    1.1746   -0.5569 O   0  0  0  0  0  0  0  0  0  0  0  0
   -3.8411    2.4844   -2.7882 F   0  0  0  0  0  0  0  0  0  0  0  0
   -5.1804    1.6871   -4.3073 F   0  0  0  0  0  0  0  0  0  0  0  0
   -5.9499    3.0277   -2.7773 F   0  0  0  0  0  0  0  0  0  0  0  0
  1 11  1  0  0  0  0
  1  2  1  0  0  0  0
  2  3  1  0  0  0  0
  4  1  2  0  0  0  0
  5  6  2  0  0  0  0
  5  4  1  0  0  0  0
  6 10  1  0  0  0  0
  7  9  2  0  0  0  0
  7  6  1  0  0  0  0
  8  7  2  0  0  0  0
 10 14  1  0  0  0  0
 10 11  2  0  0  0  0
 11 15  1  0  0  0  0
 12  4  1  0  0  0  0
 13  5  1  0  0  0  0
 16 20  1  0  0  0  0
 17 21  1  0  0  0  0
 17 23  1  0  0  0  0
 17 16  1  0  0  0  0
 18 16  2  0  0  0  0
 19 16  2  0  0  0  0
 22 17  1  0  0  0  0
M  RAD  3   2   2   3   3  20   2
M  END
