Coordinates from ORCA-job 4-NO2PhN2+~TfO-_B3LYPG-6-31G_dp-CH-Scan-d09-49-n800
 OpenBabel11261919533D

 23 22  0  0  0  0  0  0  0  0999 V2000
   -1.5608   -0.6710   -0.1235 C   0  0  0  0  0  0  0  0  0  0  0  0
   -2.8747   -1.1419    0.0406 N   0  0  0  0  0  0  0  0  0  0  0  0
   -3.9393   -1.4553    0.1598 N   0  0  0  0  0  0  0  0  0  0  0  0
   -1.5144    0.6740   -0.4978 C   0  0  0  0  0  0  0  0  0  0  0  0
   -0.1542    1.0829   -0.6403 C   0  0  0  0  0  0  0  0  0  0  0  0
    0.9050    0.2143   -0.4239 C   0  0  0  0  0  0  0  0  0  0  0  0
    2.2973    0.7092   -0.5930 N   0  0  0  0  0  0  0  0  0  0  0  0
    2.4493    1.8806   -0.9258 O   0  0  0  0  0  0  0  0  0  0  0  0
    3.2110   -0.0901   -0.3914 O   0  0  0  0  0  0  0  0  0  0  0  0
    0.7523   -1.1374   -0.0449 C   0  0  0  0  0  0  0  0  0  0  0  0
   -0.5272   -1.6156    0.1169 C   0  0  0  0  0  0  0  0  0  0  0  0
   -4.5069    2.6934   -1.1770 H   0  0  0  0  0  0  0  0  0  0  0  0
    0.0864    2.1022   -0.9282 H   0  0  0  0  0  0  0  0  0  0  0  0
    1.6268   -1.7548    0.1084 H   0  0  0  0  0  0  0  0  0  0  0  0
   -0.7248   -2.6428    0.4094 H   0  0  0  0  0  0  0  0  0  0  0  0
   -6.2309    1.5865   -1.8187 S   0  0  0  0  0  0  0  0  0  0  0  0
   -6.0280    1.6645   -3.6718 C   0  0  0  0  0  0  0  0  0  0  0  0
   -5.4926    0.4178   -1.3571 O   0  0  0  0  0  0  0  0  0  0  0  0
   -7.6289    1.8118   -1.5195 O   0  0  0  0  0  0  0  0  0  0  0  0
   -5.4218    2.9316   -1.4111 O   0  0  0  0  0  0  0  0  0  0  0  0
   -4.7279    1.6846   -3.9678 F   0  0  0  0  0  0  0  0  0  0  0  0
   -6.5928    0.5811   -4.2008 F   0  0  0  0  0  0  0  0  0  0  0  0
   -6.6150    2.7579   -4.1454 F   0  0  0  0  0  0  0  0  0  0  0  0
  1  2  1  0  0  0  0
  1 11  2  0  0  0  0
  2  3  1  0  0  0  0
  4  1  1  0  0  0  0
  5  4  2  0  0  0  0
  5  6  1  0  0  0  0
  6 10  2  0  0  0  0
  7  6  1  0  0  0  0
  7  9  2  0  0  0  0
  8  7  2  0  0  0  0
 10 14  1  0  0  0  0
 10 11  1  0  0  0  0
 11 15  1  0  0  0  0
 13  5  1  0  0  0  0
 16 19  2  0  0  0  0
 16 20  1  0  0  0  0
 16 18  2  0  0  0  0
 17 16  1  0  0  0  0
 20 12  1  0  0  0  0
 21 17  1  0  0  0  0
 22 17  1  0  0  0  0
 23 17  1  0  0  0  0
M  RAD  3   2   2   3   3   4   2
M  END
