Coordinates from ORCA-job 4-NO2PhN2+~TfO-_B3LYPG-6-31G_dp-CH-Scan-d09-49-n800
 OpenBabel11261919533D

 23 22  0  0  0  0  0  0  0  0999 V2000
   -1.5599   -0.6708   -0.1235 C   0  0  0  0  0  0  0  0  0  0  0  0
   -2.8740   -1.1412    0.0405 N   0  0  0  0  0  0  0  0  0  0  0  0
   -3.9387   -1.4546    0.1594 N   0  0  0  0  0  0  0  0  0  0  0  0
   -1.5130    0.6742   -0.4976 C   0  0  0  0  0  0  0  0  0  0  0  0
   -0.1528    1.0826   -0.6402 C   0  0  0  0  0  0  0  0  0  0  0  0
    0.9062    0.2137   -0.4239 C   0  0  0  0  0  0  0  0  0  0  0  0
    2.2986    0.7082   -0.5931 N   0  0  0  0  0  0  0  0  0  0  0  0
    2.4511    1.8800   -0.9242 O   0  0  0  0  0  0  0  0  0  0  0  0
    3.2121   -0.0911   -0.3900 O   0  0  0  0  0  0  0  0  0  0  0  0
    0.7530   -1.1380   -0.0451 C   0  0  0  0  0  0  0  0  0  0  0  0
   -0.5267   -1.6158    0.1167 C   0  0  0  0  0  0  0  0  0  0  0  0
   -4.5098    2.6961   -1.1774 H   0  0  0  0  0  0  0  0  0  0  0  0
    0.0882    2.1019   -0.9279 H   0  0  0  0  0  0  0  0  0  0  0  0
    1.6273   -1.7557    0.1082 H   0  0  0  0  0  0  0  0  0  0  0  0
   -0.7245   -2.6429    0.4092 H   0  0  0  0  0  0  0  0  0  0  0  0
   -6.2324    1.5868   -1.8189 S   0  0  0  0  0  0  0  0  0  0  0  0
   -6.0292    1.6644   -3.6721 C   0  0  0  0  0  0  0  0  0  0  0  0
   -5.4927    0.4190   -1.3568 O   0  0  0  0  0  0  0  0  0  0  0  0
   -7.6307    1.8105   -1.5200 O   0  0  0  0  0  0  0  0  0  0  0  0
   -5.4251    2.9331   -1.4117 O   0  0  0  0  0  0  0  0  0  0  0  0
   -4.7291    1.6858   -3.9678 F   0  0  0  0  0  0  0  0  0  0  0  0
   -6.5927    0.5802   -4.2008 F   0  0  0  0  0  0  0  0  0  0  0  0
   -6.6173    2.7571   -4.1461 F   0  0  0  0  0  0  0  0  0  0  0  0
  1  2  1  0  0  0  0
  1 11  2  0  0  0  0
  2  3  1  0  0  0  0
  4  1  1  0  0  0  0
  5  4  2  0  0  0  0
  5  6  1  0  0  0  0
  6 10  2  0  0  0  0
  7  6  1  0  0  0  0
  7  9  2  0  0  0  0
  8  7  2  0  0  0  0
 10 14  1  0  0  0  0
 10 11  1  0  0  0  0
 11 15  1  0  0  0  0
 13  5  1  0  0  0  0
 16 19  2  0  0  0  0
 16 20  1  0  0  0  0
 16 18  2  0  0  0  0
 17 16  1  0  0  0  0
 20 12  1  0  0  0  0
 21 17  1  0  0  0  0
 22 17  1  0  0  0  0
 23 17  1  0  0  0  0
M  RAD  3   2   2   3   3   4   2
M  END
