Coordinates from ORCA-job 4-NO2PhN2+~TfO-_B3LYPG-6-31G_dp-CH-Scan-d09-49-n800
 OpenBabel11261919523D

 23 22  0  0  0  0  0  0  0  0999 V2000
   -2.1623   -0.2497    0.0777 C   0  0  0  0  0  0  0  0  0  0  0  0
   -3.4323   -0.5486    0.5680 N   0  0  0  0  0  0  0  0  0  0  0  0
   -4.5506   -0.4603    0.6985 N   0  0  0  0  0  0  0  0  0  0  0  0
   -2.0117    0.8975   -0.7154 C   0  0  0  0  0  0  0  0  0  0  0  0
   -0.7355    1.1812   -1.1879 C   0  0  0  0  0  0  0  0  0  0  0  0
    0.3136    0.3242   -0.8601 C   0  0  0  0  0  0  0  0  0  0  0  0
    1.6710    0.6400   -1.3712 N   0  0  0  0  0  0  0  0  0  0  0  0
    1.7892    1.6510   -2.0541 O   0  0  0  0  0  0  0  0  0  0  0  0
    2.5743   -0.1335   -1.0683 O   0  0  0  0  0  0  0  0  0  0  0  0
    0.1555   -0.8161   -0.0726 C   0  0  0  0  0  0  0  0  0  0  0  0
   -1.1109   -1.1119    0.4138 C   0  0  0  0  0  0  0  0  0  0  0  0
   -2.8617    1.5166   -0.9398 H   0  0  0  0  0  0  0  0  0  0  0  0
   -0.5487    2.0479   -1.8095 H   0  0  0  0  0  0  0  0  0  0  0  0
    1.0118   -1.4412    0.1442 H   0  0  0  0  0  0  0  0  0  0  0  0
   -1.2912   -1.9862    1.0286 H   0  0  0  0  0  0  0  0  0  0  0  0
   -5.4617    0.5594   -1.9378 S   0  0  0  0  0  0  0  0  0  0  0  0
   -5.1013    2.0373   -3.0149 C   0  0  0  0  0  0  0  0  0  0  0  0
   -4.3941   -0.4120   -2.2602 O   0  0  0  0  0  0  0  0  0  0  0  0
   -6.8459    0.1966   -2.2348 O   0  0  0  0  0  0  0  0  0  0  0  0
   -5.2345    1.1686   -0.5558 O   0  0  0  0  0  0  0  0  0  0  0  0
   -3.8464    2.4931   -2.7798 F   0  0  0  0  0  0  0  0  0  0  0  0
   -5.1822    1.6992   -4.3037 F   0  0  0  0  0  0  0  0  0  0  0  0
   -5.9566    3.0304   -2.7678 F   0  0  0  0  0  0  0  0  0  0  0  0
  1 11  1  0  0  0  0
  1  2  1  0  0  0  0
  2  3  1  0  0  0  0
  4  1  2  0  0  0  0
  5  6  2  0  0  0  0
  5  4  1  0  0  0  0
  6 10  1  0  0  0  0
  7  9  2  0  0  0  0
  7  6  1  0  0  0  0
  8  7  2  0  0  0  0
 10 14  1  0  0  0  0
 10 11  2  0  0  0  0
 11 15  1  0  0  0  0
 12  4  1  0  0  0  0
 13  5  1  0  0  0  0
 16 20  1  0  0  0  0
 17 21  1  0  0  0  0
 17 23  1  0  0  0  0
 17 16  1  0  0  0  0
 18 16  2  0  0  0  0
 19 16  2  0  0  0  0
 22 17  1  0  0  0  0
M  RAD  3   2   2   3   3  20   2
M  END
