Coordinates from ORCA-job 4-NO2PhN2+~TfO-_B3LYPG-6-31G_dp-CH-Scan-d09-49-n800
 OpenBabel11261919533D

 23 22  0  0  0  0  0  0  0  0999 V2000
   -1.4631   -0.5839   -0.0040 C   0  0  0  0  0  0  0  0  0  0  0  0
   -2.8015   -0.9572    0.2213 N   0  0  0  0  0  0  0  0  0  0  0  0
   -3.8821   -1.1775    0.3962 N   0  0  0  0  0  0  0  0  0  0  0  0
   -1.3393    0.7761   -0.2885 C   0  0  0  0  0  0  0  0  0  0  0  0
    0.0370    1.0940   -0.4997 C   0  0  0  0  0  0  0  0  0  0  0  0
    1.0357    0.1351   -0.4225 C   0  0  0  0  0  0  0  0  0  0  0  0
    2.4482    0.5357   -0.6587 N   0  0  0  0  0  0  0  0  0  0  0  0
    2.6691    1.7097   -0.9401 O   0  0  0  0  0  0  0  0  0  0  0  0
    3.3094   -0.3386   -0.5627 O   0  0  0  0  0  0  0  0  0  0  0  0
    0.8027   -1.2262   -0.1250 C   0  0  0  0  0  0  0  0  0  0  0  0
   -0.4964   -1.6193    0.0978 C   0  0  0  0  0  0  0  0  0  0  0  0
   -5.1367    3.0237   -1.0877 H   0  0  0  0  0  0  0  0  0  0  0  0
    0.3373    2.1120   -0.7317 H   0  0  0  0  0  0  0  0  0  0  0  0
    1.6348   -1.9154   -0.0778 H   0  0  0  0  0  0  0  0  0  0  0  0
   -0.7544   -2.6475    0.3359 H   0  0  0  0  0  0  0  0  0  0  0  0
   -6.4235    1.5149   -1.9140 S   0  0  0  0  0  0  0  0  0  0  0  0
   -6.0266    1.6978   -3.7277 C   0  0  0  0  0  0  0  0  0  0  0  0
   -5.4637    0.5715   -1.3557 O   0  0  0  0  0  0  0  0  0  0  0  0
   -7.8571    1.3610   -1.7904 O   0  0  0  0  0  0  0  0  0  0  0  0
   -6.0529    3.0163   -1.4161 O   0  0  0  0  0  0  0  0  0  0  0  0
   -4.7492    2.0581   -3.8595 F   0  0  0  0  0  0  0  0  0  0  0  0
   -6.2264    0.5234   -4.3214 F   0  0  0  0  0  0  0  0  0  0  0  0
   -6.8134    2.6198   -4.2706 F   0  0  0  0  0  0  0  0  0  0  0  0
  1 11  1  0  0  0  0
  1  2  1  0  0  0  0
  2  3  1  0  0  0  0
  4  1  2  0  0  0  0
  5  6  2  0  0  0  0
  5  4  1  0  0  0  0
  6 10  1  0  0  0  0
  7  9  2  0  0  0  0
  7  6  1  0  0  0  0
  8  7  2  0  0  0  0
 10 14  1  0  0  0  0
 10 11  2  0  0  0  0
 11 15  1  0  0  0  0
 13  5  1  0  0  0  0
 16 19  2  0  0  0  0
 16 20  1  0  0  0  0
 16 18  2  0  0  0  0
 17 16  1  0  0  0  0
 20 12  1  0  0  0  0
 21 17  1  0  0  0  0
 22 17  1  0  0  0  0
 23 17  1  0  0  0  0
M  RAD  3   2   2   3   3   4   2
M  END
