Coordinates from ORCA-job 4-NO2PhN2+~TfO-_B3LYPG-6-31G_dp-CH-Scan-d09-49-n800
 OpenBabel11261919523D

 23 22  0  0  0  0  0  0  0  0999 V2000
   -2.0111   -0.5908   -0.1137 C   0  0  0  0  0  0  0  0  0  0  0  0
   -3.2757   -1.1205    0.1361 N   0  0  0  0  0  0  0  0  0  0  0  0
   -4.3269   -1.4651    0.2626 N   0  0  0  0  0  0  0  0  0  0  0  0
   -1.9729    0.6908   -0.6782 C   0  0  0  0  0  0  0  0  0  0  0  0
   -0.6796    1.1804   -0.9118 C   0  0  0  0  0  0  0  0  0  0  0  0
    0.4306    0.4108   -0.5838 C   0  0  0  0  0  0  0  0  0  0  0  0
    1.7869    0.9633   -0.8423 N   0  0  0  0  0  0  0  0  0  0  0  0
    1.8513    2.0839   -1.3333 O   0  0  0  0  0  0  0  0  0  0  0  0
    2.7440    0.2540   -0.5440 O   0  0  0  0  0  0  0  0  0  0  0  0
    0.3493   -0.8686   -0.0168 C   0  0  0  0  0  0  0  0  0  0  0  0
   -0.9040   -1.3945    0.2323 C   0  0  0  0  0  0  0  0  0  0  0  0
   -3.1021    1.3955   -0.9834 H   0  0  0  0  0  0  0  0  0  0  0  0
   -0.5325    2.1610   -1.3491 H   0  0  0  0  0  0  0  0  0  0  0  0
    1.2556   -1.4131    0.2125 H   0  0  0  0  0  0  0  0  0  0  0  0
   -1.0325   -2.3796    0.6667 H   0  0  0  0  0  0  0  0  0  0  0  0
   -5.4201    1.3026   -1.7120 S   0  0  0  0  0  0  0  0  0  0  0  0
   -5.5713    1.7647   -3.5044 C   0  0  0  0  0  0  0  0  0  0  0  0
   -5.0852   -0.1445   -1.7407 O   0  0  0  0  0  0  0  0  0  0  0  0
   -6.6778    1.6980   -1.0837 O   0  0  0  0  0  0  0  0  0  0  0  0
   -4.2197    2.1285   -1.2685 O   0  0  0  0  0  0  0  0  0  0  0  0
   -4.4302    1.4804   -4.1503 F   0  0  0  0  0  0  0  0  0  0  0  0
   -6.5676    1.0750   -4.0690 F   0  0  0  0  0  0  0  0  0  0  0  0
   -5.8208    3.0714   -3.6278 F   0  0  0  0  0  0  0  0  0  0  0  0
  1  2  1  0  0  0  0
  1 11  2  0  0  0  0
  2  3  1  0  0  0  0
  4  1  1  0  0  0  0
  5  4  2  0  0  0  0
  5  6  1  0  0  0  0
  6 10  2  0  0  0  0
  7  6  1  0  0  0  0
  7  9  2  0  0  0  0
  8  7  2  0  0  0  0
 10 14  1  0  0  0  0
 10 11  1  0  0  0  0
 11 15  1  0  0  0  0
 12  4  1  0  0  0  0
 13  5  1  0  0  0  0
 16 20  2  0  0  0  0
 16 19  1  0  0  0  0
 17 16  1  0  0  0  0
 18 16  2  0  0  0  0
 21 17  1  0  0  0  0
 22 17  1  0  0  0  0
 23 17  1  0  0  0  0
M  RAD  3   2   2   3   3  19   2
M  END
