Coordinates from ORCA-job 4-NO2PhN2+~TfO-_B3LYPG-6-31G_dp-CH-Scan-d09-49-n800
 OpenBabel11261919533D

 23 22  0  0  0  0  0  0  0  0999 V2000
   -1.5464   -0.6150   -0.0230 C   0  0  0  0  0  0  0  0  0  0  0  0
   -2.8683   -1.0307    0.2185 N   0  0  0  0  0  0  0  0  0  0  0  0
   -3.9381   -1.2909    0.4038 N   0  0  0  0  0  0  0  0  0  0  0  0
   -1.4693    0.7388   -0.3542 C   0  0  0  0  0  0  0  0  0  0  0  0
   -0.1048    1.0960   -0.5778 C   0  0  0  0  0  0  0  0  0  0  0  0
    0.9272    0.1764   -0.4674 C   0  0  0  0  0  0  0  0  0  0  0  0
    2.3250    0.6181   -0.7176 N   0  0  0  0  0  0  0  0  0  0  0  0
    2.5054    1.7913   -1.0297 O   0  0  0  0  0  0  0  0  0  0  0  0
    3.2157   -0.2225   -0.5951 O   0  0  0  0  0  0  0  0  0  0  0  0
    0.7418   -1.1810   -0.1235 C   0  0  0  0  0  0  0  0  0  0  0  0
   -0.5431   -1.6112    0.1129 C   0  0  0  0  0  0  0  0  0  0  0  0
   -4.9006    2.8958   -1.0308 H   0  0  0  0  0  0  0  0  0  0  0  0
    0.1603    2.1149   -0.8462 H   0  0  0  0  0  0  0  0  0  0  0  0
    1.5972   -1.8390   -0.0530 H   0  0  0  0  0  0  0  0  0  0  0  0
   -0.7652   -2.6390    0.3857 H   0  0  0  0  0  0  0  0  0  0  0  0
   -6.3138    1.5142   -1.8747 S   0  0  0  0  0  0  0  0  0  0  0  0
   -5.8812    1.6838   -3.6818 C   0  0  0  0  0  0  0  0  0  0  0  0
   -5.4503    0.4786   -1.3226 O   0  0  0  0  0  0  0  0  0  0  0  0
   -7.7567    1.4883   -1.7673 O   0  0  0  0  0  0  0  0  0  0  0  0
   -5.8175    2.9681   -1.3498 O   0  0  0  0  0  0  0  0  0  0  0  0
   -4.5790    1.9495   -3.7946 F   0  0  0  0  0  0  0  0  0  0  0  0
   -6.1599    0.5328   -4.2895 F   0  0  0  0  0  0  0  0  0  0  0  0
   -6.5907    2.6663   -4.2251 F   0  0  0  0  0  0  0  0  0  0  0  0
  1 11  1  0  0  0  0
  1  2  1  0  0  0  0
  2  3  1  0  0  0  0
  4  1  2  0  0  0  0
  5  6  2  0  0  0  0
  5  4  1  0  0  0  0
  6 10  1  0  0  0  0
  7  9  2  0  0  0  0
  7  6  1  0  0  0  0
  8  7  2  0  0  0  0
 10 14  1  0  0  0  0
 10 11  2  0  0  0  0
 11 15  1  0  0  0  0
 13  5  1  0  0  0  0
 16 19  2  0  0  0  0
 16 20  1  0  0  0  0
 16 18  2  0  0  0  0
 17 16  1  0  0  0  0
 20 12  1  0  0  0  0
 21 17  1  0  0  0  0
 22 17  1  0  0  0  0
 23 17  1  0  0  0  0
M  RAD  3   2   2   3   3   4   2
M  END
