Coordinates from ORCA-job 4-NO2PhN2+~TfO-_B3LYPG-6-31G_dp-CH-Scan-d09-49-n800
 OpenBabel11261919523D

 23 22  0  0  0  0  0  0  0  0999 V2000
   -1.8286   -0.6598   -0.1041 C   0  0  0  0  0  0  0  0  0  0  0  0
   -3.0913   -1.2064    0.1523 N   0  0  0  0  0  0  0  0  0  0  0  0
   -4.1167   -1.6005    0.3436 N   0  0  0  0  0  0  0  0  0  0  0  0
   -1.8619    0.6636   -0.5616 C   0  0  0  0  0  0  0  0  0  0  0  0
   -0.5412    1.1408   -0.7911 C   0  0  0  0  0  0  0  0  0  0  0  0
    0.5758    0.3486   -0.5690 C   0  0  0  0  0  0  0  0  0  0  0  0
    1.9275    0.9122   -0.8293 N   0  0  0  0  0  0  0  0  0  0  0  0
    1.9925    2.0685   -1.2335 O   0  0  0  0  0  0  0  0  0  0  0  0
    2.8935    0.1798   -0.6207 O   0  0  0  0  0  0  0  0  0  0  0  0
    0.5167   -0.9811   -0.1045 C   0  0  0  0  0  0  0  0  0  0  0  0
   -0.7254   -1.5196    0.1423 C   0  0  0  0  0  0  0  0  0  0  0  0
   -3.9125    2.0005   -0.9709 H   0  0  0  0  0  0  0  0  0  0  0  0
   -0.3771    2.1516   -1.1506 H   0  0  0  0  0  0  0  0  0  0  0  0
    1.4304   -1.5397    0.0466 H   0  0  0  0  0  0  0  0  0  0  0  0
   -0.8477   -2.5364    0.5020 H   0  0  0  0  0  0  0  0  0  0  0  0
   -5.8535    1.4619   -1.7309 S   0  0  0  0  0  0  0  0  0  0  0  0
   -5.5495    1.6758   -3.5571 C   0  0  0  0  0  0  0  0  0  0  0  0
   -5.4848    0.0864   -1.4081 O   0  0  0  0  0  0  0  0  0  0  0  0
   -7.1658    2.0040   -1.4431 O   0  0  0  0  0  0  0  0  0  0  0  0
   -4.7587    2.4792   -1.1471 O   0  0  0  0  0  0  0  0  0  0  0  0
   -4.2827    1.3582   -3.8334 F   0  0  0  0  0  0  0  0  0  0  0  0
   -6.3685    0.8608   -4.2213 F   0  0  0  0  0  0  0  0  0  0  0  0
   -5.7827    2.9352   -3.9133 F   0  0  0  0  0  0  0  0  0  0  0  0
  1 11  1  0  0  0  0
  1  2  1  0  0  0  0
  2  3  1  0  0  0  0
  4  1  2  0  0  0  0
  5  6  2  0  0  0  0
  5  4  1  0  0  0  0
  6 10  1  0  0  0  0
  7  9  2  0  0  0  0
  7  6  1  0  0  0  0
  8  7  2  0  0  0  0
 10 14  1  0  0  0  0
 10 11  2  0  0  0  0
 11 15  1  0  0  0  0
 13  5  1  0  0  0  0
 16 19  2  0  0  0  0
 16 18  2  0  0  0  0
 16 20  1  0  0  0  0
 17 16  1  0  0  0  0
 20 12  1  0  0  0  0
 21 17  1  0  0  0  0
 22 17  1  0  0  0  0
 23 17  1  0  0  0  0
M  RAD  3   2   2   3   3   4   2
M  END
