Coordinates from ORCA-job 4-NO2PhN2+~TfO-_B3LYPG-6-31G_dp-CH-Scan-d09-49-n800
 OpenBabel11261919523D

 23 22  0  0  0  0  0  0  0  0999 V2000
   -1.9778   -0.6444   -0.0910 C   0  0  0  0  0  0  0  0  0  0  0  0
   -3.2145   -1.2202    0.2093 N   0  0  0  0  0  0  0  0  0  0  0  0
   -4.2205   -1.6427    0.4330 N   0  0  0  0  0  0  0  0  0  0  0  0
   -2.0397    0.6647   -0.5891 C   0  0  0  0  0  0  0  0  0  0  0  0
   -0.7435    1.1706   -0.8618 C   0  0  0  0  0  0  0  0  0  0  0  0
    0.3978    0.4130   -0.6387 C   0  0  0  0  0  0  0  0  0  0  0  0
    1.7284    1.0032   -0.9448 N   0  0  0  0  0  0  0  0  0  0  0  0
    1.7519    2.1465   -1.3872 O   0  0  0  0  0  0  0  0  0  0  0  0
    2.7158    0.3022   -0.7326 O   0  0  0  0  0  0  0  0  0  0  0  0
    0.3795   -0.9001   -0.1330 C   0  0  0  0  0  0  0  0  0  0  0  0
   -0.8447   -1.4610    0.1561 C   0  0  0  0  0  0  0  0  0  0  0  0
   -3.5796    1.6464   -0.8920 H   0  0  0  0  0  0  0  0  0  0  0  0
   -0.6186    2.1736   -1.2557 H   0  0  0  0  0  0  0  0  0  0  0  0
    1.3089   -1.4329    0.0166 H   0  0  0  0  0  0  0  0  0  0  0  0
   -0.9336   -2.4690    0.5479 H   0  0  0  0  0  0  0  0  0  0  0  0
   -5.6038    1.3897   -1.6804 S   0  0  0  0  0  0  0  0  0  0  0  0
   -5.3143    1.6883   -3.4941 C   0  0  0  0  0  0  0  0  0  0  0  0
   -5.3772   -0.0434   -1.4713 O   0  0  0  0  0  0  0  0  0  0  0  0
   -6.8727    2.0095   -1.3450 O   0  0  0  0  0  0  0  0  0  0  0  0
   -4.4223    2.2319   -1.0576 O   0  0  0  0  0  0  0  0  0  0  0  0
   -4.0833    1.2801   -3.8221 F   0  0  0  0  0  0  0  0  0  0  0  0
   -6.2102    0.9933   -4.1968 F   0  0  0  0  0  0  0  0  0  0  0  0
   -5.4381    2.9843   -3.7727 F   0  0  0  0  0  0  0  0  0  0  0  0
  1 11  1  0  0  0  0
  1  2  1  0  0  0  0
  2  3  1  0  0  0  0
  4  1  2  0  0  0  0
  5  6  2  0  0  0  0
  5  4  1  0  0  0  0
  6 10  1  0  0  0  0
  7  9  2  0  0  0  0
  7  6  1  0  0  0  0
  8  7  2  0  0  0  0
 10 14  1  0  0  0  0
 10 11  2  0  0  0  0
 11 15  1  0  0  0  0
 13  5  1  0  0  0  0
 16 18  2  0  0  0  0
 16 19  2  0  0  0  0
 16 20  1  0  0  0  0
 17 16  1  0  0  0  0
 20 12  1  0  0  0  0
 21 17  1  0  0  0  0
 22 17  1  0  0  0  0
 23 17  1  0  0  0  0
M  RAD  3   2   2   3   3   4   2
M  END
