Coordinates from ORCA-job 4-NO2PhN2+~TfO-_B3LYPG-6-31G_dp-CH-Scan-d09-49-n800
 OpenBabel11261919523D

 23 22  0  0  0  0  0  0  0  0999 V2000
   -2.0287   -0.5968   -0.0932 C   0  0  0  0  0  0  0  0  0  0  0  0
   -3.2796   -1.1421    0.1911 N   0  0  0  0  0  0  0  0  0  0  0  0
   -4.3056   -1.5309    0.3761 N   0  0  0  0  0  0  0  0  0  0  0  0
   -2.0238    0.6927   -0.6415 C   0  0  0  0  0  0  0  0  0  0  0  0
   -0.7330    1.1859   -0.9020 C   0  0  0  0  0  0  0  0  0  0  0  0
    0.3900    0.4196   -0.6152 C   0  0  0  0  0  0  0  0  0  0  0  0
    1.7363    0.9823   -0.9034 N   0  0  0  0  0  0  0  0  0  0  0  0
    1.7833    2.1092   -1.3821 O   0  0  0  0  0  0  0  0  0  0  0  0
    2.7051    0.2747   -0.6397 O   0  0  0  0  0  0  0  0  0  0  0  0
    0.3328   -0.8689   -0.0629 C   0  0  0  0  0  0  0  0  0  0  0  0
   -0.9095   -1.4042    0.2125 C   0  0  0  0  0  0  0  0  0  0  0  0
   -3.2088    1.4299   -0.9329 H   0  0  0  0  0  0  0  0  0  0  0  0
   -0.5982    2.1723   -1.3309 H   0  0  0  0  0  0  0  0  0  0  0  0
    1.2482   -1.4108    0.1340 H   0  0  0  0  0  0  0  0  0  0  0  0
   -1.0217   -2.3957    0.6372 H   0  0  0  0  0  0  0  0  0  0  0  0
   -5.4333    1.3041   -1.6980 S   0  0  0  0  0  0  0  0  0  0  0  0
   -5.4476    1.7535   -3.5000 C   0  0  0  0  0  0  0  0  0  0  0  0
   -5.1214   -0.1423   -1.6773 O   0  0  0  0  0  0  0  0  0  0  0  0
   -6.7109    1.7511   -1.1550 O   0  0  0  0  0  0  0  0  0  0  0  0
   -4.2402    2.1218   -1.1844 O   0  0  0  0  0  0  0  0  0  0  0  0
   -4.2669    1.4454   -4.0565 F   0  0  0  0  0  0  0  0  0  0  0  0
   -6.4105    1.0713   -4.1273 F   0  0  0  0  0  0  0  0  0  0  0  0
   -5.6682    3.0615   -3.6511 F   0  0  0  0  0  0  0  0  0  0  0  0
  1  2  1  0  0  0  0
  1 11  2  0  0  0  0
  2  3  1  0  0  0  0
  4  1  1  0  0  0  0
  5  4  2  0  0  0  0
  5  6  1  0  0  0  0
  6 10  2  0  0  0  0
  7  9  2  0  0  0  0
  7  6  1  0  0  0  0
  8  7  2  0  0  0  0
 10 14  1  0  0  0  0
 10 11  1  0  0  0  0
 11 15  1  0  0  0  0
 13  5  1  0  0  0  0
 16 18  2  0  0  0  0
 16 20  1  0  0  0  0
 16 19  2  0  0  0  0
 17 16  1  0  0  0  0
 20 12  1  0  0  0  0
 21 17  1  0  0  0  0
 22 17  1  0  0  0  0
 23 17  1  0  0  0  0
M  RAD  3   2   2   3   3   4   2
M  END
