Coordinates from ORCA-job 4-NO2PhN2+~TfO-_B3LYPG-6-31G_dp-CH-Scan-d09-49-n800
 OpenBabel11261919523D

 23 22  0  0  0  0  0  0  0  0999 V2000
   -1.5936   -0.6745   -0.1273 C   0  0  0  0  0  0  0  0  0  0  0  0
   -2.9006   -1.1596    0.0427 N   0  0  0  0  0  0  0  0  0  0  0  0
   -3.9600   -1.4887    0.1654 N   0  0  0  0  0  0  0  0  0  0  0  0
   -1.5596    0.6669   -0.5175 C   0  0  0  0  0  0  0  0  0  0  0  0
   -0.2045    1.0888   -0.6647 C   0  0  0  0  0  0  0  0  0  0  0  0
    0.8640    0.2343   -0.4372 C   0  0  0  0  0  0  0  0  0  0  0  0
    2.2508    0.7425   -0.6117 N   0  0  0  0  0  0  0  0  0  0  0  0
    2.3900    1.9119   -0.9566 O   0  0  0  0  0  0  0  0  0  0  0  0
    3.1730   -0.0441   -0.3988 O   0  0  0  0  0  0  0  0  0  0  0  0
    0.7254   -1.1140   -0.0425 C   0  0  0  0  0  0  0  0  0  0  0  0
   -0.5490   -1.6041    0.1243 C   0  0  0  0  0  0  0  0  0  0  0  0
   -4.3928    2.5790   -1.1619 H   0  0  0  0  0  0  0  0  0  0  0  0
    0.0251    2.1070   -0.9648 H   0  0  0  0  0  0  0  0  0  0  0  0
    1.6063   -1.7204    0.1186 H   0  0  0  0  0  0  0  0  0  0  0  0
   -0.7354   -2.6299    0.4285 H   0  0  0  0  0  0  0  0  0  0  0  0
   -6.1763    1.5731   -1.8070 S   0  0  0  0  0  0  0  0  0  0  0  0
   -5.9900    1.6709   -3.6607 C   0  0  0  0  0  0  0  0  0  0  0  0
   -5.4953    0.3592   -1.3737 O   0  0  0  0  0  0  0  0  0  0  0  0
   -7.5583    1.8629   -1.4888 O   0  0  0  0  0  0  0  0  0  0  0  0
   -5.2962    2.8669   -1.3868 O   0  0  0  0  0  0  0  0  0  0  0  0
   -4.6943    1.6256   -3.9727 F   0  0  0  0  0  0  0  0  0  0  0  0
   -6.6183    0.6280   -4.1999 F   0  0  0  0  0  0  0  0  0  0  0  0
   -6.5226    2.8019   -4.1098 F   0  0  0  0  0  0  0  0  0  0  0  0
  1  2  1  0  0  0  0
  1 11  2  0  0  0  0
  2  3  1  0  0  0  0
  4  1  1  0  0  0  0
  5  4  2  0  0  0  0
  5  6  1  0  0  0  0
  6 10  2  0  0  0  0
  7  6  1  0  0  0  0
  7  9  2  0  0  0  0
  8  7  2  0  0  0  0
 10 14  1  0  0  0  0
 10 11  1  0  0  0  0
 11 15  1  0  0  0  0
 13  5  1  0  0  0  0
 16 19  2  0  0  0  0
 16 20  1  0  0  0  0
 16 18  2  0  0  0  0
 17 16  1  0  0  0  0
 20 12  1  0  0  0  0
 21 17  1  0  0  0  0
 22 17  1  0  0  0  0
 23 17  1  0  0  0  0
M  RAD  3   2   2   3   3   4   2
M  END
