Coordinates from ORCA-job 4-NO2PhN2+~TfO-_B3LYPG-6-31G_dp-CH-Scan-d09-49-n800
 OpenBabel11261919523D

 23 22  0  0  0  0  0  0  0  0999 V2000
   -2.1722   -0.2597    0.0713 C   0  0  0  0  0  0  0  0  0  0  0  0
   -3.4401   -0.5656    0.5629 N   0  0  0  0  0  0  0  0  0  0  0  0
   -4.5596   -0.4874    0.6930 N   0  0  0  0  0  0  0  0  0  0  0  0
   -2.0391    0.8548   -0.7712 C   0  0  0  0  0  0  0  0  0  0  0  0
   -0.7623    1.1393   -1.2438 C   0  0  0  0  0  0  0  0  0  0  0  0
    0.3004    0.3192   -0.8710 C   0  0  0  0  0  0  0  0  0  0  0  0
    1.6554    0.6382   -1.3859 N   0  0  0  0  0  0  0  0  0  0  0  0
    1.7599    1.6202   -2.1119 O   0  0  0  0  0  0  0  0  0  0  0  0
    2.5706   -0.1040   -1.0431 O   0  0  0  0  0  0  0  0  0  0  0  0
    0.1574   -0.7876   -0.0346 C   0  0  0  0  0  0  0  0  0  0  0  0
   -1.1079   -1.0858    0.4531 C   0  0  0  0  0  0  0  0  0  0  0  0
   -2.7894    1.3820   -0.9997 H   0  0  0  0  0  0  0  0  0  0  0  0
   -0.5881    1.9814   -1.9020 H   0  0  0  0  0  0  0  0  0  0  0  0
    1.0233   -1.3858    0.2172 H   0  0  0  0  0  0  0  0  0  0  0  0
   -1.2777   -1.9354    1.1044 H   0  0  0  0  0  0  0  0  0  0  0  0
   -5.4487    0.5622   -1.9532 S   0  0  0  0  0  0  0  0  0  0  0  0
   -5.0936    2.0809   -2.9740 C   0  0  0  0  0  0  0  0  0  0  0  0
   -4.3503   -0.3741   -2.2807 O   0  0  0  0  0  0  0  0  0  0  0  0
   -6.8153    0.1770   -2.2988 O   0  0  0  0  0  0  0  0  0  0  0  0
   -5.2696    1.1300   -0.5480 O   0  0  0  0  0  0  0  0  0  0  0  0
   -3.8475    2.5432   -2.7070 F   0  0  0  0  0  0  0  0  0  0  0  0
   -5.1534    1.7863   -4.2748 F   0  0  0  0  0  0  0  0  0  0  0  0
   -5.9643    3.0544   -2.7050 F   0  0  0  0  0  0  0  0  0  0  0  0
  1 11  1  0  0  0  0
  1  2  1  0  0  0  0
  2  3  1  0  0  0  0
  4  1  2  0  0  0  0
  5  6  2  0  0  0  0
  5  4  1  0  0  0  0
  6 10  1  0  0  0  0
  7  9  2  0  0  0  0
  7  6  1  0  0  0  0
  8  7  2  0  0  0  0
 10 14  1  0  0  0  0
 10 11  2  0  0  0  0
 11 15  1  0  0  0  0
 12  4  1  0  0  0  0
 13  5  1  0  0  0  0
 16 20  1  0  0  0  0
 17 21  1  0  0  0  0
 17 23  1  0  0  0  0
 17 16  1  0  0  0  0
 18 16  2  0  0  0  0
 19 16  2  0  0  0  0
 22 17  1  0  0  0  0
M  RAD  3   2   2   3   3  20   2
M  END
