Coordinates from ORCA-job 4-NO2PhN2+~TfO-_B3LYPG-6-31G_dp-CH-Scan-d09-49-n800
 OpenBabel11261919533D

 23 22  0  0  0  0  0  0  0  0999 V2000
   -1.5501   -0.6158   -0.0232 C   0  0  0  0  0  0  0  0  0  0  0  0
   -2.8713   -1.0332    0.2193 N   0  0  0  0  0  0  0  0  0  0  0  0
   -3.9405   -1.2952    0.4053 N   0  0  0  0  0  0  0  0  0  0  0  0
   -1.4748    0.7377   -0.3559 C   0  0  0  0  0  0  0  0  0  0  0  0
   -0.1108    1.0964   -0.5806 C   0  0  0  0  0  0  0  0  0  0  0  0
    0.9224    0.1781   -0.4695 C   0  0  0  0  0  0  0  0  0  0  0  0
    2.3195    0.6213   -0.7208 N   0  0  0  0  0  0  0  0  0  0  0  0
    2.4983    1.7944   -1.0343 O   0  0  0  0  0  0  0  0  0  0  0  0
    3.2113   -0.2181   -0.5978 O   0  0  0  0  0  0  0  0  0  0  0  0
    0.7388   -1.1791   -0.1240 C   0  0  0  0  0  0  0  0  0  0  0  0
   -0.5455   -1.6106    0.1134 C   0  0  0  0  0  0  0  0  0  0  0  0
   -4.8917    2.8904   -1.0277 H   0  0  0  0  0  0  0  0  0  0  0  0
    0.1529    2.1152   -0.8502 H   0  0  0  0  0  0  0  0  0  0  0  0
    1.5951   -1.8359   -0.0530 H   0  0  0  0  0  0  0  0  0  0  0  0
   -0.7662   -2.6384    0.3874 H   0  0  0  0  0  0  0  0  0  0  0  0
   -6.3089    1.5137   -1.8733 S   0  0  0  0  0  0  0  0  0  0  0  0
   -5.8741    1.6832   -3.6798 C   0  0  0  0  0  0  0  0  0  0  0  0
   -5.4495    0.4748   -1.3212 O   0  0  0  0  0  0  0  0  0  0  0  0
   -7.7521    1.4926   -1.7672 O   0  0  0  0  0  0  0  0  0  0  0  0
   -5.8084    2.9656   -1.3468 O   0  0  0  0  0  0  0  0  0  0  0  0
   -4.5711    1.9454   -3.7912 F   0  0  0  0  0  0  0  0  0  0  0  0
   -6.1552    0.5332   -4.2884 F   0  0  0  0  0  0  0  0  0  0  0  0
   -6.5804    2.6678   -4.2234 F   0  0  0  0  0  0  0  0  0  0  0  0
  1 11  1  0  0  0  0
  1  2  1  0  0  0  0
  2  3  1  0  0  0  0
  4  1  2  0  0  0  0
  5  6  2  0  0  0  0
  5  4  1  0  0  0  0
  6 10  1  0  0  0  0
  7  9  2  0  0  0  0
  7  6  1  0  0  0  0
  8  7  2  0  0  0  0
 10 14  1  0  0  0  0
 10 11  2  0  0  0  0
 11 15  1  0  0  0  0
 13  5  1  0  0  0  0
 16 19  2  0  0  0  0
 16 20  1  0  0  0  0
 16 18  2  0  0  0  0
 17 16  1  0  0  0  0
 20 12  1  0  0  0  0
 21 17  1  0  0  0  0
 22 17  1  0  0  0  0
 23 17  1  0  0  0  0
M  RAD  3   2   2   3   3   4   2
M  END
