Coordinates from ORCA-job 4-NO2PhN2+~TfO-_B3LYPG-6-31G_dp-CH-Scan-d09-49-n800
 OpenBabel11261919533D

 23 22  0  0  0  0  0  0  0  0999 V2000
   -1.5388   -0.6654   -0.1153 C   0  0  0  0  0  0  0  0  0  0  0  0
   -2.8573   -1.1241    0.0497 N   0  0  0  0  0  0  0  0  0  0  0  0
   -3.9257   -1.4252    0.1686 N   0  0  0  0  0  0  0  0  0  0  0  0
   -1.4831    0.6806   -0.4833 C   0  0  0  0  0  0  0  0  0  0  0  0
   -0.1196    1.0786   -0.6282 C   0  0  0  0  0  0  0  0  0  0  0  0
    0.9328    0.1999   -0.4195 C   0  0  0  0  0  0  0  0  0  0  0  0
    2.3287    0.6835   -0.5909 N   0  0  0  0  0  0  0  0  0  0  0  0
    2.4900    1.8551   -0.9187 O   0  0  0  0  0  0  0  0  0  0  0  0
    3.2363   -0.1245   -0.3956 O   0  0  0  0  0  0  0  0  0  0  0  0
    0.7698   -1.1524   -0.0463 C   0  0  0  0  0  0  0  0  0  0  0  0
   -0.5132   -1.6205    0.1174 C   0  0  0  0  0  0  0  0  0  0  0  0
   -4.6040    2.7639   -1.1642 H   0  0  0  0  0  0  0  0  0  0  0  0
    0.1288    2.0973   -0.9118 H   0  0  0  0  0  0  0  0  0  0  0  0
    1.6396   -1.7778    0.1013 H   0  0  0  0  0  0  0  0  0  0  0  0
   -0.7187   -2.6473    0.4059 H   0  0  0  0  0  0  0  0  0  0  0  0
   -6.2725    1.5881   -1.8306 S   0  0  0  0  0  0  0  0  0  0  0  0
   -6.0428    1.6660   -3.6807 C   0  0  0  0  0  0  0  0  0  0  0  0
   -5.4969    0.4517   -1.3503 O   0  0  0  0  0  0  0  0  0  0  0  0
   -7.6827    1.7613   -1.5551 O   0  0  0  0  0  0  0  0  0  0  0  0
   -5.5222    2.9661   -1.4174 O   0  0  0  0  0  0  0  0  0  0  0  0
   -4.7395    1.7278   -3.9562 F   0  0  0  0  0  0  0  0  0  0  0  0
   -6.5635    0.5628   -4.2138 F   0  0  0  0  0  0  0  0  0  0  0  0
   -6.6577    2.7380   -4.1677 F   0  0  0  0  0  0  0  0  0  0  0  0
  1  2  1  0  0  0  0
  1 11  2  0  0  0  0
  2  3  1  0  0  0  0
  4  1  1  0  0  0  0
  5  4  2  0  0  0  0
  5  6  1  0  0  0  0
  6 10  2  0  0  0  0
  7  6  1  0  0  0  0
  7  9  2  0  0  0  0
  8  7  2  0  0  0  0
 10 14  1  0  0  0  0
 10 11  1  0  0  0  0
 11 15  1  0  0  0  0
 13  5  1  0  0  0  0
 16 19  2  0  0  0  0
 16 20  1  0  0  0  0
 16 18  2  0  0  0  0
 17 16  1  0  0  0  0
 20 12  1  0  0  0  0
 21 17  1  0  0  0  0
 22 17  1  0  0  0  0
 23 17  1  0  0  0  0
M  RAD  3   2   2   3   3   4   2
M  END
