Coordinates from ORCA-job 4-NO2PhN2+~TfO-_B3LYPG-6-31G_dp-CH-Scan-d09-49-n800
 OpenBabel11261919523D

 23 22  0  0  0  0  0  0  0  0999 V2000
   -1.7738   -0.6577   -0.0967 C   0  0  0  0  0  0  0  0  0  0  0  0
   -3.0479   -1.1851    0.1507 N   0  0  0  0  0  0  0  0  0  0  0  0
   -4.0814   -1.5601    0.3384 N   0  0  0  0  0  0  0  0  0  0  0  0
   -1.7904    0.6723   -0.5323 C   0  0  0  0  0  0  0  0  0  0  0  0
   -0.4608    1.1315   -0.7547 C   0  0  0  0  0  0  0  0  0  0  0  0
    0.6435    0.3184   -0.5465 C   0  0  0  0  0  0  0  0  0  0  0  0
    2.0042    0.8638   -0.7991 N   0  0  0  0  0  0  0  0  0  0  0  0
    2.0883    2.0246   -1.1870 O   0  0  0  0  0  0  0  0  0  0  0  0
    2.9587    0.1130   -0.6026 O   0  0  0  0  0  0  0  0  0  0  0  0
    0.5642   -1.0181   -0.1028 C   0  0  0  0  0  0  0  0  0  0  0  0
   -0.6859   -1.5408    0.1362 C   0  0  0  0  0  0  0  0  0  0  0  0
   -4.0608    2.1610   -0.9840 H   0  0  0  0  0  0  0  0  0  0  0  0
   -0.2796    2.1453   -1.0982 H   0  0  0  0  0  0  0  0  0  0  0  0
    1.4694   -1.5928    0.0387 H   0  0  0  0  0  0  0  0  0  0  0  0
   -0.8246   -2.5611    0.4804 H   0  0  0  0  0  0  0  0  0  0  0  0
   -5.9469    1.4777   -1.7561 S   0  0  0  0  0  0  0  0  0  0  0  0
   -5.6260    1.6778   -3.5818 C   0  0  0  0  0  0  0  0  0  0  0  0
   -5.4924    0.1382   -1.3965 O   0  0  0  0  0  0  0  0  0  0  0  0
   -7.2927    1.9445   -1.4952 O   0  0  0  0  0  0  0  0  0  0  0  0
   -4.9263    2.5809   -1.1775 O   0  0  0  0  0  0  0  0  0  0  0  0
   -4.3311    1.4679   -3.8264 F   0  0  0  0  0  0  0  0  0  0  0  0
   -6.3570    0.7790   -4.2397 F   0  0  0  0  0  0  0  0  0  0  0  0
   -5.9631    2.9033   -3.9701 F   0  0  0  0  0  0  0  0  0  0  0  0
  1 11  1  0  0  0  0
  1  2  1  0  0  0  0
  2  3  1  0  0  0  0
  4  1  2  0  0  0  0
  5  6  2  0  0  0  0
  5  4  1  0  0  0  0
  6 10  1  0  0  0  0
  7  9  2  0  0  0  0
  7  6  1  0  0  0  0
  8  7  2  0  0  0  0
 10 14  1  0  0  0  0
 10 11  2  0  0  0  0
 11 15  1  0  0  0  0
 13  5  1  0  0  0  0
 16 19  2  0  0  0  0
 16 18  2  0  0  0  0
 16 20  1  0  0  0  0
 17 16  1  0  0  0  0
 20 12  1  0  0  0  0
 21 17  1  0  0  0  0
 22 17  1  0  0  0  0
 23 17  1  0  0  0  0
M  RAD  3   2   2   3   3   4   2
M  END
