Coordinates from ORCA-job 4-NO2PhN2+~TfO-_B3LYPG-6-31G_dp-CH-Scan-d09-49-n800
 OpenBabel11261919523D

 23 22  0  0  0  0  0  0  0  0999 V2000
   -1.8322   -0.6596   -0.1051 C   0  0  0  0  0  0  0  0  0  0  0  0
   -3.0945   -1.2068    0.1521 N   0  0  0  0  0  0  0  0  0  0  0  0
   -4.1184   -1.6058    0.3403 N   0  0  0  0  0  0  0  0  0  0  0  0
   -1.8659    0.6626   -0.5655 C   0  0  0  0  0  0  0  0  0  0  0  0
   -0.5460    1.1410   -0.7952 C   0  0  0  0  0  0  0  0  0  0  0  0
    0.5717    0.3505   -0.5708 C   0  0  0  0  0  0  0  0  0  0  0  0
    1.9230    0.9150   -0.8315 N   0  0  0  0  0  0  0  0  0  0  0  0
    1.9870    2.0717   -1.2346 O   0  0  0  0  0  0  0  0  0  0  0  0
    2.8897    0.1853   -0.6172 O   0  0  0  0  0  0  0  0  0  0  0  0
    0.5136   -0.9781   -0.1034 C   0  0  0  0  0  0  0  0  0  0  0  0
   -0.7281   -1.5174    0.1438 C   0  0  0  0  0  0  0  0  0  0  0  0
   -3.9008    1.9875   -0.9720 H   0  0  0  0  0  0  0  0  0  0  0  0
   -0.3830    2.1513   -1.1568 H   0  0  0  0  0  0  0  0  0  0  0  0
    1.4278   -1.5355    0.0495 H   0  0  0  0  0  0  0  0  0  0  0  0
   -0.8497   -2.5336    0.5056 H   0  0  0  0  0  0  0  0  0  0  0  0
   -5.8458    1.4606   -1.7288 S   0  0  0  0  0  0  0  0  0  0  0  0
   -5.5470    1.6765   -3.5555 C   0  0  0  0  0  0  0  0  0  0  0  0
   -5.4832    0.0819   -1.4104 O   0  0  0  0  0  0  0  0  0  0  0  0
   -7.1551    2.0077   -1.4362 O   0  0  0  0  0  0  0  0  0  0  0  0
   -4.7451    2.4711   -1.1467 O   0  0  0  0  0  0  0  0  0  0  0  0
   -4.2840    1.3488   -3.8378 F   0  0  0  0  0  0  0  0  0  0  0  0
   -6.3755    0.8703   -4.2188 F   0  0  0  0  0  0  0  0  0  0  0  0
   -5.7707    2.9388   -3.9078 F   0  0  0  0  0  0  0  0  0  0  0  0
  1 11  1  0  0  0  0
  1  2  1  0  0  0  0
  2  3  1  0  0  0  0
  4  1  2  0  0  0  0
  5  6  2  0  0  0  0
  5  4  1  0  0  0  0
  6 10  1  0  0  0  0
  7  9  2  0  0  0  0
  7  6  1  0  0  0  0
  8  7  2  0  0  0  0
 10 14  1  0  0  0  0
 10 11  2  0  0  0  0
 11 15  1  0  0  0  0
 13  5  1  0  0  0  0
 16 19  2  0  0  0  0
 16 18  2  0  0  0  0
 16 20  1  0  0  0  0
 17 16  1  0  0  0  0
 20 12  1  0  0  0  0
 21 17  1  0  0  0  0
 22 17  1  0  0  0  0
 23 17  1  0  0  0  0
M  RAD  3   2   2   3   3   4   2
M  END
