Coordinates from ORCA-job 4-NO2PhN2+~TfO-_B3LYPG-6-31G_dp-CH-Scan-d09-49-n800
 OpenBabel11261919533D

 23 22  0  0  0  0  0  0  0  0999 V2000
   -1.8965   -0.1936    0.6110 C   0  0  0  0  0  0  0  0  0  0  0  0
   -3.0536   -0.5188    1.3432 N   0  0  0  0  0  0  0  0  0  0  0  0
   -3.9469   -0.7133    1.9836 N   0  0  0  0  0  0  0  0  0  0  0  0
   -1.2197    0.8837    1.1799 C   0  0  0  0  0  0  0  0  0  0  0  0
   -0.0541    1.1749    0.4076 C   0  0  0  0  0  0  0  0  0  0  0  0
    0.2792    0.4446   -0.7235 C   0  0  0  0  0  0  0  0  0  0  0  0
    1.5059    0.8020   -1.4843 N   0  0  0  0  0  0  0  0  0  0  0  0
    2.1763    1.7456   -1.0763 O   0  0  0  0  0  0  0  0  0  0  0  0
    1.7733    0.1289   -2.4800 O   0  0  0  0  0  0  0  0  0  0  0  0
   -0.4836   -0.6363   -1.2203 C   0  0  0  0  0  0  0  0  0  0  0  0
   -1.6257   -0.9830   -0.5365 C   0  0  0  0  0  0  0  0  0  0  0  0
   -4.7887    2.8141   -1.0284 H   0  0  0  0  0  0  0  0  0  0  0  0
    0.6072    1.9888    0.6929 H   0  0  0  0  0  0  0  0  0  0  0  0
   -0.1592   -1.1554   -2.1118 H   0  0  0  0  0  0  0  0  0  0  0  0
   -2.2708   -1.7945   -0.8597 H   0  0  0  0  0  0  0  0  0  0  0  0
   -5.5380    1.0094   -1.9184 S   0  0  0  0  0  0  0  0  0  0  0  0
   -4.5198    0.9390   -3.4815 C   0  0  0  0  0  0  0  0  0  0  0  0
   -4.7615    0.3437   -0.8776 O   0  0  0  0  0  0  0  0  0  0  0  0
   -6.8973    0.6449   -2.2511 O   0  0  0  0  0  0  0  0  0  0  0  0
   -5.5064    2.6113   -1.6545 O   0  0  0  0  0  0  0  0  0  0  0  0
   -3.3358    1.5076   -3.2502 F   0  0  0  0  0  0  0  0  0  0  0  0
   -4.3491   -0.3398   -3.8082 F   0  0  0  0  0  0  0  0  0  0  0  0
   -5.1473    1.5796   -4.4589 F   0  0  0  0  0  0  0  0  0  0  0  0
  1  4  1  0  0  0  0
  1  2  1  0  0  0  0
  2  3  1  0  0  0  0
  5 13  1  0  0  0  0
  5  4  2  0  0  0  0
  6  5  1  0  0  0  0
  7  8  2  0  0  0  0
  7  6  1  0  0  0  0
  9  7  2  0  0  0  0
 10  6  2  0  0  0  0
 10 11  1  0  0  0  0
 11  1  2  0  0  0  0
 14 10  1  0  0  0  0
 15 11  1  0  0  0  0
 16 20  1  0  0  0  0
 16 18  2  0  0  0  0
 17 21  1  0  0  0  0
 17 16  1  0  0  0  0
 19 16  2  0  0  0  0
 20 12  1  0  0  0  0
 22 17  1  0  0  0  0
 23 17  1  0  0  0  0
M  RAD  3   2   2   3   3   4   2
M  END
