Coordinates from ORCA-job 4-NO2PhN2+~TfO-_B3LYPG-6-31G_dp-CH-Scan-d09-49-n800
 OpenBabel11261919533D

 23 22  0  0  0  0  0  0  0  0999 V2000
   -1.5397   -0.6597   -0.1044 C   0  0  0  0  0  0  0  0  0  0  0  0
   -2.8592   -1.1130    0.0697 N   0  0  0  0  0  0  0  0  0  0  0  0
   -3.9284   -1.4086    0.1947 N   0  0  0  0  0  0  0  0  0  0  0  0
   -1.4820    0.6852   -0.4756 C   0  0  0  0  0  0  0  0  0  0  0  0
   -0.1182    1.0778   -0.6315 C   0  0  0  0  0  0  0  0  0  0  0  0
    0.9325    0.1956   -0.4288 C   0  0  0  0  0  0  0  0  0  0  0  0
    2.3288    0.6734   -0.6122 N   0  0  0  0  0  0  0  0  0  0  0  0
    2.4922    1.8437   -0.9439 O   0  0  0  0  0  0  0  0  0  0  0  0
    3.2349   -0.1369   -0.4195 O   0  0  0  0  0  0  0  0  0  0  0  0
    0.7673   -1.1550   -0.0509 C   0  0  0  0  0  0  0  0  0  0  0  0
   -0.5161   -1.6180    0.1235 C   0  0  0  0  0  0  0  0  0  0  0  0
   -4.6526    2.7844   -1.1323 H   0  0  0  0  0  0  0  0  0  0  0  0
    0.1319    2.0950   -0.9192 H   0  0  0  0  0  0  0  0  0  0  0  0
    1.6359   -1.7832    0.0920 H   0  0  0  0  0  0  0  0  0  0  0  0
   -0.7233   -2.6434    0.4161 H   0  0  0  0  0  0  0  0  0  0  0  0
   -6.2827    1.5767   -1.8359 S   0  0  0  0  0  0  0  0  0  0  0  0
   -6.0153    1.6716   -3.6802 C   0  0  0  0  0  0  0  0  0  0  0  0
   -5.4935    0.4540   -1.3458 O   0  0  0  0  0  0  0  0  0  0  0  0
   -7.7018    1.7187   -1.5897 O   0  0  0  0  0  0  0  0  0  0  0  0
   -5.5713    2.9677   -1.3974 O   0  0  0  0  0  0  0  0  0  0  0  0
   -4.7080    1.7616   -3.9274 F   0  0  0  0  0  0  0  0  0  0  0  0
   -6.5022    0.5618   -4.2309 F   0  0  0  0  0  0  0  0  0  0  0  0
   -6.6415    2.7342   -4.1733 F   0  0  0  0  0  0  0  0  0  0  0  0
  1  2  1  0  0  0  0
  1 11  2  0  0  0  0
  2  3  1  0  0  0  0
  4  1  1  0  0  0  0
  5  4  2  0  0  0  0
  5  6  1  0  0  0  0
  6 10  2  0  0  0  0
  7  6  1  0  0  0  0
  7  9  2  0  0  0  0
  8  7  2  0  0  0  0
 10 14  1  0  0  0  0
 10 11  1  0  0  0  0
 11 15  1  0  0  0  0
 13  5  1  0  0  0  0
 16 19  2  0  0  0  0
 16 20  1  0  0  0  0
 16 18  2  0  0  0  0
 17 16  1  0  0  0  0
 20 12  1  0  0  0  0
 21 17  1  0  0  0  0
 22 17  1  0  0  0  0
 23 17  1  0  0  0  0
M  RAD  3   2   2   3   3   4   2
M  END
