Coordinates from ORCA-job 4-NO2PhN2+~TfO-_B3LYPG-6-31G_dp-CH-Scan-d09-49-n800
 OpenBabel11261919523D

 23 22  0  0  0  0  0  0  0  0999 V2000
   -1.7801   -0.6573   -0.0961 C   0  0  0  0  0  0  0  0  0  0  0  0
   -3.0529   -1.1863    0.1533 N   0  0  0  0  0  0  0  0  0  0  0  0
   -4.0855   -1.5635    0.3413 N   0  0  0  0  0  0  0  0  0  0  0  0
   -1.7984    0.6723   -0.5332 C   0  0  0  0  0  0  0  0  0  0  0  0
   -0.4697    1.1329   -0.7577 C   0  0  0  0  0  0  0  0  0  0  0  0
    0.6358    0.3212   -0.5499 C   0  0  0  0  0  0  0  0  0  0  0  0
    1.9955    0.8681   -0.8047 N   0  0  0  0  0  0  0  0  0  0  0  0
    2.0777    2.0287   -1.1936 O   0  0  0  0  0  0  0  0  0  0  0  0
    2.9512    0.1186   -0.6086 O   0  0  0  0  0  0  0  0  0  0  0  0
    0.5586   -1.0148   -0.1047 C   0  0  0  0  0  0  0  0  0  0  0  0
   -0.6906   -1.5387    0.1363 C   0  0  0  0  0  0  0  0  0  0  0  0
   -4.0483    2.1476   -0.9797 H   0  0  0  0  0  0  0  0  0  0  0  0
   -0.2902    2.1464   -1.1025 H   0  0  0  0  0  0  0  0  0  0  0  0
    1.4646   -1.5883    0.0364 H   0  0  0  0  0  0  0  0  0  0  0  0
   -0.8277   -2.5588    0.4817 H   0  0  0  0  0  0  0  0  0  0  0  0
   -5.9380    1.4756   -1.7537 S   0  0  0  0  0  0  0  0  0  0  0  0
   -5.6143    1.6772   -3.5787 C   0  0  0  0  0  0  0  0  0  0  0  0
   -5.4912    0.1329   -1.3965 O   0  0  0  0  0  0  0  0  0  0  0  0
   -7.2819    1.9486   -1.4936 O   0  0  0  0  0  0  0  0  0  0  0  0
   -4.9125    2.5718   -1.1718 O   0  0  0  0  0  0  0  0  0  0  0  0
   -4.3201    1.4618   -3.8223 F   0  0  0  0  0  0  0  0  0  0  0  0
   -6.3485    0.7828   -4.2390 F   0  0  0  0  0  0  0  0  0  0  0  0
   -5.9454    2.9048   -3.9656 F   0  0  0  0  0  0  0  0  0  0  0  0
  1 11  1  0  0  0  0
  1  2  1  0  0  0  0
  2  3  1  0  0  0  0
  4  1  2  0  0  0  0
  5  6  2  0  0  0  0
  5  4  1  0  0  0  0
  6 10  1  0  0  0  0
  7  9  2  0  0  0  0
  7  6  1  0  0  0  0
  8  7  2  0  0  0  0
 10 14  1  0  0  0  0
 10 11  2  0  0  0  0
 11 15  1  0  0  0  0
 13  5  1  0  0  0  0
 16 19  2  0  0  0  0
 16 18  2  0  0  0  0
 16 20  1  0  0  0  0
 17 16  1  0  0  0  0
 20 12  1  0  0  0  0
 21 17  1  0  0  0  0
 22 17  1  0  0  0  0
 23 17  1  0  0  0  0
M  RAD  3   2   2   3   3   4   2
M  END
