Coordinates from ORCA-job 4-NO2PhN2+~TfO-_B3LYPG-6-31G_dp-CH-Scan-d09-49-n800
 OpenBabel11261919523D

 23 22  0  0  0  0  0  0  0  0999 V2000
   -2.1648   -0.2511    0.0763 C   0  0  0  0  0  0  0  0  0  0  0  0
   -3.4343   -0.5514    0.5673 N   0  0  0  0  0  0  0  0  0  0  0  0
   -4.5528   -0.4654    0.6980 N   0  0  0  0  0  0  0  0  0  0  0  0
   -2.0179    0.8892   -0.7276 C   0  0  0  0  0  0  0  0  0  0  0  0
   -0.7413    1.1725   -1.2003 C   0  0  0  0  0  0  0  0  0  0  0  0
    0.3105    0.3230   -0.8627 C   0  0  0  0  0  0  0  0  0  0  0  0
    1.6675    0.6391   -1.3746 N   0  0  0  0  0  0  0  0  0  0  0  0
    1.7829    1.6438   -2.0671 O   0  0  0  0  0  0  0  0  0  0  0  0
    2.5733   -0.1280   -1.0629 O   0  0  0  0  0  0  0  0  0  0  0  0
    0.1555   -0.8102   -0.0644 C   0  0  0  0  0  0  0  0  0  0  0  0
   -1.1107   -1.1060    0.4223 C   0  0  0  0  0  0  0  0  0  0  0  0
   -2.8444    1.4878   -0.9534 H   0  0  0  0  0  0  0  0  0  0  0  0
   -0.5570    2.0340   -1.8299 H   0  0  0  0  0  0  0  0  0  0  0  0
    1.0138   -1.4300    0.1600 H   0  0  0  0  0  0  0  0  0  0  0  0
   -1.2890   -1.9751    1.0452 H   0  0  0  0  0  0  0  0  0  0  0  0
   -5.4580    0.5592   -1.9414 S   0  0  0  0  0  0  0  0  0  0  0  0
   -5.0999    2.0470   -3.0056 C   0  0  0  0  0  0  0  0  0  0  0  0
   -4.3822   -0.4032   -2.2647 O   0  0  0  0  0  0  0  0  0  0  0  0
   -6.8379    0.1896   -2.2499 O   0  0  0  0  0  0  0  0  0  0  0  0
   -5.2429    1.1596   -0.5539 O   0  0  0  0  0  0  0  0  0  0  0  0
   -3.8472    2.5052   -2.7632 F   0  0  0  0  0  0  0  0  0  0  0  0
   -5.1759    1.7190   -4.2973 F   0  0  0  0  0  0  0  0  0  0  0  0
   -5.9594    3.0350   -2.7532 F   0  0  0  0  0  0  0  0  0  0  0  0
  1 11  1  0  0  0  0
  1  2  1  0  0  0  0
  2  3  1  0  0  0  0
  4  1  2  0  0  0  0
  5  6  2  0  0  0  0
  5  4  1  0  0  0  0
  6 10  1  0  0  0  0
  7  9  2  0  0  0  0
  7  6  1  0  0  0  0
  8  7  2  0  0  0  0
 10 14  1  0  0  0  0
 10 11  2  0  0  0  0
 11 15  1  0  0  0  0
 12  4  1  0  0  0  0
 13  5  1  0  0  0  0
 16 20  1  0  0  0  0
 17 21  1  0  0  0  0
 17 23  1  0  0  0  0
 17 16  1  0  0  0  0
 18 16  2  0  0  0  0
 19 16  2  0  0  0  0
 22 17  1  0  0  0  0
M  RAD  3   2   2   3   3  20   2
M  END
