Coordinates from ORCA-job 4-NO2PhN2+~TfO-_B3LYPG-6-31G_dp-CH-Scan-d09-49-n800
 OpenBabel11261919523D

 23 22  0  0  0  0  0  0  0  0999 V2000
   -2.0256   -0.6226   -0.0795 C   0  0  0  0  0  0  0  0  0  0  0  0
   -3.2598   -1.1938    0.2337 N   0  0  0  0  0  0  0  0  0  0  0  0
   -4.2641   -1.6152    0.4637 N   0  0  0  0  0  0  0  0  0  0  0  0
   -2.0744    0.6792   -0.5977 C   0  0  0  0  0  0  0  0  0  0  0  0
   -0.7851    1.1835   -0.8828 C   0  0  0  0  0  0  0  0  0  0  0  0
    0.3556    0.4271   -0.6501 C   0  0  0  0  0  0  0  0  0  0  0  0
    1.6860    1.0115   -0.9678 N   0  0  0  0  0  0  0  0  0  0  0  0
    1.7079    2.1484   -1.4257 O   0  0  0  0  0  0  0  0  0  0  0  0
    2.6721    0.3117   -0.7480 O   0  0  0  0  0  0  0  0  0  0  0  0
    0.3344   -0.8766   -0.1251 C   0  0  0  0  0  0  0  0  0  0  0  0
   -0.8909   -1.4317    0.1755 C   0  0  0  0  0  0  0  0  0  0  0  0
   -3.4183    1.5217   -0.8791 H   0  0  0  0  0  0  0  0  0  0  0  0
   -0.6656    2.1804   -1.2929 H   0  0  0  0  0  0  0  0  0  0  0  0
    1.2626   -1.4098    0.0306 H   0  0  0  0  0  0  0  0  0  0  0  0
   -0.9796   -2.4337    0.5817 H   0  0  0  0  0  0  0  0  0  0  0  0
   -5.5051    1.3422   -1.6774 S   0  0  0  0  0  0  0  0  0  0  0  0
   -5.2902    1.7134   -3.4861 C   0  0  0  0  0  0  0  0  0  0  0  0
   -5.2654   -0.1033   -1.5471 O   0  0  0  0  0  0  0  0  0  0  0  0
   -6.7832    1.9119   -1.2816 O   0  0  0  0  0  0  0  0  0  0  0  0
   -4.3171    2.1489   -1.0680 O   0  0  0  0  0  0  0  0  0  0  0  0
   -4.0692    1.3286   -3.8807 F   0  0  0  0  0  0  0  0  0  0  0  0
   -6.2066    1.0422   -4.1874 F   0  0  0  0  0  0  0  0  0  0  0  0
   -5.4305    3.0196   -3.7111 F   0  0  0  0  0  0  0  0  0  0  0  0
  1 11  1  0  0  0  0
  1  2  1  0  0  0  0
  2  3  1  0  0  0  0
  4  1  2  0  0  0  0
  5  6  2  0  0  0  0
  5  4  1  0  0  0  0
  6 10  1  0  0  0  0
  7  9  2  0  0  0  0
  7  6  1  0  0  0  0
  8  7  2  0  0  0  0
 10 14  1  0  0  0  0
 10 11  2  0  0  0  0
 11 15  1  0  0  0  0
 13  5  1  0  0  0  0
 16 18  2  0  0  0  0
 16 19  2  0  0  0  0
 16 20  1  0  0  0  0
 17 16  1  0  0  0  0
 20 12  1  0  0  0  0
 21 17  1  0  0  0  0
 22 17  1  0  0  0  0
 23 17  1  0  0  0  0
M  RAD  3   2   2   3   3   4   2
M  END
