Coordinates from ORCA-job 4-NO2PhN2+~TfO-_B3LYPG-6-31G_dp-CH-Scan-d09-49-n800
 OpenBabel11261919523D

 23 22  0  0  0  0  0  0  0  0999 V2000
   -1.8803   -0.6592   -0.1075 C   0  0  0  0  0  0  0  0  0  0  0  0
   -3.1336   -1.2202    0.1577 N   0  0  0  0  0  0  0  0  0  0  0  0
   -4.1512   -1.6294    0.3565 N   0  0  0  0  0  0  0  0  0  0  0  0
   -1.9258    0.6581   -0.5827 C   0  0  0  0  0  0  0  0  0  0  0  0
   -0.6137    1.1500   -0.8200 C   0  0  0  0  0  0  0  0  0  0  0  0
    0.5134    0.3747   -0.5885 C   0  0  0  0  0  0  0  0  0  0  0  0
    1.8575    0.9525   -0.8573 N   0  0  0  0  0  0  0  0  0  0  0  0
    1.9061    2.1019   -1.2823 O   0  0  0  0  0  0  0  0  0  0  0  0
    2.8321    0.2327   -0.6462 O   0  0  0  0  0  0  0  0  0  0  0  0
    0.4706   -0.9487   -0.1069 C   0  0  0  0  0  0  0  0  0  0  0  0
   -0.7648   -1.4993    0.1481 C   0  0  0  0  0  0  0  0  0  0  0  0
   -3.7814    1.8591   -0.9562 H   0  0  0  0  0  0  0  0  0  0  0  0
   -0.4644    2.1581   -1.1928 H   0  0  0  0  0  0  0  0  0  0  0  0
    1.3910   -1.4944    0.0506 H   0  0  0  0  0  0  0  0  0  0  0  0
   -0.8740   -2.5129    0.5206 H   0  0  0  0  0  0  0  0  0  0  0  0
   -5.7611    1.4429   -1.7093 S   0  0  0  0  0  0  0  0  0  0  0  0
   -5.4783    1.6781   -3.5353 C   0  0  0  0  0  0  0  0  0  0  0  0
   -5.4603    0.0407   -1.4248 O   0  0  0  0  0  0  0  0  0  0  0  0
   -7.0455    2.0357   -1.3932 O   0  0  0  0  0  0  0  0  0  0  0  0
   -4.6131    2.3856   -1.1238 O   0  0  0  0  0  0  0  0  0  0  0  0
   -4.2356    1.2982   -3.8442 F   0  0  0  0  0  0  0  0  0  0  0  0
   -6.3519    0.9237   -4.2024 F   0  0  0  0  0  0  0  0  0  0  0  0
   -5.6478    2.9559   -3.8628 F   0  0  0  0  0  0  0  0  0  0  0  0
  1 11  1  0  0  0  0
  1  2  1  0  0  0  0
  2  3  1  0  0  0  0
  4  1  2  0  0  0  0
  5  6  2  0  0  0  0
  5  4  1  0  0  0  0
  6 10  1  0  0  0  0
  7  9  2  0  0  0  0
  7  6  1  0  0  0  0
  8  7  2  0  0  0  0
 10 14  1  0  0  0  0
 10 11  2  0  0  0  0
 11 15  1  0  0  0  0
 13  5  1  0  0  0  0
 16 18  2  0  0  0  0
 16 19  2  0  0  0  0
 16 20  1  0  0  0  0
 17 16  1  0  0  0  0
 20 12  1  0  0  0  0
 21 17  1  0  0  0  0
 22 17  1  0  0  0  0
 23 17  1  0  0  0  0
M  RAD  3   2   2   3   3   4   2
M  END
