Coordinates from ORCA-job 4-NO2PhN2+~TfO-_B3LYPG-6-31G_dp-CH-Scan-d09-49-n800
 OpenBabel11261919523D

 23 22  0  0  0  0  0  0  0  0999 V2000
   -1.6340   -0.6745   -0.1258 C   0  0  0  0  0  0  0  0  0  0  0  0
   -2.9330   -1.1739    0.0563 N   0  0  0  0  0  0  0  0  0  0  0  0
   -3.9859   -1.5187    0.1898 N   0  0  0  0  0  0  0  0  0  0  0  0
   -1.6137    0.6635   -0.5308 C   0  0  0  0  0  0  0  0  0  0  0  0
   -0.2646    1.0983   -0.6891 C   0  0  0  0  0  0  0  0  0  0  0  0
    0.8139    0.2578   -0.4569 C   0  0  0  0  0  0  0  0  0  0  0  0
    2.1944    0.7790   -0.6432 N   0  0  0  0  0  0  0  0  0  0  0  0
    2.3189    1.9457   -1.0023 O   0  0  0  0  0  0  0  0  0  0  0  0
    3.1256    0.0048   -0.4252 O   0  0  0  0  0  0  0  0  0  0  0  0
    0.6911   -1.0872   -0.0469 C   0  0  0  0  0  0  0  0  0  0  0  0
   -0.5774   -1.5889    0.1307 C   0  0  0  0  0  0  0  0  0  0  0  0
   -4.2823    2.4512   -1.1327 H   0  0  0  0  0  0  0  0  0  0  0  0
   -0.0478    2.1155   -1.0015 H   0  0  0  0  0  0  0  0  0  0  0  0
    1.5788   -1.6827    0.1169 H   0  0  0  0  0  0  0  0  0  0  0  0
   -0.7512   -2.6133    0.4466 H   0  0  0  0  0  0  0  0  0  0  0  0
   -6.1154    1.5514   -1.7947 S   0  0  0  0  0  0  0  0  0  0  0  0
   -5.9276    1.6765   -3.6462 C   0  0  0  0  0  0  0  0  0  0  0  0
   -5.4994    0.2940   -1.3878 O   0  0  0  0  0  0  0  0  0  0  0  0
   -7.4812    1.9040   -1.4692 O   0  0  0  0  0  0  0  0  0  0  0  0
   -5.1713    2.7882   -1.3506 O   0  0  0  0  0  0  0  0  0  0  0  0
   -4.6394    1.5484   -3.9661 F   0  0  0  0  0  0  0  0  0  0  0  0
   -6.6291    0.6925   -4.2061 F   0  0  0  0  0  0  0  0  0  0  0  0
   -6.3816    2.8518   -4.0678 F   0  0  0  0  0  0  0  0  0  0  0  0
  1  2  1  0  0  0  0
  1 11  2  0  0  0  0
  2  3  1  0  0  0  0
  4  1  1  0  0  0  0
  5  4  2  0  0  0  0
  5  6  1  0  0  0  0
  6 10  2  0  0  0  0
  7  6  1  0  0  0  0
  7  9  2  0  0  0  0
  8  7  2  0  0  0  0
 10 14  1  0  0  0  0
 10 11  1  0  0  0  0
 11 15  1  0  0  0  0
 13  5  1  0  0  0  0
 16 19  2  0  0  0  0
 16 18  2  0  0  0  0
 16 20  1  0  0  0  0
 17 16  1  0  0  0  0
 20 12  1  0  0  0  0
 21 17  1  0  0  0  0
 22 17  1  0  0  0  0
 23 17  1  0  0  0  0
M  RAD  3   2   2   3   3   4   2
M  END
