Coordinates from ORCA-job 4-NO2PhN2+~TfO-_B3LYPG-6-31G_dp-CH-Scan-d09-49-n800
 OpenBabel11261919523D

 23 22  0  0  0  0  0  0  0  0999 V2000
   -2.0372   -0.5989   -0.0812 C   0  0  0  0  0  0  0  0  0  0  0  0
   -3.2815   -1.1506    0.2204 N   0  0  0  0  0  0  0  0  0  0  0  0
   -4.2979   -1.5523    0.4292 N   0  0  0  0  0  0  0  0  0  0  0  0
   -2.0491    0.6948   -0.6199 C   0  0  0  0  0  0  0  0  0  0  0  0
   -0.7602    1.1896   -0.8964 C   0  0  0  0  0  0  0  0  0  0  0  0
    0.3688    0.4241   -0.6339 C   0  0  0  0  0  0  0  0  0  0  0  0
    1.7093    0.9911   -0.9400 N   0  0  0  0  0  0  0  0  0  0  0  0
    1.7472    2.1212   -1.4122 O   0  0  0  0  0  0  0  0  0  0  0  0
    2.6839    0.2838   -0.6966 O   0  0  0  0  0  0  0  0  0  0  0  0
    0.3239   -0.8692   -0.0900 C   0  0  0  0  0  0  0  0  0  0  0  0
   -0.9124   -1.4087    0.2012 C   0  0  0  0  0  0  0  0  0  0  0  0
   -3.2677    1.4501   -0.8997 H   0  0  0  0  0  0  0  0  0  0  0  0
   -0.6318    2.1791   -1.3205 H   0  0  0  0  0  0  0  0  0  0  0  0
    1.2435   -1.4104    0.0881 H   0  0  0  0  0  0  0  0  0  0  0  0
   -1.0162   -2.4035    0.6203 H   0  0  0  0  0  0  0  0  0  0  0  0
   -5.4474    1.3041   -1.6903 S   0  0  0  0  0  0  0  0  0  0  0  0
   -5.3748    1.7444   -3.4935 C   0  0  0  0  0  0  0  0  0  0  0  0
   -5.1477   -0.1418   -1.6436 O   0  0  0  0  0  0  0  0  0  0  0  0
   -6.7372    1.7756   -1.2026 O   0  0  0  0  0  0  0  0  0  0  0  0
   -4.2662    2.1195   -1.1297 O   0  0  0  0  0  0  0  0  0  0  0  0
   -4.1705    1.4256   -3.9896 F   0  0  0  0  0  0  0  0  0  0  0  0
   -6.3108    1.0636   -4.1610 F   0  0  0  0  0  0  0  0  0  0  0  0
   -5.5801    3.0524   -3.6613 F   0  0  0  0  0  0  0  0  0  0  0  0
  1 11  1  0  0  0  0
  1  2  1  0  0  0  0
  2  3  1  0  0  0  0
  4  1  2  0  0  0  0
  5  6  2  0  0  0  0
  5  4  1  0  0  0  0
  6 10  1  0  0  0  0
  7  9  2  0  0  0  0
  7  6  1  0  0  0  0
  8  7  2  0  0  0  0
 10 14  1  0  0  0  0
 10 11  2  0  0  0  0
 11 15  1  0  0  0  0
 13  5  1  0  0  0  0
 16 18  2  0  0  0  0
 16 19  2  0  0  0  0
 16 20  1  0  0  0  0
 17 16  1  0  0  0  0
 20 12  1  0  0  0  0
 21 17  1  0  0  0  0
 22 17  1  0  0  0  0
 23 17  1  0  0  0  0
M  RAD  3   2   2   3   3   4   2
M  END
