Coordinates from ORCA-job 4-NO2PhN2+~TfO-_B3LYPG-6-31G_dp-CH-Scan-d09-49-n800
 OpenBabel11261919523D

 23 22  0  0  0  0  0  0  0  0999 V2000
   -1.8142   -0.6572   -0.0994 C   0  0  0  0  0  0  0  0  0  0  0  0
   -3.0804   -1.1968    0.1573 N   0  0  0  0  0  0  0  0  0  0  0  0
   -4.1080   -1.5836    0.3518 N   0  0  0  0  0  0  0  0  0  0  0  0
   -1.8420    0.6689   -0.5477 C   0  0  0  0  0  0  0  0  0  0  0  0
   -0.5188    1.1393   -0.7787 C   0  0  0  0  0  0  0  0  0  0  0  0
    0.5940    0.3388   -0.5661 C   0  0  0  0  0  0  0  0  0  0  0  0
    1.9484    0.8954   -0.8279 N   0  0  0  0  0  0  0  0  0  0  0  0
    2.0196    2.0544   -1.2234 O   0  0  0  0  0  0  0  0  0  0  0  0
    2.9106    0.1561   -0.6261 O   0  0  0  0  0  0  0  0  0  0  0  0
    0.5285   -0.9937   -0.1099 C   0  0  0  0  0  0  0  0  0  0  0  0
   -0.7159   -1.5261    0.1377 C   0  0  0  0  0  0  0  0  0  0  0  0
   -3.9667    2.0571   -0.9651 H   0  0  0  0  0  0  0  0  0  0  0  0
   -0.3493    2.1515   -1.1322 H   0  0  0  0  0  0  0  0  0  0  0  0
    1.4394   -1.5588    0.0340 H   0  0  0  0  0  0  0  0  0  0  0  0
   -0.8435   -2.5446    0.4914 H   0  0  0  0  0  0  0  0  0  0  0  0
   -5.8846    1.4656   -1.7386 S   0  0  0  0  0  0  0  0  0  0  0  0
   -5.5599    1.6745   -3.5622 C   0  0  0  0  0  0  0  0  0  0  0  0
   -5.4881    0.1015   -1.4007 O   0  0  0  0  0  0  0  0  0  0  0  0
   -7.2114    1.9812   -1.4703 O   0  0  0  0  0  0  0  0  0  0  0  0
   -4.8204    2.5139   -1.1474 O   0  0  0  0  0  0  0  0  0  0  0  0
   -4.2766    1.4070   -3.8142 F   0  0  0  0  0  0  0  0  0  0  0  0
   -6.3336    0.8198   -4.2304 F   0  0  0  0  0  0  0  0  0  0  0  0
   -5.8393    2.9196   -3.9345 F   0  0  0  0  0  0  0  0  0  0  0  0
  1 11  1  0  0  0  0
  1  2  1  0  0  0  0
  2  3  1  0  0  0  0
  4  1  2  0  0  0  0
  5  6  2  0  0  0  0
  5  4  1  0  0  0  0
  6 10  1  0  0  0  0
  7  9  2  0  0  0  0
  7  6  1  0  0  0  0
  8  7  2  0  0  0  0
 10 14  1  0  0  0  0
 10 11  2  0  0  0  0
 11 15  1  0  0  0  0
 13  5  1  0  0  0  0
 16 19  2  0  0  0  0
 16 18  2  0  0  0  0
 16 20  1  0  0  0  0
 17 16  1  0  0  0  0
 20 12  1  0  0  0  0
 21 17  1  0  0  0  0
 22 17  1  0  0  0  0
 23 17  1  0  0  0  0
M  RAD  3   2   2   3   3   4   2
M  END
