Coordinates from ORCA-job 4-NO2PhN2+~TfO-_B3LYPG-6-31G_dp-CH-Scan-d09-49-n800
 OpenBabel11261919523D

 23 22  0  0  0  0  0  0  0  0999 V2000
   -1.6086   -0.6746   -0.1276 C   0  0  0  0  0  0  0  0  0  0  0  0
   -2.9128   -1.1651    0.0459 N   0  0  0  0  0  0  0  0  0  0  0  0
   -3.9688   -1.5047    0.1664 N   0  0  0  0  0  0  0  0  0  0  0  0
   -1.5798    0.6648   -0.5252 C   0  0  0  0  0  0  0  0  0  0  0  0
   -0.2270    1.0921   -0.6755 C   0  0  0  0  0  0  0  0  0  0  0  0
    0.8454    0.2437   -0.4436 C   0  0  0  0  0  0  0  0  0  0  0  0
    2.2298    0.7574   -0.6216 N   0  0  0  0  0  0  0  0  0  0  0  0
    2.3633    1.9251   -0.9741 O   0  0  0  0  0  0  0  0  0  0  0  0
    3.1556   -0.0239   -0.4048 O   0  0  0  0  0  0  0  0  0  0  0  0
    0.7128   -1.1029   -0.0413 C   0  0  0  0  0  0  0  0  0  0  0  0
   -0.5594   -1.5976    0.1286 C   0  0  0  0  0  0  0  0  0  0  0  0
   -4.3463    2.5264   -1.1529 H   0  0  0  0  0  0  0  0  0  0  0  0
   -0.0024    2.1097   -0.9813 H   0  0  0  0  0  0  0  0  0  0  0  0
    1.5964   -1.7045    0.1229 H   0  0  0  0  0  0  0  0  0  0  0  0
   -0.7410   -2.6225    0.4385 H   0  0  0  0  0  0  0  0  0  0  0  0
   -6.1517    1.5646   -1.8019 S   0  0  0  0  0  0  0  0  0  0  0  0
   -5.9702    1.6741   -3.6552 C   0  0  0  0  0  0  0  0  0  0  0  0
   -5.4964    0.3317   -1.3815 O   0  0  0  0  0  0  0  0  0  0  0  0
   -7.5264    1.8808   -1.4771 O   0  0  0  0  0  0  0  0  0  0  0  0
   -5.2434    2.8354   -1.3745 O   0  0  0  0  0  0  0  0  0  0  0  0
   -4.6783    1.5899   -3.9744 F   0  0  0  0  0  0  0  0  0  0  0  0
   -6.6348    0.6576   -4.2016 F   0  0  0  0  0  0  0  0  0  0  0  0
   -6.4680    2.8262   -4.0909 F   0  0  0  0  0  0  0  0  0  0  0  0
  1  2  1  0  0  0  0
  1 11  2  0  0  0  0
  2  3  1  0  0  0  0
  4  1  1  0  0  0  0
  5  4  2  0  0  0  0
  5  6  1  0  0  0  0
  6 10  2  0  0  0  0
  7  6  1  0  0  0  0
  7  9  2  0  0  0  0
  8  7  2  0  0  0  0
 10 14  1  0  0  0  0
 10 11  1  0  0  0  0
 11 15  1  0  0  0  0
 13  5  1  0  0  0  0
 16 19  2  0  0  0  0
 16 18  2  0  0  0  0
 16 20  1  0  0  0  0
 17 16  1  0  0  0  0
 20 12  1  0  0  0  0
 21 17  1  0  0  0  0
 22 17  1  0  0  0  0
 23 17  1  0  0  0  0
M  RAD  3   2   2   3   3   4   2
M  END
