Coordinates from ORCA-job 4-NO2PhN2+~TfO-_B3LYPG-6-31G_dp-CH-Scan-d09-49-n800
 OpenBabel11261919523D

 23 22  0  0  0  0  0  0  0  0999 V2000
   -2.1553   -0.2513    0.0853 C   0  0  0  0  0  0  0  0  0  0  0  0
   -3.4272   -0.5470    0.5731 N   0  0  0  0  0  0  0  0  0  0  0  0
   -4.5442   -0.4471    0.7011 N   0  0  0  0  0  0  0  0  0  0  0  0
   -1.9977    0.9197   -0.6688 C   0  0  0  0  0  0  0  0  0  0  0  0
   -0.7248    1.2100   -1.1437 C   0  0  0  0  0  0  0  0  0  0  0  0
    0.3176    0.3312   -0.8524 C   0  0  0  0  0  0  0  0  0  0  0  0
    1.6747    0.6506   -1.3629 N   0  0  0  0  0  0  0  0  0  0  0  0
    1.7987    1.6838   -2.0105 O   0  0  0  0  0  0  0  0  0  0  0  0
    2.5719   -0.1426   -1.0948 O   0  0  0  0  0  0  0  0  0  0  0  0
    0.1543   -0.8340   -0.1027 C   0  0  0  0  0  0  0  0  0  0  0  0
   -1.1105   -1.1350    0.3846 C   0  0  0  0  0  0  0  0  0  0  0  0
   -2.9323    1.6001   -0.8807 H   0  0  0  0  0  0  0  0  0  0  0  0
   -0.5336    2.0950   -1.7373 H   0  0  0  0  0  0  0  0  0  0  0  0
    1.0066   -1.4739    0.0852 H   0  0  0  0  0  0  0  0  0  0  0  0
   -1.2941   -2.0280    0.9710 H   0  0  0  0  0  0  0  0  0  0  0  0
   -5.4698    0.5666   -1.9230 S   0  0  0  0  0  0  0  0  0  0  0  0
   -5.0931    2.0017   -3.0509 C   0  0  0  0  0  0  0  0  0  0  0  0
   -4.4404   -0.4458   -2.2403 O   0  0  0  0  0  0  0  0  0  0  0  0
   -6.8717    0.2380   -2.1740 O   0  0  0  0  0  0  0  0  0  0  0  0
   -5.1917    1.2087   -0.5642 O   0  0  0  0  0  0  0  0  0  0  0  0
   -3.8275    2.4400   -2.8431 F   0  0  0  0  0  0  0  0  0  0  0  0
   -5.1952    1.6244   -4.3271 F   0  0  0  0  0  0  0  0  0  0  0  0
   -5.9268    3.0185   -2.8265 F   0  0  0  0  0  0  0  0  0  0  0  0
  1 11  1  0  0  0  0
  1  2  1  0  0  0  0
  2  3  1  0  0  0  0
  4  1  2  0  0  0  0
  5  6  2  0  0  0  0
  5  4  1  0  0  0  0
  6 10  1  0  0  0  0
  7  9  2  0  0  0  0
  7  6  1  0  0  0  0
  8  7  2  0  0  0  0
 10 14  1  0  0  0  0
 10 11  2  0  0  0  0
 11 15  1  0  0  0  0
 12  4  1  0  0  0  0
 13  5  1  0  0  0  0
 16 20  1  0  0  0  0
 17 21  1  0  0  0  0
 17 23  1  0  0  0  0
 17 16  1  0  0  0  0
 18 16  2  0  0  0  0
 19 16  2  0  0  0  0
 22 17  1  0  0  0  0
M  RAD  3   2   2   3   3  20   2
M  END
