Coordinates from ORCA-job 4-NO2PhN2+~TfO-_B3LYPG-6-31G_dp-CH-Scan-d09-49-n800
 OpenBabel11261919533D

 23 22  0  0  0  0  0  0  0  0999 V2000
   -1.5652   -0.6715   -0.1241 C   0  0  0  0  0  0  0  0  0  0  0  0
   -2.8783   -1.1442    0.0402 N   0  0  0  0  0  0  0  0  0  0  0  0
   -3.9422   -1.4592    0.1612 N   0  0  0  0  0  0  0  0  0  0  0  0
   -1.5203    0.6732   -0.4998 C   0  0  0  0  0  0  0  0  0  0  0  0
   -0.1608    1.0838   -0.6427 C   0  0  0  0  0  0  0  0  0  0  0  0
    0.8996    0.2170   -0.4251 C   0  0  0  0  0  0  0  0  0  0  0  0
    2.2912    0.7138   -0.5946 N   0  0  0  0  0  0  0  0  0  0  0  0
    2.4415    1.8845   -0.9305 O   0  0  0  0  0  0  0  0  0  0  0  0
    3.2060   -0.0846   -0.3938 O   0  0  0  0  0  0  0  0  0  0  0  0
    0.7486   -1.1344   -0.0447 C   0  0  0  0  0  0  0  0  0  0  0  0
   -0.5302   -1.6142    0.1174 C   0  0  0  0  0  0  0  0  0  0  0  0
   -4.4919    2.6794   -1.1752 H   0  0  0  0  0  0  0  0  0  0  0  0
    0.0784    2.1032   -0.9318 H   0  0  0  0  0  0  0  0  0  0  0  0
    1.6240   -1.7505    0.1094 H   0  0  0  0  0  0  0  0  0  0  0  0
   -0.7264   -2.6414    0.4110 H   0  0  0  0  0  0  0  0  0  0  0  0
   -6.2236    1.5849   -1.8171 S   0  0  0  0  0  0  0  0  0  0  0  0
   -6.0228    1.6650   -3.6703 C   0  0  0  0  0  0  0  0  0  0  0  0
   -5.4926    0.4101   -1.3589 O   0  0  0  0  0  0  0  0  0  0  0  0
   -7.6198    1.8187   -1.5155 O   0  0  0  0  0  0  0  0  0  0  0  0
   -5.4054    2.9238   -1.4081 O   0  0  0  0  0  0  0  0  0  0  0  0
   -4.7230    1.6780   -3.9681 F   0  0  0  0  0  0  0  0  0  0  0  0
   -6.5945    0.5856   -4.2003 F   0  0  0  0  0  0  0  0  0  0  0  0
   -6.6042    2.7625   -4.1413 F   0  0  0  0  0  0  0  0  0  0  0  0
  1  2  1  0  0  0  0
  1 11  2  0  0  0  0
  2  3  1  0  0  0  0
  4  1  1  0  0  0  0
  5  4  2  0  0  0  0
  5  6  1  0  0  0  0
  6 10  2  0  0  0  0
  7  6  1  0  0  0  0
  7  9  2  0  0  0  0
  8  7  2  0  0  0  0
 10 14  1  0  0  0  0
 10 11  1  0  0  0  0
 11 15  1  0  0  0  0
 13  5  1  0  0  0  0
 16 19  2  0  0  0  0
 16 20  1  0  0  0  0
 16 18  2  0  0  0  0
 17 16  1  0  0  0  0
 20 12  1  0  0  0  0
 21 17  1  0  0  0  0
 22 17  1  0  0  0  0
 23 17  1  0  0  0  0
M  RAD  3   2   2   3   3   4   2
M  END
