Coordinates from ORCA-job 4-NO2PhN2+~TfO-_B3LYPG-6-31G_dp-CH-Scan-d09-49-n800
 OpenBabel11261919523D

 23 22  0  0  0  0  0  0  0  0999 V2000
   -2.1454   -0.2733    0.0901 C   0  0  0  0  0  0  0  0  0  0  0  0
   -3.4210   -0.5725    0.5673 N   0  0  0  0  0  0  0  0  0  0  0  0
   -4.5361   -0.4627    0.6891 N   0  0  0  0  0  0  0  0  0  0  0  0
   -1.9956    0.9153   -0.6355 C   0  0  0  0  0  0  0  0  0  0  0  0
   -0.7278    1.2237   -1.1106 C   0  0  0  0  0  0  0  0  0  0  0  0
    0.3182    0.3414   -0.8421 C   0  0  0  0  0  0  0  0  0  0  0  0
    1.6730    0.6766   -1.3495 N   0  0  0  0  0  0  0  0  0  0  0  0
    1.7915    1.7247   -1.9738 O   0  0  0  0  0  0  0  0  0  0  0  0
    2.5728   -0.1216   -1.1064 O   0  0  0  0  0  0  0  0  0  0  0  0
    0.1625   -0.8423   -0.1188 C   0  0  0  0  0  0  0  0  0  0  0  0
   -1.0984   -1.1620    0.3663 C   0  0  0  0  0  0  0  0  0  0  0  0
   -3.0158    1.6201   -0.8321 H   0  0  0  0  0  0  0  0  0  0  0  0
   -0.5415    2.1225   -1.6846 H   0  0  0  0  0  0  0  0  0  0  0  0
    1.0188   -1.4822    0.0500 H   0  0  0  0  0  0  0  0  0  0  0  0
   -1.2759   -2.0696    0.9316 H   0  0  0  0  0  0  0  0  0  0  0  0
   -5.4828    0.5968   -1.9032 S   0  0  0  0  0  0  0  0  0  0  0  0
   -5.0769    1.9740   -3.0913 C   0  0  0  0  0  0  0  0  0  0  0  0
   -4.5186   -0.4770   -2.2217 O   0  0  0  0  0  0  0  0  0  0  0  0
   -6.9083    0.3334   -2.0902 O   0  0  0  0  0  0  0  0  0  0  0  0
   -5.1236    1.2640   -0.5751 O   0  0  0  0  0  0  0  0  0  0  0  0
   -3.7911    2.3672   -2.9278 F   0  0  0  0  0  0  0  0  0  0  0  0
   -5.2257    1.5563   -4.3503 F   0  0  0  0  0  0  0  0  0  0  0  0
   -5.8645    3.0307   -2.8843 F   0  0  0  0  0  0  0  0  0  0  0  0
  1 11  1  0  0  0  0
  1  2  1  0  0  0  0
  2  3  1  0  0  0  0
  4  1  2  0  0  0  0
  5  6  2  0  0  0  0
  5  4  1  0  0  0  0
  6 10  1  0  0  0  0
  7  9  2  0  0  0  0
  7  6  1  0  0  0  0
  8  7  2  0  0  0  0
 10 14  1  0  0  0  0
 10 11  2  0  0  0  0
 11 15  1  0  0  0  0
 12  4  1  0  0  0  0
 13  5  1  0  0  0  0
 16 20  1  0  0  0  0
 17 21  1  0  0  0  0
 17 23  1  0  0  0  0
 17 16  1  0  0  0  0
 18 16  2  0  0  0  0
 19 16  2  0  0  0  0
 22 17  1  0  0  0  0
M  RAD  3   2   2   3   3  20   2
M  END
