Coordinates from ORCA-job 4-NO2PhN2+~TfO-_B3LYPG-6-31G_dp-CH-Scan-d09-49-n800
 OpenBabel11261919533D

 23 22  0  0  0  0  0  0  0  0999 V2000
   -1.5490   -0.6698   -0.1229 C   0  0  0  0  0  0  0  0  0  0  0  0
   -2.8652   -1.1356    0.0387 N   0  0  0  0  0  0  0  0  0  0  0  0
   -3.9315   -1.4444    0.1554 N   0  0  0  0  0  0  0  0  0  0  0  0
   -1.4979    0.6760   -0.4934 C   0  0  0  0  0  0  0  0  0  0  0  0
   -0.1361    1.0804   -0.6339 C   0  0  0  0  0  0  0  0  0  0  0  0
    0.9199    0.2074   -0.4194 C   0  0  0  0  0  0  0  0  0  0  0  0
    2.3140    0.6978   -0.5863 N   0  0  0  0  0  0  0  0  0  0  0  0
    2.4706    1.8700   -0.9143 O   0  0  0  0  0  0  0  0  0  0  0  0
    3.2248   -0.1050   -0.3847 O   0  0  0  0  0  0  0  0  0  0  0  0
    0.7621   -1.1448   -0.0442 C   0  0  0  0  0  0  0  0  0  0  0  0
   -0.5192   -1.6189    0.1155 C   0  0  0  0  0  0  0  0  0  0  0  0
   -4.5457    2.7286   -1.1824 H   0  0  0  0  0  0  0  0  0  0  0  0
    0.1083    2.0997   -0.9187 H   0  0  0  0  0  0  0  0  0  0  0  0
    1.6344   -1.7657    0.1079 H   0  0  0  0  0  0  0  0  0  0  0  0
   -0.7206   -2.6462    0.4052 H   0  0  0  0  0  0  0  0  0  0  0  0
   -6.2498    1.5905   -1.8228 S   0  0  0  0  0  0  0  0  0  0  0  0
   -6.0433    1.6636   -3.6758 C   0  0  0  0  0  0  0  0  0  0  0  0
   -5.4935    0.4365   -1.3535 O   0  0  0  0  0  0  0  0  0  0  0  0
   -7.6520    1.7947   -1.5281 O   0  0  0  0  0  0  0  0  0  0  0  0
   -5.4637    2.9509   -1.4195 O   0  0  0  0  0  0  0  0  0  0  0  0
   -4.7428    1.7008   -3.9684 F   0  0  0  0  0  0  0  0  0  0  0  0
   -6.5914    0.5702   -4.2016 F   0  0  0  0  0  0  0  0  0  0  0  0
   -6.6444    2.7467   -4.1553 F   0  0  0  0  0  0  0  0  0  0  0  0
  1  2  1  0  0  0  0
  1 11  2  0  0  0  0
  2  3  1  0  0  0  0
  4  1  1  0  0  0  0
  5  4  2  0  0  0  0
  5  6  1  0  0  0  0
  6 10  2  0  0  0  0
  7  6  1  0  0  0  0
  7  9  2  0  0  0  0
  8  7  2  0  0  0  0
 10 14  1  0  0  0  0
 10 11  1  0  0  0  0
 11 15  1  0  0  0  0
 13  5  1  0  0  0  0
 16 19  2  0  0  0  0
 16 20  1  0  0  0  0
 16 18  2  0  0  0  0
 17 16  1  0  0  0  0
 20 12  1  0  0  0  0
 21 17  1  0  0  0  0
 22 17  1  0  0  0  0
 23 17  1  0  0  0  0
M  RAD  3   2   2   3   3   4   2
M  END
