Coordinates from ORCA-job 4-NO2PhN2+~TfO-_B3LYPG-6-31G_dp-CH-Scan-d09-49-n800
 OpenBabel11261919523D

 23 22  0  0  0  0  0  0  0  0999 V2000
   -2.1617   -0.2490    0.0790 C   0  0  0  0  0  0  0  0  0  0  0  0
   -3.4318   -0.5470    0.5701 N   0  0  0  0  0  0  0  0  0  0  0  0
   -4.5498   -0.4562    0.7004 N   0  0  0  0  0  0  0  0  0  0  0  0
   -2.0097    0.9025   -0.7072 C   0  0  0  0  0  0  0  0  0  0  0  0
   -0.7341    1.1864   -1.1810 C   0  0  0  0  0  0  0  0  0  0  0  0
    0.3135    0.3247   -0.8605 C   0  0  0  0  0  0  0  0  0  0  0  0
    1.6706    0.6402   -1.3725 N   0  0  0  0  0  0  0  0  0  0  0  0
    1.7914    1.6590   -2.0432 O   0  0  0  0  0  0  0  0  0  0  0  0
    2.5739   -0.1336   -1.0703 O   0  0  0  0  0  0  0  0  0  0  0  0
    0.1542   -0.8201   -0.0797 C   0  0  0  0  0  0  0  0  0  0  0  0
   -1.1117   -1.1159    0.4077 C   0  0  0  0  0  0  0  0  0  0  0  0
   -2.8718    1.5320   -0.9287 H   0  0  0  0  0  0  0  0  0  0  0  0
   -0.5464    2.0564   -1.7977 H   0  0  0  0  0  0  0  0  0  0  0  0
    1.0095   -1.4486    0.1313 H   0  0  0  0  0  0  0  0  0  0  0  0
   -1.2929   -1.9935    1.0175 H   0  0  0  0  0  0  0  0  0  0  0  0
   -5.4622    0.5599   -1.9348 S   0  0  0  0  0  0  0  0  0  0  0  0
   -5.0992    2.0305   -3.0209 C   0  0  0  0  0  0  0  0  0  0  0  0
   -4.4004   -0.4182   -2.2556 O   0  0  0  0  0  0  0  0  0  0  0  0
   -6.8493    0.2020   -2.2243 O   0  0  0  0  0  0  0  0  0  0  0  0
   -5.2273    1.1756   -0.5567 O   0  0  0  0  0  0  0  0  0  0  0  0
   -3.8426    2.4839   -2.7902 F   0  0  0  0  0  0  0  0  0  0  0  0
   -5.1831    1.6852   -4.3076 F   0  0  0  0  0  0  0  0  0  0  0  0
   -5.9513    3.0274   -2.7782 F   0  0  0  0  0  0  0  0  0  0  0  0
  1 11  1  0  0  0  0
  1  2  1  0  0  0  0
  2  3  1  0  0  0  0
  4  1  2  0  0  0  0
  5  6  2  0  0  0  0
  5  4  1  0  0  0  0
  6 10  1  0  0  0  0
  7  9  2  0  0  0  0
  7  6  1  0  0  0  0
  8  7  2  0  0  0  0
 10 14  1  0  0  0  0
 10 11  2  0  0  0  0
 11 15  1  0  0  0  0
 12  4  1  0  0  0  0
 13  5  1  0  0  0  0
 16 20  1  0  0  0  0
 17 21  1  0  0  0  0
 17 23  1  0  0  0  0
 17 16  1  0  0  0  0
 18 16  2  0  0  0  0
 19 16  2  0  0  0  0
 22 17  1  0  0  0  0
M  RAD  3   2   2   3   3  20   2
M  END
