Coordinates from ORCA-job 4-NO2PhN2+~TfO-_B3LYPG-6-31G_dp-CH-Scan-d09-49-n800
 OpenBabel11261919523D

 23 22  0  0  0  0  0  0  0  0999 V2000
   -1.8339   -0.6602   -0.1062 C   0  0  0  0  0  0  0  0  0  0  0  0
   -3.0957   -1.2090    0.1498 N   0  0  0  0  0  0  0  0  0  0  0  0
   -4.1199   -1.6055    0.3419 N   0  0  0  0  0  0  0  0  0  0  0  0
   -1.8682    0.6620   -0.5666 C   0  0  0  0  0  0  0  0  0  0  0  0
   -0.5486    1.1416   -0.7953 C   0  0  0  0  0  0  0  0  0  0  0  0
    0.5696    0.3520   -0.5700 C   0  0  0  0  0  0  0  0  0  0  0  0
    1.9206    0.9177   -0.8296 N   0  0  0  0  0  0  0  0  0  0  0  0
    1.9838    2.0730   -1.2367 O   0  0  0  0  0  0  0  0  0  0  0  0
    2.8876    0.1873   -0.6188 O   0  0  0  0  0  0  0  0  0  0  0  0
    0.5123   -0.9767   -0.1028 C   0  0  0  0  0  0  0  0  0  0  0  0
   -0.7292   -1.5171    0.1433 C   0  0  0  0  0  0  0  0  0  0  0  0
   -3.8946    1.9813   -0.9727 H   0  0  0  0  0  0  0  0  0  0  0  0
   -0.3862    2.1520   -1.1567 H   0  0  0  0  0  0  0  0  0  0  0  0
    1.4268   -1.5334    0.0507 H   0  0  0  0  0  0  0  0  0  0  0  0
   -0.8501   -2.5334    0.5049 H   0  0  0  0  0  0  0  0  0  0  0  0
   -5.8422    1.4605   -1.7280 S   0  0  0  0  0  0  0  0  0  0  0  0
   -5.5457    1.6761   -3.5551 C   0  0  0  0  0  0  0  0  0  0  0  0
   -5.4829    0.0806   -1.4107 O   0  0  0  0  0  0  0  0  0  0  0  0
   -7.1497    2.0107   -1.4334 O   0  0  0  0  0  0  0  0  0  0  0  0
   -4.7380    2.4675   -1.1471 O   0  0  0  0  0  0  0  0  0  0  0  0
   -4.2844    1.3438   -3.8399 F   0  0  0  0  0  0  0  0  0  0  0  0
   -6.3784    0.8734   -4.2173 F   0  0  0  0  0  0  0  0  0  0  0  0
   -5.7652    2.9394   -3.9064 F   0  0  0  0  0  0  0  0  0  0  0  0
  1 11  1  0  0  0  0
  1  2  1  0  0  0  0
  2  3  1  0  0  0  0
  4  1  2  0  0  0  0
  5  6  2  0  0  0  0
  5  4  1  0  0  0  0
  6 10  1  0  0  0  0
  7  9  2  0  0  0  0
  7  6  1  0  0  0  0
  8  7  2  0  0  0  0
 10 14  1  0  0  0  0
 10 11  2  0  0  0  0
 11 15  1  0  0  0  0
 13  5  1  0  0  0  0
 16 19  2  0  0  0  0
 16 18  2  0  0  0  0
 16 20  1  0  0  0  0
 17 16  1  0  0  0  0
 20 12  1  0  0  0  0
 21 17  1  0  0  0  0
 22 17  1  0  0  0  0
 23 17  1  0  0  0  0
M  RAD  3   2   2   3   3   4   2
M  END
