Coordinates from ORCA-job 4-NO2PhN2+~TfO-_B3LYPG-6-31G_dp-CH-Scan-d09-49-n800
 OpenBabel11261919523D

 23 22  0  0  0  0  0  0  0  0999 V2000
   -1.9998   -0.6373   -0.0856 C   0  0  0  0  0  0  0  0  0  0  0  0
   -3.2341   -1.2136    0.2215 N   0  0  0  0  0  0  0  0  0  0  0  0
   -4.2382   -1.6374    0.4497 N   0  0  0  0  0  0  0  0  0  0  0  0
   -2.0601    0.6690   -0.5915 C   0  0  0  0  0  0  0  0  0  0  0  0
   -0.7672    1.1756   -0.8709 C   0  0  0  0  0  0  0  0  0  0  0  0
    0.3753    0.4203   -0.6459 C   0  0  0  0  0  0  0  0  0  0  0  0
    1.7045    1.0102   -0.9586 N   0  0  0  0  0  0  0  0  0  0  0  0
    1.7251    2.1508   -1.4076 O   0  0  0  0  0  0  0  0  0  0  0  0
    2.6928    0.3113   -0.7446 O   0  0  0  0  0  0  0  0  0  0  0  0
    0.3588   -0.8893   -0.1325 C   0  0  0  0  0  0  0  0  0  0  0  0
   -0.8646   -1.4497    0.1629 C   0  0  0  0  0  0  0  0  0  0  0  0
   -3.5181    1.5937   -0.8839 H   0  0  0  0  0  0  0  0  0  0  0  0
   -0.6461    2.1765   -1.2712 H   0  0  0  0  0  0  0  0  0  0  0  0
    1.2887   -1.4209    0.0180 H   0  0  0  0  0  0  0  0  0  0  0  0
   -0.9514   -2.4554    0.5605 H   0  0  0  0  0  0  0  0  0  0  0  0
   -5.5620    1.3726   -1.6775 S   0  0  0  0  0  0  0  0  0  0  0  0
   -5.2924    1.6960   -3.4892 C   0  0  0  0  0  0  0  0  0  0  0  0
   -5.3387   -0.0665   -1.4959 O   0  0  0  0  0  0  0  0  0  0  0  0
   -6.8319    1.9822   -1.3236 O   0  0  0  0  0  0  0  0  0  0  0  0
   -4.3752    2.1956   -1.0560 O   0  0  0  0  0  0  0  0  0  0  0  0
   -4.0655    1.2899   -3.8376 F   0  0  0  0  0  0  0  0  0  0  0  0
   -6.1968    1.0137   -4.1942 F   0  0  0  0  0  0  0  0  0  0  0  0
   -5.4152    2.9964   -3.7492 F   0  0  0  0  0  0  0  0  0  0  0  0
  1 11  1  0  0  0  0
  1  2  1  0  0  0  0
  2  3  1  0  0  0  0
  4  1  2  0  0  0  0
  5  6  2  0  0  0  0
  5  4  1  0  0  0  0
  6 10  1  0  0  0  0
  7  9  2  0  0  0  0
  7  6  1  0  0  0  0
  8  7  2  0  0  0  0
 10 14  1  0  0  0  0
 10 11  2  0  0  0  0
 11 15  1  0  0  0  0
 13  5  1  0  0  0  0
 16 18  2  0  0  0  0
 16 19  2  0  0  0  0
 16 20  1  0  0  0  0
 17 16  1  0  0  0  0
 20 12  1  0  0  0  0
 21 17  1  0  0  0  0
 22 17  1  0  0  0  0
 23 17  1  0  0  0  0
M  RAD  3   2   2   3   3   4   2
M  END
