Coordinates from ORCA-job 4-NO2PhN2+~TfO-_B3LYPG-6-31G_dp-CH-Scan-d09-49-n800
 OpenBabel11261919533D

 23 22  0  0  0  0  0  0  0  0999 V2000
   -1.5562   -0.6170   -0.0238 C   0  0  0  0  0  0  0  0  0  0  0  0
   -2.8762   -1.0371    0.2201 N   0  0  0  0  0  0  0  0  0  0  0  0
   -3.9445   -1.3013    0.4082 N   0  0  0  0  0  0  0  0  0  0  0  0
   -1.4835    0.7364   -0.3582 C   0  0  0  0  0  0  0  0  0  0  0  0
   -0.1203    1.0973   -0.5840 C   0  0  0  0  0  0  0  0  0  0  0  0
    0.9147    0.1811   -0.4725 C   0  0  0  0  0  0  0  0  0  0  0  0
    2.3108    0.6266   -0.7253 N   0  0  0  0  0  0  0  0  0  0  0  0
    2.4872    1.7997   -1.0402 O   0  0  0  0  0  0  0  0  0  0  0  0
    3.2042   -0.2110   -0.6022 O   0  0  0  0  0  0  0  0  0  0  0  0
    0.7338   -1.1760   -0.1255 C   0  0  0  0  0  0  0  0  0  0  0  0
   -0.5495   -1.6096    0.1133 C   0  0  0  0  0  0  0  0  0  0  0  0
   -4.8763    2.8816   -1.0237 H   0  0  0  0  0  0  0  0  0  0  0  0
    0.1413    2.1163   -0.8550 H   0  0  0  0  0  0  0  0  0  0  0  0
    1.5913   -1.8312   -0.0543 H   0  0  0  0  0  0  0  0  0  0  0  0
   -0.7681   -2.6375    0.3886 H   0  0  0  0  0  0  0  0  0  0  0  0
   -6.3009    1.5133   -1.8707 S   0  0  0  0  0  0  0  0  0  0  0  0
   -5.8631    1.6813   -3.6768 C   0  0  0  0  0  0  0  0  0  0  0  0
   -5.4482    0.4687   -1.3187 O   0  0  0  0  0  0  0  0  0  0  0  0
   -7.7442    1.5005   -1.7661 O   0  0  0  0  0  0  0  0  0  0  0  0
   -5.7926    2.9618   -1.3427 O   0  0  0  0  0  0  0  0  0  0  0  0
   -4.5588    1.9373   -3.7866 F   0  0  0  0  0  0  0  0  0  0  0  0
   -6.1491    0.5329   -4.2860 F   0  0  0  0  0  0  0  0  0  0  0  0
   -6.5641    2.6695   -4.2208 F   0  0  0  0  0  0  0  0  0  0  0  0
  1 11  1  0  0  0  0
  1  2  1  0  0  0  0
  2  3  1  0  0  0  0
  4  1  2  0  0  0  0
  5  6  2  0  0  0  0
  5  4  1  0  0  0  0
  6 10  1  0  0  0  0
  7  9  2  0  0  0  0
  7  6  1  0  0  0  0
  8  7  2  0  0  0  0
 10 14  1  0  0  0  0
 10 11  2  0  0  0  0
 11 15  1  0  0  0  0
 13  5  1  0  0  0  0
 16 19  2  0  0  0  0
 16 20  1  0  0  0  0
 16 18  2  0  0  0  0
 17 16  1  0  0  0  0
 20 12  1  0  0  0  0
 21 17  1  0  0  0  0
 22 17  1  0  0  0  0
 23 17  1  0  0  0  0
M  RAD  3   2   2   3   3   4   2
M  END
