Coordinates from ORCA-job 4-NO2PhN2+~TfO-_B3LYPG-6-31G_dp-CH-Scan-d09-49-n800
 OpenBabel11261919533D

 23 22  0  0  0  0  0  0  0  0999 V2000
   -1.5575   -0.6173   -0.0235 C   0  0  0  0  0  0  0  0  0  0  0  0
   -2.8773   -1.0377    0.2210 N   0  0  0  0  0  0  0  0  0  0  0  0
   -3.9455   -1.3025    0.4085 N   0  0  0  0  0  0  0  0  0  0  0  0
   -1.4855    0.7359   -0.3584 C   0  0  0  0  0  0  0  0  0  0  0  0
   -0.1226    1.0973   -0.5850 C   0  0  0  0  0  0  0  0  0  0  0  0
    0.9129    0.1816   -0.4734 C   0  0  0  0  0  0  0  0  0  0  0  0
    2.3087    0.6277   -0.7269 N   0  0  0  0  0  0  0  0  0  0  0  0
    2.4844    1.8007   -1.0424 O   0  0  0  0  0  0  0  0  0  0  0  0
    3.2025   -0.2094   -0.6036 O   0  0  0  0  0  0  0  0  0  0  0  0
    0.7327   -1.1754   -0.1256 C   0  0  0  0  0  0  0  0  0  0  0  0
   -0.5503   -1.6095    0.1138 C   0  0  0  0  0  0  0  0  0  0  0  0
   -4.8737    2.8796   -1.0221 H   0  0  0  0  0  0  0  0  0  0  0  0
    0.1384    2.1163   -0.8566 H   0  0  0  0  0  0  0  0  0  0  0  0
    1.5906   -1.8302   -0.0544 H   0  0  0  0  0  0  0  0  0  0  0  0
   -0.7683   -2.6373    0.3896 H   0  0  0  0  0  0  0  0  0  0  0  0
   -6.2990    1.5130   -1.8703 S   0  0  0  0  0  0  0  0  0  0  0  0
   -5.8603    1.6813   -3.6761 C   0  0  0  0  0  0  0  0  0  0  0  0
   -5.4473    0.4678   -1.3182 O   0  0  0  0  0  0  0  0  0  0  0  0
   -7.7424    1.5013   -1.7664 O   0  0  0  0  0  0  0  0  0  0  0  0
   -5.7898    2.9609   -1.3415 O   0  0  0  0  0  0  0  0  0  0  0  0
   -4.5557    1.9364   -3.7852 F   0  0  0  0  0  0  0  0  0  0  0  0
   -6.1468    0.5332   -4.2859 F   0  0  0  0  0  0  0  0  0  0  0  0
   -6.5603    2.6701   -4.2202 F   0  0  0  0  0  0  0  0  0  0  0  0
  1 11  1  0  0  0  0
  1  2  1  0  0  0  0
  2  3  1  0  0  0  0
  4  1  2  0  0  0  0
  5  6  2  0  0  0  0
  5  4  1  0  0  0  0
  6 10  1  0  0  0  0
  7  9  2  0  0  0  0
  7  6  1  0  0  0  0
  8  7  2  0  0  0  0
 10 14  1  0  0  0  0
 10 11  2  0  0  0  0
 11 15  1  0  0  0  0
 13  5  1  0  0  0  0
 16 19  2  0  0  0  0
 16 20  1  0  0  0  0
 16 18  2  0  0  0  0
 17 16  1  0  0  0  0
 20 12  1  0  0  0  0
 21 17  1  0  0  0  0
 22 17  1  0  0  0  0
 23 17  1  0  0  0  0
M  RAD  3   2   2   3   3   4   2
M  END
