Coordinates from ORCA-job 4-NO2PhN2+~TfO-_B3LYPG-6-31G_dp-CH-Scan-d09-49-n800
 OpenBabel11261919523D

 23 22  0  0  0  0  0  0  0  0999 V2000
   -2.1688   -0.2556    0.0725 C   0  0  0  0  0  0  0  0  0  0  0  0
   -3.4374   -0.5591    0.5638 N   0  0  0  0  0  0  0  0  0  0  0  0
   -4.5565   -0.4787    0.6947 N   0  0  0  0  0  0  0  0  0  0  0  0
   -2.0296    0.8686   -0.7558 C   0  0  0  0  0  0  0  0  0  0  0  0
   -0.7524    1.1517   -1.2278 C   0  0  0  0  0  0  0  0  0  0  0  0
    0.3057    0.3199   -0.8674 C   0  0  0  0  0  0  0  0  0  0  0  0
    1.6619    0.6370   -1.3806 N   0  0  0  0  0  0  0  0  0  0  0  0
    1.7713    1.6276   -2.0941 O   0  0  0  0  0  0  0  0  0  0  0  0
    2.5731   -0.1151   -1.0487 O   0  0  0  0  0  0  0  0  0  0  0  0
    0.1573   -0.7968   -0.0451 C   0  0  0  0  0  0  0  0  0  0  0  0
   -1.1088   -1.0932    0.4416 C   0  0  0  0  0  0  0  0  0  0  0  0
   -2.8099    1.4244   -0.9851 H   0  0  0  0  0  0  0  0  0  0  0  0
   -0.5736    2.0010   -1.8753 H   0  0  0  0  0  0  0  0  0  0  0  0
    1.0198   -1.4037    0.1970 H   0  0  0  0  0  0  0  0  0  0  0  0
   -1.2825   -1.9500    1.0824 H   0  0  0  0  0  0  0  0  0  0  0  0
   -5.4526    0.5606   -1.9490 S   0  0  0  0  0  0  0  0  0  0  0  0
   -5.0993    2.0689   -2.9857 C   0  0  0  0  0  0  0  0  0  0  0  0
   -4.3607   -0.3832   -2.2754 O   0  0  0  0  0  0  0  0  0  0  0  0
   -6.8235    0.1787   -2.2813 O   0  0  0  0  0  0  0  0  0  0  0  0
   -5.2613    1.1403   -0.5500 O   0  0  0  0  0  0  0  0  0  0  0  0
   -3.8514    2.5319   -2.7285 F   0  0  0  0  0  0  0  0  0  0  0  0
   -5.1654    1.7621   -4.2832 F   0  0  0  0  0  0  0  0  0  0  0  0
   -5.9674    3.0463   -2.7219 F   0  0  0  0  0  0  0  0  0  0  0  0
  1 11  1  0  0  0  0
  1  2  1  0  0  0  0
  2  3  1  0  0  0  0
  4  1  2  0  0  0  0
  5  6  2  0  0  0  0
  5  4  1  0  0  0  0
  6 10  1  0  0  0  0
  7  9  2  0  0  0  0
  7  6  1  0  0  0  0
  8  7  2  0  0  0  0
 10 14  1  0  0  0  0
 10 11  2  0  0  0  0
 11 15  1  0  0  0  0
 12  4  1  0  0  0  0
 13  5  1  0  0  0  0
 16 20  1  0  0  0  0
 17 21  1  0  0  0  0
 17 23  1  0  0  0  0
 17 16  1  0  0  0  0
 18 16  2  0  0  0  0
 19 16  2  0  0  0  0
 22 17  1  0  0  0  0
M  RAD  3   2   2   3   3  20   2
M  END
