Coordinates from ORCA-job 4-NO2PhN2+~TfO-_B3LYPG-6-31G_dp-CH-Scan-d09-49-n800
 OpenBabel11261919533D

 23 22  0  0  0  0  0  0  0  0999 V2000
   -1.4928   -0.5986   -0.0174 C   0  0  0  0  0  0  0  0  0  0  0  0
   -2.8252   -0.9895    0.2114 N   0  0  0  0  0  0  0  0  0  0  0  0
   -3.9019   -1.2272    0.3871 N   0  0  0  0  0  0  0  0  0  0  0  0
   -1.3879    0.7580   -0.3263 C   0  0  0  0  0  0  0  0  0  0  0  0
   -0.0155    1.0920   -0.5383 C   0  0  0  0  0  0  0  0  0  0  0  0
    0.9973    0.1500   -0.4391 C   0  0  0  0  0  0  0  0  0  0  0  0
    2.4046    0.5675   -0.6766 N   0  0  0  0  0  0  0  0  0  0  0  0
    2.6101    1.7419   -0.9681 O   0  0  0  0  0  0  0  0  0  0  0  0
    3.2785   -0.2914   -0.5589 O   0  0  0  0  0  0  0  0  0  0  0  0
    0.7833   -1.2089   -0.1180 C   0  0  0  0  0  0  0  0  0  0  0  0
   -0.5108   -1.6173    0.1065 C   0  0  0  0  0  0  0  0  0  0  0  0
   -5.0425    2.9763   -1.0691 H   0  0  0  0  0  0  0  0  0  0  0  0
    0.2707    2.1098   -0.7885 H   0  0  0  0  0  0  0  0  0  0  0  0
    1.6253   -1.8847   -0.0548 H   0  0  0  0  0  0  0  0  0  0  0  0
   -0.7545   -2.6447    0.3619 H   0  0  0  0  0  0  0  0  0  0  0  0
   -6.3846    1.5166   -1.8974 S   0  0  0  0  0  0  0  0  0  0  0  0
   -5.9792    1.6950   -3.7098 C   0  0  0  0  0  0  0  0  0  0  0  0
   -5.4609    0.5345   -1.3447 O   0  0  0  0  0  0  0  0  0  0  0  0
   -7.8230    1.4145   -1.7756 O   0  0  0  0  0  0  0  0  0  0  0  0
   -5.9611    3.0003   -1.3900 O   0  0  0  0  0  0  0  0  0  0  0  0
   -4.6911    2.0162   -3.8382 F   0  0  0  0  0  0  0  0  0  0  0  0
   -6.2144    0.5299   -4.3089 F   0  0  0  0  0  0  0  0  0  0  0  0
   -6.7364    2.6432   -4.2498 F   0  0  0  0  0  0  0  0  0  0  0  0
  1 11  1  0  0  0  0
  1  2  1  0  0  0  0
  2  3  1  0  0  0  0
  4  1  2  0  0  0  0
  5  6  2  0  0  0  0
  5  4  1  0  0  0  0
  6 10  1  0  0  0  0
  7  9  2  0  0  0  0
  7  6  1  0  0  0  0
  8  7  2  0  0  0  0
 10 14  1  0  0  0  0
 10 11  2  0  0  0  0
 11 15  1  0  0  0  0
 13  5  1  0  0  0  0
 16 19  2  0  0  0  0
 16 20  1  0  0  0  0
 16 18  2  0  0  0  0
 17 16  1  0  0  0  0
 20 12  1  0  0  0  0
 21 17  1  0  0  0  0
 22 17  1  0  0  0  0
 23 17  1  0  0  0  0
M  RAD  3   2   2   3   3   4   2
M  END
