Coordinates from ORCA-job 4-NO2PhN2+~TfO-_B3LYPG-6-31G_dp-CH-Scan-d09-49-n800
 OpenBabel11261919523D

 23 22  0  0  0  0  0  0  0  0999 V2000
   -1.6253   -0.6750   -0.1266 C   0  0  0  0  0  0  0  0  0  0  0  0
   -2.9259   -1.1723    0.0513 N   0  0  0  0  0  0  0  0  0  0  0  0
   -3.9800   -1.5148    0.1814 N   0  0  0  0  0  0  0  0  0  0  0  0
   -1.6023    0.6635   -0.5288 C   0  0  0  0  0  0  0  0  0  0  0  0
   -0.2521    1.0966   -0.6830 C   0  0  0  0  0  0  0  0  0  0  0  0
    0.8245    0.2539   -0.4503 C   0  0  0  0  0  0  0  0  0  0  0  0
    2.2063    0.7733   -0.6323 N   0  0  0  0  0  0  0  0  0  0  0  0
    2.3334    1.9380   -0.9968 O   0  0  0  0  0  0  0  0  0  0  0  0
    3.1357   -0.0053   -0.4218 O   0  0  0  0  0  0  0  0  0  0  0  0
    0.6987   -1.0919   -0.0434 C   0  0  0  0  0  0  0  0  0  0  0  0
   -0.5709   -1.5919    0.1304 C   0  0  0  0  0  0  0  0  0  0  0  0
   -4.3021    2.4747   -1.1401 H   0  0  0  0  0  0  0  0  0  0  0  0
   -0.0329    2.1141   -0.9927 H   0  0  0  0  0  0  0  0  0  0  0  0
    1.5852   -1.6891    0.1211 H   0  0  0  0  0  0  0  0  0  0  0  0
   -0.7471   -2.6166    0.4440 H   0  0  0  0  0  0  0  0  0  0  0  0
   -6.1273    1.5559   -1.7975 S   0  0  0  0  0  0  0  0  0  0  0  0
   -5.9431    1.6761   -3.6498 C   0  0  0  0  0  0  0  0  0  0  0  0
   -5.4988    0.3059   -1.3868 O   0  0  0  0  0  0  0  0  0  0  0  0
   -7.4957    1.8973   -1.4711 O   0  0  0  0  0  0  0  0  0  0  0  0
   -5.1938    2.8033   -1.3593 O   0  0  0  0  0  0  0  0  0  0  0  0
   -4.6541    1.5597   -3.9706 F   0  0  0  0  0  0  0  0  0  0  0  0
   -6.6353    0.6830   -4.2050 F   0  0  0  0  0  0  0  0  0  0  0  0
   -6.4093    2.8452   -4.0751 F   0  0  0  0  0  0  0  0  0  0  0  0
  1  2  1  0  0  0  0
  1 11  2  0  0  0  0
  2  3  1  0  0  0  0
  4  1  1  0  0  0  0
  5  4  2  0  0  0  0
  5  6  1  0  0  0  0
  6 10  2  0  0  0  0
  7  6  1  0  0  0  0
  7  9  2  0  0  0  0
  8  7  2  0  0  0  0
 10 14  1  0  0  0  0
 10 11  1  0  0  0  0
 11 15  1  0  0  0  0
 13  5  1  0  0  0  0
 16 19  2  0  0  0  0
 16 18  2  0  0  0  0
 16 20  1  0  0  0  0
 17 16  1  0  0  0  0
 20 12  1  0  0  0  0
 21 17  1  0  0  0  0
 22 17  1  0  0  0  0
 23 17  1  0  0  0  0
M  RAD  3   2   2   3   3   4   2
M  END
