Coordinates from ORCA-job 4-NO2PhN2+~TfO-_B3LYPG-6-31G_dp-CH-Scan-d09-49-n800
 OpenBabel11261919523D

 23 22  0  0  0  0  0  0  0  0999 V2000
   -1.6105   -0.6755   -0.1282 C   0  0  0  0  0  0  0  0  0  0  0  0
   -2.9139   -1.1678    0.0457 N   0  0  0  0  0  0  0  0  0  0  0  0
   -3.9703   -1.5047    0.1723 N   0  0  0  0  0  0  0  0  0  0  0  0
   -1.5828    0.6639   -0.5265 C   0  0  0  0  0  0  0  0  0  0  0  0
   -0.2305    1.0926   -0.6768 C   0  0  0  0  0  0  0  0  0  0  0  0
    0.8427    0.2453   -0.4445 C   0  0  0  0  0  0  0  0  0  0  0  0
    2.2266    0.7601   -0.6226 N   0  0  0  0  0  0  0  0  0  0  0  0
    2.3590    1.9280   -0.9752 O   0  0  0  0  0  0  0  0  0  0  0  0
    3.1531   -0.0200   -0.4048 O   0  0  0  0  0  0  0  0  0  0  0  0
    0.7114   -1.1012   -0.0417 C   0  0  0  0  0  0  0  0  0  0  0  0
   -0.5603   -1.5972    0.1284 C   0  0  0  0  0  0  0  0  0  0  0  0
   -4.3378    2.5161   -1.1519 H   0  0  0  0  0  0  0  0  0  0  0  0
   -0.0069    2.1102   -0.9832 H   0  0  0  0  0  0  0  0  0  0  0  0
    1.5955   -1.7019    0.1228 H   0  0  0  0  0  0  0  0  0  0  0  0
   -0.7408   -2.6222    0.4387 H   0  0  0  0  0  0  0  0  0  0  0  0
   -6.1487    1.5638   -1.8018 S   0  0  0  0  0  0  0  0  0  0  0  0
   -5.9680    1.6747   -3.6551 C   0  0  0  0  0  0  0  0  0  0  0  0
   -5.4990    0.3275   -1.3833 O   0  0  0  0  0  0  0  0  0  0  0  0
   -7.5218    1.8859   -1.4755 O   0  0  0  0  0  0  0  0  0  0  0  0
   -5.2341    2.8295   -1.3731 O   0  0  0  0  0  0  0  0  0  0  0  0
   -4.6769    1.5830   -3.9755 F   0  0  0  0  0  0  0  0  0  0  0  0
   -6.6394    0.6632   -4.2024 F   0  0  0  0  0  0  0  0  0  0  0  0
   -6.4590    2.8306   -4.0886 F   0  0  0  0  0  0  0  0  0  0  0  0
  1  2  1  0  0  0  0
  1 11  2  0  0  0  0
  2  3  1  0  0  0  0
  4  1  1  0  0  0  0
  5  4  2  0  0  0  0
  5  6  1  0  0  0  0
  6 10  2  0  0  0  0
  7  6  1  0  0  0  0
  7  9  2  0  0  0  0
  8  7  2  0  0  0  0
 10 14  1  0  0  0  0
 10 11  1  0  0  0  0
 11 15  1  0  0  0  0
 13  5  1  0  0  0  0
 16 19  2  0  0  0  0
 16 18  2  0  0  0  0
 16 20  1  0  0  0  0
 17 16  1  0  0  0  0
 20 12  1  0  0  0  0
 21 17  1  0  0  0  0
 22 17  1  0  0  0  0
 23 17  1  0  0  0  0
M  RAD  3   2   2   3   3   4   2
M  END
