Coordinates from ORCA-job 4-NO2PhN2+~TfO-_B3LYPG-6-31G_dp-CH-Scan-d09-49-n800
 OpenBabel11261919533D

 23 22  0  0  0  0  0  0  0  0999 V2000
   -1.5712   -0.6194   -0.0226 C   0  0  0  0  0  0  0  0  0  0  0  0
   -2.8882   -1.0450    0.2269 N   0  0  0  0  0  0  0  0  0  0  0  0
   -3.9544   -1.3148    0.4183 N   0  0  0  0  0  0  0  0  0  0  0  0
   -1.5053    0.7333   -0.3613 C   0  0  0  0  0  0  0  0  0  0  0  0
   -0.1445    1.0994   -0.5926 C   0  0  0  0  0  0  0  0  0  0  0  0
    0.8949    0.1882   -0.4815 C   0  0  0  0  0  0  0  0  0  0  0  0
    2.2883    0.6392   -0.7400 N   0  0  0  0  0  0  0  0  0  0  0  0
    2.4583    1.8121   -1.0590 O   0  0  0  0  0  0  0  0  0  0  0  0
    3.1857   -0.1941   -0.6171 O   0  0  0  0  0  0  0  0  0  0  0  0
    0.7211   -1.1686   -0.1296 C   0  0  0  0  0  0  0  0  0  0  0  0
   -0.5595   -1.6070    0.1144 C   0  0  0  0  0  0  0  0  0  0  0  0
   -4.8425    2.8579   -1.0097 H   0  0  0  0  0  0  0  0  0  0  0  0
    0.1118    2.1187   -0.8676 H   0  0  0  0  0  0  0  0  0  0  0  0
    1.5817   -1.8198   -0.0591 H   0  0  0  0  0  0  0  0  0  0  0  0
   -0.7726   -2.6350    0.3935 H   0  0  0  0  0  0  0  0  0  0  0  0
   -6.2817    1.5109   -1.8658 S   0  0  0  0  0  0  0  0  0  0  0  0
   -5.8326    1.6779   -3.6692 C   0  0  0  0  0  0  0  0  0  0  0  0
   -5.4460    0.4532   -1.3128 O   0  0  0  0  0  0  0  0  0  0  0  0
   -7.7256    1.5171   -1.7685 O   0  0  0  0  0  0  0  0  0  0  0  0
   -5.7570    2.9507   -1.3307 O   0  0  0  0  0  0  0  0  0  0  0  0
   -4.5249    1.9190   -3.7716 F   0  0  0  0  0  0  0  0  0  0  0  0
   -6.1287    0.5342   -4.2826 F   0  0  0  0  0  0  0  0  0  0  0  0
   -6.5191    2.6754   -4.2146 F   0  0  0  0  0  0  0  0  0  0  0  0
  1 11  1  0  0  0  0
  1  2  1  0  0  0  0
  2  3  1  0  0  0  0
  4  1  2  0  0  0  0
  5  6  2  0  0  0  0
  5  4  1  0  0  0  0
  6 10  1  0  0  0  0
  7  9  2  0  0  0  0
  7  6  1  0  0  0  0
  8  7  2  0  0  0  0
 10 14  1  0  0  0  0
 10 11  2  0  0  0  0
 11 15  1  0  0  0  0
 13  5  1  0  0  0  0
 16 19  2  0  0  0  0
 16 20  1  0  0  0  0
 16 18  2  0  0  0  0
 17 16  1  0  0  0  0
 20 12  1  0  0  0  0
 21 17  1  0  0  0  0
 22 17  1  0  0  0  0
 23 17  1  0  0  0  0
M  RAD  3   2   2   3   3   4   2
M  END
