Coordinates from ORCA-job 4-NO2PhN2+~TfO-_B3LYPG-6-31G_dp-CH-Scan-d09-49-n800
 OpenBabel11261919523D

 23 22  0  0  0  0  0  0  0  0999 V2000
   -1.9610   -0.6484   -0.0950 C   0  0  0  0  0  0  0  0  0  0  0  0
   -3.2003   -1.2228    0.1989 N   0  0  0  0  0  0  0  0  0  0  0  0
   -4.2081   -1.6437    0.4180 N   0  0  0  0  0  0  0  0  0  0  0  0
   -2.0217    0.6622   -0.5888 C   0  0  0  0  0  0  0  0  0  0  0  0
   -0.7228    1.1666   -0.8552 C   0  0  0  0  0  0  0  0  0  0  0  0
    0.4167    0.4069   -0.6309 C   0  0  0  0  0  0  0  0  0  0  0  0
    1.7492    0.9962   -0.9304 N   0  0  0  0  0  0  0  0  0  0  0  0
    1.7763    2.1411   -1.3686 O   0  0  0  0  0  0  0  0  0  0  0  0
    2.7351    0.2930   -0.7177 O   0  0  0  0  0  0  0  0  0  0  0  0
    0.3954   -0.9083   -0.1297 C   0  0  0  0  0  0  0  0  0  0  0  0
   -0.8304   -1.4686    0.1533 C   0  0  0  0  0  0  0  0  0  0  0  0
   -3.6182    1.6841   -0.9022 H   0  0  0  0  0  0  0  0  0  0  0  0
   -0.5941    2.1708   -1.2451 H   0  0  0  0  0  0  0  0  0  0  0  0
    1.3237   -1.4426    0.0210 H   0  0  0  0  0  0  0  0  0  0  0  0
   -0.9219   -2.4777    0.5416 H   0  0  0  0  0  0  0  0  0  0  0  0
   -5.6327    1.4017   -1.6841 S   0  0  0  0  0  0  0  0  0  0  0  0
   -5.3387    1.6840   -3.5001 C   0  0  0  0  0  0  0  0  0  0  0  0
   -5.3994   -0.0266   -1.4573 O   0  0  0  0  0  0  0  0  0  0  0  0
   -6.9016    2.0243   -1.3561 O   0  0  0  0  0  0  0  0  0  0  0  0
   -4.4543    2.2594   -1.0663 O   0  0  0  0  0  0  0  0  0  0  0  0
   -4.1059    1.2765   -3.8203 F   0  0  0  0  0  0  0  0  0  0  0  0
   -6.2310    0.9789   -4.1971 F   0  0  0  0  0  0  0  0  0  0  0  0
   -5.4665    2.9766   -3.7908 F   0  0  0  0  0  0  0  0  0  0  0  0
  1 11  1  0  0  0  0
  1  2  1  0  0  0  0
  2  3  1  0  0  0  0
  4  1  2  0  0  0  0
  5  6  2  0  0  0  0
  5  4  1  0  0  0  0
  6 10  1  0  0  0  0
  7  9  2  0  0  0  0
  7  6  1  0  0  0  0
  8  7  2  0  0  0  0
 10 14  1  0  0  0  0
 10 11  2  0  0  0  0
 11 15  1  0  0  0  0
 13  5  1  0  0  0  0
 16 18  2  0  0  0  0
 16 19  2  0  0  0  0
 16 20  1  0  0  0  0
 17 16  1  0  0  0  0
 20 12  1  0  0  0  0
 21 17  1  0  0  0  0
 22 17  1  0  0  0  0
 23 17  1  0  0  0  0
M  RAD  3   2   2   3   3   4   2
M  END
