Coordinates from ORCA-job 4-NO2PhN2+~TfO-_B3LYPG-6-31G_dp-CH-Scan-d09-49-n800
 OpenBabel11261919523D

 23 22  0  0  0  0  0  0  0  0999 V2000
   -1.8512   -0.6604   -0.1083 C   0  0  0  0  0  0  0  0  0  0  0  0
   -3.1098   -1.2141    0.1501 N   0  0  0  0  0  0  0  0  0  0  0  0
   -4.1313   -1.6163    0.3438 N   0  0  0  0  0  0  0  0  0  0  0  0
   -1.8897    0.6595   -0.5756 C   0  0  0  0  0  0  0  0  0  0  0  0
   -0.5730    1.1443   -0.8064 C   0  0  0  0  0  0  0  0  0  0  0  0
    0.5487    0.3609   -0.5765 C   0  0  0  0  0  0  0  0  0  0  0  0
    1.8972    0.9317   -0.8382 N   0  0  0  0  0  0  0  0  0  0  0  0
    1.9549    2.0854   -1.2506 O   0  0  0  0  0  0  0  0  0  0  0  0
    2.8673    0.2069   -0.6228 O   0  0  0  0  0  0  0  0  0  0  0  0
    0.4970   -0.9654   -0.1025 C   0  0  0  0  0  0  0  0  0  0  0  0
   -0.7422   -1.5101    0.1458 C   0  0  0  0  0  0  0  0  0  0  0  0
   -3.8471    1.9303   -0.9702 H   0  0  0  0  0  0  0  0  0  0  0  0
   -0.4156    2.1535   -1.1730 H   0  0  0  0  0  0  0  0  0  0  0  0
    1.4139   -1.5173    0.0543 H   0  0  0  0  0  0  0  0  0  0  0  0
   -0.8586   -2.5251    0.5123 H   0  0  0  0  0  0  0  0  0  0  0  0
   -5.8099    1.4543   -1.7204 S   0  0  0  0  0  0  0  0  0  0  0  0
   -5.5245    1.6771   -3.5480 C   0  0  0  0  0  0  0  0  0  0  0  0
   -5.4750    0.0647   -1.4168 O   0  0  0  0  0  0  0  0  0  0  0  0
   -7.1065    2.0239   -1.4134 O   0  0  0  0  0  0  0  0  0  0  0  0
   -4.6845    2.4343   -1.1410 O   0  0  0  0  0  0  0  0  0  0  0  0
   -4.2734    1.3193   -3.8473 F   0  0  0  0  0  0  0  0  0  0  0  0
   -6.3803    0.8983   -4.2096 F   0  0  0  0  0  0  0  0  0  0  0  0
   -5.7188    2.9478   -3.8883 F   0  0  0  0  0  0  0  0  0  0  0  0
  1 11  1  0  0  0  0
  1  2  1  0  0  0  0
  2  3  1  0  0  0  0
  4  1  2  0  0  0  0
  5  6  2  0  0  0  0
  5  4  1  0  0  0  0
  6 10  1  0  0  0  0
  7  9  2  0  0  0  0
  7  6  1  0  0  0  0
  8  7  2  0  0  0  0
 10 14  1  0  0  0  0
 10 11  2  0  0  0  0
 11 15  1  0  0  0  0
 13  5  1  0  0  0  0
 16 18  2  0  0  0  0
 16 19  2  0  0  0  0
 16 20  1  0  0  0  0
 17 16  1  0  0  0  0
 20 12  1  0  0  0  0
 21 17  1  0  0  0  0
 22 17  1  0  0  0  0
 23 17  1  0  0  0  0
M  RAD  3   2   2   3   3   4   2
M  END
