Coordinates from ORCA-job 4-NO2PhN2+~TfO-_B3LYPG-6-31G_dp-CH-Scan-d09-49-n800
 OpenBabel11261919523D

 23 22  0  0  0  0  0  0  0  0999 V2000
   -1.6504   -0.6723   -0.1218 C   0  0  0  0  0  0  0  0  0  0  0  0
   -2.9465   -1.1752    0.0686 N   0  0  0  0  0  0  0  0  0  0  0  0
   -3.9970   -1.5242    0.2090 N   0  0  0  0  0  0  0  0  0  0  0  0
   -1.6344    0.6648   -0.5304 C   0  0  0  0  0  0  0  0  0  0  0  0
   -0.2875    1.1026   -0.6964 C   0  0  0  0  0  0  0  0  0  0  0  0
    0.7941    0.2653   -0.4672 C   0  0  0  0  0  0  0  0  0  0  0  0
    2.1724    0.7895   -0.6615 N   0  0  0  0  0  0  0  0  0  0  0  0
    2.2922    1.9557   -1.0239 O   0  0  0  0  0  0  0  0  0  0  0  0
    3.1066    0.0180   -0.4461 O   0  0  0  0  0  0  0  0  0  0  0  0
    0.6765   -1.0788   -0.0532 C   0  0  0  0  0  0  0  0  0  0  0  0
   -0.5899   -1.5831    0.1318 C   0  0  0  0  0  0  0  0  0  0  0  0
   -4.2538    2.4129   -1.1146 H   0  0  0  0  0  0  0  0  0  0  0  0
   -0.0748    2.1195   -1.0126 H   0  0  0  0  0  0  0  0  0  0  0  0
    1.5664   -1.6718    0.1078 H   0  0  0  0  0  0  0  0  0  0  0  0
   -0.7596   -2.6071    0.4511 H   0  0  0  0  0  0  0  0  0  0  0  0
   -6.0957    1.5417   -1.7908 S   0  0  0  0  0  0  0  0  0  0  0  0
   -5.8937    1.6776   -3.6399 C   0  0  0  0  0  0  0  0  0  0  0  0
   -5.5001    0.2724   -1.3898 O   0  0  0  0  0  0  0  0  0  0  0  0
   -7.4591    1.9097   -1.4721 O   0  0  0  0  0  0  0  0  0  0  0  0
   -5.1392    2.7619   -1.3306 O   0  0  0  0  0  0  0  0  0  0  0  0
   -4.6050    1.5361   -3.9523 F   0  0  0  0  0  0  0  0  0  0  0  0
   -6.6034    0.7066   -4.2120 F   0  0  0  0  0  0  0  0  0  0  0  0
   -6.3302    2.8616   -4.0561 F   0  0  0  0  0  0  0  0  0  0  0  0
  1  2  1  0  0  0  0
  1 11  2  0  0  0  0
  2  3  1  0  0  0  0
  4  1  1  0  0  0  0
  5  4  2  0  0  0  0
  5  6  1  0  0  0  0
  6 10  2  0  0  0  0
  7  6  1  0  0  0  0
  7  9  2  0  0  0  0
  8  7  2  0  0  0  0
 10 14  1  0  0  0  0
 10 11  1  0  0  0  0
 11 15  1  0  0  0  0
 13  5  1  0  0  0  0
 16 19  2  0  0  0  0
 16 18  2  0  0  0  0
 16 20  1  0  0  0  0
 17 16  1  0  0  0  0
 20 12  1  0  0  0  0
 21 17  1  0  0  0  0
 22 17  1  0  0  0  0
 23 17  1  0  0  0  0
M  RAD  3   2   2   3   3   4   2
M  END
