Coordinates from ORCA-job 4-NO2PhN2+~TfO-_B3LYPG-6-31G_dp-CH-Scan-d09-49-n800
 OpenBabel11261919533D

 23 22  0  0  0  0  0  0  0  0999 V2000
   -1.5527   -0.6701   -0.1230 C   0  0  0  0  0  0  0  0  0  0  0  0
   -2.8682   -1.1375    0.0394 N   0  0  0  0  0  0  0  0  0  0  0  0
   -3.9340   -1.4478    0.1568 N   0  0  0  0  0  0  0  0  0  0  0  0
   -1.5031    0.6754   -0.4947 C   0  0  0  0  0  0  0  0  0  0  0  0
   -0.1418    1.0812   -0.6359 C   0  0  0  0  0  0  0  0  0  0  0  0
    0.9152    0.2095   -0.4210 C   0  0  0  0  0  0  0  0  0  0  0  0
    2.3087    0.7013   -0.5887 N   0  0  0  0  0  0  0  0  0  0  0  0
    2.4640    1.8733   -0.9177 O   0  0  0  0  0  0  0  0  0  0  0  0
    3.2205   -0.1004   -0.3867 O   0  0  0  0  0  0  0  0  0  0  0  0
    0.7590   -1.1425   -0.0446 C   0  0  0  0  0  0  0  0  0  0  0  0
   -0.5217   -1.6179    0.1158 C   0  0  0  0  0  0  0  0  0  0  0  0
   -4.5337    2.7179   -1.1807 H   0  0  0  0  0  0  0  0  0  0  0  0
    0.1015    2.1005   -0.9217 H   0  0  0  0  0  0  0  0  0  0  0  0
    1.6320   -1.7624    0.1079 H   0  0  0  0  0  0  0  0  0  0  0  0
   -0.7220   -2.6451    0.4064 H   0  0  0  0  0  0  0  0  0  0  0  0
   -6.2439    1.5893   -1.8215 S   0  0  0  0  0  0  0  0  0  0  0  0
   -6.0384    1.6638   -3.6745 C   0  0  0  0  0  0  0  0  0  0  0  0
   -5.4931    0.4307   -1.3545 O   0  0  0  0  0  0  0  0  0  0  0  0
   -7.6449    1.7999   -1.5255 O   0  0  0  0  0  0  0  0  0  0  0  0
   -5.4509    2.9450   -1.4168 O   0  0  0  0  0  0  0  0  0  0  0  0
   -4.7380    1.6959   -3.9681 F   0  0  0  0  0  0  0  0  0  0  0  0
   -6.5915    0.5734   -4.2013 F   0  0  0  0  0  0  0  0  0  0  0  0
   -6.6352    2.7501   -4.1523 F   0  0  0  0  0  0  0  0  0  0  0  0
  1  2  1  0  0  0  0
  1 11  2  0  0  0  0
  2  3  1  0  0  0  0
  4  1  1  0  0  0  0
  5  4  2  0  0  0  0
  5  6  1  0  0  0  0
  6 10  2  0  0  0  0
  7  6  1  0  0  0  0
  7  9  2  0  0  0  0
  8  7  2  0  0  0  0
 10 14  1  0  0  0  0
 10 11  1  0  0  0  0
 11 15  1  0  0  0  0
 13  5  1  0  0  0  0
 16 19  2  0  0  0  0
 16 20  1  0  0  0  0
 16 18  2  0  0  0  0
 17 16  1  0  0  0  0
 20 12  1  0  0  0  0
 21 17  1  0  0  0  0
 22 17  1  0  0  0  0
 23 17  1  0  0  0  0
M  RAD  3   2   2   3   3   4   2
M  END
