Coordinates from ORCA-job 4-NO2PhN2+~TfO-_B3LYPG-6-31G_dp-CH-Scan-d09-49-n800
 OpenBabel11261919533D

 23 22  0  0  0  0  0  0  0  0999 V2000
   -1.5501   -0.6697   -0.1217 C   0  0  0  0  0  0  0  0  0  0  0  0
   -2.8660   -1.1359    0.0413 N   0  0  0  0  0  0  0  0  0  0  0  0
   -3.9322   -1.4466    0.1554 N   0  0  0  0  0  0  0  0  0  0  0  0
   -1.4997    0.6758   -0.4933 C   0  0  0  0  0  0  0  0  0  0  0  0
   -0.1381    1.0806   -0.6346 C   0  0  0  0  0  0  0  0  0  0  0  0
    0.9183    0.2080   -0.4202 C   0  0  0  0  0  0  0  0  0  0  0  0
    2.3121    0.6986   -0.5882 N   0  0  0  0  0  0  0  0  0  0  0  0
    2.4682    1.8703   -0.9183 O   0  0  0  0  0  0  0  0  0  0  0  0
    3.2233   -0.1041   -0.3878 O   0  0  0  0  0  0  0  0  0  0  0  0
    0.7611   -1.1440   -0.0440 C   0  0  0  0  0  0  0  0  0  0  0  0
   -0.5199   -1.6184    0.1168 C   0  0  0  0  0  0  0  0  0  0  0  0
   -4.5437    2.7256   -1.1802 H   0  0  0  0  0  0  0  0  0  0  0  0
    0.1060    2.0998   -0.9201 H   0  0  0  0  0  0  0  0  0  0  0  0
    1.6336   -1.7645    0.1081 H   0  0  0  0  0  0  0  0  0  0  0  0
   -0.7208   -2.6456    0.4074 H   0  0  0  0  0  0  0  0  0  0  0  0
   -6.2487    1.5896   -1.8228 S   0  0  0  0  0  0  0  0  0  0  0  0
   -6.0404    1.6645   -3.6756 C   0  0  0  0  0  0  0  0  0  0  0  0
   -5.4935    0.4348   -1.3541 O   0  0  0  0  0  0  0  0  0  0  0  0
   -7.6510    1.7944   -1.5292 O   0  0  0  0  0  0  0  0  0  0  0  0
   -5.4618    2.9488   -1.4173 O   0  0  0  0  0  0  0  0  0  0  0  0
   -4.7396    1.7014   -3.9670 F   0  0  0  0  0  0  0  0  0  0  0  0
   -6.5886    0.5719   -4.2031 F   0  0  0  0  0  0  0  0  0  0  0  0
   -6.6405    2.7484   -4.1545 F   0  0  0  0  0  0  0  0  0  0  0  0
  1  2  1  0  0  0  0
  1 11  2  0  0  0  0
  2  3  1  0  0  0  0
  4  1  1  0  0  0  0
  5  4  2  0  0  0  0
  5  6  1  0  0  0  0
  6 10  2  0  0  0  0
  7  6  1  0  0  0  0
  7  9  2  0  0  0  0
  8  7  2  0  0  0  0
 10 14  1  0  0  0  0
 10 11  1  0  0  0  0
 11 15  1  0  0  0  0
 13  5  1  0  0  0  0
 16 19  2  0  0  0  0
 16 20  1  0  0  0  0
 16 18  2  0  0  0  0
 17 16  1  0  0  0  0
 20 12  1  0  0  0  0
 21 17  1  0  0  0  0
 22 17  1  0  0  0  0
 23 17  1  0  0  0  0
M  RAD  3   2   2   3   3   4   2
M  END
