Coordinates from ORCA-job 4-NO2PhN2+~TfO-_B3LYPG-6-31G_dp-CH-Scan-d09-49-n800
 OpenBabel11261919523D

 23 22  0  0  0  0  0  0  0  0999 V2000
   -1.9095   -0.6580   -0.1071 C   0  0  0  0  0  0  0  0  0  0  0  0
   -3.1574   -1.2261    0.1661 N   0  0  0  0  0  0  0  0  0  0  0  0
   -4.1713   -1.6409    0.3703 N   0  0  0  0  0  0  0  0  0  0  0  0
   -1.9618    0.6570   -0.5886 C   0  0  0  0  0  0  0  0  0  0  0  0
   -0.6545    1.1553   -0.8340 C   0  0  0  0  0  0  0  0  0  0  0  0
    0.4778    0.3872   -0.6036 C   0  0  0  0  0  0  0  0  0  0  0  0
    1.8174    0.9711   -0.8812 N   0  0  0  0  0  0  0  0  0  0  0  0
    1.8576    2.1207   -1.3066 O   0  0  0  0  0  0  0  0  0  0  0  0
    2.7970    0.2598   -0.6651 O   0  0  0  0  0  0  0  0  0  0  0  0
    0.4439   -0.9335   -0.1154 C   0  0  0  0  0  0  0  0  0  0  0  0
   -0.7877   -1.4895    0.1475 C   0  0  0  0  0  0  0  0  0  0  0  0
   -3.7181    1.7938   -0.9410 H   0  0  0  0  0  0  0  0  0  0  0  0
   -0.5132    2.1623   -1.2124 H   0  0  0  0  0  0  0  0  0  0  0  0
    1.3677   -1.4739    0.0410 H   0  0  0  0  0  0  0  0  0  0  0  0
   -0.8897   -2.5018    0.5252 H   0  0  0  0  0  0  0  0  0  0  0  0
   -5.7136    1.4339   -1.6969 S   0  0  0  0  0  0  0  0  0  0  0  0
   -5.4298    1.6763   -3.5214 C   0  0  0  0  0  0  0  0  0  0  0  0
   -5.4460    0.0213   -1.4272 O   0  0  0  0  0  0  0  0  0  0  0  0
   -6.9870    2.0485   -1.3759 O   0  0  0  0  0  0  0  0  0  0  0  0
   -4.5463    2.3416   -1.1063 O   0  0  0  0  0  0  0  0  0  0  0  0
   -4.1932    1.2791   -3.8353 F   0  0  0  0  0  0  0  0  0  0  0  0
   -6.3154    0.9405   -4.1938 F   0  0  0  0  0  0  0  0  0  0  0  0
   -5.5791    2.9589   -3.8411 F   0  0  0  0  0  0  0  0  0  0  0  0
  1 11  1  0  0  0  0
  1  2  1  0  0  0  0
  2  3  1  0  0  0  0
  4  1  2  0  0  0  0
  5  6  2  0  0  0  0
  5  4  1  0  0  0  0
  6 10  1  0  0  0  0
  7  9  2  0  0  0  0
  7  6  1  0  0  0  0
  8  7  2  0  0  0  0
 10 14  1  0  0  0  0
 10 11  2  0  0  0  0
 11 15  1  0  0  0  0
 13  5  1  0  0  0  0
 16 18  2  0  0  0  0
 16 19  2  0  0  0  0
 16 20  1  0  0  0  0
 17 16  1  0  0  0  0
 20 12  1  0  0  0  0
 21 17  1  0  0  0  0
 22 17  1  0  0  0  0
 23 17  1  0  0  0  0
M  RAD  3   2   2   3   3   4   2
M  END
