Coordinates from ORCA-job 4-NO2PhN2+~TfO-_B3LYPG-6-31G_dp-CH-Scan-d09-49-n800
 OpenBabel11261919523D

 23 22  0  0  0  0  0  0  0  0999 V2000
   -1.8888   -0.6588   -0.1075 C   0  0  0  0  0  0  0  0  0  0  0  0
   -3.1405   -1.2216    0.1605 N   0  0  0  0  0  0  0  0  0  0  0  0
   -4.1570   -1.6323    0.3613 N   0  0  0  0  0  0  0  0  0  0  0  0
   -1.9362    0.6576   -0.5848 C   0  0  0  0  0  0  0  0  0  0  0  0
   -0.6256    1.1513   -0.8250 C   0  0  0  0  0  0  0  0  0  0  0  0
    0.5030    0.3780   -0.5939 C   0  0  0  0  0  0  0  0  0  0  0  0
    1.8458    0.9574   -0.8656 N   0  0  0  0  0  0  0  0  0  0  0  0
    1.8922    2.1082   -1.2872 O   0  0  0  0  0  0  0  0  0  0  0  0
    2.8221    0.2415   -0.6492 O   0  0  0  0  0  0  0  0  0  0  0  0
    0.4628   -0.9445   -0.1100 C   0  0  0  0  0  0  0  0  0  0  0  0
   -0.7715   -1.4965    0.1477 C   0  0  0  0  0  0  0  0  0  0  0  0
   -3.7630    1.8398   -0.9518 H   0  0  0  0  0  0  0  0  0  0  0  0
   -0.4786    2.1590   -1.1997 H   0  0  0  0  0  0  0  0  0  0  0  0
    1.3842   -1.4887    0.0471 H   0  0  0  0  0  0  0  0  0  0  0  0
   -0.8786   -2.5096    0.5220 H   0  0  0  0  0  0  0  0  0  0  0  0
   -5.7472    1.4402   -1.7056 S   0  0  0  0  0  0  0  0  0  0  0  0
   -5.4643    1.6775   -3.5312 C   0  0  0  0  0  0  0  0  0  0  0  0
   -5.4564    0.0348   -1.4256 O   0  0  0  0  0  0  0  0  0  0  0  0
   -7.0284    2.0396   -1.3880 O   0  0  0  0  0  0  0  0  0  0  0  0
   -4.5935    2.3726   -1.1186 O   0  0  0  0  0  0  0  0  0  0  0  0
   -4.2236    1.2921   -3.8417 F   0  0  0  0  0  0  0  0  0  0  0  0
   -6.3418    0.9290   -4.1998 F   0  0  0  0  0  0  0  0  0  0  0  0
   -5.6275    2.9569   -3.8563 F   0  0  0  0  0  0  0  0  0  0  0  0
  1 11  1  0  0  0  0
  1  2  1  0  0  0  0
  2  3  1  0  0  0  0
  4  1  2  0  0  0  0
  5  6  2  0  0  0  0
  5  4  1  0  0  0  0
  6 10  1  0  0  0  0
  7  9  2  0  0  0  0
  7  6  1  0  0  0  0
  8  7  2  0  0  0  0
 10 14  1  0  0  0  0
 10 11  2  0  0  0  0
 11 15  1  0  0  0  0
 13  5  1  0  0  0  0
 16 18  2  0  0  0  0
 16 19  2  0  0  0  0
 16 20  1  0  0  0  0
 17 16  1  0  0  0  0
 20 12  1  0  0  0  0
 21 17  1  0  0  0  0
 22 17  1  0  0  0  0
 23 17  1  0  0  0  0
M  RAD  3   2   2   3   3   4   2
M  END
