Coordinates from ORCA-job 4-NO2PhN2+~TfO-_B3LYPG-6-31G_dp-CH-Scan-d09-49-n800
 OpenBabel11261919523D

 23 22  0  0  0  0  0  0  0  0999 V2000
   -1.7479   -0.6595   -0.0989 C   0  0  0  0  0  0  0  0  0  0  0  0
   -3.0269   -1.1807    0.1394 N   0  0  0  0  0  0  0  0  0  0  0  0
   -4.0640   -1.5492    0.3200 N   0  0  0  0  0  0  0  0  0  0  0  0
   -1.7575    0.6719   -0.5290 C   0  0  0  0  0  0  0  0  0  0  0  0
   -0.4242    1.1258   -0.7425 C   0  0  0  0  0  0  0  0  0  0  0  0
    0.6753    0.3066   -0.5318 C   0  0  0  0  0  0  0  0  0  0  0  0
    2.0397    0.8466   -0.7751 N   0  0  0  0  0  0  0  0  0  0  0  0
    2.1316    2.0085   -1.1583 O   0  0  0  0  0  0  0  0  0  0  0  0
    2.9899    0.0908   -0.5761 O   0  0  0  0  0  0  0  0  0  0  0  0
    0.5877   -1.0314   -0.0939 C   0  0  0  0  0  0  0  0  0  0  0  0
   -0.6659   -1.5494    0.1364 C   0  0  0  0  0  0  0  0  0  0  0  0
   -4.1087    2.2155   -1.0044 H   0  0  0  0  0  0  0  0  0  0  0  0
   -0.2362    2.1400   -1.0809 H   0  0  0  0  0  0  0  0  0  0  0  0
    1.4896   -1.6106    0.0501 H   0  0  0  0  0  0  0  0  0  0  0  0
   -0.8113   -2.5704    0.4760 H   0  0  0  0  0  0  0  0  0  0  0  0
   -5.9817    1.4876   -1.7652 S   0  0  0  0  0  0  0  0  0  0  0  0
   -5.6769    1.6800   -3.5947 C   0  0  0  0  0  0  0  0  0  0  0  0
   -5.4955    0.1622   -1.3961 O   0  0  0  0  0  0  0  0  0  0  0  0
   -7.3345    1.9297   -1.4986 O   0  0  0  0  0  0  0  0  0  0  0  0
   -4.9791    2.6182   -1.2034 O   0  0  0  0  0  0  0  0  0  0  0  0
   -4.3808    1.4891   -3.8469 F   0  0  0  0  0  0  0  0  0  0  0  0
   -6.3983    0.7650   -4.2406 F   0  0  0  0  0  0  0  0  0  0  0  0
   -6.0365    2.8973   -3.9883 F   0  0  0  0  0  0  0  0  0  0  0  0
  1 11  1  0  0  0  0
  1  2  1  0  0  0  0
  2  3  1  0  0  0  0
  4  1  2  0  0  0  0
  5  6  2  0  0  0  0
  5  4  1  0  0  0  0
  6 10  1  0  0  0  0
  7  9  2  0  0  0  0
  7  6  1  0  0  0  0
  8  7  2  0  0  0  0
 10 14  1  0  0  0  0
 10 11  2  0  0  0  0
 11 15  1  0  0  0  0
 13  5  1  0  0  0  0
 16 19  2  0  0  0  0
 16 18  2  0  0  0  0
 16 20  1  0  0  0  0
 17 16  1  0  0  0  0
 20 12  1  0  0  0  0
 21 17  1  0  0  0  0
 22 17  1  0  0  0  0
 23 17  1  0  0  0  0
M  RAD  3   2   2   3   3   4   2
M  END
