Coordinates from ORCA-job 4-NO2PhN2+~TfO-_B3LYPG-6-31G_dp-CH-Scan-d09-49-n800
 OpenBabel11261919533D

 23 22  0  0  0  0  0  0  0  0999 V2000
   -1.5617   -0.6709   -0.1234 C   0  0  0  0  0  0  0  0  0  0  0  0
   -2.8755   -1.1420    0.0411 N   0  0  0  0  0  0  0  0  0  0  0  0
   -3.9399   -1.4563    0.1600 N   0  0  0  0  0  0  0  0  0  0  0  0
   -1.5155    0.6739   -0.4984 C   0  0  0  0  0  0  0  0  0  0  0  0
   -0.1555    1.0830   -0.6414 C   0  0  0  0  0  0  0  0  0  0  0  0
    0.9040    0.2147   -0.4247 C   0  0  0  0  0  0  0  0  0  0  0  0
    2.2961    0.7098   -0.5944 N   0  0  0  0  0  0  0  0  0  0  0  0
    2.4479    1.8815   -0.9263 O   0  0  0  0  0  0  0  0  0  0  0  0
    3.2101   -0.0889   -0.3909 O   0  0  0  0  0  0  0  0  0  0  0  0
    0.7515   -1.1368   -0.0450 C   0  0  0  0  0  0  0  0  0  0  0  0
   -0.5279   -1.6151    0.1172 C   0  0  0  0  0  0  0  0  0  0  0  0
   -4.5041    2.6903   -1.1763 H   0  0  0  0  0  0  0  0  0  0  0  0
    0.0849    2.1022   -0.9298 H   0  0  0  0  0  0  0  0  0  0  0  0
    1.6262   -1.7540    0.1086 H   0  0  0  0  0  0  0  0  0  0  0  0
   -0.7252   -2.6422    0.4103 H   0  0  0  0  0  0  0  0  0  0  0  0
   -6.2296    1.5860   -1.8184 S   0  0  0  0  0  0  0  0  0  0  0  0
   -6.0268    1.6649   -3.6715 C   0  0  0  0  0  0  0  0  0  0  0  0
   -5.4929    0.4158   -1.3576 O   0  0  0  0  0  0  0  0  0  0  0  0
   -7.6273    1.8129   -1.5188 O   0  0  0  0  0  0  0  0  0  0  0  0
   -5.4189    2.9297   -1.4100 O   0  0  0  0  0  0  0  0  0  0  0  0
   -4.7267    1.6837   -3.9675 F   0  0  0  0  0  0  0  0  0  0  0  0
   -6.5927    0.5823   -4.2010 F   0  0  0  0  0  0  0  0  0  0  0  0
   -6.6127    2.7591   -4.1444 F   0  0  0  0  0  0  0  0  0  0  0  0
  1  2  1  0  0  0  0
  1 11  2  0  0  0  0
  2  3  1  0  0  0  0
  4  1  1  0  0  0  0
  5  4  2  0  0  0  0
  5  6  1  0  0  0  0
  6 10  2  0  0  0  0
  7  6  1  0  0  0  0
  7  9  2  0  0  0  0
  8  7  2  0  0  0  0
 10 14  1  0  0  0  0
 10 11  1  0  0  0  0
 11 15  1  0  0  0  0
 13  5  1  0  0  0  0
 16 19  2  0  0  0  0
 16 20  1  0  0  0  0
 16 18  2  0  0  0  0
 17 16  1  0  0  0  0
 20 12  1  0  0  0  0
 21 17  1  0  0  0  0
 22 17  1  0  0  0  0
 23 17  1  0  0  0  0
M  RAD  3   2   2   3   3   4   2
M  END
