Coordinates from ORCA-job 4-NO2PhN2+~TfO-_B3LYPG-6-31G_dp-CH-Scan-d09-49-n800
 OpenBabel11261919533D

 23 22  0  0  0  0  0  0  0  0999 V2000
   -1.5259   -0.6097   -0.0215 C   0  0  0  0  0  0  0  0  0  0  0  0
   -2.8519   -1.0164    0.2146 N   0  0  0  0  0  0  0  0  0  0  0  0
   -3.9244   -1.2681    0.3960 N   0  0  0  0  0  0  0  0  0  0  0  0
   -1.4388    0.7452   -0.3445 C   0  0  0  0  0  0  0  0  0  0  0  0
   -0.0713    1.0943   -0.5632 C   0  0  0  0  0  0  0  0  0  0  0  0
    0.9539    0.1666   -0.4561 C   0  0  0  0  0  0  0  0  0  0  0  0
    2.3553    0.5998   -0.7008 N   0  0  0  0  0  0  0  0  0  0  0  0
    2.5447    1.7733   -1.0062 O   0  0  0  0  0  0  0  0  0  0  0  0
    3.2398   -0.2477   -0.5808 O   0  0  0  0  0  0  0  0  0  0  0  0
    0.7581   -1.1915   -0.1206 C   0  0  0  0  0  0  0  0  0  0  0  0
   -0.5303   -1.6140    0.1108 C   0  0  0  0  0  0  0  0  0  0  0  0
   -4.9519    2.9261   -1.0463 H   0  0  0  0  0  0  0  0  0  0  0  0
    0.2015    2.1128   -0.8248 H   0  0  0  0  0  0  0  0  0  0  0  0
    1.6087   -1.8559   -0.0522 H   0  0  0  0  0  0  0  0  0  0  0  0
   -0.7602   -2.6418    0.3771 H   0  0  0  0  0  0  0  0  0  0  0  0
   -6.3408    1.5158   -1.8831 S   0  0  0  0  0  0  0  0  0  0  0  0
   -5.9194    1.6881   -3.6925 C   0  0  0  0  0  0  0  0  0  0  0  0
   -5.4550    0.4994   -1.3308 O   0  0  0  0  0  0  0  0  0  0  0  0
   -7.7825    1.4627   -1.7694 O   0  0  0  0  0  0  0  0  0  0  0  0
   -5.8699    2.9811   -1.3654 O   0  0  0  0  0  0  0  0  0  0  0  0
   -4.6220    1.9736   -3.8121 F   0  0  0  0  0  0  0  0  0  0  0  0
   -6.1831    0.5316   -4.2965 F   0  0  0  0  0  0  0  0  0  0  0  0
   -6.6466    2.6583   -4.2344 F   0  0  0  0  0  0  0  0  0  0  0  0
  1 11  1  0  0  0  0
  1  2  1  0  0  0  0
  2  3  1  0  0  0  0
  4  1  2  0  0  0  0
  5  6  2  0  0  0  0
  5  4  1  0  0  0  0
  6 10  1  0  0  0  0
  7  9  2  0  0  0  0
  7  6  1  0  0  0  0
  8  7  2  0  0  0  0
 10 14  1  0  0  0  0
 10 11  2  0  0  0  0
 11 15  1  0  0  0  0
 13  5  1  0  0  0  0
 16 19  2  0  0  0  0
 16 20  1  0  0  0  0
 16 18  2  0  0  0  0
 17 16  1  0  0  0  0
 20 12  1  0  0  0  0
 21 17  1  0  0  0  0
 22 17  1  0  0  0  0
 23 17  1  0  0  0  0
M  RAD  3   2   2   3   3   4   2
M  END
