Coordinates from ORCA-job 4-NO2PhN2+~TfO-_B3LYPG-6-31G_dp-CH-Scan-d09-49-n800
 OpenBabel11261919523D

 23 22  0  0  0  0  0  0  0  0999 V2000
   -1.8066   -0.6567   -0.0969 C   0  0  0  0  0  0  0  0  0  0  0  0
   -3.0742   -1.1935    0.1597 N   0  0  0  0  0  0  0  0  0  0  0  0
   -4.1031   -1.5777    0.3532 N   0  0  0  0  0  0  0  0  0  0  0  0
   -1.8325    0.6706   -0.5417 C   0  0  0  0  0  0  0  0  0  0  0  0
   -0.5080    1.1382   -0.7726 C   0  0  0  0  0  0  0  0  0  0  0  0
    0.6031    0.3344   -0.5632 C   0  0  0  0  0  0  0  0  0  0  0  0
    1.9586    0.8883   -0.8248 N   0  0  0  0  0  0  0  0  0  0  0  0
    2.0323    2.0474   -1.2196 O   0  0  0  0  0  0  0  0  0  0  0  0
    2.9192    0.1455   -0.6279 O   0  0  0  0  0  0  0  0  0  0  0  0
    0.5349   -0.9992   -0.1105 C   0  0  0  0  0  0  0  0  0  0  0  0
   -0.7106   -1.5293    0.1370 C   0  0  0  0  0  0  0  0  0  0  0  0
   -3.9896    2.0817   -0.9649 H   0  0  0  0  0  0  0  0  0  0  0  0
   -0.3361    2.1509   -1.1236 H   0  0  0  0  0  0  0  0  0  0  0  0
    1.4446   -1.5668    0.0311 H   0  0  0  0  0  0  0  0  0  0  0  0
   -0.8403   -2.5483    0.4882 H   0  0  0  0  0  0  0  0  0  0  0  0
   -5.8985    1.4672   -1.7429 S   0  0  0  0  0  0  0  0  0  0  0  0
   -5.5681    1.6751   -3.5657 C   0  0  0  0  0  0  0  0  0  0  0  0
   -5.4888    0.1089   -1.3990 O   0  0  0  0  0  0  0  0  0  0  0  0
   -7.2311    1.9708   -1.4807 O   0  0  0  0  0  0  0  0  0  0  0  0
   -4.8469    2.5287   -1.1499 O   0  0  0  0  0  0  0  0  0  0  0  0
   -4.2797    1.4268   -3.8104 F   0  0  0  0  0  0  0  0  0  0  0  0
   -6.3253    0.8063   -4.2345 F   0  0  0  0  0  0  0  0  0  0  0  0
   -5.8652    2.9144   -3.9433 F   0  0  0  0  0  0  0  0  0  0  0  0
  1 11  1  0  0  0  0
  1  2  1  0  0  0  0
  2  3  1  0  0  0  0
  4  1  2  0  0  0  0
  5  6  2  0  0  0  0
  5  4  1  0  0  0  0
  6 10  1  0  0  0  0
  7  9  2  0  0  0  0
  7  6  1  0  0  0  0
  8  7  2  0  0  0  0
 10 14  1  0  0  0  0
 10 11  2  0  0  0  0
 11 15  1  0  0  0  0
 13  5  1  0  0  0  0
 16 19  2  0  0  0  0
 16 18  2  0  0  0  0
 16 20  1  0  0  0  0
 17 16  1  0  0  0  0
 20 12  1  0  0  0  0
 21 17  1  0  0  0  0
 22 17  1  0  0  0  0
 23 17  1  0  0  0  0
M  RAD  3   2   2   3   3   4   2
M  END
