Coordinates from ORCA-job 4-NO2PhN2+~TfO-_B3LYPG-6-31G_dp-CH-Scan-d09-49-n800
 OpenBabel11261919523D

 23 22  0  0  0  0  0  0  0  0999 V2000
   -2.1761   -0.2648    0.0691 C   0  0  0  0  0  0  0  0  0  0  0  0
   -3.4431   -0.5744    0.5613 N   0  0  0  0  0  0  0  0  0  0  0  0
   -4.5631   -0.4976    0.6899 N   0  0  0  0  0  0  0  0  0  0  0  0
   -2.0495    0.8392   -0.7880 C   0  0  0  0  0  0  0  0  0  0  0  0
   -0.7732    1.1258   -1.2609 C   0  0  0  0  0  0  0  0  0  0  0  0
    0.2946    0.3189   -0.8748 C   0  0  0  0  0  0  0  0  0  0  0  0
    1.6484    0.6408   -1.3911 N   0  0  0  0  0  0  0  0  0  0  0  0
    1.7474    1.6135   -2.1301 O   0  0  0  0  0  0  0  0  0  0  0  0
    2.5682   -0.0898   -1.0357 O   0  0  0  0  0  0  0  0  0  0  0  0
    0.1576   -0.7774   -0.0237 C   0  0  0  0  0  0  0  0  0  0  0  0
   -1.1070   -1.0782    0.4644 C   0  0  0  0  0  0  0  0  0  0  0  0
   -2.7700    1.3372   -1.0157 H   0  0  0  0  0  0  0  0  0  0  0  0
   -0.6043    1.9603   -1.9301 H   0  0  0  0  0  0  0  0  0  0  0  0
    1.0270   -1.3659    0.2385 H   0  0  0  0  0  0  0  0  0  0  0  0
   -1.2725   -1.9202    1.1267 H   0  0  0  0  0  0  0  0  0  0  0  0
   -5.4450    0.5646   -1.9565 S   0  0  0  0  0  0  0  0  0  0  0  0
   -5.0857    2.0927   -2.9619 C   0  0  0  0  0  0  0  0  0  0  0  0
   -4.3427   -0.3666   -2.2860 O   0  0  0  0  0  0  0  0  0  0  0  0
   -6.8085    0.1802   -2.3145 O   0  0  0  0  0  0  0  0  0  0  0  0
   -5.2755    1.1196   -0.5452 O   0  0  0  0  0  0  0  0  0  0  0  0
   -3.8408    2.5525   -2.6859 F   0  0  0  0  0  0  0  0  0  0  0  0
   -5.1407    1.8097   -4.2654 F   0  0  0  0  0  0  0  0  0  0  0  0
   -5.9576    3.0637   -2.6874 F   0  0  0  0  0  0  0  0  0  0  0  0
  1 11  1  0  0  0  0
  1  2  1  0  0  0  0
  2  3  1  0  0  0  0
  4  1  2  0  0  0  0
  5  6  2  0  0  0  0
  5  4  1  0  0  0  0
  6 10  1  0  0  0  0
  7  9  2  0  0  0  0
  7  6  1  0  0  0  0
  8  7  2  0  0  0  0
 10 14  1  0  0  0  0
 10 11  2  0  0  0  0
 11 15  1  0  0  0  0
 12  4  1  0  0  0  0
 13  5  1  0  0  0  0
 16 20  1  0  0  0  0
 17 23  1  0  0  0  0
 17 21  1  0  0  0  0
 17 16  1  0  0  0  0
 18 16  2  0  0  0  0
 19 16  2  0  0  0  0
 22 17  1  0  0  0  0
M  RAD  3   2   2   3   3  20   2
M  END
