Coordinates from ORCA-job 4-NO2PhN2+~TfO-_B3LYPG-6-31G_dp-CH-Scan-d09-49-n800
 OpenBabel11261919533D

 23 22  0  0  0  0  0  0  0  0999 V2000
   -1.5587   -0.6711   -0.1238 C   0  0  0  0  0  0  0  0  0  0  0  0
   -2.8729   -1.1415    0.0397 N   0  0  0  0  0  0  0  0  0  0  0  0
   -3.9380   -1.4530    0.1603 N   0  0  0  0  0  0  0  0  0  0  0  0
   -1.5116    0.6741   -0.4973 C   0  0  0  0  0  0  0  0  0  0  0  0
   -0.1512    1.0824   -0.6393 C   0  0  0  0  0  0  0  0  0  0  0  0
    0.9076    0.2131   -0.4232 C   0  0  0  0  0  0  0  0  0  0  0  0
    2.3001    0.7075   -0.5917 N   0  0  0  0  0  0  0  0  0  0  0  0
    2.4529    1.8793   -0.9226 O   0  0  0  0  0  0  0  0  0  0  0  0
    3.2135   -0.0922   -0.3891 O   0  0  0  0  0  0  0  0  0  0  0  0
    0.7541   -1.1386   -0.0450 C   0  0  0  0  0  0  0  0  0  0  0  0
   -0.5257   -1.6163    0.1162 C   0  0  0  0  0  0  0  0  0  0  0  0
   -4.5124    2.6988   -1.1785 H   0  0  0  0  0  0  0  0  0  0  0  0
    0.0900    2.1018   -0.9265 H   0  0  0  0  0  0  0  0  0  0  0  0
    1.6283   -1.7566    0.1082 H   0  0  0  0  0  0  0  0  0  0  0  0
   -0.7237   -2.6436    0.4082 H   0  0  0  0  0  0  0  0  0  0  0  0
   -6.2341    1.5875   -1.8194 S   0  0  0  0  0  0  0  0  0  0  0  0
   -6.0313    1.6643   -3.6726 C   0  0  0  0  0  0  0  0  0  0  0  0
   -5.4933    0.4209   -1.3566 O   0  0  0  0  0  0  0  0  0  0  0  0
   -7.6326    1.8101   -1.5204 O   0  0  0  0  0  0  0  0  0  0  0  0
   -5.4279    2.9347   -1.4130 O   0  0  0  0  0  0  0  0  0  0  0  0
   -4.7312    1.6865   -3.9685 F   0  0  0  0  0  0  0  0  0  0  0  0
   -6.5939    0.5793   -4.2007 F   0  0  0  0  0  0  0  0  0  0  0  0
   -6.6203    2.7562   -4.1472 F   0  0  0  0  0  0  0  0  0  0  0  0
  1  2  1  0  0  0  0
  1 11  2  0  0  0  0
  2  3  1  0  0  0  0
  4  1  1  0  0  0  0
  5  4  2  0  0  0  0
  5  6  1  0  0  0  0
  6 10  2  0  0  0  0
  7  6  1  0  0  0  0
  7  9  2  0  0  0  0
  8  7  2  0  0  0  0
 10 14  1  0  0  0  0
 10 11  1  0  0  0  0
 11 15  1  0  0  0  0
 13  5  1  0  0  0  0
 16 19  2  0  0  0  0
 16 20  1  0  0  0  0
 16 18  2  0  0  0  0
 17 16  1  0  0  0  0
 20 12  1  0  0  0  0
 21 17  1  0  0  0  0
 22 17  1  0  0  0  0
 23 17  1  0  0  0  0
M  RAD  3   2   2   3   3   4   2
M  END
