Coordinates from ORCA-job 4-NO2PhN2+~TfO-_B3LYPG-6-31G_dp-CH-Scan-d09-49-n800
 OpenBabel11261919523D

 23 22  0  0  0  0  0  0  0  0999 V2000
   -1.8683   -0.6598   -0.1083 C   0  0  0  0  0  0  0  0  0  0  0  0
   -3.1237   -1.2180    0.1543 N   0  0  0  0  0  0  0  0  0  0  0  0
   -4.1429   -1.6242    0.3511 N   0  0  0  0  0  0  0  0  0  0  0  0
   -1.9111    0.6584   -0.5806 C   0  0  0  0  0  0  0  0  0  0  0  0
   -0.5970    1.1474   -0.8152 C   0  0  0  0  0  0  0  0  0  0  0  0
    0.5279    0.3689   -0.5841 C   0  0  0  0  0  0  0  0  0  0  0  0
    1.8738    0.9438   -0.8500 N   0  0  0  0  0  0  0  0  0  0  0  0
    1.9263    2.0961   -1.2669 O   0  0  0  0  0  0  0  0  0  0  0  0
    2.8467    0.2232   -0.6337 O   0  0  0  0  0  0  0  0  0  0  0  0
    0.4815   -0.9555   -0.1052 C   0  0  0  0  0  0  0  0  0  0  0  0
   -0.7555   -1.5038    0.1471 C   0  0  0  0  0  0  0  0  0  0  0  0
   -3.8071    1.8877   -0.9629 H   0  0  0  0  0  0  0  0  0  0  0  0
   -0.4443    2.1558   -1.1858 H   0  0  0  0  0  0  0  0  0  0  0  0
    1.4005   -1.5037    0.0522 H   0  0  0  0  0  0  0  0  0  0  0  0
   -0.8676   -2.5179    0.5174 H   0  0  0  0  0  0  0  0  0  0  0  0
   -5.7807    1.4477   -1.7136 S   0  0  0  0  0  0  0  0  0  0  0  0
   -5.4982    1.6776   -3.5406 C   0  0  0  0  0  0  0  0  0  0  0  0
   -5.4662    0.0505   -1.4214 O   0  0  0  0  0  0  0  0  0  0  0  0
   -7.0696    2.0318   -1.4003 O   0  0  0  0  0  0  0  0  0  0  0  0
   -4.6408    2.4054   -1.1316 O   0  0  0  0  0  0  0  0  0  0  0  0
   -4.2528    1.3051   -3.8468 F   0  0  0  0  0  0  0  0  0  0  0  0
   -6.3663    0.9144   -4.2047 F   0  0  0  0  0  0  0  0  0  0  0  0
   -5.6765    2.9528   -3.8730 F   0  0  0  0  0  0  0  0  0  0  0  0
  1 11  1  0  0  0  0
  1  2  1  0  0  0  0
  2  3  1  0  0  0  0
  4  1  2  0  0  0  0
  5  6  2  0  0  0  0
  5  4  1  0  0  0  0
  6 10  1  0  0  0  0
  7  9  2  0  0  0  0
  7  6  1  0  0  0  0
  8  7  2  0  0  0  0
 10 14  1  0  0  0  0
 10 11  2  0  0  0  0
 11 15  1  0  0  0  0
 13  5  1  0  0  0  0
 16 18  2  0  0  0  0
 16 19  2  0  0  0  0
 16 20  1  0  0  0  0
 17 16  1  0  0  0  0
 20 12  1  0  0  0  0
 21 17  1  0  0  0  0
 22 17  1  0  0  0  0
 23 17  1  0  0  0  0
M  RAD  3   2   2   3   3   4   2
M  END
