Coordinates from ORCA-job 4-NO2PhN2+~TfO-_B3LYPG-6-31G_dp-CH-Scan-d09-49-n800
 OpenBabel11261919523D

 23 22  0  0  0  0  0  0  0  0999 V2000
   -2.1648   -0.2504    0.0782 C   0  0  0  0  0  0  0  0  0  0  0  0
   -3.4343   -0.5501    0.5695 N   0  0  0  0  0  0  0  0  0  0  0  0
   -4.5527   -0.4621    0.6998 N   0  0  0  0  0  0  0  0  0  0  0  0
   -2.0170    0.8939   -0.7197 C   0  0  0  0  0  0  0  0  0  0  0  0
   -0.7411    1.1778   -1.1934 C   0  0  0  0  0  0  0  0  0  0  0  0
    0.3097    0.3244   -0.8622 C   0  0  0  0  0  0  0  0  0  0  0  0
    1.6664    0.6407   -1.3748 N   0  0  0  0  0  0  0  0  0  0  0  0
    1.7825    1.6490   -2.0620 O   0  0  0  0  0  0  0  0  0  0  0  0
    2.5713   -0.1297   -1.0689 O   0  0  0  0  0  0  0  0  0  0  0  0
    0.1541   -0.8129   -0.0699 C   0  0  0  0  0  0  0  0  0  0  0  0
   -1.1117   -1.1092    0.4177 C   0  0  0  0  0  0  0  0  0  0  0  0
   -2.8517    1.4998   -0.9425 H   0  0  0  0  0  0  0  0  0  0  0  0
   -0.5562    2.0422   -1.8188 H   0  0  0  0  0  0  0  0  0  0  0  0
    1.0116   -1.4354    0.1494 H   0  0  0  0  0  0  0  0  0  0  0  0
   -1.2904   -1.9813    1.0361 H   0  0  0  0  0  0  0  0  0  0  0  0
   -5.4578    0.5590   -1.9394 S   0  0  0  0  0  0  0  0  0  0  0  0
   -5.0966    2.0412   -3.0104 C   0  0  0  0  0  0  0  0  0  0  0  0
   -4.3866   -0.4089   -2.2609 O   0  0  0  0  0  0  0  0  0  0  0  0
   -6.8398    0.1932   -2.2426 O   0  0  0  0  0  0  0  0  0  0  0  0
   -5.2371    1.1649   -0.5549 O   0  0  0  0  0  0  0  0  0  0  0  0
   -3.8425    2.4970   -2.7707 F   0  0  0  0  0  0  0  0  0  0  0  0
   -5.1742    1.7080   -4.3007 F   0  0  0  0  0  0  0  0  0  0  0  0
   -5.9533    3.0326   -2.7618 F   0  0  0  0  0  0  0  0  0  0  0  0
  1 11  1  0  0  0  0
  1  2  1  0  0  0  0
  2  3  1  0  0  0  0
  4  1  2  0  0  0  0
  5  6  2  0  0  0  0
  5  4  1  0  0  0  0
  6 10  1  0  0  0  0
  7  9  2  0  0  0  0
  7  6  1  0  0  0  0
  8  7  2  0  0  0  0
 10 14  1  0  0  0  0
 10 11  2  0  0  0  0
 11 15  1  0  0  0  0
 12  4  1  0  0  0  0
 13  5  1  0  0  0  0
 16 20  1  0  0  0  0
 17 21  1  0  0  0  0
 17 23  1  0  0  0  0
 17 16  1  0  0  0  0
 18 16  2  0  0  0  0
 19 16  2  0  0  0  0
 22 17  1  0  0  0  0
M  RAD  3   2   2   3   3  20   2
M  END
