Coordinates from ORCA-job 4-NO2PhN2+~TfO-_B3LYPG-6-31G_dp-CH-Scan-d09-49-n800
 OpenBabel11261919523D

 23 22  0  0  0  0  0  0  0  0999 V2000
   -1.5965   -0.6749   -0.1281 C   0  0  0  0  0  0  0  0  0  0  0  0
   -2.9029   -1.1614    0.0421 N   0  0  0  0  0  0  0  0  0  0  0  0
   -3.9617   -1.4919    0.1658 N   0  0  0  0  0  0  0  0  0  0  0  0
   -1.5637    0.6661   -0.5200 C   0  0  0  0  0  0  0  0  0  0  0  0
   -0.2091    1.0894   -0.6672 C   0  0  0  0  0  0  0  0  0  0  0  0
    0.8602    0.2364   -0.4382 C   0  0  0  0  0  0  0  0  0  0  0  0
    2.2466    0.7461   -0.6127 N   0  0  0  0  0  0  0  0  0  0  0  0
    2.3844    1.9152   -0.9591 O   0  0  0  0  0  0  0  0  0  0  0  0
    3.1695   -0.0392   -0.3983 O   0  0  0  0  0  0  0  0  0  0  0  0
    0.7230   -1.1115   -0.0418 C   0  0  0  0  0  0  0  0  0  0  0  0
   -0.5509   -1.6028    0.1250 C   0  0  0  0  0  0  0  0  0  0  0  0
   -4.3811    2.5662   -1.1609 H   0  0  0  0  0  0  0  0  0  0  0  0
    0.0193    2.1075   -0.9686 H   0  0  0  0  0  0  0  0  0  0  0  0
    1.6045   -1.7167    0.1204 H   0  0  0  0  0  0  0  0  0  0  0  0
   -0.7362   -2.6285    0.4304 H   0  0  0  0  0  0  0  0  0  0  0  0
   -6.1709    1.5716   -1.8059 S   0  0  0  0  0  0  0  0  0  0  0  0
   -5.9872    1.6716   -3.6597 C   0  0  0  0  0  0  0  0  0  0  0  0
   -5.4963    0.3529   -1.3760 O   0  0  0  0  0  0  0  0  0  0  0  0
   -7.5508    1.8686   -1.4850 O   0  0  0  0  0  0  0  0  0  0  0  0
   -5.2830    2.8597   -1.3850 O   0  0  0  0  0  0  0  0  0  0  0  0
   -4.6926    1.6164   -3.9744 F   0  0  0  0  0  0  0  0  0  0  0  0
   -6.6251    0.6350   -4.1999 F   0  0  0  0  0  0  0  0  0  0  0  0
   -6.5116    2.8078   -4.1055 F   0  0  0  0  0  0  0  0  0  0  0  0
  1  2  1  0  0  0  0
  1 11  2  0  0  0  0
  2  3  1  0  0  0  0
  4  1  1  0  0  0  0
  5  4  2  0  0  0  0
  5  6  1  0  0  0  0
  6 10  2  0  0  0  0
  7  6  1  0  0  0  0
  7  9  2  0  0  0  0
  8  7  2  0  0  0  0
 10 14  1  0  0  0  0
 10 11  1  0  0  0  0
 11 15  1  0  0  0  0
 13  5  1  0  0  0  0
 16 19  2  0  0  0  0
 16 20  1  0  0  0  0
 16 18  2  0  0  0  0
 17 16  1  0  0  0  0
 20 12  1  0  0  0  0
 21 17  1  0  0  0  0
 22 17  1  0  0  0  0
 23 17  1  0  0  0  0
M  RAD  3   2   2   3   3   4   2
M  END
