Coordinates from ORCA-job 4-NO2PhN2+~TfO-_B3LYPG-6-31G_dp-CH-Scan-d09-49-n800
 OpenBabel11261919523D

 23 22  0  0  0  0  0  0  0  0999 V2000
   -1.7850   -0.6570   -0.0958 C   0  0  0  0  0  0  0  0  0  0  0  0
   -3.0569   -1.1872    0.1553 N   0  0  0  0  0  0  0  0  0  0  0  0
   -4.0888   -1.5655    0.3444 N   0  0  0  0  0  0  0  0  0  0  0  0
   -1.8048    0.6723   -0.5340 C   0  0  0  0  0  0  0  0  0  0  0  0
   -0.4768    1.1339   -0.7601 C   0  0  0  0  0  0  0  0  0  0  0  0
    0.6297    0.3235   -0.5526 C   0  0  0  0  0  0  0  0  0  0  0  0
    1.9886    0.8715   -0.8090 N   0  0  0  0  0  0  0  0  0  0  0  0
    2.0692    2.0320   -1.1988 O   0  0  0  0  0  0  0  0  0  0  0  0
    2.9451    0.1231   -0.6134 O   0  0  0  0  0  0  0  0  0  0  0  0
    0.5541   -1.0121   -0.1062 C   0  0  0  0  0  0  0  0  0  0  0  0
   -0.6944   -1.5370    0.1363 C   0  0  0  0  0  0  0  0  0  0  0  0
   -4.0386    2.1365   -0.9761 H   0  0  0  0  0  0  0  0  0  0  0  0
   -0.2987    2.1474   -1.1059 H   0  0  0  0  0  0  0  0  0  0  0  0
    1.4608   -1.5847    0.0344 H   0  0  0  0  0  0  0  0  0  0  0  0
   -0.8302   -2.5570    0.4827 H   0  0  0  0  0  0  0  0  0  0  0  0
   -5.9311    1.4737   -1.7519 S   0  0  0  0  0  0  0  0  0  0  0  0
   -5.6049    1.6768   -3.5763 C   0  0  0  0  0  0  0  0  0  0  0  0
   -5.4907    0.1284   -1.3968 O   0  0  0  0  0  0  0  0  0  0  0  0
   -7.2734    1.9518   -1.4925 O   0  0  0  0  0  0  0  0  0  0  0  0
   -4.9017    2.5642   -1.1671 O   0  0  0  0  0  0  0  0  0  0  0  0
   -4.3112    1.4568   -3.8189 F   0  0  0  0  0  0  0  0  0  0  0  0
   -6.3418    0.7861   -4.2387 F   0  0  0  0  0  0  0  0  0  0  0  0
   -5.9308    2.9062   -3.9618 F   0  0  0  0  0  0  0  0  0  0  0  0
  1 11  1  0  0  0  0
  1  2  1  0  0  0  0
  2  3  1  0  0  0  0
  4  1  2  0  0  0  0
  5  6  2  0  0  0  0
  5  4  1  0  0  0  0
  6 10  1  0  0  0  0
  7  9  2  0  0  0  0
  7  6  1  0  0  0  0
  8  7  2  0  0  0  0
 10 14  1  0  0  0  0
 10 11  2  0  0  0  0
 11 15  1  0  0  0  0
 13  5  1  0  0  0  0
 16 19  2  0  0  0  0
 16 18  2  0  0  0  0
 16 20  1  0  0  0  0
 17 16  1  0  0  0  0
 20 12  1  0  0  0  0
 21 17  1  0  0  0  0
 22 17  1  0  0  0  0
 23 17  1  0  0  0  0
M  RAD  3   2   2   3   3   4   2
M  END
