Coordinates from ORCA-job 4-NO2PhN2+~TfO-_B3LYPG-6-31G_dp-CH-Scan-d09-49-n800
 OpenBabel11261919523D

 23 22  0  0  0  0  0  0  0  0999 V2000
   -1.9255   -0.6561   -0.1047 C   0  0  0  0  0  0  0  0  0  0  0  0
   -3.1706   -1.2271    0.1736 N   0  0  0  0  0  0  0  0  0  0  0  0
   -4.1826   -1.6447    0.3814 N   0  0  0  0  0  0  0  0  0  0  0  0
   -1.9809    0.6576   -0.5900 C   0  0  0  0  0  0  0  0  0  0  0  0
   -0.6762    1.1587   -0.8405 C   0  0  0  0  0  0  0  0  0  0  0  0
    0.4586    0.3939   -0.6109 C   0  0  0  0  0  0  0  0  0  0  0  0
    1.7959    0.9806   -0.8938 N   0  0  0  0  0  0  0  0  0  0  0  0
    1.8316    2.1279   -1.3253 O   0  0  0  0  0  0  0  0  0  0  0  0
    2.7776    0.2716   -0.6799 O   0  0  0  0  0  0  0  0  0  0  0  0
    0.4290   -0.9252   -0.1188 C   0  0  0  0  0  0  0  0  0  0  0  0
   -0.8007   -1.4834    0.1490 C   0  0  0  0  0  0  0  0  0  0  0  0
   -3.6845    1.7578   -0.9312 H   0  0  0  0  0  0  0  0  0  0  0  0
   -0.5391    2.1650   -1.2222 H   0  0  0  0  0  0  0  0  0  0  0  0
    1.3545   -1.4630    0.0367 H   0  0  0  0  0  0  0  0  0  0  0  0
   -0.8992   -2.4948    0.5298 H   0  0  0  0  0  0  0  0  0  0  0  0
   -5.6872    1.4260   -1.6920 S   0  0  0  0  0  0  0  0  0  0  0  0
   -5.4031    1.6778   -3.5148 C   0  0  0  0  0  0  0  0  0  0  0  0
   -5.4337    0.0080   -1.4342 O   0  0  0  0  0  0  0  0  0  0  0  0
   -6.9568    2.0472   -1.3671 O   0  0  0  0  0  0  0  0  0  0  0  0
   -4.5127    2.3159   -1.0963 O   0  0  0  0  0  0  0  0  0  0  0  0
   -4.1690    1.2749   -3.8323 F   0  0  0  0  0  0  0  0  0  0  0  0
   -6.2933    0.9518   -4.1923 F   0  0  0  0  0  0  0  0  0  0  0  0
   -5.5443    2.9633   -3.8271 F   0  0  0  0  0  0  0  0  0  0  0  0
  1 11  1  0  0  0  0
  1  2  1  0  0  0  0
  2  3  1  0  0  0  0
  4  1  2  0  0  0  0
  5  6  2  0  0  0  0
  5  4  1  0  0  0  0
  6 10  1  0  0  0  0
  7  9  2  0  0  0  0
  7  6  1  0  0  0  0
  8  7  2  0  0  0  0
 10 14  1  0  0  0  0
 10 11  2  0  0  0  0
 11 15  1  0  0  0  0
 13  5  1  0  0  0  0
 16 18  2  0  0  0  0
 16 19  2  0  0  0  0
 16 20  1  0  0  0  0
 17 16  1  0  0  0  0
 20 12  1  0  0  0  0
 21 17  1  0  0  0  0
 22 17  1  0  0  0  0
 23 17  1  0  0  0  0
M  RAD  3   2   2   3   3   4   2
M  END
