Coordinates from ORCA-job 4-NO2PhN2+~TfO-_B3LYPG-6-31G_dp-CH-Scan-d09-49-n800
 OpenBabel11261919523D

 23 22  0  0  0  0  0  0  0  0999 V2000
   -2.1415   -0.2825    0.0886 C   0  0  0  0  0  0  0  0  0  0  0  0
   -3.4184   -0.5840    0.5610 N   0  0  0  0  0  0  0  0  0  0  0  0
   -4.5331   -0.4747    0.6817 N   0  0  0  0  0  0  0  0  0  0  0  0
   -1.9961    0.9085   -0.6337 C   0  0  0  0  0  0  0  0  0  0  0  0
   -0.7290    1.2227   -1.1071 C   0  0  0  0  0  0  0  0  0  0  0  0
    0.3197    0.3433   -0.8390 C   0  0  0  0  0  0  0  0  0  0  0  0
    1.6740    0.6843   -1.3441 N   0  0  0  0  0  0  0  0  0  0  0  0
    1.7900    1.7349   -1.9646 O   0  0  0  0  0  0  0  0  0  0  0  0
    2.5768   -0.1100   -1.0993 O   0  0  0  0  0  0  0  0  0  0  0  0
    0.1677   -0.8428   -0.1184 C   0  0  0  0  0  0  0  0  0  0  0  0
   -1.0924   -1.1689    0.3643 C   0  0  0  0  0  0  0  0  0  0  0  0
   -3.0356    1.6125   -0.8285 H   0  0  0  0  0  0  0  0  0  0  0  0
   -0.5451    2.1233   -1.6790 H   0  0  0  0  0  0  0  0  0  0  0  0
    1.0264   -1.4795    0.0498 H   0  0  0  0  0  0  0  0  0  0  0  0
   -1.2671   -2.0786    0.9271 H   0  0  0  0  0  0  0  0  0  0  0  0
   -5.4892    0.6094   -1.8969 S   0  0  0  0  0  0  0  0  0  0  0  0
   -5.0759    1.9701   -3.1011 C   0  0  0  0  0  0  0  0  0  0  0  0
   -4.5456   -0.4819   -2.2179 O   0  0  0  0  0  0  0  0  0  0  0  0
   -6.9209    0.3667   -2.0643 O   0  0  0  0  0  0  0  0  0  0  0  0
   -5.1041    1.2806   -0.5782 O   0  0  0  0  0  0  0  0  0  0  0  0
   -3.7843    2.3482   -2.9507 F   0  0  0  0  0  0  0  0  0  0  0  0
   -5.2402    1.5433   -4.3551 F   0  0  0  0  0  0  0  0  0  0  0  0
   -5.8486    3.0386   -2.8974 F   0  0  0  0  0  0  0  0  0  0  0  0
  1 11  1  0  0  0  0
  1  2  1  0  0  0  0
  2  3  1  0  0  0  0
  4  1  2  0  0  0  0
  5  6  2  0  0  0  0
  5  4  1  0  0  0  0
  6 10  1  0  0  0  0
  7  9  2  0  0  0  0
  7  6  1  0  0  0  0
  8  7  2  0  0  0  0
 10 14  1  0  0  0  0
 10 11  2  0  0  0  0
 11 15  1  0  0  0  0
 12  4  1  0  0  0  0
 13  5  1  0  0  0  0
 16 20  1  0  0  0  0
 17 21  1  0  0  0  0
 17 23  1  0  0  0  0
 17 16  1  0  0  0  0
 18 16  2  0  0  0  0
 19 16  2  0  0  0  0
 22 17  1  0  0  0  0
M  RAD  3   2   2   3   3  20   2
M  END
