Coordinates from ORCA-job 4-NO2PhN2+~TfO-_B3LYPG-6-31G_dp-CH-Scan-d09-49-n800
 OpenBabel11261919523D

 23 22  0  0  0  0  0  0  0  0999 V2000
   -2.1700   -0.2578    0.0707 C   0  0  0  0  0  0  0  0  0  0  0  0
   -3.4383   -0.5628    0.5618 N   0  0  0  0  0  0  0  0  0  0  0  0
   -4.5577   -0.4845    0.6926 N   0  0  0  0  0  0  0  0  0  0  0  0
   -2.0336    0.8597   -0.7670 C   0  0  0  0  0  0  0  0  0  0  0  0
   -0.7562    1.1432   -1.2385 C   0  0  0  0  0  0  0  0  0  0  0  0
    0.3043    0.3186   -0.8691 C   0  0  0  0  0  0  0  0  0  0  0  0
    1.6602    0.6364   -1.3825 N   0  0  0  0  0  0  0  0  0  0  0  0
    1.7673    1.6212   -2.1042 O   0  0  0  0  0  0  0  0  0  0  0  0
    2.5736   -0.1095   -1.0426 O   0  0  0  0  0  0  0  0  0  0  0  0
    0.1585   -0.7913   -0.0374 C   0  0  0  0  0  0  0  0  0  0  0  0
   -1.1076   -1.0883    0.4491 C   0  0  0  0  0  0  0  0  0  0  0  0
   -2.7988    1.4005   -0.9981 H   0  0  0  0  0  0  0  0  0  0  0  0
   -0.5796    1.9876   -1.8930 H   0  0  0  0  0  0  0  0  0  0  0  0
    1.0227   -1.3929    0.2119 H   0  0  0  0  0  0  0  0  0  0  0  0
   -1.2796   -1.9402    1.0969 H   0  0  0  0  0  0  0  0  0  0  0  0
   -5.4514    0.5616   -1.9518 S   0  0  0  0  0  0  0  0  0  0  0  0
   -5.0993    2.0774   -2.9780 C   0  0  0  0  0  0  0  0  0  0  0  0
   -4.3543   -0.3759   -2.2797 O   0  0  0  0  0  0  0  0  0  0  0  0
   -6.8193    0.1765   -2.2926 O   0  0  0  0  0  0  0  0  0  0  0  0
   -5.2682    1.1329   -0.5485 O   0  0  0  0  0  0  0  0  0  0  0  0
   -3.8531    2.5417   -2.7152 F   0  0  0  0  0  0  0  0  0  0  0  0
   -5.1617    1.7785   -4.2776 F   0  0  0  0  0  0  0  0  0  0  0  0
   -5.9702    3.0511   -2.7101 F   0  0  0  0  0  0  0  0  0  0  0  0
  1 11  1  0  0  0  0
  1  2  1  0  0  0  0
  2  3  1  0  0  0  0
  4  1  2  0  0  0  0
  5  6  2  0  0  0  0
  5  4  1  0  0  0  0
  6 10  1  0  0  0  0
  7  9  2  0  0  0  0
  7  6  1  0  0  0  0
  8  7  2  0  0  0  0
 10 14  1  0  0  0  0
 10 11  2  0  0  0  0
 11 15  1  0  0  0  0
 12  4  1  0  0  0  0
 13  5  1  0  0  0  0
 16 20  1  0  0  0  0
 17 21  1  0  0  0  0
 17 23  1  0  0  0  0
 17 16  1  0  0  0  0
 18 16  2  0  0  0  0
 19 16  2  0  0  0  0
 22 17  1  0  0  0  0
M  RAD  3   2   2   3   3  20   2
M  END
