Coordinates from ORCA-job 4-NO2PhN2+~TfO-_B3LYPG-6-31G_dp-CH-Scan-d09-49-n800
 OpenBabel11261919523D

 23 22  0  0  0  0  0  0  0  0999 V2000
   -1.9775   -0.5773   -0.1510 C   0  0  0  0  0  0  0  0  0  0  0  0
   -3.2629   -1.0831    0.0421 N   0  0  0  0  0  0  0  0  0  0  0  0
   -4.3491   -1.3442    0.0498 N   0  0  0  0  0  0  0  0  0  0  0  0
   -1.8819    0.6888   -0.7423 C   0  0  0  0  0  0  0  0  0  0  0  0
   -0.5810    1.1671   -0.9262 C   0  0  0  0  0  0  0  0  0  0  0  0
    0.5028    0.3918   -0.5260 C   0  0  0  0  0  0  0  0  0  0  0  0
    1.8755    0.9239   -0.7316 N   0  0  0  0  0  0  0  0  0  0  0  0
    1.9752    2.0314   -1.2460 O   0  0  0  0  0  0  0  0  0  0  0  0
    2.8086    0.2124   -0.3705 O   0  0  0  0  0  0  0  0  0  0  0  0
    0.3759   -0.8700    0.0664 C   0  0  0  0  0  0  0  0  0  0  0  0
   -0.8964   -1.3758    0.2681 C   0  0  0  0  0  0  0  0  0  0  0  0
   -2.9434    1.3659   -1.0873 H   0  0  0  0  0  0  0  0  0  0  0  0
   -0.4060    2.1364   -1.3772 H   0  0  0  0  0  0  0  0  0  0  0  0
    1.2627   -1.4193    0.3534 H   0  0  0  0  0  0  0  0  0  0  0  0
   -1.0571   -2.3477    0.7206 H   0  0  0  0  0  0  0  0  0  0  0  0
   -5.3943    1.3014   -1.7528 S   0  0  0  0  0  0  0  0  0  0  0  0
   -5.7930    1.7792   -3.5037 C   0  0  0  0  0  0  0  0  0  0  0  0
   -5.0174   -0.1417   -1.8736 O   0  0  0  0  0  0  0  0  0  0  0  0
   -6.5905    1.6019   -0.9665 O   0  0  0  0  0  0  0  0  0  0  0  0
   -4.1908    2.1540   -1.4358 O   0  0  0  0  0  0  0  0  0  0  0  0
   -4.7383    1.5489   -4.2985 F   0  0  0  0  0  0  0  0  0  0  0  0
   -6.8304    1.0619   -3.9476 F   0  0  0  0  0  0  0  0  0  0  0  0
   -6.1031    3.0778   -3.5666 F   0  0  0  0  0  0  0  0  0  0  0  0
  1  2  1  0  0  0  0
  1 11  2  0  0  0  0
  2  3  1  0  0  0  0
  4  1  1  0  0  0  0
  5  4  2  0  0  0  0
  5  6  1  0  0  0  0
  6 10  2  0  0  0  0
  7  6  1  0  0  0  0
  7  9  2  0  0  0  0
  8  7  2  0  0  0  0
 10 11  1  0  0  0  0
 10 14  1  0  0  0  0
 11 15  1  0  0  0  0
 12  4  1  0  0  0  0
 13  5  1  0  0  0  0
 16 20  2  0  0  0  0
 16 19  1  0  0  0  0
 17 16  1  0  0  0  0
 18 16  2  0  0  0  0
 21 17  1  0  0  0  0
 22 17  1  0  0  0  0
 23 17  1  0  0  0  0
M  RAD  3   2   2   3   3  19   2
M  END
