Coordinates from ORCA-job 4-NO2PhN2+~TfO-_B3LYPG-6-31G_dp-CH-Scan-d09-49-n800
 OpenBabel11261919533D

 23 22  0  0  0  0  0  0  0  0999 V2000
   -1.5816   -0.6732   -0.1256 C   0  0  0  0  0  0  0  0  0  0  0  0
   -2.8912   -1.1527    0.0425 N   0  0  0  0  0  0  0  0  0  0  0  0
   -3.9526   -1.4756    0.1645 N   0  0  0  0  0  0  0  0  0  0  0  0
   -1.5429    0.6699   -0.5092 C   0  0  0  0  0  0  0  0  0  0  0  0
   -0.1858    1.0866   -0.6549 C   0  0  0  0  0  0  0  0  0  0  0  0
    0.8791    0.2265   -0.4326 C   0  0  0  0  0  0  0  0  0  0  0  0
    2.2680    0.7296   -0.6053 N   0  0  0  0  0  0  0  0  0  0  0  0
    2.4121    1.9002   -0.9443 O   0  0  0  0  0  0  0  0  0  0  0  0
    3.1870   -0.0621   -0.3971 O   0  0  0  0  0  0  0  0  0  0  0  0
    0.7351   -1.1233   -0.0445 C   0  0  0  0  0  0  0  0  0  0  0  0
   -0.5413   -1.6087    0.1207 C   0  0  0  0  0  0  0  0  0  0  0  0
   -4.4361    2.6250   -1.1674 H   0  0  0  0  0  0  0  0  0  0  0  0
    0.0480    2.1054   -0.9500 H   0  0  0  0  0  0  0  0  0  0  0  0
    1.6136   -1.7341    0.1130 H   0  0  0  0  0  0  0  0  0  0  0  0
   -0.7319   -2.6352    0.4200 H   0  0  0  0  0  0  0  0  0  0  0  0
   -6.1968    1.5786   -1.8111 S   0  0  0  0  0  0  0  0  0  0  0  0
   -6.0031    1.6677   -3.6647 C   0  0  0  0  0  0  0  0  0  0  0  0
   -5.4931    0.3823   -1.3660 O   0  0  0  0  0  0  0  0  0  0  0  0
   -7.5856    1.8435   -1.5012 O   0  0  0  0  0  0  0  0  0  0  0  0
   -5.3445    2.8933   -1.3958 O   0  0  0  0  0  0  0  0  0  0  0  0
   -4.7050    1.6520   -3.9692 F   0  0  0  0  0  0  0  0  0  0  0  0
   -6.6028    0.6060   -4.1995 F   0  0  0  0  0  0  0  0  0  0  0  0
   -6.5607    2.7820   -4.1249 F   0  0  0  0  0  0  0  0  0  0  0  0
  1  2  1  0  0  0  0
  1 11  2  0  0  0  0
  2  3  1  0  0  0  0
  4  1  1  0  0  0  0
  5  4  2  0  0  0  0
  5  6  1  0  0  0  0
  6 10  2  0  0  0  0
  7  6  1  0  0  0  0
  7  9  2  0  0  0  0
  8  7  2  0  0  0  0
 10 14  1  0  0  0  0
 10 11  1  0  0  0  0
 11 15  1  0  0  0  0
 13  5  1  0  0  0  0
 16 19  2  0  0  0  0
 16 20  1  0  0  0  0
 16 18  2  0  0  0  0
 17 16  1  0  0  0  0
 20 12  1  0  0  0  0
 21 17  1  0  0  0  0
 22 17  1  0  0  0  0
 23 17  1  0  0  0  0
M  RAD  3   2   2   3   3   4   2
M  END
