Coordinates from ORCA-job 4-NO2PhN2+~TfO-_B3LYPG-6-31G_dp-CH-Scan-d09-49-n800
 OpenBabel11261919533D

 23 22  0  0  0  0  0  0  0  0999 V2000
   -1.5983   -0.6244   -0.0233 C   0  0  0  0  0  0  0  0  0  0  0  0
   -2.9100   -1.0611    0.2332 N   0  0  0  0  0  0  0  0  0  0  0  0
   -3.9722   -1.3412    0.4313 N   0  0  0  0  0  0  0  0  0  0  0  0
   -1.5441    0.7272   -0.3698 C   0  0  0  0  0  0  0  0  0  0  0  0
   -0.1873    1.1029   -0.6082 C   0  0  0  0  0  0  0  0  0  0  0  0
    0.8600    0.2008   -0.4961 C   0  0  0  0  0  0  0  0  0  0  0  0
    2.2486    0.6617   -0.7628 N   0  0  0  0  0  0  0  0  0  0  0  0
    2.4077    1.8340   -1.0896 O   0  0  0  0  0  0  0  0  0  0  0  0
    3.1533   -0.1634   -0.6379 O   0  0  0  0  0  0  0  0  0  0  0  0
    0.6986   -1.1552   -0.1360 C   0  0  0  0  0  0  0  0  0  0  0  0
   -0.5776   -1.6026    0.1153 C   0  0  0  0  0  0  0  0  0  0  0  0
   -4.7803    2.8207   -0.9890 H   0  0  0  0  0  0  0  0  0  0  0  0
    0.0598    2.1226   -0.8898 H   0  0  0  0  0  0  0  0  0  0  0  0
    1.5646   -1.7992   -0.0651 H   0  0  0  0  0  0  0  0  0  0  0  0
   -0.7812   -2.6307    0.4008 H   0  0  0  0  0  0  0  0  0  0  0  0
   -6.2447    1.5079   -1.8552 S   0  0  0  0  0  0  0  0  0  0  0  0
   -5.7817    1.6708   -3.6555 C   0  0  0  0  0  0  0  0  0  0  0  0
   -5.4359    0.4296   -1.3019 O   0  0  0  0  0  0  0  0  0  0  0  0
   -7.6887    1.5454   -1.7658 O   0  0  0  0  0  0  0  0  0  0  0  0
   -5.6920    2.9335   -1.3116 O   0  0  0  0  0  0  0  0  0  0  0  0
   -4.4689    1.8864   -3.7496 F   0  0  0  0  0  0  0  0  0  0  0  0
   -6.0967    0.5347   -4.2737 F   0  0  0  0  0  0  0  0  0  0  0  0
   -6.4451    2.6831   -4.2024 F   0  0  0  0  0  0  0  0  0  0  0  0
  1 11  1  0  0  0  0
  1  2  1  0  0  0  0
  2  3  1  0  0  0  0
  4  1  2  0  0  0  0
  5  6  2  0  0  0  0
  5  4  1  0  0  0  0
  6 10  1  0  0  0  0
  7  9  2  0  0  0  0
  7  6  1  0  0  0  0
  8  7  2  0  0  0  0
 10 14  1  0  0  0  0
 10 11  2  0  0  0  0
 11 15  1  0  0  0  0
 13  5  1  0  0  0  0
 16 19  2  0  0  0  0
 16 20  1  0  0  0  0
 16 18  2  0  0  0  0
 17 16  1  0  0  0  0
 20 12  1  0  0  0  0
 21 17  1  0  0  0  0
 22 17  1  0  0  0  0
 23 17  1  0  0  0  0
M  RAD  3   2   2   3   3   4   2
M  END
