Coordinates from ORCA-job 4-NO2PhN2+~TfO-_B3LYPG-6-31G_dp-CH-Scan-d09-49-n800
 OpenBabel11261919533D

 23 22  0  0  0  0  0  0  0  0999 V2000
   -2.0127   -0.2218    0.5278 C   0  0  0  0  0  0  0  0  0  0  0  0
   -3.1188   -0.5217    1.3448 N   0  0  0  0  0  0  0  0  0  0  0  0
   -3.9745   -0.6857    2.0428 N   0  0  0  0  0  0  0  0  0  0  0  0
   -1.3932    0.9616    0.9251 C   0  0  0  0  0  0  0  0  0  0  0  0
   -0.2801    1.2267    0.0707 C   0  0  0  0  0  0  0  0  0  0  0  0
    0.0612    0.3814   -0.9749 C   0  0  0  0  0  0  0  0  0  0  0  0
    1.2290    0.7204   -1.8308 N   0  0  0  0  0  0  0  0  0  0  0  0
    1.8562    1.7406   -1.5625 O   0  0  0  0  0  0  0  0  0  0  0  0
    1.4913   -0.0411   -2.7621 O   0  0  0  0  0  0  0  0  0  0  0  0
   -0.6396   -0.8030   -1.2956 C   0  0  0  0  0  0  0  0  0  0  0  0
   -1.7273   -1.1343   -0.5209 C   0  0  0  0  0  0  0  0  0  0  0  0
   -5.4017    2.7926   -0.7785 H   0  0  0  0  0  0  0  0  0  0  0  0
    0.3331    2.1107    0.2215 H   0  0  0  0  0  0  0  0  0  0  0  0
   -0.3130   -1.4122   -2.1277 H   0  0  0  0  0  0  0  0  0  0  0  0
   -2.3192   -2.0258   -0.7056 H   0  0  0  0  0  0  0  0  0  0  0  0
   -5.4283    0.9951   -1.9527 S   0  0  0  0  0  0  0  0  0  0  0  0
   -3.8527    1.1739   -2.9383 C   0  0  0  0  0  0  0  0  0  0  0  0
   -5.0757    0.3425   -0.6965 O   0  0  0  0  0  0  0  0  0  0  0  0
   -6.4557    0.5007   -2.8426 O   0  0  0  0  0  0  0  0  0  0  0  0
   -5.7391    2.5627   -1.6629 O   0  0  0  0  0  0  0  0  0  0  0  0
   -2.9500    1.8189   -2.1998 F   0  0  0  0  0  0  0  0  0  0  0  0
   -3.4089   -0.0476   -3.2294 F   0  0  0  0  0  0  0  0  0  0  0  0
   -4.0925    1.8489   -4.0547 F   0  0  0  0  0  0  0  0  0  0  0  0
  1  4  1  0  0  0  0
  1  2  1  0  0  0  0
  2  3  1  0  0  0  0
  5 13  1  0  0  0  0
  5  4  2  0  0  0  0
  6  5  1  0  0  0  0
  7  8  2  0  0  0  0
  7  6  1  0  0  0  0
  9  7  2  0  0  0  0
 10  6  2  0  0  0  0
 10 11  1  0  0  0  0
 11  1  2  0  0  0  0
 14 10  1  0  0  0  0
 15 11  1  0  0  0  0
 16 20  1  0  0  0  0
 16 18  2  0  0  0  0
 17 21  1  0  0  0  0
 17 16  1  0  0  0  0
 19 16  2  0  0  0  0
 20 12  1  0  0  0  0
 22 17  1  0  0  0  0
 23 17  1  0  0  0  0
M  RAD  3   2   2   3   3   4   2
M  END
