Coordinates from ORCA-job 4-NO2PhN2+~TfO-_B3LYPG-6-31G_dp-CH-Scan-d09-49-n800
 OpenBabel11261919523D

 23 22  0  0  0  0  0  0  0  0999 V2000
   -1.6241   -0.6752   -0.1272 C   0  0  0  0  0  0  0  0  0  0  0  0
   -2.9248   -1.1719    0.0510 N   0  0  0  0  0  0  0  0  0  0  0  0
   -3.9791   -1.5136    0.1813 N   0  0  0  0  0  0  0  0  0  0  0  0
   -1.6007    0.6634   -0.5295 C   0  0  0  0  0  0  0  0  0  0  0  0
   -0.2503    1.0959   -0.6840 C   0  0  0  0  0  0  0  0  0  0  0  0
    0.8260    0.2527   -0.4513 C   0  0  0  0  0  0  0  0  0  0  0  0
    2.2079    0.7715   -0.6338 N   0  0  0  0  0  0  0  0  0  0  0  0
    2.3355    1.9385   -0.9908 O   0  0  0  0  0  0  0  0  0  0  0  0
    3.1371   -0.0051   -0.4157 O   0  0  0  0  0  0  0  0  0  0  0  0
    0.6998   -1.0929   -0.0442 C   0  0  0  0  0  0  0  0  0  0  0  0
   -0.5700   -1.5924    0.1298 C   0  0  0  0  0  0  0  0  0  0  0  0
   -4.3043    2.4778   -1.1415 H   0  0  0  0  0  0  0  0  0  0  0  0
   -0.0307    2.1133   -0.9939 H   0  0  0  0  0  0  0  0  0  0  0  0
    1.5861   -1.6904    0.1203 H   0  0  0  0  0  0  0  0  0  0  0  0
   -0.7465   -2.6171    0.4435 H   0  0  0  0  0  0  0  0  0  0  0  0
   -6.1289    1.5568   -1.7976 S   0  0  0  0  0  0  0  0  0  0  0  0
   -5.9456    1.6758   -3.6500 C   0  0  0  0  0  0  0  0  0  0  0  0
   -5.4989    0.3079   -1.3862 O   0  0  0  0  0  0  0  0  0  0  0  0
   -7.4975    1.8972   -1.4708 O   0  0  0  0  0  0  0  0  0  0  0  0
   -5.1963    2.8054   -1.3607 O   0  0  0  0  0  0  0  0  0  0  0  0
   -4.6565    1.5607   -3.9712 F   0  0  0  0  0  0  0  0  0  0  0  0
   -6.6368    0.6815   -4.2042 F   0  0  0  0  0  0  0  0  0  0  0  0
   -6.4134    2.8440   -4.0761 F   0  0  0  0  0  0  0  0  0  0  0  0
  1  2  1  0  0  0  0
  1 11  2  0  0  0  0
  2  3  1  0  0  0  0
  4  1  1  0  0  0  0
  5  4  2  0  0  0  0
  5  6  1  0  0  0  0
  6 10  2  0  0  0  0
  7  6  1  0  0  0  0
  7  9  2  0  0  0  0
  8  7  2  0  0  0  0
 10 14  1  0  0  0  0
 10 11  1  0  0  0  0
 11 15  1  0  0  0  0
 13  5  1  0  0  0  0
 16 19  2  0  0  0  0
 16 18  2  0  0  0  0
 16 20  1  0  0  0  0
 17 16  1  0  0  0  0
 20 12  1  0  0  0  0
 21 17  1  0  0  0  0
 22 17  1  0  0  0  0
 23 17  1  0  0  0  0
M  RAD  3   2   2   3   3   4   2
M  END
