Coordinates from ORCA-job 4-NO2PhN2+~TfO-_B3LYPG-6-31G_dp-CH-Scan-d09-49-n800
 OpenBabel11261919533D

 23 22  0  0  0  0  0  0  0  0999 V2000
   -1.5520   -0.6699   -0.1217 C   0  0  0  0  0  0  0  0  0  0  0  0
   -2.8675   -1.1368    0.0418 N   0  0  0  0  0  0  0  0  0  0  0  0
   -3.9334   -1.4484    0.1560 N   0  0  0  0  0  0  0  0  0  0  0  0
   -1.5023    0.6755   -0.4940 C   0  0  0  0  0  0  0  0  0  0  0  0
   -0.1409    1.0809   -0.6358 C   0  0  0  0  0  0  0  0  0  0  0  0
    0.9159    0.2090   -0.4211 C   0  0  0  0  0  0  0  0  0  0  0  0
    2.3095    0.7003   -0.5896 N   0  0  0  0  0  0  0  0  0  0  0  0
    2.4649    1.8720   -0.9197 O   0  0  0  0  0  0  0  0  0  0  0  0
    3.2211   -0.1017   -0.3884 O   0  0  0  0  0  0  0  0  0  0  0  0
    0.7595   -1.1429   -0.0443 C   0  0  0  0  0  0  0  0  0  0  0  0
   -0.5212   -1.6179    0.1170 C   0  0  0  0  0  0  0  0  0  0  0  0
   -4.5377    2.7203   -1.1793 H   0  0  0  0  0  0  0  0  0  0  0  0
    0.1026    2.1001   -0.9218 H   0  0  0  0  0  0  0  0  0  0  0  0
    1.6324   -1.7629    0.1080 H   0  0  0  0  0  0  0  0  0  0  0  0
   -0.7215   -2.6450    0.4081 H   0  0  0  0  0  0  0  0  0  0  0  0
   -6.2458    1.5890   -1.8222 S   0  0  0  0  0  0  0  0  0  0  0  0
   -6.0380    1.6646   -3.6749 C   0  0  0  0  0  0  0  0  0  0  0  0
   -5.4933    0.4319   -1.3546 O   0  0  0  0  0  0  0  0  0  0  0  0
   -7.6475    1.7969   -1.5279 O   0  0  0  0  0  0  0  0  0  0  0  0
   -5.4554    2.9459   -1.4159 O   0  0  0  0  0  0  0  0  0  0  0  0
   -4.7372    1.6989   -3.9667 F   0  0  0  0  0  0  0  0  0  0  0  0
   -6.5886    0.5736   -4.2029 F   0  0  0  0  0  0  0  0  0  0  0  0
   -6.6359    2.7501   -4.1530 F   0  0  0  0  0  0  0  0  0  0  0  0
  1  2  1  0  0  0  0
  1 11  2  0  0  0  0
  2  3  1  0  0  0  0
  4  1  1  0  0  0  0
  5  4  2  0  0  0  0
  5  6  1  0  0  0  0
  6 10  2  0  0  0  0
  7  6  1  0  0  0  0
  7  9  2  0  0  0  0
  8  7  2  0  0  0  0
 10 14  1  0  0  0  0
 10 11  1  0  0  0  0
 11 15  1  0  0  0  0
 13  5  1  0  0  0  0
 16 19  2  0  0  0  0
 16 20  1  0  0  0  0
 16 18  2  0  0  0  0
 17 16  1  0  0  0  0
 20 12  1  0  0  0  0
 21 17  1  0  0  0  0
 22 17  1  0  0  0  0
 23 17  1  0  0  0  0
M  RAD  3   2   2   3   3   4   2
M  END
