Coordinates from ORCA-job 4-NO2PhN2+~TfO-_B3LYPG-6-31G_dp-CH-Scan-d09-49-n800
 OpenBabel11261919523D

 23 22  0  0  0  0  0  0  0  0999 V2000
   -1.9773   -0.5761   -0.1515 C   0  0  0  0  0  0  0  0  0  0  0  0
   -3.2634   -1.0805    0.0413 N   0  0  0  0  0  0  0  0  0  0  0  0
   -4.3504   -1.3390    0.0468 N   0  0  0  0  0  0  0  0  0  0  0  0
   -1.8800    0.6900   -0.7423 C   0  0  0  0  0  0  0  0  0  0  0  0
   -0.5790    1.1677   -0.9258 C   0  0  0  0  0  0  0  0  0  0  0  0
    0.5041    0.3914   -0.5255 C   0  0  0  0  0  0  0  0  0  0  0  0
    1.8772    0.9225   -0.7306 N   0  0  0  0  0  0  0  0  0  0  0  0
    1.9778    2.0301   -1.2446 O   0  0  0  0  0  0  0  0  0  0  0  0
    2.8097    0.2102   -0.3693 O   0  0  0  0  0  0  0  0  0  0  0  0
    0.3759   -0.8704    0.0664 C   0  0  0  0  0  0  0  0  0  0  0  0
   -0.8969   -1.3753    0.2676 C   0  0  0  0  0  0  0  0  0  0  0  0
   -2.9372    1.3651   -1.0858 H   0  0  0  0  0  0  0  0  0  0  0  0
   -0.4033    2.1370   -1.3765 H   0  0  0  0  0  0  0  0  0  0  0  0
    1.2621   -1.4206    0.3535 H   0  0  0  0  0  0  0  0  0  0  0  0
   -1.0585   -2.3471    0.7199 H   0  0  0  0  0  0  0  0  0  0  0  0
   -5.3954    1.3019   -1.7526 S   0  0  0  0  0  0  0  0  0  0  0  0
   -5.7953    1.7780   -3.5038 C   0  0  0  0  0  0  0  0  0  0  0  0
   -5.0157   -0.1408   -1.8740 O   0  0  0  0  0  0  0  0  0  0  0  0
   -6.5929    1.5989   -0.9668 O   0  0  0  0  0  0  0  0  0  0  0  0
   -4.1941    2.1565   -1.4354 O   0  0  0  0  0  0  0  0  0  0  0  0
   -4.7400    1.5502   -4.2986 F   0  0  0  0  0  0  0  0  0  0  0  0
   -6.8309    1.0581   -3.9478 F   0  0  0  0  0  0  0  0  0  0  0  0
   -6.1087    3.0758   -3.5670 F   0  0  0  0  0  0  0  0  0  0  0  0
  1  2  1  0  0  0  0
  1 11  2  0  0  0  0
  2  3  1  0  0  0  0
  4  1  1  0  0  0  0
  5  4  2  0  0  0  0
  5  6  1  0  0  0  0
  6 10  2  0  0  0  0
  7  6  1  0  0  0  0
  7  9  2  0  0  0  0
  8  7  2  0  0  0  0
 10 11  1  0  0  0  0
 10 14  1  0  0  0  0
 11 15  1  0  0  0  0
 12  4  1  0  0  0  0
 13  5  1  0  0  0  0
 16 20  2  0  0  0  0
 16 19  1  0  0  0  0
 17 16  1  0  0  0  0
 18 16  2  0  0  0  0
 21 17  1  0  0  0  0
 22 17  1  0  0  0  0
 23 17  1  0  0  0  0
M  RAD  3   2   2   3   3  19   2
M  END
