Coordinates from ORCA-job 4-NO2PhN2+~TfO-_B3LYPG-6-31G_dp-CH-Scan-d09-49-n800
 OpenBabel11261919533D

 23 22  0  0  0  0  0  0  0  0999 V2000
   -1.5378   -0.6644   -0.1143 C   0  0  0  0  0  0  0  0  0  0  0  0
   -2.8567   -1.1219    0.0516 N   0  0  0  0  0  0  0  0  0  0  0  0
   -3.9252   -1.4220    0.1714 N   0  0  0  0  0  0  0  0  0  0  0  0
   -1.4812    0.6817   -0.4818 C   0  0  0  0  0  0  0  0  0  0  0  0
   -0.1175    1.0786   -0.6275 C   0  0  0  0  0  0  0  0  0  0  0  0
    0.9343    0.1988   -0.4201 C   0  0  0  0  0  0  0  0  0  0  0  0
    2.3305    0.6813   -0.5924 N   0  0  0  0  0  0  0  0  0  0  0  0
    2.4927    1.8532   -0.9187 O   0  0  0  0  0  0  0  0  0  0  0  0
    3.2376   -0.1272   -0.3967 O   0  0  0  0  0  0  0  0  0  0  0  0
    0.7704   -1.1534   -0.0473 C   0  0  0  0  0  0  0  0  0  0  0  0
   -0.5129   -1.6204    0.1172 C   0  0  0  0  0  0  0  0  0  0  0  0
   -4.6121    2.7687   -1.1617 H   0  0  0  0  0  0  0  0  0  0  0  0
    0.1316    2.0972   -0.9110 H   0  0  0  0  0  0  0  0  0  0  0  0
    1.6398   -1.7796    0.0994 H   0  0  0  0  0  0  0  0  0  0  0  0
   -0.7190   -2.6472    0.4056 H   0  0  0  0  0  0  0  0  0  0  0  0
   -6.2754    1.5874   -1.8315 S   0  0  0  0  0  0  0  0  0  0  0  0
   -6.0418    1.6661   -3.6811 C   0  0  0  0  0  0  0  0  0  0  0  0
   -5.4971    0.4534   -1.3495 O   0  0  0  0  0  0  0  0  0  0  0  0
   -7.6867    1.7561   -1.5591 O   0  0  0  0  0  0  0  0  0  0  0  0
   -5.5305    2.9678   -1.4166 O   0  0  0  0  0  0  0  0  0  0  0  0
   -4.7382    1.7316   -3.9538 F   0  0  0  0  0  0  0  0  0  0  0  0
   -6.5583    0.5615   -4.2154 F   0  0  0  0  0  0  0  0  0  0  0  0
   -6.6588    2.7363   -4.1693 F   0  0  0  0  0  0  0  0  0  0  0  0
  1  2  1  0  0  0  0
  1 11  2  0  0  0  0
  2  3  1  0  0  0  0
  4  1  1  0  0  0  0
  5  4  2  0  0  0  0
  5  6  1  0  0  0  0
  6 10  2  0  0  0  0
  7  6  1  0  0  0  0
  7  9  2  0  0  0  0
  8  7  2  0  0  0  0
 10 14  1  0  0  0  0
 10 11  1  0  0  0  0
 11 15  1  0  0  0  0
 13  5  1  0  0  0  0
 16 19  2  0  0  0  0
 16 20  1  0  0  0  0
 16 18  2  0  0  0  0
 17 16  1  0  0  0  0
 20 12  1  0  0  0  0
 21 17  1  0  0  0  0
 22 17  1  0  0  0  0
 23 17  1  0  0  0  0
M  RAD  3   2   2   3   3   4   2
M  END
