Coordinates from ORCA-job 4-NO2PhN2+~TfO-_B3LYPG-6-31G_dp-CH-Scan-d09-49-n800
 OpenBabel11261919523D

 23 22  0  0  0  0  0  0  0  0999 V2000
   -2.1554   -0.2532    0.0871 C   0  0  0  0  0  0  0  0  0  0  0  0
   -3.4275   -0.5490    0.5745 N   0  0  0  0  0  0  0  0  0  0  0  0
   -4.5442   -0.4470    0.7015 N   0  0  0  0  0  0  0  0  0  0  0  0
   -1.9989    0.9206   -0.6627 C   0  0  0  0  0  0  0  0  0  0  0  0
   -0.7270    1.2130   -1.1387 C   0  0  0  0  0  0  0  0  0  0  0  0
    0.3157    0.3330   -0.8521 C   0  0  0  0  0  0  0  0  0  0  0  0
    1.6721    0.6541   -1.3633 N   0  0  0  0  0  0  0  0  0  0  0  0
    1.7953    1.6899   -2.0069 O   0  0  0  0  0  0  0  0  0  0  0  0
    2.5696   -0.1403   -1.0998 O   0  0  0  0  0  0  0  0  0  0  0  0
    0.1535   -0.8351   -0.1065 C   0  0  0  0  0  0  0  0  0  0  0  0
   -1.1104   -1.1383    0.3817 C   0  0  0  0  0  0  0  0  0  0  0  0
   -2.9398    1.6023   -0.8706 H   0  0  0  0  0  0  0  0  0  0  0  0
   -0.5366    2.1001   -1.7293 H   0  0  0  0  0  0  0  0  0  0  0  0
    1.0062   -1.4756    0.0775 H   0  0  0  0  0  0  0  0  0  0  0  0
   -1.2930   -2.0335    0.9649 H   0  0  0  0  0  0  0  0  0  0  0  0
   -5.4693    0.5692   -1.9206 S   0  0  0  0  0  0  0  0  0  0  0  0
   -5.0880    1.9972   -3.0558 C   0  0  0  0  0  0  0  0  0  0  0  0
   -4.4470   -0.4507   -2.2367 O   0  0  0  0  0  0  0  0  0  0  0  0
   -6.8740    0.2474   -2.1652 O   0  0  0  0  0  0  0  0  0  0  0  0
   -5.1830    1.2155   -0.5654 O   0  0  0  0  0  0  0  0  0  0  0  0
   -3.8199    2.4301   -2.8520 F   0  0  0  0  0  0  0  0  0  0  0  0
   -5.1942    1.6148   -4.3301 F   0  0  0  0  0  0  0  0  0  0  0  0
   -5.9164    3.0189   -2.8344 F   0  0  0  0  0  0  0  0  0  0  0  0
  1 11  1  0  0  0  0
  1  2  1  0  0  0  0
  2  3  1  0  0  0  0
  4  1  2  0  0  0  0
  5  6  2  0  0  0  0
  5  4  1  0  0  0  0
  6 10  1  0  0  0  0
  7  9  2  0  0  0  0
  7  6  1  0  0  0  0
  8  7  2  0  0  0  0
 10 14  1  0  0  0  0
 10 11  2  0  0  0  0
 11 15  1  0  0  0  0
 12  4  1  0  0  0  0
 13  5  1  0  0  0  0
 16 20  1  0  0  0  0
 17 21  1  0  0  0  0
 17 23  1  0  0  0  0
 17 16  1  0  0  0  0
 18 16  2  0  0  0  0
 19 16  2  0  0  0  0
 22 17  1  0  0  0  0
M  RAD  3   2   2   3   3  20   2
M  END
