Coordinates from ORCA-job 4-NO2PhN2+~TfO-_B3LYPG-6-31G_dp-CH-Scan-d09-49-n800
 OpenBabel11261919533D

 23 22  0  0  0  0  0  0  0  0999 V2000
   -1.4537   -0.5740    0.0044 C   0  0  0  0  0  0  0  0  0  0  0  0
   -2.7944   -0.9381    0.2321 N   0  0  0  0  0  0  0  0  0  0  0  0
   -3.8763   -1.1493    0.4104 N   0  0  0  0  0  0  0  0  0  0  0  0
   -1.3207    0.7868   -0.2713 C   0  0  0  0  0  0  0  0  0  0  0  0
    0.0571    1.0957   -0.4863 C   0  0  0  0  0  0  0  0  0  0  0  0
    1.0486    0.1284   -0.4206 C   0  0  0  0  0  0  0  0  0  0  0  0
    2.4630    0.5194   -0.6611 N   0  0  0  0  0  0  0  0  0  0  0  0
    2.6919    1.6937   -0.9351 O   0  0  0  0  0  0  0  0  0  0  0  0
    3.3183   -0.3611   -0.5698 O   0  0  0  0  0  0  0  0  0  0  0  0
    0.8062   -1.2330   -0.1312 C   0  0  0  0  0  0  0  0  0  0  0  0
   -0.4948   -1.6177    0.0950 C   0  0  0  0  0  0  0  0  0  0  0  0
   -5.1869    3.0423   -1.0858 H   0  0  0  0  0  0  0  0  0  0  0  0
    0.3643    2.1129   -0.7124 H   0  0  0  0  0  0  0  0  0  0  0  0
    1.6332   -1.9290   -0.0925 H   0  0  0  0  0  0  0  0  0  0  0  0
   -0.7598   -2.6454    0.3274 H   0  0  0  0  0  0  0  0  0  0  0  0
   -6.4374    1.5085   -1.9216 S   0  0  0  0  0  0  0  0  0  0  0  0
   -6.0342    1.7004   -3.7331 C   0  0  0  0  0  0  0  0  0  0  0  0
   -5.4612    0.5852   -1.3581 O   0  0  0  0  0  0  0  0  0  0  0  0
   -7.8682    1.3252   -1.8060 O   0  0  0  0  0  0  0  0  0  0  0  0
   -6.1002    3.0172   -1.4214 O   0  0  0  0  0  0  0  0  0  0  0  0
   -4.7639    2.0873   -3.8576 F   0  0  0  0  0  0  0  0  0  0  0  0
   -6.2062    0.5223   -4.3281 F   0  0  0  0  0  0  0  0  0  0  0  0
   -6.8370    2.6061   -4.2801 F   0  0  0  0  0  0  0  0  0  0  0  0
  1 11  1  0  0  0  0
  1  2  1  0  0  0  0
  2  3  1  0  0  0  0
  4  1  2  0  0  0  0
  5  6  2  0  0  0  0
  5  4  1  0  0  0  0
  6 10  1  0  0  0  0
  7  9  2  0  0  0  0
  7  6  1  0  0  0  0
  8  7  2  0  0  0  0
 10 14  1  0  0  0  0
 10 11  2  0  0  0  0
 11 15  1  0  0  0  0
 13  5  1  0  0  0  0
 16 19  2  0  0  0  0
 16 20  1  0  0  0  0
 16 18  2  0  0  0  0
 17 16  1  0  0  0  0
 20 12  1  0  0  0  0
 21 17  1  0  0  0  0
 22 17  1  0  0  0  0
 23 17  1  0  0  0  0
M  RAD  3   2   2   3   3   4   2
M  END
