Coordinates from ORCA-job 4-NO2PhN2+~TfO-_B3LYPG-6-31G_dp-CH-Scan-d09-49-n800
 OpenBabel11261919523D

 23 22  0  0  0  0  0  0  0  0999 V2000
   -1.7399   -0.6602   -0.1001 C   0  0  0  0  0  0  0  0  0  0  0  0
   -3.0203   -1.1794    0.1354 N   0  0  0  0  0  0  0  0  0  0  0  0
   -4.0586   -1.5457    0.3142 N   0  0  0  0  0  0  0  0  0  0  0  0
   -1.7473    0.6717   -0.5287 C   0  0  0  0  0  0  0  0  0  0  0  0
   -0.4128    1.1238   -0.7394 C   0  0  0  0  0  0  0  0  0  0  0  0
    0.6851    0.3029   -0.5278 C   0  0  0  0  0  0  0  0  0  0  0  0
    2.0508    0.8411   -0.7682 N   0  0  0  0  0  0  0  0  0  0  0  0
    2.1452    2.0043   -1.1466 O   0  0  0  0  0  0  0  0  0  0  0  0
    2.9998    0.0848   -0.5651 O   0  0  0  0  0  0  0  0  0  0  0  0
    0.5950   -1.0356   -0.0915 C   0  0  0  0  0  0  0  0  0  0  0  0
   -0.6597   -1.5521    0.1361 C   0  0  0  0  0  0  0  0  0  0  0  0
   -4.1226    2.2317   -1.0115 H   0  0  0  0  0  0  0  0  0  0  0  0
   -0.2227    2.1382   -1.0764 H   0  0  0  0  0  0  0  0  0  0  0  0
    1.4959   -1.6161    0.0534 H   0  0  0  0  0  0  0  0  0  0  0  0
   -0.8072   -2.5733    0.4743 H   0  0  0  0  0  0  0  0  0  0  0  0
   -5.9922    1.4910   -1.7677 S   0  0  0  0  0  0  0  0  0  0  0  0
   -5.6934    1.6803   -3.5986 C   0  0  0  0  0  0  0  0  0  0  0  0
   -5.4968    0.1700   -1.3957 O   0  0  0  0  0  0  0  0  0  0  0  0
   -7.3467    1.9263   -1.4985 O   0  0  0  0  0  0  0  0  0  0  0  0
   -4.9944    2.6296   -1.2121 O   0  0  0  0  0  0  0  0  0  0  0  0
   -4.3973    1.4943   -3.8540 F   0  0  0  0  0  0  0  0  0  0  0  0
   -6.4129    0.7608   -4.2401 F   0  0  0  0  0  0  0  0  0  0  0  0
   -6.0592    2.8952   -3.9939 F   0  0  0  0  0  0  0  0  0  0  0  0
  1  2  1  0  0  0  0
  1 11  2  0  0  0  0
  2  3  1  0  0  0  0
  4  1  1  0  0  0  0
  5  4  2  0  0  0  0
  5  6  1  0  0  0  0
  6 10  2  0  0  0  0
  7  9  2  0  0  0  0
  7  6  1  0  0  0  0
  8  7  2  0  0  0  0
 10 14  1  0  0  0  0
 10 11  1  0  0  0  0
 11 15  1  0  0  0  0
 13  5  1  0  0  0  0
 16 19  2  0  0  0  0
 16 18  2  0  0  0  0
 16 20  1  0  0  0  0
 17 16  1  0  0  0  0
 20 12  1  0  0  0  0
 21 17  1  0  0  0  0
 22 17  1  0  0  0  0
 23 17  1  0  0  0  0
M  RAD  3   2   2   3   3   4   2
M  END
