Coordinates from ORCA-job 4-NO2PhN2+~TfO-_B3LYPG-6-31G_dp-CH-Scan-d09-49-n800
 OpenBabel11261919523D

 23 22  0  0  0  0  0  0  0  0999 V2000
   -1.9351   -0.6539   -0.1018 C   0  0  0  0  0  0  0  0  0  0  0  0
   -3.1787   -1.2255    0.1814 N   0  0  0  0  0  0  0  0  0  0  0  0
   -4.1895   -1.6437    0.3928 N   0  0  0  0  0  0  0  0  0  0  0  0
   -1.9921    0.6590   -0.5894 C   0  0  0  0  0  0  0  0  0  0  0  0
   -0.6890    1.1608   -0.8449 C   0  0  0  0  0  0  0  0  0  0  0  0
    0.4471    0.3972   -0.6172 C   0  0  0  0  0  0  0  0  0  0  0  0
    1.7831    0.9844   -0.9053 N   0  0  0  0  0  0  0  0  0  0  0  0
    1.8166    2.1318   -1.3366 O   0  0  0  0  0  0  0  0  0  0  0  0
    2.7661    0.2776   -0.6904 O   0  0  0  0  0  0  0  0  0  0  0  0
    0.4198   -0.9208   -0.1226 C   0  0  0  0  0  0  0  0  0  0  0  0
   -0.8087   -1.4794    0.1500 C   0  0  0  0  0  0  0  0  0  0  0  0
   -3.6684    1.7385   -0.9222 H   0  0  0  0  0  0  0  0  0  0  0  0
   -0.5541    2.1665   -1.2289 H   0  0  0  0  0  0  0  0  0  0  0  0
    1.3461   -1.4578    0.0312 H   0  0  0  0  0  0  0  0  0  0  0  0
   -0.9053   -2.4902    0.5329 H   0  0  0  0  0  0  0  0  0  0  0  0
   -5.6732    1.4190   -1.6900 S   0  0  0  0  0  0  0  0  0  0  0  0
   -5.3842    1.6794   -3.5106 C   0  0  0  0  0  0  0  0  0  0  0  0
   -5.4254   -0.0019   -1.4403 O   0  0  0  0  0  0  0  0  0  0  0  0
   -6.9430    2.0406   -1.3656 O   0  0  0  0  0  0  0  0  0  0  0  0
   -4.4985    2.3005   -1.0864 O   0  0  0  0  0  0  0  0  0  0  0  0
   -4.1500    1.2753   -3.8273 F   0  0  0  0  0  0  0  0  0  0  0  0
   -6.2741    0.9591   -4.1945 F   0  0  0  0  0  0  0  0  0  0  0  0
   -5.5214    2.9669   -3.8170 F   0  0  0  0  0  0  0  0  0  0  0  0
  1 11  1  0  0  0  0
  1  2  1  0  0  0  0
  2  3  1  0  0  0  0
  4  1  2  0  0  0  0
  5  6  2  0  0  0  0
  5  4  1  0  0  0  0
  6 10  1  0  0  0  0
  7  9  2  0  0  0  0
  7  6  1  0  0  0  0
  8  7  2  0  0  0  0
 10 14  1  0  0  0  0
 10 11  2  0  0  0  0
 11 15  1  0  0  0  0
 13  5  1  0  0  0  0
 16 18  2  0  0  0  0
 16 19  2  0  0  0  0
 16 20  1  0  0  0  0
 17 16  1  0  0  0  0
 20 12  1  0  0  0  0
 21 17  1  0  0  0  0
 22 17  1  0  0  0  0
 23 17  1  0  0  0  0
M  RAD  3   2   2   3   3   4   2
M  END
