Coordinates from ORCA-job 4-NO2PhN2+~Cl-_B3LYPG-6-31G_dp-CH-Scan-d09-49-n800
 OpenBabel11261919153D

 16 15  0  0  0  0  0  0  0  0999 V2000
   -1.0308    0.0560   -0.0609 C   0  0  0  0  0  0  0  0  0  0  0  0
   -2.4315    0.1889   -0.0691 N   0  0  0  0  0  0  0  0  0  0  0  0
   -3.5323    0.3804   -0.0830 N   0  0  0  0  0  0  0  0  0  0  0  0
   -0.3966    1.2929   -0.1718 C   0  0  0  0  0  0  0  0  0  0  0  0
    1.0193    1.1062   -0.1589 C   0  0  0  0  0  0  0  0  0  0  0  0
    1.5933   -0.1511   -0.0500 C   0  0  0  0  0  0  0  0  0  0  0  0
    3.0756   -0.2754   -0.0423 N   0  0  0  0  0  0  0  0  0  0  0  0
    3.7354    0.7544   -0.1439 O   0  0  0  0  0  0  0  0  0  0  0  0
    3.5497   -1.4064    0.0621 O   0  0  0  0  0  0  0  0  0  0  0  0
    0.8548   -1.3517    0.0579 C   0  0  0  0  0  0  0  0  0  0  0  0
   -0.5175   -1.2632    0.0541 C   0  0  0  0  0  0  0  0  0  0  0  0
   -3.3753    4.4647   -0.4383 H   0  0  0  0  0  0  0  0  0  0  0  0
    1.6881    1.9589   -0.2353 H   0  0  0  0  0  0  0  0  0  0  0  0
    1.3759   -2.2961    0.1401 H   0  0  0  0  0  0  0  0  0  0  0  0
   -1.1523   -2.1411    0.1339 H   0  0  0  0  0  0  0  0  0  0  0  0
   -4.5089    3.8611   -0.3647 Cl  0  0  0  0  0  0  0  0  0  0  0  0
  1 11  2  0  0  0  0
  2  1  1  0  0  0  0
  3  2  1  0  0  0  0
  4  5  2  0  0  0  0
  4  1  1  0  0  0  0
  5  6  1  0  0  0  0
  6  7  1  0  0  0  0
  6 10  2  0  0  0  0
  7  9  2  0  0  0  0
  8  7  2  0  0  0  0
 10 14  1  0  0  0  0
 11 10  1  0  0  0  0
 11 15  1  0  0  0  0
 12 16  1  0  0  0  0
 13  5  1  0  0  0  0
M  RAD  3   2   2   3   3   4   2
M  END
