Coordinates from ORCA-job 4-NO2PhN2+~Cl-_B3LYPG-6-31G_dp-CH-Scan-d09-49-n800
 OpenBabel11261919153D

 16 15  0  0  0  0  0  0  0  0999 V2000
   -1.1025    0.0495   -0.0511 C   0  0  0  0  0  0  0  0  0  0  0  0
   -2.5050    0.1446   -0.0523 N   0  0  0  0  0  0  0  0  0  0  0  0
   -3.6107    0.3053   -0.0598 N   0  0  0  0  0  0  0  0  0  0  0  0
   -0.4976    1.3028   -0.1562 C   0  0  0  0  0  0  0  0  0  0  0  0
    0.9217    1.1522   -0.1515 C   0  0  0  0  0  0  0  0  0  0  0  0
    1.5275   -0.0913   -0.0552 C   0  0  0  0  0  0  0  0  0  0  0  0
    3.0125   -0.1781   -0.0567 N   0  0  0  0  0  0  0  0  0  0  0  0
    3.6450    0.8687   -0.1570 O   0  0  0  0  0  0  0  0  0  0  0  0
    3.5150   -1.2970    0.0439 O   0  0  0  0  0  0  0  0  0  0  0  0
    0.8201   -1.3104    0.0481 C   0  0  0  0  0  0  0  0  0  0  0  0
   -0.5540   -1.2565    0.0520 C   0  0  0  0  0  0  0  0  0  0  0  0
   -2.8549    3.9837   -0.4028 H   0  0  0  0  0  0  0  0  0  0  0  0
    1.5685    2.0219   -0.2248 H   0  0  0  0  0  0  0  0  0  0  0  0
    1.3650   -2.2420    0.1209 H   0  0  0  0  0  0  0  0  0  0  0  0
   -1.1660   -2.1506    0.1290 H   0  0  0  0  0  0  0  0  0  0  0  0
   -4.1379    3.8758   -0.3967 Cl  0  0  0  0  0  0  0  0  0  0  0  0
  1 11  2  0  0  0  0
  2  1  1  0  0  0  0
  3  2  1  0  0  0  0
  4  5  2  0  0  0  0
  4  1  1  0  0  0  0
  5  6  1  0  0  0  0
  6 10  2  0  0  0  0
  7  6  1  0  0  0  0
  7  9  2  0  0  0  0
  8  7  2  0  0  0  0
 10 11  1  0  0  0  0
 10 14  1  0  0  0  0
 11 15  1  0  0  0  0
 12 16  1  0  0  0  0
 13  5  1  0  0  0  0
M  RAD  3   2   2   3   3   4   2
M  END
