Coordinates from ORCA-job 4-NO2PhN2+~Cl-_B3LYPG-6-31G_dp-CH-Scan-d09-49-n800
 OpenBabel11261919153D

 16 15  0  0  0  0  0  0  0  0999 V2000
   -1.3186    0.1055   -0.0608 C   0  0  0  0  0  0  0  0  0  0  0  0
   -2.7342    0.1198   -0.0549 N   0  0  0  0  0  0  0  0  0  0  0  0
   -3.6793    0.7762   -0.1074 N   0  0  0  0  0  0  0  0  0  0  0  0
   -0.6567    1.3264   -0.1707 C   0  0  0  0  0  0  0  0  0  0  0  0
    0.7350    1.3065   -0.1754 C   0  0  0  0  0  0  0  0  0  0  0  0
    1.3838    0.0761   -0.0705 C   0  0  0  0  0  0  0  0  0  0  0  0
    2.8667    0.0535   -0.0747 N   0  0  0  0  0  0  0  0  0  0  0  0
    3.4462    1.1301   -0.1787 O   0  0  0  0  0  0  0  0  0  0  0  0
    3.4137   -1.0418    0.0264 O   0  0  0  0  0  0  0  0  0  0  0  0
    0.7105   -1.1446    0.0394 C   0  0  0  0  0  0  0  0  0  0  0  0
   -0.6772   -1.1365    0.0449 C   0  0  0  0  0  0  0  0  0  0  0  0
   -1.5494    2.4532   -0.2658 H   0  0  0  0  0  0  0  0  0  0  0  0
    1.3217    2.2134   -0.2576 H   0  0  0  0  0  0  0  0  0  0  0  0
    1.2791   -2.0620    0.1175 H   0  0  0  0  0  0  0  0  0  0  0  0
   -1.2511   -2.0530    0.1282 H   0  0  0  0  0  0  0  0  0  0  0  0
   -3.3434    3.0556   -0.3103 Cl  0  0  0  0  0  0  0  0  0  0  0  0
  1  2  1  0  0  0  0
  1 11  2  0  0  0  0
  3  2  2  0  0  0  0
  4  1  1  0  0  0  0
  5  4  2  0  0  0  0
  5  6  1  0  0  0  0
  6 10  2  0  0  0  0
  7  6  1  0  0  0  0
  7  9  2  0  0  0  0
  8  7  2  0  0  0  0
 10 11  1  0  0  0  0
 10 14  1  0  0  0  0
 11 15  1  0  0  0  0
 12  4  1  0  0  0  0
 13  5  1  0  0  0  0
M  RAD  2   3   2  16   2
M  END
