Coordinates from ORCA-job 4-NO2PhN2+~Cl-_B3LYPG-6-31G_dp-CH-Scan-d09-49-n800
 OpenBabel11261919153D

 16 15  0  0  0  0  0  0  0  0999 V2000
   -1.1838    0.0009   -0.0492 C   0  0  0  0  0  0  0  0  0  0  0  0
   -2.5848    0.0360   -0.0463 N   0  0  0  0  0  0  0  0  0  0  0  0
   -3.6967    0.1420   -0.0485 N   0  0  0  0  0  0  0  0  0  0  0  0
   -0.6250    1.2770   -0.1602 C   0  0  0  0  0  0  0  0  0  0  0  0
    0.7974    1.1890   -0.1599 C   0  0  0  0  0  0  0  0  0  0  0  0
    1.4537   -0.0286   -0.0614 C   0  0  0  0  0  0  0  0  0  0  0  0
    2.9414   -0.0533   -0.0679 N   0  0  0  0  0  0  0  0  0  0  0  0
    3.5279    1.0186   -0.1757 O   0  0  0  0  0  0  0  0  0  0  0  0
    3.4891   -1.1500    0.0377 O   0  0  0  0  0  0  0  0  0  0  0  0
    0.7976   -1.2748    0.0481 C   0  0  0  0  0  0  0  0  0  0  0  0
   -0.5776   -1.2791    0.0563 C   0  0  0  0  0  0  0  0  0  0  0  0
   -2.4402    3.5010   -0.3566 H   0  0  0  0  0  0  0  0  0  0  0  0
    1.4055    2.0854   -0.2382 H   0  0  0  0  0  0  0  0  0  0  0  0
    1.3808   -2.1828    0.1222 H   0  0  0  0  0  0  0  0  0  0  0  0
   -1.1506   -2.1980    0.1382 H   0  0  0  0  0  0  0  0  0  0  0  0
   -3.5879    4.0950   -0.4088 Cl  0  0  0  0  0  0  0  0  0  0  0  0
  1  2  1  0  0  0  0
  1 11  2  0  0  0  0
  3  2  1  0  0  0  0
  4  5  2  0  0  0  0
  4  1  1  0  0  0  0
  5  6  1  0  0  0  0
  6 10  2  0  0  0  0
  7  6  1  0  0  0  0
  7  9  2  0  0  0  0
  8  7  2  0  0  0  0
 10 11  1  0  0  0  0
 10 14  1  0  0  0  0
 11 15  1  0  0  0  0
 13  5  1  0  0  0  0
 16 12  1  0  0  0  0
M  RAD  3   2   2   3   3   4   2
M  END
