Coordinates from ORCA-job 4-NO2PhN2+~Cl-_B3LYPG-6-31G_dp-CH-Scan-d09-49-n800
 OpenBabel11261919153D

 16 15  0  0  0  0  0  0  0  0999 V2000
   -1.0042    0.0649   -0.0698 C   0  0  0  0  0  0  0  0  0  0  0  0
   -2.4033    0.2141   -0.0825 N   0  0  0  0  0  0  0  0  0  0  0  0
   -3.5018    0.4188   -0.0958 N   0  0  0  0  0  0  0  0  0  0  0  0
   -0.3560    1.2938   -0.1862 C   0  0  0  0  0  0  0  0  0  0  0  0
    1.0578    1.0911   -0.1681 C   0  0  0  0  0  0  0  0  0  0  0  0
    1.6171   -0.1719   -0.0491 C   0  0  0  0  0  0  0  0  0  0  0  0
    3.0978   -0.3130   -0.0353 N   0  0  0  0  0  0  0  0  0  0  0  0
    3.7697    0.7092   -0.1348 O   0  0  0  0  0  0  0  0  0  0  0  0
    3.5587   -1.4489    0.0754 O   0  0  0  0  0  0  0  0  0  0  0  0
    0.8646   -1.3635    0.0635 C   0  0  0  0  0  0  0  0  0  0  0  0
   -0.5065   -1.2595    0.0545 C   0  0  0  0  0  0  0  0  0  0  0  0
   -3.5844    4.6024   -0.4401 H   0  0  0  0  0  0  0  0  0  0  0  0
    1.7364    1.9357   -0.2481 H   0  0  0  0  0  0  0  0  0  0  0  0
    1.3746   -2.3132    0.1529 H   0  0  0  0  0  0  0  0  0  0  0  0
   -1.1516   -2.1296    0.1371 H   0  0  0  0  0  0  0  0  0  0  0  0
   -4.6219    3.8479   -0.3439 Cl  0  0  0  0  0  0  0  0  0  0  0  0
  1 11  2  0  0  0  0
  2  1  1  0  0  0  0
  3  2  1  0  0  0  0
  4  5  2  0  0  0  0
  4  1  1  0  0  0  0
  5  6  1  0  0  0  0
  6  7  1  0  0  0  0
  6 10  2  0  0  0  0
  7  9  2  0  0  0  0
  8  7  2  0  0  0  0
 10 14  1  0  0  0  0
 11 10  1  0  0  0  0
 11 15  1  0  0  0  0
 12 16  1  0  0  0  0
 13  5  1  0  0  0  0
M  RAD  3   2   2   3   3   4   2
M  END
