Coordinates from ORCA-job 4-NO2PhN2+~Cl-_B3LYPG-6-31G_dp-CH-Scan-d09-49-n800
 OpenBabel11261919153D

 16 15  0  0  0  0  0  0  0  0999 V2000
   -1.2255    0.0329   -0.0538 C   0  0  0  0  0  0  0  0  0  0  0  0
   -2.6253    0.0622   -0.0511 N   0  0  0  0  0  0  0  0  0  0  0  0
   -3.7367    0.1672   -0.0557 N   0  0  0  0  0  0  0  0  0  0  0  0
   -0.6647    1.3084   -0.1669 C   0  0  0  0  0  0  0  0  0  0  0  0
    0.7558    1.2293   -0.1663 C   0  0  0  0  0  0  0  0  0  0  0  0
    1.4160    0.0138   -0.0647 C   0  0  0  0  0  0  0  0  0  0  0  0
    2.9038   -0.0051   -0.0704 N   0  0  0  0  0  0  0  0  0  0  0  0
    3.4852    1.0691   -0.1803 O   0  0  0  0  0  0  0  0  0  0  0  0
    3.4548   -1.1000    0.0340 O   0  0  0  0  0  0  0  0  0  0  0  0
    0.7638   -1.2332    0.0466 C   0  0  0  0  0  0  0  0  0  0  0  0
   -0.6119   -1.2426    0.0541 C   0  0  0  0  0  0  0  0  0  0  0  0
   -2.2012    3.1673   -0.3253 H   0  0  0  0  0  0  0  0  0  0  0  0
    1.3587    2.1287   -0.2466 H   0  0  0  0  0  0  0  0  0  0  0  0
    1.3496   -2.1394    0.1228 H   0  0  0  0  0  0  0  0  0  0  0  0
   -1.1811   -2.1635    0.1374 H   0  0  0  0  0  0  0  0  0  0  0  0
   -3.2946    3.8832   -0.3842 Cl  0  0  0  0  0  0  0  0  0  0  0  0
  1  2  1  0  0  0  0
  1 11  2  0  0  0  0
  3  2  1  0  0  0  0
  4  5  2  0  0  0  0
  4  1  1  0  0  0  0
  5  6  1  0  0  0  0
  6 10  2  0  0  0  0
  7  6  1  0  0  0  0
  7  9  2  0  0  0  0
  8  7  2  0  0  0  0
 10 11  1  0  0  0  0
 10 14  1  0  0  0  0
 11 15  1  0  0  0  0
 13  5  1  0  0  0  0
 16 12  1  0  0  0  0
M  RAD  3   2   2   3   3   4   2
M  END
