Coordinates from ORCA-job 4-NO2PhN2+~Cl-_B3LYPG-6-31G_dp-CH-Scan-d09-49-n800
 OpenBabel11261919153D

 16 15  0  0  0  0  0  0  0  0999 V2000
   -1.2216    0.0321   -0.0533 C   0  0  0  0  0  0  0  0  0  0  0  0
   -2.6217    0.0628   -0.0502 N   0  0  0  0  0  0  0  0  0  0  0  0
   -3.7331    0.1683   -0.0544 N   0  0  0  0  0  0  0  0  0  0  0  0
   -0.6603    1.3073   -0.1660 C   0  0  0  0  0  0  0  0  0  0  0  0
    0.7603    1.2266   -0.1657 C   0  0  0  0  0  0  0  0  0  0  0  0
    1.4194    0.0105   -0.0646 C   0  0  0  0  0  0  0  0  0  0  0  0
    2.9072   -0.0099   -0.0705 N   0  0  0  0  0  0  0  0  0  0  0  0
    3.4897    1.0639   -0.1790 O   0  0  0  0  0  0  0  0  0  0  0  0
    3.4573   -1.1052    0.0346 O   0  0  0  0  0  0  0  0  0  0  0  0
    0.7661   -1.2361    0.0463 C   0  0  0  0  0  0  0  0  0  0  0  0
   -0.6095   -1.2442    0.0540 C   0  0  0  0  0  0  0  0  0  0  0  0
   -2.2209    3.1915   -0.3282 H   0  0  0  0  0  0  0  0  0  0  0  0
    1.3642    2.1253   -0.2457 H   0  0  0  0  0  0  0  0  0  0  0  0
    1.3512   -2.1428    0.1220 H   0  0  0  0  0  0  0  0  0  0  0  0
   -1.1796   -2.1646    0.1369 H   0  0  0  0  0  0  0  0  0  0  0  0
   -3.3217    3.8928   -0.3866 Cl  0  0  0  0  0  0  0  0  0  0  0  0
  1  2  1  0  0  0  0
  1 11  2  0  0  0  0
  3  2  1  0  0  0  0
  4  5  2  0  0  0  0
  4  1  1  0  0  0  0
  5  6  1  0  0  0  0
  6 10  2  0  0  0  0
  7  6  1  0  0  0  0
  7  9  2  0  0  0  0
  8  7  2  0  0  0  0
 10 11  1  0  0  0  0
 10 14  1  0  0  0  0
 11 15  1  0  0  0  0
 13  5  1  0  0  0  0
 16 12  1  0  0  0  0
M  RAD  3   2   2   3   3   4   2
M  END
