Coordinates from ORCA-job 4-NO2PhN2+~Cl-_B3LYPG-6-31G_dp-CH-Scan-d09-49-n800
 OpenBabel11261919153D

 16 15  0  0  0  0  0  0  0  0999 V2000
   -1.0535    0.0507   -0.0567 C   0  0  0  0  0  0  0  0  0  0  0  0
   -2.4552    0.1702   -0.0626 N   0  0  0  0  0  0  0  0  0  0  0  0
   -3.5578    0.3513   -0.0709 N   0  0  0  0  0  0  0  0  0  0  0  0
   -0.4303    1.2937   -0.1645 C   0  0  0  0  0  0  0  0  0  0  0  0
    0.9871    1.1195   -0.1546 C   0  0  0  0  0  0  0  0  0  0  0  0
    1.5726   -0.1329   -0.0516 C   0  0  0  0  0  0  0  0  0  0  0  0
    3.0559   -0.2439   -0.0475 N   0  0  0  0  0  0  0  0  0  0  0  0
    3.7062    0.7921   -0.1478 O   0  0  0  0  0  0  0  0  0  0  0  0
    3.5403   -1.3707    0.0557 O   0  0  0  0  0  0  0  0  0  0  0  0
    0.8452   -1.3404    0.0537 C   0  0  0  0  0  0  0  0  0  0  0  0
   -0.5279   -1.2641    0.0529 C   0  0  0  0  0  0  0  0  0  0  0  0
   -3.2052    4.3392   -0.4360 H   0  0  0  0  0  0  0  0  0  0  0  0
    1.6483    1.9784   -0.2290 H   0  0  0  0  0  0  0  0  0  0  0  0
    1.3748   -2.2803    0.1316 H   0  0  0  0  0  0  0  0  0  0  0  0
   -1.1547   -2.1478    0.1310 H   0  0  0  0  0  0  0  0  0  0  0  0
   -4.3988    3.8635   -0.3740 Cl  0  0  0  0  0  0  0  0  0  0  0  0
  1 11  2  0  0  0  0
  2  1  1  0  0  0  0
  3  2  1  0  0  0  0
  4  5  2  0  0  0  0
  4  1  1  0  0  0  0
  5  6  1  0  0  0  0
  6  7  1  0  0  0  0
  6 10  2  0  0  0  0
  7  9  2  0  0  0  0
  8  7  2  0  0  0  0
 10 14  1  0  0  0  0
 11 10  1  0  0  0  0
 11 15  1  0  0  0  0
 12 16  1  0  0  0  0
 13  5  1  0  0  0  0
M  RAD  3   2   2   3   3   4   2
M  END
