Coordinates from ORCA-job 4-NO2PhN2+~Cl-_B3LYPG-6-31G_dp-CH-Scan-d09-49-n800
 OpenBabel11261919153D

 16 15  0  0  0  0  0  0  0  0999 V2000
   -1.3295    0.1310   -0.0627 C   0  0  0  0  0  0  0  0  0  0  0  0
   -2.7416    0.1130   -0.0551 N   0  0  0  0  0  0  0  0  0  0  0  0
   -3.6970    0.7709   -0.1085 N   0  0  0  0  0  0  0  0  0  0  0  0
   -0.6387    1.3397   -0.1714 C   0  0  0  0  0  0  0  0  0  0  0  0
    0.7504    1.3124   -0.1756 C   0  0  0  0  0  0  0  0  0  0  0  0
    1.3906    0.0774   -0.0705 C   0  0  0  0  0  0  0  0  0  0  0  0
    2.8720    0.0444   -0.0744 N   0  0  0  0  0  0  0  0  0  0  0  0
    3.4588    1.1172   -0.1787 O   0  0  0  0  0  0  0  0  0  0  0  0
    3.4109   -1.0547    0.0271 O   0  0  0  0  0  0  0  0  0  0  0  0
    0.7043   -1.1337    0.0389 C   0  0  0  0  0  0  0  0  0  0  0  0
   -0.6839   -1.1094    0.0430 C   0  0  0  0  0  0  0  0  0  0  0  0
   -1.4266    2.4633   -0.2659 H   0  0  0  0  0  0  0  0  0  0  0  0
    1.3410    2.2161   -0.2578 H   0  0  0  0  0  0  0  0  0  0  0  0
    1.2616   -2.0581    0.1178 H   0  0  0  0  0  0  0  0  0  0  0  0
   -1.2657   -2.0208    0.1259 H   0  0  0  0  0  0  0  0  0  0  0  0
   -3.4598    2.9699   -0.3022 Cl  0  0  0  0  0  0  0  0  0  0  0  0
  1  2  1  0  0  0  0
  1 11  2  0  0  0  0
  3  2  2  0  0  0  0
  4  1  1  0  0  0  0
  5  4  2  0  0  0  0
  5  6  1  0  0  0  0
  6 10  2  0  0  0  0
  7  6  1  0  0  0  0
  7  9  2  0  0  0  0
  8  7  2  0  0  0  0
 10 11  1  0  0  0  0
 10 14  1  0  0  0  0
 11 15  1  0  0  0  0
 12  4  1  0  0  0  0
 13  5  1  0  0  0  0
M  RAD  2   3   2  16   2
M  END
