Coordinates from ORCA-job 4-NO2PhN2+~Cl-_B3LYPG-6-31G_dp-CH-Scan-d09-49-n800
 OpenBabel11261919153D

 16 15  0  0  0  0  0  0  0  0999 V2000
   -1.2363    0.0398   -0.0545 C   0  0  0  0  0  0  0  0  0  0  0  0
   -2.6358    0.0674   -0.0515 N   0  0  0  0  0  0  0  0  0  0  0  0
   -3.7470    0.1734   -0.0561 N   0  0  0  0  0  0  0  0  0  0  0  0
   -0.6752    1.3153   -0.1679 C   0  0  0  0  0  0  0  0  0  0  0  0
    0.7447    1.2392   -0.1676 C   0  0  0  0  0  0  0  0  0  0  0  0
    1.4062    0.0244   -0.0658 C   0  0  0  0  0  0  0  0  0  0  0  0
    2.8942    0.0075   -0.0718 N   0  0  0  0  0  0  0  0  0  0  0  0
    3.4738    1.0827   -0.1804 O   0  0  0  0  0  0  0  0  0  0  0  0
    3.4464   -1.0866    0.0332 O   0  0  0  0  0  0  0  0  0  0  0  0
    0.7555   -1.2230    0.0458 C   0  0  0  0  0  0  0  0  0  0  0  0
   -0.6203   -1.2342    0.0534 C   0  0  0  0  0  0  0  0  0  0  0  0
   -2.1390    3.0853   -0.3182 H   0  0  0  0  0  0  0  0  0  0  0  0
    1.3457    2.1397   -0.2483 H   0  0  0  0  0  0  0  0  0  0  0  0
    1.3423   -2.1285    0.1220 H   0  0  0  0  0  0  0  0  0  0  0  0
   -1.1882   -2.1559    0.1369 H   0  0  0  0  0  0  0  0  0  0  0  0
   -3.2202    3.8318   -0.3796 Cl  0  0  0  0  0  0  0  0  0  0  0  0
  1  2  1  0  0  0  0
  1 11  2  0  0  0  0
  3  2  1  0  0  0  0
  4  5  2  0  0  0  0
  4  1  1  0  0  0  0
  5  6  1  0  0  0  0
  6 10  2  0  0  0  0
  7  6  1  0  0  0  0
  7  9  2  0  0  0  0
  8  7  2  0  0  0  0
 10 11  1  0  0  0  0
 10 14  1  0  0  0  0
 11 15  1  0  0  0  0
 13  5  1  0  0  0  0
 16 12  1  0  0  0  0
M  RAD  3   2   2   3   3   4   2
M  END
