Coordinates from ORCA-job 4-NO2PhN2+~Cl-_B3LYPG-6-31G_dp-CH-Scan-d09-49-n800
 OpenBabel11261919153D

 16 15  0  0  0  0  0  0  0  0999 V2000
   -0.9949    0.0695   -0.0683 C   0  0  0  0  0  0  0  0  0  0  0  0
   -2.3934    0.2249   -0.0800 N   0  0  0  0  0  0  0  0  0  0  0  0
   -3.4912    0.4332   -0.0970 N   0  0  0  0  0  0  0  0  0  0  0  0
   -0.3413    1.2955   -0.1840 C   0  0  0  0  0  0  0  0  0  0  0  0
    1.0716    1.0866   -0.1665 C   0  0  0  0  0  0  0  0  0  0  0  0
    1.6254   -0.1788   -0.0486 C   0  0  0  0  0  0  0  0  0  0  0  0
    3.1054   -0.3265   -0.0355 N   0  0  0  0  0  0  0  0  0  0  0  0
    3.7819    0.6929   -0.1332 O   0  0  0  0  0  0  0  0  0  0  0  0
    3.5614   -1.4646    0.0736 O   0  0  0  0  0  0  0  0  0  0  0  0
    0.8677   -1.3672    0.0632 C   0  0  0  0  0  0  0  0  0  0  0  0
   -0.5030   -1.2572    0.0549 C   0  0  0  0  0  0  0  0  0  0  0  0
   -3.6550    4.6395   -0.4417 H   0  0  0  0  0  0  0  0  0  0  0  0
    1.7539    1.9283   -0.2462 H   0  0  0  0  0  0  0  0  0  0  0  0
    1.3735   -2.3193    0.1517 H   0  0  0  0  0  0  0  0  0  0  0  0
   -1.1518   -2.1245    0.1369 H   0  0  0  0  0  0  0  0  0  0  0  0
   -4.6634    3.8462   -0.3497 Cl  0  0  0  0  0  0  0  0  0  0  0  0
  1 11  2  0  0  0  0
  2  1  1  0  0  0  0
  3  2  1  0  0  0  0
  4  5  2  0  0  0  0
  4  1  1  0  0  0  0
  5  6  1  0  0  0  0
  6  7  1  0  0  0  0
  6 10  2  0  0  0  0
  7  9  2  0  0  0  0
  8  7  2  0  0  0  0
 10 14  1  0  0  0  0
 11 10  1  0  0  0  0
 11 15  1  0  0  0  0
 12 16  1  0  0  0  0
 13  5  1  0  0  0  0
M  RAD  3   2   2   3   3   4   2
M  END
