Coordinates from ORCA-job 4-NO2PhN2+~Cl-_B3LYPG-6-31G_dp-CH-Scan-d09-49-n800
 OpenBabel11261919153D

 16 15  0  0  0  0  0  0  0  0999 V2000
   -1.1281    0.0011   -0.0410 C   0  0  0  0  0  0  0  0  0  0  0  0
   -2.5307    0.0648   -0.0379 N   0  0  0  0  0  0  0  0  0  0  0  0
   -3.6401    0.1980   -0.0415 N   0  0  0  0  0  0  0  0  0  0  0  0
   -0.5517    1.2684   -0.1427 C   0  0  0  0  0  0  0  0  0  0  0  0
    0.8704    1.1519   -0.1433 C   0  0  0  0  0  0  0  0  0  0  0  0
    1.5050   -0.0776   -0.0549 C   0  0  0  0  0  0  0  0  0  0  0  0
    2.9918   -0.1297   -0.0626 N   0  0  0  0  0  0  0  0  0  0  0  0
    3.5988    0.9313   -0.1690 O   0  0  0  0  0  0  0  0  0  0  0  0
    3.5202   -1.2372    0.0303 O   0  0  0  0  0  0  0  0  0  0  0  0
    0.8267   -1.3132    0.0456 C   0  0  0  0  0  0  0  0  0  0  0  0
   -0.5483   -1.2920    0.0547 C   0  0  0  0  0  0  0  0  0  0  0  0
   -2.7277    3.8795   -0.3934 H   0  0  0  0  0  0  0  0  0  0  0  0
    1.4961    2.0371   -0.2147 H   0  0  0  0  0  0  0  0  0  0  0  0
    1.3936   -2.2321    0.1125 H   0  0  0  0  0  0  0  0  0  0  0  0
   -1.1388   -2.2004    0.1302 H   0  0  0  0  0  0  0  0  0  0  0  0
   -3.9902    4.1285   -0.4426 Cl  0  0  0  0  0  0  0  0  0  0  0  0
  1  2  1  0  0  0  0
  1 11  2  0  0  0  0
  3  2  1  0  0  0  0
  4  1  1  0  0  0  0
  5  4  2  0  0  0  0
  5  6  1  0  0  0  0
  6 10  2  0  0  0  0
  7  6  1  0  0  0  0
  7  9  2  0  0  0  0
  8  7  2  0  0  0  0
 10 11  1  0  0  0  0
 10 14  1  0  0  0  0
 11 15  1  0  0  0  0
 13  5  1  0  0  0  0
 16 12  1  0  0  0  0
M  RAD  3   2   2   3   3   4   2
M  END
