Coordinates from ORCA-job 4-NO2PhN2+~Cl-_B3LYPG-6-31G_dp-CH-Scan-d09-49-n800
 OpenBabel11261919153D

 16 15  0  0  0  0  0  0  0  0999 V2000
   -1.1709   -0.0093   -0.0472 C   0  0  0  0  0  0  0  0  0  0  0  0
   -2.5723    0.0285   -0.0443 N   0  0  0  0  0  0  0  0  0  0  0  0
   -3.6841    0.1374   -0.0481 N   0  0  0  0  0  0  0  0  0  0  0  0
   -0.6124    1.2665   -0.1574 C   0  0  0  0  0  0  0  0  0  0  0  0
    0.8105    1.1761   -0.1572 C   0  0  0  0  0  0  0  0  0  0  0  0
    1.4656   -0.0421   -0.0599 C   0  0  0  0  0  0  0  0  0  0  0  0
    2.9533   -0.0685   -0.0668 N   0  0  0  0  0  0  0  0  0  0  0  0
    3.5412    1.0027   -0.1752 O   0  0  0  0  0  0  0  0  0  0  0  0
    3.5000   -1.1658    0.0374 O   0  0  0  0  0  0  0  0  0  0  0  0
    0.8083   -1.2878    0.0487 C   0  0  0  0  0  0  0  0  0  0  0  0
   -0.5668   -1.2905    0.0572 C   0  0  0  0  0  0  0  0  0  0  0  0
   -2.5144    3.6064   -0.3660 H   0  0  0  0  0  0  0  0  0  0  0  0
    1.4200    2.0717   -0.2349 H   0  0  0  0  0  0  0  0  0  0  0  0
    1.3907   -2.1965    0.1221 H   0  0  0  0  0  0  0  0  0  0  0  0
   -1.1411   -2.2086    0.1387 H   0  0  0  0  0  0  0  0  0  0  0  0
   -3.6806    4.1582   -0.4172 Cl  0  0  0  0  0  0  0  0  0  0  0  0
  1  2  1  0  0  0  0
  1 11  2  0  0  0  0
  3  2  1  0  0  0  0
  4  5  2  0  0  0  0
  4  1  1  0  0  0  0
  5  6  1  0  0  0  0
  6 10  2  0  0  0  0
  7  6  1  0  0  0  0
  7  9  2  0  0  0  0
  8  7  2  0  0  0  0
 10 11  1  0  0  0  0
 10 14  1  0  0  0  0
 11 15  1  0  0  0  0
 13  5  1  0  0  0  0
 16 12  1  0  0  0  0
M  RAD  3   2   2   3   3   4   2
M  END
