Coordinates from ORCA-job 4-NO2PhN2+~Cl-_B3LYPG-6-31G_dp-CH-Scan-d09-49-n800
 OpenBabel11261919153D

 16 15  0  0  0  0  0  0  0  0999 V2000
   -1.1641   -0.0108   -0.0467 C   0  0  0  0  0  0  0  0  0  0  0  0
   -2.5660    0.0288   -0.0437 N   0  0  0  0  0  0  0  0  0  0  0  0
   -3.6777    0.1390   -0.0470 N   0  0  0  0  0  0  0  0  0  0  0  0
   -0.6039    1.2638   -0.1565 C   0  0  0  0  0  0  0  0  0  0  0  0
    0.8189    1.1710   -0.1566 C   0  0  0  0  0  0  0  0  0  0  0  0
    1.4720   -0.0482   -0.0598 C   0  0  0  0  0  0  0  0  0  0  0  0
    2.9595   -0.0773   -0.0670 N   0  0  0  0  0  0  0  0  0  0  0  0
    3.5495    0.9930   -0.1734 O   0  0  0  0  0  0  0  0  0  0  0  0
    3.5045   -1.1754    0.0389 O   0  0  0  0  0  0  0  0  0  0  0  0
    0.8126   -1.2931    0.0485 C   0  0  0  0  0  0  0  0  0  0  0  0
   -0.5625   -1.2934    0.0572 C   0  0  0  0  0  0  0  0  0  0  0  0
   -2.5526    3.6494   -0.3697 H   0  0  0  0  0  0  0  0  0  0  0  0
    1.4300    2.0656   -0.2339 H   0  0  0  0  0  0  0  0  0  0  0  0
    1.3934   -2.2027    0.1215 H   0  0  0  0  0  0  0  0  0  0  0  0
   -1.1384   -2.2106    0.1384 H   0  0  0  0  0  0  0  0  0  0  0  0
   -3.7281    4.1791   -0.4205 Cl  0  0  0  0  0  0  0  0  0  0  0  0
  1  2  1  0  0  0  0
  1 11  2  0  0  0  0
  3  2  1  0  0  0  0
  4  1  1  0  0  0  0
  5  4  2  0  0  0  0
  5  6  1  0  0  0  0
  6 10  2  0  0  0  0
  7  6  1  0  0  0  0
  7  9  2  0  0  0  0
  8  7  2  0  0  0  0
 10 11  1  0  0  0  0
 10 14  1  0  0  0  0
 11 15  1  0  0  0  0
 13  5  1  0  0  0  0
 16 12  1  0  0  0  0
M  RAD  3   2   2   3   3   4   2
M  END
