Coordinates from ORCA-job 4-NO2PhN2+~Cl-_B3LYPG-6-31G_dp-CH-Scan-d09-49-n800
 OpenBabel11261919153D

 16 15  0  0  0  0  0  0  0  0999 V2000
   -1.2857    0.0752   -0.0581 C   0  0  0  0  0  0  0  0  0  0  0  0
   -2.6864    0.1116   -0.0558 N   0  0  0  0  0  0  0  0  0  0  0  0
   -3.7866    0.2929   -0.0669 N   0  0  0  0  0  0  0  0  0  0  0  0
   -0.7135    1.3445   -0.1719 C   0  0  0  0  0  0  0  0  0  0  0  0
    0.6996    1.2884   -0.1731 C   0  0  0  0  0  0  0  0  0  0  0  0
    1.3646    0.0739   -0.0700 C   0  0  0  0  0  0  0  0  0  0  0  0
    2.8526    0.0640   -0.0761 N   0  0  0  0  0  0  0  0  0  0  0  0
    3.4246    1.1428   -0.1838 O   0  0  0  0  0  0  0  0  0  0  0  0
    3.4081   -1.0278    0.0277 O   0  0  0  0  0  0  0  0  0  0  0  0
    0.7171   -1.1721    0.0421 C   0  0  0  0  0  0  0  0  0  0  0  0
   -0.6609   -1.1896    0.0499 C   0  0  0  0  0  0  0  0  0  0  0  0
   -1.8177    2.6536   -0.2811 H   0  0  0  0  0  0  0  0  0  0  0  0
    1.2904    2.1950   -0.2552 H   0  0  0  0  0  0  0  0  0  0  0  0
    1.3062   -2.0762    0.1189 H   0  0  0  0  0  0  0  0  0  0  0  0
   -1.2243   -2.1135    0.1338 H   0  0  0  0  0  0  0  0  0  0  0  0
   -2.9413    3.5157   -0.3507 Cl  0  0  0  0  0  0  0  0  0  0  0  0
  1  2  1  0  0  0  0
  1 11  2  0  0  0  0
  3  2  1  0  0  0  0
  4  1  1  0  0  0  0
  5  4  2  0  0  0  0
  5  6  1  0  0  0  0
  6 10  2  0  0  0  0
  7  6  1  0  0  0  0
  7  9  2  0  0  0  0
  8  7  2  0  0  0  0
 10 11  1  0  0  0  0
 10 14  1  0  0  0  0
 11 15  1  0  0  0  0
 13  5  1  0  0  0  0
 16 12  1  0  0  0  0
M  RAD  3   2   2   3   3   4   2
M  END
