Coordinates from ORCA-job 4-NO2PhN2+~Cl-_B3LYPG-6-31G_dp-CH-Scan-d09-49-n800
 OpenBabel11261919153D

 16 15  0  0  0  0  0  0  0  0999 V2000
   -1.0405    0.0531   -0.0607 C   0  0  0  0  0  0  0  0  0  0  0  0
   -2.4417    0.1803   -0.0686 N   0  0  0  0  0  0  0  0  0  0  0  0
   -3.5433    0.3674   -0.0820 N   0  0  0  0  0  0  0  0  0  0  0  0
   -0.4113    1.2926   -0.1719 C   0  0  0  0  0  0  0  0  0  0  0  0
    1.0053    1.1116   -0.1596 C   0  0  0  0  0  0  0  0  0  0  0  0
    1.5844   -0.1434   -0.0511 C   0  0  0  0  0  0  0  0  0  0  0  0
    3.0672   -0.2617   -0.0443 N   0  0  0  0  0  0  0  0  0  0  0  0
    3.7227    0.7709   -0.1450 O   0  0  0  0  0  0  0  0  0  0  0  0
    3.5459   -1.3905    0.0629 O   0  0  0  0  0  0  0  0  0  0  0  0
    0.8509   -1.3469    0.0572 C   0  0  0  0  0  0  0  0  0  0  0  0
   -0.5218   -1.2640    0.0541 C   0  0  0  0  0  0  0  0  0  0  0  0
   -3.3008    4.4108   -0.4338 H   0  0  0  0  0  0  0  0  0  0  0  0
    1.6707    1.9669   -0.2363 H   0  0  0  0  0  0  0  0  0  0  0  0
    1.3758   -2.2892    0.1392 H   0  0  0  0  0  0  0  0  0  0  0  0
   -1.1531   -2.1443    0.1342 H   0  0  0  0  0  0  0  0  0  0  0  0
   -4.4635    3.8648   -0.3644 Cl  0  0  0  0  0  0  0  0  0  0  0  0
  1 11  2  0  0  0  0
  2  1  1  0  0  0  0
  3  2  1  0  0  0  0
  4  5  2  0  0  0  0
  4  1  1  0  0  0  0
  5  6  1  0  0  0  0
  6  7  1  0  0  0  0
  6 10  2  0  0  0  0
  7  9  2  0  0  0  0
  8  7  2  0  0  0  0
 10 14  1  0  0  0  0
 11 10  1  0  0  0  0
 11 15  1  0  0  0  0
 12 16  1  0  0  0  0
 13  5  1  0  0  0  0
M  RAD  3   2   2   3   3   4   2
M  END
