Coordinates from ORCA-job 4-NO2PhN2+~Cl-_B3LYPG-6-31G_dp-CH-Scan-d09-49-n800
 OpenBabel11261919153D

 16 15  0  0  0  0  0  0  0  0999 V2000
   -1.0915    0.0487   -0.0506 C   0  0  0  0  0  0  0  0  0  0  0  0
   -2.4939    0.1491   -0.0522 N   0  0  0  0  0  0  0  0  0  0  0  0
   -3.5989    0.3142   -0.0599 N   0  0  0  0  0  0  0  0  0  0  0  0
   -0.4833    1.3001   -0.1552 C   0  0  0  0  0  0  0  0  0  0  0  0
    0.9358    1.1445   -0.1503 C   0  0  0  0  0  0  0  0  0  0  0  0
    1.5375   -0.1009   -0.0542 C   0  0  0  0  0  0  0  0  0  0  0  0
    3.0222   -0.1927   -0.0555 N   0  0  0  0  0  0  0  0  0  0  0  0
    3.6584    0.8520   -0.1550 O   0  0  0  0  0  0  0  0  0  0  0  0
    3.5211   -1.3133    0.0444 O   0  0  0  0  0  0  0  0  0  0  0  0
    0.8261   -1.3178    0.0484 C   0  0  0  0  0  0  0  0  0  0  0  0
   -0.5479   -1.2592    0.0520 C   0  0  0  0  0  0  0  0  0  0  0  0
   -2.9296    4.0754   -0.4138 H   0  0  0  0  0  0  0  0  0  0  0  0
    1.5856    2.0121   -0.2230 H   0  0  0  0  0  0  0  0  0  0  0  0
    1.3679   -2.2512    0.1209 H   0  0  0  0  0  0  0  0  0  0  0  0
   -1.1630   -2.1512    0.1286 H   0  0  0  0  0  0  0  0  0  0  0  0
   -4.1995    3.8686   -0.3950 Cl  0  0  0  0  0  0  0  0  0  0  0  0
  1 11  2  0  0  0  0
  2  1  1  0  0  0  0
  3  2  1  0  0  0  0
  4  5  2  0  0  0  0
  4  1  1  0  0  0  0
  5  6  1  0  0  0  0
  6 10  2  0  0  0  0
  7  6  1  0  0  0  0
  7  9  2  0  0  0  0
  8  7  2  0  0  0  0
 10 11  1  0  0  0  0
 10 14  1  0  0  0  0
 11 15  1  0  0  0  0
 12 16  1  0  0  0  0
 13  5  1  0  0  0  0
M  RAD  3   2   2   3   3   4   2
M  END
