Coordinates from ORCA-job 4-NO2PhN2+~Cl-_B3LYPG-6-31G_dp-CH-Scan-d09-49-n800
 OpenBabel11261919153D

 16 15  0  0  0  0  0  0  0  0999 V2000
   -1.0249    0.0578   -0.0643 C   0  0  0  0  0  0  0  0  0  0  0  0
   -2.4253    0.1943   -0.0740 N   0  0  0  0  0  0  0  0  0  0  0  0
   -3.5256    0.3886   -0.0890 N   0  0  0  0  0  0  0  0  0  0  0  0
   -0.3877    1.2928   -0.1779 C   0  0  0  0  0  0  0  0  0  0  0  0
    1.0278    1.1026   -0.1633 C   0  0  0  0  0  0  0  0  0  0  0  0
    1.5986   -0.1558   -0.0503 C   0  0  0  0  0  0  0  0  0  0  0  0
    3.0805   -0.2837   -0.0406 N   0  0  0  0  0  0  0  0  0  0  0  0
    3.7430    0.7445   -0.1409 O   0  0  0  0  0  0  0  0  0  0  0  0
    3.5517   -1.4156    0.0683 O   0  0  0  0  0  0  0  0  0  0  0  0
    0.8570   -1.3543    0.0600 C   0  0  0  0  0  0  0  0  0  0  0  0
   -0.5150   -1.2625    0.0545 C   0  0  0  0  0  0  0  0  0  0  0  0
   -3.4209    4.4964   -0.4363 H   0  0  0  0  0  0  0  0  0  0  0  0
    1.6988    1.9534   -0.2415 H   0  0  0  0  0  0  0  0  0  0  0  0
    1.3757   -2.2997    0.1451 H   0  0  0  0  0  0  0  0  0  0  0  0
   -1.1521   -2.1385    0.1358 H   0  0  0  0  0  0  0  0  0  0  0  0
   -4.5348    3.8580   -0.3559 Cl  0  0  0  0  0  0  0  0  0  0  0  0
  1 11  2  0  0  0  0
  2  1  1  0  0  0  0
  3  2  1  0  0  0  0
  4  5  2  0  0  0  0
  4  1  1  0  0  0  0
  5  6  1  0  0  0  0
  6  7  1  0  0  0  0
  6 10  2  0  0  0  0
  7  9  2  0  0  0  0
  8  7  2  0  0  0  0
 10 14  1  0  0  0  0
 11 10  1  0  0  0  0
 11 15  1  0  0  0  0
 12 16  1  0  0  0  0
 13  5  1  0  0  0  0
M  RAD  3   2   2   3   3   4   2
M  END
