Coordinates from ORCA-job 4-NO2PhN2+~Cl-_B3LYPG-6-31G_dp-CH-Scan-d09-49-n800
 OpenBabel11261919153D

 16 15  0  0  0  0  0  0  0  0999 V2000
   -1.2651    0.0584   -0.0562 C   0  0  0  0  0  0  0  0  0  0  0  0
   -2.6643    0.0824   -0.0528 N   0  0  0  0  0  0  0  0  0  0  0  0
   -3.7740    0.1965   -0.0581 N   0  0  0  0  0  0  0  0  0  0  0  0
   -0.7016    1.3330   -0.1700 C   0  0  0  0  0  0  0  0  0  0  0  0
    0.7159    1.2658   -0.1703 C   0  0  0  0  0  0  0  0  0  0  0  0
    1.3809    0.0525   -0.0681 C   0  0  0  0  0  0  0  0  0  0  0  0
    2.8689    0.0408   -0.0744 N   0  0  0  0  0  0  0  0  0  0  0  0
    3.4438    1.1183   -0.1822 O   0  0  0  0  0  0  0  0  0  0  0  0
    3.4241   -1.0517    0.0295 O   0  0  0  0  0  0  0  0  0  0  0  0
    0.7336   -1.1955    0.0437 C   0  0  0  0  0  0  0  0  0  0  0  0
   -0.6428   -1.2113    0.0516 C   0  0  0  0  0  0  0  0  0  0  0  0
   -1.9671    2.8651   -0.2993 H   0  0  0  0  0  0  0  0  0  0  0  0
    1.3115    2.1696   -0.2517 H   0  0  0  0  0  0  0  0  0  0  0  0
    1.3227   -2.0996    0.1200 H   0  0  0  0  0  0  0  0  0  0  0  0
   -1.2074   -2.1347    0.1353 H   0  0  0  0  0  0  0  0  0  0  0  0
   -3.0322    3.6887   -0.3673 Cl  0  0  0  0  0  0  0  0  0  0  0  0
  1  2  1  0  0  0  0
  1 11  2  0  0  0  0
  3  2  1  0  0  0  0
  4  1  1  0  0  0  0
  5  4  2  0  0  0  0
  5  6  1  0  0  0  0
  6 10  2  0  0  0  0
  7  6  1  0  0  0  0
  7  9  2  0  0  0  0
  8  7  2  0  0  0  0
 10 11  1  0  0  0  0
 10 14  1  0  0  0  0
 11 15  1  0  0  0  0
 13  5  1  0  0  0  0
 16 12  1  0  0  0  0
M  RAD  3   2   2   3   3   4   2
M  END
