Coordinates from ORCA-job 4-NO2PhN2+~Cl-_B3LYPG-6-31G_dp-CH-Scan-d09-49-n800
 OpenBabel11261919153D

 16 15  0  0  0  0  0  0  0  0999 V2000
   -1.2859    0.0753   -0.0582 C   0  0  0  0  0  0  0  0  0  0  0  0
   -2.6867    0.1127   -0.0558 N   0  0  0  0  0  0  0  0  0  0  0  0
   -3.7862    0.2983   -0.0673 N   0  0  0  0  0  0  0  0  0  0  0  0
   -0.7134    1.3445   -0.1719 C   0  0  0  0  0  0  0  0  0  0  0  0
    0.6995    1.2887   -0.1732 C   0  0  0  0  0  0  0  0  0  0  0  0
    1.3645    0.0742   -0.0700 C   0  0  0  0  0  0  0  0  0  0  0  0
    2.8524    0.0643   -0.0760 N   0  0  0  0  0  0  0  0  0  0  0  0
    3.4244    1.1431   -0.1838 O   0  0  0  0  0  0  0  0  0  0  0  0
    3.4080   -1.0275    0.0277 O   0  0  0  0  0  0  0  0  0  0  0  0
    0.7170   -1.1718    0.0420 C   0  0  0  0  0  0  0  0  0  0  0  0
   -0.6611   -1.1893    0.0498 C   0  0  0  0  0  0  0  0  0  0  0  0
   -1.8153    2.6490   -0.2807 H   0  0  0  0  0  0  0  0  0  0  0  0
    1.2902    2.1954   -0.2553 H   0  0  0  0  0  0  0  0  0  0  0  0
    1.3060   -2.0759    0.1189 H   0  0  0  0  0  0  0  0  0  0  0  0
   -1.2245   -2.1132    0.1337 H   0  0  0  0  0  0  0  0  0  0  0  0
   -2.9420    3.5105   -0.3503 Cl  0  0  0  0  0  0  0  0  0  0  0  0
  1  2  1  0  0  0  0
  1 11  2  0  0  0  0
  3  2  1  0  0  0  0
  4  1  1  0  0  0  0
  5  4  2  0  0  0  0
  5  6  1  0  0  0  0
  6 10  2  0  0  0  0
  7  6  1  0  0  0  0
  7  9  2  0  0  0  0
  8  7  2  0  0  0  0
 10 11  1  0  0  0  0
 10 14  1  0  0  0  0
 11 15  1  0  0  0  0
 13  5  1  0  0  0  0
 16 12  1  0  0  0  0
M  RAD  3   2   2   3   3   4   2
M  END
