Coordinates from ORCA-job 4-NO2PhN2+~Cl-_B3LYPG-6-31G_dp-CH-Scan-d09-49-n800
 OpenBabel11261919153D

 16 16  0  0  0  0  0  0  0  0999 V2000
   -1.3413    0.1556   -0.0654 C   0  0  0  0  0  0  0  0  0  0  0  0
   -2.7515    0.1052   -0.0550 N   0  0  0  0  0  0  0  0  0  0  0  0
   -3.7168    0.7622   -0.1076 N   0  0  0  0  0  0  0  0  0  0  0  0
   -0.6334    1.3592   -0.1741 C   0  0  0  0  0  0  0  0  0  0  0  0
    0.7558    1.3187   -0.1771 C   0  0  0  0  0  0  0  0  0  0  0  0
    1.3913    0.0823   -0.0712 C   0  0  0  0  0  0  0  0  0  0  0  0
    2.8714    0.0431   -0.0740 N   0  0  0  0  0  0  0  0  0  0  0  0
    3.4631    1.1136   -0.1776 O   0  0  0  0  0  0  0  0  0  0  0  0
    3.4052   -1.0583    0.0282 O   0  0  0  0  0  0  0  0  0  0  0  0
    0.6960   -1.1218    0.0379 C   0  0  0  0  0  0  0  0  0  0  0  0
   -0.6921   -1.0837    0.0406 C   0  0  0  0  0  0  0  0  0  0  0  0
   -1.2896    2.4257   -0.2643 H   0  0  0  0  0  0  0  0  0  0  0  0
    1.3498    2.2201   -0.2592 H   0  0  0  0  0  0  0  0  0  0  0  0
    1.2441   -2.0516    0.1179 H   0  0  0  0  0  0  0  0  0  0  0  0
   -1.2805   -1.9906    0.1233 H   0  0  0  0  0  0  0  0  0  0  0  0
   -3.5245    2.8987   -0.2929 Cl  0  0  0  0  0  0  0  0  0  0  0  0
  1  2  1  0  0  0  0
  1 11  2  0  0  0  0
  3  2  2  0  0  0  0
  4  1  1  0  0  0  0
  5  4  2  0  0  0  0
  5  6  1  0  0  0  0
  6 10  2  0  0  0  0
  7  6  1  0  0  0  0
  7  9  2  0  0  0  0
  8  7  2  0  0  0  0
 10 11  1  0  0  0  0
 10 14  1  0  0  0  0
 11 15  1  0  0  0  0
 12  4  1  0  0  0  0
 13  5  1  0  0  0  0
 16  3  1  0  0  0  0
M  END
