Coordinates from ORCA-job 4-NO2PhN2+~Cl-_B3LYPG-6-31G_dp-CH-Scan-d09-49-n800
 OpenBabel11261919153D

 16 15  0  0  0  0  0  0  0  0999 V2000
   -1.2458    0.0455   -0.0550 C   0  0  0  0  0  0  0  0  0  0  0  0
   -2.6451    0.0715   -0.0509 N   0  0  0  0  0  0  0  0  0  0  0  0
   -3.7560    0.1788   -0.0548 N   0  0  0  0  0  0  0  0  0  0  0  0
   -0.6844    1.3210   -0.1692 C   0  0  0  0  0  0  0  0  0  0  0  0
    0.7348    1.2476   -0.1701 C   0  0  0  0  0  0  0  0  0  0  0  0
    1.3978    0.0334   -0.0684 C   0  0  0  0  0  0  0  0  0  0  0  0
    2.8857    0.0184   -0.0757 N   0  0  0  0  0  0  0  0  0  0  0  0
    3.4636    1.0951   -0.1769 O   0  0  0  0  0  0  0  0  0  0  0  0
    3.4391   -1.0744    0.0363 O   0  0  0  0  0  0  0  0  0  0  0  0
    0.7484   -1.2143    0.0439 C   0  0  0  0  0  0  0  0  0  0  0  0
   -0.6275   -1.2271    0.0526 C   0  0  0  0  0  0  0  0  0  0  0  0
   -2.0839    3.0146   -0.3120 H   0  0  0  0  0  0  0  0  0  0  0  0
    1.3341    2.1492   -0.2516 H   0  0  0  0  0  0  0  0  0  0  0  0
    1.3361   -2.1193    0.1199 H   0  0  0  0  0  0  0  0  0  0  0  0
   -1.1942   -2.1494    0.1366 H   0  0  0  0  0  0  0  0  0  0  0  0
   -3.1557    3.7879   -0.3752 Cl  0  0  0  0  0  0  0  0  0  0  0  0
  1  2  1  0  0  0  0
  1 11  2  0  0  0  0
  3  2  1  0  0  0  0
  4  1  1  0  0  0  0
  5  4  2  0  0  0  0
  5  6  1  0  0  0  0
  6 10  2  0  0  0  0
  7  6  1  0  0  0  0
  7  9  2  0  0  0  0
  8  7  2  0  0  0  0
 10 11  1  0  0  0  0
 10 14  1  0  0  0  0
 11 15  1  0  0  0  0
 13  5  1  0  0  0  0
 16 12  1  0  0  0  0
M  RAD  3   2   2   3   3   4   2
M  END
