Coordinates from ORCA-job 4-NO2PhN2+~Cl-_B3LYPG-6-31G_dp-CH-Scan-d09-49-n800
 OpenBabel11261919153D

 16 15  0  0  0  0  0  0  0  0999 V2000
   -1.2301    0.0360   -0.0541 C   0  0  0  0  0  0  0  0  0  0  0  0
   -2.6298    0.0647   -0.0512 N   0  0  0  0  0  0  0  0  0  0  0  0
   -3.7411    0.1701   -0.0558 N   0  0  0  0  0  0  0  0  0  0  0  0
   -0.6692    1.3115   -0.1674 C   0  0  0  0  0  0  0  0  0  0  0  0
    0.7511    1.2336   -0.1670 C   0  0  0  0  0  0  0  0  0  0  0  0
    1.4118    0.0184   -0.0653 C   0  0  0  0  0  0  0  0  0  0  0  0
    2.8997    0.0003   -0.0712 N   0  0  0  0  0  0  0  0  0  0  0  0
    3.4803    1.0749   -0.1800 O   0  0  0  0  0  0  0  0  0  0  0  0
    3.4511   -1.0942    0.0340 O   0  0  0  0  0  0  0  0  0  0  0  0
    0.7602   -1.2287    0.0462 C   0  0  0  0  0  0  0  0  0  0  0  0
   -0.6155   -1.2389    0.0538 C   0  0  0  0  0  0  0  0  0  0  0  0
   -2.1743    3.1316   -0.3222 H   0  0  0  0  0  0  0  0  0  0  0  0
    1.3532    2.1335   -0.2475 H   0  0  0  0  0  0  0  0  0  0  0  0
    1.3464   -2.1347    0.1224 H   0  0  0  0  0  0  0  0  0  0  0  0
   -1.1842   -2.1601    0.1372 H   0  0  0  0  0  0  0  0  0  0  0  0
   -3.2625    3.8603   -0.3821 Cl  0  0  0  0  0  0  0  0  0  0  0  0
  1  2  1  0  0  0  0
  1 11  2  0  0  0  0
  3  2  1  0  0  0  0
  4  5  2  0  0  0  0
  4  1  1  0  0  0  0
  5  6  1  0  0  0  0
  6 10  2  0  0  0  0
  7  6  1  0  0  0  0
  7  9  2  0  0  0  0
  8  7  2  0  0  0  0
 10 11  1  0  0  0  0
 10 14  1  0  0  0  0
 11 15  1  0  0  0  0
 13  5  1  0  0  0  0
 16 12  1  0  0  0  0
M  RAD  3   2   2   3   3   4   2
M  END
