Coordinates from ORCA-job 4-NO2PhN2+~Cl-_B3LYPG-6-31G_dp-CH-Scan-d09-49-n800
 OpenBabel11261919153D

 16 15  0  0  0  0  0  0  0  0999 V2000
   -1.1422   -0.0027   -0.0414 C   0  0  0  0  0  0  0  0  0  0  0  0
   -2.5445    0.0527   -0.0375 N   0  0  0  0  0  0  0  0  0  0  0  0
   -3.6547    0.1776   -0.0401 N   0  0  0  0  0  0  0  0  0  0  0  0
   -0.5721    1.2678   -0.1448 C   0  0  0  0  0  0  0  0  0  0  0  0
    0.8504    1.1599   -0.1464 C   0  0  0  0  0  0  0  0  0  0  0  0
    1.4920   -0.0660   -0.0572 C   0  0  0  0  0  0  0  0  0  0  0  0
    2.9791   -0.1096   -0.0660 N   0  0  0  0  0  0  0  0  0  0  0  0
    3.5797    0.9553   -0.1693 O   0  0  0  0  0  0  0  0  0  0  0  0
    3.5137   -1.2136    0.0319 O   0  0  0  0  0  0  0  0  0  0  0  0
    0.8207   -1.3053    0.0450 C   0  0  0  0  0  0  0  0  0  0  0  0
   -0.5543   -1.2920    0.0551 C   0  0  0  0  0  0  0  0  0  0  0  0
   -2.6535    3.7887   -0.3841 H   0  0  0  0  0  0  0  0  0  0  0  0
    1.4707    2.0486   -0.2192 H   0  0  0  0  0  0  0  0  0  0  0  0
    1.3929   -2.2208    0.1125 H   0  0  0  0  0  0  0  0  0  0  0  0
   -1.1394   -2.2038    0.1319 H   0  0  0  0  0  0  0  0  0  0  0  0
   -3.8915    4.1417   -0.4409 Cl  0  0  0  0  0  0  0  0  0  0  0  0
  1  2  1  0  0  0  0
  1 11  2  0  0  0  0
  3  2  1  0  0  0  0
  4  1  1  0  0  0  0
  5  4  2  0  0  0  0
  5  6  1  0  0  0  0
  6 10  2  0  0  0  0
  7  6  1  0  0  0  0
  7  9  2  0  0  0  0
  8  7  2  0  0  0  0
 10 11  1  0  0  0  0
 10 14  1  0  0  0  0
 11 15  1  0  0  0  0
 13  5  1  0  0  0  0
 16 12  1  0  0  0  0
M  RAD  3   2   2   3   3   4   2
M  END
