Coordinates from ORCA-job 4-NO2PhN2+~Cl-_B3LYPG-6-31G_dp-CH-Scan-d09-49-n800
 OpenBabel11261919153D

 16 15  0  0  0  0  0  0  0  0999 V2000
   -1.0030    0.0660   -0.0697 C   0  0  0  0  0  0  0  0  0  0  0  0
   -2.4021    0.2161   -0.0821 N   0  0  0  0  0  0  0  0  0  0  0  0
   -3.5006    0.4203   -0.0998 N   0  0  0  0  0  0  0  0  0  0  0  0
   -0.3539    1.2943   -0.1867 C   0  0  0  0  0  0  0  0  0  0  0  0
    1.0598    1.0905   -0.1686 C   0  0  0  0  0  0  0  0  0  0  0  0
    1.6182   -0.1727   -0.0491 C   0  0  0  0  0  0  0  0  0  0  0  0
    3.0988   -0.3149   -0.0354 N   0  0  0  0  0  0  0  0  0  0  0  0
    3.7715    0.7068   -0.1351 O   0  0  0  0  0  0  0  0  0  0  0  0
    3.5589   -1.4511    0.0759 O   0  0  0  0  0  0  0  0  0  0  0  0
    0.8649   -1.3637    0.0640 C   0  0  0  0  0  0  0  0  0  0  0  0
   -0.5062   -1.2588    0.0552 C   0  0  0  0  0  0  0  0  0  0  0  0
   -3.5933    4.6064   -0.4371 H   0  0  0  0  0  0  0  0  0  0  0  0
    1.7390    1.9346   -0.2491 H   0  0  0  0  0  0  0  0  0  0  0  0
    1.3742   -2.3138    0.1538 H   0  0  0  0  0  0  0  0  0  0  0  0
   -1.1518   -2.1284    0.1382 H   0  0  0  0  0  0  0  0  0  0  0  0
   -4.6274    3.8468   -0.3447 Cl  0  0  0  0  0  0  0  0  0  0  0  0
  1 11  2  0  0  0  0
  2  1  1  0  0  0  0
  3  2  1  0  0  0  0
  4  5  2  0  0  0  0
  4  1  1  0  0  0  0
  5  6  1  0  0  0  0
  6  7  1  0  0  0  0
  6 10  2  0  0  0  0
  7  9  2  0  0  0  0
  8  7  2  0  0  0  0
 10 14  1  0  0  0  0
 11 10  1  0  0  0  0
 11 15  1  0  0  0  0
 12 16  1  0  0  0  0
 13  5  1  0  0  0  0
M  RAD  3   2   2   3   3   4   2
M  END
