Coordinates from ORCA-job 4-NO2PhN2+~Cl-_B3LYPG-6-31G_dp-CH-Scan-d09-49-n800
 OpenBabel11261919153D

 16 15  0  0  0  0  0  0  0  0999 V2000
   -1.2026    0.0210   -0.0522 C   0  0  0  0  0  0  0  0  0  0  0  0
   -2.6032    0.0557   -0.0495 N   0  0  0  0  0  0  0  0  0  0  0  0
   -3.7147    0.1622   -0.0551 N   0  0  0  0  0  0  0  0  0  0  0  0
   -0.6407    1.2954   -0.1650 C   0  0  0  0  0  0  0  0  0  0  0  0
    0.7807    1.2095   -0.1642 C   0  0  0  0  0  0  0  0  0  0  0  0
    1.4368   -0.0081   -0.0633 C   0  0  0  0  0  0  0  0  0  0  0  0
    2.9245   -0.0326   -0.0691 N   0  0  0  0  0  0  0  0  0  0  0  0
    3.5105    1.0394   -0.1777 O   0  0  0  0  0  0  0  0  0  0  0  0
    3.4719   -1.1292    0.0375 O   0  0  0  0  0  0  0  0  0  0  0  0
    0.7804   -1.2535    0.0477 C   0  0  0  0  0  0  0  0  0  0  0  0
   -0.5951   -1.2579    0.0553 C   0  0  0  0  0  0  0  0  0  0  0  0
   -2.3281    3.3341   -0.3398 H   0  0  0  0  0  0  0  0  0  0  0  0
    1.3879    2.1062   -0.2440 H   0  0  0  0  0  0  0  0  0  0  0  0
    1.3633   -2.1615    0.1236 H   0  0  0  0  0  0  0  0  0  0  0  0
   -1.1678   -2.1767    0.1384 H   0  0  0  0  0  0  0  0  0  0  0  0
   -3.4569    3.9744   -0.3928 Cl  0  0  0  0  0  0  0  0  0  0  0  0
  1  2  1  0  0  0  0
  1 11  2  0  0  0  0
  3  2  1  0  0  0  0
  4  5  2  0  0  0  0
  4  1  1  0  0  0  0
  5  6  1  0  0  0  0
  6 10  2  0  0  0  0
  7  6  1  0  0  0  0
  7  9  2  0  0  0  0
  8  7  2  0  0  0  0
 10 11  1  0  0  0  0
 10 14  1  0  0  0  0
 11 15  1  0  0  0  0
 13  5  1  0  0  0  0
 16 12  1  0  0  0  0
M  RAD  3   2   2   3   3   4   2
M  END
