Coordinates from ORCA-job 4-NO2PhN2+~Cl-_B3LYPG-6-31G_dp-CH-Scan-d09-49-n800
 OpenBabel11261919153D

 16 15  0  0  0  0  0  0  0  0999 V2000
   -1.2729    0.0643   -0.0569 C   0  0  0  0  0  0  0  0  0  0  0  0
   -2.6721    0.0891   -0.0536 N   0  0  0  0  0  0  0  0  0  0  0  0
   -3.7808    0.2110   -0.0597 N   0  0  0  0  0  0  0  0  0  0  0  0
   -0.7075    1.3379   -0.1707 C   0  0  0  0  0  0  0  0  0  0  0  0
    0.7090    1.2736   -0.1711 C   0  0  0  0  0  0  0  0  0  0  0  0
    1.3744    0.0603   -0.0686 C   0  0  0  0  0  0  0  0  0  0  0  0
    2.8624    0.0495   -0.0747 N   0  0  0  0  0  0  0  0  0  0  0  0
    3.4362    1.1274   -0.1832 O   0  0  0  0  0  0  0  0  0  0  0  0
    3.4179   -1.0428    0.0283 O   0  0  0  0  0  0  0  0  0  0  0  0
    0.7274   -1.1874    0.0433 C   0  0  0  0  0  0  0  0  0  0  0  0
   -0.6493   -1.2041    0.0511 C   0  0  0  0  0  0  0  0  0  0  0  0
   -1.9172    2.7995   -0.2937 H   0  0  0  0  0  0  0  0  0  0  0  0
    1.3031    2.1783   -0.2527 H   0  0  0  0  0  0  0  0  0  0  0  0
    1.3167   -2.0914    0.1198 H   0  0  0  0  0  0  0  0  0  0  0  0
   -1.2132   -2.1279    0.1348 H   0  0  0  0  0  0  0  0  0  0  0  0
   -2.9874    3.6410   -0.3627 Cl  0  0  0  0  0  0  0  0  0  0  0  0
  1  2  1  0  0  0  0
  1 11  2  0  0  0  0
  3  2  1  0  0  0  0
  4  1  1  0  0  0  0
  5  4  2  0  0  0  0
  5  6  1  0  0  0  0
  6 10  2  0  0  0  0
  7  6  1  0  0  0  0
  7  9  2  0  0  0  0
  8  7  2  0  0  0  0
 10 11  1  0  0  0  0
 10 14  1  0  0  0  0
 11 15  1  0  0  0  0
 13  5  1  0  0  0  0
 16 12  1  0  0  0  0
M  RAD  3   2   2   3   3   4   2
M  END
