Coordinates from ORCA-job 4-NO2PhN2+~Cl-_B3LYPG-6-31G_dp-CH-Scan-d09-49-n800
 OpenBabel11261919153D

 16 15  0  0  0  0  0  0  0  0999 V2000
   -0.9983    0.0675   -0.0695 C   0  0  0  0  0  0  0  0  0  0  0  0
   -2.3970    0.2205   -0.0817 N   0  0  0  0  0  0  0  0  0  0  0  0
   -3.4950    0.4276   -0.1003 N   0  0  0  0  0  0  0  0  0  0  0  0
   -0.3468    1.2945   -0.1866 C   0  0  0  0  0  0  0  0  0  0  0  0
    1.0664    1.0880   -0.1686 C   0  0  0  0  0  0  0  0  0  0  0  0
    1.6224   -0.1764   -0.0491 C   0  0  0  0  0  0  0  0  0  0  0  0
    3.1027   -0.3215   -0.0354 N   0  0  0  0  0  0  0  0  0  0  0  0
    3.7774    0.6990   -0.1337 O   0  0  0  0  0  0  0  0  0  0  0  0
    3.5606   -1.4586    0.0762 O   0  0  0  0  0  0  0  0  0  0  0  0
    0.8667   -1.3659    0.0641 C   0  0  0  0  0  0  0  0  0  0  0  0
   -0.5042   -1.2583    0.0553 C   0  0  0  0  0  0  0  0  0  0  0  0
   -3.6295    4.6273   -0.4376 H   0  0  0  0  0  0  0  0  0  0  0  0
    1.7473    1.9307   -0.2492 H   0  0  0  0  0  0  0  0  0  0  0  0
    1.3741   -2.3170    0.1538 H   0  0  0  0  0  0  0  0  0  0  0  0
   -1.1515   -2.1266    0.1383 H   0  0  0  0  0  0  0  0  0  0  0  0
   -4.6485    3.8476   -0.3463 Cl  0  0  0  0  0  0  0  0  0  0  0  0
  1 11  2  0  0  0  0
  2  1  1  0  0  0  0
  3  2  1  0  0  0  0
  4  5  2  0  0  0  0
  4  1  1  0  0  0  0
  5  6  1  0  0  0  0
  6  7  1  0  0  0  0
  6 10  2  0  0  0  0
  7  9  2  0  0  0  0
  8  7  2  0  0  0  0
 10 14  1  0  0  0  0
 11 10  1  0  0  0  0
 11 15  1  0  0  0  0
 12 16  1  0  0  0  0
 13  5  1  0  0  0  0
M  RAD  3   2   2   3   3   4   2
M  END
