Coordinates from ORCA-job 4-NO2PhN2+~Cl-_B3LYPG-6-31G_dp-CH-Scan-d09-49-n800
 OpenBabel11261919153D

 16 16  0  0  0  0  0  0  0  0999 V2000
   -1.3456    0.1633   -0.0634 C   0  0  0  0  0  0  0  0  0  0  0  0
   -2.7556    0.1037   -0.0502 N   0  0  0  0  0  0  0  0  0  0  0  0
   -3.7219    0.7626   -0.1063 N   0  0  0  0  0  0  0  0  0  0  0  0
   -0.6356    1.3674   -0.1710 C   0  0  0  0  0  0  0  0  0  0  0  0
    0.7542    1.3219   -0.1745 C   0  0  0  0  0  0  0  0  0  0  0  0
    1.3895    0.0856   -0.0712 C   0  0  0  0  0  0  0  0  0  0  0  0
    2.8692    0.0456   -0.0753 N   0  0  0  0  0  0  0  0  0  0  0  0
    3.4616    1.1158   -0.1784 O   0  0  0  0  0  0  0  0  0  0  0  0
    3.4023   -1.0566    0.0230 O   0  0  0  0  0  0  0  0  0  0  0  0
    0.6926   -1.1172    0.0366 C   0  0  0  0  0  0  0  0  0  0  0  0
   -0.6954   -1.0757    0.0406 C   0  0  0  0  0  0  0  0  0  0  0  0
   -1.2411    2.3887   -0.2563 H   0  0  0  0  0  0  0  0  0  0  0  0
    1.3489    2.2229   -0.2557 H   0  0  0  0  0  0  0  0  0  0  0  0
    1.2387   -2.0484    0.1147 H   0  0  0  0  0  0  0  0  0  0  0  0
   -1.2853   -1.9816    0.1228 H   0  0  0  0  0  0  0  0  0  0  0  0
   -3.5295    2.8802   -0.3057 Cl  0  0  0  0  0  0  0  0  0  0  0  0
  1  2  1  0  0  0  0
  1 11  2  0  0  0  0
  3  2  2  0  0  0  0
  4  1  1  0  0  0  0
  5  4  2  0  0  0  0
  5  6  1  0  0  0  0
  6 10  2  0  0  0  0
  7  6  1  0  0  0  0
  7  9  2  0  0  0  0
  8  7  2  0  0  0  0
 10 11  1  0  0  0  0
 10 14  1  0  0  0  0
 11 15  1  0  0  0  0
 12  4  1  0  0  0  0
 13  5  1  0  0  0  0
 16  3  1  0  0  0  0
M  END
