Coordinates from ORCA-job 4-NO2PhN2+~Cl-_B3LYPG-6-31G_dp-CH-Scan-d09-49-n800
 OpenBabel11261919153D

 16 15  0  0  0  0  0  0  0  0999 V2000
   -1.1561   -0.0163   -0.0435 C   0  0  0  0  0  0  0  0  0  0  0  0
   -2.5580    0.0255   -0.0399 N   0  0  0  0  0  0  0  0  0  0  0  0
   -3.6696    0.1372   -0.0429 N   0  0  0  0  0  0  0  0  0  0  0  0
   -0.5958    1.2585   -0.1506 C   0  0  0  0  0  0  0  0  0  0  0  0
    0.8273    1.1634   -0.1515 C   0  0  0  0  0  0  0  0  0  0  0  0
    1.4794   -0.0566   -0.0582 C   0  0  0  0  0  0  0  0  0  0  0  0
    2.9669   -0.0872   -0.0664 N   0  0  0  0  0  0  0  0  0  0  0  0
    3.5579    0.9825   -0.1733 O   0  0  0  0  0  0  0  0  0  0  0  0
    3.5108   -1.1863    0.0346 O   0  0  0  0  0  0  0  0  0  0  0  0
    0.8188   -1.3012    0.0475 C   0  0  0  0  0  0  0  0  0  0  0  0
   -0.5562   -1.3000    0.0571 C   0  0  0  0  0  0  0  0  0  0  0  0
   -2.5939    3.7255   -0.3776 H   0  0  0  0  0  0  0  0  0  0  0  0
    1.4396    2.0574   -0.2269 H   0  0  0  0  0  0  0  0  0  0  0  0
    1.3988   -2.2116    0.1180 H   0  0  0  0  0  0  0  0  0  0  0  0
   -1.1332   -2.2167    0.1365 H   0  0  0  0  0  0  0  0  0  0  0  0
   -3.7898    4.2043   -0.4331 Cl  0  0  0  0  0  0  0  0  0  0  0  0
  1  2  1  0  0  0  0
  1 11  2  0  0  0  0
  3  2  1  0  0  0  0
  4  1  1  0  0  0  0
  5  4  2  0  0  0  0
  5  6  1  0  0  0  0
  6 10  2  0  0  0  0
  7  6  1  0  0  0  0
  7  9  2  0  0  0  0
  8  7  2  0  0  0  0
 10 11  1  0  0  0  0
 10 14  1  0  0  0  0
 11 15  1  0  0  0  0
 13  5  1  0  0  0  0
 16 12  1  0  0  0  0
M  RAD  3   2   2   3   3   4   2
M  END
