Coordinates from ORCA-job 4-NO2PhN2+~Cl-_B3LYPG-6-31G_dp-CH-Scan-d09-49-n800
 OpenBabel11261919153D

 16 15  0  0  0  0  0  0  0  0999 V2000
   -1.0010    0.0663   -0.0699 C   0  0  0  0  0  0  0  0  0  0  0  0
   -2.3999    0.2175   -0.0825 N   0  0  0  0  0  0  0  0  0  0  0  0
   -3.4981    0.4237   -0.0971 N   0  0  0  0  0  0  0  0  0  0  0  0
   -0.3510    1.2942   -0.1865 C   0  0  0  0  0  0  0  0  0  0  0  0
    1.0625    1.0894   -0.1682 C   0  0  0  0  0  0  0  0  0  0  0  0
    1.6200   -0.1743   -0.0489 C   0  0  0  0  0  0  0  0  0  0  0  0
    3.1005   -0.3176   -0.0349 N   0  0  0  0  0  0  0  0  0  0  0  0
    3.7739    0.7037   -0.1342 O   0  0  0  0  0  0  0  0  0  0  0  0
    3.5597   -1.4542    0.0756 O   0  0  0  0  0  0  0  0  0  0  0  0
    0.8658   -1.3648    0.0638 C   0  0  0  0  0  0  0  0  0  0  0  0
   -0.5052   -1.2589    0.0547 C   0  0  0  0  0  0  0  0  0  0  0  0
   -3.6090    4.6160   -0.4398 H   0  0  0  0  0  0  0  0  0  0  0  0
    1.7423    1.9330   -0.2484 H   0  0  0  0  0  0  0  0  0  0  0  0
    1.3744   -2.3153    0.1534 H   0  0  0  0  0  0  0  0  0  0  0  0
   -1.1515   -2.1280    0.1373 H   0  0  0  0  0  0  0  0  0  0  0  0
   -4.6364    3.8477   -0.3446 Cl  0  0  0  0  0  0  0  0  0  0  0  0
  1 11  2  0  0  0  0
  2  1  1  0  0  0  0
  3  2  1  0  0  0  0
  4  5  2  0  0  0  0
  4  1  1  0  0  0  0
  5  6  1  0  0  0  0
  6  7  1  0  0  0  0
  6 10  2  0  0  0  0
  7  9  2  0  0  0  0
  8  7  2  0  0  0  0
 10 14  1  0  0  0  0
 11 10  1  0  0  0  0
 11 15  1  0  0  0  0
 12 16  1  0  0  0  0
 13  5  1  0  0  0  0
M  RAD  3   2   2   3   3   4   2
M  END
