Coordinates from ORCA-job 4-NO2PhN2+~Cl-_B3LYPG-6-31G_dp-CH-Scan-d09-49-n800
 OpenBabel11261919153D

 16 15  0  0  0  0  0  0  0  0999 V2000
   -0.9814    0.0757   -0.0658 C   0  0  0  0  0  0  0  0  0  0  0  0
   -2.3790    0.2401   -0.0758 N   0  0  0  0  0  0  0  0  0  0  0  0
   -3.4754    0.4553   -0.0917 N   0  0  0  0  0  0  0  0  0  0  0  0
   -0.3204    1.2978   -0.1793 C   0  0  0  0  0  0  0  0  0  0  0  0
    1.0913    1.0802   -0.1631 C   0  0  0  0  0  0  0  0  0  0  0  0
    1.6372   -0.1889   -0.0479 C   0  0  0  0  0  0  0  0  0  0  0  0
    3.1163   -0.3459   -0.0355 N   0  0  0  0  0  0  0  0  0  0  0  0
    3.7991    0.6696   -0.1298 O   0  0  0  0  0  0  0  0  0  0  0  0
    3.5652   -1.4872    0.0693 O   0  0  0  0  0  0  0  0  0  0  0  0
    0.8722   -1.3728    0.0618 C   0  0  0  0  0  0  0  0  0  0  0  0
   -0.4978   -1.2543    0.0543 C   0  0  0  0  0  0  0  0  0  0  0  0
   -3.7588    4.6935   -0.4469 H   0  0  0  0  0  0  0  0  0  0  0  0
    1.7786    1.9178   -0.2417 H   0  0  0  0  0  0  0  0  0  0  0  0
    1.3721   -2.3282    0.1480 H   0  0  0  0  0  0  0  0  0  0  0  0
   -1.1519   -2.1178    0.1347 H   0  0  0  0  0  0  0  0  0  0  0  0
   -4.7204    3.8435   -0.3611 Cl  0  0  0  0  0  0  0  0  0  0  0  0
  1 11  2  0  0  0  0
  2  1  1  0  0  0  0
  3  2  1  0  0  0  0
  4  5  2  0  0  0  0
  4  1  1  0  0  0  0
  5  6  1  0  0  0  0
  6  7  1  0  0  0  0
  6 10  2  0  0  0  0
  7  9  2  0  0  0  0
  8  7  2  0  0  0  0
 10 14  1  0  0  0  0
 11 10  1  0  0  0  0
 11 15  1  0  0  0  0
 12 16  1  0  0  0  0
 13  5  1  0  0  0  0
M  RAD  3   2   2   3   3   4   2
M  END
