Coordinates from ORCA-job 4-NO2PhN2+~Cl-_B3LYPG-6-31G_dp-CH-Scan-d09-49-n800
 OpenBabel11261919153D

 16 15  0  0  0  0  0  0  0  0999 V2000
   -1.2865    0.0725   -0.0578 C   0  0  0  0  0  0  0  0  0  0  0  0
   -2.6928    0.1312   -0.0570 N   0  0  0  0  0  0  0  0  0  0  0  0
   -3.7630    0.4505   -0.0801 N   0  0  0  0  0  0  0  0  0  0  0  0
   -0.7106    1.3370   -0.1710 C   0  0  0  0  0  0  0  0  0  0  0  0
    0.6995    1.2917   -0.1733 C   0  0  0  0  0  0  0  0  0  0  0  0
    1.3649    0.0758   -0.0701 C   0  0  0  0  0  0  0  0  0  0  0  0
    2.8523    0.0681   -0.0763 N   0  0  0  0  0  0  0  0  0  0  0  0
    3.4222    1.1483   -0.1835 O   0  0  0  0  0  0  0  0  0  0  0  0
    3.4098   -1.0226    0.0265 O   0  0  0  0  0  0  0  0  0  0  0  0
    0.7177   -1.1688    0.0417 C   0  0  0  0  0  0  0  0  0  0  0  0
   -0.6623   -1.1877    0.0496 C   0  0  0  0  0  0  0  0  0  0  0  0
   -1.7847    2.5666   -0.2738 H   0  0  0  0  0  0  0  0  0  0  0  0
    1.2872    2.2000   -0.2555 H   0  0  0  0  0  0  0  0  0  0  0  0
    1.3074   -2.0725    0.1184 H   0  0  0  0  0  0  0  0  0  0  0  0
   -1.2255   -2.1115    0.1333 H   0  0  0  0  0  0  0  0  0  0  0  0
   -2.9887    3.3998   -0.3414 Cl  0  0  0  0  0  0  0  0  0  0  0  0
  1  2  1  0  0  0  0
  1 11  2  0  0  0  0
  3  2  1  0  0  0  0
  4  1  1  0  0  0  0
  5  4  2  0  0  0  0
  5  6  1  0  0  0  0
  6 10  2  0  0  0  0
  7  6  1  0  0  0  0
  7  9  2  0  0  0  0
  8  7  2  0  0  0  0
 10 11  1  0  0  0  0
 10 14  1  0  0  0  0
 11 15  1  0  0  0  0
 13  5  1  0  0  0  0
 16 12  1  0  0  0  0
M  RAD  3   2   2   3   3   4   2
M  END
