Coordinates from ORCA-job 4-NO2PhN2+~Cl-_B3LYPG-6-31G_dp-CH-Scan-d09-49-n800
 OpenBabel11261919153D

 16 15  0  0  0  0  0  0  0  0999 V2000
   -1.3037    0.0830   -0.0591 C   0  0  0  0  0  0  0  0  0  0  0  0
   -2.7231    0.1271   -0.0560 N   0  0  0  0  0  0  0  0  0  0  0  0
   -3.6780    0.7457   -0.1050 N   0  0  0  0  0  0  0  0  0  0  0  0
   -0.6810    1.3212   -0.1702 C   0  0  0  0  0  0  0  0  0  0  0  0
    0.7167    1.2994   -0.1746 C   0  0  0  0  0  0  0  0  0  0  0  0
    1.3754    0.0753   -0.0703 C   0  0  0  0  0  0  0  0  0  0  0  0
    2.8598    0.0631   -0.0755 N   0  0  0  0  0  0  0  0  0  0  0  0
    3.4324    1.1429   -0.1813 O   0  0  0  0  0  0  0  0  0  0  0  0
    3.4151   -1.0285    0.0265 O   0  0  0  0  0  0  0  0  0  0  0  0
    0.7162   -1.1563    0.0405 C   0  0  0  0  0  0  0  0  0  0  0  0
   -0.6696   -1.1634    0.0471 C   0  0  0  0  0  0  0  0  0  0  0  0
   -1.6721    2.4575   -0.2651 H   0  0  0  0  0  0  0  0  0  0  0  0
    1.3015    2.2082   -0.2570 H   0  0  0  0  0  0  0  0  0  0  0  0
    1.2961   -2.0665    0.1181 H   0  0  0  0  0  0  0  0  0  0  0  0
   -1.2369   -2.0843    0.1307 H   0  0  0  0  0  0  0  0  0  0  0  0
   -3.2017    3.1541   -0.3190 Cl  0  0  0  0  0  0  0  0  0  0  0  0
  1  2  1  0  0  0  0
  1 11  2  0  0  0  0
  3  2  2  0  0  0  0
  4  1  1  0  0  0  0
  5  4  2  0  0  0  0
  5  6  1  0  0  0  0
  6 10  2  0  0  0  0
  7  6  1  0  0  0  0
  7  9  2  0  0  0  0
  8  7  2  0  0  0  0
 10 11  1  0  0  0  0
 10 14  1  0  0  0  0
 11 15  1  0  0  0  0
 12  4  1  0  0  0  0
 13  5  1  0  0  0  0
M  RAD  2   3   2  16   2
M  END
