Coordinates from ORCA-job 4-NO2PhN2+~Cl-_B3LYPG-6-31G_dp-CH-Scan-d09-49-n800
 OpenBabel11261919153D

 16 16  0  0  0  0  0  0  0  0999 V2000
   -1.3598    0.1982    0.0747 C   0  0  0  0  0  0  0  0  0  0  0  0
   -2.7674    0.1523    0.1910 N   0  0  0  0  0  0  0  0  0  0  0  0
   -3.7107    0.8110   -0.0548 N   0  0  0  0  0  0  0  0  0  0  0  0
   -0.6474    1.4066    0.0259 C   0  0  0  0  0  0  0  0  0  0  0  0
    0.7416    1.3461   -0.0479 C   0  0  0  0  0  0  0  0  0  0  0  0
    1.3712    0.1039   -0.0793 C   0  0  0  0  0  0  0  0  0  0  0  0
    2.8465    0.0569   -0.1661 N   0  0  0  0  0  0  0  0  0  0  0  0
    3.4439    1.1289   -0.2069 O   0  0  0  0  0  0  0  0  0  0  0  0
    3.3738   -1.0523   -0.1917 O   0  0  0  0  0  0  0  0  0  0  0  0
    0.6680   -1.0980   -0.0231 C   0  0  0  0  0  0  0  0  0  0  0  0
   -0.7167   -1.0470    0.0722 C   0  0  0  0  0  0  0  0  0  0  0  0
   -1.1209    2.2703    0.0410 H   0  0  0  0  0  0  0  0  0  0  0  0
    1.3398    2.2479   -0.0867 H   0  0  0  0  0  0  0  0  0  0  0  0
    1.2070   -2.0366   -0.0429 H   0  0  0  0  0  0  0  0  0  0  0  0
   -1.3092   -1.9525    0.1369 H   0  0  0  0  0  0  0  0  0  0  0  0
   -3.4128    2.6427   -1.0126 Cl  0  0  0  0  0  0  0  0  0  0  0  0
  1  2  1  0  0  0  0
  3  2  2  0  0  0  0
  4 12  1  0  0  0  0
  4  1  2  0  0  0  0
  5  4  1  0  0  0  0
  6  5  2  0  0  0  0
  6 10  1  0  0  0  0
  7  6  1  0  0  0  0
  8  7  2  0  0  0  0
  9  7  2  0  0  0  0
 10 11  2  0  0  0  0
 11  1  1  0  0  0  0
 11 15  1  0  0  0  0
 13  5  1  0  0  0  0
 14 10  1  0  0  0  0
 16  3  1  0  0  0  0
M  END
