Coordinates from ORCA-job 4-NO2PhN2+~Cl-_B3LYPG-6-31G_dp-CH-Scan-d09-49-n800
 OpenBabel11261919153D

 16 15  0  0  0  0  0  0  0  0999 V2000
   -1.2928    0.0740   -0.0583 C   0  0  0  0  0  0  0  0  0  0  0  0
   -2.7121    0.1321   -0.0567 N   0  0  0  0  0  0  0  0  0  0  0  0
   -3.6958    0.6854   -0.0999 N   0  0  0  0  0  0  0  0  0  0  0  0
   -0.6947    1.3233   -0.1702 C   0  0  0  0  0  0  0  0  0  0  0  0
    0.7082    1.2945   -0.1740 C   0  0  0  0  0  0  0  0  0  0  0  0
    1.3716    0.0742   -0.0701 C   0  0  0  0  0  0  0  0  0  0  0  0
    2.8571    0.0661   -0.0759 N   0  0  0  0  0  0  0  0  0  0  0  0
    3.4271    1.1469   -0.1824 O   0  0  0  0  0  0  0  0  0  0  0  0
    3.4154   -1.0241    0.0265 O   0  0  0  0  0  0  0  0  0  0  0  0
    0.7193   -1.1636    0.0411 C   0  0  0  0  0  0  0  0  0  0  0  0
   -0.6646   -1.1773    0.0484 C   0  0  0  0  0  0  0  0  0  0  0  0
   -1.7384    2.4865   -0.2671 H   0  0  0  0  0  0  0  0  0  0  0  0
    1.2935    2.2036   -0.2563 H   0  0  0  0  0  0  0  0  0  0  0  0
    1.3046   -2.0703    0.1183 H   0  0  0  0  0  0  0  0  0  0  0  0
   -1.2297   -2.0997    0.1320 H   0  0  0  0  0  0  0  0  0  0  0  0
   -3.1218    3.2268   -0.3258 Cl  0  0  0  0  0  0  0  0  0  0  0  0
  1  2  1  0  0  0  0
  1 11  2  0  0  0  0
  3  2  2  0  0  0  0
  4  1  1  0  0  0  0
  5  4  2  0  0  0  0
  5  6  1  0  0  0  0
  6 10  2  0  0  0  0
  7  6  1  0  0  0  0
  7  9  2  0  0  0  0
  8  7  2  0  0  0  0
 10 11  1  0  0  0  0
 10 14  1  0  0  0  0
 11 15  1  0  0  0  0
 13  5  1  0  0  0  0
 16 12  1  0  0  0  0
M  RAD  2   3   2   4   2
M  END
