Coordinates from ORCA-job 4-NO2PhN2+~Cl-_B3LYPG-6-31G_dp-CH-Scan-d09-49-n800
 OpenBabel11261919153D

 16 15  0  0  0  0  0  0  0  0999 V2000
   -1.0646    0.0497   -0.0548 C   0  0  0  0  0  0  0  0  0  0  0  0
   -2.4667    0.1640   -0.0595 N   0  0  0  0  0  0  0  0  0  0  0  0
   -3.5699    0.3410   -0.0699 N   0  0  0  0  0  0  0  0  0  0  0  0
   -0.4461    1.2952   -0.1618 C   0  0  0  0  0  0  0  0  0  0  0  0
    0.9720    1.1266   -0.1533 C   0  0  0  0  0  0  0  0  0  0  0  0
    1.5623   -0.1238   -0.0522 C   0  0  0  0  0  0  0  0  0  0  0  0
    3.0460   -0.2292   -0.0497 N   0  0  0  0  0  0  0  0  0  0  0  0
    3.6922    0.8093   -0.1506 O   0  0  0  0  0  0  0  0  0  0  0  0
    3.5347   -1.3541    0.0522 O   0  0  0  0  0  0  0  0  0  0  0  0
    0.8396   -1.3341    0.0525 C   0  0  0  0  0  0  0  0  0  0  0  0
   -0.5338   -1.2631    0.0530 C   0  0  0  0  0  0  0  0  0  0  0  0
   -3.1259    4.2781   -0.4309 H   0  0  0  0  0  0  0  0  0  0  0  0
    1.6298    1.9880   -0.2273 H   0  0  0  0  0  0  0  0  0  0  0  0
    1.3729   -2.2721    0.1290 H   0  0  0  0  0  0  0  0  0  0  0  0
   -1.1571   -2.1493    0.1308 H   0  0  0  0  0  0  0  0  0  0  0  0
   -4.3387    3.8523   -0.3779 Cl  0  0  0  0  0  0  0  0  0  0  0  0
  1 11  2  0  0  0  0
  2  1  1  0  0  0  0
  3  2  1  0  0  0  0
  4  5  2  0  0  0  0
  4  1  1  0  0  0  0
  5  6  1  0  0  0  0
  6  7  1  0  0  0  0
  6 10  2  0  0  0  0
  7  9  2  0  0  0  0
  8  7  2  0  0  0  0
 10 11  1  0  0  0  0
 10 14  1  0  0  0  0
 11 15  1  0  0  0  0
 12 16  1  0  0  0  0
 13  5  1  0  0  0  0
M  RAD  3   2   2   3   3   4   2
M  END
