Coordinates from ORCA-job 4-NO2PhN2+~Cl-_B3LYPG-6-31G_dp-CH-Scan-d09-49-n800
 OpenBabel11261919153D

 16 15  0  0  0  0  0  0  0  0999 V2000
   -1.2871    0.0755   -0.0581 C   0  0  0  0  0  0  0  0  0  0  0  0
   -2.6893    0.1216   -0.0565 N   0  0  0  0  0  0  0  0  0  0  0  0
   -3.7802    0.3542   -0.0721 N   0  0  0  0  0  0  0  0  0  0  0  0
   -0.7127    1.3427   -0.1716 C   0  0  0  0  0  0  0  0  0  0  0  0
    0.6990    1.2910   -0.1732 C   0  0  0  0  0  0  0  0  0  0  0  0
    1.3639    0.0758   -0.0701 C   0  0  0  0  0  0  0  0  0  0  0  0
    2.8517    0.0665   -0.0761 N   0  0  0  0  0  0  0  0  0  0  0  0
    3.4229    1.1458   -0.1839 O   0  0  0  0  0  0  0  0  0  0  0  0
    3.4078   -1.0250    0.0270 O   0  0  0  0  0  0  0  0  0  0  0  0
    0.7163   -1.1695    0.0419 C   0  0  0  0  0  0  0  0  0  0  0  0
   -0.6624   -1.1875    0.0496 C   0  0  0  0  0  0  0  0  0  0  0  0
   -1.7968    2.6099   -0.2774 H   0  0  0  0  0  0  0  0  0  0  0  0
    1.2884    2.1984   -0.2554 H   0  0  0  0  0  0  0  0  0  0  0  0
    1.3055   -2.0736    0.1187 H   0  0  0  0  0  0  0  0  0  0  0  0
   -1.2257   -2.1113    0.1334 H   0  0  0  0  0  0  0  0  0  0  0  0
   -2.9546    3.4637   -0.3466 Cl  0  0  0  0  0  0  0  0  0  0  0  0
  1  2  1  0  0  0  0
  1 11  2  0  0  0  0
  3  2  1  0  0  0  0
  4  1  1  0  0  0  0
  5  4  2  0  0  0  0
  5  6  1  0  0  0  0
  6 10  2  0  0  0  0
  7  6  1  0  0  0  0
  7  9  2  0  0  0  0
  8  7  2  0  0  0  0
 10 11  1  0  0  0  0
 10 14  1  0  0  0  0
 11 15  1  0  0  0  0
 13  5  1  0  0  0  0
 16 12  1  0  0  0  0
M  RAD  3   2   2   3   3   4   2
M  END
