Coordinates from ORCA-job 4-NO2PhN2+~Cl-_B3LYPG-6-31G_dp-CH-Scan-d09-49-n800
 OpenBabel11261919153D

 16 15  0  0  0  0  0  0  0  0999 V2000
   -1.0555    0.0504   -0.0557 C   0  0  0  0  0  0  0  0  0  0  0  0
   -2.4573    0.1689   -0.0613 N   0  0  0  0  0  0  0  0  0  0  0  0
   -3.5601    0.3487   -0.0728 N   0  0  0  0  0  0  0  0  0  0  0  0
   -0.4333    1.2939   -0.1632 C   0  0  0  0  0  0  0  0  0  0  0  0
    0.9843    1.1208   -0.1535 C   0  0  0  0  0  0  0  0  0  0  0  0
    1.5707   -0.1312   -0.0510 C   0  0  0  0  0  0  0  0  0  0  0  0
    3.0541   -0.2411   -0.0473 N   0  0  0  0  0  0  0  0  0  0  0  0
    3.7035    0.7952   -0.1503 O   0  0  0  0  0  0  0  0  0  0  0  0
    3.5393   -1.3677    0.0530 O   0  0  0  0  0  0  0  0  0  0  0  0
    0.8442   -1.3393    0.0539 C   0  0  0  0  0  0  0  0  0  0  0  0
   -0.5289   -1.2640    0.0534 C   0  0  0  0  0  0  0  0  0  0  0  0
   -3.1905    4.3284   -0.4338 H   0  0  0  0  0  0  0  0  0  0  0  0
    1.6448    1.9802   -0.2277 H   0  0  0  0  0  0  0  0  0  0  0  0
    1.3746   -2.2789    0.1315 H   0  0  0  0  0  0  0  0  0  0  0  0
   -1.1550   -2.1482    0.1313 H   0  0  0  0  0  0  0  0  0  0  0  0
   -4.3881    3.8623   -0.3767 Cl  0  0  0  0  0  0  0  0  0  0  0  0
  1 11  2  0  0  0  0
  2  1  1  0  0  0  0
  3  2  1  0  0  0  0
  4  5  2  0  0  0  0
  4  1  1  0  0  0  0
  5  6  1  0  0  0  0
  6  7  1  0  0  0  0
  6 10  2  0  0  0  0
  7  9  2  0  0  0  0
  8  7  2  0  0  0  0
 10 14  1  0  0  0  0
 11 10  1  0  0  0  0
 11 15  1  0  0  0  0
 12 16  1  0  0  0  0
 13  5  1  0  0  0  0
M  RAD  3   2   2   3   3   4   2
M  END
