Coordinates from ORCA-job 4-NO2PhN2+~Cl-_B3LYPG-6-31G_dp-CH-Scan-d09-49-n800
 OpenBabel11261919153D

 16 15  0  0  0  0  0  0  0  0999 V2000
   -1.0515    0.0510   -0.0573 C   0  0  0  0  0  0  0  0  0  0  0  0
   -2.4531    0.1718   -0.0633 N   0  0  0  0  0  0  0  0  0  0  0  0
   -3.5555    0.3536   -0.0746 N   0  0  0  0  0  0  0  0  0  0  0  0
   -0.4274    1.2934   -0.1659 C   0  0  0  0  0  0  0  0  0  0  0  0
    0.9899    1.1182   -0.1558 C   0  0  0  0  0  0  0  0  0  0  0  0
    1.5744   -0.1346   -0.0517 C   0  0  0  0  0  0  0  0  0  0  0  0
    3.0577   -0.2467   -0.0473 N   0  0  0  0  0  0  0  0  0  0  0  0
    3.7087    0.7888   -0.1475 O   0  0  0  0  0  0  0  0  0  0  0  0
    3.5412   -1.3737    0.0573 O   0  0  0  0  0  0  0  0  0  0  0  0
    0.8461   -1.3414    0.0545 C   0  0  0  0  0  0  0  0  0  0  0  0
   -0.5269   -1.2642    0.0534 C   0  0  0  0  0  0  0  0  0  0  0  0
   -3.2199    4.3503   -0.4340 H   0  0  0  0  0  0  0  0  0  0  0  0
    1.6517    1.9766   -0.2309 H   0  0  0  0  0  0  0  0  0  0  0  0
    1.3750   -2.2817    0.1332 H   0  0  0  0  0  0  0  0  0  0  0  0
   -1.1544   -2.1473    0.1321 H   0  0  0  0  0  0  0  0  0  0  0  0
   -4.4093    3.8643   -0.3726 Cl  0  0  0  0  0  0  0  0  0  0  0  0
  1 11  2  0  0  0  0
  2  1  1  0  0  0  0
  3  2  1  0  0  0  0
  4  5  2  0  0  0  0
  4  1  1  0  0  0  0
  5  6  1  0  0  0  0
  6  7  1  0  0  0  0
  6 10  2  0  0  0  0
  7  9  2  0  0  0  0
  8  7  2  0  0  0  0
 10 14  1  0  0  0  0
 11 10  1  0  0  0  0
 11 15  1  0  0  0  0
 12 16  1  0  0  0  0
 13  5  1  0  0  0  0
M  RAD  3   2   2   3   3   4   2
M  END
