Coordinates from ORCA-job 4-NO2PhN2+~Cl-_B3LYPG-6-31G_dp-CH-Scan-d09-49-n800
 OpenBabel11261919153D

 16 15  0  0  0  0  0  0  0  0999 V2000
   -1.0205    0.0579   -0.0632 C   0  0  0  0  0  0  0  0  0  0  0  0
   -2.4204    0.1969   -0.0726 N   0  0  0  0  0  0  0  0  0  0  0  0
   -3.5199    0.3963   -0.0778 N   0  0  0  0  0  0  0  0  0  0  0  0
   -0.3816    1.2923   -0.1740 C   0  0  0  0  0  0  0  0  0  0  0  0
    1.0336    1.1000   -0.1599 C   0  0  0  0  0  0  0  0  0  0  0  0
    1.6025   -0.1594   -0.0497 C   0  0  0  0  0  0  0  0  0  0  0  0
    3.0843   -0.2896   -0.0403 N   0  0  0  0  0  0  0  0  0  0  0  0
    3.7483    0.7378   -0.1386 O   0  0  0  0  0  0  0  0  0  0  0  0
    3.5538   -1.4225    0.0652 O   0  0  0  0  0  0  0  0  0  0  0  0
    0.8592   -1.3572    0.0579 C   0  0  0  0  0  0  0  0  0  0  0  0
   -0.5127   -1.2634    0.0527 C   0  0  0  0  0  0  0  0  0  0  0  0
   -3.4570    4.5239   -0.4480 H   0  0  0  0  0  0  0  0  0  0  0  0
    1.7058    1.9500   -0.2362 H   0  0  0  0  0  0  0  0  0  0  0  0
    1.3765   -2.3036    0.1409 H   0  0  0  0  0  0  0  0  0  0  0  0
   -1.1511   -2.1387    0.1320 H   0  0  0  0  0  0  0  0  0  0  0  0
   -4.5539    3.8575   -0.3587 Cl  0  0  0  0  0  0  0  0  0  0  0  0
  1 11  2  0  0  0  0
  2  1  1  0  0  0  0
  3  2  1  0  0  0  0
  4  5  2  0  0  0  0
  4  1  1  0  0  0  0
  5  6  1  0  0  0  0
  6  7  1  0  0  0  0
  6 10  2  0  0  0  0
  7  9  2  0  0  0  0
  8  7  2  0  0  0  0
 10 14  1  0  0  0  0
 11 10  1  0  0  0  0
 11 15  1  0  0  0  0
 12 16  1  0  0  0  0
 13  5  1  0  0  0  0
M  RAD  3   2   2   3   3   4   2
M  END
