Coordinates from ORCA-job 4-NO2PhN2+~Cl-_B3LYPG-6-31G_dp-CH-Scan-d09-49-n800
 OpenBabel11261919153D

 16 15  0  0  0  0  0  0  0  0999 V2000
   -1.1925    0.0107   -0.0506 C   0  0  0  0  0  0  0  0  0  0  0  0
   -2.5934    0.0458   -0.0476 N   0  0  0  0  0  0  0  0  0  0  0  0
   -3.7053    0.1512   -0.0510 N   0  0  0  0  0  0  0  0  0  0  0  0
   -0.6320    1.2856   -0.1621 C   0  0  0  0  0  0  0  0  0  0  0  0
    0.7899    1.1986   -0.1616 C   0  0  0  0  0  0  0  0  0  0  0  0
    1.4459   -0.0190   -0.0621 C   0  0  0  0  0  0  0  0  0  0  0  0
    2.9337   -0.0438   -0.0681 N   0  0  0  0  0  0  0  0  0  0  0  0
    3.5201    1.0281   -0.1767 O   0  0  0  0  0  0  0  0  0  0  0  0
    3.4811   -1.1406    0.0371 O   0  0  0  0  0  0  0  0  0  0  0  0
    0.7895   -1.2647    0.0478 C   0  0  0  0  0  0  0  0  0  0  0  0
   -0.5858   -1.2689    0.0556 C   0  0  0  0  0  0  0  0  0  0  0  0
   -2.3883    3.4225   -0.3491 H   0  0  0  0  0  0  0  0  0  0  0  0
    1.3976    2.0952   -0.2405 H   0  0  0  0  0  0  0  0  0  0  0  0
    1.3725   -2.1728    0.1226 H   0  0  0  0  0  0  0  0  0  0  0  0
   -1.1588   -2.1877    0.1379 H   0  0  0  0  0  0  0  0  0  0  0  0
   -3.5271    4.0381   -0.4019 Cl  0  0  0  0  0  0  0  0  0  0  0  0
  1  2  1  0  0  0  0
  1 11  2  0  0  0  0
  3  2  1  0  0  0  0
  4  5  2  0  0  0  0
  4  1  1  0  0  0  0
  5  6  1  0  0  0  0
  6 10  2  0  0  0  0
  7  6  1  0  0  0  0
  7  9  2  0  0  0  0
  8  7  2  0  0  0  0
 10 11  1  0  0  0  0
 10 14  1  0  0  0  0
 11 15  1  0  0  0  0
 13  5  1  0  0  0  0
 16 12  1  0  0  0  0
M  RAD  3   2   2   3   3   4   2
M  END
