Coordinates from ORCA-job 4-NO2PhN2+~Cl-_B3LYPG-6-31G_dp-CH-Scan-d09-49-n800
 OpenBabel11261919153D

 16 15  0  0  0  0  0  0  0  0999 V2000
   -1.1982    0.0170   -0.0518 C   0  0  0  0  0  0  0  0  0  0  0  0
   -2.5988    0.0519   -0.0494 N   0  0  0  0  0  0  0  0  0  0  0  0
   -3.7105    0.1585   -0.0538 N   0  0  0  0  0  0  0  0  0  0  0  0
   -0.6369    1.2918   -0.1643 C   0  0  0  0  0  0  0  0  0  0  0  0
    0.7848    1.2049   -0.1634 C   0  0  0  0  0  0  0  0  0  0  0  0
    1.4407   -0.0127   -0.0627 C   0  0  0  0  0  0  0  0  0  0  0  0
    2.9284   -0.0375   -0.0684 N   0  0  0  0  0  0  0  0  0  0  0  0
    3.5147    1.0344   -0.1776 O   0  0  0  0  0  0  0  0  0  0  0  0
    3.4757   -1.1342    0.0375 O   0  0  0  0  0  0  0  0  0  0  0  0
    0.7842   -1.2581    0.0480 C   0  0  0  0  0  0  0  0  0  0  0  0
   -0.5912   -1.2623    0.0555 C   0  0  0  0  0  0  0  0  0  0  0  0
   -2.3539    3.3707   -0.3433 H   0  0  0  0  0  0  0  0  0  0  0  0
    1.3924    2.1015   -0.2428 H   0  0  0  0  0  0  0  0  0  0  0  0
    1.3670   -2.1663    0.1237 H   0  0  0  0  0  0  0  0  0  0  0  0
   -1.1642   -2.1810    0.1384 H   0  0  0  0  0  0  0  0  0  0  0  0
   -3.4872    3.9999   -0.3957 Cl  0  0  0  0  0  0  0  0  0  0  0  0
  1  2  1  0  0  0  0
  1 11  2  0  0  0  0
  3  2  1  0  0  0  0
  4  5  2  0  0  0  0
  4  1  1  0  0  0  0
  5  6  1  0  0  0  0
  6 10  2  0  0  0  0
  7  6  1  0  0  0  0
  7  9  2  0  0  0  0
  8  7  2  0  0  0  0
 10 11  1  0  0  0  0
 10 14  1  0  0  0  0
 11 15  1  0  0  0  0
 13  5  1  0  0  0  0
 16 12  1  0  0  0  0
M  RAD  3   2   2   3   3   4   2
M  END
