Coordinates from ORCA-job 4-NO2PhN2+~Cl-_B3LYPG-6-31G_dp-CH-Scan-d09-49-n800
 OpenBabel11261919153D

 16 15  0  0  0  0  0  0  0  0999 V2000
   -1.2875    0.0711   -0.0578 C   0  0  0  0  0  0  0  0  0  0  0  0
   -2.7042    0.1356   -0.0569 N   0  0  0  0  0  0  0  0  0  0  0  0
   -3.7139    0.6291   -0.0951 N   0  0  0  0  0  0  0  0  0  0  0  0
   -0.7008    1.3264   -0.1702 C   0  0  0  0  0  0  0  0  0  0  0  0
    0.7050    1.2923   -0.1736 C   0  0  0  0  0  0  0  0  0  0  0  0
    1.3698    0.0738   -0.0700 C   0  0  0  0  0  0  0  0  0  0  0  0
    2.8560    0.0668   -0.0761 N   0  0  0  0  0  0  0  0  0  0  0  0
    3.4254    1.1477   -0.1825 O   0  0  0  0  0  0  0  0  0  0  0  0
    3.4149   -1.0232    0.0263 O   0  0  0  0  0  0  0  0  0  0  0  0
    0.7203   -1.1670    0.0414 C   0  0  0  0  0  0  0  0  0  0  0  0
   -0.6623   -1.1834    0.0490 C   0  0  0  0  0  0  0  0  0  0  0  0
   -1.7666    2.5100   -0.2691 H   0  0  0  0  0  0  0  0  0  0  0  0
    1.2911    2.2011   -0.2559 H   0  0  0  0  0  0  0  0  0  0  0  0
    1.3078   -2.0722    0.1182 H   0  0  0  0  0  0  0  0  0  0  0  0
   -1.2267   -2.1062    0.1326 H   0  0  0  0  0  0  0  0  0  0  0  0
   -3.0814    3.2765   -0.3307 Cl  0  0  0  0  0  0  0  0  0  0  0  0
  1  2  1  0  0  0  0
  1 11  2  0  0  0  0
  3  2  1  0  0  0  0
  4  1  1  0  0  0  0
  5  4  2  0  0  0  0
  5  6  1  0  0  0  0
  6 10  2  0  0  0  0
  7  6  1  0  0  0  0
  7  9  2  0  0  0  0
  8  7  2  0  0  0  0
 10 11  1  0  0  0  0
 10 14  1  0  0  0  0
 11 15  1  0  0  0  0
 13  5  1  0  0  0  0
 16 12  1  0  0  0  0
M  RAD  3   2   2   3   3   4   2
M  END
