Coordinates from ORCA-job 4-NO2PhN2+~Cl-_B3LYPG-6-31G_dp-CH-Scan-d09-49-n800
 OpenBabel11261919153D

 16 15  0  0  0  0  0  0  0  0999 V2000
   -1.0664    0.0496   -0.0547 C   0  0  0  0  0  0  0  0  0  0  0  0
   -2.4685    0.1629   -0.0592 N   0  0  0  0  0  0  0  0  0  0  0  0
   -3.5718    0.3392   -0.0692 N   0  0  0  0  0  0  0  0  0  0  0  0
   -0.4486    1.2954   -0.1619 C   0  0  0  0  0  0  0  0  0  0  0  0
    0.9696    1.1277   -0.1537 C   0  0  0  0  0  0  0  0  0  0  0  0
    1.5606   -0.1223   -0.0527 C   0  0  0  0  0  0  0  0  0  0  0  0
    3.0444   -0.2268   -0.0505 N   0  0  0  0  0  0  0  0  0  0  0  0
    3.6899    0.8123   -0.1501 O   0  0  0  0  0  0  0  0  0  0  0  0
    3.5339   -1.3513    0.0529 O   0  0  0  0  0  0  0  0  0  0  0  0
    0.8387   -1.3330    0.0521 C   0  0  0  0  0  0  0  0  0  0  0  0
   -0.5347   -1.2629    0.0529 C   0  0  0  0  0  0  0  0  0  0  0  0
   -3.1125    4.2657   -0.4298 H   0  0  0  0  0  0  0  0  0  0  0  0
    1.6269    1.9895   -0.2277 H   0  0  0  0  0  0  0  0  0  0  0  0
    1.3725   -2.2707    0.1285 H   0  0  0  0  0  0  0  0  0  0  0  0
   -1.1575   -2.1495    0.1308 H   0  0  0  0  0  0  0  0  0  0  0  0
   -4.3296    3.8525   -0.3781 Cl  0  0  0  0  0  0  0  0  0  0  0  0
  1 11  2  0  0  0  0
  2  1  1  0  0  0  0
  3  2  1  0  0  0  0
  4  5  2  0  0  0  0
  4  1  1  0  0  0  0
  5  6  1  0  0  0  0
  6  7  1  0  0  0  0
  6 10  2  0  0  0  0
  7  9  2  0  0  0  0
  8  7  2  0  0  0  0
 10 11  1  0  0  0  0
 10 14  1  0  0  0  0
 11 15  1  0  0  0  0
 12 16  1  0  0  0  0
 13  5  1  0  0  0  0
M  RAD  3   2   2   3   3   4   2
M  END
