Coordinates from ORCA-job 4-NO2PhN2+~Cl-_B3LYPG-6-31G_dp-CH-Scan-d09-49-n800
 OpenBabel11261919153D

 16 15  0  0  0  0  0  0  0  0999 V2000
   -1.0581    0.0499   -0.0556 C   0  0  0  0  0  0  0  0  0  0  0  0
   -2.4599    0.1673   -0.0607 N   0  0  0  0  0  0  0  0  0  0  0  0
   -3.5628    0.3468   -0.0716 N   0  0  0  0  0  0  0  0  0  0  0  0
   -0.4371    1.2941   -0.1633 C   0  0  0  0  0  0  0  0  0  0  0  0
    0.9806    1.1223   -0.1543 C   0  0  0  0  0  0  0  0  0  0  0  0
    1.5683   -0.1292   -0.0520 C   0  0  0  0  0  0  0  0  0  0  0  0
    3.0518   -0.2377   -0.0490 N   0  0  0  0  0  0  0  0  0  0  0  0
    3.7002    0.7995   -0.1488 O   0  0  0  0  0  0  0  0  0  0  0  0
    3.5381   -1.3635    0.0546 O   0  0  0  0  0  0  0  0  0  0  0  0
    0.8430   -1.3379    0.0532 C   0  0  0  0  0  0  0  0  0  0  0  0
   -0.5302   -1.2640    0.0532 C   0  0  0  0  0  0  0  0  0  0  0  0
   -3.1721    4.3150   -0.4330 H   0  0  0  0  0  0  0  0  0  0  0  0
    1.6403    1.9823   -0.2287 H   0  0  0  0  0  0  0  0  0  0  0  0
    1.3742   -2.2770    0.1305 H   0  0  0  0  0  0  0  0  0  0  0  0
   -1.1555   -2.1488    0.1314 H   0  0  0  0  0  0  0  0  0  0  0  0
   -4.3737    3.8594   -0.3761 Cl  0  0  0  0  0  0  0  0  0  0  0  0
  1 11  2  0  0  0  0
  2  1  1  0  0  0  0
  3  2  1  0  0  0  0
  4  5  2  0  0  0  0
  4  1  1  0  0  0  0
  5  6  1  0  0  0  0
  6  7  1  0  0  0  0
  6 10  2  0  0  0  0
  7  9  2  0  0  0  0
  8  7  2  0  0  0  0
 10 11  1  0  0  0  0
 10 14  1  0  0  0  0
 11 15  1  0  0  0  0
 12 16  1  0  0  0  0
 13  5  1  0  0  0  0
M  RAD  3   2   2   3   3   4   2
M  END
