Coordinates from ORCA-job 4-NO2PhN2+~Cl-_B3LYPG-6-31G_dp-CH-Scan-d09-49-n800
 OpenBabel11261919153D

 16 15  0  0  0  0  0  0  0  0999 V2000
   -1.0863    0.0493   -0.0514 C   0  0  0  0  0  0  0  0  0  0  0  0
   -2.4887    0.1519   -0.0534 N   0  0  0  0  0  0  0  0  0  0  0  0
   -3.5935    0.3187   -0.0615 N   0  0  0  0  0  0  0  0  0  0  0  0
   -0.4760    1.2994   -0.1564 C   0  0  0  0  0  0  0  0  0  0  0  0
    0.9429    1.1411   -0.1508 C   0  0  0  0  0  0  0  0  0  0  0  0
    1.5423   -0.1053   -0.0539 C   0  0  0  0  0  0  0  0  0  0  0  0
    3.0268   -0.1999   -0.0544 N   0  0  0  0  0  0  0  0  0  0  0  0
    3.6650    0.8436   -0.1540 O   0  0  0  0  0  0  0  0  0  0  0  0
    3.5237   -1.3213    0.0461 O   0  0  0  0  0  0  0  0  0  0  0  0
    0.8286   -1.3209    0.0490 C   0  0  0  0  0  0  0  0  0  0  0  0
   -0.5452   -1.2598    0.0522 C   0  0  0  0  0  0  0  0  0  0  0  0
   -2.9662    4.1160   -0.4173 H   0  0  0  0  0  0  0  0  0  0  0  0
    1.5943    2.0074   -0.2237 H   0  0  0  0  0  0  0  0  0  0  0  0
    1.3687   -2.2552    0.1223 H   0  0  0  0  0  0  0  0  0  0  0  0
   -1.1620   -2.1506    0.1289 H   0  0  0  0  0  0  0  0  0  0  0  0
   -4.2277    3.8640   -0.3919 Cl  0  0  0  0  0  0  0  0  0  0  0  0
  1 11  2  0  0  0  0
  2  1  1  0  0  0  0
  3  2  1  0  0  0  0
  4  5  2  0  0  0  0
  4  1  1  0  0  0  0
  5  6  1  0  0  0  0
  6 10  2  0  0  0  0
  7  6  1  0  0  0  0
  7  9  2  0  0  0  0
  8  7  2  0  0  0  0
 10 11  1  0  0  0  0
 10 14  1  0  0  0  0
 11 15  1  0  0  0  0
 12 16  1  0  0  0  0
 13  5  1  0  0  0  0
M  RAD  3   2   2   3   3   4   2
M  END
