Coordinates from ORCA-job 4-NO2PhN2+~Cl-_B3LYPG-6-31G_dp-CH-Scan-d09-49-n800
 OpenBabel11261919153D

 16 15  0  0  0  0  0  0  0  0999 V2000
   -1.1004    0.0493   -0.0507 C   0  0  0  0  0  0  0  0  0  0  0  0
   -2.5029    0.1450   -0.0517 N   0  0  0  0  0  0  0  0  0  0  0  0
   -3.6085    0.3057   -0.0617 N   0  0  0  0  0  0  0  0  0  0  0  0
   -0.4950    1.3020   -0.1558 C   0  0  0  0  0  0  0  0  0  0  0  0
    0.9243    1.1507   -0.1512 C   0  0  0  0  0  0  0  0  0  0  0  0
    1.5294   -0.0931   -0.0549 C   0  0  0  0  0  0  0  0  0  0  0  0
    3.0144   -0.1808   -0.0565 N   0  0  0  0  0  0  0  0  0  0  0  0
    3.6475    0.8655   -0.1574 O   0  0  0  0  0  0  0  0  0  0  0  0
    3.5163   -1.3000    0.0434 O   0  0  0  0  0  0  0  0  0  0  0  0
    0.8213   -1.3118    0.0484 C   0  0  0  0  0  0  0  0  0  0  0  0
   -0.5528   -1.2571    0.0524 C   0  0  0  0  0  0  0  0  0  0  0  0
   -2.8688    4.0016   -0.4042 H   0  0  0  0  0  0  0  0  0  0  0  0
    1.5716    2.0201   -0.2244 H   0  0  0  0  0  0  0  0  0  0  0  0
    1.3657   -2.2437    0.1212 H   0  0  0  0  0  0  0  0  0  0  0  0
   -1.1653   -2.1508    0.1294 H   0  0  0  0  0  0  0  0  0  0  0  0
   -4.1498    3.8759   -0.3967 Cl  0  0  0  0  0  0  0  0  0  0  0  0
  1 11  2  0  0  0  0
  2  1  1  0  0  0  0
  3  2  1  0  0  0  0
  4  5  2  0  0  0  0
  4  1  1  0  0  0  0
  5  6  1  0  0  0  0
  6 10  2  0  0  0  0
  7  6  1  0  0  0  0
  7  9  2  0  0  0  0
  8  7  2  0  0  0  0
 10 11  1  0  0  0  0
 10 14  1  0  0  0  0
 11 15  1  0  0  0  0
 12 16  1  0  0  0  0
 13  5  1  0  0  0  0
M  RAD  3   2   2   3   3   4   2
M  END
