Coordinates from ORCA-job 4-NO2PhN2+~Cl-_B3LYPG-6-31G_dp-CH-Scan-d09-49-n800
 OpenBabel11261919153D

 16 15  0  0  0  0  0  0  0  0999 V2000
   -1.0641    0.0497   -0.0548 C   0  0  0  0  0  0  0  0  0  0  0  0
   -2.4662    0.1642   -0.0594 N   0  0  0  0  0  0  0  0  0  0  0  0
   -3.5694    0.3414   -0.0699 N   0  0  0  0  0  0  0  0  0  0  0  0
   -0.4454    1.2951   -0.1620 C   0  0  0  0  0  0  0  0  0  0  0  0
    0.9726    1.1262   -0.1536 C   0  0  0  0  0  0  0  0  0  0  0  0
    1.5627   -0.1242   -0.0524 C   0  0  0  0  0  0  0  0  0  0  0  0
    3.0464   -0.2298   -0.0501 N   0  0  0  0  0  0  0  0  0  0  0  0
    3.6927    0.8087   -0.1500 O   0  0  0  0  0  0  0  0  0  0  0  0
    3.5350   -1.3547    0.0530 O   0  0  0  0  0  0  0  0  0  0  0  0
    0.8398   -1.3344    0.0524 C   0  0  0  0  0  0  0  0  0  0  0  0
   -0.5335   -1.2632    0.0530 C   0  0  0  0  0  0  0  0  0  0  0  0
   -3.1292    4.2812   -0.4311 H   0  0  0  0  0  0  0  0  0  0  0  0
    1.6305    1.9876   -0.2277 H   0  0  0  0  0  0  0  0  0  0  0  0
    1.3730   -2.2725    0.1289 H   0  0  0  0  0  0  0  0  0  0  0  0
   -1.1570   -2.1492    0.1309 H   0  0  0  0  0  0  0  0  0  0  0  0
   -4.3409    3.8523   -0.3777 Cl  0  0  0  0  0  0  0  0  0  0  0  0
  1 11  2  0  0  0  0
  2  1  1  0  0  0  0
  3  2  1  0  0  0  0
  4  5  2  0  0  0  0
  4  1  1  0  0  0  0
  5  6  1  0  0  0  0
  6  7  1  0  0  0  0
  6 10  2  0  0  0  0
  7  9  2  0  0  0  0
  8  7  2  0  0  0  0
 10 11  1  0  0  0  0
 10 14  1  0  0  0  0
 11 15  1  0  0  0  0
 12 16  1  0  0  0  0
 13  5  1  0  0  0  0
M  RAD  3   2   2   3   3   4   2
M  END
