Coordinates from ORCA-job 4-NO2PhN2+~Cl-_B3LYPG-6-31G_dp-CH-Scan-d09-49-n800
 OpenBabel11261919153D

 16 15  0  0  0  0  0  0  0  0999 V2000
   -1.0490    0.0513   -0.0576 C   0  0  0  0  0  0  0  0  0  0  0  0
   -2.4505    0.1733   -0.0635 N   0  0  0  0  0  0  0  0  0  0  0  0
   -3.5528    0.3563   -0.0748 N   0  0  0  0  0  0  0  0  0  0  0  0
   -0.4239    1.2931   -0.1667 C   0  0  0  0  0  0  0  0  0  0  0  0
    0.9933    1.1166   -0.1567 C   0  0  0  0  0  0  0  0  0  0  0  0
    1.5767   -0.1367   -0.0523 C   0  0  0  0  0  0  0  0  0  0  0  0
    3.0599   -0.2501   -0.0481 N   0  0  0  0  0  0  0  0  0  0  0  0
    3.7118    0.7851   -0.1454 O   0  0  0  0  0  0  0  0  0  0  0  0
    3.5424   -1.3772    0.0597 O   0  0  0  0  0  0  0  0  0  0  0  0
    0.8473   -1.3428    0.0543 C   0  0  0  0  0  0  0  0  0  0  0  0
   -0.5256   -1.2644    0.0534 C   0  0  0  0  0  0  0  0  0  0  0  0
   -3.2379    4.3643   -0.4348 H   0  0  0  0  0  0  0  0  0  0  0  0
    1.6558    1.9744   -0.2321 H   0  0  0  0  0  0  0  0  0  0  0  0
    1.3754   -2.2836    0.1332 H   0  0  0  0  0  0  0  0  0  0  0  0
   -1.1539   -2.1470    0.1324 H   0  0  0  0  0  0  0  0  0  0  0  0
   -4.4220    3.8658   -0.3716 Cl  0  0  0  0  0  0  0  0  0  0  0  0
  1 11  2  0  0  0  0
  2  1  1  0  0  0  0
  3  2  1  0  0  0  0
  4  5  2  0  0  0  0
  4  1  1  0  0  0  0
  5  6  1  0  0  0  0
  6  7  1  0  0  0  0
  6 10  2  0  0  0  0
  7  9  2  0  0  0  0
  8  7  2  0  0  0  0
 10 14  1  0  0  0  0
 11 10  1  0  0  0  0
 11 15  1  0  0  0  0
 12 16  1  0  0  0  0
 13  5  1  0  0  0  0
M  RAD  3   2   2   3   3   4   2
M  END
