Coordinates from ORCA-job 4-NO2PhN2+~Cl-_B3LYPG-6-31G_dp-CH-Scan-d09-49-n800
 OpenBabel11261919153D

 16 16  0  0  0  0  0  0  0  0999 V2000
   -1.3433    0.1594   -0.0647 C   0  0  0  0  0  0  0  0  0  0  0  0
   -2.7533    0.1046   -0.0530 N   0  0  0  0  0  0  0  0  0  0  0  0
   -3.7194    0.7621   -0.1068 N   0  0  0  0  0  0  0  0  0  0  0  0
   -0.6342    1.3631   -0.1732 C   0  0  0  0  0  0  0  0  0  0  0  0
    0.7553    1.3202   -0.1765 C   0  0  0  0  0  0  0  0  0  0  0  0
    1.3905    0.0838   -0.0715 C   0  0  0  0  0  0  0  0  0  0  0  0
    2.8705    0.0440   -0.0750 N   0  0  0  0  0  0  0  0  0  0  0  0
    3.4626    1.1145   -0.1771 O   0  0  0  0  0  0  0  0  0  0  0  0
    3.4038   -1.0576    0.0271 O   0  0  0  0  0  0  0  0  0  0  0  0
    0.6944   -1.1196    0.0372 C   0  0  0  0  0  0  0  0  0  0  0  0
   -0.6936   -1.0798    0.0405 C   0  0  0  0  0  0  0  0  0  0  0  0
   -1.2665    2.4090   -0.2613 H   0  0  0  0  0  0  0  0  0  0  0  0
    1.3498    2.2213   -0.2583 H   0  0  0  0  0  0  0  0  0  0  0  0
    1.2415   -2.0501    0.1164 H   0  0  0  0  0  0  0  0  0  0  0  0
   -1.2828   -1.9862    0.1231 H   0  0  0  0  0  0  0  0  0  0  0  0
   -3.5284    2.8899   -0.2971 Cl  0  0  0  0  0  0  0  0  0  0  0  0
  1  2  1  0  0  0  0
  1 11  2  0  0  0  0
  3  2  2  0  0  0  0
  4  1  1  0  0  0  0
  5  4  2  0  0  0  0
  5  6  1  0  0  0  0
  6 10  2  0  0  0  0
  7  6  1  0  0  0  0
  7  9  2  0  0  0  0
  8  7  2  0  0  0  0
 10 11  1  0  0  0  0
 10 14  1  0  0  0  0
 11 15  1  0  0  0  0
 12  4  1  0  0  0  0
 13  5  1  0  0  0  0
 16  3  1  0  0  0  0
M  END
