Coordinates from ORCA-job 4-NO2PhN2+~Cl-_B3LYPG-6-31G_dp-CH-Scan-d09-49-n800
 OpenBabel11261919153D

 16 15  0  0  0  0  0  0  0  0999 V2000
   -1.2704    0.0622   -0.0566 C   0  0  0  0  0  0  0  0  0  0  0  0
   -2.6695    0.0866   -0.0533 N   0  0  0  0  0  0  0  0  0  0  0  0
   -3.7786    0.2058   -0.0590 N   0  0  0  0  0  0  0  0  0  0  0  0
   -0.7056    1.3362   -0.1705 C   0  0  0  0  0  0  0  0  0  0  0  0
    0.7112    1.2710   -0.1709 C   0  0  0  0  0  0  0  0  0  0  0  0
    1.3766    0.0576   -0.0686 C   0  0  0  0  0  0  0  0  0  0  0  0
    2.8646    0.0466   -0.0748 N   0  0  0  0  0  0  0  0  0  0  0  0
    3.4386    1.1245   -0.1826 O   0  0  0  0  0  0  0  0  0  0  0  0
    3.4200   -1.0457    0.0290 O   0  0  0  0  0  0  0  0  0  0  0  0
    0.7295   -1.1902    0.0434 C   0  0  0  0  0  0  0  0  0  0  0  0
   -0.6471   -1.2065    0.0513 C   0  0  0  0  0  0  0  0  0  0  0  0
   -1.9338    2.8214   -0.2956 H   0  0  0  0  0  0  0  0  0  0  0  0
    1.3058    2.1754   -0.2525 H   0  0  0  0  0  0  0  0  0  0  0  0
    1.3188   -2.0941    0.1198 H   0  0  0  0  0  0  0  0  0  0  0  0
   -1.2112   -2.1303    0.1350 H   0  0  0  0  0  0  0  0  0  0  0  0
   -3.0019    3.6580   -0.3643 Cl  0  0  0  0  0  0  0  0  0  0  0  0
  1  2  1  0  0  0  0
  1 11  2  0  0  0  0
  3  2  1  0  0  0  0
  4  1  1  0  0  0  0
  5  4  2  0  0  0  0
  5  6  1  0  0  0  0
  6 10  2  0  0  0  0
  7  6  1  0  0  0  0
  7  9  2  0  0  0  0
  8  7  2  0  0  0  0
 10 11  1  0  0  0  0
 10 14  1  0  0  0  0
 11 15  1  0  0  0  0
 13  5  1  0  0  0  0
 16 12  1  0  0  0  0
M  RAD  3   2   2   3   3   4   2
M  END
