Coordinates from ORCA-job 4-NO2PhN2+~Cl-_B3LYPG-6-31G_dp-CH-Scan-d09-49-n800
 OpenBabel11261919153D

 16 15  0  0  0  0  0  0  0  0999 V2000
   -1.2245    0.0323   -0.0537 C   0  0  0  0  0  0  0  0  0  0  0  0
   -2.6244    0.0618   -0.0509 N   0  0  0  0  0  0  0  0  0  0  0  0
   -3.7358    0.1667   -0.0555 N   0  0  0  0  0  0  0  0  0  0  0  0
   -0.6638    1.3078   -0.1669 C   0  0  0  0  0  0  0  0  0  0  0  0
    0.7568    1.2284   -0.1663 C   0  0  0  0  0  0  0  0  0  0  0  0
    1.4168    0.0129   -0.0648 C   0  0  0  0  0  0  0  0  0  0  0  0
    2.9046   -0.0063   -0.0708 N   0  0  0  0  0  0  0  0  0  0  0  0
    3.4862    1.0679   -0.1797 O   0  0  0  0  0  0  0  0  0  0  0  0
    3.4555   -1.1011    0.0346 O   0  0  0  0  0  0  0  0  0  0  0  0
    0.7645   -1.2341    0.0466 C   0  0  0  0  0  0  0  0  0  0  0  0
   -0.6111   -1.2433    0.0542 C   0  0  0  0  0  0  0  0  0  0  0  0
   -2.2064    3.1746   -0.3259 H   0  0  0  0  0  0  0  0  0  0  0  0
    1.3598    2.1277   -0.2467 H   0  0  0  0  0  0  0  0  0  0  0  0
    1.3503   -2.1403    0.1227 H   0  0  0  0  0  0  0  0  0  0  0  0
   -1.1805   -2.1642    0.1375 H   0  0  0  0  0  0  0  0  0  0  0  0
   -3.3011    3.8875   -0.3846 Cl  0  0  0  0  0  0  0  0  0  0  0  0
  1  2  1  0  0  0  0
  1 11  2  0  0  0  0
  3  2  1  0  0  0  0
  4  5  2  0  0  0  0
  4  1  1  0  0  0  0
  5  6  1  0  0  0  0
  6 10  2  0  0  0  0
  7  6  1  0  0  0  0
  7  9  2  0  0  0  0
  8  7  2  0  0  0  0
 10 11  1  0  0  0  0
 10 14  1  0  0  0  0
 11 15  1  0  0  0  0
 13  5  1  0  0  0  0
 16 12  1  0  0  0  0
M  RAD  3   2   2   3   3   4   2
M  END
