Coordinates from ORCA-job 4-NO2PhN2+~Cl-_B3LYPG-6-31G_dp-CH-Scan-d09-49-n800
 OpenBabel11261919153D

 16 15  0  0  0  0  0  0  0  0999 V2000
   -1.1125    0.0141   -0.0440 C   0  0  0  0  0  0  0  0  0  0  0  0
   -2.5154    0.0908   -0.0423 N   0  0  0  0  0  0  0  0  0  0  0  0
   -3.6233    0.2356   -0.0470 N   0  0  0  0  0  0  0  0  0  0  0  0
   -0.5255    1.2759   -0.1468 C   0  0  0  0  0  0  0  0  0  0  0  0
    0.8958    1.1463   -0.1460 C   0  0  0  0  0  0  0  0  0  0  0  0
    1.5192   -0.0887   -0.0551 C   0  0  0  0  0  0  0  0  0  0  0  0
    3.0054   -0.1545   -0.0610 N   0  0  0  0  0  0  0  0  0  0  0  0
    3.6224    0.9012   -0.1627 O   0  0  0  0  0  0  0  0  0  0  0  0
    3.5237   -1.2662    0.0376 O   0  0  0  0  0  0  0  0  0  0  0  0
    0.8295   -1.3181    0.0463 C   0  0  0  0  0  0  0  0  0  0  0  0
   -0.5452   -1.2843    0.0539 C   0  0  0  0  0  0  0  0  0  0  0  0
   -2.8091    3.9599   -0.4020 H   0  0  0  0  0  0  0  0  0  0  0  0
    1.5297    2.0256   -0.2180 H   0  0  0  0  0  0  0  0  0  0  0  0
    1.3880   -2.2420    0.1151 H   0  0  0  0  0  0  0  0  0  0  0  0
   -1.1442   -2.1872    0.1300 H   0  0  0  0  0  0  0  0  0  0  0  0
   -4.0914    4.0699   -0.4284 Cl  0  0  0  0  0  0  0  0  0  0  0  0
  1  2  1  0  0  0  0
  1 11  2  0  0  0  0
  3  2  1  0  0  0  0
  4  5  2  0  0  0  0
  4  1  1  0  0  0  0
  5  6  1  0  0  0  0
  6 10  2  0  0  0  0
  7  6  1  0  0  0  0
  7  9  2  0  0  0  0
  8  7  2  0  0  0  0
 10 11  1  0  0  0  0
 10 14  1  0  0  0  0
 11 15  1  0  0  0  0
 13  5  1  0  0  0  0
 16 12  1  0  0  0  0
M  RAD  3   2   2   3   3   4   2
M  END
