Coordinates from ORCA-job 4-NO2PhN2+~Cl-_B3LYPG-6-31G_dp-CH-Scan-d09-49-n800
 OpenBabel11261919153D

 16 16  0  0  0  0  0  0  0  0999 V2000
   -1.3539    0.1917    0.0672 C   0  0  0  0  0  0  0  0  0  0  0  0
   -2.7612    0.1482    0.1827 N   0  0  0  0  0  0  0  0  0  0  0  0
   -3.7113    0.7998   -0.0485 N   0  0  0  0  0  0  0  0  0  0  0  0
   -0.6379    1.3964    0.0179 C   0  0  0  0  0  0  0  0  0  0  0  0
    0.7503    1.3402   -0.0519 C   0  0  0  0  0  0  0  0  0  0  0  0
    1.3781    0.0965   -0.0784 C   0  0  0  0  0  0  0  0  0  0  0  0
    2.8539    0.0477   -0.1605 N   0  0  0  0  0  0  0  0  0  0  0  0
    3.4524    1.1190   -0.2014 O   0  0  0  0  0  0  0  0  0  0  0  0
    3.3801   -1.0621   -0.1819 O   0  0  0  0  0  0  0  0  0  0  0  0
    0.6740   -1.1052   -0.0224 C   0  0  0  0  0  0  0  0  0  0  0  0
   -0.7110   -1.0542    0.0685 C   0  0  0  0  0  0  0  0  0  0  0  0
   -1.1797    2.3655    0.0241 H   0  0  0  0  0  0  0  0  0  0  0  0
    1.3493    2.2413   -0.0911 H   0  0  0  0  0  0  0  0  0  0  0  0
    1.2129   -2.0438   -0.0388 H   0  0  0  0  0  0  0  0  0  0  0  0
   -1.3037   -1.9596    0.1336 H   0  0  0  0  0  0  0  0  0  0  0  0
   -3.4453    2.6569   -0.9894 Cl  0  0  0  0  0  0  0  0  0  0  0  0
  1 11  1  0  0  0  0
  1  2  1  0  0  0  0
  3  2  2  0  0  0  0
  4 12  1  0  0  0  0
  4  1  2  0  0  0  0
  5  4  1  0  0  0  0
  6  5  2  0  0  0  0
  6 10  1  0  0  0  0
  7  6  1  0  0  0  0
  8  7  2  0  0  0  0
  9  7  2  0  0  0  0
 10 11  2  0  0  0  0
 11 15  1  0  0  0  0
 13  5  1  0  0  0  0
 14 10  1  0  0  0  0
 16  3  1  0  0  0  0
M  END
