Coordinates from ORCA-job 4-NO2PhN2+~Cl-_B3LYPG-6-31G_dp-CH-Scan-d09-49-n800
 OpenBabel11261919153D

 16 15  0  0  0  0  0  0  0  0999 V2000
   -1.1697   -0.0090   -0.0472 C   0  0  0  0  0  0  0  0  0  0  0  0
   -2.5713    0.0289   -0.0442 N   0  0  0  0  0  0  0  0  0  0  0  0
   -3.6831    0.1375   -0.0480 N   0  0  0  0  0  0  0  0  0  0  0  0
   -0.6107    1.2663   -0.1572 C   0  0  0  0  0  0  0  0  0  0  0  0
    0.8121    1.1754   -0.1571 C   0  0  0  0  0  0  0  0  0  0  0  0
    1.4667   -0.0430   -0.0599 C   0  0  0  0  0  0  0  0  0  0  0  0
    2.9544   -0.0701   -0.0667 N   0  0  0  0  0  0  0  0  0  0  0  0
    3.5428    1.0008   -0.1751 O   0  0  0  0  0  0  0  0  0  0  0  0
    3.5006   -1.1677    0.0375 O   0  0  0  0  0  0  0  0  0  0  0  0
    0.8089   -1.2885    0.0487 C   0  0  0  0  0  0  0  0  0  0  0  0
   -0.5662   -1.2906    0.0572 C   0  0  0  0  0  0  0  0  0  0  0  0
   -2.5210    3.6124   -0.3666 H   0  0  0  0  0  0  0  0  0  0  0  0
    1.4220    2.0708   -0.2346 H   0  0  0  0  0  0  0  0  0  0  0  0
    1.3909   -2.1974    0.1220 H   0  0  0  0  0  0  0  0  0  0  0  0
   -1.1409   -2.2085    0.1386 H   0  0  0  0  0  0  0  0  0  0  0  0
   -3.6885    4.1609   -0.4177 Cl  0  0  0  0  0  0  0  0  0  0  0  0
  1  2  1  0  0  0  0
  1 11  2  0  0  0  0
  3  2  1  0  0  0  0
  4  5  2  0  0  0  0
  4  1  1  0  0  0  0
  5  6  1  0  0  0  0
  6 10  2  0  0  0  0
  7  6  1  0  0  0  0
  7  9  2  0  0  0  0
  8  7  2  0  0  0  0
 10 11  1  0  0  0  0
 10 14  1  0  0  0  0
 11 15  1  0  0  0  0
 13  5  1  0  0  0  0
 16 12  1  0  0  0  0
M  RAD  3   2   2   3   3   4   2
M  END
