Coordinates from ORCA-job 4-NO2PhN2+~Cl-_B3LYPG-6-31G_dp-CH-Scan-d09-49-n800
 OpenBabel11261919153D

 16 15  0  0  0  0  0  0  0  0999 V2000
   -1.0760    0.0499   -0.0537 C   0  0  0  0  0  0  0  0  0  0  0  0
   -2.4782    0.1579   -0.0570 N   0  0  0  0  0  0  0  0  0  0  0  0
   -3.5823    0.3292   -0.0658 N   0  0  0  0  0  0  0  0  0  0  0  0
   -0.4616    1.2977   -0.1602 C   0  0  0  0  0  0  0  0  0  0  0  0
    0.9569    1.1342   -0.1531 C   0  0  0  0  0  0  0  0  0  0  0  0
    1.5518   -0.1141   -0.0536 C   0  0  0  0  0  0  0  0  0  0  0  0
    3.0360   -0.2140   -0.0525 N   0  0  0  0  0  0  0  0  0  0  0  0
    3.6781    0.8271   -0.1513 O   0  0  0  0  0  0  0  0  0  0  0  0
    3.5288   -1.3370    0.0509 O   0  0  0  0  0  0  0  0  0  0  0  0
    0.8337   -1.3271    0.0507 C   0  0  0  0  0  0  0  0  0  0  0  0
   -0.5399   -1.2610    0.0525 C   0  0  0  0  0  0  0  0  0  0  0  0
   -3.0413    4.1957   -0.4234 H   0  0  0  0  0  0  0  0  0  0  0  0
    1.6115    1.9980   -0.2270 H   0  0  0  0  0  0  0  0  0  0  0  0
    1.3704   -2.2632    0.1260 H   0  0  0  0  0  0  0  0  0  0  0  0
   -1.1599   -2.1495    0.1301 H   0  0  0  0  0  0  0  0  0  0  0  0
   -4.2812    3.8549   -0.3831 Cl  0  0  0  0  0  0  0  0  0  0  0  0
  1 11  2  0  0  0  0
  2  1  1  0  0  0  0
  3  2  1  0  0  0  0
  4  5  2  0  0  0  0
  4  1  1  0  0  0  0
  5  6  1  0  0  0  0
  6  7  1  0  0  0  0
  6 10  2  0  0  0  0
  7  9  2  0  0  0  0
  8  7  2  0  0  0  0
 10 11  1  0  0  0  0
 10 14  1  0  0  0  0
 11 15  1  0  0  0  0
 12 16  1  0  0  0  0
 13  5  1  0  0  0  0
M  RAD  3   2   2   3   3   4   2
M  END
