Coordinates from ORCA-job 4-NO2PhN2+~Cl-_B3LYPG-6-31G_dp-CH-Scan-d09-49-n800
 OpenBabel11261919153D

 16 15  0  0  0  0  0  0  0  0999 V2000
   -1.2504    0.0486   -0.0553 C   0  0  0  0  0  0  0  0  0  0  0  0
   -2.6497    0.0738   -0.0520 N   0  0  0  0  0  0  0  0  0  0  0  0
   -3.7604    0.1819   -0.0568 N   0  0  0  0  0  0  0  0  0  0  0  0
   -0.6888    1.3241   -0.1689 C   0  0  0  0  0  0  0  0  0  0  0  0
    0.7302    1.2521   -0.1689 C   0  0  0  0  0  0  0  0  0  0  0  0
    1.3936    0.0382   -0.0670 C   0  0  0  0  0  0  0  0  0  0  0  0
    2.8816    0.0240   -0.0731 N   0  0  0  0  0  0  0  0  0  0  0  0
    3.4588    1.1004   -0.1813 O   0  0  0  0  0  0  0  0  0  0  0  0
    3.4354   -1.0692    0.0314 O   0  0  0  0  0  0  0  0  0  0  0  0
    0.7448   -1.2097    0.0448 C   0  0  0  0  0  0  0  0  0  0  0  0
   -0.6312   -1.2233    0.0526 C   0  0  0  0  0  0  0  0  0  0  0  0
   -2.0562    2.9793   -0.3091 H   0  0  0  0  0  0  0  0  0  0  0  0
    1.3286    2.1542   -0.2500 H   0  0  0  0  0  0  0  0  0  0  0  0
    1.3329   -2.1144    0.1210 H   0  0  0  0  0  0  0  0  0  0  0  0
   -1.1974   -2.1460    0.1361 H   0  0  0  0  0  0  0  0  0  0  0  0
   -3.1250    3.7645   -0.3739 Cl  0  0  0  0  0  0  0  0  0  0  0  0
  1  2  1  0  0  0  0
  1 11  2  0  0  0  0
  3  2  1  0  0  0  0
  4  1  1  0  0  0  0
  5  4  2  0  0  0  0
  5  6  1  0  0  0  0
  6 10  2  0  0  0  0
  7  6  1  0  0  0  0
  7  9  2  0  0  0  0
  8  7  2  0  0  0  0
 10 11  1  0  0  0  0
 10 14  1  0  0  0  0
 11 15  1  0  0  0  0
 13  5  1  0  0  0  0
 16 12  1  0  0  0  0
M  RAD  3   2   2   3   3   4   2
M  END
