Coordinates from ORCA-job 4-NO2PhN2+~Cl-_B3LYPG-6-31G_dp-CH-Scan-d09-49-n800
 OpenBabel11261919153D

 16 15  0  0  0  0  0  0  0  0999 V2000
   -1.1012    0.0494   -0.0510 C   0  0  0  0  0  0  0  0  0  0  0  0
   -2.5037    0.1448   -0.0523 N   0  0  0  0  0  0  0  0  0  0  0  0
   -3.6093    0.3055   -0.0597 N   0  0  0  0  0  0  0  0  0  0  0  0
   -0.4961    1.3023   -0.1561 C   0  0  0  0  0  0  0  0  0  0  0  0
    0.9233    1.1513   -0.1514 C   0  0  0  0  0  0  0  0  0  0  0  0
    1.5286   -0.0924   -0.0551 C   0  0  0  0  0  0  0  0  0  0  0  0
    3.0136   -0.1797   -0.0566 N   0  0  0  0  0  0  0  0  0  0  0  0
    3.6465    0.8668   -0.1569 O   0  0  0  0  0  0  0  0  0  0  0  0
    3.5157   -1.2988    0.0439 O   0  0  0  0  0  0  0  0  0  0  0  0
    0.8208   -1.3112    0.0481 C   0  0  0  0  0  0  0  0  0  0  0  0
   -0.5533   -1.2569    0.0520 C   0  0  0  0  0  0  0  0  0  0  0  0
   -2.8632    3.9943   -0.4040 H   0  0  0  0  0  0  0  0  0  0  0  0
    1.5704    2.0208   -0.2246 H   0  0  0  0  0  0  0  0  0  0  0  0
    1.3654   -2.2430    0.1209 H   0  0  0  0  0  0  0  0  0  0  0  0
   -1.1656   -2.1507    0.1290 H   0  0  0  0  0  0  0  0  0  0  0  0
   -4.1450    3.8760   -0.3967 Cl  0  0  0  0  0  0  0  0  0  0  0  0
  1 11  2  0  0  0  0
  2  1  1  0  0  0  0
  3  2  1  0  0  0  0
  4  5  2  0  0  0  0
  4  1  1  0  0  0  0
  5  6  1  0  0  0  0
  6 10  2  0  0  0  0
  7  6  1  0  0  0  0
  7  9  2  0  0  0  0
  8  7  2  0  0  0  0
 10 11  1  0  0  0  0
 10 14  1  0  0  0  0
 11 15  1  0  0  0  0
 12 16  1  0  0  0  0
 13  5  1  0  0  0  0
M  RAD  3   2   2   3   3   4   2
M  END
