Coordinates from ORCA-job 4-NO2PhN2+~Cl-_B3LYPG-6-31G_dp-CH-Scan-d09-49-n800
 OpenBabel11261919153D

 16 15  0  0  0  0  0  0  0  0999 V2000
   -1.2264    0.0336   -0.0539 C   0  0  0  0  0  0  0  0  0  0  0  0
   -2.6262    0.0629   -0.0510 N   0  0  0  0  0  0  0  0  0  0  0  0
   -3.7376    0.1679   -0.0555 N   0  0  0  0  0  0  0  0  0  0  0  0
   -0.6655    1.3090   -0.1671 C   0  0  0  0  0  0  0  0  0  0  0  0
    0.7549    1.2301   -0.1666 C   0  0  0  0  0  0  0  0  0  0  0  0
    1.4151    0.0147   -0.0650 C   0  0  0  0  0  0  0  0  0  0  0  0
    2.9030   -0.0041   -0.0709 N   0  0  0  0  0  0  0  0  0  0  0  0
    3.4843    1.0702   -0.1798 O   0  0  0  0  0  0  0  0  0  0  0  0
    3.4541   -1.0988    0.0345 O   0  0  0  0  0  0  0  0  0  0  0  0
    0.7631   -1.2323    0.0464 C   0  0  0  0  0  0  0  0  0  0  0  0
   -0.6126   -1.2418    0.0540 C   0  0  0  0  0  0  0  0  0  0  0  0
   -2.1958    3.1602   -0.3247 H   0  0  0  0  0  0  0  0  0  0  0  0
    1.3577    2.1296   -0.2470 H   0  0  0  0  0  0  0  0  0  0  0  0
    1.3489   -2.1384    0.1226 H   0  0  0  0  0  0  0  0  0  0  0  0
   -1.1817   -2.1627    0.1374 H   0  0  0  0  0  0  0  0  0  0  0  0
   -3.2884    3.8783   -0.3837 Cl  0  0  0  0  0  0  0  0  0  0  0  0
  1  2  1  0  0  0  0
  1 11  2  0  0  0  0
  3  2  1  0  0  0  0
  4  5  2  0  0  0  0
  4  1  1  0  0  0  0
  5  6  1  0  0  0  0
  6 10  2  0  0  0  0
  7  6  1  0  0  0  0
  7  9  2  0  0  0  0
  8  7  2  0  0  0  0
 10 11  1  0  0  0  0
 10 14  1  0  0  0  0
 11 15  1  0  0  0  0
 13  5  1  0  0  0  0
 16 12  1  0  0  0  0
M  RAD  3   2   2   3   3   4   2
M  END
