Coordinates from ORCA-job 4-NO2PhN2+~Cl-_B3LYPG-6-31G_dp-CH-Scan-d09-49-n800
 OpenBabel11261919153D

 16 15  0  0  0  0  0  0  0  0999 V2000
   -1.1447   -0.0006   -0.0422 C   0  0  0  0  0  0  0  0  0  0  0  0
   -2.5470    0.0540   -0.0383 N   0  0  0  0  0  0  0  0  0  0  0  0
   -3.6573    0.1784   -0.0411 N   0  0  0  0  0  0  0  0  0  0  0  0
   -0.5745    1.2698   -0.1461 C   0  0  0  0  0  0  0  0  0  0  0  0
    0.8479    1.1623   -0.1475 C   0  0  0  0  0  0  0  0  0  0  0  0
    1.4897   -0.0634   -0.0575 C   0  0  0  0  0  0  0  0  0  0  0  0
    2.9768   -0.1067   -0.0660 N   0  0  0  0  0  0  0  0  0  0  0  0
    3.5772    0.9583   -0.1696 O   0  0  0  0  0  0  0  0  0  0  0  0
    3.5116   -1.2105    0.0325 O   0  0  0  0  0  0  0  0  0  0  0  0
    0.8186   -1.3027    0.0452 C   0  0  0  0  0  0  0  0  0  0  0  0
   -0.5564   -1.2896    0.0550 C   0  0  0  0  0  0  0  0  0  0  0  0
   -2.6390    3.7660   -0.3813 H   0  0  0  0  0  0  0  0  0  0  0  0
    1.4680    2.0512   -0.2206 H   0  0  0  0  0  0  0  0  0  0  0  0
    1.3909   -2.2181    0.1132 H   0  0  0  0  0  0  0  0  0  0  0  0
   -1.1413   -2.2015    0.1322 H   0  0  0  0  0  0  0  0  0  0  0  0
   -3.8736    4.1316   -0.4382 Cl  0  0  0  0  0  0  0  0  0  0  0  0
  1  2  1  0  0  0  0
  1 11  2  0  0  0  0
  3  2  1  0  0  0  0
  4  1  1  0  0  0  0
  5  4  2  0  0  0  0
  5  6  1  0  0  0  0
  6 10  2  0  0  0  0
  7  6  1  0  0  0  0
  7  9  2  0  0  0  0
  8  7  2  0  0  0  0
 10 11  1  0  0  0  0
 10 14  1  0  0  0  0
 11 15  1  0  0  0  0
 13  5  1  0  0  0  0
 16 12  1  0  0  0  0
M  RAD  3   2   2   3   3   4   2
M  END
