Coordinates from ORCA-job 4-NO2PhN2+~Cl-_B3LYPG-6-31G_dp-CH-Scan-d09-49-n800
 OpenBabel11261919153D

 16 15  0  0  0  0  0  0  0  0999 V2000
   -1.2725    0.0638   -0.0568 C   0  0  0  0  0  0  0  0  0  0  0  0
   -2.6717    0.0886   -0.0526 N   0  0  0  0  0  0  0  0  0  0  0  0
   -3.7804    0.2104   -0.0579 N   0  0  0  0  0  0  0  0  0  0  0  0
   -0.7071    1.3374   -0.1712 C   0  0  0  0  0  0  0  0  0  0  0  0
    0.7094    1.2730   -0.1726 C   0  0  0  0  0  0  0  0  0  0  0  0
    1.3748    0.0596   -0.0704 C   0  0  0  0  0  0  0  0  0  0  0  0
    2.8628    0.0487   -0.0776 N   0  0  0  0  0  0  0  0  0  0  0  0
    3.4366    1.1273   -0.1792 O   0  0  0  0  0  0  0  0  0  0  0  0
    3.4183   -1.0429    0.0326 O   0  0  0  0  0  0  0  0  0  0  0  0
    0.7278   -1.1880    0.0422 C   0  0  0  0  0  0  0  0  0  0  0  0
   -0.6489   -1.2046    0.0508 C   0  0  0  0  0  0  0  0  0  0  0  0
   -1.9199    2.8031   -0.2939 H   0  0  0  0  0  0  0  0  0  0  0  0
    1.3035    2.1776   -0.2547 H   0  0  0  0  0  0  0  0  0  0  0  0
    1.3171   -2.0920    0.1184 H   0  0  0  0  0  0  0  0  0  0  0  0
   -1.2128   -2.1283    0.1350 H   0  0  0  0  0  0  0  0  0  0  0  0
   -2.9902    3.6447   -0.3624 Cl  0  0  0  0  0  0  0  0  0  0  0  0
  1  2  1  0  0  0  0
  1 11  2  0  0  0  0
  3  2  1  0  0  0  0
  4  1  1  0  0  0  0
  5  4  2  0  0  0  0
  5  6  1  0  0  0  0
  6 10  2  0  0  0  0
  7  6  1  0  0  0  0
  7  9  2  0  0  0  0
  8  7  2  0  0  0  0
 10 11  1  0  0  0  0
 10 14  1  0  0  0  0
 11 15  1  0  0  0  0
 13  5  1  0  0  0  0
 16 12  1  0  0  0  0
M  RAD  3   2   2   3   3   4   2
M  END
