Coordinates from ORCA-job 4-NO2PhN2+~Cl-_B3LYPG-6-31G_dp-CH-Scan-d09-49-n800
 OpenBabel11261919153D

 16 15  0  0  0  0  0  0  0  0999 V2000
   -1.0327    0.0555   -0.0597 C   0  0  0  0  0  0  0  0  0  0  0  0
   -2.4335    0.1875   -0.0672 N   0  0  0  0  0  0  0  0  0  0  0  0
   -3.5344    0.3786   -0.0804 N   0  0  0  0  0  0  0  0  0  0  0  0
   -0.3996    1.2929   -0.1700 C   0  0  0  0  0  0  0  0  0  0  0  0
    1.0165    1.1073   -0.1580 C   0  0  0  0  0  0  0  0  0  0  0  0
    1.5915   -0.1496   -0.0506 C   0  0  0  0  0  0  0  0  0  0  0  0
    3.0739   -0.2728   -0.0440 N   0  0  0  0  0  0  0  0  0  0  0  0
    3.7328    0.7578   -0.1433 O   0  0  0  0  0  0  0  0  0  0  0  0
    3.5489   -1.4033    0.0617 O   0  0  0  0  0  0  0  0  0  0  0  0
    0.8540   -1.3509    0.0567 C   0  0  0  0  0  0  0  0  0  0  0  0
   -0.5184   -1.2635    0.0538 C   0  0  0  0  0  0  0  0  0  0  0  0
   -3.3604    4.4538   -0.4392 H   0  0  0  0  0  0  0  0  0  0  0  0
    1.6846    1.9606   -0.2340 H   0  0  0  0  0  0  0  0  0  0  0  0
    1.3759   -2.2949    0.1378 H   0  0  0  0  0  0  0  0  0  0  0  0
   -1.1525   -2.1418    0.1333 H   0  0  0  0  0  0  0  0  0  0  0  0
   -4.4998    3.8611   -0.3672 Cl  0  0  0  0  0  0  0  0  0  0  0  0
  1 11  2  0  0  0  0
  2  1  1  0  0  0  0
  3  2  1  0  0  0  0
  4  5  2  0  0  0  0
  4  1  1  0  0  0  0
  5  6  1  0  0  0  0
  6  7  1  0  0  0  0
  6 10  2  0  0  0  0
  7  9  2  0  0  0  0
  8  7  2  0  0  0  0
 10 14  1  0  0  0  0
 11 10  1  0  0  0  0
 11 15  1  0  0  0  0
 12 16  1  0  0  0  0
 13  5  1  0  0  0  0
M  RAD  3   2   2   3   3   4   2
M  END
