Coordinates from ORCA-job 4-NO2PhN2+~Cl-_B3LYPG-6-31G_dp-CH-Scan-d09-49-n800
 OpenBabel11261919153D

 16 15  0  0  0  0  0  0  0  0999 V2000
   -1.2607    0.0552   -0.0559 C   0  0  0  0  0  0  0  0  0  0  0  0
   -2.6598    0.0792   -0.0526 N   0  0  0  0  0  0  0  0  0  0  0  0
   -3.7699    0.1910   -0.0577 N   0  0  0  0  0  0  0  0  0  0  0  0
   -0.6979    1.3301   -0.1696 C   0  0  0  0  0  0  0  0  0  0  0  0
    0.7201    1.2615   -0.1698 C   0  0  0  0  0  0  0  0  0  0  0  0
    1.3848    0.0481   -0.0676 C   0  0  0  0  0  0  0  0  0  0  0  0
    2.8728    0.0357   -0.0738 N   0  0  0  0  0  0  0  0  0  0  0  0
    3.4482    1.1130   -0.1822 O   0  0  0  0  0  0  0  0  0  0  0  0
    3.4276   -1.0570    0.0298 O   0  0  0  0  0  0  0  0  0  0  0  0
    0.7371   -1.1999    0.0441 C   0  0  0  0  0  0  0  0  0  0  0  0
   -0.6392   -1.2152    0.0519 C   0  0  0  0  0  0  0  0  0  0  0  0
   -1.9950    2.9008   -0.3024 H   0  0  0  0  0  0  0  0  0  0  0  0
    1.3165    2.1649   -0.2511 H   0  0  0  0  0  0  0  0  0  0  0  0
    1.3259   -2.1042    0.1204 H   0  0  0  0  0  0  0  0  0  0  0  0
   -1.2042   -2.1384    0.1355 H   0  0  0  0  0  0  0  0  0  0  0  0
   -3.0596    3.7136   -0.3695 Cl  0  0  0  0  0  0  0  0  0  0  0  0
  1  2  1  0  0  0  0
  1 11  2  0  0  0  0
  3  2  1  0  0  0  0
  4  1  1  0  0  0  0
  5  4  2  0  0  0  0
  5  6  1  0  0  0  0
  6 10  2  0  0  0  0
  7  6  1  0  0  0  0
  7  9  2  0  0  0  0
  8  7  2  0  0  0  0
 10 11  1  0  0  0  0
 10 14  1  0  0  0  0
 11 15  1  0  0  0  0
 13  5  1  0  0  0  0
 16 12  1  0  0  0  0
M  RAD  3   2   2   3   3   4   2
M  END
