Coordinates from ORCA-job 4-NO2PhN2+~Cl-_B3LYPG-6-31G_dp-CH-Scan-d09-49-n800
 OpenBabel11261919153D

 16 15  0  0  0  0  0  0  0  0999 V2000
   -1.2762    0.0669   -0.0572 C   0  0  0  0  0  0  0  0  0  0  0  0
   -2.6755    0.0925   -0.0540 N   0  0  0  0  0  0  0  0  0  0  0  0
   -3.7835    0.2200   -0.0606 N   0  0  0  0  0  0  0  0  0  0  0  0
   -0.7096    1.3399   -0.1710 C   0  0  0  0  0  0  0  0  0  0  0  0
    0.7063    1.2770   -0.1716 C   0  0  0  0  0  0  0  0  0  0  0  0
    1.3718    0.0636   -0.0689 C   0  0  0  0  0  0  0  0  0  0  0  0
    2.8598    0.0531   -0.0750 N   0  0  0  0  0  0  0  0  0  0  0  0
    3.4332    1.1312   -0.1834 O   0  0  0  0  0  0  0  0  0  0  0  0
    3.4154   -1.0391    0.0282 O   0  0  0  0  0  0  0  0  0  0  0  0
    0.7248   -1.1839    0.0430 C   0  0  0  0  0  0  0  0  0  0  0  0
   -0.6521   -1.2008    0.0508 C   0  0  0  0  0  0  0  0  0  0  0  0
   -1.8950    2.7697   -0.2911 H   0  0  0  0  0  0  0  0  0  0  0  0
    1.2997    2.1821   -0.2533 H   0  0  0  0  0  0  0  0  0  0  0  0
    1.3142   -2.0879    0.1196 H   0  0  0  0  0  0  0  0  0  0  0  0
   -1.2158   -2.1247    0.1346 H   0  0  0  0  0  0  0  0  0  0  0  0
   -2.9705    3.6189   -0.3604 Cl  0  0  0  0  0  0  0  0  0  0  0  0
  1  2  1  0  0  0  0
  1 11  2  0  0  0  0
  3  2  1  0  0  0  0
  4  1  1  0  0  0  0
  5  4  2  0  0  0  0
  5  6  1  0  0  0  0
  6 10  2  0  0  0  0
  7  6  1  0  0  0  0
  7  9  2  0  0  0  0
  8  7  2  0  0  0  0
 10 11  1  0  0  0  0
 10 14  1  0  0  0  0
 11 15  1  0  0  0  0
 13  5  1  0  0  0  0
 16 12  1  0  0  0  0
M  RAD  3   2   2   3   3   4   2
M  END
