Coordinates from ORCA-job 4-NO2PhN2+~Cl-_B3LYPG-6-31G_dp-CH-Scan-d09-49-n800
 OpenBabel11261919153D

 16 15  0  0  0  0  0  0  0  0999 V2000
   -1.1239    0.0037   -0.0418 C   0  0  0  0  0  0  0  0  0  0  0  0
   -2.5266    0.0711   -0.0386 N   0  0  0  0  0  0  0  0  0  0  0  0
   -3.6355    0.2078   -0.0421 N   0  0  0  0  0  0  0  0  0  0  0  0
   -0.5451    1.2698   -0.1440 C   0  0  0  0  0  0  0  0  0  0  0  0
    0.8769    1.1500   -0.1447 C   0  0  0  0  0  0  0  0  0  0  0  0
    1.5088   -0.0808   -0.0558 C   0  0  0  0  0  0  0  0  0  0  0  0
    2.9954   -0.1362   -0.0634 N   0  0  0  0  0  0  0  0  0  0  0  0
    3.6048    0.9238   -0.1656 O   0  0  0  0  0  0  0  0  0  0  0  0
    3.5215   -1.2444    0.0342 O   0  0  0  0  0  0  0  0  0  0  0  0
    0.8277   -1.3150    0.0453 C   0  0  0  0  0  0  0  0  0  0  0  0
   -0.5472   -1.2907    0.0544 C   0  0  0  0  0  0  0  0  0  0  0  0
   -2.7490    3.9032   -0.3958 H   0  0  0  0  0  0  0  0  0  0  0  0
    1.5046    2.0337   -0.2165 H   0  0  0  0  0  0  0  0  0  0  0  0
    1.3926   -2.2350    0.1126 H   0  0  0  0  0  0  0  0  0  0  0  0
   -1.1398   -2.1978    0.1303 H   0  0  0  0  0  0  0  0  0  0  0  0
   -4.0183    4.1152   -0.4387 Cl  0  0  0  0  0  0  0  0  0  0  0  0
  1  2  1  0  0  0  0
  1 11  2  0  0  0  0
  3  2  1  0  0  0  0
  4  1  1  0  0  0  0
  5  4  2  0  0  0  0
  5  6  1  0  0  0  0
  6 10  2  0  0  0  0
  7  6  1  0  0  0  0
  7  9  2  0  0  0  0
  8  7  2  0  0  0  0
 10 11  1  0  0  0  0
 10 14  1  0  0  0  0
 11 15  1  0  0  0  0
 13  5  1  0  0  0  0
 16 12  1  0  0  0  0
M  RAD  3   2   2   3   3   4   2
M  END
