Coordinates from ORCA-job 4-NO2PhN2+~Cl-_B3LYPG-6-31G_dp-CH-Scan-d09-49-n800
 OpenBabel11261919153D

 16 15  0  0  0  0  0  0  0  0999 V2000
   -1.0475    0.0515   -0.0581 C   0  0  0  0  0  0  0  0  0  0  0  0
   -2.4490    0.1745   -0.0644 N   0  0  0  0  0  0  0  0  0  0  0  0
   -3.5511    0.3581   -0.0765 N   0  0  0  0  0  0  0  0  0  0  0  0
   -0.4216    1.2929   -0.1676 C   0  0  0  0  0  0  0  0  0  0  0  0
    0.9954    1.1157   -0.1571 C   0  0  0  0  0  0  0  0  0  0  0  0
    1.5781   -0.1378   -0.0518 C   0  0  0  0  0  0  0  0  0  0  0  0
    3.0612   -0.2521   -0.0470 N   0  0  0  0  0  0  0  0  0  0  0  0
    3.7138    0.7825   -0.1460 O   0  0  0  0  0  0  0  0  0  0  0  0
    3.5430   -1.3796    0.0597 O   0  0  0  0  0  0  0  0  0  0  0  0
    0.8480   -1.3436    0.0550 C   0  0  0  0  0  0  0  0  0  0  0  0
   -0.5249   -1.2643    0.0536 C   0  0  0  0  0  0  0  0  0  0  0  0
   -3.2490    4.3725   -0.4342 H   0  0  0  0  0  0  0  0  0  0  0  0
    1.6585    1.9731   -0.2327 H   0  0  0  0  0  0  0  0  0  0  0  0
    1.3755   -2.2846    0.1346 H   0  0  0  0  0  0  0  0  0  0  0  0
   -1.1537   -2.1465    0.1328 H   0  0  0  0  0  0  0  0  0  0  0  0
   -4.4297    3.8661   -0.3706 Cl  0  0  0  0  0  0  0  0  0  0  0  0
  1 11  2  0  0  0  0
  2  1  1  0  0  0  0
  3  2  1  0  0  0  0
  4  5  2  0  0  0  0
  4  1  1  0  0  0  0
  5  6  1  0  0  0  0
  6  7  1  0  0  0  0
  6 10  2  0  0  0  0
  7  9  2  0  0  0  0
  8  7  2  0  0  0  0
 10 14  1  0  0  0  0
 11 10  1  0  0  0  0
 11 15  1  0  0  0  0
 12 16  1  0  0  0  0
 13  5  1  0  0  0  0
M  RAD  3   2   2   3   3   4   2
M  END
