Coordinates from ORCA-job 4-NO2PhN2+~Cl-_B3LYPG-6-31G_dp-CH-Scan-d09-49-n800
 OpenBabel11261919153D

 16 15  0  0  0  0  0  0  0  0999 V2000
   -1.1681   -0.0093   -0.0469 C   0  0  0  0  0  0  0  0  0  0  0  0
   -2.5698    0.0292   -0.0438 N   0  0  0  0  0  0  0  0  0  0  0  0
   -3.6815    0.1383   -0.0476 N   0  0  0  0  0  0  0  0  0  0  0  0
   -0.6087    1.2658   -0.1567 C   0  0  0  0  0  0  0  0  0  0  0  0
    0.8141    1.1742   -0.1567 C   0  0  0  0  0  0  0  0  0  0  0  0
    1.4683   -0.0444   -0.0597 C   0  0  0  0  0  0  0  0  0  0  0  0
    2.9559   -0.0722   -0.0666 N   0  0  0  0  0  0  0  0  0  0  0  0
    3.5447    0.9985   -0.1747 O   0  0  0  0  0  0  0  0  0  0  0  0
    3.5017   -1.1700    0.0374 O   0  0  0  0  0  0  0  0  0  0  0  0
    0.8099   -1.2898    0.0486 C   0  0  0  0  0  0  0  0  0  0  0  0
   -0.5652   -1.2912    0.0571 C   0  0  0  0  0  0  0  0  0  0  0  0
   -2.5302    3.6221   -0.3676 H   0  0  0  0  0  0  0  0  0  0  0  0
    1.4244    2.0694   -0.2341 H   0  0  0  0  0  0  0  0  0  0  0  0
    1.3915   -2.1989    0.1217 H   0  0  0  0  0  0  0  0  0  0  0  0
   -1.1403   -2.2089    0.1383 H   0  0  0  0  0  0  0  0  0  0  0  0
   -3.6998    4.1657   -0.4189 Cl  0  0  0  0  0  0  0  0  0  0  0  0
  1  2  1  0  0  0  0
  1 11  2  0  0  0  0
  3  2  1  0  0  0  0
  4  5  2  0  0  0  0
  4  1  1  0  0  0  0
  5  6  1  0  0  0  0
  6 10  2  0  0  0  0
  7  6  1  0  0  0  0
  7  9  2  0  0  0  0
  8  7  2  0  0  0  0
 10 11  1  0  0  0  0
 10 14  1  0  0  0  0
 11 15  1  0  0  0  0
 13  5  1  0  0  0  0
 16 12  1  0  0  0  0
M  RAD  3   2   2   3   3   4   2
M  END
