Coordinates from ORCA-job 4-NO2PhN2+~Cl-_B3LYPG-6-31G_dp-CH-Scan-d09-49-n800
 OpenBabel11261919153D

 16 15  0  0  0  0  0  0  0  0999 V2000
   -1.2334    0.0380   -0.0543 C   0  0  0  0  0  0  0  0  0  0  0  0
   -2.6331    0.0661   -0.0512 N   0  0  0  0  0  0  0  0  0  0  0  0
   -3.7443    0.1719   -0.0557 N   0  0  0  0  0  0  0  0  0  0  0  0
   -0.6725    1.3135   -0.1678 C   0  0  0  0  0  0  0  0  0  0  0  0
    0.7476    1.2366   -0.1675 C   0  0  0  0  0  0  0  0  0  0  0  0
    1.4088    0.0216   -0.0659 C   0  0  0  0  0  0  0  0  0  0  0  0
    2.8967    0.0042   -0.0719 N   0  0  0  0  0  0  0  0  0  0  0  0
    3.4768    1.0792   -0.1797 O   0  0  0  0  0  0  0  0  0  0  0  0
    3.4486   -1.0900    0.0342 O   0  0  0  0  0  0  0  0  0  0  0  0
    0.7577   -1.2257    0.0458 C   0  0  0  0  0  0  0  0  0  0  0  0
   -0.6181   -1.2364    0.0536 C   0  0  0  0  0  0  0  0  0  0  0  0
   -2.1554    3.1066   -0.3200 H   0  0  0  0  0  0  0  0  0  0  0  0
    1.3491    2.1368   -0.2482 H   0  0  0  0  0  0  0  0  0  0  0  0
    1.3442   -2.1314    0.1220 H   0  0  0  0  0  0  0  0  0  0  0  0
   -1.1863   -2.1578    0.1371 H   0  0  0  0  0  0  0  0  0  0  0  0
   -3.2396    3.8451   -0.3806 Cl  0  0  0  0  0  0  0  0  0  0  0  0
  1  2  1  0  0  0  0
  1 11  2  0  0  0  0
  3  2  1  0  0  0  0
  4  5  2  0  0  0  0
  4  1  1  0  0  0  0
  5  6  1  0  0  0  0
  6 10  2  0  0  0  0
  7  6  1  0  0  0  0
  7  9  2  0  0  0  0
  8  7  2  0  0  0  0
 10 11  1  0  0  0  0
 10 14  1  0  0  0  0
 11 15  1  0  0  0  0
 13  5  1  0  0  0  0
 16 12  1  0  0  0  0
M  RAD  3   2   2   3   3   4   2
M  END
