Coordinates from ORCA-job 4-NO2PhN2+~Cl-_B3LYPG-6-31G_dp-CH-Scan-d09-49-n800
 OpenBabel11261919153D

 16 15  0  0  0  0  0  0  0  0999 V2000
   -1.0505    0.0511   -0.0575 C   0  0  0  0  0  0  0  0  0  0  0  0
   -2.4521    0.1723   -0.0636 N   0  0  0  0  0  0  0  0  0  0  0  0
   -3.5545    0.3545   -0.0752 N   0  0  0  0  0  0  0  0  0  0  0  0
   -0.4260    1.2933   -0.1664 C   0  0  0  0  0  0  0  0  0  0  0  0
    0.9913    1.1176   -0.1561 C   0  0  0  0  0  0  0  0  0  0  0  0
    1.5754   -0.1354   -0.0516 C   0  0  0  0  0  0  0  0  0  0  0  0
    3.0586   -0.2480   -0.0471 N   0  0  0  0  0  0  0  0  0  0  0  0
    3.7100    0.7873   -0.1473 O   0  0  0  0  0  0  0  0  0  0  0  0
    3.5417   -1.3752    0.0578 O   0  0  0  0  0  0  0  0  0  0  0  0
    0.8466   -1.3420    0.0547 C   0  0  0  0  0  0  0  0  0  0  0  0
   -0.5264   -1.2642    0.0535 C   0  0  0  0  0  0  0  0  0  0  0  0
   -3.2271    4.3559   -0.4339 H   0  0  0  0  0  0  0  0  0  0  0  0
    1.6534    1.9757   -0.2313 H   0  0  0  0  0  0  0  0  0  0  0  0
    1.3752   -2.2824    0.1337 H   0  0  0  0  0  0  0  0  0  0  0  0
   -1.1542   -2.1472    0.1324 H   0  0  0  0  0  0  0  0  0  0  0  0
   -4.4145    3.8651   -0.3721 Cl  0  0  0  0  0  0  0  0  0  0  0  0
  1 11  2  0  0  0  0
  2  1  1  0  0  0  0
  3  2  1  0  0  0  0
  4  5  2  0  0  0  0
  4  1  1  0  0  0  0
  5  6  1  0  0  0  0
  6  7  1  0  0  0  0
  6 10  2  0  0  0  0
  7  9  2  0  0  0  0
  8  7  2  0  0  0  0
 10 14  1  0  0  0  0
 11 10  1  0  0  0  0
 11 15  1  0  0  0  0
 12 16  1  0  0  0  0
 13  5  1  0  0  0  0
M  RAD  3   2   2   3   3   4   2
M  END
