Coordinates from ORCA-job 4-NO2PhN2+~Cl-_B3LYPG-6-31G_dp-CH-Scan-d09-49-n800
 OpenBabel11261919153D

 16 15  0  0  0  0  0  0  0  0999 V2000
   -1.1286    0.0007   -0.0410 C   0  0  0  0  0  0  0  0  0  0  0  0
   -2.5313    0.0642   -0.0374 N   0  0  0  0  0  0  0  0  0  0  0  0
   -3.6406    0.1973   -0.0403 N   0  0  0  0  0  0  0  0  0  0  0  0
   -0.5527    1.2682   -0.1430 C   0  0  0  0  0  0  0  0  0  0  0  0
    0.8695    1.1521   -0.1443 C   0  0  0  0  0  0  0  0  0  0  0  0
    1.5045   -0.0773   -0.0560 C   0  0  0  0  0  0  0  0  0  0  0  0
    2.9913   -0.1290   -0.0644 N   0  0  0  0  0  0  0  0  0  0  0  0
    3.5979    0.9326   -0.1666 O   0  0  0  0  0  0  0  0  0  0  0  0
    3.5200   -1.2359    0.0328 O   0  0  0  0  0  0  0  0  0  0  0  0
    0.8265   -1.3131    0.0449 C   0  0  0  0  0  0  0  0  0  0  0  0
   -0.5485   -1.2922    0.0545 C   0  0  0  0  0  0  0  0  0  0  0  0
   -2.7246    3.8762   -0.3930 H   0  0  0  0  0  0  0  0  0  0  0  0
    1.4949    2.0374   -0.2160 H   0  0  0  0  0  0  0  0  0  0  0  0
    1.3937   -2.2317    0.1117 H   0  0  0  0  0  0  0  0  0  0  0  0
   -1.1387   -2.2008    0.1303 H   0  0  0  0  0  0  0  0  0  0  0  0
   -3.9863    4.1295   -0.4424 Cl  0  0  0  0  0  0  0  0  0  0  0  0
  1  2  1  0  0  0  0
  1 11  2  0  0  0  0
  3  2  1  0  0  0  0
  4  1  1  0  0  0  0
  5  4  2  0  0  0  0
  5  6  1  0  0  0  0
  6 10  2  0  0  0  0
  7  6  1  0  0  0  0
  7  9  2  0  0  0  0
  8  7  2  0  0  0  0
 10 11  1  0  0  0  0
 10 14  1  0  0  0  0
 11 15  1  0  0  0  0
 13  5  1  0  0  0  0
 16 12  1  0  0  0  0
M  RAD  3   2   2   3   3   4   2
M  END
