Coordinates from ORCA-job 4-NO2PhN2+~Cl-_B3LYPG-6-31G_dp-CH-Scan-d09-49-n800
 OpenBabel11261919153D

 16 15  0  0  0  0  0  0  0  0999 V2000
   -1.2811    0.0710   -0.0577 C   0  0  0  0  0  0  0  0  0  0  0  0
   -2.6807    0.0995   -0.0548 N   0  0  0  0  0  0  0  0  0  0  0  0
   -3.7867    0.2417   -0.0626 N   0  0  0  0  0  0  0  0  0  0  0  0
   -0.7122    1.3426   -0.1716 C   0  0  0  0  0  0  0  0  0  0  0  0
    0.7026    1.2823   -0.1724 C   0  0  0  0  0  0  0  0  0  0  0  0
    1.3680    0.0686   -0.0695 C   0  0  0  0  0  0  0  0  0  0  0  0
    2.8561    0.0583   -0.0756 N   0  0  0  0  0  0  0  0  0  0  0  0
    3.4288    1.1368   -0.1836 O   0  0  0  0  0  0  0  0  0  0  0  0
    3.4116   -1.0336    0.0281 O   0  0  0  0  0  0  0  0  0  0  0  0
    0.7209   -1.1783    0.0426 C   0  0  0  0  0  0  0  0  0  0  0  0
   -0.6564   -1.1956    0.0504 C   0  0  0  0  0  0  0  0  0  0  0  0
   -1.8594    2.7198   -0.2867 H   0  0  0  0  0  0  0  0  0  0  0  0
    1.2949    2.1881   -0.2543 H   0  0  0  0  0  0  0  0  0  0  0  0
    1.3102   -2.0823    0.1194 H   0  0  0  0  0  0  0  0  0  0  0  0
   -1.2198   -2.1195    0.1343 H   0  0  0  0  0  0  0  0  0  0  0  0
   -2.9501    3.5792   -0.3564 Cl  0  0  0  0  0  0  0  0  0  0  0  0
  1  2  1  0  0  0  0
  1 11  2  0  0  0  0
  3  2  1  0  0  0  0
  4  1  1  0  0  0  0
  5  4  2  0  0  0  0
  5  6  1  0  0  0  0
  6 10  2  0  0  0  0
  7  6  1  0  0  0  0
  7  9  2  0  0  0  0
  8  7  2  0  0  0  0
 10 11  1  0  0  0  0
 10 14  1  0  0  0  0
 11 15  1  0  0  0  0
 13  5  1  0  0  0  0
 16 12  1  0  0  0  0
M  RAD  3   2   2   3   3   4   2
M  END
