Coordinates from ORCA-job 4-NO2PhN2+~Cl-_B3LYPG-6-31G_dp-CH-Scan-d09-49-n800
 OpenBabel11261919153D

 16 15  0  0  0  0  0  0  0  0999 V2000
   -1.2148    0.0301   -0.0533 C   0  0  0  0  0  0  0  0  0  0  0  0
   -2.6151    0.0629   -0.0511 N   0  0  0  0  0  0  0  0  0  0  0  0
   -3.7265    0.1694   -0.0569 N   0  0  0  0  0  0  0  0  0  0  0  0
   -0.6524    1.3045   -0.1660 C   0  0  0  0  0  0  0  0  0  0  0  0
    0.7684    1.2215   -0.1647 C   0  0  0  0  0  0  0  0  0  0  0  0
    1.4257    0.0045   -0.0633 C   0  0  0  0  0  0  0  0  0  0  0  0
    2.9135   -0.0182   -0.0684 N   0  0  0  0  0  0  0  0  0  0  0  0
    3.4978    1.0542   -0.1809 O   0  0  0  0  0  0  0  0  0  0  0  0
    3.4619   -1.1147    0.0337 O   0  0  0  0  0  0  0  0  0  0  0  0
    0.7705   -1.2412    0.0476 C   0  0  0  0  0  0  0  0  0  0  0  0
   -0.6051   -1.2474    0.0546 C   0  0  0  0  0  0  0  0  0  0  0  0
   -2.2583    3.2356   -0.3312 H   0  0  0  0  0  0  0  0  0  0  0  0
    1.3739    2.1192   -0.2445 H   0  0  0  0  0  0  0  0  0  0  0  0
    1.3543   -2.1487    0.1238 H   0  0  0  0  0  0  0  0  0  0  0  0
   -1.1766   -2.1669    0.1376 H   0  0  0  0  0  0  0  0  0  0  0  0
   -3.3703    3.9136   -0.3873 Cl  0  0  0  0  0  0  0  0  0  0  0  0
  1  2  1  0  0  0  0
  1 11  2  0  0  0  0
  3  2  1  0  0  0  0
  4  5  2  0  0  0  0
  4  1  1  0  0  0  0
  5  6  1  0  0  0  0
  6 10  2  0  0  0  0
  7  6  1  0  0  0  0
  7  9  2  0  0  0  0
  8  7  2  0  0  0  0
 10 11  1  0  0  0  0
 10 14  1  0  0  0  0
 11 15  1  0  0  0  0
 13  5  1  0  0  0  0
 16 12  1  0  0  0  0
M  RAD  3   2   2   3   3   4   2
M  END
