Coordinates from ORCA-job 4-NO2PhN2+~Cl-_B3LYPG-6-31G_dp-CH-Scan-d09-49-n800
 OpenBabel11261919153D

 16 15  0  0  0  0  0  0  0  0999 V2000
   -1.2096    0.0267   -0.0531 C   0  0  0  0  0  0  0  0  0  0  0  0
   -2.6100    0.0606   -0.0506 N   0  0  0  0  0  0  0  0  0  0  0  0
   -3.7215    0.1675   -0.0551 N   0  0  0  0  0  0  0  0  0  0  0  0
   -0.6474    1.3012   -0.1659 C   0  0  0  0  0  0  0  0  0  0  0  0
    0.7737    1.2166   -0.1650 C   0  0  0  0  0  0  0  0  0  0  0  0
    1.4303   -0.0008   -0.0638 C   0  0  0  0  0  0  0  0  0  0  0  0
    2.9181   -0.0244   -0.0693 N   0  0  0  0  0  0  0  0  0  0  0  0
    3.5033    1.0480   -0.1784 O   0  0  0  0  0  0  0  0  0  0  0  0
    3.4660   -1.1208    0.0365 O   0  0  0  0  0  0  0  0  0  0  0  0
    0.7745   -1.2462    0.0473 C   0  0  0  0  0  0  0  0  0  0  0  0
   -0.6010   -1.2514    0.0547 C   0  0  0  0  0  0  0  0  0  0  0  0
   -2.2872    3.2756   -0.3347 H   0  0  0  0  0  0  0  0  0  0  0  0
    1.3801    2.1138   -0.2449 H   0  0  0  0  0  0  0  0  0  0  0  0
    1.3578   -2.1541    0.1234 H   0  0  0  0  0  0  0  0  0  0  0  0
   -1.1732   -2.1706    0.1378 H   0  0  0  0  0  0  0  0  0  0  0  0
   -3.4069    3.9367   -0.3892 Cl  0  0  0  0  0  0  0  0  0  0  0  0
  1  2  1  0  0  0  0
  1 11  2  0  0  0  0
  3  2  1  0  0  0  0
  4  5  2  0  0  0  0
  4  1  1  0  0  0  0
  5  6  1  0  0  0  0
  6 10  2  0  0  0  0
  7  6  1  0  0  0  0
  7  9  2  0  0  0  0
  8  7  2  0  0  0  0
 10 11  1  0  0  0  0
 10 14  1  0  0  0  0
 11 15  1  0  0  0  0
 13  5  1  0  0  0  0
 16 12  1  0  0  0  0
M  RAD  3   2   2   3   3   4   2
M  END
