Coordinates from ORCA-job 4-NO2PhN2+~Cl-_B3LYPG-6-31G_dp-CH-Scan-d09-49-n800
 OpenBabel11261919153D

 16 15  0  0  0  0  0  0  0  0999 V2000
   -1.2758    0.0664   -0.0572 C   0  0  0  0  0  0  0  0  0  0  0  0
   -2.6751    0.0920   -0.0532 N   0  0  0  0  0  0  0  0  0  0  0  0
   -3.7831    0.2192   -0.0591 N   0  0  0  0  0  0  0  0  0  0  0  0
   -0.7093    1.3394   -0.1714 C   0  0  0  0  0  0  0  0  0  0  0  0
    0.7066    1.2764   -0.1727 C   0  0  0  0  0  0  0  0  0  0  0  0
    1.3721    0.0630   -0.0703 C   0  0  0  0  0  0  0  0  0  0  0  0
    2.8602    0.0524   -0.0773 N   0  0  0  0  0  0  0  0  0  0  0  0
    3.4335    1.1311   -0.1802 O   0  0  0  0  0  0  0  0  0  0  0  0
    3.4158   -1.0392    0.0316 O   0  0  0  0  0  0  0  0  0  0  0  0
    0.7252   -1.1845    0.0421 C   0  0  0  0  0  0  0  0  0  0  0  0
   -0.6517   -1.2013    0.0506 C   0  0  0  0  0  0  0  0  0  0  0  0
   -1.8977    2.7733   -0.2913 H   0  0  0  0  0  0  0  0  0  0  0  0
    1.3001    2.1815   -0.2549 H   0  0  0  0  0  0  0  0  0  0  0  0
    1.3146   -2.0884    0.1185 H   0  0  0  0  0  0  0  0  0  0  0  0
   -1.2154   -2.1252    0.1348 H   0  0  0  0  0  0  0  0  0  0  0  0
   -2.9732    3.6225   -0.3602 Cl  0  0  0  0  0  0  0  0  0  0  0  0
  1  2  1  0  0  0  0
  1 11  2  0  0  0  0
  3  2  1  0  0  0  0
  4  1  1  0  0  0  0
  5  4  2  0  0  0  0
  5  6  1  0  0  0  0
  6 10  2  0  0  0  0
  7  6  1  0  0  0  0
  7  9  2  0  0  0  0
  8  7  2  0  0  0  0
 10 11  1  0  0  0  0
 10 14  1  0  0  0  0
 11 15  1  0  0  0  0
 13  5  1  0  0  0  0
 16 12  1  0  0  0  0
M  RAD  3   2   2   3   3   4   2
M  END
