Coordinates from ORCA-job 4-NO2PhN2+~Cl-_B3LYPG-6-31G_dp-CH-Scan-d09-49-n800
 OpenBabel11261919153D

 16 15  0  0  0  0  0  0  0  0999 V2000
   -1.0625    0.0504   -0.0551 C   0  0  0  0  0  0  0  0  0  0  0  0
   -2.4645    0.1652   -0.0597 N   0  0  0  0  0  0  0  0  0  0  0  0
   -3.5678    0.3423   -0.0702 N   0  0  0  0  0  0  0  0  0  0  0  0
   -0.4430    1.2953   -0.1623 C   0  0  0  0  0  0  0  0  0  0  0  0
    0.9749    1.1253   -0.1537 C   0  0  0  0  0  0  0  0  0  0  0  0
    1.5642   -0.1255   -0.0523 C   0  0  0  0  0  0  0  0  0  0  0  0
    3.0479   -0.2321   -0.0498 N   0  0  0  0  0  0  0  0  0  0  0  0
    3.6949    0.8060   -0.1496 O   0  0  0  0  0  0  0  0  0  0  0  0
    3.5357   -1.3573    0.0534 O   0  0  0  0  0  0  0  0  0  0  0  0
    0.8405   -1.3351    0.0525 C   0  0  0  0  0  0  0  0  0  0  0  0
   -0.5328   -1.2629    0.0530 C   0  0  0  0  0  0  0  0  0  0  0  0
   -3.1405    4.2892   -0.4316 H   0  0  0  0  0  0  0  0  0  0  0  0
    1.6335    1.9862   -0.2279 H   0  0  0  0  0  0  0  0  0  0  0  0
    1.3730   -2.2736    0.1293 H   0  0  0  0  0  0  0  0  0  0  0  0
   -1.1569   -2.1486    0.1309 H   0  0  0  0  0  0  0  0  0  0  0  0
   -4.3497    3.8536   -0.3773 Cl  0  0  0  0  0  0  0  0  0  0  0  0
  1 11  2  0  0  0  0
  2  1  1  0  0  0  0
  3  2  1  0  0  0  0
  4  5  2  0  0  0  0
  4  1  1  0  0  0  0
  5  6  1  0  0  0  0
  6  7  1  0  0  0  0
  6 10  2  0  0  0  0
  7  9  2  0  0  0  0
  8  7  2  0  0  0  0
 10 11  1  0  0  0  0
 10 14  1  0  0  0  0
 11 15  1  0  0  0  0
 12 16  1  0  0  0  0
 13  5  1  0  0  0  0
M  RAD  3   2   2   3   3   4   2
M  END
