Coordinates from ORCA-job 4-NO2PhN2+~Cl-_B3LYPG-6-31G_dp-CH-Scan-d09-49-n800
 OpenBabel11261919153D

 16 15  0  0  0  0  0  0  0  0999 V2000
   -1.2500    0.0483   -0.0552 C   0  0  0  0  0  0  0  0  0  0  0  0
   -2.6493    0.0735   -0.0520 N   0  0  0  0  0  0  0  0  0  0  0  0
   -3.7600    0.1815   -0.0568 N   0  0  0  0  0  0  0  0  0  0  0  0
   -0.6884    1.3237   -0.1688 C   0  0  0  0  0  0  0  0  0  0  0  0
    0.7306    1.2516   -0.1688 C   0  0  0  0  0  0  0  0  0  0  0  0
    1.3941    0.0377   -0.0669 C   0  0  0  0  0  0  0  0  0  0  0  0
    2.8820    0.0235   -0.0730 N   0  0  0  0  0  0  0  0  0  0  0  0
    3.4593    1.0999   -0.1813 O   0  0  0  0  0  0  0  0  0  0  0  0
    3.4358   -1.0698    0.0314 O   0  0  0  0  0  0  0  0  0  0  0  0
    0.7452   -1.2102    0.0448 C   0  0  0  0  0  0  0  0  0  0  0  0
   -0.6308   -1.2237    0.0526 C   0  0  0  0  0  0  0  0  0  0  0  0
   -2.0589    2.9828   -0.3094 H   0  0  0  0  0  0  0  0  0  0  0  0
    1.3291    2.1537   -0.2499 H   0  0  0  0  0  0  0  0  0  0  0  0
    1.3333   -2.1149    0.1211 H   0  0  0  0  0  0  0  0  0  0  0  0
   -1.1970   -2.1463    0.1362 H   0  0  0  0  0  0  0  0  0  0  0  0
   -3.1280    3.7671   -0.3741 Cl  0  0  0  0  0  0  0  0  0  0  0  0
  1  2  1  0  0  0  0
  1 11  2  0  0  0  0
  3  2  1  0  0  0  0
  4  5  2  0  0  0  0
  4  1  1  0  0  0  0
  5  6  1  0  0  0  0
  6 10  2  0  0  0  0
  7  6  1  0  0  0  0
  7  9  2  0  0  0  0
  8  7  2  0  0  0  0
 10 11  1  0  0  0  0
 10 14  1  0  0  0  0
 11 15  1  0  0  0  0
 13  5  1  0  0  0  0
 16 12  1  0  0  0  0
M  RAD  3   2   2   3   3   4   2
M  END
