Coordinates from ORCA-job 4-NO2PhN2+~Cl-_B3LYPG-6-31G_dp-CH-Scan-d09-49-n800
 OpenBabel11261919153D

 16 15  0  0  0  0  0  0  0  0999 V2000
   -1.3350    0.1429   -0.0642 C   0  0  0  0  0  0  0  0  0  0  0  0
   -2.7460    0.1089   -0.0555 N   0  0  0  0  0  0  0  0  0  0  0  0
   -3.7069    0.7658   -0.1084 N   0  0  0  0  0  0  0  0  0  0  0  0
   -0.6342    1.3480   -0.1728 C   0  0  0  0  0  0  0  0  0  0  0  0
    0.7546    1.3150   -0.1764 C   0  0  0  0  0  0  0  0  0  0  0  0
    1.3919    0.0789   -0.0708 C   0  0  0  0  0  0  0  0  0  0  0  0
    2.8727    0.0424   -0.0741 N   0  0  0  0  0  0  0  0  0  0  0  0
    3.4622    1.1139   -0.1785 O   0  0  0  0  0  0  0  0  0  0  0  0
    3.4087   -1.0579    0.0282 O   0  0  0  0  0  0  0  0  0  0  0  0
    0.7007   -1.1284    0.0386 C   0  0  0  0  0  0  0  0  0  0  0  0
   -0.6875   -1.0969    0.0418 C   0  0  0  0  0  0  0  0  0  0  0  0
   -1.3635    2.4569   -0.2660 H   0  0  0  0  0  0  0  0  0  0  0  0
    1.3470    2.2175   -0.2586 H   0  0  0  0  0  0  0  0  0  0  0  0
    1.2532   -2.0556    0.1182 H   0  0  0  0  0  0  0  0  0  0  0  0
   -1.2727   -2.0060    0.1246 H   0  0  0  0  0  0  0  0  0  0  0  0
   -3.4984    2.9330   -0.2967 Cl  0  0  0  0  0  0  0  0  0  0  0  0
  1  2  1  0  0  0  0
  1 11  2  0  0  0  0
  3  2  2  0  0  0  0
  4  1  1  0  0  0  0
  5  4  2  0  0  0  0
  5  6  1  0  0  0  0
  6 10  2  0  0  0  0
  7  6  1  0  0  0  0
  7  9  2  0  0  0  0
  8  7  2  0  0  0  0
 10 11  1  0  0  0  0
 10 14  1  0  0  0  0
 11 15  1  0  0  0  0
 12  4  1  0  0  0  0
 13  5  1  0  0  0  0
M  RAD  2   3   2  16   2
M  END
