Coordinates from ORCA-job 4-NO2PhN2+~Cl-_B3LYPG-6-31G_dp-CH-Scan-d09-49-n800
 OpenBabel11261919153D

 16 16  0  0  0  0  0  0  0  0999 V2000
   -1.3630    0.1983    0.0697 C   0  0  0  0  0  0  0  0  0  0  0  0
   -2.7710    0.1495    0.1795 N   0  0  0  0  0  0  0  0  0  0  0  0
   -3.7112    0.8155   -0.0611 N   0  0  0  0  0  0  0  0  0  0  0  0
   -0.6537    1.4090    0.0174 C   0  0  0  0  0  0  0  0  0  0  0  0
    0.7358    1.3480   -0.0534 C   0  0  0  0  0  0  0  0  0  0  0  0
    1.3680    0.1074   -0.0781 C   0  0  0  0  0  0  0  0  0  0  0  0
    2.8435    0.0627   -0.1616 N   0  0  0  0  0  0  0  0  0  0  0  0
    3.4387    1.1355   -0.2118 O   0  0  0  0  0  0  0  0  0  0  0  0
    3.3726   -1.0457   -0.1843 O   0  0  0  0  0  0  0  0  0  0  0  0
    0.6668   -1.0954   -0.0187 C   0  0  0  0  0  0  0  0  0  0  0  0
   -0.7183   -1.0458    0.0726 C   0  0  0  0  0  0  0  0  0  0  0  0
   -1.0923    2.2120    0.0292 H   0  0  0  0  0  0  0  0  0  0  0  0
    1.3323    2.2510   -0.0948 H   0  0  0  0  0  0  0  0  0  0  0  0
    1.2071   -2.0333   -0.0336 H   0  0  0  0  0  0  0  0  0  0  0  0
   -1.3100   -1.9517    0.1385 H   0  0  0  0  0  0  0  0  0  0  0  0
   -3.3984    2.6613   -0.9798 Cl  0  0  0  0  0  0  0  0  0  0  0  0
  1 11  1  0  0  0  0
  1  2  1  0  0  0  0
  3  2  2  0  0  0  0
  4 12  1  0  0  0  0
  4  1  2  0  0  0  0
  5  4  1  0  0  0  0
  6  5  2  0  0  0  0
  6 10  1  0  0  0  0
  7  6  1  0  0  0  0
  8  7  2  0  0  0  0
  9  7  2  0  0  0  0
 10 11  2  0  0  0  0
 11 15  1  0  0  0  0
 13  5  1  0  0  0  0
 14 10  1  0  0  0  0
 16  3  1  0  0  0  0
M  END
