Coordinates from ORCA-job 4-NO2PhN2+~Cl-_B3LYPG-6-31G_dp-CH-Scan-d09-49-n800
 OpenBabel11261919153D

 16 15  0  0  0  0  0  0  0  0999 V2000
   -1.2871    0.0744   -0.0580 C   0  0  0  0  0  0  0  0  0  0  0  0
   -2.6909    0.1267   -0.0567 N   0  0  0  0  0  0  0  0  0  0  0  0
   -3.7730    0.3993   -0.0758 N   0  0  0  0  0  0  0  0  0  0  0  0
   -0.7118    1.3404   -0.1713 C   0  0  0  0  0  0  0  0  0  0  0  0
    0.6990    1.2916   -0.1733 C   0  0  0  0  0  0  0  0  0  0  0  0
    1.3641    0.0761   -0.0702 C   0  0  0  0  0  0  0  0  0  0  0  0
    2.8518    0.0675   -0.0763 N   0  0  0  0  0  0  0  0  0  0  0  0
    3.4223    1.1473   -0.1836 O   0  0  0  0  0  0  0  0  0  0  0  0
    3.4085   -1.0236    0.0269 O   0  0  0  0  0  0  0  0  0  0  0  0
    0.7167   -1.1689    0.0417 C   0  0  0  0  0  0  0  0  0  0  0  0
   -0.6626   -1.1873    0.0496 C   0  0  0  0  0  0  0  0  0  0  0  0
   -1.7889    2.5872   -0.2755 H   0  0  0  0  0  0  0  0  0  0  0  0
    1.2876    2.1995   -0.2555 H   0  0  0  0  0  0  0  0  0  0  0  0
    1.3061   -2.0728    0.1184 H   0  0  0  0  0  0  0  0  0  0  0  0
   -1.2257   -2.1112    0.1334 H   0  0  0  0  0  0  0  0  0  0  0  0
   -2.9691    3.4323   -0.3440 Cl  0  0  0  0  0  0  0  0  0  0  0  0
  1  2  1  0  0  0  0
  1 11  2  0  0  0  0
  3  2  1  0  0  0  0
  4  1  1  0  0  0  0
  5  4  2  0  0  0  0
  5  6  1  0  0  0  0
  6 10  2  0  0  0  0
  7  6  1  0  0  0  0
  7  9  2  0  0  0  0
  8  7  2  0  0  0  0
 10 11  1  0  0  0  0
 10 14  1  0  0  0  0
 11 15  1  0  0  0  0
 13  5  1  0  0  0  0
 16 12  1  0  0  0  0
M  RAD  3   2   2   3   3   4   2
M  END
