Coordinates from ORCA-job 4-NO2PhN2+~Cl-_B3LYPG-6-31G_dp-CH-Scan-d09-49-n800
 OpenBabel11261919153D

 16 15  0  0  0  0  0  0  0  0999 V2000
   -1.2842    0.0739   -0.0580 C   0  0  0  0  0  0  0  0  0  0  0  0
   -2.6843    0.1067   -0.0553 N   0  0  0  0  0  0  0  0  0  0  0  0
   -3.7873    0.2697   -0.0649 N   0  0  0  0  0  0  0  0  0  0  0  0
   -0.7132    1.3441   -0.1719 C   0  0  0  0  0  0  0  0  0  0  0  0
    0.7006    1.2862   -0.1730 C   0  0  0  0  0  0  0  0  0  0  0  0
    1.3657    0.0720   -0.0699 C   0  0  0  0  0  0  0  0  0  0  0  0
    2.8537    0.0619   -0.0760 N   0  0  0  0  0  0  0  0  0  0  0  0
    3.4260    1.1406   -0.1836 O   0  0  0  0  0  0  0  0  0  0  0  0
    3.4093   -1.0299    0.0282 O   0  0  0  0  0  0  0  0  0  0  0  0
    0.7183   -1.1743    0.0422 C   0  0  0  0  0  0  0  0  0  0  0  0
   -0.6593   -1.1917    0.0500 C   0  0  0  0  0  0  0  0  0  0  0  0
   -1.8330    2.6791   -0.2832 H   0  0  0  0  0  0  0  0  0  0  0  0
    1.2919    2.1925   -0.2551 H   0  0  0  0  0  0  0  0  0  0  0  0
    1.3075   -2.0784    0.1191 H   0  0  0  0  0  0  0  0  0  0  0  0
   -1.2228   -2.1156    0.1340 H   0  0  0  0  0  0  0  0  0  0  0  0
   -2.9421    3.5414   -0.3528 Cl  0  0  0  0  0  0  0  0  0  0  0  0
  1  2  1  0  0  0  0
  1 11  2  0  0  0  0
  3  2  1  0  0  0  0
  4  1  1  0  0  0  0
  5  4  2  0  0  0  0
  5  6  1  0  0  0  0
  6 10  2  0  0  0  0
  7  6  1  0  0  0  0
  7  9  2  0  0  0  0
  8  7  2  0  0  0  0
 10 11  1  0  0  0  0
 10 14  1  0  0  0  0
 11 15  1  0  0  0  0
 13  5  1  0  0  0  0
 16 12  1  0  0  0  0
M  RAD  3   2   2   3   3   4   2
M  END
