Coordinates from ORCA-job 4-NO2PhN2+~Cl-_B3LYPG-6-31G_dp-CH-Scan-d09-49-n800
 OpenBabel11261919153D

 16 15  0  0  0  0  0  0  0  0999 V2000
   -1.2918    0.0734   -0.0582 C   0  0  0  0  0  0  0  0  0  0  0  0
   -2.7109    0.1327   -0.0567 N   0  0  0  0  0  0  0  0  0  0  0  0
   -3.6983    0.6776   -0.0993 N   0  0  0  0  0  0  0  0  0  0  0  0
   -0.6958    1.3237   -0.1701 C   0  0  0  0  0  0  0  0  0  0  0  0
    0.7075    1.2941   -0.1739 C   0  0  0  0  0  0  0  0  0  0  0  0
    1.3712    0.0741   -0.0701 C   0  0  0  0  0  0  0  0  0  0  0  0
    2.8569    0.0663   -0.0759 N   0  0  0  0  0  0  0  0  0  0  0  0
    3.4267    1.1472   -0.1825 O   0  0  0  0  0  0  0  0  0  0  0  0
    3.4154   -1.0238    0.0264 O   0  0  0  0  0  0  0  0  0  0  0  0
    0.7196   -1.1643    0.0412 C   0  0  0  0  0  0  0  0  0  0  0  0
   -0.6641   -1.1784    0.0485 C   0  0  0  0  0  0  0  0  0  0  0  0
   -1.7436    2.4899   -0.2674 H   0  0  0  0  0  0  0  0  0  0  0  0
    1.2930    2.2031   -0.2562 H   0  0  0  0  0  0  0  0  0  0  0  0
    1.3052   -2.0707    0.1183 H   0  0  0  0  0  0  0  0  0  0  0  0
   -1.2291   -2.1009    0.1321 H   0  0  0  0  0  0  0  0  0  0  0  0
   -3.1148    3.2344   -0.3266 Cl  0  0  0  0  0  0  0  0  0  0  0  0
  1  2  1  0  0  0  0
  1 11  2  0  0  0  0
  3  2  2  0  0  0  0
  4  1  1  0  0  0  0
  5  4  2  0  0  0  0
  5  6  1  0  0  0  0
  6 10  2  0  0  0  0
  7  6  1  0  0  0  0
  7  9  2  0  0  0  0
  8  7  2  0  0  0  0
 10 11  1  0  0  0  0
 10 14  1  0  0  0  0
 11 15  1  0  0  0  0
 13  5  1  0  0  0  0
 16 12  1  0  0  0  0
M  RAD  2   3   2   4   2
M  END
