Coordinates from ORCA-job 4-NO2PhN2+~Cl-_B3LYPG-6-31G_dp-CH-Scan-d09-49-n800
 OpenBabel11261919153D

 16 15  0  0  0  0  0  0  0  0999 V2000
   -1.2518    0.0495   -0.0554 C   0  0  0  0  0  0  0  0  0  0  0  0
   -2.6511    0.0745   -0.0521 N   0  0  0  0  0  0  0  0  0  0  0  0
   -3.7617    0.1829   -0.0569 N   0  0  0  0  0  0  0  0  0  0  0  0
   -0.6901    1.3249   -0.1690 C   0  0  0  0  0  0  0  0  0  0  0  0
    0.7288    1.2534   -0.1690 C   0  0  0  0  0  0  0  0  0  0  0  0
    1.3924    0.0395   -0.0671 C   0  0  0  0  0  0  0  0  0  0  0  0
    2.8804    0.0256   -0.0732 N   0  0  0  0  0  0  0  0  0  0  0  0
    3.4573    1.1022   -0.1814 O   0  0  0  0  0  0  0  0  0  0  0  0
    3.4344   -1.0675    0.0312 O   0  0  0  0  0  0  0  0  0  0  0  0
    0.7438   -1.2084    0.0447 C   0  0  0  0  0  0  0  0  0  0  0  0
   -0.6323   -1.2222    0.0525 C   0  0  0  0  0  0  0  0  0  0  0  0
   -2.0478    2.9687   -0.3082 H   0  0  0  0  0  0  0  0  0  0  0  0
    1.3269    2.1557   -0.2501 H   0  0  0  0  0  0  0  0  0  0  0  0
    1.3320   -2.1130    0.1209 H   0  0  0  0  0  0  0  0  0  0  0  0
   -1.1983   -2.1449    0.1360 H   0  0  0  0  0  0  0  0  0  0  0  0
   -3.1158    3.7575   -0.3733 Cl  0  0  0  0  0  0  0  0  0  0  0  0
  1  2  1  0  0  0  0
  1 11  2  0  0  0  0
  3  2  1  0  0  0  0
  4  1  1  0  0  0  0
  5  4  2  0  0  0  0
  5  6  1  0  0  0  0
  6 10  2  0  0  0  0
  7  6  1  0  0  0  0
  7  9  2  0  0  0  0
  8  7  2  0  0  0  0
 10 11  1  0  0  0  0
 10 14  1  0  0  0  0
 11 15  1  0  0  0  0
 13  5  1  0  0  0  0
 16 12  1  0  0  0  0
M  RAD  3   2   2   3   3   4   2
M  END
