Coordinates from ORCA-job 4-NO2PhN2+~Cl-_B3LYPG-6-31G_dp-CH-Scan-d09-49-n800
 OpenBabel11261919153D

 16 15  0  0  0  0  0  0  0  0999 V2000
   -1.0062    0.0648   -0.0694 C   0  0  0  0  0  0  0  0  0  0  0  0
   -2.4054    0.2130   -0.0816 N   0  0  0  0  0  0  0  0  0  0  0  0
   -3.5042    0.4159   -0.0992 N   0  0  0  0  0  0  0  0  0  0  0  0
   -0.3587    1.2940   -0.1863 C   0  0  0  0  0  0  0  0  0  0  0  0
    1.0552    1.0922   -0.1684 C   0  0  0  0  0  0  0  0  0  0  0  0
    1.6154   -0.1703   -0.0493 C   0  0  0  0  0  0  0  0  0  0  0  0
    3.0962   -0.3105   -0.0359 N   0  0  0  0  0  0  0  0  0  0  0  0
    3.7674    0.7121   -0.1359 O   0  0  0  0  0  0  0  0  0  0  0  0
    3.5578   -1.4460    0.0755 O   0  0  0  0  0  0  0  0  0  0  0  0
    0.8637   -1.3623    0.0637 C   0  0  0  0  0  0  0  0  0  0  0  0
   -0.5076   -1.2592    0.0552 C   0  0  0  0  0  0  0  0  0  0  0  0
   -3.5692    4.5924   -0.4367 H   0  0  0  0  0  0  0  0  0  0  0  0
    1.7333    1.9373   -0.2487 H   0  0  0  0  0  0  0  0  0  0  0  0
    1.3743   -2.3117    0.1533 H   0  0  0  0  0  0  0  0  0  0  0  0
   -1.1520   -2.1297    0.1382 H   0  0  0  0  0  0  0  0  0  0  0  0
   -4.6131    3.8463   -0.3448 Cl  0  0  0  0  0  0  0  0  0  0  0  0
  1 11  2  0  0  0  0
  2  1  1  0  0  0  0
  3  2  1  0  0  0  0
  4  5  2  0  0  0  0
  4  1  1  0  0  0  0
  5  6  1  0  0  0  0
  6  7  1  0  0  0  0
  6 10  2  0  0  0  0
  7  9  2  0  0  0  0
  8  7  2  0  0  0  0
 10 14  1  0  0  0  0
 11 10  1  0  0  0  0
 11 15  1  0  0  0  0
 12 16  1  0  0  0  0
 13  5  1  0  0  0  0
M  RAD  3   2   2   3   3   4   2
M  END
