Coordinates from ORCA-job 4-NO2PhN2+~Cl-_B3LYPG-6-31G_dp-CH-Scan-d09-49-n800
 OpenBabel11261919153D

 16 15  0  0  0  0  0  0  0  0999 V2000
   -1.0397    0.0528   -0.0610 C   0  0  0  0  0  0  0  0  0  0  0  0
   -2.4407    0.1807   -0.0690 N   0  0  0  0  0  0  0  0  0  0  0  0
   -3.5422    0.3688   -0.0826 N   0  0  0  0  0  0  0  0  0  0  0  0
   -0.4103    1.2922   -0.1724 C   0  0  0  0  0  0  0  0  0  0  0  0
    1.0063    1.1109   -0.1599 C   0  0  0  0  0  0  0  0  0  0  0  0
    1.5852   -0.1441   -0.0511 C   0  0  0  0  0  0  0  0  0  0  0  0
    3.0679   -0.2627   -0.0441 N   0  0  0  0  0  0  0  0  0  0  0  0
    3.7237    0.7698   -0.1448 O   0  0  0  0  0  0  0  0  0  0  0  0
    3.5464   -1.3916    0.0633 O   0  0  0  0  0  0  0  0  0  0  0  0
    0.8514   -1.3475    0.0574 C   0  0  0  0  0  0  0  0  0  0  0  0
   -0.5213   -1.2643    0.0542 C   0  0  0  0  0  0  0  0  0  0  0  0
   -3.3075    4.4169   -0.4341 H   0  0  0  0  0  0  0  0  0  0  0  0
    1.6719    1.9661   -0.2367 H   0  0  0  0  0  0  0  0  0  0  0  0
    1.3761   -2.2899    0.1396 H   0  0  0  0  0  0  0  0  0  0  0  0
   -1.1527   -2.1445    0.1344 H   0  0  0  0  0  0  0  0  0  0  0  0
   -4.4674    3.8650   -0.3635 Cl  0  0  0  0  0  0  0  0  0  0  0  0
  1 11  2  0  0  0  0
  2  1  1  0  0  0  0
  3  2  1  0  0  0  0
  4  5  2  0  0  0  0
  4  1  1  0  0  0  0
  5  6  1  0  0  0  0
  6  7  1  0  0  0  0
  6 10  2  0  0  0  0
  7  9  2  0  0  0  0
  8  7  2  0  0  0  0
 10 14  1  0  0  0  0
 11 10  1  0  0  0  0
 11 15  1  0  0  0  0
 12 16  1  0  0  0  0
 13  5  1  0  0  0  0
M  RAD  3   2   2   3   3   4   2
M  END
