Coordinates from ORCA-job 4-NO2PhN2+~Cl-_B3LYPG-6-31G_dp-CH-Scan-d09-49-n800
 OpenBabel11261919153D

 16 15  0  0  0  0  0  0  0  0999 V2000
   -1.1906    0.0079   -0.0502 C   0  0  0  0  0  0  0  0  0  0  0  0
   -2.5915    0.0429   -0.0468 N   0  0  0  0  0  0  0  0  0  0  0  0
   -3.7034    0.1483   -0.0504 N   0  0  0  0  0  0  0  0  0  0  0  0
   -0.6309    1.2832   -0.1620 C   0  0  0  0  0  0  0  0  0  0  0  0
    0.7912    1.1960   -0.1620 C   0  0  0  0  0  0  0  0  0  0  0  0
    1.4476   -0.0214   -0.0629 C   0  0  0  0  0  0  0  0  0  0  0  0
    2.9353   -0.0459   -0.0697 N   0  0  0  0  0  0  0  0  0  0  0  0
    3.5215    1.0265   -0.1747 O   0  0  0  0  0  0  0  0  0  0  0  0
    3.4831   -1.1421    0.0393 O   0  0  0  0  0  0  0  0  0  0  0  0
    0.7916   -1.2673    0.0474 C   0  0  0  0  0  0  0  0  0  0  0  0
   -0.5837   -1.2717    0.0558 C   0  0  0  0  0  0  0  0  0  0  0  0
   -2.4000    3.4419   -0.3506 H   0  0  0  0  0  0  0  0  0  0  0  0
    1.3989    2.0926   -0.2411 H   0  0  0  0  0  0  0  0  0  0  0  0
    1.3748   -2.1753    0.1221 H   0  0  0  0  0  0  0  0  0  0  0  0
   -1.1566   -2.1905    0.1384 H   0  0  0  0  0  0  0  0  0  0  0  0
   -3.5404    4.0532   -0.4030 Cl  0  0  0  0  0  0  0  0  0  0  0  0
  1  2  1  0  0  0  0
  1 11  2  0  0  0  0
  3  2  1  0  0  0  0
  4  5  2  0  0  0  0
  4  1  1  0  0  0  0
  5  6  1  0  0  0  0
  6 10  2  0  0  0  0
  7  6  1  0  0  0  0
  7  9  2  0  0  0  0
  8  7  2  0  0  0  0
 10 11  1  0  0  0  0
 10 14  1  0  0  0  0
 11 15  1  0  0  0  0
 13  5  1  0  0  0  0
 16 12  1  0  0  0  0
M  RAD  3   2   2   3   3   4   2
M  END
