Coordinates from ORCA-job 4-NO2PhN2+~Cl-_B3LYPG-6-31G_dp-CH-Scan-d09-49-n800
 OpenBabel11261919153D

 16 15  0  0  0  0  0  0  0  0999 V2000
   -0.9787    0.0768   -0.0646 C   0  0  0  0  0  0  0  0  0  0  0  0
   -2.3761    0.2425   -0.0741 N   0  0  0  0  0  0  0  0  0  0  0  0
   -3.4725    0.4583   -0.0893 N   0  0  0  0  0  0  0  0  0  0  0  0
   -0.3162    1.2982   -0.1770 C   0  0  0  0  0  0  0  0  0  0  0  0
    1.0952    1.0789   -0.1614 C   0  0  0  0  0  0  0  0  0  0  0  0
    1.6397   -0.1910   -0.0476 C   0  0  0  0  0  0  0  0  0  0  0  0
    3.1186   -0.3497   -0.0359 N   0  0  0  0  0  0  0  0  0  0  0  0
    3.8025    0.6651   -0.1291 O   0  0  0  0  0  0  0  0  0  0  0  0
    3.5662   -1.4917    0.0675 O   0  0  0  0  0  0  0  0  0  0  0  0
    0.8732   -1.3741    0.0610 C   0  0  0  0  0  0  0  0  0  0  0  0
   -0.4966   -1.2540    0.0539 C   0  0  0  0  0  0  0  0  0  0  0  0
   -3.7792    4.7042   -0.4513 H   0  0  0  0  0  0  0  0  0  0  0  0
    1.7835    1.9157   -0.2393 H   0  0  0  0  0  0  0  0  0  0  0  0
    1.3721   -2.3301    0.1461 H   0  0  0  0  0  0  0  0  0  0  0  0
   -1.1517   -2.1168    0.1337 H   0  0  0  0  0  0  0  0  0  0  0  0
   -4.7331    3.8458   -0.3628 Cl  0  0  0  0  0  0  0  0  0  0  0  0
  1 11  2  0  0  0  0
  2  1  1  0  0  0  0
  3  2  1  0  0  0  0
  4  5  2  0  0  0  0
  4  1  1  0  0  0  0
  5  6  1  0  0  0  0
  6  7  1  0  0  0  0
  6 10  2  0  0  0  0
  7  9  2  0  0  0  0
  8  7  2  0  0  0  0
 10 14  1  0  0  0  0
 11 10  1  0  0  0  0
 11 15  1  0  0  0  0
 12 16  1  0  0  0  0
 13  5  1  0  0  0  0
M  RAD  3   2   2   3   3   4   2
M  END
