Coordinates from ORCA-job 4-NO2PhN2+~Cl-_B3LYPG-6-31G_dp-CH-Scan-d09-49-n800
 OpenBabel11261919153D

 16 16  0  0  0  0  0  0  0  0999 V2000
   -1.3604    0.1979    0.0736 C   0  0  0  0  0  0  0  0  0  0  0  0
   -2.7681    0.1513    0.1887 N   0  0  0  0  0  0  0  0  0  0  0  0
   -3.7107    0.8117   -0.0558 N   0  0  0  0  0  0  0  0  0  0  0  0
   -0.6486    1.4068    0.0239 C   0  0  0  0  0  0  0  0  0  0  0  0
    0.7405    1.3462   -0.0494 C   0  0  0  0  0  0  0  0  0  0  0  0
    1.3706    0.1044   -0.0794 C   0  0  0  0  0  0  0  0  0  0  0  0
    2.8459    0.0579   -0.1657 N   0  0  0  0  0  0  0  0  0  0  0  0
    3.4430    1.1301   -0.2069 O   0  0  0  0  0  0  0  0  0  0  0  0
    3.3737   -1.0511   -0.1894 O   0  0  0  0  0  0  0  0  0  0  0  0
    0.6679   -1.0978   -0.0224 C   0  0  0  0  0  0  0  0  0  0  0  0
   -0.7169   -1.0470    0.0722 C   0  0  0  0  0  0  0  0  0  0  0  0
   -1.1170    2.2620    0.0382 H   0  0  0  0  0  0  0  0  0  0  0  0
    1.3383    2.2483   -0.0888 H   0  0  0  0  0  0  0  0  0  0  0  0
    1.2072   -2.0362   -0.0412 H   0  0  0  0  0  0  0  0  0  0  0  0
   -1.3092   -1.9525    0.1373 H   0  0  0  0  0  0  0  0  0  0  0  0
   -3.4093    2.6464   -1.0050 Cl  0  0  0  0  0  0  0  0  0  0  0  0
  1  2  1  0  0  0  0
  3  2  2  0  0  0  0
  4 12  1  0  0  0  0
  4  1  2  0  0  0  0
  5  4  1  0  0  0  0
  6  5  2  0  0  0  0
  6 10  1  0  0  0  0
  7  6  1  0  0  0  0
  8  7  2  0  0  0  0
  9  7  2  0  0  0  0
 10 11  2  0  0  0  0
 11  1  1  0  0  0  0
 11 15  1  0  0  0  0
 13  5  1  0  0  0  0
 14 10  1  0  0  0  0
 16  3  1  0  0  0  0
M  END
