Coordinates from ORCA-job 4-NO2PhN2+~Cl-_B3LYPG-6-31G_dp-CH-Scan-d09-49-n800
 OpenBabel11261919153D

 16 15  0  0  0  0  0  0  0  0999 V2000
   -1.0239    0.0581   -0.0644 C   0  0  0  0  0  0  0  0  0  0  0  0
   -2.4242    0.1952   -0.0742 N   0  0  0  0  0  0  0  0  0  0  0  0
   -3.5245    0.3899   -0.0894 N   0  0  0  0  0  0  0  0  0  0  0  0
   -0.3862    1.2928   -0.1780 C   0  0  0  0  0  0  0  0  0  0  0  0
    1.0292    1.1021   -0.1632 C   0  0  0  0  0  0  0  0  0  0  0  0
    1.5995   -0.1565   -0.0502 C   0  0  0  0  0  0  0  0  0  0  0  0
    3.0814   -0.2851   -0.0405 N   0  0  0  0  0  0  0  0  0  0  0  0
    3.7443    0.7429   -0.1406 O   0  0  0  0  0  0  0  0  0  0  0  0
    3.5521   -1.4171    0.0684 O   0  0  0  0  0  0  0  0  0  0  0  0
    0.8574   -1.3547    0.0601 C   0  0  0  0  0  0  0  0  0  0  0  0
   -0.5146   -1.2624    0.0545 C   0  0  0  0  0  0  0  0  0  0  0  0
   -3.4285    4.5017   -0.4370 H   0  0  0  0  0  0  0  0  0  0  0  0
    1.7006    1.9526   -0.2414 H   0  0  0  0  0  0  0  0  0  0  0  0
    1.3757   -2.3004    0.1453 H   0  0  0  0  0  0  0  0  0  0  0  0
   -1.1521   -2.1381    0.1358 H   0  0  0  0  0  0  0  0  0  0  0  0
   -4.5391    3.8575   -0.3554 Cl  0  0  0  0  0  0  0  0  0  0  0  0
  1 11  2  0  0  0  0
  2  1  1  0  0  0  0
  3  2  1  0  0  0  0
  4  5  2  0  0  0  0
  4  1  1  0  0  0  0
  5  6  1  0  0  0  0
  6  7  1  0  0  0  0
  6 10  2  0  0  0  0
  7  9  2  0  0  0  0
  8  7  2  0  0  0  0
 10 14  1  0  0  0  0
 11 10  1  0  0  0  0
 11 15  1  0  0  0  0
 12 16  1  0  0  0  0
 13  5  1  0  0  0  0
M  RAD  3   2   2   3   3   4   2
M  END
