Coordinates from ORCA-job 4-NO2PhN2+~Cl-_B3LYPG-6-31G_dp-CH-Scan-d09-49-n800
 OpenBabel11261919153D

 16 15  0  0  0  0  0  0  0  0999 V2000
   -1.0087    0.0639   -0.0689 C   0  0  0  0  0  0  0  0  0  0  0  0
   -2.4081    0.2105   -0.0810 N   0  0  0  0  0  0  0  0  0  0  0  0
   -3.5071    0.4128   -0.0907 N   0  0  0  0  0  0  0  0  0  0  0  0
   -0.3626    1.2940   -0.1840 C   0  0  0  0  0  0  0  0  0  0  0  0
    1.0515    1.0938   -0.1665 C   0  0  0  0  0  0  0  0  0  0  0  0
    1.6131   -0.1683   -0.0493 C   0  0  0  0  0  0  0  0  0  0  0  0
    3.0941   -0.3069   -0.0363 N   0  0  0  0  0  0  0  0  0  0  0  0
    3.7642    0.7165   -0.1355 O   0  0  0  0  0  0  0  0  0  0  0  0
    3.5570   -1.4421    0.0737 O   0  0  0  0  0  0  0  0  0  0  0  0
    0.8628   -1.3613    0.0621 C   0  0  0  0  0  0  0  0  0  0  0  0
   -0.5086   -1.2597    0.0538 C   0  0  0  0  0  0  0  0  0  0  0  0
   -3.5494    4.5797   -0.4427 H   0  0  0  0  0  0  0  0  0  0  0  0
    1.7287    1.9396   -0.2456 H   0  0  0  0  0  0  0  0  0  0  0  0
    1.3745   -2.3103    0.1503 H   0  0  0  0  0  0  0  0  0  0  0  0
   -1.1520   -2.1311    0.1356 H   0  0  0  0  0  0  0  0  0  0  0  0
   -4.6024    3.8472   -0.3454 Cl  0  0  0  0  0  0  0  0  0  0  0  0
  1 11  2  0  0  0  0
  2  1  1  0  0  0  0
  3  2  1  0  0  0  0
  4  5  2  0  0  0  0
  4  1  1  0  0  0  0
  5  6  1  0  0  0  0
  6  7  1  0  0  0  0
  6 10  2  0  0  0  0
  7  9  2  0  0  0  0
  8  7  2  0  0  0  0
 10 14  1  0  0  0  0
 11 10  1  0  0  0  0
 11 15  1  0  0  0  0
 12 16  1  0  0  0  0
 13  5  1  0  0  0  0
M  RAD  3   2   2   3   3   4   2
M  END
