Coordinates from ORCA-job 4-NO2PhN2+~Cl-_B3LYPG-6-31G_dp-CH-Scan-d09-49-n800
 OpenBabel11261919153D

 16 15  0  0  0  0  0  0  0  0999 V2000
   -1.3341    0.1408   -0.0639 C   0  0  0  0  0  0  0  0  0  0  0  0
   -2.7452    0.1094   -0.0554 N   0  0  0  0  0  0  0  0  0  0  0  0
   -3.7050    0.7668   -0.1085 N   0  0  0  0  0  0  0  0  0  0  0  0
   -0.6348    1.3463   -0.1724 C   0  0  0  0  0  0  0  0  0  0  0  0
    0.7540    1.3145   -0.1762 C   0  0  0  0  0  0  0  0  0  0  0  0
    1.3918    0.0785   -0.0707 C   0  0  0  0  0  0  0  0  0  0  0  0
    2.8727    0.0427   -0.0742 N   0  0  0  0  0  0  0  0  0  0  0  0
    3.4617    1.1144   -0.1786 O   0  0  0  0  0  0  0  0  0  0  0  0
    3.4092   -1.0575    0.0280 O   0  0  0  0  0  0  0  0  0  0  0  0
    0.7014   -1.1294    0.0386 C   0  0  0  0  0  0  0  0  0  0  0  0
   -0.6868   -1.0992    0.0421 C   0  0  0  0  0  0  0  0  0  0  0  0
   -1.3754    2.4598   -0.2660 H   0  0  0  0  0  0  0  0  0  0  0  0
    1.3460    2.2172   -0.2584 H   0  0  0  0  0  0  0  0  0  0  0  0
    1.2547   -2.0562    0.1181 H   0  0  0  0  0  0  0  0  0  0  0  0
   -1.2715   -2.0086    0.1249 H   0  0  0  0  0  0  0  0  0  0  0  0
   -3.4918    2.9390   -0.2977 Cl  0  0  0  0  0  0  0  0  0  0  0  0
  1  2  1  0  0  0  0
  1 11  2  0  0  0  0
  3  2  2  0  0  0  0
  4  1  1  0  0  0  0
  5  4  2  0  0  0  0
  5  6  1  0  0  0  0
  6 10  2  0  0  0  0
  7  6  1  0  0  0  0
  7  9  2  0  0  0  0
  8  7  2  0  0  0  0
 10 11  1  0  0  0  0
 10 14  1  0  0  0  0
 11 15  1  0  0  0  0
 12  4  1  0  0  0  0
 13  5  1  0  0  0  0
M  RAD  2   3   2  16   2
M  END
