Coordinates from ORCA-job 4-NO2PhN2+~Cl-_B3LYPG-6-31G_dp-CH-Scan-d09-49-n800
 OpenBabel11261919153D

 16 15  0  0  0  0  0  0  0  0999 V2000
   -1.2405    0.0424   -0.0547 C   0  0  0  0  0  0  0  0  0  0  0  0
   -2.6400    0.0692   -0.0516 N   0  0  0  0  0  0  0  0  0  0  0  0
   -3.7511    0.1757   -0.0562 N   0  0  0  0  0  0  0  0  0  0  0  0
   -0.6794    1.3179   -0.1682 C   0  0  0  0  0  0  0  0  0  0  0  0
    0.7402    1.2430   -0.1680 C   0  0  0  0  0  0  0  0  0  0  0  0
    1.4024    0.0285   -0.0662 C   0  0  0  0  0  0  0  0  0  0  0  0
    2.8903    0.0126   -0.0722 N   0  0  0  0  0  0  0  0  0  0  0  0
    3.4692    1.0881   -0.1806 O   0  0  0  0  0  0  0  0  0  0  0  0
    3.4431   -1.0813    0.0327 O   0  0  0  0  0  0  0  0  0  0  0  0
    0.7523   -1.2190    0.0454 C   0  0  0  0  0  0  0  0  0  0  0  0
   -0.6235   -1.2310    0.0532 C   0  0  0  0  0  0  0  0  0  0  0  0
   -2.1143    3.0535   -0.3154 H   0  0  0  0  0  0  0  0  0  0  0  0
    1.3404    2.1441   -0.2488 H   0  0  0  0  0  0  0  0  0  0  0  0
    1.3396   -2.1243    0.1217 H   0  0  0  0  0  0  0  0  0  0  0  0
   -1.1909   -2.1530    0.1367 H   0  0  0  0  0  0  0  0  0  0  0  0
   -3.1910    3.8121   -0.3779 Cl  0  0  0  0  0  0  0  0  0  0  0  0
  1  2  1  0  0  0  0
  1 11  2  0  0  0  0
  3  2  1  0  0  0  0
  4  5  2  0  0  0  0
  4  1  1  0  0  0  0
  5  6  1  0  0  0  0
  6 10  2  0  0  0  0
  7  6  1  0  0  0  0
  7  9  2  0  0  0  0
  8  7  2  0  0  0  0
 10 11  1  0  0  0  0
 10 14  1  0  0  0  0
 11 15  1  0  0  0  0
 13  5  1  0  0  0  0
 16 12  1  0  0  0  0
M  RAD  3   2   2   3   3   4   2
M  END
