Coordinates from ORCA-job 4-NO2PhN2+~Cl-_B3LYPG-6-31G_dp-CH-Scan-d09-49-n800
 OpenBabel11261919153D

 16 16  0  0  0  0  0  0  0  0999 V2000
   -1.3617    0.1983    0.0718 C   0  0  0  0  0  0  0  0  0  0  0  0
   -2.7695    0.1504    0.1845 N   0  0  0  0  0  0  0  0  0  0  0  0
   -3.7110    0.8134   -0.0583 N   0  0  0  0  0  0  0  0  0  0  0  0
   -0.6510    1.4081    0.0208 C   0  0  0  0  0  0  0  0  0  0  0  0
    0.7383    1.3471   -0.0516 C   0  0  0  0  0  0  0  0  0  0  0  0
    1.3694    0.1059   -0.0792 C   0  0  0  0  0  0  0  0  0  0  0  0
    2.8447    0.0602   -0.1644 N   0  0  0  0  0  0  0  0  0  0  0  0
    3.4410    1.1327   -0.2081 O   0  0  0  0  0  0  0  0  0  0  0  0
    3.3732   -1.0486   -0.1866 O   0  0  0  0  0  0  0  0  0  0  0  0
    0.6673   -1.0966   -0.0208 C   0  0  0  0  0  0  0  0  0  0  0  0
   -0.7176   -1.0462    0.0724 C   0  0  0  0  0  0  0  0  0  0  0  0
   -1.1043    2.2373    0.0340 H   0  0  0  0  0  0  0  0  0  0  0  0
    1.3355    2.2496   -0.0920 H   0  0  0  0  0  0  0  0  0  0  0  0
    1.2071   -2.0347   -0.0378 H   0  0  0  0  0  0  0  0  0  0  0  0
   -1.3096   -1.9519    0.1380 H   0  0  0  0  0  0  0  0  0  0  0  0
   -3.4047    2.6534   -0.9930 Cl  0  0  0  0  0  0  0  0  0  0  0  0
  1 11  1  0  0  0  0
  1  2  1  0  0  0  0
  3  2  2  0  0  0  0
  4 12  1  0  0  0  0
  4  1  2  0  0  0  0
  5  4  1  0  0  0  0
  6  5  2  0  0  0  0
  6 10  1  0  0  0  0
  7  6  1  0  0  0  0
  8  7  2  0  0  0  0
  9  7  2  0  0  0  0
 10 11  2  0  0  0  0
 11 15  1  0  0  0  0
 13  5  1  0  0  0  0
 14 10  1  0  0  0  0
 16  3  1  0  0  0  0
M  END
