Coordinates from ORCA-job 4-NO2PhN2+~Cl-_B3LYPG-6-31G_dp-CH-Scan-d09-49-n800
 OpenBabel11261919153D

 16 15  0  0  0  0  0  0  0  0999 V2000
   -1.0003    0.0671   -0.0695 C   0  0  0  0  0  0  0  0  0  0  0  0
   -2.3992    0.2188   -0.0827 N   0  0  0  0  0  0  0  0  0  0  0  0
   -3.4975    0.4241   -0.1024 N   0  0  0  0  0  0  0  0  0  0  0  0
   -0.3497    1.2946   -0.1862 C   0  0  0  0  0  0  0  0  0  0  0  0
    1.0637    1.0893   -0.1671 C   0  0  0  0  0  0  0  0  0  0  0  0
    1.6206   -0.1746   -0.0473 C   0  0  0  0  0  0  0  0  0  0  0  0
    3.1010   -0.3185   -0.0325 N   0  0  0  0  0  0  0  0  0  0  0  0
    3.7749    0.7017   -0.1386 O   0  0  0  0  0  0  0  0  0  0  0  0
    3.5597   -1.4559    0.0717 O   0  0  0  0  0  0  0  0  0  0  0  0
    0.8658   -1.3647    0.0653 C   0  0  0  0  0  0  0  0  0  0  0  0
   -0.5051   -1.2582    0.0557 C   0  0  0  0  0  0  0  0  0  0  0  0
   -3.6138    4.6177   -0.4367 H   0  0  0  0  0  0  0  0  0  0  0  0
    1.7439    1.9326   -0.2472 H   0  0  0  0  0  0  0  0  0  0  0  0
    1.3740   -2.3154    0.1555 H   0  0  0  0  0  0  0  0  0  0  0  0
   -1.1518   -2.1271    0.1383 H   0  0  0  0  0  0  0  0  0  0  0  0
   -4.6396    3.8468   -0.3465 Cl  0  0  0  0  0  0  0  0  0  0  0  0
  1 11  2  0  0  0  0
  2  1  1  0  0  0  0
  3  2  1  0  0  0  0
  4  5  2  0  0  0  0
  4  1  1  0  0  0  0
  5  6  1  0  0  0  0
  6  7  1  0  0  0  0
  6 10  2  0  0  0  0
  7  9  2  0  0  0  0
  8  7  2  0  0  0  0
 10 14  1  0  0  0  0
 11 10  1  0  0  0  0
 11 15  1  0  0  0  0
 12 16  1  0  0  0  0
 13  5  1  0  0  0  0
M  RAD  3   2   2   3   3   4   2
M  END
