Coordinates from ORCA-job 4-NO2PhN2+~Cl-_B3LYPG-6-31G_dp-CH-Scan-d09-49-n800
 OpenBabel11261919153D

 16 15  0  0  0  0  0  0  0  0999 V2000
   -1.2016    0.0204   -0.0523 C   0  0  0  0  0  0  0  0  0  0  0  0
   -2.6023    0.0553   -0.0499 N   0  0  0  0  0  0  0  0  0  0  0  0
   -3.7138    0.1620   -0.0539 N   0  0  0  0  0  0  0  0  0  0  0  0
   -0.6397    1.2948   -0.1649 C   0  0  0  0  0  0  0  0  0  0  0  0
    0.7818    1.2087   -0.1639 C   0  0  0  0  0  0  0  0  0  0  0  0
    1.4377   -0.0090   -0.0631 C   0  0  0  0  0  0  0  0  0  0  0  0
    2.9254   -0.0337   -0.0687 N   0  0  0  0  0  0  0  0  0  0  0  0
    3.5115    1.0382   -0.1777 O   0  0  0  0  0  0  0  0  0  0  0  0
    3.4727   -1.1305    0.0373 O   0  0  0  0  0  0  0  0  0  0  0  0
    0.7811   -1.2543    0.0477 C   0  0  0  0  0  0  0  0  0  0  0  0
   -0.5943   -1.2586    0.0551 C   0  0  0  0  0  0  0  0  0  0  0  0
   -2.3338    3.3408   -0.3406 H   0  0  0  0  0  0  0  0  0  0  0  0
    1.3891    2.1054   -0.2435 H   0  0  0  0  0  0  0  0  0  0  0  0
    1.3639   -2.1625    0.1236 H   0  0  0  0  0  0  0  0  0  0  0  0
   -1.1672   -2.1774    0.1381 H   0  0  0  0  0  0  0  0  0  0  0  0
   -3.4635    3.9788   -0.3936 Cl  0  0  0  0  0  0  0  0  0  0  0  0
  1  2  1  0  0  0  0
  1 11  2  0  0  0  0
  3  2  1  0  0  0  0
  4  5  2  0  0  0  0
  4  1  1  0  0  0  0
  5  6  1  0  0  0  0
  6 10  2  0  0  0  0
  7  6  1  0  0  0  0
  7  9  2  0  0  0  0
  8  7  2  0  0  0  0
 10 11  1  0  0  0  0
 10 14  1  0  0  0  0
 11 15  1  0  0  0  0
 13  5  1  0  0  0  0
 16 12  1  0  0  0  0
M  RAD  3   2   2   3   3   4   2
M  END
