Coordinates from ORCA-job 4-NO2PhN2+~Cl-_B3LYPG-6-31G_dp-CH-Scan-d09-49-n800
 OpenBabel11261919153D

 16 15  0  0  0  0  0  0  0  0999 V2000
   -0.9934    0.0700   -0.0671 C   0  0  0  0  0  0  0  0  0  0  0  0
   -2.3918    0.2266   -0.0779 N   0  0  0  0  0  0  0  0  0  0  0  0
   -3.4892    0.4367   -0.0941 N   0  0  0  0  0  0  0  0  0  0  0  0
   -0.3392    1.2957   -0.1820 C   0  0  0  0  0  0  0  0  0  0  0  0
    1.0736    1.0859   -0.1652 C   0  0  0  0  0  0  0  0  0  0  0  0
    1.6266   -0.1800   -0.0486 C   0  0  0  0  0  0  0  0  0  0  0  0
    3.1066   -0.3286   -0.0359 N   0  0  0  0  0  0  0  0  0  0  0  0
    3.7837    0.6905   -0.1327 O   0  0  0  0  0  0  0  0  0  0  0  0
    3.5619   -1.4671    0.0721 O   0  0  0  0  0  0  0  0  0  0  0  0
    0.8682   -1.3680    0.0623 C   0  0  0  0  0  0  0  0  0  0  0  0
   -0.5024   -1.2572    0.0545 C   0  0  0  0  0  0  0  0  0  0  0  0
   -3.6670    4.6466   -0.4432 H   0  0  0  0  0  0  0  0  0  0  0  0
    1.7564    1.9272   -0.2444 H   0  0  0  0  0  0  0  0  0  0  0  0
    1.3735   -2.3205    0.1497 H   0  0  0  0  0  0  0  0  0  0  0  0
   -1.1517   -2.1242    0.1360 H   0  0  0  0  0  0  0  0  0  0  0  0
   -4.6690    3.8449   -0.3538 Cl  0  0  0  0  0  0  0  0  0  0  0  0
  1 11  2  0  0  0  0
  2  1  1  0  0  0  0
  3  2  1  0  0  0  0
  4  5  2  0  0  0  0
  4  1  1  0  0  0  0
  5  6  1  0  0  0  0
  6  7  1  0  0  0  0
  6 10  2  0  0  0  0
  7  9  2  0  0  0  0
  8  7  2  0  0  0  0
 10 14  1  0  0  0  0
 11 10  1  0  0  0  0
 11 15  1  0  0  0  0
 12 16  1  0  0  0  0
 13  5  1  0  0  0  0
M  RAD  3   2   2   3   3   4   2
M  END
