Coordinates from ORCA-job 4-NO2PhN2+~Cl-_B3LYPG-6-31G_dp-CH-Scan-d09-49-n800
 OpenBabel11261919153D

 16 16  0  0  0  0  0  0  0  0999 V2000
   -1.3551    0.1940    0.0731 C   0  0  0  0  0  0  0  0  0  0  0  0
   -2.7623    0.1513    0.1922 N   0  0  0  0  0  0  0  0  0  0  0  0
   -3.7103    0.8034   -0.0484 N   0  0  0  0  0  0  0  0  0  0  0  0
   -0.6394    1.3993    0.0258 C   0  0  0  0  0  0  0  0  0  0  0  0
    0.7489    1.3418   -0.0470 C   0  0  0  0  0  0  0  0  0  0  0  0
    1.3764    0.0982   -0.0787 C   0  0  0  0  0  0  0  0  0  0  0  0
    2.8519    0.0492   -0.1642 N   0  0  0  0  0  0  0  0  0  0  0  0
    3.4507    1.1205   -0.2032 O   0  0  0  0  0  0  0  0  0  0  0  0
    3.3777   -1.0606   -0.1910 O   0  0  0  0  0  0  0  0  0  0  0  0
    0.6719   -1.1034   -0.0246 C   0  0  0  0  0  0  0  0  0  0  0  0
   -0.7128   -1.0519    0.0699 C   0  0  0  0  0  0  0  0  0  0  0  0
   -1.1689    2.3522    0.0373 H   0  0  0  0  0  0  0  0  0  0  0  0
    1.3481    2.2428   -0.0846 H   0  0  0  0  0  0  0  0  0  0  0  0
    1.2103   -2.0422   -0.0449 H   0  0  0  0  0  0  0  0  0  0  0  0
   -1.3057   -1.9573    0.1341 H   0  0  0  0  0  0  0  0  0  0  0  0
   -3.4346    2.6411   -1.0161 Cl  0  0  0  0  0  0  0  0  0  0  0  0
  1  2  1  0  0  0  0
  3  2  2  0  0  0  0
  4 12  1  0  0  0  0
  4  1  2  0  0  0  0
  5  4  1  0  0  0  0
  6  5  2  0  0  0  0
  6 10  1  0  0  0  0
  7  6  1  0  0  0  0
  8  7  2  0  0  0  0
  9  7  2  0  0  0  0
 10 11  2  0  0  0  0
 11  1  1  0  0  0  0
 11 15  1  0  0  0  0
 13  5  1  0  0  0  0
 14 10  1  0  0  0  0
 16  3  1  0  0  0  0
M  END
