Coordinates from ORCA-job 4-NO2PhN2+~Cl-_B3LYPG-6-31G_dp-CH-Scan-d09-49-n800
 OpenBabel11261919153D

 16 15  0  0  0  0  0  0  0  0999 V2000
   -1.0983    0.0491   -0.0510 C   0  0  0  0  0  0  0  0  0  0  0  0
   -2.5005    0.1460   -0.0519 N   0  0  0  0  0  0  0  0  0  0  0  0
   -3.6058    0.3080   -0.0580 N   0  0  0  0  0  0  0  0  0  0  0  0
   -0.4924    1.3013   -0.1561 C   0  0  0  0  0  0  0  0  0  0  0  0
    0.9269    1.1489   -0.1518 C   0  0  0  0  0  0  0  0  0  0  0  0
    1.5313   -0.0951   -0.0558 C   0  0  0  0  0  0  0  0  0  0  0  0
    3.0162   -0.1838   -0.0579 N   0  0  0  0  0  0  0  0  0  0  0  0
    3.6500    0.8627   -0.1539 O   0  0  0  0  0  0  0  0  0  0  0  0
    3.5176   -1.3028    0.0465 O   0  0  0  0  0  0  0  0  0  0  0  0
    0.8224   -1.3133    0.0474 C   0  0  0  0  0  0  0  0  0  0  0  0
   -0.5517   -1.2576    0.0517 C   0  0  0  0  0  0  0  0  0  0  0  0
   -2.8836    4.0188   -0.4074 H   0  0  0  0  0  0  0  0  0  0  0  0
    1.5747    2.0179   -0.2251 H   0  0  0  0  0  0  0  0  0  0  0  0
    1.3662   -2.2456    0.1200 H   0  0  0  0  0  0  0  0  0  0  0  0
   -1.1649   -2.1508    0.1287 H   0  0  0  0  0  0  0  0  0  0  0  0
   -4.1615    3.8748   -0.3959 Cl  0  0  0  0  0  0  0  0  0  0  0  0
  1 11  2  0  0  0  0
  2  1  1  0  0  0  0
  3  2  1  0  0  0  0
  4  5  2  0  0  0  0
  4  1  1  0  0  0  0
  5  6  1  0  0  0  0
  6 10  2  0  0  0  0
  7  6  1  0  0  0  0
  7  9  2  0  0  0  0
  8  7  2  0  0  0  0
 10 11  1  0  0  0  0
 10 14  1  0  0  0  0
 11 15  1  0  0  0  0
 12 16  1  0  0  0  0
 13  5  1  0  0  0  0
M  RAD  3   2   2   3   3   4   2
M  END
