Coordinates from ORCA-job 4-NO2PhN2+~Cl-_B3LYPG-6-31G_dp-CH-Scan-d09-49-n800
 OpenBabel11261919153D

 16 15  0  0  0  0  0  0  0  0999 V2000
   -1.2004    0.0190   -0.0521 C   0  0  0  0  0  0  0  0  0  0  0  0
   -2.6010    0.0538   -0.0497 N   0  0  0  0  0  0  0  0  0  0  0  0
   -3.7126    0.1604   -0.0543 N   0  0  0  0  0  0  0  0  0  0  0  0
   -0.6387    1.2936   -0.1644 C   0  0  0  0  0  0  0  0  0  0  0  0
    0.7828    1.2073   -0.1633 C   0  0  0  0  0  0  0  0  0  0  0  0
    1.4387   -0.0103   -0.0626 C   0  0  0  0  0  0  0  0  0  0  0  0
    2.9265   -0.0350   -0.0680 N   0  0  0  0  0  0  0  0  0  0  0  0
    3.5126    1.0368   -0.1786 O   0  0  0  0  0  0  0  0  0  0  0  0
    3.4738   -1.1319    0.0363 O   0  0  0  0  0  0  0  0  0  0  0  0
    0.7823   -1.2557    0.0481 C   0  0  0  0  0  0  0  0  0  0  0  0
   -0.5931   -1.2600    0.0553 C   0  0  0  0  0  0  0  0  0  0  0  0
   -2.3410    3.3523   -0.3417 H   0  0  0  0  0  0  0  0  0  0  0  0
    1.3901    2.1040   -0.2427 H   0  0  0  0  0  0  0  0  0  0  0  0
    1.3651   -2.1639    0.1238 H   0  0  0  0  0  0  0  0  0  0  0  0
   -1.1660   -2.1789    0.1381 H   0  0  0  0  0  0  0  0  0  0  0  0
   -3.4721    3.9870   -0.3947 Cl  0  0  0  0  0  0  0  0  0  0  0  0
  1  2  1  0  0  0  0
  1 11  2  0  0  0  0
  3  2  1  0  0  0  0
  4  5  2  0  0  0  0
  4  1  1  0  0  0  0
  5  6  1  0  0  0  0
  6 10  2  0  0  0  0
  7  6  1  0  0  0  0
  7  9  2  0  0  0  0
  8  7  2  0  0  0  0
 10 11  1  0  0  0  0
 10 14  1  0  0  0  0
 11 15  1  0  0  0  0
 13  5  1  0  0  0  0
 16 12  1  0  0  0  0
M  RAD  3   2   2   3   3   4   2
M  END
