Coordinates from ORCA-job 4-NO2PhN2+~Cl-_B3LYPG-6-31G_dp-CH-Scan-d09-49-n800
 OpenBabel11261919153D

 16 15  0  0  0  0  0  0  0  0999 V2000
   -0.9772    0.0750   -0.0645 C   0  0  0  0  0  0  0  0  0  0  0  0
   -2.3742    0.2416   -0.0735 N   0  0  0  0  0  0  0  0  0  0  0  0
   -3.4698    0.4605   -0.0917 N   0  0  0  0  0  0  0  0  0  0  0  0
   -0.3150    1.2966   -0.1778 C   0  0  0  0  0  0  0  0  0  0  0  0
    1.0964    1.0772   -0.1626 C   0  0  0  0  0  0  0  0  0  0  0  0
    1.6410   -0.1926   -0.0483 C   0  0  0  0  0  0  0  0  0  0  0  0
    3.1200   -0.3512   -0.0369 N   0  0  0  0  0  0  0  0  0  0  0  0
    3.8038    0.6639   -0.1276 O   0  0  0  0  0  0  0  0  0  0  0  0
    3.5676   -1.4929    0.0694 O   0  0  0  0  0  0  0  0  0  0  0  0
    0.8747   -1.3757    0.0613 C   0  0  0  0  0  0  0  0  0  0  0  0
   -0.4952   -1.2557    0.0546 C   0  0  0  0  0  0  0  0  0  0  0  0
   -3.7925    4.7166   -0.4480 H   0  0  0  0  0  0  0  0  0  0  0  0
    1.7847    1.9141   -0.2413 H   0  0  0  0  0  0  0  0  0  0  0  0
    1.3736   -2.3317    0.1467 H   0  0  0  0  0  0  0  0  0  0  0  0
   -1.1502   -2.1185    0.1350 H   0  0  0  0  0  0  0  0  0  0  0  0
   -4.7407    3.8511   -0.3651 Cl  0  0  0  0  0  0  0  0  0  0  0  0
  1 11  2  0  0  0  0
  2  1  1  0  0  0  0
  3  2  1  0  0  0  0
  4  5  2  0  0  0  0
  4  1  1  0  0  0  0
  5  6  1  0  0  0  0
  6  7  1  0  0  0  0
  6 10  2  0  0  0  0
  7  9  2  0  0  0  0
  8  7  2  0  0  0  0
 10 14  1  0  0  0  0
 11 10  1  0  0  0  0
 11 15  1  0  0  0  0
 12 16  1  0  0  0  0
 13  5  1  0  0  0  0
M  RAD  3   2   2   3   3   4   2
M  END
