Coordinates from ORCA-job 4-NO2PhN2+~Cl-_B3LYPG-6-31G_dp-CH-Scan-d09-49-n800
 OpenBabel11261919153D

 16 15  0  0  0  0  0  0  0  0999 V2000
   -1.1374   -0.0013   -0.0410 C   0  0  0  0  0  0  0  0  0  0  0  0
   -2.5397    0.0564   -0.0371 N   0  0  0  0  0  0  0  0  0  0  0  0
   -3.6498    0.1829   -0.0397 N   0  0  0  0  0  0  0  0  0  0  0  0
   -0.5650    1.2680   -0.1436 C   0  0  0  0  0  0  0  0  0  0  0  0
    0.8574    1.1571   -0.1452 C   0  0  0  0  0  0  0  0  0  0  0  0
    1.4965   -0.0701   -0.0567 C   0  0  0  0  0  0  0  0  0  0  0  0
    2.9835   -0.1166   -0.0655 N   0  0  0  0  0  0  0  0  0  0  0  0
    3.5863    0.9470   -0.1683 O   0  0  0  0  0  0  0  0  0  0  0  0
    3.5160   -1.2217    0.0318 O   0  0  0  0  0  0  0  0  0  0  0  0
    0.8228   -1.3081    0.0448 C   0  0  0  0  0  0  0  0  0  0  0  0
   -0.5522   -1.2920    0.0548 C   0  0  0  0  0  0  0  0  0  0  0  0
   -2.6791    3.8203   -0.3867 H   0  0  0  0  0  0  0  0  0  0  0  0
    1.4795    2.0446   -0.2175 H   0  0  0  0  0  0  0  0  0  0  0  0
    1.3931   -2.2248    0.1118 H   0  0  0  0  0  0  0  0  0  0  0  0
   -1.1392   -2.2026    0.1311 H   0  0  0  0  0  0  0  0  0  0  0  0
   -3.9260    4.1392   -0.4432 Cl  0  0  0  0  0  0  0  0  0  0  0  0
  1  2  1  0  0  0  0
  1 11  2  0  0  0  0
  3  2  1  0  0  0  0
  4  1  1  0  0  0  0
  5  4  2  0  0  0  0
  5  6  1  0  0  0  0
  6 10  2  0  0  0  0
  7  6  1  0  0  0  0
  7  9  2  0  0  0  0
  8  7  2  0  0  0  0
 10 11  1  0  0  0  0
 10 14  1  0  0  0  0
 11 15  1  0  0  0  0
 13  5  1  0  0  0  0
 16 12  1  0  0  0  0
M  RAD  3   2   2   3   3   4   2
M  END
