Coordinates from ORCA-job 4-NO2PhN2+~Cl-_B3LYPG-6-31G_dp-CH-Scan-d09-49-n800
 OpenBabel11261919153D

 16 16  0  0  0  0  0  0  0  0999 V2000
   -1.3402    0.1533   -0.0654 C   0  0  0  0  0  0  0  0  0  0  0  0
   -2.7505    0.1058   -0.0555 N   0  0  0  0  0  0  0  0  0  0  0  0
   -3.7150    0.7627   -0.1079 N   0  0  0  0  0  0  0  0  0  0  0  0
   -0.6333    1.3569   -0.1742 C   0  0  0  0  0  0  0  0  0  0  0  0
    0.7558    1.3180   -0.1771 C   0  0  0  0  0  0  0  0  0  0  0  0
    1.3915    0.0816   -0.0711 C   0  0  0  0  0  0  0  0  0  0  0  0
    2.8718    0.0429   -0.0738 N   0  0  0  0  0  0  0  0  0  0  0  0
    3.4631    1.1135   -0.1778 O   0  0  0  0  0  0  0  0  0  0  0  0
    3.4059   -1.0584    0.0285 O   0  0  0  0  0  0  0  0  0  0  0  0
    0.6969   -1.1230    0.0382 C   0  0  0  0  0  0  0  0  0  0  0  0
   -0.6912   -1.0861    0.0408 C   0  0  0  0  0  0  0  0  0  0  0  0
   -1.3032    2.4326   -0.2651 H   0  0  0  0  0  0  0  0  0  0  0  0
    1.3495    2.2195   -0.2593 H   0  0  0  0  0  0  0  0  0  0  0  0
    1.2458   -2.0524    0.1183 H   0  0  0  0  0  0  0  0  0  0  0  0
   -1.2791   -1.9933    0.1235 H   0  0  0  0  0  0  0  0  0  0  0  0
   -3.5209    2.9048   -0.2923 Cl  0  0  0  0  0  0  0  0  0  0  0  0
  1  2  1  0  0  0  0
  1 11  2  0  0  0  0
  3  2  2  0  0  0  0
  4  1  1  0  0  0  0
  5  4  2  0  0  0  0
  5  6  1  0  0  0  0
  6 10  2  0  0  0  0
  7  6  1  0  0  0  0
  7  9  2  0  0  0  0
  8  7  2  0  0  0  0
 10 11  1  0  0  0  0
 10 14  1  0  0  0  0
 11 15  1  0  0  0  0
 12  4  1  0  0  0  0
 13  5  1  0  0  0  0
 16  3  1  0  0  0  0
M  END
