Coordinates from ORCA-job 4-NO2PhN2+~Cl-_B3LYPG-6-31G_dp-CH-Scan-d09-49-n800
 OpenBabel11261919153D

 16 15  0  0  0  0  0  0  0  0999 V2000
   -1.0391    0.0535   -0.0610 C   0  0  0  0  0  0  0  0  0  0  0  0
   -2.4402    0.1814   -0.0690 N   0  0  0  0  0  0  0  0  0  0  0  0
   -3.5417    0.3689   -0.0835 N   0  0  0  0  0  0  0  0  0  0  0  0
   -0.4091    1.2925   -0.1726 C   0  0  0  0  0  0  0  0  0  0  0  0
    1.0074    1.1107   -0.1600 C   0  0  0  0  0  0  0  0  0  0  0  0
    1.5858   -0.1446   -0.0510 C   0  0  0  0  0  0  0  0  0  0  0  0
    3.0685   -0.2638   -0.0440 N   0  0  0  0  0  0  0  0  0  0  0  0
    3.7247    0.7685   -0.1449 O   0  0  0  0  0  0  0  0  0  0  0  0
    3.5465   -1.3928    0.0635 O   0  0  0  0  0  0  0  0  0  0  0  0
    0.8515   -1.3476    0.0576 C   0  0  0  0  0  0  0  0  0  0  0  0
   -0.5211   -1.2639    0.0543 C   0  0  0  0  0  0  0  0  0  0  0  0
   -3.3119    4.4190   -0.4335 H   0  0  0  0  0  0  0  0  0  0  0  0
    1.6733    1.9656   -0.2369 H   0  0  0  0  0  0  0  0  0  0  0  0
    1.3758   -2.2902    0.1399 H   0  0  0  0  0  0  0  0  0  0  0  0
   -1.1529   -2.1439    0.1346 H   0  0  0  0  0  0  0  0  0  0  0  0
   -4.4708    3.8651   -0.3637 Cl  0  0  0  0  0  0  0  0  0  0  0  0
  1 11  2  0  0  0  0
  2  1  1  0  0  0  0
  3  2  1  0  0  0  0
  4  5  2  0  0  0  0
  4  1  1  0  0  0  0
  5  6  1  0  0  0  0
  6  7  1  0  0  0  0
  6 10  2  0  0  0  0
  7  9  2  0  0  0  0
  8  7  2  0  0  0  0
 10 14  1  0  0  0  0
 11 10  1  0  0  0  0
 11 15  1  0  0  0  0
 12 16  1  0  0  0  0
 13  5  1  0  0  0  0
M  RAD  3   2   2   3   3   4   2
M  END
