Coordinates from ORCA-job 4-NO2PhN2+~Cl-_B3LYPG-6-31G_dp-CH-Scan-d09-49-n800
 OpenBabel11261919153D

 16 16  0  0  0  0  0  0  0  0999 V2000
   -1.3508    0.1819    0.0335 C   0  0  0  0  0  0  0  0  0  0  0  0
   -2.7591    0.1316    0.1231 N   0  0  0  0  0  0  0  0  0  0  0  0
   -3.7168    0.7851   -0.0579 N   0  0  0  0  0  0  0  0  0  0  0  0
   -0.6370    1.3873   -0.0307 C   0  0  0  0  0  0  0  0  0  0  0  0
    0.7519    1.3344   -0.0828 C   0  0  0  0  0  0  0  0  0  0  0  0
    1.3829    0.0919   -0.0761 C   0  0  0  0  0  0  0  0  0  0  0  0
    2.8603    0.0457   -0.1382 N   0  0  0  0  0  0  0  0  0  0  0  0
    3.4562    1.1176   -0.1950 O   0  0  0  0  0  0  0  0  0  0  0  0
    3.3895   -1.0628   -0.1285 O   0  0  0  0  0  0  0  0  0  0  0  0
    0.6817   -1.1110   -0.0074 C   0  0  0  0  0  0  0  0  0  0  0  0
   -0.7044   -1.0624    0.0615 C   0  0  0  0  0  0  0  0  0  0  0  0
   -1.2016    2.3777   -0.0514 H   0  0  0  0  0  0  0  0  0  0  0  0
    1.3491    2.2361   -0.1326 H   0  0  0  0  0  0  0  0  0  0  0  0
    1.2236   -2.0480    0.0004 H   0  0  0  0  0  0  0  0  0  0  0  0
   -1.2960   -1.9682    0.1316 H   0  0  0  0  0  0  0  0  0  0  0  0
   -3.4828    2.7413   -0.8198 Cl  0  0  0  0  0  0  0  0  0  0  0  0
  1 11  1  0  0  0  0
  1  2  1  0  0  0  0
  3  2  2  0  0  0  0
  4  1  2  0  0  0  0
  5  6  2  0  0  0  0
  5  4  1  0  0  0  0
  6 10  1  0  0  0  0
  7  9  2  0  0  0  0
  7  6  1  0  0  0  0
  8  7  2  0  0  0  0
 10 14  1  0  0  0  0
 10 11  2  0  0  0  0
 11 15  1  0  0  0  0
 12  4  1  0  0  0  0
 13  5  1  0  0  0  0
 16  3  1  0  0  0  0
M  END
