Coordinates from ORCA-job 4-NO2PhN2+~Cl-_B3LYPG-6-31G_dp-CH-Scan-d09-49-n800
 OpenBabel11261919153D

 16 15  0  0  0  0  0  0  0  0999 V2000
   -1.2439    0.0443   -0.0548 C   0  0  0  0  0  0  0  0  0  0  0  0
   -2.6433    0.0705   -0.0523 N   0  0  0  0  0  0  0  0  0  0  0  0
   -3.7542    0.1774   -0.0575 N   0  0  0  0  0  0  0  0  0  0  0  0
   -0.6827    1.3199   -0.1680 C   0  0  0  0  0  0  0  0  0  0  0  0
    0.7368    1.2461   -0.1673 C   0  0  0  0  0  0  0  0  0  0  0  0
    1.3995    0.0319   -0.0652 C   0  0  0  0  0  0  0  0  0  0  0  0
    2.8874    0.0167   -0.0705 N   0  0  0  0  0  0  0  0  0  0  0  0
    3.4656    1.0921   -0.1835 O   0  0  0  0  0  0  0  0  0  0  0  0
    3.4405   -1.0774    0.0294 O   0  0  0  0  0  0  0  0  0  0  0  0
    0.7499   -1.2159    0.0460 C   0  0  0  0  0  0  0  0  0  0  0  0
   -0.6261   -1.2285    0.0532 C   0  0  0  0  0  0  0  0  0  0  0  0
   -2.0950    3.0287   -0.3134 H   0  0  0  0  0  0  0  0  0  0  0  0
    1.3363    2.1476   -0.2478 H   0  0  0  0  0  0  0  0  0  0  0  0
    1.3374   -2.1209    0.1224 H   0  0  0  0  0  0  0  0  0  0  0  0
   -1.1930   -2.1508    0.1364 H   0  0  0  0  0  0  0  0  0  0  0  0
   -3.1684    3.7968   -0.3771 Cl  0  0  0  0  0  0  0  0  0  0  0  0
  1  2  1  0  0  0  0
  1 11  2  0  0  0  0
  3  2  1  0  0  0  0
  4  5  2  0  0  0  0
  4  1  1  0  0  0  0
  5  6  1  0  0  0  0
  6 10  2  0  0  0  0
  7  6  1  0  0  0  0
  7  9  2  0  0  0  0
  8  7  2  0  0  0  0
 10 11  1  0  0  0  0
 10 14  1  0  0  0  0
 11 15  1  0  0  0  0
 13  5  1  0  0  0  0
 16 12  1  0  0  0  0
M  RAD  3   2   2   3   3   4   2
M  END
