Coordinates from ORCA-job 4-NO2PhN2+~Cl-_B3LYPG-6-31G_dp-CH-Scan-d09-49-n800
 OpenBabel11261919153D

 16 15  0  0  0  0  0  0  0  0999 V2000
   -1.2170    0.0307   -0.0533 C   0  0  0  0  0  0  0  0  0  0  0  0
   -2.6172    0.0629   -0.0507 N   0  0  0  0  0  0  0  0  0  0  0  0
   -3.7286    0.1690   -0.0559 N   0  0  0  0  0  0  0  0  0  0  0  0
   -0.6549    1.3053   -0.1662 C   0  0  0  0  0  0  0  0  0  0  0  0
    0.7659    1.2230   -0.1655 C   0  0  0  0  0  0  0  0  0  0  0  0
    1.4237    0.0063   -0.0642 C   0  0  0  0  0  0  0  0  0  0  0  0
    2.9115   -0.0157   -0.0698 N   0  0  0  0  0  0  0  0  0  0  0  0
    3.4953    1.0573   -0.1794 O   0  0  0  0  0  0  0  0  0  0  0  0
    3.4604   -1.1116    0.0351 O   0  0  0  0  0  0  0  0  0  0  0  0
    0.7692   -1.2397    0.0470 C   0  0  0  0  0  0  0  0  0  0  0  0
   -0.6064   -1.2464    0.0544 C   0  0  0  0  0  0  0  0  0  0  0  0
   -2.2463    3.2225   -0.3302 H   0  0  0  0  0  0  0  0  0  0  0  0
    1.3709    2.1211   -0.2455 H   0  0  0  0  0  0  0  0  0  0  0  0
    1.3533   -2.1469    0.1230 H   0  0  0  0  0  0  0  0  0  0  0  0
   -1.1775   -2.1662    0.1376 H   0  0  0  0  0  0  0  0  0  0  0  0
   -3.3554    3.9068   -0.3867 Cl  0  0  0  0  0  0  0  0  0  0  0  0
  1  2  1  0  0  0  0
  1 11  2  0  0  0  0
  3  2  1  0  0  0  0
  4  5  2  0  0  0  0
  4  1  1  0  0  0  0
  5  6  1  0  0  0  0
  6 10  2  0  0  0  0
  7  6  1  0  0  0  0
  7  9  2  0  0  0  0
  8  7  2  0  0  0  0
 10 11  1  0  0  0  0
 10 14  1  0  0  0  0
 11 15  1  0  0  0  0
 13  5  1  0  0  0  0
 16 12  1  0  0  0  0
M  RAD  3   2   2   3   3   4   2
M  END
