Coordinates from ORCA-job 4-NO2PhN2+~Cl-_B3LYPG-6-31G_dp-CH-Scan-d09-49-n800
 OpenBabel11261919153D

 16 15  0  0  0  0  0  0  0  0999 V2000
   -1.2311    0.0365   -0.0542 C   0  0  0  0  0  0  0  0  0  0  0  0
   -2.6308    0.0651   -0.0505 N   0  0  0  0  0  0  0  0  0  0  0  0
   -3.7420    0.1707   -0.0545 N   0  0  0  0  0  0  0  0  0  0  0  0
   -0.6702    1.3120   -0.1680 C   0  0  0  0  0  0  0  0  0  0  0  0
    0.7500    1.2343   -0.1683 C   0  0  0  0  0  0  0  0  0  0  0  0
    1.4109    0.0192   -0.0669 C   0  0  0  0  0  0  0  0  0  0  0  0
    2.8988    0.0012   -0.0736 N   0  0  0  0  0  0  0  0  0  0  0  0
    3.4793    1.0765   -0.1769 O   0  0  0  0  0  0  0  0  0  0  0  0
    3.4504   -1.0927    0.0373 O   0  0  0  0  0  0  0  0  0  0  0  0
    0.7595   -1.2279    0.0452 C   0  0  0  0  0  0  0  0  0  0  0  0
   -0.6163   -1.2382    0.0535 C   0  0  0  0  0  0  0  0  0  0  0  0
   -2.1689    3.1244   -0.3215 H   0  0  0  0  0  0  0  0  0  0  0  0
    1.3519    2.1343   -0.2494 H   0  0  0  0  0  0  0  0  0  0  0  0
    1.3458   -2.1338    0.1212 H   0  0  0  0  0  0  0  0  0  0  0  0
   -1.1848   -2.1595    0.1374 H   0  0  0  0  0  0  0  0  0  0  0  0
   -3.2557    3.8564   -0.3811 Cl  0  0  0  0  0  0  0  0  0  0  0  0
  1  2  1  0  0  0  0
  1 11  2  0  0  0  0
  3  2  1  0  0  0  0
  4  1  1  0  0  0  0
  5  4  2  0  0  0  0
  5  6  1  0  0  0  0
  6 10  2  0  0  0  0
  7  6  1  0  0  0  0
  7  9  2  0  0  0  0
  8  7  2  0  0  0  0
 10 11  1  0  0  0  0
 10 14  1  0  0  0  0
 11 15  1  0  0  0  0
 13  5  1  0  0  0  0
 16 12  1  0  0  0  0
M  RAD  3   2   2   3   3   4   2
M  END
