Coordinates from ORCA-job 4-NO2PhN2+~Cl-_B3LYPG-6-31G_dp-CH-Scan-d09-49-n800
 OpenBabel11261919153D

 16 15  0  0  0  0  0  0  0  0999 V2000
   -1.0205    0.0595   -0.0625 C   0  0  0  0  0  0  0  0  0  0  0  0
   -2.4206    0.1990   -0.0713 N   0  0  0  0  0  0  0  0  0  0  0  0
   -3.5206    0.3955   -0.0855 N   0  0  0  0  0  0  0  0  0  0  0  0
   -0.3809    1.2934   -0.1745 C   0  0  0  0  0  0  0  0  0  0  0  0
    1.0342    1.1004   -0.1607 C   0  0  0  0  0  0  0  0  0  0  0  0
    1.6026   -0.1592   -0.0499 C   0  0  0  0  0  0  0  0  0  0  0  0
    3.0842   -0.2901   -0.0411 N   0  0  0  0  0  0  0  0  0  0  0  0
    3.7488    0.7370   -0.1400 O   0  0  0  0  0  0  0  0  0  0  0  0
    3.5533   -1.4231    0.0657 O   0  0  0  0  0  0  0  0  0  0  0  0
    0.8587   -1.3565    0.0588 C   0  0  0  0  0  0  0  0  0  0  0  0
   -0.5132   -1.2619    0.0541 C   0  0  0  0  0  0  0  0  0  0  0  0
   -3.4555    4.5194   -0.4414 H   0  0  0  0  0  0  0  0  0  0  0  0
    1.7069    1.9501   -0.2378 H   0  0  0  0  0  0  0  0  0  0  0  0
    1.3755   -2.3031    0.1422 H   0  0  0  0  0  0  0  0  0  0  0  0
   -1.1520   -2.1368    0.1343 H   0  0  0  0  0  0  0  0  0  0  0  0
   -4.5539    3.8548   -0.3607 Cl  0  0  0  0  0  0  0  0  0  0  0  0
  1 11  2  0  0  0  0
  2  1  1  0  0  0  0
  3  2  1  0  0  0  0
  4  5  2  0  0  0  0
  4  1  1  0  0  0  0
  5  6  1  0  0  0  0
  6  7  1  0  0  0  0
  6 10  2  0  0  0  0
  7  9  2  0  0  0  0
  8  7  2  0  0  0  0
 10 14  1  0  0  0  0
 11 10  1  0  0  0  0
 11 15  1  0  0  0  0
 12 16  1  0  0  0  0
 13  5  1  0  0  0  0
M  RAD  3   2   2   3   3   4   2
M  END
