Coordinates from ORCA-job 4-NO2PhN2+~Cl-_B3LYPG-6-31G_dp-CH-Scan-d09-49-n800
 OpenBabel11261919153D

 16 15  0  0  0  0  0  0  0  0999 V2000
   -1.1390   -0.0015   -0.0381 C   0  0  0  0  0  0  0  0  0  0  0  0
   -2.5413    0.0555   -0.0331 N   0  0  0  0  0  0  0  0  0  0  0  0
   -3.6515    0.1816   -0.0350 N   0  0  0  0  0  0  0  0  0  0  0  0
   -0.5673    1.2684   -0.1378 C   0  0  0  0  0  0  0  0  0  0  0  0
    0.8551    1.1584   -0.1407 C   0  0  0  0  0  0  0  0  0  0  0  0
    1.4950   -0.0686   -0.0558 C   0  0  0  0  0  0  0  0  0  0  0  0
    2.9820   -0.1142   -0.0657 N   0  0  0  0  0  0  0  0  0  0  0  0
    3.5841    0.9498   -0.1685 O   0  0  0  0  0  0  0  0  0  0  0  0
    3.5152   -1.2195    0.0260 O   0  0  0  0  0  0  0  0  0  0  0  0
    0.8221   -1.3072    0.0430 C   0  0  0  0  0  0  0  0  0  0  0  0
   -0.5529   -1.2920    0.0540 C   0  0  0  0  0  0  0  0  0  0  0  0
   -2.6705    3.8085   -0.3978 H   0  0  0  0  0  0  0  0  0  0  0  0
    1.4767    2.0465   -0.2110 H   0  0  0  0  0  0  0  0  0  0  0  0
    1.3930   -2.2238    0.1071 H   0  0  0  0  0  0  0  0  0  0  0  0
   -1.1393   -2.2032    0.1283 H   0  0  0  0  0  0  0  0  0  0  0  0
   -3.9146    4.1399   -0.4453 Cl  0  0  0  0  0  0  0  0  0  0  0  0
  1  2  1  0  0  0  0
  1 11  2  0  0  0  0
  3  2  1  0  0  0  0
  4  1  1  0  0  0  0
  5  4  2  0  0  0  0
  5  6  1  0  0  0  0
  6 10  2  0  0  0  0
  7  6  1  0  0  0  0
  7  9  2  0  0  0  0
  8  7  2  0  0  0  0
 10 11  1  0  0  0  0
 10 14  1  0  0  0  0
 11 15  1  0  0  0  0
 13  5  1  0  0  0  0
 16 12  1  0  0  0  0
M  RAD  3   2   2   3   3   4   2
M  END
