Coordinates from ORCA-job 4-NO2PhN2+~Cl-_B3LYPG-6-31G_dp-CH-Scan-d09-49-n800
 OpenBabel11261919153D

 16 15  0  0  0  0  0  0  0  0999 V2000
   -1.1749   -0.0063   -0.0485 C   0  0  0  0  0  0  0  0  0  0  0  0
   -2.5763    0.0305   -0.0458 N   0  0  0  0  0  0  0  0  0  0  0  0
   -3.6881    0.1381   -0.0497 N   0  0  0  0  0  0  0  0  0  0  0  0
   -0.6164    1.2695   -0.1595 C   0  0  0  0  0  0  0  0  0  0  0  0
    0.8063    1.1799   -0.1590 C   0  0  0  0  0  0  0  0  0  0  0  0
    1.4619   -0.0379   -0.0604 C   0  0  0  0  0  0  0  0  0  0  0  0
    2.9496   -0.0636   -0.0669 N   0  0  0  0  0  0  0  0  0  0  0  0
    3.5370    1.0078   -0.1758 O   0  0  0  0  0  0  0  0  0  0  0  0
    3.4967   -1.1607    0.0383 O   0  0  0  0  0  0  0  0  0  0  0  0
    0.8051   -1.2838    0.0491 C   0  0  0  0  0  0  0  0  0  0  0  0
   -0.5701   -1.2870    0.0572 C   0  0  0  0  0  0  0  0  0  0  0  0
   -2.4916    3.5736   -0.3622 H   0  0  0  0  0  0  0  0  0  0  0  0
    1.4153    2.0758   -0.2372 H   0  0  0  0  0  0  0  0  0  0  0  0
    1.3878   -2.1921    0.1234 H   0  0  0  0  0  0  0  0  0  0  0  0
   -1.1440   -2.2054    0.1393 H   0  0  0  0  0  0  0  0  0  0  0  0
   -3.6513    4.1402   -0.4124 Cl  0  0  0  0  0  0  0  0  0  0  0  0
  1  2  1  0  0  0  0
  1 11  2  0  0  0  0
  3  2  1  0  0  0  0
  4  5  2  0  0  0  0
  4  1  1  0  0  0  0
  5  6  1  0  0  0  0
  6 10  2  0  0  0  0
  7  6  1  0  0  0  0
  7  9  2  0  0  0  0
  8  7  2  0  0  0  0
 10 11  1  0  0  0  0
 10 14  1  0  0  0  0
 11 15  1  0  0  0  0
 13  5  1  0  0  0  0
 16 12  1  0  0  0  0
M  RAD  3   2   2   3   3   4   2
M  END
