Coordinates from ORCA-job 4-NO2PhN2+~Cl-_B3LYPG-6-31G_dp-CH-Scan-d09-49-n800
 OpenBabel11261919153D

 16 15  0  0  0  0  0  0  0  0999 V2000
   -1.0103    0.0629   -0.0684 C   0  0  0  0  0  0  0  0  0  0  0  0
   -2.4098    0.2086   -0.0800 N   0  0  0  0  0  0  0  0  0  0  0  0
   -3.5088    0.4100   -0.0968 N   0  0  0  0  0  0  0  0  0  0  0  0
   -0.3653    1.2935   -0.1847 C   0  0  0  0  0  0  0  0  0  0  0  0
    1.0490    1.0944   -0.1677 C   0  0  0  0  0  0  0  0  0  0  0  0
    1.6116   -0.1672   -0.0499 C   0  0  0  0  0  0  0  0  0  0  0  0
    3.0927   -0.3045   -0.0375 N   0  0  0  0  0  0  0  0  0  0  0  0
    3.7619    0.7195   -0.1360 O   0  0  0  0  0  0  0  0  0  0  0  0
    3.5566   -1.4390    0.0750 O   0  0  0  0  0  0  0  0  0  0  0  0
    0.8623   -1.3607    0.0627 C   0  0  0  0  0  0  0  0  0  0  0  0
   -0.5091   -1.2603    0.0550 C   0  0  0  0  0  0  0  0  0  0  0  0
   -3.5369    4.5735   -0.4369 H   0  0  0  0  0  0  0  0  0  0  0  0
    1.7254    1.9407   -0.2478 H   0  0  0  0  0  0  0  0  0  0  0  0
    1.3749   -2.3092    0.1514 H   0  0  0  0  0  0  0  0  0  0  0  0
   -1.1518   -2.1321    0.1378 H   0  0  0  0  0  0  0  0  0  0  0  0
   -4.5956    3.8484   -0.3464 Cl  0  0  0  0  0  0  0  0  0  0  0  0
  1 11  2  0  0  0  0
  2  1  1  0  0  0  0
  3  2  1  0  0  0  0
  4  5  2  0  0  0  0
  4  1  1  0  0  0  0
  5  6  1  0  0  0  0
  6  7  1  0  0  0  0
  6 10  2  0  0  0  0
  7  9  2  0  0  0  0
  8  7  2  0  0  0  0
 10 14  1  0  0  0  0
 11 10  1  0  0  0  0
 11 15  1  0  0  0  0
 12 16  1  0  0  0  0
 13  5  1  0  0  0  0
M  RAD  3   2   2   3   3   4   2
M  END
