Coordinates from ORCA-job 4-NO2PhN2+~Cl-_B3LYPG-6-31G_dp-CH-Scan-d09-49-n800
 OpenBabel11261919153D

 16 15  0  0  0  0  0  0  0  0999 V2000
   -1.1437   -0.0018   -0.0412 C   0  0  0  0  0  0  0  0  0  0  0  0
   -2.5460    0.0521   -0.0369 N   0  0  0  0  0  0  0  0  0  0  0  0
   -3.6564    0.1750   -0.0392 N   0  0  0  0  0  0  0  0  0  0  0  0
   -0.5736    1.2686   -0.1444 C   0  0  0  0  0  0  0  0  0  0  0  0
    0.8488    1.1611   -0.1463 C   0  0  0  0  0  0  0  0  0  0  0  0
    1.4907   -0.0646   -0.0575 C   0  0  0  0  0  0  0  0  0  0  0  0
    2.9778   -0.1078   -0.0666 N   0  0  0  0  0  0  0  0  0  0  0  0
    3.5781    0.9573   -0.1686 O   0  0  0  0  0  0  0  0  0  0  0  0
    3.5127   -1.2116    0.0319 O   0  0  0  0  0  0  0  0  0  0  0  0
    0.8197   -1.3040    0.0446 C   0  0  0  0  0  0  0  0  0  0  0  0
   -0.5553   -1.2910    0.0548 C   0  0  0  0  0  0  0  0  0  0  0  0
   -2.6454    3.7779   -0.3853 H   0  0  0  0  0  0  0  0  0  0  0  0
    1.4688    2.0500   -0.2190 H   0  0  0  0  0  0  0  0  0  0  0  0
    1.3920   -2.2195    0.1117 H   0  0  0  0  0  0  0  0  0  0  0  0
   -1.1402   -2.2030    0.1315 H   0  0  0  0  0  0  0  0  0  0  0  0
   -3.8811    4.1397   -0.4399 Cl  0  0  0  0  0  0  0  0  0  0  0  0
  1  2  1  0  0  0  0
  1 11  2  0  0  0  0
  3  2  1  0  0  0  0
  4  1  1  0  0  0  0
  5  4  2  0  0  0  0
  5  6  1  0  0  0  0
  6 10  2  0  0  0  0
  7  6  1  0  0  0  0
  7  9  2  0  0  0  0
  8  7  2  0  0  0  0
 10 11  1  0  0  0  0
 10 14  1  0  0  0  0
 11 15  1  0  0  0  0
 13  5  1  0  0  0  0
 16 12  1  0  0  0  0
M  RAD  3   2   2   3   3   4   2
M  END
