Coordinates from ORCA-job 4-NO2PhN2+~Cl-_B3LYPG-6-31G_dp-CH-Scan-d09-49-n800
 OpenBabel11261919153D

 16 15  0  0  0  0  0  0  0  0999 V2000
   -1.0790    0.0499   -0.0531 C   0  0  0  0  0  0  0  0  0  0  0  0
   -2.4813    0.1562   -0.0566 N   0  0  0  0  0  0  0  0  0  0  0  0
   -3.5857    0.3263   -0.0637 N   0  0  0  0  0  0  0  0  0  0  0  0
   -0.4657    1.2984   -0.1587 C   0  0  0  0  0  0  0  0  0  0  0  0
    0.9529    1.1364   -0.1516 C   0  0  0  0  0  0  0  0  0  0  0  0
    1.5491   -0.1114   -0.0528 C   0  0  0  0  0  0  0  0  0  0  0  0
    3.0333   -0.2098   -0.0516 N   0  0  0  0  0  0  0  0  0  0  0  0
    3.6744    0.8317   -0.1537 O   0  0  0  0  0  0  0  0  0  0  0  0
    3.5272   -1.3328    0.0475 O   0  0  0  0  0  0  0  0  0  0  0  0
    0.8321   -1.3252    0.0506 C   0  0  0  0  0  0  0  0  0  0  0  0
   -0.5415   -1.2606    0.0523 C   0  0  0  0  0  0  0  0  0  0  0  0
   -3.0190    4.1727   -0.4224 H   0  0  0  0  0  0  0  0  0  0  0  0
    1.6067    2.0010   -0.2248 H   0  0  0  0  0  0  0  0  0  0  0  0
    1.3698   -2.2608    0.1253 H   0  0  0  0  0  0  0  0  0  0  0  0
   -1.1606   -2.1497    0.1292 H   0  0  0  0  0  0  0  0  0  0  0  0
   -4.2657    3.8562   -0.3861 Cl  0  0  0  0  0  0  0  0  0  0  0  0
  1 11  2  0  0  0  0
  2  1  1  0  0  0  0
  3  2  1  0  0  0  0
  4  5  2  0  0  0  0
  4  1  1  0  0  0  0
  5  6  1  0  0  0  0
  6  7  1  0  0  0  0
  6 10  2  0  0  0  0
  7  9  2  0  0  0  0
  8  7  2  0  0  0  0
 10 11  1  0  0  0  0
 10 14  1  0  0  0  0
 11 15  1  0  0  0  0
 12 16  1  0  0  0  0
 13  5  1  0  0  0  0
M  RAD  3   2   2   3   3   4   2
M  END
