Coordinates from ORCA-job 4-NO2PhN2+~Cl-_B3LYPG-6-31G_dp-CH-Scan-d09-49-n800
 OpenBabel11261919153D

 16 15  0  0  0  0  0  0  0  0999 V2000
   -1.2826    0.0725   -0.0579 C   0  0  0  0  0  0  0  0  0  0  0  0
   -2.6825    0.1030   -0.0551 N   0  0  0  0  0  0  0  0  0  0  0  0
   -3.7871    0.2557   -0.0638 N   0  0  0  0  0  0  0  0  0  0  0  0
   -0.7127    1.3434   -0.1718 C   0  0  0  0  0  0  0  0  0  0  0  0
    0.7016    1.2843   -0.1727 C   0  0  0  0  0  0  0  0  0  0  0  0
    1.3669    0.0703   -0.0697 C   0  0  0  0  0  0  0  0  0  0  0  0
    2.8549    0.0602   -0.0758 N   0  0  0  0  0  0  0  0  0  0  0  0
    3.4274    1.1387   -0.1836 O   0  0  0  0  0  0  0  0  0  0  0  0
    3.4104   -1.0318    0.0281 O   0  0  0  0  0  0  0  0  0  0  0  0
    0.7196   -1.1763    0.0424 C   0  0  0  0  0  0  0  0  0  0  0  0
   -0.6578   -1.1936    0.0502 C   0  0  0  0  0  0  0  0  0  0  0  0
   -1.8463    2.6995   -0.2850 H   0  0  0  0  0  0  0  0  0  0  0  0
    1.2934    2.1903   -0.2547 H   0  0  0  0  0  0  0  0  0  0  0  0
    1.3088   -2.0804    0.1193 H   0  0  0  0  0  0  0  0  0  0  0  0
   -1.2213   -2.1175    0.1341 H   0  0  0  0  0  0  0  0  0  0  0  0
   -2.9459    3.5602   -0.3545 Cl  0  0  0  0  0  0  0  0  0  0  0  0
  1  2  1  0  0  0  0
  1 11  2  0  0  0  0
  3  2  1  0  0  0  0
  4  1  1  0  0  0  0
  5  4  2  0  0  0  0
  5  6  1  0  0  0  0
  6 10  2  0  0  0  0
  7  6  1  0  0  0  0
  7  9  2  0  0  0  0
  8  7  2  0  0  0  0
 10 11  1  0  0  0  0
 10 14  1  0  0  0  0
 11 15  1  0  0  0  0
 13  5  1  0  0  0  0
 16 12  1  0  0  0  0
M  RAD  3   2   2   3   3   4   2
M  END
