Coordinates from ORCA-job 4-NO2PhN2+~Cl-_B3LYPG-6-31G_dp-CH-Scan-d09-49-n800
 OpenBabel11261919153D

 16 15  0  0  0  0  0  0  0  0999 V2000
   -1.1963    0.0144   -0.0515 C   0  0  0  0  0  0  0  0  0  0  0  0
   -2.5969    0.0493   -0.0490 N   0  0  0  0  0  0  0  0  0  0  0  0
   -3.7086    0.1557   -0.0532 N   0  0  0  0  0  0  0  0  0  0  0  0
   -0.6354    1.2895   -0.1638 C   0  0  0  0  0  0  0  0  0  0  0  0
    0.7863    1.2025   -0.1628 C   0  0  0  0  0  0  0  0  0  0  0  0
    1.4424   -0.0150   -0.0625 C   0  0  0  0  0  0  0  0  0  0  0  0
    2.9302   -0.0395   -0.0682 N   0  0  0  0  0  0  0  0  0  0  0  0
    3.5163    1.0324   -0.1776 O   0  0  0  0  0  0  0  0  0  0  0  0
    3.4777   -1.1362    0.0373 O   0  0  0  0  0  0  0  0  0  0  0  0
    0.7861   -1.2606    0.0481 C   0  0  0  0  0  0  0  0  0  0  0  0
   -0.5892   -1.2648    0.0556 C   0  0  0  0  0  0  0  0  0  0  0  0
   -2.3655    3.3899   -0.3452 H   0  0  0  0  0  0  0  0  0  0  0  0
    1.3939    2.0991   -0.2422 H   0  0  0  0  0  0  0  0  0  0  0  0
    1.3691   -2.1686    0.1236 H   0  0  0  0  0  0  0  0  0  0  0  0
   -1.1622   -2.1836    0.1384 H   0  0  0  0  0  0  0  0  0  0  0  0
   -3.5010    4.0139   -0.3975 Cl  0  0  0  0  0  0  0  0  0  0  0  0
  1  2  1  0  0  0  0
  1 11  2  0  0  0  0
  3  2  1  0  0  0  0
  4  5  2  0  0  0  0
  4  1  1  0  0  0  0
  5  6  1  0  0  0  0
  6 10  2  0  0  0  0
  7  6  1  0  0  0  0
  7  9  2  0  0  0  0
  8  7  2  0  0  0  0
 10 11  1  0  0  0  0
 10 14  1  0  0  0  0
 11 15  1  0  0  0  0
 13  5  1  0  0  0  0
 16 12  1  0  0  0  0
M  RAD  3   2   2   3   3   4   2
M  END
