Coordinates from ORCA-job 4-NO2PhN2+~Cl-_B3LYPG-6-31G_dp-CH-Scan-d09-49-n800
 OpenBabel11261919153D

 16 15  0  0  0  0  0  0  0  0999 V2000
   -1.3301    0.1325   -0.0628 C   0  0  0  0  0  0  0  0  0  0  0  0
   -2.7421    0.1125   -0.0551 N   0  0  0  0  0  0  0  0  0  0  0  0
   -3.6983    0.7702   -0.1085 N   0  0  0  0  0  0  0  0  0  0  0  0
   -0.6379    1.3407   -0.1715 C   0  0  0  0  0  0  0  0  0  0  0  0
    0.7511    1.3127   -0.1756 C   0  0  0  0  0  0  0  0  0  0  0  0
    1.3908    0.0775   -0.0706 C   0  0  0  0  0  0  0  0  0  0  0  0
    2.8722    0.0440   -0.0744 N   0  0  0  0  0  0  0  0  0  0  0  0
    3.4594    1.1167   -0.1788 O   0  0  0  0  0  0  0  0  0  0  0  0
    3.4106   -1.0552    0.0272 O   0  0  0  0  0  0  0  0  0  0  0  0
    0.7039   -1.1331    0.0388 C   0  0  0  0  0  0  0  0  0  0  0  0
   -0.6843   -1.1079    0.0429 C   0  0  0  0  0  0  0  0  0  0  0  0
   -1.4189    2.4631   -0.2659 H   0  0  0  0  0  0  0  0  0  0  0  0
    1.3420    2.2163   -0.2578 H   0  0  0  0  0  0  0  0  0  0  0  0
    1.2606   -2.0579    0.1178 H   0  0  0  0  0  0  0  0  0  0  0  0
   -1.2665   -2.0189    0.1257 H   0  0  0  0  0  0  0  0  0  0  0  0
   -3.4655    2.9651   -0.3018 Cl  0  0  0  0  0  0  0  0  0  0  0  0
  1  2  1  0  0  0  0
  1 11  2  0  0  0  0
  3  2  2  0  0  0  0
  4  1  1  0  0  0  0
  5  4  2  0  0  0  0
  5  6  1  0  0  0  0
  6 10  2  0  0  0  0
  7  6  1  0  0  0  0
  7  9  2  0  0  0  0
  8  7  2  0  0  0  0
 10 11  1  0  0  0  0
 10 14  1  0  0  0  0
 11 15  1  0  0  0  0
 12  4  1  0  0  0  0
 13  5  1  0  0  0  0
M  RAD  2   3   2  16   2
M  END
