Coordinates from ORCA-job 4-NO2PhN2+~Cl-_B3LYPG-6-31G_dp-CH-Scan-d09-49-n800
 OpenBabel11261919153D

 16 15  0  0  0  0  0  0  0  0999 V2000
   -1.2601    0.0550   -0.0559 C   0  0  0  0  0  0  0  0  0  0  0  0
   -2.6593    0.0791   -0.0525 N   0  0  0  0  0  0  0  0  0  0  0  0
   -3.7695    0.1905   -0.0576 N   0  0  0  0  0  0  0  0  0  0  0  0
   -0.6975    1.3300   -0.1696 C   0  0  0  0  0  0  0  0  0  0  0  0
    0.7206    1.2611   -0.1698 C   0  0  0  0  0  0  0  0  0  0  0  0
    1.3852    0.0476   -0.0677 C   0  0  0  0  0  0  0  0  0  0  0  0
    2.8732    0.0352   -0.0739 N   0  0  0  0  0  0  0  0  0  0  0  0
    3.4488    1.1124   -0.1819 O   0  0  0  0  0  0  0  0  0  0  0  0
    3.4279   -1.0575    0.0301 O   0  0  0  0  0  0  0  0  0  0  0  0
    0.7374   -1.2004    0.0441 C   0  0  0  0  0  0  0  0  0  0  0  0
   -0.6388   -1.2155    0.0520 C   0  0  0  0  0  0  0  0  0  0  0  0
   -1.9978    2.9046   -0.3027 H   0  0  0  0  0  0  0  0  0  0  0  0
    1.3172    2.1643   -0.2511 H   0  0  0  0  0  0  0  0  0  0  0  0
    1.3262   -2.1047    0.1204 H   0  0  0  0  0  0  0  0  0  0  0  0
   -1.2039   -2.1387    0.1356 H   0  0  0  0  0  0  0  0  0  0  0  0
   -3.0625    3.7155   -0.3697 Cl  0  0  0  0  0  0  0  0  0  0  0  0
  1  2  1  0  0  0  0
  1 11  2  0  0  0  0
  3  2  1  0  0  0  0
  4  1  1  0  0  0  0
  5  4  2  0  0  0  0
  5  6  1  0  0  0  0
  6 10  2  0  0  0  0
  7  6  1  0  0  0  0
  7  9  2  0  0  0  0
  8  7  2  0  0  0  0
 10 11  1  0  0  0  0
 10 14  1  0  0  0  0
 11 15  1  0  0  0  0
 13  5  1  0  0  0  0
 16 12  1  0  0  0  0
M  RAD  3   2   2   3   3   4   2
M  END
