Coordinates from ORCA-job 4-NO2PhN2+~Cl-_B3LYPG-6-31G_dp-CH-Scan-d09-49-n800
 OpenBabel11261919153D

 16 15  0  0  0  0  0  0  0  0999 V2000
   -1.0229    0.0584   -0.0647 C   0  0  0  0  0  0  0  0  0  0  0  0
   -2.4232    0.1962   -0.0746 N   0  0  0  0  0  0  0  0  0  0  0  0
   -3.5234    0.3914   -0.0899 N   0  0  0  0  0  0  0  0  0  0  0  0
   -0.3847    1.2929   -0.1785 C   0  0  0  0  0  0  0  0  0  0  0  0
    1.0306    1.1015   -0.1636 C   0  0  0  0  0  0  0  0  0  0  0  0
    1.6004   -0.1573   -0.0502 C   0  0  0  0  0  0  0  0  0  0  0  0
    3.0822   -0.2865   -0.0402 N   0  0  0  0  0  0  0  0  0  0  0  0
    3.7456    0.7412   -0.1404 O   0  0  0  0  0  0  0  0  0  0  0  0
    3.5524   -1.4187    0.0688 O   0  0  0  0  0  0  0  0  0  0  0  0
    0.8578   -1.3552    0.0603 C   0  0  0  0  0  0  0  0  0  0  0  0
   -0.5142   -1.2622    0.0546 C   0  0  0  0  0  0  0  0  0  0  0  0
   -3.4362    4.5069   -0.4369 H   0  0  0  0  0  0  0  0  0  0  0  0
    1.7024    1.9518   -0.2419 H   0  0  0  0  0  0  0  0  0  0  0  0
    1.3756   -2.3010    0.1457 H   0  0  0  0  0  0  0  0  0  0  0  0
   -1.1521   -2.1377    0.1360 H   0  0  0  0  0  0  0  0  0  0  0  0
   -4.5432    3.8568   -0.3547 Cl  0  0  0  0  0  0  0  0  0  0  0  0
  1 11  2  0  0  0  0
  2  1  1  0  0  0  0
  3  2  1  0  0  0  0
  4  5  2  0  0  0  0
  4  1  1  0  0  0  0
  5  6  1  0  0  0  0
  6  7  1  0  0  0  0
  6 10  2  0  0  0  0
  7  9  2  0  0  0  0
  8  7  2  0  0  0  0
 10 14  1  0  0  0  0
 11 10  1  0  0  0  0
 11 15  1  0  0  0  0
 12 16  1  0  0  0  0
 13  5  1  0  0  0  0
M  RAD  3   2   2   3   3   4   2
M  END
