Coordinates from ORCA-job 4-NO2PhN2+~Cl-_B3LYPG-6-31G_dp-CH-Scan-d09-49-n800
 OpenBabel11261919153D

 16 15  0  0  0  0  0  0  0  0999 V2000
   -1.2386    0.0412   -0.0546 C   0  0  0  0  0  0  0  0  0  0  0  0
   -2.6381    0.0684   -0.0516 N   0  0  0  0  0  0  0  0  0  0  0  0
   -3.7492    0.1747   -0.0562 N   0  0  0  0  0  0  0  0  0  0  0  0
   -0.6776    1.3168   -0.1681 C   0  0  0  0  0  0  0  0  0  0  0  0
    0.7422    1.2413   -0.1678 C   0  0  0  0  0  0  0  0  0  0  0  0
    1.4041    0.0267   -0.0660 C   0  0  0  0  0  0  0  0  0  0  0  0
    2.8920    0.0103   -0.0720 N   0  0  0  0  0  0  0  0  0  0  0  0
    3.4712    1.0857   -0.1806 O   0  0  0  0  0  0  0  0  0  0  0  0
    3.4446   -1.0836    0.0329 O   0  0  0  0  0  0  0  0  0  0  0  0
    0.7537   -1.2208    0.0456 C   0  0  0  0  0  0  0  0  0  0  0  0
   -0.6221   -1.2324    0.0533 C   0  0  0  0  0  0  0  0  0  0  0  0
   -2.1253    3.0676   -0.3167 H   0  0  0  0  0  0  0  0  0  0  0  0
    1.3428    2.1421   -0.2486 H   0  0  0  0  0  0  0  0  0  0  0  0
    1.3408   -2.1262    0.1218 H   0  0  0  0  0  0  0  0  0  0  0  0
   -1.1897   -2.1542    0.1368 H   0  0  0  0  0  0  0  0  0  0  0  0
   -3.2040    3.8207   -0.3787 Cl  0  0  0  0  0  0  0  0  0  0  0  0
  1  2  1  0  0  0  0
  1 11  2  0  0  0  0
  3  2  1  0  0  0  0
  4  5  2  0  0  0  0
  4  1  1  0  0  0  0
  5  6  1  0  0  0  0
  6 10  2  0  0  0  0
  7  6  1  0  0  0  0
  7  9  2  0  0  0  0
  8  7  2  0  0  0  0
 10 11  1  0  0  0  0
 10 14  1  0  0  0  0
 11 15  1  0  0  0  0
 13  5  1  0  0  0  0
 16 12  1  0  0  0  0
M  RAD  3   2   2   3   3   4   2
M  END
