Coordinates from ORCA-job 4-NO2PhN2+~Cl-_B3LYPG-6-31G_dp-CH-Scan-d09-49-n800
 OpenBabel11261919153D

 16 15  0  0  0  0  0  0  0  0999 V2000
   -1.2660    0.0590   -0.0563 C   0  0  0  0  0  0  0  0  0  0  0  0
   -2.6652    0.0830   -0.0529 N   0  0  0  0  0  0  0  0  0  0  0  0
   -3.7748    0.1980   -0.0582 N   0  0  0  0  0  0  0  0  0  0  0  0
   -0.7023    1.3335   -0.1700 C   0  0  0  0  0  0  0  0  0  0  0  0
    0.7151    1.2667   -0.1704 C   0  0  0  0  0  0  0  0  0  0  0  0
    1.3802    0.0533   -0.0682 C   0  0  0  0  0  0  0  0  0  0  0  0
    2.8682    0.0418   -0.0745 N   0  0  0  0  0  0  0  0  0  0  0  0
    3.4429    1.1194   -0.1823 O   0  0  0  0  0  0  0  0  0  0  0  0
    3.4234   -1.0507    0.0294 O   0  0  0  0  0  0  0  0  0  0  0  0
    0.7329   -1.1946    0.0437 C   0  0  0  0  0  0  0  0  0  0  0  0
   -0.6435   -1.2105    0.0516 C   0  0  0  0  0  0  0  0  0  0  0  0
   -1.9615    2.8578   -0.2987 H   0  0  0  0  0  0  0  0  0  0  0  0
    1.3105    2.1706   -0.2519 H   0  0  0  0  0  0  0  0  0  0  0  0
    1.3220   -2.0987    0.1200 H   0  0  0  0  0  0  0  0  0  0  0  0
   -1.2080   -2.1340    0.1352 H   0  0  0  0  0  0  0  0  0  0  0  0
   -3.0269    3.6840   -0.3668 Cl  0  0  0  0  0  0  0  0  0  0  0  0
  1  2  1  0  0  0  0
  1 11  2  0  0  0  0
  3  2  1  0  0  0  0
  4  1  1  0  0  0  0
  5  4  2  0  0  0  0
  5  6  1  0  0  0  0
  6 10  2  0  0  0  0
  7  6  1  0  0  0  0
  7  9  2  0  0  0  0
  8  7  2  0  0  0  0
 10 11  1  0  0  0  0
 10 14  1  0  0  0  0
 11 15  1  0  0  0  0
 13  5  1  0  0  0  0
 16 12  1  0  0  0  0
M  RAD  3   2   2   3   3   4   2
M  END
