Coordinates from ORCA-job 4-NO2PhN2+~Cl-_B3LYPG-6-31G_dp-CH-Scan-d09-49-n800
 OpenBabel11261919153D

 16 15  0  0  0  0  0  0  0  0999 V2000
   -1.2233    0.0323   -0.0537 C   0  0  0  0  0  0  0  0  0  0  0  0
   -2.6232    0.0622   -0.0509 N   0  0  0  0  0  0  0  0  0  0  0  0
   -3.7347    0.1675   -0.0554 N   0  0  0  0  0  0  0  0  0  0  0  0
   -0.6623    1.3076   -0.1669 C   0  0  0  0  0  0  0  0  0  0  0  0
    0.7583    1.2277   -0.1663 C   0  0  0  0  0  0  0  0  0  0  0  0
    1.4178    0.0119   -0.0648 C   0  0  0  0  0  0  0  0  0  0  0  0
    2.9057   -0.0077   -0.0706 N   0  0  0  0  0  0  0  0  0  0  0  0
    3.4877    1.0662   -0.1796 O   0  0  0  0  0  0  0  0  0  0  0  0
    3.4562   -1.1028    0.0349 O   0  0  0  0  0  0  0  0  0  0  0  0
    0.7651   -1.2348    0.0466 C   0  0  0  0  0  0  0  0  0  0  0  0
   -0.6105   -1.2436    0.0541 C   0  0  0  0  0  0  0  0  0  0  0  0
   -2.2124    3.1813   -0.3266 H   0  0  0  0  0  0  0  0  0  0  0  0
    1.3617    2.1268   -0.2466 H   0  0  0  0  0  0  0  0  0  0  0  0
    1.3506   -2.1413    0.1227 H   0  0  0  0  0  0  0  0  0  0  0  0
   -1.1801   -2.1643    0.1375 H   0  0  0  0  0  0  0  0  0  0  0  0
   -3.3095    3.8895   -0.3848 Cl  0  0  0  0  0  0  0  0  0  0  0  0
  1  2  1  0  0  0  0
  1 11  2  0  0  0  0
  3  2  1  0  0  0  0
  4  5  2  0  0  0  0
  4  1  1  0  0  0  0
  5  6  1  0  0  0  0
  6 10  2  0  0  0  0
  7  6  1  0  0  0  0
  7  9  2  0  0  0  0
  8  7  2  0  0  0  0
 10 11  1  0  0  0  0
 10 14  1  0  0  0  0
 11 15  1  0  0  0  0
 13  5  1  0  0  0  0
 16 12  1  0  0  0  0
M  RAD  3   2   2   3   3   4   2
M  END
