Coordinates from ORCA-job 4-NO2PhN2+~Cl-_B3LYPG-6-31G_dp-CH-Scan-d09-49-n800
 OpenBabel11261919153D

 16 15  0  0  0  0  0  0  0  0999 V2000
   -1.2742    0.0651   -0.0570 C   0  0  0  0  0  0  0  0  0  0  0  0
   -2.6734    0.0902   -0.0540 N   0  0  0  0  0  0  0  0  0  0  0  0
   -3.7818    0.2146   -0.0605 N   0  0  0  0  0  0  0  0  0  0  0  0
   -0.7082    1.3384   -0.1706 C   0  0  0  0  0  0  0  0  0  0  0  0
    0.7080    1.2748   -0.1709 C   0  0  0  0  0  0  0  0  0  0  0  0
    1.3735    0.0615   -0.0682 C   0  0  0  0  0  0  0  0  0  0  0  0
    2.8615    0.0509   -0.0740 N   0  0  0  0  0  0  0  0  0  0  0  0
    3.4350    1.1288   -0.1844 O   0  0  0  0  0  0  0  0  0  0  0  0
    3.4170   -1.0415    0.0271 O   0  0  0  0  0  0  0  0  0  0  0  0
    0.7265   -1.1861    0.0435 C   0  0  0  0  0  0  0  0  0  0  0  0
   -0.6503   -1.2029    0.0511 C   0  0  0  0  0  0  0  0  0  0  0  0
   -1.9088    2.7881   -0.2927 H   0  0  0  0  0  0  0  0  0  0  0  0
    1.3017    2.1798   -0.2524 H   0  0  0  0  0  0  0  0  0  0  0  0
    1.3159   -2.0901    0.1201 H   0  0  0  0  0  0  0  0  0  0  0  0
   -1.2141   -2.1268    0.1347 H   0  0  0  0  0  0  0  0  0  0  0  0
   -2.9815    3.6337   -0.3621 Cl  0  0  0  0  0  0  0  0  0  0  0  0
  1  2  1  0  0  0  0
  1 11  2  0  0  0  0
  3  2  1  0  0  0  0
  4  1  1  0  0  0  0
  5  4  2  0  0  0  0
  5  6  1  0  0  0  0
  6 10  2  0  0  0  0
  7  6  1  0  0  0  0
  7  9  2  0  0  0  0
  8  7  2  0  0  0  0
 10 11  1  0  0  0  0
 10 14  1  0  0  0  0
 11 15  1  0  0  0  0
 13  5  1  0  0  0  0
 16 12  1  0  0  0  0
M  RAD  3   2   2   3   3   4   2
M  END
