Coordinates from ORCA-job 4-NO2PhN2+~Cl-_B3LYPG-6-31G_dp-CH-Scan-d09-49-n800
 OpenBabel11261919153D

 16 15  0  0  0  0  0  0  0  0999 V2000
   -1.0082    0.0640   -0.0696 C   0  0  0  0  0  0  0  0  0  0  0  0
   -2.4076    0.2110   -0.0818 N   0  0  0  0  0  0  0  0  0  0  0  0
   -3.5065    0.4132   -0.0993 N   0  0  0  0  0  0  0  0  0  0  0  0
   -0.3619    1.2938   -0.1866 C   0  0  0  0  0  0  0  0  0  0  0  0
    1.0522    1.0933   -0.1687 C   0  0  0  0  0  0  0  0  0  0  0  0
    1.6135   -0.1687   -0.0494 C   0  0  0  0  0  0  0  0  0  0  0  0
    3.0945   -0.3076   -0.0361 N   0  0  0  0  0  0  0  0  0  0  0  0
    3.7648    0.7156   -0.1362 O   0  0  0  0  0  0  0  0  0  0  0  0
    3.5572   -1.4426    0.0758 O   0  0  0  0  0  0  0  0  0  0  0  0
    0.8629   -1.3614    0.0638 C   0  0  0  0  0  0  0  0  0  0  0  0
   -0.5084   -1.2596    0.0552 C   0  0  0  0  0  0  0  0  0  0  0  0
   -3.5533    4.5828   -0.4355 H   0  0  0  0  0  0  0  0  0  0  0  0
    1.7295    1.9389   -0.2492 H   0  0  0  0  0  0  0  0  0  0  0  0
    1.3744   -2.3103    0.1535 H   0  0  0  0  0  0  0  0  0  0  0  0
   -1.1520   -2.1306    0.1383 H   0  0  0  0  0  0  0  0  0  0  0  0
   -4.6043    3.8467   -0.3443 Cl  0  0  0  0  0  0  0  0  0  0  0  0
  1 11  2  0  0  0  0
  2  1  1  0  0  0  0
  3  2  1  0  0  0  0
  4  5  2  0  0  0  0
  4  1  1  0  0  0  0
  5  6  1  0  0  0  0
  6  7  1  0  0  0  0
  6 10  2  0  0  0  0
  7  9  2  0  0  0  0
  8  7  2  0  0  0  0
 10 14  1  0  0  0  0
 11 10  1  0  0  0  0
 11 15  1  0  0  0  0
 12 16  1  0  0  0  0
 13  5  1  0  0  0  0
M  RAD  3   2   2   3   3   4   2
M  END
