Coordinates from ORCA-job 4-NO2PhN2+~Cl-_B3LYPG-6-31G_dp-CH-Scan-d09-49-n800
 OpenBabel11261919153D

 16 15  0  0  0  0  0  0  0  0999 V2000
   -0.9993    0.0674   -0.0697 C   0  0  0  0  0  0  0  0  0  0  0  0
   -2.3981    0.2198   -0.0819 N   0  0  0  0  0  0  0  0  0  0  0  0
   -3.4963    0.4258   -0.0993 N   0  0  0  0  0  0  0  0  0  0  0  0
   -0.3482    1.2946   -0.1867 C   0  0  0  0  0  0  0  0  0  0  0  0
    1.0652    1.0886   -0.1687 C   0  0  0  0  0  0  0  0  0  0  0  0
    1.6215   -0.1756   -0.0492 C   0  0  0  0  0  0  0  0  0  0  0  0
    3.1019   -0.3203   -0.0356 N   0  0  0  0  0  0  0  0  0  0  0  0
    3.7762    0.7005   -0.1335 O   0  0  0  0  0  0  0  0  0  0  0  0
    3.5602   -1.4571    0.0766 O   0  0  0  0  0  0  0  0  0  0  0  0
    0.8663   -1.3654    0.0639 C   0  0  0  0  0  0  0  0  0  0  0  0
   -0.5046   -1.2582    0.0551 C   0  0  0  0  0  0  0  0  0  0  0  0
   -3.6217    4.6223   -0.4381 H   0  0  0  0  0  0  0  0  0  0  0  0
    1.7458    1.9315   -0.2492 H   0  0  0  0  0  0  0  0  0  0  0  0
    1.3740   -2.3163    0.1536 H   0  0  0  0  0  0  0  0  0  0  0  0
   -1.1517   -2.1267    0.1381 H   0  0  0  0  0  0  0  0  0  0  0  0
   -4.6444    3.8475   -0.3455 Cl  0  0  0  0  0  0  0  0  0  0  0  0
  1 11  2  0  0  0  0
  2  1  1  0  0  0  0
  3  2  1  0  0  0  0
  4  5  2  0  0  0  0
  4  1  1  0  0  0  0
  5  6  1  0  0  0  0
  6  7  1  0  0  0  0
  6 10  2  0  0  0  0
  7  9  2  0  0  0  0
  8  7  2  0  0  0  0
 10 14  1  0  0  0  0
 11 10  1  0  0  0  0
 11 15  1  0  0  0  0
 12 16  1  0  0  0  0
 13  5  1  0  0  0  0
M  RAD  3   2   2   3   3   4   2
M  END
