Coordinates from ORCA-job 4-NO2PhN2+~Cl-_B3LYPG-6-31G_dp-CH-Scan-d09-49-n800
 OpenBabel11261919153D

 16 15  0  0  0  0  0  0  0  0999 V2000
   -1.2179    0.0312   -0.0534 C   0  0  0  0  0  0  0  0  0  0  0  0
   -2.6181    0.0632   -0.0507 N   0  0  0  0  0  0  0  0  0  0  0  0
   -3.7295    0.1692   -0.0554 N   0  0  0  0  0  0  0  0  0  0  0  0
   -0.6559    1.3058   -0.1663 C   0  0  0  0  0  0  0  0  0  0  0  0
    0.7648    1.2238   -0.1656 C   0  0  0  0  0  0  0  0  0  0  0  0
    1.4228    0.0072   -0.0644 C   0  0  0  0  0  0  0  0  0  0  0  0
    2.9106   -0.0145   -0.0701 N   0  0  0  0  0  0  0  0  0  0  0  0
    3.4943    1.0586   -0.1791 O   0  0  0  0  0  0  0  0  0  0  0  0
    3.4597   -1.1103    0.0353 O   0  0  0  0  0  0  0  0  0  0  0  0
    0.7684   -1.2388    0.0468 C   0  0  0  0  0  0  0  0  0  0  0  0
   -0.6072   -1.2458    0.0543 C   0  0  0  0  0  0  0  0  0  0  0  0
   -2.2412    3.2151   -0.3296 H   0  0  0  0  0  0  0  0  0  0  0  0
    1.3696    2.1220   -0.2457 H   0  0  0  0  0  0  0  0  0  0  0  0
    1.3528   -2.1460    0.1228 H   0  0  0  0  0  0  0  0  0  0  0  0
   -1.1781   -2.1657    0.1375 H   0  0  0  0  0  0  0  0  0  0  0  0
   -3.3484    3.9033   -0.3865 Cl  0  0  0  0  0  0  0  0  0  0  0  0
  1  2  1  0  0  0  0
  1 11  2  0  0  0  0
  3  2  1  0  0  0  0
  4  5  2  0  0  0  0
  4  1  1  0  0  0  0
  5  6  1  0  0  0  0
  6 10  2  0  0  0  0
  7  6  1  0  0  0  0
  7  9  2  0  0  0  0
  8  7  2  0  0  0  0
 10 11  1  0  0  0  0
 10 14  1  0  0  0  0
 11 15  1  0  0  0  0
 13  5  1  0  0  0  0
 16 12  1  0  0  0  0
M  RAD  3   2   2   3   3   4   2
M  END
