Coordinates from ORCA-job 4-NO2PhN2+~Cl-_B3LYPG-6-31G_dp-CH-Scan-d09-49-n800
 OpenBabel11261919153D

 16 15  0  0  0  0  0  0  0  0999 V2000
   -1.0820    0.0495   -0.0523 C   0  0  0  0  0  0  0  0  0  0  0  0
   -2.4844    0.1546   -0.0548 N   0  0  0  0  0  0  0  0  0  0  0  0
   -3.5889    0.3236   -0.0632 N   0  0  0  0  0  0  0  0  0  0  0  0
   -0.4701    1.2987   -0.1579 C   0  0  0  0  0  0  0  0  0  0  0  0
    0.9487    1.1383   -0.1517 C   0  0  0  0  0  0  0  0  0  0  0  0
    1.5463   -0.1089   -0.0537 C   0  0  0  0  0  0  0  0  0  0  0  0
    3.0306   -0.2057   -0.0534 N   0  0  0  0  0  0  0  0  0  0  0  0
    3.6705    0.8367   -0.1531 O   0  0  0  0  0  0  0  0  0  0  0  0
    3.5258   -1.3279    0.0478 O   0  0  0  0  0  0  0  0  0  0  0  0
    0.8307   -1.3234    0.0497 C   0  0  0  0  0  0  0  0  0  0  0  0
   -0.5431   -1.2603    0.0522 C   0  0  0  0  0  0  0  0  0  0  0  0
   -2.9970    4.1497   -0.4201 H   0  0  0  0  0  0  0  0  0  0  0  0
    1.6015    2.0036   -0.2249 H   0  0  0  0  0  0  0  0  0  0  0  0
    1.3694   -2.2586    0.1238 H   0  0  0  0  0  0  0  0  0  0  0  0
   -1.1612   -2.1501    0.1293 H   0  0  0  0  0  0  0  0  0  0  0  0
   -4.2499    3.8587   -0.3881 Cl  0  0  0  0  0  0  0  0  0  0  0  0
  1 11  2  0  0  0  0
  2  1  1  0  0  0  0
  3  2  1  0  0  0  0
  4  5  2  0  0  0  0
  4  1  1  0  0  0  0
  5  6  1  0  0  0  0
  6  7  1  0  0  0  0
  6 10  2  0  0  0  0
  7  9  2  0  0  0  0
  8  7  2  0  0  0  0
 10 11  1  0  0  0  0
 10 14  1  0  0  0  0
 11 15  1  0  0  0  0
 12 16  1  0  0  0  0
 13  5  1  0  0  0  0
M  RAD  3   2   2   3   3   4   2
M  END
