Coordinates from ORCA-job 4-NO2PhN2+~Cl-_B3LYPG-6-31G_dp-CH-Scan-d09-49-n800
 OpenBabel11261919153D

 16 15  0  0  0  0  0  0  0  0999 V2000
   -1.1635   -0.0108   -0.0464 C   0  0  0  0  0  0  0  0  0  0  0  0
   -2.5654    0.0290   -0.0432 N   0  0  0  0  0  0  0  0  0  0  0  0
   -3.6771    0.1392   -0.0488 N   0  0  0  0  0  0  0  0  0  0  0  0
   -0.6032    1.2637   -0.1561 C   0  0  0  0  0  0  0  0  0  0  0  0
    0.8196    1.1707   -0.1560 C   0  0  0  0  0  0  0  0  0  0  0  0
    1.4725   -0.0487   -0.0594 C   0  0  0  0  0  0  0  0  0  0  0  0
    2.9601   -0.0780   -0.0664 N   0  0  0  0  0  0  0  0  0  0  0  0
    3.5502    0.9920   -0.1746 O   0  0  0  0  0  0  0  0  0  0  0  0
    3.5048   -1.1764    0.0377 O   0  0  0  0  0  0  0  0  0  0  0  0
    0.8129   -1.2934    0.0489 C   0  0  0  0  0  0  0  0  0  0  0  0
   -0.5622   -1.2935    0.0575 C   0  0  0  0  0  0  0  0  0  0  0  0
   -2.5558    3.6526   -0.3698 H   0  0  0  0  0  0  0  0  0  0  0  0
    1.4309    2.0652   -0.2333 H   0  0  0  0  0  0  0  0  0  0  0  0
    1.3936   -2.2031    0.1218 H   0  0  0  0  0  0  0  0  0  0  0  0
   -1.1383   -2.2106    0.1387 H   0  0  0  0  0  0  0  0  0  0  0  0
   -3.7320    4.1805   -0.4209 Cl  0  0  0  0  0  0  0  0  0  0  0  0
  1  2  1  0  0  0  0
  1 11  2  0  0  0  0
  3  2  1  0  0  0  0
  4  5  2  0  0  0  0
  4  1  1  0  0  0  0
  5  6  1  0  0  0  0
  6 10  2  0  0  0  0
  7  6  1  0  0  0  0
  7  9  2  0  0  0  0
  8  7  2  0  0  0  0
 10 11  1  0  0  0  0
 10 14  1  0  0  0  0
 11 15  1  0  0  0  0
 13  5  1  0  0  0  0
 16 12  1  0  0  0  0
M  RAD  3   2   2   3   3   4   2
M  END
