Coordinates from ORCA-job 4-NO2PhN2+~Cl-_B3LYPG-6-31G_dp-CH-Scan-d09-49-n800
 OpenBabel11261919153D

 16 15  0  0  0  0  0  0  0  0999 V2000
   -1.1805   -0.0024   -0.0487 C   0  0  0  0  0  0  0  0  0  0  0  0
   -2.5816    0.0331   -0.0459 N   0  0  0  0  0  0  0  0  0  0  0  0
   -3.6935    0.1394   -0.0498 N   0  0  0  0  0  0  0  0  0  0  0  0
   -0.6220    1.2736   -0.1598 C   0  0  0  0  0  0  0  0  0  0  0  0
    0.8005    1.1852   -0.1594 C   0  0  0  0  0  0  0  0  0  0  0  0
    1.4568   -0.0323   -0.0609 C   0  0  0  0  0  0  0  0  0  0  0  0
    2.9445   -0.0571   -0.0674 N   0  0  0  0  0  0  0  0  0  0  0  0
    3.5311    1.0147   -0.1762 O   0  0  0  0  0  0  0  0  0  0  0  0
    3.4922   -1.1538    0.0375 O   0  0  0  0  0  0  0  0  0  0  0  0
    0.8007   -1.2784    0.0486 C   0  0  0  0  0  0  0  0  0  0  0  0
   -0.5745   -1.2826    0.0568 C   0  0  0  0  0  0  0  0  0  0  0  0
   -2.4600    3.5306   -0.3588 H   0  0  0  0  0  0  0  0  0  0  0  0
    1.4088    2.0815   -0.2377 H   0  0  0  0  0  0  0  0  0  0  0  0
    1.3839   -2.1865    0.1228 H   0  0  0  0  0  0  0  0  0  0  0  0
   -1.1477   -2.2013    0.1389 H   0  0  0  0  0  0  0  0  0  0  0  0
   -3.6120    4.1148   -0.4103 Cl  0  0  0  0  0  0  0  0  0  0  0  0
  1  2  1  0  0  0  0
  1 11  2  0  0  0  0
  3  2  1  0  0  0  0
  4  5  2  0  0  0  0
  4  1  1  0  0  0  0
  5  6  1  0  0  0  0
  6 10  2  0  0  0  0
  7  6  1  0  0  0  0
  7  9  2  0  0  0  0
  8  7  2  0  0  0  0
 10 11  1  0  0  0  0
 10 14  1  0  0  0  0
 11 15  1  0  0  0  0
 13  5  1  0  0  0  0
 16 12  1  0  0  0  0
M  RAD  3   2   2   3   3   4   2
M  END
