Coordinates from ORCA-job 4-NO2PhN2+~Cl-_B3LYPG-6-31G_dp-CH-Scan-d09-49-n800
 OpenBabel11261919153D

 16 15  0  0  0  0  0  0  0  0999 V2000
   -1.0911    0.0491   -0.0508 C   0  0  0  0  0  0  0  0  0  0  0  0
   -2.4935    0.1493   -0.0527 N   0  0  0  0  0  0  0  0  0  0  0  0
   -3.5986    0.3143   -0.0591 N   0  0  0  0  0  0  0  0  0  0  0  0
   -0.4825    1.3002   -0.1551 C   0  0  0  0  0  0  0  0  0  0  0  0
    0.9366    1.1444   -0.1498 C   0  0  0  0  0  0  0  0  0  0  0  0
    1.5380   -0.1012   -0.0538 C   0  0  0  0  0  0  0  0  0  0  0  0
    3.0227   -0.1934   -0.0547 N   0  0  0  0  0  0  0  0  0  0  0  0
    3.6591    0.8510   -0.1556 O   0  0  0  0  0  0  0  0  0  0  0  0
    3.5213   -1.3142    0.0436 O   0  0  0  0  0  0  0  0  0  0  0  0
    0.8262   -1.3179    0.0485 C   0  0  0  0  0  0  0  0  0  0  0  0
   -0.5477   -1.2591    0.0519 C   0  0  0  0  0  0  0  0  0  0  0  0
   -2.9328    4.0784   -0.4146 H   0  0  0  0  0  0  0  0  0  0  0  0
    1.5866    2.0118   -0.2223 H   0  0  0  0  0  0  0  0  0  0  0  0
    1.3678   -2.2515    0.1211 H   0  0  0  0  0  0  0  0  0  0  0  0
   -1.1630   -2.1510    0.1282 H   0  0  0  0  0  0  0  0  0  0  0  0
   -4.2023    3.8682   -0.3951 Cl  0  0  0  0  0  0  0  0  0  0  0  0
  1 11  2  0  0  0  0
  2  1  1  0  0  0  0
  3  2  1  0  0  0  0
  4  5  2  0  0  0  0
  4  1  1  0  0  0  0
  5  6  1  0  0  0  0
  6 10  2  0  0  0  0
  7  6  1  0  0  0  0
  7  9  2  0  0  0  0
  8  7  2  0  0  0  0
 10 11  1  0  0  0  0
 10 14  1  0  0  0  0
 11 15  1  0  0  0  0
 12 16  1  0  0  0  0
 13  5  1  0  0  0  0
M  RAD  3   2   2   3   3   4   2
M  END
