Coordinates from ORCA-job 4-NO2PhN2+~Cl-_B3LYPG-6-31G_dp-CH-Scan-d09-49-n800
 OpenBabel11261919153D

 16 15  0  0  0  0  0  0  0  0999 V2000
   -1.2546    0.0513   -0.0555 C   0  0  0  0  0  0  0  0  0  0  0  0
   -2.6539    0.0759   -0.0522 N   0  0  0  0  0  0  0  0  0  0  0  0
   -3.7644    0.1851   -0.0571 N   0  0  0  0  0  0  0  0  0  0  0  0
   -0.6927    1.3266   -0.1692 C   0  0  0  0  0  0  0  0  0  0  0  0
    0.7259    1.2559   -0.1693 C   0  0  0  0  0  0  0  0  0  0  0  0
    1.3899    0.0422   -0.0673 C   0  0  0  0  0  0  0  0  0  0  0  0
    2.8779    0.0289   -0.0735 N   0  0  0  0  0  0  0  0  0  0  0  0
    3.4544    1.1057   -0.1816 O   0  0  0  0  0  0  0  0  0  0  0  0
    3.4322   -1.0641    0.0308 O   0  0  0  0  0  0  0  0  0  0  0  0
    0.7416   -1.2057    0.0445 C   0  0  0  0  0  0  0  0  0  0  0  0
   -0.6345   -1.2200    0.0523 C   0  0  0  0  0  0  0  0  0  0  0  0
   -2.0312    2.9474   -0.3064 H   0  0  0  0  0  0  0  0  0  0  0  0
    1.3235    2.1586   -0.2505 H   0  0  0  0  0  0  0  0  0  0  0  0
    1.3301   -2.1102    0.1207 H   0  0  0  0  0  0  0  0  0  0  0  0
   -1.2001   -2.1430    0.1359 H   0  0  0  0  0  0  0  0  0  0  0  0
   -3.0974    3.7440   -0.3721 Cl  0  0  0  0  0  0  0  0  0  0  0  0
  1  2  1  0  0  0  0
  1 11  2  0  0  0  0
  3  2  1  0  0  0  0
  4  1  1  0  0  0  0
  5  4  2  0  0  0  0
  5  6  1  0  0  0  0
  6 10  2  0  0  0  0
  7  6  1  0  0  0  0
  7  9  2  0  0  0  0
  8  7  2  0  0  0  0
 10 11  1  0  0  0  0
 10 14  1  0  0  0  0
 11 15  1  0  0  0  0
 13  5  1  0  0  0  0
 16 12  1  0  0  0  0
M  RAD  3   2   2   3   3   4   2
M  END
