Coordinates from ORCA-job 4-NO2PhN2+~Cl-_B3LYPG-6-31G_dp-CH-Scan-d09-49-n800
 OpenBabel11261919153D

 16 15  0  0  0  0  0  0  0  0999 V2000
   -1.3309    0.1343   -0.0630 C   0  0  0  0  0  0  0  0  0  0  0  0
   -2.7427    0.1118   -0.0551 N   0  0  0  0  0  0  0  0  0  0  0  0
   -3.6996    0.7695   -0.1086 N   0  0  0  0  0  0  0  0  0  0  0  0
   -0.6370    1.3419   -0.1716 C   0  0  0  0  0  0  0  0  0  0  0  0
    0.7519    1.3131   -0.1757 C   0  0  0  0  0  0  0  0  0  0  0  0
    1.3912    0.0777   -0.0706 C   0  0  0  0  0  0  0  0  0  0  0  0
    2.8724    0.0436   -0.0744 N   0  0  0  0  0  0  0  0  0  0  0  0
    3.4600    1.1160   -0.1788 O   0  0  0  0  0  0  0  0  0  0  0  0
    3.4103   -1.0559    0.0273 O   0  0  0  0  0  0  0  0  0  0  0  0
    0.7034   -1.1323    0.0388 C   0  0  0  0  0  0  0  0  0  0  0  0
   -0.6848   -1.1060    0.0427 C   0  0  0  0  0  0  0  0  0  0  0  0
   -1.4103    2.4634   -0.2659 H   0  0  0  0  0  0  0  0  0  0  0  0
    1.3431    2.2165   -0.2578 H   0  0  0  0  0  0  0  0  0  0  0  0
    1.2593   -2.0576    0.1179 H   0  0  0  0  0  0  0  0  0  0  0  0
   -1.2675   -2.0168    0.1255 H   0  0  0  0  0  0  0  0  0  0  0  0
   -3.4718    2.9593   -0.3011 Cl  0  0  0  0  0  0  0  0  0  0  0  0
  1  2  1  0  0  0  0
  1 11  2  0  0  0  0
  3  2  2  0  0  0  0
  4  1  1  0  0  0  0
  5  4  2  0  0  0  0
  5  6  1  0  0  0  0
  6 10  2  0  0  0  0
  7  6  1  0  0  0  0
  7  9  2  0  0  0  0
  8  7  2  0  0  0  0
 10 11  1  0  0  0  0
 10 14  1  0  0  0  0
 11 15  1  0  0  0  0
 12  4  1  0  0  0  0
 13  5  1  0  0  0  0
M  RAD  2   3   2  16   2
M  END
