Coordinates from ORCA-job 4-NO2PhN2+~Cl-_B3LYPG-6-31G_dp-CH-Scan-d09-49-n800
 OpenBabel11261919153D

 16 15  0  0  0  0  0  0  0  0999 V2000
   -1.2111    0.0276   -0.0531 C   0  0  0  0  0  0  0  0  0  0  0  0
   -2.6114    0.0611   -0.0505 N   0  0  0  0  0  0  0  0  0  0  0  0
   -3.7229    0.1679   -0.0551 N   0  0  0  0  0  0  0  0  0  0  0  0
   -0.6488    1.3021   -0.1659 C   0  0  0  0  0  0  0  0  0  0  0  0
    0.7722    1.2178   -0.1651 C   0  0  0  0  0  0  0  0  0  0  0  0
    1.4290    0.0006   -0.0639 C   0  0  0  0  0  0  0  0  0  0  0  0
    2.9168   -0.0227   -0.0695 N   0  0  0  0  0  0  0  0  0  0  0  0
    3.5017    1.0498   -0.1785 O   0  0  0  0  0  0  0  0  0  0  0  0
    3.4648   -1.1190    0.0363 O   0  0  0  0  0  0  0  0  0  0  0  0
    0.7734   -1.2449    0.0472 C   0  0  0  0  0  0  0  0  0  0  0  0
   -0.6021   -1.2504    0.0546 C   0  0  0  0  0  0  0  0  0  0  0  0
   -2.2790    3.2650   -0.3339 H   0  0  0  0  0  0  0  0  0  0  0  0
    1.3783    2.1152   -0.2450 H   0  0  0  0  0  0  0  0  0  0  0  0
    1.3569   -2.1526    0.1232 H   0  0  0  0  0  0  0  0  0  0  0  0
   -1.1741   -2.1697    0.1377 H   0  0  0  0  0  0  0  0  0  0  0  0
   -3.3968    3.9304   -0.3888 Cl  0  0  0  0  0  0  0  0  0  0  0  0
  1  2  1  0  0  0  0
  1 11  2  0  0  0  0
  3  2  1  0  0  0  0
  4  5  2  0  0  0  0
  4  1  1  0  0  0  0
  5  6  1  0  0  0  0
  6 10  2  0  0  0  0
  7  6  1  0  0  0  0
  7  9  2  0  0  0  0
  8  7  2  0  0  0  0
 10 11  1  0  0  0  0
 10 14  1  0  0  0  0
 11 15  1  0  0  0  0
 13  5  1  0  0  0  0
 16 12  1  0  0  0  0
M  RAD  3   2   2   3   3   4   2
M  END
