Coordinates from ORCA-job 4-NO2PhN2+~Cl-_B3LYPG-6-31G_dp-CH-Scan-d09-49-n800
 OpenBabel11261919153D

 16 15  0  0  0  0  0  0  0  0999 V2000
   -1.2268    0.0339   -0.0539 C   0  0  0  0  0  0  0  0  0  0  0  0
   -2.6266    0.0632   -0.0510 N   0  0  0  0  0  0  0  0  0  0  0  0
   -3.7380    0.1683   -0.0556 N   0  0  0  0  0  0  0  0  0  0  0  0
   -0.6660    1.3094   -0.1671 C   0  0  0  0  0  0  0  0  0  0  0  0
    0.7545    1.2306   -0.1666 C   0  0  0  0  0  0  0  0  0  0  0  0
    1.4147    0.0152   -0.0651 C   0  0  0  0  0  0  0  0  0  0  0  0
    2.9026   -0.0036   -0.0709 N   0  0  0  0  0  0  0  0  0  0  0  0
    3.4838    1.0708   -0.1798 O   0  0  0  0  0  0  0  0  0  0  0  0
    3.4537   -1.0983    0.0344 O   0  0  0  0  0  0  0  0  0  0  0  0
    0.7627   -1.2318    0.0464 C   0  0  0  0  0  0  0  0  0  0  0  0
   -0.6130   -1.2414    0.0540 C   0  0  0  0  0  0  0  0  0  0  0  0
   -2.1931    3.1566   -0.3244 H   0  0  0  0  0  0  0  0  0  0  0  0
    1.3571    2.1301   -0.2471 H   0  0  0  0  0  0  0  0  0  0  0  0
    1.3486   -2.1380    0.1226 H   0  0  0  0  0  0  0  0  0  0  0  0
   -1.1821   -2.1624    0.1374 H   0  0  0  0  0  0  0  0  0  0  0  0
   -3.2853    3.8758   -0.3835 Cl  0  0  0  0  0  0  0  0  0  0  0  0
  1  2  1  0  0  0  0
  1 11  2  0  0  0  0
  3  2  1  0  0  0  0
  4  5  2  0  0  0  0
  4  1  1  0  0  0  0
  5  6  1  0  0  0  0
  6 10  2  0  0  0  0
  7  6  1  0  0  0  0
  7  9  2  0  0  0  0
  8  7  2  0  0  0  0
 10 11  1  0  0  0  0
 10 14  1  0  0  0  0
 11 15  1  0  0  0  0
 13  5  1  0  0  0  0
 16 12  1  0  0  0  0
M  RAD  3   2   2   3   3   4   2
M  END
