Coordinates from ORCA-job 4-NO2PhN2+~Cl-_B3LYPG-6-31G_dp-CH-Scan-d09-49-n800
 OpenBabel11261919153D

 16 15  0  0  0  0  0  0  0  0999 V2000
   -1.0932    0.0487   -0.0505 C   0  0  0  0  0  0  0  0  0  0  0  0
   -2.4956    0.1482   -0.0520 N   0  0  0  0  0  0  0  0  0  0  0  0
   -3.6007    0.3127   -0.0596 N   0  0  0  0  0  0  0  0  0  0  0  0
   -0.4857    1.3004   -0.1551 C   0  0  0  0  0  0  0  0  0  0  0  0
    0.9335    1.1456   -0.1503 C   0  0  0  0  0  0  0  0  0  0  0  0
    1.5360   -0.0994   -0.0544 C   0  0  0  0  0  0  0  0  0  0  0  0
    3.0207   -0.1904   -0.0557 N   0  0  0  0  0  0  0  0  0  0  0  0
    3.6562    0.8547   -0.1553 O   0  0  0  0  0  0  0  0  0  0  0  0
    3.5202   -1.3107    0.0441 O   0  0  0  0  0  0  0  0  0  0  0  0
    0.8252   -1.3167    0.0482 C   0  0  0  0  0  0  0  0  0  0  0  0
   -0.5488   -1.2589    0.0520 C   0  0  0  0  0  0  0  0  0  0  0  0
   -2.9178    4.0615   -0.4123 H   0  0  0  0  0  0  0  0  0  0  0  0
    1.5828    2.0136   -0.2230 H   0  0  0  0  0  0  0  0  0  0  0  0
    1.3676   -2.2498    0.1207 H   0  0  0  0  0  0  0  0  0  0  0  0
   -1.1634   -2.1513    0.1286 H   0  0  0  0  0  0  0  0  0  0  0  0
   -4.1902    3.8702   -0.3957 Cl  0  0  0  0  0  0  0  0  0  0  0  0
  1 11  2  0  0  0  0
  2  1  1  0  0  0  0
  3  2  1  0  0  0  0
  4  5  2  0  0  0  0
  4  1  1  0  0  0  0
  5  6  1  0  0  0  0
  6 10  2  0  0  0  0
  7  6  1  0  0  0  0
  7  9  2  0  0  0  0
  8  7  2  0  0  0  0
 10 11  1  0  0  0  0
 10 14  1  0  0  0  0
 11 15  1  0  0  0  0
 12 16  1  0  0  0  0
 13  5  1  0  0  0  0
M  RAD  3   2   2   3   3   4   2
M  END
