Coordinates from ORCA-job 4-NO2PhN2+~Cl-_B3LYPG-6-31G_dp-CH-Scan-d09-49-n800
 OpenBabel11261919153D

 16 15  0  0  0  0  0  0  0  0999 V2000
   -1.0420    0.0525   -0.0601 C   0  0  0  0  0  0  0  0  0  0  0  0
   -2.4432    0.1789   -0.0676 N   0  0  0  0  0  0  0  0  0  0  0  0
   -3.5449    0.3653   -0.0806 N   0  0  0  0  0  0  0  0  0  0  0  0
   -0.4136    1.2925   -0.1709 C   0  0  0  0  0  0  0  0  0  0  0  0
    1.0031    1.1124   -0.1590 C   0  0  0  0  0  0  0  0  0  0  0  0
    1.5831   -0.1422   -0.0512 C   0  0  0  0  0  0  0  0  0  0  0  0
    3.0659   -0.2596   -0.0448 N   0  0  0  0  0  0  0  0  0  0  0  0
    3.7208    0.7735   -0.1453 O   0  0  0  0  0  0  0  0  0  0  0  0
    3.5454   -1.3881    0.0621 O   0  0  0  0  0  0  0  0  0  0  0  0
    0.8504   -1.3463    0.0567 C   0  0  0  0  0  0  0  0  0  0  0  0
   -0.5224   -1.2643    0.0539 C   0  0  0  0  0  0  0  0  0  0  0  0
   -3.2896    4.4025   -0.4339 H   0  0  0  0  0  0  0  0  0  0  0  0
    1.6680    1.9682   -0.2355 H   0  0  0  0  0  0  0  0  0  0  0  0
    1.3759   -2.2883    0.1381 H   0  0  0  0  0  0  0  0  0  0  0  0
   -1.1530   -2.1451    0.1338 H   0  0  0  0  0  0  0  0  0  0  0  0
   -4.4569    3.8664   -0.3661 Cl  0  0  0  0  0  0  0  0  0  0  0  0
  1 11  2  0  0  0  0
  2  1  1  0  0  0  0
  3  2  1  0  0  0  0
  4  5  2  0  0  0  0
  4  1  1  0  0  0  0
  5  6  1  0  0  0  0
  6  7  1  0  0  0  0
  6 10  2  0  0  0  0
  7  9  2  0  0  0  0
  8  7  2  0  0  0  0
 10 14  1  0  0  0  0
 11 10  1  0  0  0  0
 11 15  1  0  0  0  0
 12 16  1  0  0  0  0
 13  5  1  0  0  0  0
M  RAD  3   2   2   3   3   4   2
M  END
