Coordinates from ORCA-job 4-NO2PhN2+~Cl-_B3LYPG-6-31G_dp-CH-Scan-d09-49-n800
 OpenBabel11261919153D

 16 15  0  0  0  0  0  0  0  0999 V2000
   -1.2552    0.0514   -0.0555 C   0  0  0  0  0  0  0  0  0  0  0  0
   -2.6544    0.0759   -0.0521 N   0  0  0  0  0  0  0  0  0  0  0  0
   -3.7648    0.1855   -0.0570 N   0  0  0  0  0  0  0  0  0  0  0  0
   -0.6931    1.3267   -0.1693 C   0  0  0  0  0  0  0  0  0  0  0  0
    0.7254    1.2563   -0.1695 C   0  0  0  0  0  0  0  0  0  0  0  0
    1.3895    0.0427   -0.0675 C   0  0  0  0  0  0  0  0  0  0  0  0
    2.8775    0.0295   -0.0738 N   0  0  0  0  0  0  0  0  0  0  0  0
    3.4538    1.1064   -0.1812 O   0  0  0  0  0  0  0  0  0  0  0  0
    3.4319   -1.0634    0.0311 O   0  0  0  0  0  0  0  0  0  0  0  0
    0.7413   -1.2053    0.0443 C   0  0  0  0  0  0  0  0  0  0  0  0
   -0.6348   -1.2197    0.0523 C   0  0  0  0  0  0  0  0  0  0  0  0
   -2.0284    2.9436   -0.3060 H   0  0  0  0  0  0  0  0  0  0  0  0
    1.3229    2.1591   -0.2507 H   0  0  0  0  0  0  0  0  0  0  0  0
    1.3298   -2.1098    0.1206 H   0  0  0  0  0  0  0  0  0  0  0  0
   -1.2004   -2.1427    0.1359 H   0  0  0  0  0  0  0  0  0  0  0  0
   -3.0942    3.7423   -0.3719 Cl  0  0  0  0  0  0  0  0  0  0  0  0
  1  2  1  0  0  0  0
  1 11  2  0  0  0  0
  3  2  1  0  0  0  0
  4  1  1  0  0  0  0
  5  4  2  0  0  0  0
  5  6  1  0  0  0  0
  6 10  2  0  0  0  0
  7  6  1  0  0  0  0
  7  9  2  0  0  0  0
  8  7  2  0  0  0  0
 10 11  1  0  0  0  0
 10 14  1  0  0  0  0
 11 15  1  0  0  0  0
 13  5  1  0  0  0  0
 16 12  1  0  0  0  0
M  RAD  3   2   2   3   3   4   2
M  END
