Coordinates from ORCA-job 4-NO2PhN2+~Cl-_B3LYPG-6-31G_dp-CH-Scan-d09-49-n800
 OpenBabel11261919153D

 16 15  0  0  0  0  0  0  0  0999 V2000
   -1.1039    0.0504   -0.0512 C   0  0  0  0  0  0  0  0  0  0  0  0
   -2.5063    0.1454   -0.0525 N   0  0  0  0  0  0  0  0  0  0  0  0
   -3.6119    0.3061   -0.0601 N   0  0  0  0  0  0  0  0  0  0  0  0
   -0.4993    1.3037   -0.1565 C   0  0  0  0  0  0  0  0  0  0  0  0
    0.9201    1.1534   -0.1518 C   0  0  0  0  0  0  0  0  0  0  0  0
    1.5261   -0.0899   -0.0553 C   0  0  0  0  0  0  0  0  0  0  0  0
    3.0112   -0.1764   -0.0568 N   0  0  0  0  0  0  0  0  0  0  0  0
    3.6434    0.8705   -0.1573 O   0  0  0  0  0  0  0  0  0  0  0  0
    3.5139   -1.2951    0.0438 O   0  0  0  0  0  0  0  0  0  0  0  0
    0.8190   -1.3091    0.0481 C   0  0  0  0  0  0  0  0  0  0  0  0
   -0.5552   -1.2554    0.0520 C   0  0  0  0  0  0  0  0  0  0  0  0
   -2.8452    3.9680   -0.4009 H   0  0  0  0  0  0  0  0  0  0  0  0
    1.5667    2.0233   -0.2252 H   0  0  0  0  0  0  0  0  0  0  0  0
    1.3641   -2.2406    0.1210 H   0  0  0  0  0  0  0  0  0  0  0  0
   -1.1671   -2.1495    0.1290 H   0  0  0  0  0  0  0  0  0  0  0  0
   -4.1289    3.8736   -0.3965 Cl  0  0  0  0  0  0  0  0  0  0  0  0
  1 11  2  0  0  0  0
  2  1  1  0  0  0  0
  3  2  1  0  0  0  0
  4  5  2  0  0  0  0
  4  1  1  0  0  0  0
  5  6  1  0  0  0  0
  6 10  2  0  0  0  0
  7  6  1  0  0  0  0
  7  9  2  0  0  0  0
  8  7  2  0  0  0  0
 10 11  1  0  0  0  0
 10 14  1  0  0  0  0
 11 15  1  0  0  0  0
 12 16  1  0  0  0  0
 13  5  1  0  0  0  0
M  RAD  3   2   2   3   3   4   2
M  END
