Coordinates from ORCA-job 4-NO2PhN2+~Cl-_B3LYPG-6-31G_dp-CH-Scan-d09-49-n800
 OpenBabel11261919153D

 16 15  0  0  0  0  0  0  0  0999 V2000
   -1.2860    0.0709   -0.0578 C   0  0  0  0  0  0  0  0  0  0  0  0
   -2.7011    0.1356   -0.0570 N   0  0  0  0  0  0  0  0  0  0  0  0
   -3.7226    0.5999   -0.0926 N   0  0  0  0  0  0  0  0  0  0  0  0
   -0.7025    1.3281   -0.1703 C   0  0  0  0  0  0  0  0  0  0  0  0
    0.7043    1.2915   -0.1734 C   0  0  0  0  0  0  0  0  0  0  0  0
    1.3694    0.0736   -0.0700 C   0  0  0  0  0  0  0  0  0  0  0  0
    2.8558    0.0665   -0.0761 N   0  0  0  0  0  0  0  0  0  0  0  0
    3.4253    1.1473   -0.1826 O   0  0  0  0  0  0  0  0  0  0  0  0
    3.4146   -1.0236    0.0263 O   0  0  0  0  0  0  0  0  0  0  0  0
    0.7205   -1.1681    0.0415 C   0  0  0  0  0  0  0  0  0  0  0  0
   -0.6615   -1.1849    0.0492 C   0  0  0  0  0  0  0  0  0  0  0  0
   -1.7769    2.5242   -0.2703 H   0  0  0  0  0  0  0  0  0  0  0  0
    1.2908    2.2002   -0.2557 H   0  0  0  0  0  0  0  0  0  0  0  0
    1.3085   -2.0730    0.1183 H   0  0  0  0  0  0  0  0  0  0  0  0
   -1.2257   -2.1080    0.1328 H   0  0  0  0  0  0  0  0  0  0  0  0
   -3.0659    3.2983   -0.3327 Cl  0  0  0  0  0  0  0  0  0  0  0  0
  1  2  1  0  0  0  0
  1 11  2  0  0  0  0
  3  2  1  0  0  0  0
  4  1  1  0  0  0  0
  5  4  2  0  0  0  0
  5  6  1  0  0  0  0
  6 10  2  0  0  0  0
  7  6  1  0  0  0  0
  7  9  2  0  0  0  0
  8  7  2  0  0  0  0
 10 11  1  0  0  0  0
 10 14  1  0  0  0  0
 11 15  1  0  0  0  0
 13  5  1  0  0  0  0
 16 12  1  0  0  0  0
M  RAD  3   2   2   3   3   4   2
M  END
