Coordinates from ORCA-job 4-NO2PhN2+~Cl-_B3LYPG-6-31G_dp-CH-Scan-d09-49-n800
 OpenBabel11261919153D

 16 15  0  0  0  0  0  0  0  0999 V2000
   -1.3250    0.1197   -0.0620 C   0  0  0  0  0  0  0  0  0  0  0  0
   -2.7385    0.1160   -0.0552 N   0  0  0  0  0  0  0  0  0  0  0  0
   -3.6884    0.7756   -0.1082 N   0  0  0  0  0  0  0  0  0  0  0  0
   -0.6454    1.3330   -0.1714 C   0  0  0  0  0  0  0  0  0  0  0  0
    0.7445    1.3099   -0.1758 C   0  0  0  0  0  0  0  0  0  0  0  0
    1.3881    0.0766   -0.0705 C   0  0  0  0  0  0  0  0  0  0  0  0
    2.8701    0.0480   -0.0744 N   0  0  0  0  0  0  0  0  0  0  0  0
    3.4538    1.1224   -0.1783 O   0  0  0  0  0  0  0  0  0  0  0  0
    3.4124   -1.0495    0.0270 O   0  0  0  0  0  0  0  0  0  0  0  0
    0.7072   -1.1384    0.0391 C   0  0  0  0  0  0  0  0  0  0  0  0
   -0.6810   -1.1212    0.0438 C   0  0  0  0  0  0  0  0  0  0  0  0
   -1.4804    2.4597   -0.2666 H   0  0  0  0  0  0  0  0  0  0  0  0
    1.3332    2.2151   -0.2580 H   0  0  0  0  0  0  0  0  0  0  0  0
    1.2693   -2.0598    0.1178 H   0  0  0  0  0  0  0  0  0  0  0  0
   -1.2592   -2.0348    0.1269 H   0  0  0  0  0  0  0  0  0  0  0  0
   -3.4137    3.0063   -0.3046 Cl  0  0  0  0  0  0  0  0  0  0  0  0
  1  2  1  0  0  0  0
  1 11  2  0  0  0  0
  3  2  2  0  0  0  0
  4  1  1  0  0  0  0
  5  4  2  0  0  0  0
  5  6  1  0  0  0  0
  6 10  2  0  0  0  0
  7  6  1  0  0  0  0
  7  9  2  0  0  0  0
  8  7  2  0  0  0  0
 10 11  1  0  0  0  0
 10 14  1  0  0  0  0
 11 15  1  0  0  0  0
 12  4  1  0  0  0  0
 13  5  1  0  0  0  0
M  RAD  2   3   2  16   2
M  END
