Coordinates from ORCA-job 4-NO2PhN2+~Cl-_B3LYPG-6-31G_dp-CH-Scan-d09-49-n800
 OpenBabel11261919153D

 16 15  0  0  0  0  0  0  0  0999 V2000
   -1.0637    0.0497   -0.0548 C   0  0  0  0  0  0  0  0  0  0  0  0
   -2.4657    0.1644   -0.0595 N   0  0  0  0  0  0  0  0  0  0  0  0
   -3.5689    0.3418   -0.0699 N   0  0  0  0  0  0  0  0  0  0  0  0
   -0.4448    1.2949   -0.1619 C   0  0  0  0  0  0  0  0  0  0  0  0
    0.9732    1.1260   -0.1535 C   0  0  0  0  0  0  0  0  0  0  0  0
    1.5631   -0.1246   -0.0524 C   0  0  0  0  0  0  0  0  0  0  0  0
    3.0468   -0.2304   -0.0500 N   0  0  0  0  0  0  0  0  0  0  0  0
    3.6933    0.8080   -0.1499 O   0  0  0  0  0  0  0  0  0  0  0  0
    3.5352   -1.3554    0.0530 O   0  0  0  0  0  0  0  0  0  0  0  0
    0.8400   -1.3347    0.0524 C   0  0  0  0  0  0  0  0  0  0  0  0
   -0.5333   -1.2633    0.0530 C   0  0  0  0  0  0  0  0  0  0  0  0
   -3.1325    4.2842   -0.4314 H   0  0  0  0  0  0  0  0  0  0  0  0
    1.6312    1.9872   -0.2276 H   0  0  0  0  0  0  0  0  0  0  0  0
    1.3731   -2.2728    0.1290 H   0  0  0  0  0  0  0  0  0  0  0  0
   -1.1569   -2.1493    0.1309 H   0  0  0  0  0  0  0  0  0  0  0  0
   -4.3432    3.8525   -0.3776 Cl  0  0  0  0  0  0  0  0  0  0  0  0
  1 11  2  0  0  0  0
  2  1  1  0  0  0  0
  3  2  1  0  0  0  0
  4  5  2  0  0  0  0
  4  1  1  0  0  0  0
  5  6  1  0  0  0  0
  6  7  1  0  0  0  0
  6 10  2  0  0  0  0
  7  9  2  0  0  0  0
  8  7  2  0  0  0  0
 10 11  1  0  0  0  0
 10 14  1  0  0  0  0
 11 15  1  0  0  0  0
 12 16  1  0  0  0  0
 13  5  1  0  0  0  0
M  RAD  3   2   2   3   3   4   2
M  END
