Coordinates from ORCA-job 4-NO2PhN2+~Cl-_B3LYPG-6-31G_dp-CH-Scan-d09-49-n800
 OpenBabel11261919153D

 16 15  0  0  0  0  0  0  0  0999 V2000
   -1.2476    0.0467   -0.0550 C   0  0  0  0  0  0  0  0  0  0  0  0
   -2.6470    0.0722   -0.0532 N   0  0  0  0  0  0  0  0  0  0  0  0
   -3.7578    0.1797   -0.0590 N   0  0  0  0  0  0  0  0  0  0  0  0
   -0.6862    1.3223   -0.1679 C   0  0  0  0  0  0  0  0  0  0  0  0
    0.7330    1.2497   -0.1665 C   0  0  0  0  0  0  0  0  0  0  0  0
    1.3961    0.0357   -0.0642 C   0  0  0  0  0  0  0  0  0  0  0  0
    2.8841    0.0212   -0.0687 N   0  0  0  0  0  0  0  0  0  0  0  0
    3.4616    1.0964   -0.1867 O   0  0  0  0  0  0  0  0  0  0  0  0
    3.4376   -1.0731    0.0258 O   0  0  0  0  0  0  0  0  0  0  0  0
    0.7470   -1.2122    0.0466 C   0  0  0  0  0  0  0  0  0  0  0  0
   -0.6290   -1.2255    0.0531 C   0  0  0  0  0  0  0  0  0  0  0  0
   -2.0728    3.0004   -0.3110 H   0  0  0  0  0  0  0  0  0  0  0  0
    1.3318    2.1516   -0.2467 H   0  0  0  0  0  0  0  0  0  0  0  0
    1.3349   -2.1171    0.1232 H   0  0  0  0  0  0  0  0  0  0  0  0
   -1.1954   -2.1481    0.1360 H   0  0  0  0  0  0  0  0  0  0  0  0
   -3.1433    3.7786   -0.3761 Cl  0  0  0  0  0  0  0  0  0  0  0  0
  1  2  1  0  0  0  0
  1 11  2  0  0  0  0
  3  2  1  0  0  0  0
  4  5  2  0  0  0  0
  4  1  1  0  0  0  0
  5  6  1  0  0  0  0
  6 10  2  0  0  0  0
  7  6  1  0  0  0  0
  7  9  2  0  0  0  0
  8  7  2  0  0  0  0
 10 11  1  0  0  0  0
 10 14  1  0  0  0  0
 11 15  1  0  0  0  0
 13  5  1  0  0  0  0
 16 12  1  0  0  0  0
M  RAD  3   2   2   3   3   4   2
M  END
