Coordinates from ORCA-job 4-NO2PhN2+~Cl-_B3LYPG-6-31G_dp-CH-Scan-d09-49-n800
 OpenBabel11261919153D

 16 16  0  0  0  0  0  0  0  0999 V2000
   -1.3552    0.1948    0.0738 C   0  0  0  0  0  0  0  0  0  0  0  0
   -2.7624    0.1520    0.1933 N   0  0  0  0  0  0  0  0  0  0  0  0
   -3.7105    0.8036   -0.0483 N   0  0  0  0  0  0  0  0  0  0  0  0
   -0.6393    1.4000    0.0269 C   0  0  0  0  0  0  0  0  0  0  0  0
    0.7490    1.3421   -0.0463 C   0  0  0  0  0  0  0  0  0  0  0  0
    1.3763    0.0984   -0.0789 C   0  0  0  0  0  0  0  0  0  0  0  0
    2.8517    0.0493   -0.1649 N   0  0  0  0  0  0  0  0  0  0  0  0
    3.4507    1.1205   -0.2032 O   0  0  0  0  0  0  0  0  0  0  0  0
    3.3774   -1.0606   -0.1919 O   0  0  0  0  0  0  0  0  0  0  0  0
    0.6717   -1.1030   -0.0249 C   0  0  0  0  0  0  0  0  0  0  0  0
   -0.7130   -1.0513    0.0701 C   0  0  0  0  0  0  0  0  0  0  0  0
   -1.1658    2.3489    0.0394 H   0  0  0  0  0  0  0  0  0  0  0  0
    1.3484    2.2430   -0.0837 H   0  0  0  0  0  0  0  0  0  0  0  0
    1.2099   -2.0419   -0.0458 H   0  0  0  0  0  0  0  0  0  0  0  0
   -1.3061   -1.9565    0.1341 H   0  0  0  0  0  0  0  0  0  0  0  0
   -3.4359    2.6391   -1.0201 Cl  0  0  0  0  0  0  0  0  0  0  0  0
  1  2  1  0  0  0  0
  3  2  2  0  0  0  0
  4 12  1  0  0  0  0
  4  1  2  0  0  0  0
  5  4  1  0  0  0  0
  6  5  2  0  0  0  0
  6 10  1  0  0  0  0
  7  6  1  0  0  0  0
  8  7  2  0  0  0  0
  9  7  2  0  0  0  0
 10 11  2  0  0  0  0
 11  1  1  0  0  0  0
 11 15  1  0  0  0  0
 13  5  1  0  0  0  0
 14 10  1  0  0  0  0
 16  3  1  0  0  0  0
M  END
