Coordinates from ORCA-job 4-NO2PhN2+~Cl-_B3LYPG-6-31G_dp-CH-Scan-d09-49-n800
 OpenBabel11261919153D

 16 15  0  0  0  0  0  0  0  0999 V2000
   -0.9868    0.0736   -0.0661 C   0  0  0  0  0  0  0  0  0  0  0  0
   -2.3848    0.2344   -0.0764 N   0  0  0  0  0  0  0  0  0  0  0  0
   -3.4818    0.4468   -0.0927 N   0  0  0  0  0  0  0  0  0  0  0  0
   -0.3287    1.2972   -0.1800 C   0  0  0  0  0  0  0  0  0  0  0  0
    1.0835    1.0829   -0.1637 C   0  0  0  0  0  0  0  0  0  0  0  0
    1.6325   -0.1848   -0.0482 C   0  0  0  0  0  0  0  0  0  0  0  0
    3.1120   -0.3383   -0.0359 N   0  0  0  0  0  0  0  0  0  0  0  0
    3.7923    0.6788   -0.1312 O   0  0  0  0  0  0  0  0  0  0  0  0
    3.5636   -1.4784    0.0701 O   0  0  0  0  0  0  0  0  0  0  0  0
    0.8703   -1.3705    0.0619 C   0  0  0  0  0  0  0  0  0  0  0  0
   -0.5000   -1.2552    0.0544 C   0  0  0  0  0  0  0  0  0  0  0  0
   -3.7174    4.6719   -0.4456 H   0  0  0  0  0  0  0  0  0  0  0  0
    1.7689    1.9221   -0.2424 H   0  0  0  0  0  0  0  0  0  0  0  0
    1.3725   -2.3246    0.1485 H   0  0  0  0  0  0  0  0  0  0  0  0
   -1.1521   -2.1203    0.1352 H   0  0  0  0  0  0  0  0  0  0  0  0
   -4.6970    3.8428   -0.3582 Cl  0  0  0  0  0  0  0  0  0  0  0  0
  1 11  2  0  0  0  0
  2  1  1  0  0  0  0
  3  2  1  0  0  0  0
  4  5  2  0  0  0  0
  4  1  1  0  0  0  0
  5  6  1  0  0  0  0
  6  7  1  0  0  0  0
  6 10  2  0  0  0  0
  7  9  2  0  0  0  0
  8  7  2  0  0  0  0
 10 14  1  0  0  0  0
 11 10  1  0  0  0  0
 11 15  1  0  0  0  0
 12 16  1  0  0  0  0
 13  5  1  0  0  0  0
M  RAD  3   2   2   3   3   4   2
M  END
