Coordinates from ORCA-job 4-NO2PhN2+~Cl-_B3LYPG-6-31G_dp-CH-Scan-d09-49-n800
 OpenBabel11261919153D

 16 15  0  0  0  0  0  0  0  0999 V2000
   -1.2853    0.0708   -0.0577 C   0  0  0  0  0  0  0  0  0  0  0  0
   -2.6986    0.1367   -0.0571 N   0  0  0  0  0  0  0  0  0  0  0  0
   -3.7309    0.5725   -0.0903 N   0  0  0  0  0  0  0  0  0  0  0  0
   -0.7044    1.3299   -0.1704 C   0  0  0  0  0  0  0  0  0  0  0  0
    0.7033    1.2914   -0.1733 C   0  0  0  0  0  0  0  0  0  0  0  0
    1.3685    0.0740   -0.0700 C   0  0  0  0  0  0  0  0  0  0  0  0
    2.8552    0.0668   -0.0761 N   0  0  0  0  0  0  0  0  0  0  0  0
    3.4247    1.1476   -0.1827 O   0  0  0  0  0  0  0  0  0  0  0  0
    3.4137   -1.0234    0.0263 O   0  0  0  0  0  0  0  0  0  0  0  0
    0.7202   -1.1686    0.0416 C   0  0  0  0  0  0  0  0  0  0  0  0
   -0.6615   -1.1861    0.0493 C   0  0  0  0  0  0  0  0  0  0  0  0
   -1.7805    2.5312   -0.2709 H   0  0  0  0  0  0  0  0  0  0  0  0
    1.2901    2.2000   -0.2556 H   0  0  0  0  0  0  0  0  0  0  0  0
    1.3087   -2.0731    0.1183 H   0  0  0  0  0  0  0  0  0  0  0  0
   -1.2255   -2.1093    0.1329 H   0  0  0  0  0  0  0  0  0  0  0  0
   -3.0509    3.3180   -0.3345 Cl  0  0  0  0  0  0  0  0  0  0  0  0
  1  2  1  0  0  0  0
  1 11  2  0  0  0  0
  3  2  1  0  0  0  0
  4  1  1  0  0  0  0
  5  4  2  0  0  0  0
  5  6  1  0  0  0  0
  6 10  2  0  0  0  0
  7  6  1  0  0  0  0
  7  9  2  0  0  0  0
  8  7  2  0  0  0  0
 10 11  1  0  0  0  0
 10 14  1  0  0  0  0
 11 15  1  0  0  0  0
 13  5  1  0  0  0  0
 16 12  1  0  0  0  0
M  RAD  3   2   2   3   3   4   2
M  END
