Coordinates from ORCA-job 4-NO2PhN2+~Cl-_B3LYPG-6-31G_dp-CH-Scan-d09-49-n800
 OpenBabel11261919153D

 16 15  0  0  0  0  0  0  0  0999 V2000
   -1.0940    0.0490   -0.0508 C   0  0  0  0  0  0  0  0  0  0  0  0
   -2.4965    0.1479   -0.0516 N   0  0  0  0  0  0  0  0  0  0  0  0
   -3.6017    0.3117   -0.0585 N   0  0  0  0  0  0  0  0  0  0  0  0
   -0.4865    1.3006   -0.1553 C   0  0  0  0  0  0  0  0  0  0  0  0
    0.9326    1.1463   -0.1502 C   0  0  0  0  0  0  0  0  0  0  0  0
    1.5353   -0.0987   -0.0544 C   0  0  0  0  0  0  0  0  0  0  0  0
    3.0200   -0.1894   -0.0557 N   0  0  0  0  0  0  0  0  0  0  0  0
    3.6554    0.8558   -0.1552 O   0  0  0  0  0  0  0  0  0  0  0  0
    3.5197   -1.3096    0.0441 O   0  0  0  0  0  0  0  0  0  0  0  0
    0.8247   -1.3161    0.0480 C   0  0  0  0  0  0  0  0  0  0  0  0
   -0.5493   -1.2586    0.0517 C   0  0  0  0  0  0  0  0  0  0  0  0
   -2.9122    4.0540   -0.4121 H   0  0  0  0  0  0  0  0  0  0  0  0
    1.5817    2.0144   -0.2228 H   0  0  0  0  0  0  0  0  0  0  0  0
    1.3672   -2.2491    0.1204 H   0  0  0  0  0  0  0  0  0  0  0  0
   -1.1637   -2.1510    0.1283 H   0  0  0  0  0  0  0  0  0  0  0  0
   -4.1859    3.8710   -0.3961 Cl  0  0  0  0  0  0  0  0  0  0  0  0
  1 11  2  0  0  0  0
  2  1  1  0  0  0  0
  3  2  1  0  0  0  0
  4  5  2  0  0  0  0
  4  1  1  0  0  0  0
  5  6  1  0  0  0  0
  6 10  2  0  0  0  0
  7  6  1  0  0  0  0
  7  9  2  0  0  0  0
  8  7  2  0  0  0  0
 10 11  1  0  0  0  0
 10 14  1  0  0  0  0
 11 15  1  0  0  0  0
 12 16  1  0  0  0  0
 13  5  1  0  0  0  0
M  RAD  3   2   2   3   3   4   2
M  END
