Coordinates from ORCA-job 4-NO2PhN2+~Cl-_B3LYPG-6-31G_dp-CH-Scan-d09-49-n800
 OpenBabel11261919153D

 16 15  0  0  0  0  0  0  0  0999 V2000
   -1.0712    0.0501   -0.0550 C   0  0  0  0  0  0  0  0  0  0  0  0
   -2.4733    0.1605   -0.0605 N   0  0  0  0  0  0  0  0  0  0  0  0
   -3.5770    0.3343   -0.0639 N   0  0  0  0  0  0  0  0  0  0  0  0
   -0.4549    1.2969   -0.1609 C   0  0  0  0  0  0  0  0  0  0  0  0
    0.9634    1.1311   -0.1523 C   0  0  0  0  0  0  0  0  0  0  0  0
    1.5563   -0.1181   -0.0517 C   0  0  0  0  0  0  0  0  0  0  0  0
    3.0402   -0.2203   -0.0487 N   0  0  0  0  0  0  0  0  0  0  0  0
    3.6842    0.8192   -0.1529 O   0  0  0  0  0  0  0  0  0  0  0  0
    3.5312   -1.3447    0.0491 O   0  0  0  0  0  0  0  0  0  0  0  0
    0.8360   -1.3299    0.0520 C   0  0  0  0  0  0  0  0  0  0  0  0
   -0.5374   -1.2616    0.0521 C   0  0  0  0  0  0  0  0  0  0  0  0
   -3.0769    4.2307   -0.4289 H   0  0  0  0  0  0  0  0  0  0  0  0
    1.6194    1.9940   -0.2255 H   0  0  0  0  0  0  0  0  0  0  0  0
    1.3712   -2.2669    0.1280 H   0  0  0  0  0  0  0  0  0  0  0  0
   -1.1590   -2.1491    0.1290 H   0  0  0  0  0  0  0  0  0  0  0  0
   -4.3053    3.8522   -0.3801 Cl  0  0  0  0  0  0  0  0  0  0  0  0
  1 11  2  0  0  0  0
  2  1  1  0  0  0  0
  3  2  1  0  0  0  0
  4  5  2  0  0  0  0
  4  1  1  0  0  0  0
  5  6  1  0  0  0  0
  6  7  1  0  0  0  0
  6 10  2  0  0  0  0
  7  9  2  0  0  0  0
  8  7  2  0  0  0  0
 10 11  1  0  0  0  0
 10 14  1  0  0  0  0
 11 15  1  0  0  0  0
 12 16  1  0  0  0  0
 13  5  1  0  0  0  0
M  RAD  3   2   2   3   3   4   2
M  END
