Coordinates from ORCA-job 4-NO2PhN2+~Cl-_B3LYPG-6-31G_dp-CH-Scan-d09-49-n800
 OpenBabel11261919153D

 16 15  0  0  0  0  0  0  0  0999 V2000
   -1.0601    0.0500   -0.0552 C   0  0  0  0  0  0  0  0  0  0  0  0
   -2.4620    0.1664   -0.0600 N   0  0  0  0  0  0  0  0  0  0  0  0
   -3.5650    0.3450   -0.0708 N   0  0  0  0  0  0  0  0  0  0  0  0
   -0.4398    1.2946   -0.1626 C   0  0  0  0  0  0  0  0  0  0  0  0
    0.9780    1.1237   -0.1539 C   0  0  0  0  0  0  0  0  0  0  0  0
    1.5664   -0.1276   -0.0522 C   0  0  0  0  0  0  0  0  0  0  0  0
    3.0500   -0.2351   -0.0494 N   0  0  0  0  0  0  0  0  0  0  0  0
    3.6978    0.8025   -0.1492 O   0  0  0  0  0  0  0  0  0  0  0  0
    3.5370   -1.3607    0.0539 O   0  0  0  0  0  0  0  0  0  0  0  0
    0.8419   -1.3367    0.0528 C   0  0  0  0  0  0  0  0  0  0  0  0
   -0.5314   -1.2636    0.0531 C   0  0  0  0  0  0  0  0  0  0  0  0
   -3.1579    4.3036   -0.4325 H   0  0  0  0  0  0  0  0  0  0  0  0
    1.6372    1.9841   -0.2281 H   0  0  0  0  0  0  0  0  0  0  0  0
    1.3737   -2.2755    0.1297 H   0  0  0  0  0  0  0  0  0  0  0  0
   -1.1561   -2.1488    0.1311 H   0  0  0  0  0  0  0  0  0  0  0  0
   -4.3629    3.8566   -0.3771 Cl  0  0  0  0  0  0  0  0  0  0  0  0
  1 11  2  0  0  0  0
  2  1  1  0  0  0  0
  3  2  1  0  0  0  0
  4  5  2  0  0  0  0
  4  1  1  0  0  0  0
  5  6  1  0  0  0  0
  6  7  1  0  0  0  0
  6 10  2  0  0  0  0
  7  9  2  0  0  0  0
  8  7  2  0  0  0  0
 10 11  1  0  0  0  0
 10 14  1  0  0  0  0
 11 15  1  0  0  0  0
 12 16  1  0  0  0  0
 13  5  1  0  0  0  0
M  RAD  3   2   2   3   3   4   2
M  END
