Coordinates from ORCA-job 4-NO2PhN2+~Cl-_B3LYPG-6-31G_dp-CH-Scan-d09-49-n800
 OpenBabel11261919153D

 16 15  0  0  0  0  0  0  0  0999 V2000
   -1.2839    0.0738   -0.0580 C   0  0  0  0  0  0  0  0  0  0  0  0
   -2.6840    0.1060   -0.0552 N   0  0  0  0  0  0  0  0  0  0  0  0
   -3.7874    0.2663   -0.0645 N   0  0  0  0  0  0  0  0  0  0  0  0
   -0.7132    1.3442   -0.1720 C   0  0  0  0  0  0  0  0  0  0  0  0
    0.7007    1.2859   -0.1730 C   0  0  0  0  0  0  0  0  0  0  0  0
    1.3659    0.0718   -0.0700 C   0  0  0  0  0  0  0  0  0  0  0  0
    2.8539    0.0616   -0.0761 N   0  0  0  0  0  0  0  0  0  0  0  0
    3.4263    1.1403   -0.1833 O   0  0  0  0  0  0  0  0  0  0  0  0
    3.4094   -1.0303    0.0285 O   0  0  0  0  0  0  0  0  0  0  0  0
    0.7185   -1.1746    0.0422 C   0  0  0  0  0  0  0  0  0  0  0  0
   -0.6591   -1.1920    0.0500 C   0  0  0  0  0  0  0  0  0  0  0  0
   -1.8358    2.6834   -0.2836 H   0  0  0  0  0  0  0  0  0  0  0  0
    1.2922    2.1921   -0.2552 H   0  0  0  0  0  0  0  0  0  0  0  0
    1.3077   -2.0787    0.1190 H   0  0  0  0  0  0  0  0  0  0  0  0
   -1.2225   -2.1159    0.1340 H   0  0  0  0  0  0  0  0  0  0  0  0
   -2.9419    3.5445   -0.3530 Cl  0  0  0  0  0  0  0  0  0  0  0  0
  1  2  1  0  0  0  0
  1 11  2  0  0  0  0
  3  2  1  0  0  0  0
  4  1  1  0  0  0  0
  5  4  2  0  0  0  0
  5  6  1  0  0  0  0
  6 10  2  0  0  0  0
  7  6  1  0  0  0  0
  7  9  2  0  0  0  0
  8  7  2  0  0  0  0
 10 11  1  0  0  0  0
 10 14  1  0  0  0  0
 11 15  1  0  0  0  0
 13  5  1  0  0  0  0
 16 12  1  0  0  0  0
M  RAD  3   2   2   3   3   4   2
M  END
