Coordinates from ORCA-job 4-NO2PhN2+~Cl-_B3LYPG-6-31G_dp-CH-Scan-d09-49-n800
 OpenBabel11261919153D

 16 15  0  0  0  0  0  0  0  0999 V2000
   -1.0226    0.0581   -0.0648 C   0  0  0  0  0  0  0  0  0  0  0  0
   -2.4228    0.1959   -0.0746 N   0  0  0  0  0  0  0  0  0  0  0  0
   -3.5228    0.3919   -0.0898 N   0  0  0  0  0  0  0  0  0  0  0  0
   -0.3844    1.2925   -0.1786 C   0  0  0  0  0  0  0  0  0  0  0  0
    1.0310    1.1011   -0.1637 C   0  0  0  0  0  0  0  0  0  0  0  0
    1.6007   -0.1577   -0.0503 C   0  0  0  0  0  0  0  0  0  0  0  0
    3.0825   -0.2869   -0.0404 N   0  0  0  0  0  0  0  0  0  0  0  0
    3.7459    0.7409   -0.1400 O   0  0  0  0  0  0  0  0  0  0  0  0
    3.5527   -1.4191    0.0692 O   0  0  0  0  0  0  0  0  0  0  0  0
    0.8581   -1.3555    0.0602 C   0  0  0  0  0  0  0  0  0  0  0  0
   -0.5139   -1.2626    0.0546 C   0  0  0  0  0  0  0  0  0  0  0  0
   -3.4393    4.5102   -0.4373 H   0  0  0  0  0  0  0  0  0  0  0  0
    1.7027    1.9514   -0.2421 H   0  0  0  0  0  0  0  0  0  0  0  0
    1.3759   -2.3014    0.1457 H   0  0  0  0  0  0  0  0  0  0  0  0
   -1.1518   -2.1380    0.1360 H   0  0  0  0  0  0  0  0  0  0  0  0
   -4.5449    3.8576   -0.3546 Cl  0  0  0  0  0  0  0  0  0  0  0  0
  1 11  2  0  0  0  0
  2  1  1  0  0  0  0
  3  2  1  0  0  0  0
  4  5  2  0  0  0  0
  4  1  1  0  0  0  0
  5  6  1  0  0  0  0
  6  7  1  0  0  0  0
  6 10  2  0  0  0  0
  7  9  2  0  0  0  0
  8  7  2  0  0  0  0
 10 14  1  0  0  0  0
 11 10  1  0  0  0  0
 11 15  1  0  0  0  0
 12 16  1  0  0  0  0
 13  5  1  0  0  0  0
M  RAD  3   2   2   3   3   4   2
M  END
