Coordinates from ORCA-job 4-NO2PhN2+~Cl-_B3LYPG-6-31G_dp-CH-Scan-d09-49-n800
 OpenBabel11261919153D

 16 15  0  0  0  0  0  0  0  0999 V2000
   -1.1509   -0.0149   -0.0416 C   0  0  0  0  0  0  0  0  0  0  0  0
   -2.5530    0.0300   -0.0372 N   0  0  0  0  0  0  0  0  0  0  0  0
   -3.6643    0.1445   -0.0396 N   0  0  0  0  0  0  0  0  0  0  0  0
   -0.5884    1.2589   -0.1465 C   0  0  0  0  0  0  0  0  0  0  0  0
    0.8346    1.1606   -0.1483 C   0  0  0  0  0  0  0  0  0  0  0  0
    1.4841   -0.0609   -0.0577 C   0  0  0  0  0  0  0  0  0  0  0  0
    2.9715   -0.0946   -0.0668 N   0  0  0  0  0  0  0  0  0  0  0  0
    3.5649    0.9740   -0.1717 O   0  0  0  0  0  0  0  0  0  0  0  0
    3.5133   -1.1950    0.0325 O   0  0  0  0  0  0  0  0  0  0  0  0
    0.8210   -1.3044    0.0461 C   0  0  0  0  0  0  0  0  0  0  0  0
   -0.5540   -1.3002    0.0564 C   0  0  0  0  0  0  0  0  0  0  0  0
   -2.6194    3.7567   -0.3832 H   0  0  0  0  0  0  0  0  0  0  0  0
    1.4488    2.0534   -0.2223 H   0  0  0  0  0  0  0  0  0  0  0  0
    1.3992   -2.2161    0.1145 H   0  0  0  0  0  0  0  0  0  0  0  0
   -1.1330   -2.2158    0.1344 H   0  0  0  0  0  0  0  0  0  0  0  0
   -3.8276    4.2022   -0.4393 Cl  0  0  0  0  0  0  0  0  0  0  0  0
  1  2  1  0  0  0  0
  1 11  2  0  0  0  0
  3  2  1  0  0  0  0
  4  1  1  0  0  0  0
  5  4  2  0  0  0  0
  5  6  1  0  0  0  0
  6 10  2  0  0  0  0
  7  6  1  0  0  0  0
  7  9  2  0  0  0  0
  8  7  2  0  0  0  0
 10 11  1  0  0  0  0
 10 14  1  0  0  0  0
 11 15  1  0  0  0  0
 13  5  1  0  0  0  0
 16 12  1  0  0  0  0
M  RAD  3   2   2   3   3   4   2
M  END
