Coordinates from ORCA-job 4-NO2PhN2+~Cl-_B3LYPG-6-31G_dp-CH-Scan-d09-49-n800
 OpenBabel11261919153D

 16 15  0  0  0  0  0  0  0  0999 V2000
   -1.2852    0.0708   -0.0577 C   0  0  0  0  0  0  0  0  0  0  0  0
   -2.6981    0.1357   -0.0571 N   0  0  0  0  0  0  0  0  0  0  0  0
   -3.7326    0.5659   -0.0897 N   0  0  0  0  0  0  0  0  0  0  0  0
   -0.7046    1.3303   -0.1704 C   0  0  0  0  0  0  0  0  0  0  0  0
    0.7032    1.2911   -0.1733 C   0  0  0  0  0  0  0  0  0  0  0  0
    1.3685    0.0738   -0.0700 C   0  0  0  0  0  0  0  0  0  0  0  0
    2.8552    0.0666   -0.0761 N   0  0  0  0  0  0  0  0  0  0  0  0
    3.4248    1.1473   -0.1828 O   0  0  0  0  0  0  0  0  0  0  0  0
    3.4138   -1.0236    0.0263 O   0  0  0  0  0  0  0  0  0  0  0  0
    0.7203   -1.1689    0.0416 C   0  0  0  0  0  0  0  0  0  0  0  0
   -0.6612   -1.1863    0.0493 C   0  0  0  0  0  0  0  0  0  0  0  0
   -1.7831    2.5361   -0.2713 H   0  0  0  0  0  0  0  0  0  0  0  0
    1.2902    2.1996   -0.2556 H   0  0  0  0  0  0  0  0  0  0  0  0
    1.3088   -2.0734    0.1183 H   0  0  0  0  0  0  0  0  0  0  0  0
   -1.2252   -2.1095    0.1330 H   0  0  0  0  0  0  0  0  0  0  0  0
   -3.0480    3.3227   -0.3349 Cl  0  0  0  0  0  0  0  0  0  0  0  0
  1  2  1  0  0  0  0
  1 11  2  0  0  0  0
  3  2  1  0  0  0  0
  4  1  1  0  0  0  0
  5  4  2  0  0  0  0
  5  6  1  0  0  0  0
  6 10  2  0  0  0  0
  7  6  1  0  0  0  0
  7  9  2  0  0  0  0
  8  7  2  0  0  0  0
 10 11  1  0  0  0  0
 10 14  1  0  0  0  0
 11 15  1  0  0  0  0
 13  5  1  0  0  0  0
 16 12  1  0  0  0  0
M  RAD  3   2   2   3   3   4   2
M  END
