Coordinates from ORCA-job 4-NO2PhN2+~Cl-_B3LYPG-6-31G_dp-CH-Scan-d09-49-n800
 OpenBabel11261919153D

 16 15  0  0  0  0  0  0  0  0999 V2000
   -1.0962    0.0489   -0.0507 C   0  0  0  0  0  0  0  0  0  0  0  0
   -2.4986    0.1467   -0.0520 N   0  0  0  0  0  0  0  0  0  0  0  0
   -3.6040    0.3096   -0.0595 N   0  0  0  0  0  0  0  0  0  0  0  0
   -0.4895    1.3010   -0.1554 C   0  0  0  0  0  0  0  0  0  0  0  0
    0.9297    1.1477   -0.1506 C   0  0  0  0  0  0  0  0  0  0  0  0
    1.5333   -0.0968   -0.0546 C   0  0  0  0  0  0  0  0  0  0  0  0
    3.0181   -0.1864   -0.0561 N   0  0  0  0  0  0  0  0  0  0  0  0
    3.6526    0.8592   -0.1559 O   0  0  0  0  0  0  0  0  0  0  0  0
    3.5186   -1.3063    0.0439 O   0  0  0  0  0  0  0  0  0  0  0  0
    0.8236   -1.3147    0.0482 C   0  0  0  0  0  0  0  0  0  0  0  0
   -0.5504   -1.2583    0.0520 C   0  0  0  0  0  0  0  0  0  0  0  0
   -2.8974    4.0368   -0.4095 H   0  0  0  0  0  0  0  0  0  0  0  0
    1.5782    2.0163   -0.2234 H   0  0  0  0  0  0  0  0  0  0  0  0
    1.3668   -2.2473    0.1207 H   0  0  0  0  0  0  0  0  0  0  0  0
   -1.1641   -2.1512    0.1287 H   0  0  0  0  0  0  0  0  0  0  0  0
   -4.1739    3.8732   -0.3962 Cl  0  0  0  0  0  0  0  0  0  0  0  0
  1 11  2  0  0  0  0
  2  1  1  0  0  0  0
  3  2  1  0  0  0  0
  4  5  2  0  0  0  0
  4  1  1  0  0  0  0
  5  6  1  0  0  0  0
  6 10  2  0  0  0  0
  7  6  1  0  0  0  0
  7  9  2  0  0  0  0
  8  7  2  0  0  0  0
 10 11  1  0  0  0  0
 10 14  1  0  0  0  0
 11 15  1  0  0  0  0
 12 16  1  0  0  0  0
 13  5  1  0  0  0  0
M  RAD  3   2   2   3   3   4   2
M  END
