Coordinates from ORCA-job 4-NO2PhN2+~Cl-_B3LYPG-6-31G_dp-CH-Scan-d09-49-n800
 OpenBabel11261919153D

 16 15  0  0  0  0  0  0  0  0999 V2000
   -1.0991    0.0493   -0.0509 C   0  0  0  0  0  0  0  0  0  0  0  0
   -2.5016    0.1455   -0.0521 N   0  0  0  0  0  0  0  0  0  0  0  0
   -3.6072    0.3066   -0.0594 N   0  0  0  0  0  0  0  0  0  0  0  0
   -0.4932    1.3017   -0.1558 C   0  0  0  0  0  0  0  0  0  0  0  0
    0.9261    1.1498   -0.1511 C   0  0  0  0  0  0  0  0  0  0  0  0
    1.5306   -0.0942   -0.0550 C   0  0  0  0  0  0  0  0  0  0  0  0
    3.0155   -0.1826   -0.0566 N   0  0  0  0  0  0  0  0  0  0  0  0
    3.6491    0.8636   -0.1562 O   0  0  0  0  0  0  0  0  0  0  0  0
    3.5170   -1.3019    0.0442 O   0  0  0  0  0  0  0  0  0  0  0  0
    0.8220   -1.3127    0.0480 C   0  0  0  0  0  0  0  0  0  0  0  0
   -0.5521   -1.2574    0.0520 C   0  0  0  0  0  0  0  0  0  0  0  0
   -2.8776    4.0119   -0.4063 H   0  0  0  0  0  0  0  0  0  0  0  0
    1.5737    2.0189   -0.2242 H   0  0  0  0  0  0  0  0  0  0  0  0
    1.3660   -2.2448    0.1207 H   0  0  0  0  0  0  0  0  0  0  0  0
   -1.1650   -2.1508    0.1288 H   0  0  0  0  0  0  0  0  0  0  0  0
   -4.1574    3.8757   -0.3966 Cl  0  0  0  0  0  0  0  0  0  0  0  0
  1 11  2  0  0  0  0
  2  1  1  0  0  0  0
  3  2  1  0  0  0  0
  4  5  2  0  0  0  0
  4  1  1  0  0  0  0
  5  6  1  0  0  0  0
  6 10  2  0  0  0  0
  7  6  1  0  0  0  0
  7  9  2  0  0  0  0
  8  7  2  0  0  0  0
 10 11  1  0  0  0  0
 10 14  1  0  0  0  0
 11 15  1  0  0  0  0
 12 16  1  0  0  0  0
 13  5  1  0  0  0  0
M  RAD  3   2   2   3   3   4   2
M  END
