Coordinates from ORCA-job 4-NO2PhN2+~Cl-_B3LYPG-6-31G_dp-CH-Scan-d09-49-n800
 OpenBabel11261919153D

 16 15  0  0  0  0  0  0  0  0999 V2000
   -1.2091    0.0267   -0.0529 C   0  0  0  0  0  0  0  0  0  0  0  0
   -2.6096    0.0608   -0.0504 N   0  0  0  0  0  0  0  0  0  0  0  0
   -3.7210    0.1676   -0.0558 N   0  0  0  0  0  0  0  0  0  0  0  0
   -0.6466    1.3009   -0.1658 C   0  0  0  0  0  0  0  0  0  0  0  0
    0.7745    1.2162   -0.1649 C   0  0  0  0  0  0  0  0  0  0  0  0
    1.4309   -0.0012   -0.0637 C   0  0  0  0  0  0  0  0  0  0  0  0
    2.9186   -0.0251   -0.0694 N   0  0  0  0  0  0  0  0  0  0  0  0
    3.5040    1.0471   -0.1785 O   0  0  0  0  0  0  0  0  0  0  0  0
    3.4663   -1.1216    0.0365 O   0  0  0  0  0  0  0  0  0  0  0  0
    0.7748   -1.2466    0.0474 C   0  0  0  0  0  0  0  0  0  0  0  0
   -0.6007   -1.2516    0.0548 C   0  0  0  0  0  0  0  0  0  0  0  0
   -2.2904    3.2785   -0.3349 H   0  0  0  0  0  0  0  0  0  0  0  0
    1.3810    2.1134   -0.2449 H   0  0  0  0  0  0  0  0  0  0  0  0
    1.3580   -2.1545    0.1234 H   0  0  0  0  0  0  0  0  0  0  0  0
   -1.1730   -2.1706    0.1380 H   0  0  0  0  0  0  0  0  0  0  0  0
   -3.4107    3.9383   -0.3892 Cl  0  0  0  0  0  0  0  0  0  0  0  0
  1  2  1  0  0  0  0
  1 11  2  0  0  0  0
  3  2  1  0  0  0  0
  4  5  2  0  0  0  0
  4  1  1  0  0  0  0
  5  6  1  0  0  0  0
  6 10  2  0  0  0  0
  7  6  1  0  0  0  0
  7  9  2  0  0  0  0
  8  7  2  0  0  0  0
 10 11  1  0  0  0  0
 10 14  1  0  0  0  0
 11 15  1  0  0  0  0
 13  5  1  0  0  0  0
 16 12  1  0  0  0  0
M  RAD  3   2   2   3   3   4   2
M  END
