Coordinates from ORCA-job 4-NO2PhN2+~Cl-_B3LYPG-6-31G_dp-CH-Scan-d09-49-n800
 OpenBabel11261919153D

 16 15  0  0  0  0  0  0  0  0999 V2000
   -1.2656    0.0587   -0.0562 C   0  0  0  0  0  0  0  0  0  0  0  0
   -2.6647    0.0827   -0.0529 N   0  0  0  0  0  0  0  0  0  0  0  0
   -3.7744    0.1972   -0.0583 N   0  0  0  0  0  0  0  0  0  0  0  0
   -0.7020    1.3333   -0.1700 C   0  0  0  0  0  0  0  0  0  0  0  0
    0.7155    1.2663   -0.1702 C   0  0  0  0  0  0  0  0  0  0  0  0
    1.3806    0.0529   -0.0680 C   0  0  0  0  0  0  0  0  0  0  0  0
    2.8686    0.0413   -0.0742 N   0  0  0  0  0  0  0  0  0  0  0  0
    3.4433    1.1188   -0.1826 O   0  0  0  0  0  0  0  0  0  0  0  0
    3.4237   -1.0512    0.0291 O   0  0  0  0  0  0  0  0  0  0  0  0
    0.7332   -1.1950    0.0438 C   0  0  0  0  0  0  0  0  0  0  0  0
   -0.6432   -1.2109    0.0516 C   0  0  0  0  0  0  0  0  0  0  0  0
   -1.9643    2.8615   -0.2990 H   0  0  0  0  0  0  0  0  0  0  0  0
    1.3110    2.1702   -0.2516 H   0  0  0  0  0  0  0  0  0  0  0  0
    1.3223   -2.0991    0.1201 H   0  0  0  0  0  0  0  0  0  0  0  0
   -1.2077   -2.1344    0.1352 H   0  0  0  0  0  0  0  0  0  0  0  0
   -3.0295    3.6862   -0.3671 Cl  0  0  0  0  0  0  0  0  0  0  0  0
  1  2  1  0  0  0  0
  1 11  2  0  0  0  0
  3  2  1  0  0  0  0
  4  1  1  0  0  0  0
  5  4  2  0  0  0  0
  5  6  1  0  0  0  0
  6 10  2  0  0  0  0
  7  6  1  0  0  0  0
  7  9  2  0  0  0  0
  8  7  2  0  0  0  0
 10 11  1  0  0  0  0
 10 14  1  0  0  0  0
 11 15  1  0  0  0  0
 13  5  1  0  0  0  0
 16 12  1  0  0  0  0
M  RAD  3   2   2   3   3   4   2
M  END
