Coordinates from ORCA-job 4-NO2PhN2+~Cl-_B3LYPG-6-31G_dp-CH-Scan-d09-49-n800
 OpenBabel11261919153D

 16 15  0  0  0  0  0  0  0  0999 V2000
   -1.0682    0.0495   -0.0546 C   0  0  0  0  0  0  0  0  0  0  0  0
   -2.4703    0.1619   -0.0591 N   0  0  0  0  0  0  0  0  0  0  0  0
   -3.5738    0.3374   -0.0684 N   0  0  0  0  0  0  0  0  0  0  0  0
   -0.4511    1.2958   -0.1616 C   0  0  0  0  0  0  0  0  0  0  0  0
    0.9672    1.1289   -0.1535 C   0  0  0  0  0  0  0  0  0  0  0  0
    1.5590   -0.1208   -0.0526 C   0  0  0  0  0  0  0  0  0  0  0  0
    3.0429   -0.2243   -0.0505 N   0  0  0  0  0  0  0  0  0  0  0  0
    3.6877    0.8150   -0.1506 O   0  0  0  0  0  0  0  0  0  0  0  0
    3.5329   -1.3487    0.0521 O   0  0  0  0  0  0  0  0  0  0  0  0
    0.8378   -1.3319    0.0520 C   0  0  0  0  0  0  0  0  0  0  0  0
   -0.5357   -1.2627    0.0528 C   0  0  0  0  0  0  0  0  0  0  0  0
   -3.0991    4.2534   -0.4289 H   0  0  0  0  0  0  0  0  0  0  0  0
    1.6239    1.9911   -0.2274 H   0  0  0  0  0  0  0  0  0  0  0  0
    1.3722   -2.2693    0.1282 H   0  0  0  0  0  0  0  0  0  0  0  0
   -1.1579   -2.1496    0.1306 H   0  0  0  0  0  0  0  0  0  0  0  0
   -4.3206    3.8527   -0.3789 Cl  0  0  0  0  0  0  0  0  0  0  0  0
  1 11  2  0  0  0  0
  2  1  1  0  0  0  0
  3  2  1  0  0  0  0
  4  5  2  0  0  0  0
  4  1  1  0  0  0  0
  5  6  1  0  0  0  0
  6  7  1  0  0  0  0
  6 10  2  0  0  0  0
  7  9  2  0  0  0  0
  8  7  2  0  0  0  0
 10 11  1  0  0  0  0
 10 14  1  0  0  0  0
 11 15  1  0  0  0  0
 12 16  1  0  0  0  0
 13  5  1  0  0  0  0
M  RAD  3   2   2   3   3   4   2
M  END
