Coordinates from ORCA-job 4-NO2PhN2+~Cl-_B3LYPG-6-31G_dp-CH-Scan-d09-49-n800
 OpenBabel11261919153D

 16 15  0  0  0  0  0  0  0  0999 V2000
   -1.2966    0.0768   -0.0585 C   0  0  0  0  0  0  0  0  0  0  0  0
   -2.7165    0.1301   -0.0565 N   0  0  0  0  0  0  0  0  0  0  0  0
   -3.6873    0.7122   -0.1022 N   0  0  0  0  0  0  0  0  0  0  0  0
   -0.6901    1.3221   -0.1701 C   0  0  0  0  0  0  0  0  0  0  0  0
    0.7109    1.2962   -0.1742 C   0  0  0  0  0  0  0  0  0  0  0  0
    1.3728    0.0746   -0.0702 C   0  0  0  0  0  0  0  0  0  0  0  0
    2.8579    0.0653   -0.0758 N   0  0  0  0  0  0  0  0  0  0  0  0
    3.4287    1.1458   -0.1822 O   0  0  0  0  0  0  0  0  0  0  0  0
    3.4154   -1.0252    0.0267 O   0  0  0  0  0  0  0  0  0  0  0  0
    0.7183   -1.1611    0.0409 C   0  0  0  0  0  0  0  0  0  0  0  0
   -0.6663   -1.1726    0.0479 C   0  0  0  0  0  0  0  0  0  0  0  0
   -1.7165    2.4739   -0.2661 H   0  0  0  0  0  0  0  0  0  0  0  0
    1.2959    2.2053   -0.2566 H   0  0  0  0  0  0  0  0  0  0  0  0
    1.3018   -2.0689    0.1183 H   0  0  0  0  0  0  0  0  0  0  0  0
   -1.2321   -2.0945    0.1315 H   0  0  0  0  0  0  0  0  0  0  0  0
   -3.1492    3.1985   -0.3231 Cl  0  0  0  0  0  0  0  0  0  0  0  0
  1  2  1  0  0  0  0
  1 11  2  0  0  0  0
  3  2  2  0  0  0  0
  4  1  1  0  0  0  0
  5  4  2  0  0  0  0
  5  6  1  0  0  0  0
  6 10  2  0  0  0  0
  7  6  1  0  0  0  0
  7  9  2  0  0  0  0
  8  7  2  0  0  0  0
 10 11  1  0  0  0  0
 10 14  1  0  0  0  0
 11 15  1  0  0  0  0
 13  5  1  0  0  0  0
 16 12  1  0  0  0  0
M  RAD  2   3   2   4   2
M  END
