Coordinates from ORCA-job 4-NO2PhN2+~Cl-_B3LYPG-6-31G_dp-CH-Scan-d09-49-n800
 OpenBabel11261919153D

 16 15  0  0  0  0  0  0  0  0999 V2000
   -1.2129    0.0291   -0.0531 C   0  0  0  0  0  0  0  0  0  0  0  0
   -2.6132    0.0624   -0.0505 N   0  0  0  0  0  0  0  0  0  0  0  0
   -3.7246    0.1691   -0.0553 N   0  0  0  0  0  0  0  0  0  0  0  0
   -0.6504    1.3034   -0.1660 C   0  0  0  0  0  0  0  0  0  0  0  0
    0.7705    1.2197   -0.1652 C   0  0  0  0  0  0  0  0  0  0  0  0
    1.4274    0.0025   -0.0640 C   0  0  0  0  0  0  0  0  0  0  0  0
    2.9152   -0.0206   -0.0697 N   0  0  0  0  0  0  0  0  0  0  0  0
    3.5000    1.0519   -0.1786 O   0  0  0  0  0  0  0  0  0  0  0  0
    3.4633   -1.1169    0.0359 O   0  0  0  0  0  0  0  0  0  0  0  0
    0.7720   -1.2431    0.0470 C   0  0  0  0  0  0  0  0  0  0  0  0
   -0.6036   -1.2487    0.0545 C   0  0  0  0  0  0  0  0  0  0  0  0
   -2.2691    3.2498   -0.3326 H   0  0  0  0  0  0  0  0  0  0  0  0
    1.3764    2.1172   -0.2451 H   0  0  0  0  0  0  0  0  0  0  0  0
    1.3555   -2.1507    0.1230 H   0  0  0  0  0  0  0  0  0  0  0  0
   -1.1754   -2.1681    0.1376 H   0  0  0  0  0  0  0  0  0  0  0  0
   -3.3840    3.9215   -0.3882 Cl  0  0  0  0  0  0  0  0  0  0  0  0
  1  2  1  0  0  0  0
  1 11  2  0  0  0  0
  3  2  1  0  0  0  0
  4  5  2  0  0  0  0
  4  1  1  0  0  0  0
  5  6  1  0  0  0  0
  6 10  2  0  0  0  0
  7  6  1  0  0  0  0
  7  9  2  0  0  0  0
  8  7  2  0  0  0  0
 10 11  1  0  0  0  0
 10 14  1  0  0  0  0
 11 15  1  0  0  0  0
 13  5  1  0  0  0  0
 16 12  1  0  0  0  0
M  RAD  3   2   2   3   3   4   2
M  END
