Coordinates from ORCA-job 4-NO2PhN2+~Cl-_B3LYPG-6-31G_dp-CH-Scan-d09-49-n800
 OpenBabel11261919153D

 16 15  0  0  0  0  0  0  0  0999 V2000
   -0.9972    0.0679   -0.0692 C   0  0  0  0  0  0  0  0  0  0  0  0
   -2.3958    0.2217   -0.0813 N   0  0  0  0  0  0  0  0  0  0  0  0
   -3.4937    0.4293   -0.1023 N   0  0  0  0  0  0  0  0  0  0  0  0
   -0.3452    1.2946   -0.1863 C   0  0  0  0  0  0  0  0  0  0  0  0
    1.0680    1.0875   -0.1682 C   0  0  0  0  0  0  0  0  0  0  0  0
    1.6233   -0.1772   -0.0487 C   0  0  0  0  0  0  0  0  0  0  0  0
    3.1036   -0.3230   -0.0350 N   0  0  0  0  0  0  0  0  0  0  0  0
    3.7787    0.6971   -0.1346 O   0  0  0  0  0  0  0  0  0  0  0  0
    3.5609   -1.4604    0.0751 O   0  0  0  0  0  0  0  0  0  0  0  0
    0.8671   -1.3663    0.0645 C   0  0  0  0  0  0  0  0  0  0  0  0
   -0.5037   -1.2581    0.0557 C   0  0  0  0  0  0  0  0  0  0  0  0
   -3.6376    4.6320   -0.4364 H   0  0  0  0  0  0  0  0  0  0  0  0
    1.7492    1.9299   -0.2488 H   0  0  0  0  0  0  0  0  0  0  0  0
    1.3741   -2.3176    0.1543 H   0  0  0  0  0  0  0  0  0  0  0  0
   -1.1515   -2.1261    0.1387 H   0  0  0  0  0  0  0  0  0  0  0  0
   -4.6531    3.8472   -0.3478 Cl  0  0  0  0  0  0  0  0  0  0  0  0
  1 11  2  0  0  0  0
  2  1  1  0  0  0  0
  3  2  1  0  0  0  0
  4  5  2  0  0  0  0
  4  1  1  0  0  0  0
  5  6  1  0  0  0  0
  6  7  1  0  0  0  0
  6 10  2  0  0  0  0
  7  9  2  0  0  0  0
  8  7  2  0  0  0  0
 10 14  1  0  0  0  0
 11 10  1  0  0  0  0
 11 15  1  0  0  0  0
 12 16  1  0  0  0  0
 13  5  1  0  0  0  0
M  RAD  3   2   2   3   3   4   2
M  END
