Coordinates from ORCA-job 4-NO2PhN2+~Cl-_B3LYPG-6-31G_dp-CH-Scan-d09-49-n800
 OpenBabel11261919153D

 16 15  0  0  0  0  0  0  0  0999 V2000
   -1.1139    0.0121   -0.0437 C   0  0  0  0  0  0  0  0  0  0  0  0
   -2.5167    0.0882   -0.0418 N   0  0  0  0  0  0  0  0  0  0  0  0
   -3.6246    0.2330   -0.0466 N   0  0  0  0  0  0  0  0  0  0  0  0
   -0.5282    1.2750   -0.1465 C   0  0  0  0  0  0  0  0  0  0  0  0
    0.8932    1.1465   -0.1458 C   0  0  0  0  0  0  0  0  0  0  0  0
    1.5178   -0.0879   -0.0552 C   0  0  0  0  0  0  0  0  0  0  0  0
    3.0041   -0.1521   -0.0613 N   0  0  0  0  0  0  0  0  0  0  0  0
    3.6200    0.9042   -0.1631 O   0  0  0  0  0  0  0  0  0  0  0  0
    3.5237   -1.2633    0.0372 O   0  0  0  0  0  0  0  0  0  0  0  0
    0.8295   -1.3180    0.0463 C   0  0  0  0  0  0  0  0  0  0  0  0
   -0.5453   -1.2856    0.0540 C   0  0  0  0  0  0  0  0  0  0  0  0
   -2.8016    3.9546   -0.4014 H   0  0  0  0  0  0  0  0  0  0  0  0
    1.5263    2.0263   -0.2178 H   0  0  0  0  0  0  0  0  0  0  0  0
    1.3890   -2.2413    0.1149 H   0  0  0  0  0  0  0  0  0  0  0  0
   -1.1433   -2.1891    0.1301 H   0  0  0  0  0  0  0  0  0  0  0  0
   -4.0831    4.0758   -0.4295 Cl  0  0  0  0  0  0  0  0  0  0  0  0
  1  2  1  0  0  0  0
  1 11  2  0  0  0  0
  3  2  1  0  0  0  0
  4  5  2  0  0  0  0
  4  1  1  0  0  0  0
  5  6  1  0  0  0  0
  6 10  2  0  0  0  0
  7  6  1  0  0  0  0
  7  9  2  0  0  0  0
  8  7  2  0  0  0  0
 10 11  1  0  0  0  0
 10 14  1  0  0  0  0
 11 15  1  0  0  0  0
 13  5  1  0  0  0  0
 16 12  1  0  0  0  0
M  RAD  3   2   2   3   3   4   2
M  END
