Coordinates from ORCA-job 4-NO2PhN2+~Cl-_B3LYPG-6-31G_dp-CH-Scan-d09-49-n800
 OpenBabel11261919153D

 16 15  0  0  0  0  0  0  0  0999 V2000
   -1.2750    0.0658   -0.0571 C   0  0  0  0  0  0  0  0  0  0  0  0
   -2.6742    0.0911   -0.0537 N   0  0  0  0  0  0  0  0  0  0  0  0
   -3.7825    0.2166   -0.0600 N   0  0  0  0  0  0  0  0  0  0  0  0
   -0.7088    1.3390   -0.1710 C   0  0  0  0  0  0  0  0  0  0  0  0
    0.7073    1.2756   -0.1716 C   0  0  0  0  0  0  0  0  0  0  0  0
    1.3728    0.0623   -0.0690 C   0  0  0  0  0  0  0  0  0  0  0  0
    2.8608    0.0517   -0.0753 N   0  0  0  0  0  0  0  0  0  0  0  0
    3.4343    1.1299   -0.1828 O   0  0  0  0  0  0  0  0  0  0  0  0
    3.4164   -1.0404    0.0288 O   0  0  0  0  0  0  0  0  0  0  0  0
    0.7258   -1.1853    0.0430 C   0  0  0  0  0  0  0  0  0  0  0  0
   -0.6510   -1.2021    0.0509 C   0  0  0  0  0  0  0  0  0  0  0  0
   -1.9033    2.7808   -0.2920 H   0  0  0  0  0  0  0  0  0  0  0  0
    1.3009    2.1806   -0.2534 H   0  0  0  0  0  0  0  0  0  0  0  0
    1.3152   -2.0892    0.1195 H   0  0  0  0  0  0  0  0  0  0  0  0
   -1.2147   -2.1260    0.1347 H   0  0  0  0  0  0  0  0  0  0  0  0
   -2.9772    3.6281   -0.3613 Cl  0  0  0  0  0  0  0  0  0  0  0  0
  1  2  1  0  0  0  0
  1 11  2  0  0  0  0
  3  2  1  0  0  0  0
  4  1  1  0  0  0  0
  5  4  2  0  0  0  0
  5  6  1  0  0  0  0
  6 10  2  0  0  0  0
  7  6  1  0  0  0  0
  7  9  2  0  0  0  0
  8  7  2  0  0  0  0
 10 11  1  0  0  0  0
 10 14  1  0  0  0  0
 11 15  1  0  0  0  0
 13  5  1  0  0  0  0
 16 12  1  0  0  0  0
M  RAD  3   2   2   3   3   4   2
M  END
