Coordinates from ORCA-job 4-NO2PhN2+~Cl-_B3LYPG-6-31G_dp-CH-Scan-d09-49-n800
 OpenBabel11261919153D

 16 15  0  0  0  0  0  0  0  0999 V2000
   -1.0214    0.0591   -0.0619 C   0  0  0  0  0  0  0  0  0  0  0  0
   -2.4217    0.1979   -0.0705 N   0  0  0  0  0  0  0  0  0  0  0  0
   -3.5217    0.3939   -0.0846 N   0  0  0  0  0  0  0  0  0  0  0  0
   -0.3825    1.2933   -0.1733 C   0  0  0  0  0  0  0  0  0  0  0  0
    1.0328    1.1010   -0.1596 C   0  0  0  0  0  0  0  0  0  0  0  0
    1.6017   -0.1584   -0.0499 C   0  0  0  0  0  0  0  0  0  0  0  0
    3.0834   -0.2887   -0.0417 N   0  0  0  0  0  0  0  0  0  0  0  0
    3.7474    0.7387   -0.1403 O   0  0  0  0  0  0  0  0  0  0  0  0
    3.5530   -1.4215    0.0644 O   0  0  0  0  0  0  0  0  0  0  0  0
    0.8584   -1.3561    0.0583 C   0  0  0  0  0  0  0  0  0  0  0  0
   -0.5136   -1.2622    0.0541 C   0  0  0  0  0  0  0  0  0  0  0  0
   -3.4477    4.5141   -0.4433 H   0  0  0  0  0  0  0  0  0  0  0  0
    1.7050    1.9510   -0.2364 H   0  0  0  0  0  0  0  0  0  0  0  0
    1.3756   -2.3025    0.1411 H   0  0  0  0  0  0  0  0  0  0  0  0
   -1.1519   -2.1374    0.1341 H   0  0  0  0  0  0  0  0  0  0  0  0
   -4.5500    3.8561   -0.3609 Cl  0  0  0  0  0  0  0  0  0  0  0  0
  1 11  2  0  0  0  0
  2  1  1  0  0  0  0
  3  2  1  0  0  0  0
  4  5  2  0  0  0  0
  4  1  1  0  0  0  0
  5  6  1  0  0  0  0
  6  7  1  0  0  0  0
  6 10  2  0  0  0  0
  7  9  2  0  0  0  0
  8  7  2  0  0  0  0
 10 14  1  0  0  0  0
 11 10  1  0  0  0  0
 11 15  1  0  0  0  0
 12 16  1  0  0  0  0
 13  5  1  0  0  0  0
M  RAD  3   2   2   3   3   4   2
M  END
