Coordinates from ORCA-job 4-NO2PhN2+~Cl-_B3LYPG-6-31G_dp-CH-Scan-d09-49-n800
 OpenBabel11261919153D

 16 15  0  0  0  0  0  0  0  0999 V2000
   -1.2532    0.0504   -0.0554 C   0  0  0  0  0  0  0  0  0  0  0  0
   -2.6525    0.0751   -0.0521 N   0  0  0  0  0  0  0  0  0  0  0  0
   -3.7631    0.1840   -0.0570 N   0  0  0  0  0  0  0  0  0  0  0  0
   -0.6914    1.3257   -0.1691 C   0  0  0  0  0  0  0  0  0  0  0  0
    0.7273    1.2547   -0.1692 C   0  0  0  0  0  0  0  0  0  0  0  0
    1.3912    0.0409   -0.0672 C   0  0  0  0  0  0  0  0  0  0  0  0
    2.8791    0.0273   -0.0733 N   0  0  0  0  0  0  0  0  0  0  0  0
    3.4558    1.1039   -0.1815 O   0  0  0  0  0  0  0  0  0  0  0  0
    3.4333   -1.0658    0.0310 O   0  0  0  0  0  0  0  0  0  0  0  0
    0.7427   -1.2070    0.0446 C   0  0  0  0  0  0  0  0  0  0  0  0
   -0.6334   -1.2211    0.0524 C   0  0  0  0  0  0  0  0  0  0  0  0
   -2.0395    2.9580   -0.3073 H   0  0  0  0  0  0  0  0  0  0  0  0
    1.3252    2.1571   -0.2503 H   0  0  0  0  0  0  0  0  0  0  0  0
    1.3310   -2.1116    0.1208 H   0  0  0  0  0  0  0  0  0  0  0  0
   -1.1992   -2.1440    0.1360 H   0  0  0  0  0  0  0  0  0  0  0  0
   -3.1065    3.7509   -0.3727 Cl  0  0  0  0  0  0  0  0  0  0  0  0
  1  2  1  0  0  0  0
  1 11  2  0  0  0  0
  3  2  1  0  0  0  0
  4  1  1  0  0  0  0
  5  4  2  0  0  0  0
  5  6  1  0  0  0  0
  6 10  2  0  0  0  0
  7  6  1  0  0  0  0
  7  9  2  0  0  0  0
  8  7  2  0  0  0  0
 10 11  1  0  0  0  0
 10 14  1  0  0  0  0
 11 15  1  0  0  0  0
 13  5  1  0  0  0  0
 16 12  1  0  0  0  0
M  RAD  3   2   2   3   3   4   2
M  END
