Coordinates from ORCA-job 4-NO2PhN2+~Cl-_B3LYPG-6-31G_dp-CH-Scan-d09-49-n800
 OpenBabel11261919153D

 16 15  0  0  0  0  0  0  0  0999 V2000
   -1.1686   -0.0088   -0.0461 C   0  0  0  0  0  0  0  0  0  0  0  0
   -2.5703    0.0295   -0.0422 N   0  0  0  0  0  0  0  0  0  0  0  0
   -3.6821    0.1374   -0.0529 N   0  0  0  0  0  0  0  0  0  0  0  0
   -0.6091    1.2661   -0.1565 C   0  0  0  0  0  0  0  0  0  0  0  0
    0.8137    1.1747   -0.1568 C   0  0  0  0  0  0  0  0  0  0  0  0
    1.4679   -0.0439   -0.0598 C   0  0  0  0  0  0  0  0  0  0  0  0
    2.9555   -0.0717   -0.0673 N   0  0  0  0  0  0  0  0  0  0  0  0
    3.5443    0.9990   -0.1757 O   0  0  0  0  0  0  0  0  0  0  0  0
    3.5013   -1.1695    0.0369 O   0  0  0  0  0  0  0  0  0  0  0  0
    0.8095   -1.2892    0.0490 C   0  0  0  0  0  0  0  0  0  0  0  0
   -0.5656   -1.2907    0.0580 C   0  0  0  0  0  0  0  0  0  0  0  0
   -2.5274    3.6185   -0.3663 H   0  0  0  0  0  0  0  0  0  0  0  0
    1.4239    2.0699   -0.2346 H   0  0  0  0  0  0  0  0  0  0  0  0
    1.3911   -2.1983    0.1222 H   0  0  0  0  0  0  0  0  0  0  0  0
   -1.1407   -2.2083    0.1397 H   0  0  0  0  0  0  0  0  0  0  0  0
   -3.6964    4.1637   -0.4178 Cl  0  0  0  0  0  0  0  0  0  0  0  0
  1  2  1  0  0  0  0
  1 11  2  0  0  0  0
  3  2  1  0  0  0  0
  4  1  1  0  0  0  0
  5  4  2  0  0  0  0
  5  6  1  0  0  0  0
  6 10  2  0  0  0  0
  7  6  1  0  0  0  0
  7  9  2  0  0  0  0
  8  7  2  0  0  0  0
 10 11  1  0  0  0  0
 10 14  1  0  0  0  0
 11 15  1  0  0  0  0
 13  5  1  0  0  0  0
 16 12  1  0  0  0  0
M  RAD  3   2   2   3   3   4   2
M  END
