Coordinates from ORCA-job 4-NO2PhN2+~Cl-_B3LYPG-6-31G_dp-CH-Scan-d09-49-n800
 OpenBabel11261919153D

 16 15  0  0  0  0  0  0  0  0999 V2000
   -1.0464    0.0518   -0.0583 C   0  0  0  0  0  0  0  0  0  0  0  0
   -2.4479    0.1752   -0.0649 N   0  0  0  0  0  0  0  0  0  0  0  0
   -3.5500    0.3590   -0.0765 N   0  0  0  0  0  0  0  0  0  0  0  0
   -0.4201    1.2930   -0.1677 C   0  0  0  0  0  0  0  0  0  0  0  0
    0.9969    1.1152   -0.1568 C   0  0  0  0  0  0  0  0  0  0  0  0
    1.5791   -0.1386   -0.0514 C   0  0  0  0  0  0  0  0  0  0  0  0
    3.0621   -0.2535   -0.0463 N   0  0  0  0  0  0  0  0  0  0  0  0
    3.7151    0.7807   -0.1464 O   0  0  0  0  0  0  0  0  0  0  0  0
    3.5435   -1.3814    0.0592 O   0  0  0  0  0  0  0  0  0  0  0  0
    0.8484   -1.3440    0.0553 C   0  0  0  0  0  0  0  0  0  0  0  0
   -0.5244   -1.2642    0.0536 C   0  0  0  0  0  0  0  0  0  0  0  0
   -3.2565    4.3778   -0.4349 H   0  0  0  0  0  0  0  0  0  0  0  0
    1.6603    1.9722   -0.2323 H   0  0  0  0  0  0  0  0  0  0  0  0
    1.3755   -2.2853    0.1350 H   0  0  0  0  0  0  0  0  0  0  0  0
   -1.1536   -2.1462    0.1327 H   0  0  0  0  0  0  0  0  0  0  0  0
   -4.4352    3.8667   -0.3705 Cl  0  0  0  0  0  0  0  0  0  0  0  0
  1 11  2  0  0  0  0
  2  1  1  0  0  0  0
  3  2  1  0  0  0  0
  4  5  2  0  0  0  0
  4  1  1  0  0  0  0
  5  6  1  0  0  0  0
  6  7  1  0  0  0  0
  6 10  2  0  0  0  0
  7  9  2  0  0  0  0
  8  7  2  0  0  0  0
 10 14  1  0  0  0  0
 11 10  1  0  0  0  0
 11 15  1  0  0  0  0
 12 16  1  0  0  0  0
 13  5  1  0  0  0  0
M  RAD  3   2   2   3   3   4   2
M  END
