Coordinates from ORCA-job 4-NO2PhN2+~Cl-_B3LYPG-6-31G_dp-CH-Scan-d09-49-n800
 OpenBabel11261919153D

 16 15  0  0  0  0  0  0  0  0999 V2000
   -1.0067    0.0648   -0.0694 C   0  0  0  0  0  0  0  0  0  0  0  0
   -2.4060    0.2125   -0.0818 N   0  0  0  0  0  0  0  0  0  0  0  0
   -3.5048    0.4150   -0.0998 N   0  0  0  0  0  0  0  0  0  0  0  0
   -0.3594    1.2941   -0.1862 C   0  0  0  0  0  0  0  0  0  0  0  0
    1.0545    1.0926   -0.1681 C   0  0  0  0  0  0  0  0  0  0  0  0
    1.6149   -0.1699   -0.0489 C   0  0  0  0  0  0  0  0  0  0  0  0
    3.0958   -0.3098   -0.0353 N   0  0  0  0  0  0  0  0  0  0  0  0
    3.7668    0.7128   -0.1370 O   0  0  0  0  0  0  0  0  0  0  0  0
    3.5576   -1.4454    0.0745 O   0  0  0  0  0  0  0  0  0  0  0  0
    0.8635   -1.3620    0.0641 C   0  0  0  0  0  0  0  0  0  0  0  0
   -0.5078   -1.2592    0.0553 C   0  0  0  0  0  0  0  0  0  0  0  0
   -3.5653    4.5899   -0.4362 H   0  0  0  0  0  0  0  0  0  0  0  0
    1.7324    1.9377   -0.2484 H   0  0  0  0  0  0  0  0  0  0  0  0
    1.3743   -2.3113    0.1537 H   0  0  0  0  0  0  0  0  0  0  0  0
   -1.1520   -2.1298    0.1382 H   0  0  0  0  0  0  0  0  0  0  0  0
   -4.6110    3.8463   -0.3451 Cl  0  0  0  0  0  0  0  0  0  0  0  0
  1 11  2  0  0  0  0
  2  1  1  0  0  0  0
  3  2  1  0  0  0  0
  4  5  2  0  0  0  0
  4  1  1  0  0  0  0
  5  6  1  0  0  0  0
  6  7  1  0  0  0  0
  6 10  2  0  0  0  0
  7  9  2  0  0  0  0
  8  7  2  0  0  0  0
 10 14  1  0  0  0  0
 11 10  1  0  0  0  0
 11 15  1  0  0  0  0
 12 16  1  0  0  0  0
 13  5  1  0  0  0  0
M  RAD  3   2   2   3   3   4   2
M  END
