Coordinates from ORCA-job 4-NO2PhN2+~Cl-_B3LYPG-6-31G_dp-CH-Scan-d09-49-n800
 OpenBabel11261919153D

 16 15  0  0  0  0  0  0  0  0999 V2000
   -1.0755    0.0499   -0.0543 C   0  0  0  0  0  0  0  0  0  0  0  0
   -2.4775    0.1583   -0.0587 N   0  0  0  0  0  0  0  0  0  0  0  0
   -3.5812    0.3304   -0.0614 N   0  0  0  0  0  0  0  0  0  0  0  0
   -0.4612    1.2975   -0.1601 C   0  0  0  0  0  0  0  0  0  0  0  0
    0.9573    1.1338   -0.1525 C   0  0  0  0  0  0  0  0  0  0  0  0
    1.5522   -0.1145   -0.0530 C   0  0  0  0  0  0  0  0  0  0  0  0
    3.0363   -0.2145   -0.0512 N   0  0  0  0  0  0  0  0  0  0  0  0
    3.6786    0.8265   -0.1515 O   0  0  0  0  0  0  0  0  0  0  0  0
    3.5291   -1.3377    0.0501 O   0  0  0  0  0  0  0  0  0  0  0  0
    0.8339   -1.3273    0.0506 C   0  0  0  0  0  0  0  0  0  0  0  0
   -0.5398   -1.2610    0.0517 C   0  0  0  0  0  0  0  0  0  0  0  0
   -3.0449    4.1984   -0.4260 H   0  0  0  0  0  0  0  0  0  0  0  0
    1.6120    1.9976   -0.2259 H   0  0  0  0  0  0  0  0  0  0  0  0
    1.3704   -2.2636    0.1259 H   0  0  0  0  0  0  0  0  0  0  0  0
   -1.1600   -2.1494    0.1287 H   0  0  0  0  0  0  0  0  0  0  0  0
   -4.2828    3.8543   -0.3829 Cl  0  0  0  0  0  0  0  0  0  0  0  0
  1 11  2  0  0  0  0
  2  1  1  0  0  0  0
  3  2  1  0  0  0  0
  4  5  2  0  0  0  0
  4  1  1  0  0  0  0
  5  6  1  0  0  0  0
  6  7  1  0  0  0  0
  6 10  2  0  0  0  0
  7  9  2  0  0  0  0
  8  7  2  0  0  0  0
 10 11  1  0  0  0  0
 10 14  1  0  0  0  0
 11 15  1  0  0  0  0
 12 16  1  0  0  0  0
 13  5  1  0  0  0  0
M  RAD  3   2   2   3   3   4   2
M  END
