Coordinates from ORCA-job 4-NO2PhN2+~Cl-_B3LYPG-6-31G_dp-CH-Scan-d09-49-n800
 OpenBabel11261919153D

 16 15  0  0  0  0  0  0  0  0999 V2000
   -1.1400   -0.0018   -0.0402 C   0  0  0  0  0  0  0  0  0  0  0  0
   -2.5423    0.0546   -0.0360 N   0  0  0  0  0  0  0  0  0  0  0  0
   -3.6525    0.1803   -0.0385 N   0  0  0  0  0  0  0  0  0  0  0  0
   -0.5688    1.2682   -0.1420 C   0  0  0  0  0  0  0  0  0  0  0  0
    0.8537    1.1588   -0.1439 C   0  0  0  0  0  0  0  0  0  0  0  0
    1.4941   -0.0678   -0.0564 C   0  0  0  0  0  0  0  0  0  0  0  0
    2.9811   -0.1128   -0.0654 N   0  0  0  0  0  0  0  0  0  0  0  0
    3.5828    0.9514   -0.1694 O   0  0  0  0  0  0  0  0  0  0  0  0
    3.5147   -1.2176    0.0294 O   0  0  0  0  0  0  0  0  0  0  0  0
    0.8216   -1.3065    0.0444 C   0  0  0  0  0  0  0  0  0  0  0  0
   -0.5534   -1.2919    0.0546 C   0  0  0  0  0  0  0  0  0  0  0  0
   -2.6652    3.8021   -0.3891 H   0  0  0  0  0  0  0  0  0  0  0  0
    1.4749    2.0470   -0.2157 H   0  0  0  0  0  0  0  0  0  0  0  0
    1.3929   -2.2227    0.1106 H   0  0  0  0  0  0  0  0  0  0  0  0
   -1.1394   -2.2032    0.1304 H   0  0  0  0  0  0  0  0  0  0  0  0
   -3.9073    4.1402   -0.4432 Cl  0  0  0  0  0  0  0  0  0  0  0  0
  1  2  1  0  0  0  0
  1 11  2  0  0  0  0
  3  2  1  0  0  0  0
  4  1  1  0  0  0  0
  5  4  2  0  0  0  0
  5  6  1  0  0  0  0
  6 10  2  0  0  0  0
  7  6  1  0  0  0  0
  7  9  2  0  0  0  0
  8  7  2  0  0  0  0
 10 11  1  0  0  0  0
 10 14  1  0  0  0  0
 11 15  1  0  0  0  0
 13  5  1  0  0  0  0
 16 12  1  0  0  0  0
M  RAD  3   2   2   3   3   4   2
M  END
