Coordinates from ORCA-job 4-NO2PhN2+~Cl-_B3LYPG-6-31G_dp-CH-Scan-d09-49-n800
 OpenBabel11261919153D

 16 15  0  0  0  0  0  0  0  0999 V2000
   -1.3238    0.1162   -0.0617 C   0  0  0  0  0  0  0  0  0  0  0  0
   -2.7376    0.1165   -0.0551 N   0  0  0  0  0  0  0  0  0  0  0  0
   -3.6860    0.7758   -0.1079 N   0  0  0  0  0  0  0  0  0  0  0  0
   -0.6481    1.3312   -0.1713 C   0  0  0  0  0  0  0  0  0  0  0  0
    0.7421    1.3090   -0.1757 C   0  0  0  0  0  0  0  0  0  0  0  0
    1.3871    0.0764   -0.0705 C   0  0  0  0  0  0  0  0  0  0  0  0
    2.8693    0.0493   -0.0744 N   0  0  0  0  0  0  0  0  0  0  0  0
    3.4519    1.1243   -0.1783 O   0  0  0  0  0  0  0  0  0  0  0  0
    3.4128   -1.0477    0.0269 O   0  0  0  0  0  0  0  0  0  0  0  0
    0.7079   -1.1399    0.0392 C   0  0  0  0  0  0  0  0  0  0  0  0
   -0.6801   -1.1248    0.0441 C   0  0  0  0  0  0  0  0  0  0  0  0
   -1.4972    2.4599   -0.2666 H   0  0  0  0  0  0  0  0  0  0  0  0
    1.3303    2.2146   -0.2580 H   0  0  0  0  0  0  0  0  0  0  0  0
    1.2716   -2.0604    0.1178 H   0  0  0  0  0  0  0  0  0  0  0  0
   -1.2573   -2.0392    0.1272 H   0  0  0  0  0  0  0  0  0  0  0  0
   -3.3960    3.0172   -0.3057 Cl  0  0  0  0  0  0  0  0  0  0  0  0
  1  2  1  0  0  0  0
  1 11  2  0  0  0  0
  3  2  2  0  0  0  0
  4  1  1  0  0  0  0
  5  4  2  0  0  0  0
  5  6  1  0  0  0  0
  6 10  2  0  0  0  0
  7  6  1  0  0  0  0
  7  9  2  0  0  0  0
  8  7  2  0  0  0  0
 10 11  1  0  0  0  0
 10 14  1  0  0  0  0
 11 15  1  0  0  0  0
 12  4  1  0  0  0  0
 13  5  1  0  0  0  0
M  RAD  2   3   2  16   2
M  END
