Coordinates from ORCA-job 4-NO2PhN2+~Cl-_B3LYPG-6-31G_dp-CH-Scan-d09-49-n800
 OpenBabel11261919153D

 16 15  0  0  0  0  0  0  0  0999 V2000
   -1.3195    0.1072   -0.0609 C   0  0  0  0  0  0  0  0  0  0  0  0
   -2.7348    0.1195   -0.0550 N   0  0  0  0  0  0  0  0  0  0  0  0
   -3.6803    0.7767   -0.1075 N   0  0  0  0  0  0  0  0  0  0  0  0
   -0.6551    1.3271   -0.1709 C   0  0  0  0  0  0  0  0  0  0  0  0
    0.7363    1.3070   -0.1755 C   0  0  0  0  0  0  0  0  0  0  0  0
    1.3844    0.0762   -0.0705 C   0  0  0  0  0  0  0  0  0  0  0  0
    2.8671    0.0528   -0.0746 N   0  0  0  0  0  0  0  0  0  0  0  0
    3.4472    1.1291   -0.1786 O   0  0  0  0  0  0  0  0  0  0  0  0
    3.4136   -1.0428    0.0265 O   0  0  0  0  0  0  0  0  0  0  0  0
    0.7101   -1.1437    0.0393 C   0  0  0  0  0  0  0  0  0  0  0  0
   -0.6777   -1.1345    0.0448 C   0  0  0  0  0  0  0  0  0  0  0  0
   -1.5403    2.4534   -0.2659 H   0  0  0  0  0  0  0  0  0  0  0  0
    1.3232    2.2136   -0.2577 H   0  0  0  0  0  0  0  0  0  0  0  0
    1.2779   -2.0617    0.1176 H   0  0  0  0  0  0  0  0  0  0  0  0
   -1.2521   -2.0507    0.1280 H   0  0  0  0  0  0  0  0  0  0  0  0
   -3.3533    3.0493   -0.3094 Cl  0  0  0  0  0  0  0  0  0  0  0  0
  1  2  1  0  0  0  0
  1 11  2  0  0  0  0
  3  2  2  0  0  0  0
  4  1  1  0  0  0  0
  5  4  2  0  0  0  0
  5  6  1  0  0  0  0
  6 10  2  0  0  0  0
  7  6  1  0  0  0  0
  7  9  2  0  0  0  0
  8  7  2  0  0  0  0
 10 11  1  0  0  0  0
 10 14  1  0  0  0  0
 11 15  1  0  0  0  0
 12  4  1  0  0  0  0
 13  5  1  0  0  0  0
M  RAD  2   3   2  16   2
M  END
