Coordinates from ORCA-job 4-NO2PhN2+~Cl-_B3LYPG-6-31G_dp-CH-Scan-d09-49-n800
 OpenBabel11261919153D

 16 15  0  0  0  0  0  0  0  0999 V2000
   -1.1305   -0.0006   -0.0409 C   0  0  0  0  0  0  0  0  0  0  0  0
   -2.5332    0.0613   -0.0369 N   0  0  0  0  0  0  0  0  0  0  0  0
   -3.6427    0.1929   -0.0395 N   0  0  0  0  0  0  0  0  0  0  0  0
   -0.5557    1.2674   -0.1432 C   0  0  0  0  0  0  0  0  0  0  0  0
    0.8665    1.1528   -0.1449 C   0  0  0  0  0  0  0  0  0  0  0  0
    1.5027   -0.0759   -0.0567 C   0  0  0  0  0  0  0  0  0  0  0  0
    2.9896   -0.1261   -0.0655 N   0  0  0  0  0  0  0  0  0  0  0  0
    3.5951    0.9362   -0.1659 O   0  0  0  0  0  0  0  0  0  0  0  0
    3.5195   -1.2323    0.0337 O   0  0  0  0  0  0  0  0  0  0  0  0
    0.8260   -1.3124    0.0446 C   0  0  0  0  0  0  0  0  0  0  0  0
   -0.5489   -1.2929    0.0546 C   0  0  0  0  0  0  0  0  0  0  0  0
   -2.7150    3.8665   -0.3918 H   0  0  0  0  0  0  0  0  0  0  0  0
    1.4910    2.0387   -0.2169 H   0  0  0  0  0  0  0  0  0  0  0  0
    1.3941   -2.2305    0.1113 H   0  0  0  0  0  0  0  0  0  0  0  0
   -1.1383   -2.2021    0.1306 H   0  0  0  0  0  0  0  0  0  0  0  0
   -3.9734    4.1353   -0.4428 Cl  0  0  0  0  0  0  0  0  0  0  0  0
  1  2  1  0  0  0  0
  1 11  2  0  0  0  0
  3  2  1  0  0  0  0
  4  1  1  0  0  0  0
  5  4  2  0  0  0  0
  5  6  1  0  0  0  0
  6 10  2  0  0  0  0
  7  6  1  0  0  0  0
  7  9  2  0  0  0  0
  8  7  2  0  0  0  0
 10 11  1  0  0  0  0
 10 14  1  0  0  0  0
 11 15  1  0  0  0  0
 13  5  1  0  0  0  0
 16 12  1  0  0  0  0
M  RAD  3   2   2   3   3   4   2
M  END
