Coordinates from ORCA-job 4-NO2PhN2+~Cl-_B3LYPG-6-31G_dp-CH-Scan-d09-49-n800
 OpenBabel11261919153D

 16 15  0  0  0  0  0  0  0  0999 V2000
   -1.2669    0.0597   -0.0563 C   0  0  0  0  0  0  0  0  0  0  0  0
   -2.6660    0.0838   -0.0526 N   0  0  0  0  0  0  0  0  0  0  0  0
   -3.7756    0.1994   -0.0577 N   0  0  0  0  0  0  0  0  0  0  0  0
   -0.7031    1.3342   -0.1703 C   0  0  0  0  0  0  0  0  0  0  0  0
    0.7143    1.2675   -0.1711 C   0  0  0  0  0  0  0  0  0  0  0  0
    1.3794    0.0542   -0.0690 C   0  0  0  0  0  0  0  0  0  0  0  0
    2.8674    0.0426   -0.0758 N   0  0  0  0  0  0  0  0  0  0  0  0
    3.4420    1.1206   -0.1807 O   0  0  0  0  0  0  0  0  0  0  0  0
    3.4227   -1.0495    0.0311 O   0  0  0  0  0  0  0  0  0  0  0  0
    0.7322   -1.1937    0.0431 C   0  0  0  0  0  0  0  0  0  0  0  0
   -0.6443   -1.2097    0.0514 C   0  0  0  0  0  0  0  0  0  0  0  0
   -1.9560    2.8507   -0.2981 H   0  0  0  0  0  0  0  0  0  0  0  0
    1.3096    2.1715   -0.2529 H   0  0  0  0  0  0  0  0  0  0  0  0
    1.3213   -2.0978    0.1193 H   0  0  0  0  0  0  0  0  0  0  0  0
   -1.2087   -2.1332    0.1353 H   0  0  0  0  0  0  0  0  0  0  0  0
   -3.0215    3.6781   -0.3660 Cl  0  0  0  0  0  0  0  0  0  0  0  0
  1  2  1  0  0  0  0
  1 11  2  0  0  0  0
  3  2  1  0  0  0  0
  4  1  1  0  0  0  0
  5  4  2  0  0  0  0
  5  6  1  0  0  0  0
  6 10  2  0  0  0  0
  7  6  1  0  0  0  0
  7  9  2  0  0  0  0
  8  7  2  0  0  0  0
 10 11  1  0  0  0  0
 10 14  1  0  0  0  0
 11 15  1  0  0  0  0
 13  5  1  0  0  0  0
 16 12  1  0  0  0  0
M  RAD  3   2   2   3   3   4   2
M  END
