Coordinates from ORCA-job 4-NO2PhN2+~Cl-_B3LYPG-6-31G_dp-CH-Scan-d09-49-n800
 OpenBabel11261919153D

 16 15  0  0  0  0  0  0  0  0999 V2000
   -1.0386    0.0535   -0.0610 C   0  0  0  0  0  0  0  0  0  0  0  0
   -2.4397    0.1816   -0.0695 N   0  0  0  0  0  0  0  0  0  0  0  0
   -3.5411    0.3693   -0.0838 N   0  0  0  0  0  0  0  0  0  0  0  0
   -0.4085    1.2924   -0.1724 C   0  0  0  0  0  0  0  0  0  0  0  0
    1.0080    1.1104   -0.1594 C   0  0  0  0  0  0  0  0  0  0  0  0
    1.5862   -0.1449   -0.0503 C   0  0  0  0  0  0  0  0  0  0  0  0
    3.0689   -0.2642   -0.0427 N   0  0  0  0  0  0  0  0  0  0  0  0
    3.7252    0.7676   -0.1464 O   0  0  0  0  0  0  0  0  0  0  0  0
    3.5467   -1.3937    0.0617 O   0  0  0  0  0  0  0  0  0  0  0  0
    0.8518   -1.3479    0.0580 C   0  0  0  0  0  0  0  0  0  0  0  0
   -0.5208   -1.2640    0.0544 C   0  0  0  0  0  0  0  0  0  0  0  0
   -3.3154    4.4218   -0.4340 H   0  0  0  0  0  0  0  0  0  0  0  0
    1.6740    1.9653   -0.2360 H   0  0  0  0  0  0  0  0  0  0  0  0
    1.3760   -2.2905    0.1405 H   0  0  0  0  0  0  0  0  0  0  0  0
   -1.1527   -2.1439    0.1345 H   0  0  0  0  0  0  0  0  0  0  0  0
   -4.4731    3.8655   -0.3639 Cl  0  0  0  0  0  0  0  0  0  0  0  0
  1 11  2  0  0  0  0
  2  1  1  0  0  0  0
  3  2  1  0  0  0  0
  4  5  2  0  0  0  0
  4  1  1  0  0  0  0
  5  6  1  0  0  0  0
  6  7  1  0  0  0  0
  6 10  2  0  0  0  0
  7  9  2  0  0  0  0
  8  7  2  0  0  0  0
 10 14  1  0  0  0  0
 11 10  1  0  0  0  0
 11 15  1  0  0  0  0
 12 16  1  0  0  0  0
 13  5  1  0  0  0  0
M  RAD  3   2   2   3   3   4   2
M  END
