Coordinates from ORCA-job 4-NO2PhN2+~Cl-_B3LYPG-6-31G_dp-CH-Scan-d09-49-n800
 OpenBabel11261919153D

 16 15  0  0  0  0  0  0  0  0999 V2000
   -1.2699    0.0618   -0.0566 C   0  0  0  0  0  0  0  0  0  0  0  0
   -2.6691    0.0862   -0.0532 N   0  0  0  0  0  0  0  0  0  0  0  0
   -3.7782    0.2051   -0.0589 N   0  0  0  0  0  0  0  0  0  0  0  0
   -0.7053    1.3358   -0.1704 C   0  0  0  0  0  0  0  0  0  0  0  0
    0.7116    1.2705   -0.1709 C   0  0  0  0  0  0  0  0  0  0  0  0
    1.3769    0.0572   -0.0685 C   0  0  0  0  0  0  0  0  0  0  0  0
    2.8649    0.0461   -0.0748 N   0  0  0  0  0  0  0  0  0  0  0  0
    3.4391    1.1240   -0.1825 O   0  0  0  0  0  0  0  0  0  0  0  0
    3.4204   -1.0461    0.0290 O   0  0  0  0  0  0  0  0  0  0  0  0
    0.7299   -1.1906    0.0434 C   0  0  0  0  0  0  0  0  0  0  0  0
   -0.6467   -1.2070    0.0513 C   0  0  0  0  0  0  0  0  0  0  0  0
   -1.9366    2.8249   -0.2959 H   0  0  0  0  0  0  0  0  0  0  0  0
    1.3062    2.1749   -0.2525 H   0  0  0  0  0  0  0  0  0  0  0  0
    1.3191   -2.0946    0.1198 H   0  0  0  0  0  0  0  0  0  0  0  0
   -1.2108   -2.1307    0.1350 H   0  0  0  0  0  0  0  0  0  0  0  0
   -3.0044    3.6608   -0.3646 Cl  0  0  0  0  0  0  0  0  0  0  0  0
  1  2  1  0  0  0  0
  1 11  2  0  0  0  0
  3  2  1  0  0  0  0
  4  1  1  0  0  0  0
  5  4  2  0  0  0  0
  5  6  1  0  0  0  0
  6 10  2  0  0  0  0
  7  6  1  0  0  0  0
  7  9  2  0  0  0  0
  8  7  2  0  0  0  0
 10 11  1  0  0  0  0
 10 14  1  0  0  0  0
 11 15  1  0  0  0  0
 13  5  1  0  0  0  0
 16 12  1  0  0  0  0
M  RAD  3   2   2   3   3   4   2
M  END
