Coordinates from ORCA-job 4-NO2PhN2+~Cl-_B3LYPG-6-31G_dp-CH-Scan-d09-49-n800
 OpenBabel11261919153D

 16 15  0  0  0  0  0  0  0  0999 V2000
   -1.0659    0.0497   -0.0547 C   0  0  0  0  0  0  0  0  0  0  0  0
   -2.4680    0.1633   -0.0592 N   0  0  0  0  0  0  0  0  0  0  0  0
   -3.5713    0.3397   -0.0695 N   0  0  0  0  0  0  0  0  0  0  0  0
   -0.4479    1.2955   -0.1619 C   0  0  0  0  0  0  0  0  0  0  0  0
    0.9702    1.1274   -0.1536 C   0  0  0  0  0  0  0  0  0  0  0  0
    1.5611   -0.1227   -0.0525 C   0  0  0  0  0  0  0  0  0  0  0  0
    3.0449   -0.2274   -0.0503 N   0  0  0  0  0  0  0  0  0  0  0  0
    3.6905    0.8115   -0.1502 O   0  0  0  0  0  0  0  0  0  0  0  0
    3.5341   -1.3521    0.0527 O   0  0  0  0  0  0  0  0  0  0  0  0
    0.8389   -1.3333    0.0522 C   0  0  0  0  0  0  0  0  0  0  0  0
   -0.5345   -1.2629    0.0529 C   0  0  0  0  0  0  0  0  0  0  0  0
   -3.1159    4.2688   -0.4301 H   0  0  0  0  0  0  0  0  0  0  0  0
    1.6276    1.9891   -0.2277 H   0  0  0  0  0  0  0  0  0  0  0  0
    1.3726   -2.2711    0.1286 H   0  0  0  0  0  0  0  0  0  0  0  0
   -1.1575   -2.1493    0.1308 H   0  0  0  0  0  0  0  0  0  0  0  0
   -4.3319    3.8522   -0.3780 Cl  0  0  0  0  0  0  0  0  0  0  0  0
  1 11  2  0  0  0  0
  2  1  1  0  0  0  0
  3  2  1  0  0  0  0
  4  5  2  0  0  0  0
  4  1  1  0  0  0  0
  5  6  1  0  0  0  0
  6  7  1  0  0  0  0
  6 10  2  0  0  0  0
  7  9  2  0  0  0  0
  8  7  2  0  0  0  0
 10 11  1  0  0  0  0
 10 14  1  0  0  0  0
 11 15  1  0  0  0  0
 12 16  1  0  0  0  0
 13  5  1  0  0  0  0
M  RAD  3   2   2   3   3   4   2
M  END
