Coordinates from ORCA-job 4-NO2PhN2+~Cl-_B3LYPG-6-31G_dp-CH-Scan-d09-49-n800
 OpenBabel11261919153D

 16 15  0  0  0  0  0  0  0  0999 V2000
   -1.1293    0.0000   -0.0409 C   0  0  0  0  0  0  0  0  0  0  0  0
   -2.5319    0.0631   -0.0372 N   0  0  0  0  0  0  0  0  0  0  0  0
   -3.6413    0.1958   -0.0399 N   0  0  0  0  0  0  0  0  0  0  0  0
   -0.5538    1.2678   -0.1429 C   0  0  0  0  0  0  0  0  0  0  0  0
    0.8684    1.1523   -0.1442 C   0  0  0  0  0  0  0  0  0  0  0  0
    1.5038   -0.0768   -0.0561 C   0  0  0  0  0  0  0  0  0  0  0  0
    2.9907   -0.1279   -0.0645 N   0  0  0  0  0  0  0  0  0  0  0  0
    3.5969    0.9339   -0.1667 O   0  0  0  0  0  0  0  0  0  0  0  0
    3.5199   -1.2346    0.0326 O   0  0  0  0  0  0  0  0  0  0  0  0
    0.8264   -1.3129    0.0448 C   0  0  0  0  0  0  0  0  0  0  0  0
   -0.5486   -1.2926    0.0545 C   0  0  0  0  0  0  0  0  0  0  0  0
   -2.7212    3.8731   -0.3928 H   0  0  0  0  0  0  0  0  0  0  0  0
    1.4934    2.0379   -0.2159 H   0  0  0  0  0  0  0  0  0  0  0  0
    1.3940   -2.2313    0.1115 H   0  0  0  0  0  0  0  0  0  0  0  0
   -1.1385   -2.2014    0.1303 H   0  0  0  0  0  0  0  0  0  0  0  0
   -3.9817    4.1319   -0.4429 Cl  0  0  0  0  0  0  0  0  0  0  0  0
  1  2  1  0  0  0  0
  1 11  2  0  0  0  0
  3  2  1  0  0  0  0
  4  1  1  0  0  0  0
  5  4  2  0  0  0  0
  5  6  1  0  0  0  0
  6 10  2  0  0  0  0
  7  6  1  0  0  0  0
  7  9  2  0  0  0  0
  8  7  2  0  0  0  0
 10 11  1  0  0  0  0
 10 14  1  0  0  0  0
 11 15  1  0  0  0  0
 13  5  1  0  0  0  0
 16 12  1  0  0  0  0
M  RAD  3   2   2   3   3   4   2
M  END
