Coordinates from ORCA-job 4-NO2PhN2+~Cl-_B3LYPG-6-31G_dp-CH-Scan-d09-49-n800
 OpenBabel11261919153D

 16 15  0  0  0  0  0  0  0  0999 V2000
   -1.0816    0.0498   -0.0526 C   0  0  0  0  0  0  0  0  0  0  0  0
   -2.4839    0.1548   -0.0565 N   0  0  0  0  0  0  0  0  0  0  0  0
   -3.5883    0.3240   -0.0619 N   0  0  0  0  0  0  0  0  0  0  0  0
   -0.4694    1.2988   -0.1573 C   0  0  0  0  0  0  0  0  0  0  0  0
    0.9494    1.1381   -0.1500 C   0  0  0  0  0  0  0  0  0  0  0  0
    1.5467   -0.1092   -0.0519 C   0  0  0  0  0  0  0  0  0  0  0  0
    3.0310   -0.2061   -0.0504 N   0  0  0  0  0  0  0  0  0  0  0  0
    3.6711    0.8356   -0.1564 O   0  0  0  0  0  0  0  0  0  0  0  0
    3.5259   -1.3290    0.0438 O   0  0  0  0  0  0  0  0  0  0  0  0
    0.8308   -1.3235    0.0506 C   0  0  0  0  0  0  0  0  0  0  0  0
   -0.5429   -1.2602    0.0521 C   0  0  0  0  0  0  0  0  0  0  0  0
   -3.0004    4.1526   -0.4217 H   0  0  0  0  0  0  0  0  0  0  0  0
    1.6023    2.0034   -0.2225 H   0  0  0  0  0  0  0  0  0  0  0  0
    1.3693   -2.2588    0.1248 H   0  0  0  0  0  0  0  0  0  0  0  0
   -1.1612   -2.1499    0.1283 H   0  0  0  0  0  0  0  0  0  0  0  0
   -4.2521    3.8581   -0.3889 Cl  0  0  0  0  0  0  0  0  0  0  0  0
  1 11  2  0  0  0  0
  2  1  1  0  0  0  0
  3  2  1  0  0  0  0
  4  5  2  0  0  0  0
  4  1  1  0  0  0  0
  5  6  1  0  0  0  0
  6  7  1  0  0  0  0
  6 10  2  0  0  0  0
  7  9  2  0  0  0  0
  8  7  2  0  0  0  0
 10 11  1  0  0  0  0
 10 14  1  0  0  0  0
 11 15  1  0  0  0  0
 12 16  1  0  0  0  0
 13  5  1  0  0  0  0
M  RAD  3   2   2   3   3   4   2
M  END
