Coordinates from ORCA-job 4-NO2PhN2+~Cl-_B3LYPG-6-31G_dp-CH-Scan-d09-49-n800
 OpenBabel11261919153D

 16 15  0  0  0  0  0  0  0  0999 V2000
   -0.9804    0.0761   -0.0651 C   0  0  0  0  0  0  0  0  0  0  0  0
   -2.3778    0.2411   -0.0747 N   0  0  0  0  0  0  0  0  0  0  0  0
   -3.4743    0.4560   -0.0979 N   0  0  0  0  0  0  0  0  0  0  0  0
   -0.3188    1.2978   -0.1797 C   0  0  0  0  0  0  0  0  0  0  0  0
    1.0928    1.0795   -0.1637 C   0  0  0  0  0  0  0  0  0  0  0  0
    1.6381   -0.1897   -0.0479 C   0  0  0  0  0  0  0  0  0  0  0  0
    3.1172   -0.3474   -0.0359 N   0  0  0  0  0  0  0  0  0  0  0  0
    3.8004    0.6678   -0.1308 O   0  0  0  0  0  0  0  0  0  0  0  0
    3.5656   -1.4888    0.0694 O   0  0  0  0  0  0  0  0  0  0  0  0
    0.8726   -1.3732    0.0627 C   0  0  0  0  0  0  0  0  0  0  0  0
   -0.4973   -1.2541    0.0555 C   0  0  0  0  0  0  0  0  0  0  0  0
   -3.7668    4.6986   -0.4408 H   0  0  0  0  0  0  0  0  0  0  0  0
    1.7805    1.9168   -0.2430 H   0  0  0  0  0  0  0  0  0  0  0  0
    1.3721   -2.3287    0.1494 H   0  0  0  0  0  0  0  0  0  0  0  0
   -1.1518   -2.1172    0.1367 H   0  0  0  0  0  0  0  0  0  0  0  0
   -4.7251    3.8439   -0.3646 Cl  0  0  0  0  0  0  0  0  0  0  0  0
  1 11  2  0  0  0  0
  2  1  1  0  0  0  0
  3  2  1  0  0  0  0
  4  5  2  0  0  0  0
  4  1  1  0  0  0  0
  5  6  1  0  0  0  0
  6  7  1  0  0  0  0
  6 10  2  0  0  0  0
  7  9  2  0  0  0  0
  8  7  2  0  0  0  0
 10 14  1  0  0  0  0
 11 10  1  0  0  0  0
 11 15  1  0  0  0  0
 12 16  1  0  0  0  0
 13  5  1  0  0  0  0
M  RAD  3   2   2   3   3   4   2
M  END
