Coordinates from ORCA-job 4-NO2PhN2+~Cl-_B3LYPG-6-31G_dp-CH-Scan-d09-49-n800
 OpenBabel11261919153D

 16 16  0  0  0  0  0  0  0  0999 V2000
   -1.3572    0.1964    0.0758 C   0  0  0  0  0  0  0  0  0  0  0  0
   -2.7645    0.1530    0.1952 N   0  0  0  0  0  0  0  0  0  0  0  0
   -3.7102    0.8073   -0.0505 N   0  0  0  0  0  0  0  0  0  0  0  0
   -0.6426    1.4030    0.0288 C   0  0  0  0  0  0  0  0  0  0  0  0
    0.7459    1.3440   -0.0455 C   0  0  0  0  0  0  0  0  0  0  0  0
    1.3739    0.1008   -0.0790 C   0  0  0  0  0  0  0  0  0  0  0  0
    2.8492    0.0525   -0.1661 N   0  0  0  0  0  0  0  0  0  0  0  0
    3.4477    1.1240   -0.2052 O   0  0  0  0  0  0  0  0  0  0  0  0
    3.3754   -1.0572   -0.1948 O   0  0  0  0  0  0  0  0  0  0  0  0
    0.6698   -1.1008   -0.0249 C   0  0  0  0  0  0  0  0  0  0  0  0
   -0.7148   -1.0493    0.0712 C   0  0  0  0  0  0  0  0  0  0  0  0
   -1.1477    2.3179    0.0435 H   0  0  0  0  0  0  0  0  0  0  0  0
    1.3449    2.2452   -0.0828 H   0  0  0  0  0  0  0  0  0  0  0  0
    1.2082   -2.0396   -0.0465 H   0  0  0  0  0  0  0  0  0  0  0  0
   -1.3077   -1.9547    0.1352 H   0  0  0  0  0  0  0  0  0  0  0  0
   -3.4234    2.6359   -1.0249 Cl  0  0  0  0  0  0  0  0  0  0  0  0
  1  2  1  0  0  0  0
  3  2  2  0  0  0  0
  4 12  1  0  0  0  0
  4  1  2  0  0  0  0
  5  4  1  0  0  0  0
  6  5  2  0  0  0  0
  6 10  1  0  0  0  0
  7  6  1  0  0  0  0
  8  7  2  0  0  0  0
  9  7  2  0  0  0  0
 10 11  2  0  0  0  0
 11  1  1  0  0  0  0
 11 15  1  0  0  0  0
 13  5  1  0  0  0  0
 14 10  1  0  0  0  0
 16  3  1  0  0  0  0
M  END
