Coordinates from ORCA-job 4-NO2PhN2+~Cl-_B3LYPG-6-31G_dp-CH-Scan-d09-49-n800
 OpenBabel11261919153D

 16 15  0  0  0  0  0  0  0  0999 V2000
   -0.9922    0.0708   -0.0672 C   0  0  0  0  0  0  0  0  0  0  0  0
   -2.3905    0.2281   -0.0782 N   0  0  0  0  0  0  0  0  0  0  0  0
   -3.4880    0.4380   -0.0944 N   0  0  0  0  0  0  0  0  0  0  0  0
   -0.3372    1.2961   -0.1821 C   0  0  0  0  0  0  0  0  0  0  0  0
    1.0755    1.0854   -0.1652 C   0  0  0  0  0  0  0  0  0  0  0  0
    1.6277   -0.1808   -0.0485 C   0  0  0  0  0  0  0  0  0  0  0  0
    3.1076   -0.3304   -0.0357 N   0  0  0  0  0  0  0  0  0  0  0  0
    3.7853    0.6882   -0.1326 O   0  0  0  0  0  0  0  0  0  0  0  0
    3.5622   -1.4692    0.0720 O   0  0  0  0  0  0  0  0  0  0  0  0
    0.8686   -1.3684    0.0625 C   0  0  0  0  0  0  0  0  0  0  0  0
   -0.5020   -1.2566    0.0545 C   0  0  0  0  0  0  0  0  0  0  0  0
   -3.6757    4.6505   -0.4432 H   0  0  0  0  0  0  0  0  0  0  0  0
    1.7588    1.9263   -0.2444 H   0  0  0  0  0  0  0  0  0  0  0  0
    1.3732   -2.3211    0.1500 H   0  0  0  0  0  0  0  0  0  0  0  0
   -1.1519   -2.1232    0.1360 H   0  0  0  0  0  0  0  0  0  0  0  0
   -4.6745    3.8448   -0.3539 Cl  0  0  0  0  0  0  0  0  0  0  0  0
  1 11  2  0  0  0  0
  2  1  1  0  0  0  0
  3  2  1  0  0  0  0
  4  5  2  0  0  0  0
  4  1  1  0  0  0  0
  5  6  1  0  0  0  0
  6  7  1  0  0  0  0
  6 10  2  0  0  0  0
  7  9  2  0  0  0  0
  8  7  2  0  0  0  0
 10 14  1  0  0  0  0
 11 10  1  0  0  0  0
 11 15  1  0  0  0  0
 12 16  1  0  0  0  0
 13  5  1  0  0  0  0
M  RAD  3   2   2   3   3   4   2
M  END
