Coordinates from ORCA-job 4-NO2PhN2+~Cl-_B3LYPG-6-31G_dp-CH-Scan-d09-49-n800
 OpenBabel11261919153D

 16 16  0  0  0  0  0  0  0  0999 V2000
   -1.3629    0.1981    0.0699 C   0  0  0  0  0  0  0  0  0  0  0  0
   -2.7708    0.1495    0.1805 N   0  0  0  0  0  0  0  0  0  0  0  0
   -3.7110    0.8153   -0.0599 N   0  0  0  0  0  0  0  0  0  0  0  0
   -0.6534    1.4087    0.0173 C   0  0  0  0  0  0  0  0  0  0  0  0
    0.7360    1.3479   -0.0541 C   0  0  0  0  0  0  0  0  0  0  0  0
    1.3681    0.1071   -0.0793 C   0  0  0  0  0  0  0  0  0  0  0  0
    2.8435    0.0624   -0.1635 N   0  0  0  0  0  0  0  0  0  0  0  0
    3.4391    1.1352   -0.2087 O   0  0  0  0  0  0  0  0  0  0  0  0
    3.3729   -1.0460   -0.1824 O   0  0  0  0  0  0  0  0  0  0  0  0
    0.6668   -1.0957   -0.0196 C   0  0  0  0  0  0  0  0  0  0  0  0
   -0.7182   -1.0460    0.0725 C   0  0  0  0  0  0  0  0  0  0  0  0
   -1.0946    2.2160    0.0292 H   0  0  0  0  0  0  0  0  0  0  0  0
    1.3325    2.2508   -0.0958 H   0  0  0  0  0  0  0  0  0  0  0  0
    1.2072   -2.0335   -0.0347 H   0  0  0  0  0  0  0  0  0  0  0  0
   -1.3098   -1.9519    0.1387 H   0  0  0  0  0  0  0  0  0  0  0  0
   -3.3984    2.6604   -0.9802 Cl  0  0  0  0  0  0  0  0  0  0  0  0
  1 11  1  0  0  0  0
  1  2  1  0  0  0  0
  3  2  2  0  0  0  0
  4 12  1  0  0  0  0
  4  1  2  0  0  0  0
  5  4  1  0  0  0  0
  6  5  2  0  0  0  0
  6 10  1  0  0  0  0
  7  6  1  0  0  0  0
  8  7  2  0  0  0  0
  9  7  2  0  0  0  0
 10 11  2  0  0  0  0
 11 15  1  0  0  0  0
 13  5  1  0  0  0  0
 14 10  1  0  0  0  0
 16  3  1  0  0  0  0
M  END
