Coordinates from ORCA-job 4-NO2PhN2+~Cl-_B3LYPG-6-31G_dp-CH-Scan-d09-49-n800
 OpenBabel11261919153D

 16 15  0  0  0  0  0  0  0  0999 V2000
   -1.2410    0.0427   -0.0547 C   0  0  0  0  0  0  0  0  0  0  0  0
   -2.6405    0.0694   -0.0516 N   0  0  0  0  0  0  0  0  0  0  0  0
   -3.7515    0.1760   -0.0563 N   0  0  0  0  0  0  0  0  0  0  0  0
   -0.6799    1.3182   -0.1682 C   0  0  0  0  0  0  0  0  0  0  0  0
    0.7398    1.2435   -0.1680 C   0  0  0  0  0  0  0  0  0  0  0  0
    1.4020    0.0290   -0.0662 C   0  0  0  0  0  0  0  0  0  0  0  0
    2.8899    0.0131   -0.0722 N   0  0  0  0  0  0  0  0  0  0  0  0
    3.4687    1.0887   -0.1807 O   0  0  0  0  0  0  0  0  0  0  0  0
    3.4427   -1.0807    0.0326 O   0  0  0  0  0  0  0  0  0  0  0  0
    0.7520   -1.2186    0.0454 C   0  0  0  0  0  0  0  0  0  0  0  0
   -0.6239   -1.2306    0.0531 C   0  0  0  0  0  0  0  0  0  0  0  0
   -2.1115    3.0500   -0.3151 H   0  0  0  0  0  0  0  0  0  0  0  0
    1.3399    2.1446   -0.2488 H   0  0  0  0  0  0  0  0  0  0  0  0
    1.3392   -2.1238    0.1217 H   0  0  0  0  0  0  0  0  0  0  0  0
   -1.1912   -2.1526    0.1366 H   0  0  0  0  0  0  0  0  0  0  0  0
   -3.1879    3.8097   -0.3777 Cl  0  0  0  0  0  0  0  0  0  0  0  0
  1  2  1  0  0  0  0
  1 11  2  0  0  0  0
  3  2  1  0  0  0  0
  4  5  2  0  0  0  0
  4  1  1  0  0  0  0
  5  6  1  0  0  0  0
  6 10  2  0  0  0  0
  7  6  1  0  0  0  0
  7  9  2  0  0  0  0
  8  7  2  0  0  0  0
 10 11  1  0  0  0  0
 10 14  1  0  0  0  0
 11 15  1  0  0  0  0
 13  5  1  0  0  0  0
 16 12  1  0  0  0  0
M  RAD  3   2   2   3   3   4   2
M  END
