Coordinates from ORCA-job 4-NO2PhN2+~Cl-_B3LYPG-6-31G_dp-CH-Scan-d09-49-n800
 OpenBabel11261919153D

 16 15  0  0  0  0  0  0  0  0999 V2000
   -1.2638    0.0575   -0.0561 C   0  0  0  0  0  0  0  0  0  0  0  0
   -2.6629    0.0814   -0.0527 N   0  0  0  0  0  0  0  0  0  0  0  0
   -3.7728    0.1947   -0.0579 N   0  0  0  0  0  0  0  0  0  0  0  0
   -0.7005    1.3322   -0.1699 C   0  0  0  0  0  0  0  0  0  0  0  0
    0.7172    1.2645   -0.1702 C   0  0  0  0  0  0  0  0  0  0  0  0
    1.3821    0.0512   -0.0680 C   0  0  0  0  0  0  0  0  0  0  0  0
    2.8701    0.0392   -0.0743 N   0  0  0  0  0  0  0  0  0  0  0  0
    3.4451    1.1167   -0.1821 O   0  0  0  0  0  0  0  0  0  0  0  0
    3.4251   -1.0533    0.0297 O   0  0  0  0  0  0  0  0  0  0  0  0
    0.7346   -1.1968    0.0438 C   0  0  0  0  0  0  0  0  0  0  0  0
   -0.6417   -1.2124    0.0517 C   0  0  0  0  0  0  0  0  0  0  0  0
   -1.9754    2.8760   -0.3003 H   0  0  0  0  0  0  0  0  0  0  0  0
    1.3131    2.1682   -0.2516 H   0  0  0  0  0  0  0  0  0  0  0  0
    1.3236   -2.1010    0.1201 H   0  0  0  0  0  0  0  0  0  0  0  0
   -1.2064   -2.1358    0.1354 H   0  0  0  0  0  0  0  0  0  0  0  0
   -3.0403    3.6961   -0.3679 Cl  0  0  0  0  0  0  0  0  0  0  0  0
  1  2  1  0  0  0  0
  1 11  2  0  0  0  0
  3  2  1  0  0  0  0
  4  1  1  0  0  0  0
  5  4  2  0  0  0  0
  5  6  1  0  0  0  0
  6 10  2  0  0  0  0
  7  6  1  0  0  0  0
  7  9  2  0  0  0  0
  8  7  2  0  0  0  0
 10 11  1  0  0  0  0
 10 14  1  0  0  0  0
 11 15  1  0  0  0  0
 13  5  1  0  0  0  0
 16 12  1  0  0  0  0
M  RAD  3   2   2   3   3   4   2
M  END
