Coordinates from ORCA-job 4-NO2PhN2+~Cl-_B3LYPG-6-31G_dp-CH-Scan-d09-49-n800
 OpenBabel11261919153D

 16 15  0  0  0  0  0  0  0  0999 V2000
   -1.0785    0.0499   -0.0531 C   0  0  0  0  0  0  0  0  0  0  0  0
   -2.4808    0.1566   -0.0561 N   0  0  0  0  0  0  0  0  0  0  0  0
   -3.5851    0.3266   -0.0652 N   0  0  0  0  0  0  0  0  0  0  0  0
   -0.4651    1.2982   -0.1592 C   0  0  0  0  0  0  0  0  0  0  0  0
    0.9535    1.1360   -0.1524 C   0  0  0  0  0  0  0  0  0  0  0  0
    1.5495   -0.1119   -0.0534 C   0  0  0  0  0  0  0  0  0  0  0  0
    3.0337   -0.2105   -0.0527 N   0  0  0  0  0  0  0  0  0  0  0  0
    3.6749    0.8311   -0.1525 O   0  0  0  0  0  0  0  0  0  0  0  0
    3.5275   -1.3333    0.0491 O   0  0  0  0  0  0  0  0  0  0  0  0
    0.8323   -1.3254    0.0505 C   0  0  0  0  0  0  0  0  0  0  0  0
   -0.5413   -1.2606    0.0525 C   0  0  0  0  0  0  0  0  0  0  0  0
   -3.0223    4.1760   -0.4217 H   0  0  0  0  0  0  0  0  0  0  0  0
    1.6074    2.0004   -0.2260 H   0  0  0  0  0  0  0  0  0  0  0  0
    1.3698   -2.2612    0.1253 H   0  0  0  0  0  0  0  0  0  0  0  0
   -1.1606   -2.1496    0.1299 H   0  0  0  0  0  0  0  0  0  0  0  0
   -4.2679    3.8560   -0.3853 Cl  0  0  0  0  0  0  0  0  0  0  0  0
  1 11  2  0  0  0  0
  2  1  1  0  0  0  0
  3  2  1  0  0  0  0
  4  5  2  0  0  0  0
  4  1  1  0  0  0  0
  5  6  1  0  0  0  0
  6  7  1  0  0  0  0
  6 10  2  0  0  0  0
  7  9  2  0  0  0  0
  8  7  2  0  0  0  0
 10 11  1  0  0  0  0
 10 14  1  0  0  0  0
 11 15  1  0  0  0  0
 12 16  1  0  0  0  0
 13  5  1  0  0  0  0
M  RAD  3   2   2   3   3   4   2
M  END
