Coordinates from ORCA-job 4-NO2PhN2+~Cl-_B3LYPG-6-31G_dp-CH-Scan-d09-49-n800
 OpenBabel11261919153D

 16 15  0  0  0  0  0  0  0  0999 V2000
   -1.1164    0.0102   -0.0429 C   0  0  0  0  0  0  0  0  0  0  0  0
   -2.5192    0.0833   -0.0402 N   0  0  0  0  0  0  0  0  0  0  0  0
   -3.6276    0.2246   -0.0480 N   0  0  0  0  0  0  0  0  0  0  0  0
   -0.5322    1.2734   -0.1458 C   0  0  0  0  0  0  0  0  0  0  0  0
    0.8893    1.1475   -0.1455 C   0  0  0  0  0  0  0  0  0  0  0  0
    1.5157   -0.0861   -0.0552 C   0  0  0  0  0  0  0  0  0  0  0  0
    3.0021   -0.1482   -0.0618 N   0  0  0  0  0  0  0  0  0  0  0  0
    3.6164    0.9090   -0.1644 O   0  0  0  0  0  0  0  0  0  0  0  0
    3.5232   -1.2588    0.0360 O   0  0  0  0  0  0  0  0  0  0  0  0
    0.8291   -1.3172    0.0463 C   0  0  0  0  0  0  0  0  0  0  0  0
   -0.5457   -1.2868    0.0546 C   0  0  0  0  0  0  0  0  0  0  0  0
   -2.7889    3.9410   -0.3990 H   0  0  0  0  0  0  0  0  0  0  0  0
    1.5210    2.0283   -0.2176 H   0  0  0  0  0  0  0  0  0  0  0  0
    1.3899   -2.2397    0.1147 H   0  0  0  0  0  0  0  0  0  0  0  0
   -1.1423   -2.1912    0.1308 H   0  0  0  0  0  0  0  0  0  0  0  0
   -4.0675    4.0891   -0.4321 Cl  0  0  0  0  0  0  0  0  0  0  0  0
  1  2  1  0  0  0  0
  1 11  2  0  0  0  0
  3  2  1  0  0  0  0
  4  5  2  0  0  0  0
  4  1  1  0  0  0  0
  5  6  1  0  0  0  0
  6 10  2  0  0  0  0
  7  6  1  0  0  0  0
  7  9  2  0  0  0  0
  8  7  2  0  0  0  0
 10 11  1  0  0  0  0
 10 14  1  0  0  0  0
 11 15  1  0  0  0  0
 13  5  1  0  0  0  0
 16 12  1  0  0  0  0
M  RAD  3   2   2   3   3   4   2
M  END
