Coordinates from ORCA-job 4-NO2PhN2+~Cl-_B3LYPG-6-31G_dp-CH-Scan-d09-49-n800
 OpenBabel11261919153D

 16 15  0  0  0  0  0  0  0  0999 V2000
   -1.2907    0.0727   -0.0581 C   0  0  0  0  0  0  0  0  0  0  0  0
   -2.7093    0.1338   -0.0568 N   0  0  0  0  0  0  0  0  0  0  0  0
   -3.7014    0.6681   -0.0984 N   0  0  0  0  0  0  0  0  0  0  0  0
   -0.6970    1.3242   -0.1702 C   0  0  0  0  0  0  0  0  0  0  0  0
    0.7069    1.2936   -0.1738 C   0  0  0  0  0  0  0  0  0  0  0  0
    1.3709    0.0741   -0.0701 C   0  0  0  0  0  0  0  0  0  0  0  0
    2.8567    0.0665   -0.0760 N   0  0  0  0  0  0  0  0  0  0  0  0
    3.4263    1.1474   -0.1824 O   0  0  0  0  0  0  0  0  0  0  0  0
    3.4153   -1.0236    0.0264 O   0  0  0  0  0  0  0  0  0  0  0  0
    0.7198   -1.1650    0.0412 C   0  0  0  0  0  0  0  0  0  0  0  0
   -0.6637   -1.1797    0.0486 C   0  0  0  0  0  0  0  0  0  0  0  0
   -1.7490    2.4934   -0.2677 H   0  0  0  0  0  0  0  0  0  0  0  0
    1.2925    2.2027   -0.2562 H   0  0  0  0  0  0  0  0  0  0  0  0
    1.3059   -2.0710    0.1183 H   0  0  0  0  0  0  0  0  0  0  0  0
   -1.2285   -2.1023    0.1322 H   0  0  0  0  0  0  0  0  0  0  0  0
   -3.1075    3.2436   -0.3275 Cl  0  0  0  0  0  0  0  0  0  0  0  0
  1  2  1  0  0  0  0
  1 11  2  0  0  0  0
  3  2  2  0  0  0  0
  4  1  1  0  0  0  0
  5  4  2  0  0  0  0
  5  6  1  0  0  0  0
  6 10  2  0  0  0  0
  7  6  1  0  0  0  0
  7  9  2  0  0  0  0
  8  7  2  0  0  0  0
 10 11  1  0  0  0  0
 10 14  1  0  0  0  0
 11 15  1  0  0  0  0
 13  5  1  0  0  0  0
 16 12  1  0  0  0  0
M  RAD  2   3   2   4   2
M  END
