Coordinates from ORCA-job 4-NO2PhN2+~Cl-_B3LYPG-6-31G_dp-CH-Scan-d09-49-n800
 OpenBabel11261919153D

 16 16  0  0  0  0  0  0  0  0999 V2000
   -1.3471    0.1655   -0.0630 C   0  0  0  0  0  0  0  0  0  0  0  0
   -2.7570    0.1036   -0.0491 N   0  0  0  0  0  0  0  0  0  0  0  0
   -3.7232    0.7634   -0.1059 N   0  0  0  0  0  0  0  0  0  0  0  0
   -0.6369    1.3702   -0.1705 C   0  0  0  0  0  0  0  0  0  0  0  0
    0.7531    1.3231   -0.1743 C   0  0  0  0  0  0  0  0  0  0  0  0
    1.3885    0.0869   -0.0716 C   0  0  0  0  0  0  0  0  0  0  0  0
    2.8681    0.0468   -0.0762 N   0  0  0  0  0  0  0  0  0  0  0  0
    3.4606    1.1171   -0.1779 O   0  0  0  0  0  0  0  0  0  0  0  0
    3.4012   -1.0553    0.0224 O   0  0  0  0  0  0  0  0  0  0  0  0
    0.6914   -1.1156    0.0361 C   0  0  0  0  0  0  0  0  0  0  0  0
   -0.6966   -1.0733    0.0405 C   0  0  0  0  0  0  0  0  0  0  0  0
   -1.2253    2.3726   -0.2540 H   0  0  0  0  0  0  0  0  0  0  0  0
    1.3480    2.2240   -0.2554 H   0  0  0  0  0  0  0  0  0  0  0  0
    1.2371   -2.0471    0.1138 H   0  0  0  0  0  0  0  0  0  0  0  0
   -1.2868   -1.9790    0.1227 H   0  0  0  0  0  0  0  0  0  0  0  0
   -3.5282    2.8756   -0.3080 Cl  0  0  0  0  0  0  0  0  0  0  0  0
  1  2  1  0  0  0  0
  1 11  2  0  0  0  0
  3  2  2  0  0  0  0
  4  1  1  0  0  0  0
  5  4  2  0  0  0  0
  5  6  1  0  0  0  0
  6 10  2  0  0  0  0
  7  6  1  0  0  0  0
  7  9  2  0  0  0  0
  8  7  2  0  0  0  0
 10 11  1  0  0  0  0
 10 14  1  0  0  0  0
 11 15  1  0  0  0  0
 12  4  1  0  0  0  0
 13  5  1  0  0  0  0
 16  3  1  0  0  0  0
M  END
