Coordinates from ORCA-job 4-NO2PhN2+~Cl-_B3LYPG-6-31G_dp-CH-Scan-d09-49-n800
 OpenBabel11261919153D

 16 15  0  0  0  0  0  0  0  0999 V2000
   -1.2542    0.0509   -0.0555 C   0  0  0  0  0  0  0  0  0  0  0  0
   -2.6534    0.0755   -0.0522 N   0  0  0  0  0  0  0  0  0  0  0  0
   -3.7640    0.1847   -0.0571 N   0  0  0  0  0  0  0  0  0  0  0  0
   -0.6923    1.3262   -0.1691 C   0  0  0  0  0  0  0  0  0  0  0  0
    0.7264    1.2555   -0.1692 C   0  0  0  0  0  0  0  0  0  0  0  0
    1.3903    0.0418   -0.0672 C   0  0  0  0  0  0  0  0  0  0  0  0
    2.8783    0.0284   -0.0734 N   0  0  0  0  0  0  0  0  0  0  0  0
    3.4548    1.1051   -0.1816 O   0  0  0  0  0  0  0  0  0  0  0  0
    3.4326   -1.0646    0.0308 O   0  0  0  0  0  0  0  0  0  0  0  0
    0.7420   -1.2062    0.0445 C   0  0  0  0  0  0  0  0  0  0  0  0
   -0.6341   -1.2204    0.0523 C   0  0  0  0  0  0  0  0  0  0  0  0
   -2.0339    2.9509   -0.3067 H   0  0  0  0  0  0  0  0  0  0  0  0
    1.3240    2.1581   -0.2504 H   0  0  0  0  0  0  0  0  0  0  0  0
    1.3304   -2.1107    0.1208 H   0  0  0  0  0  0  0  0  0  0  0  0
   -1.1998   -2.1433    0.1359 H   0  0  0  0  0  0  0  0  0  0  0  0
   -3.1003    3.7466   -0.3724 Cl  0  0  0  0  0  0  0  0  0  0  0  0
  1  2  1  0  0  0  0
  1 11  2  0  0  0  0
  3  2  1  0  0  0  0
  4  1  1  0  0  0  0
  5  4  2  0  0  0  0
  5  6  1  0  0  0  0
  6 10  2  0  0  0  0
  7  6  1  0  0  0  0
  7  9  2  0  0  0  0
  8  7  2  0  0  0  0
 10 11  1  0  0  0  0
 10 14  1  0  0  0  0
 11 15  1  0  0  0  0
 13  5  1  0  0  0  0
 16 12  1  0  0  0  0
M  RAD  3   2   2   3   3   4   2
M  END
