Coordinates from ORCA-job 4-NO2PhN2+~Cl-_B3LYPG-6-31G_dp-CH-Scan-d09-49-n800
 OpenBabel11261919153D

 16 15  0  0  0  0  0  0  0  0999 V2000
   -1.0366    0.0539   -0.0616 C   0  0  0  0  0  0  0  0  0  0  0  0
   -2.4376    0.1832   -0.0696 N   0  0  0  0  0  0  0  0  0  0  0  0
   -3.5389    0.3716   -0.0851 N   0  0  0  0  0  0  0  0  0  0  0  0
   -0.4055    1.2923   -0.1739 C   0  0  0  0  0  0  0  0  0  0  0  0
    1.0108    1.1091   -0.1612 C   0  0  0  0  0  0  0  0  0  0  0  0
    1.5880   -0.1466   -0.0514 C   0  0  0  0  0  0  0  0  0  0  0  0
    3.0706   -0.2672   -0.0443 N   0  0  0  0  0  0  0  0  0  0  0  0
    3.7278    0.7646   -0.1433 O   0  0  0  0  0  0  0  0  0  0  0  0
    3.5476   -1.3965    0.0658 O   0  0  0  0  0  0  0  0  0  0  0  0
    0.8526   -1.3489    0.0579 C   0  0  0  0  0  0  0  0  0  0  0  0
   -0.5199   -1.2639    0.0545 C   0  0  0  0  0  0  0  0  0  0  0  0
   -3.3303    4.4327   -0.4331 H   0  0  0  0  0  0  0  0  0  0  0  0
    1.6776    1.9634   -0.2386 H   0  0  0  0  0  0  0  0  0  0  0  0
    1.3761   -2.2919    0.1408 H   0  0  0  0  0  0  0  0  0  0  0  0
   -1.1525   -2.1432    0.1353 H   0  0  0  0  0  0  0  0  0  0  0  0
   -4.4828    3.8658   -0.3622 Cl  0  0  0  0  0  0  0  0  0  0  0  0
  1 11  2  0  0  0  0
  2  1  1  0  0  0  0
  3  2  1  0  0  0  0
  4  5  2  0  0  0  0
  4  1  1  0  0  0  0
  5  6  1  0  0  0  0
  6  7  1  0  0  0  0
  6 10  2  0  0  0  0
  7  9  2  0  0  0  0
  8  7  2  0  0  0  0
 10 14  1  0  0  0  0
 11 10  1  0  0  0  0
 11 15  1  0  0  0  0
 12 16  1  0  0  0  0
 13  5  1  0  0  0  0
M  RAD  3   2   2   3   3   4   2
M  END
