Coordinates from ORCA-job 4-NO2PhN2+~Cl-_B3LYPG-6-31G_dp-CH-Scan-d09-49-n800
 OpenBabel11261919153D

 16 15  0  0  0  0  0  0  0  0999 V2000
   -1.0606    0.0500   -0.0550 C   0  0  0  0  0  0  0  0  0  0  0  0
   -2.4625    0.1662   -0.0598 N   0  0  0  0  0  0  0  0  0  0  0  0
   -3.5656    0.3442   -0.0702 N   0  0  0  0  0  0  0  0  0  0  0  0
   -0.4404    1.2947   -0.1623 C   0  0  0  0  0  0  0  0  0  0  0  0
    0.9774    1.1240   -0.1536 C   0  0  0  0  0  0  0  0  0  0  0  0
    1.5660   -0.1272   -0.0522 C   0  0  0  0  0  0  0  0  0  0  0  0
    3.0496   -0.2345   -0.0496 N   0  0  0  0  0  0  0  0  0  0  0  0
    3.6972    0.8032   -0.1492 O   0  0  0  0  0  0  0  0  0  0  0  0
    3.5368   -1.3600    0.0537 O   0  0  0  0  0  0  0  0  0  0  0  0
    0.8416   -1.3364    0.0526 C   0  0  0  0  0  0  0  0  0  0  0  0
   -0.5316   -1.2635    0.0530 C   0  0  0  0  0  0  0  0  0  0  0  0
   -3.1545    4.3007   -0.4327 H   0  0  0  0  0  0  0  0  0  0  0  0
    1.6364    1.9845   -0.2278 H   0  0  0  0  0  0  0  0  0  0  0  0
    1.3736   -2.2752    0.1294 H   0  0  0  0  0  0  0  0  0  0  0  0
   -1.1562   -2.1488    0.1309 H   0  0  0  0  0  0  0  0  0  0  0  0
   -4.3605    3.8566   -0.3775 Cl  0  0  0  0  0  0  0  0  0  0  0  0
  1 11  2  0  0  0  0
  2  1  1  0  0  0  0
  3  2  1  0  0  0  0
  4  5  2  0  0  0  0
  4  1  1  0  0  0  0
  5  6  1  0  0  0  0
  6  7  1  0  0  0  0
  6 10  2  0  0  0  0
  7  9  2  0  0  0  0
  8  7  2  0  0  0  0
 10 11  1  0  0  0  0
 10 14  1  0  0  0  0
 11 15  1  0  0  0  0
 12 16  1  0  0  0  0
 13  5  1  0  0  0  0
M  RAD  3   2   2   3   3   4   2
M  END
