Coordinates from ORCA-job 4-NO2PhN2+~Cl-_B3LYPG-6-31G_dp-CH-Scan-d09-49-n800
 OpenBabel11261919153D

 16 15  0  0  0  0  0  0  0  0999 V2000
   -1.2043    0.0225   -0.0529 C   0  0  0  0  0  0  0  0  0  0  0  0
   -2.6049    0.0570   -0.0505 N   0  0  0  0  0  0  0  0  0  0  0  0
   -3.7164    0.1637   -0.0534 N   0  0  0  0  0  0  0  0  0  0  0  0
   -0.6423    1.2969   -0.1655 C   0  0  0  0  0  0  0  0  0  0  0  0
    0.7790    1.2113   -0.1645 C   0  0  0  0  0  0  0  0  0  0  0  0
    1.4352   -0.0062   -0.0634 C   0  0  0  0  0  0  0  0  0  0  0  0
    2.9229   -0.0306   -0.0689 N   0  0  0  0  0  0  0  0  0  0  0  0
    3.5088    1.0415   -0.1776 O   0  0  0  0  0  0  0  0  0  0  0  0
    3.4704   -1.1271    0.0376 O   0  0  0  0  0  0  0  0  0  0  0  0
    0.7789   -1.2516    0.0475 C   0  0  0  0  0  0  0  0  0  0  0  0
   -0.5966   -1.2562    0.0548 C   0  0  0  0  0  0  0  0  0  0  0  0
   -2.3179    3.3194   -0.3388 H   0  0  0  0  0  0  0  0  0  0  0  0
    1.3860    2.1081   -0.2442 H   0  0  0  0  0  0  0  0  0  0  0  0
    1.3619   -2.1597    0.1235 H   0  0  0  0  0  0  0  0  0  0  0  0
   -1.1692   -2.1751    0.1378 H   0  0  0  0  0  0  0  0  0  0  0  0
   -3.4446    3.9645   -0.3919 Cl  0  0  0  0  0  0  0  0  0  0  0  0
  1  2  1  0  0  0  0
  1 11  2  0  0  0  0
  3  2  1  0  0  0  0
  4  5  2  0  0  0  0
  4  1  1  0  0  0  0
  5  6  1  0  0  0  0
  6 10  2  0  0  0  0
  7  6  1  0  0  0  0
  7  9  2  0  0  0  0
  8  7  2  0  0  0  0
 10 11  1  0  0  0  0
 10 14  1  0  0  0  0
 11 15  1  0  0  0  0
 13  5  1  0  0  0  0
 16 12  1  0  0  0  0
M  RAD  3   2   2   3   3   4   2
M  END
