Coordinates from ORCA-job 4-NO2PhN2+~Cl-_B3LYPG-6-31G_dp-CH-Scan-d09-49-n800
 OpenBabel11261919153D

 16 15  0  0  0  0  0  0  0  0999 V2000
   -0.9875    0.0729   -0.0661 C   0  0  0  0  0  0  0  0  0  0  0  0
   -2.3854    0.2337   -0.0764 N   0  0  0  0  0  0  0  0  0  0  0  0
   -3.4824    0.4466   -0.0921 N   0  0  0  0  0  0  0  0  0  0  0  0
   -0.3299    1.2969   -0.1799 C   0  0  0  0  0  0  0  0  0  0  0  0
    1.0824    1.0831   -0.1636 C   0  0  0  0  0  0  0  0  0  0  0  0
    1.6318   -0.1844   -0.0482 C   0  0  0  0  0  0  0  0  0  0  0  0
    3.1114   -0.3373   -0.0359 N   0  0  0  0  0  0  0  0  0  0  0  0
    3.7913    0.6801   -0.1313 O   0  0  0  0  0  0  0  0  0  0  0  0
    3.5635   -1.4772    0.0699 O   0  0  0  0  0  0  0  0  0  0  0  0
    0.8701   -1.3704    0.0618 C   0  0  0  0  0  0  0  0  0  0  0  0
   -0.5002   -1.2557    0.0543 C   0  0  0  0  0  0  0  0  0  0  0  0
   -3.7129    4.6702   -0.4461 H   0  0  0  0  0  0  0  0  0  0  0  0
    1.7675    1.9226   -0.2423 H   0  0  0  0  0  0  0  0  0  0  0  0
    1.3727   -2.3243    0.1483 H   0  0  0  0  0  0  0  0  0  0  0  0
   -1.1519   -2.1209    0.1351 H   0  0  0  0  0  0  0  0  0  0  0  0
   -4.6937    3.8426   -0.3579 Cl  0  0  0  0  0  0  0  0  0  0  0  0
  1 11  2  0  0  0  0
  2  1  1  0  0  0  0
  3  2  1  0  0  0  0
  4  5  2  0  0  0  0
  4  1  1  0  0  0  0
  5  6  1  0  0  0  0
  6  7  1  0  0  0  0
  6 10  2  0  0  0  0
  7  9  2  0  0  0  0
  8  7  2  0  0  0  0
 10 14  1  0  0  0  0
 11 10  1  0  0  0  0
 11 15  1  0  0  0  0
 12 16  1  0  0  0  0
 13  5  1  0  0  0  0
M  RAD  3   2   2   3   3   4   2
M  END
