Coordinates from ORCA-job 4-NO2PhN2+~Cl-_B3LYPG-6-31G_dp-CH-Scan-d09-49-n800
 OpenBabel11261919153D

 16 15  0  0  0  0  0  0  0  0999 V2000
   -1.0566    0.0502   -0.0555 C   0  0  0  0  0  0  0  0  0  0  0  0
   -2.4584    0.1682   -0.0607 N   0  0  0  0  0  0  0  0  0  0  0  0
   -3.5611    0.3481   -0.0717 N   0  0  0  0  0  0  0  0  0  0  0  0
   -0.4348    1.2940   -0.1631 C   0  0  0  0  0  0  0  0  0  0  0  0
    0.9828    1.1214   -0.1541 C   0  0  0  0  0  0  0  0  0  0  0  0
    1.5697   -0.1305   -0.0519 C   0  0  0  0  0  0  0  0  0  0  0  0
    3.0532   -0.2398   -0.0489 N   0  0  0  0  0  0  0  0  0  0  0  0
    3.7022    0.7970   -0.1486 O   0  0  0  0  0  0  0  0  0  0  0  0
    3.5388   -1.3659    0.0546 O   0  0  0  0  0  0  0  0  0  0  0  0
    0.8437   -1.3388    0.0532 C   0  0  0  0  0  0  0  0  0  0  0  0
   -0.5294   -1.2641    0.0532 C   0  0  0  0  0  0  0  0  0  0  0  0
   -3.1831    4.3231   -0.4338 H   0  0  0  0  0  0  0  0  0  0  0  0
    1.6429    1.9811   -0.2284 H   0  0  0  0  0  0  0  0  0  0  0  0
    1.3744   -2.2782    0.1305 H   0  0  0  0  0  0  0  0  0  0  0  0
   -1.1552   -2.1485    0.1314 H   0  0  0  0  0  0  0  0  0  0  0  0
   -4.3822    3.8609   -0.3765 Cl  0  0  0  0  0  0  0  0  0  0  0  0
  1 11  2  0  0  0  0
  2  1  1  0  0  0  0
  3  2  1  0  0  0  0
  4  5  2  0  0  0  0
  4  1  1  0  0  0  0
  5  6  1  0  0  0  0
  6  7  1  0  0  0  0
  6 10  2  0  0  0  0
  7  9  2  0  0  0  0
  8  7  2  0  0  0  0
 10 11  1  0  0  0  0
 10 14  1  0  0  0  0
 11 15  1  0  0  0  0
 12 16  1  0  0  0  0
 13  5  1  0  0  0  0
M  RAD  3   2   2   3   3   4   2
M  END
