Coordinates from ORCA-job 4-NO2PhN2+~Cl-_B3LYPG-6-31G_dp-CH-Scan-d09-49-n800
 OpenBabel11261919153D

 16 15  0  0  0  0  0  0  0  0999 V2000
   -1.1000    0.0491   -0.0509 C   0  0  0  0  0  0  0  0  0  0  0  0
   -2.5025    0.1451   -0.0522 N   0  0  0  0  0  0  0  0  0  0  0  0
   -3.6080    0.3063   -0.0597 N   0  0  0  0  0  0  0  0  0  0  0  0
   -0.4946    1.3018   -0.1558 C   0  0  0  0  0  0  0  0  0  0  0  0
    0.9248    1.1503   -0.1511 C   0  0  0  0  0  0  0  0  0  0  0  0
    1.5298   -0.0935   -0.0549 C   0  0  0  0  0  0  0  0  0  0  0  0
    3.0147   -0.1813   -0.0565 N   0  0  0  0  0  0  0  0  0  0  0  0
    3.6479    0.8651   -0.1567 O   0  0  0  0  0  0  0  0  0  0  0  0
    3.5165   -1.3005    0.0439 O   0  0  0  0  0  0  0  0  0  0  0  0
    0.8215   -1.3122    0.0481 C   0  0  0  0  0  0  0  0  0  0  0  0
   -0.5525   -1.2573    0.0521 C   0  0  0  0  0  0  0  0  0  0  0  0
   -2.8715    4.0052   -0.4054 H   0  0  0  0  0  0  0  0  0  0  0  0
    1.5721    2.0196   -0.2243 H   0  0  0  0  0  0  0  0  0  0  0  0
    1.3659   -2.2441    0.1209 H   0  0  0  0  0  0  0  0  0  0  0  0
   -1.1652   -2.1510    0.1289 H   0  0  0  0  0  0  0  0  0  0  0  0
   -4.1521    3.8757   -0.3967 Cl  0  0  0  0  0  0  0  0  0  0  0  0
  1 11  2  0  0  0  0
  2  1  1  0  0  0  0
  3  2  1  0  0  0  0
  4  5  2  0  0  0  0
  4  1  1  0  0  0  0
  5  6  1  0  0  0  0
  6 10  2  0  0  0  0
  7  6  1  0  0  0  0
  7  9  2  0  0  0  0
  8  7  2  0  0  0  0
 10 11  1  0  0  0  0
 10 14  1  0  0  0  0
 11 15  1  0  0  0  0
 12 16  1  0  0  0  0
 13  5  1  0  0  0  0
M  RAD  3   2   2   3   3   4   2
M  END
