Coordinates from ORCA-job 4-NO2PhN2+~Cl-_B3LYPG-6-31G_dp-CH-Scan-d09-49-n800
 OpenBabel11261919153D

 16 15  0  0  0  0  0  0  0  0999 V2000
   -1.2115    0.0280   -0.0531 C   0  0  0  0  0  0  0  0  0  0  0  0
   -2.6119    0.0614   -0.0510 N   0  0  0  0  0  0  0  0  0  0  0  0
   -3.7233    0.1681   -0.0561 N   0  0  0  0  0  0  0  0  0  0  0  0
   -0.6492    1.3024   -0.1657 C   0  0  0  0  0  0  0  0  0  0  0  0
    0.7718    1.2184   -0.1643 C   0  0  0  0  0  0  0  0  0  0  0  0
    1.4286    0.0012   -0.0630 C   0  0  0  0  0  0  0  0  0  0  0  0
    2.9164   -0.0220   -0.0681 N   0  0  0  0  0  0  0  0  0  0  0  0
    3.5013    1.0501   -0.1806 O   0  0  0  0  0  0  0  0  0  0  0  0
    3.4645   -1.1187    0.0340 O   0  0  0  0  0  0  0  0  0  0  0  0
    0.7731   -1.2444    0.0477 C   0  0  0  0  0  0  0  0  0  0  0  0
   -0.6025   -1.2499    0.0547 C   0  0  0  0  0  0  0  0  0  0  0  0
   -2.2765    3.2612   -0.3336 H   0  0  0  0  0  0  0  0  0  0  0  0
    1.3778    2.1158   -0.2439 H   0  0  0  0  0  0  0  0  0  0  0  0
    1.3565   -2.1521    0.1239 H   0  0  0  0  0  0  0  0  0  0  0  0
   -1.1744   -2.1693    0.1376 H   0  0  0  0  0  0  0  0  0  0  0  0
   -3.3936    3.9281   -0.3889 Cl  0  0  0  0  0  0  0  0  0  0  0  0
  1  2  1  0  0  0  0
  1 11  2  0  0  0  0
  3  2  1  0  0  0  0
  4  5  2  0  0  0  0
  4  1  1  0  0  0  0
  5  6  1  0  0  0  0
  6 10  2  0  0  0  0
  7  6  1  0  0  0  0
  7  9  2  0  0  0  0
  8  7  2  0  0  0  0
 10 11  1  0  0  0  0
 10 14  1  0  0  0  0
 11 15  1  0  0  0  0
 13  5  1  0  0  0  0
 16 12  1  0  0  0  0
M  RAD  3   2   2   3   3   4   2
M  END
