Coordinates from ORCA-job 4-NO2PhN2+~Cl-_B3LYPG-6-31G_dp-CH-Scan-d09-49-n800
 OpenBabel11261919153D

 16 15  0  0  0  0  0  0  0  0999 V2000
   -1.2976    0.0775   -0.0586 C   0  0  0  0  0  0  0  0  0  0  0  0
   -2.7175    0.1296   -0.0565 N   0  0  0  0  0  0  0  0  0  0  0  0
   -3.6854    0.7180   -0.1028 N   0  0  0  0  0  0  0  0  0  0  0  0
   -0.6890    1.3219   -0.1701 C   0  0  0  0  0  0  0  0  0  0  0  0
    0.7115    1.2966   -0.1742 C   0  0  0  0  0  0  0  0  0  0  0  0
    1.3731    0.0747   -0.0702 C   0  0  0  0  0  0  0  0  0  0  0  0
    2.8581    0.0651   -0.0757 N   0  0  0  0  0  0  0  0  0  0  0  0
    3.4291    1.1456   -0.1822 O   0  0  0  0  0  0  0  0  0  0  0  0
    3.4154   -1.0255    0.0265 O   0  0  0  0  0  0  0  0  0  0  0  0
    0.7181   -1.1605    0.0409 C   0  0  0  0  0  0  0  0  0  0  0  0
   -0.6668   -1.1715    0.0478 C   0  0  0  0  0  0  0  0  0  0  0  0
   -1.7108    2.4711   -0.2658 H   0  0  0  0  0  0  0  0  0  0  0  0
    1.2964    2.2057   -0.2566 H   0  0  0  0  0  0  0  0  0  0  0  0
    1.3011   -2.0686    0.1183 H   0  0  0  0  0  0  0  0  0  0  0  0
   -1.2327   -2.0933    0.1314 H   0  0  0  0  0  0  0  0  0  0  0  0
   -3.1560    3.1921   -0.3226 Cl  0  0  0  0  0  0  0  0  0  0  0  0
  1  2  1  0  0  0  0
  1 11  2  0  0  0  0
  3  2  2  0  0  0  0
  4  1  1  0  0  0  0
  5  4  2  0  0  0  0
  5  6  1  0  0  0  0
  6 10  2  0  0  0  0
  7  6  1  0  0  0  0
  7  9  2  0  0  0  0
  8  7  2  0  0  0  0
 10 11  1  0  0  0  0
 10 14  1  0  0  0  0
 11 15  1  0  0  0  0
 13  5  1  0  0  0  0
 16 12  1  0  0  0  0
M  RAD  2   3   2   4   2
M  END
