Coordinates from ORCA-job 4-NO2PhN2+~Cl-_B3LYPG-6-31G_dp-CH-Scan-d09-49-n800
 OpenBabel11261919153D

 16 15  0  0  0  0  0  0  0  0999 V2000
   -1.2887    0.0718   -0.0579 C   0  0  0  0  0  0  0  0  0  0  0  0
   -2.7064    0.1343   -0.0568 N   0  0  0  0  0  0  0  0  0  0  0  0
   -3.7082    0.6460   -0.0965 N   0  0  0  0  0  0  0  0  0  0  0  0
   -0.6991    1.3253   -0.1702 C   0  0  0  0  0  0  0  0  0  0  0  0
    0.7059    1.2927   -0.1737 C   0  0  0  0  0  0  0  0  0  0  0  0
    1.3705    0.0737   -0.0701 C   0  0  0  0  0  0  0  0  0  0  0  0
    2.8565    0.0664   -0.0761 N   0  0  0  0  0  0  0  0  0  0  0  0
    3.4260    1.1473   -0.1824 O   0  0  0  0  0  0  0  0  0  0  0  0
    3.4153   -1.0236    0.0264 O   0  0  0  0  0  0  0  0  0  0  0  0
    0.7203   -1.1663    0.0413 C   0  0  0  0  0  0  0  0  0  0  0  0
   -0.6627   -1.1819    0.0488 C   0  0  0  0  0  0  0  0  0  0  0  0
   -1.7614    2.5054   -0.2687 H   0  0  0  0  0  0  0  0  0  0  0  0
    1.2918    2.2016   -0.2560 H   0  0  0  0  0  0  0  0  0  0  0  0
    1.3071   -2.0720    0.1183 H   0  0  0  0  0  0  0  0  0  0  0  0
   -1.2273   -2.1046    0.1325 H   0  0  0  0  0  0  0  0  0  0  0  0
   -3.0927    3.2623   -0.3293 Cl  0  0  0  0  0  0  0  0  0  0  0  0
  1  2  1  0  0  0  0
  1 11  2  0  0  0  0
  3  2  1  0  0  0  0
  4  1  1  0  0  0  0
  5  4  2  0  0  0  0
  5  6  1  0  0  0  0
  6 10  2  0  0  0  0
  7  6  1  0  0  0  0
  7  9  2  0  0  0  0
  8  7  2  0  0  0  0
 10 11  1  0  0  0  0
 10 14  1  0  0  0  0
 11 15  1  0  0  0  0
 13  5  1  0  0  0  0
 16 12  1  0  0  0  0
M  RAD  3   2   2   3   3   4   2
M  END
