Coordinates from ORCA-job 4-NO2PhN2+~Cl-_B3LYPG-6-31G_dp-CH-Scan-d09-49-n800
 OpenBabel11261919153D

 16 15  0  0  0  0  0  0  0  0999 V2000
   -1.1918    0.0094   -0.0501 C   0  0  0  0  0  0  0  0  0  0  0  0
   -2.5927    0.0443   -0.0473 N   0  0  0  0  0  0  0  0  0  0  0  0
   -3.7046    0.1495   -0.0531 N   0  0  0  0  0  0  0  0  0  0  0  0
   -0.6317    1.2846   -0.1617 C   0  0  0  0  0  0  0  0  0  0  0  0
    0.7903    1.1976   -0.1611 C   0  0  0  0  0  0  0  0  0  0  0  0
    1.4466   -0.0198   -0.0616 C   0  0  0  0  0  0  0  0  0  0  0  0
    2.9343   -0.0444   -0.0677 N   0  0  0  0  0  0  0  0  0  0  0  0
    3.5205    1.0274   -0.1780 O   0  0  0  0  0  0  0  0  0  0  0  0
    3.4819   -1.1412    0.0359 O   0  0  0  0  0  0  0  0  0  0  0  0
    0.7904   -1.2657    0.0483 C   0  0  0  0  0  0  0  0  0  0  0  0
   -0.5850   -1.2701    0.0561 C   0  0  0  0  0  0  0  0  0  0  0  0
   -2.3926    3.4306   -0.3493 H   0  0  0  0  0  0  0  0  0  0  0  0
    1.3979    2.0943   -0.2399 H   0  0  0  0  0  0  0  0  0  0  0  0
    1.3735   -2.1737    0.1232 H   0  0  0  0  0  0  0  0  0  0  0  0
   -1.1579   -2.1890    0.1385 H   0  0  0  0  0  0  0  0  0  0  0  0
   -3.5320    4.0446   -0.4024 Cl  0  0  0  0  0  0  0  0  0  0  0  0
  1  2  1  0  0  0  0
  1 11  2  0  0  0  0
  3  2  1  0  0  0  0
  4  5  2  0  0  0  0
  4  1  1  0  0  0  0
  5  6  1  0  0  0  0
  6 10  2  0  0  0  0
  7  6  1  0  0  0  0
  7  9  2  0  0  0  0
  8  7  2  0  0  0  0
 10 11  1  0  0  0  0
 10 14  1  0  0  0  0
 11 15  1  0  0  0  0
 13  5  1  0  0  0  0
 16 12  1  0  0  0  0
M  RAD  3   2   2   3   3   4   2
M  END
