Coordinates from ORCA-job 4-NO2PhN2+~Cl-_B3LYPG-6-31G_dp-CH-Scan-d09-49-n800
 OpenBabel11261919153D

 16 15  0  0  0  0  0  0  0  0999 V2000
   -1.0035    0.0658   -0.0697 C   0  0  0  0  0  0  0  0  0  0  0  0
   -2.4026    0.2154   -0.0827 N   0  0  0  0  0  0  0  0  0  0  0  0
   -3.5012    0.4192   -0.1016 N   0  0  0  0  0  0  0  0  0  0  0  0
   -0.3547    1.2942   -0.1867 C   0  0  0  0  0  0  0  0  0  0  0  0
    1.0590    1.0909   -0.1679 C   0  0  0  0  0  0  0  0  0  0  0  0
    1.6177   -0.1722   -0.0480 C   0  0  0  0  0  0  0  0  0  0  0  0
    3.0984   -0.3140   -0.0337 N   0  0  0  0  0  0  0  0  0  0  0  0
    3.7708    0.7074   -0.1380 O   0  0  0  0  0  0  0  0  0  0  0  0
    3.5587   -1.4505    0.0734 O   0  0  0  0  0  0  0  0  0  0  0  0
    0.8647   -1.3634    0.0649 C   0  0  0  0  0  0  0  0  0  0  0  0
   -0.5064   -1.2588    0.0555 C   0  0  0  0  0  0  0  0  0  0  0  0
   -3.5892    4.6042   -0.4360 H   0  0  0  0  0  0  0  0  0  0  0  0
    1.7380    1.9351   -0.2482 H   0  0  0  0  0  0  0  0  0  0  0  0
    1.3742   -2.3133    0.1551 H   0  0  0  0  0  0  0  0  0  0  0  0
   -1.1518   -2.1286    0.1384 H   0  0  0  0  0  0  0  0  0  0  0  0
   -4.6252    3.8470   -0.3453 Cl  0  0  0  0  0  0  0  0  0  0  0  0
  1 11  2  0  0  0  0
  2  1  1  0  0  0  0
  3  2  1  0  0  0  0
  4  5  2  0  0  0  0
  4  1  1  0  0  0  0
  5  6  1  0  0  0  0
  6  7  1  0  0  0  0
  6 10  2  0  0  0  0
  7  9  2  0  0  0  0
  8  7  2  0  0  0  0
 10 14  1  0  0  0  0
 11 10  1  0  0  0  0
 11 15  1  0  0  0  0
 12 16  1  0  0  0  0
 13  5  1  0  0  0  0
M  RAD  3   2   2   3   3   4   2
M  END
