Coordinates from ORCA-job 4-NO2PhN2+~Cl-_B3LYPG-6-31G_dp-CH-Scan-d09-49-n800
 OpenBabel11261919153D

 16 15  0  0  0  0  0  0  0  0999 V2000
   -1.0833    0.0493   -0.0520 C   0  0  0  0  0  0  0  0  0  0  0  0
   -2.4856    0.1538   -0.0543 N   0  0  0  0  0  0  0  0  0  0  0  0
   -3.5902    0.3222   -0.0631 N   0  0  0  0  0  0  0  0  0  0  0  0
   -0.4720    1.2989   -0.1574 C   0  0  0  0  0  0  0  0  0  0  0  0
    0.9468    1.1390   -0.1514 C   0  0  0  0  0  0  0  0  0  0  0  0
    1.5450   -0.1079   -0.0537 C   0  0  0  0  0  0  0  0  0  0  0  0
    3.0294   -0.2039   -0.0538 N   0  0  0  0  0  0  0  0  0  0  0  0
    3.6687    0.8389   -0.1534 O   0  0  0  0  0  0  0  0  0  0  0  0
    3.5252   -1.3258    0.0472 O   0  0  0  0  0  0  0  0  0  0  0  0
    0.8301   -1.3227    0.0496 C   0  0  0  0  0  0  0  0  0  0  0  0
   -0.5437   -1.2602    0.0523 C   0  0  0  0  0  0  0  0  0  0  0  0
   -2.9876    4.1398   -0.4191 H   0  0  0  0  0  0  0  0  0  0  0  0
    1.5992    2.0047   -0.2246 H   0  0  0  0  0  0  0  0  0  0  0  0
    1.3692   -2.2576    0.1234 H   0  0  0  0  0  0  0  0  0  0  0  0
   -1.1614   -2.1504    0.1293 H   0  0  0  0  0  0  0  0  0  0  0  0
   -4.2431    3.8603   -0.3893 Cl  0  0  0  0  0  0  0  0  0  0  0  0
  1 11  2  0  0  0  0
  2  1  1  0  0  0  0
  3  2  1  0  0  0  0
  4  5  2  0  0  0  0
  4  1  1  0  0  0  0
  5  6  1  0  0  0  0
  6 10  2  0  0  0  0
  7  6  1  0  0  0  0
  7  9  2  0  0  0  0
  8  7  2  0  0  0  0
 10 11  1  0  0  0  0
 10 14  1  0  0  0  0
 11 15  1  0  0  0  0
 12 16  1  0  0  0  0
 13  5  1  0  0  0  0
M  RAD  3   2   2   3   3   4   2
M  END
