Coordinates from ORCA-job 4-NO2PhN2+~Cl-_B3LYPG-6-31G_dp-CH-Scan-d09-49-n800
 OpenBabel11261919153D

 16 15  0  0  0  0  0  0  0  0999 V2000
   -1.1383   -0.0035   -0.0406 C   0  0  0  0  0  0  0  0  0  0  0  0
   -2.5406    0.0546   -0.0364 N   0  0  0  0  0  0  0  0  0  0  0  0
   -3.6506    0.1820   -0.0389 N   0  0  0  0  0  0  0  0  0  0  0  0
   -0.5674    1.2668   -0.1431 C   0  0  0  0  0  0  0  0  0  0  0  0
    0.8551    1.1571   -0.1450 C   0  0  0  0  0  0  0  0  0  0  0  0
    1.4954   -0.0696   -0.0569 C   0  0  0  0  0  0  0  0  0  0  0  0
    2.9824   -0.1147   -0.0660 N   0  0  0  0  0  0  0  0  0  0  0  0
    3.5842    0.9496   -0.1681 O   0  0  0  0  0  0  0  0  0  0  0  0
    3.5160   -1.2192    0.0316 O   0  0  0  0  0  0  0  0  0  0  0  0
    0.8229   -1.3083    0.0445 C   0  0  0  0  0  0  0  0  0  0  0  0
   -0.5521   -1.2936    0.0548 C   0  0  0  0  0  0  0  0  0  0  0  0
   -2.6733    3.8193   -0.3872 H   0  0  0  0  0  0  0  0  0  0  0  0
    1.4765    2.0452   -0.2172 H   0  0  0  0  0  0  0  0  0  0  0  0
    1.3942   -2.2245    0.1112 H   0  0  0  0  0  0  0  0  0  0  0  0
   -1.1383   -2.2048    0.1311 H   0  0  0  0  0  0  0  0  0  0  0  0
   -3.9192    4.1419   -0.4440 Cl  0  0  0  0  0  0  0  0  0  0  0  0
  1  2  1  0  0  0  0
  1 11  2  0  0  0  0
  3  2  1  0  0  0  0
  4  1  1  0  0  0  0
  5  4  2  0  0  0  0
  5  6  1  0  0  0  0
  6 10  2  0  0  0  0
  7  6  1  0  0  0  0
  7  9  2  0  0  0  0
  8  7  2  0  0  0  0
 10 11  1  0  0  0  0
 10 14  1  0  0  0  0
 11 15  1  0  0  0  0
 13  5  1  0  0  0  0
 16 12  1  0  0  0  0
M  RAD  3   2   2   3   3   4   2
M  END
