Coordinates from ORCA-job 4-NO2PhN2+~Cl-_B3LYPG-6-31G_dp-CH-Scan-d09-49-n800
 OpenBabel11261919153D

 16 15  0  0  0  0  0  0  0  0999 V2000
   -1.2071    0.0244   -0.0526 C   0  0  0  0  0  0  0  0  0  0  0  0
   -2.6075    0.0585   -0.0500 N   0  0  0  0  0  0  0  0  0  0  0  0
   -3.7190    0.1650   -0.0545 N   0  0  0  0  0  0  0  0  0  0  0  0
   -0.6452    1.2991   -0.1652 C   0  0  0  0  0  0  0  0  0  0  0  0
    0.7761    1.2138   -0.1644 C   0  0  0  0  0  0  0  0  0  0  0  0
    1.4326   -0.0035   -0.0635 C   0  0  0  0  0  0  0  0  0  0  0  0
    2.9204   -0.0273   -0.0692 N   0  0  0  0  0  0  0  0  0  0  0  0
    3.5057    1.0450   -0.1782 O   0  0  0  0  0  0  0  0  0  0  0  0
    3.4682   -1.1237    0.0365 O   0  0  0  0  0  0  0  0  0  0  0  0
    0.7767   -1.2490    0.0473 C   0  0  0  0  0  0  0  0  0  0  0  0
   -0.5988   -1.2540    0.0548 C   0  0  0  0  0  0  0  0  0  0  0  0
   -2.3017    3.2984   -0.3370 H   0  0  0  0  0  0  0  0  0  0  0  0
    1.3827    2.1109   -0.2441 H   0  0  0  0  0  0  0  0  0  0  0  0
    1.3600   -2.1569    0.1231 H   0  0  0  0  0  0  0  0  0  0  0  0
   -1.1711   -2.1731    0.1378 H   0  0  0  0  0  0  0  0  0  0  0  0
   -3.4252    3.9510   -0.3913 Cl  0  0  0  0  0  0  0  0  0  0  0  0
  1  2  1  0  0  0  0
  1 11  2  0  0  0  0
  3  2  1  0  0  0  0
  4  5  2  0  0  0  0
  4  1  1  0  0  0  0
  5  6  1  0  0  0  0
  6 10  2  0  0  0  0
  7  6  1  0  0  0  0
  7  9  2  0  0  0  0
  8  7  2  0  0  0  0
 10 11  1  0  0  0  0
 10 14  1  0  0  0  0
 11 15  1  0  0  0  0
 13  5  1  0  0  0  0
 16 12  1  0  0  0  0
M  RAD  3   2   2   3   3   4   2
M  END
