Coordinates from ORCA-job 4-NO2PhN2+~Cl-_B3LYPG-6-31G_dp-CH-Scan-d09-49-n800
 OpenBabel11261919153D

 16 15  0  0  0  0  0  0  0  0999 V2000
   -1.0288    0.0567   -0.0616 C   0  0  0  0  0  0  0  0  0  0  0  0
   -2.4294    0.1906   -0.0698 N   0  0  0  0  0  0  0  0  0  0  0  0
   -3.5301    0.3826   -0.0836 N   0  0  0  0  0  0  0  0  0  0  0  0
   -0.3935    1.2929   -0.1731 C   0  0  0  0  0  0  0  0  0  0  0  0
    1.0222    1.1050   -0.1601 C   0  0  0  0  0  0  0  0  0  0  0  0
    1.5951   -0.1527   -0.0504 C   0  0  0  0  0  0  0  0  0  0  0  0
    3.0773   -0.2783   -0.0425 N   0  0  0  0  0  0  0  0  0  0  0  0
    3.7380    0.7511   -0.1421 O   0  0  0  0  0  0  0  0  0  0  0  0
    3.5504   -1.4095    0.0643 O   0  0  0  0  0  0  0  0  0  0  0  0
    0.8556   -1.3526    0.0580 C   0  0  0  0  0  0  0  0  0  0  0  0
   -0.5166   -1.2630    0.0541 C   0  0  0  0  0  0  0  0  0  0  0  0
   -3.3905    4.4751   -0.4385 H   0  0  0  0  0  0  0  0  0  0  0  0
    1.6918    1.9571   -0.2369 H   0  0  0  0  0  0  0  0  0  0  0  0
    1.3758   -2.2974    0.1407 H   0  0  0  0  0  0  0  0  0  0  0  0
   -1.1522   -2.1402    0.1342 H   0  0  0  0  0  0  0  0  0  0  0  0
   -4.5183    3.8610   -0.3628 Cl  0  0  0  0  0  0  0  0  0  0  0  0
  1 11  2  0  0  0  0
  2  1  1  0  0  0  0
  3  2  1  0  0  0  0
  4  5  2  0  0  0  0
  4  1  1  0  0  0  0
  5  6  1  0  0  0  0
  6  7  1  0  0  0  0
  6 10  2  0  0  0  0
  7  9  2  0  0  0  0
  8  7  2  0  0  0  0
 10 14  1  0  0  0  0
 11 10  1  0  0  0  0
 11 15  1  0  0  0  0
 12 16  1  0  0  0  0
 13  5  1  0  0  0  0
M  RAD  3   2   2   3   3   4   2
M  END
