Coordinates from ORCA-job 4-NO2PhN2+~Cl-_B3LYPG-6-31G_dp-CH-Scan-d09-49-n800
 OpenBabel11261919153D

 16 15  0  0  0  0  0  0  0  0999 V2000
   -0.9920    0.0697   -0.0675 C   0  0  0  0  0  0  0  0  0  0  0  0
   -2.3902    0.2269   -0.0787 N   0  0  0  0  0  0  0  0  0  0  0  0
   -3.4873    0.4390   -0.0879 N   0  0  0  0  0  0  0  0  0  0  0  0
   -0.3375    1.2953   -0.1813 C   0  0  0  0  0  0  0  0  0  0  0  0
    1.0753    1.0850   -0.1645 C   0  0  0  0  0  0  0  0  0  0  0  0
    1.6279   -0.1812   -0.0485 C   0  0  0  0  0  0  0  0  0  0  0  0
    3.1078   -0.3303   -0.0357 N   0  0  0  0  0  0  0  0  0  0  0  0
    3.7852    0.6887   -0.1309 O   0  0  0  0  0  0  0  0  0  0  0  0
    3.5627   -1.4690    0.0718 O   0  0  0  0  0  0  0  0  0  0  0  0
    0.8690   -1.3690    0.0615 C   0  0  0  0  0  0  0  0  0  0  0  0
   -0.5015   -1.2577    0.0535 C   0  0  0  0  0  0  0  0  0  0  0  0
   -3.6781    4.6541   -0.4488 H   0  0  0  0  0  0  0  0  0  0  0  0
    1.7583    1.9261   -0.2430 H   0  0  0  0  0  0  0  0  0  0  0  0
    1.3740   -2.3217    0.1484 H   0  0  0  0  0  0  0  0  0  0  0  0
   -1.1512   -2.1246    0.1341 H   0  0  0  0  0  0  0  0  0  0  0  0
   -4.6754    3.8472   -0.3526 Cl  0  0  0  0  0  0  0  0  0  0  0  0
  1 11  2  0  0  0  0
  2  1  1  0  0  0  0
  3  2  1  0  0  0  0
  4  5  2  0  0  0  0
  4  1  1  0  0  0  0
  5  6  1  0  0  0  0
  6  7  1  0  0  0  0
  6 10  2  0  0  0  0
  7  9  2  0  0  0  0
  8  7  2  0  0  0  0
 10 14  1  0  0  0  0
 11 10  1  0  0  0  0
 11 15  1  0  0  0  0
 12 16  1  0  0  0  0
 13  5  1  0  0  0  0
M  RAD  3   2   2   3   3   4   2
M  END
