Coordinates from ORCA-job 4-NO2PhN2+~Cl-_B3LYPG-6-31G_dp-CH-Scan-d09-49-n800
 OpenBabel11261919153D

 16 15  0  0  0  0  0  0  0  0999 V2000
   -1.1596   -0.0167   -0.0454 C   0  0  0  0  0  0  0  0  0  0  0  0
   -2.5617    0.0231   -0.0422 N   0  0  0  0  0  0  0  0  0  0  0  0
   -3.6734    0.1340   -0.0463 N   0  0  0  0  0  0  0  0  0  0  0  0
   -0.6006    1.2583   -0.1544 C   0  0  0  0  0  0  0  0  0  0  0  0
    0.8225    1.1657   -0.1546 C   0  0  0  0  0  0  0  0  0  0  0  0
    1.4761   -0.0534   -0.0588 C   0  0  0  0  0  0  0  0  0  0  0  0
    2.9636   -0.0821   -0.0662 N   0  0  0  0  0  0  0  0  0  0  0  0
    3.5533    0.9883   -0.1740 O   0  0  0  0  0  0  0  0  0  0  0  0
    3.5089   -1.1803    0.0371 O   0  0  0  0  0  0  0  0  0  0  0  0
    0.8171   -1.2986    0.0488 C   0  0  0  0  0  0  0  0  0  0  0  0
   -0.5580   -1.2993    0.0577 C   0  0  0  0  0  0  0  0  0  0  0  0
   -2.5775    3.6980   -0.3742 H   0  0  0  0  0  0  0  0  0  0  0  0
    1.4335    2.0604   -0.2314 H   0  0  0  0  0  0  0  0  0  0  0  0
    1.3983   -2.2081    0.1211 H   0  0  0  0  0  0  0  0  0  0  0  0
   -1.1337   -2.2167    0.1384 H   0  0  0  0  0  0  0  0  0  0  0  0
   -3.7619    4.2057   -0.4257 Cl  0  0  0  0  0  0  0  0  0  0  0  0
  1  2  1  0  0  0  0
  1 11  2  0  0  0  0
  3  2  1  0  0  0  0
  4  1  1  0  0  0  0
  5  4  2  0  0  0  0
  5  6  1  0  0  0  0
  6 10  2  0  0  0  0
  7  6  1  0  0  0  0
  7  9  2  0  0  0  0
  8  7  2  0  0  0  0
 10 11  1  0  0  0  0
 10 14  1  0  0  0  0
 11 15  1  0  0  0  0
 13  5  1  0  0  0  0
 16 12  1  0  0  0  0
M  RAD  3   2   2   3   3   4   2
M  END
