Coordinates from ORCA-job 4-NO2PhN2+~Cl-_B3LYPG-6-31G_dp-CH-Scan-d09-49-n800
 OpenBabel11261919153D

 16 15  0  0  0  0  0  0  0  0999 V2000
   -0.9998    0.0673   -0.0696 C   0  0  0  0  0  0  0  0  0  0  0  0
   -2.3986    0.2193   -0.0819 N   0  0  0  0  0  0  0  0  0  0  0  0
   -3.4969    0.4249   -0.1003 N   0  0  0  0  0  0  0  0  0  0  0  0
   -0.3489    1.2946   -0.1866 C   0  0  0  0  0  0  0  0  0  0  0  0
    1.0645    1.0889   -0.1685 C   0  0  0  0  0  0  0  0  0  0  0  0
    1.6211   -0.1752   -0.0490 C   0  0  0  0  0  0  0  0  0  0  0  0
    3.1015   -0.3195   -0.0352 N   0  0  0  0  0  0  0  0  0  0  0  0
    3.7756    0.7012   -0.1344 O   0  0  0  0  0  0  0  0  0  0  0  0
    3.5599   -1.4564    0.0758 O   0  0  0  0  0  0  0  0  0  0  0  0
    0.8660   -1.3651    0.0641 C   0  0  0  0  0  0  0  0  0  0  0  0
   -0.5049   -1.2581    0.0553 C   0  0  0  0  0  0  0  0  0  0  0  0
   -3.6178    4.6199   -0.4375 H   0  0  0  0  0  0  0  0  0  0  0  0
    1.7449    1.9320   -0.2489 H   0  0  0  0  0  0  0  0  0  0  0  0
    1.3740   -2.3159    0.1539 H   0  0  0  0  0  0  0  0  0  0  0  0
   -1.1518   -2.1268    0.1382 H   0  0  0  0  0  0  0  0  0  0  0  0
   -4.6421    3.8472   -0.3457 Cl  0  0  0  0  0  0  0  0  0  0  0  0
  1 11  2  0  0  0  0
  2  1  1  0  0  0  0
  3  2  1  0  0  0  0
  4  5  2  0  0  0  0
  4  1  1  0  0  0  0
  5  6  1  0  0  0  0
  6  7  1  0  0  0  0
  6 10  2  0  0  0  0
  7  9  2  0  0  0  0
  8  7  2  0  0  0  0
 10 14  1  0  0  0  0
 11 10  1  0  0  0  0
 11 15  1  0  0  0  0
 12 16  1  0  0  0  0
 13  5  1  0  0  0  0
M  RAD  3   2   2   3   3   4   2
M  END
