Coordinates from ORCA-job 4-NO2PhN2+~Cl-_B3LYPG-6-31G_dp-CH-Scan-d09-49-n800
 OpenBabel11261919153D

 16 16  0  0  0  0  0  0  0  0999 V2000
   -1.3445    0.1614   -0.0639 C   0  0  0  0  0  0  0  0  0  0  0  0
   -2.7545    0.1038   -0.0511 N   0  0  0  0  0  0  0  0  0  0  0  0
   -3.7206    0.7622   -0.1062 N   0  0  0  0  0  0  0  0  0  0  0  0
   -0.6347    1.3651   -0.1719 C   0  0  0  0  0  0  0  0  0  0  0  0
    0.7548    1.3209   -0.1754 C   0  0  0  0  0  0  0  0  0  0  0  0
    1.3901    0.0845   -0.0715 C   0  0  0  0  0  0  0  0  0  0  0  0
    2.8699    0.0446   -0.0755 N   0  0  0  0  0  0  0  0  0  0  0  0
    3.4622    1.1150   -0.1774 O   0  0  0  0  0  0  0  0  0  0  0  0
    3.4031   -1.0572    0.0251 O   0  0  0  0  0  0  0  0  0  0  0  0
    0.6936   -1.1185    0.0367 C   0  0  0  0  0  0  0  0  0  0  0  0
   -0.6944   -1.0777    0.0405 C   0  0  0  0  0  0  0  0  0  0  0  0
   -1.2545    2.4012   -0.2587 H   0  0  0  0  0  0  0  0  0  0  0  0
    1.3494    2.2220   -0.2569 H   0  0  0  0  0  0  0  0  0  0  0  0
    1.2401   -2.0495    0.1152 H   0  0  0  0  0  0  0  0  0  0  0  0
   -1.2841   -1.9838    0.1230 H   0  0  0  0  0  0  0  0  0  0  0  0
   -3.5292    2.8843   -0.3022 Cl  0  0  0  0  0  0  0  0  0  0  0  0
  1  2  1  0  0  0  0
  1 11  2  0  0  0  0
  3  2  2  0  0  0  0
  4  1  1  0  0  0  0
  5  4  2  0  0  0  0
  5  6  1  0  0  0  0
  6 10  2  0  0  0  0
  7  6  1  0  0  0  0
  7  9  2  0  0  0  0
  8  7  2  0  0  0  0
 10 11  1  0  0  0  0
 10 14  1  0  0  0  0
 11 15  1  0  0  0  0
 12  4  1  0  0  0  0
 13  5  1  0  0  0  0
 16  3  1  0  0  0  0
M  END
