Coordinates from ORCA-job 4-NO2PhN2+~Cl-_B3LYPG-6-31G_dp-CH-Scan-d09-49-n800
 OpenBabel11261919153D

 16 16  0  0  0  0  0  0  0  0999 V2000
   -1.3417    0.1565   -0.0654 C   0  0  0  0  0  0  0  0  0  0  0  0
   -2.7520    0.1054   -0.0548 N   0  0  0  0  0  0  0  0  0  0  0  0
   -3.7174    0.7623   -0.1076 N   0  0  0  0  0  0  0  0  0  0  0  0
   -0.6337    1.3602   -0.1740 C   0  0  0  0  0  0  0  0  0  0  0  0
    0.7556    1.3193   -0.1770 C   0  0  0  0  0  0  0  0  0  0  0  0
    1.3910    0.0828   -0.0712 C   0  0  0  0  0  0  0  0  0  0  0  0
    2.8711    0.0435   -0.0740 N   0  0  0  0  0  0  0  0  0  0  0  0
    3.4628    1.1140   -0.1777 O   0  0  0  0  0  0  0  0  0  0  0  0
    3.4047   -1.0579    0.0279 O   0  0  0  0  0  0  0  0  0  0  0  0
    0.6956   -1.1211    0.0379 C   0  0  0  0  0  0  0  0  0  0  0  0
   -0.6925   -1.0828    0.0406 C   0  0  0  0  0  0  0  0  0  0  0  0
   -1.2834    2.4189   -0.2635 H   0  0  0  0  0  0  0  0  0  0  0  0
    1.3498    2.2205   -0.2590 H   0  0  0  0  0  0  0  0  0  0  0  0
    1.2436   -2.0511    0.1178 H   0  0  0  0  0  0  0  0  0  0  0  0
   -1.2810   -1.9896    0.1232 H   0  0  0  0  0  0  0  0  0  0  0  0
   -3.5254    2.8974   -0.2934 Cl  0  0  0  0  0  0  0  0  0  0  0  0
  1  2  1  0  0  0  0
  1 11  2  0  0  0  0
  3  2  2  0  0  0  0
  4  1  1  0  0  0  0
  5  4  2  0  0  0  0
  5  6  1  0  0  0  0
  6 10  2  0  0  0  0
  7  6  1  0  0  0  0
  7  9  2  0  0  0  0
  8  7  2  0  0  0  0
 10 11  1  0  0  0  0
 10 14  1  0  0  0  0
 11 15  1  0  0  0  0
 12  4  1  0  0  0  0
 13  5  1  0  0  0  0
 16  3  1  0  0  0  0
M  END
