Coordinates from ORCA-job 4-NO2PhN2+~Cl-_B3LYPG-6-31G_dp-CH-Scan-d09-49-n800
 OpenBabel11261919153D

 16 15  0  0  0  0  0  0  0  0999 V2000
   -1.1657   -0.0110   -0.0469 C   0  0  0  0  0  0  0  0  0  0  0  0
   -2.5674    0.0284   -0.0441 N   0  0  0  0  0  0  0  0  0  0  0  0
   -3.6790    0.1389   -0.0479 N   0  0  0  0  0  0  0  0  0  0  0  0
   -0.6063    1.2643   -0.1568 C   0  0  0  0  0  0  0  0  0  0  0  0
    0.8166    1.1720   -0.1565 C   0  0  0  0  0  0  0  0  0  0  0  0
    1.4704   -0.0468   -0.0595 C   0  0  0  0  0  0  0  0  0  0  0  0
    2.9580   -0.0750   -0.0664 N   0  0  0  0  0  0  0  0  0  0  0  0
    3.5472    0.9955   -0.1748 O   0  0  0  0  0  0  0  0  0  0  0  0
    3.5035   -1.1730    0.0379 O   0  0  0  0  0  0  0  0  0  0  0  0
    0.8117   -1.2920    0.0489 C   0  0  0  0  0  0  0  0  0  0  0  0
   -0.5634   -1.2931    0.0574 C   0  0  0  0  0  0  0  0  0  0  0  0
   -2.5434    3.6401   -0.3687 H   0  0  0  0  0  0  0  0  0  0  0  0
    1.4272    2.0669   -0.2338 H   0  0  0  0  0  0  0  0  0  0  0  0
    1.3931   -2.2013    0.1221 H   0  0  0  0  0  0  0  0  0  0  0  0
   -1.1388   -2.2106    0.1386 H   0  0  0  0  0  0  0  0  0  0  0  0
   -3.7167    4.1750   -0.4196 Cl  0  0  0  0  0  0  0  0  0  0  0  0
  1  2  1  0  0  0  0
  1 11  2  0  0  0  0
  3  2  1  0  0  0  0
  4  5  2  0  0  0  0
  4  1  1  0  0  0  0
  5  6  1  0  0  0  0
  6 10  2  0  0  0  0
  7  6  1  0  0  0  0
  7  9  2  0  0  0  0
  8  7  2  0  0  0  0
 10 11  1  0  0  0  0
 10 14  1  0  0  0  0
 11 15  1  0  0  0  0
 13  5  1  0  0  0  0
 16 12  1  0  0  0  0
M  RAD  3   2   2   3   3   4   2
M  END
