Coordinates from ORCA-job 4-NO2PhN2+~Cl-_B3LYPG-6-31G_dp-CH-Scan-d09-49-n800
 OpenBabel11261919153D

 16 15  0  0  0  0  0  0  0  0999 V2000
   -1.1345   -0.0006   -0.0410 C   0  0  0  0  0  0  0  0  0  0  0  0
   -2.5370    0.0593   -0.0371 N   0  0  0  0  0  0  0  0  0  0  0  0
   -3.6467    0.1892   -0.0399 N   0  0  0  0  0  0  0  0  0  0  0  0
   -0.5610    1.2682   -0.1433 C   0  0  0  0  0  0  0  0  0  0  0  0
    0.8613    1.1555   -0.1448 C   0  0  0  0  0  0  0  0  0  0  0  0
    1.4991   -0.0724   -0.0565 C   0  0  0  0  0  0  0  0  0  0  0  0
    2.9860   -0.1206   -0.0651 N   0  0  0  0  0  0  0  0  0  0  0  0
    3.5901    0.9424   -0.1677 O   0  0  0  0  0  0  0  0  0  0  0  0
    3.5173   -1.2263    0.0321 O   0  0  0  0  0  0  0  0  0  0  0  0
    0.8239   -1.3096    0.0448 C   0  0  0  0  0  0  0  0  0  0  0  0
   -0.5510   -1.2920    0.0547 C   0  0  0  0  0  0  0  0  0  0  0  0
   -2.6934    3.8376   -0.3892 H   0  0  0  0  0  0  0  0  0  0  0  0
    1.4845    2.0423   -0.2169 H   0  0  0  0  0  0  0  0  0  0  0  0
    1.3932   -2.2270    0.1116 H   0  0  0  0  0  0  0  0  0  0  0  0
   -1.1391   -2.2020    0.1308 H   0  0  0  0  0  0  0  0  0  0  0  0
   -3.9457    4.1344   -0.4426 Cl  0  0  0  0  0  0  0  0  0  0  0  0
  1  2  1  0  0  0  0
  1 11  2  0  0  0  0
  3  2  1  0  0  0  0
  4  1  1  0  0  0  0
  5  4  2  0  0  0  0
  5  6  1  0  0  0  0
  6 10  2  0  0  0  0
  7  6  1  0  0  0  0
  7  9  2  0  0  0  0
  8  7  2  0  0  0  0
 10 11  1  0  0  0  0
 10 14  1  0  0  0  0
 11 15  1  0  0  0  0
 13  5  1  0  0  0  0
 16 12  1  0  0  0  0
M  RAD  3   2   2   3   3   4   2
M  END
