Coordinates from ORCA-job 4-NO2PhN2+~Cl-_B3LYPG-6-31G_dp-CH-Scan-d09-49-n800
 OpenBabel11261919153D

 16 15  0  0  0  0  0  0  0  0999 V2000
   -1.1661   -0.0102   -0.0470 C   0  0  0  0  0  0  0  0  0  0  0  0
   -2.5679    0.0289   -0.0444 N   0  0  0  0  0  0  0  0  0  0  0  0
   -3.6796    0.1387   -0.0481 N   0  0  0  0  0  0  0  0  0  0  0  0
   -0.6064    1.2647   -0.1570 C   0  0  0  0  0  0  0  0  0  0  0  0
    0.8164    1.1726   -0.1566 C   0  0  0  0  0  0  0  0  0  0  0  0
    1.4701   -0.0463   -0.0597 C   0  0  0  0  0  0  0  0  0  0  0  0
    2.9577   -0.0747   -0.0667 N   0  0  0  0  0  0  0  0  0  0  0  0
    3.5470    0.9958   -0.1747 O   0  0  0  0  0  0  0  0  0  0  0  0
    3.5031   -1.1727    0.0379 O   0  0  0  0  0  0  0  0  0  0  0  0
    0.8113   -1.2914    0.0489 C   0  0  0  0  0  0  0  0  0  0  0  0
   -0.5639   -1.2924    0.0574 C   0  0  0  0  0  0  0  0  0  0  0  0
   -2.5413    3.6359   -0.3682 H   0  0  0  0  0  0  0  0  0  0  0  0
    1.4270    2.0675   -0.2339 H   0  0  0  0  0  0  0  0  0  0  0  0
    1.3925   -2.2007    0.1222 H   0  0  0  0  0  0  0  0  0  0  0  0
   -1.1393   -2.2098    0.1389 H   0  0  0  0  0  0  0  0  0  0  0  0
   -3.7138    4.1726   -0.4193 Cl  0  0  0  0  0  0  0  0  0  0  0  0
  1  2  1  0  0  0  0
  1 11  2  0  0  0  0
  3  2  1  0  0  0  0
  4  5  2  0  0  0  0
  4  1  1  0  0  0  0
  5  6  1  0  0  0  0
  6 10  2  0  0  0  0
  7  6  1  0  0  0  0
  7  9  2  0  0  0  0
  8  7  2  0  0  0  0
 10 11  1  0  0  0  0
 10 14  1  0  0  0  0
 11 15  1  0  0  0  0
 13  5  1  0  0  0  0
 16 12  1  0  0  0  0
M  RAD  3   2   2   3   3   4   2
M  END
