Coordinates from ORCA-job 4-NO2PhN2+~Cl-_B3LYPG-6-31G_dp-CH-Scan-d09-49-n800
 OpenBabel11261919153D

 16 15  0  0  0  0  0  0  0  0999 V2000
   -1.0163    0.0608   -0.0667 C   0  0  0  0  0  0  0  0  0  0  0  0
   -2.4161    0.2029   -0.0777 N   0  0  0  0  0  0  0  0  0  0  0  0
   -3.5157    0.4015   -0.0942 N   0  0  0  0  0  0  0  0  0  0  0  0
   -0.3745    1.2932   -0.1817 C   0  0  0  0  0  0  0  0  0  0  0  0
    1.0403    1.0978   -0.1653 C   0  0  0  0  0  0  0  0  0  0  0  0
    1.6063   -0.1625   -0.0494 C   0  0  0  0  0  0  0  0  0  0  0  0
    3.0877   -0.2960   -0.0378 N   0  0  0  0  0  0  0  0  0  0  0  0
    3.7542    0.7296   -0.1392 O   0  0  0  0  0  0  0  0  0  0  0  0
    3.5546   -1.4297    0.0706 O   0  0  0  0  0  0  0  0  0  0  0  0
    0.8601   -1.3581    0.0620 C   0  0  0  0  0  0  0  0  0  0  0  0
   -0.5116   -1.2611    0.0549 C   0  0  0  0  0  0  0  0  0  0  0  0
   -3.4899    4.5435   -0.4372 H   0  0  0  0  0  0  0  0  0  0  0  0
    1.7146    1.9460   -0.2445 H   0  0  0  0  0  0  0  0  0  0  0  0
    1.3751   -2.3053    0.1492 H   0  0  0  0  0  0  0  0  0  0  0  0
   -1.1520   -2.1347    0.1368 H   0  0  0  0  0  0  0  0  0  0  0  0
   -4.5702    3.8505   -0.3503 Cl  0  0  0  0  0  0  0  0  0  0  0  0
  1 11  2  0  0  0  0
  2  1  1  0  0  0  0
  3  2  1  0  0  0  0
  4  5  2  0  0  0  0
  4  1  1  0  0  0  0
  5  6  1  0  0  0  0
  6  7  1  0  0  0  0
  6 10  2  0  0  0  0
  7  9  2  0  0  0  0
  8  7  2  0  0  0  0
 10 14  1  0  0  0  0
 11 10  1  0  0  0  0
 11 15  1  0  0  0  0
 12 16  1  0  0  0  0
 13  5  1  0  0  0  0
M  RAD  3   2   2   3   3   4   2
M  END
