Coordinates from ORCA-job 4-NO2PhN2+~Cl-_B3LYPG-6-31G_dp-CH-Scan-d09-49-n800
 OpenBabel11261919153D

 16 16  0  0  0  0  0  0  0  0999 V2000
   -1.3609    0.1984    0.0730 C   0  0  0  0  0  0  0  0  0  0  0  0
   -2.7687    0.1512    0.1871 N   0  0  0  0  0  0  0  0  0  0  0  0
   -3.7110    0.8124   -0.0569 N   0  0  0  0  0  0  0  0  0  0  0  0
   -0.6495    1.4077    0.0229 C   0  0  0  0  0  0  0  0  0  0  0  0
    0.7397    1.3467   -0.0501 C   0  0  0  0  0  0  0  0  0  0  0  0
    1.3701    0.1051   -0.0793 C   0  0  0  0  0  0  0  0  0  0  0  0
    2.8454    0.0588   -0.1652 N   0  0  0  0  0  0  0  0  0  0  0  0
    3.4422    1.1311   -0.2075 O   0  0  0  0  0  0  0  0  0  0  0  0
    3.3734   -1.0501   -0.1885 O   0  0  0  0  0  0  0  0  0  0  0  0
    0.6676   -1.0971   -0.0218 C   0  0  0  0  0  0  0  0  0  0  0  0
   -0.7172   -1.0464    0.0723 C   0  0  0  0  0  0  0  0  0  0  0  0
   -1.1103    2.2499    0.0370 H   0  0  0  0  0  0  0  0  0  0  0  0
    1.3373    2.2490   -0.0899 H   0  0  0  0  0  0  0  0  0  0  0  0
    1.2070   -2.0354   -0.0399 H   0  0  0  0  0  0  0  0  0  0  0  0
   -1.3095   -1.9519    0.1376 H   0  0  0  0  0  0  0  0  0  0  0  0
   -3.4086    2.6490   -1.0010 Cl  0  0  0  0  0  0  0  0  0  0  0  0
  1  2  1  0  0  0  0
  3  2  2  0  0  0  0
  4 12  1  0  0  0  0
  4  1  2  0  0  0  0
  5  4  1  0  0  0  0
  6  5  2  0  0  0  0
  6 10  1  0  0  0  0
  7  6  1  0  0  0  0
  8  7  2  0  0  0  0
  9  7  2  0  0  0  0
 10 11  2  0  0  0  0
 11  1  1  0  0  0  0
 11 15  1  0  0  0  0
 13  5  1  0  0  0  0
 14 10  1  0  0  0  0
 16  3  1  0  0  0  0
M  END
