Coordinates from ORCA-job 4-NO2PhN2+~Cl-_B3LYPG-6-31G_dp-CH-Scan-d09-49-n800
 OpenBabel11261919153D

 16 15  0  0  0  0  0  0  0  0999 V2000
   -1.1794   -0.0024   -0.0488 C   0  0  0  0  0  0  0  0  0  0  0  0
   -2.5806    0.0332   -0.0460 N   0  0  0  0  0  0  0  0  0  0  0  0
   -3.6926    0.1393   -0.0499 N   0  0  0  0  0  0  0  0  0  0  0  0
   -0.6205    1.2731   -0.1598 C   0  0  0  0  0  0  0  0  0  0  0  0
    0.8020    1.1845   -0.1594 C   0  0  0  0  0  0  0  0  0  0  0  0
    1.4579   -0.0332   -0.0608 C   0  0  0  0  0  0  0  0  0  0  0  0
    2.9456   -0.0585   -0.0673 N   0  0  0  0  0  0  0  0  0  0  0  0
    3.5326    1.0131   -0.1761 O   0  0  0  0  0  0  0  0  0  0  0  0
    3.4929   -1.1555    0.0377 O   0  0  0  0  0  0  0  0  0  0  0  0
    0.8013   -1.2792    0.0487 C   0  0  0  0  0  0  0  0  0  0  0  0
   -0.5738   -1.2828    0.0569 C   0  0  0  0  0  0  0  0  0  0  0  0
   -2.4662    3.5368   -0.3593 H   0  0  0  0  0  0  0  0  0  0  0  0
    1.4105    2.0806   -0.2377 H   0  0  0  0  0  0  0  0  0  0  0  0
    1.3842   -2.1874    0.1230 H   0  0  0  0  0  0  0  0  0  0  0  0
   -1.1474   -2.2014    0.1389 H   0  0  0  0  0  0  0  0  0  0  0  0
   -3.6194    4.1182   -0.4105 Cl  0  0  0  0  0  0  0  0  0  0  0  0
  1  2  1  0  0  0  0
  1 11  2  0  0  0  0
  3  2  1  0  0  0  0
  4  5  2  0  0  0  0
  4  1  1  0  0  0  0
  5  6  1  0  0  0  0
  6 10  2  0  0  0  0
  7  6  1  0  0  0  0
  7  9  2  0  0  0  0
  8  7  2  0  0  0  0
 10 11  1  0  0  0  0
 10 14  1  0  0  0  0
 11 15  1  0  0  0  0
 13  5  1  0  0  0  0
 16 12  1  0  0  0  0
M  RAD  3   2   2   3   3   4   2
M  END
