Coordinates from ORCA-job 4-NO2PhN2+~Cl-_B3LYPG-6-31G_dp-CH-Scan-d09-49-n800
 OpenBabel11261919153D

 16 15  0  0  0  0  0  0  0  0999 V2000
   -1.1974    0.0162   -0.0519 C   0  0  0  0  0  0  0  0  0  0  0  0
   -2.5980    0.0512   -0.0485 N   0  0  0  0  0  0  0  0  0  0  0  0
   -3.7096    0.1580   -0.0518 N   0  0  0  0  0  0  0  0  0  0  0  0
   -0.6360    1.2910   -0.1648 C   0  0  0  0  0  0  0  0  0  0  0  0
    0.7856    1.2039   -0.1648 C   0  0  0  0  0  0  0  0  0  0  0  0
    1.4415   -0.0138   -0.0644 C   0  0  0  0  0  0  0  0  0  0  0  0
    2.9292   -0.0388   -0.0712 N   0  0  0  0  0  0  0  0  0  0  0  0
    3.5155    1.0337   -0.1736 O   0  0  0  0  0  0  0  0  0  0  0  0
    3.4765   -1.1348    0.0418 O   0  0  0  0  0  0  0  0  0  0  0  0
    0.7849   -1.2591    0.0469 C   0  0  0  0  0  0  0  0  0  0  0  0
   -0.5905   -1.2631    0.0552 C   0  0  0  0  0  0  0  0  0  0  0  0
   -2.3591    3.3779   -0.3439 H   0  0  0  0  0  0  0  0  0  0  0  0
    1.3933    2.1003   -0.2448 H   0  0  0  0  0  0  0  0  0  0  0  0
    1.3677   -2.1673    0.1224 H   0  0  0  0  0  0  0  0  0  0  0  0
   -1.1635   -2.1818    0.1386 H   0  0  0  0  0  0  0  0  0  0  0  0
   -3.4934    4.0049   -0.3956 Cl  0  0  0  0  0  0  0  0  0  0  0  0
  1  2  1  0  0  0  0
  1 11  2  0  0  0  0
  3  2  1  0  0  0  0
  4  5  2  0  0  0  0
  4  1  1  0  0  0  0
  5  6  1  0  0  0  0
  6 10  2  0  0  0  0
  7  6  1  0  0  0  0
  7  9  2  0  0  0  0
  8  7  2  0  0  0  0
 10 11  1  0  0  0  0
 10 14  1  0  0  0  0
 11 15  1  0  0  0  0
 13  5  1  0  0  0  0
 16 12  1  0  0  0  0
M  RAD  3   2   2   3   3   4   2
M  END
