Coordinates from ORCA-job 4-NO2PhN2+~Cl-_B3LYPG-6-31G_dp-CH-Scan-d09-49-n800
 OpenBabel11261919153D

 16 15  0  0  0  0  0  0  0  0999 V2000
   -1.1611   -0.0178   -0.0453 C   0  0  0  0  0  0  0  0  0  0  0  0
   -2.5630    0.0216   -0.0423 N   0  0  0  0  0  0  0  0  0  0  0  0
   -3.6747    0.1325   -0.0473 N   0  0  0  0  0  0  0  0  0  0  0  0
   -0.6031    1.2579   -0.1545 C   0  0  0  0  0  0  0  0  0  0  0  0
    0.8201    1.1661   -0.1550 C   0  0  0  0  0  0  0  0  0  0  0  0
    1.4746   -0.0524   -0.0590 C   0  0  0  0  0  0  0  0  0  0  0  0
    2.9622   -0.0798   -0.0664 N   0  0  0  0  0  0  0  0  0  0  0  0
    3.5510    0.9910   -0.1744 O   0  0  0  0  0  0  0  0  0  0  0  0
    3.5084   -1.1776    0.0369 O   0  0  0  0  0  0  0  0  0  0  0  0
    0.8167   -1.2981    0.0490 C   0  0  0  0  0  0  0  0  0  0  0  0
   -0.5584   -1.2999    0.0580 C   0  0  0  0  0  0  0  0  0  0  0  0
   -2.5692    3.6935   -0.3735 H   0  0  0  0  0  0  0  0  0  0  0  0
    1.4304    2.0613   -0.2321 H   0  0  0  0  0  0  0  0  0  0  0  0
    1.3986   -2.2071    0.1214 H   0  0  0  0  0  0  0  0  0  0  0  0
   -1.1335   -2.2177    0.1389 H   0  0  0  0  0  0  0  0  0  0  0  0
   -3.7521    4.2050   -0.4248 Cl  0  0  0  0  0  0  0  0  0  0  0  0
  1  2  1  0  0  0  0
  1 11  2  0  0  0  0
  3  2  1  0  0  0  0
  4  1  1  0  0  0  0
  5  4  2  0  0  0  0
  5  6  1  0  0  0  0
  6 10  2  0  0  0  0
  7  6  1  0  0  0  0
  7  9  2  0  0  0  0
  8  7  2  0  0  0  0
 10 11  1  0  0  0  0
 10 14  1  0  0  0  0
 11 15  1  0  0  0  0
 13  5  1  0  0  0  0
 16 12  1  0  0  0  0
M  RAD  3   2   2   3   3   4   2
M  END
