Coordinates from ORCA-job 4-NO2PhN2+~Cl-_B3LYPG-6-31G_dp-CH-Scan-d09-49-n800
 OpenBabel11261919153D

 16 16  0  0  0  0  0  0  0  0999 V2000
   -1.3510    0.1832    0.0352 C   0  0  0  0  0  0  0  0  0  0  0  0
   -2.7593    0.1328    0.1258 N   0  0  0  0  0  0  0  0  0  0  0  0
   -3.7171    0.7856   -0.0578 N   0  0  0  0  0  0  0  0  0  0  0  0
   -0.6371    1.3887   -0.0281 C   0  0  0  0  0  0  0  0  0  0  0  0
    0.7518    1.3351   -0.0811 C   0  0  0  0  0  0  0  0  0  0  0  0
    1.3825    0.0925   -0.0762 C   0  0  0  0  0  0  0  0  0  0  0  0
    2.8599    0.0460   -0.1393 N   0  0  0  0  0  0  0  0  0  0  0  0
    3.4559    1.1178   -0.1958 O   0  0  0  0  0  0  0  0  0  0  0  0
    3.3888   -1.0626   -0.1315 O   0  0  0  0  0  0  0  0  0  0  0  0
    0.6811   -1.1102   -0.0079 C   0  0  0  0  0  0  0  0  0  0  0  0
   -0.7050   -1.0613    0.0619 C   0  0  0  0  0  0  0  0  0  0  0  0
   -1.1957    2.3712   -0.0465 H   0  0  0  0  0  0  0  0  0  0  0  0
    1.3493    2.2367   -0.1303 H   0  0  0  0  0  0  0  0  0  0  0  0
    1.2228   -2.0473   -0.0014 H   0  0  0  0  0  0  0  0  0  0  0  0
   -1.2967   -1.9670    0.1317 H   0  0  0  0  0  0  0  0  0  0  0  0
   -3.4833    2.7373   -0.8291 Cl  0  0  0  0  0  0  0  0  0  0  0  0
  1 11  1  0  0  0  0
  1  2  1  0  0  0  0
  3  2  2  0  0  0  0
  4  1  2  0  0  0  0
  5  6  2  0  0  0  0
  5  4  1  0  0  0  0
  6 10  1  0  0  0  0
  7  9  2  0  0  0  0
  7  6  1  0  0  0  0
  8  7  2  0  0  0  0
 10 14  1  0  0  0  0
 10 11  2  0  0  0  0
 11 15  1  0  0  0  0
 12  4  1  0  0  0  0
 13  5  1  0  0  0  0
 16  3  1  0  0  0  0
M  END
