Coordinates from ORCA-job 4-NO2PhN2+~Cl-_B3LYPG-6-31G_dp-CH-Scan-d09-49-n800
 OpenBabel11261919153D

 16 15  0  0  0  0  0  0  0  0999 V2000
   -1.2057    0.0234   -0.0528 C   0  0  0  0  0  0  0  0  0  0  0  0
   -2.6061    0.0577   -0.0504 N   0  0  0  0  0  0  0  0  0  0  0  0
   -3.7177    0.1644   -0.0550 N   0  0  0  0  0  0  0  0  0  0  0  0
   -0.6437    1.2980   -0.1657 C   0  0  0  0  0  0  0  0  0  0  0  0
    0.7776    1.2125   -0.1647 C   0  0  0  0  0  0  0  0  0  0  0  0
    1.4339   -0.0049   -0.0634 C   0  0  0  0  0  0  0  0  0  0  0  0
    2.9217   -0.0290   -0.0690 N   0  0  0  0  0  0  0  0  0  0  0  0
    3.5073    1.0432   -0.1783 O   0  0  0  0  0  0  0  0  0  0  0  0
    3.4693   -1.1255    0.0372 O   0  0  0  0  0  0  0  0  0  0  0  0
    0.7778   -1.2503    0.0477 C   0  0  0  0  0  0  0  0  0  0  0  0
   -0.5977   -1.2551    0.0550 C   0  0  0  0  0  0  0  0  0  0  0  0
   -2.3099    3.3089   -0.3375 H   0  0  0  0  0  0  0  0  0  0  0  0
    1.3844    2.1095   -0.2445 H   0  0  0  0  0  0  0  0  0  0  0  0
    1.3609   -2.1583    0.1238 H   0  0  0  0  0  0  0  0  0  0  0  0
   -1.1702   -2.1741    0.1382 H   0  0  0  0  0  0  0  0  0  0  0  0
   -3.4350    3.9577   -0.3908 Cl  0  0  0  0  0  0  0  0  0  0  0  0
  1  2  1  0  0  0  0
  1 11  2  0  0  0  0
  3  2  1  0  0  0  0
  4  5  2  0  0  0  0
  4  1  1  0  0  0  0
  5  6  1  0  0  0  0
  6 10  2  0  0  0  0
  7  6  1  0  0  0  0
  7  9  2  0  0  0  0
  8  7  2  0  0  0  0
 10 11  1  0  0  0  0
 10 14  1  0  0  0  0
 11 15  1  0  0  0  0
 13  5  1  0  0  0  0
 16 12  1  0  0  0  0
M  RAD  3   2   2   3   3   4   2
M  END
