Coordinates from ORCA-job 4-NO2PhN2+~Cl-_B3LYPG-6-31G_dp-CH-Scan-d09-49-n800
 OpenBabel11261919153D

 16 16  0  0  0  0  0  0  0  0999 V2000
   -1.3453    0.1630   -0.0635 C   0  0  0  0  0  0  0  0  0  0  0  0
   -2.7553    0.1038   -0.0493 N   0  0  0  0  0  0  0  0  0  0  0  0
   -3.7216    0.7625   -0.1045 N   0  0  0  0  0  0  0  0  0  0  0  0
   -0.6353    1.3669   -0.1718 C   0  0  0  0  0  0  0  0  0  0  0  0
    0.7544    1.3215   -0.1764 C   0  0  0  0  0  0  0  0  0  0  0  0
    1.3897    0.0851   -0.0733 C   0  0  0  0  0  0  0  0  0  0  0  0
    2.8694    0.0449   -0.0787 N   0  0  0  0  0  0  0  0  0  0  0  0
    3.4618    1.1159   -0.1736 O   0  0  0  0  0  0  0  0  0  0  0  0
    3.4025   -1.0564    0.0283 O   0  0  0  0  0  0  0  0  0  0  0  0
    0.6928   -1.1176    0.0353 C   0  0  0  0  0  0  0  0  0  0  0  0
   -0.6951   -1.0761    0.0403 C   0  0  0  0  0  0  0  0  0  0  0  0
   -1.2441    2.3921   -0.2572 H   0  0  0  0  0  0  0  0  0  0  0  0
    1.3492    2.2225   -0.2582 H   0  0  0  0  0  0  0  0  0  0  0  0
    1.2390   -2.0488    0.1132 H   0  0  0  0  0  0  0  0  0  0  0  0
   -1.2851   -1.9820    0.1231 H   0  0  0  0  0  0  0  0  0  0  0  0
   -3.5301    2.8811   -0.3038 Cl  0  0  0  0  0  0  0  0  0  0  0  0
  1  2  1  0  0  0  0
  1 11  2  0  0  0  0
  3  2  2  0  0  0  0
  4  1  1  0  0  0  0
  5  4  2  0  0  0  0
  5  6  1  0  0  0  0
  6 10  2  0  0  0  0
  7  6  1  0  0  0  0
  7  9  2  0  0  0  0
  8  7  2  0  0  0  0
 10 11  1  0  0  0  0
 10 14  1  0  0  0  0
 11 15  1  0  0  0  0
 12  4  1  0  0  0  0
 13  5  1  0  0  0  0
 16  3  1  0  0  0  0
M  END
