Coordinates from ORCA-job 4-NO2PhN2+~Cl-_B3LYPG-6-31G_dp-CH-Scan-d09-49-n800
 OpenBabel11261919153D

 16 15  0  0  0  0  0  0  0  0999 V2000
   -1.2824    0.0722   -0.0579 C   0  0  0  0  0  0  0  0  0  0  0  0
   -2.6822    0.1020   -0.0549 N   0  0  0  0  0  0  0  0  0  0  0  0
   -3.7872    0.2511   -0.0632 N   0  0  0  0  0  0  0  0  0  0  0  0
   -0.7128    1.3434   -0.1718 C   0  0  0  0  0  0  0  0  0  0  0  0
    0.7017    1.2839   -0.1728 C   0  0  0  0  0  0  0  0  0  0  0  0
    1.3670    0.0700   -0.0698 C   0  0  0  0  0  0  0  0  0  0  0  0
    2.8550    0.0599   -0.0757 N   0  0  0  0  0  0  0  0  0  0  0  0
    3.4276    1.1384   -0.1834 O   0  0  0  0  0  0  0  0  0  0  0  0
    3.4106   -1.0320    0.0284 O   0  0  0  0  0  0  0  0  0  0  0  0
    0.7198   -1.1767    0.0424 C   0  0  0  0  0  0  0  0  0  0  0  0
   -0.6576   -1.1940    0.0502 C   0  0  0  0  0  0  0  0  0  0  0  0
   -1.8487    2.7040   -0.2854 H   0  0  0  0  0  0  0  0  0  0  0  0
    1.2936    2.1898   -0.2548 H   0  0  0  0  0  0  0  0  0  0  0  0
    1.3090   -2.0807    0.1192 H   0  0  0  0  0  0  0  0  0  0  0  0
   -1.2210   -2.1179    0.1341 H   0  0  0  0  0  0  0  0  0  0  0  0
   -2.9457    3.5651   -0.3549 Cl  0  0  0  0  0  0  0  0  0  0  0  0
  1  2  1  0  0  0  0
  1 11  2  0  0  0  0
  3  2  1  0  0  0  0
  4  1  1  0  0  0  0
  5  4  2  0  0  0  0
  5  6  1  0  0  0  0
  6 10  2  0  0  0  0
  7  6  1  0  0  0  0
  7  9  2  0  0  0  0
  8  7  2  0  0  0  0
 10 11  1  0  0  0  0
 10 14  1  0  0  0  0
 11 15  1  0  0  0  0
 13  5  1  0  0  0  0
 16 12  1  0  0  0  0
M  RAD  3   2   2   3   3   4   2
M  END
