Coordinates from ORCA-job 4-NO2PhN2+~Cl-_B3LYPG-6-31G_dp-CH-Scan-d09-49-n800
 OpenBabel11261919153D

 16 16  0  0  0  0  0  0  0  0999 V2000
   -1.3513    0.1832    0.0354 C   0  0  0  0  0  0  0  0  0  0  0  0
   -2.7595    0.1330    0.1259 N   0  0  0  0  0  0  0  0  0  0  0  0
   -3.7171    0.7861   -0.0579 N   0  0  0  0  0  0  0  0  0  0  0  0
   -0.6376    1.3890   -0.0281 C   0  0  0  0  0  0  0  0  0  0  0  0
    0.7513    1.3354   -0.0812 C   0  0  0  0  0  0  0  0  0  0  0  0
    1.3821    0.0928   -0.0763 C   0  0  0  0  0  0  0  0  0  0  0  0
    2.8595    0.0464   -0.1396 N   0  0  0  0  0  0  0  0  0  0  0  0
    3.4554    1.1184   -0.1957 O   0  0  0  0  0  0  0  0  0  0  0  0
    3.3885   -1.0621   -0.1314 O   0  0  0  0  0  0  0  0  0  0  0  0
    0.6809   -1.1099   -0.0080 C   0  0  0  0  0  0  0  0  0  0  0  0
   -0.7052   -1.0612    0.0620 C   0  0  0  0  0  0  0  0  0  0  0  0
   -1.1938    2.3670   -0.0462 H   0  0  0  0  0  0  0  0  0  0  0  0
    1.3488    2.2370   -0.1305 H   0  0  0  0  0  0  0  0  0  0  0  0
    1.2227   -2.0470   -0.0015 H   0  0  0  0  0  0  0  0  0  0  0  0
   -1.2969   -1.9670    0.1319 H   0  0  0  0  0  0  0  0  0  0  0  0
   -3.4808    2.7373   -0.8291 Cl  0  0  0  0  0  0  0  0  0  0  0  0
  1 11  1  0  0  0  0
  1  2  1  0  0  0  0
  3  2  2  0  0  0  0
  4  1  2  0  0  0  0
  5  6  2  0  0  0  0
  5  4  1  0  0  0  0
  6 10  1  0  0  0  0
  7  9  2  0  0  0  0
  7  6  1  0  0  0  0
  8  7  2  0  0  0  0
 10 14  1  0  0  0  0
 10 11  2  0  0  0  0
 11 15  1  0  0  0  0
 12  4  1  0  0  0  0
 13  5  1  0  0  0  0
 16  3  1  0  0  0  0
M  END
