Coordinates from ORCA-job 4-NO2PhN2+~Cl-_B3LYPG-6-31G_dp-CH-Scan-d09-49-n800
 OpenBabel11261919153D

 16 15  0  0  0  0  0  0  0  0999 V2000
   -0.9831    0.0749   -0.0658 C   0  0  0  0  0  0  0  0  0  0  0  0
   -2.3807    0.2386   -0.0760 N   0  0  0  0  0  0  0  0  0  0  0  0
   -3.4772    0.4538   -0.0915 N   0  0  0  0  0  0  0  0  0  0  0  0
   -0.3231    1.2976   -0.1794 C   0  0  0  0  0  0  0  0  0  0  0  0
    1.0888    1.0810   -0.1632 C   0  0  0  0  0  0  0  0  0  0  0  0
    1.6357   -0.1877   -0.0479 C   0  0  0  0  0  0  0  0  0  0  0  0
    3.1149   -0.3435   -0.0356 N   0  0  0  0  0  0  0  0  0  0  0  0
    3.7969    0.6725   -0.1301 O   0  0  0  0  0  0  0  0  0  0  0  0
    3.5647   -1.4844    0.0693 O   0  0  0  0  0  0  0  0  0  0  0  0
    0.8716   -1.3722    0.0617 C   0  0  0  0  0  0  0  0  0  0  0  0
   -0.4985   -1.2547    0.0542 C   0  0  0  0  0  0  0  0  0  0  0  0
   -3.7464    4.6871   -0.4469 H   0  0  0  0  0  0  0  0  0  0  0  0
    1.7755    1.9191   -0.2417 H   0  0  0  0  0  0  0  0  0  0  0  0
    1.3723   -2.3271    0.1480 H   0  0  0  0  0  0  0  0  0  0  0  0
   -1.1520   -2.1187    0.1347 H   0  0  0  0  0  0  0  0  0  0  0  0
   -4.7124    3.8422   -0.3602 Cl  0  0  0  0  0  0  0  0  0  0  0  0
  1 11  2  0  0  0  0
  2  1  1  0  0  0  0
  3  2  1  0  0  0  0
  4  5  2  0  0  0  0
  4  1  1  0  0  0  0
  5  6  1  0  0  0  0
  6  7  1  0  0  0  0
  6 10  2  0  0  0  0
  7  9  2  0  0  0  0
  8  7  2  0  0  0  0
 10 14  1  0  0  0  0
 11 10  1  0  0  0  0
 11 15  1  0  0  0  0
 12 16  1  0  0  0  0
 13  5  1  0  0  0  0
M  RAD  3   2   2   3   3   4   2
M  END
