Coordinates from ORCA-job 4-NO2PhN2+~Cl-_B3LYPG-6-31G_dp-CH-Scan-d09-49-n800
 OpenBabel11261919153D

 16 16  0  0  0  0  0  0  0  0999 V2000
   -1.3391    0.1515   -0.0653 C   0  0  0  0  0  0  0  0  0  0  0  0
   -2.7496    0.1067   -0.0557 N   0  0  0  0  0  0  0  0  0  0  0  0
   -3.7137    0.7631   -0.1081 N   0  0  0  0  0  0  0  0  0  0  0  0
   -0.6332    1.3554   -0.1741 C   0  0  0  0  0  0  0  0  0  0  0  0
    0.7558    1.3176   -0.1771 C   0  0  0  0  0  0  0  0  0  0  0  0
    1.3917    0.0812   -0.0710 C   0  0  0  0  0  0  0  0  0  0  0  0
    2.8720    0.0427   -0.0738 N   0  0  0  0  0  0  0  0  0  0  0  0
    3.4630    1.1134   -0.1780 O   0  0  0  0  0  0  0  0  0  0  0  0
    3.4064   -1.0584    0.0286 O   0  0  0  0  0  0  0  0  0  0  0  0
    0.6976   -1.1239    0.0383 C   0  0  0  0  0  0  0  0  0  0  0  0
   -0.6905   -1.0880    0.0410 C   0  0  0  0  0  0  0  0  0  0  0  0
   -1.3136    2.4363   -0.2653 H   0  0  0  0  0  0  0  0  0  0  0  0
    1.3494    2.2192   -0.2593 H   0  0  0  0  0  0  0  0  0  0  0  0
    1.2471   -2.0529    0.1184 H   0  0  0  0  0  0  0  0  0  0  0  0
   -1.2779   -1.9956    0.1237 H   0  0  0  0  0  0  0  0  0  0  0  0
   -3.5183    2.9101   -0.2927 Cl  0  0  0  0  0  0  0  0  0  0  0  0
  1  2  1  0  0  0  0
  1 11  2  0  0  0  0
  3  2  2  0  0  0  0
  4  1  1  0  0  0  0
  5  4  2  0  0  0  0
  5  6  1  0  0  0  0
  6 10  2  0  0  0  0
  7  6  1  0  0  0  0
  7  9  2  0  0  0  0
  8  7  2  0  0  0  0
 10 11  1  0  0  0  0
 10 14  1  0  0  0  0
 11 15  1  0  0  0  0
 12  4  1  0  0  0  0
 13  5  1  0  0  0  0
 16  3  1  0  0  0  0
M  END
