Coordinates from ORCA-job 4-NO2PhN2+~Cl-_B3LYPG-6-31G_dp-CH-Scan-d09-49-n800
 OpenBabel11261919153D

 16 15  0  0  0  0  0  0  0  0999 V2000
   -1.2872    0.0712   -0.0578 C   0  0  0  0  0  0  0  0  0  0  0  0
   -2.7036    0.1351   -0.0569 N   0  0  0  0  0  0  0  0  0  0  0  0
   -3.7157    0.6226   -0.0945 N   0  0  0  0  0  0  0  0  0  0  0  0
   -0.7011    1.3268   -0.1702 C   0  0  0  0  0  0  0  0  0  0  0  0
    0.7049    1.2920   -0.1735 C   0  0  0  0  0  0  0  0  0  0  0  0
    1.3698    0.0737   -0.0700 C   0  0  0  0  0  0  0  0  0  0  0  0
    2.8561    0.0666   -0.0761 N   0  0  0  0  0  0  0  0  0  0  0  0
    3.4255    1.1475   -0.1825 O   0  0  0  0  0  0  0  0  0  0  0  0
    3.4149   -1.0234    0.0263 O   0  0  0  0  0  0  0  0  0  0  0  0
    0.7204   -1.1673    0.0414 C   0  0  0  0  0  0  0  0  0  0  0  0
   -0.6621   -1.1836    0.0490 C   0  0  0  0  0  0  0  0  0  0  0  0
   -1.7697    2.5147   -0.2695 H   0  0  0  0  0  0  0  0  0  0  0  0
    1.2911    2.2009   -0.2558 H   0  0  0  0  0  0  0  0  0  0  0  0
    1.3080   -2.0725    0.1183 H   0  0  0  0  0  0  0  0  0  0  0  0
   -1.2264   -2.1066    0.1326 H   0  0  0  0  0  0  0  0  0  0  0  0
   -3.0780    3.2810   -0.3311 Cl  0  0  0  0  0  0  0  0  0  0  0  0
  1  2  1  0  0  0  0
  1 11  2  0  0  0  0
  3  2  1  0  0  0  0
  4  1  1  0  0  0  0
  5  4  2  0  0  0  0
  5  6  1  0  0  0  0
  6 10  2  0  0  0  0
  7  6  1  0  0  0  0
  7  9  2  0  0  0  0
  8  7  2  0  0  0  0
 10 11  1  0  0  0  0
 10 14  1  0  0  0  0
 11 15  1  0  0  0  0
 13  5  1  0  0  0  0
 16 12  1  0  0  0  0
M  RAD  3   2   2   3   3   4   2
M  END
