Coordinates from ORCA-job 4-NO2PhN2+~Cl-_B3LYPG-6-31G_dp-CH-Scan-d09-49-n800
 OpenBabel11261919153D

 16 15  0  0  0  0  0  0  0  0999 V2000
   -1.2485    0.0474   -0.0552 C   0  0  0  0  0  0  0  0  0  0  0  0
   -2.6479    0.0729   -0.0520 N   0  0  0  0  0  0  0  0  0  0  0  0
   -3.7586    0.1806   -0.0567 N   0  0  0  0  0  0  0  0  0  0  0  0
   -0.6870    1.3229   -0.1687 C   0  0  0  0  0  0  0  0  0  0  0  0
    0.7321    1.2504   -0.1687 C   0  0  0  0  0  0  0  0  0  0  0  0
    1.3953    0.0363   -0.0668 C   0  0  0  0  0  0  0  0  0  0  0  0
    2.8833    0.0219   -0.0728 N   0  0  0  0  0  0  0  0  0  0  0  0
    3.4607    1.0981   -0.1813 O   0  0  0  0  0  0  0  0  0  0  0  0
    3.4369   -1.0715    0.0315 O   0  0  0  0  0  0  0  0  0  0  0  0
    0.7463   -1.2115    0.0449 C   0  0  0  0  0  0  0  0  0  0  0  0
   -0.6298   -1.2248    0.0527 C   0  0  0  0  0  0  0  0  0  0  0  0
   -2.0672    2.9934   -0.3103 H   0  0  0  0  0  0  0  0  0  0  0  0
    1.3308    2.1523   -0.2497 H   0  0  0  0  0  0  0  0  0  0  0  0
    1.3342   -2.1163    0.1212 H   0  0  0  0  0  0  0  0  0  0  0  0
   -1.1961   -2.1473    0.1362 H   0  0  0  0  0  0  0  0  0  0  0  0
   -3.1374    3.7737   -0.3747 Cl  0  0  0  0  0  0  0  0  0  0  0  0
  1  2  1  0  0  0  0
  1 11  2  0  0  0  0
  3  2  1  0  0  0  0
  4  5  2  0  0  0  0
  4  1  1  0  0  0  0
  5  6  1  0  0  0  0
  6 10  2  0  0  0  0
  7  6  1  0  0  0  0
  7  9  2  0  0  0  0
  8  7  2  0  0  0  0
 10 11  1  0  0  0  0
 10 14  1  0  0  0  0
 11 15  1  0  0  0  0
 13  5  1  0  0  0  0
 16 12  1  0  0  0  0
M  RAD  3   2   2   3   3   4   2
M  END
