Coordinates from ORCA-job 4-NO2PhN2+~Cl-_B3LYPG-6-31G_dp-CH-Scan-d09-49-n800
 OpenBabel11261919153D

 16 15  0  0  0  0  0  0  0  0999 V2000
   -1.2120    0.0282   -0.0534 C   0  0  0  0  0  0  0  0  0  0  0  0
   -2.6124    0.0616   -0.0510 N   0  0  0  0  0  0  0  0  0  0  0  0
   -3.7238    0.1683   -0.0540 N   0  0  0  0  0  0  0  0  0  0  0  0
   -0.6497    1.3027   -0.1661 C   0  0  0  0  0  0  0  0  0  0  0  0
    0.7712    1.2187   -0.1651 C   0  0  0  0  0  0  0  0  0  0  0  0
    1.4282    0.0016   -0.0639 C   0  0  0  0  0  0  0  0  0  0  0  0
    2.9159   -0.0216   -0.0694 N   0  0  0  0  0  0  0  0  0  0  0  0
    3.5008    1.0510   -0.1784 O   0  0  0  0  0  0  0  0  0  0  0  0
    3.4641   -1.1178    0.0362 O   0  0  0  0  0  0  0  0  0  0  0  0
    0.7727   -1.2440    0.0470 C   0  0  0  0  0  0  0  0  0  0  0  0
   -0.6029   -1.2496    0.0543 C   0  0  0  0  0  0  0  0  0  0  0  0
   -2.2737    3.2577   -0.3335 H   0  0  0  0  0  0  0  0  0  0  0  0
    1.3772    2.1162   -0.2450 H   0  0  0  0  0  0  0  0  0  0  0  0
    1.3562   -2.1517    0.1231 H   0  0  0  0  0  0  0  0  0  0  0  0
   -1.1748   -2.1690    0.1374 H   0  0  0  0  0  0  0  0  0  0  0  0
   -3.3902    3.9261   -0.3886 Cl  0  0  0  0  0  0  0  0  0  0  0  0
  1  2  1  0  0  0  0
  1 11  2  0  0  0  0
  3  2  1  0  0  0  0
  4  5  2  0  0  0  0
  4  1  1  0  0  0  0
  5  6  1  0  0  0  0
  6 10  2  0  0  0  0
  7  6  1  0  0  0  0
  7  9  2  0  0  0  0
  8  7  2  0  0  0  0
 10 11  1  0  0  0  0
 10 14  1  0  0  0  0
 11 15  1  0  0  0  0
 13  5  1  0  0  0  0
 16 12  1  0  0  0  0
M  RAD  3   2   2   3   3   4   2
M  END
