Coordinates from ORCA-job 4-NO2PhN2+~Cl-_B3LYPG-6-31G_dp-CH-Scan-d09-49-n800
 OpenBabel11261919153D

 16 15  0  0  0  0  0  0  0  0999 V2000
   -1.1598   -0.0120   -0.0461 C   0  0  0  0  0  0  0  0  0  0  0  0
   -2.5618    0.0293   -0.0431 N   0  0  0  0  0  0  0  0  0  0  0  0
   -3.6734    0.1414   -0.0466 N   0  0  0  0  0  0  0  0  0  0  0  0
   -0.5989    1.2623   -0.1554 C   0  0  0  0  0  0  0  0  0  0  0  0
    0.8240    1.1678   -0.1554 C   0  0  0  0  0  0  0  0  0  0  0  0
    1.4759   -0.0521   -0.0593 C   0  0  0  0  0  0  0  0  0  0  0  0
    2.9634   -0.0827   -0.0664 N   0  0  0  0  0  0  0  0  0  0  0  0
    3.5544    0.9870   -0.1733 O   0  0  0  0  0  0  0  0  0  0  0  0
    3.5073   -1.1815    0.0382 O   0  0  0  0  0  0  0  0  0  0  0  0
    0.8153   -1.2964    0.0486 C   0  0  0  0  0  0  0  0  0  0  0  0
   -0.5598   -1.2953    0.0573 C   0  0  0  0  0  0  0  0  0  0  0  0
   -2.5766    3.6757   -0.3722 H   0  0  0  0  0  0  0  0  0  0  0  0
    1.4361    2.0618   -0.2323 H   0  0  0  0  0  0  0  0  0  0  0  0
    1.3953   -2.2066    0.1211 H   0  0  0  0  0  0  0  0  0  0  0  0
   -1.1367   -2.2120    0.1381 H   0  0  0  0  0  0  0  0  0  0  0  0
   -3.7577    4.1916   -0.4234 Cl  0  0  0  0  0  0  0  0  0  0  0  0
  1  2  1  0  0  0  0
  1 11  2  0  0  0  0
  3  2  1  0  0  0  0
  4  1  1  0  0  0  0
  5  4  2  0  0  0  0
  5  6  1  0  0  0  0
  6 10  2  0  0  0  0
  7  6  1  0  0  0  0
  7  9  2  0  0  0  0
  8  7  2  0  0  0  0
 10 11  1  0  0  0  0
 10 14  1  0  0  0  0
 11 15  1  0  0  0  0
 13  5  1  0  0  0  0
 16 12  1  0  0  0  0
M  RAD  3   2   2   3   3   4   2
M  END
