Coordinates from ORCA-job 4-NO2PhN2+~Cl-_B3LYPG-6-31G_dp-CH-Scan-d09-49-n800
 OpenBabel11261919153D

 16 15  0  0  0  0  0  0  0  0999 V2000
   -1.1417   -0.0022   -0.0390 C   0  0  0  0  0  0  0  0  0  0  0  0
   -2.5439    0.0533   -0.0339 N   0  0  0  0  0  0  0  0  0  0  0  0
   -3.6542    0.1782   -0.0357 N   0  0  0  0  0  0  0  0  0  0  0  0
   -0.5711    1.2683   -0.1400 C   0  0  0  0  0  0  0  0  0  0  0  0
    0.8513    1.1598   -0.1429 C   0  0  0  0  0  0  0  0  0  0  0  0
    1.4925   -0.0664   -0.0569 C   0  0  0  0  0  0  0  0  0  0  0  0
    2.9796   -0.1105   -0.0669 N   0  0  0  0  0  0  0  0  0  0  0  0
    3.5805    0.9544   -0.1677 O   0  0  0  0  0  0  0  0  0  0  0  0
    3.5139   -1.2148    0.0289 O   0  0  0  0  0  0  0  0  0  0  0  0
    0.8209   -1.3057    0.0431 C   0  0  0  0  0  0  0  0  0  0  0  0
   -0.5541   -1.2919    0.0542 C   0  0  0  0  0  0  0  0  0  0  0  0
   -2.6566    3.7911   -0.3937 H   0  0  0  0  0  0  0  0  0  0  0  0
    1.4719    2.0485   -0.2142 H   0  0  0  0  0  0  0  0  0  0  0  0
    1.3928   -2.2216    0.1081 H   0  0  0  0  0  0  0  0  0  0  0  0
   -1.1395   -2.2037    0.1294 H   0  0  0  0  0  0  0  0  0  0  0  0
   -3.8955    4.1415   -0.4431 Cl  0  0  0  0  0  0  0  0  0  0  0  0
  1  2  1  0  0  0  0
  1 11  2  0  0  0  0
  3  2  1  0  0  0  0
  4  1  1  0  0  0  0
  5  4  2  0  0  0  0
  5  6  1  0  0  0  0
  6 10  2  0  0  0  0
  7  6  1  0  0  0  0
  7  9  2  0  0  0  0
  8  7  2  0  0  0  0
 10 11  1  0  0  0  0
 10 14  1  0  0  0  0
 11 15  1  0  0  0  0
 13  5  1  0  0  0  0
 16 12  1  0  0  0  0
M  RAD  3   2   2   3   3   4   2
M  END
