Coordinates from ORCA-job 4-NO2PhN2+~Cl-_B3LYPG-6-31G_dp-CH-Scan-d09-49-n800
 OpenBabel11261919153D

 16 15  0  0  0  0  0  0  0  0999 V2000
   -1.2691    0.0613   -0.0565 C   0  0  0  0  0  0  0  0  0  0  0  0
   -2.6682    0.0854   -0.0531 N   0  0  0  0  0  0  0  0  0  0  0  0
   -3.7775    0.2031   -0.0587 N   0  0  0  0  0  0  0  0  0  0  0  0
   -0.7047    1.3354   -0.1703 C   0  0  0  0  0  0  0  0  0  0  0  0
    0.7123    1.2697   -0.1708 C   0  0  0  0  0  0  0  0  0  0  0  0
    1.3776    0.0564   -0.0684 C   0  0  0  0  0  0  0  0  0  0  0  0
    2.8656    0.0452   -0.0747 N   0  0  0  0  0  0  0  0  0  0  0  0
    3.4399    1.1230   -0.1825 O   0  0  0  0  0  0  0  0  0  0  0  0
    3.4210   -1.0471    0.0291 O   0  0  0  0  0  0  0  0  0  0  0  0
    0.7305   -1.1915    0.0434 C   0  0  0  0  0  0  0  0  0  0  0  0
   -0.6461   -1.2077    0.0513 C   0  0  0  0  0  0  0  0  0  0  0  0
   -1.9421    2.8324   -0.2965 H   0  0  0  0  0  0  0  0  0  0  0  0
    1.3072    2.1740   -0.2523 H   0  0  0  0  0  0  0  0  0  0  0  0
    1.3197   -2.0955    0.1198 H   0  0  0  0  0  0  0  0  0  0  0  0
   -1.2103   -2.1314    0.1351 H   0  0  0  0  0  0  0  0  0  0  0  0
   -3.0092    3.6658   -0.3651 Cl  0  0  0  0  0  0  0  0  0  0  0  0
  1  2  1  0  0  0  0
  1 11  2  0  0  0  0
  3  2  1  0  0  0  0
  4  1  1  0  0  0  0
  5  4  2  0  0  0  0
  5  6  1  0  0  0  0
  6 10  2  0  0  0  0
  7  6  1  0  0  0  0
  7  9  2  0  0  0  0
  8  7  2  0  0  0  0
 10 11  1  0  0  0  0
 10 14  1  0  0  0  0
 11 15  1  0  0  0  0
 13  5  1  0  0  0  0
 16 12  1  0  0  0  0
M  RAD  3   2   2   3   3   4   2
M  END
