Coordinates from ORCA-job 4-NO2PhN2+~Cl-_B3LYPG-6-31G_dp-CH-Scan-d09-49-n800
 OpenBabel11261919153D

 16 15  0  0  0  0  0  0  0  0999 V2000
   -1.1942    0.0125   -0.0510 C   0  0  0  0  0  0  0  0  0  0  0  0
   -2.5950    0.0476   -0.0483 N   0  0  0  0  0  0  0  0  0  0  0  0
   -3.7068    0.1532   -0.0527 N   0  0  0  0  0  0  0  0  0  0  0  0
   -0.6334    1.2874   -0.1630 C   0  0  0  0  0  0  0  0  0  0  0  0
    0.7884    1.2004   -0.1622 C   0  0  0  0  0  0  0  0  0  0  0  0
    1.4444   -0.0172   -0.0623 C   0  0  0  0  0  0  0  0  0  0  0  0
    2.9322   -0.0420   -0.0682 N   0  0  0  0  0  0  0  0  0  0  0  0
    3.5185    1.0298   -0.1773 O   0  0  0  0  0  0  0  0  0  0  0  0
    3.4795   -1.1388    0.0372 O   0  0  0  0  0  0  0  0  0  0  0  0
    0.7880   -1.2628    0.0481 C   0  0  0  0  0  0  0  0  0  0  0  0
   -0.5874   -1.2669    0.0558 C   0  0  0  0  0  0  0  0  0  0  0  0
   -2.3784    3.4079   -0.3470 H   0  0  0  0  0  0  0  0  0  0  0  0
    1.3961    2.0969   -0.2414 H   0  0  0  0  0  0  0  0  0  0  0  0
    1.3709   -2.1709    0.1233 H   0  0  0  0  0  0  0  0  0  0  0  0
   -1.1604   -2.1857    0.1384 H   0  0  0  0  0  0  0  0  0  0  0  0
   -3.5158    4.0269   -0.3996 Cl  0  0  0  0  0  0  0  0  0  0  0  0
  1  2  1  0  0  0  0
  1 11  2  0  0  0  0
  3  2  1  0  0  0  0
  4  5  2  0  0  0  0
  4  1  1  0  0  0  0
  5  6  1  0  0  0  0
  6 10  2  0  0  0  0
  7  6  1  0  0  0  0
  7  9  2  0  0  0  0
  8  7  2  0  0  0  0
 10 11  1  0  0  0  0
 10 14  1  0  0  0  0
 11 15  1  0  0  0  0
 13  5  1  0  0  0  0
 16 12  1  0  0  0  0
M  RAD  3   2   2   3   3   4   2
M  END
