Coordinates from ORCA-job 4-NO2PhN2+~Cl-_B3LYPG-6-31G_dp-CH-Scan-d09-49-n800
 OpenBabel11261919153D

 16 15  0  0  0  0  0  0  0  0999 V2000
   -1.2987    0.0784   -0.0587 C   0  0  0  0  0  0  0  0  0  0  0  0
   -2.7185    0.1291   -0.0564 N   0  0  0  0  0  0  0  0  0  0  0  0
   -3.6839    0.7233   -0.1032 N   0  0  0  0  0  0  0  0  0  0  0  0
   -0.6876    1.3217   -0.1701 C   0  0  0  0  0  0  0  0  0  0  0  0
    0.7124    1.2971   -0.1743 C   0  0  0  0  0  0  0  0  0  0  0  0
    1.3735    0.0748   -0.0702 C   0  0  0  0  0  0  0  0  0  0  0  0
    2.8584    0.0647   -0.0757 N   0  0  0  0  0  0  0  0  0  0  0  0
    3.4296    1.1451   -0.1820 O   0  0  0  0  0  0  0  0  0  0  0  0
    3.4153   -1.0261    0.0266 O   0  0  0  0  0  0  0  0  0  0  0  0
    0.7177   -1.1597    0.0408 C   0  0  0  0  0  0  0  0  0  0  0  0
   -0.6673   -1.1701    0.0477 C   0  0  0  0  0  0  0  0  0  0  0  0
   -1.7044    2.4687   -0.2657 H   0  0  0  0  0  0  0  0  0  0  0  0
    1.2973    2.2062   -0.2567 H   0  0  0  0  0  0  0  0  0  0  0  0
    1.3002   -2.0682    0.1182 H   0  0  0  0  0  0  0  0  0  0  0  0
   -1.2334   -2.0917    0.1313 H   0  0  0  0  0  0  0  0  0  0  0  0
   -3.1639    3.1851   -0.3219 Cl  0  0  0  0  0  0  0  0  0  0  0  0
  1  2  1  0  0  0  0
  1 11  2  0  0  0  0
  3  2  2  0  0  0  0
  4  1  1  0  0  0  0
  5  4  2  0  0  0  0
  5  6  1  0  0  0  0
  6 10  2  0  0  0  0
  7  6  1  0  0  0  0
  7  9  2  0  0  0  0
  8  7  2  0  0  0  0
 10 11  1  0  0  0  0
 10 14  1  0  0  0  0
 11 15  1  0  0  0  0
 13  5  1  0  0  0  0
 16 12  1  0  0  0  0
M  RAD  2   3   2   4   2
M  END
