Coordinates from ORCA-job 4-NO2PhN2+~Cl-_B3LYPG-6-31G_dp-CH-Scan-d09-49-n800
 OpenBabel11261919153D

 16 15  0  0  0  0  0  0  0  0999 V2000
   -1.0686    0.0496   -0.0545 C   0  0  0  0  0  0  0  0  0  0  0  0
   -2.4707    0.1618   -0.0588 N   0  0  0  0  0  0  0  0  0  0  0  0
   -3.5742    0.3369   -0.0690 N   0  0  0  0  0  0  0  0  0  0  0  0
   -0.4516    1.2959   -0.1616 C   0  0  0  0  0  0  0  0  0  0  0  0
    0.9666    1.1292   -0.1535 C   0  0  0  0  0  0  0  0  0  0  0  0
    1.5586   -0.1204   -0.0527 C   0  0  0  0  0  0  0  0  0  0  0  0
    3.0425   -0.2238   -0.0507 N   0  0  0  0  0  0  0  0  0  0  0  0
    3.6872    0.8157   -0.1507 O   0  0  0  0  0  0  0  0  0  0  0  0
    3.5327   -1.3480    0.0521 O   0  0  0  0  0  0  0  0  0  0  0  0
    0.8375   -1.3317    0.0520 C   0  0  0  0  0  0  0  0  0  0  0  0
   -0.5359   -1.2625    0.0529 C   0  0  0  0  0  0  0  0  0  0  0  0
   -3.0959    4.2503   -0.4282 H   0  0  0  0  0  0  0  0  0  0  0  0
    1.6233    1.9915   -0.2276 H   0  0  0  0  0  0  0  0  0  0  0  0
    1.3721   -2.2690    0.1283 H   0  0  0  0  0  0  0  0  0  0  0  0
   -1.1581   -2.1495    0.1308 H   0  0  0  0  0  0  0  0  0  0  0  0
   -4.3183    3.8525   -0.3789 Cl  0  0  0  0  0  0  0  0  0  0  0  0
  1 11  2  0  0  0  0
  2  1  1  0  0  0  0
  3  2  1  0  0  0  0
  4  5  2  0  0  0  0
  4  1  1  0  0  0  0
  5  6  1  0  0  0  0
  6  7  1  0  0  0  0
  6 10  2  0  0  0  0
  7  9  2  0  0  0  0
  8  7  2  0  0  0  0
 10 11  1  0  0  0  0
 10 14  1  0  0  0  0
 11 15  1  0  0  0  0
 12 16  1  0  0  0  0
 13  5  1  0  0  0  0
M  RAD  3   2   2   3   3   4   2
M  END
