Coordinates from ORCA-job 4-NO2PhN2+~Cl-_B3LYPG-6-31G_dp-CH-Scan-d09-49-n800
 OpenBabel11261919153D

 16 15  0  0  0  0  0  0  0  0999 V2000
   -1.1554   -0.0162   -0.0438 C   0  0  0  0  0  0  0  0  0  0  0  0
   -2.5574    0.0266   -0.0403 N   0  0  0  0  0  0  0  0  0  0  0  0
   -3.6689    0.1392   -0.0434 N   0  0  0  0  0  0  0  0  0  0  0  0
   -0.5948    1.2585   -0.1511 C   0  0  0  0  0  0  0  0  0  0  0  0
    0.8283    1.1630   -0.1519 C   0  0  0  0  0  0  0  0  0  0  0  0
    1.4800   -0.0572   -0.0584 C   0  0  0  0  0  0  0  0  0  0  0  0
    2.9675   -0.0882   -0.0665 N   0  0  0  0  0  0  0  0  0  0  0  0
    3.5589    0.9813   -0.1732 O   0  0  0  0  0  0  0  0  0  0  0  0
    3.5112   -1.1874    0.0353 O   0  0  0  0  0  0  0  0  0  0  0  0
    0.8191   -1.3015    0.0476 C   0  0  0  0  0  0  0  0  0  0  0  0
   -0.5560   -1.2999    0.0571 C   0  0  0  0  0  0  0  0  0  0  0  0
   -2.5973    3.7287   -0.3762 H   0  0  0  0  0  0  0  0  0  0  0  0
    1.4409    2.0568   -0.2275 H   0  0  0  0  0  0  0  0  0  0  0  0
    1.3989   -2.2120    0.1183 H   0  0  0  0  0  0  0  0  0  0  0  0
   -1.1333   -2.2164    0.1367 H   0  0  0  0  0  0  0  0  0  0  0  0
   -3.7948    4.2031   -0.4333 Cl  0  0  0  0  0  0  0  0  0  0  0  0
  1  2  1  0  0  0  0
  1 11  2  0  0  0  0
  3  2  1  0  0  0  0
  4  1  1  0  0  0  0
  5  4  2  0  0  0  0
  5  6  1  0  0  0  0
  6 10  2  0  0  0  0
  7  6  1  0  0  0  0
  7  9  2  0  0  0  0
  8  7  2  0  0  0  0
 10 11  1  0  0  0  0
 10 14  1  0  0  0  0
 11 15  1  0  0  0  0
 13  5  1  0  0  0  0
 16 12  1  0  0  0  0
M  RAD  3   2   2   3   3   4   2
M  END
