Coordinates from ORCA-job 4-NO2PhN2+~Cl-_B3LYPG-6-31G_dp-CH-Scan-d09-49-n800
 OpenBabel11261919153D

 16 15  0  0  0  0  0  0  0  0999 V2000
   -1.0107    0.0630   -0.0683 C   0  0  0  0  0  0  0  0  0  0  0  0
   -2.4103    0.2082   -0.0801 N   0  0  0  0  0  0  0  0  0  0  0  0
   -3.5095    0.4089   -0.0972 N   0  0  0  0  0  0  0  0  0  0  0  0
   -0.3658    1.2936   -0.1846 C   0  0  0  0  0  0  0  0  0  0  0  0
    1.0485    1.0947   -0.1673 C   0  0  0  0  0  0  0  0  0  0  0  0
    1.6113   -0.1668   -0.0495 C   0  0  0  0  0  0  0  0  0  0  0  0
    3.0924   -0.3040   -0.0370 N   0  0  0  0  0  0  0  0  0  0  0  0
    3.7615    0.7201   -0.1371 O   0  0  0  0  0  0  0  0  0  0  0  0
    3.5564   -1.4386    0.0740 O   0  0  0  0  0  0  0  0  0  0  0  0
    0.8621   -1.3604    0.0630 C   0  0  0  0  0  0  0  0  0  0  0  0
   -0.5093   -1.2601    0.0551 C   0  0  0  0  0  0  0  0  0  0  0  0
   -3.5332    4.5707   -0.4366 H   0  0  0  0  0  0  0  0  0  0  0  0
    1.7248    1.9411   -0.2473 H   0  0  0  0  0  0  0  0  0  0  0  0
    1.3747   -2.3088    0.1516 H   0  0  0  0  0  0  0  0  0  0  0  0
   -1.1519   -2.1320    0.1378 H   0  0  0  0  0  0  0  0  0  0  0  0
   -4.5941    3.8488   -0.3467 Cl  0  0  0  0  0  0  0  0  0  0  0  0
  1 11  2  0  0  0  0
  2  1  1  0  0  0  0
  3  2  1  0  0  0  0
  4  5  2  0  0  0  0
  4  1  1  0  0  0  0
  5  6  1  0  0  0  0
  6  7  1  0  0  0  0
  6 10  2  0  0  0  0
  7  9  2  0  0  0  0
  8  7  2  0  0  0  0
 10 14  1  0  0  0  0
 11 10  1  0  0  0  0
 11 15  1  0  0  0  0
 12 16  1  0  0  0  0
 13  5  1  0  0  0  0
M  RAD  3   2   2   3   3   4   2
M  END
