Coordinates from ORCA-job 4-NO2PhN2+~Cl-_B3LYPG-6-31G_dp-CH-Scan-d09-49-n800
 OpenBabel11261919153D

 16 15  0  0  0  0  0  0  0  0999 V2000
   -1.2259    0.0332   -0.0538 C   0  0  0  0  0  0  0  0  0  0  0  0
   -2.6257    0.0626   -0.0510 N   0  0  0  0  0  0  0  0  0  0  0  0
   -3.7372    0.1676   -0.0555 N   0  0  0  0  0  0  0  0  0  0  0  0
   -0.6651    1.3087   -0.1671 C   0  0  0  0  0  0  0  0  0  0  0  0
    0.7554    1.2297   -0.1666 C   0  0  0  0  0  0  0  0  0  0  0  0
    1.4156    0.0142   -0.0650 C   0  0  0  0  0  0  0  0  0  0  0  0
    2.9034   -0.0046   -0.0709 N   0  0  0  0  0  0  0  0  0  0  0  0
    3.4848    1.0697   -0.1797 O   0  0  0  0  0  0  0  0  0  0  0  0
    3.4544   -1.0994    0.0346 O   0  0  0  0  0  0  0  0  0  0  0  0
    0.7634   -1.2327    0.0464 C   0  0  0  0  0  0  0  0  0  0  0  0
   -0.6122   -1.2422    0.0540 C   0  0  0  0  0  0  0  0  0  0  0  0
   -2.1985    3.1637   -0.3250 H   0  0  0  0  0  0  0  0  0  0  0  0
    1.3582    2.1292   -0.2470 H   0  0  0  0  0  0  0  0  0  0  0  0
    1.3493   -2.1389    0.1226 H   0  0  0  0  0  0  0  0  0  0  0  0
   -1.1814   -2.1631    0.1374 H   0  0  0  0  0  0  0  0  0  0  0  0
   -3.2915    3.8808   -0.3839 Cl  0  0  0  0  0  0  0  0  0  0  0  0
  1  2  1  0  0  0  0
  1 11  2  0  0  0  0
  3  2  1  0  0  0  0
  4  5  2  0  0  0  0
  4  1  1  0  0  0  0
  5  6  1  0  0  0  0
  6 10  2  0  0  0  0
  7  6  1  0  0  0  0
  7  9  2  0  0  0  0
  8  7  2  0  0  0  0
 10 11  1  0  0  0  0
 10 14  1  0  0  0  0
 11 15  1  0  0  0  0
 13  5  1  0  0  0  0
 16 12  1  0  0  0  0
M  RAD  3   2   2   3   3   4   2
M  END
