Coordinates from ORCA-job 4-NO2PhN2+~Cl-_B3LYPG-6-31G_dp-CH-Scan-d09-49-n800
 OpenBabel11261919153D

 16 15  0  0  0  0  0  0  0  0999 V2000
   -1.1182    0.0085   -0.0430 C   0  0  0  0  0  0  0  0  0  0  0  0
   -2.5210    0.0800   -0.0405 N   0  0  0  0  0  0  0  0  0  0  0  0
   -3.6295    0.2202   -0.0445 N   0  0  0  0  0  0  0  0  0  0  0  0
   -0.5354    1.2725   -0.1456 C   0  0  0  0  0  0  0  0  0  0  0  0
    0.8863    1.1480   -0.1455 C   0  0  0  0  0  0  0  0  0  0  0  0
    1.5141   -0.0849   -0.0555 C   0  0  0  0  0  0  0  0  0  0  0  0
    3.0005   -0.1453   -0.0621 N   0  0  0  0  0  0  0  0  0  0  0  0
    3.6136    0.9127   -0.1642 O   0  0  0  0  0  0  0  0  0  0  0  0
    3.5228   -1.2552    0.0361 O   0  0  0  0  0  0  0  0  0  0  0  0
    0.8288   -1.3167    0.0459 C   0  0  0  0  0  0  0  0  0  0  0  0
   -0.5460   -1.2878    0.0542 C   0  0  0  0  0  0  0  0  0  0  0  0
   -2.7795    3.9310   -0.3988 H   0  0  0  0  0  0  0  0  0  0  0  0
    1.5170    2.0296   -0.2174 H   0  0  0  0  0  0  0  0  0  0  0  0
    1.3906   -2.2386    0.1140 H   0  0  0  0  0  0  0  0  0  0  0  0
   -1.1416   -2.1929    0.1302 H   0  0  0  0  0  0  0  0  0  0  0  0
   -4.0557    4.0973   -0.4337 Cl  0  0  0  0  0  0  0  0  0  0  0  0
  1  2  1  0  0  0  0
  1 11  2  0  0  0  0
  3  2  1  0  0  0  0
  4  5  2  0  0  0  0
  4  1  1  0  0  0  0
  5  6  1  0  0  0  0
  6 10  2  0  0  0  0
  7  6  1  0  0  0  0
  7  9  2  0  0  0  0
  8  7  2  0  0  0  0
 10 11  1  0  0  0  0
 10 14  1  0  0  0  0
 11 15  1  0  0  0  0
 13  5  1  0  0  0  0
 16 12  1  0  0  0  0
M  RAD  3   2   2   3   3   4   2
M  END
