Coordinates from ORCA-job 4-NO2PhN2+~Cl-_B3LYPG-6-31G_dp-CH-Scan-d09-49-n800
 OpenBabel11261919153D

 16 15  0  0  0  0  0  0  0  0999 V2000
   -1.1587   -0.0177   -0.0440 C   0  0  0  0  0  0  0  0  0  0  0  0
   -2.5605    0.0221   -0.0404 N   0  0  0  0  0  0  0  0  0  0  0  0
   -3.6723    0.1320   -0.0438 N   0  0  0  0  0  0  0  0  0  0  0  0
   -0.5998    1.2577   -0.1518 C   0  0  0  0  0  0  0  0  0  0  0  0
    0.8234    1.1645   -0.1526 C   0  0  0  0  0  0  0  0  0  0  0  0
    1.4770   -0.0546   -0.0585 C   0  0  0  0  0  0  0  0  0  0  0  0
    2.9645   -0.0833   -0.0664 N   0  0  0  0  0  0  0  0  0  0  0  0
    3.5542    0.9871   -0.1740 O   0  0  0  0  0  0  0  0  0  0  0  0
    3.5099   -1.1817    0.0350 O   0  0  0  0  0  0  0  0  0  0  0  0
    0.8180   -1.3000    0.0480 C   0  0  0  0  0  0  0  0  0  0  0  0
   -0.5570   -1.3005    0.0574 C   0  0  0  0  0  0  0  0  0  0  0  0
   -2.5819    3.7121   -0.3764 H   0  0  0  0  0  0  0  0  0  0  0  0
    1.4345    2.0593   -0.2285 H   0  0  0  0  0  0  0  0  0  0  0  0
    1.3991   -2.2096    0.1190 H   0  0  0  0  0  0  0  0  0  0  0  0
   -1.1329   -2.2179    0.1373 H   0  0  0  0  0  0  0  0  0  0  0  0
   -3.7706    4.2090   -0.4307 Cl  0  0  0  0  0  0  0  0  0  0  0  0
  1  2  1  0  0  0  0
  1 11  2  0  0  0  0
  3  2  1  0  0  0  0
  4  1  1  0  0  0  0
  5  4  2  0  0  0  0
  5  6  1  0  0  0  0
  6 10  2  0  0  0  0
  7  6  1  0  0  0  0
  7  9  2  0  0  0  0
  8  7  2  0  0  0  0
 10 11  1  0  0  0  0
 10 14  1  0  0  0  0
 11 15  1  0  0  0  0
 13  5  1  0  0  0  0
 16 12  1  0  0  0  0
M  RAD  3   2   2   3   3   4   2
M  END
