Coordinates from ORCA-job 4-NO2PhN2+~Cl-_B3LYPG-6-31G_dp-CH-Scan-d09-49-n800
 OpenBabel11261919153D

 16 15  0  0  0  0  0  0  0  0999 V2000
   -1.1935    0.0113   -0.0506 C   0  0  0  0  0  0  0  0  0  0  0  0
   -2.5943    0.0463   -0.0473 N   0  0  0  0  0  0  0  0  0  0  0  0
   -3.7061    0.1516   -0.0535 N   0  0  0  0  0  0  0  0  0  0  0  0
   -0.6330    1.2863   -0.1629 C   0  0  0  0  0  0  0  0  0  0  0  0
    0.7889    1.1994   -0.1626 C   0  0  0  0  0  0  0  0  0  0  0  0
    1.4451   -0.0181   -0.0628 C   0  0  0  0  0  0  0  0  0  0  0  0
    2.9328   -0.0428   -0.0693 N   0  0  0  0  0  0  0  0  0  0  0  0
    3.5190    1.0293   -0.1762 O   0  0  0  0  0  0  0  0  0  0  0  0
    3.4803   -1.1393    0.0385 O   0  0  0  0  0  0  0  0  0  0  0  0
    0.7888   -1.2638    0.0478 C   0  0  0  0  0  0  0  0  0  0  0  0
   -0.5865   -1.2681    0.0560 C   0  0  0  0  0  0  0  0  0  0  0  0
   -2.3828    3.4158   -0.3474 H   0  0  0  0  0  0  0  0  0  0  0  0
    1.3965    2.0960   -0.2420 H   0  0  0  0  0  0  0  0  0  0  0  0
    1.3718   -2.1719    0.1229 H   0  0  0  0  0  0  0  0  0  0  0  0
   -1.1595   -2.1869    0.1389 H   0  0  0  0  0  0  0  0  0  0  0  0
   -3.5208    4.0334   -0.3998 Cl  0  0  0  0  0  0  0  0  0  0  0  0
  1  2  1  0  0  0  0
  1 11  2  0  0  0  0
  3  2  1  0  0  0  0
  4  5  2  0  0  0  0
  4  1  1  0  0  0  0
  5  6  1  0  0  0  0
  6 10  2  0  0  0  0
  7  6  1  0  0  0  0
  7  9  2  0  0  0  0
  8  7  2  0  0  0  0
 10 11  1  0  0  0  0
 10 14  1  0  0  0  0
 11 15  1  0  0  0  0
 13  5  1  0  0  0  0
 16 12  1  0  0  0  0
M  RAD  3   2   2   3   3   4   2
M  END
