Coordinates from ORCA-job 4-NO2PhN2+~Cl-_B3LYPG-6-31G_dp-CH-Scan-d09-49-n800
 OpenBabel11261919153D

 16 16  0  0  0  0  0  0  0  0999 V2000
   -1.3534    0.1916    0.0667 C   0  0  0  0  0  0  0  0  0  0  0  0
   -2.7609    0.1480    0.1818 N   0  0  0  0  0  0  0  0  0  0  0  0
   -3.7116    0.7989   -0.0485 N   0  0  0  0  0  0  0  0  0  0  0  0
   -0.6372    1.3962    0.0174 C   0  0  0  0  0  0  0  0  0  0  0  0
    0.7510    1.3400   -0.0522 C   0  0  0  0  0  0  0  0  0  0  0  0
    1.3786    0.0961   -0.0783 C   0  0  0  0  0  0  0  0  0  0  0  0
    2.8544    0.0471   -0.1601 N   0  0  0  0  0  0  0  0  0  0  0  0
    3.4531    1.1183   -0.2013 O   0  0  0  0  0  0  0  0  0  0  0  0
    3.3805   -1.0627   -0.1812 O   0  0  0  0  0  0  0  0  0  0  0  0
    0.6743   -1.1055   -0.0222 C   0  0  0  0  0  0  0  0  0  0  0  0
   -0.7106   -1.0543    0.0683 C   0  0  0  0  0  0  0  0  0  0  0  0
   -1.1816    2.3696    0.0233 H   0  0  0  0  0  0  0  0  0  0  0  0
    1.3501    2.2409   -0.0914 H   0  0  0  0  0  0  0  0  0  0  0  0
    1.2131   -2.0442   -0.0383 H   0  0  0  0  0  0  0  0  0  0  0  0
   -1.3034   -1.9597    0.1333 H   0  0  0  0  0  0  0  0  0  0  0  0
   -3.4494    2.6580   -0.9878 Cl  0  0  0  0  0  0  0  0  0  0  0  0
  1 11  1  0  0  0  0
  1  2  1  0  0  0  0
  3  2  2  0  0  0  0
  4 12  1  0  0  0  0
  4  1  2  0  0  0  0
  5  4  1  0  0  0  0
  6  5  2  0  0  0  0
  6 10  1  0  0  0  0
  7  6  1  0  0  0  0
  8  7  2  0  0  0  0
  9  7  2  0  0  0  0
 10 11  2  0  0  0  0
 11 15  1  0  0  0  0
 13  5  1  0  0  0  0
 14 10  1  0  0  0  0
 16  3  1  0  0  0  0
M  END
