Coordinates from ORCA-job 4-NO2PhN2+~Cl-_B3LYPG-6-31G_dp-CH-Scan-d09-49-n800
 OpenBabel11261919153D

 16 15  0  0  0  0  0  0  0  0999 V2000
   -1.2396    0.0417   -0.0547 C   0  0  0  0  0  0  0  0  0  0  0  0
   -2.6391    0.0687   -0.0507 N   0  0  0  0  0  0  0  0  0  0  0  0
   -3.7502    0.1752   -0.0546 N   0  0  0  0  0  0  0  0  0  0  0  0
   -0.6785    1.3172   -0.1687 C   0  0  0  0  0  0  0  0  0  0  0  0
    0.7412    1.2420   -0.1694 C   0  0  0  0  0  0  0  0  0  0  0  0
    1.4032    0.0274   -0.0679 C   0  0  0  0  0  0  0  0  0  0  0  0
    2.8912    0.0112   -0.0749 N   0  0  0  0  0  0  0  0  0  0  0  0
    3.4702    1.0874   -0.1768 O   0  0  0  0  0  0  0  0  0  0  0  0
    3.4438   -1.0820    0.0369 O   0  0  0  0  0  0  0  0  0  0  0  0
    0.7530   -1.2200    0.0444 C   0  0  0  0  0  0  0  0  0  0  0  0
   -0.6228   -1.2318    0.0530 C   0  0  0  0  0  0  0  0  0  0  0  0
   -2.1198    3.0605   -0.3159 H   0  0  0  0  0  0  0  0  0  0  0  0
    1.3415    2.1429   -0.2508 H   0  0  0  0  0  0  0  0  0  0  0  0
    1.3402   -2.1254    0.1204 H   0  0  0  0  0  0  0  0  0  0  0  0
   -1.1902   -2.1537    0.1369 H   0  0  0  0  0  0  0  0  0  0  0  0
   -3.1972    3.8169   -0.3776 Cl  0  0  0  0  0  0  0  0  0  0  0  0
  1  2  1  0  0  0  0
  1 11  2  0  0  0  0
  3  2  1  0  0  0  0
  4  1  1  0  0  0  0
  5  4  2  0  0  0  0
  5  6  1  0  0  0  0
  6 10  2  0  0  0  0
  7  6  1  0  0  0  0
  7  9  2  0  0  0  0
  8  7  2  0  0  0  0
 10 11  1  0  0  0  0
 10 14  1  0  0  0  0
 11 15  1  0  0  0  0
 13  5  1  0  0  0  0
 16 12  1  0  0  0  0
M  RAD  3   2   2   3   3   4   2
M  END
