Coordinates from ORCA-job 4-NO2PhN2+~Cl-_B3LYPG-6-31G_dp-CH-Scan-d09-49-n800
 OpenBabel11261919153D

 16 15  0  0  0  0  0  0  0  0999 V2000
   -1.2737    0.0648   -0.0569 C   0  0  0  0  0  0  0  0  0  0  0  0
   -2.6730    0.0898   -0.0536 N   0  0  0  0  0  0  0  0  0  0  0  0
   -3.7814    0.2135   -0.0598 N   0  0  0  0  0  0  0  0  0  0  0  0
   -0.7080    1.3382   -0.1708 C   0  0  0  0  0  0  0  0  0  0  0  0
    0.7083    1.2744   -0.1714 C   0  0  0  0  0  0  0  0  0  0  0  0
    1.3738    0.0610   -0.0688 C   0  0  0  0  0  0  0  0  0  0  0  0
    2.8618    0.0503   -0.0751 N   0  0  0  0  0  0  0  0  0  0  0  0
    3.4354    1.1284   -0.1829 O   0  0  0  0  0  0  0  0  0  0  0  0
    3.4174   -1.0418    0.0287 O   0  0  0  0  0  0  0  0  0  0  0  0
    0.7268   -1.1866    0.0431 C   0  0  0  0  0  0  0  0  0  0  0  0
   -0.6499   -1.2033    0.0510 C   0  0  0  0  0  0  0  0  0  0  0  0
   -1.9116    2.7918   -0.2930 H   0  0  0  0  0  0  0  0  0  0  0  0
    1.3022    2.1792   -0.2531 H   0  0  0  0  0  0  0  0  0  0  0  0
    1.3162   -2.0906    0.1196 H   0  0  0  0  0  0  0  0  0  0  0  0
   -1.2138   -2.1272    0.1348 H   0  0  0  0  0  0  0  0  0  0  0  0
   -2.9837    3.6365   -0.3621 Cl  0  0  0  0  0  0  0  0  0  0  0  0
  1  2  1  0  0  0  0
  1 11  2  0  0  0  0
  3  2  1  0  0  0  0
  4  1  1  0  0  0  0
  5  4  2  0  0  0  0
  5  6  1  0  0  0  0
  6 10  2  0  0  0  0
  7  6  1  0  0  0  0
  7  9  2  0  0  0  0
  8  7  2  0  0  0  0
 10 11  1  0  0  0  0
 10 14  1  0  0  0  0
 11 15  1  0  0  0  0
 13  5  1  0  0  0  0
 16 12  1  0  0  0  0
M  RAD  3   2   2   3   3   4   2
M  END
