Coordinates from ORCA-job 4-NO2PhN2+~Cl-_B3LYPG-6-31G_dp-CH-Scan-d09-49-n800
 OpenBabel11261919153D

 16 15  0  0  0  0  0  0  0  0999 V2000
   -1.3330    0.1392   -0.0636 C   0  0  0  0  0  0  0  0  0  0  0  0
   -2.7444    0.1105   -0.0553 N   0  0  0  0  0  0  0  0  0  0  0  0
   -3.7037    0.7674   -0.1085 N   0  0  0  0  0  0  0  0  0  0  0  0
   -0.6353    1.3453   -0.1721 C   0  0  0  0  0  0  0  0  0  0  0  0
    0.7536    1.3142   -0.1760 C   0  0  0  0  0  0  0  0  0  0  0  0
    1.3916    0.0784   -0.0707 C   0  0  0  0  0  0  0  0  0  0  0  0
    2.8726    0.0429   -0.0743 N   0  0  0  0  0  0  0  0  0  0  0  0
    3.4613    1.1147   -0.1787 O   0  0  0  0  0  0  0  0  0  0  0  0
    3.4094   -1.0572    0.0277 O   0  0  0  0  0  0  0  0  0  0  0  0
    0.7019   -1.1301    0.0387 C   0  0  0  0  0  0  0  0  0  0  0  0
   -0.6863   -1.1010    0.0423 C   0  0  0  0  0  0  0  0  0  0  0  0
   -1.3840    2.4593   -0.2657 H   0  0  0  0  0  0  0  0  0  0  0  0
    1.3454    2.2171   -0.2581 H   0  0  0  0  0  0  0  0  0  0  0  0
    1.2559   -2.0565    0.1180 H   0  0  0  0  0  0  0  0  0  0  0  0
   -1.2704   -2.0108    0.1250 H   0  0  0  0  0  0  0  0  0  0  0  0
   -3.4878    2.9449   -0.2990 Cl  0  0  0  0  0  0  0  0  0  0  0  0
  1  2  1  0  0  0  0
  1 11  2  0  0  0  0
  3  2  2  0  0  0  0
  4  1  1  0  0  0  0
  5  4  2  0  0  0  0
  5  6  1  0  0  0  0
  6 10  2  0  0  0  0
  7  6  1  0  0  0  0
  7  9  2  0  0  0  0
  8  7  2  0  0  0  0
 10 11  1  0  0  0  0
 10 14  1  0  0  0  0
 11 15  1  0  0  0  0
 12  4  1  0  0  0  0
 13  5  1  0  0  0  0
M  RAD  2   3   2  16   2
M  END
