Coordinates from ORCA-job 4-NO2PhN2+~Cl-_B3LYPG-6-31G_dp-CH-Scan-d09-49-n800
 OpenBabel11261919153D

 16 15  0  0  0  0  0  0  0  0999 V2000
   -1.1859    0.0032   -0.0492 C   0  0  0  0  0  0  0  0  0  0  0  0
   -2.5869    0.0382   -0.0462 N   0  0  0  0  0  0  0  0  0  0  0  0
   -3.6988    0.1440   -0.0493 N   0  0  0  0  0  0  0  0  0  0  0  0
   -0.6268    1.2789   -0.1602 C   0  0  0  0  0  0  0  0  0  0  0  0
    0.7955    1.1911   -0.1599 C   0  0  0  0  0  0  0  0  0  0  0  0
    1.4518   -0.0263   -0.0614 C   0  0  0  0  0  0  0  0  0  0  0  0
    2.9395   -0.0509   -0.0680 N   0  0  0  0  0  0  0  0  0  0  0  0
    3.5259    1.0210   -0.1761 O   0  0  0  0  0  0  0  0  0  0  0  0
    3.4873   -1.1476    0.0369 O   0  0  0  0  0  0  0  0  0  0  0  0
    0.7958   -1.2724    0.0479 C   0  0  0  0  0  0  0  0  0  0  0  0
   -0.5795   -1.2767    0.0562 C   0  0  0  0  0  0  0  0  0  0  0  0
   -2.4279    3.4822   -0.3550 H   0  0  0  0  0  0  0  0  0  0  0  0
    1.4035    2.0876   -0.2383 H   0  0  0  0  0  0  0  0  0  0  0  0
    1.3790   -2.1804    0.1221 H   0  0  0  0  0  0  0  0  0  0  0  0
   -1.1525   -2.1956    0.1381 H   0  0  0  0  0  0  0  0  0  0  0  0
   -3.5730    4.0822   -0.4078 Cl  0  0  0  0  0  0  0  0  0  0  0  0
  1  2  1  0  0  0  0
  1 11  2  0  0  0  0
  3  2  1  0  0  0  0
  4  5  2  0  0  0  0
  4  1  1  0  0  0  0
  5  6  1  0  0  0  0
  6 10  2  0  0  0  0
  7  6  1  0  0  0  0
  7  9  2  0  0  0  0
  8  7  2  0  0  0  0
 10 11  1  0  0  0  0
 10 14  1  0  0  0  0
 11 15  1  0  0  0  0
 13  5  1  0  0  0  0
 16 12  1  0  0  0  0
M  RAD  3   2   2   3   3   4   2
M  END
