Coordinates from ORCA-job 4-NO2PhN2+~Cl-_B3LYPG-6-31G_dp-CH-Scan-d09-49-n800
 OpenBabel11261919153D

 16 15  0  0  0  0  0  0  0  0999 V2000
   -1.3245    0.1185   -0.0619 C   0  0  0  0  0  0  0  0  0  0  0  0
   -2.7381    0.1162   -0.0551 N   0  0  0  0  0  0  0  0  0  0  0  0
   -3.6876    0.7753   -0.1081 N   0  0  0  0  0  0  0  0  0  0  0  0
   -0.6463    1.3324   -0.1713 C   0  0  0  0  0  0  0  0  0  0  0  0
    0.7437    1.3095   -0.1757 C   0  0  0  0  0  0  0  0  0  0  0  0
    1.3878    0.0765   -0.0705 C   0  0  0  0  0  0  0  0  0  0  0  0
    2.8699    0.0483   -0.0744 N   0  0  0  0  0  0  0  0  0  0  0  0
    3.4532    1.1230   -0.1783 O   0  0  0  0  0  0  0  0  0  0  0  0
    3.4126   -1.0490    0.0269 O   0  0  0  0  0  0  0  0  0  0  0  0
    0.7075   -1.1390    0.0391 C   0  0  0  0  0  0  0  0  0  0  0  0
   -0.6806   -1.1225    0.0439 C   0  0  0  0  0  0  0  0  0  0  0  0
   -1.4870    2.4611   -0.2666 H   0  0  0  0  0  0  0  0  0  0  0  0
    1.3322    2.2148   -0.2580 H   0  0  0  0  0  0  0  0  0  0  0  0
    1.2701   -2.0601    0.1178 H   0  0  0  0  0  0  0  0  0  0  0  0
   -1.2585   -2.0364    0.1270 H   0  0  0  0  0  0  0  0  0  0  0  0
   -3.4075    3.0100   -0.3051 Cl  0  0  0  0  0  0  0  0  0  0  0  0
  1  2  1  0  0  0  0
  1 11  2  0  0  0  0
  3  2  2  0  0  0  0
  4  1  1  0  0  0  0
  5  4  2  0  0  0  0
  5  6  1  0  0  0  0
  6 10  2  0  0  0  0
  7  6  1  0  0  0  0
  7  9  2  0  0  0  0
  8  7  2  0  0  0  0
 10 11  1  0  0  0  0
 10 14  1  0  0  0  0
 11 15  1  0  0  0  0
 12  4  1  0  0  0  0
 13  5  1  0  0  0  0
M  RAD  2   3   2  16   2
M  END
