Coordinates from ORCA-job 4-NO2PhN2+~Cl-_B3LYPG-6-31G_dp-CH-Scan-d09-49-n800
 OpenBabel11261919153D

 16 15  0  0  0  0  0  0  0  0999 V2000
   -1.0460    0.0516   -0.0584 C   0  0  0  0  0  0  0  0  0  0  0  0
   -2.4474    0.1754   -0.0650 N   0  0  0  0  0  0  0  0  0  0  0  0
   -3.5495    0.3596   -0.0770 N   0  0  0  0  0  0  0  0  0  0  0  0
   -0.4196    1.2927   -0.1680 C   0  0  0  0  0  0  0  0  0  0  0  0
    0.9974    1.1148   -0.1573 C   0  0  0  0  0  0  0  0  0  0  0  0
    1.5795   -0.1391   -0.0516 C   0  0  0  0  0  0  0  0  0  0  0  0
    3.0625   -0.2541   -0.0465 N   0  0  0  0  0  0  0  0  0  0  0  0
    3.7156    0.7802   -0.1459 O   0  0  0  0  0  0  0  0  0  0  0  0
    3.5438   -1.3818    0.0600 O   0  0  0  0  0  0  0  0  0  0  0  0
    0.8487   -1.3444    0.0553 C   0  0  0  0  0  0  0  0  0  0  0  0
   -0.5241   -1.2645    0.0537 C   0  0  0  0  0  0  0  0  0  0  0  0
   -3.2598    4.3809   -0.4346 H   0  0  0  0  0  0  0  0  0  0  0  0
    1.6609    1.9718   -0.2329 H   0  0  0  0  0  0  0  0  0  0  0  0
    1.3758   -2.2857    0.1352 H   0  0  0  0  0  0  0  0  0  0  0  0
   -1.1534   -2.1464    0.1329 H   0  0  0  0  0  0  0  0  0  0  0  0
   -4.4374    3.8673   -0.3701 Cl  0  0  0  0  0  0  0  0  0  0  0  0
  1 11  2  0  0  0  0
  2  1  1  0  0  0  0
  3  2  1  0  0  0  0
  4  5  2  0  0  0  0
  4  1  1  0  0  0  0
  5  6  1  0  0  0  0
  6  7  1  0  0  0  0
  6 10  2  0  0  0  0
  7  9  2  0  0  0  0
  8  7  2  0  0  0  0
 10 14  1  0  0  0  0
 11 10  1  0  0  0  0
 11 15  1  0  0  0  0
 12 16  1  0  0  0  0
 13  5  1  0  0  0  0
M  RAD  3   2   2   3   3   4   2
M  END
