Coordinates from ORCA-job 4-NO2PhN2+~Cl-_B3LYPG-6-31G_dp-CH-Scan-d09-49-n800
 OpenBabel11261919153D

 16 15  0  0  0  0  0  0  0  0999 V2000
   -1.2227    0.0324   -0.0537 C   0  0  0  0  0  0  0  0  0  0  0  0
   -2.6228    0.0626   -0.0510 N   0  0  0  0  0  0  0  0  0  0  0  0
   -3.7342    0.1677   -0.0553 N   0  0  0  0  0  0  0  0  0  0  0  0
   -0.6615    1.3074   -0.1669 C   0  0  0  0  0  0  0  0  0  0  0  0
    0.7591    1.2274   -0.1663 C   0  0  0  0  0  0  0  0  0  0  0  0
    1.4184    0.0115   -0.0648 C   0  0  0  0  0  0  0  0  0  0  0  0
    2.9063   -0.0085   -0.0705 N   0  0  0  0  0  0  0  0  0  0  0  0
    3.4886    1.0653   -0.1795 O   0  0  0  0  0  0  0  0  0  0  0  0
    3.4565   -1.1037    0.0350 O   0  0  0  0  0  0  0  0  0  0  0  0
    0.7654   -1.2351    0.0466 C   0  0  0  0  0  0  0  0  0  0  0  0
   -0.6102   -1.2437    0.0541 C   0  0  0  0  0  0  0  0  0  0  0  0
   -2.2158    3.1840   -0.3268 H   0  0  0  0  0  0  0  0  0  0  0  0
    1.3627    2.1264   -0.2465 H   0  0  0  0  0  0  0  0  0  0  0  0
    1.3507   -2.1417    0.1227 H   0  0  0  0  0  0  0  0  0  0  0  0
   -1.1800   -2.1642    0.1374 H   0  0  0  0  0  0  0  0  0  0  0  0
   -3.3137    3.8907   -0.3849 Cl  0  0  0  0  0  0  0  0  0  0  0  0
  1  2  1  0  0  0  0
  1 11  2  0  0  0  0
  3  2  1  0  0  0  0
  4  5  2  0  0  0  0
  4  1  1  0  0  0  0
  5  6  1  0  0  0  0
  6 10  2  0  0  0  0
  7  6  1  0  0  0  0
  7  9  2  0  0  0  0
  8  7  2  0  0  0  0
 10 11  1  0  0  0  0
 10 14  1  0  0  0  0
 11 15  1  0  0  0  0
 13  5  1  0  0  0  0
 16 12  1  0  0  0  0
M  RAD  3   2   2   3   3   4   2
M  END
