Coordinates from ORCA-job 4-NO2PhN2+~Cl-_B3LYPG-6-31G_dp-CH-Scan-d09-49-n800
 OpenBabel11261919153D

 16 15  0  0  0  0  0  0  0  0999 V2000
   -1.0127    0.0625   -0.0684 C   0  0  0  0  0  0  0  0  0  0  0  0
   -2.4124    0.2065   -0.0801 N   0  0  0  0  0  0  0  0  0  0  0  0
   -3.5117    0.4062   -0.0973 N   0  0  0  0  0  0  0  0  0  0  0  0
   -0.3687    1.2936   -0.1847 C   0  0  0  0  0  0  0  0  0  0  0  0
    1.0458    1.0958   -0.1675 C   0  0  0  0  0  0  0  0  0  0  0  0
    1.6095   -0.1652   -0.0497 C   0  0  0  0  0  0  0  0  0  0  0  0
    3.0907   -0.3012   -0.0372 N   0  0  0  0  0  0  0  0  0  0  0  0
    3.7590    0.7233   -0.1375 O   0  0  0  0  0  0  0  0  0  0  0  0
    3.5556   -1.4355    0.0740 O   0  0  0  0  0  0  0  0  0  0  0  0
    0.8613   -1.3594    0.0629 C   0  0  0  0  0  0  0  0  0  0  0  0
   -0.5102   -1.2602    0.0551 C   0  0  0  0  0  0  0  0  0  0  0  0
   -3.5178    4.5606   -0.4358 H   0  0  0  0  0  0  0  0  0  0  0  0
    1.7214    1.9428   -0.2475 H   0  0  0  0  0  0  0  0  0  0  0  0
    1.3746   -2.3074    0.1516 H   0  0  0  0  0  0  0  0  0  0  0  0
   -1.1522   -2.1325    0.1379 H   0  0  0  0  0  0  0  0  0  0  0  0
   -4.5854    3.8486   -0.3463 Cl  0  0  0  0  0  0  0  0  0  0  0  0
  1 11  2  0  0  0  0
  2  1  1  0  0  0  0
  3  2  1  0  0  0  0
  4  5  2  0  0  0  0
  4  1  1  0  0  0  0
  5  6  1  0  0  0  0
  6  7  1  0  0  0  0
  6 10  2  0  0  0  0
  7  9  2  0  0  0  0
  8  7  2  0  0  0  0
 10 14  1  0  0  0  0
 11 10  1  0  0  0  0
 11 15  1  0  0  0  0
 12 16  1  0  0  0  0
 13  5  1  0  0  0  0
M  RAD  3   2   2   3   3   4   2
M  END
