Coordinates from ORCA-job 4-NO2PhN2+~Cl-_B3LYPG-6-31G_dp-CH-Scan-d09-49-n800
 OpenBabel11261919153D

 16 15  0  0  0  0  0  0  0  0999 V2000
   -1.0253    0.0579   -0.0638 C   0  0  0  0  0  0  0  0  0  0  0  0
   -2.4258    0.1941   -0.0735 N   0  0  0  0  0  0  0  0  0  0  0  0
   -3.5262    0.3884   -0.0830 N   0  0  0  0  0  0  0  0  0  0  0  0
   -0.3882    1.2931   -0.1758 C   0  0  0  0  0  0  0  0  0  0  0  0
    1.0273    1.1031   -0.1612 C   0  0  0  0  0  0  0  0  0  0  0  0
    1.5982   -0.1553   -0.0498 C   0  0  0  0  0  0  0  0  0  0  0  0
    3.0802   -0.2831   -0.0402 N   0  0  0  0  0  0  0  0  0  0  0  0
    3.7425    0.7451   -0.1411 O   0  0  0  0  0  0  0  0  0  0  0  0
    3.5515   -1.4152    0.0658 O   0  0  0  0  0  0  0  0  0  0  0  0
    0.8568   -1.3541    0.0589 C   0  0  0  0  0  0  0  0  0  0  0  0
   -0.5153   -1.2624    0.0535 C   0  0  0  0  0  0  0  0  0  0  0  0
   -3.4175    4.4931   -0.4415 H   0  0  0  0  0  0  0  0  0  0  0  0
    1.6982    1.9541   -0.2383 H   0  0  0  0  0  0  0  0  0  0  0  0
    1.3756   -2.2996    0.1430 H   0  0  0  0  0  0  0  0  0  0  0  0
   -1.1522   -2.1387    0.1337 H   0  0  0  0  0  0  0  0  0  0  0  0
   -4.5329    3.8579   -0.3569 Cl  0  0  0  0  0  0  0  0  0  0  0  0
  1 11  2  0  0  0  0
  2  1  1  0  0  0  0
  3  2  1  0  0  0  0
  4  5  2  0  0  0  0
  4  1  1  0  0  0  0
  5  6  1  0  0  0  0
  6  7  1  0  0  0  0
  6 10  2  0  0  0  0
  7  9  2  0  0  0  0
  8  7  2  0  0  0  0
 10 14  1  0  0  0  0
 11 10  1  0  0  0  0
 11 15  1  0  0  0  0
 12 16  1  0  0  0  0
 13  5  1  0  0  0  0
M  RAD  3   2   2   3   3   4   2
M  END
