Coordinates from ORCA-job 4-NO2PhN2+~Cl-_B3LYPG-6-31G_dp-CH-Scan-d09-49-n800
 OpenBabel11261919153D

 16 15  0  0  0  0  0  0  0  0999 V2000
   -1.1544   -0.0161   -0.0433 C   0  0  0  0  0  0  0  0  0  0  0  0
   -2.5563    0.0268   -0.0396 N   0  0  0  0  0  0  0  0  0  0  0  0
   -3.6679    0.1395   -0.0426 N   0  0  0  0  0  0  0  0  0  0  0  0
   -0.5935    1.2584   -0.1502 C   0  0  0  0  0  0  0  0  0  0  0  0
    0.8296    1.1624   -0.1512 C   0  0  0  0  0  0  0  0  0  0  0  0
    1.4809   -0.0581   -0.0582 C   0  0  0  0  0  0  0  0  0  0  0  0
    2.9684   -0.0896   -0.0665 N   0  0  0  0  0  0  0  0  0  0  0  0
    3.5601    0.9798   -0.1730 O   0  0  0  0  0  0  0  0  0  0  0  0
    3.5117   -1.1890    0.0347 O   0  0  0  0  0  0  0  0  0  0  0  0
    0.8196   -1.3023    0.0474 C   0  0  0  0  0  0  0  0  0  0  0  0
   -0.5554   -1.3002    0.0570 C   0  0  0  0  0  0  0  0  0  0  0  0
   -2.6021    3.7363   -0.3774 H   0  0  0  0  0  0  0  0  0  0  0  0
    1.4424    2.0560   -0.2264 H   0  0  0  0  0  0  0  0  0  0  0  0
    1.3991   -2.2130    0.1176 H   0  0  0  0  0  0  0  0  0  0  0  0
   -1.1330   -2.2166    0.1363 H   0  0  0  0  0  0  0  0  0  0  0  0
   -3.8021    4.2040   -0.4349 Cl  0  0  0  0  0  0  0  0  0  0  0  0
  1  2  1  0  0  0  0
  1 11  2  0  0  0  0
  3  2  1  0  0  0  0
  4  1  1  0  0  0  0
  5  4  2  0  0  0  0
  5  6  1  0  0  0  0
  6 10  2  0  0  0  0
  7  6  1  0  0  0  0
  7  9  2  0  0  0  0
  8  7  2  0  0  0  0
 10 11  1  0  0  0  0
 10 14  1  0  0  0  0
 11 15  1  0  0  0  0
 13  5  1  0  0  0  0
 16 12  1  0  0  0  0
M  RAD  3   2   2   3   3   4   2
M  END
