Coordinates from ORCA-job 4-NO2PhN2+~Cl-_B3LYPG-6-31G_dp-CH-Scan-d09-49-n800
 OpenBabel11261919153D

 16 15  0  0  0  0  0  0  0  0999 V2000
   -1.3217    0.1115   -0.0614 C   0  0  0  0  0  0  0  0  0  0  0  0
   -2.7362    0.1180   -0.0551 N   0  0  0  0  0  0  0  0  0  0  0  0
   -3.6828    0.7767   -0.1078 N   0  0  0  0  0  0  0  0  0  0  0  0
   -0.6517    1.3289   -0.1711 C   0  0  0  0  0  0  0  0  0  0  0  0
    0.7391    1.3080   -0.1756 C   0  0  0  0  0  0  0  0  0  0  0  0
    1.3857    0.0763   -0.0705 C   0  0  0  0  0  0  0  0  0  0  0  0
    2.8681    0.0512   -0.0744 N   0  0  0  0  0  0  0  0  0  0  0  0
    3.4494    1.1269   -0.1785 O   0  0  0  0  0  0  0  0  0  0  0  0
    3.4132   -1.0451    0.0266 O   0  0  0  0  0  0  0  0  0  0  0  0
    0.7090   -1.1419    0.0393 C   0  0  0  0  0  0  0  0  0  0  0  0
   -0.6789   -1.1299    0.0444 C   0  0  0  0  0  0  0  0  0  0  0  0
   -1.5194    2.4561   -0.2664 H   0  0  0  0  0  0  0  0  0  0  0  0
    1.3265    2.2142   -0.2579 H   0  0  0  0  0  0  0  0  0  0  0  0
    1.2749   -2.0610    0.1177 H   0  0  0  0  0  0  0  0  0  0  0  0
   -1.2546   -2.0453    0.1276 H   0  0  0  0  0  0  0  0  0  0  0  0
   -3.3737    3.0338   -0.3074 Cl  0  0  0  0  0  0  0  0  0  0  0  0
  1  2  1  0  0  0  0
  1 11  2  0  0  0  0
  3  2  2  0  0  0  0
  4  1  1  0  0  0  0
  5  4  2  0  0  0  0
  5  6  1  0  0  0  0
  6 10  2  0  0  0  0
  7  6  1  0  0  0  0
  7  9  2  0  0  0  0
  8  7  2  0  0  0  0
 10 11  1  0  0  0  0
 10 14  1  0  0  0  0
 11 15  1  0  0  0  0
 12  4  1  0  0  0  0
 13  5  1  0  0  0  0
M  RAD  2   3   2  16   2
M  END
