Coordinates from ORCA-job 4-NO2PhN2+~Cl-_B3LYPG-6-31G_dp-CH-Scan-d09-49-n800
 OpenBabel11261919153D

 16 15  0  0  0  0  0  0  0  0999 V2000
   -1.2367    0.0401   -0.0545 C   0  0  0  0  0  0  0  0  0  0  0  0
   -2.6363    0.0676   -0.0515 N   0  0  0  0  0  0  0  0  0  0  0  0
   -3.7474    0.1737   -0.0561 N   0  0  0  0  0  0  0  0  0  0  0  0
   -0.6757    1.3157   -0.1679 C   0  0  0  0  0  0  0  0  0  0  0  0
    0.7442    1.2396   -0.1676 C   0  0  0  0  0  0  0  0  0  0  0  0
    1.4058    0.0249   -0.0659 C   0  0  0  0  0  0  0  0  0  0  0  0
    2.8937    0.0081   -0.0718 N   0  0  0  0  0  0  0  0  0  0  0  0
    3.4733    1.0833   -0.1805 O   0  0  0  0  0  0  0  0  0  0  0  0
    3.4460   -1.0860    0.0332 O   0  0  0  0  0  0  0  0  0  0  0  0
    0.7552   -1.2225    0.0457 C   0  0  0  0  0  0  0  0  0  0  0  0
   -0.6206   -1.2338    0.0534 C   0  0  0  0  0  0  0  0  0  0  0  0
   -2.1362    3.0818   -0.3179 H   0  0  0  0  0  0  0  0  0  0  0  0
    1.3451    2.1402   -0.2483 H   0  0  0  0  0  0  0  0  0  0  0  0
    1.3420   -2.1281    0.1220 H   0  0  0  0  0  0  0  0  0  0  0  0
   -1.1885   -2.1555    0.1369 H   0  0  0  0  0  0  0  0  0  0  0  0
   -3.2170    3.8293   -0.3794 Cl  0  0  0  0  0  0  0  0  0  0  0  0
  1  2  1  0  0  0  0
  1 11  2  0  0  0  0
  3  2  1  0  0  0  0
  4  5  2  0  0  0  0
  4  1  1  0  0  0  0
  5  6  1  0  0  0  0
  6 10  2  0  0  0  0
  7  6  1  0  0  0  0
  7  9  2  0  0  0  0
  8  7  2  0  0  0  0
 10 11  1  0  0  0  0
 10 14  1  0  0  0  0
 11 15  1  0  0  0  0
 13  5  1  0  0  0  0
 16 12  1  0  0  0  0
M  RAD  3   2   2   3   3   4   2
M  END
