Coordinates from ORCA-job 4-NO2PhN2+~Cl-_B3LYPG-6-31G_dp-CH-Scan-d09-49-n800
 OpenBabel11261919153D

 16 15  0  0  0  0  0  0  0  0999 V2000
   -0.9858    0.0737   -0.0663 C   0  0  0  0  0  0  0  0  0  0  0  0
   -2.3837    0.2350   -0.0768 N   0  0  0  0  0  0  0  0  0  0  0  0
   -3.4806    0.4483   -0.0884 N   0  0  0  0  0  0  0  0  0  0  0  0
   -0.3272    1.2972   -0.1795 C   0  0  0  0  0  0  0  0  0  0  0  0
    1.0848    1.0823   -0.1631 C   0  0  0  0  0  0  0  0  0  0  0  0
    1.6334   -0.1857   -0.0481 C   0  0  0  0  0  0  0  0  0  0  0  0
    3.1128   -0.3396   -0.0356 N   0  0  0  0  0  0  0  0  0  0  0  0
    3.7935    0.6773   -0.1302 O   0  0  0  0  0  0  0  0  0  0  0  0
    3.5640   -1.4799    0.0697 O   0  0  0  0  0  0  0  0  0  0  0  0
    0.8707   -1.3711    0.0613 C   0  0  0  0  0  0  0  0  0  0  0  0
   -0.4995   -1.2554    0.0536 C   0  0  0  0  0  0  0  0  0  0  0  0
   -3.7252    4.6765   -0.4493 H   0  0  0  0  0  0  0  0  0  0  0  0
    1.7705    1.9213   -0.2414 H   0  0  0  0  0  0  0  0  0  0  0  0
    1.3726   -2.3255    0.1475 H   0  0  0  0  0  0  0  0  0  0  0  0
   -1.1518   -2.1202    0.1339 H   0  0  0  0  0  0  0  0  0  0  0  0
   -4.7017    3.8442   -0.3577 Cl  0  0  0  0  0  0  0  0  0  0  0  0
  1 11  2  0  0  0  0
  2  1  1  0  0  0  0
  3  2  1  0  0  0  0
  4  5  2  0  0  0  0
  4  1  1  0  0  0  0
  5  6  1  0  0  0  0
  6  7  1  0  0  0  0
  6 10  2  0  0  0  0
  7  9  2  0  0  0  0
  8  7  2  0  0  0  0
 10 14  1  0  0  0  0
 11 10  1  0  0  0  0
 11 15  1  0  0  0  0
 12 16  1  0  0  0  0
 13  5  1  0  0  0  0
M  RAD  3   2   2   3   3   4   2
M  END
