Coordinates from ORCA-job 4-NO2PhN2+~Cl-_B3LYPG-6-31G_dp-CH-Scan-d09-49-n800
 OpenBabel11261919153D

 16 15  0  0  0  0  0  0  0  0999 V2000
   -1.2869    0.0745   -0.0580 C   0  0  0  0  0  0  0  0  0  0  0  0
   -2.6906    0.1253   -0.0566 N   0  0  0  0  0  0  0  0  0  0  0  0
   -3.7743    0.3911   -0.0751 N   0  0  0  0  0  0  0  0  0  0  0  0
   -0.7122    1.3408   -0.1714 C   0  0  0  0  0  0  0  0  0  0  0  0
    0.6989    1.2913   -0.1733 C   0  0  0  0  0  0  0  0  0  0  0  0
    1.3641    0.0759   -0.0702 C   0  0  0  0  0  0  0  0  0  0  0  0
    2.8518    0.0674   -0.0763 N   0  0  0  0  0  0  0  0  0  0  0  0
    3.4224    1.1470   -0.1836 O   0  0  0  0  0  0  0  0  0  0  0  0
    3.4085   -1.0238    0.0269 O   0  0  0  0  0  0  0  0  0  0  0  0
    0.7168   -1.1692    0.0418 C   0  0  0  0  0  0  0  0  0  0  0  0
   -0.6624   -1.1875    0.0496 C   0  0  0  0  0  0  0  0  0  0  0  0
   -1.7914    2.5924   -0.2760 H   0  0  0  0  0  0  0  0  0  0  0  0
    1.2877    2.1990   -0.2555 H   0  0  0  0  0  0  0  0  0  0  0  0
    1.3062   -2.0731    0.1185 H   0  0  0  0  0  0  0  0  0  0  0  0
   -1.2256   -2.1113    0.1334 H   0  0  0  0  0  0  0  0  0  0  0  0
   -2.9661    3.4386   -0.3445 Cl  0  0  0  0  0  0  0  0  0  0  0  0
  1  2  1  0  0  0  0
  1 11  2  0  0  0  0
  3  2  1  0  0  0  0
  4  1  1  0  0  0  0
  5  4  2  0  0  0  0
  5  6  1  0  0  0  0
  6 10  2  0  0  0  0
  7  6  1  0  0  0  0
  7  9  2  0  0  0  0
  8  7  2  0  0  0  0
 10 11  1  0  0  0  0
 10 14  1  0  0  0  0
 11 15  1  0  0  0  0
 13  5  1  0  0  0  0
 16 12  1  0  0  0  0
M  RAD  3   2   2   3   3   4   2
M  END
