Coordinates from ORCA-job 4-NO2PhN2+~Cl-_B3LYPG-6-31G_dp-CH-Scan-d09-49-n800
 OpenBabel11261919153D

 16 16  0  0  0  0  0  0  0  0999 V2000
   -1.3463    0.1641   -0.0631 C   0  0  0  0  0  0  0  0  0  0  0  0
   -2.7562    0.1035   -0.0496 N   0  0  0  0  0  0  0  0  0  0  0  0
   -3.7223    0.7631   -0.1059 N   0  0  0  0  0  0  0  0  0  0  0  0
   -0.6363    1.3684   -0.1707 C   0  0  0  0  0  0  0  0  0  0  0  0
    0.7536    1.3224   -0.1745 C   0  0  0  0  0  0  0  0  0  0  0  0
    1.3890    0.0862   -0.0715 C   0  0  0  0  0  0  0  0  0  0  0  0
    2.8687    0.0462   -0.0759 N   0  0  0  0  0  0  0  0  0  0  0  0
    3.4610    1.1165   -0.1779 O   0  0  0  0  0  0  0  0  0  0  0  0
    3.4018   -1.0558    0.0230 O   0  0  0  0  0  0  0  0  0  0  0  0
    0.6921   -1.1166    0.0363 C   0  0  0  0  0  0  0  0  0  0  0  0
   -0.6959   -1.0749    0.0406 C   0  0  0  0  0  0  0  0  0  0  0  0
   -1.2350    2.3821   -0.2553 H   0  0  0  0  0  0  0  0  0  0  0  0
    1.3483    2.2234   -0.2557 H   0  0  0  0  0  0  0  0  0  0  0  0
    1.2381   -2.0479    0.1142 H   0  0  0  0  0  0  0  0  0  0  0  0
   -1.2859   -1.9807    0.1228 H   0  0  0  0  0  0  0  0  0  0  0  0
   -3.5275    2.8783   -0.3068 Cl  0  0  0  0  0  0  0  0  0  0  0  0
  1  2  1  0  0  0  0
  1 11  2  0  0  0  0
  3  2  2  0  0  0  0
  4  1  1  0  0  0  0
  5  4  2  0  0  0  0
  5  6  1  0  0  0  0
  6 10  2  0  0  0  0
  7  6  1  0  0  0  0
  7  9  2  0  0  0  0
  8  7  2  0  0  0  0
 10 11  1  0  0  0  0
 10 14  1  0  0  0  0
 11 15  1  0  0  0  0
 12  4  1  0  0  0  0
 13  5  1  0  0  0  0
 16  3  1  0  0  0  0
M  END
