Coordinates from ORCA-job 4-NO2PhN2+~Cl-_B3LYPG-6-31G_dp-CH-Scan-d09-49-n800
 OpenBabel11261919153D

 16 15  0  0  0  0  0  0  0  0999 V2000
   -1.0953    0.0492   -0.0508 C   0  0  0  0  0  0  0  0  0  0  0  0
   -2.4977    0.1472   -0.0524 N   0  0  0  0  0  0  0  0  0  0  0  0
   -3.6031    0.3101   -0.0589 N   0  0  0  0  0  0  0  0  0  0  0  0
   -0.4881    1.3009   -0.1553 C   0  0  0  0  0  0  0  0  0  0  0  0
    0.9311    1.1472   -0.1505 C   0  0  0  0  0  0  0  0  0  0  0  0
    1.5341   -0.0975   -0.0545 C   0  0  0  0  0  0  0  0  0  0  0  0
    3.0189   -0.1877   -0.0558 N   0  0  0  0  0  0  0  0  0  0  0  0
    3.6539    0.8577   -0.1558 O   0  0  0  0  0  0  0  0  0  0  0  0
    3.5190   -1.3077    0.0440 O   0  0  0  0  0  0  0  0  0  0  0  0
    0.8240   -1.3152    0.0482 C   0  0  0  0  0  0  0  0  0  0  0  0
   -0.5500   -1.2582    0.0519 C   0  0  0  0  0  0  0  0  0  0  0  0
   -2.9036    4.0435   -0.4104 H   0  0  0  0  0  0  0  0  0  0  0  0
    1.5798    2.0155   -0.2233 H   0  0  0  0  0  0  0  0  0  0  0  0
    1.3669   -2.2480    0.1208 H   0  0  0  0  0  0  0  0  0  0  0  0
   -1.1640   -2.1509    0.1285 H   0  0  0  0  0  0  0  0  0  0  0  0
   -4.1790    3.8725   -0.3961 Cl  0  0  0  0  0  0  0  0  0  0  0  0
  1 11  2  0  0  0  0
  2  1  1  0  0  0  0
  3  2  1  0  0  0  0
  4  5  2  0  0  0  0
  4  1  1  0  0  0  0
  5  6  1  0  0  0  0
  6 10  2  0  0  0  0
  7  6  1  0  0  0  0
  7  9  2  0  0  0  0
  8  7  2  0  0  0  0
 10 11  1  0  0  0  0
 10 14  1  0  0  0  0
 11 15  1  0  0  0  0
 12 16  1  0  0  0  0
 13  5  1  0  0  0  0
M  RAD  3   2   2   3   3   4   2
M  END
