Coordinates from ORCA-job 4-NO2PhN2+~Cl-_B3LYPG-6-31G_dp-CH-Scan-d09-49-n800
 OpenBabel11261919153D

 16 16  0  0  0  0  0  0  0  0999 V2000
   -1.3576    0.1969    0.0761 C   0  0  0  0  0  0  0  0  0  0  0  0
   -2.7649    0.1531    0.1963 N   0  0  0  0  0  0  0  0  0  0  0  0
   -3.7102    0.8081   -0.0496 N   0  0  0  0  0  0  0  0  0  0  0  0
   -0.6434    1.4038    0.0283 C   0  0  0  0  0  0  0  0  0  0  0  0
    0.7452    1.3443   -0.0471 C   0  0  0  0  0  0  0  0  0  0  0  0
    1.3734    0.1014   -0.0811 C   0  0  0  0  0  0  0  0  0  0  0  0
    2.8486    0.0531   -0.1697 N   0  0  0  0  0  0  0  0  0  0  0  0
    3.4473    1.1247   -0.2011 O   0  0  0  0  0  0  0  0  0  0  0  0
    3.3753   -1.0564   -0.1901 O   0  0  0  0  0  0  0  0  0  0  0  0
    0.6694   -1.1003   -0.0261 C   0  0  0  0  0  0  0  0  0  0  0  0
   -0.7152   -1.0487    0.0712 C   0  0  0  0  0  0  0  0  0  0  0  0
   -1.1428    2.3104    0.0438 H   0  0  0  0  0  0  0  0  0  0  0  0
    1.3440    2.2456   -0.0851 H   0  0  0  0  0  0  0  0  0  0  0  0
    1.2077   -2.0391   -0.0480 H   0  0  0  0  0  0  0  0  0  0  0  0
   -1.3080   -1.9541    0.1357 H   0  0  0  0  0  0  0  0  0  0  0  0
   -3.4217    2.6356   -1.0237 Cl  0  0  0  0  0  0  0  0  0  0  0  0
  1  2  1  0  0  0  0
  3  2  2  0  0  0  0
  4 12  1  0  0  0  0
  4  1  2  0  0  0  0
  5  4  1  0  0  0  0
  6  5  2  0  0  0  0
  6 10  1  0  0  0  0
  7  6  1  0  0  0  0
  8  7  2  0  0  0  0
  9  7  2  0  0  0  0
 10 11  2  0  0  0  0
 11  1  1  0  0  0  0
 11 15  1  0  0  0  0
 13  5  1  0  0  0  0
 14 10  1  0  0  0  0
 16  3  1  0  0  0  0
M  END
