Coordinates from ORCA-job 4-NO2PhN2+~Cl-_B3LYPG-6-31G_dp-CH-Scan-d09-49-n800
 OpenBabel11261919153D

 16 15  0  0  0  0  0  0  0  0999 V2000
   -1.1894    0.0063   -0.0500 C   0  0  0  0  0  0  0  0  0  0  0  0
   -2.5903    0.0411   -0.0469 N   0  0  0  0  0  0  0  0  0  0  0  0
   -3.7022    0.1468   -0.0504 N   0  0  0  0  0  0  0  0  0  0  0  0
   -0.6300    1.2819   -0.1618 C   0  0  0  0  0  0  0  0  0  0  0  0
    0.7922    1.1946   -0.1616 C   0  0  0  0  0  0  0  0  0  0  0  0
    1.4487   -0.0227   -0.0625 C   0  0  0  0  0  0  0  0  0  0  0  0
    2.9364   -0.0471   -0.0691 N   0  0  0  0  0  0  0  0  0  0  0  0
    3.5225    1.0252   -0.1753 O   0  0  0  0  0  0  0  0  0  0  0  0
    3.4843   -1.1434    0.0388 O   0  0  0  0  0  0  0  0  0  0  0  0
    0.7928   -1.2687    0.0477 C   0  0  0  0  0  0  0  0  0  0  0  0
   -0.5825   -1.2732    0.0560 C   0  0  0  0  0  0  0  0  0  0  0  0
   -2.4072    3.4533   -0.3516 H   0  0  0  0  0  0  0  0  0  0  0  0
    1.3998    2.0912   -0.2406 H   0  0  0  0  0  0  0  0  0  0  0  0
    1.3760   -2.1767    0.1224 H   0  0  0  0  0  0  0  0  0  0  0  0
   -1.1554   -2.1922    0.1386 H   0  0  0  0  0  0  0  0  0  0  0  0
   -3.5487    4.0619   -0.4039 Cl  0  0  0  0  0  0  0  0  0  0  0  0
  1  2  1  0  0  0  0
  1 11  2  0  0  0  0
  3  2  1  0  0  0  0
  4  5  2  0  0  0  0
  4  1  1  0  0  0  0
  5  6  1  0  0  0  0
  6 10  2  0  0  0  0
  7  6  1  0  0  0  0
  7  9  2  0  0  0  0
  8  7  2  0  0  0  0
 10 11  1  0  0  0  0
 10 14  1  0  0  0  0
 11 15  1  0  0  0  0
 13  5  1  0  0  0  0
 16 12  1  0  0  0  0
M  RAD  3   2   2   3   3   4   2
M  END
