Coordinates from ORCA-job 4-NO2PhN2+~Cl-_B3LYPG-6-31G_dp-CH-Scan-d09-49-n800
 OpenBabel11261919153D

 16 15  0  0  0  0  0  0  0  0999 V2000
   -0.9794    0.0763   -0.0645 C   0  0  0  0  0  0  0  0  0  0  0  0
   -2.3767    0.2419   -0.0740 N   0  0  0  0  0  0  0  0  0  0  0  0
   -3.4730    0.4580   -0.0889 N   0  0  0  0  0  0  0  0  0  0  0  0
   -0.3173    1.2980   -0.1769 C   0  0  0  0  0  0  0  0  0  0  0  0
    1.0942    1.0791   -0.1613 C   0  0  0  0  0  0  0  0  0  0  0  0
    1.6391   -0.1905   -0.0477 C   0  0  0  0  0  0  0  0  0  0  0  0
    3.1181   -0.3488   -0.0359 N   0  0  0  0  0  0  0  0  0  0  0  0
    3.8016    0.6663   -0.1291 O   0  0  0  0  0  0  0  0  0  0  0  0
    3.5661   -1.4906    0.0673 O   0  0  0  0  0  0  0  0  0  0  0  0
    0.8731   -1.3739    0.0609 C   0  0  0  0  0  0  0  0  0  0  0  0
   -0.4968   -1.2543    0.0539 C   0  0  0  0  0  0  0  0  0  0  0  0
   -3.7748    4.7023   -0.4517 H   0  0  0  0  0  0  0  0  0  0  0  0
    1.7822    1.9162   -0.2392 H   0  0  0  0  0  0  0  0  0  0  0  0
    1.3723   -2.3298    0.1459 H   0  0  0  0  0  0  0  0  0  0  0  0
   -1.1516   -2.1173    0.1336 H   0  0  0  0  0  0  0  0  0  0  0  0
   -4.7300    3.8454   -0.3626 Cl  0  0  0  0  0  0  0  0  0  0  0  0
  1 11  2  0  0  0  0
  2  1  1  0  0  0  0
  3  2  1  0  0  0  0
  4  5  2  0  0  0  0
  4  1  1  0  0  0  0
  5  6  1  0  0  0  0
  6  7  1  0  0  0  0
  6 10  2  0  0  0  0
  7  9  2  0  0  0  0
  8  7  2  0  0  0  0
 10 14  1  0  0  0  0
 11 10  1  0  0  0  0
 11 15  1  0  0  0  0
 12 16  1  0  0  0  0
 13  5  1  0  0  0  0
M  RAD  3   2   2   3   3   4   2
M  END
