Coordinates from ORCA-job 4-NO2PhN2+~Cl-_B3LYPG-6-31G_dp-CH-Scan-d09-49-n800
 OpenBabel11261919153D

 16 15  0  0  0  0  0  0  0  0999 V2000
   -1.2538    0.0506   -0.0555 C   0  0  0  0  0  0  0  0  0  0  0  0
   -2.6530    0.0752   -0.0521 N   0  0  0  0  0  0  0  0  0  0  0  0
   -3.7635    0.1843   -0.0568 N   0  0  0  0  0  0  0  0  0  0  0  0
   -0.6919    1.3259   -0.1692 C   0  0  0  0  0  0  0  0  0  0  0  0
    0.7268    1.2550   -0.1694 C   0  0  0  0  0  0  0  0  0  0  0  0
    1.3907    0.0413   -0.0674 C   0  0  0  0  0  0  0  0  0  0  0  0
    2.8787    0.0278   -0.0737 N   0  0  0  0  0  0  0  0  0  0  0  0
    3.4553    1.1046   -0.1811 O   0  0  0  0  0  0  0  0  0  0  0  0
    3.4329   -1.0651    0.0314 O   0  0  0  0  0  0  0  0  0  0  0  0
    0.7424   -1.2066    0.0444 C   0  0  0  0  0  0  0  0  0  0  0  0
   -0.6337   -1.2208    0.0523 C   0  0  0  0  0  0  0  0  0  0  0  0
   -2.0367    2.9544   -0.3069 H   0  0  0  0  0  0  0  0  0  0  0  0
    1.3245    2.1576   -0.2506 H   0  0  0  0  0  0  0  0  0  0  0  0
    1.3308   -2.1112    0.1207 H   0  0  0  0  0  0  0  0  0  0  0  0
   -1.1994   -2.1437    0.1360 H   0  0  0  0  0  0  0  0  0  0  0  0
   -3.1032    3.7492   -0.3725 Cl  0  0  0  0  0  0  0  0  0  0  0  0
  1  2  1  0  0  0  0
  1 11  2  0  0  0  0
  3  2  1  0  0  0  0
  4  1  1  0  0  0  0
  5  4  2  0  0  0  0
  5  6  1  0  0  0  0
  6 10  2  0  0  0  0
  7  6  1  0  0  0  0
  7  9  2  0  0  0  0
  8  7  2  0  0  0  0
 10 11  1  0  0  0  0
 10 14  1  0  0  0  0
 11 15  1  0  0  0  0
 13  5  1  0  0  0  0
 16 12  1  0  0  0  0
M  RAD  3   2   2   3   3   4   2
M  END
