Coordinates from ORCA-job 4-NO2PhN2+~Cl-_B3LYPG-6-31G_dp-CH-Scan-d09-49-n800
 OpenBabel11261919153D

 16 16  0  0  0  0  0  0  0  0999 V2000
   -1.3626    0.1984    0.0705 C   0  0  0  0  0  0  0  0  0  0  0  0
   -2.7705    0.1499    0.1818 N   0  0  0  0  0  0  0  0  0  0  0  0
   -3.7111    0.8148   -0.0594 N   0  0  0  0  0  0  0  0  0  0  0  0
   -0.6528    1.4087    0.0183 C   0  0  0  0  0  0  0  0  0  0  0  0
    0.7366    1.3478   -0.0535 C   0  0  0  0  0  0  0  0  0  0  0  0
    1.3684    0.1069   -0.0793 C   0  0  0  0  0  0  0  0  0  0  0  0
    2.8438    0.0618   -0.1640 N   0  0  0  0  0  0  0  0  0  0  0  0
    3.4396    1.1346   -0.2082 O   0  0  0  0  0  0  0  0  0  0  0  0
    3.3729   -1.0467   -0.1836 O   0  0  0  0  0  0  0  0  0  0  0  0
    0.6669   -1.0958   -0.0200 C   0  0  0  0  0  0  0  0  0  0  0  0
   -0.7181   -1.0459    0.0725 C   0  0  0  0  0  0  0  0  0  0  0  0
   -1.0963    2.2204    0.0306 H   0  0  0  0  0  0  0  0  0  0  0  0
    1.3334    2.2506   -0.0948 H   0  0  0  0  0  0  0  0  0  0  0  0
    1.2070   -2.0338   -0.0357 H   0  0  0  0  0  0  0  0  0  0  0  0
   -1.3099   -1.9517    0.1385 H   0  0  0  0  0  0  0  0  0  0  0  0
   -3.4007    2.6584   -0.9840 Cl  0  0  0  0  0  0  0  0  0  0  0  0
  1 11  1  0  0  0  0
  1  2  1  0  0  0  0
  3  2  2  0  0  0  0
  4 12  1  0  0  0  0
  4  1  2  0  0  0  0
  5  4  1  0  0  0  0
  6  5  2  0  0  0  0
  6 10  1  0  0  0  0
  7  6  1  0  0  0  0
  8  7  2  0  0  0  0
  9  7  2  0  0  0  0
 10 11  2  0  0  0  0
 11 15  1  0  0  0  0
 13  5  1  0  0  0  0
 14 10  1  0  0  0  0
 16  3  1  0  0  0  0
M  END
