Coordinates from ORCA-job 4-NO2PhN2+~Cl-_B3LYPG-6-31G_dp-CH-Scan-d09-49-n800
 OpenBabel11261919153D

 16 15  0  0  0  0  0  0  0  0999 V2000
   -1.1351   -0.0013   -0.0410 C   0  0  0  0  0  0  0  0  0  0  0  0
   -2.5377    0.0585   -0.0371 N   0  0  0  0  0  0  0  0  0  0  0  0
   -3.6474    0.1882   -0.0400 N   0  0  0  0  0  0  0  0  0  0  0  0
   -0.5622    1.2678   -0.1434 C   0  0  0  0  0  0  0  0  0  0  0  0
    0.8601    1.1558   -0.1449 C   0  0  0  0  0  0  0  0  0  0  0  0
    1.4984   -0.0719   -0.0565 C   0  0  0  0  0  0  0  0  0  0  0  0
    2.9853   -0.1195   -0.0652 N   0  0  0  0  0  0  0  0  0  0  0  0
    3.5890    0.9437   -0.1679 O   0  0  0  0  0  0  0  0  0  0  0  0
    3.5171   -1.2250    0.0321 O   0  0  0  0  0  0  0  0  0  0  0  0
    0.8238   -1.3095    0.0448 C   0  0  0  0  0  0  0  0  0  0  0  0
   -0.5512   -1.2924    0.0547 C   0  0  0  0  0  0  0  0  0  0  0  0
   -2.6897    3.8348   -0.3887 H   0  0  0  0  0  0  0  0  0  0  0  0
    1.4830    2.0428   -0.2170 H   0  0  0  0  0  0  0  0  0  0  0  0
    1.3935   -2.2266    0.1117 H   0  0  0  0  0  0  0  0  0  0  0  0
   -1.1389   -2.2026    0.1309 H   0  0  0  0  0  0  0  0  0  0  0  0
   -3.9411    4.1356   -0.4426 Cl  0  0  0  0  0  0  0  0  0  0  0  0
  1  2  1  0  0  0  0
  1 11  2  0  0  0  0
  3  2  1  0  0  0  0
  4  1  1  0  0  0  0
  5  4  2  0  0  0  0
  5  6  1  0  0  0  0
  6 10  2  0  0  0  0
  7  6  1  0  0  0  0
  7  9  2  0  0  0  0
  8  7  2  0  0  0  0
 10 11  1  0  0  0  0
 10 14  1  0  0  0  0
 11 15  1  0  0  0  0
 13  5  1  0  0  0  0
 16 12  1  0  0  0  0
M  RAD  3   2   2   3   3   4   2
M  END
