Coordinates from ORCA-job 4-NO2PhN2+~Cl-_B3LYPG-6-31G_dp-CH-Scan-d09-49-n800
 OpenBabel11261919153D

 16 15  0  0  0  0  0  0  0  0999 V2000
   -1.1990    0.0179   -0.0520 C   0  0  0  0  0  0  0  0  0  0  0  0
   -2.5997    0.0529   -0.0495 N   0  0  0  0  0  0  0  0  0  0  0  0
   -3.7114    0.1594   -0.0539 N   0  0  0  0  0  0  0  0  0  0  0  0
   -0.6374    1.2925   -0.1645 C   0  0  0  0  0  0  0  0  0  0  0  0
    0.7841    1.2059   -0.1635 C   0  0  0  0  0  0  0  0  0  0  0  0
    1.4400   -0.0118   -0.0628 C   0  0  0  0  0  0  0  0  0  0  0  0
    2.9277   -0.0366   -0.0685 N   0  0  0  0  0  0  0  0  0  0  0  0
    3.5140    1.0352   -0.1776 O   0  0  0  0  0  0  0  0  0  0  0  0
    3.4749   -1.1334    0.0375 O   0  0  0  0  0  0  0  0  0  0  0  0
    0.7834   -1.2571    0.0479 C   0  0  0  0  0  0  0  0  0  0  0  0
   -0.5920   -1.2613    0.0554 C   0  0  0  0  0  0  0  0  0  0  0  0
   -2.3491    3.3630   -0.3426 H   0  0  0  0  0  0  0  0  0  0  0  0
    1.3917    2.1025   -0.2430 H   0  0  0  0  0  0  0  0  0  0  0  0
    1.3662   -2.1653    0.1237 H   0  0  0  0  0  0  0  0  0  0  0  0
   -1.1650   -2.1800    0.1383 H   0  0  0  0  0  0  0  0  0  0  0  0
   -3.4814    3.9945   -0.3951 Cl  0  0  0  0  0  0  0  0  0  0  0  0
  1  2  1  0  0  0  0
  1 11  2  0  0  0  0
  3  2  1  0  0  0  0
  4  5  2  0  0  0  0
  4  1  1  0  0  0  0
  5  6  1  0  0  0  0
  6 10  2  0  0  0  0
  7  6  1  0  0  0  0
  7  9  2  0  0  0  0
  8  7  2  0  0  0  0
 10 11  1  0  0  0  0
 10 14  1  0  0  0  0
 11 15  1  0  0  0  0
 13  5  1  0  0  0  0
 16 12  1  0  0  0  0
M  RAD  3   2   2   3   3   4   2
M  END
