Coordinates from ORCA-job 4-NO2PhN2+~Cl-_B3LYPG-6-31G_dp-CH-Scan-d09-49-n800
 OpenBabel11261919153D

 16 15  0  0  0  0  0  0  0  0999 V2000
   -1.2353    0.0391   -0.0544 C   0  0  0  0  0  0  0  0  0  0  0  0
   -2.6349    0.0669   -0.0516 N   0  0  0  0  0  0  0  0  0  0  0  0
   -3.7461    0.1728   -0.0563 N   0  0  0  0  0  0  0  0  0  0  0  0
   -0.6743    1.3147   -0.1677 C   0  0  0  0  0  0  0  0  0  0  0  0
    0.7456    1.2383   -0.1672 C   0  0  0  0  0  0  0  0  0  0  0  0
    1.4071    0.0235   -0.0654 C   0  0  0  0  0  0  0  0  0  0  0  0
    2.8950    0.0065   -0.0712 N   0  0  0  0  0  0  0  0  0  0  0  0
    3.4747    1.0815   -0.1811 O   0  0  0  0  0  0  0  0  0  0  0  0
    3.4471   -1.0878    0.0326 O   0  0  0  0  0  0  0  0  0  0  0  0
    0.7563   -1.2239    0.0460 C   0  0  0  0  0  0  0  0  0  0  0  0
   -0.6195   -1.2350    0.0535 C   0  0  0  0  0  0  0  0  0  0  0  0
   -2.1445    3.0923   -0.3188 H   0  0  0  0  0  0  0  0  0  0  0  0
    1.3468    2.1388   -0.2478 H   0  0  0  0  0  0  0  0  0  0  0  0
    1.3430   -2.1295    0.1223 H   0  0  0  0  0  0  0  0  0  0  0  0
   -1.1875   -2.1566    0.1369 H   0  0  0  0  0  0  0  0  0  0  0  0
   -3.2265    3.8365   -0.3801 Cl  0  0  0  0  0  0  0  0  0  0  0  0
  1  2  1  0  0  0  0
  1 11  2  0  0  0  0
  3  2  1  0  0  0  0
  4  5  2  0  0  0  0
  4  1  1  0  0  0  0
  5  6  1  0  0  0  0
  6 10  2  0  0  0  0
  7  6  1  0  0  0  0
  7  9  2  0  0  0  0
  8  7  2  0  0  0  0
 10 11  1  0  0  0  0
 10 14  1  0  0  0  0
 11 15  1  0  0  0  0
 13  5  1  0  0  0  0
 16 12  1  0  0  0  0
M  RAD  3   2   2   3   3   4   2
M  END
