Coordinates from ORCA-job 4-NO2PhN2+~Cl-_B3LYPG-6-31G_dp-CH-Scan-d09-49-n800
 OpenBabel11261919153D

 16 15  0  0  0  0  0  0  0  0999 V2000
   -1.1597   -0.0184   -0.0445 C   0  0  0  0  0  0  0  0  0  0  0  0
   -2.5617    0.0213   -0.0411 N   0  0  0  0  0  0  0  0  0  0  0  0
   -3.6734    0.1320   -0.0449 N   0  0  0  0  0  0  0  0  0  0  0  0
   -0.6016    1.2573   -0.1529 C   0  0  0  0  0  0  0  0  0  0  0  0
    0.8216    1.1650   -0.1536 C   0  0  0  0  0  0  0  0  0  0  0  0
    1.4759   -0.0538   -0.0588 C   0  0  0  0  0  0  0  0  0  0  0  0
    2.9634   -0.0816   -0.0666 N   0  0  0  0  0  0  0  0  0  0  0  0
    3.5525    0.9891   -0.1739 O   0  0  0  0  0  0  0  0  0  0  0  0
    3.5094   -1.1795    0.0361 O   0  0  0  0  0  0  0  0  0  0  0  0
    0.8176   -1.2994    0.0483 C   0  0  0  0  0  0  0  0  0  0  0  0
   -0.5575   -1.3007    0.0576 C   0  0  0  0  0  0  0  0  0  0  0  0
   -2.5763    3.7050   -0.3753 H   0  0  0  0  0  0  0  0  0  0  0  0
    1.4322    2.0601   -0.2300 H   0  0  0  0  0  0  0  0  0  0  0  0
    1.3993   -2.2086    0.1199 H   0  0  0  0  0  0  0  0  0  0  0  0
   -1.1328   -2.2184    0.1379 H   0  0  0  0  0  0  0  0  0  0  0  0
   -3.7622    4.2089   -0.4285 Cl  0  0  0  0  0  0  0  0  0  0  0  0
  1  2  1  0  0  0  0
  1 11  2  0  0  0  0
  3  2  1  0  0  0  0
  4  1  1  0  0  0  0
  5  4  2  0  0  0  0
  5  6  1  0  0  0  0
  6 10  2  0  0  0  0
  7  6  1  0  0  0  0
  7  9  2  0  0  0  0
  8  7  2  0  0  0  0
 10 11  1  0  0  0  0
 10 14  1  0  0  0  0
 11 15  1  0  0  0  0
 13  5  1  0  0  0  0
 16 12  1  0  0  0  0
M  RAD  3   2   2   3   3   4   2
M  END
