Coordinates from ORCA-job 4-NO2PhN2+~Cl-_B3LYPG-6-31G_dp-CH-Scan-d09-49-n800
 OpenBabel11261919153D

 16 15  0  0  0  0  0  0  0  0999 V2000
   -1.1591   -0.0182   -0.0469 C   0  0  0  0  0  0  0  0  0  0  0  0
   -2.5610    0.0218   -0.0446 N   0  0  0  0  0  0  0  0  0  0  0  0
   -3.6728    0.1323   -0.0490 N   0  0  0  0  0  0  0  0  0  0  0  0
   -0.6006    1.2571   -0.1576 C   0  0  0  0  0  0  0  0  0  0  0  0
    0.8226    1.1644   -0.1570 C   0  0  0  0  0  0  0  0  0  0  0  0
    1.4765   -0.0543   -0.0591 C   0  0  0  0  0  0  0  0  0  0  0  0
    2.9640   -0.0825   -0.0658 N   0  0  0  0  0  0  0  0  0  0  0  0
    3.5535    0.9878   -0.1752 O   0  0  0  0  0  0  0  0  0  0  0  0
    3.5096   -1.1804    0.0393 O   0  0  0  0  0  0  0  0  0  0  0  0
    0.8178   -1.2995    0.0501 C   0  0  0  0  0  0  0  0  0  0  0  0
   -0.5573   -1.3005    0.0584 C   0  0  0  0  0  0  0  0  0  0  0  0
   -2.5793    3.7094   -0.3652 H   0  0  0  0  0  0  0  0  0  0  0  0
    1.4335    2.0592   -0.2348 H   0  0  0  0  0  0  0  0  0  0  0  0
    1.3992   -2.2087    0.1240 H   0  0  0  0  0  0  0  0  0  0  0  0
   -1.1329   -2.2179    0.1402 H   0  0  0  0  0  0  0  0  0  0  0  0
   -3.7668    4.2082   -0.4274 Cl  0  0  0  0  0  0  0  0  0  0  0  0
  1  2  1  0  0  0  0
  1 11  2  0  0  0  0
  3  2  1  0  0  0  0
  4  5  2  0  0  0  0
  4  1  1  0  0  0  0
  5  6  1  0  0  0  0
  6 10  2  0  0  0  0
  7  6  1  0  0  0  0
  7  9  2  0  0  0  0
  8  7  2  0  0  0  0
 10 11  1  0  0  0  0
 10 14  1  0  0  0  0
 11 15  1  0  0  0  0
 13  5  1  0  0  0  0
 16 12  1  0  0  0  0
M  RAD  3   2   2   3   3   4   2
M  END
