Coordinates from ORCA-job 4-NO2PhN2+~Cl-_B3LYPG-6-31G_dp-CH-Scan-d09-49-n800
 OpenBabel11261919153D

 16 15  0  0  0  0  0  0  0  0999 V2000
   -1.0798    0.0499   -0.0528 C   0  0  0  0  0  0  0  0  0  0  0  0
   -2.4822    0.1559   -0.0556 N   0  0  0  0  0  0  0  0  0  0  0  0
   -3.5866    0.3254   -0.0637 N   0  0  0  0  0  0  0  0  0  0  0  0
   -0.4668    1.2985   -0.1586 C   0  0  0  0  0  0  0  0  0  0  0  0
    0.9518    1.1369   -0.1522 C   0  0  0  0  0  0  0  0  0  0  0  0
    1.5483   -0.1108   -0.0537 C   0  0  0  0  0  0  0  0  0  0  0  0
    3.0326   -0.2088   -0.0531 N   0  0  0  0  0  0  0  0  0  0  0  0
    3.6733    0.8331   -0.1523 O   0  0  0  0  0  0  0  0  0  0  0  0
    3.5268   -1.3313    0.0489 O   0  0  0  0  0  0  0  0  0  0  0  0
    0.8317   -1.3247    0.0500 C   0  0  0  0  0  0  0  0  0  0  0  0
   -0.5420   -1.2604    0.0523 C   0  0  0  0  0  0  0  0  0  0  0  0
   -3.0129    4.1660   -0.4213 H   0  0  0  0  0  0  0  0  0  0  0  0
    1.6053    2.0016   -0.2256 H   0  0  0  0  0  0  0  0  0  0  0  0
    1.3695   -2.2602    0.1245 H   0  0  0  0  0  0  0  0  0  0  0  0
   -1.1608   -2.1497    0.1295 H   0  0  0  0  0  0  0  0  0  0  0  0
   -4.2614    3.8569   -0.3865 Cl  0  0  0  0  0  0  0  0  0  0  0  0
  1 11  2  0  0  0  0
  2  1  1  0  0  0  0
  3  2  1  0  0  0  0
  4  5  2  0  0  0  0
  4  1  1  0  0  0  0
  5  6  1  0  0  0  0
  6  7  1  0  0  0  0
  6 10  2  0  0  0  0
  7  9  2  0  0  0  0
  8  7  2  0  0  0  0
 10 11  1  0  0  0  0
 10 14  1  0  0  0  0
 11 15  1  0  0  0  0
 12 16  1  0  0  0  0
 13  5  1  0  0  0  0
M  RAD  3   2   2   3   3   4   2
M  END
