Coordinates from ORCA-job 4-NO2PhN2+~Cl-_B3LYPG-6-31G_dp-CH-Scan-d09-49-n800
 OpenBabel11261919153D

 16 15  0  0  0  0  0  0  0  0999 V2000
   -1.0336    0.0553   -0.0615 C   0  0  0  0  0  0  0  0  0  0  0  0
   -2.4344    0.1867   -0.0691 N   0  0  0  0  0  0  0  0  0  0  0  0
   -3.5355    0.3770   -0.0820 N   0  0  0  0  0  0  0  0  0  0  0  0
   -0.4008    1.2928   -0.1732 C   0  0  0  0  0  0  0  0  0  0  0  0
    1.0153    1.1076   -0.1609 C   0  0  0  0  0  0  0  0  0  0  0  0
    1.5907   -0.1490   -0.0517 C   0  0  0  0  0  0  0  0  0  0  0  0
    3.0731   -0.2717   -0.0448 N   0  0  0  0  0  0  0  0  0  0  0  0
    3.7317    0.7595   -0.1410 O   0  0  0  0  0  0  0  0  0  0  0  0
    3.5485   -1.4015    0.0665 O   0  0  0  0  0  0  0  0  0  0  0  0
    0.8536   -1.3503    0.0571 C   0  0  0  0  0  0  0  0  0  0  0  0
   -0.5188   -1.2633    0.0538 C   0  0  0  0  0  0  0  0  0  0  0  0
   -3.3533    4.4482   -0.4366 H   0  0  0  0  0  0  0  0  0  0  0  0
    1.6832    1.9610   -0.2380 H   0  0  0  0  0  0  0  0  0  0  0  0
    1.3757   -2.2941    0.1394 H   0  0  0  0  0  0  0  0  0  0  0  0
   -1.1526   -2.1418    0.1343 H   0  0  0  0  0  0  0  0  0  0  0  0
   -4.4960    3.8621   -0.3625 Cl  0  0  0  0  0  0  0  0  0  0  0  0
  1 11  2  0  0  0  0
  2  1  1  0  0  0  0
  3  2  1  0  0  0  0
  4  5  2  0  0  0  0
  4  1  1  0  0  0  0
  5  6  1  0  0  0  0
  6  7  1  0  0  0  0
  6 10  2  0  0  0  0
  7  9  2  0  0  0  0
  8  7  2  0  0  0  0
 10 14  1  0  0  0  0
 11 10  1  0  0  0  0
 11 15  1  0  0  0  0
 12 16  1  0  0  0  0
 13  5  1  0  0  0  0
M  RAD  3   2   2   3   3   4   2
M  END
