Coordinates from ORCA-job 4-NO2PhN2+~Cl-_B3LYPG-6-31G_dp-CH-Scan-d09-49-n800
 OpenBabel11261919153D

 16 15  0  0  0  0  0  0  0  0999 V2000
   -1.2022    0.0205   -0.0523 C   0  0  0  0  0  0  0  0  0  0  0  0
   -2.6027    0.0552   -0.0498 N   0  0  0  0  0  0  0  0  0  0  0  0
   -3.7143    0.1618   -0.0542 N   0  0  0  0  0  0  0  0  0  0  0  0
   -0.6404    1.2951   -0.1649 C   0  0  0  0  0  0  0  0  0  0  0  0
    0.7810    1.2090   -0.1639 C   0  0  0  0  0  0  0  0  0  0  0  0
    1.4371   -0.0085   -0.0631 C   0  0  0  0  0  0  0  0  0  0  0  0
    2.9248   -0.0330   -0.0687 N   0  0  0  0  0  0  0  0  0  0  0  0
    3.5108    1.0390   -0.1779 O   0  0  0  0  0  0  0  0  0  0  0  0
    3.4723   -1.1297    0.0372 O   0  0  0  0  0  0  0  0  0  0  0  0
    0.7808   -1.2540    0.0477 C   0  0  0  0  0  0  0  0  0  0  0  0
   -0.5947   -1.2584    0.0552 C   0  0  0  0  0  0  0  0  0  0  0  0
   -2.3305    3.3380   -0.3404 H   0  0  0  0  0  0  0  0  0  0  0  0
    1.3882    2.1058   -0.2436 H   0  0  0  0  0  0  0  0  0  0  0  0
    1.3637   -2.1620    0.1236 H   0  0  0  0  0  0  0  0  0  0  0  0
   -1.1674   -2.1773    0.1381 H   0  0  0  0  0  0  0  0  0  0  0  0
   -3.4598    3.9771   -0.3934 Cl  0  0  0  0  0  0  0  0  0  0  0  0
  1  2  1  0  0  0  0
  1 11  2  0  0  0  0
  3  2  1  0  0  0  0
  4  5  2  0  0  0  0
  4  1  1  0  0  0  0
  5  6  1  0  0  0  0
  6 10  2  0  0  0  0
  7  6  1  0  0  0  0
  7  9  2  0  0  0  0
  8  7  2  0  0  0  0
 10 11  1  0  0  0  0
 10 14  1  0  0  0  0
 11 15  1  0  0  0  0
 13  5  1  0  0  0  0
 16 12  1  0  0  0  0
M  RAD  3   2   2   3   3   4   2
M  END
