Coordinates from ORCA-job 4-NO2PhN2+~Cl-_B3LYPG-6-31G_dp-CH-Scan-d09-49-n800
 OpenBabel11261919153D

 16 15  0  0  0  0  0  0  0  0999 V2000
   -1.1947    0.0124   -0.0510 C   0  0  0  0  0  0  0  0  0  0  0  0
   -2.5954    0.0471   -0.0483 N   0  0  0  0  0  0  0  0  0  0  0  0
   -3.7072    0.1534   -0.0525 N   0  0  0  0  0  0  0  0  0  0  0  0
   -0.6343    1.2877   -0.1630 C   0  0  0  0  0  0  0  0  0  0  0  0
    0.7876    1.2007   -0.1623 C   0  0  0  0  0  0  0  0  0  0  0  0
    1.4438   -0.0168   -0.0623 C   0  0  0  0  0  0  0  0  0  0  0  0
    2.9316   -0.0412   -0.0683 N   0  0  0  0  0  0  0  0  0  0  0  0
    3.5177    1.0308   -0.1773 O   0  0  0  0  0  0  0  0  0  0  0  0
    3.4792   -1.1378    0.0372 O   0  0  0  0  0  0  0  0  0  0  0  0
    0.7877   -1.2625    0.0480 C   0  0  0  0  0  0  0  0  0  0  0  0
   -0.5876   -1.2669    0.0557 C   0  0  0  0  0  0  0  0  0  0  0  0
   -2.3750    3.4051   -0.3468 H   0  0  0  0  0  0  0  0  0  0  0  0
    1.3952    2.0973   -0.2414 H   0  0  0  0  0  0  0  0  0  0  0  0
    1.3708   -2.1705    0.1232 H   0  0  0  0  0  0  0  0  0  0  0  0
   -1.1605   -2.1858    0.1383 H   0  0  0  0  0  0  0  0  0  0  0  0
   -3.5119    4.0254   -0.3995 Cl  0  0  0  0  0  0  0  0  0  0  0  0
  1  2  1  0  0  0  0
  1 11  2  0  0  0  0
  3  2  1  0  0  0  0
  4  5  2  0  0  0  0
  4  1  1  0  0  0  0
  5  6  1  0  0  0  0
  6 10  2  0  0  0  0
  7  6  1  0  0  0  0
  7  9  2  0  0  0  0
  8  7  2  0  0  0  0
 10 11  1  0  0  0  0
 10 14  1  0  0  0  0
 11 15  1  0  0  0  0
 13  5  1  0  0  0  0
 16 12  1  0  0  0  0
M  RAD  3   2   2   3   3   4   2
M  END
