Coordinates from ORCA-job 4-NO2PhN2+~Cl-_B3LYPG-6-31G_dp-CH-Scan-d09-49-n800
 OpenBabel11261919153D

 16 15  0  0  0  0  0  0  0  0999 V2000
   -1.2995    0.0790   -0.0587 C   0  0  0  0  0  0  0  0  0  0  0  0
   -2.7193    0.1291   -0.0563 N   0  0  0  0  0  0  0  0  0  0  0  0
   -3.6826    0.7280   -0.1035 N   0  0  0  0  0  0  0  0  0  0  0  0
   -0.6866    1.3215   -0.1701 C   0  0  0  0  0  0  0  0  0  0  0  0
    0.7130    1.2975   -0.1744 C   0  0  0  0  0  0  0  0  0  0  0  0
    1.3737    0.0749   -0.0703 C   0  0  0  0  0  0  0  0  0  0  0  0
    2.8586    0.0646   -0.0758 N   0  0  0  0  0  0  0  0  0  0  0  0
    3.4300    1.1449   -0.1818 O   0  0  0  0  0  0  0  0  0  0  0  0
    3.4153   -1.0263    0.0267 O   0  0  0  0  0  0  0  0  0  0  0  0
    0.7175   -1.1592    0.0407 C   0  0  0  0  0  0  0  0  0  0  0  0
   -0.6677   -1.1692    0.0476 C   0  0  0  0  0  0  0  0  0  0  0  0
   -1.6992    2.4656   -0.2655 H   0  0  0  0  0  0  0  0  0  0  0  0
    1.2979    2.2065   -0.2568 H   0  0  0  0  0  0  0  0  0  0  0  0
    1.2996   -2.0679    0.1182 H   0  0  0  0  0  0  0  0  0  0  0  0
   -1.2340   -2.0907    0.1312 H   0  0  0  0  0  0  0  0  0  0  0  0
   -3.1699    3.1801   -0.3214 Cl  0  0  0  0  0  0  0  0  0  0  0  0
  1  2  1  0  0  0  0
  1 11  2  0  0  0  0
  3  2  2  0  0  0  0
  4  1  1  0  0  0  0
  5  4  2  0  0  0  0
  5  6  1  0  0  0  0
  6 10  2  0  0  0  0
  7  6  1  0  0  0  0
  7  9  2  0  0  0  0
  8  7  2  0  0  0  0
 10 11  1  0  0  0  0
 10 14  1  0  0  0  0
 11 15  1  0  0  0  0
 13  5  1  0  0  0  0
 16 12  1  0  0  0  0
M  RAD  2   3   2   4   2
M  END
