Coordinates from ORCA-job 4-NO2PhN2+~Cl-_B3LYPG-6-31G_dp-CH-Scan-d09-49-n800
 OpenBabel11261919153D

 16 15  0  0  0  0  0  0  0  0999 V2000
   -1.0966    0.0491   -0.0505 C   0  0  0  0  0  0  0  0  0  0  0  0
   -2.4989    0.1467   -0.0522 N   0  0  0  0  0  0  0  0  0  0  0  0
   -3.6043    0.3092   -0.0613 N   0  0  0  0  0  0  0  0  0  0  0  0
   -0.4901    1.3010   -0.1550 C   0  0  0  0  0  0  0  0  0  0  0  0
    0.9292    1.1480   -0.1498 C   0  0  0  0  0  0  0  0  0  0  0  0
    1.5329   -0.0964   -0.0537 C   0  0  0  0  0  0  0  0  0  0  0  0
    3.0178   -0.1858   -0.0547 N   0  0  0  0  0  0  0  0  0  0  0  0
    3.6521    0.8596   -0.1584 O   0  0  0  0  0  0  0  0  0  0  0  0
    3.5184   -1.3059    0.0415 O   0  0  0  0  0  0  0  0  0  0  0  0
    0.8234   -1.3143    0.0488 C   0  0  0  0  0  0  0  0  0  0  0  0
   -0.5507   -1.2580    0.0523 C   0  0  0  0  0  0  0  0  0  0  0  0
   -2.8948    4.0331   -0.4086 H   0  0  0  0  0  0  0  0  0  0  0  0
    1.5775    2.0167   -0.2224 H   0  0  0  0  0  0  0  0  0  0  0  0
    1.3667   -2.2469    0.1215 H   0  0  0  0  0  0  0  0  0  0  0  0
   -1.1643   -2.1510    0.1288 H   0  0  0  0  0  0  0  0  0  0  0  0
   -4.1714    3.8733   -0.3968 Cl  0  0  0  0  0  0  0  0  0  0  0  0
  1 11  2  0  0  0  0
  2  1  1  0  0  0  0
  3  2  1  0  0  0  0
  4  5  2  0  0  0  0
  4  1  1  0  0  0  0
  5  6  1  0  0  0  0
  6 10  2  0  0  0  0
  7  6  1  0  0  0  0
  7  9  2  0  0  0  0
  8  7  2  0  0  0  0
 10 11  1  0  0  0  0
 10 14  1  0  0  0  0
 11 15  1  0  0  0  0
 12 16  1  0  0  0  0
 13  5  1  0  0  0  0
M  RAD  3   2   2   3   3   4   2
M  END
