Coordinates from ORCA-job 4-NO2PhN2+~Cl-_B3LYPG-6-31G_dp-CH-Scan-d09-49-n800
 OpenBabel11261919153D

 16 15  0  0  0  0  0  0  0  0999 V2000
   -1.0860    0.0481   -0.0512 C   0  0  0  0  0  0  0  0  0  0  0  0
   -2.4886    0.1515   -0.0530 N   0  0  0  0  0  0  0  0  0  0  0  0
   -3.5932    0.3195   -0.0639 N   0  0  0  0  0  0  0  0  0  0  0  0
   -0.4761    1.2992   -0.1566 C   0  0  0  0  0  0  0  0  0  0  0  0
    0.9428    1.1407   -0.1511 C   0  0  0  0  0  0  0  0  0  0  0  0
    1.5424   -0.1057   -0.0539 C   0  0  0  0  0  0  0  0  0  0  0  0
    3.0270   -0.2000   -0.0546 N   0  0  0  0  0  0  0  0  0  0  0  0
    3.6650    0.8436   -0.1543 O   0  0  0  0  0  0  0  0  0  0  0  0
    3.5241   -1.3213    0.0462 O   0  0  0  0  0  0  0  0  0  0  0  0
    0.8290   -1.3215    0.0494 C   0  0  0  0  0  0  0  0  0  0  0  0
   -0.5448   -1.2608    0.0526 C   0  0  0  0  0  0  0  0  0  0  0  0
   -2.9679    4.1212   -0.4168 H   0  0  0  0  0  0  0  0  0  0  0  0
    1.5943    2.0069   -0.2242 H   0  0  0  0  0  0  0  0  0  0  0  0
    1.3694   -2.2556    0.1228 H   0  0  0  0  0  0  0  0  0  0  0  0
   -1.1613   -2.1517    0.1297 H   0  0  0  0  0  0  0  0  0  0  0  0
   -4.2294    3.8644   -0.3914 Cl  0  0  0  0  0  0  0  0  0  0  0  0
  1 11  2  0  0  0  0
  2  1  1  0  0  0  0
  3  2  1  0  0  0  0
  4  5  2  0  0  0  0
  4  1  1  0  0  0  0
  5  6  1  0  0  0  0
  6 10  2  0  0  0  0
  7  6  1  0  0  0  0
  7  9  2  0  0  0  0
  8  7  2  0  0  0  0
 10 11  1  0  0  0  0
 10 14  1  0  0  0  0
 11 15  1  0  0  0  0
 12 16  1  0  0  0  0
 13  5  1  0  0  0  0
M  RAD  3   2   2   3   3   4   2
M  END
