Coordinates from ORCA-job 4-NO2PhN2+~Cl-_B3LYPG-6-31G_dp-CH-Scan-d09-49-n800
 OpenBabel11261919153D

 16 15  0  0  0  0  0  0  0  0999 V2000
   -1.1603   -0.0117   -0.0465 C   0  0  0  0  0  0  0  0  0  0  0  0
   -2.5623    0.0293   -0.0439 N   0  0  0  0  0  0  0  0  0  0  0  0
   -3.6739    0.1412   -0.0455 N   0  0  0  0  0  0  0  0  0  0  0  0
   -0.5994    1.2625   -0.1556 C   0  0  0  0  0  0  0  0  0  0  0  0
    0.8235    1.1683   -0.1553 C   0  0  0  0  0  0  0  0  0  0  0  0
    1.4754   -0.0516   -0.0590 C   0  0  0  0  0  0  0  0  0  0  0  0
    2.9630   -0.0820   -0.0659 N   0  0  0  0  0  0  0  0  0  0  0  0
    3.5539    0.9876   -0.1737 O   0  0  0  0  0  0  0  0  0  0  0  0
    3.5069   -1.1809    0.0378 O   0  0  0  0  0  0  0  0  0  0  0  0
    0.8149   -1.2959    0.0486 C   0  0  0  0  0  0  0  0  0  0  0  0
   -0.5602   -1.2950    0.0571 C   0  0  0  0  0  0  0  0  0  0  0  0
   -2.5738    3.6722   -0.3722 H   0  0  0  0  0  0  0  0  0  0  0  0
    1.4354    2.0623   -0.2321 H   0  0  0  0  0  0  0  0  0  0  0  0
    1.3950   -2.2061    0.1213 H   0  0  0  0  0  0  0  0  0  0  0  0
   -1.1370   -2.2117    0.1378 H   0  0  0  0  0  0  0  0  0  0  0  0
   -3.7542    4.1898   -0.4233 Cl  0  0  0  0  0  0  0  0  0  0  0  0
  1  2  1  0  0  0  0
  1 11  2  0  0  0  0
  3  2  1  0  0  0  0
  4  5  2  0  0  0  0
  4  1  1  0  0  0  0
  5  6  1  0  0  0  0
  6 10  2  0  0  0  0
  7  6  1  0  0  0  0
  7  9  2  0  0  0  0
  8  7  2  0  0  0  0
 10 11  1  0  0  0  0
 10 14  1  0  0  0  0
 11 15  1  0  0  0  0
 13  5  1  0  0  0  0
 16 12  1  0  0  0  0
M  RAD  3   2   2   3   3   4   2
M  END
