Coordinates from ORCA-job 4-NO2PhN2+~Cl-_B3LYPG-6-31G_dp-CH-Scan-d09-49-n800
 OpenBabel11261919153D

 16 15  0  0  0  0  0  0  0  0999 V2000
   -1.1314   -0.0004   -0.0407 C   0  0  0  0  0  0  0  0  0  0  0  0
   -2.5340    0.0610   -0.0368 N   0  0  0  0  0  0  0  0  0  0  0  0
   -3.6436    0.1922   -0.0411 N   0  0  0  0  0  0  0  0  0  0  0  0
   -0.5569    1.2678   -0.1429 C   0  0  0  0  0  0  0  0  0  0  0  0
    0.8654    1.1536   -0.1445 C   0  0  0  0  0  0  0  0  0  0  0  0
    1.5019   -0.0750   -0.0562 C   0  0  0  0  0  0  0  0  0  0  0  0
    2.9887   -0.1248   -0.0649 N   0  0  0  0  0  0  0  0  0  0  0  0
    3.5940    0.9375   -0.1675 O   0  0  0  0  0  0  0  0  0  0  0  0
    3.5189   -1.2311    0.0321 O   0  0  0  0  0  0  0  0  0  0  0  0
    0.8255   -1.3117    0.0449 C   0  0  0  0  0  0  0  0  0  0  0  0
   -0.5495   -1.2925    0.0548 C   0  0  0  0  0  0  0  0  0  0  0  0
   -2.7099    3.8591   -0.3904 H   0  0  0  0  0  0  0  0  0  0  0  0
    1.4896    2.0397   -0.2164 H   0  0  0  0  0  0  0  0  0  0  0  0
    1.3938   -2.2296    0.1117 H   0  0  0  0  0  0  0  0  0  0  0  0
   -1.1386   -2.2018    0.1309 H   0  0  0  0  0  0  0  0  0  0  0  0
   -3.9669    4.1345   -0.4434 Cl  0  0  0  0  0  0  0  0  0  0  0  0
  1  2  1  0  0  0  0
  1 11  2  0  0  0  0
  3  2  1  0  0  0  0
  4  1  1  0  0  0  0
  5  4  2  0  0  0  0
  5  6  1  0  0  0  0
  6 10  2  0  0  0  0
  7  6  1  0  0  0  0
  7  9  2  0  0  0  0
  8  7  2  0  0  0  0
 10 11  1  0  0  0  0
 10 14  1  0  0  0  0
 11 15  1  0  0  0  0
 13  5  1  0  0  0  0
 16 12  1  0  0  0  0
M  RAD  3   2   2   3   3   4   2
M  END
