Coordinates from ORCA-job 4-NO2PhN2+~Cl-_B3LYPG-6-31G_dp-CH-Scan-d09-49-n800
 OpenBabel11261919153D

 16 15  0  0  0  0  0  0  0  0999 V2000
   -1.0019    0.0665   -0.0692 C   0  0  0  0  0  0  0  0  0  0  0  0
   -2.4009    0.2171   -0.0823 N   0  0  0  0  0  0  0  0  0  0  0  0
   -3.4993    0.4218   -0.1005 N   0  0  0  0  0  0  0  0  0  0  0  0
   -0.3522    1.2945   -0.1854 C   0  0  0  0  0  0  0  0  0  0  0  0
    1.0614    1.0902   -0.1665 C   0  0  0  0  0  0  0  0  0  0  0  0
    1.6192   -0.1734   -0.0473 C   0  0  0  0  0  0  0  0  0  0  0  0
    3.0997   -0.3162   -0.0328 N   0  0  0  0  0  0  0  0  0  0  0  0
    3.7729    0.7045   -0.1389 O   0  0  0  0  0  0  0  0  0  0  0  0
    3.5592   -1.4534    0.0710 O   0  0  0  0  0  0  0  0  0  0  0  0
    0.8653   -1.3641    0.0649 C   0  0  0  0  0  0  0  0  0  0  0  0
   -0.5058   -1.2585    0.0554 C   0  0  0  0  0  0  0  0  0  0  0  0
   -3.6015    4.6108   -0.4383 H   0  0  0  0  0  0  0  0  0  0  0  0
    1.7410    1.9340   -0.2462 H   0  0  0  0  0  0  0  0  0  0  0  0
    1.3741   -2.3144    0.1545 H   0  0  0  0  0  0  0  0  0  0  0  0
   -1.1518   -2.1279    0.1378 H   0  0  0  0  0  0  0  0  0  0  0  0
   -4.6324    3.8468   -0.3465 Cl  0  0  0  0  0  0  0  0  0  0  0  0
  1 11  2  0  0  0  0
  2  1  1  0  0  0  0
  3  2  1  0  0  0  0
  4  5  2  0  0  0  0
  4  1  1  0  0  0  0
  5  6  1  0  0  0  0
  6  7  1  0  0  0  0
  6 10  2  0  0  0  0
  7  9  2  0  0  0  0
  8  7  2  0  0  0  0
 10 14  1  0  0  0  0
 11 10  1  0  0  0  0
 11 15  1  0  0  0  0
 12 16  1  0  0  0  0
 13  5  1  0  0  0  0
M  RAD  3   2   2   3   3   4   2
M  END
