Coordinates from ORCA-job 4-NO2PhN2+~Cl-_B3LYPG-6-31G_dp-CH-Scan-d09-49-n800
 OpenBabel11261919153D

 16 15  0  0  0  0  0  0  0  0999 V2000
   -1.0974    0.0491   -0.0507 C   0  0  0  0  0  0  0  0  0  0  0  0
   -2.4999    0.1461   -0.0517 N   0  0  0  0  0  0  0  0  0  0  0  0
   -3.6054    0.3080   -0.0603 N   0  0  0  0  0  0  0  0  0  0  0  0
   -0.4910    1.3013   -0.1557 C   0  0  0  0  0  0  0  0  0  0  0  0
    0.9282    1.1486   -0.1512 C   0  0  0  0  0  0  0  0  0  0  0  0
    1.5322   -0.0957   -0.0551 C   0  0  0  0  0  0  0  0  0  0  0  0
    3.0170   -0.1849   -0.0569 N   0  0  0  0  0  0  0  0  0  0  0  0
    3.6512    0.8611   -0.1555 O   0  0  0  0  0  0  0  0  0  0  0  0
    3.5179   -1.3044    0.0448 O   0  0  0  0  0  0  0  0  0  0  0  0
    0.8229   -1.3139    0.0480 C   0  0  0  0  0  0  0  0  0  0  0  0
   -0.5511   -1.2579    0.0522 C   0  0  0  0  0  0  0  0  0  0  0  0
   -2.8889    4.0262   -0.4075 H   0  0  0  0  0  0  0  0  0  0  0  0
    1.5763    2.0174   -0.2243 H   0  0  0  0  0  0  0  0  0  0  0  0
    1.3665   -2.2463    0.1207 H   0  0  0  0  0  0  0  0  0  0  0  0
   -1.1644   -2.1510    0.1291 H   0  0  0  0  0  0  0  0  0  0  0  0
   -4.1671    3.8747   -0.3962 Cl  0  0  0  0  0  0  0  0  0  0  0  0
  1 11  2  0  0  0  0
  2  1  1  0  0  0  0
  3  2  1  0  0  0  0
  4  5  2  0  0  0  0
  4  1  1  0  0  0  0
  5  6  1  0  0  0  0
  6 10  2  0  0  0  0
  7  6  1  0  0  0  0
  7  9  2  0  0  0  0
  8  7  2  0  0  0  0
 10 11  1  0  0  0  0
 10 14  1  0  0  0  0
 11 15  1  0  0  0  0
 12 16  1  0  0  0  0
 13  5  1  0  0  0  0
M  RAD  3   2   2   3   3   4   2
M  END
