Coordinates from ORCA-job 4-NO2PhN2+~Cl-_B3LYPG-6-31G_dp-CH-Scan-d09-49-n800
 OpenBabel11261919153D

 16 15  0  0  0  0  0  0  0  0999 V2000
   -1.1434   -0.0029   -0.0413 C   0  0  0  0  0  0  0  0  0  0  0  0
   -2.5457    0.0515   -0.0372 N   0  0  0  0  0  0  0  0  0  0  0  0
   -3.6561    0.1748   -0.0397 N   0  0  0  0  0  0  0  0  0  0  0  0
   -0.5737    1.2678   -0.1446 C   0  0  0  0  0  0  0  0  0  0  0  0
    0.8488    1.1606   -0.1463 C   0  0  0  0  0  0  0  0  0  0  0  0
    1.4909   -0.0650   -0.0573 C   0  0  0  0  0  0  0  0  0  0  0  0
    2.9780   -0.1079   -0.0662 N   0  0  0  0  0  0  0  0  0  0  0  0
    3.5781    0.9572   -0.1693 O   0  0  0  0  0  0  0  0  0  0  0  0
    3.5131   -1.2117    0.0317 O   0  0  0  0  0  0  0  0  0  0  0  0
    0.8202   -1.3046    0.0449 C   0  0  0  0  0  0  0  0  0  0  0  0
   -0.5548   -1.2919    0.0550 C   0  0  0  0  0  0  0  0  0  0  0  0
   -2.6471    3.7825   -0.3841 H   0  0  0  0  0  0  0  0  0  0  0  0
    1.4687    2.0496   -0.2191 H   0  0  0  0  0  0  0  0  0  0  0  0
    1.3928   -2.2199    0.1122 H   0  0  0  0  0  0  0  0  0  0  0  0
   -1.1395   -2.2040    0.1318 H   0  0  0  0  0  0  0  0  0  0  0  0
   -3.8832    4.1423   -0.4409 Cl  0  0  0  0  0  0  0  0  0  0  0  0
  1  2  1  0  0  0  0
  1 11  2  0  0  0  0
  3  2  1  0  0  0  0
  4  1  1  0  0  0  0
  5  4  2  0  0  0  0
  5  6  1  0  0  0  0
  6 10  2  0  0  0  0
  7  6  1  0  0  0  0
  7  9  2  0  0  0  0
  8  7  2  0  0  0  0
 10 11  1  0  0  0  0
 10 14  1  0  0  0  0
 11 15  1  0  0  0  0
 13  5  1  0  0  0  0
 16 12  1  0  0  0  0
M  RAD  3   2   2   3   3   4   2
M  END
