Coordinates from ORCA-job 4-NO2PhN2+~Cl-_B3LYPG-6-31G_dp-CH-Scan-d09-49-n800
 OpenBabel11261919153D

 16 15  0  0  0  0  0  0  0  0999 V2000
   -1.1132    0.0134   -0.0435 C   0  0  0  0  0  0  0  0  0  0  0  0
   -2.5160    0.0897   -0.0421 N   0  0  0  0  0  0  0  0  0  0  0  0
   -3.6239    0.2340   -0.0502 N   0  0  0  0  0  0  0  0  0  0  0  0
   -0.5267    1.2755   -0.1460 C   0  0  0  0  0  0  0  0  0  0  0  0
    0.8946    1.1466   -0.1446 C   0  0  0  0  0  0  0  0  0  0  0  0
    1.5186   -0.0882   -0.0537 C   0  0  0  0  0  0  0  0  0  0  0  0
    3.0048   -0.1532   -0.0590 N   0  0  0  0  0  0  0  0  0  0  0  0
    3.6213    0.9023   -0.1666 O   0  0  0  0  0  0  0  0  0  0  0  0
    3.5236   -1.2652    0.0337 O   0  0  0  0  0  0  0  0  0  0  0  0
    0.8294   -1.3179    0.0474 C   0  0  0  0  0  0  0  0  0  0  0  0
   -0.5453   -1.2847    0.0545 C   0  0  0  0  0  0  0  0  0  0  0  0
   -2.8056    3.9571   -0.4010 H   0  0  0  0  0  0  0  0  0  0  0  0
    1.5281    2.0261   -0.2162 H   0  0  0  0  0  0  0  0  0  0  0  0
    1.3884   -2.2415    0.1162 H   0  0  0  0  0  0  0  0  0  0  0  0
   -1.1438   -2.1879    0.1304 H   0  0  0  0  0  0  0  0  0  0  0  0
   -4.0873    4.0725   -0.4296 Cl  0  0  0  0  0  0  0  0  0  0  0  0
  1  2  1  0  0  0  0
  1 11  2  0  0  0  0
  3  2  1  0  0  0  0
  4  5  2  0  0  0  0
  4  1  1  0  0  0  0
  5  6  1  0  0  0  0
  6 10  2  0  0  0  0
  7  6  1  0  0  0  0
  7  9  2  0  0  0  0
  8  7  2  0  0  0  0
 10 11  1  0  0  0  0
 10 14  1  0  0  0  0
 11 15  1  0  0  0  0
 13  5  1  0  0  0  0
 16 12  1  0  0  0  0
M  RAD  3   2   2   3   3   4   2
M  END
