Coordinates from ORCA-job 4-NO2PhN2+~Cl-_B3LYPG-6-31G_dp-CH-Scan-d09-49-n800
 OpenBabel11261919153D

 16 15  0  0  0  0  0  0  0  0999 V2000
   -1.3259    0.1218   -0.0621 C   0  0  0  0  0  0  0  0  0  0  0  0
   -2.7391    0.1154   -0.0552 N   0  0  0  0  0  0  0  0  0  0  0  0
   -3.6899    0.7748   -0.1083 N   0  0  0  0  0  0  0  0  0  0  0  0
   -0.6440    1.3341   -0.1714 C   0  0  0  0  0  0  0  0  0  0  0  0
    0.7457    1.3104   -0.1757 C   0  0  0  0  0  0  0  0  0  0  0  0
    1.3886    0.0767   -0.0705 C   0  0  0  0  0  0  0  0  0  0  0  0
    2.8705    0.0472   -0.0744 N   0  0  0  0  0  0  0  0  0  0  0  0
    3.4548    1.1213   -0.1784 O   0  0  0  0  0  0  0  0  0  0  0  0
    3.4122   -1.0506    0.0270 O   0  0  0  0  0  0  0  0  0  0  0  0
    0.7067   -1.1375    0.0391 C   0  0  0  0  0  0  0  0  0  0  0  0
   -0.6815   -1.1190    0.0437 C   0  0  0  0  0  0  0  0  0  0  0  0
   -1.4706    2.4608   -0.2664 H   0  0  0  0  0  0  0  0  0  0  0  0
    1.3348    2.2153   -0.2579 H   0  0  0  0  0  0  0  0  0  0  0  0
    1.2678   -2.0595    0.1178 H   0  0  0  0  0  0  0  0  0  0  0  0
   -1.2604   -2.0322    0.1267 H   0  0  0  0  0  0  0  0  0  0  0  0
   -3.4228    2.9993   -0.3042 Cl  0  0  0  0  0  0  0  0  0  0  0  0
  1  2  1  0  0  0  0
  1 11  2  0  0  0  0
  3  2  2  0  0  0  0
  4  1  1  0  0  0  0
  5  4  2  0  0  0  0
  5  6  1  0  0  0  0
  6 10  2  0  0  0  0
  7  6  1  0  0  0  0
  7  9  2  0  0  0  0
  8  7  2  0  0  0  0
 10 11  1  0  0  0  0
 10 14  1  0  0  0  0
 11 15  1  0  0  0  0
 12  4  1  0  0  0  0
 13  5  1  0  0  0  0
M  RAD  2   3   2  16   2
M  END
