Coordinates from ORCA-job 4-NO2PhN2+~Cl-_B3LYPG-6-31G_dp-CH-Scan-d09-49-n800
 OpenBabel11261919153D

 16 15  0  0  0  0  0  0  0  0999 V2000
   -1.1777   -0.0038   -0.0491 C   0  0  0  0  0  0  0  0  0  0  0  0
   -2.5789    0.0324   -0.0457 N   0  0  0  0  0  0  0  0  0  0  0  0
   -3.6908    0.1392   -0.0466 N   0  0  0  0  0  0  0  0  0  0  0  0
   -0.6188    1.2715   -0.1606 C   0  0  0  0  0  0  0  0  0  0  0  0
    0.8038    1.1824   -0.1608 C   0  0  0  0  0  0  0  0  0  0  0  0
    1.4596   -0.0353   -0.0624 C   0  0  0  0  0  0  0  0  0  0  0  0
    2.9473   -0.0609   -0.0697 N   0  0  0  0  0  0  0  0  0  0  0  0
    3.5345    1.0113   -0.1718 O   0  0  0  0  0  0  0  0  0  0  0  0
    3.4945   -1.1572    0.0423 O   0  0  0  0  0  0  0  0  0  0  0  0
    0.8029   -1.2811    0.0477 C   0  0  0  0  0  0  0  0  0  0  0  0
   -0.5724   -1.2844    0.0564 C   0  0  0  0  0  0  0  0  0  0  0  0
   -2.4766    3.5511   -0.3606 H   0  0  0  0  0  0  0  0  0  0  0  0
    1.4125    2.0784   -0.2396 H   0  0  0  0  0  0  0  0  0  0  0  0
    1.3856   -2.1894    0.1218 H   0  0  0  0  0  0  0  0  0  0  0  0
   -1.1461   -2.2028    0.1389 H   0  0  0  0  0  0  0  0  0  0  0  0
   -3.6324    4.1270   -0.4106 Cl  0  0  0  0  0  0  0  0  0  0  0  0
  1  2  1  0  0  0  0
  1 11  2  0  0  0  0
  3  2  1  0  0  0  0
  4  1  1  0  0  0  0
  5  4  2  0  0  0  0
  5  6  1  0  0  0  0
  6 10  2  0  0  0  0
  7  6  1  0  0  0  0
  7  9  2  0  0  0  0
  8  7  2  0  0  0  0
 10 11  1  0  0  0  0
 10 14  1  0  0  0  0
 11 15  1  0  0  0  0
 13  5  1  0  0  0  0
 16 12  1  0  0  0  0
M  RAD  3   2   2   3   3   4   2
M  END
