Coordinates from ORCA-job 4-NO2PhN2+~Cl-_B3LYPG-6-31G_dp-CH-Scan-d09-49-n800
 OpenBabel11261919153D

 16 15  0  0  0  0  0  0  0  0999 V2000
   -1.1834    0.0010   -0.0490 C   0  0  0  0  0  0  0  0  0  0  0  0
   -2.5844    0.0361   -0.0461 N   0  0  0  0  0  0  0  0  0  0  0  0
   -3.6964    0.1417   -0.0499 N   0  0  0  0  0  0  0  0  0  0  0  0
   -0.6243    1.2766   -0.1600 C   0  0  0  0  0  0  0  0  0  0  0  0
    0.7981    1.1885   -0.1597 C   0  0  0  0  0  0  0  0  0  0  0  0
    1.4542   -0.0290   -0.0611 C   0  0  0  0  0  0  0  0  0  0  0  0
    2.9419   -0.0539   -0.0677 N   0  0  0  0  0  0  0  0  0  0  0  0
    3.5286    1.0178   -0.1763 O   0  0  0  0  0  0  0  0  0  0  0  0
    3.4895   -1.1508    0.0371 O   0  0  0  0  0  0  0  0  0  0  0  0
    0.7980   -1.2751    0.0483 C   0  0  0  0  0  0  0  0  0  0  0  0
   -0.5772   -1.2791    0.0565 C   0  0  0  0  0  0  0  0  0  0  0  0
   -2.4431    3.5041   -0.3566 H   0  0  0  0  0  0  0  0  0  0  0  0
    1.4063    2.0849   -0.2380 H   0  0  0  0  0  0  0  0  0  0  0  0
    1.3810   -2.1832    0.1225 H   0  0  0  0  0  0  0  0  0  0  0  0
   -1.1504   -2.1979    0.1385 H   0  0  0  0  0  0  0  0  0  0  0  0
   -3.5914    4.0968   -0.4089 Cl  0  0  0  0  0  0  0  0  0  0  0  0
  1  2  1  0  0  0  0
  1 11  2  0  0  0  0
  3  2  1  0  0  0  0
  4  5  2  0  0  0  0
  4  1  1  0  0  0  0
  5  6  1  0  0  0  0
  6 10  2  0  0  0  0
  7  6  1  0  0  0  0
  7  9  2  0  0  0  0
  8  7  2  0  0  0  0
 10 11  1  0  0  0  0
 10 14  1  0  0  0  0
 11 15  1  0  0  0  0
 13  5  1  0  0  0  0
 16 12  1  0  0  0  0
M  RAD  3   2   2   3   3   4   2
M  END
