Coordinates from ORCA-job 4-NO2PhN2+~Cl-_B3LYPG-6-31G_dp-CH-Scan-d09-49-n800
 OpenBabel11261919153D

 16 15  0  0  0  0  0  0  0  0999 V2000
   -1.1885    0.0057   -0.0502 C   0  0  0  0  0  0  0  0  0  0  0  0
   -2.5895    0.0406   -0.0473 N   0  0  0  0  0  0  0  0  0  0  0  0
   -3.7014    0.1462   -0.0507 N   0  0  0  0  0  0  0  0  0  0  0  0
   -0.6289    1.2811   -0.1624 C   0  0  0  0  0  0  0  0  0  0  0  0
    0.7932    1.1938   -0.1622 C   0  0  0  0  0  0  0  0  0  0  0  0
    1.4496   -0.0236   -0.0628 C   0  0  0  0  0  0  0  0  0  0  0  0
    2.9373   -0.0483   -0.0697 N   0  0  0  0  0  0  0  0  0  0  0  0
    3.5236    1.0240   -0.1746 O   0  0  0  0  0  0  0  0  0  0  0  0
    3.4850   -1.1445    0.0402 O   0  0  0  0  0  0  0  0  0  0  0  0
    0.7935   -1.2695    0.0478 C   0  0  0  0  0  0  0  0  0  0  0  0
   -0.5818   -1.2739    0.0562 C   0  0  0  0  0  0  0  0  0  0  0  0
   -2.4127    3.4601   -0.3516 H   0  0  0  0  0  0  0  0  0  0  0  0
    1.4010    2.0903   -0.2415 H   0  0  0  0  0  0  0  0  0  0  0  0
    1.3766   -2.1775    0.1227 H   0  0  0  0  0  0  0  0  0  0  0  0
   -1.1548   -2.1927    0.1391 H   0  0  0  0  0  0  0  0  0  0  0  0
   -3.5551    4.0666   -0.4032 Cl  0  0  0  0  0  0  0  0  0  0  0  0
  1  2  1  0  0  0  0
  1 11  2  0  0  0  0
  3  2  1  0  0  0  0
  4  5  2  0  0  0  0
  4  1  1  0  0  0  0
  5  6  1  0  0  0  0
  6 10  2  0  0  0  0
  7  6  1  0  0  0  0
  7  9  2  0  0  0  0
  8  7  2  0  0  0  0
 10 11  1  0  0  0  0
 10 14  1  0  0  0  0
 11 15  1  0  0  0  0
 13  5  1  0  0  0  0
 16 12  1  0  0  0  0
M  RAD  3   2   2   3   3   4   2
M  END
