Coordinates from ORCA-job 4-NO2PhN2+~Cl-_B3LYPG-6-31G_dp-CH-Scan-d09-49-n800
 OpenBabel11261919153D

 16 15  0  0  0  0  0  0  0  0999 V2000
   -1.0245    0.0574   -0.0645 C   0  0  0  0  0  0  0  0  0  0  0  0
   -2.4249    0.1940   -0.0742 N   0  0  0  0  0  0  0  0  0  0  0  0
   -3.5251    0.3891   -0.0871 N   0  0  0  0  0  0  0  0  0  0  0  0
   -0.3874    1.2924   -0.1777 C   0  0  0  0  0  0  0  0  0  0  0  0
    1.0281    1.1023   -0.1630 C   0  0  0  0  0  0  0  0  0  0  0  0
    1.5989   -0.1561   -0.0503 C   0  0  0  0  0  0  0  0  0  0  0  0
    3.0808   -0.2841   -0.0406 N   0  0  0  0  0  0  0  0  0  0  0  0
    3.7433    0.7442   -0.1402 O   0  0  0  0  0  0  0  0  0  0  0  0
    3.5521   -1.4159    0.0684 O   0  0  0  0  0  0  0  0  0  0  0  0
    0.8574   -1.3547    0.0597 C   0  0  0  0  0  0  0  0  0  0  0  0
   -0.5147   -1.2629    0.0542 C   0  0  0  0  0  0  0  0  0  0  0  0
   -3.4240    4.4997   -0.4385 H   0  0  0  0  0  0  0  0  0  0  0  0
    1.6991    1.9531   -0.2410 H   0  0  0  0  0  0  0  0  0  0  0  0
    1.3760   -2.3002    0.1446 H   0  0  0  0  0  0  0  0  0  0  0  0
   -1.1518   -2.1389    0.1352 H   0  0  0  0  0  0  0  0  0  0  0  0
   -4.5364    3.8589   -0.3552 Cl  0  0  0  0  0  0  0  0  0  0  0  0
  1 11  2  0  0  0  0
  2  1  1  0  0  0  0
  3  2  1  0  0  0  0
  4  5  2  0  0  0  0
  4  1  1  0  0  0  0
  5  6  1  0  0  0  0
  6  7  1  0  0  0  0
  6 10  2  0  0  0  0
  7  9  2  0  0  0  0
  8  7  2  0  0  0  0
 10 14  1  0  0  0  0
 11 10  1  0  0  0  0
 11 15  1  0  0  0  0
 12 16  1  0  0  0  0
 13  5  1  0  0  0  0
M  RAD  3   2   2   3   3   4   2
M  END
