Coordinates from ORCA-job 4-NO2PhN2+~Cl-_B3LYPG-6-31G_dp-CH-Scan-d09-49-n800
 OpenBabel11261919153D

 16 15  0  0  0  0  0  0  0  0999 V2000
   -1.0439    0.0521   -0.0583 C   0  0  0  0  0  0  0  0  0  0  0  0
   -2.4453    0.1768   -0.0647 N   0  0  0  0  0  0  0  0  0  0  0  0
   -3.5472    0.3619   -0.0765 N   0  0  0  0  0  0  0  0  0  0  0  0
   -0.4166    1.2926   -0.1678 C   0  0  0  0  0  0  0  0  0  0  0  0
    1.0003    1.1136   -0.1570 C   0  0  0  0  0  0  0  0  0  0  0  0
    1.5813   -0.1407   -0.0516 C   0  0  0  0  0  0  0  0  0  0  0  0
    3.0643   -0.2569   -0.0465 N   0  0  0  0  0  0  0  0  0  0  0  0
    3.7182    0.7769   -0.1453 O   0  0  0  0  0  0  0  0  0  0  0  0
    3.5447   -1.3850    0.0601 O   0  0  0  0  0  0  0  0  0  0  0  0
    0.8496   -1.3455    0.0552 C   0  0  0  0  0  0  0  0  0  0  0  0
   -0.5231   -1.2645    0.0535 C   0  0  0  0  0  0  0  0  0  0  0  0
   -3.2746    4.3916   -0.4353 H   0  0  0  0  0  0  0  0  0  0  0  0
    1.6644    1.9701   -0.2326 H   0  0  0  0  0  0  0  0  0  0  0  0
    1.3759   -2.2872    0.1349 H   0  0  0  0  0  0  0  0  0  0  0  0
   -1.1531   -2.1459    0.1327 H   0  0  0  0  0  0  0  0  0  0  0  0
   -4.4480    3.8683   -0.3712 Cl  0  0  0  0  0  0  0  0  0  0  0  0
  1 11  2  0  0  0  0
  2  1  1  0  0  0  0
  3  2  1  0  0  0  0
  4  5  2  0  0  0  0
  4  1  1  0  0  0  0
  5  6  1  0  0  0  0
  6  7  1  0  0  0  0
  6 10  2  0  0  0  0
  7  9  2  0  0  0  0
  8  7  2  0  0  0  0
 10 14  1  0  0  0  0
 11 10  1  0  0  0  0
 11 15  1  0  0  0  0
 12 16  1  0  0  0  0
 13  5  1  0  0  0  0
M  RAD  3   2   2   3   3   4   2
M  END
