Coordinates from ORCA-job 4-NO2PhN2+~Cl-_B3LYPG-6-31G_dp-CH-Scan-d09-49-n800
 OpenBabel11261919153D

 16 15  0  0  0  0  0  0  0  0999 V2000
   -1.1245    0.0028   -0.0415 C   0  0  0  0  0  0  0  0  0  0  0  0
   -2.5272    0.0697   -0.0383 N   0  0  0  0  0  0  0  0  0  0  0  0
   -3.6362    0.2059   -0.0416 N   0  0  0  0  0  0  0  0  0  0  0  0
   -0.5464    1.2693   -0.1437 C   0  0  0  0  0  0  0  0  0  0  0  0
    0.8756    1.1502   -0.1445 C   0  0  0  0  0  0  0  0  0  0  0  0
    1.5081   -0.0804   -0.0558 C   0  0  0  0  0  0  0  0  0  0  0  0
    2.9948   -0.1351   -0.0636 N   0  0  0  0  0  0  0  0  0  0  0  0
    3.6037    0.9253   -0.1657 O   0  0  0  0  0  0  0  0  0  0  0  0
    3.5214   -1.2430    0.0338 O   0  0  0  0  0  0  0  0  0  0  0  0
    0.8277   -1.3149    0.0452 C   0  0  0  0  0  0  0  0  0  0  0  0
   -0.5472   -1.2912    0.0544 C   0  0  0  0  0  0  0  0  0  0  0  0
   -2.7456    3.9001   -0.3955 H   0  0  0  0  0  0  0  0  0  0  0  0
    1.5029    2.0342   -0.2162 H   0  0  0  0  0  0  0  0  0  0  0  0
    1.3931   -2.2346    0.1123 H   0  0  0  0  0  0  0  0  0  0  0  0
   -1.1394   -2.1986    0.1302 H   0  0  0  0  0  0  0  0  0  0  0  0
   -4.0138    4.1188   -0.4398 Cl  0  0  0  0  0  0  0  0  0  0  0  0
  1  2  1  0  0  0  0
  1 11  2  0  0  0  0
  3  2  1  0  0  0  0
  4  1  1  0  0  0  0
  5  4  2  0  0  0  0
  5  6  1  0  0  0  0
  6 10  2  0  0  0  0
  7  6  1  0  0  0  0
  7  9  2  0  0  0  0
  8  7  2  0  0  0  0
 10 11  1  0  0  0  0
 10 14  1  0  0  0  0
 11 15  1  0  0  0  0
 13  5  1  0  0  0  0
 16 12  1  0  0  0  0
M  RAD  3   2   2   3   3   4   2
M  END
