Coordinates from ORCA-job 4-NO2PhN2+~Cl-_B3LYPG-6-31G_dp-CH-Scan-d09-49-n800
 OpenBabel11261919153D

 16 16  0  0  0  0  0  0  0  0999 V2000
   -1.3365    0.1462   -0.0647 C   0  0  0  0  0  0  0  0  0  0  0  0
   -2.7473    0.1077   -0.0558 N   0  0  0  0  0  0  0  0  0  0  0  0
   -3.7095    0.7645   -0.1085 N   0  0  0  0  0  0  0  0  0  0  0  0
   -0.6335    1.3505   -0.1733 C   0  0  0  0  0  0  0  0  0  0  0  0
    0.7553    1.3158   -0.1765 C   0  0  0  0  0  0  0  0  0  0  0  0
    1.3921    0.0795   -0.0706 C   0  0  0  0  0  0  0  0  0  0  0  0
    2.8727    0.0423   -0.0735 N   0  0  0  0  0  0  0  0  0  0  0  0
    3.4628    1.1133   -0.1788 O   0  0  0  0  0  0  0  0  0  0  0  0
    3.4080   -1.0585    0.0279 O   0  0  0  0  0  0  0  0  0  0  0  0
    0.6997   -1.1268    0.0387 C   0  0  0  0  0  0  0  0  0  0  0  0
   -0.6885   -1.0935    0.0415 C   0  0  0  0  0  0  0  0  0  0  0  0
   -1.3456    2.4528   -0.2661 H   0  0  0  0  0  0  0  0  0  0  0  0
    1.3481    2.2180   -0.2586 H   0  0  0  0  0  0  0  0  0  0  0  0
    1.2509   -2.0548    0.1186 H   0  0  0  0  0  0  0  0  0  0  0  0
   -1.2747   -2.0020    0.1242 H   0  0  0  0  0  0  0  0  0  0  0  0
   -3.5072    2.9236   -0.2948 Cl  0  0  0  0  0  0  0  0  0  0  0  0
  1  2  1  0  0  0  0
  1 11  2  0  0  0  0
  3  2  2  0  0  0  0
  4  1  1  0  0  0  0
  5  4  2  0  0  0  0
  5  6  1  0  0  0  0
  6 10  2  0  0  0  0
  7  6  1  0  0  0  0
  7  9  2  0  0  0  0
  8  7  2  0  0  0  0
 10 11  1  0  0  0  0
 10 14  1  0  0  0  0
 11 15  1  0  0  0  0
 12  4  1  0  0  0  0
 13  5  1  0  0  0  0
 16  3  1  0  0  0  0
M  END
