Coordinates from ORCA-job 4-NO2PhN2+~Cl-_B3LYPG-6-31G_dp-CH-Scan-d09-49-n800
 OpenBabel11261919153D

 16 15  0  0  0  0  0  0  0  0999 V2000
   -1.0777    0.0497   -0.0532 C   0  0  0  0  0  0  0  0  0  0  0  0
   -2.4801    0.1568   -0.0564 N   0  0  0  0  0  0  0  0  0  0  0  0
   -3.5843    0.3274   -0.0656 N   0  0  0  0  0  0  0  0  0  0  0  0
   -0.4640    1.2981   -0.1595 C   0  0  0  0  0  0  0  0  0  0  0  0
    0.9545    1.1354   -0.1526 C   0  0  0  0  0  0  0  0  0  0  0  0
    1.5502   -0.1126   -0.0534 C   0  0  0  0  0  0  0  0  0  0  0  0
    3.0344   -0.2116   -0.0525 N   0  0  0  0  0  0  0  0  0  0  0  0
    3.6759    0.8298   -0.1524 O   0  0  0  0  0  0  0  0  0  0  0  0
    3.5279   -1.3344    0.0496 O   0  0  0  0  0  0  0  0  0  0  0  0
    0.8328   -1.3260    0.0506 C   0  0  0  0  0  0  0  0  0  0  0  0
   -0.5408   -1.2609    0.0525 C   0  0  0  0  0  0  0  0  0  0  0  0
   -3.0283    4.1829   -0.4223 H   0  0  0  0  0  0  0  0  0  0  0  0
    1.6087    1.9997   -0.2262 H   0  0  0  0  0  0  0  0  0  0  0  0
    1.3702   -2.2619    0.1256 H   0  0  0  0  0  0  0  0  0  0  0  0
   -1.1602   -2.1498    0.1300 H   0  0  0  0  0  0  0  0  0  0  0  0
   -4.2724    3.8560   -0.3846 Cl  0  0  0  0  0  0  0  0  0  0  0  0
  1 11  2  0  0  0  0
  2  1  1  0  0  0  0
  3  2  1  0  0  0  0
  4  5  2  0  0  0  0
  4  1  1  0  0  0  0
  5  6  1  0  0  0  0
  6  7  1  0  0  0  0
  6 10  2  0  0  0  0
  7  9  2  0  0  0  0
  8  7  2  0  0  0  0
 10 11  1  0  0  0  0
 10 14  1  0  0  0  0
 11 15  1  0  0  0  0
 12 16  1  0  0  0  0
 13  5  1  0  0  0  0
M  RAD  3   2   2   3   3   4   2
M  END
