Coordinates from ORCA-job 4-NO2PhN2+~Cl-_B3LYPG-6-31G_dp-CH-Scan-d09-49-n800
 OpenBabel11261919153D

 16 15  0  0  0  0  0  0  0  0999 V2000
   -0.9770    0.0775   -0.0647 C   0  0  0  0  0  0  0  0  0  0  0  0
   -2.3743    0.2442   -0.0743 N   0  0  0  0  0  0  0  0  0  0  0  0
   -3.4705    0.4607   -0.0892 N   0  0  0  0  0  0  0  0  0  0  0  0
   -0.3137    1.2984   -0.1772 C   0  0  0  0  0  0  0  0  0  0  0  0
    1.0976    1.0780   -0.1615 C   0  0  0  0  0  0  0  0  0  0  0  0
    1.6411   -0.1922   -0.0476 C   0  0  0  0  0  0  0  0  0  0  0  0
    3.1200   -0.3520   -0.0356 N   0  0  0  0  0  0  0  0  0  0  0  0
    3.8047    0.6623   -0.1286 O   0  0  0  0  0  0  0  0  0  0  0  0
    3.5667   -1.4943    0.0676 O   0  0  0  0  0  0  0  0  0  0  0  0
    0.8738   -1.3748    0.0611 C   0  0  0  0  0  0  0  0  0  0  0  0
   -0.4959   -1.2537    0.0539 C   0  0  0  0  0  0  0  0  0  0  0  0
   -3.7917    4.7105   -0.4512 H   0  0  0  0  0  0  0  0  0  0  0  0
    1.7865    1.9144   -0.2394 H   0  0  0  0  0  0  0  0  0  0  0  0
    1.3720   -2.3312    0.1463 H   0  0  0  0  0  0  0  0  0  0  0  0
   -1.1516   -2.1160    0.1336 H   0  0  0  0  0  0  0  0  0  0  0  0
   -4.7407    3.8466   -0.3634 Cl  0  0  0  0  0  0  0  0  0  0  0  0
  1 11  2  0  0  0  0
  2  1  1  0  0  0  0
  3  2  1  0  0  0  0
  4  5  2  0  0  0  0
  4  1  1  0  0  0  0
  5  6  1  0  0  0  0
  6  7  1  0  0  0  0
  6 10  2  0  0  0  0
  7  9  2  0  0  0  0
  8  7  2  0  0  0  0
 10 14  1  0  0  0  0
 11 10  1  0  0  0  0
 11 15  1  0  0  0  0
 12 16  1  0  0  0  0
 13  5  1  0  0  0  0
M  RAD  3   2   2   3   3   4   2
M  END
