Coordinates from ORCA-job 4-NO2PhN2+~Cl-_B3LYPG-6-31G_dp-CH-Scan-d09-49-n800
 OpenBabel11261919153D

 16 15  0  0  0  0  0  0  0  0999 V2000
   -1.0263    0.0573   -0.0632 C   0  0  0  0  0  0  0  0  0  0  0  0
   -2.4268    0.1930   -0.0725 N   0  0  0  0  0  0  0  0  0  0  0  0
   -3.5273    0.3866   -0.0877 N   0  0  0  0  0  0  0  0  0  0  0  0
   -0.3899    1.2927   -0.1760 C   0  0  0  0  0  0  0  0  0  0  0  0
    1.0257    1.1035   -0.1621 C   0  0  0  0  0  0  0  0  0  0  0  0
    1.5973   -0.1546   -0.0503 C   0  0  0  0  0  0  0  0  0  0  0  0
    3.0793   -0.2817   -0.0415 N   0  0  0  0  0  0  0  0  0  0  0  0
    3.7411    0.7470   -0.1416 O   0  0  0  0  0  0  0  0  0  0  0  0
    3.5513   -1.4133    0.0668 O   0  0  0  0  0  0  0  0  0  0  0  0
    0.8565   -1.3537    0.0594 C   0  0  0  0  0  0  0  0  0  0  0  0
   -0.5156   -1.2627    0.0546 C   0  0  0  0  0  0  0  0  0  0  0  0
   -3.4095    4.4886   -0.4363 H   0  0  0  0  0  0  0  0  0  0  0  0
    1.6961    1.9548   -0.2399 H   0  0  0  0  0  0  0  0  0  0  0  0
    1.3758   -2.2989    0.1436 H   0  0  0  0  0  0  0  0  0  0  0  0
   -1.1521   -2.1392    0.1354 H   0  0  0  0  0  0  0  0  0  0  0  0
   -4.5287    3.8591   -0.3590 Cl  0  0  0  0  0  0  0  0  0  0  0  0
  1 11  2  0  0  0  0
  2  1  1  0  0  0  0
  3  2  1  0  0  0  0
  4  5  2  0  0  0  0
  4  1  1  0  0  0  0
  5  6  1  0  0  0  0
  6  7  1  0  0  0  0
  6 10  2  0  0  0  0
  7  9  2  0  0  0  0
  8  7  2  0  0  0  0
 10 14  1  0  0  0  0
 11 10  1  0  0  0  0
 11 15  1  0  0  0  0
 12 16  1  0  0  0  0
 13  5  1  0  0  0  0
M  RAD  3   2   2   3   3   4   2
M  END
