Coordinates from ORCA-job 4-NO2PhN2+~Cl-_B3LYPG-6-31G_dp-CH-Scan-d09-49-n800
 OpenBabel11261919153D

 16 15  0  0  0  0  0  0  0  0999 V2000
   -1.2154    0.0301   -0.0534 C   0  0  0  0  0  0  0  0  0  0  0  0
   -2.6156    0.0628   -0.0508 N   0  0  0  0  0  0  0  0  0  0  0  0
   -3.7270    0.1694   -0.0552 N   0  0  0  0  0  0  0  0  0  0  0  0
   -0.6532    1.3047   -0.1664 C   0  0  0  0  0  0  0  0  0  0  0  0
    0.7677    1.2217   -0.1657 C   0  0  0  0  0  0  0  0  0  0  0  0
    1.4251    0.0048   -0.0644 C   0  0  0  0  0  0  0  0  0  0  0  0
    2.9129   -0.0176   -0.0700 N   0  0  0  0  0  0  0  0  0  0  0  0
    3.4971    1.0553   -0.1786 O   0  0  0  0  0  0  0  0  0  0  0  0
    3.4616   -1.1136    0.0361 O   0  0  0  0  0  0  0  0  0  0  0  0
    0.7702   -1.2410    0.0469 C   0  0  0  0  0  0  0  0  0  0  0  0
   -0.6054   -1.2473    0.0544 C   0  0  0  0  0  0  0  0  0  0  0  0
   -2.2550    3.2327   -0.3310 H   0  0  0  0  0  0  0  0  0  0  0  0
    1.3730    2.1195   -0.2458 H   0  0  0  0  0  0  0  0  0  0  0  0
    1.3541   -2.1484    0.1230 H   0  0  0  0  0  0  0  0  0  0  0  0
   -1.1768   -2.1669    0.1376 H   0  0  0  0  0  0  0  0  0  0  0  0
   -3.3664    3.9121   -0.3869 Cl  0  0  0  0  0  0  0  0  0  0  0  0
  1  2  1  0  0  0  0
  1 11  2  0  0  0  0
  3  2  1  0  0  0  0
  4  5  2  0  0  0  0
  4  1  1  0  0  0  0
  5  6  1  0  0  0  0
  6 10  2  0  0  0  0
  7  6  1  0  0  0  0
  7  9  2  0  0  0  0
  8  7  2  0  0  0  0
 10 11  1  0  0  0  0
 10 14  1  0  0  0  0
 11 15  1  0  0  0  0
 13  5  1  0  0  0  0
 16 12  1  0  0  0  0
M  RAD  3   2   2   3   3   4   2
M  END
