Coordinates from ORCA-job 4-NO2PhN2+~Cl-_B3LYPG-6-31G_dp-CH-Scan-d09-49-n800
 OpenBabel11261919153D

 16 15  0  0  0  0  0  0  0  0999 V2000
   -1.1924    0.0093   -0.0504 C   0  0  0  0  0  0  0  0  0  0  0  0
   -2.5932    0.0439   -0.0476 N   0  0  0  0  0  0  0  0  0  0  0  0
   -3.7050    0.1497   -0.0514 N   0  0  0  0  0  0  0  0  0  0  0  0
   -0.6326    1.2848   -0.1621 C   0  0  0  0  0  0  0  0  0  0  0  0
    0.7894    1.1979   -0.1615 C   0  0  0  0  0  0  0  0  0  0  0  0
    1.4460   -0.0195   -0.0621 C   0  0  0  0  0  0  0  0  0  0  0  0
    2.9337   -0.0437   -0.0683 N   0  0  0  0  0  0  0  0  0  0  0  0
    3.5196    1.0284   -0.1769 O   0  0  0  0  0  0  0  0  0  0  0  0
    3.4816   -1.1402    0.0370 O   0  0  0  0  0  0  0  0  0  0  0  0
    0.7901   -1.2654    0.0479 C   0  0  0  0  0  0  0  0  0  0  0  0
   -0.5852   -1.2700    0.0559 C   0  0  0  0  0  0  0  0  0  0  0  0
   -2.3893    3.4279   -0.3493 H   0  0  0  0  0  0  0  0  0  0  0  0
    1.3969    2.0946   -0.2404 H   0  0  0  0  0  0  0  0  0  0  0  0
    1.3734   -2.1733    0.1228 H   0  0  0  0  0  0  0  0  0  0  0  0
   -1.1580   -2.1890    0.1383 H   0  0  0  0  0  0  0  0  0  0  0  0
   -3.5281    4.0431   -0.4022 Cl  0  0  0  0  0  0  0  0  0  0  0  0
  1  2  1  0  0  0  0
  1 11  2  0  0  0  0
  3  2  1  0  0  0  0
  4  5  2  0  0  0  0
  4  1  1  0  0  0  0
  5  6  1  0  0  0  0
  6 10  2  0  0  0  0
  7  6  1  0  0  0  0
  7  9  2  0  0  0  0
  8  7  2  0  0  0  0
 10 11  1  0  0  0  0
 10 14  1  0  0  0  0
 11 15  1  0  0  0  0
 13  5  1  0  0  0  0
 16 12  1  0  0  0  0
M  RAD  3   2   2   3   3   4   2
M  END
