Coordinates from ORCA-job 4-NO2PhN2+~Cl-_B3LYPG-6-31G_dp-CH-Scan-d09-49-n800
 OpenBabel11261919153D

 16 15  0  0  0  0  0  0  0  0999 V2000
   -0.9901    0.0717   -0.0679 C   0  0  0  0  0  0  0  0  0  0  0  0
   -2.3882    0.2305   -0.0792 N   0  0  0  0  0  0  0  0  0  0  0  0
   -3.4855    0.4416   -0.0958 N   0  0  0  0  0  0  0  0  0  0  0  0
   -0.3339    1.2963   -0.1832 C   0  0  0  0  0  0  0  0  0  0  0  0
    1.0786    1.0843   -0.1659 C   0  0  0  0  0  0  0  0  0  0  0  0
    1.6296   -0.1824   -0.0484 C   0  0  0  0  0  0  0  0  0  0  0  0
    3.1093   -0.3335   -0.0352 N   0  0  0  0  0  0  0  0  0  0  0  0
    3.7880    0.6846   -0.1318 O   0  0  0  0  0  0  0  0  0  0  0  0
    3.5627   -1.4727    0.0727 O   0  0  0  0  0  0  0  0  0  0  0  0
    0.8693   -1.3692    0.0630 C   0  0  0  0  0  0  0  0  0  0  0  0
   -0.5012   -1.2562    0.0547 C   0  0  0  0  0  0  0  0  0  0  0  0
   -3.6923    4.6593   -0.4427 H   0  0  0  0  0  0  0  0  0  0  0  0
    1.7627    1.9244   -0.2455 H   0  0  0  0  0  0  0  0  0  0  0  0
    1.3730   -2.3224    0.1511 H   0  0  0  0  0  0  0  0  0  0  0  0
   -1.1519   -2.1221    0.1364 H   0  0  0  0  0  0  0  0  0  0  0  0
   -4.6832    3.8441   -0.3528 Cl  0  0  0  0  0  0  0  0  0  0  0  0
  1 11  2  0  0  0  0
  2  1  1  0  0  0  0
  3  2  1  0  0  0  0
  4  5  2  0  0  0  0
  4  1  1  0  0  0  0
  5  6  1  0  0  0  0
  6  7  1  0  0  0  0
  6 10  2  0  0  0  0
  7  9  2  0  0  0  0
  8  7  2  0  0  0  0
 10 14  1  0  0  0  0
 11 10  1  0  0  0  0
 11 15  1  0  0  0  0
 12 16  1  0  0  0  0
 13  5  1  0  0  0  0
M  RAD  3   2   2   3   3   4   2
M  END
