Coordinates from ORCA-job 4-NO2PhN2+~Cl-_B3LYPG-6-31G_dp-CH-Scan-d09-49-n800
 OpenBabel11261919153D

 16 15  0  0  0  0  0  0  0  0999 V2000
   -1.0361    0.0543   -0.0601 C   0  0  0  0  0  0  0  0  0  0  0  0
   -2.4370    0.1841   -0.0679 N   0  0  0  0  0  0  0  0  0  0  0  0
   -3.5383    0.3734   -0.0814 N   0  0  0  0  0  0  0  0  0  0  0  0
   -0.4047    1.2927   -0.1708 C   0  0  0  0  0  0  0  0  0  0  0  0
    1.0116    1.1091   -0.1585 C   0  0  0  0  0  0  0  0  0  0  0  0
    1.5885   -0.1469   -0.0508 C   0  0  0  0  0  0  0  0  0  0  0  0
    3.0710   -0.2679   -0.0442 N   0  0  0  0  0  0  0  0  0  0  0  0
    3.7284    0.7636   -0.1443 O   0  0  0  0  0  0  0  0  0  0  0  0
    3.5477   -1.3977    0.0621 O   0  0  0  0  0  0  0  0  0  0  0  0
    0.8528   -1.3492    0.0570 C   0  0  0  0  0  0  0  0  0  0  0  0
   -0.5198   -1.2638    0.0540 C   0  0  0  0  0  0  0  0  0  0  0  0
   -3.3343    4.4349   -0.4372 H   0  0  0  0  0  0  0  0  0  0  0  0
    1.6785    1.9633   -0.2348 H   0  0  0  0  0  0  0  0  0  0  0  0
    1.3760   -2.2925    0.1384 H   0  0  0  0  0  0  0  0  0  0  0  0
   -1.1526   -2.1430    0.1338 H   0  0  0  0  0  0  0  0  0  0  0  0
   -4.4849    3.8641   -0.3657 Cl  0  0  0  0  0  0  0  0  0  0  0  0
  1 11  2  0  0  0  0
  2  1  1  0  0  0  0
  3  2  1  0  0  0  0
  4  5  2  0  0  0  0
  4  1  1  0  0  0  0
  5  6  1  0  0  0  0
  6  7  1  0  0  0  0
  6 10  2  0  0  0  0
  7  9  2  0  0  0  0
  8  7  2  0  0  0  0
 10 14  1  0  0  0  0
 11 10  1  0  0  0  0
 11 15  1  0  0  0  0
 12 16  1  0  0  0  0
 13  5  1  0  0  0  0
M  RAD  3   2   2   3   3   4   2
M  END
