Coordinates from ORCA-job 4-NO2PhN2+~Cl-_B3LYPG-6-31G_dp-CH-Scan-d09-49-n800
 OpenBabel11261919153D

 16 16  0  0  0  0  0  0  0  0999 V2000
   -1.3618    0.1985    0.0716 C   0  0  0  0  0  0  0  0  0  0  0  0
   -2.7697    0.1504    0.1841 N   0  0  0  0  0  0  0  0  0  0  0  0
   -3.7111    0.8137   -0.0585 N   0  0  0  0  0  0  0  0  0  0  0  0
   -0.6513    1.4084    0.0204 C   0  0  0  0  0  0  0  0  0  0  0  0
    0.7380    1.3473   -0.0520 C   0  0  0  0  0  0  0  0  0  0  0  0
    1.3692    0.1061   -0.0793 C   0  0  0  0  0  0  0  0  0  0  0  0
    2.8446    0.0605   -0.1645 N   0  0  0  0  0  0  0  0  0  0  0  0
    3.4408    1.1330   -0.2079 O   0  0  0  0  0  0  0  0  0  0  0  0
    3.3731   -1.0482   -0.1859 O   0  0  0  0  0  0  0  0  0  0  0  0
    0.6672   -1.0963   -0.0207 C   0  0  0  0  0  0  0  0  0  0  0  0
   -0.7177   -1.0460    0.0724 C   0  0  0  0  0  0  0  0  0  0  0  0
   -1.1021    2.2332    0.0336 H   0  0  0  0  0  0  0  0  0  0  0  0
    1.3351    2.2499   -0.0925 H   0  0  0  0  0  0  0  0  0  0  0  0
    1.2070   -2.0345   -0.0375 H   0  0  0  0  0  0  0  0  0  0  0  0
   -1.3097   -1.9517    0.1381 H   0  0  0  0  0  0  0  0  0  0  0  0
   -3.4046    2.6542   -0.9917 Cl  0  0  0  0  0  0  0  0  0  0  0  0
  1 11  1  0  0  0  0
  1  2  1  0  0  0  0
  3  2  2  0  0  0  0
  4 12  1  0  0  0  0
  4  1  2  0  0  0  0
  5  4  1  0  0  0  0
  6  5  2  0  0  0  0
  6 10  1  0  0  0  0
  7  6  1  0  0  0  0
  8  7  2  0  0  0  0
  9  7  2  0  0  0  0
 10 11  2  0  0  0  0
 11 15  1  0  0  0  0
 13  5  1  0  0  0  0
 14 10  1  0  0  0  0
 16  3  1  0  0  0  0
M  END
