Coordinates from ORCA-job 4-NO2PhN2+~Cl-_B3LYPG-6-31G_dp-CH-Scan-d09-49-n800
 OpenBabel11261919153D

 16 15  0  0  0  0  0  0  0  0999 V2000
   -1.2061    0.0239   -0.0525 C   0  0  0  0  0  0  0  0  0  0  0  0
   -2.6066    0.0581   -0.0506 N   0  0  0  0  0  0  0  0  0  0  0  0
   -3.7181    0.1647   -0.0567 N   0  0  0  0  0  0  0  0  0  0  0  0
   -0.6440    1.2984   -0.1655 C   0  0  0  0  0  0  0  0  0  0  0  0
    0.7772    1.2130   -0.1648 C   0  0  0  0  0  0  0  0  0  0  0  0
    1.4335   -0.0044   -0.0635 C   0  0  0  0  0  0  0  0  0  0  0  0
    2.9213   -0.0285   -0.0693 N   0  0  0  0  0  0  0  0  0  0  0  0
    3.5069    1.0436   -0.1786 O   0  0  0  0  0  0  0  0  0  0  0  0
    3.4689   -1.1250    0.0371 O   0  0  0  0  0  0  0  0  0  0  0  0
    0.7774   -1.2498    0.0479 C   0  0  0  0  0  0  0  0  0  0  0  0
   -0.5980   -1.2546    0.0554 C   0  0  0  0  0  0  0  0  0  0  0  0
   -2.3074    3.3051   -0.3367 H   0  0  0  0  0  0  0  0  0  0  0  0
    1.3840    2.1099   -0.2449 H   0  0  0  0  0  0  0  0  0  0  0  0
    1.3605   -2.1578    0.1239 H   0  0  0  0  0  0  0  0  0  0  0  0
   -1.1705   -2.1736    0.1386 H   0  0  0  0  0  0  0  0  0  0  0  0
   -3.4320    3.9553   -0.3901 Cl  0  0  0  0  0  0  0  0  0  0  0  0
  1  2  1  0  0  0  0
  1 11  2  0  0  0  0
  3  2  1  0  0  0  0
  4  5  2  0  0  0  0
  4  1  1  0  0  0  0
  5  6  1  0  0  0  0
  6 10  2  0  0  0  0
  7  6  1  0  0  0  0
  7  9  2  0  0  0  0
  8  7  2  0  0  0  0
 10 11  1  0  0  0  0
 10 14  1  0  0  0  0
 11 15  1  0  0  0  0
 13  5  1  0  0  0  0
 16 12  1  0  0  0  0
M  RAD  3   2   2   3   3   4   2
M  END
