Coordinates from ORCA-job 4-NO2PhN2+~Cl-_B3LYPG-6-31G_dp-CH-Scan-d09-49-n800
 OpenBabel11261919153D

 16 15  0  0  0  0  0  0  0  0999 V2000
   -1.2330    0.0377   -0.0542 C   0  0  0  0  0  0  0  0  0  0  0  0
   -2.6326    0.0658   -0.0523 N   0  0  0  0  0  0  0  0  0  0  0  0
   -3.7439    0.1714   -0.0577 N   0  0  0  0  0  0  0  0  0  0  0  0
   -0.6720    1.3133   -0.1670 C   0  0  0  0  0  0  0  0  0  0  0  0
    0.7481    1.2363   -0.1656 C   0  0  0  0  0  0  0  0  0  0  0  0
    1.4092    0.0214   -0.0636 C   0  0  0  0  0  0  0  0  0  0  0  0
    2.8971    0.0040   -0.0683 N   0  0  0  0  0  0  0  0  0  0  0  0
    3.4772    1.0781   -0.1846 O   0  0  0  0  0  0  0  0  0  0  0  0
    3.4489   -1.0911    0.0290 O   0  0  0  0  0  0  0  0  0  0  0  0
    0.7581   -1.2260    0.0472 C   0  0  0  0  0  0  0  0  0  0  0  0
   -0.6177   -1.2367    0.0539 C   0  0  0  0  0  0  0  0  0  0  0  0
   -2.1581    3.1101   -0.3204 H   0  0  0  0  0  0  0  0  0  0  0  0
    1.3496    2.1366   -0.2456 H   0  0  0  0  0  0  0  0  0  0  0  0
    1.3446   -2.1317    0.1237 H   0  0  0  0  0  0  0  0  0  0  0  0
   -1.1860   -2.1582    0.1368 H   0  0  0  0  0  0  0  0  0  0  0  0
   -3.2427    3.8474   -0.3817 Cl  0  0  0  0  0  0  0  0  0  0  0  0
  1  2  1  0  0  0  0
  1 11  2  0  0  0  0
  3  2  1  0  0  0  0
  4  5  2  0  0  0  0
  4  1  1  0  0  0  0
  5  6  1  0  0  0  0
  6 10  2  0  0  0  0
  7  6  1  0  0  0  0
  7  9  2  0  0  0  0
  8  7  2  0  0  0  0
 10 11  1  0  0  0  0
 10 14  1  0  0  0  0
 11 15  1  0  0  0  0
 13  5  1  0  0  0  0
 16 12  1  0  0  0  0
M  RAD  3   2   2   3   3   4   2
M  END
