Coordinates from ORCA-job 4-NO2PhN2+~Cl-_B3LYPG-6-31G_dp-CH-Scan-d09-49-n800
 OpenBabel11261919153D

 16 15  0  0  0  0  0  0  0  0999 V2000
   -1.2074    0.0251   -0.0527 C   0  0  0  0  0  0  0  0  0  0  0  0
   -2.6078    0.0594   -0.0500 N   0  0  0  0  0  0  0  0  0  0  0  0
   -3.7193    0.1663   -0.0540 N   0  0  0  0  0  0  0  0  0  0  0  0
   -0.6451    1.2996   -0.1653 C   0  0  0  0  0  0  0  0  0  0  0  0
    0.7761    1.2144   -0.1644 C   0  0  0  0  0  0  0  0  0  0  0  0
    1.4324   -0.0031   -0.0635 C   0  0  0  0  0  0  0  0  0  0  0  0
    2.9202   -0.0271   -0.0691 N   0  0  0  0  0  0  0  0  0  0  0  0
    3.5057    1.0451   -0.1780 O   0  0  0  0  0  0  0  0  0  0  0  0
    3.4678   -1.1236    0.0364 O   0  0  0  0  0  0  0  0  0  0  0  0
    0.7763   -1.2485    0.0472 C   0  0  0  0  0  0  0  0  0  0  0  0
   -0.5992   -1.2533    0.0546 C   0  0  0  0  0  0  0  0  0  0  0  0
   -2.3003    3.2936   -0.3368 H   0  0  0  0  0  0  0  0  0  0  0  0
    1.3828    2.1114   -0.2440 H   0  0  0  0  0  0  0  0  0  0  0  0
    1.3594   -2.1565    0.1230 H   0  0  0  0  0  0  0  0  0  0  0  0
   -1.1716   -2.1724    0.1375 H   0  0  0  0  0  0  0  0  0  0  0  0
   -3.4231    3.9477   -0.3912 Cl  0  0  0  0  0  0  0  0  0  0  0  0
  1  2  1  0  0  0  0
  1 11  2  0  0  0  0
  3  2  1  0  0  0  0
  4  5  2  0  0  0  0
  4  1  1  0  0  0  0
  5  6  1  0  0  0  0
  6 10  2  0  0  0  0
  7  6  1  0  0  0  0
  7  9  2  0  0  0  0
  8  7  2  0  0  0  0
 10 11  1  0  0  0  0
 10 14  1  0  0  0  0
 11 15  1  0  0  0  0
 13  5  1  0  0  0  0
 16 12  1  0  0  0  0
M  RAD  3   2   2   3   3   4   2
M  END
