Coordinates from ORCA-job 4-NO2PhN2+~Cl-_B3LYPG-6-31G_dp-CH-Scan-d09-49-n800
 OpenBabel11261919153D

 16 15  0  0  0  0  0  0  0  0999 V2000
   -1.0595    0.0504   -0.0554 C   0  0  0  0  0  0  0  0  0  0  0  0
   -2.4614    0.1668   -0.0604 N   0  0  0  0  0  0  0  0  0  0  0  0
   -3.5645    0.3451   -0.0696 N   0  0  0  0  0  0  0  0  0  0  0  0
   -0.4388    1.2947   -0.1625 C   0  0  0  0  0  0  0  0  0  0  0  0
    0.9790    1.1234   -0.1536 C   0  0  0  0  0  0  0  0  0  0  0  0
    1.5670   -0.1280   -0.0520 C   0  0  0  0  0  0  0  0  0  0  0  0
    3.0506   -0.2360   -0.0490 N   0  0  0  0  0  0  0  0  0  0  0  0
    3.6987    0.8014   -0.1491 O   0  0  0  0  0  0  0  0  0  0  0  0
    3.5372   -1.3618    0.0537 O   0  0  0  0  0  0  0  0  0  0  0  0
    0.8421   -1.3369    0.0528 C   0  0  0  0  0  0  0  0  0  0  0  0
   -0.5311   -1.2634    0.0529 C   0  0  0  0  0  0  0  0  0  0  0  0
   -3.1620    4.3059   -0.4337 H   0  0  0  0  0  0  0  0  0  0  0  0
    1.6384    1.9837   -0.2277 H   0  0  0  0  0  0  0  0  0  0  0  0
    1.3736   -2.2759    0.1297 H   0  0  0  0  0  0  0  0  0  0  0  0
   -1.1561   -2.1484    0.1307 H   0  0  0  0  0  0  0  0  0  0  0  0
   -4.3663    3.8574   -0.3769 Cl  0  0  0  0  0  0  0  0  0  0  0  0
  1 11  2  0  0  0  0
  2  1  1  0  0  0  0
  3  2  1  0  0  0  0
  4  5  2  0  0  0  0
  4  1  1  0  0  0  0
  5  6  1  0  0  0  0
  6  7  1  0  0  0  0
  6 10  2  0  0  0  0
  7  9  2  0  0  0  0
  8  7  2  0  0  0  0
 10 11  1  0  0  0  0
 10 14  1  0  0  0  0
 11 15  1  0  0  0  0
 12 16  1  0  0  0  0
 13  5  1  0  0  0  0
M  RAD  3   2   2   3   3   4   2
M  END
