Coordinates from ORCA-job 4-NO2PhN2+~Cl-_B3LYPG-6-31G_dp-CH-Scan-d09-49-n800
 OpenBabel11261919153D

 16 15  0  0  0  0  0  0  0  0999 V2000
   -1.1152    0.0109   -0.0434 C   0  0  0  0  0  0  0  0  0  0  0  0
   -2.5180    0.0851   -0.0415 N   0  0  0  0  0  0  0  0  0  0  0  0
   -3.6262    0.2278   -0.0461 N   0  0  0  0  0  0  0  0  0  0  0  0
   -0.5305    1.2739   -0.1459 C   0  0  0  0  0  0  0  0  0  0  0  0
    0.8910    1.1469   -0.1451 C   0  0  0  0  0  0  0  0  0  0  0  0
    1.5167   -0.0870   -0.0547 C   0  0  0  0  0  0  0  0  0  0  0  0
    3.0031   -0.1499   -0.0606 N   0  0  0  0  0  0  0  0  0  0  0  0
    3.6180    0.9068   -0.1647 O   0  0  0  0  0  0  0  0  0  0  0  0
    3.5235   -1.2609    0.0353 O   0  0  0  0  0  0  0  0  0  0  0  0
    0.8294   -1.3177    0.0464 C   0  0  0  0  0  0  0  0  0  0  0  0
   -0.5454   -1.2864    0.0541 C   0  0  0  0  0  0  0  0  0  0  0  0
   -2.7952    3.9477   -0.4007 H   0  0  0  0  0  0  0  0  0  0  0  0
    1.5233    2.0274   -0.2168 H   0  0  0  0  0  0  0  0  0  0  0  0
    1.3896   -2.2405    0.1149 H   0  0  0  0  0  0  0  0  0  0  0  0
   -1.1426   -2.1904    0.1300 H   0  0  0  0  0  0  0  0  0  0  0  0
   -4.0748    4.0847   -0.4316 Cl  0  0  0  0  0  0  0  0  0  0  0  0
  1  2  1  0  0  0  0
  1 11  2  0  0  0  0
  3  2  1  0  0  0  0
  4  5  2  0  0  0  0
  4  1  1  0  0  0  0
  5  6  1  0  0  0  0
  6 10  2  0  0  0  0
  7  6  1  0  0  0  0
  7  9  2  0  0  0  0
  8  7  2  0  0  0  0
 10 11  1  0  0  0  0
 10 14  1  0  0  0  0
 11 15  1  0  0  0  0
 13  5  1  0  0  0  0
 16 12  1  0  0  0  0
M  RAD  3   2   2   3   3   4   2
M  END
