Coordinates from ORCA-job 4-NO2PhN2+~Cl-_B3LYPG-6-31G_dp-CH-Scan-d09-49-n800
 OpenBabel11261919153D

 16 15  0  0  0  0  0  0  0  0999 V2000
   -1.1619   -0.0114   -0.0464 C   0  0  0  0  0  0  0  0  0  0  0  0
   -2.5639    0.0291   -0.0433 N   0  0  0  0  0  0  0  0  0  0  0  0
   -3.6755    0.1404   -0.0467 N   0  0  0  0  0  0  0  0  0  0  0  0
   -0.6014    1.2631   -0.1560 C   0  0  0  0  0  0  0  0  0  0  0  0
    0.8214    1.1694   -0.1560 C   0  0  0  0  0  0  0  0  0  0  0  0
    1.4739   -0.0502   -0.0596 C   0  0  0  0  0  0  0  0  0  0  0  0
    2.9615   -0.0800   -0.0668 N   0  0  0  0  0  0  0  0  0  0  0  0
    3.5519    0.9900   -0.1732 O   0  0  0  0  0  0  0  0  0  0  0  0
    3.5059   -1.1784    0.0387 O   0  0  0  0  0  0  0  0  0  0  0  0
    0.8139   -1.2948    0.0485 C   0  0  0  0  0  0  0  0  0  0  0  0
   -0.5611   -1.2944    0.0572 C   0  0  0  0  0  0  0  0  0  0  0  0
   -2.5647    3.6626   -0.3710 H   0  0  0  0  0  0  0  0  0  0  0  0
    1.4330    2.0637   -0.2332 H   0  0  0  0  0  0  0  0  0  0  0  0
    1.3944   -2.2047    0.1213 H   0  0  0  0  0  0  0  0  0  0  0  0
   -1.1375   -2.2113    0.1383 H   0  0  0  0  0  0  0  0  0  0  0  0
   -3.7430    4.1854   -0.4219 Cl  0  0  0  0  0  0  0  0  0  0  0  0
  1  2  1  0  0  0  0
  1 11  2  0  0  0  0
  3  2  1  0  0  0  0
  4  1  1  0  0  0  0
  5  4  2  0  0  0  0
  5  6  1  0  0  0  0
  6 10  2  0  0  0  0
  7  6  1  0  0  0  0
  7  9  2  0  0  0  0
  8  7  2  0  0  0  0
 10 11  1  0  0  0  0
 10 14  1  0  0  0  0
 11 15  1  0  0  0  0
 13  5  1  0  0  0  0
 16 12  1  0  0  0  0
M  RAD  3   2   2   3   3   4   2
M  END
