Coordinates from ORCA-job 4-NO2PhN2+~Cl-_B3LYPG-6-31G_dp-CH-Scan-d09-49-n800
 OpenBabel11261919153D

 16 15  0  0  0  0  0  0  0  0999 V2000
   -1.2164    0.0304   -0.0534 C   0  0  0  0  0  0  0  0  0  0  0  0
   -2.6166    0.0627   -0.0508 N   0  0  0  0  0  0  0  0  0  0  0  0
   -3.7280    0.1691   -0.0554 N   0  0  0  0  0  0  0  0  0  0  0  0
   -0.6544    1.3051   -0.1664 C   0  0  0  0  0  0  0  0  0  0  0  0
    0.7664    1.2225   -0.1656 C   0  0  0  0  0  0  0  0  0  0  0  0
    1.4241    0.0058   -0.0643 C   0  0  0  0  0  0  0  0  0  0  0  0
    2.9119   -0.0163   -0.0700 N   0  0  0  0  0  0  0  0  0  0  0  0
    3.4958    1.0567   -0.1790 O   0  0  0  0  0  0  0  0  0  0  0  0
    3.4608   -1.1121    0.0356 O   0  0  0  0  0  0  0  0  0  0  0  0
    0.7695   -1.2402    0.0469 C   0  0  0  0  0  0  0  0  0  0  0  0
   -0.6061   -1.2468    0.0544 C   0  0  0  0  0  0  0  0  0  0  0  0
   -2.2490    3.2262   -0.3305 H   0  0  0  0  0  0  0  0  0  0  0  0
    1.3715    2.1205   -0.2457 H   0  0  0  0  0  0  0  0  0  0  0  0
    1.3537   -2.1474    0.1230 H   0  0  0  0  0  0  0  0  0  0  0  0
   -1.1772   -2.1665    0.1376 H   0  0  0  0  0  0  0  0  0  0  0  0
   -3.3590    3.9087   -0.3867 Cl  0  0  0  0  0  0  0  0  0  0  0  0
  1  2  1  0  0  0  0
  1 11  2  0  0  0  0
  3  2  1  0  0  0  0
  4  5  2  0  0  0  0
  4  1  1  0  0  0  0
  5  6  1  0  0  0  0
  6 10  2  0  0  0  0
  7  6  1  0  0  0  0
  7  9  2  0  0  0  0
  8  7  2  0  0  0  0
 10 11  1  0  0  0  0
 10 14  1  0  0  0  0
 11 15  1  0  0  0  0
 13  5  1  0  0  0  0
 16 12  1  0  0  0  0
M  RAD  3   2   2   3   3   4   2
M  END
