Coordinates from ORCA-job 4-NO2PhN2+~Cl-_B3LYPG-6-31G_dp-CH-Scan-d09-49-n800
 OpenBabel11261919153D

 16 15  0  0  0  0  0  0  0  0999 V2000
   -1.2126    0.0282   -0.0531 C   0  0  0  0  0  0  0  0  0  0  0  0
   -2.6128    0.0614   -0.0506 N   0  0  0  0  0  0  0  0  0  0  0  0
   -3.7243    0.1680   -0.0551 N   0  0  0  0  0  0  0  0  0  0  0  0
   -0.6505    1.3030   -0.1660 C   0  0  0  0  0  0  0  0  0  0  0  0
    0.7704    1.2190   -0.1651 C   0  0  0  0  0  0  0  0  0  0  0  0
    1.4276    0.0020   -0.0640 C   0  0  0  0  0  0  0  0  0  0  0  0
    2.9154   -0.0208   -0.0697 N   0  0  0  0  0  0  0  0  0  0  0  0
    3.5000    1.0518   -0.1787 O   0  0  0  0  0  0  0  0  0  0  0  0
    3.4638   -1.1170    0.0360 O   0  0  0  0  0  0  0  0  0  0  0  0
    0.7724   -1.2437    0.0471 C   0  0  0  0  0  0  0  0  0  0  0  0
   -0.6032   -1.2495    0.0545 C   0  0  0  0  0  0  0  0  0  0  0  0
   -2.2704    3.2549   -0.3331 H   0  0  0  0  0  0  0  0  0  0  0  0
    1.3763    2.1166   -0.2451 H   0  0  0  0  0  0  0  0  0  0  0  0
    1.3561   -2.1513    0.1231 H   0  0  0  0  0  0  0  0  0  0  0  0
   -1.1749   -2.1689    0.1376 H   0  0  0  0  0  0  0  0  0  0  0  0
   -3.3863    3.9246   -0.3883 Cl  0  0  0  0  0  0  0  0  0  0  0  0
  1  2  1  0  0  0  0
  1 11  2  0  0  0  0
  3  2  1  0  0  0  0
  4  5  2  0  0  0  0
  4  1  1  0  0  0  0
  5  6  1  0  0  0  0
  6 10  2  0  0  0  0
  7  6  1  0  0  0  0
  7  9  2  0  0  0  0
  8  7  2  0  0  0  0
 10 11  1  0  0  0  0
 10 14  1  0  0  0  0
 11 15  1  0  0  0  0
 13  5  1  0  0  0  0
 16 12  1  0  0  0  0
M  RAD  3   2   2   3   3   4   2
M  END
