Coordinates from ORCA-job 4-NO2PhN2+~Cl-_B3LYPG-6-31G_dp-CH-Scan-d09-49-n800
 OpenBabel11261919153D

 16 15  0  0  0  0  0  0  0  0999 V2000
   -1.0400    0.0534   -0.0608 C   0  0  0  0  0  0  0  0  0  0  0  0
   -2.4412    0.1806   -0.0687 N   0  0  0  0  0  0  0  0  0  0  0  0
   -3.5428    0.3675   -0.0821 N   0  0  0  0  0  0  0  0  0  0  0  0
   -0.4104    1.2927   -0.1720 C   0  0  0  0  0  0  0  0  0  0  0  0
    1.0062    1.1113   -0.1597 C   0  0  0  0  0  0  0  0  0  0  0  0
    1.5850   -0.1438   -0.0511 C   0  0  0  0  0  0  0  0  0  0  0  0
    3.0677   -0.2625   -0.0442 N   0  0  0  0  0  0  0  0  0  0  0  0
    3.7235    0.7700   -0.1450 O   0  0  0  0  0  0  0  0  0  0  0  0
    3.5461   -1.3914    0.0630 O   0  0  0  0  0  0  0  0  0  0  0  0
    0.8511   -1.3471    0.0572 C   0  0  0  0  0  0  0  0  0  0  0  0
   -0.5215   -1.2638    0.0541 C   0  0  0  0  0  0  0  0  0  0  0  0
   -3.3047    4.4132   -0.4339 H   0  0  0  0  0  0  0  0  0  0  0  0
    1.6718    1.9665   -0.2363 H   0  0  0  0  0  0  0  0  0  0  0  0
    1.3757   -2.2896    0.1393 H   0  0  0  0  0  0  0  0  0  0  0  0
   -1.1530   -2.1440    0.1342 H   0  0  0  0  0  0  0  0  0  0  0  0
   -4.4666    3.8656   -0.3643 Cl  0  0  0  0  0  0  0  0  0  0  0  0
  1 11  2  0  0  0  0
  2  1  1  0  0  0  0
  3  2  1  0  0  0  0
  4  5  2  0  0  0  0
  4  1  1  0  0  0  0
  5  6  1  0  0  0  0
  6  7  1  0  0  0  0
  6 10  2  0  0  0  0
  7  9  2  0  0  0  0
  8  7  2  0  0  0  0
 10 14  1  0  0  0  0
 11 10  1  0  0  0  0
 11 15  1  0  0  0  0
 12 16  1  0  0  0  0
 13  5  1  0  0  0  0
M  RAD  3   2   2   3   3   4   2
M  END
