Coordinates from ORCA-job 4-NO2PhN2+~Cl-_B3LYPG-6-31G_dp-CH-Scan-d09-49-n800
 OpenBabel11261919153D

 16 15  0  0  0  0  0  0  0  0999 V2000
   -1.1760   -0.0049   -0.0482 C   0  0  0  0  0  0  0  0  0  0  0  0
   -2.5773    0.0317   -0.0456 N   0  0  0  0  0  0  0  0  0  0  0  0
   -3.6893    0.1378   -0.0518 N   0  0  0  0  0  0  0  0  0  0  0  0
   -0.6170    1.2698   -0.1592 C   0  0  0  0  0  0  0  0  0  0  0  0
    0.8057    1.1807   -0.1586 C   0  0  0  0  0  0  0  0  0  0  0  0
    1.4614   -0.0369   -0.0601 C   0  0  0  0  0  0  0  0  0  0  0  0
    2.9490   -0.0628   -0.0670 N   0  0  0  0  0  0  0  0  0  0  0  0
    3.5365    1.0085   -0.1768 O   0  0  0  0  0  0  0  0  0  0  0  0
    3.4960   -1.1600    0.0373 O   0  0  0  0  0  0  0  0  0  0  0  0
    0.8044   -1.2826    0.0494 C   0  0  0  0  0  0  0  0  0  0  0  0
   -0.5709   -1.2855    0.0575 C   0  0  0  0  0  0  0  0  0  0  0  0
   -2.4868    3.5654   -0.3612 H   0  0  0  0  0  0  0  0  0  0  0  0
    1.4145    2.0767   -0.2370 H   0  0  0  0  0  0  0  0  0  0  0  0
    1.3868   -2.1911    0.1237 H   0  0  0  0  0  0  0  0  0  0  0  0
   -1.1449   -2.2039    0.1395 H   0  0  0  0  0  0  0  0  0  0  0  0
   -3.6451    4.1352   -0.4120 Cl  0  0  0  0  0  0  0  0  0  0  0  0
  1  2  1  0  0  0  0
  1 11  2  0  0  0  0
  3  2  1  0  0  0  0
  4  5  2  0  0  0  0
  4  1  1  0  0  0  0
  5  6  1  0  0  0  0
  6 10  2  0  0  0  0
  7  6  1  0  0  0  0
  7  9  2  0  0  0  0
  8  7  2  0  0  0  0
 10 11  1  0  0  0  0
 10 14  1  0  0  0  0
 11 15  1  0  0  0  0
 13  5  1  0  0  0  0
 16 12  1  0  0  0  0
M  RAD  3   2   2   3   3   4   2
M  END
