Coordinates from ORCA-job 4-NO2PhN2+~Cl-_B3LYPG-6-31G_dp-CH-Scan-d09-49-n800
 OpenBabel11261919153D

 16 15  0  0  0  0  0  0  0  0999 V2000
   -1.2848    0.0745   -0.0581 C   0  0  0  0  0  0  0  0  0  0  0  0
   -2.6850    0.1082   -0.0550 N   0  0  0  0  0  0  0  0  0  0  0  0
   -3.7875    0.2751   -0.0645 N   0  0  0  0  0  0  0  0  0  0  0  0
   -0.7134    1.3444   -0.1722 C   0  0  0  0  0  0  0  0  0  0  0  0
    0.7002    1.2870   -0.1738 C   0  0  0  0  0  0  0  0  0  0  0  0
    1.3652    0.0727   -0.0709 C   0  0  0  0  0  0  0  0  0  0  0  0
    2.8532    0.0626   -0.0775 N   0  0  0  0  0  0  0  0  0  0  0  0
    3.4255    1.1416   -0.1817 O   0  0  0  0  0  0  0  0  0  0  0  0
    3.4087   -1.0290    0.0302 O   0  0  0  0  0  0  0  0  0  0  0  0
    0.7178   -1.1735    0.0416 C   0  0  0  0  0  0  0  0  0  0  0  0
   -0.6600   -1.1909    0.0498 C   0  0  0  0  0  0  0  0  0  0  0  0
   -1.8277    2.6711   -0.2825 H   0  0  0  0  0  0  0  0  0  0  0  0
    1.2913    2.1934   -0.2562 H   0  0  0  0  0  0  0  0  0  0  0  0
    1.3069   -2.0777    0.1183 H   0  0  0  0  0  0  0  0  0  0  0  0
   -1.2234   -2.1148    0.1340 H   0  0  0  0  0  0  0  0  0  0  0  0
   -2.9401    3.5336   -0.3518 Cl  0  0  0  0  0  0  0  0  0  0  0  0
  1  2  1  0  0  0  0
  1 11  2  0  0  0  0
  3  2  1  0  0  0  0
  4  1  1  0  0  0  0
  5  4  2  0  0  0  0
  5  6  1  0  0  0  0
  6 10  2  0  0  0  0
  7  6  1  0  0  0  0
  7  9  2  0  0  0  0
  8  7  2  0  0  0  0
 10 11  1  0  0  0  0
 10 14  1  0  0  0  0
 11 15  1  0  0  0  0
 13  5  1  0  0  0  0
 16 12  1  0  0  0  0
M  RAD  3   2   2   3   3   4   2
M  END
