Coordinates from ORCA-job 4-NO2PhN2+~Cl-_B3LYPG-6-31G_dp-CH-Scan-d09-49-n800
 OpenBabel11261919153D

 16 16  0  0  0  0  0  0  0  0999 V2000
   -1.3575    0.1965    0.0759 C   0  0  0  0  0  0  0  0  0  0  0  0
   -2.7648    0.1529    0.1952 N   0  0  0  0  0  0  0  0  0  0  0  0
   -3.7101    0.8078   -0.0508 N   0  0  0  0  0  0  0  0  0  0  0  0
   -0.6432    1.4033    0.0287 C   0  0  0  0  0  0  0  0  0  0  0  0
    0.7454    1.3441   -0.0457 C   0  0  0  0  0  0  0  0  0  0  0  0
    1.3736    0.1011   -0.0792 C   0  0  0  0  0  0  0  0  0  0  0  0
    2.8488    0.0530   -0.1665 N   0  0  0  0  0  0  0  0  0  0  0  0
    3.4472    1.1245   -0.2051 O   0  0  0  0  0  0  0  0  0  0  0  0
    3.3752   -1.0566   -0.1943 O   0  0  0  0  0  0  0  0  0  0  0  0
    0.6696   -1.1005   -0.0249 C   0  0  0  0  0  0  0  0  0  0  0  0
   -0.7150   -1.0492    0.0713 C   0  0  0  0  0  0  0  0  0  0  0  0
   -1.1456    2.3140    0.0435 H   0  0  0  0  0  0  0  0  0  0  0  0
    1.3442    2.2454   -0.0832 H   0  0  0  0  0  0  0  0  0  0  0  0
    1.2081   -2.0393   -0.0464 H   0  0  0  0  0  0  0  0  0  0  0  0
   -1.3078   -1.9545    0.1354 H   0  0  0  0  0  0  0  0  0  0  0  0
   -3.4211    2.6360   -1.0241 Cl  0  0  0  0  0  0  0  0  0  0  0  0
  1  2  1  0  0  0  0
  3  2  2  0  0  0  0
  4 12  1  0  0  0  0
  4  1  2  0  0  0  0
  5  4  1  0  0  0  0
  6  5  2  0  0  0  0
  6 10  1  0  0  0  0
  7  6  1  0  0  0  0
  8  7  2  0  0  0  0
  9  7  2  0  0  0  0
 10 11  2  0  0  0  0
 11  1  1  0  0  0  0
 11 15  1  0  0  0  0
 13  5  1  0  0  0  0
 14 10  1  0  0  0  0
 16  3  1  0  0  0  0
M  END
