Coordinates from ORCA-job 4-NO2PhN2+~Cl-_B3LYPG-6-31G_dp-CH-Scan-d09-49-n800
 OpenBabel11261919153D

 16 16  0  0  0  0  0  0  0  0999 V2000
   -1.3585    0.1975    0.0758 C   0  0  0  0  0  0  0  0  0  0  0  0
   -2.7659    0.1528    0.1949 N   0  0  0  0  0  0  0  0  0  0  0  0
   -3.7104    0.8093   -0.0511 N   0  0  0  0  0  0  0  0  0  0  0  0
   -0.6450    1.4051    0.0275 C   0  0  0  0  0  0  0  0  0  0  0  0
    0.7438    1.3450   -0.0478 C   0  0  0  0  0  0  0  0  0  0  0  0
    1.3724    0.1024   -0.0811 C   0  0  0  0  0  0  0  0  0  0  0  0
    2.8476    0.0546   -0.1696 N   0  0  0  0  0  0  0  0  0  0  0  0
    3.4461    1.1263   -0.2019 O   0  0  0  0  0  0  0  0  0  0  0  0
    3.3747   -1.0548   -0.1894 O   0  0  0  0  0  0  0  0  0  0  0  0
    0.6688   -1.0994   -0.0255 C   0  0  0  0  0  0  0  0  0  0  0  0
   -0.7158   -1.0479    0.0715 C   0  0  0  0  0  0  0  0  0  0  0  0
   -1.1338    2.2947    0.0432 H   0  0  0  0  0  0  0  0  0  0  0  0
    1.3424    2.2465   -0.0862 H   0  0  0  0  0  0  0  0  0  0  0  0
    1.2073   -2.0381   -0.0468 H   0  0  0  0  0  0  0  0  0  0  0  0
   -1.3086   -1.9533    0.1362 H   0  0  0  0  0  0  0  0  0  0  0  0
   -3.4183    2.6376   -1.0201 Cl  0  0  0  0  0  0  0  0  0  0  0  0
  1  2  1  0  0  0  0
  3  2  2  0  0  0  0
  4 12  1  0  0  0  0
  4  1  2  0  0  0  0
  5  4  1  0  0  0  0
  6  5  2  0  0  0  0
  6 10  1  0  0  0  0
  7  6  1  0  0  0  0
  8  7  2  0  0  0  0
  9  7  2  0  0  0  0
 10 11  2  0  0  0  0
 11  1  1  0  0  0  0
 11 15  1  0  0  0  0
 13  5  1  0  0  0  0
 14 10  1  0  0  0  0
 16  3  1  0  0  0  0
M  END
