Coordinates from ORCA-job 4-NO2PhN2+~CF3COO-_B3LYPG-6-31G_dp-CH-Scan-d09-49-n800
 OpenBabel11261919433D

 22 21  0  0  0  0  0  0  0  0999 V2000
   -1.1213    0.4287   -0.4960 C   0  0  0  0  0  0  0  0  0  0  0  0
   -2.4380    0.7499   -0.8752 N   0  0  0  0  0  0  0  0  0  0  0  0
   -3.4668    1.0708   -1.1673 N   0  0  0  0  0  0  0  0  0  0  0  0
   -0.3803    1.5579   -0.1445 C   0  0  0  0  0  0  0  0  0  0  0  0
    0.9405    1.1618    0.2286 C   0  0  0  0  0  0  0  0  0  0  0  0
    1.3436   -0.1649    0.2217 C   0  0  0  0  0  0  0  0  0  0  0  0
    2.7326   -0.5050    0.6293 N   0  0  0  0  0  0  0  0  0  0  0  0
    3.4709    0.4167    0.9640 O   0  0  0  0  0  0  0  0  0  0  0  0
    3.0565   -1.6923    0.6062 O   0  0  0  0  0  0  0  0  0  0  0  0
    0.5094   -1.2416   -0.1538 C   0  0  0  0  0  0  0  0  0  0  0  0
   -0.7802   -0.9500   -0.5325 C   0  0  0  0  0  0  0  0  0  0  0  0
   -2.2918    5.3951   -0.0042 H   0  0  0  0  0  0  0  0  0  0  0  0
    1.6720    1.9047    0.5339 H   0  0  0  0  0  0  0  0  0  0  0  0
    0.8954   -2.2520   -0.1362 H   0  0  0  0  0  0  0  0  0  0  0  0
   -1.4798   -1.7234   -0.8362 H   0  0  0  0  0  0  0  0  0  0  0  0
   -3.1195    5.9019   -0.0705 O   0  0  0  0  0  0  0  0  0  0  0  0
   -4.0889    5.0601   -0.4388 C   0  0  0  0  0  0  0  0  0  0  0  0
   -3.9710    3.8818   -0.6579 O   0  0  0  0  0  0  0  0  0  0  0  0
   -5.4306    5.8168   -0.5496 C   0  0  0  0  0  0  0  0  0  0  0  0
   -6.3972    4.9842   -0.9401 F   0  0  0  0  0  0  0  0  0  0  0  0
   -5.7654    6.3429    0.6408 F   0  0  0  0  0  0  0  0  0  0  0  0
   -5.3297    6.8152   -1.4433 F   0  0  0  0  0  0  0  0  0  0  0  0
  1  4  1  0  0  0  0
  2  1  1  0  0  0  0
  3  2  1  0  0  0  0
  4  5  2  0  0  0  0
  5 13  1  0  0  0  0
  6  5  1  0  0  0  0
  6  7  1  0  0  0  0
  7  8  2  0  0  0  0
  9  7  2  0  0  0  0
 10 14  1  0  0  0  0
 10  6  2  0  0  0  0
 11  1  2  0  0  0  0
 11 10  1  0  0  0  0
 15 11  1  0  0  0  0
 16 12  1  0  0  0  0
 17 16  1  0  0  0  0
 18 17  2  0  0  0  0
 19 17  1  0  0  0  0
 19 21  1  0  0  0  0
 20 19  1  0  0  0  0
 22 19  1  0  0  0  0
M  RAD  3   2   2   3   3   4   2
M  END
