Coordinates from ORCA-job 4-NO2PhN2+~CF3COO-_B3LYPG-6-31G_dp-CH-Scan-d09-49-n800
 OpenBabel11261919433D

 22 21  0  0  0  0  0  0  0  0999 V2000
   -1.2824    0.4036   -0.4251 C   0  0  0  0  0  0  0  0  0  0  0  0
   -2.6332    0.6096   -0.7539 N   0  0  0  0  0  0  0  0  0  0  0  0
   -3.6984    0.8336   -1.0009 N   0  0  0  0  0  0  0  0  0  0  0  0
   -0.6372    1.5776   -0.0294 C   0  0  0  0  0  0  0  0  0  0  0  0
    0.7239    1.2927    0.2901 C   0  0  0  0  0  0  0  0  0  0  0  0
    1.2511    0.0133    0.1973 C   0  0  0  0  0  0  0  0  0  0  0  0
    2.6783   -0.2117    0.5496 N   0  0  0  0  0  0  0  0  0  0  0  0
    3.3355    0.7587    0.9137 O   0  0  0  0  0  0  0  0  0  0  0  0
    3.1107   -1.3601    0.4570 O   0  0  0  0  0  0  0  0  0  0  0  0
    0.5120   -1.1166   -0.2163 C   0  0  0  0  0  0  0  0  0  0  0  0
   -0.8107   -0.9309   -0.5447 C   0  0  0  0  0  0  0  0  0  0  0  0
   -2.2472    4.6353    0.1044 H   0  0  0  0  0  0  0  0  0  0  0  0
    1.3897    2.0847    0.6204 H   0  0  0  0  0  0  0  0  0  0  0  0
    0.9923   -2.0847   -0.2652 H   0  0  0  0  0  0  0  0  0  0  0  0
   -1.4427   -1.7513   -0.8716 H   0  0  0  0  0  0  0  0  0  0  0  0
   -2.9156    5.3375    0.0157 O   0  0  0  0  0  0  0  0  0  0  0  0
   -4.0393    4.7874   -0.4436 C   0  0  0  0  0  0  0  0  0  0  0  0
   -4.2192    3.6256   -0.7108 O   0  0  0  0  0  0  0  0  0  0  0  0
   -5.1325    5.8680   -0.5950 C   0  0  0  0  0  0  0  0  0  0  0  0
   -6.2495    5.3284   -1.0867 F   0  0  0  0  0  0  0  0  0  0  0  0
   -5.4070    6.4195    0.5998 F   0  0  0  0  0  0  0  0  0  0  0  0
   -4.7179    6.8390   -1.4262 F   0  0  0  0  0  0  0  0  0  0  0  0
  1  4  1  0  0  0  0
  2  1  1  0  0  0  0
  3  2  1  0  0  0  0
  4  5  2  0  0  0  0
  5 13  1  0  0  0  0
  6  5  1  0  0  0  0
  6  7  1  0  0  0  0
  7  8  2  0  0  0  0
  9  7  2  0  0  0  0
 10  6  2  0  0  0  0
 11  1  2  0  0  0  0
 11 10  1  0  0  0  0
 14 10  1  0  0  0  0
 15 11  1  0  0  0  0
 16 12  1  0  0  0  0
 17 16  1  0  0  0  0
 18 17  2  0  0  0  0
 19 17  1  0  0  0  0
 19 21  1  0  0  0  0
 20 19  1  0  0  0  0
 22 19  1  0  0  0  0
M  RAD  3   2   2   3   3   4   2
M  END
