Coordinates from ORCA-job 4-NO2PhN2+~CF3COO-_B3LYPG-6-31G_dp-CH-Scan-d09-49-n800
 OpenBabel11261919433D

 22 21  0  0  0  0  0  0  0  0999 V2000
   -1.5988    0.4759   -0.4619 C   0  0  0  0  0  0  0  0  0  0  0  0
   -2.9563    0.5006   -0.8049 N   0  0  0  0  0  0  0  0  0  0  0  0
   -4.0358    0.5965   -1.0649 N   0  0  0  0  0  0  0  0  0  0  0  0
   -1.0816    1.7196   -0.0814 C   0  0  0  0  0  0  0  0  0  0  0  0
    0.2955    1.6124    0.2502 C   0  0  0  0  0  0  0  0  0  0  0  0
    0.9725    0.4030    0.1818 C   0  0  0  0  0  0  0  0  0  0  0  0
    2.4149    0.3597    0.5415 N   0  0  0  0  0  0  0  0  0  0  0  0
    2.9446    1.4088    0.8916 O   0  0  0  0  0  0  0  0  0  0  0  0
    2.9823   -0.7288    0.4637 O   0  0  0  0  0  0  0  0  0  0  0  0
    0.3746   -0.8094   -0.2132 C   0  0  0  0  0  0  0  0  0  0  0  0
   -0.9604   -0.7873   -0.5498 C   0  0  0  0  0  0  0  0  0  0  0  0
   -2.0796    3.4420   -0.0290 H   0  0  0  0  0  0  0  0  0  0  0  0
    0.8536    2.4873    0.5683 H   0  0  0  0  0  0  0  0  0  0  0  0
    0.9644   -1.7158   -0.2442 H   0  0  0  0  0  0  0  0  0  0  0  0
   -1.4868   -1.6831   -0.8639 H   0  0  0  0  0  0  0  0  0  0  0  0
   -2.5371    4.3447   -0.0022 O   0  0  0  0  0  0  0  0  0  0  0  0
   -3.7575    4.2541   -0.4795 C   0  0  0  0  0  0  0  0  0  0  0  0
   -4.3271    3.2643   -0.8922 O   0  0  0  0  0  0  0  0  0  0  0  0
   -4.4507    5.6362   -0.4631 C   0  0  0  0  0  0  0  0  0  0  0  0
   -5.6971    5.5456   -0.9382 F   0  0  0  0  0  0  0  0  0  0  0  0
   -4.5061    6.1201    0.7916 F   0  0  0  0  0  0  0  0  0  0  0  0
   -3.7670    6.5128   -1.2218 F   0  0  0  0  0  0  0  0  0  0  0  0
  1  4  1  0  0  0  0
  2  1  1  0  0  0  0
  3  2  1  0  0  0  0
  4  5  2  0  0  0  0
  5 13  1  0  0  0  0
  6  5  1  0  0  0  0
  6  7  1  0  0  0  0
  7  8  2  0  0  0  0
  9  7  2  0  0  0  0
 10  6  2  0  0  0  0
 11  1  2  0  0  0  0
 11 10  1  0  0  0  0
 12 16  1  0  0  0  0
 14 10  1  0  0  0  0
 15 11  1  0  0  0  0
 17 19  1  0  0  0  0
 17 16  1  0  0  0  0
 18 17  2  0  0  0  0
 19 21  1  0  0  0  0
 20 19  1  0  0  0  0
 22 19  1  0  0  0  0
M  RAD  3   2   2   3   3   4   2
M  END
