Coordinates from ORCA-job 4-NO2PhN2+~CF3COO-_B3LYPG-6-31G_dp-CH-Scan-d09-49-n800
 OpenBabel11261919433D

 22 21  0  0  0  0  0  0  0  0999 V2000
   -1.3773    0.4218   -0.4396 C   0  0  0  0  0  0  0  0  0  0  0  0
   -2.7317    0.5685   -0.7769 N   0  0  0  0  0  0  0  0  0  0  0  0
   -3.8039    0.7419   -1.0321 N   0  0  0  0  0  0  0  0  0  0  0  0
   -0.7767    1.6185   -0.0380 C   0  0  0  0  0  0  0  0  0  0  0  0
    0.5912    1.3903    0.2900 C   0  0  0  0  0  0  0  0  0  0  0  0
    1.1699    0.1332    0.1980 C   0  0  0  0  0  0  0  0  0  0  0  0
    2.6033   -0.0341    0.5577 N   0  0  0  0  0  0  0  0  0  0  0  0
    3.2179    0.9615    0.9273 O   0  0  0  0  0  0  0  0  0  0  0  0
    3.0827   -1.1631    0.4610 O   0  0  0  0  0  0  0  0  0  0  0  0
    0.4792   -1.0237   -0.2213 C   0  0  0  0  0  0  0  0  0  0  0  0
   -0.8483   -0.8909   -0.5568 C   0  0  0  0  0  0  0  0  0  0  0  0
   -2.2003    4.2264    0.0531 H   0  0  0  0  0  0  0  0  0  0  0  0
    1.2213    2.2085    0.6257 H   0  0  0  0  0  0  0  0  0  0  0  0
    0.9980   -1.9718   -0.2694 H   0  0  0  0  0  0  0  0  0  0  0  0
   -1.4444   -1.7360   -0.8882 H   0  0  0  0  0  0  0  0  0  0  0  0
   -2.7879    5.0050    0.0070 O   0  0  0  0  0  0  0  0  0  0  0  0
   -3.9704    4.6147   -0.4574 C   0  0  0  0  0  0  0  0  0  0  0  0
   -4.2948    3.4964   -0.7757 O   0  0  0  0  0  0  0  0  0  0  0  0
   -4.9284    5.8228   -0.5507 C   0  0  0  0  0  0  0  0  0  0  0  0
   -6.1304    5.4285   -0.9769 F   0  0  0  0  0  0  0  0  0  0  0  0
   -5.0662    6.4058    0.6526 F   0  0  0  0  0  0  0  0  0  0  0  0
   -4.4424    6.7350   -1.4110 F   0  0  0  0  0  0  0  0  0  0  0  0
  1  4  1  0  0  0  0
  2  1  1  0  0  0  0
  3  2  1  0  0  0  0
  4  5  2  0  0  0  0
  5 13  1  0  0  0  0
  6  5  1  0  0  0  0
  6  7  1  0  0  0  0
  7  8  2  0  0  0  0
  9  7  2  0  0  0  0
 10  6  2  0  0  0  0
 11  1  2  0  0  0  0
 11 10  1  0  0  0  0
 14 10  1  0  0  0  0
 15 11  1  0  0  0  0
 16 12  1  0  0  0  0
 17 16  1  0  0  0  0
 18 17  2  0  0  0  0
 19 17  1  0  0  0  0
 19 21  1  0  0  0  0
 20 19  1  0  0  0  0
 22 19  1  0  0  0  0
M  RAD  3   2   2   3   3   4   2
M  END
