Coordinates from ORCA-job 4-NO2PhN2+~CF3COO-_B3LYPG-6-31G_dp-CH-Scan-d09-49-n800
 OpenBabel11261919433D

 22 21  0  0  0  0  0  0  0  0999 V2000
   -1.3366    0.4115   -0.4346 C   0  0  0  0  0  0  0  0  0  0  0  0
   -2.6899    0.5820   -0.7687 N   0  0  0  0  0  0  0  0  0  0  0  0
   -3.7597    0.7759   -1.0200 N   0  0  0  0  0  0  0  0  0  0  0  0
   -0.7198    1.5989   -0.0315 C   0  0  0  0  0  0  0  0  0  0  0  0
    0.6455    1.3484    0.2940 C   0  0  0  0  0  0  0  0  0  0  0  0
    1.2050    0.0830    0.1990 C   0  0  0  0  0  0  0  0  0  0  0  0
    2.6359   -0.1071    0.5572 N   0  0  0  0  0  0  0  0  0  0  0  0
    3.2661    0.8781    0.9286 O   0  0  0  0  0  0  0  0  0  0  0  0
    3.0981   -1.2432    0.4586 O   0  0  0  0  0  0  0  0  0  0  0  0
    0.4965   -1.0629   -0.2223 C   0  0  0  0  0  0  0  0  0  0  0  0
   -0.8291   -0.9094   -0.5561 C   0  0  0  0  0  0  0  0  0  0  0  0
   -2.2240    4.3849    0.0744 H   0  0  0  0  0  0  0  0  0  0  0  0
    1.2888    2.1560    0.6306 H   0  0  0  0  0  0  0  0  0  0  0  0
    1.0011   -2.0185   -0.2728 H   0  0  0  0  0  0  0  0  0  0  0  0
   -1.4384   -1.7445   -0.8887 H   0  0  0  0  0  0  0  0  0  0  0  0
   -2.8419    5.1362    0.0115 O   0  0  0  0  0  0  0  0  0  0  0  0
   -4.0053    4.6852   -0.4511 C   0  0  0  0  0  0  0  0  0  0  0  0
   -4.2763    3.5483   -0.7501 O   0  0  0  0  0  0  0  0  0  0  0  0
   -5.0141    5.8490   -0.5688 C   0  0  0  0  0  0  0  0  0  0  0  0
   -6.1931    5.3972   -1.0016 F   0  0  0  0  0  0  0  0  0  0  0  0
   -5.1890    6.4390    0.6261 F   0  0  0  0  0  0  0  0  0  0  0  0
   -4.5594    6.7710   -1.4353 F   0  0  0  0  0  0  0  0  0  0  0  0
  1  4  1  0  0  0  0
  2  1  1  0  0  0  0
  3  2  1  0  0  0  0
  4  5  2  0  0  0  0
  5 13  1  0  0  0  0
  6  5  1  0  0  0  0
  6  7  1  0  0  0  0
  7  8  2  0  0  0  0
  9  7  2  0  0  0  0
 10  6  2  0  0  0  0
 11  1  2  0  0  0  0
 11 10  1  0  0  0  0
 14 10  1  0  0  0  0
 15 11  1  0  0  0  0
 16 12  1  0  0  0  0
 17 16  1  0  0  0  0
 18 17  2  0  0  0  0
 19 17  1  0  0  0  0
 19 21  1  0  0  0  0
 20 19  1  0  0  0  0
 22 19  1  0  0  0  0
M  RAD  3   2   2   3   3   4   2
M  END
