Coordinates from ORCA-job 4-NO2PhN2+~CF3COO-_B3LYPG-6-31G_dp-CH-Scan-d09-49-n800
 OpenBabel11261919433D

 22 21  0  0  0  0  0  0  0  0999 V2000
   -1.5711    0.4686   -0.4635 C   0  0  0  0  0  0  0  0  0  0  0  0
   -2.9277    0.5070   -0.8095 N   0  0  0  0  0  0  0  0  0  0  0  0
   -4.0063    0.6080   -1.0722 N   0  0  0  0  0  0  0  0  0  0  0  0
   -1.0448    1.7077   -0.0810 C   0  0  0  0  0  0  0  0  0  0  0  0
    0.3311    1.5864    0.2535 C   0  0  0  0  0  0  0  0  0  0  0  0
    0.9968    0.3709    0.1853 C   0  0  0  0  0  0  0  0  0  0  0  0
    2.4380    0.3132    0.5479 N   0  0  0  0  0  0  0  0  0  0  0  0
    2.9775    1.3568    0.8998 O   0  0  0  0  0  0  0  0  0  0  0  0
    2.9952   -0.7806    0.4706 O   0  0  0  0  0  0  0  0  0  0  0  0
    0.3885   -0.8361   -0.2122 C   0  0  0  0  0  0  0  0  0  0  0  0
   -0.9453   -0.8014   -0.5517 C   0  0  0  0  0  0  0  0  0  0  0  0
   -2.0973    3.5317   -0.0286 H   0  0  0  0  0  0  0  0  0  0  0  0
    0.8975    2.4550    0.5740 H   0  0  0  0  0  0  0  0  0  0  0  0
    0.9702   -1.7477   -0.2427 H   0  0  0  0  0  0  0  0  0  0  0  0
   -1.4794   -1.6920   -0.8677 H   0  0  0  0  0  0  0  0  0  0  0  0
   -2.5629    4.4194   -0.0105 O   0  0  0  0  0  0  0  0  0  0  0  0
   -3.7885    4.2954   -0.4746 C   0  0  0  0  0  0  0  0  0  0  0  0
   -4.3379    3.2873   -0.8660 O   0  0  0  0  0  0  0  0  0  0  0  0
   -4.5080    5.6636   -0.4704 C   0  0  0  0  0  0  0  0  0  0  0  0
   -5.7571    5.5404   -0.9296 F   0  0  0  0  0  0  0  0  0  0  0  0
   -4.5583    6.1644    0.7775 F   0  0  0  0  0  0  0  0  0  0  0  0
   -3.8498    6.5410   -1.2500 F   0  0  0  0  0  0  0  0  0  0  0  0
  1  4  1  0  0  0  0
  2  1  1  0  0  0  0
  3  2  1  0  0  0  0
  4  5  2  0  0  0  0
  5 13  1  0  0  0  0
  6  5  1  0  0  0  0
  6  7  1  0  0  0  0
  7  8  2  0  0  0  0
  9  7  2  0  0  0  0
 10  6  2  0  0  0  0
 11  1  2  0  0  0  0
 11 10  1  0  0  0  0
 12 16  1  0  0  0  0
 14 10  1  0  0  0  0
 15 11  1  0  0  0  0
 17 19  1  0  0  0  0
 17 16  1  0  0  0  0
 18 17  2  0  0  0  0
 19 21  1  0  0  0  0
 20 19  1  0  0  0  0
 22 19  1  0  0  0  0
M  RAD  3   2   2   3   3   4   2
M  END
