Coordinates from ORCA-job 4-NO2PhN2+~CF3COO-_B3LYPG-6-31G_dp-CH-Scan-d09-49-n800
 OpenBabel11261919433D

 22 22  0  0  0  0  0  0  0  0999 V2000
   -1.6867    0.7249   -0.3373 C   0  0  0  0  0  0  0  0  0  0  0  0
   -3.0688    0.6496   -0.6190 N   0  0  0  0  0  0  0  0  0  0  0  0
   -3.9944    1.3732   -0.7440 N   0  0  0  0  0  0  0  0  0  0  0  0
   -0.9655    1.9186   -0.1419 C   0  0  0  0  0  0  0  0  0  0  0  0
    0.3993    1.8361    0.1133 C   0  0  0  0  0  0  0  0  0  0  0  0
    1.0093    0.5845    0.1731 C   0  0  0  0  0  0  0  0  0  0  0  0
    2.4617    0.5143    0.4485 N   0  0  0  0  0  0  0  0  0  0  0  0
    3.0570    1.5759    0.6086 O   0  0  0  0  0  0  0  0  0  0  0  0
    2.9709   -0.6022    0.4982 O   0  0  0  0  0  0  0  0  0  0  0  0
    0.3085   -0.6040   -0.0169 C   0  0  0  0  0  0  0  0  0  0  0  0
   -1.0536   -0.5271   -0.2776 C   0  0  0  0  0  0  0  0  0  0  0  0
   -1.4791    2.8960   -0.1929 H   0  0  0  0  0  0  0  0  0  0  0  0
    0.9951    2.7266    0.2687 H   0  0  0  0  0  0  0  0  0  0  0  0
    0.8299   -1.5509    0.0384 H   0  0  0  0  0  0  0  0  0  0  0  0
   -1.6440   -1.4219   -0.4382 H   0  0  0  0  0  0  0  0  0  0  0  0
   -3.5624    2.9957   -0.4364 O   0  0  0  0  0  0  0  0  0  0  0  0
   -4.4736    3.8442   -0.8875 C   0  0  0  0  0  0  0  0  0  0  0  0
   -5.4537    3.6319   -1.5560 O   0  0  0  0  0  0  0  0  0  0  0  0
   -4.1090    5.2746   -0.3988 C   0  0  0  0  0  0  0  0  0  0  0  0
   -4.7934    6.1974   -1.0772 F   0  0  0  0  0  0  0  0  0  0  0  0
   -4.3976    5.4010    0.9107 F   0  0  0  0  0  0  0  0  0  0  0  0
   -2.7894    5.5209   -0.5575 F   0  0  0  0  0  0  0  0  0  0  0  0
  1 11  2  0  0  0  0
  1  4  1  0  0  0  0
  2  1  1  0  0  0  0
  3  2  1  0  0  0  0
  3 16  1  0  0  0  0
  4  5  2  0  0  0  0
  5  6  1  0  0  0  0
  5 13  1  0  0  0  0
  6  7  1  0  0  0  0
  7  9  2  0  0  0  0
  7  8  2  0  0  0  0
 10 14  1  0  0  0  0
 10  6  2  0  0  0  0
 11 10  1  0  0  0  0
 12  4  1  0  0  0  0
 15 11  1  0  0  0  0
 17 16  1  0  0  0  0
 17 19  1  0  0  0  0
 18 17  2  0  0  0  0
 19 21  1  0  0  0  0
 20 19  1  0  0  0  0
 22 19  1  0  0  0  0
M  RAD  2   2   2   3   2
M  END
