Coordinates from ORCA-job 4-NO2PhN2+~CF3COO-_B3LYPG-6-31G_dp-CH-Scan-d09-49-n800
 OpenBabel11261919433D

 22 21  0  0  0  0  0  0  0  0999 V2000
   -1.2460    0.3999   -0.4223 C   0  0  0  0  0  0  0  0  0  0  0  0
   -2.5940    0.6308   -0.7489 N   0  0  0  0  0  0  0  0  0  0  0  0
   -3.6549    0.8766   -0.9940 N   0  0  0  0  0  0  0  0  0  0  0  0
   -0.5811    1.5641   -0.0313 C   0  0  0  0  0  0  0  0  0  0  0  0
    0.7758    1.2554    0.2865 C   0  0  0  0  0  0  0  0  0  0  0  0
    1.2801   -0.0333    0.1970 C   0  0  0  0  0  0  0  0  0  0  0  0
    2.7035   -0.2827    0.5482 N   0  0  0  0  0  0  0  0  0  0  0  0
    3.3792    0.6773    0.9060 O   0  0  0  0  0  0  0  0  0  0  0  0
    3.1156   -1.4389    0.4587 O   0  0  0  0  0  0  0  0  0  0  0  0
    0.5205   -1.1515   -0.2121 C   0  0  0  0  0  0  0  0  0  0  0  0
   -0.7991   -0.9434   -0.5392 C   0  0  0  0  0  0  0  0  0  0  0  0
   -2.2667    4.8128    0.1282 H   0  0  0  0  0  0  0  0  0  0  0  0
    1.4563    2.0364    0.6132 H   0  0  0  0  0  0  0  0  0  0  0  0
    0.9836   -2.1280   -0.2587 H   0  0  0  0  0  0  0  0  0  0  0  0
   -1.4462   -1.7534   -0.8628 H   0  0  0  0  0  0  0  0  0  0  0  0
   -2.9705    5.4764    0.0222 O   0  0  0  0  0  0  0  0  0  0  0  0
   -4.0592    4.8575   -0.4370 C   0  0  0  0  0  0  0  0  0  0  0  0
   -4.1712    3.6836   -0.6857 O   0  0  0  0  0  0  0  0  0  0  0  0
   -5.2091    5.8738   -0.6110 C   0  0  0  0  0  0  0  0  0  0  0  0
   -6.2838    5.2712   -1.1231 F   0  0  0  0  0  0  0  0  0  0  0  0
   -5.5368    6.4071    0.5787 F   0  0  0  0  0  0  0  0  0  0  0  0
   -4.8356    6.8675   -1.4343 F   0  0  0  0  0  0  0  0  0  0  0  0
  1  4  1  0  0  0  0
  2  1  1  0  0  0  0
  3  2  1  0  0  0  0
  4  5  2  0  0  0  0
  5 13  1  0  0  0  0
  6  5  1  0  0  0  0
  6  7  1  0  0  0  0
  7  8  2  0  0  0  0
  9  7  2  0  0  0  0
 10  6  2  0  0  0  0
 11  1  2  0  0  0  0
 11 10  1  0  0  0  0
 14 10  1  0  0  0  0
 15 11  1  0  0  0  0
 16 12  1  0  0  0  0
 17 16  1  0  0  0  0
 18 17  2  0  0  0  0
 19 17  1  0  0  0  0
 19 21  1  0  0  0  0
 20 19  1  0  0  0  0
 22 19  1  0  0  0  0
M  RAD  3   2   2   3   3   4   2
M  END
