Coordinates from ORCA-job 4-NO2PhN2+~CF3COO-_B3LYPG-6-31G_dp-CH-Scan-d09-49-n800
 OpenBabel11261919433D

 22 21  0  0  0  0  0  0  0  0999 V2000
   -1.1028    0.4409   -0.5288 C   0  0  0  0  0  0  0  0  0  0  0  0
   -2.4101    0.7752   -0.9291 N   0  0  0  0  0  0  0  0  0  0  0  0
   -3.4301    1.1067   -1.2398 N   0  0  0  0  0  0  0  0  0  0  0  0
   -0.3463    1.5659   -0.1974 C   0  0  0  0  0  0  0  0  0  0  0  0
    0.9638    1.1569    0.1988 C   0  0  0  0  0  0  0  0  0  0  0  0
    1.3442   -0.1762    0.2290 C   0  0  0  0  0  0  0  0  0  0  0  0
    2.7231   -0.5295    0.6589 N   0  0  0  0  0  0  0  0  0  0  0  0
    3.4725    0.3874    0.9821 O   0  0  0  0  0  0  0  0  0  0  0  0
    3.0282   -1.7220    0.6643 O   0  0  0  0  0  0  0  0  0  0  0  0
    0.4954   -1.2477   -0.1285 C   0  0  0  0  0  0  0  0  0  0  0  0
   -0.7851   -0.9438   -0.5280 C   0  0  0  0  0  0  0  0  0  0  0  0
   -2.2865    5.4728   -0.0609 H   0  0  0  0  0  0  0  0  0  0  0  0
    1.7050    1.8948    0.4928 H   0  0  0  0  0  0  0  0  0  0  0  0
    0.8638   -2.2637   -0.0816 H   0  0  0  0  0  0  0  0  0  0  0  0
   -1.4948   -1.7127   -0.8197 H   0  0  0  0  0  0  0  0  0  0  0  0
   -3.1306    5.9541   -0.1090 O   0  0  0  0  0  0  0  0  0  0  0  0
   -4.0832    5.0795   -0.4433 C   0  0  0  0  0  0  0  0  0  0  0  0
   -3.9342    3.9035   -0.6559 O   0  0  0  0  0  0  0  0  0  0  0  0
   -5.4515    5.7916   -0.5173 C   0  0  0  0  0  0  0  0  0  0  0  0
   -6.3958    4.9336   -0.9075 F   0  0  0  0  0  0  0  0  0  0  0  0
   -5.7820    6.2809    0.6901 F   0  0  0  0  0  0  0  0  0  0  0  0
   -5.4026    6.8109   -1.3911 F   0  0  0  0  0  0  0  0  0  0  0  0
  1 11  2  0  0  0  0
  1  4  1  0  0  0  0
  2  1  1  0  0  0  0
  3  2  1  0  0  0  0
  4  5  2  0  0  0  0
  5  6  1  0  0  0  0
  5 13  1  0  0  0  0
  6  7  1  0  0  0  0
  7  9  2  0  0  0  0
  7  8  2  0  0  0  0
 10 14  1  0  0  0  0
 10  6  2  0  0  0  0
 11 10  1  0  0  0  0
 15 11  1  0  0  0  0
 16 12  1  0  0  0  0
 17 16  1  0  0  0  0
 18 17  2  0  0  0  0
 19 17  1  0  0  0  0
 19 21  1  0  0  0  0
 20 19  1  0  0  0  0
 22 19  1  0  0  0  0
M  RAD  3   2   2   3   3   4   2
M  END
