Coordinates from ORCA-job 4-NO2PhN2+~CF3COO-_B3LYPG-6-31G_dp-CH-Scan-d09-49-n800
 OpenBabel11261919433D

 22 21  0  0  0  0  0  0  0  0999 V2000
   -1.5248    0.4562   -0.4579 C   0  0  0  0  0  0  0  0  0  0  0  0
   -2.8815    0.5194   -0.8021 N   0  0  0  0  0  0  0  0  0  0  0  0
   -3.9594    0.6333   -1.0632 N   0  0  0  0  0  0  0  0  0  0  0  0
   -0.9813    1.6863   -0.0718 C   0  0  0  0  0  0  0  0  0  0  0  0
    0.3936    1.5405    0.2616 C   0  0  0  0  0  0  0  0  0  0  0  0
    1.0394    0.3148    0.1885 C   0  0  0  0  0  0  0  0  0  0  0  0
    2.4796    0.2319    0.5504 N   0  0  0  0  0  0  0  0  0  0  0  0
    3.0364    1.2647    0.9077 O   0  0  0  0  0  0  0  0  0  0  0  0
    3.0186   -0.8710    0.4709 O   0  0  0  0  0  0  0  0  0  0  0  0
    0.4118   -0.8815   -0.2135 C   0  0  0  0  0  0  0  0  0  0  0  0
   -0.9210   -0.8246   -0.5522 C   0  0  0  0  0  0  0  0  0  0  0  0
   -2.1262    3.6880   -0.0132 H   0  0  0  0  0  0  0  0  0  0  0  0
    0.9752    2.3979    0.5852 H   0  0  0  0  0  0  0  0  0  0  0  0
    0.9794   -1.8019   -0.2475 H   0  0  0  0  0  0  0  0  0  0  0  0
   -1.4696   -1.7055   -0.8713 H   0  0  0  0  0  0  0  0  0  0  0  0
   -2.6142    4.5508   -0.0078 O   0  0  0  0  0  0  0  0  0  0  0  0
   -3.8362    4.3694   -0.4740 C   0  0  0  0  0  0  0  0  0  0  0  0
   -4.3378    3.3340   -0.8523 O   0  0  0  0  0  0  0  0  0  0  0  0
   -4.6084    5.7079   -0.4878 C   0  0  0  0  0  0  0  0  0  0  0  0
   -5.8522    5.5268   -0.9405 F   0  0  0  0  0  0  0  0  0  0  0  0
   -4.6740    6.2245    0.7525 F   0  0  0  0  0  0  0  0  0  0  0  0
   -3.9870    6.5973   -1.2831 F   0  0  0  0  0  0  0  0  0  0  0  0
  1  4  1  0  0  0  0
  2  1  1  0  0  0  0
  3  2  1  0  0  0  0
  4  5  2  0  0  0  0
  5 13  1  0  0  0  0
  6  5  1  0  0  0  0
  6  7  1  0  0  0  0
  7  8  2  0  0  0  0
  9  7  2  0  0  0  0
 10  6  2  0  0  0  0
 11  1  2  0  0  0  0
 11 10  1  0  0  0  0
 12 16  1  0  0  0  0
 14 10  1  0  0  0  0
 15 11  1  0  0  0  0
 17 16  1  0  0  0  0
 18 17  2  0  0  0  0
 19 17  1  0  0  0  0
 19 21  1  0  0  0  0
 20 19  1  0  0  0  0
 22 19  1  0  0  0  0
M  RAD  3   2   2   3   3   4   2
M  END
