Coordinates from ORCA-job 4-NO2PhN2+~CF3COO-_B3LYPG-6-31G_dp-CH-Scan-d09-49-n800
 OpenBabel11261919433D

 22 21  0  0  0  0  0  0  0  0999 V2000
   -1.4558    0.4432   -0.4522 C   0  0  0  0  0  0  0  0  0  0  0  0
   -2.8112    0.5453   -0.7958 N   0  0  0  0  0  0  0  0  0  0  0  0
   -3.8867    0.6833   -1.0566 N   0  0  0  0  0  0  0  0  0  0  0  0
   -0.8843    1.6584   -0.0609 C   0  0  0  0  0  0  0  0  0  0  0  0
    0.4872    1.4726    0.2727 C   0  0  0  0  0  0  0  0  0  0  0  0
    1.1002    0.2307    0.1946 C   0  0  0  0  0  0  0  0  0  0  0  0
    2.5371    0.1070    0.5579 N   0  0  0  0  0  0  0  0  0  0  0  0
    3.1224    1.1229    0.9189 O   0  0  0  0  0  0  0  0  0  0  0  0
    3.0471   -1.0093    0.4729 O   0  0  0  0  0  0  0  0  0  0  0  0
    0.4418   -0.9477   -0.2138 C   0  0  0  0  0  0  0  0  0  0  0  0
   -0.8883   -0.8542   -0.5532 C   0  0  0  0  0  0  0  0  0  0  0  0
   -2.1541    3.9345    0.0042 H   0  0  0  0  0  0  0  0  0  0  0  0
    1.0927    2.3118    0.6011 H   0  0  0  0  0  0  0  0  0  0  0  0
    0.9857   -1.8822   -0.2513 H   0  0  0  0  0  0  0  0  0  0  0  0
   -1.4601   -1.7187   -0.8769 H   0  0  0  0  0  0  0  0  0  0  0  0
   -2.6870    4.7591   -0.0098 O   0  0  0  0  0  0  0  0  0  0  0  0
   -3.8980    4.4807   -0.4697 C   0  0  0  0  0  0  0  0  0  0  0  0
   -4.3202    3.4036   -0.8203 O   0  0  0  0  0  0  0  0  0  0  0  0
   -4.7598    5.7623   -0.5120 C   0  0  0  0  0  0  0  0  0  0  0  0
   -5.9902    5.4807   -0.9481 F   0  0  0  0  0  0  0  0  0  0  0  0
   -4.8511    6.3065    0.7141 F   0  0  0  0  0  0  0  0  0  0  0  0
   -4.2068    6.6687   -1.3375 F   0  0  0  0  0  0  0  0  0  0  0  0
  1  4  1  0  0  0  0
  2  1  1  0  0  0  0
  3  2  1  0  0  0  0
  4  5  2  0  0  0  0
  5 13  1  0  0  0  0
  6  5  1  0  0  0  0
  6  7  1  0  0  0  0
  7  8  2  0  0  0  0
  9  7  2  0  0  0  0
 10  6  2  0  0  0  0
 11  1  2  0  0  0  0
 11 10  1  0  0  0  0
 14 10  1  0  0  0  0
 15 11  1  0  0  0  0
 16 12  1  0  0  0  0
 17 16  1  0  0  0  0
 18 17  2  0  0  0  0
 19 17  1  0  0  0  0
 19 21  1  0  0  0  0
 20 19  1  0  0  0  0
 22 19  1  0  0  0  0
M  RAD  3   2   2   3   3   4   2
M  END
