Coordinates from ORCA-job 4-NO2PhN2+~CF3COO-_B3LYPG-6-31G_dp-CH-Scan-d09-49-n800
 OpenBabel11261919433D

 22 21  0  0  0  0  0  0  0  0999 V2000
   -1.1908    0.4111   -0.4594 C   0  0  0  0  0  0  0  0  0  0  0  0
   -2.5258    0.6806   -0.8115 N   0  0  0  0  0  0  0  0  0  0  0  0
   -3.5753    0.9571   -1.0731 N   0  0  0  0  0  0  0  0  0  0  0  0
   -0.4963    1.5609   -0.0790 C   0  0  0  0  0  0  0  0  0  0  0  0
    0.8450    1.2139    0.2669 C   0  0  0  0  0  0  0  0  0  0  0  0
    1.3082   -0.0920    0.2110 C   0  0  0  0  0  0  0  0  0  0  0  0
    2.7162   -0.3811    0.5923 N   0  0  0  0  0  0  0  0  0  0  0  0
    3.4171    0.5630    0.9442 O   0  0  0  0  0  0  0  0  0  0  0  0
    3.0912   -1.5519    0.5330 O   0  0  0  0  0  0  0  0  0  0  0  0
    0.5193   -1.1928   -0.1908 C   0  0  0  0  0  0  0  0  0  0  0  0
   -0.7870   -0.9483   -0.5448 C   0  0  0  0  0  0  0  0  0  0  0  0
   -2.2594    5.0696    0.0473 H   0  0  0  0  0  0  0  0  0  0  0  0
    1.5456    1.9786    0.5899 H   0  0  0  0  0  0  0  0  0  0  0  0
    0.9509   -2.1845   -0.2112 H   0  0  0  0  0  0  0  0  0  0  0  0
   -1.4547   -1.7428   -0.8653 H   0  0  0  0  0  0  0  0  0  0  0  0
   -3.0230    5.6668   -0.0342 O   0  0  0  0  0  0  0  0  0  0  0  0
   -4.0704    4.9467   -0.4415 C   0  0  0  0  0  0  0  0  0  0  0  0
   -4.0849    3.7649   -0.6749 O   0  0  0  0  0  0  0  0  0  0  0  0
   -5.3132    5.8536   -0.5768 C   0  0  0  0  0  0  0  0  0  0  0  0
   -6.3553    5.1432   -1.0128 F   0  0  0  0  0  0  0  0  0  0  0  0
   -5.6238    6.3929    0.6145 F   0  0  0  0  0  0  0  0  0  0  0  0
   -5.0729    6.8497   -1.4455 F   0  0  0  0  0  0  0  0  0  0  0  0
  1  4  1  0  0  0  0
  2  1  1  0  0  0  0
  3  2  1  0  0  0  0
  4  5  2  0  0  0  0
  5 13  1  0  0  0  0
  6  5  1  0  0  0  0
  6  7  1  0  0  0  0
  7  8  2  0  0  0  0
  9  7  2  0  0  0  0
 10  6  2  0  0  0  0
 11  1  2  0  0  0  0
 11 10  1  0  0  0  0
 14 10  1  0  0  0  0
 15 11  1  0  0  0  0
 16 12  1  0  0  0  0
 17 16  1  0  0  0  0
 18 17  2  0  0  0  0
 19 17  1  0  0  0  0
 19 21  1  0  0  0  0
 20 19  1  0  0  0  0
 22 19  1  0  0  0  0
M  RAD  3   2   2   3   3   4   2
M  END
