Coordinates from ORCA-job 4-NO2PhN2+~CF3COO-_B3LYPG-6-31G_dp-CH-Scan-d09-49-n800
 OpenBabel11261919433D

 22 22  0  0  0  0  0  0  0  0999 V2000
   -1.7041    0.7268   -0.3500 C   0  0  0  0  0  0  0  0  0  0  0  0
   -3.0854    0.6368   -0.6387 N   0  0  0  0  0  0  0  0  0  0  0  0
   -4.0033    1.3752   -0.7658 N   0  0  0  0  0  0  0  0  0  0  0  0
   -0.9946    1.9290   -0.1580 C   0  0  0  0  0  0  0  0  0  0  0  0
    0.3703    1.8528    0.1050 C   0  0  0  0  0  0  0  0  0  0  0  0
    0.9899    0.6071    0.1753 C   0  0  0  0  0  0  0  0  0  0  0  0
    2.4409    0.5492    0.4585 N   0  0  0  0  0  0  0  0  0  0  0  0
    3.0279    1.6160    0.6153 O   0  0  0  0  0  0  0  0  0  0  0  0
    2.9582   -0.5632    0.5177 O   0  0  0  0  0  0  0  0  0  0  0  0
    0.2983   -0.5871   -0.0118 C   0  0  0  0  0  0  0  0  0  0  0  0
   -1.0629   -0.5201   -0.2800 C   0  0  0  0  0  0  0  0  0  0  0  0
   -1.4448    2.7868   -0.2094 H   0  0  0  0  0  0  0  0  0  0  0  0
    0.9587    2.7488    0.2585 H   0  0  0  0  0  0  0  0  0  0  0  0
    0.8255   -1.5303    0.0515 H   0  0  0  0  0  0  0  0  0  0  0  0
   -1.6471   -1.4193   -0.4386 H   0  0  0  0  0  0  0  0  0  0  0  0
   -3.5501    2.9698   -0.4653 O   0  0  0  0  0  0  0  0  0  0  0  0
   -4.4654    3.8357   -0.8812 C   0  0  0  0  0  0  0  0  0  0  0  0
   -5.4678    3.6410   -1.5195 O   0  0  0  0  0  0  0  0  0  0  0  0
   -4.0651    5.2553   -0.3899 C   0  0  0  0  0  0  0  0  0  0  0  0
   -4.7544    6.1936   -1.0412 F   0  0  0  0  0  0  0  0  0  0  0  0
   -4.3170    5.3723    0.9279 F   0  0  0  0  0  0  0  0  0  0  0  0
   -2.7473    5.4831   -0.5821 F   0  0  0  0  0  0  0  0  0  0  0  0
  1 11  2  0  0  0  0
  1  4  1  0  0  0  0
  2  1  1  0  0  0  0
  3  2  1  0  0  0  0
  3 16  1  0  0  0  0
  4  5  2  0  0  0  0
  5  6  1  0  0  0  0
  5 13  1  0  0  0  0
  6  7  1  0  0  0  0
  7  9  2  0  0  0  0
  7  8  2  0  0  0  0
 10 14  1  0  0  0  0
 10  6  2  0  0  0  0
 11 10  1  0  0  0  0
 12  4  1  0  0  0  0
 15 11  1  0  0  0  0
 17 16  1  0  0  0  0
 17 19  1  0  0  0  0
 18 17  2  0  0  0  0
 19 21  1  0  0  0  0
 20 19  1  0  0  0  0
 22 19  1  0  0  0  0
M  RAD  2   2   2   3   2
M  END
