Coordinates from ORCA-job 4-NO2PhN2+~CF3COO-_B3LYPG-6-31G_dp-CH-Scan-d09-49-n800
 OpenBabel11261919433D

 22 21  0  0  0  0  0  0  0  0999 V2000
   -1.5074    0.4523   -0.4563 C   0  0  0  0  0  0  0  0  0  0  0  0
   -2.8639    0.5251   -0.8003 N   0  0  0  0  0  0  0  0  0  0  0  0
   -3.9413    0.6447   -1.0613 N   0  0  0  0  0  0  0  0  0  0  0  0
   -0.9573    1.6787   -0.0686 C   0  0  0  0  0  0  0  0  0  0  0  0
    0.4169    1.5232    0.2649 C   0  0  0  0  0  0  0  0  0  0  0  0
    1.0549    0.2936    0.1903 C   0  0  0  0  0  0  0  0  0  0  0  0
    2.4944    0.2007    0.5526 N   0  0  0  0  0  0  0  0  0  0  0  0
    3.0585    1.2297    0.9098 O   0  0  0  0  0  0  0  0  0  0  0  0
    3.0268   -0.9052    0.4703 O   0  0  0  0  0  0  0  0  0  0  0  0
    0.4199   -0.8984   -0.2136 C   0  0  0  0  0  0  0  0  0  0  0  0
   -0.9124   -0.8327   -0.5525 C   0  0  0  0  0  0  0  0  0  0  0  0
   -2.1348    3.7483   -0.0080 H   0  0  0  0  0  0  0  0  0  0  0  0
    1.0044    2.3762    0.5899 H   0  0  0  0  0  0  0  0  0  0  0  0
    0.9819   -1.8222   -0.2486 H   0  0  0  0  0  0  0  0  0  0  0  0
   -1.4665   -1.7096   -0.8729 H   0  0  0  0  0  0  0  0  0  0  0  0
   -2.6329    4.6018   -0.0076 O   0  0  0  0  0  0  0  0  0  0  0  0
   -3.8528    4.3973   -0.4732 C   0  0  0  0  0  0  0  0  0  0  0  0
   -4.3355    3.3514   -0.8453 O   0  0  0  0  0  0  0  0  0  0  0  0
   -4.6463    5.7230   -0.4941 C   0  0  0  0  0  0  0  0  0  0  0  0
   -5.8877    5.5181   -0.9430 F   0  0  0  0  0  0  0  0  0  0  0  0
   -4.7176    6.2466    0.7427 F   0  0  0  0  0  0  0  0  0  0  0  0
   -4.0409    6.6166   -1.2969 F   0  0  0  0  0  0  0  0  0  0  0  0
  1  4  1  0  0  0  0
  2  1  1  0  0  0  0
  3  2  1  0  0  0  0
  4  5  2  0  0  0  0
  5 13  1  0  0  0  0
  6  5  1  0  0  0  0
  6  7  1  0  0  0  0
  7  8  2  0  0  0  0
  9  7  2  0  0  0  0
 10  6  2  0  0  0  0
 11  1  2  0  0  0  0
 11 10  1  0  0  0  0
 12 16  1  0  0  0  0
 14 10  1  0  0  0  0
 15 11  1  0  0  0  0
 17 16  1  0  0  0  0
 18 17  2  0  0  0  0
 19 17  1  0  0  0  0
 19 21  1  0  0  0  0
 20 19  1  0  0  0  0
 22 19  1  0  0  0  0
M  RAD  3   2   2   3   3   4   2
M  END
