Coordinates from ORCA-job 4-NO2PhN2+~CF3COO-_B3LYPG-6-31G_dp-CH-Scan-d09-49-n800
 OpenBabel11261919433D

 22 22  0  0  0  0  0  0  0  0999 V2000
   -1.6691    0.7137   -0.3123 C   0  0  0  0  0  0  0  0  0  0  0  0
   -3.0530    0.6603   -0.5785 N   0  0  0  0  0  0  0  0  0  0  0  0
   -3.9877    1.3638   -0.6973 N   0  0  0  0  0  0  0  0  0  0  0  0
   -0.9398    1.8981   -0.1058 C   0  0  0  0  0  0  0  0  0  0  0  0
    0.4255    1.8148    0.1344 C   0  0  0  0  0  0  0  0  0  0  0  0
    1.0299    0.5587    0.1684 C   0  0  0  0  0  0  0  0  0  0  0  0
    2.4852    0.4784    0.4289 N   0  0  0  0  0  0  0  0  0  0  0  0
    3.0864    1.5354    0.5966 O   0  0  0  0  0  0  0  0  0  0  0  0
    2.9911   -0.6404    0.4508 O   0  0  0  0  0  0  0  0  0  0  0  0
    0.3235   -0.6250   -0.0328 C   0  0  0  0  0  0  0  0  0  0  0  0
   -1.0411   -0.5423   -0.2782 C   0  0  0  0  0  0  0  0  0  0  0  0
   -1.5463    3.0137   -0.1440 H   0  0  0  0  0  0  0  0  0  0  0  0
    1.0258    2.7007    0.2975 H   0  0  0  0  0  0  0  0  0  0  0  0
    0.8433   -1.5737    0.0031 H   0  0  0  0  0  0  0  0  0  0  0  0
   -1.6350   -1.4336   -0.4459 H   0  0  0  0  0  0  0  0  0  0  0  0
   -3.5817    3.0320   -0.3767 O   0  0  0  0  0  0  0  0  0  0  0  0
   -4.4707    3.8573   -0.8976 C   0  0  0  0  0  0  0  0  0  0  0  0
   -5.4044    3.6207   -1.6245 O   0  0  0  0  0  0  0  0  0  0  0  0
   -4.1569    5.3034   -0.4178 C   0  0  0  0  0  0  0  0  0  0  0  0
   -4.8332    6.2027   -1.1352 F   0  0  0  0  0  0  0  0  0  0  0  0
   -4.4946    5.4460    0.8781 F   0  0  0  0  0  0  0  0  0  0  0  0
   -2.8367    5.5743   -0.5330 F   0  0  0  0  0  0  0  0  0  0  0  0
  1 11  2  0  0  0  0
  1  4  1  0  0  0  0
  2  1  1  0  0  0  0
  3  2  1  0  0  0  0
  3 16  1  0  0  0  0
  4  5  2  0  0  0  0
  5  6  1  0  0  0  0
  5 13  1  0  0  0  0
  6  7  1  0  0  0  0
  7  9  2  0  0  0  0
  7  8  2  0  0  0  0
 10 14  1  0  0  0  0
 10  6  2  0  0  0  0
 11 10  1  0  0  0  0
 12  4  1  0  0  0  0
 15 11  1  0  0  0  0
 17 19  1  0  0  0  0
 17 16  1  0  0  0  0
 18 17  2  0  0  0  0
 19 21  1  0  0  0  0
 20 19  1  0  0  0  0
 22 19  1  0  0  0  0
M  RAD  2   2   2   3   2
M  END
