Coordinates from ORCA-job 4-NO2PhN2+~CF3COO-_B3LYPG-6-31G_dp-CH-Scan-d09-49-n800
 OpenBabel11261919433D

 22 21  0  0  0  0  0  0  0  0999 V2000
   -1.3037    0.4063   -0.4293 C   0  0  0  0  0  0  0  0  0  0  0  0
   -2.6555    0.5979   -0.7606 N   0  0  0  0  0  0  0  0  0  0  0  0
   -3.7226    0.8096   -1.0097 N   0  0  0  0  0  0  0  0  0  0  0  0
   -0.6704    1.5858   -0.0297 C   0  0  0  0  0  0  0  0  0  0  0  0
    0.6924    1.3149    0.2926 C   0  0  0  0  0  0  0  0  0  0  0  0
    1.2330    0.0412    0.1985 C   0  0  0  0  0  0  0  0  0  0  0  0
    2.6617   -0.1695    0.5539 N   0  0  0  0  0  0  0  0  0  0  0  0
    3.3077    0.8070    0.9213 O   0  0  0  0  0  0  0  0  0  0  0  0
    3.1067   -1.3127    0.4574 O   0  0  0  0  0  0  0  0  0  0  0  0
    0.5067   -1.0952   -0.2191 C   0  0  0  0  0  0  0  0  0  0  0  0
   -0.8171   -0.9227   -0.5502 C   0  0  0  0  0  0  0  0  0  0  0  0
   -2.2387    4.5300    0.0911 H   0  0  0  0  0  0  0  0  0  0  0  0
    1.3488    2.1132    0.6262 H   0  0  0  0  0  0  0  0  0  0  0  0
    0.9972   -2.0582   -0.2690 H   0  0  0  0  0  0  0  0  0  0  0  0
   -1.4397   -1.7490   -0.8802 H   0  0  0  0  0  0  0  0  0  0  0  0
   -2.8857    5.2538    0.0135 O   0  0  0  0  0  0  0  0  0  0  0  0
   -4.0277    4.7455   -0.4466 C   0  0  0  0  0  0  0  0  0  0  0  0
   -4.2468    3.5933   -0.7269 O   0  0  0  0  0  0  0  0  0  0  0  0
   -5.0855    5.8628   -0.5841 C   0  0  0  0  0  0  0  0  0  0  0  0
   -6.2314    5.3592   -1.0469 F   0  0  0  0  0  0  0  0  0  0  0  0
   -5.3150    6.4357    0.6101 F   0  0  0  0  0  0  0  0  0  0  0  0
   -4.6539    6.8103   -1.4340 F   0  0  0  0  0  0  0  0  0  0  0  0
  1  4  1  0  0  0  0
  2  1  1  0  0  0  0
  3  2  1  0  0  0  0
  4  5  2  0  0  0  0
  5 13  1  0  0  0  0
  6  5  1  0  0  0  0
  6  7  1  0  0  0  0
  7  8  2  0  0  0  0
  9  7  2  0  0  0  0
 10  6  2  0  0  0  0
 11  1  2  0  0  0  0
 11 10  1  0  0  0  0
 14 10  1  0  0  0  0
 15 11  1  0  0  0  0
 16 12  1  0  0  0  0
 17 16  1  0  0  0  0
 18 17  2  0  0  0  0
 19 17  1  0  0  0  0
 19 21  1  0  0  0  0
 20 19  1  0  0  0  0
 22 19  1  0  0  0  0
M  RAD  3   2   2   3   3   4   2
M  END
