Coordinates from ORCA-job 4-NO2PhN2+~CF3COO-_B3LYPG-6-31G_dp-CH-Scan-d09-49-n800
 OpenBabel11261919433D

 22 21  0  0  0  0  0  0  0  0999 V2000
   -0.7979    1.0512   -1.6039 C   0  0  0  0  0  0  0  0  0  0  0  0
   -1.6792    1.4229   -2.6347 N   0  0  0  0  0  0  0  0  0  0  0  0
   -2.3007    1.7371   -3.5071 N   0  0  0  0  0  0  0  0  0  0  0  0
    0.5321    1.1776   -2.0035 C   0  0  0  0  0  0  0  0  0  0  0  0
    1.3907    0.7722   -0.9364 C   0  0  0  0  0  0  0  0  0  0  0  0
    0.8919    0.3110    0.2731 C   0  0  0  0  0  0  0  0  0  0  0  0
    1.8409   -0.1130    1.3362 N   0  0  0  0  0  0  0  0  0  0  0  0
    3.0401   -0.0870    1.0758 O   0  0  0  0  0  0  0  0  0  0  0  0
    1.3647   -0.4611    2.4171 O   0  0  0  0  0  0  0  0  0  0  0  0
   -0.4854    0.2247    0.5790 C   0  0  0  0  0  0  0  0  0  0  0  0
   -1.3840    0.6119   -0.3879 C   0  0  0  0  0  0  0  0  0  0  0  0
   -1.9952    5.0636   -0.4465 H   0  0  0  0  0  0  0  0  0  0  0  0
    2.4706    0.8129   -1.0528 H   0  0  0  0  0  0  0  0  0  0  0  0
   -0.7973   -0.1337    1.5506 H   0  0  0  0  0  0  0  0  0  0  0  0
   -2.4573    0.5955   -0.2260 H   0  0  0  0  0  0  0  0  0  0  0  0
   -2.8553    5.2033   -0.0137 O   0  0  0  0  0  0  0  0  0  0  0  0
   -3.6258    4.1459   -0.2711 C   0  0  0  0  0  0  0  0  0  0  0  0
   -3.3199    3.1824   -0.9298 O   0  0  0  0  0  0  0  0  0  0  0  0
   -5.0099    4.3186    0.3926 C   0  0  0  0  0  0  0  0  0  0  0  0
   -5.7548    3.2323    0.1827 F   0  0  0  0  0  0  0  0  0  0  0  0
   -4.8720    4.5055    1.7142 F   0  0  0  0  0  0  0  0  0  0  0  0
   -5.6358    5.3855   -0.1294 F   0  0  0  0  0  0  0  0  0  0  0  0
  1 11  1  0  0  0  0
  2  1  1  0  0  0  0
  3  2  1  0  0  0  0
  4  1  2  0  0  0  0
  4  5  1  0  0  0  0
  5  6  2  0  0  0  0
  6 10  1  0  0  0  0
  6  7  1  0  0  0  0
  7  9  2  0  0  0  0
  8  7  2  0  0  0  0
 10 14  1  0  0  0  0
 11 15  1  0  0  0  0
 11 10  2  0  0  0  0
 12 16  1  0  0  0  0
 13  5  1  0  0  0  0
 17 16  1  0  0  0  0
 17 19  1  0  0  0  0
 18 17  2  0  0  0  0
 19 21  1  0  0  0  0
 20 19  1  0  0  0  0
 22 19  1  0  0  0  0
M  RAD  3   2   2   3   3   4   2
M  END
