Coordinates from ORCA-job 4-NO2PhN2+~CF3COO-_B3LYPG-6-31G_dp-CH-Scan-d09-49-n800
 OpenBabel11261919433D

 22 21  0  0  0  0  0  0  0  0999 V2000
   -0.8388    1.0330   -1.6164 C   0  0  0  0  0  0  0  0  0  0  0  0
   -1.7207    1.3761   -2.6565 N   0  0  0  0  0  0  0  0  0  0  0  0
   -2.3486    1.6676   -3.5321 N   0  0  0  0  0  0  0  0  0  0  0  0
    0.4868    1.2805   -1.9715 C   0  0  0  0  0  0  0  0  0  0  0  0
    1.3466    0.9014   -0.8956 C   0  0  0  0  0  0  0  0  0  0  0  0
    0.8547    0.3567    0.2815 C   0  0  0  0  0  0  0  0  0  0  0  0
    1.8062   -0.0309    1.3562 N   0  0  0  0  0  0  0  0  0  0  0  0
    3.0055    0.1088    1.1357 O   0  0  0  0  0  0  0  0  0  0  0  0
    1.3315   -0.4655    2.4060 O   0  0  0  0  0  0  0  0  0  0  0  0
   -0.5188    0.1495    0.5433 C   0  0  0  0  0  0  0  0  0  0  0  0
   -1.4194    0.5014   -0.4352 C   0  0  0  0  0  0  0  0  0  0  0  0
   -1.8986    4.9271   -0.4679 H   0  0  0  0  0  0  0  0  0  0  0  0
    2.4225    1.0312   -0.9787 H   0  0  0  0  0  0  0  0  0  0  0  0
   -0.8270   -0.2694    1.4916 H   0  0  0  0  0  0  0  0  0  0  0  0
   -2.4916    0.3911   -0.3055 H   0  0  0  0  0  0  0  0  0  0  0  0
   -2.7417    5.1116   -0.0189 O   0  0  0  0  0  0  0  0  0  0  0  0
   -3.5780    4.1046   -0.2738 C   0  0  0  0  0  0  0  0  0  0  0  0
   -3.3419    3.1315   -0.9468 O   0  0  0  0  0  0  0  0  0  0  0  0
   -4.9387    4.3540    0.4134 C   0  0  0  0  0  0  0  0  0  0  0  0
   -5.7447    3.3082    0.2236 F   0  0  0  0  0  0  0  0  0  0  0  0
   -4.7686    4.5409    1.7311 F   0  0  0  0  0  0  0  0  0  0  0  0
   -5.5160    5.4499   -0.1052 F   0  0  0  0  0  0  0  0  0  0  0  0
  1 11  1  0  0  0  0
  2  1  1  0  0  0  0
  3  2  1  0  0  0  0
  4  1  2  0  0  0  0
  4  5  1  0  0  0  0
  5  6  2  0  0  0  0
  6 10  1  0  0  0  0
  6  7  1  0  0  0  0
  7  9  2  0  0  0  0
  8  7  2  0  0  0  0
 10 14  1  0  0  0  0
 11 15  1  0  0  0  0
 11 10  2  0  0  0  0
 12 16  1  0  0  0  0
 13  5  1  0  0  0  0
 17 16  1  0  0  0  0
 17 19  1  0  0  0  0
 18 17  2  0  0  0  0
 19 21  1  0  0  0  0
 20 19  1  0  0  0  0
 22 19  1  0  0  0  0
M  RAD  3   2   2   3   3   4   2
M  END
