Coordinates from ORCA-job 4-NO2PhN2+~CF3COO-_B3LYPG-6-31G_dp-CH-Scan-d09-49-n800
 OpenBabel11261919433D

 22 21  0  0  0  0  0  0  0  0999 V2000
   -1.1613    0.4190   -0.4857 C   0  0  0  0  0  0  0  0  0  0  0  0
   -2.4870    0.7091   -0.8571 N   0  0  0  0  0  0  0  0  0  0  0  0
   -3.5259    1.0035   -1.1407 N   0  0  0  0  0  0  0  0  0  0  0  0
   -0.4494    1.5615   -0.1161 C   0  0  0  0  0  0  0  0  0  0  0  0
    0.8817    1.1945    0.2492 C   0  0  0  0  0  0  0  0  0  0  0  0
    1.3202   -0.1207    0.2190 C   0  0  0  0  0  0  0  0  0  0  0  0
    2.7184   -0.4304    0.6197 N   0  0  0  0  0  0  0  0  0  0  0  0
    3.4339    0.5057    0.9636 O   0  0  0  0  0  0  0  0  0  0  0  0
    3.0729   -1.6084    0.5785 O   0  0  0  0  0  0  0  0  0  0  0  0
    0.5145   -1.2127   -0.1738 C   0  0  0  0  0  0  0  0  0  0  0  0
   -0.7831   -0.9491   -0.5457 C   0  0  0  0  0  0  0  0  0  0  0  0
   -2.2643    5.2009    0.0163 H   0  0  0  0  0  0  0  0  0  0  0  0
    1.5935    1.9510    0.5671 H   0  0  0  0  0  0  0  0  0  0  0  0
    0.9273   -2.2126   -0.1740 H   0  0  0  0  0  0  0  0  0  0  0  0
   -1.4624   -1.7357   -0.8612 H   0  0  0  0  0  0  0  0  0  0  0  0
   -3.0575    5.7605   -0.0477 O   0  0  0  0  0  0  0  0  0  0  0  0
   -4.0760    4.9907   -0.4381 C   0  0  0  0  0  0  0  0  0  0  0  0
   -4.0355    3.8105   -0.6760 O   0  0  0  0  0  0  0  0  0  0  0  0
   -5.3625    5.8372   -0.5540 C   0  0  0  0  0  0  0  0  0  0  0  0
   -6.3873    5.0674   -0.9252 F   0  0  0  0  0  0  0  0  0  0  0  0
   -5.6534    6.4078    0.6272 F   0  0  0  0  0  0  0  0  0  0  0  0
   -5.1966    6.8095   -1.4671 F   0  0  0  0  0  0  0  0  0  0  0  0
  1  4  1  0  0  0  0
  2  1  1  0  0  0  0
  3  2  1  0  0  0  0
  4  5  2  0  0  0  0
  5 13  1  0  0  0  0
  6  5  1  0  0  0  0
  6  7  1  0  0  0  0
  7  8  2  0  0  0  0
  9  7  2  0  0  0  0
 10  6  2  0  0  0  0
 11  1  2  0  0  0  0
 11 10  1  0  0  0  0
 14 10  1  0  0  0  0
 15 11  1  0  0  0  0
 16 12  1  0  0  0  0
 17 16  1  0  0  0  0
 18 17  2  0  0  0  0
 19 17  1  0  0  0  0
 19 21  1  0  0  0  0
 20 19  1  0  0  0  0
 22 19  1  0  0  0  0
M  RAD  3   2   2   3   3   4   2
M  END
