Coordinates from ORCA-job 4-NO2PhN2+~CF3COO-_B3LYPG-6-31G_dp-CH-Scan-d09-49-n800
 OpenBabel11261919433D

 22 21  0  0  0  0  0  0  0  0999 V2000
   -1.6147    0.4803   -0.4635 C   0  0  0  0  0  0  0  0  0  0  0  0
   -2.9723    0.4973   -0.8063 N   0  0  0  0  0  0  0  0  0  0  0  0
   -4.0521    0.5918   -1.0657 N   0  0  0  0  0  0  0  0  0  0  0  0
   -1.1027    1.7267   -0.0847 C   0  0  0  0  0  0  0  0  0  0  0  0
    0.2744    1.6282    0.2468 C   0  0  0  0  0  0  0  0  0  0  0  0
    0.9578    0.4221    0.1803 C   0  0  0  0  0  0  0  0  0  0  0  0
    2.4004    0.3872    0.5401 N   0  0  0  0  0  0  0  0  0  0  0  0
    2.9241    1.4398    0.8888 O   0  0  0  0  0  0  0  0  0  0  0  0
    2.9736   -0.6982    0.4636 O   0  0  0  0  0  0  0  0  0  0  0  0
    0.3661   -0.7936   -0.2127 C   0  0  0  0  0  0  0  0  0  0  0  0
   -0.9691   -0.7790   -0.5493 C   0  0  0  0  0  0  0  0  0  0  0  0
   -2.0666    3.3879   -0.0339 H   0  0  0  0  0  0  0  0  0  0  0  0
    0.8272    2.5069    0.5634 H   0  0  0  0  0  0  0  0  0  0  0  0
    0.9605   -1.6971   -0.2426 H   0  0  0  0  0  0  0  0  0  0  0  0
   -1.4908   -1.6780   -0.8620 H   0  0  0  0  0  0  0  0  0  0  0  0
   -2.5201    4.3013   -0.0025 O   0  0  0  0  0  0  0  0  0  0  0  0
   -3.7392    4.2295   -0.4807 C   0  0  0  0  0  0  0  0  0  0  0  0
   -4.3234    3.2498   -0.9001 O   0  0  0  0  0  0  0  0  0  0  0  0
   -4.4170    5.6194   -0.4571 C   0  0  0  0  0  0  0  0  0  0  0  0
   -5.6636    5.5472   -0.9354 F   0  0  0  0  0  0  0  0  0  0  0  0
   -4.4699    6.0964    0.8006 F   0  0  0  0  0  0  0  0  0  0  0  0
   -3.7219    6.4936   -1.2086 F   0  0  0  0  0  0  0  0  0  0  0  0
  1  4  1  0  0  0  0
  2  1  1  0  0  0  0
  3  2  1  0  0  0  0
  4  5  2  0  0  0  0
  5 13  1  0  0  0  0
  6  5  1  0  0  0  0
  6  7  1  0  0  0  0
  7  8  2  0  0  0  0
  9  7  2  0  0  0  0
 10  6  2  0  0  0  0
 11  1  2  0  0  0  0
 11 10  1  0  0  0  0
 12 16  1  0  0  0  0
 14 10  1  0  0  0  0
 15 11  1  0  0  0  0
 17 19  1  0  0  0  0
 17 16  1  0  0  0  0
 18 17  2  0  0  0  0
 19 21  1  0  0  0  0
 20 19  1  0  0  0  0
 22 19  1  0  0  0  0
M  RAD  3   2   2   3   3   4   2
M  END
