Coordinates from ORCA-job 4-NO2PhN2+~CF3COO-_B3LYPG-6-31G_dp-CH-Scan-d09-49-n800
 OpenBabel11261919433D

 22 21  0  0  0  0  0  0  0  0999 V2000
   -1.3129    0.4076   -0.4311 C   0  0  0  0  0  0  0  0  0  0  0  0
   -2.6651    0.5930   -0.7634 N   0  0  0  0  0  0  0  0  0  0  0  0
   -3.7331    0.7996   -1.0130 N   0  0  0  0  0  0  0  0  0  0  0  0
   -0.6847    1.5893   -0.0300 C   0  0  0  0  0  0  0  0  0  0  0  0
    0.6789    1.3244    0.2935 C   0  0  0  0  0  0  0  0  0  0  0  0
    1.2252    0.0532    0.1989 C   0  0  0  0  0  0  0  0  0  0  0  0
    2.6544   -0.1515    0.5554 N   0  0  0  0  0  0  0  0  0  0  0  0
    3.2956    0.8274    0.9247 O   0  0  0  0  0  0  0  0  0  0  0  0
    3.1047   -1.2926    0.4579 O   0  0  0  0  0  0  0  0  0  0  0  0
    0.5043   -1.0860   -0.2204 C   0  0  0  0  0  0  0  0  0  0  0  0
   -0.8200   -0.9190   -0.5526 C   0  0  0  0  0  0  0  0  0  0  0  0
   -2.2351    4.4864    0.0859 H   0  0  0  0  0  0  0  0  0  0  0  0
    1.3313    2.1254    0.6284 H   0  0  0  0  0  0  0  0  0  0  0  0
    0.9990   -2.0467   -0.2707 H   0  0  0  0  0  0  0  0  0  0  0  0
   -1.4386   -1.7479   -0.8838 H   0  0  0  0  0  0  0  0  0  0  0  0
   -2.8733    5.2188    0.0128 O   0  0  0  0  0  0  0  0  0  0  0  0
   -4.0223    4.7279   -0.4479 C   0  0  0  0  0  0  0  0  0  0  0  0
   -4.2573    3.5801   -0.7339 O   0  0  0  0  0  0  0  0  0  0  0  0
   -5.0651    5.8598   -0.5795 C   0  0  0  0  0  0  0  0  0  0  0  0
   -6.2225    5.3715   -1.0300 F   0  0  0  0  0  0  0  0  0  0  0  0
   -5.2755    6.4409    0.6142 F   0  0  0  0  0  0  0  0  0  0  0  0
   -4.6274    6.7976   -1.4372 F   0  0  0  0  0  0  0  0  0  0  0  0
  1  4  1  0  0  0  0
  2  1  1  0  0  0  0
  3  2  1  0  0  0  0
  4  5  2  0  0  0  0
  5 13  1  0  0  0  0
  6  5  1  0  0  0  0
  6  7  1  0  0  0  0
  7  8  2  0  0  0  0
  9  7  2  0  0  0  0
 10  6  2  0  0  0  0
 11  1  2  0  0  0  0
 11 10  1  0  0  0  0
 14 10  1  0  0  0  0
 15 11  1  0  0  0  0
 16 12  1  0  0  0  0
 17 16  1  0  0  0  0
 18 17  2  0  0  0  0
 19 17  1  0  0  0  0
 19 21  1  0  0  0  0
 20 19  1  0  0  0  0
 22 19  1  0  0  0  0
M  RAD  3   2   2   3   3   4   2
M  END
