Coordinates from ORCA-job 4-NO2PhN2+~CF3COO-_B3LYPG-6-31G_dp-CH-Scan-d09-49-n800
 OpenBabel11261919433D

 22 21  0  0  0  0  0  0  0  0999 V2000
   -1.3857    0.4245   -0.4408 C   0  0  0  0  0  0  0  0  0  0  0  0
   -2.7404    0.5663   -0.7782 N   0  0  0  0  0  0  0  0  0  0  0  0
   -3.8129    0.7353   -1.0349 N   0  0  0  0  0  0  0  0  0  0  0  0
   -0.7880    1.6230   -0.0403 C   0  0  0  0  0  0  0  0  0  0  0  0
    0.5804    1.3993    0.2880 C   0  0  0  0  0  0  0  0  0  0  0  0
    1.1627    0.1438    0.1972 C   0  0  0  0  0  0  0  0  0  0  0  0
    2.5966   -0.0190    0.5568 N   0  0  0  0  0  0  0  0  0  0  0  0
    3.2077    0.9782    0.9275 O   0  0  0  0  0  0  0  0  0  0  0  0
    3.0786   -1.1472    0.4631 O   0  0  0  0  0  0  0  0  0  0  0  0
    0.4752   -1.0154   -0.2209 C   0  0  0  0  0  0  0  0  0  0  0  0
   -0.8527   -0.8868   -0.5565 C   0  0  0  0  0  0  0  0  0  0  0  0
   -2.1951    4.1944    0.0479 H   0  0  0  0  0  0  0  0  0  0  0  0
    1.2080    2.2198    0.6229 H   0  0  0  0  0  0  0  0  0  0  0  0
    0.9967   -1.9621   -0.2680 H   0  0  0  0  0  0  0  0  0  0  0  0
   -1.4463   -1.7339   -0.8869 H   0  0  0  0  0  0  0  0  0  0  0  0
   -2.7766    4.9783    0.0056 O   0  0  0  0  0  0  0  0  0  0  0  0
   -3.9626    4.6001   -0.4587 C   0  0  0  0  0  0  0  0  0  0  0  0
   -4.2977    3.4859   -0.7809 O   0  0  0  0  0  0  0  0  0  0  0  0
   -4.9106    5.8165   -0.5466 C   0  0  0  0  0  0  0  0  0  0  0  0
   -6.1162    5.4340   -0.9735 F   0  0  0  0  0  0  0  0  0  0  0  0
   -5.0428    6.3959    0.6591 F   0  0  0  0  0  0  0  0  0  0  0  0
   -4.4178    6.7282   -1.4036 F   0  0  0  0  0  0  0  0  0  0  0  0
  1  4  1  0  0  0  0
  2  1  1  0  0  0  0
  3  2  1  0  0  0  0
  4  5  2  0  0  0  0
  5 13  1  0  0  0  0
  6  5  1  0  0  0  0
  6  7  1  0  0  0  0
  7  8  2  0  0  0  0
  9  7  2  0  0  0  0
 10  6  2  0  0  0  0
 11  1  2  0  0  0  0
 11 10  1  0  0  0  0
 14 10  1  0  0  0  0
 15 11  1  0  0  0  0
 16 12  1  0  0  0  0
 17 16  1  0  0  0  0
 18 17  2  0  0  0  0
 19 17  1  0  0  0  0
 19 21  1  0  0  0  0
 20 19  1  0  0  0  0
 22 19  1  0  0  0  0
M  RAD  3   2   2   3   3   4   2
M  END
