Coordinates from ORCA-job 4-NO2PhN2+~CF3COO-_B3LYPG-6-31G_dp-CH-Scan-d09-49-n800
 OpenBabel11261919433D

 22 21  0  0  0  0  0  0  0  0999 V2000
   -0.8159    1.0428   -1.6091 C   0  0  0  0  0  0  0  0  0  0  0  0
   -1.6980    1.4014   -2.6438 N   0  0  0  0  0  0  0  0  0  0  0  0
   -2.3206    1.7082   -3.5181 N   0  0  0  0  0  0  0  0  0  0  0  0
    0.5134    1.2206   -1.9907 C   0  0  0  0  0  0  0  0  0  0  0  0
    1.3730    0.8272   -0.9200 C   0  0  0  0  0  0  0  0  0  0  0  0
    0.8766    0.3309    0.2765 C   0  0  0  0  0  0  0  0  0  0  0  0
    1.8274   -0.0771    1.3443 N   0  0  0  0  0  0  0  0  0  0  0  0
    3.0278   -0.0055    1.0989 O   0  0  0  0  0  0  0  0  0  0  0  0
    1.3511   -0.4587    2.4138 O   0  0  0  0  0  0  0  0  0  0  0  0
   -0.5004    0.1933    0.5647 C   0  0  0  0  0  0  0  0  0  0  0  0
   -1.4004    0.5648   -0.4070 C   0  0  0  0  0  0  0  0  0  0  0  0
   -1.9520    5.0030   -0.4525 H   0  0  0  0  0  0  0  0  0  0  0  0
    2.4522    0.9061   -1.0228 H   0  0  0  0  0  0  0  0  0  0  0  0
   -0.8111   -0.1903    1.5269 H   0  0  0  0  0  0  0  0  0  0  0  0
   -2.4743    0.5084   -0.2580 H   0  0  0  0  0  0  0  0  0  0  0  0
   -2.8055    5.1627   -0.0137 O   0  0  0  0  0  0  0  0  0  0  0  0
   -3.6055    4.1276   -0.2723 C   0  0  0  0  0  0  0  0  0  0  0  0
   -3.3298    3.1600   -0.9382 O   0  0  0  0  0  0  0  0  0  0  0  0
   -4.9805    4.3340    0.4004 C   0  0  0  0  0  0  0  0  0  0  0  0
   -5.7541    3.2670    0.1944 F   0  0  0  0  0  0  0  0  0  0  0  0
   -4.8299    4.5160    1.7213 F   0  0  0  0  0  0  0  0  0  0  0  0
   -5.5828    5.4168   -0.1168 F   0  0  0  0  0  0  0  0  0  0  0  0
  1 11  1  0  0  0  0
  2  1  1  0  0  0  0
  3  2  1  0  0  0  0
  4  1  2  0  0  0  0
  4  5  1  0  0  0  0
  5  6  2  0  0  0  0
  6 10  1  0  0  0  0
  6  7  1  0  0  0  0
  7  9  2  0  0  0  0
  8  7  2  0  0  0  0
 10 14  1  0  0  0  0
 11 15  1  0  0  0  0
 11 10  2  0  0  0  0
 12 16  1  0  0  0  0
 13  5  1  0  0  0  0
 17 16  1  0  0  0  0
 17 19  1  0  0  0  0
 18 17  2  0  0  0  0
 19 21  1  0  0  0  0
 20 19  1  0  0  0  0
 22 19  1  0  0  0  0
M  RAD  3   2   2   3   3   4   2
M  END
