Coordinates from ORCA-job 4-NO2PhN2+~CF3COO-_B3LYPG-6-31G_dp-CH-Scan-d09-49-n800
 OpenBabel11261919433D

 22 21  0  0  0  0  0  0  0  0999 V2000
   -1.4239    0.4359   -0.4478 C   0  0  0  0  0  0  0  0  0  0  0  0
   -2.7789    0.5562   -0.7896 N   0  0  0  0  0  0  0  0  0  0  0  0
   -3.8532    0.7076   -1.0486 N   0  0  0  0  0  0  0  0  0  0  0  0
   -0.8400    1.6436   -0.0529 C   0  0  0  0  0  0  0  0  0  0  0  0
    0.5300    1.4400    0.2790 C   0  0  0  0  0  0  0  0  0  0  0  0
    1.1284    0.1914    0.1963 C   0  0  0  0  0  0  0  0  0  0  0  0
    2.5638    0.0493    0.5587 N   0  0  0  0  0  0  0  0  0  0  0  0
    3.1616    1.0569    0.9229 O   0  0  0  0  0  0  0  0  0  0  0  0
    3.0607   -1.0727    0.4700 O   0  0  0  0  0  0  0  0  0  0  0  0
    0.4563   -0.9784   -0.2160 C   0  0  0  0  0  0  0  0  0  0  0  0
   -0.8727   -0.8684   -0.5544 C   0  0  0  0  0  0  0  0  0  0  0  0
   -2.1703    4.0519    0.0208 H   0  0  0  0  0  0  0  0  0  0  0  0
    1.1459    2.2706    0.6101 H   0  0  0  0  0  0  0  0  0  0  0  0
    0.9896   -1.9188   -0.2570 H   0  0  0  0  0  0  0  0  0  0  0  0
   -1.4548   -1.7249   -0.8808 H   0  0  0  0  0  0  0  0  0  0  0  0
   -2.7252    4.8583   -0.0052 O   0  0  0  0  0  0  0  0  0  0  0  0
   -3.9266    4.5341   -0.4655 C   0  0  0  0  0  0  0  0  0  0  0  0
   -4.3094    3.4392   -0.8031 O   0  0  0  0  0  0  0  0  0  0  0  0
   -4.8290    5.7865   -0.5264 C   0  0  0  0  0  0  0  0  0  0  0  0
   -6.0492    5.4579   -0.9575 F   0  0  0  0  0  0  0  0  0  0  0  0
   -4.9374    6.3458    0.6912 F   0  0  0  0  0  0  0  0  0  0  0  0
   -4.3053    6.6972   -1.3661 F   0  0  0  0  0  0  0  0  0  0  0  0
  1  4  1  0  0  0  0
  2  1  1  0  0  0  0
  3  2  1  0  0  0  0
  4  5  2  0  0  0  0
  5 13  1  0  0  0  0
  6  5  1  0  0  0  0
  6  7  1  0  0  0  0
  7  8  2  0  0  0  0
  9  7  2  0  0  0  0
 10  6  2  0  0  0  0
 11  1  2  0  0  0  0
 11 10  1  0  0  0  0
 14 10  1  0  0  0  0
 15 11  1  0  0  0  0
 16 12  1  0  0  0  0
 17 16  1  0  0  0  0
 18 17  2  0  0  0  0
 19 17  1  0  0  0  0
 19 21  1  0  0  0  0
 20 19  1  0  0  0  0
 22 19  1  0  0  0  0
M  RAD  3   2   2   3   3   4   2
M  END
