Coordinates from ORCA-job 4-NO2PhN2+~CF3COO-_B3LYPG-6-31G_dp-CH-Scan-d09-49-n800
 OpenBabel11261919433D

 22 21  0  0  0  0  0  0  0  0999 V2000
   -1.5121    0.4533   -0.4567 C   0  0  0  0  0  0  0  0  0  0  0  0
   -2.8686    0.5236   -0.8008 N   0  0  0  0  0  0  0  0  0  0  0  0
   -3.9462    0.6416   -1.0618 N   0  0  0  0  0  0  0  0  0  0  0  0
   -0.9637    1.6807   -0.0694 C   0  0  0  0  0  0  0  0  0  0  0  0
    0.4107    1.5278    0.2641 C   0  0  0  0  0  0  0  0  0  0  0  0
    1.0508    0.2992    0.1899 C   0  0  0  0  0  0  0  0  0  0  0  0
    2.4904    0.2091    0.5522 N   0  0  0  0  0  0  0  0  0  0  0  0
    3.0527    1.2391    0.9091 O   0  0  0  0  0  0  0  0  0  0  0  0
    3.0247   -0.8960    0.4702 O   0  0  0  0  0  0  0  0  0  0  0  0
    0.4177   -0.8940   -0.2135 C   0  0  0  0  0  0  0  0  0  0  0  0
   -0.9147   -0.8306   -0.5524 C   0  0  0  0  0  0  0  0  0  0  0  0
   -2.1326    3.7321   -0.0093 H   0  0  0  0  0  0  0  0  0  0  0  0
    0.9965    2.3820    0.5888 H   0  0  0  0  0  0  0  0  0  0  0  0
    0.9813   -1.8168   -0.2483 H   0  0  0  0  0  0  0  0  0  0  0  0
   -1.4673   -1.7086   -0.8725 H   0  0  0  0  0  0  0  0  0  0  0  0
   -2.6279    4.5881   -0.0076 O   0  0  0  0  0  0  0  0  0  0  0  0
   -3.8484    4.3898   -0.4735 C   0  0  0  0  0  0  0  0  0  0  0  0
   -4.3362    3.3467   -0.8473 O   0  0  0  0  0  0  0  0  0  0  0  0
   -4.6362    5.7191   -0.4925 C   0  0  0  0  0  0  0  0  0  0  0  0
   -5.8783    5.5206   -0.9424 F   0  0  0  0  0  0  0  0  0  0  0  0
   -4.7059    6.2408    0.7453 F   0  0  0  0  0  0  0  0  0  0  0  0
   -4.0264    6.6115   -1.2933 F   0  0  0  0  0  0  0  0  0  0  0  0
  1  4  1  0  0  0  0
  2  1  1  0  0  0  0
  3  2  1  0  0  0  0
  4  5  2  0  0  0  0
  5 13  1  0  0  0  0
  6  5  1  0  0  0  0
  6  7  1  0  0  0  0
  7  8  2  0  0  0  0
  9  7  2  0  0  0  0
 10  6  2  0  0  0  0
 11  1  2  0  0  0  0
 11 10  1  0  0  0  0
 12 16  1  0  0  0  0
 14 10  1  0  0  0  0
 15 11  1  0  0  0  0
 17 16  1  0  0  0  0
 18 17  2  0  0  0  0
 19 17  1  0  0  0  0
 19 21  1  0  0  0  0
 20 19  1  0  0  0  0
 22 19  1  0  0  0  0
M  RAD  3   2   2   3   3   4   2
M  END
