Coordinates from ORCA-job 4-NO2PhN2+~CF3COO-_B3LYPG-6-31G_dp-CH-Scan-d09-49-n800
 OpenBabel11261919433D

 22 21  0  0  0  0  0  0  0  0999 V2000
   -1.4716    0.4461   -0.4538 C   0  0  0  0  0  0  0  0  0  0  0  0
   -2.8272    0.5391   -0.7982 N   0  0  0  0  0  0  0  0  0  0  0  0
   -3.9045    0.6703   -1.0553 N   0  0  0  0  0  0  0  0  0  0  0  0
   -0.9069    1.6645   -0.0628 C   0  0  0  0  0  0  0  0  0  0  0  0
    0.4654    1.4882    0.2710 C   0  0  0  0  0  0  0  0  0  0  0  0
    1.0863    0.2501    0.1937 C   0  0  0  0  0  0  0  0  0  0  0  0
    2.5240    0.1358    0.5570 N   0  0  0  0  0  0  0  0  0  0  0  0
    3.1028    1.1558    0.9167 O   0  0  0  0  0  0  0  0  0  0  0  0
    3.0412   -0.9771    0.4717 O   0  0  0  0  0  0  0  0  0  0  0  0
    0.4353   -0.9325   -0.2141 C   0  0  0  0  0  0  0  0  0  0  0  0
   -0.8955   -0.8475   -0.5537 C   0  0  0  0  0  0  0  0  0  0  0  0
   -2.1483    3.8763    0.0001 H   0  0  0  0  0  0  0  0  0  0  0  0
    1.0652    2.3316    0.5988 H   0  0  0  0  0  0  0  0  0  0  0  0
    0.9849   -1.8636   -0.2511 H   0  0  0  0  0  0  0  0  0  0  0  0
   -1.4616   -1.7158   -0.8770 H   0  0  0  0  0  0  0  0  0  0  0  0
   -2.6698    4.7101   -0.0100 O   0  0  0  0  0  0  0  0  0  0  0  0
   -3.8844    4.4548   -0.4711 C   0  0  0  0  0  0  0  0  0  0  0  0
   -4.3261    3.3870   -0.8278 O   0  0  0  0  0  0  0  0  0  0  0  0
   -4.7248    5.7507   -0.5066 C   0  0  0  0  0  0  0  0  0  0  0  0
   -5.9595    5.4931   -0.9458 F   0  0  0  0  0  0  0  0  0  0  0  0
   -4.8086    6.2891    0.7227 F   0  0  0  0  0  0  0  0  0  0  0  0
   -4.1558    6.6531   -1.3259 F   0  0  0  0  0  0  0  0  0  0  0  0
  1  4  1  0  0  0  0
  2  1  1  0  0  0  0
  3  2  1  0  0  0  0
  4  5  2  0  0  0  0
  5 13  1  0  0  0  0
  6  5  1  0  0  0  0
  6  7  1  0  0  0  0
  7  8  2  0  0  0  0
  9  7  2  0  0  0  0
 10  6  2  0  0  0  0
 11  1  2  0  0  0  0
 11 10  1  0  0  0  0
 14 10  1  0  0  0  0
 15 11  1  0  0  0  0
 16 12  1  0  0  0  0
 17 16  1  0  0  0  0
 18 17  2  0  0  0  0
 19 17  1  0  0  0  0
 19 21  1  0  0  0  0
 20 19  1  0  0  0  0
 22 19  1  0  0  0  0
M  RAD  3   2   2   3   3   4   2
M  END
