Coordinates from ORCA-job 4-NO2PhN2+~CF3COO-_B3LYPG-6-31G_dp-CH-Scan-d09-49-n800
 OpenBabel11261919433D

 22 21  0  0  0  0  0  0  0  0999 V2000
   -1.5039    0.4515   -0.4560 C   0  0  0  0  0  0  0  0  0  0  0  0
   -2.8604    0.5263   -0.7996 N   0  0  0  0  0  0  0  0  0  0  0  0
   -3.9378    0.6471   -1.0604 N   0  0  0  0  0  0  0  0  0  0  0  0
   -0.9523    1.6772   -0.0681 C   0  0  0  0  0  0  0  0  0  0  0  0
    0.4218    1.5199    0.2651 C   0  0  0  0  0  0  0  0  0  0  0  0
    1.0582    0.2895    0.1902 C   0  0  0  0  0  0  0  0  0  0  0  0
    2.4976    0.1947    0.5522 N   0  0  0  0  0  0  0  0  0  0  0  0
    3.0626    1.2224    0.9114 O   0  0  0  0  0  0  0  0  0  0  0  0
    3.0281   -0.9123    0.4714 O   0  0  0  0  0  0  0  0  0  0  0  0
    0.4216   -0.9017   -0.2139 C   0  0  0  0  0  0  0  0  0  0  0  0
   -0.9106   -0.8343   -0.5526 C   0  0  0  0  0  0  0  0  0  0  0  0
   -2.1366    3.7602   -0.0071 H   0  0  0  0  0  0  0  0  0  0  0  0
    1.0104    2.3720    0.5903 H   0  0  0  0  0  0  0  0  0  0  0  0
    0.9825   -1.8262   -0.2492 H   0  0  0  0  0  0  0  0  0  0  0  0
   -1.4659   -1.7104   -0.8732 H   0  0  0  0  0  0  0  0  0  0  0  0
   -2.6367    4.6119   -0.0076 O   0  0  0  0  0  0  0  0  0  0  0  0
   -3.8562    4.4029   -0.4730 C   0  0  0  0  0  0  0  0  0  0  0  0
   -4.3352    3.3549   -0.8438 O   0  0  0  0  0  0  0  0  0  0  0  0
   -4.6539    5.7260   -0.4954 C   0  0  0  0  0  0  0  0  0  0  0  0
   -5.8948    5.5163   -0.9435 F   0  0  0  0  0  0  0  0  0  0  0  0
   -4.7264    6.2509    0.7408 F   0  0  0  0  0  0  0  0  0  0  0  0
   -4.0516    6.6204   -1.2996 F   0  0  0  0  0  0  0  0  0  0  0  0
  1  4  1  0  0  0  0
  2  1  1  0  0  0  0
  3  2  1  0  0  0  0
  4  5  2  0  0  0  0
  5 13  1  0  0  0  0
  6  5  1  0  0  0  0
  6  7  1  0  0  0  0
  7  8  2  0  0  0  0
  9  7  2  0  0  0  0
 10  6  2  0  0  0  0
 11  1  2  0  0  0  0
 11 10  1  0  0  0  0
 14 10  1  0  0  0  0
 15 11  1  0  0  0  0
 16 12  1  0  0  0  0
 17 16  1  0  0  0  0
 18 17  2  0  0  0  0
 19 17  1  0  0  0  0
 19 21  1  0  0  0  0
 20 19  1  0  0  0  0
 22 19  1  0  0  0  0
M  RAD  3   2   2   3   3   4   2
M  END
