Coordinates from ORCA-job 4-NO2PhN2+~CF3COO-_B3LYPG-6-31G_dp-CH-Scan-d09-49-n800
 OpenBabel11261919433D

 22 21  0  0  0  0  0  0  0  0999 V2000
   -1.1259    0.4245   -0.4853 C   0  0  0  0  0  0  0  0  0  0  0  0
   -2.4461    0.7411   -0.8558 N   0  0  0  0  0  0  0  0  0  0  0  0
   -3.4782    1.0575   -1.1410 N   0  0  0  0  0  0  0  0  0  0  0  0
   -0.3878    1.5552   -0.1320 C   0  0  0  0  0  0  0  0  0  0  0  0
    0.9364    1.1629    0.2327 C   0  0  0  0  0  0  0  0  0  0  0  0
    1.3452   -0.1621    0.2175 C   0  0  0  0  0  0  0  0  0  0  0  0
    2.7376   -0.4982    0.6168 N   0  0  0  0  0  0  0  0  0  0  0  0
    3.4736    0.4252    0.9519 O   0  0  0  0  0  0  0  0  0  0  0  0
    3.0662   -1.6840    0.5868 O   0  0  0  0  0  0  0  0  0  0  0  0
    0.5137   -1.2405   -0.1592 C   0  0  0  0  0  0  0  0  0  0  0  0
   -0.7790   -0.9525   -0.5301 C   0  0  0  0  0  0  0  0  0  0  0  0
   -2.3000    5.3687    0.0310 H   0  0  0  0  0  0  0  0  0  0  0  0
    1.6662    1.9074    0.5382 H   0  0  0  0  0  0  0  0  0  0  0  0
    0.9041   -2.2492   -0.1484 H   0  0  0  0  0  0  0  0  0  0  0  0
   -1.4768   -1.7275   -0.8340 H   0  0  0  0  0  0  0  0  0  0  0  0
   -3.1215    5.8841   -0.0452 O   0  0  0  0  0  0  0  0  0  0  0  0
   -4.0934    5.0550   -0.4349 C   0  0  0  0  0  0  0  0  0  0  0  0
   -3.9849    3.8768   -0.6596 O   0  0  0  0  0  0  0  0  0  0  0  0
   -5.4245    5.8272   -0.5648 C   0  0  0  0  0  0  0  0  0  0  0  0
   -6.3956    5.0052   -0.9667 F   0  0  0  0  0  0  0  0  0  0  0  0
   -5.7692    6.3601    0.6197 F   0  0  0  0  0  0  0  0  0  0  0  0
   -5.2996    6.8222   -1.4593 F   0  0  0  0  0  0  0  0  0  0  0  0
  1  4  1  0  0  0  0
  2  1  1  0  0  0  0
  3  2  1  0  0  0  0
  4  5  2  0  0  0  0
  5 13  1  0  0  0  0
  6  5  1  0  0  0  0
  6  7  1  0  0  0  0
  7  8  2  0  0  0  0
  9  7  2  0  0  0  0
 10 14  1  0  0  0  0
 10  6  2  0  0  0  0
 11  1  2  0  0  0  0
 11 10  1  0  0  0  0
 15 11  1  0  0  0  0
 16 12  1  0  0  0  0
 17 16  1  0  0  0  0
 18 17  2  0  0  0  0
 19 17  1  0  0  0  0
 19 21  1  0  0  0  0
 20 19  1  0  0  0  0
 22 19  1  0  0  0  0
M  RAD  3   2   2   3   3   4   2
M  END
