Coordinates from ORCA-job 4-NO2PhN2+~CF3COO-_B3LYPG-6-31G_dp-CH-Scan-d09-49-n800
 OpenBabel11261919433D

 22 22  0  0  0  0  0  0  0  0999 V2000
   -1.6656    0.7021   -0.2952 C   0  0  0  0  0  0  0  0  0  0  0  0
   -3.0510    0.6598   -0.5487 N   0  0  0  0  0  0  0  0  0  0  0  0
   -3.9902    1.3525   -0.6600 N   0  0  0  0  0  0  0  0  0  0  0  0
   -0.9382    1.8849   -0.0808 C   0  0  0  0  0  0  0  0  0  0  0  0
    0.4284    1.8064    0.1477 C   0  0  0  0  0  0  0  0  0  0  0  0
    1.0354    0.5508    0.1621 C   0  0  0  0  0  0  0  0  0  0  0  0
    2.4933    0.4710    0.4107 N   0  0  0  0  0  0  0  0  0  0  0  0
    3.0919    1.5271    0.5918 O   0  0  0  0  0  0  0  0  0  0  0  0
    3.0014   -0.6469    0.4183 O   0  0  0  0  0  0  0  0  0  0  0  0
    0.3310   -0.6331   -0.0475 C   0  0  0  0  0  0  0  0  0  0  0  0
   -1.0358   -0.5533   -0.2809 C   0  0  0  0  0  0  0  0  0  0  0  0
   -1.5954    3.0473   -0.1055 H   0  0  0  0  0  0  0  0  0  0  0  0
    1.0274    2.6920    0.3166 H   0  0  0  0  0  0  0  0  0  0  0  0
    0.8547   -1.5801   -0.0265 H   0  0  0  0  0  0  0  0  0  0  0  0
   -1.6278   -1.4449   -0.4539 H   0  0  0  0  0  0  0  0  0  0  0  0
   -3.5940    3.0491   -0.3291 O   0  0  0  0  0  0  0  0  0  0  0  0
   -4.4569    3.8637   -0.9020 C   0  0  0  0  0  0  0  0  0  0  0  0
   -5.3541    3.6149   -1.6713 O   0  0  0  0  0  0  0  0  0  0  0  0
   -4.1700    5.3183   -0.4306 C   0  0  0  0  0  0  0  0  0  0  0  0
   -4.8353    6.2045   -1.1744 F   0  0  0  0  0  0  0  0  0  0  0  0
   -4.5395    5.4741    0.8550 F   0  0  0  0  0  0  0  0  0  0  0  0
   -2.8490    5.5989   -0.5173 F   0  0  0  0  0  0  0  0  0  0  0  0
  1 11  2  0  0  0  0
  1  4  1  0  0  0  0
  2  1  1  0  0  0  0
  3  2  1  0  0  0  0
  3 16  1  0  0  0  0
  4  5  2  0  0  0  0
  5  6  1  0  0  0  0
  5 13  1  0  0  0  0
  6  7  1  0  0  0  0
  7  9  2  0  0  0  0
  7  8  2  0  0  0  0
 10 14  1  0  0  0  0
 10  6  2  0  0  0  0
 11 10  1  0  0  0  0
 12  4  1  0  0  0  0
 15 11  1  0  0  0  0
 17 19  1  0  0  0  0
 17 16  1  0  0  0  0
 18 17  2  0  0  0  0
 19 21  1  0  0  0  0
 20 19  1  0  0  0  0
 22 19  1  0  0  0  0
M  RAD  2   2   2   3   2
M  END
