Coordinates from ORCA-job 4-NO2PhN2+~CF3COO-_B3LYPG-6-31G_dp-CH-Scan-d09-49-n800
 OpenBabel11261919433D

 22 21  0  0  0  0  0  0  0  0999 V2000
   -1.3592    0.4170   -0.4377 C   0  0  0  0  0  0  0  0  0  0  0  0
   -2.7132    0.5742   -0.7737 N   0  0  0  0  0  0  0  0  0  0  0  0
   -3.7850    0.7558   -1.0253 N   0  0  0  0  0  0  0  0  0  0  0  0
   -0.7518    1.6095   -0.0347 C   0  0  0  0  0  0  0  0  0  0  0  0
    0.6151    1.3718    0.2922 C   0  0  0  0  0  0  0  0  0  0  0  0
    1.1856    0.1112    0.1983 C   0  0  0  0  0  0  0  0  0  0  0  0
    2.6180   -0.0660    0.5573 N   0  0  0  0  0  0  0  0  0  0  0  0
    3.2387    0.9246    0.9301 O   0  0  0  0  0  0  0  0  0  0  0  0
    3.0897   -1.1983    0.4609 O   0  0  0  0  0  0  0  0  0  0  0  0
    0.4874   -1.0409   -0.2226 C   0  0  0  0  0  0  0  0  0  0  0  0
   -0.8393   -0.8992   -0.5574 C   0  0  0  0  0  0  0  0  0  0  0  0
   -2.2112    4.2947    0.0621 H   0  0  0  0  0  0  0  0  0  0  0  0
    1.2507    2.1854    0.6287 H   0  0  0  0  0  0  0  0  0  0  0  0
    1.0003   -1.9921   -0.2722 H   0  0  0  0  0  0  0  0  0  0  0  0
   -1.4410   -1.7398   -0.8899 H   0  0  0  0  0  0  0  0  0  0  0  0
   -2.8115    5.0619    0.0086 O   0  0  0  0  0  0  0  0  0  0  0  0
   -3.9865    4.6455   -0.4547 C   0  0  0  0  0  0  0  0  0  0  0  0
   -4.2884    3.5189   -0.7645 O   0  0  0  0  0  0  0  0  0  0  0  0
   -4.9662    5.8352   -0.5586 C   0  0  0  0  0  0  0  0  0  0  0  0
   -6.1597    5.4160   -0.9845 F   0  0  0  0  0  0  0  0  0  0  0  0
   -5.1170    6.4239    0.6402 F   0  0  0  0  0  0  0  0  0  0  0  0
   -4.4948    6.7498   -1.4243 F   0  0  0  0  0  0  0  0  0  0  0  0
  1  4  1  0  0  0  0
  2  1  1  0  0  0  0
  3  2  1  0  0  0  0
  4  5  2  0  0  0  0
  5 13  1  0  0  0  0
  6  5  1  0  0  0  0
  6  7  1  0  0  0  0
  7  8  2  0  0  0  0
  9  7  2  0  0  0  0
 10  6  2  0  0  0  0
 11  1  2  0  0  0  0
 11 10  1  0  0  0  0
 14 10  1  0  0  0  0
 15 11  1  0  0  0  0
 16 12  1  0  0  0  0
 17 16  1  0  0  0  0
 18 17  2  0  0  0  0
 19 17  1  0  0  0  0
 19 21  1  0  0  0  0
 20 19  1  0  0  0  0
 22 19  1  0  0  0  0
M  RAD  3   2   2   3   3   4   2
M  END
