Coordinates from ORCA-job 4-NO2PhN2+~CF3COO-_B3LYPG-6-31G_dp-CH-Scan-d09-49-n800
 OpenBabel11261919433D

 22 21  0  0  0  0  0  0  0  0999 V2000
   -1.5883    0.4728   -0.4615 C   0  0  0  0  0  0  0  0  0  0  0  0
   -2.9457    0.5023   -0.8048 N   0  0  0  0  0  0  0  0  0  0  0  0
   -4.0251    0.5997   -1.0651 N   0  0  0  0  0  0  0  0  0  0  0  0
   -1.0677    1.7148   -0.0802 C   0  0  0  0  0  0  0  0  0  0  0  0
    0.3092    1.6023    0.2516 C   0  0  0  0  0  0  0  0  0  0  0  0
    0.9821    0.3907    0.1825 C   0  0  0  0  0  0  0  0  0  0  0  0
    2.4243    0.3420    0.5424 N   0  0  0  0  0  0  0  0  0  0  0  0
    2.9574    1.3888    0.8946 O   0  0  0  0  0  0  0  0  0  0  0  0
    2.9876   -0.7486    0.4656 O   0  0  0  0  0  0  0  0  0  0  0  0
    0.3802   -0.8197   -0.2134 C   0  0  0  0  0  0  0  0  0  0  0  0
   -0.9545   -0.7929   -0.5503 C   0  0  0  0  0  0  0  0  0  0  0  0
   -2.0874    3.4767   -0.0270 H   0  0  0  0  0  0  0  0  0  0  0  0
    0.8705    2.4747    0.5705 H   0  0  0  0  0  0  0  0  0  0  0  0
    0.9671   -1.7280   -0.2449 H   0  0  0  0  0  0  0  0  0  0  0  0
   -1.4839   -1.6868   -0.8650 H   0  0  0  0  0  0  0  0  0  0  0  0
   -2.5479    4.3732   -0.0032 O   0  0  0  0  0  0  0  0  0  0  0  0
   -3.7694    4.2704   -0.4784 C   0  0  0  0  0  0  0  0  0  0  0  0
   -4.3301    3.2739   -0.8856 O   0  0  0  0  0  0  0  0  0  0  0  0
   -4.4727    5.6472   -0.4665 C   0  0  0  0  0  0  0  0  0  0  0  0
   -5.7192    5.5446   -0.9382 F   0  0  0  0  0  0  0  0  0  0  0  0
   -4.5286    6.1359    0.7861 F   0  0  0  0  0  0  0  0  0  0  0  0
   -3.7971    6.5251   -1.2308 F   0  0  0  0  0  0  0  0  0  0  0  0
  1  4  1  0  0  0  0
  2  1  1  0  0  0  0
  3  2  1  0  0  0  0
  4  5  2  0  0  0  0
  5 13  1  0  0  0  0
  6  5  1  0  0  0  0
  6  7  1  0  0  0  0
  7  8  2  0  0  0  0
  9  7  2  0  0  0  0
 10  6  2  0  0  0  0
 11  1  2  0  0  0  0
 11 10  1  0  0  0  0
 12 16  1  0  0  0  0
 14 10  1  0  0  0  0
 15 11  1  0  0  0  0
 17 19  1  0  0  0  0
 17 16  1  0  0  0  0
 18 17  2  0  0  0  0
 19 21  1  0  0  0  0
 20 19  1  0  0  0  0
 22 19  1  0  0  0  0
M  RAD  3   2   2   3   3   4   2
M  END
