Coordinates from ORCA-job 4-NO2PhN2+~CF3COO-_B3LYPG-6-31G_dp-CH-Scan-d09-49-n800
 OpenBabel11261919433D

 22 21  0  0  0  0  0  0  0  0999 V2000
   -1.1013    0.4420   -0.5332 C   0  0  0  0  0  0  0  0  0  0  0  0
   -2.4069    0.7772   -0.9383 N   0  0  0  0  0  0  0  0  0  0  0  0
   -3.4249    1.1102   -1.2538 N   0  0  0  0  0  0  0  0  0  0  0  0
   -0.3426    1.5671   -0.2075 C   0  0  0  0  0  0  0  0  0  0  0  0
    0.9665    1.1574    0.1911 C   0  0  0  0  0  0  0  0  0  0  0  0
    1.3437   -0.1764    0.2293 C   0  0  0  0  0  0  0  0  0  0  0  0
    2.7215   -0.5304    0.6619 N   0  0  0  0  0  0  0  0  0  0  0  0
    3.4727    0.3865    0.9808 O   0  0  0  0  0  0  0  0  0  0  0  0
    3.0242   -1.7235    0.6732 O   0  0  0  0  0  0  0  0  0  0  0  0
    0.4926   -1.2480   -0.1225 C   0  0  0  0  0  0  0  0  0  0  0  0
   -0.7869   -0.9434   -0.5245 C   0  0  0  0  0  0  0  0  0  0  0  0
   -2.2863    5.4775   -0.0600 H   0  0  0  0  0  0  0  0  0  0  0  0
    1.7092    1.8952    0.4814 H   0  0  0  0  0  0  0  0  0  0  0  0
    0.8588   -2.2645   -0.0700 H   0  0  0  0  0  0  0  0  0  0  0  0
   -1.4980   -1.7122   -0.8131 H   0  0  0  0  0  0  0  0  0  0  0  0
   -3.1316    5.9569   -0.1073 O   0  0  0  0  0  0  0  0  0  0  0  0
   -4.0822    5.0803   -0.4424 C   0  0  0  0  0  0  0  0  0  0  0  0
   -3.9301    3.9051   -0.6567 O   0  0  0  0  0  0  0  0  0  0  0  0
   -5.4525    5.7887   -0.5141 C   0  0  0  0  0  0  0  0  0  0  0  0
   -6.3938    4.9298   -0.9094 F   0  0  0  0  0  0  0  0  0  0  0  0
   -5.7854    6.2707    0.6956 F   0  0  0  0  0  0  0  0  0  0  0  0
   -5.4062    6.8127   -1.3824 F   0  0  0  0  0  0  0  0  0  0  0  0
  1 11  2  0  0  0  0
  1  4  1  0  0  0  0
  2  1  1  0  0  0  0
  3  2  1  0  0  0  0
  4  5  2  0  0  0  0
  5  6  1  0  0  0  0
  5 13  1  0  0  0  0
  6  7  1  0  0  0  0
  7  9  2  0  0  0  0
  7  8  2  0  0  0  0
 10 14  1  0  0  0  0
 10  6  2  0  0  0  0
 11 10  1  0  0  0  0
 15 11  1  0  0  0  0
 16 12  1  0  0  0  0
 17 16  1  0  0  0  0
 18 17  2  0  0  0  0
 19 17  1  0  0  0  0
 19 21  1  0  0  0  0
 20 19  1  0  0  0  0
 22 19  1  0  0  0  0
M  RAD  3   2   2   3   3   4   2
M  END
