Coordinates from ORCA-job 4-NO2PhN2+~CF3COO-_B3LYPG-6-31G_dp-CH-Scan-d09-49-n800
 OpenBabel11261919433D

 22 21  0  0  0  0  0  0  0  0999 V2000
   -1.1143    0.4326   -0.5065 C   0  0  0  0  0  0  0  0  0  0  0  0
   -2.4279    0.7586   -0.8927 N   0  0  0  0  0  0  0  0  0  0  0  0
   -3.4536    1.0834   -1.1912 N   0  0  0  0  0  0  0  0  0  0  0  0
   -0.3676    1.5603   -0.1621 C   0  0  0  0  0  0  0  0  0  0  0  0
    0.9496    1.1594    0.2182 C   0  0  0  0  0  0  0  0  0  0  0  0
    1.3447   -0.1699    0.2239 C   0  0  0  0  0  0  0  0  0  0  0  0
    2.7304   -0.5149    0.6386 N   0  0  0  0  0  0  0  0  0  0  0  0
    3.4729    0.4051    0.9687 O   0  0  0  0  0  0  0  0  0  0  0  0
    3.0475   -1.7042    0.6252 O   0  0  0  0  0  0  0  0  0  0  0  0
    0.5051   -1.2446   -0.1450 C   0  0  0  0  0  0  0  0  0  0  0  0
   -0.7816   -0.9484   -0.5303 C   0  0  0  0  0  0  0  0  0  0  0  0
   -2.2913    5.4249   -0.0203 H   0  0  0  0  0  0  0  0  0  0  0  0
    1.6848    1.9004    0.5193 H   0  0  0  0  0  0  0  0  0  0  0  0
    0.8848   -2.2571   -0.1176 H   0  0  0  0  0  0  0  0  0  0  0  0
   -1.4849   -1.7201   -0.8297 H   0  0  0  0  0  0  0  0  0  0  0  0
   -3.1251    5.9223   -0.0817 O   0  0  0  0  0  0  0  0  0  0  0  0
   -4.0878    5.0683   -0.4397 C   0  0  0  0  0  0  0  0  0  0  0  0
   -3.9581    3.8908   -0.6563 O   0  0  0  0  0  0  0  0  0  0  0  0
   -5.4393    5.8088   -0.5399 C   0  0  0  0  0  0  0  0  0  0  0  0
   -6.3972    4.9666   -0.9313 F   0  0  0  0  0  0  0  0  0  0  0  0
   -5.7749    6.3225    0.6557 F   0  0  0  0  0  0  0  0  0  0  0  0
   -5.3556    6.8145   -1.4271 F   0  0  0  0  0  0  0  0  0  0  0  0
  1  4  1  0  0  0  0
  2  1  1  0  0  0  0
  3  2  1  0  0  0  0
  4  5  2  0  0  0  0
  5  6  1  0  0  0  0
  5 13  1  0  0  0  0
  6  7  1  0  0  0  0
  7  8  2  0  0  0  0
  9  7  2  0  0  0  0
 10 14  1  0  0  0  0
 10  6  2  0  0  0  0
 11  1  2  0  0  0  0
 11 10  1  0  0  0  0
 15 11  1  0  0  0  0
 16 12  1  0  0  0  0
 17 16  1  0  0  0  0
 18 17  2  0  0  0  0
 19 17  1  0  0  0  0
 19 21  1  0  0  0  0
 20 19  1  0  0  0  0
 22 19  1  0  0  0  0
M  RAD  3   2   2   3   3   4   2
M  END
