Coordinates from ORCA-job 4-NO2PhN2+~CF3COO-_B3LYPG-6-31G_dp-CH-Scan-d09-49-n800
 OpenBabel11261919433D

 22 22  0  0  0  0  0  0  0  0999 V2000
   -1.6824    0.7239   -0.3334 C   0  0  0  0  0  0  0  0  0  0  0  0
   -3.0648    0.6527   -0.6130 N   0  0  0  0  0  0  0  0  0  0  0  0
   -3.9921    1.3726   -0.7373 N   0  0  0  0  0  0  0  0  0  0  0  0
   -0.9584    1.9153   -0.1366 C   0  0  0  0  0  0  0  0  0  0  0  0
    0.4063    1.8316    0.1163 C   0  0  0  0  0  0  0  0  0  0  0  0
    1.0142    0.5787    0.1725 C   0  0  0  0  0  0  0  0  0  0  0  0
    2.4670    0.5055    0.4456 N   0  0  0  0  0  0  0  0  0  0  0  0
    3.0642    1.5659    0.6071 O   0  0  0  0  0  0  0  0  0  0  0  0
    2.9745   -0.6119    0.4920 O   0  0  0  0  0  0  0  0  0  0  0  0
    0.3113   -0.6084   -0.0190 C   0  0  0  0  0  0  0  0  0  0  0  0
   -1.0510   -0.5294   -0.2773 C   0  0  0  0  0  0  0  0  0  0  0  0
   -1.4895    2.9231   -0.1865 H   0  0  0  0  0  0  0  0  0  0  0  0
    1.0037    2.7209    0.2726 H   0  0  0  0  0  0  0  0  0  0  0  0
    0.8315   -1.5562    0.0336 H   0  0  0  0  0  0  0  0  0  0  0  0
   -1.6428   -1.4231   -0.4388 H   0  0  0  0  0  0  0  0  0  0  0  0
   -3.5656    3.0029   -0.4280 O   0  0  0  0  0  0  0  0  0  0  0  0
   -4.4752    3.8466   -0.8893 C   0  0  0  0  0  0  0  0  0  0  0  0
   -5.4486    3.6294   -1.5663 O   0  0  0  0  0  0  0  0  0  0  0  0
   -4.1201    5.2800   -0.4018 C   0  0  0  0  0  0  0  0  0  0  0  0
   -4.8041    6.1984   -1.0867 F   0  0  0  0  0  0  0  0  0  0  0  0
   -4.4171    5.4089    0.9056 F   0  0  0  0  0  0  0  0  0  0  0  0
   -2.8006    5.5316   -0.5531 F   0  0  0  0  0  0  0  0  0  0  0  0
  1 11  2  0  0  0  0
  1  4  1  0  0  0  0
  2  1  1  0  0  0  0
  3  2  1  0  0  0  0
  3 16  1  0  0  0  0
  4  5  2  0  0  0  0
  5  6  1  0  0  0  0
  5 13  1  0  0  0  0
  6  7  1  0  0  0  0
  7  9  2  0  0  0  0
  7  8  2  0  0  0  0
 10 14  1  0  0  0  0
 10  6  2  0  0  0  0
 11 10  1  0  0  0  0
 12  4  1  0  0  0  0
 15 11  1  0  0  0  0
 17 16  1  0  0  0  0
 17 19  1  0  0  0  0
 18 17  2  0  0  0  0
 19 21  1  0  0  0  0
 20 19  1  0  0  0  0
 22 19  1  0  0  0  0
M  RAD  2   2   2   3   2
M  END
