Coordinates from ORCA-job 4-NO2PhN2+~CF3COO-_B3LYPG-6-31G_dp-CH-Scan-d09-49-n800
 OpenBabel11261919433D

 22 21  0  0  0  0  0  0  0  0999 V2000
   -1.3759    0.4219   -0.4403 C   0  0  0  0  0  0  0  0  0  0  0  0
   -2.7302    0.5694   -0.7779 N   0  0  0  0  0  0  0  0  0  0  0  0
   -3.8032    0.7424   -1.0299 N   0  0  0  0  0  0  0  0  0  0  0  0
   -0.7748    1.6182   -0.0386 C   0  0  0  0  0  0  0  0  0  0  0  0
    0.5930    1.3894    0.2894 C   0  0  0  0  0  0  0  0  0  0  0  0
    1.1711    0.1320    0.1974 C   0  0  0  0  0  0  0  0  0  0  0  0
    2.6044   -0.0360    0.5572 N   0  0  0  0  0  0  0  0  0  0  0  0
    3.2184    0.9585    0.9306 O   0  0  0  0  0  0  0  0  0  0  0  0
    3.0822   -1.1660    0.4642 O   0  0  0  0  0  0  0  0  0  0  0  0
    0.4798   -1.0246   -0.2219 C   0  0  0  0  0  0  0  0  0  0  0  0
   -0.8476   -0.8911   -0.5576 C   0  0  0  0  0  0  0  0  0  0  0  0
   -2.2005    4.2307    0.0517 H   0  0  0  0  0  0  0  0  0  0  0  0
    1.2235    2.2073    0.6250 H   0  0  0  0  0  0  0  0  0  0  0  0
    0.9982   -1.9729   -0.2700 H   0  0  0  0  0  0  0  0  0  0  0  0
   -1.4441   -1.7358   -0.8890 H   0  0  0  0  0  0  0  0  0  0  0  0
   -2.7887    5.0087    0.0051 O   0  0  0  0  0  0  0  0  0  0  0  0
   -3.9713    4.6165   -0.4574 C   0  0  0  0  0  0  0  0  0  0  0  0
   -4.2949    3.4975   -0.7744 O   0  0  0  0  0  0  0  0  0  0  0  0
   -4.9309    5.8234   -0.5505 C   0  0  0  0  0  0  0  0  0  0  0  0
   -6.1330    5.4273   -0.9748 F   0  0  0  0  0  0  0  0  0  0  0  0
   -5.0678    6.4072    0.6524 F   0  0  0  0  0  0  0  0  0  0  0  0
   -4.4471    6.7354   -1.4122 F   0  0  0  0  0  0  0  0  0  0  0  0
  1  4  1  0  0  0  0
  2  1  1  0  0  0  0
  3  2  1  0  0  0  0
  4  5  2  0  0  0  0
  5 13  1  0  0  0  0
  6  5  1  0  0  0  0
  6  7  1  0  0  0  0
  7  8  2  0  0  0  0
  9  7  2  0  0  0  0
 10  6  2  0  0  0  0
 11  1  2  0  0  0  0
 11 10  1  0  0  0  0
 14 10  1  0  0  0  0
 15 11  1  0  0  0  0
 16 12  1  0  0  0  0
 17 16  1  0  0  0  0
 18 17  2  0  0  0  0
 19 17  1  0  0  0  0
 19 21  1  0  0  0  0
 20 19  1  0  0  0  0
 22 19  1  0  0  0  0
M  RAD  3   2   2   3   3   4   2
M  END
