Coordinates from ORCA-job 4-NO2PhN2+~CF3COO-_B3LYPG-6-31G_dp-CH-Scan-d09-49-n800
 OpenBabel11261919433D

 22 21  0  0  0  0  0  0  0  0999 V2000
   -1.6863    0.5190   -0.4666 C   0  0  0  0  0  0  0  0  0  0  0  0
   -3.0489    0.5334   -0.8022 N   0  0  0  0  0  0  0  0  0  0  0  0
   -4.1138    0.7767   -1.0386 N   0  0  0  0  0  0  0  0  0  0  0  0
   -1.1710    1.7602   -0.0875 C   0  0  0  0  0  0  0  0  0  0  0  0
    0.1983    1.7085    0.2412 C   0  0  0  0  0  0  0  0  0  0  0  0
    0.9010    0.5109    0.1742 C   0  0  0  0  0  0  0  0  0  0  0  0
    2.3439    0.5030    0.5315 N   0  0  0  0  0  0  0  0  0  0  0  0
    2.8452    1.5666    0.8785 O   0  0  0  0  0  0  0  0  0  0  0  0
    2.9355   -0.5715    0.4540 O   0  0  0  0  0  0  0  0  0  0  0  0
    0.3262   -0.7095   -0.2151 C   0  0  0  0  0  0  0  0  0  0  0  0
   -1.0141   -0.7184   -0.5483 C   0  0  0  0  0  0  0  0  0  0  0  0
   -1.9439    2.9868   -0.0389 H   0  0  0  0  0  0  0  0  0  0  0  0
    0.7255    2.6037    0.5526 H   0  0  0  0  0  0  0  0  0  0  0  0
    0.9338   -1.6043   -0.2462 H   0  0  0  0  0  0  0  0  0  0  0  0
   -1.5206   -1.6262   -0.8585 H   0  0  0  0  0  0  0  0  0  0  0  0
   -2.4923    4.0541    0.0249 O   0  0  0  0  0  0  0  0  0  0  0  0
   -3.6726    4.0878   -0.4773 C   0  0  0  0  0  0  0  0  0  0  0  0
   -4.3467    3.1769   -0.9618 O   0  0  0  0  0  0  0  0  0  0  0  0
   -4.2770    5.5165   -0.4442 C   0  0  0  0  0  0  0  0  0  0  0  0
   -5.5247    5.5387   -0.9317 F   0  0  0  0  0  0  0  0  0  0  0  0
   -4.3122    5.9867    0.8185 F   0  0  0  0  0  0  0  0  0  0  0  0
   -3.5246    6.3595   -1.1802 F   0  0  0  0  0  0  0  0  0  0  0  0
  1  4  1  0  0  0  0
  2  1  1  0  0  0  0
  3  2  1  0  0  0  0
  4  5  2  0  0  0  0
  5 13  1  0  0  0  0
  6  5  1  0  0  0  0
  6  7  1  0  0  0  0
  7  8  2  0  0  0  0
  9  7  2  0  0  0  0
 10  6  2  0  0  0  0
 11  1  2  0  0  0  0
 11 10  1  0  0  0  0
 12 16  1  0  0  0  0
 14 10  1  0  0  0  0
 15 11  1  0  0  0  0
 17 19  1  0  0  0  0
 17 16  1  0  0  0  0
 18 17  2  0  0  0  0
 19 21  1  0  0  0  0
 20 19  1  0  0  0  0
 22 19  1  0  0  0  0
M  RAD  3   2   2   3   3   4   2
M  END
