Coordinates from ORCA-job 4-NO2PhN2+~CF3COO-_B3LYPG-6-31G_dp-CH-Scan-d09-49-n800
 OpenBabel11261919433D

 22 22  0  0  0  0  0  0  0  0999 V2000
   -1.6683    0.7083   -0.3035 C   0  0  0  0  0  0  0  0  0  0  0  0
   -3.0530    0.6595   -0.5630 N   0  0  0  0  0  0  0  0  0  0  0  0
   -3.9900    1.3579   -0.6774 N   0  0  0  0  0  0  0  0  0  0  0  0
   -0.9397    1.8919   -0.0938 C   0  0  0  0  0  0  0  0  0  0  0  0
    0.4263    1.8112    0.1400 C   0  0  0  0  0  0  0  0  0  0  0  0
    1.0322    0.5554    0.1646 C   0  0  0  0  0  0  0  0  0  0  0  0
    2.4889    0.4757    0.4185 N   0  0  0  0  0  0  0  0  0  0  0  0
    3.0886    1.5323    0.5929 O   0  0  0  0  0  0  0  0  0  0  0  0
    2.9959   -0.6427    0.4346 O   0  0  0  0  0  0  0  0  0  0  0  0
    0.3268   -0.6285   -0.0400 C   0  0  0  0  0  0  0  0  0  0  0  0
   -1.0390   -0.5473   -0.2790 C   0  0  0  0  0  0  0  0  0  0  0  0
   -1.5717    3.0338   -0.1254 H   0  0  0  0  0  0  0  0  0  0  0  0
    1.0259    2.6971    0.3054 H   0  0  0  0  0  0  0  0  0  0  0  0
    0.8486   -1.5764   -0.0114 H   0  0  0  0  0  0  0  0  0  0  0  0
   -1.6320   -1.4388   -0.4488 H   0  0  0  0  0  0  0  0  0  0  0  0
   -3.5882    3.0383   -0.3517 O   0  0  0  0  0  0  0  0  0  0  0  0
   -4.4625    3.8594   -0.9006 C   0  0  0  0  0  0  0  0  0  0  0  0
   -5.3771    3.6180   -1.6506 O   0  0  0  0  0  0  0  0  0  0  0  0
   -4.1618    5.3092   -0.4234 C   0  0  0  0  0  0  0  0  0  0  0  0
   -4.8284    6.2031   -1.1565 F   0  0  0  0  0  0  0  0  0  0  0  0
   -4.5205    5.4586    0.8661 F   0  0  0  0  0  0  0  0  0  0  0  0
   -2.8403    5.5831   -0.5188 F   0  0  0  0  0  0  0  0  0  0  0  0
  1 11  2  0  0  0  0
  1  4  1  0  0  0  0
  2  1  1  0  0  0  0
  3  2  1  0  0  0  0
  3 16  1  0  0  0  0
  4  5  2  0  0  0  0
  5  6  1  0  0  0  0
  5 13  1  0  0  0  0
  6  7  1  0  0  0  0
  7  9  2  0  0  0  0
  7  8  2  0  0  0  0
 10 14  1  0  0  0  0
 10  6  2  0  0  0  0
 11 10  1  0  0  0  0
 12  4  1  0  0  0  0
 15 11  1  0  0  0  0
 17 19  1  0  0  0  0
 17 16  1  0  0  0  0
 18 17  2  0  0  0  0
 19 21  1  0  0  0  0
 20 19  1  0  0  0  0
 22 19  1  0  0  0  0
M  RAD  2   2   2   3   2
M  END
