Coordinates from ORCA-job 4-NO2PhN2+~CF3COO-_B3LYPG-6-31G_dp-CH-Scan-d09-49-n800
 OpenBabel11261919433D

 22 21  0  0  0  0  0  0  0  0999 V2000
   -1.4730    0.4460   -0.4530 C   0  0  0  0  0  0  0  0  0  0  0  0
   -2.8289    0.5381   -0.7963 N   0  0  0  0  0  0  0  0  0  0  0  0
   -3.9050    0.6698   -1.0578 N   0  0  0  0  0  0  0  0  0  0  0  0
   -0.9087    1.6650   -0.0626 C   0  0  0  0  0  0  0  0  0  0  0  0
    0.4639    1.4893    0.2706 C   0  0  0  0  0  0  0  0  0  0  0  0
    1.0854    0.2516    0.1931 C   0  0  0  0  0  0  0  0  0  0  0  0
    2.5233    0.1382    0.5556 N   0  0  0  0  0  0  0  0  0  0  0  0
    3.1015    1.1584    0.9157 O   0  0  0  0  0  0  0  0  0  0  0  0
    3.0408   -0.9747    0.4711 O   0  0  0  0  0  0  0  0  0  0  0  0
    0.4348   -0.9314   -0.2141 C   0  0  0  0  0  0  0  0  0  0  0  0
   -0.8962   -0.8473   -0.5530 C   0  0  0  0  0  0  0  0  0  0  0  0
   -2.1482    3.8720    0.0015 H   0  0  0  0  0  0  0  0  0  0  0  0
    1.0634    2.3331    0.5981 H   0  0  0  0  0  0  0  0  0  0  0  0
    0.9849   -1.8623   -0.2513 H   0  0  0  0  0  0  0  0  0  0  0  0
   -1.4620   -1.7159   -0.8757 H   0  0  0  0  0  0  0  0  0  0  0  0
   -2.6692    4.7063   -0.0079 O   0  0  0  0  0  0  0  0  0  0  0  0
   -3.8835    4.4530   -0.4709 C   0  0  0  0  0  0  0  0  0  0  0  0
   -4.3260    3.3860   -0.8291 O   0  0  0  0  0  0  0  0  0  0  0  0
   -4.7223    5.7500   -0.5066 C   0  0  0  0  0  0  0  0  0  0  0  0
   -5.9566    5.4942   -0.9477 F   0  0  0  0  0  0  0  0  0  0  0  0
   -4.8071    6.2875    0.7230 F   0  0  0  0  0  0  0  0  0  0  0  0
   -4.1509    6.6523   -1.3243 F   0  0  0  0  0  0  0  0  0  0  0  0
  1  4  1  0  0  0  0
  2  1  1  0  0  0  0
  3  2  1  0  0  0  0
  4  5  2  0  0  0  0
  5 13  1  0  0  0  0
  6  5  1  0  0  0  0
  6  7  1  0  0  0  0
  7  8  2  0  0  0  0
  9  7  2  0  0  0  0
 10  6  2  0  0  0  0
 11  1  2  0  0  0  0
 11 10  1  0  0  0  0
 14 10  1  0  0  0  0
 15 11  1  0  0  0  0
 16 12  1  0  0  0  0
 17 16  1  0  0  0  0
 18 17  2  0  0  0  0
 19 17  1  0  0  0  0
 19 21  1  0  0  0  0
 20 19  1  0  0  0  0
 22 19  1  0  0  0  0
M  RAD  3   2   2   3   3   4   2
M  END
