Coordinates from ORCA-job 4-NO2PhN2+~CF3COO-_B3LYPG-6-31G_dp-CH-Scan-d09-49-n800
 OpenBabel11261919433D

 22 21  0  0  0  0  0  0  0  0999 V2000
   -1.2641    0.4013   -0.4226 C   0  0  0  0  0  0  0  0  0  0  0  0
   -2.6137    0.6198   -0.7498 N   0  0  0  0  0  0  0  0  0  0  0  0
   -3.6767    0.8550   -0.9961 N   0  0  0  0  0  0  0  0  0  0  0  0
   -0.6089    1.5705   -0.0294 C   0  0  0  0  0  0  0  0  0  0  0  0
    0.7503    1.2735    0.2886 C   0  0  0  0  0  0  0  0  0  0  0  0
    1.2660   -0.0106    0.1970 C   0  0  0  0  0  0  0  0  0  0  0  0
    2.6915   -0.2479    0.5480 N   0  0  0  0  0  0  0  0  0  0  0  0
    3.3585    0.7174    0.9078 O   0  0  0  0  0  0  0  0  0  0  0  0
    3.1138   -1.4001    0.4560 O   0  0  0  0  0  0  0  0  0  0  0  0
    0.5164   -1.1347   -0.2140 C   0  0  0  0  0  0  0  0  0  0  0  0
   -0.8050   -0.9377   -0.5412 C   0  0  0  0  0  0  0  0  0  0  0  0
   -2.2562    4.7267    0.1176 H   0  0  0  0  0  0  0  0  0  0  0  0
    1.4236    2.0599    0.6169 H   0  0  0  0  0  0  0  0  0  0  0  0
    0.9880   -2.1070   -0.2621 H   0  0  0  0  0  0  0  0  0  0  0  0
   -1.4447   -1.7529   -0.8662 H   0  0  0  0  0  0  0  0  0  0  0  0
   -2.9431    5.4093    0.0195 O   0  0  0  0  0  0  0  0  0  0  0  0
   -4.0491    4.8235   -0.4403 C   0  0  0  0  0  0  0  0  0  0  0  0
   -4.1940    3.6549   -0.6976 O   0  0  0  0  0  0  0  0  0  0  0  0
   -5.1719    5.8714   -0.6041 C   0  0  0  0  0  0  0  0  0  0  0  0
   -6.2658    5.2998   -1.1111 F   0  0  0  0  0  0  0  0  0  0  0  0
   -5.4778    6.4106    0.5887 F   0  0  0  0  0  0  0  0  0  0  0  0
   -4.7764    6.8567   -1.4274 F   0  0  0  0  0  0  0  0  0  0  0  0
  1  4  1  0  0  0  0
  2  1  1  0  0  0  0
  3  2  1  0  0  0  0
  4  5  2  0  0  0  0
  5 13  1  0  0  0  0
  6  5  1  0  0  0  0
  6  7  1  0  0  0  0
  7  8  2  0  0  0  0
  9  7  2  0  0  0  0
 10  6  2  0  0  0  0
 11  1  2  0  0  0  0
 11 10  1  0  0  0  0
 14 10  1  0  0  0  0
 15 11  1  0  0  0  0
 16 12  1  0  0  0  0
 17 16  1  0  0  0  0
 18 17  2  0  0  0  0
 19 17  1  0  0  0  0
 19 21  1  0  0  0  0
 20 19  1  0  0  0  0
 22 19  1  0  0  0  0
M  RAD  3   2   2   3   3   4   2
M  END
