Coordinates from ORCA-job 4-NO2PhN2+~CF3COO-_B3LYPG-6-31G_dp-CH-Scan-d09-49-n800
 OpenBabel11261919433D

 22 21  0  0  0  0  0  0  0  0999 V2000
   -1.4661    0.4449   -0.4526 C   0  0  0  0  0  0  0  0  0  0  0  0
   -2.8219    0.5410   -0.7961 N   0  0  0  0  0  0  0  0  0  0  0  0
   -3.8977    0.6752   -1.0576 N   0  0  0  0  0  0  0  0  0  0  0  0
   -0.8989    1.6624   -0.0619 C   0  0  0  0  0  0  0  0  0  0  0  0
    0.4732    1.4826    0.2715 C   0  0  0  0  0  0  0  0  0  0  0  0
    1.0913    0.2432    0.1937 C   0  0  0  0  0  0  0  0  0  0  0  0
    2.5288    0.1257    0.5566 N   0  0  0  0  0  0  0  0  0  0  0  0
    3.1100    1.1441    0.9168 O   0  0  0  0  0  0  0  0  0  0  0  0
    3.0434   -0.9886    0.4716 O   0  0  0  0  0  0  0  0  0  0  0  0
    0.4376   -0.9380   -0.2139 C   0  0  0  0  0  0  0  0  0  0  0  0
   -0.8931   -0.8500   -0.5530 C   0  0  0  0  0  0  0  0  0  0  0  0
   -2.1504    3.8971    0.0026 H   0  0  0  0  0  0  0  0  0  0  0  0
    1.0751    2.3246    0.5993 H   0  0  0  0  0  0  0  0  0  0  0  0
    0.9852   -1.8703   -0.2512 H   0  0  0  0  0  0  0  0  0  0  0  0
   -1.4613   -1.7170   -0.8762 H   0  0  0  0  0  0  0  0  0  0  0  0
   -2.6762    4.7275   -0.0086 O   0  0  0  0  0  0  0  0  0  0  0  0
   -3.8892    4.4641   -0.4704 C   0  0  0  0  0  0  0  0  0  0  0  0
   -4.3235    3.3929   -0.8256 O   0  0  0  0  0  0  0  0  0  0  0  0
   -4.7374    5.7549   -0.5088 C   0  0  0  0  0  0  0  0  0  0  0  0
   -5.9701    5.4886   -0.9479 F   0  0  0  0  0  0  0  0  0  0  0  0
   -4.8248    6.2951    0.7194 F   0  0  0  0  0  0  0  0  0  0  0  0
   -4.1734    6.6589   -1.3296 F   0  0  0  0  0  0  0  0  0  0  0  0
  1  4  1  0  0  0  0
  2  1  1  0  0  0  0
  3  2  1  0  0  0  0
  4  5  2  0  0  0  0
  5 13  1  0  0  0  0
  6  5  1  0  0  0  0
  6  7  1  0  0  0  0
  7  8  2  0  0  0  0
  9  7  2  0  0  0  0
 10  6  2  0  0  0  0
 11  1  2  0  0  0  0
 11 10  1  0  0  0  0
 14 10  1  0  0  0  0
 15 11  1  0  0  0  0
 16 12  1  0  0  0  0
 17 16  1  0  0  0  0
 18 17  2  0  0  0  0
 19 17  1  0  0  0  0
 19 21  1  0  0  0  0
 20 19  1  0  0  0  0
 22 19  1  0  0  0  0
M  RAD  3   2   2   3   3   4   2
M  END
