Coordinates from ORCA-job 4-NO2PhN2+~CF3COO-_B3LYPG-6-31G_dp-CH-Scan-d09-49-n800
 OpenBabel11261919433D

 22 21  0  0  0  0  0  0  0  0999 V2000
   -0.8260    1.0371   -1.6125 C   0  0  0  0  0  0  0  0  0  0  0  0
   -1.7083    1.3892   -2.6491 N   0  0  0  0  0  0  0  0  0  0  0  0
   -2.3331    1.6896   -3.5240 N   0  0  0  0  0  0  0  0  0  0  0  0
    0.5021    1.2474   -1.9821 C   0  0  0  0  0  0  0  0  0  0  0  0
    1.3619    0.8603   -0.9091 C   0  0  0  0  0  0  0  0  0  0  0  0
    0.8673    0.3422    0.2788 C   0  0  0  0  0  0  0  0  0  0  0  0
    1.8186   -0.0559    1.3499 N   0  0  0  0  0  0  0  0  0  0  0  0
    3.0189    0.0509    1.1172 O   0  0  0  0  0  0  0  0  0  0  0  0
    1.3426   -0.4653    2.4093 O   0  0  0  0  0  0  0  0  0  0  0  0
   -0.5085    0.1719    0.5549 C   0  0  0  0  0  0  0  0  0  0  0  0
   -1.4090    0.5341   -0.4199 C   0  0  0  0  0  0  0  0  0  0  0  0
   -1.9286    4.9708   -0.4602 H   0  0  0  0  0  0  0  0  0  0  0  0
    2.4399    0.9623   -1.0032 H   0  0  0  0  0  0  0  0  0  0  0  0
   -0.8182   -0.2282    1.5107 H   0  0  0  0  0  0  0  0  0  0  0  0
   -2.4824    0.4521   -0.2798 H   0  0  0  0  0  0  0  0  0  0  0  0
   -2.7775    5.1412   -0.0167 O   0  0  0  0  0  0  0  0  0  0  0  0
   -3.5938    4.1183   -0.2733 C   0  0  0  0  0  0  0  0  0  0  0  0
   -3.3363    3.1477   -0.9421 O   0  0  0  0  0  0  0  0  0  0  0  0
   -4.9623    4.3444    0.4065 C   0  0  0  0  0  0  0  0  0  0  0  0
   -5.7514    3.2876    0.2072 F   0  0  0  0  0  0  0  0  0  0  0  0
   -4.8024    4.5276    1.7261 F   0  0  0  0  0  0  0  0  0  0  0  0
   -5.5528    5.4340   -0.1102 F   0  0  0  0  0  0  0  0  0  0  0  0
  1 11  1  0  0  0  0
  2  1  1  0  0  0  0
  3  2  1  0  0  0  0
  4  1  2  0  0  0  0
  4  5  1  0  0  0  0
  5  6  2  0  0  0  0
  6 10  1  0  0  0  0
  6  7  1  0  0  0  0
  7  9  2  0  0  0  0
  8  7  2  0  0  0  0
 10 14  1  0  0  0  0
 11 15  1  0  0  0  0
 11 10  2  0  0  0  0
 12 16  1  0  0  0  0
 13  5  1  0  0  0  0
 17 16  1  0  0  0  0
 17 19  1  0  0  0  0
 18 17  2  0  0  0  0
 19 21  1  0  0  0  0
 20 19  1  0  0  0  0
 22 19  1  0  0  0  0
M  RAD  3   2   2   3   3   4   2
M  END
