Coordinates from ORCA-job 4-NO2PhN2+~CF3COO-_B3LYPG-6-31G_dp-CH-Scan-d09-49-n800
 OpenBabel11261919433D

 22 21  0  0  0  0  0  0  0  0999 V2000
   -1.3929    0.4268   -0.4427 C   0  0  0  0  0  0  0  0  0  0  0  0
   -2.7474    0.5648   -0.7821 N   0  0  0  0  0  0  0  0  0  0  0  0
   -3.8211    0.7298   -1.0363 N   0  0  0  0  0  0  0  0  0  0  0  0
   -0.7981    1.6270   -0.0427 C   0  0  0  0  0  0  0  0  0  0  0  0
    0.5705    1.4071    0.2870 C   0  0  0  0  0  0  0  0  0  0  0  0
    1.1559    0.1528    0.1978 C   0  0  0  0  0  0  0  0  0  0  0  0
    2.5899   -0.0062    0.5588 N   0  0  0  0  0  0  0  0  0  0  0  0
    3.1989    0.9934    0.9266 O   0  0  0  0  0  0  0  0  0  0  0  0
    3.0754   -1.1327    0.4640 O   0  0  0  0  0  0  0  0  0  0  0  0
    0.4715   -1.0083   -0.2198 C   0  0  0  0  0  0  0  0  0  0  0  0
   -0.8564   -0.8831   -0.5567 C   0  0  0  0  0  0  0  0  0  0  0  0
   -2.1898    4.1670    0.0414 H   0  0  0  0  0  0  0  0  0  0  0  0
    1.1957    2.2294    0.6215 H   0  0  0  0  0  0  0  0  0  0  0  0
    0.9953   -1.9538   -0.2657 H   0  0  0  0  0  0  0  0  0  0  0  0
   -1.4477   -1.7319   -0.8869 H   0  0  0  0  0  0  0  0  0  0  0  0
   -2.7659    4.9554    0.0019 O   0  0  0  0  0  0  0  0  0  0  0  0
   -3.9555    4.5873   -0.4604 C   0  0  0  0  0  0  0  0  0  0  0  0
   -4.3002    3.4765   -0.7848 O   0  0  0  0  0  0  0  0  0  0  0  0
   -4.8950    5.8107   -0.5424 C   0  0  0  0  0  0  0  0  0  0  0  0
   -6.1042    5.4382   -0.9683 F   0  0  0  0  0  0  0  0  0  0  0  0
   -5.0209    6.3870    0.6654 F   0  0  0  0  0  0  0  0  0  0  0  0
   -4.3975    6.7219   -1.3973 F   0  0  0  0  0  0  0  0  0  0  0  0
  1  4  1  0  0  0  0
  2  1  1  0  0  0  0
  3  2  1  0  0  0  0
  4  5  2  0  0  0  0
  5 13  1  0  0  0  0
  6  5  1  0  0  0  0
  6  7  1  0  0  0  0
  7  8  2  0  0  0  0
  9  7  2  0  0  0  0
 10  6  2  0  0  0  0
 11  1  2  0  0  0  0
 11 10  1  0  0  0  0
 14 10  1  0  0  0  0
 15 11  1  0  0  0  0
 16 12  1  0  0  0  0
 17 16  1  0  0  0  0
 18 17  2  0  0  0  0
 19 17  1  0  0  0  0
 19 21  1  0  0  0  0
 20 19  1  0  0  0  0
 22 19  1  0  0  0  0
M  RAD  3   2   2   3   3   4   2
M  END
