Coordinates from ORCA-job 4-NO2PhN2+~CF3COO-_B3LYPG-6-31G_dp-CH-Scan-d09-49-n800
 OpenBabel11261919433D

 22 21  0  0  0  0  0  0  0  0999 V2000
   -1.2922    0.4049   -0.4267 C   0  0  0  0  0  0  0  0  0  0  0  0
   -2.6435    0.6043   -0.7564 N   0  0  0  0  0  0  0  0  0  0  0  0
   -3.7093    0.8231   -1.0051 N   0  0  0  0  0  0  0  0  0  0  0  0
   -0.6523    1.5815   -0.0294 C   0  0  0  0  0  0  0  0  0  0  0  0
    0.7096    1.3028    0.2912 C   0  0  0  0  0  0  0  0  0  0  0  0
    1.2428    0.0260    0.1979 C   0  0  0  0  0  0  0  0  0  0  0  0
    2.6708   -0.1925    0.5513 N   0  0  0  0  0  0  0  0  0  0  0  0
    3.3232    0.7808    0.9160 O   0  0  0  0  0  0  0  0  0  0  0  0
    3.1091   -1.3385    0.4563 O   0  0  0  0  0  0  0  0  0  0  0  0
    0.5095   -1.1069   -0.2173 C   0  0  0  0  0  0  0  0  0  0  0  0
   -0.8138   -0.9271   -0.5468 C   0  0  0  0  0  0  0  0  0  0  0  0
   -2.2431    4.5872    0.0989 H   0  0  0  0  0  0  0  0  0  0  0  0
    1.3712    2.0977    0.6229 H   0  0  0  0  0  0  0  0  0  0  0  0
    0.9943   -2.0727   -0.2666 H   0  0  0  0  0  0  0  0  0  0  0  0
   -1.4417   -1.7503   -0.8748 H   0  0  0  0  0  0  0  0  0  0  0  0
   -2.9019    5.2993    0.0152 O   0  0  0  0  0  0  0  0  0  0  0  0
   -4.0340    4.7681   -0.4449 C   0  0  0  0  0  0  0  0  0  0  0  0
   -4.2316    3.6105   -0.7181 O   0  0  0  0  0  0  0  0  0  0  0  0
   -5.1112    5.8656   -0.5904 C   0  0  0  0  0  0  0  0  0  0  0  0
   -6.2408    5.3425   -1.0710 F   0  0  0  0  0  0  0  0  0  0  0  0
   -5.3670    6.4259    0.6045 F   0  0  0  0  0  0  0  0  0  0  0  0
   -4.6877    6.8269   -1.4285 F   0  0  0  0  0  0  0  0  0  0  0  0
  1  4  1  0  0  0  0
  2  1  1  0  0  0  0
  3  2  1  0  0  0  0
  4  5  2  0  0  0  0
  5 13  1  0  0  0  0
  6  5  1  0  0  0  0
  6  7  1  0  0  0  0
  7  8  2  0  0  0  0
  9  7  2  0  0  0  0
 10  6  2  0  0  0  0
 11  1  2  0  0  0  0
 11 10  1  0  0  0  0
 14 10  1  0  0  0  0
 15 11  1  0  0  0  0
 16 12  1  0  0  0  0
 17 16  1  0  0  0  0
 18 17  2  0  0  0  0
 19 17  1  0  0  0  0
 19 21  1  0  0  0  0
 20 19  1  0  0  0  0
 22 19  1  0  0  0  0
M  RAD  3   2   2   3   3   4   2
M  END
