Coordinates from ORCA-job 4-NO2PhN2+~CF3COO-_B3LYPG-6-31G_dp-CH-Scan-d09-49-n800
 OpenBabel11261919433D

 22 21  0  0  0  0  0  0  0  0999 V2000
   -1.5469    0.4617   -0.4602 C   0  0  0  0  0  0  0  0  0  0  0  0
   -2.9036    0.5130   -0.8052 N   0  0  0  0  0  0  0  0  0  0  0  0
   -3.9819    0.6203   -1.0671 N   0  0  0  0  0  0  0  0  0  0  0  0
   -1.0118    1.6962   -0.0757 C   0  0  0  0  0  0  0  0  0  0  0  0
    0.3637    1.5622    0.2581 C   0  0  0  0  0  0  0  0  0  0  0  0
    1.0192    0.3415    0.1872 C   0  0  0  0  0  0  0  0  0  0  0  0
    2.4600    0.2708    0.5493 N   0  0  0  0  0  0  0  0  0  0  0  0
    3.0088    1.3090    0.9028 O   0  0  0  0  0  0  0  0  0  0  0  0
    3.0081   -0.8275    0.4695 O   0  0  0  0  0  0  0  0  0  0  0  0
    0.4009   -0.8600   -0.2127 C   0  0  0  0  0  0  0  0  0  0  0  0
   -0.9324   -0.8139   -0.5517 C   0  0  0  0  0  0  0  0  0  0  0  0
   -2.1138    3.6129   -0.0201 H   0  0  0  0  0  0  0  0  0  0  0  0
    0.9381    2.4251    0.5803 H   0  0  0  0  0  0  0  0  0  0  0  0
    0.9754   -1.7762   -0.2452 H   0  0  0  0  0  0  0  0  0  0  0  0
   -1.4740   -1.6995   -0.8694 H   0  0  0  0  0  0  0  0  0  0  0  0
   -2.5902    4.4874   -0.0086 O   0  0  0  0  0  0  0  0  0  0  0  0
   -3.8140    4.3342   -0.4747 C   0  0  0  0  0  0  0  0  0  0  0  0
   -4.3387    3.3119   -0.8601 O   0  0  0  0  0  0  0  0  0  0  0  0
   -4.5604    5.6876   -0.4797 C   0  0  0  0  0  0  0  0  0  0  0  0
   -5.8067    5.5352   -0.9370 F   0  0  0  0  0  0  0  0  0  0  0  0
   -4.6195    6.1956    0.7646 F   0  0  0  0  0  0  0  0  0  0  0  0
   -3.9200    6.5717   -1.2661 F   0  0  0  0  0  0  0  0  0  0  0  0
  1  4  1  0  0  0  0
  2  1  1  0  0  0  0
  3  2  1  0  0  0  0
  4  5  2  0  0  0  0
  5 13  1  0  0  0  0
  6  5  1  0  0  0  0
  6  7  1  0  0  0  0
  7  8  2  0  0  0  0
  9  7  2  0  0  0  0
 10  6  2  0  0  0  0
 11  1  2  0  0  0  0
 11 10  1  0  0  0  0
 12 16  1  0  0  0  0
 14 10  1  0  0  0  0
 15 11  1  0  0  0  0
 17 16  1  0  0  0  0
 18 17  2  0  0  0  0
 19 17  1  0  0  0  0
 19 21  1  0  0  0  0
 20 19  1  0  0  0  0
 22 19  1  0  0  0  0
M  RAD  3   2   2   3   3   4   2
M  END
