Coordinates from ORCA-job 4-NO2PhN2+~CF3COO-_B3LYPG-6-31G_dp-CH-Scan-d09-49-n800
 OpenBabel11261919433D

 22 21  0  0  0  0  0  0  0  0999 V2000
   -1.6680    0.4970   -0.4716 C   0  0  0  0  0  0  0  0  0  0  0  0
   -3.0262    0.4941   -0.8141 N   0  0  0  0  0  0  0  0  0  0  0  0
   -4.1047    0.6083   -1.0701 N   0  0  0  0  0  0  0  0  0  0  0  0
   -1.1703    1.7497   -0.0973 C   0  0  0  0  0  0  0  0  0  0  0  0
    0.2049    1.6824    0.2356 C   0  0  0  0  0  0  0  0  0  0  0  0
    0.9086    0.4869    0.1757 C   0  0  0  0  0  0  0  0  0  0  0  0
    2.3510    0.4790    0.5376 N   0  0  0  0  0  0  0  0  0  0  0  0
    2.8541    1.5424    0.8827 O   0  0  0  0  0  0  0  0  0  0  0  0
    2.9426   -0.5965    0.4659 O   0  0  0  0  0  0  0  0  0  0  0  0
    0.3372   -0.7386   -0.2119 C   0  0  0  0  0  0  0  0  0  0  0  0
   -0.9990   -0.7481   -0.5497 C   0  0  0  0  0  0  0  0  0  0  0  0
   -2.0101    3.1819   -0.0493 H   0  0  0  0  0  0  0  0  0  0  0  0
    0.7385    2.5744    0.5473 H   0  0  0  0  0  0  0  0  0  0  0  0
    0.9459   -1.6326   -0.2373 H   0  0  0  0  0  0  0  0  0  0  0  0
   -1.5050   -1.6571   -0.8587 H   0  0  0  0  0  0  0  0  0  0  0  0
   -2.4679    4.1518   -0.0009 O   0  0  0  0  0  0  0  0  0  0  0  0
   -3.6786    4.1427   -0.4780 C   0  0  0  0  0  0  0  0  0  0  0  0
   -4.3148    3.1990   -0.9197 O   0  0  0  0  0  0  0  0  0  0  0  0
   -4.3051    5.5577   -0.4380 C   0  0  0  0  0  0  0  0  0  0  0  0
   -5.5547    5.5450   -0.9171 F   0  0  0  0  0  0  0  0  0  0  0  0
   -4.3411    6.0237    0.8255 F   0  0  0  0  0  0  0  0  0  0  0  0
   -3.5770    6.4160   -1.1786 F   0  0  0  0  0  0  0  0  0  0  0  0
  1  4  1  0  0  0  0
  2  1  1  0  0  0  0
  3  2  1  0  0  0  0
  4  5  2  0  0  0  0
  5 13  1  0  0  0  0
  6  5  1  0  0  0  0
  6  7  1  0  0  0  0
  7  8  2  0  0  0  0
  9  7  2  0  0  0  0
 10  6  2  0  0  0  0
 11  1  2  0  0  0  0
 11 10  1  0  0  0  0
 12 16  1  0  0  0  0
 14 10  1  0  0  0  0
 15 11  1  0  0  0  0
 17 19  1  0  0  0  0
 17 16  1  0  0  0  0
 18 17  2  0  0  0  0
 19 21  1  0  0  0  0
 20 19  1  0  0  0  0
 22 19  1  0  0  0  0
M  RAD  3   2   2   3   3   4   2
M  END
