Coordinates from ORCA-job 4-NO2PhN2+~CF3COO-_B3LYPG-6-31G_dp-CH-Scan-d09-49-n800
 OpenBabel11261919433D

 22 21  0  0  0  0  0  0  0  0999 V2000
   -1.1091    0.4360   -0.5163 C   0  0  0  0  0  0  0  0  0  0  0  0
   -2.4199    0.7656   -0.9091 N   0  0  0  0  0  0  0  0  0  0  0  0
   -3.4429    1.0934   -1.2135 N   0  0  0  0  0  0  0  0  0  0  0  0
   -0.3580    1.5626   -0.1785 C   0  0  0  0  0  0  0  0  0  0  0  0
    0.9562    1.1583    0.2086 C   0  0  0  0  0  0  0  0  0  0  0  0
    1.3447   -0.1728    0.2260 C   0  0  0  0  0  0  0  0  0  0  0  0
    2.7275   -0.5213    0.6472 N   0  0  0  0  0  0  0  0  0  0  0  0
    3.4732    0.3974    0.9736 O   0  0  0  0  0  0  0  0  0  0  0  0
    3.0392   -1.7121    0.6427 O   0  0  0  0  0  0  0  0  0  0  0  0
    0.5009   -1.2463   -0.1370 C   0  0  0  0  0  0  0  0  0  0  0  0
   -0.7831   -0.9467   -0.5285 C   0  0  0  0  0  0  0  0  0  0  0  0
   -2.2897    5.4456   -0.0355 H   0  0  0  0  0  0  0  0  0  0  0  0
    1.6942    1.8980    0.5060 H   0  0  0  0  0  0  0  0  0  0  0  0
    0.8756   -2.2604   -0.1005 H   0  0  0  0  0  0  0  0  0  0  0  0
   -1.4894   -1.7173   -0.8241 H   0  0  0  0  0  0  0  0  0  0  0  0
   -3.1280    5.9361   -0.0917 O   0  0  0  0  0  0  0  0  0  0  0  0
   -4.0862    5.0734   -0.4408 C   0  0  0  0  0  0  0  0  0  0  0  0
   -3.9480    3.8966   -0.6561 O   0  0  0  0  0  0  0  0  0  0  0  0
   -5.4450    5.8018   -0.5305 C   0  0  0  0  0  0  0  0  0  0  0  0
   -6.3966    4.9531   -0.9228 F   0  0  0  0  0  0  0  0  0  0  0  0
   -5.7796    6.3041    0.6704 F   0  0  0  0  0  0  0  0  0  0  0  0
   -5.3754    6.8141   -1.4112 F   0  0  0  0  0  0  0  0  0  0  0  0
  1  4  1  0  0  0  0
  2  1  1  0  0  0  0
  3  2  1  0  0  0  0
  4  5  2  0  0  0  0
  5  6  1  0  0  0  0
  5 13  1  0  0  0  0
  6  7  1  0  0  0  0
  7  8  2  0  0  0  0
  9  7  2  0  0  0  0
 10 14  1  0  0  0  0
 10  6  2  0  0  0  0
 11  1  2  0  0  0  0
 11 10  1  0  0  0  0
 15 11  1  0  0  0  0
 16 12  1  0  0  0  0
 17 16  1  0  0  0  0
 18 17  2  0  0  0  0
 19 17  1  0  0  0  0
 19 21  1  0  0  0  0
 20 19  1  0  0  0  0
 22 19  1  0  0  0  0
M  RAD  3   2   2   3   3   4   2
M  END
