Coordinates from ORCA-job 4-NO2PhN2+~CF3COO-_B3LYPG-6-31G_dp-CH-Scan-d09-49-n800
 OpenBabel11261919433D

 22 21  0  0  0  0  0  0  0  0999 V2000
   -1.3100    0.4072   -0.4307 C   0  0  0  0  0  0  0  0  0  0  0  0
   -2.6621    0.5945   -0.7628 N   0  0  0  0  0  0  0  0  0  0  0  0
   -3.7299    0.8026   -1.0118 N   0  0  0  0  0  0  0  0  0  0  0  0
   -0.6803    1.5883   -0.0299 C   0  0  0  0  0  0  0  0  0  0  0  0
    0.6830    1.3215    0.2934 C   0  0  0  0  0  0  0  0  0  0  0  0
    1.2276    0.0495    0.1988 C   0  0  0  0  0  0  0  0  0  0  0  0
    2.6566   -0.1570    0.5551 N   0  0  0  0  0  0  0  0  0  0  0  0
    3.2992    0.8211    0.9240 O   0  0  0  0  0  0  0  0  0  0  0  0
    3.1053   -1.2987    0.4579 O   0  0  0  0  0  0  0  0  0  0  0  0
    0.5051   -1.0888   -0.2201 C   0  0  0  0  0  0  0  0  0  0  0  0
   -0.8191   -0.9201   -0.5520 C   0  0  0  0  0  0  0  0  0  0  0  0
   -2.2362    4.4995    0.0873 H   0  0  0  0  0  0  0  0  0  0  0  0
    1.3367    2.1217    0.6279 H   0  0  0  0  0  0  0  0  0  0  0  0
    0.9985   -2.0502   -0.2703 H   0  0  0  0  0  0  0  0  0  0  0  0
   -1.4388   -1.7482   -0.8830 H   0  0  0  0  0  0  0  0  0  0  0  0
   -2.8770    5.2293    0.0127 O   0  0  0  0  0  0  0  0  0  0  0  0
   -4.0240    4.7332   -0.4476 C   0  0  0  0  0  0  0  0  0  0  0  0
   -4.2543    3.5840   -0.7317 O   0  0  0  0  0  0  0  0  0  0  0  0
   -5.0713    5.8607   -0.5808 C   0  0  0  0  0  0  0  0  0  0  0  0
   -6.2256    5.3678   -1.0343 F   0  0  0  0  0  0  0  0  0  0  0  0
   -5.2869    6.4399    0.6129 F   0  0  0  0  0  0  0  0  0  0  0  0
   -4.6357    6.8011   -1.4367 F   0  0  0  0  0  0  0  0  0  0  0  0
  1  4  1  0  0  0  0
  2  1  1  0  0  0  0
  3  2  1  0  0  0  0
  4  5  2  0  0  0  0
  5 13  1  0  0  0  0
  6  5  1  0  0  0  0
  6  7  1  0  0  0  0
  7  8  2  0  0  0  0
  9  7  2  0  0  0  0
 10  6  2  0  0  0  0
 11  1  2  0  0  0  0
 11 10  1  0  0  0  0
 14 10  1  0  0  0  0
 15 11  1  0  0  0  0
 16 12  1  0  0  0  0
 17 16  1  0  0  0  0
 18 17  2  0  0  0  0
 19 17  1  0  0  0  0
 19 21  1  0  0  0  0
 20 19  1  0  0  0  0
 22 19  1  0  0  0  0
M  RAD  3   2   2   3   3   4   2
M  END
