Coordinates from ORCA-job 4-NO2PhN2+~CF3COO-_B3LYPG-6-31G_dp-CH-Scan-d09-49-n800
 OpenBabel11261919433D

 22 22  0  0  0  0  0  0  0  0999 V2000
   -1.7064    0.7266   -0.3516 C   0  0  0  0  0  0  0  0  0  0  0  0
   -3.0875    0.6349   -0.6412 N   0  0  0  0  0  0  0  0  0  0  0  0
   -4.0044    1.3752   -0.7687 N   0  0  0  0  0  0  0  0  0  0  0  0
   -0.9986    1.9299   -0.1596 C   0  0  0  0  0  0  0  0  0  0  0  0
    0.3663    1.8548    0.1044 C   0  0  0  0  0  0  0  0  0  0  0  0
    0.9873    0.6100    0.1758 C   0  0  0  0  0  0  0  0  0  0  0  0
    2.4381    0.5538    0.4601 N   0  0  0  0  0  0  0  0  0  0  0  0
    3.0240    1.6214    0.6162 O   0  0  0  0  0  0  0  0  0  0  0  0
    2.9567   -0.5580    0.5196 O   0  0  0  0  0  0  0  0  0  0  0  0
    0.2971   -0.5850   -0.0113 C   0  0  0  0  0  0  0  0  0  0  0  0
   -1.0640   -0.5196   -0.2805 C   0  0  0  0  0  0  0  0  0  0  0  0
   -1.4422    2.7742   -0.2108 H   0  0  0  0  0  0  0  0  0  0  0  0
    0.9535    2.7516    0.2580 H   0  0  0  0  0  0  0  0  0  0  0  0
    0.8252   -1.5277    0.0528 H   0  0  0  0  0  0  0  0  0  0  0  0
   -1.6472   -1.4194   -0.4392 H   0  0  0  0  0  0  0  0  0  0  0  0
   -3.5484    2.9665   -0.4690 O   0  0  0  0  0  0  0  0  0  0  0  0
   -4.4642    3.8346   -0.8800 C   0  0  0  0  0  0  0  0  0  0  0  0
   -5.4695    3.6421   -1.5144 O   0  0  0  0  0  0  0  0  0  0  0  0
   -4.0590    5.2528   -0.3891 C   0  0  0  0  0  0  0  0  0  0  0  0
   -4.7496    6.1930   -1.0363 F   0  0  0  0  0  0  0  0  0  0  0  0
   -4.3049    5.3687    0.9299 F   0  0  0  0  0  0  0  0  0  0  0  0
   -2.7418    5.4784   -0.5869 F   0  0  0  0  0  0  0  0  0  0  0  0
  1 11  2  0  0  0  0
  1  4  1  0  0  0  0
  2  1  1  0  0  0  0
  3  2  1  0  0  0  0
  3 16  1  0  0  0  0
  4  5  2  0  0  0  0
  5  6  1  0  0  0  0
  5 13  1  0  0  0  0
  6  7  1  0  0  0  0
  7  9  2  0  0  0  0
  7  8  2  0  0  0  0
 10 14  1  0  0  0  0
 10  6  2  0  0  0  0
 11 10  1  0  0  0  0
 12  4  1  0  0  0  0
 15 11  1  0  0  0  0
 17 16  1  0  0  0  0
 17 19  1  0  0  0  0
 18 17  2  0  0  0  0
 19 21  1  0  0  0  0
 20 19  1  0  0  0  0
 22 19  1  0  0  0  0
M  RAD  2   2   2   3   2
M  END
