Coordinates from ORCA-job 4-NO2PhN2+~CF3COO-_B3LYPG-6-31G_dp-CH-Scan-d09-49-n800
 OpenBabel11261919433D

 22 21  0  0  0  0  0  0  0  0999 V2000
   -1.1286    0.4239   -0.4860 C   0  0  0  0  0  0  0  0  0  0  0  0
   -2.4491    0.7386   -0.8571 N   0  0  0  0  0  0  0  0  0  0  0  0
   -3.4818    1.0535   -1.1417 N   0  0  0  0  0  0  0  0  0  0  0  0
   -0.3927    1.5556   -0.1315 C   0  0  0  0  0  0  0  0  0  0  0  0
    0.9319    1.1654    0.2338 C   0  0  0  0  0  0  0  0  0  0  0  0
    1.3430   -0.1589    0.2178 C   0  0  0  0  0  0  0  0  0  0  0  0
    2.7357   -0.4928    0.6178 N   0  0  0  0  0  0  0  0  0  0  0  0
    3.4702    0.4316    0.9533 O   0  0  0  0  0  0  0  0  0  0  0  0
    3.0665   -1.6781    0.5871 O   0  0  0  0  0  0  0  0  0  0  0  0
    0.5137   -1.2385   -0.1601 C   0  0  0  0  0  0  0  0  0  0  0  0
   -0.7793   -0.9525   -0.5316 C   0  0  0  0  0  0  0  0  0  0  0  0
   -2.2964    5.3568    0.0284 H   0  0  0  0  0  0  0  0  0  0  0  0
    1.6603    1.9109    0.5402 H   0  0  0  0  0  0  0  0  0  0  0  0
    0.9058   -2.2466   -0.1498 H   0  0  0  0  0  0  0  0  0  0  0  0
   -1.4756   -1.7285   -0.8364 H   0  0  0  0  0  0  0  0  0  0  0  0
   -3.1160    5.8754   -0.0463 O   0  0  0  0  0  0  0  0  0  0  0  0
   -4.0915    5.0503   -0.4353 C   0  0  0  0  0  0  0  0  0  0  0  0
   -3.9877    3.8718   -0.6608 O   0  0  0  0  0  0  0  0  0  0  0  0
   -5.4199    5.8276   -0.5632 C   0  0  0  0  0  0  0  0  0  0  0  0
   -6.3950    5.0090   -0.9622 F   0  0  0  0  0  0  0  0  0  0  0  0
   -5.7601    6.3633    0.6212 F   0  0  0  0  0  0  0  0  0  0  0  0
   -5.2927    6.8211   -1.4592 F   0  0  0  0  0  0  0  0  0  0  0  0
  1  4  1  0  0  0  0
  2  1  1  0  0  0  0
  3  2  1  0  0  0  0
  4  5  2  0  0  0  0
  5 13  1  0  0  0  0
  6  5  1  0  0  0  0
  6  7  1  0  0  0  0
  7  8  2  0  0  0  0
  9  7  2  0  0  0  0
 10 14  1  0  0  0  0
 10  6  2  0  0  0  0
 11  1  2  0  0  0  0
 11 10  1  0  0  0  0
 15 11  1  0  0  0  0
 16 12  1  0  0  0  0
 17 16  1  0  0  0  0
 18 17  2  0  0  0  0
 19 17  1  0  0  0  0
 19 21  1  0  0  0  0
 20 19  1  0  0  0  0
 22 19  1  0  0  0  0
M  RAD  3   2   2   3   3   4   2
M  END
