Coordinates from ORCA-job 4-NO2PhN2+~CF3COO-_B3LYPG-6-31G_dp-CH-Scan-d09-49-n800
 OpenBabel11261919433D

 22 21  0  0  0  0  0  0  0  0999 V2000
   -1.5109    0.4530   -0.4566 C   0  0  0  0  0  0  0  0  0  0  0  0
   -2.8674    0.5239   -0.8006 N   0  0  0  0  0  0  0  0  0  0  0  0
   -3.9449    0.6424   -1.0617 N   0  0  0  0  0  0  0  0  0  0  0  0
   -0.9621    1.6801   -0.0691 C   0  0  0  0  0  0  0  0  0  0  0  0
    0.4122    1.5266    0.2644 C   0  0  0  0  0  0  0  0  0  0  0  0
    1.0518    0.2978    0.1901 C   0  0  0  0  0  0  0  0  0  0  0  0
    2.4914    0.2070    0.5524 N   0  0  0  0  0  0  0  0  0  0  0  0
    3.0542    1.2368    0.9089 O   0  0  0  0  0  0  0  0  0  0  0  0
    3.0253   -0.8982    0.4698 O   0  0  0  0  0  0  0  0  0  0  0  0
    0.4183   -0.8951   -0.2135 C   0  0  0  0  0  0  0  0  0  0  0  0
   -0.9141   -0.8311   -0.5524 C   0  0  0  0  0  0  0  0  0  0  0  0
   -2.1332    3.7360   -0.0089 H   0  0  0  0  0  0  0  0  0  0  0  0
    0.9984    2.3805    0.5892 H   0  0  0  0  0  0  0  0  0  0  0  0
    0.9814   -1.8182   -0.2483 H   0  0  0  0  0  0  0  0  0  0  0  0
   -1.4670   -1.7088   -0.8726 H   0  0  0  0  0  0  0  0  0  0  0  0
   -2.6292    4.5914   -0.0075 O   0  0  0  0  0  0  0  0  0  0  0  0
   -3.8495    4.3917   -0.4734 C   0  0  0  0  0  0  0  0  0  0  0  0
   -4.3361    3.3480   -0.8469 O   0  0  0  0  0  0  0  0  0  0  0  0
   -4.6387    5.7201   -0.4929 C   0  0  0  0  0  0  0  0  0  0  0  0
   -5.8806    5.5200   -0.9427 F   0  0  0  0  0  0  0  0  0  0  0  0
   -4.7089    6.2422    0.7446 F   0  0  0  0  0  0  0  0  0  0  0  0
   -4.0299    6.6129   -1.2941 F   0  0  0  0  0  0  0  0  0  0  0  0
  1  4  1  0  0  0  0
  2  1  1  0  0  0  0
  3  2  1  0  0  0  0
  4  5  2  0  0  0  0
  5 13  1  0  0  0  0
  6  5  1  0  0  0  0
  6  7  1  0  0  0  0
  7  8  2  0  0  0  0
  9  7  2  0  0  0  0
 10  6  2  0  0  0  0
 11  1  2  0  0  0  0
 11 10  1  0  0  0  0
 12 16  1  0  0  0  0
 14 10  1  0  0  0  0
 15 11  1  0  0  0  0
 17 16  1  0  0  0  0
 18 17  2  0  0  0  0
 19 17  1  0  0  0  0
 19 21  1  0  0  0  0
 20 19  1  0  0  0  0
 22 19  1  0  0  0  0
M  RAD  3   2   2   3   3   4   2
M  END
