Coordinates from ORCA-job 4-NO2PhN2+~CF3COO-_B3LYPG-6-31G_dp-CH-Scan-d09-49-n800
 OpenBabel11261919433D

 22 21  0  0  0  0  0  0  0  0999 V2000
   -1.4455    0.4414   -0.4515 C   0  0  0  0  0  0  0  0  0  0  0  0
   -2.8007    0.5493   -0.7951 N   0  0  0  0  0  0  0  0  0  0  0  0
   -3.8758    0.6914   -1.0559 N   0  0  0  0  0  0  0  0  0  0  0  0
   -0.8699    1.6543   -0.0597 C   0  0  0  0  0  0  0  0  0  0  0  0
    0.5010    1.4626    0.2740 C   0  0  0  0  0  0  0  0  0  0  0  0
    1.1090    0.2184    0.1954 C   0  0  0  0  0  0  0  0  0  0  0  0
    2.5453    0.0886    0.5590 N   0  0  0  0  0  0  0  0  0  0  0  0
    3.1348    1.1018    0.9206 O   0  0  0  0  0  0  0  0  0  0  0  0
    3.0508   -1.0298    0.4737 O   0  0  0  0  0  0  0  0  0  0  0  0
    0.4460   -0.9574   -0.2137 C   0  0  0  0  0  0  0  0  0  0  0  0
   -0.8836   -0.8585   -0.5533 C   0  0  0  0  0  0  0  0  0  0  0  0
   -2.1579    3.9718    0.0063 H   0  0  0  0  0  0  0  0  0  0  0  0
    1.1099    2.2991    0.6029 H   0  0  0  0  0  0  0  0  0  0  0  0
    0.9863   -1.8940   -0.2515 H   0  0  0  0  0  0  0  0  0  0  0  0
   -1.4588   -1.7205   -0.8775 H   0  0  0  0  0  0  0  0  0  0  0  0
   -2.6980    4.7905   -0.0104 O   0  0  0  0  0  0  0  0  0  0  0  0
   -3.9067    4.4974   -0.4689 C   0  0  0  0  0  0  0  0  0  0  0  0
   -4.3167    3.4144   -0.8152 O   0  0  0  0  0  0  0  0  0  0  0  0
   -4.7821    5.7696   -0.5153 C   0  0  0  0  0  0  0  0  0  0  0  0
   -6.0098    5.4727   -0.9487 F   0  0  0  0  0  0  0  0  0  0  0  0
   -4.8775    6.3178    0.7085 F   0  0  0  0  0  0  0  0  0  0  0  0
   -4.2397    6.6783   -1.3454 F   0  0  0  0  0  0  0  0  0  0  0  0
  1  4  1  0  0  0  0
  2  1  1  0  0  0  0
  3  2  1  0  0  0  0
  4  5  2  0  0  0  0
  5 13  1  0  0  0  0
  6  5  1  0  0  0  0
  6  7  1  0  0  0  0
  7  8  2  0  0  0  0
  9  7  2  0  0  0  0
 10  6  2  0  0  0  0
 11  1  2  0  0  0  0
 11 10  1  0  0  0  0
 14 10  1  0  0  0  0
 15 11  1  0  0  0  0
 16 12  1  0  0  0  0
 17 16  1  0  0  0  0
 18 17  2  0  0  0  0
 19 17  1  0  0  0  0
 19 21  1  0  0  0  0
 20 19  1  0  0  0  0
 22 19  1  0  0  0  0
M  RAD  3   2   2   3   3   4   2
M  END
