Coordinates from ORCA-job 4-NO2PhN2+~CF3COO-_B3LYPG-6-31G_dp-CH-Scan-d09-49-n800
 OpenBabel11261919433D

 22 21  0  0  0  0  0  0  0  0999 V2000
   -1.6079    0.4785   -0.4627 C   0  0  0  0  0  0  0  0  0  0  0  0
   -2.9655    0.4988   -0.8055 N   0  0  0  0  0  0  0  0  0  0  0  0
   -4.0452    0.5938   -1.0652 N   0  0  0  0  0  0  0  0  0  0  0  0
   -1.0937    1.7237   -0.0831 C   0  0  0  0  0  0  0  0  0  0  0  0
    0.2834    1.6215    0.2484 C   0  0  0  0  0  0  0  0  0  0  0  0
    0.9641    0.4140    0.1809 C   0  0  0  0  0  0  0  0  0  0  0  0
    2.4066    0.3754    0.5406 N   0  0  0  0  0  0  0  0  0  0  0  0
    2.9329    1.4265    0.8900 O   0  0  0  0  0  0  0  0  0  0  0  0
    2.9773   -0.7113    0.4634 O   0  0  0  0  0  0  0  0  0  0  0  0
    0.3697   -0.8003   -0.2131 C   0  0  0  0  0  0  0  0  0  0  0  0
   -0.9654   -0.7825   -0.5496 C   0  0  0  0  0  0  0  0  0  0  0  0
   -2.0723    3.4111   -0.0315 H   0  0  0  0  0  0  0  0  0  0  0  0
    0.8385    2.4985    0.5657 H   0  0  0  0  0  0  0  0  0  0  0  0
    0.9621   -1.7051   -0.2436 H   0  0  0  0  0  0  0  0  0  0  0  0
   -1.4892   -1.6801   -0.8629 H   0  0  0  0  0  0  0  0  0  0  0  0
   -2.5274    4.3198   -0.0020 O   0  0  0  0  0  0  0  0  0  0  0  0
   -3.7471    4.2399   -0.4798 C   0  0  0  0  0  0  0  0  0  0  0  0
   -4.3249    3.2558   -0.8966 O   0  0  0  0  0  0  0  0  0  0  0  0
   -4.4314    5.6265   -0.4599 C   0  0  0  0  0  0  0  0  0  0  0  0
   -5.6778    5.5465   -0.9371 F   0  0  0  0  0  0  0  0  0  0  0  0
   -4.4856    6.1067    0.7965 F   0  0  0  0  0  0  0  0  0  0  0  0
   -3.7409    6.5015   -1.2145 F   0  0  0  0  0  0  0  0  0  0  0  0
  1  4  1  0  0  0  0
  2  1  1  0  0  0  0
  3  2  1  0  0  0  0
  4  5  2  0  0  0  0
  5 13  1  0  0  0  0
  6  5  1  0  0  0  0
  6  7  1  0  0  0  0
  7  8  2  0  0  0  0
  9  7  2  0  0  0  0
 10  6  2  0  0  0  0
 11  1  2  0  0  0  0
 11 10  1  0  0  0  0
 12 16  1  0  0  0  0
 14 10  1  0  0  0  0
 15 11  1  0  0  0  0
 17 19  1  0  0  0  0
 17 16  1  0  0  0  0
 18 17  2  0  0  0  0
 19 21  1  0  0  0  0
 20 19  1  0  0  0  0
 22 19  1  0  0  0  0
M  RAD  3   2   2   3   3   4   2
M  END
