Coordinates from ORCA-job 4-NO2PhN2+~CF3COO-_B3LYPG-6-31G_dp-CH-Scan-d09-49-n800
 OpenBabel11261919433D

 22 21  0  0  0  0  0  0  0  0999 V2000
   -0.7976    1.0514   -1.6035 C   0  0  0  0  0  0  0  0  0  0  0  0
   -1.6790    1.4223   -2.6344 N   0  0  0  0  0  0  0  0  0  0  0  0
   -2.2999    1.7362   -3.5076 N   0  0  0  0  0  0  0  0  0  0  0  0
    0.5321    1.1793   -2.0028 C   0  0  0  0  0  0  0  0  0  0  0  0
    1.3909    0.7737   -0.9359 C   0  0  0  0  0  0  0  0  0  0  0  0
    0.8925    0.3120    0.2735 C   0  0  0  0  0  0  0  0  0  0  0  0
    1.8417   -0.1114    1.3367 N   0  0  0  0  0  0  0  0  0  0  0  0
    3.0406   -0.0892    1.0747 O   0  0  0  0  0  0  0  0  0  0  0  0
    1.3655   -0.4646    2.4160 O   0  0  0  0  0  0  0  0  0  0  0  0
   -0.4848    0.2243    0.5793 C   0  0  0  0  0  0  0  0  0  0  0  0
   -1.3835    0.6111   -0.3876 C   0  0  0  0  0  0  0  0  0  0  0  0
   -1.9949    5.0602   -0.4483 H   0  0  0  0  0  0  0  0  0  0  0  0
    2.4708    0.8151   -1.0522 H   0  0  0  0  0  0  0  0  0  0  0  0
   -0.7965   -0.1350    1.5506 H   0  0  0  0  0  0  0  0  0  0  0  0
   -2.4568    0.5934   -0.2259 H   0  0  0  0  0  0  0  0  0  0  0  0
   -2.8547    5.2018   -0.0147 O   0  0  0  0  0  0  0  0  0  0  0  0
   -3.6271    4.1460   -0.2710 C   0  0  0  0  0  0  0  0  0  0  0  0
   -3.3214    3.1830   -0.9294 O   0  0  0  0  0  0  0  0  0  0  0  0
   -5.0110    4.3202    0.3927 C   0  0  0  0  0  0  0  0  0  0  0  0
   -5.7571    3.2345    0.1834 F   0  0  0  0  0  0  0  0  0  0  0  0
   -4.8730    4.5074    1.7143 F   0  0  0  0  0  0  0  0  0  0  0  0
   -5.6361    5.3875   -0.1296 F   0  0  0  0  0  0  0  0  0  0  0  0
  1 11  1  0  0  0  0
  2  1  1  0  0  0  0
  3  2  1  0  0  0  0
  4  1  2  0  0  0  0
  4  5  1  0  0  0  0
  5  6  2  0  0  0  0
  6 10  1  0  0  0  0
  6  7  1  0  0  0  0
  7  9  2  0  0  0  0
  8  7  2  0  0  0  0
 10 14  1  0  0  0  0
 11 15  1  0  0  0  0
 11 10  2  0  0  0  0
 12 16  1  0  0  0  0
 13  5  1  0  0  0  0
 17 16  1  0  0  0  0
 17 19  1  0  0  0  0
 18 17  2  0  0  0  0
 19 21  1  0  0  0  0
 20 19  1  0  0  0  0
 22 19  1  0  0  0  0
M  RAD  3   2   2   3   3   4   2
M  END
