Coordinates from ORCA-job 4-NO2PhN2+~CF3COO-_B3LYPG-6-31G_dp-CH-Scan-d09-49-n800
 OpenBabel11261919433D

 22 22  0  0  0  0  0  0  0  0999 V2000
   -1.7073    0.7265   -0.3511 C   0  0  0  0  0  0  0  0  0  0  0  0
   -3.0885    0.6344   -0.6403 N   0  0  0  0  0  0  0  0  0  0  0  0
   -4.0053    1.3750   -0.7670 N   0  0  0  0  0  0  0  0  0  0  0  0
   -0.9999    1.9301   -0.1593 C   0  0  0  0  0  0  0  0  0  0  0  0
    0.3651    1.8554    0.1042 C   0  0  0  0  0  0  0  0  0  0  0  0
    0.9867    0.6108    0.1752 C   0  0  0  0  0  0  0  0  0  0  0  0
    2.4376    0.5552    0.4590 N   0  0  0  0  0  0  0  0  0  0  0  0
    3.0230    1.6230    0.6155 O   0  0  0  0  0  0  0  0  0  0  0  0
    2.9566   -0.5564    0.5187 O   0  0  0  0  0  0  0  0  0  0  0  0
    0.2968   -0.5844   -0.0117 C   0  0  0  0  0  0  0  0  0  0  0  0
   -1.0645   -0.5194   -0.2804 C   0  0  0  0  0  0  0  0  0  0  0  0
   -1.4414    2.7699   -0.2100 H   0  0  0  0  0  0  0  0  0  0  0  0
    0.9520    2.7524    0.2577 H   0  0  0  0  0  0  0  0  0  0  0  0
    0.8253   -1.5269    0.0521 H   0  0  0  0  0  0  0  0  0  0  0  0
   -1.6473   -1.4194   -0.4389 H   0  0  0  0  0  0  0  0  0  0  0  0
   -3.5487    2.9655   -0.4670 O   0  0  0  0  0  0  0  0  0  0  0  0
   -4.4628    3.8344   -0.8808 C   0  0  0  0  0  0  0  0  0  0  0  0
   -5.4668    3.6425   -1.5171 O   0  0  0  0  0  0  0  0  0  0  0  0
   -4.0576    5.2523   -0.3889 C   0  0  0  0  0  0  0  0  0  0  0  0
   -4.7460    6.1929   -1.0377 F   0  0  0  0  0  0  0  0  0  0  0  0
   -4.3066    5.3683    0.9296 F   0  0  0  0  0  0  0  0  0  0  0  0
   -2.7398    5.4768   -0.5836 F   0  0  0  0  0  0  0  0  0  0  0  0
  1 11  2  0  0  0  0
  1  4  1  0  0  0  0
  2  1  1  0  0  0  0
  3  2  1  0  0  0  0
  3 16  1  0  0  0  0
  4  5  2  0  0  0  0
  5  6  1  0  0  0  0
  5 13  1  0  0  0  0
  6  7  1  0  0  0  0
  7  9  2  0  0  0  0
  7  8  2  0  0  0  0
 10 14  1  0  0  0  0
 10  6  2  0  0  0  0
 11 10  1  0  0  0  0
 12  4  1  0  0  0  0
 15 11  1  0  0  0  0
 17 16  1  0  0  0  0
 17 19  1  0  0  0  0
 18 17  2  0  0  0  0
 19 21  1  0  0  0  0
 20 19  1  0  0  0  0
 22 19  1  0  0  0  0
M  RAD  2   2   2   3   2
M  END
