Coordinates from ORCA-job 4-NO2PhN2+~CF3COO-_B3LYPG-6-31G_dp-CH-Scan-d09-49-n800
 OpenBabel11261919433D

 22 21  0  0  0  0  0  0  0  0999 V2000
   -1.6722    0.4984   -0.4717 C   0  0  0  0  0  0  0  0  0  0  0  0
   -3.0307    0.4950   -0.8139 N   0  0  0  0  0  0  0  0  0  0  0  0
   -4.1087    0.6162   -1.0688 N   0  0  0  0  0  0  0  0  0  0  0  0
   -1.1750    1.7511   -0.0974 C   0  0  0  0  0  0  0  0  0  0  0  0
    0.1999    1.6868    0.2353 C   0  0  0  0  0  0  0  0  0  0  0  0
    0.9051    0.4921    0.1753 C   0  0  0  0  0  0  0  0  0  0  0  0
    2.3474    0.4861    0.5371 N   0  0  0  0  0  0  0  0  0  0  0  0
    2.8489    1.5504    0.8822 O   0  0  0  0  0  0  0  0  0  0  0  0
    2.9405   -0.5885    0.4652 O   0  0  0  0  0  0  0  0  0  0  0  0
    0.3351   -0.7339   -0.2121 C   0  0  0  0  0  0  0  0  0  0  0  0
   -1.0014   -0.7452   -0.5498 C   0  0  0  0  0  0  0  0  0  0  0  0
   -2.0046    3.1602   -0.0490 H   0  0  0  0  0  0  0  0  0  0  0  0
    0.7317    2.5799    0.5468 H   0  0  0  0  0  0  0  0  0  0  0  0
    0.9449   -1.6272   -0.2377 H   0  0  0  0  0  0  0  0  0  0  0  0
   -1.5061   -1.6549   -0.8588 H   0  0  0  0  0  0  0  0  0  0  0  0
   -2.4659    4.1380    0.0012 O   0  0  0  0  0  0  0  0  0  0  0  0
   -3.6743    4.1351   -0.4780 C   0  0  0  0  0  0  0  0  0  0  0  0
   -4.3154    3.1954   -0.9232 O   0  0  0  0  0  0  0  0  0  0  0  0
   -4.2964    5.5523   -0.4373 C   0  0  0  0  0  0  0  0  0  0  0  0
   -5.5462    5.5450   -0.9161 F   0  0  0  0  0  0  0  0  0  0  0  0
   -4.3307    6.0182    0.8265 F   0  0  0  0  0  0  0  0  0  0  0  0
   -3.5654    6.4087   -1.1776 F   0  0  0  0  0  0  0  0  0  0  0  0
  1  4  1  0  0  0  0
  2  1  1  0  0  0  0
  3  2  1  0  0  0  0
  4  5  2  0  0  0  0
  5 13  1  0  0  0  0
  6  5  1  0  0  0  0
  6  7  1  0  0  0  0
  7  8  2  0  0  0  0
  9  7  2  0  0  0  0
 10  6  2  0  0  0  0
 11  1  2  0  0  0  0
 11 10  1  0  0  0  0
 12 16  1  0  0  0  0
 14 10  1  0  0  0  0
 15 11  1  0  0  0  0
 17 19  1  0  0  0  0
 17 16  1  0  0  0  0
 18 17  2  0  0  0  0
 19 21  1  0  0  0  0
 20 19  1  0  0  0  0
 22 19  1  0  0  0  0
M  RAD  3   2   2   3   3   4   2
M  END
