Coordinates from ORCA-job 4-NO2PhN2+~CF3COO-_B3LYPG-6-31G_dp-CH-Scan-d09-49-n800
 OpenBabel11261919433D

 22 21  0  0  0  0  0  0  0  0999 V2000
   -1.2929    0.4042   -0.4269 C   0  0  0  0  0  0  0  0  0  0  0  0
   -2.6441    0.6023   -0.7574 N   0  0  0  0  0  0  0  0  0  0  0  0
   -3.7100    0.8211   -1.0056 N   0  0  0  0  0  0  0  0  0  0  0  0
   -0.6539    1.5814   -0.0292 C   0  0  0  0  0  0  0  0  0  0  0  0
    0.7080    1.3033    0.2921 C   0  0  0  0  0  0  0  0  0  0  0  0
    1.2420    0.0268    0.1988 C   0  0  0  0  0  0  0  0  0  0  0  0
    2.6699   -0.1910    0.5531 N   0  0  0  0  0  0  0  0  0  0  0  0
    3.3226    0.7834    0.9142 O   0  0  0  0  0  0  0  0  0  0  0  0
    3.1099   -1.3359    0.4542 O   0  0  0  0  0  0  0  0  0  0  0  0
    0.5095   -1.1065   -0.2168 C   0  0  0  0  0  0  0  0  0  0  0  0
   -0.8136   -0.9276   -0.5469 C   0  0  0  0  0  0  0  0  0  0  0  0
   -2.2427    4.5825    0.0983 H   0  0  0  0  0  0  0  0  0  0  0  0
    1.3690    2.0984    0.6242 H   0  0  0  0  0  0  0  0  0  0  0  0
    0.9950   -2.0720   -0.2660 H   0  0  0  0  0  0  0  0  0  0  0  0
   -1.4407   -1.7511   -0.8754 H   0  0  0  0  0  0  0  0  0  0  0  0
   -2.9010    5.2958    0.0149 O   0  0  0  0  0  0  0  0  0  0  0  0
   -4.0342    4.7674   -0.4452 C   0  0  0  0  0  0  0  0  0  0  0  0
   -4.2331    3.6105   -0.7188 O   0  0  0  0  0  0  0  0  0  0  0  0
   -5.1097    5.8666   -0.5900 C   0  0  0  0  0  0  0  0  0  0  0  0
   -6.2406    5.3452   -1.0696 F   0  0  0  0  0  0  0  0  0  0  0  0
   -5.3637    6.4275    0.6050 F   0  0  0  0  0  0  0  0  0  0  0  0
   -4.6853    6.8269   -1.4287 F   0  0  0  0  0  0  0  0  0  0  0  0
  1  4  1  0  0  0  0
  2  1  1  0  0  0  0
  3  2  1  0  0  0  0
  4  5  2  0  0  0  0
  5 13  1  0  0  0  0
  6  5  1  0  0  0  0
  6  7  1  0  0  0  0
  7  8  2  0  0  0  0
  9  7  2  0  0  0  0
 10  6  2  0  0  0  0
 11  1  2  0  0  0  0
 11 10  1  0  0  0  0
 14 10  1  0  0  0  0
 15 11  1  0  0  0  0
 16 12  1  0  0  0  0
 17 16  1  0  0  0  0
 18 17  2  0  0  0  0
 19 17  1  0  0  0  0
 19 21  1  0  0  0  0
 20 19  1  0  0  0  0
 22 19  1  0  0  0  0
M  RAD  3   2   2   3   3   4   2
M  END
