Coordinates from ORCA-job 4-NO2PhN2+~CF3COO-_B3LYPG-6-31G_dp-CH-Scan-d09-49-n800
 OpenBabel11261919433D

 22 21  0  0  0  0  0  0  0  0999 V2000
   -1.2023    0.4067   -0.4466 C   0  0  0  0  0  0  0  0  0  0  0  0
   -2.5411    0.6680   -0.7898 N   0  0  0  0  0  0  0  0  0  0  0  0
   -3.5926    0.9390   -1.0489 N   0  0  0  0  0  0  0  0  0  0  0  0
   -0.5129    1.5600   -0.0672 C   0  0  0  0  0  0  0  0  0  0  0  0
    0.8329    1.2213    0.2689 C   0  0  0  0  0  0  0  0  0  0  0  0
    1.3047   -0.0812    0.2055 C   0  0  0  0  0  0  0  0  0  0  0  0
    2.7173   -0.3616    0.5761 N   0  0  0  0  0  0  0  0  0  0  0  0
    3.4145    0.5864    0.9247 O   0  0  0  0  0  0  0  0  0  0  0  0
    3.0999   -1.5296    0.5109 O   0  0  0  0  0  0  0  0  0  0  0  0
    0.5206   -1.1862   -0.1941 C   0  0  0  0  0  0  0  0  0  0  0  0
   -0.7897   -0.9496   -0.5385 C   0  0  0  0  0  0  0  0  0  0  0  0
   -2.2667    5.0164    0.0835 H   0  0  0  0  0  0  0  0  0  0  0  0
    1.5303    1.9898    0.5898 H   0  0  0  0  0  0  0  0  0  0  0  0
    0.9589   -2.1748   -0.2204 H   0  0  0  0  0  0  0  0  0  0  0  0
   -1.4541   -1.7477   -0.8567 H   0  0  0  0  0  0  0  0  0  0  0  0
   -3.0169    5.6285   -0.0104 O   0  0  0  0  0  0  0  0  0  0  0  0
   -4.0708    4.9303   -0.4382 C   0  0  0  0  0  0  0  0  0  0  0  0
   -4.1049    3.7494   -0.6744 O   0  0  0  0  0  0  0  0  0  0  0  0
   -5.2931    5.8618   -0.5920 C   0  0  0  0  0  0  0  0  0  0  0  0
   -6.3356    5.1782   -1.0677 F   0  0  0  0  0  0  0  0  0  0  0  0
   -5.6258    6.3862    0.6002 F   0  0  0  0  0  0  0  0  0  0  0  0
   -5.0121    6.8681   -1.4363 F   0  0  0  0  0  0  0  0  0  0  0  0
  1  4  1  0  0  0  0
  2  1  1  0  0  0  0
  3  2  1  0  0  0  0
  4  5  2  0  0  0  0
  5 13  1  0  0  0  0
  6  5  1  0  0  0  0
  6  7  1  0  0  0  0
  7  8  2  0  0  0  0
  9  7  2  0  0  0  0
 10  6  2  0  0  0  0
 11  1  2  0  0  0  0
 11 10  1  0  0  0  0
 14 10  1  0  0  0  0
 15 11  1  0  0  0  0
 16 12  1  0  0  0  0
 17 16  1  0  0  0  0
 18 17  2  0  0  0  0
 19 17  1  0  0  0  0
 19 21  1  0  0  0  0
 20 19  1  0  0  0  0
 22 19  1  0  0  0  0
M  RAD  3   2   2   3   3   4   2
M  END
