Coordinates from ORCA-job 4-NO2PhN2+~CF3COO-_B3LYPG-6-31G_dp-CH-Scan-d09-49-n800
 OpenBabel11261919433D

 22 21  0  0  0  0  0  0  0  0999 V2000
   -0.8105    1.0456   -1.6075 C   0  0  0  0  0  0  0  0  0  0  0  0
   -1.6925    1.4081   -2.6409 N   0  0  0  0  0  0  0  0  0  0  0  0
   -2.3163    1.7145   -3.5144 N   0  0  0  0  0  0  0  0  0  0  0  0
    0.5193    1.2086   -1.9944 C   0  0  0  0  0  0  0  0  0  0  0  0
    1.3786    0.8112   -0.9248 C   0  0  0  0  0  0  0  0  0  0  0  0
    0.8813    0.3252    0.2754 C   0  0  0  0  0  0  0  0  0  0  0  0
    1.8315   -0.0877    1.3418 N   0  0  0  0  0  0  0  0  0  0  0  0
    3.0318   -0.0288    1.0923 O   0  0  0  0  0  0  0  0  0  0  0  0
    1.3550   -0.4602    2.4145 O   0  0  0  0  0  0  0  0  0  0  0  0
   -0.4960    0.2026    0.5689 C   0  0  0  0  0  0  0  0  0  0  0  0
   -1.3957    0.5789   -0.4013 C   0  0  0  0  0  0  0  0  0  0  0  0
   -1.9644    5.0210   -0.4504 H   0  0  0  0  0  0  0  0  0  0  0  0
    2.4581    0.8787   -1.0317 H   0  0  0  0  0  0  0  0  0  0  0  0
   -0.8072   -0.1738    1.5338 H   0  0  0  0  0  0  0  0  0  0  0  0
   -2.4696    0.5343   -0.2484 H   0  0  0  0  0  0  0  0  0  0  0  0
   -2.8201    5.1746   -0.0136 O   0  0  0  0  0  0  0  0  0  0  0  0
   -3.6114    4.1329   -0.2721 C   0  0  0  0  0  0  0  0  0  0  0  0
   -3.3271    3.1662   -0.9359 O   0  0  0  0  0  0  0  0  0  0  0  0
   -4.9892    4.3296    0.3979 C   0  0  0  0  0  0  0  0  0  0  0  0
   -5.7552    3.2577    0.1895 F   0  0  0  0  0  0  0  0  0  0  0  0
   -4.8424    4.5115    1.7192 F   0  0  0  0  0  0  0  0  0  0  0  0
   -5.5977    5.4087   -0.1196 F   0  0  0  0  0  0  0  0  0  0  0  0
  1 11  1  0  0  0  0
  2  1  1  0  0  0  0
  3  2  1  0  0  0  0
  4  1  2  0  0  0  0
  4  5  1  0  0  0  0
  5  6  2  0  0  0  0
  6 10  1  0  0  0  0
  6  7  1  0  0  0  0
  7  9  2  0  0  0  0
  8  7  2  0  0  0  0
 10 14  1  0  0  0  0
 11 15  1  0  0  0  0
 11 10  2  0  0  0  0
 12 16  1  0  0  0  0
 13  5  1  0  0  0  0
 17 16  1  0  0  0  0
 17 19  1  0  0  0  0
 18 17  2  0  0  0  0
 19 21  1  0  0  0  0
 20 19  1  0  0  0  0
 22 19  1  0  0  0  0
M  RAD  3   2   2   3   3   4   2
M  END
