Coordinates from ORCA-job 4-NO2PhN2+~CF3COO-_B3LYPG-6-31G_dp-CH-Scan-d09-49-n800
 OpenBabel11261919433D

 22 22  0  0  0  0  0  0  0  0999 V2000
   -1.6747    0.7192   -0.3222 C   0  0  0  0  0  0  0  0  0  0  0  0
   -3.0579    0.6575   -0.5946 N   0  0  0  0  0  0  0  0  0  0  0  0
   -3.9895    1.3685   -0.7159 N   0  0  0  0  0  0  0  0  0  0  0  0
   -0.9468    1.9063   -0.1208 C   0  0  0  0  0  0  0  0  0  0  0  0
    0.4182    1.8224    0.1251 C   0  0  0  0  0  0  0  0  0  0  0  0
    1.0235    0.5674    0.1698 C   0  0  0  0  0  0  0  0  0  0  0  0
    2.4776    0.4896    0.4359 N   0  0  0  0  0  0  0  0  0  0  0  0
    3.0772    1.5478    0.6024 O   0  0  0  0  0  0  0  0  0  0  0  0
    2.9832   -0.6290    0.4719 O   0  0  0  0  0  0  0  0  0  0  0  0
    0.3179   -0.6176   -0.0263 C   0  0  0  0  0  0  0  0  0  0  0  0
   -1.0456   -0.5358   -0.2775 C   0  0  0  0  0  0  0  0  0  0  0  0
   -1.5194    2.9775   -0.1651 H   0  0  0  0  0  0  0  0  0  0  0  0
    1.0176    2.7095    0.2846 H   0  0  0  0  0  0  0  0  0  0  0  0
    0.8374   -1.5662    0.0177 H   0  0  0  0  0  0  0  0  0  0  0  0
   -1.6390   -1.4280   -0.4420 H   0  0  0  0  0  0  0  0  0  0  0  0
   -3.5744    3.0183   -0.4009 O   0  0  0  0  0  0  0  0  0  0  0  0
   -4.4741    3.8520   -0.8936 C   0  0  0  0  0  0  0  0  0  0  0  0
   -5.4266    3.6245   -1.5976 O   0  0  0  0  0  0  0  0  0  0  0  0
   -4.1412    5.2923   -0.4100 C   0  0  0  0  0  0  0  0  0  0  0  0
   -4.8199    6.2005   -1.1135 F   0  0  0  0  0  0  0  0  0  0  0  0
   -4.4619    5.4289    0.8909 F   0  0  0  0  0  0  0  0  0  0  0  0
   -2.8209    5.5538   -0.5400 F   0  0  0  0  0  0  0  0  0  0  0  0
  1 11  2  0  0  0  0
  1  4  1  0  0  0  0
  2  1  1  0  0  0  0
  3  2  1  0  0  0  0
  3 16  1  0  0  0  0
  4  5  2  0  0  0  0
  5  6  1  0  0  0  0
  5 13  1  0  0  0  0
  6  7  1  0  0  0  0
  7  9  2  0  0  0  0
  7  8  2  0  0  0  0
 10 14  1  0  0  0  0
 10  6  2  0  0  0  0
 11 10  1  0  0  0  0
 12  4  1  0  0  0  0
 15 11  1  0  0  0  0
 17 19  1  0  0  0  0
 17 16  1  0  0  0  0
 18 17  2  0  0  0  0
 19 21  1  0  0  0  0
 20 19  1  0  0  0  0
 22 19  1  0  0  0  0
M  RAD  2   2   2   3   2
M  END
