Coordinates from ORCA-job 4-NO2PhN2+~CF3COO-_B3LYPG-6-31G_dp-CH-Scan-d09-49-n800
 OpenBabel11261919433D

 22 21  0  0  0  0  0  0  0  0999 V2000
   -1.2676    0.4018   -0.4232 C   0  0  0  0  0  0  0  0  0  0  0  0
   -2.6174    0.6179   -0.7509 N   0  0  0  0  0  0  0  0  0  0  0  0
   -3.6810    0.8508   -0.9966 N   0  0  0  0  0  0  0  0  0  0  0  0
   -0.6143    1.5719   -0.0295 C   0  0  0  0  0  0  0  0  0  0  0  0
    0.7453    1.2771    0.2888 C   0  0  0  0  0  0  0  0  0  0  0  0
    1.2631   -0.0061    0.1971 C   0  0  0  0  0  0  0  0  0  0  0  0
    2.6890   -0.2411    0.5485 N   0  0  0  0  0  0  0  0  0  0  0  0
    3.3541    0.7253    0.9089 O   0  0  0  0  0  0  0  0  0  0  0  0
    3.1132   -1.3926    0.4564 O   0  0  0  0  0  0  0  0  0  0  0  0
    0.5155   -1.1313   -0.2144 C   0  0  0  0  0  0  0  0  0  0  0  0
   -0.8061   -0.9364   -0.5419 C   0  0  0  0  0  0  0  0  0  0  0  0
   -2.2541    4.7096    0.1145 H   0  0  0  0  0  0  0  0  0  0  0  0
    1.4172    2.0646    0.6175 H   0  0  0  0  0  0  0  0  0  0  0  0
    0.9888   -2.1028   -0.2626 H   0  0  0  0  0  0  0  0  0  0  0  0
   -1.4444   -1.7526   -0.8673 H   0  0  0  0  0  0  0  0  0  0  0  0
   -2.9375    5.3959    0.0182 O   0  0  0  0  0  0  0  0  0  0  0  0
   -4.0471    4.8167   -0.4411 C   0  0  0  0  0  0  0  0  0  0  0  0
   -4.1986    3.6492   -0.6999 O   0  0  0  0  0  0  0  0  0  0  0  0
   -5.1646    5.8708   -0.6023 C   0  0  0  0  0  0  0  0  0  0  0  0
   -6.2627    5.3051   -1.1068 F   0  0  0  0  0  0  0  0  0  0  0  0
   -5.4648    6.4117    0.5912 F   0  0  0  0  0  0  0  0  0  0  0  0
   -4.7654    6.8538   -1.4265 F   0  0  0  0  0  0  0  0  0  0  0  0
  1  4  1  0  0  0  0
  2  1  1  0  0  0  0
  3  2  1  0  0  0  0
  4  5  2  0  0  0  0
  5 13  1  0  0  0  0
  6  5  1  0  0  0  0
  6  7  1  0  0  0  0
  7  8  2  0  0  0  0
  9  7  2  0  0  0  0
 10  6  2  0  0  0  0
 11  1  2  0  0  0  0
 11 10  1  0  0  0  0
 14 10  1  0  0  0  0
 15 11  1  0  0  0  0
 16 12  1  0  0  0  0
 17 16  1  0  0  0  0
 18 17  2  0  0  0  0
 19 17  1  0  0  0  0
 19 21  1  0  0  0  0
 20 19  1  0  0  0  0
 22 19  1  0  0  0  0
M  RAD  3   2   2   3   3   4   2
M  END
