Coordinates from ORCA-job 4-NO2PhN2+~CF3COO-_B3LYPG-6-31G_dp-CH-Scan-d09-49-n800
 OpenBabel11261919433D

 22 21  0  0  0  0  0  0  0  0999 V2000
   -0.8233    1.0389   -1.6116 C   0  0  0  0  0  0  0  0  0  0  0  0
   -1.7053    1.3927   -2.6479 N   0  0  0  0  0  0  0  0  0  0  0  0
   -2.3302    1.6936   -3.5226 N   0  0  0  0  0  0  0  0  0  0  0  0
    0.5051    1.2425   -1.9835 C   0  0  0  0  0  0  0  0  0  0  0  0
    1.3648    0.8529   -0.9114 C   0  0  0  0  0  0  0  0  0  0  0  0
    0.8696    0.3396    0.2784 C   0  0  0  0  0  0  0  0  0  0  0  0
    1.8207   -0.0617    1.3485 N   0  0  0  0  0  0  0  0  0  0  0  0
    3.0212    0.0351    1.1122 O   0  0  0  0  0  0  0  0  0  0  0  0
    1.3445   -0.4623    2.4111 O   0  0  0  0  0  0  0  0  0  0  0  0
   -0.5065    0.1767    0.5571 C   0  0  0  0  0  0  0  0  0  0  0  0
   -1.4068    0.5408   -0.4171 C   0  0  0  0  0  0  0  0  0  0  0  0
   -1.9342    4.9782   -0.4592 H   0  0  0  0  0  0  0  0  0  0  0  0
    2.4432    0.9492   -1.0076 H   0  0  0  0  0  0  0  0  0  0  0  0
   -0.8166   -0.2203    1.5141 H   0  0  0  0  0  0  0  0  0  0  0  0
   -2.4804    0.4637   -0.2753 H   0  0  0  0  0  0  0  0  0  0  0  0
   -2.7842    5.1464   -0.0165 O   0  0  0  0  0  0  0  0  0  0  0  0
   -3.5969    4.1209   -0.2730 C   0  0  0  0  0  0  0  0  0  0  0  0
   -3.3355    3.1511   -0.9410 O   0  0  0  0  0  0  0  0  0  0  0  0
   -4.9669    4.3424    0.4053 C   0  0  0  0  0  0  0  0  0  0  0  0
   -5.7516    3.2824    0.2059 F   0  0  0  0  0  0  0  0  0  0  0  0
   -4.8091    4.5269    1.7251 F   0  0  0  0  0  0  0  0  0  0  0  0
   -5.5613    5.4293   -0.1126 F   0  0  0  0  0  0  0  0  0  0  0  0
  1 11  1  0  0  0  0
  2  1  1  0  0  0  0
  3  2  1  0  0  0  0
  4  1  2  0  0  0  0
  4  5  1  0  0  0  0
  5  6  2  0  0  0  0
  6 10  1  0  0  0  0
  6  7  1  0  0  0  0
  7  9  2  0  0  0  0
  8  7  2  0  0  0  0
 10 14  1  0  0  0  0
 11 15  1  0  0  0  0
 11 10  2  0  0  0  0
 12 16  1  0  0  0  0
 13  5  1  0  0  0  0
 17 16  1  0  0  0  0
 17 19  1  0  0  0  0
 18 17  2  0  0  0  0
 19 21  1  0  0  0  0
 20 19  1  0  0  0  0
 22 19  1  0  0  0  0
M  RAD  3   2   2   3   3   4   2
M  END
