Coordinates from ORCA-job 4-NO2PhN2+~CF3COO-_B3LYPG-6-31G_dp-CH-Scan-d09-49-n800
 OpenBabel11261919433D

 22 21  0  0  0  0  0  0  0  0999 V2000
   -1.5202    0.4551   -0.4574 C   0  0  0  0  0  0  0  0  0  0  0  0
   -2.8767    0.5210   -0.8017 N   0  0  0  0  0  0  0  0  0  0  0  0
   -3.9545    0.6364   -1.0631 N   0  0  0  0  0  0  0  0  0  0  0  0
   -0.9750    1.6842   -0.0706 C   0  0  0  0  0  0  0  0  0  0  0  0
    0.3996    1.5357    0.2631 C   0  0  0  0  0  0  0  0  0  0  0  0
    1.0434    0.3090    0.1896 C   0  0  0  0  0  0  0  0  0  0  0  0
    2.4833    0.2234    0.5520 N   0  0  0  0  0  0  0  0  0  0  0  0
    3.0428    1.2557    0.9066 O   0  0  0  0  0  0  0  0  0  0  0  0
    3.0213   -0.8797    0.4689 O   0  0  0  0  0  0  0  0  0  0  0  0
    0.4139   -0.8861   -0.2132 C   0  0  0  0  0  0  0  0  0  0  0  0
   -0.9187   -0.8268   -0.5522 C   0  0  0  0  0  0  0  0  0  0  0  0
   -2.1287    3.7040   -0.0115 H   0  0  0  0  0  0  0  0  0  0  0  0
    0.9828    2.3920    0.5873 H   0  0  0  0  0  0  0  0  0  0  0  0
    0.9800   -1.8074   -0.2474 H   0  0  0  0  0  0  0  0  0  0  0  0
   -1.4687   -1.7066   -0.8718 H   0  0  0  0  0  0  0  0  0  0  0  0
   -2.6193    4.5643   -0.0075 O   0  0  0  0  0  0  0  0  0  0  0  0
   -3.8406    4.3768   -0.4739 C   0  0  0  0  0  0  0  0  0  0  0  0
   -4.3371    3.3386   -0.8508 O   0  0  0  0  0  0  0  0  0  0  0  0
   -4.6184    5.7121   -0.4896 C   0  0  0  0  0  0  0  0  0  0  0  0
   -5.8616    5.5247   -0.9417 F   0  0  0  0  0  0  0  0  0  0  0  0
   -4.6858    6.2304    0.7497 F   0  0  0  0  0  0  0  0  0  0  0  0
   -4.0010    6.6026   -1.2867 F   0  0  0  0  0  0  0  0  0  0  0  0
  1  4  1  0  0  0  0
  2  1  1  0  0  0  0
  3  2  1  0  0  0  0
  4  5  2  0  0  0  0
  5 13  1  0  0  0  0
  6  5  1  0  0  0  0
  6  7  1  0  0  0  0
  7  8  2  0  0  0  0
  9  7  2  0  0  0  0
 10  6  2  0  0  0  0
 11  1  2  0  0  0  0
 11 10  1  0  0  0  0
 12 16  1  0  0  0  0
 14 10  1  0  0  0  0
 15 11  1  0  0  0  0
 17 16  1  0  0  0  0
 18 17  2  0  0  0  0
 19 17  1  0  0  0  0
 19 21  1  0  0  0  0
 20 19  1  0  0  0  0
 22 19  1  0  0  0  0
M  RAD  3   2   2   3   3   4   2
M  END
