Coordinates from ORCA-job 4-NO2PhN2+~CF3COO-_B3LYPG-6-31G_dp-CH-Scan-d09-49-n800
 OpenBabel11261919433D

 22 21  0  0  0  0  0  0  0  0999 V2000
   -1.5144    0.4538   -0.4570 C   0  0  0  0  0  0  0  0  0  0  0  0
   -2.8709    0.5228   -0.8011 N   0  0  0  0  0  0  0  0  0  0  0  0
   -3.9485    0.6400   -1.0623 N   0  0  0  0  0  0  0  0  0  0  0  0
   -0.9669    1.6818   -0.0698 C   0  0  0  0  0  0  0  0  0  0  0  0
    0.4075    1.5301    0.2637 C   0  0  0  0  0  0  0  0  0  0  0  0
    1.0487    0.3020    0.1898 C   0  0  0  0  0  0  0  0  0  0  0  0
    2.4884    0.2132    0.5520 N   0  0  0  0  0  0  0  0  0  0  0  0
    3.0497    1.2438    0.9087 O   0  0  0  0  0  0  0  0  0  0  0  0
    3.0236   -0.8914    0.4702 O   0  0  0  0  0  0  0  0  0  0  0  0
    0.4166   -0.8917   -0.2134 C   0  0  0  0  0  0  0  0  0  0  0  0
   -0.9158   -0.8295   -0.5524 C   0  0  0  0  0  0  0  0  0  0  0  0
   -2.1312    3.7243   -0.0100 H   0  0  0  0  0  0  0  0  0  0  0  0
    0.9927    2.3848    0.5882 H   0  0  0  0  0  0  0  0  0  0  0  0
    0.9809   -1.8141   -0.2481 H   0  0  0  0  0  0  0  0  0  0  0  0
   -1.4677   -1.7080   -0.8723 H   0  0  0  0  0  0  0  0  0  0  0  0
   -2.6254    4.5814   -0.0077 O   0  0  0  0  0  0  0  0  0  0  0  0
   -3.8462    4.3861   -0.4736 C   0  0  0  0  0  0  0  0  0  0  0  0
   -4.3364    3.3444   -0.8481 O   0  0  0  0  0  0  0  0  0  0  0  0
   -4.6312    5.7171   -0.4916 C   0  0  0  0  0  0  0  0  0  0  0  0
   -5.8737    5.5216   -0.9418 F   0  0  0  0  0  0  0  0  0  0  0  0
   -4.7000    6.2379    0.7466 F   0  0  0  0  0  0  0  0  0  0  0  0
   -4.0194    6.6089   -1.2916 F   0  0  0  0  0  0  0  0  0  0  0  0
  1  4  1  0  0  0  0
  2  1  1  0  0  0  0
  3  2  1  0  0  0  0
  4  5  2  0  0  0  0
  5 13  1  0  0  0  0
  6  5  1  0  0  0  0
  6  7  1  0  0  0  0
  7  8  2  0  0  0  0
  9  7  2  0  0  0  0
 10  6  2  0  0  0  0
 11  1  2  0  0  0  0
 11 10  1  0  0  0  0
 12 16  1  0  0  0  0
 14 10  1  0  0  0  0
 15 11  1  0  0  0  0
 17 16  1  0  0  0  0
 18 17  2  0  0  0  0
 19 17  1  0  0  0  0
 19 21  1  0  0  0  0
 20 19  1  0  0  0  0
 22 19  1  0  0  0  0
M  RAD  3   2   2   3   3   4   2
M  END
