Coordinates from ORCA-job 4-NO2PhN2+~CF3COO-_B3LYPG-6-31G_dp-CH-Scan-d09-49-n800
 OpenBabel11261919433D

 22 21  0  0  0  0  0  0  0  0999 V2000
   -1.5872    0.4728   -0.4612 C   0  0  0  0  0  0  0  0  0  0  0  0
   -2.9445    0.5032   -0.8046 N   0  0  0  0  0  0  0  0  0  0  0  0
   -4.0239    0.6009   -1.0651 N   0  0  0  0  0  0  0  0  0  0  0  0
   -1.0660    1.7144   -0.0797 C   0  0  0  0  0  0  0  0  0  0  0  0
    0.3108    1.6011    0.2522 C   0  0  0  0  0  0  0  0  0  0  0  0
    0.9831    0.3892    0.1830 C   0  0  0  0  0  0  0  0  0  0  0  0
    2.4252    0.3397    0.5429 N   0  0  0  0  0  0  0  0  0  0  0  0
    2.9592    1.3864    0.8939 O   0  0  0  0  0  0  0  0  0  0  0  0
    2.9883   -0.7509    0.4645 O   0  0  0  0  0  0  0  0  0  0  0  0
    0.3806   -0.8208   -0.2133 C   0  0  0  0  0  0  0  0  0  0  0  0
   -0.9541   -0.7933   -0.5502 C   0  0  0  0  0  0  0  0  0  0  0  0
   -2.0880    3.4808   -0.0263 H   0  0  0  0  0  0  0  0  0  0  0  0
    0.8726    2.4732    0.5713 H   0  0  0  0  0  0  0  0  0  0  0  0
    0.9670   -1.7294   -0.2449 H   0  0  0  0  0  0  0  0  0  0  0  0
   -1.4839   -1.6868   -0.8652 H   0  0  0  0  0  0  0  0  0  0  0  0
   -2.5491    4.3766   -0.0029 O   0  0  0  0  0  0  0  0  0  0  0  0
   -3.7705    4.2719   -0.4780 C   0  0  0  0  0  0  0  0  0  0  0  0
   -4.3298    3.2746   -0.8852 O   0  0  0  0  0  0  0  0  0  0  0  0
   -4.4753    5.6480   -0.4671 C   0  0  0  0  0  0  0  0  0  0  0  0
   -5.7216    5.5438   -0.9392 F   0  0  0  0  0  0  0  0  0  0  0  0
   -4.5321    6.1374    0.7852 F   0  0  0  0  0  0  0  0  0  0  0  0
   -3.8004    6.5262   -1.2317 F   0  0  0  0  0  0  0  0  0  0  0  0
  1  4  1  0  0  0  0
  2  1  1  0  0  0  0
  3  2  1  0  0  0  0
  4  5  2  0  0  0  0
  5 13  1  0  0  0  0
  6  5  1  0  0  0  0
  6  7  1  0  0  0  0
  7  8  2  0  0  0  0
  9  7  2  0  0  0  0
 10  6  2  0  0  0  0
 11  1  2  0  0  0  0
 11 10  1  0  0  0  0
 12 16  1  0  0  0  0
 14 10  1  0  0  0  0
 15 11  1  0  0  0  0
 17 19  1  0  0  0  0
 17 16  1  0  0  0  0
 18 17  2  0  0  0  0
 19 21  1  0  0  0  0
 20 19  1  0  0  0  0
 22 19  1  0  0  0  0
M  RAD  3   2   2   3   3   4   2
M  END
