Coordinates from ORCA-job 4-NO2PhN2+~CF3COO-_B3LYPG-6-31G_dp-CH-Scan-d09-49-n800
 OpenBabel11261919433D

 22 21  0  0  0  0  0  0  0  0999 V2000
   -1.5457    0.4614   -0.4602 C   0  0  0  0  0  0  0  0  0  0  0  0
   -2.9025    0.5133   -0.8048 N   0  0  0  0  0  0  0  0  0  0  0  0
   -3.9808    0.6208   -1.0663 N   0  0  0  0  0  0  0  0  0  0  0  0
   -1.0101    1.6957   -0.0759 C   0  0  0  0  0  0  0  0  0  0  0  0
    0.3655    1.5612    0.2576 C   0  0  0  0  0  0  0  0  0  0  0  0
    1.0205    0.3402    0.1866 C   0  0  0  0  0  0  0  0  0  0  0  0
    2.4613    0.2689    0.5482 N   0  0  0  0  0  0  0  0  0  0  0  0
    3.0098    1.3064    0.9048 O   0  0  0  0  0  0  0  0  0  0  0  0
    3.0082   -0.8302    0.4715 O   0  0  0  0  0  0  0  0  0  0  0  0
    0.4016   -0.8611   -0.2132 C   0  0  0  0  0  0  0  0  0  0  0  0
   -0.9317   -0.8145   -0.5519 C   0  0  0  0  0  0  0  0  0  0  0  0
   -2.1144    3.6169   -0.0200 H   0  0  0  0  0  0  0  0  0  0  0  0
    0.9403    2.4238    0.5796 H   0  0  0  0  0  0  0  0  0  0  0  0
    0.9758   -1.7774   -0.2458 H   0  0  0  0  0  0  0  0  0  0  0  0
   -1.4737   -1.6999   -0.8694 H   0  0  0  0  0  0  0  0  0  0  0  0
   -2.5914    4.4907   -0.0087 O   0  0  0  0  0  0  0  0  0  0  0  0
   -3.8153    4.3360   -0.4746 C   0  0  0  0  0  0  0  0  0  0  0  0
   -4.3389    3.3130   -0.8594 O   0  0  0  0  0  0  0  0  0  0  0  0
   -4.5629    5.6887   -0.4800 C   0  0  0  0  0  0  0  0  0  0  0  0
   -5.8092    5.5348   -0.9369 F   0  0  0  0  0  0  0  0  0  0  0  0
   -4.6222    6.1973    0.7641 F   0  0  0  0  0  0  0  0  0  0  0  0
   -3.9237    6.5730   -1.2671 F   0  0  0  0  0  0  0  0  0  0  0  0
  1  4  1  0  0  0  0
  2  1  1  0  0  0  0
  3  2  1  0  0  0  0
  4  5  2  0  0  0  0
  5 13  1  0  0  0  0
  6  5  1  0  0  0  0
  6  7  1  0  0  0  0
  7  8  2  0  0  0  0
  9  7  2  0  0  0  0
 10  6  2  0  0  0  0
 11  1  2  0  0  0  0
 11 10  1  0  0  0  0
 12 16  1  0  0  0  0
 14 10  1  0  0  0  0
 15 11  1  0  0  0  0
 17 16  1  0  0  0  0
 18 17  2  0  0  0  0
 19 17  1  0  0  0  0
 19 21  1  0  0  0  0
 20 19  1  0  0  0  0
 22 19  1  0  0  0  0
M  RAD  3   2   2   3   3   4   2
M  END
