Coordinates from ORCA-job 4-NO2PhN2+~CF3COO-_B3LYPG-6-31G_dp-CH-Scan-d09-49-n800
 OpenBabel11261919433D

 22 21  0  0  0  0  0  0  0  0999 V2000
   -1.1357    0.4230   -0.4866 C   0  0  0  0  0  0  0  0  0  0  0  0
   -2.4572    0.7326   -0.8583 N   0  0  0  0  0  0  0  0  0  0  0  0
   -3.4911    1.0433   -1.1430 N   0  0  0  0  0  0  0  0  0  0  0  0
   -0.4049    1.5572   -0.1293 C   0  0  0  0  0  0  0  0  0  0  0  0
    0.9211    1.1719    0.2363 C   0  0  0  0  0  0  0  0  0  0  0  0
    1.3379   -0.1505    0.2179 C   0  0  0  0  0  0  0  0  0  0  0  0
    2.7318   -0.4793    0.6183 N   0  0  0  0  0  0  0  0  0  0  0  0
    3.4621    0.4477    0.9558 O   0  0  0  0  0  0  0  0  0  0  0  0
    3.0672   -1.6631    0.5868 O   0  0  0  0  0  0  0  0  0  0  0  0
    0.5135   -1.2329   -0.1627 C   0  0  0  0  0  0  0  0  0  0  0  0
   -0.7804   -0.9517   -0.5345 C   0  0  0  0  0  0  0  0  0  0  0  0
   -2.2886    5.3237    0.0260 H   0  0  0  0  0  0  0  0  0  0  0  0
    1.6460    1.9199    0.5450 H   0  0  0  0  0  0  0  0  0  0  0  0
    0.9100   -2.2393   -0.1542 H   0  0  0  0  0  0  0  0  0  0  0  0
   -1.4731   -1.7301   -0.8414 H   0  0  0  0  0  0  0  0  0  0  0  0
   -3.1029    5.8510   -0.0462 O   0  0  0  0  0  0  0  0  0  0  0  0
   -4.0876    5.0373   -0.4356 C   0  0  0  0  0  0  0  0  0  0  0  0
   -3.9969    3.8582   -0.6641 O   0  0  0  0  0  0  0  0  0  0  0  0
   -5.4076    5.8291   -0.5608 C   0  0  0  0  0  0  0  0  0  0  0  0
   -6.3934    5.0203   -0.9534 F   0  0  0  0  0  0  0  0  0  0  0  0
   -5.7374    6.3730    0.6229 F   0  0  0  0  0  0  0  0  0  0  0  0
   -5.2724    6.8179   -1.4609 F   0  0  0  0  0  0  0  0  0  0  0  0
  1  4  1  0  0  0  0
  2  1  1  0  0  0  0
  3  2  1  0  0  0  0
  4  5  2  0  0  0  0
  5 13  1  0  0  0  0
  6  5  1  0  0  0  0
  6  7  1  0  0  0  0
  7  8  2  0  0  0  0
  9  7  2  0  0  0  0
 10 14  1  0  0  0  0
 10  6  2  0  0  0  0
 11  1  2  0  0  0  0
 11 10  1  0  0  0  0
 15 11  1  0  0  0  0
 16 12  1  0  0  0  0
 17 16  1  0  0  0  0
 18 17  2  0  0  0  0
 19 17  1  0  0  0  0
 19 21  1  0  0  0  0
 20 19  1  0  0  0  0
 22 19  1  0  0  0  0
M  RAD  3   2   2   3   3   4   2
M  END
