Coordinates from ORCA-job 4-NO2PhN2+~CF3COO-_B3LYPG-6-31G_dp-CH-Scan-d09-49-n800
 OpenBabel11261919433D

 22 21  0  0  0  0  0  0  0  0999 V2000
   -1.5966    0.4753   -0.4614 C   0  0  0  0  0  0  0  0  0  0  0  0
   -2.9541    0.5011   -0.8043 N   0  0  0  0  0  0  0  0  0  0  0  0
   -4.0337    0.5973   -1.0641 N   0  0  0  0  0  0  0  0  0  0  0  0
   -1.0786    1.7185   -0.0806 C   0  0  0  0  0  0  0  0  0  0  0  0
    0.2985    1.6102    0.2507 C   0  0  0  0  0  0  0  0  0  0  0  0
    0.9747    0.4003    0.1819 C   0  0  0  0  0  0  0  0  0  0  0  0
    2.4171    0.3558    0.5413 N   0  0  0  0  0  0  0  0  0  0  0  0
    2.9476    1.4044    0.8917 O   0  0  0  0  0  0  0  0  0  0  0  0
    2.9836   -0.7331    0.4632 O   0  0  0  0  0  0  0  0  0  0  0  0
    0.3758   -0.8116   -0.2134 C   0  0  0  0  0  0  0  0  0  0  0  0
   -0.9592   -0.7885   -0.5499 C   0  0  0  0  0  0  0  0  0  0  0  0
   -2.0816    3.4496   -0.0277 H   0  0  0  0  0  0  0  0  0  0  0  0
    0.8574    2.4844    0.5691 H   0  0  0  0  0  0  0  0  0  0  0  0
    0.9650   -1.7184   -0.2448 H   0  0  0  0  0  0  0  0  0  0  0  0
   -1.4863   -1.6838   -0.8641 H   0  0  0  0  0  0  0  0  0  0  0  0
   -2.5398    4.3509   -0.0013 O   0  0  0  0  0  0  0  0  0  0  0  0
   -3.7603    4.2575   -0.4786 C   0  0  0  0  0  0  0  0  0  0  0  0
   -4.3272    3.2664   -0.8916 O   0  0  0  0  0  0  0  0  0  0  0  0
   -4.4555    5.6385   -0.4642 C   0  0  0  0  0  0  0  0  0  0  0  0
   -5.7013    5.5455   -0.9402 F   0  0  0  0  0  0  0  0  0  0  0  0
   -4.5126    6.1235    0.7900 F   0  0  0  0  0  0  0  0  0  0  0  0
   -3.7725    6.5153   -1.2233 F   0  0  0  0  0  0  0  0  0  0  0  0
  1  4  1  0  0  0  0
  2  1  1  0  0  0  0
  3  2  1  0  0  0  0
  4  5  2  0  0  0  0
  5 13  1  0  0  0  0
  6  5  1  0  0  0  0
  6  7  1  0  0  0  0
  7  8  2  0  0  0  0
  9  7  2  0  0  0  0
 10  6  2  0  0  0  0
 11  1  2  0  0  0  0
 11 10  1  0  0  0  0
 12 16  1  0  0  0  0
 14 10  1  0  0  0  0
 15 11  1  0  0  0  0
 17 19  1  0  0  0  0
 17 16  1  0  0  0  0
 18 17  2  0  0  0  0
 19 21  1  0  0  0  0
 20 19  1  0  0  0  0
 22 19  1  0  0  0  0
M  RAD  3   2   2   3   3   4   2
M  END
