Coordinates from ORCA-job 4-NO2PhN2+~CF3COO-_B3LYPG-6-31G_dp-CH-Scan-d09-49-n800
 OpenBabel11261919433D

 22 21  0  0  0  0  0  0  0  0999 V2000
   -1.1542    0.4205   -0.4886 C   0  0  0  0  0  0  0  0  0  0  0  0
   -2.4785    0.7156   -0.8616 N   0  0  0  0  0  0  0  0  0  0  0  0
   -3.5163    1.0137   -1.1455 N   0  0  0  0  0  0  0  0  0  0  0  0
   -0.4373    1.5611   -0.1231 C   0  0  0  0  0  0  0  0  0  0  0  0
    0.8920    1.1894    0.2437 C   0  0  0  0  0  0  0  0  0  0  0  0
    1.3245   -0.1279    0.2189 C   0  0  0  0  0  0  0  0  0  0  0  0
    2.7211   -0.4425    0.6211 N   0  0  0  0  0  0  0  0  0  0  0  0
    3.4401    0.4913    0.9640 O   0  0  0  0  0  0  0  0  0  0  0  0
    3.0700   -1.6223    0.5851 O   0  0  0  0  0  0  0  0  0  0  0  0
    0.5138   -1.2177   -0.1699 C   0  0  0  0  0  0  0  0  0  0  0  0
   -0.7824   -0.9496   -0.5432 C   0  0  0  0  0  0  0  0  0  0  0  0
   -2.2695    5.2308    0.0170 H   0  0  0  0  0  0  0  0  0  0  0  0
    1.6074    1.9439    0.5586 H   0  0  0  0  0  0  0  0  0  0  0  0
    0.9220   -2.2194   -0.1660 H   0  0  0  0  0  0  0  0  0  0  0  0
   -1.4652   -1.7343   -0.8560 H   0  0  0  0  0  0  0  0  0  0  0  0
   -3.0683    5.7823   -0.0473 O   0  0  0  0  0  0  0  0  0  0  0  0
   -4.0789    5.0017   -0.4372 C   0  0  0  0  0  0  0  0  0  0  0  0
   -4.0262    3.8219   -0.6741 O   0  0  0  0  0  0  0  0  0  0  0  0
   -5.3740    5.8349   -0.5536 C   0  0  0  0  0  0  0  0  0  0  0  0
   -6.3902    5.0550   -0.9273 F   0  0  0  0  0  0  0  0  0  0  0  0
   -5.6723    6.4005    0.6282 F   0  0  0  0  0  0  0  0  0  0  0  0
   -5.2171    6.8103   -1.4649 F   0  0  0  0  0  0  0  0  0  0  0  0
  1  4  1  0  0  0  0
  2  1  1  0  0  0  0
  3  2  1  0  0  0  0
  4  5  2  0  0  0  0
  5 13  1  0  0  0  0
  6  5  1  0  0  0  0
  6  7  1  0  0  0  0
  7  8  2  0  0  0  0
  9  7  2  0  0  0  0
 10 14  1  0  0  0  0
 10  6  2  0  0  0  0
 11  1  2  0  0  0  0
 11 10  1  0  0  0  0
 15 11  1  0  0  0  0
 16 12  1  0  0  0  0
 17 16  1  0  0  0  0
 18 17  2  0  0  0  0
 19 17  1  0  0  0  0
 19 21  1  0  0  0  0
 20 19  1  0  0  0  0
 22 19  1  0  0  0  0
M  RAD  3   2   2   3   3   4   2
M  END
