Coordinates from ORCA-job 4-NO2PhN2+~CF3COO-_B3LYPG-6-31G_dp-CH-Scan-d09-49-n800
 OpenBabel11261919433D

 22 21  0  0  0  0  0  0  0  0999 V2000
   -1.2365    0.3995   -0.4230 C   0  0  0  0  0  0  0  0  0  0  0  0
   -2.5835    0.6367   -0.7502 N   0  0  0  0  0  0  0  0  0  0  0  0
   -3.6436    0.8877   -0.9938 N   0  0  0  0  0  0  0  0  0  0  0  0
   -0.5668    1.5612   -0.0331 C   0  0  0  0  0  0  0  0  0  0  0  0
    0.7889    1.2464    0.2850 C   0  0  0  0  0  0  0  0  0  0  0  0
    1.2872   -0.0447    0.1971 C   0  0  0  0  0  0  0  0  0  0  0  0
    2.7093   -0.3004    0.5489 N   0  0  0  0  0  0  0  0  0  0  0  0
    3.3892    0.6567    0.9066 O   0  0  0  0  0  0  0  0  0  0  0  0
    3.1157   -1.4588    0.4620 O   0  0  0  0  0  0  0  0  0  0  0  0
    0.5225   -1.1598   -0.2109 C   0  0  0  0  0  0  0  0  0  0  0  0
   -0.7961   -0.9461   -0.5386 C   0  0  0  0  0  0  0  0  0  0  0  0
   -2.2720    4.8559    0.1320 H   0  0  0  0  0  0  0  0  0  0  0  0
    1.4730    2.0247    0.6108 H   0  0  0  0  0  0  0  0  0  0  0  0
    0.9811   -2.1385   -0.2564 H   0  0  0  0  0  0  0  0  0  0  0  0
   -1.4468   -1.7534   -0.8616 H   0  0  0  0  0  0  0  0  0  0  0  0
   -2.9842    5.5098    0.0223 O   0  0  0  0  0  0  0  0  0  0  0  0
   -4.0644    4.8748   -0.4355 C   0  0  0  0  0  0  0  0  0  0  0  0
   -4.1599    3.6987   -0.6799 O   0  0  0  0  0  0  0  0  0  0  0  0
   -5.2279    5.8748   -0.6135 C   0  0  0  0  0  0  0  0  0  0  0  0
   -6.2934    5.2562   -1.1257 F   0  0  0  0  0  0  0  0  0  0  0  0
   -5.5645    6.4061    0.5746 F   0  0  0  0  0  0  0  0  0  0  0  0
   -4.8669    6.8716   -1.4386 F   0  0  0  0  0  0  0  0  0  0  0  0
  1  4  1  0  0  0  0
  2  1  1  0  0  0  0
  3  2  1  0  0  0  0
  4  5  2  0  0  0  0
  5 13  1  0  0  0  0
  6  5  1  0  0  0  0
  6  7  1  0  0  0  0
  7  8  2  0  0  0  0
  9  7  2  0  0  0  0
 10  6  2  0  0  0  0
 11  1  2  0  0  0  0
 11 10  1  0  0  0  0
 14 10  1  0  0  0  0
 15 11  1  0  0  0  0
 16 12  1  0  0  0  0
 17 16  1  0  0  0  0
 18 17  2  0  0  0  0
 19 17  1  0  0  0  0
 19 21  1  0  0  0  0
 20 19  1  0  0  0  0
 22 19  1  0  0  0  0
M  RAD  3   2   2   3   3   4   2
M  END
