Coordinates from ORCA-job 4-NO2PhN2+~CF3COO-_B3LYPG-6-31G_dp-CH-Scan-d09-49-n800
 OpenBabel11261919433D

 22 21  0  0  0  0  0  0  0  0999 V2000
   -1.6550    0.4926   -0.4702 C   0  0  0  0  0  0  0  0  0  0  0  0
   -3.0128    0.4930   -0.8133 N   0  0  0  0  0  0  0  0  0  0  0  0
   -4.0920    0.5954   -1.0714 N   0  0  0  0  0  0  0  0  0  0  0  0
   -1.1546    1.7446   -0.0957 C   0  0  0  0  0  0  0  0  0  0  0  0
    0.2213    1.6690    0.2373 C   0  0  0  0  0  0  0  0  0  0  0  0
    0.9202    0.4710    0.1769 C   0  0  0  0  0  0  0  0  0  0  0  0
    2.3626    0.4568    0.5385 N   0  0  0  0  0  0  0  0  0  0  0  0
    2.8708    1.5178    0.8839 O   0  0  0  0  0  0  0  0  0  0  0  0
    2.9498   -0.6213    0.4666 O   0  0  0  0  0  0  0  0  0  0  0  0
    0.3440   -0.7526   -0.2113 C   0  0  0  0  0  0  0  0  0  0  0  0
   -0.9918   -0.7564   -0.5491 C   0  0  0  0  0  0  0  0  0  0  0  0
   -2.0256    3.2398   -0.0479 H   0  0  0  0  0  0  0  0  0  0  0  0
    0.7600    2.5577    0.5499 H   0  0  0  0  0  0  0  0  0  0  0  0
    0.9493   -1.6490   -0.2370 H   0  0  0  0  0  0  0  0  0  0  0  0
   -1.5015   -1.6632   -0.8585 H   0  0  0  0  0  0  0  0  0  0  0  0
   -2.4776    4.1907   -0.0044 O   0  0  0  0  0  0  0  0  0  0  0  0
   -3.6927    4.1649   -0.4790 C   0  0  0  0  0  0  0  0  0  0  0  0
   -4.3156    3.2111   -0.9125 O   0  0  0  0  0  0  0  0  0  0  0  0
   -4.3321    5.5736   -0.4415 C   0  0  0  0  0  0  0  0  0  0  0  0
   -5.5807    5.5458   -0.9215 F   0  0  0  0  0  0  0  0  0  0  0  0
   -4.3734    6.0402    0.8214 F   0  0  0  0  0  0  0  0  0  0  0  0
   -3.6121    6.4374   -1.1829 F   0  0  0  0  0  0  0  0  0  0  0  0
  1  4  1  0  0  0  0
  2  1  1  0  0  0  0
  3  2  1  0  0  0  0
  4  5  2  0  0  0  0
  5 13  1  0  0  0  0
  6  5  1  0  0  0  0
  6  7  1  0  0  0  0
  7  8  2  0  0  0  0
  9  7  2  0  0  0  0
 10  6  2  0  0  0  0
 11  1  2  0  0  0  0
 11 10  1  0  0  0  0
 12 16  1  0  0  0  0
 14 10  1  0  0  0  0
 15 11  1  0  0  0  0
 17 19  1  0  0  0  0
 17 16  1  0  0  0  0
 18 17  2  0  0  0  0
 19 21  1  0  0  0  0
 20 19  1  0  0  0  0
 22 19  1  0  0  0  0
M  RAD  3   2   2   3   3   4   2
M  END
