Coordinates from ORCA-job 4-NO2PhN2+~CF3COO-_B3LYPG-6-31G_dp-CH-Scan-d09-49-n800
 OpenBabel11261919433D

 22 21  0  0  0  0  0  0  0  0999 V2000
   -1.5389    0.4595   -0.4589 C   0  0  0  0  0  0  0  0  0  0  0  0
   -2.8953    0.5154   -0.8046 N   0  0  0  0  0  0  0  0  0  0  0  0
   -3.9733    0.6251   -1.0671 N   0  0  0  0  0  0  0  0  0  0  0  0
   -1.0010    1.6922   -0.0730 C   0  0  0  0  0  0  0  0  0  0  0  0
    0.3741    1.5537    0.2617 C   0  0  0  0  0  0  0  0  0  0  0  0
    1.0261    0.3312    0.1901 C   0  0  0  0  0  0  0  0  0  0  0  0
    2.4663    0.2558    0.5533 N   0  0  0  0  0  0  0  0  0  0  0  0
    3.0205    1.2941    0.8985 O   0  0  0  0  0  0  0  0  0  0  0  0
    3.0138   -0.8420    0.4632 O   0  0  0  0  0  0  0  0  0  0  0  0
    0.4046   -0.8683   -0.2116 C   0  0  0  0  0  0  0  0  0  0  0  0
   -0.9283   -0.8180   -0.5514 C   0  0  0  0  0  0  0  0  0  0  0  0
   -2.1190    3.6401   -0.0165 H   0  0  0  0  0  0  0  0  0  0  0  0
    0.9509    2.4145    0.5852 H   0  0  0  0  0  0  0  0  0  0  0  0
    0.9766   -1.7860   -0.2445 H   0  0  0  0  0  0  0  0  0  0  0  0
   -1.4722   -1.7018   -0.8703 H   0  0  0  0  0  0  0  0  0  0  0  0
   -2.5994    4.5103   -0.0073 O   0  0  0  0  0  0  0  0  0  0  0  0
   -3.8222    4.3472   -0.4748 C   0  0  0  0  0  0  0  0  0  0  0  0
   -4.3383    3.3203   -0.8585 O   0  0  0  0  0  0  0  0  0  0  0  0
   -4.5778    5.6954   -0.4832 C   0  0  0  0  0  0  0  0  0  0  0  0
   -5.8229    5.5329   -0.9402 F   0  0  0  0  0  0  0  0  0  0  0  0
   -4.6405    6.2060    0.7598 F   0  0  0  0  0  0  0  0  0  0  0  0
   -3.9434    6.5817   -1.2718 F   0  0  0  0  0  0  0  0  0  0  0  0
  1  4  1  0  0  0  0
  2  1  1  0  0  0  0
  3  2  1  0  0  0  0
  4  5  2  0  0  0  0
  5 13  1  0  0  0  0
  6  5  1  0  0  0  0
  6  7  1  0  0  0  0
  7  8  2  0  0  0  0
  9  7  2  0  0  0  0
 10  6  2  0  0  0  0
 11  1  2  0  0  0  0
 11 10  1  0  0  0  0
 12 16  1  0  0  0  0
 14 10  1  0  0  0  0
 15 11  1  0  0  0  0
 17 16  1  0  0  0  0
 18 17  2  0  0  0  0
 19 17  1  0  0  0  0
 19 21  1  0  0  0  0
 20 19  1  0  0  0  0
 22 19  1  0  0  0  0
M  RAD  3   2   2   3   3   4   2
M  END
