Coordinates from ORCA-job 4-NO2PhN2+~CF3COO-_B3LYPG-6-31G_dp-CH-Scan-d09-49-n800
 OpenBabel11261919433D

 22 21  0  0  0  0  0  0  0  0999 V2000
   -1.6378    0.4874   -0.4666 C   0  0  0  0  0  0  0  0  0  0  0  0
   -2.9956    0.4944   -0.8092 N   0  0  0  0  0  0  0  0  0  0  0  0
   -4.0753    0.5903   -1.0677 N   0  0  0  0  0  0  0  0  0  0  0  0
   -1.1328    1.7371   -0.0901 C   0  0  0  0  0  0  0  0  0  0  0  0
    0.2440    1.6513    0.2419 C   0  0  0  0  0  0  0  0  0  0  0  0
    0.9364    0.4500    0.1782 C   0  0  0  0  0  0  0  0  0  0  0  0
    2.3790    0.4268    0.5384 N   0  0  0  0  0  0  0  0  0  0  0  0
    2.8940    1.4841    0.8853 O   0  0  0  0  0  0  0  0  0  0  0  0
    2.9603   -0.6544    0.4639 O   0  0  0  0  0  0  0  0  0  0  0  0
    0.3535   -0.7703   -0.2124 C   0  0  0  0  0  0  0  0  0  0  0  0
   -0.9821   -0.7662   -0.5492 C   0  0  0  0  0  0  0  0  0  0  0  0
   -2.0449    3.3068   -0.0406 H   0  0  0  0  0  0  0  0  0  0  0  0
    0.7890    2.5355    0.5563 H   0  0  0  0  0  0  0  0  0  0  0  0
    0.9542   -1.6697   -0.2404 H   0  0  0  0  0  0  0  0  0  0  0  0
   -1.4970   -1.6696   -0.8601 H   0  0  0  0  0  0  0  0  0  0  0  0
   -2.4956    4.2388   -0.0024 O   0  0  0  0  0  0  0  0  0  0  0  0
   -3.7129    4.1927   -0.4788 C   0  0  0  0  0  0  0  0  0  0  0  0
   -4.3177    3.2275   -0.9077 O   0  0  0  0  0  0  0  0  0  0  0  0
   -4.3684    5.5936   -0.4488 C   0  0  0  0  0  0  0  0  0  0  0  0
   -5.6150    5.5468   -0.9313 F   0  0  0  0  0  0  0  0  0  0  0  0
   -4.4178    6.0643    0.8119 F   0  0  0  0  0  0  0  0  0  0  0  0
   -3.6570    6.4620   -1.1924 F   0  0  0  0  0  0  0  0  0  0  0  0
  1  4  1  0  0  0  0
  2  1  1  0  0  0  0
  3  2  1  0  0  0  0
  4  5  2  0  0  0  0
  5 13  1  0  0  0  0
  6  5  1  0  0  0  0
  6  7  1  0  0  0  0
  7  8  2  0  0  0  0
  9  7  2  0  0  0  0
 10  6  2  0  0  0  0
 11  1  2  0  0  0  0
 11 10  1  0  0  0  0
 12 16  1  0  0  0  0
 14 10  1  0  0  0  0
 15 11  1  0  0  0  0
 17 19  1  0  0  0  0
 17 16  1  0  0  0  0
 18 17  2  0  0  0  0
 19 21  1  0  0  0  0
 20 19  1  0  0  0  0
 22 19  1  0  0  0  0
M  RAD  3   2   2   3   3   4   2
M  END
