Coordinates from ORCA-job 4-NO2PhN2+~CF3COO-_B3LYPG-6-31G_dp-CH-Scan-d09-49-n800
 OpenBabel11261919433D

 22 21  0  0  0  0  0  0  0  0999 V2000
   -1.4122    0.4323   -0.4457 C   0  0  0  0  0  0  0  0  0  0  0  0
   -2.7671    0.5592   -0.7864 N   0  0  0  0  0  0  0  0  0  0  0  0
   -3.8410    0.7157   -1.0443 N   0  0  0  0  0  0  0  0  0  0  0  0
   -0.8243    1.6373   -0.0488 C   0  0  0  0  0  0  0  0  0  0  0  0
    0.5453    1.4275    0.2821 C   0  0  0  0  0  0  0  0  0  0  0  0
    1.1389    0.1768    0.1968 C   0  0  0  0  0  0  0  0  0  0  0  0
    2.5738    0.0284    0.5584 N   0  0  0  0  0  0  0  0  0  0  0  0
    3.1757    1.0329    0.9244 O   0  0  0  0  0  0  0  0  0  0  0  0
    3.0664   -1.0954    0.4675 O   0  0  0  0  0  0  0  0  0  0  0  0
    0.4621   -0.9898   -0.2176 C   0  0  0  0  0  0  0  0  0  0  0  0
   -0.8665   -0.8741   -0.5553 C   0  0  0  0  0  0  0  0  0  0  0  0
   -2.1775    4.0957    0.0294 H   0  0  0  0  0  0  0  0  0  0  0  0
    1.1647    2.2549    0.6146 H   0  0  0  0  0  0  0  0  0  0  0  0
    0.9919   -1.9320   -0.2606 H   0  0  0  0  0  0  0  0  0  0  0  0
   -1.4521   -1.7277   -0.8832 H   0  0  0  0  0  0  0  0  0  0  0  0
   -2.7405    4.8953   -0.0018 O   0  0  0  0  0  0  0  0  0  0  0  0
   -3.9375    4.5544   -0.4634 C   0  0  0  0  0  0  0  0  0  0  0  0
   -4.3056    3.4532   -0.7960 O   0  0  0  0  0  0  0  0  0  0  0  0
   -4.8541    5.7958   -0.5327 C   0  0  0  0  0  0  0  0  0  0  0  0
   -6.0703    5.4502   -0.9617 F   0  0  0  0  0  0  0  0  0  0  0  0
   -4.9690    6.3621    0.6810 F   0  0  0  0  0  0  0  0  0  0  0  0
   -4.3404    6.7066   -1.3785 F   0  0  0  0  0  0  0  0  0  0  0  0
  1  4  1  0  0  0  0
  2  1  1  0  0  0  0
  3  2  1  0  0  0  0
  4  5  2  0  0  0  0
  5 13  1  0  0  0  0
  6  5  1  0  0  0  0
  6  7  1  0  0  0  0
  7  8  2  0  0  0  0
  9  7  2  0  0  0  0
 10  6  2  0  0  0  0
 11  1  2  0  0  0  0
 11 10  1  0  0  0  0
 14 10  1  0  0  0  0
 15 11  1  0  0  0  0
 16 12  1  0  0  0  0
 17 16  1  0  0  0  0
 18 17  2  0  0  0  0
 19 17  1  0  0  0  0
 19 21  1  0  0  0  0
 20 19  1  0  0  0  0
 22 19  1  0  0  0  0
M  RAD  3   2   2   3   3   4   2
M  END
