Coordinates from ORCA-job 4-NO2PhN2+~CF3COO-_B3LYPG-6-31G_dp-CH-Scan-d09-49-n800
 OpenBabel11261919433D

 22 21  0  0  0  0  0  0  0  0999 V2000
   -1.6783    0.5012   -0.4708 C   0  0  0  0  0  0  0  0  0  0  0  0
   -3.0374    0.4984   -0.8117 N   0  0  0  0  0  0  0  0  0  0  0  0
   -4.1145    0.6349   -1.0638 N   0  0  0  0  0  0  0  0  0  0  0  0
   -1.1809    1.7532   -0.0957 C   0  0  0  0  0  0  0  0  0  0  0  0
    0.1933    1.6932    0.2360 C   0  0  0  0  0  0  0  0  0  0  0  0
    0.9005    0.4995    0.1747 C   0  0  0  0  0  0  0  0  0  0  0  0
    2.3430    0.4960    0.5357 N   0  0  0  0  0  0  0  0  0  0  0  0
    2.8427    1.5612    0.8800 O   0  0  0  0  0  0  0  0  0  0  0  0
    2.9382   -0.5772    0.4612 O   0  0  0  0  0  0  0  0  0  0  0  0
    0.3321   -0.7267   -0.2131 C   0  0  0  0  0  0  0  0  0  0  0  0
   -1.0049   -0.7402   -0.5499 C   0  0  0  0  0  0  0  0  0  0  0  0
   -1.9958    3.1244   -0.0462 H   0  0  0  0  0  0  0  0  0  0  0  0
    0.7227    2.5877    0.5474 H   0  0  0  0  0  0  0  0  0  0  0  0
    0.9433   -1.6190   -0.2398 H   0  0  0  0  0  0  0  0  0  0  0  0
   -1.5082   -1.6505   -0.8592 H   0  0  0  0  0  0  0  0  0  0  0  0
   -2.4659    4.1159    0.0078 O   0  0  0  0  0  0  0  0  0  0  0  0
   -3.6696    4.1226   -0.4762 C   0  0  0  0  0  0  0  0  0  0  0  0
   -4.3166    3.1899   -0.9317 O   0  0  0  0  0  0  0  0  0  0  0  0
   -4.2843    5.5436   -0.4374 C   0  0  0  0  0  0  0  0  0  0  0  0
   -5.5330    5.5451   -0.9201 F   0  0  0  0  0  0  0  0  0  0  0  0
   -4.3199    6.0100    0.8263 F   0  0  0  0  0  0  0  0  0  0  0  0
   -3.5459    6.3960   -1.1753 F   0  0  0  0  0  0  0  0  0  0  0  0
  1  4  1  0  0  0  0
  2  1  1  0  0  0  0
  3  2  1  0  0  0  0
  4  5  2  0  0  0  0
  5 13  1  0  0  0  0
  6  5  1  0  0  0  0
  6  7  1  0  0  0  0
  7  8  2  0  0  0  0
  9  7  2  0  0  0  0
 10  6  2  0  0  0  0
 11  1  2  0  0  0  0
 11 10  1  0  0  0  0
 12 16  1  0  0  0  0
 14 10  1  0  0  0  0
 15 11  1  0  0  0  0
 17 19  1  0  0  0  0
 17 16  1  0  0  0  0
 18 17  2  0  0  0  0
 19 21  1  0  0  0  0
 20 19  1  0  0  0  0
 22 19  1  0  0  0  0
M  RAD  3   2   2   3   3   4   2
M  END
