Coordinates from ORCA-job 4-NO2PhN2+~CF3COO-_B3LYPG-6-31G_dp-CH-Scan-d09-49-n800
 OpenBabel11261919433D

 22 21  0  0  0  0  0  0  0  0999 V2000
   -0.8369    1.0331   -1.6155 C   0  0  0  0  0  0  0  0  0  0  0  0
   -1.7192    1.3769   -2.6550 N   0  0  0  0  0  0  0  0  0  0  0  0
   -2.3449    1.6717   -3.5311 N   0  0  0  0  0  0  0  0  0  0  0  0
    0.4891    1.2750   -1.9731 C   0  0  0  0  0  0  0  0  0  0  0  0
    1.3491    0.8952   -0.8978 C   0  0  0  0  0  0  0  0  0  0  0  0
    0.8570    0.3551    0.2814 C   0  0  0  0  0  0  0  0  0  0  0  0
    1.8088   -0.0335    1.3556 N   0  0  0  0  0  0  0  0  0  0  0  0
    3.0084    0.0976    1.1314 O   0  0  0  0  0  0  0  0  0  0  0  0
    1.3343   -0.4682    2.4054 O   0  0  0  0  0  0  0  0  0  0  0  0
   -0.5168    0.1533    0.5458 C   0  0  0  0  0  0  0  0  0  0  0  0
   -1.4176    0.5063   -0.4322 C   0  0  0  0  0  0  0  0  0  0  0  0
   -1.9037    4.9344   -0.4661 H   0  0  0  0  0  0  0  0  0  0  0  0
    2.4253    1.0208   -0.9828 H   0  0  0  0  0  0  0  0  0  0  0  0
   -0.8250   -0.2624    1.4954 H   0  0  0  0  0  0  0  0  0  0  0  0
   -2.4900    0.4000   -0.3007 H   0  0  0  0  0  0  0  0  0  0  0  0
   -2.7479    5.1166   -0.0183 O   0  0  0  0  0  0  0  0  0  0  0  0
   -3.5810    4.1071   -0.2737 C   0  0  0  0  0  0  0  0  0  0  0  0
   -3.3414    3.1344   -0.9459 O   0  0  0  0  0  0  0  0  0  0  0  0
   -4.9431    4.3530    0.4118 C   0  0  0  0  0  0  0  0  0  0  0  0
   -5.7466    3.3056    0.2202 F   0  0  0  0  0  0  0  0  0  0  0  0
   -4.7752    4.5393    1.7300 F   0  0  0  0  0  0  0  0  0  0  0  0
   -5.5222    5.4480   -0.1066 F   0  0  0  0  0  0  0  0  0  0  0  0
  1 11  1  0  0  0  0
  2  1  1  0  0  0  0
  3  2  1  0  0  0  0
  4  1  2  0  0  0  0
  4  5  1  0  0  0  0
  5  6  2  0  0  0  0
  6 10  1  0  0  0  0
  6  7  1  0  0  0  0
  7  9  2  0  0  0  0
  8  7  2  0  0  0  0
 10 14  1  0  0  0  0
 11 15  1  0  0  0  0
 11 10  2  0  0  0  0
 12 16  1  0  0  0  0
 13  5  1  0  0  0  0
 17 16  1  0  0  0  0
 17 19  1  0  0  0  0
 18 17  2  0  0  0  0
 19 21  1  0  0  0  0
 20 19  1  0  0  0  0
 22 19  1  0  0  0  0
M  RAD  3   2   2   3   3   4   2
M  END
