Coordinates from ORCA-job 4-NO2PhN2+~CF3COO-_B3LYPG-6-31G_dp-CH-Scan-d09-49-n800
 OpenBabel11261919433D

 22 21  0  0  0  0  0  0  0  0999 V2000
   -1.4833    0.4476   -0.4530 C   0  0  0  0  0  0  0  0  0  0  0  0
   -2.8397    0.5338   -0.7957 N   0  0  0  0  0  0  0  0  0  0  0  0
   -3.9157    0.6621   -1.0593 N   0  0  0  0  0  0  0  0  0  0  0  0
   -0.9233    1.6688   -0.0635 C   0  0  0  0  0  0  0  0  0  0  0  0
    0.4500    1.4994    0.2693 C   0  0  0  0  0  0  0  0  0  0  0  0
    1.0766    0.2641    0.1921 C   0  0  0  0  0  0  0  0  0  0  0  0
    2.5152    0.1570    0.5539 N   0  0  0  0  0  0  0  0  0  0  0  0
    3.0892    1.1799    0.9129 O   0  0  0  0  0  0  0  0  0  0  0  0
    3.0373   -0.9537    0.4695 O   0  0  0  0  0  0  0  0  0  0  0  0
    0.4306   -0.9216   -0.2141 C   0  0  0  0  0  0  0  0  0  0  0  0
   -0.9009   -0.8431   -0.5524 C   0  0  0  0  0  0  0  0  0  0  0  0
   -2.1457    3.8336    0.0003 H   0  0  0  0  0  0  0  0  0  0  0  0
    1.0459    2.3459    0.5960 H   0  0  0  0  0  0  0  0  0  0  0  0
    0.9844   -1.8503   -0.2510 H   0  0  0  0  0  0  0  0  0  0  0  0
   -1.4633   -1.7143   -0.8743 H   0  0  0  0  0  0  0  0  0  0  0  0
   -2.6594    4.6739   -0.0061 O   0  0  0  0  0  0  0  0  0  0  0  0
   -3.8751    4.4362   -0.4717 C   0  0  0  0  0  0  0  0  0  0  0  0
   -4.3300    3.3759   -0.8352 O   0  0  0  0  0  0  0  0  0  0  0  0
   -4.6994    5.7427   -0.5035 C   0  0  0  0  0  0  0  0  0  0  0  0
   -5.9356    5.5032   -0.9489 F   0  0  0  0  0  0  0  0  0  0  0  0
   -4.7814    6.2754    0.7285 F   0  0  0  0  0  0  0  0  0  0  0  0
   -4.1159    6.6424   -1.3154 F   0  0  0  0  0  0  0  0  0  0  0  0
  1  4  1  0  0  0  0
  2  1  1  0  0  0  0
  3  2  1  0  0  0  0
  4  5  2  0  0  0  0
  5 13  1  0  0  0  0
  6  5  1  0  0  0  0
  6  7  1  0  0  0  0
  7  8  2  0  0  0  0
  9  7  2  0  0  0  0
 10  6  2  0  0  0  0
 11  1  2  0  0  0  0
 11 10  1  0  0  0  0
 14 10  1  0  0  0  0
 15 11  1  0  0  0  0
 16 12  1  0  0  0  0
 17 16  1  0  0  0  0
 18 17  2  0  0  0  0
 19 17  1  0  0  0  0
 19 21  1  0  0  0  0
 20 19  1  0  0  0  0
 22 19  1  0  0  0  0
M  RAD  3   2   2   3   3   4   2
M  END
