Coordinates from ORCA-job 4-NO2PhN2+~CF3COO-_B3LYPG-6-31G_dp-CH-Scan-d09-49-n800
 OpenBabel11261919433D

 22 21  0  0  0  0  0  0  0  0999 V2000
   -1.2568    0.4006   -0.4221 C   0  0  0  0  0  0  0  0  0  0  0  0
   -2.6059    0.6241   -0.7489 N   0  0  0  0  0  0  0  0  0  0  0  0
   -3.6682    0.8630   -0.9945 N   0  0  0  0  0  0  0  0  0  0  0  0
   -0.5978    1.5676   -0.0296 C   0  0  0  0  0  0  0  0  0  0  0  0
    0.7606    1.2661    0.2881 C   0  0  0  0  0  0  0  0  0  0  0  0
    1.2719   -0.0198    0.1969 C   0  0  0  0  0  0  0  0  0  0  0  0
    2.6966   -0.2619    0.5477 N   0  0  0  0  0  0  0  0  0  0  0  0
    3.3670    0.7012    0.9073 O   0  0  0  0  0  0  0  0  0  0  0  0
    3.1148   -1.4157    0.4568 O   0  0  0  0  0  0  0  0  0  0  0  0
    0.5183   -1.1414   -0.2135 C   0  0  0  0  0  0  0  0  0  0  0  0
   -0.8025   -0.9401   -0.5404 C   0  0  0  0  0  0  0  0  0  0  0  0
   -2.2607    4.7607    0.1218 H   0  0  0  0  0  0  0  0  0  0  0  0
    1.4368    2.0504    0.6158 H   0  0  0  0  0  0  0  0  0  0  0  0
    0.9866   -2.1154   -0.2613 H   0  0  0  0  0  0  0  0  0  0  0  0
   -1.4451   -1.7532   -0.8650 H   0  0  0  0  0  0  0  0  0  0  0  0
   -2.9541    5.4360    0.0205 O   0  0  0  0  0  0  0  0  0  0  0  0
   -4.0535    4.8371   -0.4391 C   0  0  0  0  0  0  0  0  0  0  0  0
   -4.1858    3.6663   -0.6929 O   0  0  0  0  0  0  0  0  0  0  0  0
   -5.1869    5.8729   -0.6071 C   0  0  0  0  0  0  0  0  0  0  0  0
   -6.2733    5.2892   -1.1165 F   0  0  0  0  0  0  0  0  0  0  0  0
   -5.5017    6.4097    0.5845 F   0  0  0  0  0  0  0  0  0  0  0  0
   -4.7997    6.8616   -1.4301 F   0  0  0  0  0  0  0  0  0  0  0  0
  1  4  1  0  0  0  0
  2  1  1  0  0  0  0
  3  2  1  0  0  0  0
  4  5  2  0  0  0  0
  5 13  1  0  0  0  0
  6  5  1  0  0  0  0
  6  7  1  0  0  0  0
  7  8  2  0  0  0  0
  9  7  2  0  0  0  0
 10  6  2  0  0  0  0
 11  1  2  0  0  0  0
 11 10  1  0  0  0  0
 14 10  1  0  0  0  0
 15 11  1  0  0  0  0
 16 12  1  0  0  0  0
 17 16  1  0  0  0  0
 18 17  2  0  0  0  0
 19 17  1  0  0  0  0
 19 21  1  0  0  0  0
 20 19  1  0  0  0  0
 22 19  1  0  0  0  0
M  RAD  3   2   2   3   3   4   2
M  END
