Coordinates from ORCA-job 4-NO2PhN2+~CF3COO-_B3LYPG-6-31G_dp-CH-Scan-d09-49-n800
 OpenBabel11261919433D

 22 22  0  0  0  0  0  0  0  0999 V2000
   -1.6831    0.7242   -0.3345 C   0  0  0  0  0  0  0  0  0  0  0  0
   -3.0655    0.6521   -0.6146 N   0  0  0  0  0  0  0  0  0  0  0  0
   -3.9924    1.3729   -0.7391 N   0  0  0  0  0  0  0  0  0  0  0  0
   -0.9596    1.9160   -0.1381 C   0  0  0  0  0  0  0  0  0  0  0  0
    0.4051    1.8325    0.1154 C   0  0  0  0  0  0  0  0  0  0  0  0
    1.0133    0.5798    0.1725 C   0  0  0  0  0  0  0  0  0  0  0  0
    2.4660    0.5071    0.4463 N   0  0  0  0  0  0  0  0  0  0  0  0
    3.0628    1.5677    0.6080 O   0  0  0  0  0  0  0  0  0  0  0  0
    2.9736   -0.6102    0.4942 O   0  0  0  0  0  0  0  0  0  0  0  0
    0.3108   -0.6076   -0.0185 C   0  0  0  0  0  0  0  0  0  0  0  0
   -1.0515   -0.5289   -0.2774 C   0  0  0  0  0  0  0  0  0  0  0  0
   -1.4879    2.9197   -0.1885 H   0  0  0  0  0  0  0  0  0  0  0  0
    1.0022    2.7219    0.2714 H   0  0  0  0  0  0  0  0  0  0  0  0
    0.8311   -1.5552    0.0349 H   0  0  0  0  0  0  0  0  0  0  0  0
   -1.6431   -1.4227   -0.4386 H   0  0  0  0  0  0  0  0  0  0  0  0
   -3.5648    3.0013   -0.4304 O   0  0  0  0  0  0  0  0  0  0  0  0
   -4.4752    3.8459   -0.8887 C   0  0  0  0  0  0  0  0  0  0  0  0
   -5.4504    3.6298   -1.5633 O   0  0  0  0  0  0  0  0  0  0  0  0
   -4.1178    5.2787   -0.4010 C   0  0  0  0  0  0  0  0  0  0  0  0
   -4.8022    6.1981   -1.0841 F   0  0  0  0  0  0  0  0  0  0  0  0
   -4.4124    5.4070    0.9069 F   0  0  0  0  0  0  0  0  0  0  0  0
   -2.7984    5.5291   -0.5546 F   0  0  0  0  0  0  0  0  0  0  0  0
  1 11  2  0  0  0  0
  1  4  1  0  0  0  0
  2  1  1  0  0  0  0
  3  2  1  0  0  0  0
  3 16  1  0  0  0  0
  4  5  2  0  0  0  0
  5  6  1  0  0  0  0
  5 13  1  0  0  0  0
  6  7  1  0  0  0  0
  7  9  2  0  0  0  0
  7  8  2  0  0  0  0
 10 14  1  0  0  0  0
 10  6  2  0  0  0  0
 11 10  1  0  0  0  0
 12  4  1  0  0  0  0
 15 11  1  0  0  0  0
 17 16  1  0  0  0  0
 17 19  1  0  0  0  0
 18 17  2  0  0  0  0
 19 21  1  0  0  0  0
 20 19  1  0  0  0  0
 22 19  1  0  0  0  0
M  RAD  2   2   2   3   2
M  END
