Coordinates from ORCA-job 4-NO2PhN2+~CF3COO-_B3LYPG-6-31G_dp-CH-Scan-d09-49-n800
 OpenBabel11261919433D

 22 21  0  0  0  0  0  0  0  0999 V2000
   -1.3751    0.4213   -0.4395 C   0  0  0  0  0  0  0  0  0  0  0  0
   -2.7295    0.5693   -0.7767 N   0  0  0  0  0  0  0  0  0  0  0  0
   -3.8017    0.7435   -1.0310 N   0  0  0  0  0  0  0  0  0  0  0  0
   -0.7737    1.6175   -0.0377 C   0  0  0  0  0  0  0  0  0  0  0  0
    0.5941    1.3881    0.2902 C   0  0  0  0  0  0  0  0  0  0  0  0
    1.1718    0.1306    0.1980 C   0  0  0  0  0  0  0  0  0  0  0  0
    2.6050   -0.0379    0.5577 N   0  0  0  0  0  0  0  0  0  0  0  0
    3.2202    0.9571    0.9279 O   0  0  0  0  0  0  0  0  0  0  0  0
    3.0835   -1.1673    0.4613 O   0  0  0  0  0  0  0  0  0  0  0  0
    0.4802   -1.0257   -0.2215 C   0  0  0  0  0  0  0  0  0  0  0  0
   -0.8472   -0.8919   -0.5570 C   0  0  0  0  0  0  0  0  0  0  0  0
   -2.2016    4.2345    0.0539 H   0  0  0  0  0  0  0  0  0  0  0  0
    1.2247    2.2058    0.6260 H   0  0  0  0  0  0  0  0  0  0  0  0
    0.9983   -1.9742   -0.2698 H   0  0  0  0  0  0  0  0  0  0  0  0
   -1.4440   -1.7364   -0.8886 H   0  0  0  0  0  0  0  0  0  0  0  0
   -2.7906    5.0117    0.0070 O   0  0  0  0  0  0  0  0  0  0  0  0
   -3.9723    4.6183   -0.4571 C   0  0  0  0  0  0  0  0  0  0  0  0
   -4.2941    3.4989   -0.7743 O   0  0  0  0  0  0  0  0  0  0  0  0
   -4.9329    5.8242   -0.5515 C   0  0  0  0  0  0  0  0  0  0  0  0
   -6.1341    5.4270   -0.9773 F   0  0  0  0  0  0  0  0  0  0  0  0
   -5.0718    6.4081    0.6511 F   0  0  0  0  0  0  0  0  0  0  0  0
   -4.4488    6.7366   -1.4128 F   0  0  0  0  0  0  0  0  0  0  0  0
  1  4  1  0  0  0  0
  2  1  1  0  0  0  0
  3  2  1  0  0  0  0
  4  5  2  0  0  0  0
  5 13  1  0  0  0  0
  6  5  1  0  0  0  0
  6  7  1  0  0  0  0
  7  8  2  0  0  0  0
  9  7  2  0  0  0  0
 10  6  2  0  0  0  0
 11  1  2  0  0  0  0
 11 10  1  0  0  0  0
 14 10  1  0  0  0  0
 15 11  1  0  0  0  0
 16 12  1  0  0  0  0
 17 16  1  0  0  0  0
 18 17  2  0  0  0  0
 19 17  1  0  0  0  0
 19 21  1  0  0  0  0
 20 19  1  0  0  0  0
 22 19  1  0  0  0  0
M  RAD  3   2   2   3   3   4   2
M  END
