Coordinates from ORCA-job 4-NO2PhN2+~CF3COO-_B3LYPG-6-31G_dp-CH-Scan-d09-49-n800
 OpenBabel11261919433D

 22 21  0  0  0  0  0  0  0  0999 V2000
   -1.5850    0.4722   -0.4607 C   0  0  0  0  0  0  0  0  0  0  0  0
   -2.9424    0.5038   -0.8038 N   0  0  0  0  0  0  0  0  0  0  0  0
   -4.0218    0.6019   -1.0640 N   0  0  0  0  0  0  0  0  0  0  0  0
   -1.0629    1.7134   -0.0791 C   0  0  0  0  0  0  0  0  0  0  0  0
    0.3139    1.5989    0.2526 C   0  0  0  0  0  0  0  0  0  0  0  0
    0.9852    0.3865    0.1831 C   0  0  0  0  0  0  0  0  0  0  0  0
    2.4274    0.3357    0.5428 N   0  0  0  0  0  0  0  0  0  0  0  0
    2.9623    1.3820    0.8938 O   0  0  0  0  0  0  0  0  0  0  0  0
    2.9896   -0.7554    0.4642 O   0  0  0  0  0  0  0  0  0  0  0  0
    0.3817   -0.8231   -0.2132 C   0  0  0  0  0  0  0  0  0  0  0  0
   -0.9530   -0.7945   -0.5500 C   0  0  0  0  0  0  0  0  0  0  0  0
   -2.0897    3.4886   -0.0253 H   0  0  0  0  0  0  0  0  0  0  0  0
    0.8766    2.4704    0.5718 H   0  0  0  0  0  0  0  0  0  0  0  0
    0.9674   -1.7321   -0.2450 H   0  0  0  0  0  0  0  0  0  0  0  0
   -1.4836   -1.6876   -0.8649 H   0  0  0  0  0  0  0  0  0  0  0  0
   -2.5516    4.3829   -0.0024 O   0  0  0  0  0  0  0  0  0  0  0  0
   -3.7727    4.2756   -0.4787 C   0  0  0  0  0  0  0  0  0  0  0  0
   -4.3292    3.2771   -0.8862 O   0  0  0  0  0  0  0  0  0  0  0  0
   -4.4802    5.6502   -0.4680 C   0  0  0  0  0  0  0  0  0  0  0  0
   -5.7260    5.5434   -0.9406 F   0  0  0  0  0  0  0  0  0  0  0  0
   -4.5386    6.1393    0.7844 F   0  0  0  0  0  0  0  0  0  0  0  0
   -3.8068    6.5298   -1.2321 F   0  0  0  0  0  0  0  0  0  0  0  0
  1  4  1  0  0  0  0
  2  1  1  0  0  0  0
  3  2  1  0  0  0  0
  4  5  2  0  0  0  0
  5 13  1  0  0  0  0
  6  5  1  0  0  0  0
  6  7  1  0  0  0  0
  7  8  2  0  0  0  0
  9  7  2  0  0  0  0
 10  6  2  0  0  0  0
 11  1  2  0  0  0  0
 11 10  1  0  0  0  0
 12 16  1  0  0  0  0
 14 10  1  0  0  0  0
 15 11  1  0  0  0  0
 17 19  1  0  0  0  0
 17 16  1  0  0  0  0
 18 17  2  0  0  0  0
 19 21  1  0  0  0  0
 20 19  1  0  0  0  0
 22 19  1  0  0  0  0
M  RAD  3   2   2   3   3   4   2
M  END
