Coordinates from ORCA-job 4-NO2PhN2+~CF3COO-_B3LYPG-6-31G_dp-CH-Scan-d09-49-n800
 OpenBabel11261919433D

 22 21  0  0  0  0  0  0  0  0999 V2000
   -1.1970    0.4083   -0.4504 C   0  0  0  0  0  0  0  0  0  0  0  0
   -2.5347    0.6732   -0.7957 N   0  0  0  0  0  0  0  0  0  0  0  0
   -3.5835    0.9477   -1.0620 N   0  0  0  0  0  0  0  0  0  0  0  0
   -0.5039    1.5605   -0.0745 C   0  0  0  0  0  0  0  0  0  0  0  0
    0.8404    1.2179    0.2643 C   0  0  0  0  0  0  0  0  0  0  0  0
    1.3073   -0.0865    0.2063 C   0  0  0  0  0  0  0  0  0  0  0  0
    2.7184   -0.3708    0.5797 N   0  0  0  0  0  0  0  0  0  0  0  0
    3.4188    0.5759    0.9255 O   0  0  0  0  0  0  0  0  0  0  0  0
    3.0970   -1.5403    0.5184 O   0  0  0  0  0  0  0  0  0  0  0  0
    0.5197   -1.1900   -0.1903 C   0  0  0  0  0  0  0  0  0  0  0  0
   -0.7893   -0.9498   -0.5371 C   0  0  0  0  0  0  0  0  0  0  0  0
   -2.2684    5.0391    0.0836 H   0  0  0  0  0  0  0  0  0  0  0  0
    1.5402    1.9851    0.5831 H   0  0  0  0  0  0  0  0  0  0  0  0
    0.9543   -2.1804   -0.2125 H   0  0  0  0  0  0  0  0  0  0  0  0
   -1.4563   -1.7466   -0.8533 H   0  0  0  0  0  0  0  0  0  0  0  0
   -3.0239    5.6449   -0.0093 O   0  0  0  0  0  0  0  0  0  0  0  0
   -4.0721    4.9382   -0.4371 C   0  0  0  0  0  0  0  0  0  0  0  0
   -4.0962    3.7573   -0.6746 O   0  0  0  0  0  0  0  0  0  0  0  0
   -5.3022    5.8594   -0.5896 C   0  0  0  0  0  0  0  0  0  0  0  0
   -6.3409    5.1658   -1.0592 F   0  0  0  0  0  0  0  0  0  0  0  0
   -5.6350    6.3856    0.6017 F   0  0  0  0  0  0  0  0  0  0  0  0
   -5.0322    6.8648   -1.4386 F   0  0  0  0  0  0  0  0  0  0  0  0
  1  4  1  0  0  0  0
  2  1  1  0  0  0  0
  3  2  1  0  0  0  0
  4  5  2  0  0  0  0
  5 13  1  0  0  0  0
  6  5  1  0  0  0  0
  6  7  1  0  0  0  0
  7  8  2  0  0  0  0
  9  7  2  0  0  0  0
 10  6  2  0  0  0  0
 11  1  2  0  0  0  0
 11 10  1  0  0  0  0
 14 10  1  0  0  0  0
 15 11  1  0  0  0  0
 16 12  1  0  0  0  0
 17 16  1  0  0  0  0
 18 17  2  0  0  0  0
 19 17  1  0  0  0  0
 19 21  1  0  0  0  0
 20 19  1  0  0  0  0
 22 19  1  0  0  0  0
M  RAD  3   2   2   3   3   4   2
M  END
