Coordinates from ORCA-job 4-NO2PhN2+~CF3COO-_B3LYPG-6-31G_dp-CH-Scan-d09-49-n800
 OpenBabel11261919433D

 22 21  0  0  0  0  0  0  0  0999 V2000
   -0.8029    1.0494   -1.6049 C   0  0  0  0  0  0  0  0  0  0  0  0
   -1.6849    1.4171   -2.6364 N   0  0  0  0  0  0  0  0  0  0  0  0
   -2.3037    1.7326   -3.5102 N   0  0  0  0  0  0  0  0  0  0  0  0
    0.5270    1.1880   -2.0007 C   0  0  0  0  0  0  0  0  0  0  0  0
    1.3862    0.7850   -0.9331 C   0  0  0  0  0  0  0  0  0  0  0  0
    0.8881    0.3160    0.2736 C   0  0  0  0  0  0  0  0  0  0  0  0
    1.8378   -0.1041    1.3376 N   0  0  0  0  0  0  0  0  0  0  0  0
    3.0372   -0.0712    1.0791 O   0  0  0  0  0  0  0  0  0  0  0  0
    1.3619   -0.4554    2.4177 O   0  0  0  0  0  0  0  0  0  0  0  0
   -0.4893    0.2180    0.5760 C   0  0  0  0  0  0  0  0  0  0  0  0
   -1.3885    0.6015   -0.3918 C   0  0  0  0  0  0  0  0  0  0  0  0
   -1.9835    5.0476   -0.4452 H   0  0  0  0  0  0  0  0  0  0  0  0
    2.4660    0.8344   -1.0467 H   0  0  0  0  0  0  0  0  0  0  0  0
   -0.8007   -0.1459    1.5456 H   0  0  0  0  0  0  0  0  0  0  0  0
   -2.4620    0.5759   -0.2326 H   0  0  0  0  0  0  0  0  0  0  0  0
   -2.8424    5.1921   -0.0117 O   0  0  0  0  0  0  0  0  0  0  0  0
   -3.6204    4.1406   -0.2710 C   0  0  0  0  0  0  0  0  0  0  0  0
   -3.3218    3.1764   -0.9321 O   0  0  0  0  0  0  0  0  0  0  0  0
   -5.0029    4.3216    0.3937 C   0  0  0  0  0  0  0  0  0  0  0  0
   -5.7547    3.2398    0.1843 F   0  0  0  0  0  0  0  0  0  0  0  0
   -4.8632    4.5075    1.7152 F   0  0  0  0  0  0  0  0  0  0  0  0
   -5.6227    5.3923   -0.1279 F   0  0  0  0  0  0  0  0  0  0  0  0
  1 11  1  0  0  0  0
  2  1  1  0  0  0  0
  3  2  1  0  0  0  0
  4  1  2  0  0  0  0
  4  5  1  0  0  0  0
  5  6  2  0  0  0  0
  6 10  1  0  0  0  0
  6  7  1  0  0  0  0
  7  9  2  0  0  0  0
  8  7  2  0  0  0  0
 10 14  1  0  0  0  0
 11 15  1  0  0  0  0
 11 10  2  0  0  0  0
 12 16  1  0  0  0  0
 13  5  1  0  0  0  0
 17 16  1  0  0  0  0
 17 19  1  0  0  0  0
 18 17  2  0  0  0  0
 19 21  1  0  0  0  0
 20 19  1  0  0  0  0
 22 19  1  0  0  0  0
M  RAD  3   2   2   3   3   4   2
M  END
