Coordinates from ORCA-job 4-NO2PhN2+~CF3COO-_B3LYPG-6-31G_dp-CH-Scan-d09-49-n800
 OpenBabel11261919433D

 22 21  0  0  0  0  0  0  0  0999 V2000
   -1.2602    0.4012   -0.4232 C   0  0  0  0  0  0  0  0  0  0  0  0
   -2.6093    0.6225   -0.7512 N   0  0  0  0  0  0  0  0  0  0  0  0
   -3.6727    0.8589   -0.9946 N   0  0  0  0  0  0  0  0  0  0  0  0
   -0.6032    1.5692   -0.0301 C   0  0  0  0  0  0  0  0  0  0  0  0
    0.7555    1.2698    0.2883 C   0  0  0  0  0  0  0  0  0  0  0  0
    1.2688   -0.0153    0.1973 C   0  0  0  0  0  0  0  0  0  0  0  0
    2.6938   -0.2551    0.5489 N   0  0  0  0  0  0  0  0  0  0  0  0
    3.3624    0.7091    0.9088 O   0  0  0  0  0  0  0  0  0  0  0  0
    3.1139   -1.4082    0.4576 O   0  0  0  0  0  0  0  0  0  0  0  0
    0.5173   -1.1380   -0.2137 C   0  0  0  0  0  0  0  0  0  0  0  0
   -0.8036   -0.9387   -0.5414 C   0  0  0  0  0  0  0  0  0  0  0  0
   -2.2576    4.7443    0.1174 H   0  0  0  0  0  0  0  0  0  0  0  0
    1.4302    2.0551    0.6165 H   0  0  0  0  0  0  0  0  0  0  0  0
    0.9871   -2.1113   -0.2614 H   0  0  0  0  0  0  0  0  0  0  0  0
   -1.4447   -1.7528   -0.8666 H   0  0  0  0  0  0  0  0  0  0  0  0
   -2.9478    5.4232    0.0177 O   0  0  0  0  0  0  0  0  0  0  0  0
   -4.0511    4.8303   -0.4401 C   0  0  0  0  0  0  0  0  0  0  0  0
   -4.1898    3.6604   -0.6950 O   0  0  0  0  0  0  0  0  0  0  0  0
   -5.1797    5.8719   -0.6047 C   0  0  0  0  0  0  0  0  0  0  0  0
   -6.2705    5.2937   -1.1112 F   0  0  0  0  0  0  0  0  0  0  0  0
   -5.4884    6.4102    0.5878 F   0  0  0  0  0  0  0  0  0  0  0  0
   -4.7898    6.8587   -1.4288 F   0  0  0  0  0  0  0  0  0  0  0  0
  1  4  1  0  0  0  0
  2  1  1  0  0  0  0
  3  2  1  0  0  0  0
  4  5  2  0  0  0  0
  5 13  1  0  0  0  0
  6  5  1  0  0  0  0
  6  7  1  0  0  0  0
  7  8  2  0  0  0  0
  9  7  2  0  0  0  0
 10  6  2  0  0  0  0
 11  1  2  0  0  0  0
 11 10  1  0  0  0  0
 14 10  1  0  0  0  0
 15 11  1  0  0  0  0
 16 12  1  0  0  0  0
 17 16  1  0  0  0  0
 18 17  2  0  0  0  0
 19 17  1  0  0  0  0
 19 21  1  0  0  0  0
 20 19  1  0  0  0  0
 22 19  1  0  0  0  0
M  RAD  3   2   2   3   3   4   2
M  END
