Coordinates from ORCA-job 4-NO2PhN2+~CF3COO-_B3LYPG-6-31G_dp-CH-Scan-d09-49-n800
 OpenBabel11261919433D

 22 21  0  0  0  0  0  0  0  0999 V2000
   -1.2797    0.4033   -0.4243 C   0  0  0  0  0  0  0  0  0  0  0  0
   -2.6304    0.6111   -0.7528 N   0  0  0  0  0  0  0  0  0  0  0  0
   -3.6952    0.8365   -1.0001 N   0  0  0  0  0  0  0  0  0  0  0  0
   -0.6330    1.5765   -0.0289 C   0  0  0  0  0  0  0  0  0  0  0  0
    0.7278    1.2898    0.2903 C   0  0  0  0  0  0  0  0  0  0  0  0
    1.2533    0.0098    0.1975 C   0  0  0  0  0  0  0  0  0  0  0  0
    2.6803   -0.2171    0.5495 N   0  0  0  0  0  0  0  0  0  0  0  0
    3.3393    0.7527    0.9120 O   0  0  0  0  0  0  0  0  0  0  0  0
    3.1115   -1.3658    0.4556 O   0  0  0  0  0  0  0  0  0  0  0  0
    0.5127   -1.1192   -0.2159 C   0  0  0  0  0  0  0  0  0  0  0  0
   -0.8098   -0.9319   -0.5440 C   0  0  0  0  0  0  0  0  0  0  0  0
   -2.2490    4.6479    0.1066 H   0  0  0  0  0  0  0  0  0  0  0  0
    1.3946    2.0810    0.6206 H   0  0  0  0  0  0  0  0  0  0  0  0
    0.9918   -2.0879   -0.2649 H   0  0  0  0  0  0  0  0  0  0  0  0
   -1.4430   -1.7515   -0.8707 H   0  0  0  0  0  0  0  0  0  0  0  0
   -2.9199    5.3475    0.0166 O   0  0  0  0  0  0  0  0  0  0  0  0
   -4.0410    4.7925   -0.4432 C   0  0  0  0  0  0  0  0  0  0  0  0
   -4.2163    3.6298   -0.7091 O   0  0  0  0  0  0  0  0  0  0  0  0
   -5.1383    5.8689   -0.5967 C   0  0  0  0  0  0  0  0  0  0  0  0
   -6.2519    5.3249   -1.0911 F   0  0  0  0  0  0  0  0  0  0  0  0
   -5.4177    6.4186    0.5979 F   0  0  0  0  0  0  0  0  0  0  0  0
   -4.7258    6.8419   -1.4264 F   0  0  0  0  0  0  0  0  0  0  0  0
  1  4  1  0  0  0  0
  2  1  1  0  0  0  0
  3  2  1  0  0  0  0
  4  5  2  0  0  0  0
  5 13  1  0  0  0  0
  6  5  1  0  0  0  0
  6  7  1  0  0  0  0
  7  8  2  0  0  0  0
  9  7  2  0  0  0  0
 10  6  2  0  0  0  0
 11  1  2  0  0  0  0
 11 10  1  0  0  0  0
 14 10  1  0  0  0  0
 15 11  1  0  0  0  0
 16 12  1  0  0  0  0
 17 16  1  0  0  0  0
 18 17  2  0  0  0  0
 19 17  1  0  0  0  0
 19 21  1  0  0  0  0
 20 19  1  0  0  0  0
 22 19  1  0  0  0  0
M  RAD  3   2   2   3   3   4   2
M  END
