Coordinates from ORCA-job 4-NO2PhN2+~CF3COO-_B3LYPG-6-31G_dp-CH-Scan-d09-49-n800
 OpenBabel11261919433D

 22 22  0  0  0  0  0  0  0  0999 V2000
   -1.6878    0.7253   -0.3388 C   0  0  0  0  0  0  0  0  0  0  0  0
   -3.0698    0.6488   -0.6215 N   0  0  0  0  0  0  0  0  0  0  0  0
   -3.9947    1.3736   -0.7470 N   0  0  0  0  0  0  0  0  0  0  0  0
   -0.9673    1.9196   -0.1439 C   0  0  0  0  0  0  0  0  0  0  0  0
    0.3974    1.8373    0.1123 C   0  0  0  0  0  0  0  0  0  0  0  0
    1.0079    0.5861    0.1735 C   0  0  0  0  0  0  0  0  0  0  0  0
    2.4601    0.5166    0.4500 N   0  0  0  0  0  0  0  0  0  0  0  0
    3.0550    1.5786    0.6096 O   0  0  0  0  0  0  0  0  0  0  0  0
    2.9698   -0.5996    0.5009 O   0  0  0  0  0  0  0  0  0  0  0  0
    0.3077   -0.6027   -0.0161 C   0  0  0  0  0  0  0  0  0  0  0  0
   -1.0542   -0.5265   -0.2778 C   0  0  0  0  0  0  0  0  0  0  0  0
   -1.4759    2.8883   -0.1954 H   0  0  0  0  0  0  0  0  0  0  0  0
    0.9928    2.7282    0.2675 H   0  0  0  0  0  0  0  0  0  0  0  0
    0.8293   -1.5495    0.0403 H   0  0  0  0  0  0  0  0  0  0  0  0
   -1.6443   -1.4215   -0.4381 H   0  0  0  0  0  0  0  0  0  0  0  0
   -3.5611    2.9938   -0.4401 O   0  0  0  0  0  0  0  0  0  0  0  0
   -4.4737    3.8435   -0.8867 C   0  0  0  0  0  0  0  0  0  0  0  0
   -5.4566    3.6325   -1.5513 O   0  0  0  0  0  0  0  0  0  0  0  0
   -4.1058    5.2731   -0.3979 C   0  0  0  0  0  0  0  0  0  0  0  0
   -4.7917    6.1971   -1.0731 F   0  0  0  0  0  0  0  0  0  0  0  0
   -4.3900    5.3984    0.9127 F   0  0  0  0  0  0  0  0  0  0  0  0
   -2.7867    5.5182   -0.5608 F   0  0  0  0  0  0  0  0  0  0  0  0
  1 11  2  0  0  0  0
  1  4  1  0  0  0  0
  2  1  1  0  0  0  0
  3  2  1  0  0  0  0
  3 16  1  0  0  0  0
  4  5  2  0  0  0  0
  5  6  1  0  0  0  0
  5 13  1  0  0  0  0
  6  7  1  0  0  0  0
  7  9  2  0  0  0  0
  7  8  2  0  0  0  0
 10 14  1  0  0  0  0
 10  6  2  0  0  0  0
 11 10  1  0  0  0  0
 12  4  1  0  0  0  0
 15 11  1  0  0  0  0
 17 16  1  0  0  0  0
 17 19  1  0  0  0  0
 18 17  2  0  0  0  0
 19 21  1  0  0  0  0
 20 19  1  0  0  0  0
 22 19  1  0  0  0  0
M  RAD  2   2   2   3   2
M  END
