Coordinates from ORCA-job 4-NO2PhN2+~CF3COO-_B3LYPG-6-31G_dp-CH-Scan-d09-49-n800
 OpenBabel11261919433D

 22 21  0  0  0  0  0  0  0  0999 V2000
   -0.8048    1.0476   -1.6058 C   0  0  0  0  0  0  0  0  0  0  0  0
   -1.6867    1.4141   -2.6378 N   0  0  0  0  0  0  0  0  0  0  0  0
   -2.3078    1.7259   -3.5114 N   0  0  0  0  0  0  0  0  0  0  0  0
    0.5251    1.1938   -1.9989 C   0  0  0  0  0  0  0  0  0  0  0  0
    1.3843    0.7924   -0.9307 C   0  0  0  0  0  0  0  0  0  0  0  0
    0.8865    0.3186    0.2742 C   0  0  0  0  0  0  0  0  0  0  0  0
    1.8364   -0.0990    1.3391 N   0  0  0  0  0  0  0  0  0  0  0  0
    3.0362   -0.0558    1.0841 O   0  0  0  0  0  0  0  0  0  0  0  0
    1.3601   -0.4591    2.4161 O   0  0  0  0  0  0  0  0  0  0  0  0
   -0.4909    0.2128    0.5738 C   0  0  0  0  0  0  0  0  0  0  0  0
   -1.3903    0.5938   -0.3949 C   0  0  0  0  0  0  0  0  0  0  0  0
   -1.9783    5.0404   -0.4467 H   0  0  0  0  0  0  0  0  0  0  0  0
    2.4641    0.8472   -1.0424 H   0  0  0  0  0  0  0  0  0  0  0  0
   -0.8023   -0.1552    1.5419 H   0  0  0  0  0  0  0  0  0  0  0  0
   -2.4640    0.5618   -0.2377 H   0  0  0  0  0  0  0  0  0  0  0  0
   -2.8363    5.1875   -0.0122 O   0  0  0  0  0  0  0  0  0  0  0  0
   -3.6183    4.1390   -0.2713 C   0  0  0  0  0  0  0  0  0  0  0  0
   -3.3242    3.1740   -0.9330 O   0  0  0  0  0  0  0  0  0  0  0  0
   -4.9994    4.3250    0.3950 C   0  0  0  0  0  0  0  0  0  0  0  0
   -5.7560    3.2467    0.1851 F   0  0  0  0  0  0  0  0  0  0  0  0
   -4.8575    4.5088    1.7166 F   0  0  0  0  0  0  0  0  0  0  0  0
   -5.6153    5.3989   -0.1246 F   0  0  0  0  0  0  0  0  0  0  0  0
  1 11  1  0  0  0  0
  2  1  1  0  0  0  0
  3  2  1  0  0  0  0
  4  1  2  0  0  0  0
  4  5  1  0  0  0  0
  5  6  2  0  0  0  0
  6 10  1  0  0  0  0
  6  7  1  0  0  0  0
  7  9  2  0  0  0  0
  8  7  2  0  0  0  0
 10 14  1  0  0  0  0
 11 15  1  0  0  0  0
 11 10  2  0  0  0  0
 12 16  1  0  0  0  0
 13  5  1  0  0  0  0
 17 16  1  0  0  0  0
 17 19  1  0  0  0  0
 18 17  2  0  0  0  0
 19 21  1  0  0  0  0
 20 19  1  0  0  0  0
 22 19  1  0  0  0  0
M  RAD  3   2   2   3   3   4   2
M  END
