Coordinates from ORCA-job 4-NO2PhN2+~CF3COO-_B3LYPG-6-31G_dp-CH-Scan-d09-49-n800
 OpenBabel11261919433D

 22 22  0  0  0  0  0  0  0  0999 V2000
   -1.6780    0.7214   -0.3283 C   0  0  0  0  0  0  0  0  0  0  0  0
   -3.0607    0.6554   -0.6042 N   0  0  0  0  0  0  0  0  0  0  0  0
   -3.9902    1.3706   -0.7273 N   0  0  0  0  0  0  0  0  0  0  0  0
   -0.9514    1.9102   -0.1296 C   0  0  0  0  0  0  0  0  0  0  0  0
    0.4133    1.8266    0.1198 C   0  0  0  0  0  0  0  0  0  0  0  0
    1.0195    0.5724    0.1708 C   0  0  0  0  0  0  0  0  0  0  0  0
    2.4729    0.4965    0.4404 N   0  0  0  0  0  0  0  0  0  0  0  0
    3.0712    1.5555    0.6063 O   0  0  0  0  0  0  0  0  0  0  0  0
    2.9786   -0.6218    0.4845 O   0  0  0  0  0  0  0  0  0  0  0  0
    0.3149   -0.6136   -0.0224 C   0  0  0  0  0  0  0  0  0  0  0  0
   -1.0480   -0.5329   -0.2773 C   0  0  0  0  0  0  0  0  0  0  0  0
   -1.5069    2.9562   -0.1775 H   0  0  0  0  0  0  0  0  0  0  0  0
    1.0119    2.7147    0.2773 H   0  0  0  0  0  0  0  0  0  0  0  0
    0.8344   -1.5619    0.0263 H   0  0  0  0  0  0  0  0  0  0  0  0
   -1.6409   -1.4258   -0.4399 H   0  0  0  0  0  0  0  0  0  0  0  0
   -3.5692    3.0112   -0.4156 O   0  0  0  0  0  0  0  0  0  0  0  0
   -4.4746    3.8495   -0.8920 C   0  0  0  0  0  0  0  0  0  0  0  0
   -5.4390    3.6266   -1.5806 O   0  0  0  0  0  0  0  0  0  0  0  0
   -4.1316    5.2864   -0.4056 C   0  0  0  0  0  0  0  0  0  0  0  0
   -4.8147    6.1995   -1.0983 F   0  0  0  0  0  0  0  0  0  0  0  0
   -4.4389    5.4179    0.8991 F   0  0  0  0  0  0  0  0  0  0  0  0
   -2.8120    5.5444   -0.5476 F   0  0  0  0  0  0  0  0  0  0  0  0
  1 11  2  0  0  0  0
  1  4  1  0  0  0  0
  2  1  1  0  0  0  0
  3  2  1  0  0  0  0
  3 16  1  0  0  0  0
  4  5  2  0  0  0  0
  5  6  1  0  0  0  0
  5 13  1  0  0  0  0
  6  7  1  0  0  0  0
  7  9  2  0  0  0  0
  7  8  2  0  0  0  0
 10 14  1  0  0  0  0
 10  6  2  0  0  0  0
 11 10  1  0  0  0  0
 12  4  1  0  0  0  0
 15 11  1  0  0  0  0
 17 16  1  0  0  0  0
 17 19  1  0  0  0  0
 18 17  2  0  0  0  0
 19 21  1  0  0  0  0
 20 19  1  0  0  0  0
 22 19  1  0  0  0  0
M  RAD  2   2   2   3   2
M  END
