Coordinates from ORCA-job 4-NO2PhN2+~CF3COO-_B3LYPG-6-31G_dp-CH-Scan-d09-49-n800
 OpenBabel11261919433D

 22 21  0  0  0  0  0  0  0  0999 V2000
   -1.0755    0.4611   -0.5833 C   0  0  0  0  0  0  0  0  0  0  0  0
   -2.3664    0.8123   -1.0213 N   0  0  0  0  0  0  0  0  0  0  0  0
   -3.3701    1.1578   -1.3677 N   0  0  0  0  0  0  0  0  0  0  0  0
   -0.2956    1.5789   -0.2844 C   0  0  0  0  0  0  0  0  0  0  0  0
    0.9972    1.1532    0.1494 C   0  0  0  0  0  0  0  0  0  0  0  0
    1.3416   -0.1869    0.2406 C   0  0  0  0  0  0  0  0  0  0  0  0
    2.7038   -0.5574    0.7073 N   0  0  0  0  0  0  0  0  0  0  0  0
    3.4702    0.3522    1.0106 O   0  0  0  0  0  0  0  0  0  0  0  0
    2.9796   -1.7560    0.7595 O   0  0  0  0  0  0  0  0  0  0  0  0
    0.4709   -1.2500   -0.0877 C   0  0  0  0  0  0  0  0  0  0  0  0
   -0.7945   -0.9301   -0.5214 C   0  0  0  0  0  0  0  0  0  0  0  0
   -2.2828    5.5572   -0.1376 H   0  0  0  0  0  0  0  0  0  0  0  0
    1.7529    1.8834    0.4252 H   0  0  0  0  0  0  0  0  0  0  0  0
    0.8118   -2.2723    0.0066 H   0  0  0  0  0  0  0  0  0  0  0  0
   -1.5191   -1.6918   -0.7949 H   0  0  0  0  0  0  0  0  0  0  0  0
   -3.1456    6.0066   -0.1526 O   0  0  0  0  0  0  0  0  0  0  0  0
   -4.0773    5.0958   -0.4472 C   0  0  0  0  0  0  0  0  0  0  0  0
   -3.8925    3.9257   -0.6639 O   0  0  0  0  0  0  0  0  0  0  0  0
   -5.4740    5.7545   -0.4640 C   0  0  0  0  0  0  0  0  0  0  0  0
   -6.3968    4.8649   -0.8339 F   0  0  0  0  0  0  0  0  0  0  0  0
   -5.7803    6.2132    0.7618 F   0  0  0  0  0  0  0  0  0  0  0  0
   -5.4969    6.7871   -1.3228 F   0  0  0  0  0  0  0  0  0  0  0  0
  1 11  2  0  0  0  0
  1  4  1  0  0  0  0
  2  1  1  0  0  0  0
  3  2  1  0  0  0  0
  4  5  2  0  0  0  0
  5  6  1  0  0  0  0
  5 13  1  0  0  0  0
  6  7  1  0  0  0  0
  7  9  2  0  0  0  0
  7  8  2  0  0  0  0
 10 14  1  0  0  0  0
 10  6  2  0  0  0  0
 11 10  1  0  0  0  0
 15 11  1  0  0  0  0
 16 12  1  0  0  0  0
 17 16  1  0  0  0  0
 18 17  2  0  0  0  0
 19 17  1  0  0  0  0
 19 21  1  0  0  0  0
 20 19  1  0  0  0  0
 22 19  1  0  0  0  0
M  RAD  3   2   2   3   3   4   2
M  END
