Coordinates from ORCA-job 4-NO2PhN2+~CF3COO-_B3LYPG-6-31G_dp-CH-Scan-d09-49-n800
 OpenBabel11261919433D

 22 21  0  0  0  0  0  0  0  0999 V2000
   -1.5422    0.4606   -0.4597 C   0  0  0  0  0  0  0  0  0  0  0  0
   -2.8989    0.5143   -0.8045 N   0  0  0  0  0  0  0  0  0  0  0  0
   -3.9772    0.6229   -1.0662 N   0  0  0  0  0  0  0  0  0  0  0  0
   -1.0054    1.6941   -0.0748 C   0  0  0  0  0  0  0  0  0  0  0  0
    0.3700    1.5576    0.2589 C   0  0  0  0  0  0  0  0  0  0  0  0
    1.0235    0.3358    0.1875 C   0  0  0  0  0  0  0  0  0  0  0  0
    2.4642    0.2626    0.5495 N   0  0  0  0  0  0  0  0  0  0  0  0
    3.0147    1.2997    0.9038 O   0  0  0  0  0  0  0  0  0  0  0  0
    3.0104   -0.8367    0.4697 O   0  0  0  0  0  0  0  0  0  0  0  0
    0.4032   -0.8646   -0.2129 C   0  0  0  0  0  0  0  0  0  0  0  0
   -0.9300   -0.8162   -0.5518 C   0  0  0  0  0  0  0  0  0  0  0  0
   -2.1165    3.6287   -0.0186 H   0  0  0  0  0  0  0  0  0  0  0  0
    0.9459    2.4194    0.5814 H   0  0  0  0  0  0  0  0  0  0  0  0
    0.9763   -1.7816   -0.2457 H   0  0  0  0  0  0  0  0  0  0  0  0
   -1.4730   -1.7008   -0.8698 H   0  0  0  0  0  0  0  0  0  0  0  0
   -2.5953    4.5007   -0.0083 O   0  0  0  0  0  0  0  0  0  0  0  0
   -3.8188    4.3416   -0.4746 C   0  0  0  0  0  0  0  0  0  0  0  0
   -4.3386    3.3165   -0.8585 O   0  0  0  0  0  0  0  0  0  0  0  0
   -4.5705    5.6920   -0.4815 C   0  0  0  0  0  0  0  0  0  0  0  0
   -5.8163    5.5336   -0.9379 F   0  0  0  0  0  0  0  0  0  0  0  0
   -4.6310    6.2017    0.7620 F   0  0  0  0  0  0  0  0  0  0  0  0
   -3.9340    6.5772   -1.2697 F   0  0  0  0  0  0  0  0  0  0  0  0
  1  4  1  0  0  0  0
  2  1  1  0  0  0  0
  3  2  1  0  0  0  0
  4  5  2  0  0  0  0
  5 13  1  0  0  0  0
  6  5  1  0  0  0  0
  6  7  1  0  0  0  0
  7  8  2  0  0  0  0
  9  7  2  0  0  0  0
 10  6  2  0  0  0  0
 11  1  2  0  0  0  0
 11 10  1  0  0  0  0
 12 16  1  0  0  0  0
 14 10  1  0  0  0  0
 15 11  1  0  0  0  0
 17 16  1  0  0  0  0
 18 17  2  0  0  0  0
 19 17  1  0  0  0  0
 19 21  1  0  0  0  0
 20 19  1  0  0  0  0
 22 19  1  0  0  0  0
M  RAD  3   2   2   3   3   4   2
M  END
