Coordinates from ORCA-job 4-NO2PhN2+~CF3COO-_B3LYPG-6-31G_dp-CH-Scan-d09-49-n800
 OpenBabel11261919433D

 22 21  0  0  0  0  0  0  0  0999 V2000
   -1.5318    0.4579   -0.4586 C   0  0  0  0  0  0  0  0  0  0  0  0
   -2.8884    0.5173   -0.8031 N   0  0  0  0  0  0  0  0  0  0  0  0
   -3.9665    0.6290   -1.0646 N   0  0  0  0  0  0  0  0  0  0  0  0
   -0.9910    1.6894   -0.0729 C   0  0  0  0  0  0  0  0  0  0  0  0
    0.3841    1.5473    0.2607 C   0  0  0  0  0  0  0  0  0  0  0  0
    1.0330    0.3232    0.1883 C   0  0  0  0  0  0  0  0  0  0  0  0
    2.4733    0.2441    0.5504 N   0  0  0  0  0  0  0  0  0  0  0  0
    3.0279    1.2789    0.9055 O   0  0  0  0  0  0  0  0  0  0  0  0
    3.0155   -0.8571    0.4698 O   0  0  0  0  0  0  0  0  0  0  0  0
    0.4084   -0.8748   -0.2131 C   0  0  0  0  0  0  0  0  0  0  0  0
   -0.9246   -0.8213   -0.5520 C   0  0  0  0  0  0  0  0  0  0  0  0
   -2.1224    3.6643   -0.0152 H   0  0  0  0  0  0  0  0  0  0  0  0
    0.9634    2.4064    0.5840 H   0  0  0  0  0  0  0  0  0  0  0  0
    0.9782   -1.7938   -0.2466 H   0  0  0  0  0  0  0  0  0  0  0  0
   -1.4709   -1.7036   -0.8707 H   0  0  0  0  0  0  0  0  0  0  0  0
   -2.6067    4.5307   -0.0079 O   0  0  0  0  0  0  0  0  0  0  0  0
   -3.8293    4.3582   -0.4743 C   0  0  0  0  0  0  0  0  0  0  0  0
   -4.3381    3.3270   -0.8550 O   0  0  0  0  0  0  0  0  0  0  0  0
   -4.5932    5.7016   -0.4853 C   0  0  0  0  0  0  0  0  0  0  0  0
   -5.8379    5.5297   -0.9396 F   0  0  0  0  0  0  0  0  0  0  0  0
   -4.6568    6.2154    0.7563 F   0  0  0  0  0  0  0  0  0  0  0  0
   -3.9656    6.5894   -1.2777 F   0  0  0  0  0  0  0  0  0  0  0  0
  1  4  1  0  0  0  0
  2  1  1  0  0  0  0
  3  2  1  0  0  0  0
  4  5  2  0  0  0  0
  5 13  1  0  0  0  0
  6  5  1  0  0  0  0
  6  7  1  0  0  0  0
  7  8  2  0  0  0  0
  9  7  2  0  0  0  0
 10  6  2  0  0  0  0
 11  1  2  0  0  0  0
 11 10  1  0  0  0  0
 12 16  1  0  0  0  0
 14 10  1  0  0  0  0
 15 11  1  0  0  0  0
 17 16  1  0  0  0  0
 18 17  2  0  0  0  0
 19 17  1  0  0  0  0
 19 21  1  0  0  0  0
 20 19  1  0  0  0  0
 22 19  1  0  0  0  0
M  RAD  3   2   2   3   3   4   2
M  END
