Coordinates from ORCA-job 4-NO2PhN2+~CF3COO-_B3LYPG-6-31G_dp-CH-Scan-d09-49-n800
 OpenBabel11261919433D

 22 21  0  0  0  0  0  0  0  0999 V2000
   -1.6846    0.5063   -0.4697 C   0  0  0  0  0  0  0  0  0  0  0  0
   -3.0449    0.5073   -0.8087 N   0  0  0  0  0  0  0  0  0  0  0  0
   -4.1191    0.6770   -1.0557 N   0  0  0  0  0  0  0  0  0  0  0  0
   -1.1842    1.7560   -0.0936 C   0  0  0  0  0  0  0  0  0  0  0  0
    0.1886    1.7015    0.2369 C   0  0  0  0  0  0  0  0  0  0  0  0
    0.8967    0.5079    0.1742 C   0  0  0  0  0  0  0  0  0  0  0  0
    2.3394    0.5059    0.5339 N   0  0  0  0  0  0  0  0  0  0  0  0
    2.8375    1.5718    0.8785 O   0  0  0  0  0  0  0  0  0  0  0  0
    2.9357   -0.5664    0.4580 O   0  0  0  0  0  0  0  0  0  0  0  0
    0.3287   -0.7177   -0.2138 C   0  0  0  0  0  0  0  0  0  0  0  0
   -1.0093   -0.7325   -0.5494 C   0  0  0  0  0  0  0  0  0  0  0  0
   -1.9799    3.0686   -0.0440 H   0  0  0  0  0  0  0  0  0  0  0  0
    0.7154    2.5975    0.5480 H   0  0  0  0  0  0  0  0  0  0  0  0
    0.9405   -1.6096   -0.2418 H   0  0  0  0  0  0  0  0  0  0  0  0
   -1.5119   -1.6431   -0.8589 H   0  0  0  0  0  0  0  0  0  0  0  0
   -2.4708    4.0853    0.0148 O   0  0  0  0  0  0  0  0  0  0  0  0
   -3.6663    4.1059   -0.4764 C   0  0  0  0  0  0  0  0  0  0  0  0
   -4.3245    3.1835   -0.9446 O   0  0  0  0  0  0  0  0  0  0  0  0
   -4.2725    5.5316   -0.4380 C   0  0  0  0  0  0  0  0  0  0  0  0
   -5.5208    5.5450   -0.9226 F   0  0  0  0  0  0  0  0  0  0  0  0
   -4.3068    5.9984    0.8257 F   0  0  0  0  0  0  0  0  0  0  0  0
   -3.5264    6.3792   -1.1744 F   0  0  0  0  0  0  0  0  0  0  0  0
  1  4  1  0  0  0  0
  2  1  1  0  0  0  0
  3  2  1  0  0  0  0
  4  5  2  0  0  0  0
  5 13  1  0  0  0  0
  6  5  1  0  0  0  0
  6  7  1  0  0  0  0
  7  8  2  0  0  0  0
  9  7  2  0  0  0  0
 10  6  2  0  0  0  0
 11  1  2  0  0  0  0
 11 10  1  0  0  0  0
 12 16  1  0  0  0  0
 14 10  1  0  0  0  0
 15 11  1  0  0  0  0
 17 19  1  0  0  0  0
 17 16  1  0  0  0  0
 18 17  2  0  0  0  0
 19 21  1  0  0  0  0
 20 19  1  0  0  0  0
 22 19  1  0  0  0  0
M  RAD  3   2   2   3   3   4   2
M  END
