Coordinates from ORCA-job 4-NO2PhN2+~CF3COO-_B3LYPG-6-31G_dp-CH-Scan-d09-49-n800
 OpenBabel11261919433D

 22 21  0  0  0  0  0  0  0  0999 V2000
   -0.7968    1.0518   -1.6039 C   0  0  0  0  0  0  0  0  0  0  0  0
   -1.6779    1.4246   -2.6344 N   0  0  0  0  0  0  0  0  0  0  0  0
   -2.3007    1.7372   -3.5065 N   0  0  0  0  0  0  0  0  0  0  0  0
    0.5332    1.1765   -2.0038 C   0  0  0  0  0  0  0  0  0  0  0  0
    1.3915    0.7696   -0.9371 C   0  0  0  0  0  0  0  0  0  0  0  0
    0.8925    0.3097    0.2727 C   0  0  0  0  0  0  0  0  0  0  0  0
    1.8411   -0.1155    1.3357 N   0  0  0  0  0  0  0  0  0  0  0  0
    3.0404   -0.0885    1.0759 O   0  0  0  0  0  0  0  0  0  0  0  0
    1.3648   -0.4604    2.4177 O   0  0  0  0  0  0  0  0  0  0  0  0
   -0.4849    0.2254    0.5792 C   0  0  0  0  0  0  0  0  0  0  0  0
   -1.3833    0.6137   -0.3876 C   0  0  0  0  0  0  0  0  0  0  0  0
   -1.9972    5.0667   -0.4470 H   0  0  0  0  0  0  0  0  0  0  0  0
    2.4715    0.8083   -1.0538 H   0  0  0  0  0  0  0  0  0  0  0  0
   -0.7970   -0.1324    1.5508 H   0  0  0  0  0  0  0  0  0  0  0  0
   -2.4565    0.5988   -0.2254 H   0  0  0  0  0  0  0  0  0  0  0  0
   -2.8575    5.2054   -0.0142 O   0  0  0  0  0  0  0  0  0  0  0  0
   -3.6266    4.1468   -0.2711 C   0  0  0  0  0  0  0  0  0  0  0  0
   -3.3196    3.1835   -0.9294 O   0  0  0  0  0  0  0  0  0  0  0  0
   -5.0108    4.3180    0.3926 C   0  0  0  0  0  0  0  0  0  0  0  0
   -5.7545    3.2306    0.1831 F   0  0  0  0  0  0  0  0  0  0  0  0
   -4.8731    4.5053    1.7142 F   0  0  0  0  0  0  0  0  0  0  0  0
   -5.6382    5.3839   -0.1295 F   0  0  0  0  0  0  0  0  0  0  0  0
  1 11  1  0  0  0  0
  2  1  1  0  0  0  0
  3  2  1  0  0  0  0
  4  1  2  0  0  0  0
  4  5  1  0  0  0  0
  5  6  2  0  0  0  0
  6 10  1  0  0  0  0
  6  7  1  0  0  0  0
  7  9  2  0  0  0  0
  8  7  2  0  0  0  0
 10 14  1  0  0  0  0
 11 15  1  0  0  0  0
 11 10  2  0  0  0  0
 12 16  1  0  0  0  0
 13  5  1  0  0  0  0
 17 16  1  0  0  0  0
 17 19  1  0  0  0  0
 18 17  2  0  0  0  0
 19 21  1  0  0  0  0
 20 19  1  0  0  0  0
 22 19  1  0  0  0  0
M  RAD  3   2   2   3   3   4   2
M  END
