Coordinates from ORCA-job 4-NO2PhN2+~CF3COO-_B3LYPG-6-31G_dp-CH-Scan-d09-49-n800
 OpenBabel11261919433D

 22 22  0  0  0  0  0  0  0  0999 V2000
   -1.6680    0.7121   -0.3099 C   0  0  0  0  0  0  0  0  0  0  0  0
   -3.0522    0.6607   -0.5739 N   0  0  0  0  0  0  0  0  0  0  0  0
   -3.9877    1.3624   -0.6913 N   0  0  0  0  0  0  0  0  0  0  0  0
   -0.9382    1.8958   -0.1027 C   0  0  0  0  0  0  0  0  0  0  0  0
    0.4272    1.8132    0.1354 C   0  0  0  0  0  0  0  0  0  0  0  0
    1.0315    0.5569    0.1666 C   0  0  0  0  0  0  0  0  0  0  0  0
    2.4872    0.4763    0.4250 N   0  0  0  0  0  0  0  0  0  0  0  0
    3.0878    1.5327    0.5979 O   0  0  0  0  0  0  0  0  0  0  0  0
    2.9924   -0.6428    0.4485 O   0  0  0  0  0  0  0  0  0  0  0  0
    0.3249   -0.6267   -0.0353 C   0  0  0  0  0  0  0  0  0  0  0  0
   -1.0400   -0.5440   -0.2786 C   0  0  0  0  0  0  0  0  0  0  0  0
   -1.5548    3.0232   -0.1393 H   0  0  0  0  0  0  0  0  0  0  0  0
    1.0275    2.6989    0.2989 H   0  0  0  0  0  0  0  0  0  0  0  0
    0.8450   -1.5753   -0.0015 H   0  0  0  0  0  0  0  0  0  0  0  0
   -1.6339   -1.4352   -0.4468 H   0  0  0  0  0  0  0  0  0  0  0  0
   -3.5836    3.0351   -0.3692 O   0  0  0  0  0  0  0  0  0  0  0  0
   -4.4693    3.8584   -0.8981 C   0  0  0  0  0  0  0  0  0  0  0  0
   -5.3975    3.6196   -1.6316 O   0  0  0  0  0  0  0  0  0  0  0  0
   -4.1601    5.3059   -0.4196 C   0  0  0  0  0  0  0  0  0  0  0  0
   -4.8348    6.2030   -1.1413 F   0  0  0  0  0  0  0  0  0  0  0  0
   -4.5031    5.4506    0.8748 F   0  0  0  0  0  0  0  0  0  0  0  0
   -2.8398    5.5786   -0.5299 F   0  0  0  0  0  0  0  0  0  0  0  0
  1 11  2  0  0  0  0
  1  4  1  0  0  0  0
  2  1  1  0  0  0  0
  3  2  1  0  0  0  0
  3 16  1  0  0  0  0
  4  5  2  0  0  0  0
  5  6  1  0  0  0  0
  5 13  1  0  0  0  0
  6  7  1  0  0  0  0
  7  9  2  0  0  0  0
  7  8  2  0  0  0  0
 10 14  1  0  0  0  0
 10  6  2  0  0  0  0
 11 10  1  0  0  0  0
 12  4  1  0  0  0  0
 15 11  1  0  0  0  0
 17 19  1  0  0  0  0
 17 16  1  0  0  0  0
 18 17  2  0  0  0  0
 19 21  1  0  0  0  0
 20 19  1  0  0  0  0
 22 19  1  0  0  0  0
M  RAD  2   2   2   3   2
M  END
