Coordinates from ORCA-job 4-NO2PhN2+~CF3COO-_B3LYPG-6-31G_dp-CH-Scan-d09-49-n800
 OpenBabel11261919433D

 22 22  0  0  0  0  0  0  0  0999 V2000
   -1.6670    0.7070   -0.3027 C   0  0  0  0  0  0  0  0  0  0  0  0
   -3.0518    0.6601   -0.5615 N   0  0  0  0  0  0  0  0  0  0  0  0
   -3.9891    1.3572   -0.6762 N   0  0  0  0  0  0  0  0  0  0  0  0
   -0.9386    1.8903   -0.0918 C   0  0  0  0  0  0  0  0  0  0  0  0
    0.4274    1.8100    0.1416 C   0  0  0  0  0  0  0  0  0  0  0  0
    1.0333    0.5541    0.1645 C   0  0  0  0  0  0  0  0  0  0  0  0
    2.4900    0.4740    0.4180 N   0  0  0  0  0  0  0  0  0  0  0  0
    3.0895    1.5304    0.5951 O   0  0  0  0  0  0  0  0  0  0  0  0
    2.9968   -0.6444    0.4337 O   0  0  0  0  0  0  0  0  0  0  0  0
    0.3279   -0.6298   -0.0414 C   0  0  0  0  0  0  0  0  0  0  0  0
   -1.0380   -0.5487   -0.2798 C   0  0  0  0  0  0  0  0  0  0  0  0
   -1.5753    3.0353   -0.1224 H   0  0  0  0  0  0  0  0  0  0  0  0
    1.0270    2.6957    0.3079 H   0  0  0  0  0  0  0  0  0  0  0  0
    0.8499   -1.5776   -0.0139 H   0  0  0  0  0  0  0  0  0  0  0  0
   -1.6308   -1.4402   -0.4505 H   0  0  0  0  0  0  0  0  0  0  0  0
   -3.5882    3.0417   -0.3499 O   0  0  0  0  0  0  0  0  0  0  0  0
   -4.4631    3.8609   -0.9000 C   0  0  0  0  0  0  0  0  0  0  0  0
   -5.3768    3.6174   -1.6507 O   0  0  0  0  0  0  0  0  0  0  0  0
   -4.1644    5.3119   -0.4251 C   0  0  0  0  0  0  0  0  0  0  0  0
   -4.8350    6.2037   -1.1570 F   0  0  0  0  0  0  0  0  0  0  0  0
   -4.5194    5.4620    0.8654 F   0  0  0  0  0  0  0  0  0  0  0  0
   -2.8437    5.5884   -0.5248 F   0  0  0  0  0  0  0  0  0  0  0  0
  1 11  2  0  0  0  0
  1  4  1  0  0  0  0
  2  1  1  0  0  0  0
  3  2  1  0  0  0  0
  3 16  1  0  0  0  0
  4  5  2  0  0  0  0
  5  6  1  0  0  0  0
  5 13  1  0  0  0  0
  6  7  1  0  0  0  0
  7  9  2  0  0  0  0
  7  8  2  0  0  0  0
 10 14  1  0  0  0  0
 10  6  2  0  0  0  0
 11 10  1  0  0  0  0
 12  4  1  0  0  0  0
 15 11  1  0  0  0  0
 17 19  1  0  0  0  0
 17 16  1  0  0  0  0
 18 17  2  0  0  0  0
 19 21  1  0  0  0  0
 20 19  1  0  0  0  0
 22 19  1  0  0  0  0
M  RAD  2   2   2   3   2
M  END
