Coordinates from ORCA-job 4-NO2PhN2+~CF3COO-_B3LYPG-6-31G_dp-CH-Scan-d09-49-n800
 OpenBabel11261919433D

 22 21  0  0  0  0  0  0  0  0999 V2000
   -1.0675    0.4678   -0.6020 C   0  0  0  0  0  0  0  0  0  0  0  0
   -2.3527    0.8238   -1.0530 N   0  0  0  0  0  0  0  0  0  0  0  0
   -3.3502    1.1740   -1.4121 N   0  0  0  0  0  0  0  0  0  0  0  0
   -0.2817    1.5830   -0.3096 C   0  0  0  0  0  0  0  0  0  0  0  0
    1.0050    1.1528    0.1377 C   0  0  0  0  0  0  0  0  0  0  0  0
    1.3390   -0.1886    0.2456 C   0  0  0  0  0  0  0  0  0  0  0  0
    2.6953   -0.5639    0.7257 N   0  0  0  0  0  0  0  0  0  0  0  0
    3.4659    0.3433    1.0252 O   0  0  0  0  0  0  0  0  0  0  0  0
    2.9622   -1.7638    0.7917 O   0  0  0  0  0  0  0  0  0  0  0  0
    0.4629   -1.2490   -0.0775 C   0  0  0  0  0  0  0  0  0  0  0  0
   -0.7971   -0.9246   -0.5235 C   0  0  0  0  0  0  0  0  0  0  0  0
   -2.2800    5.5786   -0.1735 H   0  0  0  0  0  0  0  0  0  0  0  0
    1.7641    1.8806    0.4108 H   0  0  0  0  0  0  0  0  0  0  0  0
    0.7958   -2.2726    0.0301 H   0  0  0  0  0  0  0  0  0  0  0  0
   -1.5253   -1.6840   -0.7940 H   0  0  0  0  0  0  0  0  0  0  0  0
   -3.1475    6.0191   -0.1736 O   0  0  0  0  0  0  0  0  0  0  0  0
   -4.0747    5.0980   -0.4498 C   0  0  0  0  0  0  0  0  0  0  0  0
   -3.8812    3.9295   -0.6680 O   0  0  0  0  0  0  0  0  0  0  0  0
   -5.4784    5.7417   -0.4426 C   0  0  0  0  0  0  0  0  0  0  0  0
   -6.3983    4.8411   -0.7926 F   0  0  0  0  0  0  0  0  0  0  0  0
   -5.7668    6.2011    0.7873 F   0  0  0  0  0  0  0  0  0  0  0  0
   -5.5283    6.7712   -1.3040 F   0  0  0  0  0  0  0  0  0  0  0  0
  1 11  2  0  0  0  0
  1  4  1  0  0  0  0
  2  1  1  0  0  0  0
  3  2  1  0  0  0  0
  4  5  2  0  0  0  0
  5  6  1  0  0  0  0
  5 13  1  0  0  0  0
  6  7  1  0  0  0  0
  7  9  2  0  0  0  0
  7  8  2  0  0  0  0
 10 14  1  0  0  0  0
 10  6  2  0  0  0  0
 11 10  1  0  0  0  0
 15 11  1  0  0  0  0
 16 12  1  0  0  0  0
 17 19  1  0  0  0  0
 17 16  1  0  0  0  0
 18 17  2  0  0  0  0
 19 21  1  0  0  0  0
 20 19  1  0  0  0  0
 22 19  1  0  0  0  0
M  RAD  3   2   2   3   3   4   2
M  END
