Coordinates from ORCA-job 4-NO2PhN2+~CF3COO-_B3LYPG-6-31G_dp-CH-Scan-d09-49-n800
 OpenBabel11261919433D

 22 21  0  0  0  0  0  0  0  0999 V2000
   -1.1440    0.4217   -0.4876 C   0  0  0  0  0  0  0  0  0  0  0  0
   -2.4669    0.7246   -0.8598 N   0  0  0  0  0  0  0  0  0  0  0  0
   -3.5025    1.0295   -1.1445 N   0  0  0  0  0  0  0  0  0  0  0  0
   -0.4197    1.5589   -0.1265 C   0  0  0  0  0  0  0  0  0  0  0  0
    0.9079    1.1798    0.2396 C   0  0  0  0  0  0  0  0  0  0  0  0
    1.3320   -0.1403    0.2180 C   0  0  0  0  0  0  0  0  0  0  0  0
    2.7272   -0.4625    0.6190 N   0  0  0  0  0  0  0  0  0  0  0  0
    3.4517    0.4674    0.9609 O   0  0  0  0  0  0  0  0  0  0  0  0
    3.0682   -1.6448    0.5875 O   0  0  0  0  0  0  0  0  0  0  0  0
    0.5140   -1.2261   -0.1665 C   0  0  0  0  0  0  0  0  0  0  0  0
   -0.7811   -0.9509   -0.5389 C   0  0  0  0  0  0  0  0  0  0  0  0
   -2.2796    5.2815    0.0212 H   0  0  0  0  0  0  0  0  0  0  0  0
    1.6284    1.9308    0.5512 H   0  0  0  0  0  0  0  0  0  0  0  0
    0.9158   -2.2304   -0.1602 H   0  0  0  0  0  0  0  0  0  0  0  0
   -1.4693   -1.7322   -0.8484 H   0  0  0  0  0  0  0  0  0  0  0  0
   -3.0870    5.8199   -0.0470 O   0  0  0  0  0  0  0  0  0  0  0  0
   -4.0838    5.0212   -0.4363 C   0  0  0  0  0  0  0  0  0  0  0  0
   -4.0105    3.8417   -0.6686 O   0  0  0  0  0  0  0  0  0  0  0  0
   -5.3926    5.8321   -0.5572 C   0  0  0  0  0  0  0  0  0  0  0  0
   -6.3928    5.0361   -0.9396 F   0  0  0  0  0  0  0  0  0  0  0  0
   -5.7072    6.3873    0.6253 F   0  0  0  0  0  0  0  0  0  0  0  0
   -5.2478    6.8139   -1.4635 F   0  0  0  0  0  0  0  0  0  0  0  0
  1  4  1  0  0  0  0
  2  1  1  0  0  0  0
  3  2  1  0  0  0  0
  4  5  2  0  0  0  0
  5 13  1  0  0  0  0
  6  5  1  0  0  0  0
  6  7  1  0  0  0  0
  7  8  2  0  0  0  0
  9  7  2  0  0  0  0
 10 14  1  0  0  0  0
 10  6  2  0  0  0  0
 11  1  2  0  0  0  0
 11 10  1  0  0  0  0
 15 11  1  0  0  0  0
 16 12  1  0  0  0  0
 17 16  1  0  0  0  0
 18 17  2  0  0  0  0
 19 17  1  0  0  0  0
 19 21  1  0  0  0  0
 20 19  1  0  0  0  0
 22 19  1  0  0  0  0
M  RAD  3   2   2   3   3   4   2
M  END
