Coordinates from ORCA-job 4-NO2PhN2+~CF3COO-_B3LYPG-6-31G_dp-CH-Scan-d09-49-n800
 OpenBabel11261919433D

 22 21  0  0  0  0  0  0  0  0999 V2000
   -1.3896    0.4260   -0.4428 C   0  0  0  0  0  0  0  0  0  0  0  0
   -2.7441    0.5657   -0.7817 N   0  0  0  0  0  0  0  0  0  0  0  0
   -3.8181    0.7320   -1.0338 N   0  0  0  0  0  0  0  0  0  0  0  0
   -0.7935    1.6255   -0.0427 C   0  0  0  0  0  0  0  0  0  0  0  0
    0.5751    1.4040    0.2863 C   0  0  0  0  0  0  0  0  0  0  0  0
    1.1591    0.1491    0.1967 C   0  0  0  0  0  0  0  0  0  0  0  0
    2.5931   -0.0115    0.5570 N   0  0  0  0  0  0  0  0  0  0  0  0
    3.2016    0.9861    0.9309 O   0  0  0  0  0  0  0  0  0  0  0  0
    3.0756   -1.1397    0.4677 O   0  0  0  0  0  0  0  0  0  0  0  0
    0.4733   -1.0112   -0.2210 C   0  0  0  0  0  0  0  0  0  0  0  0
   -0.8546   -0.8845   -0.5574 C   0  0  0  0  0  0  0  0  0  0  0  0
   -2.1914    4.1792    0.0423 H   0  0  0  0  0  0  0  0  0  0  0  0
    1.2013    2.2255    0.6207 H   0  0  0  0  0  0  0  0  0  0  0  0
    0.9961   -1.9572   -0.2673 H   0  0  0  0  0  0  0  0  0  0  0  0
   -1.4469   -1.7326   -0.8877 H   0  0  0  0  0  0  0  0  0  0  0  0
   -2.7698    4.9656    0.0014 O   0  0  0  0  0  0  0  0  0  0  0  0
   -3.9585    4.5928   -0.4598 C   0  0  0  0  0  0  0  0  0  0  0  0
   -4.2994    3.4803   -0.7822 O   0  0  0  0  0  0  0  0  0  0  0  0
   -4.9020    5.8130   -0.5435 C   0  0  0  0  0  0  0  0  0  0  0  0
   -6.1102    5.4358   -0.9677 F   0  0  0  0  0  0  0  0  0  0  0  0
   -5.0287    6.3913    0.6633 F   0  0  0  0  0  0  0  0  0  0  0  0
   -4.4079    6.7240   -1.4006 F   0  0  0  0  0  0  0  0  0  0  0  0
  1  4  1  0  0  0  0
  2  1  1  0  0  0  0
  3  2  1  0  0  0  0
  4  5  2  0  0  0  0
  5 13  1  0  0  0  0
  6  5  1  0  0  0  0
  6  7  1  0  0  0  0
  7  8  2  0  0  0  0
  9  7  2  0  0  0  0
 10  6  2  0  0  0  0
 11  1  2  0  0  0  0
 11 10  1  0  0  0  0
 14 10  1  0  0  0  0
 15 11  1  0  0  0  0
 16 12  1  0  0  0  0
 17 16  1  0  0  0  0
 18 17  2  0  0  0  0
 19 17  1  0  0  0  0
 19 21  1  0  0  0  0
 20 19  1  0  0  0  0
 22 19  1  0  0  0  0
M  RAD  3   2   2   3   3   4   2
M  END
