Coordinates from ORCA-job 4-NO2PhN2+~CF3COO-_B3LYPG-6-31G_dp-CH-Scan-d09-49-n800
 OpenBabel11261919433D

 22 21  0  0  0  0  0  0  0  0999 V2000
   -0.8066    1.0467   -1.6066 C   0  0  0  0  0  0  0  0  0  0  0  0
   -1.6884    1.4121   -2.6392 N   0  0  0  0  0  0  0  0  0  0  0  0
   -2.3119    1.7202   -3.5124 N   0  0  0  0  0  0  0  0  0  0  0  0
    0.5233    1.1994   -1.9971 C   0  0  0  0  0  0  0  0  0  0  0  0
    1.3824    0.7995   -0.9284 C   0  0  0  0  0  0  0  0  0  0  0  0
    0.8847    0.3207    0.2746 C   0  0  0  0  0  0  0  0  0  0  0  0
    1.8346   -0.0952    1.3401 N   0  0  0  0  0  0  0  0  0  0  0  0
    3.0347   -0.0433    1.0883 O   0  0  0  0  0  0  0  0  0  0  0  0
    1.3581   -0.4602    2.4154 O   0  0  0  0  0  0  0  0  0  0  0  0
   -0.4928    0.2083    0.5716 C   0  0  0  0  0  0  0  0  0  0  0  0
   -1.3922    0.5877   -0.3977 C   0  0  0  0  0  0  0  0  0  0  0  0
   -1.9733    5.0331   -0.4487 H   0  0  0  0  0  0  0  0  0  0  0  0
    2.4621    0.8591   -1.0381 H   0  0  0  0  0  0  0  0  0  0  0  0
   -0.8042   -0.1631    1.5384 H   0  0  0  0  0  0  0  0  0  0  0  0
   -2.4659    0.5508   -0.2423 H   0  0  0  0  0  0  0  0  0  0  0  0
   -2.8303    5.1829   -0.0131 O   0  0  0  0  0  0  0  0  0  0  0  0
   -3.6160    4.1370   -0.2716 C   0  0  0  0  0  0  0  0  0  0  0  0
   -3.3256    3.1713   -0.9340 O   0  0  0  0  0  0  0  0  0  0  0  0
   -4.9957    4.3273    0.3964 C   0  0  0  0  0  0  0  0  0  0  0  0
   -5.7563    3.2517    0.1867 F   0  0  0  0  0  0  0  0  0  0  0  0
   -4.8516    4.5097    1.7180 F   0  0  0  0  0  0  0  0  0  0  0  0
   -5.6085    5.4036   -0.1218 F   0  0  0  0  0  0  0  0  0  0  0  0
  1 11  1  0  0  0  0
  2  1  1  0  0  0  0
  3  2  1  0  0  0  0
  4  1  2  0  0  0  0
  4  5  1  0  0  0  0
  5  6  2  0  0  0  0
  6 10  1  0  0  0  0
  6  7  1  0  0  0  0
  7  9  2  0  0  0  0
  8  7  2  0  0  0  0
 10 14  1  0  0  0  0
 11 15  1  0  0  0  0
 11 10  2  0  0  0  0
 12 16  1  0  0  0  0
 13  5  1  0  0  0  0
 17 16  1  0  0  0  0
 17 19  1  0  0  0  0
 18 17  2  0  0  0  0
 19 21  1  0  0  0  0
 20 19  1  0  0  0  0
 22 19  1  0  0  0  0
M  RAD  3   2   2   3   3   4   2
M  END
