Coordinates from ORCA-job 4-NO2PhN2+~CF3COO-_B3LYPG-6-31G_dp-CH-Scan-d09-49-n800
 OpenBabel11261919433D

 22 21  0  0  0  0  0  0  0  0999 V2000
   -1.3010    0.4060   -0.4288 C   0  0  0  0  0  0  0  0  0  0  0  0
   -2.6527    0.5994   -0.7598 N   0  0  0  0  0  0  0  0  0  0  0  0
   -3.7195    0.8128   -1.0086 N   0  0  0  0  0  0  0  0  0  0  0  0
   -0.6662    1.5849   -0.0298 C   0  0  0  0  0  0  0  0  0  0  0  0
    0.6964    1.3121    0.2922 C   0  0  0  0  0  0  0  0  0  0  0  0
    1.2352    0.0377    0.1984 C   0  0  0  0  0  0  0  0  0  0  0  0
    2.6637   -0.1749    0.5533 N   0  0  0  0  0  0  0  0  0  0  0  0
    3.3113    0.8009    0.9201 O   0  0  0  0  0  0  0  0  0  0  0  0
    3.1072   -1.3187    0.4573 O   0  0  0  0  0  0  0  0  0  0  0  0
    0.5073   -1.0979   -0.2186 C   0  0  0  0  0  0  0  0  0  0  0  0
   -0.8164   -0.9237   -0.5494 C   0  0  0  0  0  0  0  0  0  0  0  0
   -2.2395    4.5434    0.0927 H   0  0  0  0  0  0  0  0  0  0  0  0
    1.3540    2.1097    0.6254 H   0  0  0  0  0  0  0  0  0  0  0  0
    0.9964   -2.0616   -0.2683 H   0  0  0  0  0  0  0  0  0  0  0  0
   -1.4402   -1.7493   -0.8789 H   0  0  0  0  0  0  0  0  0  0  0  0
   -2.8893    5.2644    0.0137 O   0  0  0  0  0  0  0  0  0  0  0  0
   -4.0291    4.7507   -0.4463 C   0  0  0  0  0  0  0  0  0  0  0  0
   -4.2432    3.5971   -0.7248 O   0  0  0  0  0  0  0  0  0  0  0  0
   -5.0914    5.8633   -0.5855 C   0  0  0  0  0  0  0  0  0  0  0  0
   -6.2336    5.3552   -1.0526 F   0  0  0  0  0  0  0  0  0  0  0  0
   -5.3272    6.4332    0.6090 F   0  0  0  0  0  0  0  0  0  0  0  0
   -4.6618    6.8143   -1.4325 F   0  0  0  0  0  0  0  0  0  0  0  0
  1  4  1  0  0  0  0
  2  1  1  0  0  0  0
  3  2  1  0  0  0  0
  4  5  2  0  0  0  0
  5 13  1  0  0  0  0
  6  5  1  0  0  0  0
  6  7  1  0  0  0  0
  7  8  2  0  0  0  0
  9  7  2  0  0  0  0
 10  6  2  0  0  0  0
 11  1  2  0  0  0  0
 11 10  1  0  0  0  0
 14 10  1  0  0  0  0
 15 11  1  0  0  0  0
 16 12  1  0  0  0  0
 17 16  1  0  0  0  0
 18 17  2  0  0  0  0
 19 17  1  0  0  0  0
 19 21  1  0  0  0  0
 20 19  1  0  0  0  0
 22 19  1  0  0  0  0
M  RAD  3   2   2   3   3   4   2
M  END
