Coordinates from ORCA-job 4-NO2PhN2+~CF3COO-_B3LYPG-6-31G_dp-CH-Scan-d09-49-n800
 OpenBabel11261919433D

 22 21  0  0  0  0  0  0  0  0999 V2000
   -1.2386    0.3997   -0.4223 C   0  0  0  0  0  0  0  0  0  0  0  0
   -2.5859    0.6357   -0.7489 N   0  0  0  0  0  0  0  0  0  0  0  0
   -3.6458    0.8858   -0.9942 N   0  0  0  0  0  0  0  0  0  0  0  0
   -0.5698    1.5618   -0.0323 C   0  0  0  0  0  0  0  0  0  0  0  0
    0.7862    1.2483    0.2855 C   0  0  0  0  0  0  0  0  0  0  0  0
    1.2857   -0.0424    0.1971 C   0  0  0  0  0  0  0  0  0  0  0  0
    2.7082   -0.2968    0.5484 N   0  0  0  0  0  0  0  0  0  0  0  0
    3.3876    0.6611    0.9053 O   0  0  0  0  0  0  0  0  0  0  0  0
    3.1159   -1.4546    0.4600 O   0  0  0  0  0  0  0  0  0  0  0  0
    0.5219   -1.1581   -0.2111 C   0  0  0  0  0  0  0  0  0  0  0  0
   -0.7969   -0.9454   -0.5383 C   0  0  0  0  0  0  0  0  0  0  0  0
   -2.2713    4.8472    0.1326 H   0  0  0  0  0  0  0  0  0  0  0  0
    1.4696    2.0270    0.6114 H   0  0  0  0  0  0  0  0  0  0  0  0
    0.9814   -2.1364   -0.2569 H   0  0  0  0  0  0  0  0  0  0  0  0
   -1.4470   -1.7533   -0.8613 H   0  0  0  0  0  0  0  0  0  0  0  0
   -2.9818    5.5029    0.0236 O   0  0  0  0  0  0  0  0  0  0  0  0
   -4.0632    4.8710   -0.4355 C   0  0  0  0  0  0  0  0  0  0  0  0
   -4.1619    3.6954   -0.6812 O   0  0  0  0  0  0  0  0  0  0  0  0
   -5.2238    5.8744   -0.6136 C   0  0  0  0  0  0  0  0  0  0  0  0
   -6.2907    5.2591   -1.1269 F   0  0  0  0  0  0  0  0  0  0  0  0
   -5.5598    6.4058    0.5746 F   0  0  0  0  0  0  0  0  0  0  0  0
   -4.8596    6.8708   -1.4377 F   0  0  0  0  0  0  0  0  0  0  0  0
  1  4  1  0  0  0  0
  2  1  1  0  0  0  0
  3  2  1  0  0  0  0
  4  5  2  0  0  0  0
  5 13  1  0  0  0  0
  6  5  1  0  0  0  0
  6  7  1  0  0  0  0
  7  8  2  0  0  0  0
  9  7  2  0  0  0  0
 10  6  2  0  0  0  0
 11  1  2  0  0  0  0
 11 10  1  0  0  0  0
 14 10  1  0  0  0  0
 15 11  1  0  0  0  0
 16 12  1  0  0  0  0
 17 16  1  0  0  0  0
 18 17  2  0  0  0  0
 19 17  1  0  0  0  0
 19 21  1  0  0  0  0
 20 19  1  0  0  0  0
 22 19  1  0  0  0  0
M  RAD  3   2   2   3   3   4   2
M  END
