Coordinates from ORCA-job 4-NO2PhN2+~CF3COO-_B3LYPG-6-31G_dp-CH-Scan-d09-49-n800
 OpenBabel11261919433D

 22 21  0  0  0  0  0  0  0  0999 V2000
   -1.2668    0.4017   -0.4224 C   0  0  0  0  0  0  0  0  0  0  0  0
   -2.6167    0.6185   -0.7495 N   0  0  0  0  0  0  0  0  0  0  0  0
   -3.6798    0.8519   -0.9967 N   0  0  0  0  0  0  0  0  0  0  0  0
   -0.6129    1.5714   -0.0290 C   0  0  0  0  0  0  0  0  0  0  0  0
    0.7467    1.2762    0.2890 C   0  0  0  0  0  0  0  0  0  0  0  0
    1.2640   -0.0073    0.1970 C   0  0  0  0  0  0  0  0  0  0  0  0
    2.6898   -0.2428    0.5479 N   0  0  0  0  0  0  0  0  0  0  0  0
    3.3556    0.7233    0.9078 O   0  0  0  0  0  0  0  0  0  0  0  0
    3.1136   -1.3945    0.4553 O   0  0  0  0  0  0  0  0  0  0  0  0
    0.5158   -1.1321   -0.2144 C   0  0  0  0  0  0  0  0  0  0  0  0
   -0.8058   -0.9367   -0.5414 C   0  0  0  0  0  0  0  0  0  0  0  0
   -2.2553    4.7133    0.1164 H   0  0  0  0  0  0  0  0  0  0  0  0
    1.4189    2.0634    0.6177 H   0  0  0  0  0  0  0  0  0  0  0  0
    0.9886   -2.1038   -0.2628 H   0  0  0  0  0  0  0  0  0  0  0  0
   -1.4446   -1.7526   -0.8666 H   0  0  0  0  0  0  0  0  0  0  0  0
   -2.9394    5.3989    0.0197 O   0  0  0  0  0  0  0  0  0  0  0  0
   -4.0479    4.8182   -0.4407 C   0  0  0  0  0  0  0  0  0  0  0  0
   -4.1979    3.6505   -0.6996 O   0  0  0  0  0  0  0  0  0  0  0  0
   -5.1663    5.8711   -0.6032 C   0  0  0  0  0  0  0  0  0  0  0  0
   -6.2632    5.3042   -1.1092 F   0  0  0  0  0  0  0  0  0  0  0  0
   -5.4686    6.4116    0.5899 F   0  0  0  0  0  0  0  0  0  0  0  0
   -4.7672    6.8546   -1.4269 F   0  0  0  0  0  0  0  0  0  0  0  0
  1  4  1  0  0  0  0
  2  1  1  0  0  0  0
  3  2  1  0  0  0  0
  4  5  2  0  0  0  0
  5 13  1  0  0  0  0
  6  5  1  0  0  0  0
  6  7  1  0  0  0  0
  7  8  2  0  0  0  0
  9  7  2  0  0  0  0
 10  6  2  0  0  0  0
 11  1  2  0  0  0  0
 11 10  1  0  0  0  0
 14 10  1  0  0  0  0
 15 11  1  0  0  0  0
 16 12  1  0  0  0  0
 17 16  1  0  0  0  0
 18 17  2  0  0  0  0
 19 17  1  0  0  0  0
 19 21  1  0  0  0  0
 20 19  1  0  0  0  0
 22 19  1  0  0  0  0
M  RAD  3   2   2   3   3   4   2
M  END
