Coordinates from ORCA-job 4-NO2PhN2+~CF3COO-_B3LYPG-6-31G_dp-CH-Scan-d09-49-n800
 OpenBabel11261919433D

 22 21  0  0  0  0  0  0  0  0999 V2000
   -1.0580    0.4732   -0.6212 C   0  0  0  0  0  0  0  0  0  0  0  0
   -2.3376    0.8336   -1.0848 N   0  0  0  0  0  0  0  0  0  0  0  0
   -3.3313    1.1863   -1.4520 N   0  0  0  0  0  0  0  0  0  0  0  0
   -0.2658    1.5860   -0.3373 C   0  0  0  0  0  0  0  0  0  0  0  0
    1.0149    1.1517    0.1231 C   0  0  0  0  0  0  0  0  0  0  0  0
    1.3380   -0.1909    0.2495 C   0  0  0  0  0  0  0  0  0  0  0  0
    2.6883   -0.5705    0.7427 N   0  0  0  0  0  0  0  0  0  0  0  0
    3.4638    0.3344    1.0367 O   0  0  0  0  0  0  0  0  0  0  0  0
    2.9458   -1.7715    0.8247 O   0  0  0  0  0  0  0  0  0  0  0  0
    0.4560   -1.2485   -0.0664 C   0  0  0  0  0  0  0  0  0  0  0  0
   -0.7987   -0.9202   -0.5244 C   0  0  0  0  0  0  0  0  0  0  0  0
   -2.2812    5.5953   -0.1983 H   0  0  0  0  0  0  0  0  0  0  0  0
    1.7778    1.8770    0.3920 H   0  0  0  0  0  0  0  0  0  0  0  0
    0.7804   -2.2731    0.0558 H   0  0  0  0  0  0  0  0  0  0  0  0
   -1.5308   -1.6772   -0.7906 H   0  0  0  0  0  0  0  0  0  0  0  0
   -3.1521    6.0287   -0.1856 O   0  0  0  0  0  0  0  0  0  0  0  0
   -4.0755    5.1005   -0.4507 C   0  0  0  0  0  0  0  0  0  0  0  0
   -3.8753    3.9340   -0.6732 O   0  0  0  0  0  0  0  0  0  0  0  0
   -5.4840    5.7330   -0.4243 C   0  0  0  0  0  0  0  0  0  0  0  0
   -6.4018    4.8239   -0.7574 F   0  0  0  0  0  0  0  0  0  0  0  0
   -5.7577    6.1944    0.8082 F   0  0  0  0  0  0  0  0  0  0  0  0
   -5.5549    6.7590   -1.2883 F   0  0  0  0  0  0  0  0  0  0  0  0
  1 11  2  0  0  0  0
  1  4  1  0  0  0  0
  2  1  1  0  0  0  0
  3  2  1  0  0  0  0
  4  5  2  0  0  0  0
  5  6  1  0  0  0  0
  5 13  1  0  0  0  0
  6  7  1  0  0  0  0
  7  9  2  0  0  0  0
  7  8  2  0  0  0  0
 10 14  1  0  0  0  0
 10  6  2  0  0  0  0
 11 10  1  0  0  0  0
 12 16  1  0  0  0  0
 15 11  1  0  0  0  0
 17 19  1  0  0  0  0
 17 16  1  0  0  0  0
 18 17  2  0  0  0  0
 19 21  1  0  0  0  0
 20 19  1  0  0  0  0
 22 19  1  0  0  0  0
M  RAD  3   2   2   3   3   4   2
M  END
