Coordinates from ORCA-job 4-NO2PhN2+~CF3COO-_B3LYPG-6-31G_dp-CH-Scan-d09-49-n800
 OpenBabel11261919433D

 22 21  0  0  0  0  0  0  0  0999 V2000
   -1.2281    0.4003   -0.4250 C   0  0  0  0  0  0  0  0  0  0  0  0
   -2.5738    0.6434   -0.7535 N   0  0  0  0  0  0  0  0  0  0  0  0
   -3.6320    0.8996   -1.0001 N   0  0  0  0  0  0  0  0  0  0  0  0
   -0.5537    1.5595   -0.0363 C   0  0  0  0  0  0  0  0  0  0  0  0
    0.8002    1.2388    0.2838 C   0  0  0  0  0  0  0  0  0  0  0  0
    1.2927   -0.0548    0.1985 C   0  0  0  0  0  0  0  0  0  0  0  0
    2.7132   -0.3165    0.5524 N   0  0  0  0  0  0  0  0  0  0  0  0
    3.3977    0.6382    0.9076 O   0  0  0  0  0  0  0  0  0  0  0  0
    3.1147   -1.4768    0.4665 O   0  0  0  0  0  0  0  0  0  0  0  0
    0.5232   -1.1671   -0.2087 C   0  0  0  0  0  0  0  0  0  0  0  0
   -0.7939   -0.9476   -0.5382 C   0  0  0  0  0  0  0  0  0  0  0  0
   -2.2733    4.8976    0.1273 H   0  0  0  0  0  0  0  0  0  0  0  0
    1.4876    2.0143    0.6091 H   0  0  0  0  0  0  0  0  0  0  0  0
    0.9773   -2.1480   -0.2521 H   0  0  0  0  0  0  0  0  0  0  0  0
   -1.4481   -1.7524   -0.8607 H   0  0  0  0  0  0  0  0  0  0  0  0
   -2.9953    5.5408    0.0195 O   0  0  0  0  0  0  0  0  0  0  0  0
   -4.0676    4.8897   -0.4348 C   0  0  0  0  0  0  0  0  0  0  0  0
   -4.1476    3.7118   -0.6762 O   0  0  0  0  0  0  0  0  0  0  0  0
   -5.2448    5.8734   -0.6129 C   0  0  0  0  0  0  0  0  0  0  0  0
   -6.3026    5.2392   -1.1219 F   0  0  0  0  0  0  0  0  0  0  0  0
   -5.5865    6.4026    0.5747 F   0  0  0  0  0  0  0  0  0  0  0  0
   -4.8989    6.8733   -1.4407 F   0  0  0  0  0  0  0  0  0  0  0  0
  1  4  1  0  0  0  0
  2  1  1  0  0  0  0
  3  2  1  0  0  0  0
  4  5  2  0  0  0  0
  5 13  1  0  0  0  0
  6  5  1  0  0  0  0
  6  7  1  0  0  0  0
  7  8  2  0  0  0  0
  9  7  2  0  0  0  0
 10  6  2  0  0  0  0
 11  1  2  0  0  0  0
 11 10  1  0  0  0  0
 14 10  1  0  0  0  0
 15 11  1  0  0  0  0
 16 12  1  0  0  0  0
 17 16  1  0  0  0  0
 18 17  2  0  0  0  0
 19 17  1  0  0  0  0
 19 21  1  0  0  0  0
 20 19  1  0  0  0  0
 22 19  1  0  0  0  0
M  RAD  3   2   2   3   3   4   2
M  END
