Coordinates from ORCA-job 4-NO2PhN2+~CF3COO-_B3LYPG-6-31G_dp-CH-Scan-d09-49-n800
 OpenBabel11261919433D

 22 21  0  0  0  0  0  0  0  0999 V2000
   -1.3667    0.4183   -0.4379 C   0  0  0  0  0  0  0  0  0  0  0  0
   -2.7211    0.5707   -0.7738 N   0  0  0  0  0  0  0  0  0  0  0  0
   -3.7924    0.7497   -1.0292 N   0  0  0  0  0  0  0  0  0  0  0  0
   -0.7624    1.6128   -0.0356 C   0  0  0  0  0  0  0  0  0  0  0  0
    0.6051    1.3792    0.2916 C   0  0  0  0  0  0  0  0  0  0  0  0
    1.1792    0.1201    0.1982 C   0  0  0  0  0  0  0  0  0  0  0  0
    2.6121   -0.0527    0.5572 N   0  0  0  0  0  0  0  0  0  0  0  0
    3.2304    0.9403    0.9276 O   0  0  0  0  0  0  0  0  0  0  0  0
    3.0875   -1.1833    0.4595 O   0  0  0  0  0  0  0  0  0  0  0  0
    0.4843   -1.0341   -0.2220 C   0  0  0  0  0  0  0  0  0  0  0  0
   -0.8428   -0.8964   -0.5568 C   0  0  0  0  0  0  0  0  0  0  0  0
   -2.2073    4.2660    0.0600 H   0  0  0  0  0  0  0  0  0  0  0  0
    1.2383    2.1947    0.6277 H   0  0  0  0  0  0  0  0  0  0  0  0
    0.9998   -1.9839   -0.2711 H   0  0  0  0  0  0  0  0  0  0  0  0
   -1.4421   -1.7390   -0.8886 H   0  0  0  0  0  0  0  0  0  0  0  0
   -2.8025    5.0381    0.0097 O   0  0  0  0  0  0  0  0  0  0  0  0
   -3.9804    4.6332   -0.4556 C   0  0  0  0  0  0  0  0  0  0  0  0
   -4.2912    3.5103   -0.7696 O   0  0  0  0  0  0  0  0  0  0  0  0
   -4.9507    5.8309   -0.5559 C   0  0  0  0  0  0  0  0  0  0  0  0
   -6.1476    5.4225   -0.9830 F   0  0  0  0  0  0  0  0  0  0  0  0
   -5.0970    6.4172    0.6447 F   0  0  0  0  0  0  0  0  0  0  0  0
   -4.4721    6.7444   -1.4188 F   0  0  0  0  0  0  0  0  0  0  0  0
  1  4  1  0  0  0  0
  2  1  1  0  0  0  0
  3  2  1  0  0  0  0
  4  5  2  0  0  0  0
  5 13  1  0  0  0  0
  6  5  1  0  0  0  0
  6  7  1  0  0  0  0
  7  8  2  0  0  0  0
  9  7  2  0  0  0  0
 10  6  2  0  0  0  0
 11  1  2  0  0  0  0
 11 10  1  0  0  0  0
 14 10  1  0  0  0  0
 15 11  1  0  0  0  0
 16 12  1  0  0  0  0
 17 16  1  0  0  0  0
 18 17  2  0  0  0  0
 19 17  1  0  0  0  0
 19 21  1  0  0  0  0
 20 19  1  0  0  0  0
 22 19  1  0  0  0  0
M  RAD  3   2   2   3   3   4   2
M  END
