Coordinates from ORCA-job 4-NO2PhN2+~CF3COO-_B3LYPG-6-31G_dp-CH-Scan-d09-49-n800
 OpenBabel11261919433D

 22 21  0  0  0  0  0  0  0  0999 V2000
   -1.4080    0.4310   -0.4450 C   0  0  0  0  0  0  0  0  0  0  0  0
   -2.7628    0.5603   -0.7852 N   0  0  0  0  0  0  0  0  0  0  0  0
   -3.8366    0.7189   -1.0427 N   0  0  0  0  0  0  0  0  0  0  0  0
   -0.8185    1.6349   -0.0474 C   0  0  0  0  0  0  0  0  0  0  0  0
    0.5509    1.4229    0.2832 C   0  0  0  0  0  0  0  0  0  0  0  0
    1.1427    0.1714    0.1969 C   0  0  0  0  0  0  0  0  0  0  0  0
    2.5775    0.0207    0.5583 N   0  0  0  0  0  0  0  0  0  0  0  0
    3.1809    1.0241    0.9249 O   0  0  0  0  0  0  0  0  0  0  0  0
    3.0684   -1.1037    0.4667 O   0  0  0  0  0  0  0  0  0  0  0  0
    0.4643   -0.9939   -0.2182 C   0  0  0  0  0  0  0  0  0  0  0  0
   -0.8643   -0.8761   -0.5555 C   0  0  0  0  0  0  0  0  0  0  0  0
   -2.1803    4.1115    0.0323 H   0  0  0  0  0  0  0  0  0  0  0  0
    1.1716    2.2492    0.6161 H   0  0  0  0  0  0  0  0  0  0  0  0
    0.9927   -1.9369   -0.2619 H   0  0  0  0  0  0  0  0  0  0  0  0
   -1.4511   -1.7287   -0.8839 H   0  0  0  0  0  0  0  0  0  0  0  0
   -2.7463    4.9086   -0.0007 O   0  0  0  0  0  0  0  0  0  0  0  0
   -3.9415    4.5617   -0.4626 C   0  0  0  0  0  0  0  0  0  0  0  0
   -4.3045    3.4583   -0.7936 O   0  0  0  0  0  0  0  0  0  0  0  0
   -4.8632    5.7992   -0.5349 C   0  0  0  0  0  0  0  0  0  0  0  0
   -6.0778    5.4477   -0.9634 F   0  0  0  0  0  0  0  0  0  0  0  0
   -4.9806    6.3678    0.6775 F   0  0  0  0  0  0  0  0  0  0  0  0
   -4.3530    6.7100   -1.3828 F   0  0  0  0  0  0  0  0  0  0  0  0
  1  4  1  0  0  0  0
  2  1  1  0  0  0  0
  3  2  1  0  0  0  0
  4  5  2  0  0  0  0
  5 13  1  0  0  0  0
  6  5  1  0  0  0  0
  6  7  1  0  0  0  0
  7  8  2  0  0  0  0
  9  7  2  0  0  0  0
 10  6  2  0  0  0  0
 11  1  2  0  0  0  0
 11 10  1  0  0  0  0
 14 10  1  0  0  0  0
 15 11  1  0  0  0  0
 16 12  1  0  0  0  0
 17 16  1  0  0  0  0
 18 17  2  0  0  0  0
 19 17  1  0  0  0  0
 19 21  1  0  0  0  0
 20 19  1  0  0  0  0
 22 19  1  0  0  0  0
M  RAD  3   2   2   3   3   4   2
M  END
