Coordinates from ORCA-job 4-NO2PhN2+~CF3COO-_B3LYPG-6-31G_dp-CH-Scan-d09-49-n800
 OpenBabel11261919433D

 22 21  0  0  0  0  0  0  0  0999 V2000
   -1.5779    0.4725   -0.4638 C   0  0  0  0  0  0  0  0  0  0  0  0
   -2.9345    0.5086   -0.8099 N   0  0  0  0  0  0  0  0  0  0  0  0
   -4.0130    0.6096   -1.0726 N   0  0  0  0  0  0  0  0  0  0  0  0
   -1.0533    1.7122   -0.0811 C   0  0  0  0  0  0  0  0  0  0  0  0
    0.3227    1.5934    0.2532 C   0  0  0  0  0  0  0  0  0  0  0  0
    0.9905    0.3790    0.1849 C   0  0  0  0  0  0  0  0  0  0  0  0
    2.4318    0.3239    0.5473 N   0  0  0  0  0  0  0  0  0  0  0  0
    2.9693    1.3684    0.8996 O   0  0  0  0  0  0  0  0  0  0  0  0
    2.9908   -0.7690    0.4699 O   0  0  0  0  0  0  0  0  0  0  0  0
    0.3841   -0.8288   -0.2128 C   0  0  0  0  0  0  0  0  0  0  0  0
   -0.9497   -0.7962   -0.5522 C   0  0  0  0  0  0  0  0  0  0  0  0
   -2.0908    3.5102   -0.0295 H   0  0  0  0  0  0  0  0  0  0  0  0
    0.8875    2.4632    0.5736 H   0  0  0  0  0  0  0  0  0  0  0  0
    0.9673   -1.7395   -0.2435 H   0  0  0  0  0  0  0  0  0  0  0  0
   -1.4824   -1.6877   -0.8684 H   0  0  0  0  0  0  0  0  0  0  0  0
   -2.5546    4.4013   -0.0102 O   0  0  0  0  0  0  0  0  0  0  0  0
   -3.7799    4.2835   -0.4744 C   0  0  0  0  0  0  0  0  0  0  0  0
   -4.3346    3.2781   -0.8666 O   0  0  0  0  0  0  0  0  0  0  0  0
   -4.4941    5.6546   -0.4689 C   0  0  0  0  0  0  0  0  0  0  0  0
   -5.7440    5.5371   -0.9276 F   0  0  0  0  0  0  0  0  0  0  0  0
   -4.5419    6.1548    0.7794 F   0  0  0  0  0  0  0  0  0  0  0  0
   -3.8329    6.5302   -1.2481 F   0  0  0  0  0  0  0  0  0  0  0  0
  1  4  1  0  0  0  0
  2  1  1  0  0  0  0
  3  2  1  0  0  0  0
  4  5  2  0  0  0  0
  5 13  1  0  0  0  0
  6  5  1  0  0  0  0
  6  7  1  0  0  0  0
  7  8  2  0  0  0  0
  9  7  2  0  0  0  0
 10  6  2  0  0  0  0
 11  1  2  0  0  0  0
 11 10  1  0  0  0  0
 12 16  1  0  0  0  0
 14 10  1  0  0  0  0
 15 11  1  0  0  0  0
 17 19  1  0  0  0  0
 17 16  1  0  0  0  0
 18 17  2  0  0  0  0
 19 21  1  0  0  0  0
 20 19  1  0  0  0  0
 22 19  1  0  0  0  0
M  RAD  3   2   2   3   3   4   2
M  END
