Coordinates from ORCA-job 4-NO2PhN2+~CF3COO-_B3LYPG-6-31G_dp-CH-Scan-d09-49-n800
 OpenBabel11261919433D

 22 22  0  0  0  0  0  0  0  0999 V2000
   -1.6707    0.7135   -0.3128 C   0  0  0  0  0  0  0  0  0  0  0  0
   -3.0546    0.6592   -0.5789 N   0  0  0  0  0  0  0  0  0  0  0  0
   -3.9890    1.3631   -0.6975 N   0  0  0  0  0  0  0  0  0  0  0  0
   -0.9422    1.8986   -0.1067 C   0  0  0  0  0  0  0  0  0  0  0  0
    0.4232    1.8163    0.1332 C   0  0  0  0  0  0  0  0  0  0  0  0
    1.0285    0.5606    0.1674 C   0  0  0  0  0  0  0  0  0  0  0  0
    2.4839    0.4814    0.4276 N   0  0  0  0  0  0  0  0  0  0  0  0
    3.0836    1.5386    0.5991 O   0  0  0  0  0  0  0  0  0  0  0  0
    2.9898   -0.6373    0.4539 O   0  0  0  0  0  0  0  0  0  0  0  0
    0.3229   -0.6237   -0.0334 C   0  0  0  0  0  0  0  0  0  0  0  0
   -1.0418   -0.5420   -0.2786 C   0  0  0  0  0  0  0  0  0  0  0  0
   -1.5446    3.0052   -0.1447 H   0  0  0  0  0  0  0  0  0  0  0  0
    1.0229    2.7026    0.2961 H   0  0  0  0  0  0  0  0  0  0  0  0
    0.8434   -1.5720    0.0027 H   0  0  0  0  0  0  0  0  0  0  0  0
   -1.6350   -1.4337   -0.4460 H   0  0  0  0  0  0  0  0  0  0  0  0
   -3.5806    3.0301   -0.3777 O   0  0  0  0  0  0  0  0  0  0  0  0
   -4.4694    3.8565   -0.8971 C   0  0  0  0  0  0  0  0  0  0  0  0
   -5.4048    3.6212   -1.6223 O   0  0  0  0  0  0  0  0  0  0  0  0
   -4.1533    5.3021   -0.4174 C   0  0  0  0  0  0  0  0  0  0  0  0
   -4.8292    6.2024   -1.1338 F   0  0  0  0  0  0  0  0  0  0  0  0
   -4.4895    5.4449    0.8790 F   0  0  0  0  0  0  0  0  0  0  0  0
   -2.8329    5.5715   -0.5338 F   0  0  0  0  0  0  0  0  0  0  0  0
  1 11  2  0  0  0  0
  1  4  1  0  0  0  0
  2  1  1  0  0  0  0
  3  2  1  0  0  0  0
  3 16  1  0  0  0  0
  4  5  2  0  0  0  0
  5  6  1  0  0  0  0
  5 13  1  0  0  0  0
  6  7  1  0  0  0  0
  7  9  2  0  0  0  0
  7  8  2  0  0  0  0
 10 14  1  0  0  0  0
 10  6  2  0  0  0  0
 11 10  1  0  0  0  0
 12  4  1  0  0  0  0
 15 11  1  0  0  0  0
 17 19  1  0  0  0  0
 17 16  1  0  0  0  0
 18 17  2  0  0  0  0
 19 21  1  0  0  0  0
 20 19  1  0  0  0  0
 22 19  1  0  0  0  0
M  RAD  2   2   2   3   2
M  END
