Coordinates from ORCA-job 4-NO2PhN2+~CF3COO-_B3LYPG-6-31G_dp-CH-Scan-d09-49-n800
 OpenBabel11261919433D

 22 21  0  0  0  0  0  0  0  0999 V2000
   -1.5132    0.4535   -0.4568 C   0  0  0  0  0  0  0  0  0  0  0  0
   -2.8697    0.5232   -0.8010 N   0  0  0  0  0  0  0  0  0  0  0  0
   -3.9473    0.6408   -1.0621 N   0  0  0  0  0  0  0  0  0  0  0  0
   -0.9653    1.6812   -0.0696 C   0  0  0  0  0  0  0  0  0  0  0  0
    0.4091    1.5289    0.2639 C   0  0  0  0  0  0  0  0  0  0  0  0
    1.0497    0.3006    0.1898 C   0  0  0  0  0  0  0  0  0  0  0  0
    2.4894    0.2111    0.5521 N   0  0  0  0  0  0  0  0  0  0  0  0
    3.0512    1.2415    0.9088 O   0  0  0  0  0  0  0  0  0  0  0  0
    3.0241   -0.8937    0.4702 O   0  0  0  0  0  0  0  0  0  0  0  0
    0.4172   -0.8928   -0.2135 C   0  0  0  0  0  0  0  0  0  0  0  0
   -0.9153   -0.8300   -0.5524 C   0  0  0  0  0  0  0  0  0  0  0  0
   -2.1319    3.7282   -0.0097 H   0  0  0  0  0  0  0  0  0  0  0  0
    0.9946    2.3834    0.5885 H   0  0  0  0  0  0  0  0  0  0  0  0
    0.9811   -1.8155   -0.2482 H   0  0  0  0  0  0  0  0  0  0  0  0
   -1.4675   -1.7083   -0.8724 H   0  0  0  0  0  0  0  0  0  0  0  0
   -2.6267    4.5848   -0.0076 O   0  0  0  0  0  0  0  0  0  0  0  0
   -3.8473    4.3880   -0.4735 C   0  0  0  0  0  0  0  0  0  0  0  0
   -4.3363    3.3455   -0.8477 O   0  0  0  0  0  0  0  0  0  0  0  0
   -4.6337    5.7181   -0.4920 C   0  0  0  0  0  0  0  0  0  0  0  0
   -5.8760    5.5211   -0.9421 F   0  0  0  0  0  0  0  0  0  0  0  0
   -4.7029    6.2393    0.7459 F   0  0  0  0  0  0  0  0  0  0  0  0
   -4.0229    6.6102   -1.2924 F   0  0  0  0  0  0  0  0  0  0  0  0
  1  4  1  0  0  0  0
  2  1  1  0  0  0  0
  3  2  1  0  0  0  0
  4  5  2  0  0  0  0
  5 13  1  0  0  0  0
  6  5  1  0  0  0  0
  6  7  1  0  0  0  0
  7  8  2  0  0  0  0
  9  7  2  0  0  0  0
 10  6  2  0  0  0  0
 11  1  2  0  0  0  0
 11 10  1  0  0  0  0
 12 16  1  0  0  0  0
 14 10  1  0  0  0  0
 15 11  1  0  0  0  0
 17 16  1  0  0  0  0
 18 17  2  0  0  0  0
 19 17  1  0  0  0  0
 19 21  1  0  0  0  0
 20 19  1  0  0  0  0
 22 19  1  0  0  0  0
M  RAD  3   2   2   3   3   4   2
M  END
