Coordinates from ORCA-job 4-NO2PhN2+~CF3COO-_B3LYPG-6-31G_dp-CH-Scan-d09-49-n800
 OpenBabel11261919433D

 22 21  0  0  0  0  0  0  0  0999 V2000
   -1.6291    0.4848   -0.4654 C   0  0  0  0  0  0  0  0  0  0  0  0
   -2.9868    0.4954   -0.8082 N   0  0  0  0  0  0  0  0  0  0  0  0
   -4.0665    0.5903   -1.0671 N   0  0  0  0  0  0  0  0  0  0  0  0
   -1.1215    1.7333   -0.0880 C   0  0  0  0  0  0  0  0  0  0  0  0
    0.2554    1.6426    0.2438 C   0  0  0  0  0  0  0  0  0  0  0  0
    0.9444    0.4395    0.1790 C   0  0  0  0  0  0  0  0  0  0  0  0
    2.3871    0.4119    0.5390 N   0  0  0  0  0  0  0  0  0  0  0  0
    2.9054    1.4674    0.8867 O   0  0  0  0  0  0  0  0  0  0  0  0
    2.9653   -0.6709    0.4637 O   0  0  0  0  0  0  0  0  0  0  0  0
    0.3583   -0.7791   -0.2126 C   0  0  0  0  0  0  0  0  0  0  0  0
   -0.9772   -0.7710   -0.5493 C   0  0  0  0  0  0  0  0  0  0  0  0
   -2.0534    3.3378   -0.0381 H   0  0  0  0  0  0  0  0  0  0  0  0
    0.8034    2.5247    0.5591 H   0  0  0  0  0  0  0  0  0  0  0  0
    0.9566   -1.6800   -0.2413 H   0  0  0  0  0  0  0  0  0  0  0  0
   -1.4947   -1.6728   -0.8609 H   0  0  0  0  0  0  0  0  0  0  0  0
   -2.5047    4.2623   -0.0025 O   0  0  0  0  0  0  0  0  0  0  0  0
   -3.7231    4.2064   -0.4790 C   0  0  0  0  0  0  0  0  0  0  0  0
   -4.3202    3.2356   -0.9041 O   0  0  0  0  0  0  0  0  0  0  0  0
   -4.3866    5.6034   -0.4520 C   0  0  0  0  0  0  0  0  0  0  0  0
   -5.6332    5.5471   -0.9332 F   0  0  0  0  0  0  0  0  0  0  0  0
   -4.4375    6.0768    0.8074 F   0  0  0  0  0  0  0  0  0  0  0  0
   -3.6810    6.4736   -1.1987 F   0  0  0  0  0  0  0  0  0  0  0  0
  1  4  1  0  0  0  0
  2  1  1  0  0  0  0
  3  2  1  0  0  0  0
  4  5  2  0  0  0  0
  5 13  1  0  0  0  0
  6  5  1  0  0  0  0
  6  7  1  0  0  0  0
  7  8  2  0  0  0  0
  9  7  2  0  0  0  0
 10  6  2  0  0  0  0
 11  1  2  0  0  0  0
 11 10  1  0  0  0  0
 12 16  1  0  0  0  0
 14 10  1  0  0  0  0
 15 11  1  0  0  0  0
 17 19  1  0  0  0  0
 17 16  1  0  0  0  0
 18 17  2  0  0  0  0
 19 21  1  0  0  0  0
 20 19  1  0  0  0  0
 22 19  1  0  0  0  0
M  RAD  3   2   2   3   3   4   2
M  END
