Coordinates from ORCA-job 4-NO2PhN2+~CF3COO-_B3LYPG-6-31G_dp-CH-Scan-d09-49-n800
 OpenBabel11261919433D

 22 21  0  0  0  0  0  0  0  0999 V2000
   -0.7997    1.0512   -1.6045 C   0  0  0  0  0  0  0  0  0  0  0  0
   -1.6810    1.4214   -2.6357 N   0  0  0  0  0  0  0  0  0  0  0  0
   -2.3045    1.7320   -3.5079 N   0  0  0  0  0  0  0  0  0  0  0  0
    0.5304    1.1838   -2.0016 C   0  0  0  0  0  0  0  0  0  0  0  0
    1.3889    0.7791   -0.9343 C   0  0  0  0  0  0  0  0  0  0  0  0
    0.8901    0.3134    0.2734 C   0  0  0  0  0  0  0  0  0  0  0  0
    1.8391   -0.1094    1.3371 N   0  0  0  0  0  0  0  0  0  0  0  0
    3.0385   -0.0796    1.0781 O   0  0  0  0  0  0  0  0  0  0  0  0
    1.3627   -0.4602    2.4170 O   0  0  0  0  0  0  0  0  0  0  0  0
   -0.4874    0.2213    0.5772 C   0  0  0  0  0  0  0  0  0  0  0  0
   -1.3860    0.6072   -0.3902 C   0  0  0  0  0  0  0  0  0  0  0  0
   -1.9902    5.0565   -0.4479 H   0  0  0  0  0  0  0  0  0  0  0  0
    2.4689    0.8242   -1.0488 H   0  0  0  0  0  0  0  0  0  0  0  0
   -0.7993   -0.1404    1.5475 H   0  0  0  0  0  0  0  0  0  0  0  0
   -2.4594    0.5865   -0.2299 H   0  0  0  0  0  0  0  0  0  0  0  0
   -2.8494    5.1985   -0.0143 O   0  0  0  0  0  0  0  0  0  0  0  0
   -3.6233    4.1435   -0.2714 C   0  0  0  0  0  0  0  0  0  0  0  0
   -3.3210    3.1794   -0.9309 O   0  0  0  0  0  0  0  0  0  0  0  0
   -5.0062    4.3200    0.3936 C   0  0  0  0  0  0  0  0  0  0  0  0
   -5.7544    3.2357    0.1847 F   0  0  0  0  0  0  0  0  0  0  0  0
   -4.8666    4.5067    1.7150 F   0  0  0  0  0  0  0  0  0  0  0  0
   -5.6298    5.3885   -0.1279 F   0  0  0  0  0  0  0  0  0  0  0  0
  1 11  1  0  0  0  0
  2  1  1  0  0  0  0
  3  2  1  0  0  0  0
  4  1  2  0  0  0  0
  4  5  1  0  0  0  0
  5  6  2  0  0  0  0
  6 10  1  0  0  0  0
  6  7  1  0  0  0  0
  7  9  2  0  0  0  0
  8  7  2  0  0  0  0
 10 14  1  0  0  0  0
 11 15  1  0  0  0  0
 11 10  2  0  0  0  0
 12 16  1  0  0  0  0
 13  5  1  0  0  0  0
 17 16  1  0  0  0  0
 17 19  1  0  0  0  0
 18 17  2  0  0  0  0
 19 21  1  0  0  0  0
 20 19  1  0  0  0  0
 22 19  1  0  0  0  0
M  RAD  3   2   2   3   3   4   2
M  END
