Coordinates from ORCA-job 4-NO2PhN2+~CF3COO-_B3LYPG-6-31G_dp-CH-Scan-d09-49-n800
 OpenBabel11261919433D

 22 21  0  0  0  0  0  0  0  0999 V2000
   -1.1179    0.4304   -0.5003 C   0  0  0  0  0  0  0  0  0  0  0  0
   -2.4332    0.7538   -0.8825 N   0  0  0  0  0  0  0  0  0  0  0  0
   -3.4607    1.0765   -1.1774 N   0  0  0  0  0  0  0  0  0  0  0  0
   -0.3742    1.5588   -0.1520 C   0  0  0  0  0  0  0  0  0  0  0  0
    0.9450    1.1604    0.2241 C   0  0  0  0  0  0  0  0  0  0  0  0
    1.3444   -0.1675    0.2226 C   0  0  0  0  0  0  0  0  0  0  0  0
    2.7320   -0.5100    0.6331 N   0  0  0  0  0  0  0  0  0  0  0  0
    3.4723    0.4109    0.9656 O   0  0  0  0  0  0  0  0  0  0  0  0
    3.0527   -1.6982    0.6142 O   0  0  0  0  0  0  0  0  0  0  0  0
    0.5076   -1.2433   -0.1499 C   0  0  0  0  0  0  0  0  0  0  0  0
   -0.7807   -0.9494   -0.5313 C   0  0  0  0  0  0  0  0  0  0  0  0
   -2.2922    5.4095   -0.0103 H   0  0  0  0  0  0  0  0  0  0  0  0
    1.6783    1.9023    0.5275 H   0  0  0  0  0  0  0  0  0  0  0  0
    0.8908   -2.2546   -0.1281 H   0  0  0  0  0  0  0  0  0  0  0  0
   -1.4820   -1.7220   -0.8331 H   0  0  0  0  0  0  0  0  0  0  0  0
   -3.1228    5.9118   -0.0749 O   0  0  0  0  0  0  0  0  0  0  0  0
   -4.0888    5.0644   -0.4390 C   0  0  0  0  0  0  0  0  0  0  0  0
   -3.9652    3.8864   -0.6569 O   0  0  0  0  0  0  0  0  0  0  0  0
   -5.4350    5.8135   -0.5458 C   0  0  0  0  0  0  0  0  0  0  0  0
   -6.3974    4.9763   -0.9369 F   0  0  0  0  0  0  0  0  0  0  0  0
   -5.7708    6.3343    0.6467 F   0  0  0  0  0  0  0  0  0  0  0  0
   -5.3417    6.8149   -1.4369 F   0  0  0  0  0  0  0  0  0  0  0  0
  1  4  1  0  0  0  0
  2  1  1  0  0  0  0
  3  2  1  0  0  0  0
  4  5  2  0  0  0  0
  5 13  1  0  0  0  0
  6  5  1  0  0  0  0
  6  7  1  0  0  0  0
  7  8  2  0  0  0  0
  9  7  2  0  0  0  0
 10 14  1  0  0  0  0
 10  6  2  0  0  0  0
 11  1  2  0  0  0  0
 11 10  1  0  0  0  0
 15 11  1  0  0  0  0
 16 12  1  0  0  0  0
 17 16  1  0  0  0  0
 18 17  2  0  0  0  0
 19 17  1  0  0  0  0
 19 21  1  0  0  0  0
 20 19  1  0  0  0  0
 22 19  1  0  0  0  0
M  RAD  3   2   2   3   3   4   2
M  END
