Coordinates from ORCA-job 4-NO2PhN2+~CF3COO-_B3LYPG-6-31G_dp-CH-Scan-d09-49-n800
 OpenBabel11261919433D

 22 21  0  0  0  0  0  0  0  0999 V2000
   -1.4164    0.4340   -0.4467 C   0  0  0  0  0  0  0  0  0  0  0  0
   -2.7712    0.5587   -0.7879 N   0  0  0  0  0  0  0  0  0  0  0  0
   -3.8456    0.7129   -1.0452 N   0  0  0  0  0  0  0  0  0  0  0  0
   -0.8297    1.6397   -0.0505 C   0  0  0  0  0  0  0  0  0  0  0  0
    0.5400    1.4321    0.2809 C   0  0  0  0  0  0  0  0  0  0  0  0
    1.1352    0.1821    0.1965 C   0  0  0  0  0  0  0  0  0  0  0  0
    2.5703    0.0358    0.5584 N   0  0  0  0  0  0  0  0  0  0  0  0
    3.1705    1.0411    0.9249 O   0  0  0  0  0  0  0  0  0  0  0  0
    3.0639   -1.0876    0.4693 O   0  0  0  0  0  0  0  0  0  0  0  0
    0.4600   -0.9855   -0.2172 C   0  0  0  0  0  0  0  0  0  0  0  0
   -0.8688   -0.8717   -0.5552 C   0  0  0  0  0  0  0  0  0  0  0  0
   -2.1746    4.0800    0.0257 H   0  0  0  0  0  0  0  0  0  0  0  0
    1.1582    2.2607    0.6128 H   0  0  0  0  0  0  0  0  0  0  0  0
    0.9908   -1.9272   -0.2595 H   0  0  0  0  0  0  0  0  0  0  0  0
   -1.4532   -1.7263   -0.8826 H   0  0  0  0  0  0  0  0  0  0  0  0
   -2.7347    4.8821   -0.0037 O   0  0  0  0  0  0  0  0  0  0  0  0
   -3.9334    4.5469   -0.4642 C   0  0  0  0  0  0  0  0  0  0  0  0
   -4.3070    3.4479   -0.7983 O   0  0  0  0  0  0  0  0  0  0  0  0
   -4.8452    5.7922   -0.5303 C   0  0  0  0  0  0  0  0  0  0  0  0
   -6.0629    5.4524   -0.9594 F   0  0  0  0  0  0  0  0  0  0  0  0
   -4.9573    6.3561    0.6848 F   0  0  0  0  0  0  0  0  0  0  0  0
   -4.3284    6.7029   -1.3743 F   0  0  0  0  0  0  0  0  0  0  0  0
  1  4  1  0  0  0  0
  2  1  1  0  0  0  0
  3  2  1  0  0  0  0
  4  5  2  0  0  0  0
  5 13  1  0  0  0  0
  6  5  1  0  0  0  0
  6  7  1  0  0  0  0
  7  8  2  0  0  0  0
  9  7  2  0  0  0  0
 10  6  2  0  0  0  0
 11  1  2  0  0  0  0
 11 10  1  0  0  0  0
 14 10  1  0  0  0  0
 15 11  1  0  0  0  0
 16 12  1  0  0  0  0
 17 16  1  0  0  0  0
 18 17  2  0  0  0  0
 19 17  1  0  0  0  0
 19 21  1  0  0  0  0
 20 19  1  0  0  0  0
 22 19  1  0  0  0  0
M  RAD  3   2   2   3   3   4   2
M  END
