Coordinates from ORCA-job 4-NO2PhN2+~CF3COO-_B3LYPG-6-31G_dp-CH-Scan-d09-49-n800
 OpenBabel11261919433D

 22 21  0  0  0  0  0  0  0  0999 V2000
   -1.2615    0.4010   -0.4224 C   0  0  0  0  0  0  0  0  0  0  0  0
   -2.6110    0.6213   -0.7493 N   0  0  0  0  0  0  0  0  0  0  0  0
   -3.6736    0.8580   -0.9957 N   0  0  0  0  0  0  0  0  0  0  0  0
   -0.6049    1.5695   -0.0296 C   0  0  0  0  0  0  0  0  0  0  0  0
    0.7540    1.2708    0.2882 C   0  0  0  0  0  0  0  0  0  0  0  0
    1.2681   -0.0140    0.1969 C   0  0  0  0  0  0  0  0  0  0  0  0
    2.6934   -0.2530    0.5478 N   0  0  0  0  0  0  0  0  0  0  0  0
    3.3616    0.7116    0.9073 O   0  0  0  0  0  0  0  0  0  0  0  0
    3.1142   -1.4058    0.4562 O   0  0  0  0  0  0  0  0  0  0  0  0
    0.5170   -1.1372   -0.2138 C   0  0  0  0  0  0  0  0  0  0  0  0
   -0.8041   -0.9386   -0.5407 C   0  0  0  0  0  0  0  0  0  0  0  0
   -2.2576    4.7397    0.1196 H   0  0  0  0  0  0  0  0  0  0  0  0
    1.4284    2.0564    0.6163 H   0  0  0  0  0  0  0  0  0  0  0  0
    0.9874   -2.1102   -0.2617 H   0  0  0  0  0  0  0  0  0  0  0  0
   -1.4450   -1.7531   -0.8655 H   0  0  0  0  0  0  0  0  0  0  0  0
   -2.9471    5.4194    0.0203 O   0  0  0  0  0  0  0  0  0  0  0  0
   -4.0505    4.8286   -0.4397 C   0  0  0  0  0  0  0  0  0  0  0  0
   -4.1903    3.6591   -0.6957 O   0  0  0  0  0  0  0  0  0  0  0  0
   -5.1775    5.8718   -0.6053 C   0  0  0  0  0  0  0  0  0  0  0  0
   -6.2682    5.2955   -1.1138 F   0  0  0  0  0  0  0  0  0  0  0  0
   -5.4872    6.4097    0.5871 F   0  0  0  0  0  0  0  0  0  0  0  0
   -4.7849    6.8586   -1.4281 F   0  0  0  0  0  0  0  0  0  0  0  0
  1  4  1  0  0  0  0
  2  1  1  0  0  0  0
  3  2  1  0  0  0  0
  4  5  2  0  0  0  0
  5 13  1  0  0  0  0
  6  5  1  0  0  0  0
  6  7  1  0  0  0  0
  7  8  2  0  0  0  0
  9  7  2  0  0  0  0
 10  6  2  0  0  0  0
 11  1  2  0  0  0  0
 11 10  1  0  0  0  0
 14 10  1  0  0  0  0
 15 11  1  0  0  0  0
 16 12  1  0  0  0  0
 17 16  1  0  0  0  0
 18 17  2  0  0  0  0
 19 17  1  0  0  0  0
 19 21  1  0  0  0  0
 20 19  1  0  0  0  0
 22 19  1  0  0  0  0
M  RAD  3   2   2   3   3   4   2
M  END
