Coordinates from ORCA-job 4-NO2PhN2+~CF3COO-_B3LYPG-6-31G_dp-CH-Scan-d09-49-n800
 OpenBabel11261919433D

 22 21  0  0  0  0  0  0  0  0999 V2000
   -1.1234    0.4273   -0.4922 C   0  0  0  0  0  0  0  0  0  0  0  0
   -2.4413    0.7469   -0.8686 N   0  0  0  0  0  0  0  0  0  0  0  0
   -3.4715    1.0665   -1.1568 N   0  0  0  0  0  0  0  0  0  0  0  0
   -0.3847    1.5568   -0.1368 C   0  0  0  0  0  0  0  0  0  0  0  0
    0.9372    1.1623    0.2337 C   0  0  0  0  0  0  0  0  0  0  0  0
    1.3434   -0.1635    0.2213 C   0  0  0  0  0  0  0  0  0  0  0  0
    2.7335   -0.5020    0.6266 N   0  0  0  0  0  0  0  0  0  0  0  0
    3.4699    0.4201    0.9643 O   0  0  0  0  0  0  0  0  0  0  0  0
    3.0600   -1.6885    0.5987 O   0  0  0  0  0  0  0  0  0  0  0  0
    0.5114   -1.2406   -0.1579 C   0  0  0  0  0  0  0  0  0  0  0  0
   -0.7792   -0.9505   -0.5345 C   0  0  0  0  0  0  0  0  0  0  0  0
   -2.2919    5.3852   -0.0020 H   0  0  0  0  0  0  0  0  0  0  0  0
    1.6672    1.9056    0.5415 H   0  0  0  0  0  0  0  0  0  0  0  0
    0.8998   -2.2501   -0.1447 H   0  0  0  0  0  0  0  0  0  0  0  0
   -1.4772   -1.7243   -0.8407 H   0  0  0  0  0  0  0  0  0  0  0  0
   -3.1175    5.8953   -0.0692 O   0  0  0  0  0  0  0  0  0  0  0  0
   -4.0897    5.0576   -0.4393 C   0  0  0  0  0  0  0  0  0  0  0  0
   -3.9762    3.8789   -0.6588 O   0  0  0  0  0  0  0  0  0  0  0  0
   -5.4280    5.8198   -0.5524 C   0  0  0  0  0  0  0  0  0  0  0  0
   -6.3983    4.9902   -0.9399 F   0  0  0  0  0  0  0  0  0  0  0  0
   -5.7604    6.3519    0.6359 F   0  0  0  0  0  0  0  0  0  0  0  0
   -5.3225    6.8144   -1.4499 F   0  0  0  0  0  0  0  0  0  0  0  0
  1  4  1  0  0  0  0
  2  1  1  0  0  0  0
  3  2  1  0  0  0  0
  4  5  2  0  0  0  0
  5 13  1  0  0  0  0
  6  5  1  0  0  0  0
  6  7  1  0  0  0  0
  7  8  2  0  0  0  0
  9  7  2  0  0  0  0
 10 14  1  0  0  0  0
 10  6  2  0  0  0  0
 11  1  2  0  0  0  0
 11 10  1  0  0  0  0
 15 11  1  0  0  0  0
 16 12  1  0  0  0  0
 17 16  1  0  0  0  0
 18 17  2  0  0  0  0
 19 17  1  0  0  0  0
 19 21  1  0  0  0  0
 20 19  1  0  0  0  0
 22 19  1  0  0  0  0
M  RAD  3   2   2   3   3   4   2
M  END
