Coordinates from ORCA-job 4-NO2PhN2+~CF3COO-_B3LYPG-6-31G_dp-CH-Scan-d09-49-n800
 OpenBabel11261919433D

 22 21  0  0  0  0  0  0  0  0999 V2000
   -1.3529    0.4154   -0.4369 C   0  0  0  0  0  0  0  0  0  0  0  0
   -2.7066    0.5763   -0.7730 N   0  0  0  0  0  0  0  0  0  0  0  0
   -3.7781    0.7610   -1.0237 N   0  0  0  0  0  0  0  0  0  0  0  0
   -0.7432    1.6064   -0.0333 C   0  0  0  0  0  0  0  0  0  0  0  0
    0.6232    1.3652    0.2936 C   0  0  0  0  0  0  0  0  0  0  0  0
    1.1908    0.1033    0.1992 C   0  0  0  0  0  0  0  0  0  0  0  0
    2.6227   -0.0774    0.5585 N   0  0  0  0  0  0  0  0  0  0  0  0
    3.2465    0.9122    0.9286 O   0  0  0  0  0  0  0  0  0  0  0  0
    3.0926   -1.2102    0.4586 O   0  0  0  0  0  0  0  0  0  0  0  0
    0.4899   -1.0470   -0.2223 C   0  0  0  0  0  0  0  0  0  0  0  0
   -0.8364   -0.9021   -0.5573 C   0  0  0  0  0  0  0  0  0  0  0  0
   -2.2149    4.3190    0.0654 H   0  0  0  0  0  0  0  0  0  0  0  0
    1.2608    2.1771    0.6305 H   0  0  0  0  0  0  0  0  0  0  0  0
    1.0006   -1.9994   -0.2722 H   0  0  0  0  0  0  0  0  0  0  0  0
   -1.4400   -1.7411   -0.8902 H   0  0  0  0  0  0  0  0  0  0  0  0
   -2.8199    5.0821    0.0092 O   0  0  0  0  0  0  0  0  0  0  0  0
   -3.9918    4.6564   -0.4538 C   0  0  0  0  0  0  0  0  0  0  0  0
   -4.2856    3.5270   -0.7607 O   0  0  0  0  0  0  0  0  0  0  0  0
   -4.9793    5.8393   -0.5615 C   0  0  0  0  0  0  0  0  0  0  0  0
   -6.1694    5.4112   -0.9883 F   0  0  0  0  0  0  0  0  0  0  0  0
   -5.1359    6.4291    0.6361 F   0  0  0  0  0  0  0  0  0  0  0  0
   -4.5128    6.7554   -1.4281 F   0  0  0  0  0  0  0  0  0  0  0  0
  1  4  1  0  0  0  0
  2  1  1  0  0  0  0
  3  2  1  0  0  0  0
  4  5  2  0  0  0  0
  5 13  1  0  0  0  0
  6  5  1  0  0  0  0
  6  7  1  0  0  0  0
  7  8  2  0  0  0  0
  9  7  2  0  0  0  0
 10  6  2  0  0  0  0
 11  1  2  0  0  0  0
 11 10  1  0  0  0  0
 14 10  1  0  0  0  0
 15 11  1  0  0  0  0
 16 12  1  0  0  0  0
 17 16  1  0  0  0  0
 18 17  2  0  0  0  0
 19 17  1  0  0  0  0
 19 21  1  0  0  0  0
 20 19  1  0  0  0  0
 22 19  1  0  0  0  0
M  RAD  3   2   2   3   3   4   2
M  END
