Coordinates from ORCA-job 4-NO2PhN2+~CF3COO-_B3LYPG-6-31G_dp-CH-Scan-d09-49-n800
 OpenBabel11261919433D

 22 21  0  0  0  0  0  0  0  0999 V2000
   -0.8371    1.0333   -1.6161 C   0  0  0  0  0  0  0  0  0  0  0  0
   -1.7190    1.3776   -2.6559 N   0  0  0  0  0  0  0  0  0  0  0  0
   -2.3477    1.6685   -3.5312 N   0  0  0  0  0  0  0  0  0  0  0  0
    0.4888    1.2773   -1.9724 C   0  0  0  0  0  0  0  0  0  0  0  0
    1.3485    0.8974   -0.8968 C   0  0  0  0  0  0  0  0  0  0  0  0
    0.8561    0.3551    0.2813 C   0  0  0  0  0  0  0  0  0  0  0  0
    1.8076   -0.0337    1.3557 N   0  0  0  0  0  0  0  0  0  0  0  0
    3.0070    0.1032    1.1342 O   0  0  0  0  0  0  0  0  0  0  0  0
    1.3326   -0.4662    2.4062 O   0  0  0  0  0  0  0  0  0  0  0  0
   -0.5177    0.1513    0.5443 C   0  0  0  0  0  0  0  0  0  0  0  0
   -1.4181    0.5043   -0.4339 C   0  0  0  0  0  0  0  0  0  0  0  0
   -1.9021    4.9324   -0.4676 H   0  0  0  0  0  0  0  0  0  0  0  0
    2.4246    1.0244   -0.9808 H   0  0  0  0  0  0  0  0  0  0  0  0
   -0.8261   -0.2660    1.4931 H   0  0  0  0  0  0  0  0  0  0  0  0
   -2.4905    0.3965   -0.3034 H   0  0  0  0  0  0  0  0  0  0  0  0
   -2.7458    5.1153   -0.0190 O   0  0  0  0  0  0  0  0  0  0  0  0
   -3.5799    4.1064   -0.2738 C   0  0  0  0  0  0  0  0  0  0  0  0
   -3.3417    3.1334   -0.9461 O   0  0  0  0  0  0  0  0  0  0  0  0
   -4.9413    4.3535    0.4129 C   0  0  0  0  0  0  0  0  0  0  0  0
   -5.7455    3.3064    0.2225 F   0  0  0  0  0  0  0  0  0  0  0  0
   -4.7720    4.5402    1.7308 F   0  0  0  0  0  0  0  0  0  0  0  0
   -5.5202    5.4486   -0.1055 F   0  0  0  0  0  0  0  0  0  0  0  0
  1 11  1  0  0  0  0
  2  1  1  0  0  0  0
  3  2  1  0  0  0  0
  4  1  2  0  0  0  0
  4  5  1  0  0  0  0
  5  6  2  0  0  0  0
  6 10  1  0  0  0  0
  6  7  1  0  0  0  0
  7  9  2  0  0  0  0
  8  7  2  0  0  0  0
 10 14  1  0  0  0  0
 11 15  1  0  0  0  0
 11 10  2  0  0  0  0
 12 16  1  0  0  0  0
 13  5  1  0  0  0  0
 17 16  1  0  0  0  0
 17 19  1  0  0  0  0
 18 17  2  0  0  0  0
 19 21  1  0  0  0  0
 20 19  1  0  0  0  0
 22 19  1  0  0  0  0
M  RAD  3   2   2   3   3   4   2
M  END
