Coordinates from ORCA-job 4-NO2PhN2+~CF3COO-_B3LYPG-6-31G_dp-CH-Scan-d09-49-n800
 OpenBabel11261919433D

 22 21  0  0  0  0  0  0  0  0999 V2000
   -1.2485    0.4000   -0.4226 C   0  0  0  0  0  0  0  0  0  0  0  0
   -2.5968    0.6291   -0.7492 N   0  0  0  0  0  0  0  0  0  0  0  0
   -3.6585    0.8729   -0.9932 N   0  0  0  0  0  0  0  0  0  0  0  0
   -0.5851    1.5649   -0.0314 C   0  0  0  0  0  0  0  0  0  0  0  0
    0.7723    1.2581    0.2861 C   0  0  0  0  0  0  0  0  0  0  0  0
    1.2784   -0.0299    0.1961 C   0  0  0  0  0  0  0  0  0  0  0  0
    2.7023   -0.2773    0.5469 N   0  0  0  0  0  0  0  0  0  0  0  0
    3.3754    0.6828    0.9093 O   0  0  0  0  0  0  0  0  0  0  0  0
    3.1147   -1.4337    0.4613 O   0  0  0  0  0  0  0  0  0  0  0  0
    0.5202   -1.1490   -0.2131 C   0  0  0  0  0  0  0  0  0  0  0  0
   -0.7997   -0.9426   -0.5399 C   0  0  0  0  0  0  0  0  0  0  0  0
   -2.2650    4.7998    0.1254 H   0  0  0  0  0  0  0  0  0  0  0  0
    1.4518    2.0400    0.6128 H   0  0  0  0  0  0  0  0  0  0  0  0
    0.9847   -2.1248   -0.2600 H   0  0  0  0  0  0  0  0  0  0  0  0
   -1.4457   -1.7535   -0.8637 H   0  0  0  0  0  0  0  0  0  0  0  0
   -2.9662    5.4664    0.0207 O   0  0  0  0  0  0  0  0  0  0  0  0
   -4.0580    4.8525   -0.4376 C   0  0  0  0  0  0  0  0  0  0  0  0
   -4.1754    3.6793   -0.6873 O   0  0  0  0  0  0  0  0  0  0  0  0
   -5.2038    5.8738   -0.6096 C   0  0  0  0  0  0  0  0  0  0  0  0
   -6.2819    5.2759   -1.1201 F   0  0  0  0  0  0  0  0  0  0  0  0
   -5.5274    6.4083    0.5807 F   0  0  0  0  0  0  0  0  0  0  0  0
   -4.8273    6.8661   -1.4333 F   0  0  0  0  0  0  0  0  0  0  0  0
  1  4  1  0  0  0  0
  2  1  1  0  0  0  0
  3  2  1  0  0  0  0
  4  5  2  0  0  0  0
  5 13  1  0  0  0  0
  6  5  1  0  0  0  0
  6  7  1  0  0  0  0
  7  8  2  0  0  0  0
  9  7  2  0  0  0  0
 10  6  2  0  0  0  0
 11  1  2  0  0  0  0
 11 10  1  0  0  0  0
 14 10  1  0  0  0  0
 15 11  1  0  0  0  0
 16 12  1  0  0  0  0
 17 16  1  0  0  0  0
 18 17  2  0  0  0  0
 19 17  1  0  0  0  0
 19 21  1  0  0  0  0
 20 19  1  0  0  0  0
 22 19  1  0  0  0  0
M  RAD  3   2   2   3   3   4   2
M  END
