Coordinates from ORCA-job 4-NO2PhN2+~CF3COO-_B3LYPG-6-31G_dp-CH-Scan-d09-49-n800
 OpenBabel11261919433D

 22 21  0  0  0  0  0  0  0  0999 V2000
   -1.0729    0.4636   -0.5915 C   0  0  0  0  0  0  0  0  0  0  0  0
   -2.3614    0.8165   -1.0350 N   0  0  0  0  0  0  0  0  0  0  0  0
   -3.3632    1.1637   -1.3851 N   0  0  0  0  0  0  0  0  0  0  0  0
   -0.2910    1.5807   -0.2956 C   0  0  0  0  0  0  0  0  0  0  0  0
    0.9994    1.1537    0.1439 C   0  0  0  0  0  0  0  0  0  0  0  0
    1.3401   -0.1868    0.2424 C   0  0  0  0  0  0  0  0  0  0  0  0
    2.6999   -0.5587    0.7148 N   0  0  0  0  0  0  0  0  0  0  0  0
    3.4676    0.3502    1.0166 O   0  0  0  0  0  0  0  0  0  0  0  0
    2.9724   -1.7578    0.7735 O   0  0  0  0  0  0  0  0  0  0  0  0
    0.4675   -1.2493   -0.0834 C   0  0  0  0  0  0  0  0  0  0  0  0
   -0.7958   -0.9281   -0.5223 C   0  0  0  0  0  0  0  0  0  0  0  0
   -2.2808    5.5634   -0.1512 H   0  0  0  0  0  0  0  0  0  0  0  0
    1.7563    1.8832    0.4183 H   0  0  0  0  0  0  0  0  0  0  0  0
    0.8054   -2.2719    0.0168 H   0  0  0  0  0  0  0  0  0  0  0  0
   -1.5216   -1.6891   -0.7943 H   0  0  0  0  0  0  0  0  0  0  0  0
   -3.1451    6.0100   -0.1602 O   0  0  0  0  0  0  0  0  0  0  0  0
   -4.0755    5.0958   -0.4481 C   0  0  0  0  0  0  0  0  0  0  0  0
   -3.8875    3.9264   -0.6658 O   0  0  0  0  0  0  0  0  0  0  0  0
   -5.4748    5.7492   -0.4553 C   0  0  0  0  0  0  0  0  0  0  0  0
   -6.3967    4.8559   -0.8184 F   0  0  0  0  0  0  0  0  0  0  0  0
   -5.7742    6.2071    0.7725 F   0  0  0  0  0  0  0  0  0  0  0  0
   -5.5076    6.7814   -1.3143 F   0  0  0  0  0  0  0  0  0  0  0  0
  1 11  2  0  0  0  0
  1  4  1  0  0  0  0
  2  1  1  0  0  0  0
  3  2  1  0  0  0  0
  4  5  2  0  0  0  0
  5  6  1  0  0  0  0
  5 13  1  0  0  0  0
  6  7  1  0  0  0  0
  7  9  2  0  0  0  0
  7  8  2  0  0  0  0
 10 14  1  0  0  0  0
 10  6  2  0  0  0  0
 11 10  1  0  0  0  0
 15 11  1  0  0  0  0
 16 12  1  0  0  0  0
 17 16  1  0  0  0  0
 18 17  2  0  0  0  0
 19 17  1  0  0  0  0
 19 21  1  0  0  0  0
 20 19  1  0  0  0  0
 22 19  1  0  0  0  0
M  RAD  3   2   2   3   3   4   2
M  END
