Coordinates from ORCA-job 4-NO2PhN2+~CF3COO-_B3LYPG-6-31G_dp-CH-Scan-d09-49-n800
 OpenBabel11261919433D

 22 21  0  0  0  0  0  0  0  0999 V2000
   -0.8147    1.0440   -1.6086 C   0  0  0  0  0  0  0  0  0  0  0  0
   -1.6967    1.4033   -2.6431 N   0  0  0  0  0  0  0  0  0  0  0  0
   -2.3203    1.7084   -3.5172 N   0  0  0  0  0  0  0  0  0  0  0  0
    0.5148    1.2198   -1.9908 C   0  0  0  0  0  0  0  0  0  0  0  0
    1.3743    0.8252   -0.9204 C   0  0  0  0  0  0  0  0  0  0  0  0
    0.8776    0.3304    0.2765 C   0  0  0  0  0  0  0  0  0  0  0  0
    1.8281   -0.0786    1.3442 N   0  0  0  0  0  0  0  0  0  0  0  0
    3.0284   -0.0141    1.0964 O   0  0  0  0  0  0  0  0  0  0  0  0
    1.3516   -0.4591    2.4140 O   0  0  0  0  0  0  0  0  0  0  0  0
   -0.4995    0.1952    0.5655 C   0  0  0  0  0  0  0  0  0  0  0  0
   -1.3994    0.5677   -0.4060 C   0  0  0  0  0  0  0  0  0  0  0  0
   -1.9545    5.0062   -0.4529 H   0  0  0  0  0  0  0  0  0  0  0  0
    2.4535    0.9021   -1.0239 H   0  0  0  0  0  0  0  0  0  0  0  0
   -0.8104   -0.1875    1.5280 H   0  0  0  0  0  0  0  0  0  0  0  0
   -2.4733    0.5129   -0.2565 H   0  0  0  0  0  0  0  0  0  0  0  0
   -2.8083    5.1648   -0.0143 O   0  0  0  0  0  0  0  0  0  0  0  0
   -3.6067    4.1285   -0.2724 C   0  0  0  0  0  0  0  0  0  0  0  0
   -3.3296    3.1610   -0.9378 O   0  0  0  0  0  0  0  0  0  0  0  0
   -4.9822    4.3332    0.4001 C   0  0  0  0  0  0  0  0  0  0  0  0
   -5.7538    3.2646    0.1951 F   0  0  0  0  0  0  0  0  0  0  0  0
   -4.8320    4.5168    1.7208 F   0  0  0  0  0  0  0  0  0  0  0  0
   -5.5864    5.4143   -0.1182 F   0  0  0  0  0  0  0  0  0  0  0  0
  1 11  1  0  0  0  0
  2  1  1  0  0  0  0
  3  2  1  0  0  0  0
  4  1  2  0  0  0  0
  4  5  1  0  0  0  0
  5  6  2  0  0  0  0
  6 10  1  0  0  0  0
  6  7  1  0  0  0  0
  7  9  2  0  0  0  0
  8  7  2  0  0  0  0
 10 14  1  0  0  0  0
 11 15  1  0  0  0  0
 11 10  2  0  0  0  0
 12 16  1  0  0  0  0
 13  5  1  0  0  0  0
 17 16  1  0  0  0  0
 17 19  1  0  0  0  0
 18 17  2  0  0  0  0
 19 21  1  0  0  0  0
 20 19  1  0  0  0  0
 22 19  1  0  0  0  0
M  RAD  3   2   2   3   3   4   2
M  END
