Coordinates from ORCA-job 4-NO2PhN2+~CF3COO-_B3LYPG-6-31G_dp-CH-Scan-d09-49-n800
 OpenBabel11261919433D

 22 21  0  0  0  0  0  0  0  0999 V2000
   -1.3984    0.4282   -0.4432 C   0  0  0  0  0  0  0  0  0  0  0  0
   -2.7531    0.5629   -0.7825 N   0  0  0  0  0  0  0  0  0  0  0  0
   -3.8265    0.7259   -1.0391 N   0  0  0  0  0  0  0  0  0  0  0  0
   -0.8055    1.6298   -0.0442 C   0  0  0  0  0  0  0  0  0  0  0  0
    0.5634    1.4127    0.2855 C   0  0  0  0  0  0  0  0  0  0  0  0
    1.1512    0.1595    0.1973 C   0  0  0  0  0  0  0  0  0  0  0  0
    2.5856    0.0036    0.5581 N   0  0  0  0  0  0  0  0  0  0  0  0
    3.1924    1.0045    0.9259 O   0  0  0  0  0  0  0  0  0  0  0  0
    3.0730   -1.1222    0.4648 O   0  0  0  0  0  0  0  0  0  0  0  0
    0.4690   -1.0032   -0.2193 C   0  0  0  0  0  0  0  0  0  0  0  0
   -0.8592   -0.8807   -0.5561 C   0  0  0  0  0  0  0  0  0  0  0  0
   -2.1865    4.1471    0.0390 H   0  0  0  0  0  0  0  0  0  0  0  0
    1.1870    2.2365    0.6194 H   0  0  0  0  0  0  0  0  0  0  0  0
    0.9945   -1.9477   -0.2646 H   0  0  0  0  0  0  0  0  0  0  0  0
   -1.4489   -1.7309   -0.8856 H   0  0  0  0  0  0  0  0  0  0  0  0
   -2.7591    4.9385    0.0018 O   0  0  0  0  0  0  0  0  0  0  0  0
   -3.9506    4.5781   -0.4610 C   0  0  0  0  0  0  0  0  0  0  0  0
   -4.3016    3.4700   -0.7881 O   0  0  0  0  0  0  0  0  0  0  0  0
   -4.8836    5.8068   -0.5399 C   0  0  0  0  0  0  0  0  0  0  0  0
   -6.0946    5.4418   -0.9672 F   0  0  0  0  0  0  0  0  0  0  0  0
   -5.0068    6.3803    0.6695 F   0  0  0  0  0  0  0  0  0  0  0  0
   -4.3811    6.7177   -1.3921 F   0  0  0  0  0  0  0  0  0  0  0  0
  1  4  1  0  0  0  0
  2  1  1  0  0  0  0
  3  2  1  0  0  0  0
  4  5  2  0  0  0  0
  5 13  1  0  0  0  0
  6  5  1  0  0  0  0
  6  7  1  0  0  0  0
  7  8  2  0  0  0  0
  9  7  2  0  0  0  0
 10  6  2  0  0  0  0
 11  1  2  0  0  0  0
 11 10  1  0  0  0  0
 14 10  1  0  0  0  0
 15 11  1  0  0  0  0
 16 12  1  0  0  0  0
 17 16  1  0  0  0  0
 18 17  2  0  0  0  0
 19 17  1  0  0  0  0
 19 21  1  0  0  0  0
 20 19  1  0  0  0  0
 22 19  1  0  0  0  0
M  RAD  3   2   2   3   3   4   2
M  END
