Coordinates from ORCA-job 4-NO2PhN2+~CF3COO-_B3LYPG-6-31G_dp-CH-Scan-d09-49-n800
 OpenBabel11261919433D

 22 21  0  0  0  0  0  0  0  0999 V2000
   -1.1889    0.4116   -0.4610 C   0  0  0  0  0  0  0  0  0  0  0  0
   -2.5236    0.6822   -0.8136 N   0  0  0  0  0  0  0  0  0  0  0  0
   -3.5710    0.9608   -1.0813 N   0  0  0  0  0  0  0  0  0  0  0  0
   -0.4928    1.5611   -0.0828 C   0  0  0  0  0  0  0  0  0  0  0  0
    0.8479    1.2127    0.2642 C   0  0  0  0  0  0  0  0  0  0  0  0
    1.3091   -0.0940    0.2110 C   0  0  0  0  0  0  0  0  0  0  0  0
    2.7166   -0.3844    0.5934 N   0  0  0  0  0  0  0  0  0  0  0  0
    3.4188    0.5593    0.9436 O   0  0  0  0  0  0  0  0  0  0  0  0
    3.0900   -1.5558    0.5360 O   0  0  0  0  0  0  0  0  0  0  0  0
    0.5187   -1.1944   -0.1888 C   0  0  0  0  0  0  0  0  0  0  0  0
   -0.7871   -0.9486   -0.5437 C   0  0  0  0  0  0  0  0  0  0  0  0
   -2.2610    5.0782    0.0515 H   0  0  0  0  0  0  0  0  0  0  0  0
    1.5496    1.9771    0.5858 H   0  0  0  0  0  0  0  0  0  0  0  0
    0.9489   -2.1867   -0.2072 H   0  0  0  0  0  0  0  0  0  0  0  0
   -1.4559   -1.7427   -0.8628 H   0  0  0  0  0  0  0  0  0  0  0  0
   -3.0265    5.6728   -0.0302 O   0  0  0  0  0  0  0  0  0  0  0  0
   -4.0709    4.9497   -0.4401 C   0  0  0  0  0  0  0  0  0  0  0  0
   -4.0809    3.7682   -0.6754 O   0  0  0  0  0  0  0  0  0  0  0  0
   -5.3165    5.8526   -0.5763 C   0  0  0  0  0  0  0  0  0  0  0  0
   -6.3571    5.1379   -1.0087 F   0  0  0  0  0  0  0  0  0  0  0  0
   -5.6271    6.3951    0.6134 F   0  0  0  0  0  0  0  0  0  0  0  0
   -5.0800    6.8465   -1.4488 F   0  0  0  0  0  0  0  0  0  0  0  0
  1  4  1  0  0  0  0
  2  1  1  0  0  0  0
  3  2  1  0  0  0  0
  4  5  2  0  0  0  0
  5 13  1  0  0  0  0
  6  5  1  0  0  0  0
  6  7  1  0  0  0  0
  7  8  2  0  0  0  0
  9  7  2  0  0  0  0
 10  6  2  0  0  0  0
 11  1  2  0  0  0  0
 11 10  1  0  0  0  0
 14 10  1  0  0  0  0
 15 11  1  0  0  0  0
 16 12  1  0  0  0  0
 17 16  1  0  0  0  0
 18 17  2  0  0  0  0
 19 17  1  0  0  0  0
 19 21  1  0  0  0  0
 20 19  1  0  0  0  0
 22 19  1  0  0  0  0
M  RAD  3   2   2   3   3   4   2
M  END
