Coordinates from ORCA-job 4-NO2PhN2+~CF3COO-_B3LYPG-6-31G_dp-CH-Scan-d09-49-n800
 OpenBabel11261919433D

 22 21  0  0  0  0  0  0  0  0999 V2000
   -1.2237    0.4011   -0.4272 C   0  0  0  0  0  0  0  0  0  0  0  0
   -2.5685    0.6470   -0.7573 N   0  0  0  0  0  0  0  0  0  0  0  0
   -3.6262    0.9048   -1.0043 N   0  0  0  0  0  0  0  0  0  0  0  0
   -0.5468    1.5591   -0.0393 C   0  0  0  0  0  0  0  0  0  0  0  0
    0.8060    1.2354    0.2824 C   0  0  0  0  0  0  0  0  0  0  0  0
    1.2954   -0.0595    0.1992 C   0  0  0  0  0  0  0  0  0  0  0  0
    2.7149   -0.3243    0.5548 N   0  0  0  0  0  0  0  0  0  0  0  0
    3.4012    0.6291    0.9101 O   0  0  0  0  0  0  0  0  0  0  0  0
    3.1132   -1.4858    0.4718 O   0  0  0  0  0  0  0  0  0  0  0  0
    0.5235   -1.1704   -0.2073 C   0  0  0  0  0  0  0  0  0  0  0  0
   -0.7928   -0.9480   -0.5383 C   0  0  0  0  0  0  0  0  0  0  0  0
   -2.2736    4.9162    0.1221 H   0  0  0  0  0  0  0  0  0  0  0  0
    1.4951    2.0097    0.6072 H   0  0  0  0  0  0  0  0  0  0  0  0
    0.9752   -2.1524   -0.2490 H   0  0  0  0  0  0  0  0  0  0  0  0
   -1.4486   -1.7516   -0.8604 H   0  0  0  0  0  0  0  0  0  0  0  0
   -2.9998    5.5547    0.0154 O   0  0  0  0  0  0  0  0  0  0  0  0
   -4.0693    4.8965   -0.4353 C   0  0  0  0  0  0  0  0  0  0  0  0
   -4.1429    3.7180   -0.6753 O   0  0  0  0  0  0  0  0  0  0  0  0
   -5.2531    5.8729   -0.6110 C   0  0  0  0  0  0  0  0  0  0  0  0
   -6.3084    5.2316   -1.1164 F   0  0  0  0  0  0  0  0  0  0  0  0
   -5.5948    6.4010    0.5770 F   0  0  0  0  0  0  0  0  0  0  0  0
   -4.9157    6.8741   -1.4407 F   0  0  0  0  0  0  0  0  0  0  0  0
  1  4  1  0  0  0  0
  2  1  1  0  0  0  0
  3  2  1  0  0  0  0
  4  5  2  0  0  0  0
  5 13  1  0  0  0  0
  6  5  1  0  0  0  0
  6  7  1  0  0  0  0
  7  8  2  0  0  0  0
  9  7  2  0  0  0  0
 10  6  2  0  0  0  0
 11  1  2  0  0  0  0
 11 10  1  0  0  0  0
 14 10  1  0  0  0  0
 15 11  1  0  0  0  0
 16 12  1  0  0  0  0
 17 16  1  0  0  0  0
 18 17  2  0  0  0  0
 19 17  1  0  0  0  0
 19 21  1  0  0  0  0
 20 19  1  0  0  0  0
 22 19  1  0  0  0  0
M  RAD  3   2   2   3   3   4   2
M  END
