Coordinates from ORCA-job 4-NO2PhN2+~CF3COO-_B3LYPG-6-31G_dp-CH-Scan-d09-49-n800
 OpenBabel11261919433D

 22 21  0  0  0  0  0  0  0  0999 V2000
   -1.3086    0.4067   -0.4288 C   0  0  0  0  0  0  0  0  0  0  0  0
   -2.6610    0.5950   -0.7591 N   0  0  0  0  0  0  0  0  0  0  0  0
   -3.7273    0.8048   -1.0131 N   0  0  0  0  0  0  0  0  0  0  0  0
   -0.6777    1.5873   -0.0288 C   0  0  0  0  0  0  0  0  0  0  0  0
    0.6857    1.3196    0.2934 C   0  0  0  0  0  0  0  0  0  0  0  0
    1.2293    0.0472    0.1983 C   0  0  0  0  0  0  0  0  0  0  0  0
    2.6585   -0.1603    0.5532 N   0  0  0  0  0  0  0  0  0  0  0  0
    3.3023    0.8174    0.9212 O   0  0  0  0  0  0  0  0  0  0  0  0
    3.1063   -1.3023    0.4554 O   0  0  0  0  0  0  0  0  0  0  0  0
    0.5056   -1.0906   -0.2199 C   0  0  0  0  0  0  0  0  0  0  0  0
   -0.8188   -0.9210   -0.5505 C   0  0  0  0  0  0  0  0  0  0  0  0
   -2.2383    4.5073    0.0919 H   0  0  0  0  0  0  0  0  0  0  0  0
    1.3402    2.1193    0.6275 H   0  0  0  0  0  0  0  0  0  0  0  0
    0.9982   -2.0524   -0.2704 H   0  0  0  0  0  0  0  0  0  0  0  0
   -1.4395   -1.7486   -0.8807 H   0  0  0  0  0  0  0  0  0  0  0  0
   -2.8808    5.2355    0.0167 O   0  0  0  0  0  0  0  0  0  0  0  0
   -4.0254    4.7366   -0.4467 C   0  0  0  0  0  0  0  0  0  0  0  0
   -4.2523    3.5868   -0.7312 O   0  0  0  0  0  0  0  0  0  0  0  0
   -5.0750    5.8616   -0.5830 C   0  0  0  0  0  0  0  0  0  0  0  0
   -6.2260    5.3663   -1.0419 F   0  0  0  0  0  0  0  0  0  0  0  0
   -5.2969    6.4387    0.6106 F   0  0  0  0  0  0  0  0  0  0  0  0
   -4.6383    6.8042   -1.4359 F   0  0  0  0  0  0  0  0  0  0  0  0
  1  4  1  0  0  0  0
  2  1  1  0  0  0  0
  3  2  1  0  0  0  0
  4  5  2  0  0  0  0
  5 13  1  0  0  0  0
  6  5  1  0  0  0  0
  6  7  1  0  0  0  0
  7  8  2  0  0  0  0
  9  7  2  0  0  0  0
 10  6  2  0  0  0  0
 11  1  2  0  0  0  0
 11 10  1  0  0  0  0
 14 10  1  0  0  0  0
 15 11  1  0  0  0  0
 16 12  1  0  0  0  0
 17 16  1  0  0  0  0
 18 17  2  0  0  0  0
 19 17  1  0  0  0  0
 19 21  1  0  0  0  0
 20 19  1  0  0  0  0
 22 19  1  0  0  0  0
M  RAD  3   2   2   3   3   4   2
M  END
