Coordinates from ORCA-job 4-NO2PhN2+~CF3COO-_B3LYPG-6-31G_dp-CH-Scan-d09-49-n800
 OpenBabel11261919433D

 22 21  0  0  0  0  0  0  0  0999 V2000
   -1.3866    0.4249   -0.4417 C   0  0  0  0  0  0  0  0  0  0  0  0
   -2.7411    0.5664   -0.7803 N   0  0  0  0  0  0  0  0  0  0  0  0
   -3.8144    0.7345   -1.0341 N   0  0  0  0  0  0  0  0  0  0  0  0
   -0.7894    1.6236   -0.0410 C   0  0  0  0  0  0  0  0  0  0  0  0
    0.5789    1.4004    0.2881 C   0  0  0  0  0  0  0  0  0  0  0  0
    1.1616    0.1450    0.1977 C   0  0  0  0  0  0  0  0  0  0  0  0
    2.5953   -0.0173    0.5582 N   0  0  0  0  0  0  0  0  0  0  0  0
    3.2063    0.9804    0.9278 O   0  0  0  0  0  0  0  0  0  0  0  0
    3.0781   -1.1451    0.4636 O   0  0  0  0  0  0  0  0  0  0  0  0
    0.4747   -1.0144   -0.2206 C   0  0  0  0  0  0  0  0  0  0  0  0
   -0.8531   -0.8862   -0.5570 C   0  0  0  0  0  0  0  0  0  0  0  0
   -2.1939    4.1908    0.0457 H   0  0  0  0  0  0  0  0  0  0  0  0
    1.2060    2.2211    0.6231 H   0  0  0  0  0  0  0  0  0  0  0  0
    0.9964   -1.9610   -0.2674 H   0  0  0  0  0  0  0  0  0  0  0  0
   -1.4463   -1.7334   -0.8878 H   0  0  0  0  0  0  0  0  0  0  0  0
   -2.7745    4.9753    0.0035 O   0  0  0  0  0  0  0  0  0  0  0  0
   -3.9615    4.5982   -0.4592 C   0  0  0  0  0  0  0  0  0  0  0  0
   -4.2982    3.4843   -0.7810 O   0  0  0  0  0  0  0  0  0  0  0  0
   -4.9085    5.8156   -0.5456 C   0  0  0  0  0  0  0  0  0  0  0  0
   -6.1150    5.4342   -0.9709 F   0  0  0  0  0  0  0  0  0  0  0  0
   -5.0384    6.3949    0.6603 F   0  0  0  0  0  0  0  0  0  0  0  0
   -4.4160    6.7269   -1.4032 F   0  0  0  0  0  0  0  0  0  0  0  0
  1  4  1  0  0  0  0
  2  1  1  0  0  0  0
  3  2  1  0  0  0  0
  4  5  2  0  0  0  0
  5 13  1  0  0  0  0
  6  5  1  0  0  0  0
  6  7  1  0  0  0  0
  7  8  2  0  0  0  0
  9  7  2  0  0  0  0
 10  6  2  0  0  0  0
 11  1  2  0  0  0  0
 11 10  1  0  0  0  0
 14 10  1  0  0  0  0
 15 11  1  0  0  0  0
 16 12  1  0  0  0  0
 17 16  1  0  0  0  0
 18 17  2  0  0  0  0
 19 17  1  0  0  0  0
 19 21  1  0  0  0  0
 20 19  1  0  0  0  0
 22 19  1  0  0  0  0
M  RAD  3   2   2   3   3   4   2
M  END
