Coordinates from ORCA-job 4-NO2PhN2+~CF3COO-_B3LYPG-6-31G_dp-CH-Scan-d09-49-n800
 OpenBabel11261919433D

 22 21  0  0  0  0  0  0  0  0999 V2000
   -1.3467    0.4139   -0.4362 C   0  0  0  0  0  0  0  0  0  0  0  0
   -2.7003    0.5783   -0.7714 N   0  0  0  0  0  0  0  0  0  0  0  0
   -3.7713    0.7663   -1.0219 N   0  0  0  0  0  0  0  0  0  0  0  0
   -0.7344    1.6034   -0.0327 C   0  0  0  0  0  0  0  0  0  0  0  0
    0.6317    1.3589    0.2935 C   0  0  0  0  0  0  0  0  0  0  0  0
    1.1963    0.0957    0.1987 C   0  0  0  0  0  0  0  0  0  0  0  0
    2.6279   -0.0884    0.5575 N   0  0  0  0  0  0  0  0  0  0  0  0
    3.2536    0.8992    0.9299 O   0  0  0  0  0  0  0  0  0  0  0  0
    3.0945   -1.2228    0.4598 O   0  0  0  0  0  0  0  0  0  0  0  0
    0.4926   -1.0530   -0.2226 C   0  0  0  0  0  0  0  0  0  0  0  0
   -0.8335   -0.9049   -0.5571 C   0  0  0  0  0  0  0  0  0  0  0  0
   -2.2185    4.3435    0.0686 H   0  0  0  0  0  0  0  0  0  0  0  0
    1.2714    2.1693    0.6302 H   0  0  0  0  0  0  0  0  0  0  0  0
    1.0011   -2.0065   -0.2729 H   0  0  0  0  0  0  0  0  0  0  0  0
   -1.4392   -1.7425   -0.8899 H   0  0  0  0  0  0  0  0  0  0  0  0
   -2.8282    5.1023    0.0099 O   0  0  0  0  0  0  0  0  0  0  0  0
   -3.9971    4.6673   -0.4528 C   0  0  0  0  0  0  0  0  0  0  0  0
   -4.2825    3.5350   -0.7567 O   0  0  0  0  0  0  0  0  0  0  0  0
   -4.9925    5.8432   -0.5641 C   0  0  0  0  0  0  0  0  0  0  0  0
   -6.1787    5.4063   -0.9924 F   0  0  0  0  0  0  0  0  0  0  0  0
   -5.1551    6.4337    0.6323 F   0  0  0  0  0  0  0  0  0  0  0  0
   -4.5306    6.7610   -1.4314 F   0  0  0  0  0  0  0  0  0  0  0  0
  1  4  1  0  0  0  0
  2  1  1  0  0  0  0
  3  2  1  0  0  0  0
  4  5  2  0  0  0  0
  5 13  1  0  0  0  0
  6  5  1  0  0  0  0
  6  7  1  0  0  0  0
  7  8  2  0  0  0  0
  9  7  2  0  0  0  0
 10  6  2  0  0  0  0
 11  1  2  0  0  0  0
 11 10  1  0  0  0  0
 14 10  1  0  0  0  0
 15 11  1  0  0  0  0
 16 12  1  0  0  0  0
 17 16  1  0  0  0  0
 18 17  2  0  0  0  0
 19 17  1  0  0  0  0
 19 21  1  0  0  0  0
 20 19  1  0  0  0  0
 22 19  1  0  0  0  0
M  RAD  3   2   2   3   3   4   2
M  END
