Coordinates from ORCA-job 4-NO2PhN2+~CF3COO-_B3LYPG-6-31G_dp-CH-Scan-d09-49-n800
 OpenBabel11261919433D

 22 21  0  0  0  0  0  0  0  0999 V2000
   -1.6092    0.4786   -0.4626 C   0  0  0  0  0  0  0  0  0  0  0  0
   -2.9667    0.4982   -0.8055 N   0  0  0  0  0  0  0  0  0  0  0  0
   -4.0464    0.5930   -1.0652 N   0  0  0  0  0  0  0  0  0  0  0  0
   -1.0955    1.7239   -0.0828 C   0  0  0  0  0  0  0  0  0  0  0  0
    0.2816    1.6224    0.2487 C   0  0  0  0  0  0  0  0  0  0  0  0
    0.9629    0.4153    0.1812 C   0  0  0  0  0  0  0  0  0  0  0  0
    2.4054    0.3775    0.5410 N   0  0  0  0  0  0  0  0  0  0  0  0
    2.9316    1.4292    0.8884 O   0  0  0  0  0  0  0  0  0  0  0  0
    2.9772   -0.7085    0.4616 O   0  0  0  0  0  0  0  0  0  0  0  0
    0.3692   -0.7993   -0.2129 C   0  0  0  0  0  0  0  0  0  0  0  0
   -0.9660   -0.7820   -0.5495 C   0  0  0  0  0  0  0  0  0  0  0  0
   -2.0718    3.4069   -0.0312 H   0  0  0  0  0  0  0  0  0  0  0  0
    0.8362    2.4997    0.5661 H   0  0  0  0  0  0  0  0  0  0  0  0
    0.9620   -1.7037   -0.2434 H   0  0  0  0  0  0  0  0  0  0  0  0
   -1.4892   -1.6799   -0.8629 H   0  0  0  0  0  0  0  0  0  0  0  0
   -2.5266    4.3164   -0.0012 O   0  0  0  0  0  0  0  0  0  0  0  0
   -3.7461    4.2381   -0.4794 C   0  0  0  0  0  0  0  0  0  0  0  0
   -4.3248    3.2550   -0.8977 O   0  0  0  0  0  0  0  0  0  0  0  0
   -4.4287    5.6256   -0.4597 C   0  0  0  0  0  0  0  0  0  0  0  0
   -5.6747    5.5473   -0.9383 F   0  0  0  0  0  0  0  0  0  0  0  0
   -4.4837    6.1054    0.7968 F   0  0  0  0  0  0  0  0  0  0  0  0
   -3.7363    6.5001   -1.2132 F   0  0  0  0  0  0  0  0  0  0  0  0
  1  4  1  0  0  0  0
  2  1  1  0  0  0  0
  3  2  1  0  0  0  0
  4  5  2  0  0  0  0
  5 13  1  0  0  0  0
  6  5  1  0  0  0  0
  6  7  1  0  0  0  0
  7  8  2  0  0  0  0
  9  7  2  0  0  0  0
 10  6  2  0  0  0  0
 11  1  2  0  0  0  0
 11 10  1  0  0  0  0
 12 16  1  0  0  0  0
 14 10  1  0  0  0  0
 15 11  1  0  0  0  0
 17 19  1  0  0  0  0
 17 16  1  0  0  0  0
 18 17  2  0  0  0  0
 19 21  1  0  0  0  0
 20 19  1  0  0  0  0
 22 19  1  0  0  0  0
M  RAD  3   2   2   3   3   4   2
M  END
