Coordinates from ORCA-job 4-NO2PhN2+~CF3COO-_B3LYPG-6-31G_dp-CH-Scan-d09-49-n800
 OpenBabel11261919433D

 22 21  0  0  0  0  0  0  0  0999 V2000
   -1.3333    0.4111   -0.4347 C   0  0  0  0  0  0  0  0  0  0  0  0
   -2.6863    0.5836   -0.7693 N   0  0  0  0  0  0  0  0  0  0  0  0
   -3.7565    0.7784   -1.0182 N   0  0  0  0  0  0  0  0  0  0  0  0
   -0.7152    1.5976   -0.0314 C   0  0  0  0  0  0  0  0  0  0  0  0
    0.6499    1.3453    0.2942 C   0  0  0  0  0  0  0  0  0  0  0  0
    1.2077    0.0791    0.1992 C   0  0  0  0  0  0  0  0  0  0  0  0
    2.6382   -0.1129    0.5577 N   0  0  0  0  0  0  0  0  0  0  0  0
    3.2697    0.8714    0.9293 O   0  0  0  0  0  0  0  0  0  0  0  0
    3.0989   -1.2497    0.4592 O   0  0  0  0  0  0  0  0  0  0  0  0
    0.4977   -1.0659   -0.2222 C   0  0  0  0  0  0  0  0  0  0  0  0
   -0.8276   -0.9105   -0.5562 C   0  0  0  0  0  0  0  0  0  0  0  0
   -2.2255    4.3973    0.0744 H   0  0  0  0  0  0  0  0  0  0  0  0
    1.2943    2.1520    0.6308 H   0  0  0  0  0  0  0  0  0  0  0  0
    1.0011   -2.0221   -0.2727 H   0  0  0  0  0  0  0  0  0  0  0  0
   -1.4380   -1.7447   -0.8891 H   0  0  0  0  0  0  0  0  0  0  0  0
   -2.8457    5.1465    0.0103 O   0  0  0  0  0  0  0  0  0  0  0  0
   -4.0078    4.6907   -0.4510 C   0  0  0  0  0  0  0  0  0  0  0  0
   -4.2748    3.5523   -0.7479 O   0  0  0  0  0  0  0  0  0  0  0  0
   -5.0209    5.8507   -0.5698 C   0  0  0  0  0  0  0  0  0  0  0  0
   -6.1980    5.3942   -1.0025 F   0  0  0  0  0  0  0  0  0  0  0  0
   -5.1981    6.4408    0.6248 F   0  0  0  0  0  0  0  0  0  0  0  0
   -4.5693    6.7738   -1.4366 F   0  0  0  0  0  0  0  0  0  0  0  0
  1  4  1  0  0  0  0
  2  1  1  0  0  0  0
  3  2  1  0  0  0  0
  4  5  2  0  0  0  0
  5 13  1  0  0  0  0
  6  5  1  0  0  0  0
  6  7  1  0  0  0  0
  7  8  2  0  0  0  0
  9  7  2  0  0  0  0
 10  6  2  0  0  0  0
 11  1  2  0  0  0  0
 11 10  1  0  0  0  0
 14 10  1  0  0  0  0
 15 11  1  0  0  0  0
 16 12  1  0  0  0  0
 17 16  1  0  0  0  0
 18 17  2  0  0  0  0
 19 17  1  0  0  0  0
 19 21  1  0  0  0  0
 20 19  1  0  0  0  0
 22 19  1  0  0  0  0
M  RAD  3   2   2   3   3   4   2
M  END
