Coordinates from ORCA-job 4-NO2PhN2+~CF3COO-_B3LYPG-6-31G_dp-CH-Scan-d09-49-n800
 OpenBabel11261919433D

 22 21  0  0  0  0  0  0  0  0999 V2000
   -1.4047    0.4302   -0.4443 C   0  0  0  0  0  0  0  0  0  0  0  0
   -2.7595    0.5613   -0.7842 N   0  0  0  0  0  0  0  0  0  0  0  0
   -3.8332    0.7211   -1.0415 N   0  0  0  0  0  0  0  0  0  0  0  0
   -0.8139    1.6332   -0.0462 C   0  0  0  0  0  0  0  0  0  0  0  0
    0.5553    1.4195    0.2841 C   0  0  0  0  0  0  0  0  0  0  0  0
    1.1456    0.1674    0.1971 C   0  0  0  0  0  0  0  0  0  0  0  0
    2.5803    0.0149    0.5583 N   0  0  0  0  0  0  0  0  0  0  0  0
    3.1849    1.0174    0.9251 O   0  0  0  0  0  0  0  0  0  0  0  0
    3.0700   -1.1100    0.4658 O   0  0  0  0  0  0  0  0  0  0  0  0
    0.4658   -0.9970   -0.2185 C   0  0  0  0  0  0  0  0  0  0  0  0
   -0.8626   -0.8776   -0.5557 C   0  0  0  0  0  0  0  0  0  0  0  0
   -2.1826    4.1232    0.0345 H   0  0  0  0  0  0  0  0  0  0  0  0
    1.1770    2.2450    0.6173 H   0  0  0  0  0  0  0  0  0  0  0  0
    0.9932   -1.9405   -0.2627 H   0  0  0  0  0  0  0  0  0  0  0  0
   -1.4504   -1.7293   -0.8844 H   0  0  0  0  0  0  0  0  0  0  0  0
   -2.7506    4.9185    0.0002 O   0  0  0  0  0  0  0  0  0  0  0  0
   -3.9447    4.5672   -0.4622 C   0  0  0  0  0  0  0  0  0  0  0  0
   -4.3037    3.4624   -0.7920 O   0  0  0  0  0  0  0  0  0  0  0  0
   -4.8701    5.8018   -0.5366 C   0  0  0  0  0  0  0  0  0  0  0  0
   -6.0835    5.4459   -0.9649 F   0  0  0  0  0  0  0  0  0  0  0  0
   -4.9897    6.3719    0.6748 F   0  0  0  0  0  0  0  0  0  0  0  0
   -4.3624    6.7128   -1.3857 F   0  0  0  0  0  0  0  0  0  0  0  0
  1  4  1  0  0  0  0
  2  1  1  0  0  0  0
  3  2  1  0  0  0  0
  4  5  2  0  0  0  0
  5 13  1  0  0  0  0
  6  5  1  0  0  0  0
  6  7  1  0  0  0  0
  7  8  2  0  0  0  0
  9  7  2  0  0  0  0
 10  6  2  0  0  0  0
 11  1  2  0  0  0  0
 11 10  1  0  0  0  0
 14 10  1  0  0  0  0
 15 11  1  0  0  0  0
 16 12  1  0  0  0  0
 17 16  1  0  0  0  0
 18 17  2  0  0  0  0
 19 17  1  0  0  0  0
 19 21  1  0  0  0  0
 20 19  1  0  0  0  0
 22 19  1  0  0  0  0
M  RAD  3   2   2   3   3   4   2
M  END
