Coordinates from ORCA-job 4-NO2PhN2+~CF3COO-_B3LYPG-6-31G_dp-CH-Scan-d09-49-n800
 OpenBabel11261919433D

 22 21  0  0  0  0  0  0  0  0999 V2000
   -1.6856    0.5080   -0.4697 C   0  0  0  0  0  0  0  0  0  0  0  0
   -3.0462    0.5105   -0.8082 N   0  0  0  0  0  0  0  0  0  0  0  0
   -4.1194    0.6902   -1.0538 N   0  0  0  0  0  0  0  0  0  0  0  0
   -1.1837    1.7569   -0.0937 C   0  0  0  0  0  0  0  0  0  0  0  0
    0.1886    1.7033    0.2367 C   0  0  0  0  0  0  0  0  0  0  0  0
    0.8964    0.5094    0.1739 C   0  0  0  0  0  0  0  0  0  0  0  0
    2.3391    0.5073    0.5334 N   0  0  0  0  0  0  0  0  0  0  0  0
    2.8369    1.5729    0.8793 O   0  0  0  0  0  0  0  0  0  0  0  0
    2.9348   -0.5654    0.4591 O   0  0  0  0  0  0  0  0  0  0  0  0
    0.3279   -0.7159   -0.2138 C   0  0  0  0  0  0  0  0  0  0  0  0
   -1.0104   -0.7305   -0.5492 C   0  0  0  0  0  0  0  0  0  0  0  0
   -1.9747    3.0548   -0.0447 H   0  0  0  0  0  0  0  0  0  0  0  0
    0.7151    2.5996    0.5475 H   0  0  0  0  0  0  0  0  0  0  0  0
    0.9395   -1.6079   -0.2417 H   0  0  0  0  0  0  0  0  0  0  0  0
   -1.5131   -1.6409   -0.8584 H   0  0  0  0  0  0  0  0  0  0  0  0
   -2.4723    4.0788    0.0148 O   0  0  0  0  0  0  0  0  0  0  0  0
   -3.6656    4.1024   -0.4782 C   0  0  0  0  0  0  0  0  0  0  0  0
   -4.3273    3.1821   -0.9477 O   0  0  0  0  0  0  0  0  0  0  0  0
   -4.2711    5.5286   -0.4380 C   0  0  0  0  0  0  0  0  0  0  0  0
   -5.5201    5.5442   -0.9210 F   0  0  0  0  0  0  0  0  0  0  0  0
   -4.3033    5.9947    0.8261 F   0  0  0  0  0  0  0  0  0  0  0  0
   -3.5251    6.3762   -1.1747 F   0  0  0  0  0  0  0  0  0  0  0  0
  1  4  1  0  0  0  0
  2  1  1  0  0  0  0
  3  2  1  0  0  0  0
  4  5  2  0  0  0  0
  5 13  1  0  0  0  0
  6  5  1  0  0  0  0
  6  7  1  0  0  0  0
  7  8  2  0  0  0  0
  9  7  2  0  0  0  0
 10  6  2  0  0  0  0
 11  1  2  0  0  0  0
 11 10  1  0  0  0  0
 12 16  1  0  0  0  0
 14 10  1  0  0  0  0
 15 11  1  0  0  0  0
 17 19  1  0  0  0  0
 17 16  1  0  0  0  0
 18 17  2  0  0  0  0
 19 21  1  0  0  0  0
 20 19  1  0  0  0  0
 22 19  1  0  0  0  0
M  RAD  3   2   2   3   3   4   2
M  END
