Coordinates from ORCA-job 4-NO2PhN2+~CF3COO-_B3LYPG-6-31G_dp-CH-Scan-d09-49-n800
 OpenBabel11261919433D

 22 21  0  0  0  0  0  0  0  0999 V2000
   -1.4923    0.4493   -0.4548 C   0  0  0  0  0  0  0  0  0  0  0  0
   -2.8486    0.5306   -0.7985 N   0  0  0  0  0  0  0  0  0  0  0  0
   -3.9256    0.6555   -1.0592 N   0  0  0  0  0  0  0  0  0  0  0  0
   -0.9361    1.6725   -0.0659 C   0  0  0  0  0  0  0  0  0  0  0  0
    0.4374    1.5084    0.2675 C   0  0  0  0  0  0  0  0  0  0  0  0
    1.0684    0.2753    0.1915 C   0  0  0  0  0  0  0  0  0  0  0  0
    2.5072    0.1736    0.5539 N   0  0  0  0  0  0  0  0  0  0  0  0
    3.0774    1.1988    0.9124 O   0  0  0  0  0  0  0  0  0  0  0  0
    3.0333   -0.9353    0.4705 O   0  0  0  0  0  0  0  0  0  0  0  0
    0.4266   -0.9129   -0.2138 C   0  0  0  0  0  0  0  0  0  0  0  0
   -0.9051   -0.8393   -0.5527 C   0  0  0  0  0  0  0  0  0  0  0  0
   -2.1415    3.8010   -0.0038 H   0  0  0  0  0  0  0  0  0  0  0  0
    1.0300    2.3575    0.5936 H   0  0  0  0  0  0  0  0  0  0  0  0
    0.9836   -1.8397   -0.2499 H   0  0  0  0  0  0  0  0  0  0  0  0
   -1.4642   -1.7127   -0.8742 H   0  0  0  0  0  0  0  0  0  0  0  0
   -2.6490    4.6465   -0.0077 O   0  0  0  0  0  0  0  0  0  0  0  0
   -3.8668    4.4214   -0.4724 C   0  0  0  0  0  0  0  0  0  0  0  0
   -4.3326    3.3665   -0.8387 O   0  0  0  0  0  0  0  0  0  0  0  0
   -4.6793    5.7354   -0.4996 C   0  0  0  0  0  0  0  0  0  0  0  0
   -5.9180    5.5091   -0.9453 F   0  0  0  0  0  0  0  0  0  0  0  0
   -4.7561    6.2649    0.7342 F   0  0  0  0  0  0  0  0  0  0  0  0
   -4.0881    6.6327   -1.3087 F   0  0  0  0  0  0  0  0  0  0  0  0
  1  4  1  0  0  0  0
  2  1  1  0  0  0  0
  3  2  1  0  0  0  0
  4  5  2  0  0  0  0
  5 13  1  0  0  0  0
  6  5  1  0  0  0  0
  6  7  1  0  0  0  0
  7  8  2  0  0  0  0
  9  7  2  0  0  0  0
 10  6  2  0  0  0  0
 11  1  2  0  0  0  0
 11 10  1  0  0  0  0
 14 10  1  0  0  0  0
 15 11  1  0  0  0  0
 16 12  1  0  0  0  0
 17 16  1  0  0  0  0
 18 17  2  0  0  0  0
 19 17  1  0  0  0  0
 19 21  1  0  0  0  0
 20 19  1  0  0  0  0
 22 19  1  0  0  0  0
M  RAD  3   2   2   3   3   4   2
M  END
