Coordinates from ORCA-job 4-NO2PhN2+~CF3COO-_B3LYPG-6-31G_dp-CH-Scan-d09-49-n800
 OpenBabel11261919433D

 22 21  0  0  0  0  0  0  0  0999 V2000
   -1.6857    0.5085   -0.4696 C   0  0  0  0  0  0  0  0  0  0  0  0
   -3.0464    0.5118   -0.8081 N   0  0  0  0  0  0  0  0  0  0  0  0
   -4.1192    0.6957   -1.0532 N   0  0  0  0  0  0  0  0  0  0  0  0
   -1.1831    1.7570   -0.0937 C   0  0  0  0  0  0  0  0  0  0  0  0
    0.1890    1.7038    0.2367 C   0  0  0  0  0  0  0  0  0  0  0  0
    0.8965    0.5097    0.1739 C   0  0  0  0  0  0  0  0  0  0  0  0
    2.3393    0.5074    0.5334 N   0  0  0  0  0  0  0  0  0  0  0  0
    2.8370    1.5729    0.8797 O   0  0  0  0  0  0  0  0  0  0  0  0
    2.9347   -0.5655    0.4595 O   0  0  0  0  0  0  0  0  0  0  0  0
    0.3278   -0.7153   -0.2137 C   0  0  0  0  0  0  0  0  0  0  0  0
   -1.0106   -0.7298   -0.5491 C   0  0  0  0  0  0  0  0  0  0  0  0
   -1.9729    3.0498   -0.0448 H   0  0  0  0  0  0  0  0  0  0  0  0
    0.7154    2.6002    0.5474 H   0  0  0  0  0  0  0  0  0  0  0  0
    0.9392   -1.6075   -0.2417 H   0  0  0  0  0  0  0  0  0  0  0  0
   -1.5135   -1.6402   -0.8582 H   0  0  0  0  0  0  0  0  0  0  0  0
   -2.4733    4.0766    0.0148 O   0  0  0  0  0  0  0  0  0  0  0  0
   -3.6657    4.1014   -0.4789 C   0  0  0  0  0  0  0  0  0  0  0  0
   -4.3290    3.1818   -0.9486 O   0  0  0  0  0  0  0  0  0  0  0  0
   -4.2711    5.5278   -0.4381 C   0  0  0  0  0  0  0  0  0  0  0  0
   -5.5204    5.5439   -0.9202 F   0  0  0  0  0  0  0  0  0  0  0  0
   -4.3023    5.9937    0.8261 F   0  0  0  0  0  0  0  0  0  0  0  0
   -3.5253    6.3753   -1.1752 F   0  0  0  0  0  0  0  0  0  0  0  0
  1  4  1  0  0  0  0
  2  1  1  0  0  0  0
  3  2  1  0  0  0  0
  4  5  2  0  0  0  0
  5 13  1  0  0  0  0
  6  5  1  0  0  0  0
  6  7  1  0  0  0  0
  7  8  2  0  0  0  0
  9  7  2  0  0  0  0
 10  6  2  0  0  0  0
 11  1  2  0  0  0  0
 11 10  1  0  0  0  0
 12 16  1  0  0  0  0
 14 10  1  0  0  0  0
 15 11  1  0  0  0  0
 17 19  1  0  0  0  0
 17 16  1  0  0  0  0
 18 17  2  0  0  0  0
 19 21  1  0  0  0  0
 20 19  1  0  0  0  0
 22 19  1  0  0  0  0
M  RAD  3   2   2   3   3   4   2
M  END
