Coordinates from ORCA-job 4-NO2PhN2+~CF3COO-_B3LYPG-6-31G_dp-CH-Scan-d09-49-n800
 OpenBabel11261919433D

 22 21  0  0  0  0  0  0  0  0999 V2000
   -1.6061    0.4780   -0.4654 C   0  0  0  0  0  0  0  0  0  0  0  0
   -2.9632    0.4986   -0.8099 N   0  0  0  0  0  0  0  0  0  0  0  0
   -4.0425    0.5935   -1.0710 N   0  0  0  0  0  0  0  0  0  0  0  0
   -1.0918    1.7232   -0.0855 C   0  0  0  0  0  0  0  0  0  0  0  0
    0.2848    1.6203    0.2477 C   0  0  0  0  0  0  0  0  0  0  0  0
    0.9651    0.4125    0.1815 C   0  0  0  0  0  0  0  0  0  0  0  0
    2.4071    0.3734    0.5431 N   0  0  0  0  0  0  0  0  0  0  0  0
    2.9331    1.4241    0.8940 O   0  0  0  0  0  0  0  0  0  0  0  0
    2.9771   -0.7138    0.4682 O   0  0  0  0  0  0  0  0  0  0  0  0
    0.3707   -0.8017   -0.2128 C   0  0  0  0  0  0  0  0  0  0  0  0
   -0.9640   -0.7833   -0.5510 C   0  0  0  0  0  0  0  0  0  0  0  0
   -2.0724    3.4152   -0.0355 H   0  0  0  0  0  0  0  0  0  0  0  0
    0.8400    2.4971    0.5655 H   0  0  0  0  0  0  0  0  0  0  0  0
    0.9628   -1.7067   -0.2423 H   0  0  0  0  0  0  0  0  0  0  0  0
   -1.4877   -1.6808   -0.8648 H   0  0  0  0  0  0  0  0  0  0  0  0
   -2.5271    4.3237   -0.0074 O   0  0  0  0  0  0  0  0  0  0  0  0
   -3.7499    4.2416   -0.4772 C   0  0  0  0  0  0  0  0  0  0  0  0
   -4.3303    3.2556   -0.8855 O   0  0  0  0  0  0  0  0  0  0  0  0
   -4.4339    5.6284   -0.4590 C   0  0  0  0  0  0  0  0  0  0  0  0
   -5.6835    5.5461   -0.9273 F   0  0  0  0  0  0  0  0  0  0  0  0
   -4.4794    6.1144    0.7954 F   0  0  0  0  0  0  0  0  0  0  0  0
   -3.7485    6.4997   -1.2225 F   0  0  0  0  0  0  0  0  0  0  0  0
  1  4  1  0  0  0  0
  2  1  1  0  0  0  0
  3  2  1  0  0  0  0
  4  5  2  0  0  0  0
  5 13  1  0  0  0  0
  6  5  1  0  0  0  0
  6  7  1  0  0  0  0
  7  8  2  0  0  0  0
  9  7  2  0  0  0  0
 10  6  2  0  0  0  0
 11  1  2  0  0  0  0
 11 10  1  0  0  0  0
 12 16  1  0  0  0  0
 14 10  1  0  0  0  0
 15 11  1  0  0  0  0
 17 19  1  0  0  0  0
 17 16  1  0  0  0  0
 18 17  2  0  0  0  0
 19 21  1  0  0  0  0
 20 19  1  0  0  0  0
 22 19  1  0  0  0  0
M  RAD  3   2   2   3   3   4   2
M  END
