Coordinates from ORCA-job 4-NO2PhN2+~CF3COO-_B3LYPG-6-31G_dp-CH-Scan-d09-49-n800
 OpenBabel11261919433D

 22 21  0  0  0  0  0  0  0  0999 V2000
   -1.6868    0.5150   -0.4679 C   0  0  0  0  0  0  0  0  0  0  0  0
   -3.0487    0.5254   -0.8047 N   0  0  0  0  0  0  0  0  0  0  0  0
   -4.1166    0.7476   -1.0443 N   0  0  0  0  0  0  0  0  0  0  0  0
   -1.1768    1.7591   -0.0901 C   0  0  0  0  0  0  0  0  0  0  0  0
    0.1935    1.7075    0.2393 C   0  0  0  0  0  0  0  0  0  0  0  0
    0.8985    0.5115    0.1741 C   0  0  0  0  0  0  0  0  0  0  0  0
    2.3413    0.5064    0.5323 N   0  0  0  0  0  0  0  0  0  0  0  0
    2.8408    1.5709    0.8789 O   0  0  0  0  0  0  0  0  0  0  0  0
    2.9348   -0.5673    0.4560 O   0  0  0  0  0  0  0  0  0  0  0  0
    0.3265   -0.7109   -0.2145 C   0  0  0  0  0  0  0  0  0  0  0  0
   -1.0131   -0.7224   -0.5487 C   0  0  0  0  0  0  0  0  0  0  0  0
   -1.9546    3.0064   -0.0415 H   0  0  0  0  0  0  0  0  0  0  0  0
    0.7200    2.6035    0.5504 H   0  0  0  0  0  0  0  0  0  0  0  0
    0.9359   -1.6044   -0.2443 H   0  0  0  0  0  0  0  0  0  0  0  0
   -1.5179   -1.6314   -0.8585 H   0  0  0  0  0  0  0  0  0  0  0  0
   -2.4848    4.0595    0.0211 O   0  0  0  0  0  0  0  0  0  0  0  0
   -3.6696    4.0913   -0.4776 C   0  0  0  0  0  0  0  0  0  0  0  0
   -4.3408    3.1781   -0.9569 O   0  0  0  0  0  0  0  0  0  0  0  0
   -4.2727    5.5198   -0.4416 C   0  0  0  0  0  0  0  0  0  0  0  0
   -5.5212    5.5413   -0.9265 F   0  0  0  0  0  0  0  0  0  0  0  0
   -4.3053    5.9888    0.8216 F   0  0  0  0  0  0  0  0  0  0  0  0
   -3.5221    6.3636   -1.1785 F   0  0  0  0  0  0  0  0  0  0  0  0
  1  4  1  0  0  0  0
  2  1  1  0  0  0  0
  3  2  1  0  0  0  0
  4  5  2  0  0  0  0
  5 13  1  0  0  0  0
  6  5  1  0  0  0  0
  6  7  1  0  0  0  0
  7  8  2  0  0  0  0
  9  7  2  0  0  0  0
 10  6  2  0  0  0  0
 11  1  2  0  0  0  0
 11 10  1  0  0  0  0
 12 16  1  0  0  0  0
 14 10  1  0  0  0  0
 15 11  1  0  0  0  0
 17 19  1  0  0  0  0
 17 16  1  0  0  0  0
 18 17  2  0  0  0  0
 19 21  1  0  0  0  0
 20 19  1  0  0  0  0
 22 19  1  0  0  0  0
M  RAD  3   2   2   3   3   4   2
M  END
