Coordinates from ORCA-job 4-NO2PhN2+~CF3COO-_B3LYPG-6-31G_dp-CH-Scan-d09-49-n800
 OpenBabel11261919433D

 22 21  0  0  0  0  0  0  0  0999 V2000
   -1.6000    0.4761   -0.4618 C   0  0  0  0  0  0  0  0  0  0  0  0
   -2.9575    0.5002   -0.8049 N   0  0  0  0  0  0  0  0  0  0  0  0
   -4.0370    0.5960   -1.0649 N   0  0  0  0  0  0  0  0  0  0  0  0
   -1.0833    1.7199   -0.0811 C   0  0  0  0  0  0  0  0  0  0  0  0
    0.2937    1.6135    0.2505 C   0  0  0  0  0  0  0  0  0  0  0  0
    0.9713    0.4044    0.1821 C   0  0  0  0  0  0  0  0  0  0  0  0
    2.4137    0.3616    0.5419 N   0  0  0  0  0  0  0  0  0  0  0  0
    2.9434    1.4115    0.8900 O   0  0  0  0  0  0  0  0  0  0  0  0
    2.9821   -0.7261    0.4619 O   0  0  0  0  0  0  0  0  0  0  0  0
    0.3740   -0.8083   -0.2130 C   0  0  0  0  0  0  0  0  0  0  0  0
   -0.9610   -0.7868   -0.5497 C   0  0  0  0  0  0  0  0  0  0  0  0
   -2.0790    3.4379   -0.0286 H   0  0  0  0  0  0  0  0  0  0  0  0
    0.8514    2.4885    0.5688 H   0  0  0  0  0  0  0  0  0  0  0  0
    0.9642   -1.7144   -0.2442 H   0  0  0  0  0  0  0  0  0  0  0  0
   -1.4870   -1.6828   -0.8639 H   0  0  0  0  0  0  0  0  0  0  0  0
   -2.5362    4.3414   -0.0014 O   0  0  0  0  0  0  0  0  0  0  0  0
   -3.7564    4.2522   -0.4788 C   0  0  0  0  0  0  0  0  0  0  0  0
   -4.3268    3.2633   -0.8930 O   0  0  0  0  0  0  0  0  0  0  0  0
   -4.4481    5.6351   -0.4630 C   0  0  0  0  0  0  0  0  0  0  0  0
   -5.6941    5.5462   -0.9394 F   0  0  0  0  0  0  0  0  0  0  0  0
   -4.5043    6.1188    0.7918 F   0  0  0  0  0  0  0  0  0  0  0  0
   -3.7626    6.5111   -1.2208 F   0  0  0  0  0  0  0  0  0  0  0  0
  1  4  1  0  0  0  0
  2  1  1  0  0  0  0
  3  2  1  0  0  0  0
  4  5  2  0  0  0  0
  5 13  1  0  0  0  0
  6  5  1  0  0  0  0
  6  7  1  0  0  0  0
  7  8  2  0  0  0  0
  9  7  2  0  0  0  0
 10  6  2  0  0  0  0
 11  1  2  0  0  0  0
 11 10  1  0  0  0  0
 12 16  1  0  0  0  0
 14 10  1  0  0  0  0
 15 11  1  0  0  0  0
 17 19  1  0  0  0  0
 17 16  1  0  0  0  0
 18 17  2  0  0  0  0
 19 21  1  0  0  0  0
 20 19  1  0  0  0  0
 22 19  1  0  0  0  0
M  RAD  3   2   2   3   3   4   2
M  END
