Coordinates from ORCA-job 4-NO2PhN2+~CF3COO-_B3LYPG-6-31G_dp-CH-Scan-d09-49-n800
 OpenBabel11261919433D

 22 21  0  0  0  0  0  0  0  0999 V2000
   -1.6103    0.4792   -0.4627 C   0  0  0  0  0  0  0  0  0  0  0  0
   -2.9679    0.4985   -0.8053 N   0  0  0  0  0  0  0  0  0  0  0  0
   -4.0476    0.5933   -1.0648 N   0  0  0  0  0  0  0  0  0  0  0  0
   -1.0967    1.7247   -0.0832 C   0  0  0  0  0  0  0  0  0  0  0  0
    0.2804    1.6237    0.2481 C   0  0  0  0  0  0  0  0  0  0  0  0
    0.9620    0.4167    0.1806 C   0  0  0  0  0  0  0  0  0  0  0  0
    2.4046    0.3793    0.5400 N   0  0  0  0  0  0  0  0  0  0  0  0
    2.9301    1.4308    0.8894 O   0  0  0  0  0  0  0  0  0  0  0  0
    2.9761   -0.7070    0.4628 O   0  0  0  0  0  0  0  0  0  0  0  0
    0.3685   -0.7980   -0.2132 C   0  0  0  0  0  0  0  0  0  0  0  0
   -0.9667   -0.7812   -0.5495 C   0  0  0  0  0  0  0  0  0  0  0  0
   -2.0706    3.4033   -0.0315 H   0  0  0  0  0  0  0  0  0  0  0  0
    0.8348    2.5012    0.5652 H   0  0  0  0  0  0  0  0  0  0  0  0
    0.9616   -1.7023   -0.2437 H   0  0  0  0  0  0  0  0  0  0  0  0
   -1.4898   -1.6792   -0.8628 H   0  0  0  0  0  0  0  0  0  0  0  0
   -2.5252    4.3135   -0.0013 O   0  0  0  0  0  0  0  0  0  0  0  0
   -3.7447    4.2361   -0.4792 C   0  0  0  0  0  0  0  0  0  0  0  0
   -4.3241    3.2536   -0.8979 O   0  0  0  0  0  0  0  0  0  0  0  0
   -4.4265    5.6240   -0.4593 C   0  0  0  0  0  0  0  0  0  0  0  0
   -5.6725    5.5467   -0.9381 F   0  0  0  0  0  0  0  0  0  0  0  0
   -4.4815    6.1036    0.7973 F   0  0  0  0  0  0  0  0  0  0  0  0
   -3.7335    6.4984   -1.2125 F   0  0  0  0  0  0  0  0  0  0  0  0
  1  4  1  0  0  0  0
  2  1  1  0  0  0  0
  3  2  1  0  0  0  0
  4  5  2  0  0  0  0
  5 13  1  0  0  0  0
  6  5  1  0  0  0  0
  6  7  1  0  0  0  0
  7  8  2  0  0  0  0
  9  7  2  0  0  0  0
 10  6  2  0  0  0  0
 11  1  2  0  0  0  0
 11 10  1  0  0  0  0
 12 16  1  0  0  0  0
 14 10  1  0  0  0  0
 15 11  1  0  0  0  0
 17 19  1  0  0  0  0
 17 16  1  0  0  0  0
 18 17  2  0  0  0  0
 19 21  1  0  0  0  0
 20 19  1  0  0  0  0
 22 19  1  0  0  0  0
M  RAD  3   2   2   3   3   4   2
M  END
