Coordinates from ORCA-job 4-NO2PhN2+~CF3COO-_B3LYPG-6-31G_dp-CH-Scan-d09-49-n800
 OpenBabel11261919433D

 22 21  0  0  0  0  0  0  0  0999 V2000
   -1.2723    0.4027   -0.4250 C   0  0  0  0  0  0  0  0  0  0  0  0
   -2.6222    0.6156   -0.7541 N   0  0  0  0  0  0  0  0  0  0  0  0
   -3.6875    0.8445   -0.9962 N   0  0  0  0  0  0  0  0  0  0  0  0
   -0.6219    1.5740   -0.0303 C   0  0  0  0  0  0  0  0  0  0  0  0
    0.7381    1.2826    0.2888 C   0  0  0  0  0  0  0  0  0  0  0  0
    1.2591    0.0007    0.1970 C   0  0  0  0  0  0  0  0  0  0  0  0
    2.6852   -0.2310    0.5492 N   0  0  0  0  0  0  0  0  0  0  0  0
    3.3468    0.7361    0.9139 O   0  0  0  0  0  0  0  0  0  0  0  0
    3.1114   -1.3820    0.4599 O   0  0  0  0  0  0  0  0  0  0  0  0
    0.5144   -1.1260   -0.2154 C   0  0  0  0  0  0  0  0  0  0  0  0
   -0.8073   -0.9342   -0.5439 C   0  0  0  0  0  0  0  0  0  0  0  0
   -2.2508    4.6838    0.1073 H   0  0  0  0  0  0  0  0  0  0  0  0
    1.4079    2.0717    0.6182 H   0  0  0  0  0  0  0  0  0  0  0  0
    0.9901   -2.0965   -0.2638 H   0  0  0  0  0  0  0  0  0  0  0  0
   -1.4434   -1.7518   -0.8701 H   0  0  0  0  0  0  0  0  0  0  0  0
   -2.9288    5.3759    0.0137 O   0  0  0  0  0  0  0  0  0  0  0  0
   -4.0444    4.8064   -0.4426 C   0  0  0  0  0  0  0  0  0  0  0  0
   -4.2066    3.6407   -0.7033 O   0  0  0  0  0  0  0  0  0  0  0  0
   -5.1539    5.8698   -0.5985 C   0  0  0  0  0  0  0  0  0  0  0  0
   -6.2597    5.3129   -1.0961 F   0  0  0  0  0  0  0  0  0  0  0  0
   -5.4427    6.4149    0.5958 F   0  0  0  0  0  0  0  0  0  0  0  0
   -4.7511    6.8484   -1.4264 F   0  0  0  0  0  0  0  0  0  0  0  0
  1  4  1  0  0  0  0
  2  1  1  0  0  0  0
  3  2  1  0  0  0  0
  4  5  2  0  0  0  0
  5 13  1  0  0  0  0
  6  5  1  0  0  0  0
  6  7  1  0  0  0  0
  7  8  2  0  0  0  0
  9  7  2  0  0  0  0
 10  6  2  0  0  0  0
 11  1  2  0  0  0  0
 11 10  1  0  0  0  0
 14 10  1  0  0  0  0
 15 11  1  0  0  0  0
 16 12  1  0  0  0  0
 17 16  1  0  0  0  0
 18 17  2  0  0  0  0
 19 17  1  0  0  0  0
 19 21  1  0  0  0  0
 20 19  1  0  0  0  0
 22 19  1  0  0  0  0
M  RAD  3   2   2   3   3   4   2
M  END
