Coordinates from ORCA-job 4-NO2PhN2+~CF3COO-_B3LYPG-6-31G_dp-CH-Scan-d09-49-n800
 OpenBabel11261919433D

 22 21  0  0  0  0  0  0  0  0999 V2000
   -1.1787    0.4153   -0.4757 C   0  0  0  0  0  0  0  0  0  0  0  0
   -2.5090    0.6934   -0.8392 N   0  0  0  0  0  0  0  0  0  0  0  0
   -3.5527    0.9782   -1.1149 N   0  0  0  0  0  0  0  0  0  0  0  0
   -0.4783    1.5622   -0.0974 C   0  0  0  0  0  0  0  0  0  0  0  0
    0.8577    1.2068    0.2607 C   0  0  0  0  0  0  0  0  0  0  0  0
    1.3110   -0.1030    0.2166 C   0  0  0  0  0  0  0  0  0  0  0  0
    2.7137   -0.4007    0.6105 N   0  0  0  0  0  0  0  0  0  0  0  0
    3.4192    0.5400    0.9624 O   0  0  0  0  0  0  0  0  0  0  0  0
    3.0805   -1.5745    0.5597 O   0  0  0  0  0  0  0  0  0  0  0  0
    0.5166   -1.2001   -0.1845 C   0  0  0  0  0  0  0  0  0  0  0  0
   -0.7851   -0.9477   -0.5499 C   0  0  0  0  0  0  0  0  0  0  0  0
   -2.2548    5.1261    0.0209 H   0  0  0  0  0  0  0  0  0  0  0  0
    1.5619    1.9682    0.5839 H   0  0  0  0  0  0  0  0  0  0  0  0
    0.9406   -2.1952   -0.1955 H   0  0  0  0  0  0  0  0  0  0  0  0
   -1.4565   -1.7389   -0.8708 H   0  0  0  0  0  0  0  0  0  0  0  0
   -3.0327    5.7063   -0.0468 O   0  0  0  0  0  0  0  0  0  0  0  0
   -4.0697    4.9638   -0.4407 C   0  0  0  0  0  0  0  0  0  0  0  0
   -4.0600    3.7827   -0.6778 O   0  0  0  0  0  0  0  0  0  0  0  0
   -5.3334    5.8435   -0.5598 C   0  0  0  0  0  0  0  0  0  0  0  0
   -6.3748    5.1023   -0.9428 F   0  0  0  0  0  0  0  0  0  0  0  0
   -5.6175    6.4127    0.6239 F   0  0  0  0  0  0  0  0  0  0  0  0
   -5.1376    6.8177   -1.4646 F   0  0  0  0  0  0  0  0  0  0  0  0
  1  4  1  0  0  0  0
  2  1  1  0  0  0  0
  3  2  1  0  0  0  0
  4  5  2  0  0  0  0
  5 13  1  0  0  0  0
  6  5  1  0  0  0  0
  6  7  1  0  0  0  0
  7  8  2  0  0  0  0
  9  7  2  0  0  0  0
 10  6  2  0  0  0  0
 11  1  2  0  0  0  0
 11 10  1  0  0  0  0
 14 10  1  0  0  0  0
 15 11  1  0  0  0  0
 16 12  1  0  0  0  0
 17 16  1  0  0  0  0
 18 17  2  0  0  0  0
 19 17  1  0  0  0  0
 19 21  1  0  0  0  0
 20 19  1  0  0  0  0
 22 19  1  0  0  0  0
M  RAD  3   2   2   3   3   4   2
M  END
