Coordinates from ORCA-job 4-NO2PhN2+~CF3COO-_B3LYPG-6-31G_dp-CH-Scan-d09-49-n800
 OpenBabel11261919433D

 22 22  0  0  0  0  0  0  0  0999 V2000
   -1.7049    0.7267   -0.3506 C   0  0  0  0  0  0  0  0  0  0  0  0
   -3.0861    0.6361   -0.6398 N   0  0  0  0  0  0  0  0  0  0  0  0
   -4.0036    1.3753   -0.7671 N   0  0  0  0  0  0  0  0  0  0  0  0
   -0.9961    1.9293   -0.1586 C   0  0  0  0  0  0  0  0  0  0  0  0
    0.3688    1.8535    0.1049 C   0  0  0  0  0  0  0  0  0  0  0  0
    0.9890    0.6081    0.1756 C   0  0  0  0  0  0  0  0  0  0  0  0
    2.4399    0.5508    0.4592 N   0  0  0  0  0  0  0  0  0  0  0  0
    3.0265    1.6180    0.6157 O   0  0  0  0  0  0  0  0  0  0  0  0
    2.9577   -0.5613    0.5184 O   0  0  0  0  0  0  0  0  0  0  0  0
    0.2978   -0.5863   -0.0116 C   0  0  0  0  0  0  0  0  0  0  0  0
   -1.0633   -0.5199   -0.2802 C   0  0  0  0  0  0  0  0  0  0  0  0
   -1.4441    2.7826   -0.2099 H   0  0  0  0  0  0  0  0  0  0  0  0
    0.9568    2.7498    0.2585 H   0  0  0  0  0  0  0  0  0  0  0  0
    0.8254   -1.5294    0.0520 H   0  0  0  0  0  0  0  0  0  0  0  0
   -1.6471   -1.4193   -0.4389 H   0  0  0  0  0  0  0  0  0  0  0  0
   -3.5493    2.9686   -0.4670 O   0  0  0  0  0  0  0  0  0  0  0  0
   -4.4650    3.8353   -0.8806 C   0  0  0  0  0  0  0  0  0  0  0  0
   -5.4687    3.6413   -1.5171 O   0  0  0  0  0  0  0  0  0  0  0  0
   -4.0628    5.2544   -0.3897 C   0  0  0  0  0  0  0  0  0  0  0  0
   -4.7529    6.1933   -1.0391 F   0  0  0  0  0  0  0  0  0  0  0  0
   -4.3120    5.3709    0.9287 F   0  0  0  0  0  0  0  0  0  0  0  0
   -2.7454    5.4815   -0.5844 F   0  0  0  0  0  0  0  0  0  0  0  0
  1 11  2  0  0  0  0
  1  4  1  0  0  0  0
  2  1  1  0  0  0  0
  3  2  1  0  0  0  0
  3 16  1  0  0  0  0
  4  5  2  0  0  0  0
  5  6  1  0  0  0  0
  5 13  1  0  0  0  0
  6  7  1  0  0  0  0
  7  9  2  0  0  0  0
  7  8  2  0  0  0  0
 10 14  1  0  0  0  0
 10  6  2  0  0  0  0
 11 10  1  0  0  0  0
 12  4  1  0  0  0  0
 15 11  1  0  0  0  0
 17 16  1  0  0  0  0
 17 19  1  0  0  0  0
 18 17  2  0  0  0  0
 19 21  1  0  0  0  0
 20 19  1  0  0  0  0
 22 19  1  0  0  0  0
M  RAD  2   2   2   3   2
M  END
