Coordinates from ORCA-job 4-NO2PhN2+~CF3COO-_B3LYPG-6-31G_dp-CH-Scan-d09-49-n800
 OpenBabel11261919433D

 22 21  0  0  0  0  0  0  0  0999 V2000
   -1.3194    0.4087   -0.4326 C   0  0  0  0  0  0  0  0  0  0  0  0
   -2.6719    0.5900   -0.7657 N   0  0  0  0  0  0  0  0  0  0  0  0
   -3.7407    0.7924   -1.0146 N   0  0  0  0  0  0  0  0  0  0  0  0
   -0.6946    1.5919   -0.0304 C   0  0  0  0  0  0  0  0  0  0  0  0
    0.6695    1.3312    0.2940 C   0  0  0  0  0  0  0  0  0  0  0  0
    1.2196    0.0617    0.1991 C   0  0  0  0  0  0  0  0  0  0  0  0
    2.6492   -0.1389    0.5565 N   0  0  0  0  0  0  0  0  0  0  0  0
    3.2871    0.8417    0.9271 O   0  0  0  0  0  0  0  0  0  0  0  0
    3.1029   -1.2785    0.4588 O   0  0  0  0  0  0  0  0  0  0  0  0
    0.5023   -1.0794   -0.2212 C   0  0  0  0  0  0  0  0  0  0  0  0
   -0.8223   -0.9162   -0.5542 C   0  0  0  0  0  0  0  0  0  0  0  0
   -2.2323    4.4562    0.0815 H   0  0  0  0  0  0  0  0  0  0  0  0
    1.3192    2.1341    0.6297 H   0  0  0  0  0  0  0  0  0  0  0  0
    1.0000   -2.0386   -0.2717 H   0  0  0  0  0  0  0  0  0  0  0  0
   -1.4380   -1.7468   -0.8862 H   0  0  0  0  0  0  0  0  0  0  0  0
   -2.8643    5.1945    0.0115 O   0  0  0  0  0  0  0  0  0  0  0  0
   -4.0180    4.7156   -0.4490 C   0  0  0  0  0  0  0  0  0  0  0  0
   -4.2642    3.5708   -0.7387 O   0  0  0  0  0  0  0  0  0  0  0  0
   -5.0507    5.8572   -0.5761 C   0  0  0  0  0  0  0  0  0  0  0  0
   -6.2156    5.3797   -1.0188 F   0  0  0  0  0  0  0  0  0  0  0  0
   -5.2483    6.4427    0.6176 F   0  0  0  0  0  0  0  0  0  0  0  0
   -4.6089    6.7891   -1.4383 F   0  0  0  0  0  0  0  0  0  0  0  0
  1  4  1  0  0  0  0
  2  1  1  0  0  0  0
  3  2  1  0  0  0  0
  4  5  2  0  0  0  0
  5 13  1  0  0  0  0
  6  5  1  0  0  0  0
  6  7  1  0  0  0  0
  7  8  2  0  0  0  0
  9  7  2  0  0  0  0
 10  6  2  0  0  0  0
 11  1  2  0  0  0  0
 11 10  1  0  0  0  0
 14 10  1  0  0  0  0
 15 11  1  0  0  0  0
 16 12  1  0  0  0  0
 17 16  1  0  0  0  0
 18 17  2  0  0  0  0
 19 17  1  0  0  0  0
 19 21  1  0  0  0  0
 20 19  1  0  0  0  0
 22 19  1  0  0  0  0
M  RAD  3   2   2   3   3   4   2
M  END
