Coordinates from ORCA-job 4-NO2PhN2+~CF3COO-_B3LYPG-6-31G_dp-CH-Scan-d09-49-n800
 OpenBabel11261919433D

 22 21  0  0  0  0  0  0  0  0999 V2000
   -1.1662    0.4184   -0.4843 C   0  0  0  0  0  0  0  0  0  0  0  0
   -2.4929    0.7051   -0.8545 N   0  0  0  0  0  0  0  0  0  0  0  0
   -3.5330    0.9968   -1.1366 N   0  0  0  0  0  0  0  0  0  0  0  0
   -0.4577    1.5622   -0.1121 C   0  0  0  0  0  0  0  0  0  0  0  0
    0.8745    1.1984    0.2520 C   0  0  0  0  0  0  0  0  0  0  0  0
    1.3172   -0.1154    0.2185 C   0  0  0  0  0  0  0  0  0  0  0  0
    2.7164   -0.4216    0.6181 N   0  0  0  0  0  0  0  0  0  0  0  0
    3.4286    0.5157    0.9656 O   0  0  0  0  0  0  0  0  0  0  0  0
    3.0739   -1.5987    0.5762 O   0  0  0  0  0  0  0  0  0  0  0  0
    0.5148   -1.2089   -0.1767 C   0  0  0  0  0  0  0  0  0  0  0  0
   -0.7837   -0.9484   -0.5476 C   0  0  0  0  0  0  0  0  0  0  0  0
   -2.2601    5.1800    0.0147 H   0  0  0  0  0  0  0  0  0  0  0  0
    1.5841    1.9563    0.5716 H   0  0  0  0  0  0  0  0  0  0  0  0
    0.9307   -2.2075   -0.1795 H   0  0  0  0  0  0  0  0  0  0  0  0
   -1.4607   -1.7364   -0.8647 H   0  0  0  0  0  0  0  0  0  0  0  0
   -3.0494    5.7451   -0.0488 O   0  0  0  0  0  0  0  0  0  0  0  0
   -4.0735    4.9826   -0.4389 C   0  0  0  0  0  0  0  0  0  0  0  0
   -4.0415    3.8023   -0.6771 O   0  0  0  0  0  0  0  0  0  0  0  0
   -5.3541    5.8381   -0.5538 C   0  0  0  0  0  0  0  0  0  0  0  0
   -6.3846    5.0754   -0.9239 F   0  0  0  0  0  0  0  0  0  0  0  0
   -5.6399    6.4110    0.6275 F   0  0  0  0  0  0  0  0  0  0  0  0
   -5.1823    6.8090   -1.4673 F   0  0  0  0  0  0  0  0  0  0  0  0
  1  4  1  0  0  0  0
  2  1  1  0  0  0  0
  3  2  1  0  0  0  0
  4  5  2  0  0  0  0
  5 13  1  0  0  0  0
  6  5  1  0  0  0  0
  6  7  1  0  0  0  0
  7  8  2  0  0  0  0
  9  7  2  0  0  0  0
 10  6  2  0  0  0  0
 11  1  2  0  0  0  0
 11 10  1  0  0  0  0
 14 10  1  0  0  0  0
 15 11  1  0  0  0  0
 16 12  1  0  0  0  0
 17 16  1  0  0  0  0
 18 17  2  0  0  0  0
 19 17  1  0  0  0  0
 19 21  1  0  0  0  0
 20 19  1  0  0  0  0
 22 19  1  0  0  0  0
M  RAD  3   2   2   3   3   4   2
M  END
