Coordinates from ORCA-job 4-NO2PhN2+~CF3COO-_B3LYPG-6-31G_dp-CH-Scan-d09-49-n800
 OpenBabel11261919433D

 22 21  0  0  0  0  0  0  0  0999 V2000
   -1.5699    0.4683   -0.4633 C   0  0  0  0  0  0  0  0  0  0  0  0
   -2.9266    0.5074   -0.8093 N   0  0  0  0  0  0  0  0  0  0  0  0
   -4.0051    0.6087   -1.0719 N   0  0  0  0  0  0  0  0  0  0  0  0
   -1.0432    1.7071   -0.0807 C   0  0  0  0  0  0  0  0  0  0  0  0
    0.3327    1.5853    0.2538 C   0  0  0  0  0  0  0  0  0  0  0  0
    0.9979    0.3695    0.1854 C   0  0  0  0  0  0  0  0  0  0  0  0
    2.4391    0.3112    0.5479 N   0  0  0  0  0  0  0  0  0  0  0  0
    2.9790    1.3546    0.8999 O   0  0  0  0  0  0  0  0  0  0  0  0
    2.9958   -0.7828    0.4705 O   0  0  0  0  0  0  0  0  0  0  0  0
    0.3890   -0.8372   -0.2122 C   0  0  0  0  0  0  0  0  0  0  0  0
   -0.9447   -0.8020   -0.5517 C   0  0  0  0  0  0  0  0  0  0  0  0
   -2.0981    3.5355   -0.0282 H   0  0  0  0  0  0  0  0  0  0  0  0
    0.8995    2.4536    0.5743 H   0  0  0  0  0  0  0  0  0  0  0  0
    0.9704   -1.7491   -0.2429 H   0  0  0  0  0  0  0  0  0  0  0  0
   -1.4792   -1.6924   -0.8677 H   0  0  0  0  0  0  0  0  0  0  0  0
   -2.5642    4.4226   -0.0104 O   0  0  0  0  0  0  0  0  0  0  0  0
   -3.7897    4.2972   -0.4746 C   0  0  0  0  0  0  0  0  0  0  0  0
   -4.3380    3.2884   -0.8658 O   0  0  0  0  0  0  0  0  0  0  0  0
   -4.5104    5.6648   -0.4709 C   0  0  0  0  0  0  0  0  0  0  0  0
   -5.7594    5.5402   -0.9302 F   0  0  0  0  0  0  0  0  0  0  0  0
   -4.5613    6.1658    0.7769 F   0  0  0  0  0  0  0  0  0  0  0  0
   -3.8530    6.5426   -1.2506 F   0  0  0  0  0  0  0  0  0  0  0  0
  1  4  1  0  0  0  0
  2  1  1  0  0  0  0
  3  2  1  0  0  0  0
  4  5  2  0  0  0  0
  5 13  1  0  0  0  0
  6  5  1  0  0  0  0
  6  7  1  0  0  0  0
  7  8  2  0  0  0  0
  9  7  2  0  0  0  0
 10  6  2  0  0  0  0
 11  1  2  0  0  0  0
 11 10  1  0  0  0  0
 12 16  1  0  0  0  0
 14 10  1  0  0  0  0
 15 11  1  0  0  0  0
 17 19  1  0  0  0  0
 17 16  1  0  0  0  0
 18 17  2  0  0  0  0
 19 21  1  0  0  0  0
 20 19  1  0  0  0  0
 22 19  1  0  0  0  0
M  RAD  3   2   2   3   3   4   2
M  END
