Coordinates from ORCA-job 4-NO2PhN2+~CF3COO-_B3LYPG-6-31G_dp-CH-Scan-d09-49-n800
 OpenBabel11261919433D

 22 21  0  0  0  0  0  0  0  0999 V2000
   -0.8183    1.0418   -1.6103 C   0  0  0  0  0  0  0  0  0  0  0  0
   -1.6998    1.3991   -2.6460 N   0  0  0  0  0  0  0  0  0  0  0  0
   -2.3270    1.6982   -3.5197 N   0  0  0  0  0  0  0  0  0  0  0  0
    0.5108    1.2309   -1.9872 C   0  0  0  0  0  0  0  0  0  0  0  0
    1.3701    0.8388   -0.9157 C   0  0  0  0  0  0  0  0  0  0  0  0
    0.8738    0.3342    0.2773 C   0  0  0  0  0  0  0  0  0  0  0  0
    1.8244   -0.0715    1.3462 N   0  0  0  0  0  0  0  0  0  0  0  0
    3.0250    0.0143    1.1063 O   0  0  0  0  0  0  0  0  0  0  0  0
    1.3477   -0.4623    2.4122 O   0  0  0  0  0  0  0  0  0  0  0  0
   -0.5030    0.1853    0.5608 C   0  0  0  0  0  0  0  0  0  0  0  0
   -1.4028    0.5545   -0.4120 C   0  0  0  0  0  0  0  0  0  0  0  0
   -1.9450    4.9918   -0.4581 H   0  0  0  0  0  0  0  0  0  0  0  0
    2.4490    0.9256   -1.0151 H   0  0  0  0  0  0  0  0  0  0  0  0
   -0.8138   -0.2048    1.5204 H   0  0  0  0  0  0  0  0  0  0  0  0
   -2.4766    0.4894   -0.2663 H   0  0  0  0  0  0  0  0  0  0  0  0
   -2.7965    5.1557   -0.0167 O   0  0  0  0  0  0  0  0  0  0  0  0
   -3.6025    4.1248   -0.2729 C   0  0  0  0  0  0  0  0  0  0  0  0
   -3.3329    3.1563   -0.9393 O   0  0  0  0  0  0  0  0  0  0  0  0
   -4.9748    4.3382    0.4034 C   0  0  0  0  0  0  0  0  0  0  0  0
   -5.7541    3.2749    0.2003 F   0  0  0  0  0  0  0  0  0  0  0  0
   -4.8200    4.5206    1.7237 F   0  0  0  0  0  0  0  0  0  0  0  0
   -5.5733    5.4235   -0.1132 F   0  0  0  0  0  0  0  0  0  0  0  0
  1 11  1  0  0  0  0
  2  1  1  0  0  0  0
  3  2  1  0  0  0  0
  4  1  2  0  0  0  0
  4  5  1  0  0  0  0
  5  6  2  0  0  0  0
  6 10  1  0  0  0  0
  6  7  1  0  0  0  0
  7  9  2  0  0  0  0
  8  7  2  0  0  0  0
 10 14  1  0  0  0  0
 11 15  1  0  0  0  0
 11 10  2  0  0  0  0
 12 16  1  0  0  0  0
 13  5  1  0  0  0  0
 17 16  1  0  0  0  0
 17 19  1  0  0  0  0
 18 17  2  0  0  0  0
 19 21  1  0  0  0  0
 20 19  1  0  0  0  0
 22 19  1  0  0  0  0
M  RAD  3   2   2   3   3   4   2
M  END
