Coordinates from ORCA-job 4-NO2PhN2+~CF3COO-_B3LYPG-6-31G_dp-CH-Scan-d09-49-n800
 OpenBabel11261919433D

 22 21  0  0  0  0  0  0  0  0999 V2000
   -1.6235    0.4830   -0.4651 C   0  0  0  0  0  0  0  0  0  0  0  0
   -2.9812    0.4959   -0.8076 N   0  0  0  0  0  0  0  0  0  0  0  0
   -4.0610    0.5904   -1.0666 N   0  0  0  0  0  0  0  0  0  0  0  0
   -1.1143    1.7307   -0.0872 C   0  0  0  0  0  0  0  0  0  0  0  0
    0.2628    1.6372    0.2442 C   0  0  0  0  0  0  0  0  0  0  0  0
    0.9498    0.4331    0.1785 C   0  0  0  0  0  0  0  0  0  0  0  0
    2.3925    0.4028    0.5381 N   0  0  0  0  0  0  0  0  0  0  0  0
    2.9117    1.4564    0.8903 O   0  0  0  0  0  0  0  0  0  0  0  0
    2.9679   -0.6817    0.4664 O   0  0  0  0  0  0  0  0  0  0  0  0
    0.3616   -0.7845   -0.2135 C   0  0  0  0  0  0  0  0  0  0  0  0
   -0.9739   -0.7741   -0.5499 C   0  0  0  0  0  0  0  0  0  0  0  0
   -2.0586    3.3570   -0.0367 H   0  0  0  0  0  0  0  0  0  0  0  0
    0.8126    2.5181    0.5599 H   0  0  0  0  0  0  0  0  0  0  0  0
    0.9585   -1.6864   -0.2428 H   0  0  0  0  0  0  0  0  0  0  0  0
   -1.4929   -1.6748   -0.8618 H   0  0  0  0  0  0  0  0  0  0  0  0
   -2.5105    4.2772   -0.0028 O   0  0  0  0  0  0  0  0  0  0  0  0
   -3.7300    4.2149   -0.4778 C   0  0  0  0  0  0  0  0  0  0  0  0
   -4.3227    3.2406   -0.8999 O   0  0  0  0  0  0  0  0  0  0  0  0
   -4.3981    5.6097   -0.4540 C   0  0  0  0  0  0  0  0  0  0  0  0
   -5.6450    5.5474   -0.9333 F   0  0  0  0  0  0  0  0  0  0  0  0
   -4.4488    6.0864    0.8041 F   0  0  0  0  0  0  0  0  0  0  0  0
   -3.6963    6.4799   -1.2042 F   0  0  0  0  0  0  0  0  0  0  0  0
  1  4  1  0  0  0  0
  2  1  1  0  0  0  0
  3  2  1  0  0  0  0
  4  5  2  0  0  0  0
  5 13  1  0  0  0  0
  6  5  1  0  0  0  0
  6  7  1  0  0  0  0
  7  8  2  0  0  0  0
  9  7  2  0  0  0  0
 10  6  2  0  0  0  0
 11  1  2  0  0  0  0
 11 10  1  0  0  0  0
 12 16  1  0  0  0  0
 14 10  1  0  0  0  0
 15 11  1  0  0  0  0
 17 19  1  0  0  0  0
 17 16  1  0  0  0  0
 18 17  2  0  0  0  0
 19 21  1  0  0  0  0
 20 19  1  0  0  0  0
 22 19  1  0  0  0  0
M  RAD  3   2   2   3   3   4   2
M  END
