Coordinates from ORCA-job 4-NO2PhN2+~CF3COO-_B3LYPG-6-31G_dp-CH-Scan-d09-49-n800
 OpenBabel11261919433D

 22 22  0  0  0  0  0  0  0  0999 V2000
   -1.6723    0.7173   -0.3190 C   0  0  0  0  0  0  0  0  0  0  0  0
   -3.0557    0.6587   -0.5893 N   0  0  0  0  0  0  0  0  0  0  0  0
   -3.9884    1.3670   -0.7098 N   0  0  0  0  0  0  0  0  0  0  0  0
   -0.9434    1.9031   -0.1160 C   0  0  0  0  0  0  0  0  0  0  0  0
    0.4216    1.8194    0.1279 C   0  0  0  0  0  0  0  0  0  0  0  0
    1.0263    0.5638    0.1691 C   0  0  0  0  0  0  0  0  0  0  0  0
    2.4808    0.4848    0.4332 N   0  0  0  0  0  0  0  0  0  0  0  0
    3.0809    1.5423    0.6014 O   0  0  0  0  0  0  0  0  0  0  0  0
    2.9859   -0.6341    0.4660 O   0  0  0  0  0  0  0  0  0  0  0  0
    0.3201   -0.6206   -0.0285 C   0  0  0  0  0  0  0  0  0  0  0  0
   -1.0438   -0.5382   -0.2777 C   0  0  0  0  0  0  0  0  0  0  0  0
   -1.5305    2.9950   -0.1586 H   0  0  0  0  0  0  0  0  0  0  0  0
    1.0215    2.7060    0.2885 H   0  0  0  0  0  0  0  0  0  0  0  0
    0.8394   -1.5694    0.0128 H   0  0  0  0  0  0  0  0  0  0  0  0
   -1.6376   -1.4300   -0.4432 H   0  0  0  0  0  0  0  0  0  0  0  0
   -3.5767    3.0234   -0.3931 O   0  0  0  0  0  0  0  0  0  0  0  0
   -4.4734    3.8539   -0.8949 C   0  0  0  0  0  0  0  0  0  0  0  0
   -5.4201    3.6229   -1.6061 O   0  0  0  0  0  0  0  0  0  0  0  0
   -4.1475    5.2963   -0.4126 C   0  0  0  0  0  0  0  0  0  0  0  0
   -4.8260    6.2012   -1.1206 F   0  0  0  0  0  0  0  0  0  0  0  0
   -4.4735    5.4349    0.8867 F   0  0  0  0  0  0  0  0  0  0  0  0
   -2.8273    5.5616   -0.5380 F   0  0  0  0  0  0  0  0  0  0  0  0
  1 11  2  0  0  0  0
  1  4  1  0  0  0  0
  2  1  1  0  0  0  0
  3  2  1  0  0  0  0
  3 16  1  0  0  0  0
  4  5  2  0  0  0  0
  5  6  1  0  0  0  0
  5 13  1  0  0  0  0
  6  7  1  0  0  0  0
  7  9  2  0  0  0  0
  7  8  2  0  0  0  0
 10 14  1  0  0  0  0
 10  6  2  0  0  0  0
 11 10  1  0  0  0  0
 12  4  1  0  0  0  0
 15 11  1  0  0  0  0
 17 19  1  0  0  0  0
 17 16  1  0  0  0  0
 18 17  2  0  0  0  0
 19 21  1  0  0  0  0
 20 19  1  0  0  0  0
 22 19  1  0  0  0  0
M  RAD  2   2   2   3   2
M  END
