Coordinates from ORCA-job 4-NO2PhN2+~CF3COO-_B3LYPG-6-31G_dp-CH-Scan-d09-49-n800
 OpenBabel11261919433D

 22 22  0  0  0  0  0  0  0  0999 V2000
   -1.6802    0.7230   -0.3309 C   0  0  0  0  0  0  0  0  0  0  0  0
   -3.0629    0.6540   -0.6086 N   0  0  0  0  0  0  0  0  0  0  0  0
   -3.9913    1.3718   -0.7319 N   0  0  0  0  0  0  0  0  0  0  0  0
   -0.9548    1.9131   -0.1335 C   0  0  0  0  0  0  0  0  0  0  0  0
    0.4100    1.8291    0.1176 C   0  0  0  0  0  0  0  0  0  0  0  0
    1.0169    0.5755    0.1714 C   0  0  0  0  0  0  0  0  0  0  0  0
    2.4700    0.5009    0.4426 N   0  0  0  0  0  0  0  0  0  0  0  0
    3.0678    1.5605    0.6066 O   0  0  0  0  0  0  0  0  0  0  0  0
    2.9764   -0.6170    0.4887 O   0  0  0  0  0  0  0  0  0  0  0  0
    0.3130   -0.6109   -0.0207 C   0  0  0  0  0  0  0  0  0  0  0  0
   -1.0496   -0.5309   -0.2772 C   0  0  0  0  0  0  0  0  0  0  0  0
   -1.4986    2.9426   -0.1826 H   0  0  0  0  0  0  0  0  0  0  0  0
    1.0081    2.7178    0.2742 H   0  0  0  0  0  0  0  0  0  0  0  0
    0.8327   -1.5590    0.0302 H   0  0  0  0  0  0  0  0  0  0  0  0
   -1.6421   -1.4240   -0.4390 H   0  0  0  0  0  0  0  0  0  0  0  0
   -3.5678    3.0063   -0.4214 O   0  0  0  0  0  0  0  0  0  0  0  0
   -4.4751    3.8476   -0.8904 C   0  0  0  0  0  0  0  0  0  0  0  0
   -5.4435    3.6279   -1.5741 O   0  0  0  0  0  0  0  0  0  0  0  0
   -4.1257    5.2826   -0.4034 C   0  0  0  0  0  0  0  0  0  0  0  0
   -4.8076    6.1986   -1.0934 F   0  0  0  0  0  0  0  0  0  0  0  0
   -4.4298    5.4133    0.9021 F   0  0  0  0  0  0  0  0  0  0  0  0
   -2.8057    5.5365   -0.5481 F   0  0  0  0  0  0  0  0  0  0  0  0
  1 11  2  0  0  0  0
  1  4  1  0  0  0  0
  2  1  1  0  0  0  0
  3  2  1  0  0  0  0
  3 16  1  0  0  0  0
  4  5  2  0  0  0  0
  5  6  1  0  0  0  0
  5 13  1  0  0  0  0
  6  7  1  0  0  0  0
  7  9  2  0  0  0  0
  7  8  2  0  0  0  0
 10 14  1  0  0  0  0
 10  6  2  0  0  0  0
 11 10  1  0  0  0  0
 12  4  1  0  0  0  0
 15 11  1  0  0  0  0
 17 16  1  0  0  0  0
 17 19  1  0  0  0  0
 18 17  2  0  0  0  0
 19 21  1  0  0  0  0
 20 19  1  0  0  0  0
 22 19  1  0  0  0  0
M  RAD  2   2   2   3   2
M  END
