Coordinates from ORCA-job 4-NO2PhN2+~CF3COO-_B3LYPG-6-31G_dp-CH-Scan-d09-49-n800
 OpenBabel11261919433D

 22 21  0  0  0  0  0  0  0  0999 V2000
   -1.3552    0.4158   -0.4368 C   0  0  0  0  0  0  0  0  0  0  0  0
   -2.7091    0.5752   -0.7723 N   0  0  0  0  0  0  0  0  0  0  0  0
   -3.7802    0.7595   -1.0249 N   0  0  0  0  0  0  0  0  0  0  0  0
   -0.7463    1.6074   -0.0337 C   0  0  0  0  0  0  0  0  0  0  0  0
    0.6204    1.3674    0.2929 C   0  0  0  0  0  0  0  0  0  0  0  0
    1.1891    0.1060    0.1986 C   0  0  0  0  0  0  0  0  0  0  0  0
    2.6212   -0.0734    0.5574 N   0  0  0  0  0  0  0  0  0  0  0  0
    3.2438    0.9166    0.9288 O   0  0  0  0  0  0  0  0  0  0  0  0
    3.0917   -1.2061    0.4593 O   0  0  0  0  0  0  0  0  0  0  0  0
    0.4891   -1.0450   -0.2224 C   0  0  0  0  0  0  0  0  0  0  0  0
   -0.8374   -0.9013   -0.5570 C   0  0  0  0  0  0  0  0  0  0  0  0
   -2.2138    4.3109    0.0653 H   0  0  0  0  0  0  0  0  0  0  0  0
    1.2573    2.1799    0.6295 H   0  0  0  0  0  0  0  0  0  0  0  0
    1.0006   -1.9970   -0.2724 H   0  0  0  0  0  0  0  0  0  0  0  0
   -1.4404   -1.7409   -0.8896 H   0  0  0  0  0  0  0  0  0  0  0  0
   -2.8174    5.0752    0.0101 O   0  0  0  0  0  0  0  0  0  0  0  0
   -3.9901    4.6528   -0.4539 C   0  0  0  0  0  0  0  0  0  0  0  0
   -4.2862    3.5243   -0.7621 O   0  0  0  0  0  0  0  0  0  0  0  0
   -4.9748    5.8380   -0.5608 C   0  0  0  0  0  0  0  0  0  0  0  0
   -6.1657    5.4130   -0.9883 F   0  0  0  0  0  0  0  0  0  0  0  0
   -5.1303    6.4272    0.6372 F   0  0  0  0  0  0  0  0  0  0  0  0
   -4.5059    6.7537   -1.4266 F   0  0  0  0  0  0  0  0  0  0  0  0
  1  4  1  0  0  0  0
  2  1  1  0  0  0  0
  3  2  1  0  0  0  0
  4  5  2  0  0  0  0
  5 13  1  0  0  0  0
  6  5  1  0  0  0  0
  6  7  1  0  0  0  0
  7  8  2  0  0  0  0
  9  7  2  0  0  0  0
 10  6  2  0  0  0  0
 11  1  2  0  0  0  0
 11 10  1  0  0  0  0
 14 10  1  0  0  0  0
 15 11  1  0  0  0  0
 16 12  1  0  0  0  0
 17 16  1  0  0  0  0
 18 17  2  0  0  0  0
 19 17  1  0  0  0  0
 19 21  1  0  0  0  0
 20 19  1  0  0  0  0
 22 19  1  0  0  0  0
M  RAD  3   2   2   3   3   4   2
M  END
