Coordinates from ORCA-job 4-NO2PhN2+~CF3COO-_B3LYPG-6-31G_dp-CH-Scan-d09-49-n800
 OpenBabel11261919433D

 22 22  0  0  0  0  0  0  0  0999 V2000
   -1.6843    0.7243   -0.3347 C   0  0  0  0  0  0  0  0  0  0  0  0
   -3.0666    0.6514   -0.6150 N   0  0  0  0  0  0  0  0  0  0  0  0
   -3.9932    1.3728   -0.7395 N   0  0  0  0  0  0  0  0  0  0  0  0
   -0.9615    1.9167   -0.1385 C   0  0  0  0  0  0  0  0  0  0  0  0
    0.4033    1.8335    0.1152 C   0  0  0  0  0  0  0  0  0  0  0  0
    1.0121    0.5812    0.1726 C   0  0  0  0  0  0  0  0  0  0  0  0
    2.4648    0.5092    0.4465 N   0  0  0  0  0  0  0  0  0  0  0  0
    3.0612    1.5701    0.6075 O   0  0  0  0  0  0  0  0  0  0  0  0
    2.9731   -0.6078    0.4940 O   0  0  0  0  0  0  0  0  0  0  0  0
    0.3102   -0.6065   -0.0183 C   0  0  0  0  0  0  0  0  0  0  0  0
   -1.0521   -0.5285   -0.2774 C   0  0  0  0  0  0  0  0  0  0  0  0
   -1.4851    2.9115   -0.1886 H   0  0  0  0  0  0  0  0  0  0  0  0
    1.0000    2.7232    0.2712 H   0  0  0  0  0  0  0  0  0  0  0  0
    0.8309   -1.5539    0.0353 H   0  0  0  0  0  0  0  0  0  0  0  0
   -1.6433   -1.4226   -0.4385 H   0  0  0  0  0  0  0  0  0  0  0  0
   -3.5644    2.9999   -0.4309 O   0  0  0  0  0  0  0  0  0  0  0  0
   -4.4743    3.8456   -0.8888 C   0  0  0  0  0  0  0  0  0  0  0  0
   -5.4500    3.6305   -1.5630 O   0  0  0  0  0  0  0  0  0  0  0  0
   -4.1155    5.2778   -0.4006 C   0  0  0  0  0  0  0  0  0  0  0  0
   -4.7991    6.1980   -1.0834 F   0  0  0  0  0  0  0  0  0  0  0  0
   -4.4100    5.4058    0.9074 F   0  0  0  0  0  0  0  0  0  0  0  0
   -2.7958    5.5271   -0.5541 F   0  0  0  0  0  0  0  0  0  0  0  0
  1 11  2  0  0  0  0
  1  4  1  0  0  0  0
  2  1  1  0  0  0  0
  3  2  1  0  0  0  0
  3 16  1  0  0  0  0
  4  5  2  0  0  0  0
  5  6  1  0  0  0  0
  5 13  1  0  0  0  0
  6  7  1  0  0  0  0
  7  9  2  0  0  0  0
  7  8  2  0  0  0  0
 10 14  1  0  0  0  0
 10  6  2  0  0  0  0
 11 10  1  0  0  0  0
 12  4  1  0  0  0  0
 15 11  1  0  0  0  0
 17 16  1  0  0  0  0
 17 19  1  0  0  0  0
 18 17  2  0  0  0  0
 19 21  1  0  0  0  0
 20 19  1  0  0  0  0
 22 19  1  0  0  0  0
M  RAD  2   2   2   3   2
M  END
