Coordinates from ORCA-job 4-NO2PhN2+~CF3COO-_B3LYPG-6-31G_dp-CH-Scan-d09-49-n800
 OpenBabel11261919433D

 22 21  0  0  0  0  0  0  0  0999 V2000
   -1.2815    0.4035   -0.4251 C   0  0  0  0  0  0  0  0  0  0  0  0
   -2.6321    0.6102   -0.7542 N   0  0  0  0  0  0  0  0  0  0  0  0
   -3.6974    0.8346   -1.0004 N   0  0  0  0  0  0  0  0  0  0  0  0
   -0.6358    1.5773   -0.0294 C   0  0  0  0  0  0  0  0  0  0  0  0
    0.7251    1.2917    0.2903 C   0  0  0  0  0  0  0  0  0  0  0  0
    1.2517    0.0121    0.1976 C   0  0  0  0  0  0  0  0  0  0  0  0
    2.6788   -0.2136    0.5502 N   0  0  0  0  0  0  0  0  0  0  0  0
    3.3367    0.7568    0.9130 O   0  0  0  0  0  0  0  0  0  0  0  0
    3.1109   -1.3620    0.4565 O   0  0  0  0  0  0  0  0  0  0  0  0
    0.5122   -1.1175   -0.2160 C   0  0  0  0  0  0  0  0  0  0  0  0
   -0.8104   -0.9312   -0.5446 C   0  0  0  0  0  0  0  0  0  0  0  0
   -2.2474    4.6397    0.1044 H   0  0  0  0  0  0  0  0  0  0  0  0
    1.3912    2.0834    0.6207 H   0  0  0  0  0  0  0  0  0  0  0  0
    0.9920   -2.0858   -0.2648 H   0  0  0  0  0  0  0  0  0  0  0  0
   -1.4427   -1.7513   -0.8716 H   0  0  0  0  0  0  0  0  0  0  0  0
   -2.9167    5.3410    0.0153 O   0  0  0  0  0  0  0  0  0  0  0  0
   -4.0397    4.7891   -0.4436 C   0  0  0  0  0  0  0  0  0  0  0  0
   -4.2180    3.6269   -0.7101 O   0  0  0  0  0  0  0  0  0  0  0  0
   -5.1345    5.8682   -0.5953 C   0  0  0  0  0  0  0  0  0  0  0  0
   -6.2504    5.3270   -1.0875 F   0  0  0  0  0  0  0  0  0  0  0  0
   -5.4103    6.4190    0.5995 F   0  0  0  0  0  0  0  0  0  0  0  0
   -4.7210    6.8399   -1.4262 F   0  0  0  0  0  0  0  0  0  0  0  0
  1  4  1  0  0  0  0
  2  1  1  0  0  0  0
  3  2  1  0  0  0  0
  4  5  2  0  0  0  0
  5 13  1  0  0  0  0
  6  5  1  0  0  0  0
  6  7  1  0  0  0  0
  7  8  2  0  0  0  0
  9  7  2  0  0  0  0
 10  6  2  0  0  0  0
 11  1  2  0  0  0  0
 11 10  1  0  0  0  0
 14 10  1  0  0  0  0
 15 11  1  0  0  0  0
 16 12  1  0  0  0  0
 17 16  1  0  0  0  0
 18 17  2  0  0  0  0
 19 17  1  0  0  0  0
 19 21  1  0  0  0  0
 20 19  1  0  0  0  0
 22 19  1  0  0  0  0
M  RAD  3   2   2   3   3   4   2
M  END
