Coordinates from ORCA-job 4-NO2PhN2+~CF3COO-_B3LYPG-6-31G_dp-CH-Scan-d09-49-n800
 OpenBabel11261919433D

 22 22  0  0  0  0  0  0  0  0999 V2000
   -1.6733    0.7179   -0.3198 C   0  0  0  0  0  0  0  0  0  0  0  0
   -3.0566    0.6583   -0.5905 N   0  0  0  0  0  0  0  0  0  0  0  0
   -3.9890    1.3675   -0.7111 N   0  0  0  0  0  0  0  0  0  0  0  0
   -0.9447    1.9042   -0.1173 C   0  0  0  0  0  0  0  0  0  0  0  0
    0.4204    1.8205    0.1270 C   0  0  0  0  0  0  0  0  0  0  0  0
    1.0253    0.5651    0.1691 C   0  0  0  0  0  0  0  0  0  0  0  0
    2.4797    0.4866    0.4336 N   0  0  0  0  0  0  0  0  0  0  0  0
    3.0796    1.5443    0.6015 O   0  0  0  0  0  0  0  0  0  0  0  0
    2.9850   -0.6322    0.4676 O   0  0  0  0  0  0  0  0  0  0  0  0
    0.3193   -0.6195   -0.0280 C   0  0  0  0  0  0  0  0  0  0  0  0
   -1.0445   -0.5374   -0.2776 C   0  0  0  0  0  0  0  0  0  0  0  0
   -1.5263    2.9877   -0.1602 H   0  0  0  0  0  0  0  0  0  0  0  0
    1.0201    2.7073    0.2871 H   0  0  0  0  0  0  0  0  0  0  0  0
    0.8388   -1.5682    0.0141 H   0  0  0  0  0  0  0  0  0  0  0  0
   -1.6381   -1.4293   -0.4427 H   0  0  0  0  0  0  0  0  0  0  0  0
   -3.5761    3.0217   -0.3950 O   0  0  0  0  0  0  0  0  0  0  0  0
   -4.4731    3.8533   -0.8949 C   0  0  0  0  0  0  0  0  0  0  0  0
   -5.4213    3.6234   -1.6043 O   0  0  0  0  0  0  0  0  0  0  0  0
   -4.1454    5.2950   -0.4118 C   0  0  0  0  0  0  0  0  0  0  0  0
   -4.8235    6.2010   -1.1188 F   0  0  0  0  0  0  0  0  0  0  0  0
   -4.4708    5.4329    0.8878 F   0  0  0  0  0  0  0  0  0  0  0  0
   -2.8251    5.5592   -0.5376 F   0  0  0  0  0  0  0  0  0  0  0  0
  1 11  2  0  0  0  0
  1  4  1  0  0  0  0
  2  1  1  0  0  0  0
  3  2  1  0  0  0  0
  3 16  1  0  0  0  0
  4  5  2  0  0  0  0
  5  6  1  0  0  0  0
  5 13  1  0  0  0  0
  6  7  1  0  0  0  0
  7  9  2  0  0  0  0
  7  8  2  0  0  0  0
 10 14  1  0  0  0  0
 10  6  2  0  0  0  0
 11 10  1  0  0  0  0
 12  4  1  0  0  0  0
 15 11  1  0  0  0  0
 17 19  1  0  0  0  0
 17 16  1  0  0  0  0
 18 17  2  0  0  0  0
 19 21  1  0  0  0  0
 20 19  1  0  0  0  0
 22 19  1  0  0  0  0
M  RAD  2   2   2   3   2
M  END
