Coordinates from ORCA-job 4-NO2PhN2+~CF3COO-_B3LYPG-6-31G_dp-CH-Scan-d09-49-n800
 OpenBabel11261919433D

 22 21  0  0  0  0  0  0  0  0999 V2000
   -1.6226    0.4822   -0.4644 C   0  0  0  0  0  0  0  0  0  0  0  0
   -2.9803    0.4953   -0.8071 N   0  0  0  0  0  0  0  0  0  0  0  0
   -4.0601    0.5895   -1.0662 N   0  0  0  0  0  0  0  0  0  0  0  0
   -1.1132    1.7299   -0.0867 C   0  0  0  0  0  0  0  0  0  0  0  0
    0.2638    1.6359    0.2449 C   0  0  0  0  0  0  0  0  0  0  0  0
    0.9505    0.4316    0.1796 C   0  0  0  0  0  0  0  0  0  0  0  0
    2.3932    0.4009    0.5394 N   0  0  0  0  0  0  0  0  0  0  0  0
    2.9137    1.4553    0.8874 O   0  0  0  0  0  0  0  0  0  0  0  0
    2.9692   -0.6830    0.4639 O   0  0  0  0  0  0  0  0  0  0  0  0
    0.3621   -0.7859   -0.2123 C   0  0  0  0  0  0  0  0  0  0  0  0
   -0.9734   -0.7751   -0.5489 C   0  0  0  0  0  0  0  0  0  0  0  0
   -2.0599    3.3606   -0.0367 H   0  0  0  0  0  0  0  0  0  0  0  0
    0.8139    2.5166    0.5606 H   0  0  0  0  0  0  0  0  0  0  0  0
    0.9587   -1.6879   -0.2414 H   0  0  0  0  0  0  0  0  0  0  0  0
   -1.4926   -1.6758   -0.8608 H   0  0  0  0  0  0  0  0  0  0  0  0
   -2.5119    4.2800   -0.0030 O   0  0  0  0  0  0  0  0  0  0  0  0
   -3.7301    4.2177   -0.4818 C   0  0  0  0  0  0  0  0  0  0  0  0
   -4.3217    3.2431   -0.9045 O   0  0  0  0  0  0  0  0  0  0  0  0
   -4.4003    5.6113   -0.4540 C   0  0  0  0  0  0  0  0  0  0  0  0
   -5.6470    5.5483   -0.9335 F   0  0  0  0  0  0  0  0  0  0  0  0
   -4.4517    6.0844    0.8055 F   0  0  0  0  0  0  0  0  0  0  0  0
   -3.6998    6.4846   -1.2017 F   0  0  0  0  0  0  0  0  0  0  0  0
  1  4  1  0  0  0  0
  2  1  1  0  0  0  0
  3  2  1  0  0  0  0
  4  5  2  0  0  0  0
  5 13  1  0  0  0  0
  6  5  1  0  0  0  0
  6  7  1  0  0  0  0
  7  8  2  0  0  0  0
  9  7  2  0  0  0  0
 10  6  2  0  0  0  0
 11  1  2  0  0  0  0
 11 10  1  0  0  0  0
 12 16  1  0  0  0  0
 14 10  1  0  0  0  0
 15 11  1  0  0  0  0
 17 19  1  0  0  0  0
 17 16  1  0  0  0  0
 18 17  2  0  0  0  0
 19 21  1  0  0  0  0
 20 19  1  0  0  0  0
 22 19  1  0  0  0  0
M  RAD  3   2   2   3   3   4   2
M  END
