Coordinates from ORCA-job 4-NO2PhN2+~CF3COO-_B3LYPG-6-31G_dp-CH-Scan-d09-49-n800
 OpenBabel11261919433D

 22 21  0  0  0  0  0  0  0  0999 V2000
   -1.3324    0.4109   -0.4341 C   0  0  0  0  0  0  0  0  0  0  0  0
   -2.6856    0.5838   -0.7678 N   0  0  0  0  0  0  0  0  0  0  0  0
   -3.7552    0.7796   -1.0187 N   0  0  0  0  0  0  0  0  0  0  0  0
   -0.7137    1.5972   -0.0311 C   0  0  0  0  0  0  0  0  0  0  0  0
    0.6514    1.3443    0.2940 C   0  0  0  0  0  0  0  0  0  0  0  0
    1.2087    0.0779    0.1988 C   0  0  0  0  0  0  0  0  0  0  0  0
    2.6393   -0.1146    0.5566 N   0  0  0  0  0  0  0  0  0  0  0  0
    3.2710    0.8693    0.9290 O   0  0  0  0  0  0  0  0  0  0  0  0
    3.0992   -1.2517    0.4591 O   0  0  0  0  0  0  0  0  0  0  0  0
    0.4981   -1.0668   -0.2223 C   0  0  0  0  0  0  0  0  0  0  0  0
   -0.8273   -0.9110   -0.5558 C   0  0  0  0  0  0  0  0  0  0  0  0
   -2.2263    4.4013    0.0761 H   0  0  0  0  0  0  0  0  0  0  0  0
    1.2962    2.1508    0.6304 H   0  0  0  0  0  0  0  0  0  0  0  0
    1.0011   -2.0232   -0.2729 H   0  0  0  0  0  0  0  0  0  0  0  0
   -1.4382   -1.7450   -0.8883 H   0  0  0  0  0  0  0  0  0  0  0  0
   -2.8474    5.1497    0.0117 O   0  0  0  0  0  0  0  0  0  0  0  0
   -4.0087    4.6924   -0.4506 C   0  0  0  0  0  0  0  0  0  0  0  0
   -4.2740    3.5536   -0.7475 O   0  0  0  0  0  0  0  0  0  0  0  0
   -5.0229    5.8512   -0.5706 C   0  0  0  0  0  0  0  0  0  0  0  0
   -6.1989    5.3935   -1.0050 F   0  0  0  0  0  0  0  0  0  0  0  0
   -5.2025    6.4409    0.6238 F   0  0  0  0  0  0  0  0  0  0  0  0
   -4.5713    6.7751   -1.4367 F   0  0  0  0  0  0  0  0  0  0  0  0
  1  4  1  0  0  0  0
  2  1  1  0  0  0  0
  3  2  1  0  0  0  0
  4  5  2  0  0  0  0
  5 13  1  0  0  0  0
  6  5  1  0  0  0  0
  6  7  1  0  0  0  0
  7  8  2  0  0  0  0
  9  7  2  0  0  0  0
 10  6  2  0  0  0  0
 11  1  2  0  0  0  0
 11 10  1  0  0  0  0
 14 10  1  0  0  0  0
 15 11  1  0  0  0  0
 16 12  1  0  0  0  0
 17 16  1  0  0  0  0
 18 17  2  0  0  0  0
 19 17  1  0  0  0  0
 19 21  1  0  0  0  0
 20 19  1  0  0  0  0
 22 19  1  0  0  0  0
M  RAD  3   2   2   3   3   4   2
M  END
