Coordinates from ORCA-job 4-NO2PhN2+~CF3COO-_B3LYPG-6-31G_dp-CH-Scan-d09-49-n800
 OpenBabel11261919433D

 22 21  0  0  0  0  0  0  0  0999 V2000
   -1.4130    0.4329   -0.4467 C   0  0  0  0  0  0  0  0  0  0  0  0
   -2.7677    0.5594   -0.7883 N   0  0  0  0  0  0  0  0  0  0  0  0
   -3.8426    0.7147   -1.0430 N   0  0  0  0  0  0  0  0  0  0  0  0
   -0.8254    1.6379   -0.0497 C   0  0  0  0  0  0  0  0  0  0  0  0
    0.5440    1.4286    0.2818 C   0  0  0  0  0  0  0  0  0  0  0  0
    1.1379    0.1780    0.1969 C   0  0  0  0  0  0  0  0  0  0  0  0
    2.5728    0.0300    0.5592 N   0  0  0  0  0  0  0  0  0  0  0  0
    3.1742    1.0346    0.9256 O   0  0  0  0  0  0  0  0  0  0  0  0
    3.0655   -1.0937    0.4690 O   0  0  0  0  0  0  0  0  0  0  0  0
    0.4616   -0.9887   -0.2175 C   0  0  0  0  0  0  0  0  0  0  0  0
   -0.8669   -0.8733   -0.5558 C   0  0  0  0  0  0  0  0  0  0  0  0
   -2.1764    4.0920    0.0268 H   0  0  0  0  0  0  0  0  0  0  0  0
    1.1631    2.2563    0.6142 H   0  0  0  0  0  0  0  0  0  0  0  0
    0.9916   -1.9309   -0.2602 H   0  0  0  0  0  0  0  0  0  0  0  0
   -1.4521   -1.7271   -0.8839 H   0  0  0  0  0  0  0  0  0  0  0  0
   -2.7385    4.8923   -0.0041 O   0  0  0  0  0  0  0  0  0  0  0  0
   -3.9364    4.5526   -0.4638 C   0  0  0  0  0  0  0  0  0  0  0  0
   -4.3063    3.4518   -0.7961 O   0  0  0  0  0  0  0  0  0  0  0  0
   -4.8521    5.7949   -0.5316 C   0  0  0  0  0  0  0  0  0  0  0  0
   -6.0691    5.4505   -0.9591 F   0  0  0  0  0  0  0  0  0  0  0  0
   -4.9649    6.3609    0.6824 F   0  0  0  0  0  0  0  0  0  0  0  0
   -4.3387    6.7054   -1.3778 F   0  0  0  0  0  0  0  0  0  0  0  0
  1  4  1  0  0  0  0
  2  1  1  0  0  0  0
  3  2  1  0  0  0  0
  4  5  2  0  0  0  0
  5 13  1  0  0  0  0
  6  5  1  0  0  0  0
  6  7  1  0  0  0  0
  7  8  2  0  0  0  0
  9  7  2  0  0  0  0
 10  6  2  0  0  0  0
 11  1  2  0  0  0  0
 11 10  1  0  0  0  0
 14 10  1  0  0  0  0
 15 11  1  0  0  0  0
 16 12  1  0  0  0  0
 17 16  1  0  0  0  0
 18 17  2  0  0  0  0
 19 17  1  0  0  0  0
 19 21  1  0  0  0  0
 20 19  1  0  0  0  0
 22 19  1  0  0  0  0
M  RAD  3   2   2   3   3   4   2
M  END
