Coordinates from ORCA-job 4-NO2PhN2+~CF3COO-_B3LYPG-6-31G_dp-CH-Scan-d09-49-n800
 OpenBabel11261919433D

 22 21  0  0  0  0  0  0  0  0999 V2000
   -1.1935    0.4094   -0.4550 C   0  0  0  0  0  0  0  0  0  0  0  0
   -2.5297    0.6768   -0.8041 N   0  0  0  0  0  0  0  0  0  0  0  0
   -3.5787    0.9529   -1.0682 N   0  0  0  0  0  0  0  0  0  0  0  0
   -0.4997    1.5603   -0.0765 C   0  0  0  0  0  0  0  0  0  0  0  0
    0.8429    1.2153    0.2664 C   0  0  0  0  0  0  0  0  0  0  0  0
    1.3078   -0.0900    0.2095 C   0  0  0  0  0  0  0  0  0  0  0  0
    2.7172   -0.3769    0.5875 N   0  0  0  0  0  0  0  0  0  0  0  0
    3.4188    0.5689    0.9334 O   0  0  0  0  0  0  0  0  0  0  0  0
    3.0948   -1.5466    0.5240 O   0  0  0  0  0  0  0  0  0  0  0  0
    0.5196   -1.1920   -0.1901 C   0  0  0  0  0  0  0  0  0  0  0  0
   -0.7880   -0.9495   -0.5409 C   0  0  0  0  0  0  0  0  0  0  0  0
   -2.2640    5.0566    0.0648 H   0  0  0  0  0  0  0  0  0  0  0  0
    1.5431    1.9811    0.5876 H   0  0  0  0  0  0  0  0  0  0  0  0
    0.9526   -2.1831   -0.2113 H   0  0  0  0  0  0  0  0  0  0  0  0
   -1.4553   -1.7450   -0.8596 H   0  0  0  0  0  0  0  0  0  0  0  0
   -3.0239    5.6577   -0.0223 O   0  0  0  0  0  0  0  0  0  0  0  0
   -4.0714    4.9435   -0.4395 C   0  0  0  0  0  0  0  0  0  0  0  0
   -4.0899    3.7621   -0.6747 O   0  0  0  0  0  0  0  0  0  0  0  0
   -5.3087    5.8567   -0.5831 C   0  0  0  0  0  0  0  0  0  0  0  0
   -6.3488    5.1539   -1.0355 F   0  0  0  0  0  0  0  0  0  0  0  0
   -5.6303    6.3894    0.6083 F   0  0  0  0  0  0  0  0  0  0  0  0
   -5.0544    6.8576   -1.4424 F   0  0  0  0  0  0  0  0  0  0  0  0
  1  4  1  0  0  0  0
  2  1  1  0  0  0  0
  3  2  1  0  0  0  0
  4  5  2  0  0  0  0
  5 13  1  0  0  0  0
  6  5  1  0  0  0  0
  6  7  1  0  0  0  0
  7  8  2  0  0  0  0
  9  7  2  0  0  0  0
 10  6  2  0  0  0  0
 11  1  2  0  0  0  0
 11 10  1  0  0  0  0
 14 10  1  0  0  0  0
 15 11  1  0  0  0  0
 16 12  1  0  0  0  0
 17 16  1  0  0  0  0
 18 17  2  0  0  0  0
 19 17  1  0  0  0  0
 19 21  1  0  0  0  0
 20 19  1  0  0  0  0
 22 19  1  0  0  0  0
M  RAD  3   2   2   3   3   4   2
M  END
