Coordinates from ORCA-job 4-NO2PhN2+~CF3COO-_B3LYPG-6-31G_dp-CH-Scan-d09-49-n800
 OpenBabel11261919433D

 22 21  0  0  0  0  0  0  0  0999 V2000
   -1.1337    0.4233   -0.4869 C   0  0  0  0  0  0  0  0  0  0  0  0
   -2.4551    0.7340   -0.8582 N   0  0  0  0  0  0  0  0  0  0  0  0
   -3.4891    1.0453   -1.1419 N   0  0  0  0  0  0  0  0  0  0  0  0
   -0.4017    1.5568   -0.1301 C   0  0  0  0  0  0  0  0  0  0  0  0
    0.9240    1.1703    0.2352 C   0  0  0  0  0  0  0  0  0  0  0  0
    1.3395   -0.1525    0.2171 C   0  0  0  0  0  0  0  0  0  0  0  0
    2.7332   -0.4826    0.6170 N   0  0  0  0  0  0  0  0  0  0  0  0
    3.4631    0.4432    0.9588 O   0  0  0  0  0  0  0  0  0  0  0  0
    3.0661   -1.6673    0.5901 O   0  0  0  0  0  0  0  0  0  0  0  0
    0.5139   -1.2342   -0.1630 C   0  0  0  0  0  0  0  0  0  0  0  0
   -0.7798   -0.9519   -0.5346 C   0  0  0  0  0  0  0  0  0  0  0  0
   -2.2901    5.3322    0.0244 H   0  0  0  0  0  0  0  0  0  0  0  0
    1.6498    1.9177    0.5433 H   0  0  0  0  0  0  0  0  0  0  0  0
    0.9094   -2.2410   -0.1543 H   0  0  0  0  0  0  0  0  0  0  0  0
   -1.4734   -1.7296   -0.8410 H   0  0  0  0  0  0  0  0  0  0  0  0
   -3.1059    5.8572   -0.0477 O   0  0  0  0  0  0  0  0  0  0  0  0
   -4.0888    5.0406   -0.4357 C   0  0  0  0  0  0  0  0  0  0  0  0
   -3.9952    3.8616   -0.6632 O   0  0  0  0  0  0  0  0  0  0  0  0
   -5.4109    5.8289   -0.5606 C   0  0  0  0  0  0  0  0  0  0  0  0
   -6.3946    5.0175   -0.9532 F   0  0  0  0  0  0  0  0  0  0  0  0
   -5.7419    6.3716    0.6232 F   0  0  0  0  0  0  0  0  0  0  0  0
   -5.2785    6.8182   -1.4606 F   0  0  0  0  0  0  0  0  0  0  0  0
  1  4  1  0  0  0  0
  2  1  1  0  0  0  0
  3  2  1  0  0  0  0
  4  5  2  0  0  0  0
  5 13  1  0  0  0  0
  6  5  1  0  0  0  0
  6  7  1  0  0  0  0
  7  8  2  0  0  0  0
  9  7  2  0  0  0  0
 10 14  1  0  0  0  0
 10  6  2  0  0  0  0
 11  1  2  0  0  0  0
 11 10  1  0  0  0  0
 15 11  1  0  0  0  0
 16 12  1  0  0  0  0
 17 16  1  0  0  0  0
 18 17  2  0  0  0  0
 19 17  1  0  0  0  0
 19 21  1  0  0  0  0
 20 19  1  0  0  0  0
 22 19  1  0  0  0  0
M  RAD  3   2   2   3   3   4   2
M  END
