Coordinates from ORCA-job 4-NO2PhN2+~CF3COO-_B3LYPG-6-31G_dp-CH-Scan-d09-49-n800
 OpenBabel11261919433D

 22 21  0  0  0  0  0  0  0  0999 V2000
   -1.5769    0.4703   -0.4643 C   0  0  0  0  0  0  0  0  0  0  0  0
   -2.9334    0.5055   -0.8108 N   0  0  0  0  0  0  0  0  0  0  0  0
   -4.0121    0.6053   -1.0736 N   0  0  0  0  0  0  0  0  0  0  0  0
   -1.0528    1.7106   -0.0822 C   0  0  0  0  0  0  0  0  0  0  0  0
    0.3232    1.5921    0.2526 C   0  0  0  0  0  0  0  0  0  0  0  0
    0.9913    0.3778    0.1849 C   0  0  0  0  0  0  0  0  0  0  0  0
    2.4326    0.3232    0.5477 N   0  0  0  0  0  0  0  0  0  0  0  0
    2.9698    1.3681    0.8994 O   0  0  0  0  0  0  0  0  0  0  0  0
    2.9920   -0.7695    0.4708 O   0  0  0  0  0  0  0  0  0  0  0  0
    0.3854   -0.8303   -0.2122 C   0  0  0  0  0  0  0  0  0  0  0  0
   -0.9484   -0.7983   -0.5519 C   0  0  0  0  0  0  0  0  0  0  0  0
   -2.0926    3.5129   -0.0304 H   0  0  0  0  0  0  0  0  0  0  0  0
    0.8878    2.4620    0.5728 H   0  0  0  0  0  0  0  0  0  0  0  0
    0.9688   -1.7409   -0.2424 H   0  0  0  0  0  0  0  0  0  0  0  0
   -1.4808   -1.6900   -0.8676 H   0  0  0  0  0  0  0  0  0  0  0  0
   -2.5562    4.4038   -0.0110 O   0  0  0  0  0  0  0  0  0  0  0  0
   -3.7821    4.2862   -0.4743 C   0  0  0  0  0  0  0  0  0  0  0  0
   -4.3369    3.2812   -0.8668 O   0  0  0  0  0  0  0  0  0  0  0  0
   -4.4956    5.6577   -0.4683 C   0  0  0  0  0  0  0  0  0  0  0  0
   -5.7455    5.5407   -0.9271 F   0  0  0  0  0  0  0  0  0  0  0  0
   -4.5432    6.1574    0.7802 F   0  0  0  0  0  0  0  0  0  0  0  0
   -3.8339    6.5332   -1.2472 F   0  0  0  0  0  0  0  0  0  0  0  0
  1  4  1  0  0  0  0
  2  1  1  0  0  0  0
  3  2  1  0  0  0  0
  4  5  2  0  0  0  0
  5 13  1  0  0  0  0
  6  5  1  0  0  0  0
  6  7  1  0  0  0  0
  7  8  2  0  0  0  0
  9  7  2  0  0  0  0
 10  6  2  0  0  0  0
 11  1  2  0  0  0  0
 11 10  1  0  0  0  0
 12 16  1  0  0  0  0
 14 10  1  0  0  0  0
 15 11  1  0  0  0  0
 17 19  1  0  0  0  0
 17 16  1  0  0  0  0
 18 17  2  0  0  0  0
 19 21  1  0  0  0  0
 20 19  1  0  0  0  0
 22 19  1  0  0  0  0
M  RAD  3   2   2   3   3   4   2
M  END
