Coordinates from ORCA-job 4-NO2PhN2+~CF3COO-_B3LYPG-6-31G_dp-CH-Scan-d09-49-n800
 OpenBabel11261919433D

 22 21  0  0  0  0  0  0  0  0999 V2000
   -1.3490    0.4142   -0.4360 C   0  0  0  0  0  0  0  0  0  0  0  0
   -2.7027    0.5773   -0.7711 N   0  0  0  0  0  0  0  0  0  0  0  0
   -3.7734    0.7648   -1.0232 N   0  0  0  0  0  0  0  0  0  0  0  0
   -0.7375    1.6044   -0.0328 C   0  0  0  0  0  0  0  0  0  0  0  0
    0.6288    1.3610    0.2934 C   0  0  0  0  0  0  0  0  0  0  0  0
    1.1945    0.0983    0.1987 C   0  0  0  0  0  0  0  0  0  0  0  0
    2.6262   -0.0846    0.5573 N   0  0  0  0  0  0  0  0  0  0  0  0
    3.2513    0.9038    0.9289 O   0  0  0  0  0  0  0  0  0  0  0  0
    3.0940   -1.2184    0.4589 O   0  0  0  0  0  0  0  0  0  0  0  0
    0.4917   -1.0510   -0.2225 C   0  0  0  0  0  0  0  0  0  0  0  0
   -0.8345   -0.9041   -0.5568 C   0  0  0  0  0  0  0  0  0  0  0  0
   -2.2174    4.3353    0.0685 H   0  0  0  0  0  0  0  0  0  0  0  0
    1.2678    2.1719    0.6301 H   0  0  0  0  0  0  0  0  0  0  0  0
    1.0010   -2.0042   -0.2727 H   0  0  0  0  0  0  0  0  0  0  0  0
   -1.4396   -1.7422   -0.8895 H   0  0  0  0  0  0  0  0  0  0  0  0
   -2.8256    5.0954    0.0107 O   0  0  0  0  0  0  0  0  0  0  0  0
   -3.9953    4.6636   -0.4529 C   0  0  0  0  0  0  0  0  0  0  0  0
   -4.2832    3.5323   -0.7581 O   0  0  0  0  0  0  0  0  0  0  0  0
   -4.9880    5.8419   -0.5635 C   0  0  0  0  0  0  0  0  0  0  0  0
   -6.1752    5.4080   -0.9923 F   0  0  0  0  0  0  0  0  0  0  0  0
   -5.1494    6.4320    0.6332 F   0  0  0  0  0  0  0  0  0  0  0  0
   -4.5239    6.7593   -1.4301 F   0  0  0  0  0  0  0  0  0  0  0  0
  1  4  1  0  0  0  0
  2  1  1  0  0  0  0
  3  2  1  0  0  0  0
  4  5  2  0  0  0  0
  5 13  1  0  0  0  0
  6  5  1  0  0  0  0
  6  7  1  0  0  0  0
  7  8  2  0  0  0  0
  9  7  2  0  0  0  0
 10  6  2  0  0  0  0
 11  1  2  0  0  0  0
 11 10  1  0  0  0  0
 14 10  1  0  0  0  0
 15 11  1  0  0  0  0
 16 12  1  0  0  0  0
 17 16  1  0  0  0  0
 18 17  2  0  0  0  0
 19 17  1  0  0  0  0
 19 21  1  0  0  0  0
 20 19  1  0  0  0  0
 22 19  1  0  0  0  0
M  RAD  3   2   2   3   3   4   2
M  END
