Coordinates from ORCA-job 4-NO2PhN2+~CF3COO-_B3LYPG-6-31G_dp-CH-Scan-d09-49-n800
 OpenBabel11261919433D

 22 21  0  0  0  0  0  0  0  0999 V2000
   -1.1053    0.4385   -0.5220 C   0  0  0  0  0  0  0  0  0  0  0  0
   -2.4142    0.7705   -0.9188 N   0  0  0  0  0  0  0  0  0  0  0  0
   -3.4355    1.1001   -1.2271 N   0  0  0  0  0  0  0  0  0  0  0  0
   -0.3509    1.5641   -0.1882 C   0  0  0  0  0  0  0  0  0  0  0  0
    0.9613    1.1571    0.2029 C   0  0  0  0  0  0  0  0  0  0  0  0
    1.3451   -0.1752    0.2273 C   0  0  0  0  0  0  0  0  0  0  0  0
    2.7260   -0.5265    0.6525 N   0  0  0  0  0  0  0  0  0  0  0  0
    3.4742    0.3912    0.9760 O   0  0  0  0  0  0  0  0  0  0  0  0
    3.0342   -1.7182    0.6528 O   0  0  0  0  0  0  0  0  0  0  0  0
    0.4982   -1.2475   -0.1320 C   0  0  0  0  0  0  0  0  0  0  0  0
   -0.7840   -0.9455   -0.5271 C   0  0  0  0  0  0  0  0  0  0  0  0
   -2.2897    5.4602   -0.0443 H   0  0  0  0  0  0  0  0  0  0  0  0
    1.7013    1.8957    0.4979 H   0  0  0  0  0  0  0  0  0  0  0  0
    0.8694   -2.2627   -0.0900 H   0  0  0  0  0  0  0  0  0  0  0  0
   -1.4924   -1.7150   -0.8203 H   0  0  0  0  0  0  0  0  0  0  0  0
   -3.1311    5.9458   -0.0975 O   0  0  0  0  0  0  0  0  0  0  0  0
   -4.0858    5.0772   -0.4414 C   0  0  0  0  0  0  0  0  0  0  0  0
   -3.9419    3.9010   -0.6561 O   0  0  0  0  0  0  0  0  0  0  0  0
   -5.4493    5.7975   -0.5250 C   0  0  0  0  0  0  0  0  0  0  0  0
   -6.3967    4.9442   -0.9179 F   0  0  0  0  0  0  0  0  0  0  0  0
   -5.7837    6.2930    0.6787 F   0  0  0  0  0  0  0  0  0  0  0  0
   -5.3888    6.8136   -1.4019 F   0  0  0  0  0  0  0  0  0  0  0  0
  1  4  1  0  0  0  0
  2  1  1  0  0  0  0
  3  2  1  0  0  0  0
  4  5  2  0  0  0  0
  5  6  1  0  0  0  0
  5 13  1  0  0  0  0
  6  7  1  0  0  0  0
  7  9  2  0  0  0  0
  7  8  2  0  0  0  0
 10 14  1  0  0  0  0
 10  6  2  0  0  0  0
 11  1  2  0  0  0  0
 11 10  1  0  0  0  0
 15 11  1  0  0  0  0
 16 12  1  0  0  0  0
 17 16  1  0  0  0  0
 18 17  2  0  0  0  0
 19 17  1  0  0  0  0
 19 21  1  0  0  0  0
 20 19  1  0  0  0  0
 22 19  1  0  0  0  0
M  RAD  3   2   2   3   3   4   2
M  END
