Coordinates from ORCA-job 4-NO2PhN2+~CF3COO-_B3LYPG-6-31G_dp-CH-Scan-d09-49-n800
 OpenBabel11261919433D

 22 21  0  0  0  0  0  0  0  0999 V2000
   -1.1989    0.4080   -0.4509 C   0  0  0  0  0  0  0  0  0  0  0  0
   -2.5366    0.6719   -0.7968 N   0  0  0  0  0  0  0  0  0  0  0  0
   -3.5870    0.9451   -1.0580 N   0  0  0  0  0  0  0  0  0  0  0  0
   -0.5076    1.5606   -0.0726 C   0  0  0  0  0  0  0  0  0  0  0  0
    0.8369    1.2194    0.2665 C   0  0  0  0  0  0  0  0  0  0  0  0
    1.3057   -0.0844    0.2068 C   0  0  0  0  0  0  0  0  0  0  0  0
    2.7169   -0.3673    0.5807 N   0  0  0  0  0  0  0  0  0  0  0  0
    3.4156    0.5798    0.9290 O   0  0  0  0  0  0  0  0  0  0  0  0
    3.0969   -1.5363    0.5185 O   0  0  0  0  0  0  0  0  0  0  0  0
    0.5198   -1.1883   -0.1920 C   0  0  0  0  0  0  0  0  0  0  0  0
   -0.7893   -0.9494   -0.5393 C   0  0  0  0  0  0  0  0  0  0  0  0
   -2.2648    5.0321    0.0755 H   0  0  0  0  0  0  0  0  0  0  0  0
    1.5355    1.9870    0.5870 H   0  0  0  0  0  0  0  0  0  0  0  0
    0.9558   -2.1780   -0.2154 H   0  0  0  0  0  0  0  0  0  0  0  0
   -1.4550   -1.7466   -0.8572 H   0  0  0  0  0  0  0  0  0  0  0  0
   -3.0190    5.6398   -0.0153 O   0  0  0  0  0  0  0  0  0  0  0  0
   -4.0704    4.9352   -0.4387 C   0  0  0  0  0  0  0  0  0  0  0  0
   -4.0980    3.7540   -0.6747 O   0  0  0  0  0  0  0  0  0  0  0  0
   -5.2990    5.8591   -0.5877 C   0  0  0  0  0  0  0  0  0  0  0  0
   -6.3405    5.1678   -1.0545 F   0  0  0  0  0  0  0  0  0  0  0  0
   -5.6273    6.3859    0.6046 F   0  0  0  0  0  0  0  0  0  0  0  0
   -5.0291    6.8639   -1.4374 F   0  0  0  0  0  0  0  0  0  0  0  0
  1  4  1  0  0  0  0
  2  1  1  0  0  0  0
  3  2  1  0  0  0  0
  4  5  2  0  0  0  0
  5 13  1  0  0  0  0
  6  5  1  0  0  0  0
  6  7  1  0  0  0  0
  7  8  2  0  0  0  0
  9  7  2  0  0  0  0
 10  6  2  0  0  0  0
 11  1  2  0  0  0  0
 11 10  1  0  0  0  0
 14 10  1  0  0  0  0
 15 11  1  0  0  0  0
 16 12  1  0  0  0  0
 17 16  1  0  0  0  0
 18 17  2  0  0  0  0
 19 17  1  0  0  0  0
 19 21  1  0  0  0  0
 20 19  1  0  0  0  0
 22 19  1  0  0  0  0
M  RAD  3   2   2   3   3   4   2
M  END
