Coordinates from ORCA-job 4-NO2PhN2+~CF3COO-_B3LYPG-6-31G_dp-CH-Scan-d09-49-n800
 OpenBabel11261919433D

 22 21  0  0  0  0  0  0  0  0999 V2000
   -1.4390    0.4399   -0.4507 C   0  0  0  0  0  0  0  0  0  0  0  0
   -2.7940    0.5516   -0.7939 N   0  0  0  0  0  0  0  0  0  0  0  0
   -3.8688    0.6964   -1.0543 N   0  0  0  0  0  0  0  0  0  0  0  0
   -0.8607    1.6513   -0.0581 C   0  0  0  0  0  0  0  0  0  0  0  0
    0.5099    1.4559    0.2752 C   0  0  0  0  0  0  0  0  0  0  0  0
    1.1149    0.2102    0.1957 C   0  0  0  0  0  0  0  0  0  0  0  0
    2.5509    0.0766    0.5591 N   0  0  0  0  0  0  0  0  0  0  0  0
    3.1429    1.0882    0.9213 O   0  0  0  0  0  0  0  0  0  0  0  0
    3.0536   -1.0429    0.4731 O   0  0  0  0  0  0  0  0  0  0  0  0
    0.4490   -0.9638   -0.2141 C   0  0  0  0  0  0  0  0  0  0  0  0
   -0.8804   -0.8614   -0.5535 C   0  0  0  0  0  0  0  0  0  0  0  0
   -2.1613    3.9961    0.0101 H   0  0  0  0  0  0  0  0  0  0  0  0
    1.1210    2.2906    0.6046 H   0  0  0  0  0  0  0  0  0  0  0  0
    0.9870   -1.9016   -0.2526 H   0  0  0  0  0  0  0  0  0  0  0  0
   -1.4578   -1.7218   -0.8782 H   0  0  0  0  0  0  0  0  0  0  0  0
   -2.7059    4.8111   -0.0093 O   0  0  0  0  0  0  0  0  0  0  0  0
   -3.9126    4.5085   -0.4680 C   0  0  0  0  0  0  0  0  0  0  0  0
   -4.3143    3.4217   -0.8115 O   0  0  0  0  0  0  0  0  0  0  0  0
   -4.7964    5.7745   -0.5184 C   0  0  0  0  0  0  0  0  0  0  0  0
   -6.0219    5.4679   -0.9509 F   0  0  0  0  0  0  0  0  0  0  0  0
   -4.8956    6.3259    0.7038 F   0  0  0  0  0  0  0  0  0  0  0  0
   -4.2600    6.6842   -1.3512 F   0  0  0  0  0  0  0  0  0  0  0  0
  1  4  1  0  0  0  0
  2  1  1  0  0  0  0
  3  2  1  0  0  0  0
  4  5  2  0  0  0  0
  5 13  1  0  0  0  0
  6  5  1  0  0  0  0
  6  7  1  0  0  0  0
  7  8  2  0  0  0  0
  9  7  2  0  0  0  0
 10  6  2  0  0  0  0
 11  1  2  0  0  0  0
 11 10  1  0  0  0  0
 14 10  1  0  0  0  0
 15 11  1  0  0  0  0
 16 12  1  0  0  0  0
 17 16  1  0  0  0  0
 18 17  2  0  0  0  0
 19 17  1  0  0  0  0
 19 21  1  0  0  0  0
 20 19  1  0  0  0  0
 22 19  1  0  0  0  0
M  RAD  3   2   2   3   3   4   2
M  END
