Coordinates from ORCA-job 4-NO2PhN2+~CF3COO-_B3LYPG-6-31G_dp-CH-Scan-d09-49-n800
 OpenBabel11261919433D

 22 22  0  0  0  0  0  0  0  0999 V2000
   -1.6820    0.7237   -0.3316 C   0  0  0  0  0  0  0  0  0  0  0  0
   -3.0646    0.6530   -0.6098 N   0  0  0  0  0  0  0  0  0  0  0  0
   -3.9925    1.3722   -0.7329 N   0  0  0  0  0  0  0  0  0  0  0  0
   -0.9574    1.9146   -0.1348 C   0  0  0  0  0  0  0  0  0  0  0  0
    0.4075    1.8308    0.1167 C   0  0  0  0  0  0  0  0  0  0  0  0
    1.0151    0.5777    0.1716 C   0  0  0  0  0  0  0  0  0  0  0  0
    2.4682    0.5040    0.4433 N   0  0  0  0  0  0  0  0  0  0  0  0
    3.0657    1.5642    0.6050 O   0  0  0  0  0  0  0  0  0  0  0  0
    2.9754   -0.6135    0.4888 O   0  0  0  0  0  0  0  0  0  0  0  0
    0.3118   -0.6092   -0.0198 C   0  0  0  0  0  0  0  0  0  0  0  0
   -1.0508   -0.5298   -0.2767 C   0  0  0  0  0  0  0  0  0  0  0  0
   -1.4934    2.9312   -0.1842 H   0  0  0  0  0  0  0  0  0  0  0  0
    1.0052    2.7198    0.2728 H   0  0  0  0  0  0  0  0  0  0  0  0
    0.8319   -1.5571    0.0318 H   0  0  0  0  0  0  0  0  0  0  0  0
   -1.6429   -1.4233   -0.4382 H   0  0  0  0  0  0  0  0  0  0  0  0
   -3.5674    3.0035   -0.4226 O   0  0  0  0  0  0  0  0  0  0  0  0
   -4.4737    3.8467   -0.8908 C   0  0  0  0  0  0  0  0  0  0  0  0
   -5.4429    3.6289   -1.5738 O   0  0  0  0  0  0  0  0  0  0  0  0
   -4.1221    5.2806   -0.4022 C   0  0  0  0  0  0  0  0  0  0  0  0
   -4.8018    6.1984   -1.0921 F   0  0  0  0  0  0  0  0  0  0  0  0
   -4.4273    5.4104    0.9032 F   0  0  0  0  0  0  0  0  0  0  0  0
   -2.8016    5.5323   -0.5453 F   0  0  0  0  0  0  0  0  0  0  0  0
  1 11  2  0  0  0  0
  1  4  1  0  0  0  0
  2  1  1  0  0  0  0
  3  2  1  0  0  0  0
  3 16  1  0  0  0  0
  4  5  2  0  0  0  0
  5  6  1  0  0  0  0
  5 13  1  0  0  0  0
  6  7  1  0  0  0  0
  7  9  2  0  0  0  0
  7  8  2  0  0  0  0
 10 14  1  0  0  0  0
 10  6  2  0  0  0  0
 11 10  1  0  0  0  0
 12  4  1  0  0  0  0
 15 11  1  0  0  0  0
 17 16  1  0  0  0  0
 17 19  1  0  0  0  0
 18 17  2  0  0  0  0
 19 21  1  0  0  0  0
 20 19  1  0  0  0  0
 22 19  1  0  0  0  0
M  RAD  2   2   2   3   2
M  END
