Coordinates from ORCA-job 4-NO2PhN2+~CF3COO-_B3LYPG-6-31G_dp-CH-Scan-d09-49-n800
 OpenBabel11261919433D

 22 21  0  0  0  0  0  0  0  0999 V2000
   -1.6302    0.4846   -0.4659 C   0  0  0  0  0  0  0  0  0  0  0  0
   -2.9877    0.4945   -0.8092 N   0  0  0  0  0  0  0  0  0  0  0  0
   -4.0674    0.5892   -1.0686 N   0  0  0  0  0  0  0  0  0  0  0  0
   -1.1232    1.7334   -0.0887 C   0  0  0  0  0  0  0  0  0  0  0  0
    0.2536    1.6435    0.2436 C   0  0  0  0  0  0  0  0  0  0  0  0
    0.9432    0.4407    0.1795 C   0  0  0  0  0  0  0  0  0  0  0  0
    2.3858    0.4139    0.5401 N   0  0  0  0  0  0  0  0  0  0  0  0
    2.9038    1.4702    0.8858 O   0  0  0  0  0  0  0  0  0  0  0  0
    2.9650   -0.6683    0.4635 O   0  0  0  0  0  0  0  0  0  0  0  0
    0.3578   -0.7782   -0.2120 C   0  0  0  0  0  0  0  0  0  0  0  0
   -0.9776   -0.7708   -0.5492 C   0  0  0  0  0  0  0  0  0  0  0  0
   -2.0525    3.3337   -0.0394 H   0  0  0  0  0  0  0  0  0  0  0  0
    0.8011    2.5260    0.5589 H   0  0  0  0  0  0  0  0  0  0  0  0
    0.9565   -1.6789   -0.2402 H   0  0  0  0  0  0  0  0  0  0  0  0
   -1.4945   -1.6729   -0.8607 H   0  0  0  0  0  0  0  0  0  0  0  0
   -2.5034    4.2593   -0.0037 O   0  0  0  0  0  0  0  0  0  0  0  0
   -3.7217    4.2052   -0.4800 C   0  0  0  0  0  0  0  0  0  0  0  0
   -4.3209    3.2351   -0.9041 O   0  0  0  0  0  0  0  0  0  0  0  0
   -4.3841    5.6027   -0.4512 C   0  0  0  0  0  0  0  0  0  0  0  0
   -5.6313    5.5479   -0.9309 F   0  0  0  0  0  0  0  0  0  0  0  0
   -4.4330    6.0753    0.8087 F   0  0  0  0  0  0  0  0  0  0  0  0
   -3.6787    6.4729   -1.1981 F   0  0  0  0  0  0  0  0  0  0  0  0
  1  4  1  0  0  0  0
  2  1  1  0  0  0  0
  3  2  1  0  0  0  0
  4  5  2  0  0  0  0
  5 13  1  0  0  0  0
  6  5  1  0  0  0  0
  6  7  1  0  0  0  0
  7  8  2  0  0  0  0
  9  7  2  0  0  0  0
 10  6  2  0  0  0  0
 11  1  2  0  0  0  0
 11 10  1  0  0  0  0
 12 16  1  0  0  0  0
 14 10  1  0  0  0  0
 15 11  1  0  0  0  0
 17 19  1  0  0  0  0
 17 16  1  0  0  0  0
 18 17  2  0  0  0  0
 19 21  1  0  0  0  0
 20 19  1  0  0  0  0
 22 19  1  0  0  0  0
M  RAD  3   2   2   3   3   4   2
M  END
