Coordinates from ORCA-job 4-NO2PhN2+~CF3COO-_B3LYPG-6-31G_dp-CH-Scan-d09-49-n800
 OpenBabel11261919433D

 22 21  0  0  0  0  0  0  0  0999 V2000
   -1.2963    0.4053   -0.4282 C   0  0  0  0  0  0  0  0  0  0  0  0
   -2.6477    0.6017   -0.7591 N   0  0  0  0  0  0  0  0  0  0  0  0
   -3.7145    0.8174   -1.0063 N   0  0  0  0  0  0  0  0  0  0  0  0
   -0.6591    1.5830   -0.0298 C   0  0  0  0  0  0  0  0  0  0  0  0
    0.7031    1.3073    0.2918 C   0  0  0  0  0  0  0  0  0  0  0  0
    1.2391    0.0317    0.1984 C   0  0  0  0  0  0  0  0  0  0  0  0
    2.6673   -0.1839    0.5530 N   0  0  0  0  0  0  0  0  0  0  0  0
    3.3172    0.7907    0.9188 O   0  0  0  0  0  0  0  0  0  0  0  0
    3.1082   -1.3287    0.4575 O   0  0  0  0  0  0  0  0  0  0  0  0
    0.5086   -1.1025   -0.2180 C   0  0  0  0  0  0  0  0  0  0  0  0
   -0.8148   -0.9256   -0.5485 C   0  0  0  0  0  0  0  0  0  0  0  0
   -2.2412    4.5652    0.0944 H   0  0  0  0  0  0  0  0  0  0  0  0
    1.3626    2.1036    0.6244 H   0  0  0  0  0  0  0  0  0  0  0  0
    0.9956   -2.0672   -0.2674 H   0  0  0  0  0  0  0  0  0  0  0  0
   -1.4405   -1.7499   -0.8775 H   0  0  0  0  0  0  0  0  0  0  0  0
   -2.8954    5.2820    0.0131 O   0  0  0  0  0  0  0  0  0  0  0  0
   -4.0319    4.7597   -0.4459 C   0  0  0  0  0  0  0  0  0  0  0  0
   -4.2381    3.6041   -0.7213 O   0  0  0  0  0  0  0  0  0  0  0  0
   -5.1017    5.8649   -0.5875 C   0  0  0  0  0  0  0  0  0  0  0  0
   -6.2381    5.3493   -1.0600 F   0  0  0  0  0  0  0  0  0  0  0  0
   -5.3462    6.4305    0.6073 F   0  0  0  0  0  0  0  0  0  0  0  0
   -4.6757    6.8207   -1.4308 F   0  0  0  0  0  0  0  0  0  0  0  0
  1  4  1  0  0  0  0
  2  1  1  0  0  0  0
  3  2  1  0  0  0  0
  4  5  2  0  0  0  0
  5 13  1  0  0  0  0
  6  5  1  0  0  0  0
  6  7  1  0  0  0  0
  7  8  2  0  0  0  0
  9  7  2  0  0  0  0
 10  6  2  0  0  0  0
 11  1  2  0  0  0  0
 11 10  1  0  0  0  0
 14 10  1  0  0  0  0
 15 11  1  0  0  0  0
 16 12  1  0  0  0  0
 17 16  1  0  0  0  0
 18 17  2  0  0  0  0
 19 17  1  0  0  0  0
 19 21  1  0  0  0  0
 20 19  1  0  0  0  0
 22 19  1  0  0  0  0
M  RAD  3   2   2   3   3   4   2
M  END
