Coordinates from ORCA-job 4-NO2PhN2+~CF3COO-_B3LYPG-6-31G_dp-CH-Scan-d09-49-n800
 OpenBabel11261919433D

 22 21  0  0  0  0  0  0  0  0999 V2000
   -1.1106    0.4350   -0.5124 C   0  0  0  0  0  0  0  0  0  0  0  0
   -2.4223    0.7635   -0.9028 N   0  0  0  0  0  0  0  0  0  0  0  0
   -3.4465    1.0900   -1.2045 N   0  0  0  0  0  0  0  0  0  0  0  0
   -0.3608    1.5617   -0.1719 C   0  0  0  0  0  0  0  0  0  0  0  0
    0.9544    1.1582    0.2126 C   0  0  0  0  0  0  0  0  0  0  0  0
    1.3450   -0.1723    0.2254 C   0  0  0  0  0  0  0  0  0  0  0  0
    2.7288   -0.5199    0.6442 N   0  0  0  0  0  0  0  0  0  0  0  0
    3.4738    0.3991    0.9712 O   0  0  0  0  0  0  0  0  0  0  0  0
    3.0425   -1.7102    0.6354 O   0  0  0  0  0  0  0  0  0  0  0  0
    0.5025   -1.2460   -0.1400 C   0  0  0  0  0  0  0  0  0  0  0  0
   -0.7824   -0.9473   -0.5291 C   0  0  0  0  0  0  0  0  0  0  0  0
   -2.2908    5.4400   -0.0300 H   0  0  0  0  0  0  0  0  0  0  0  0
    1.6915    1.8982    0.5115 H   0  0  0  0  0  0  0  0  0  0  0  0
    0.8788   -2.2596   -0.1070 H   0  0  0  0  0  0  0  0  0  0  0  0
   -1.4878   -1.7181   -0.8262 H   0  0  0  0  0  0  0  0  0  0  0  0
   -3.1278    5.9324   -0.0883 O   0  0  0  0  0  0  0  0  0  0  0  0
   -4.0871    5.0723   -0.4405 C   0  0  0  0  0  0  0  0  0  0  0  0
   -3.9515    3.8952   -0.6560 O   0  0  0  0  0  0  0  0  0  0  0  0
   -5.4437    5.8044   -0.5343 C   0  0  0  0  0  0  0  0  0  0  0  0
   -6.3971    4.9575   -0.9263 F   0  0  0  0  0  0  0  0  0  0  0  0
   -5.7791    6.3108    0.6646 F   0  0  0  0  0  0  0  0  0  0  0  0
   -5.3694    6.8142   -1.4174 F   0  0  0  0  0  0  0  0  0  0  0  0
  1  4  1  0  0  0  0
  2  1  1  0  0  0  0
  3  2  1  0  0  0  0
  4  5  2  0  0  0  0
  5  6  1  0  0  0  0
  5 13  1  0  0  0  0
  6  7  1  0  0  0  0
  7  8  2  0  0  0  0
  9  7  2  0  0  0  0
 10 14  1  0  0  0  0
 10  6  2  0  0  0  0
 11  1  2  0  0  0  0
 11 10  1  0  0  0  0
 15 11  1  0  0  0  0
 16 12  1  0  0  0  0
 17 16  1  0  0  0  0
 18 17  2  0  0  0  0
 19 17  1  0  0  0  0
 19 21  1  0  0  0  0
 20 19  1  0  0  0  0
 22 19  1  0  0  0  0
M  RAD  3   2   2   3   3   4   2
M  END
