Coordinates from ORCA-job 4-NO2PhN2+~CF3COO-_B3LYPG-6-31G_dp-CH-Scan-d09-49-n800
 OpenBabel11261919433D

 22 22  0  0  0  0  0  0  0  0999 V2000
   -1.6651    0.6919   -0.2817 C   0  0  0  0  0  0  0  0  0  0  0  0
   -3.0520    0.6569   -0.5249 N   0  0  0  0  0  0  0  0  0  0  0  0
   -3.9940    1.3422   -0.6295 N   0  0  0  0  0  0  0  0  0  0  0  0
   -0.9422    1.8751   -0.0596 C   0  0  0  0  0  0  0  0  0  0  0  0
    0.4256    1.8013    0.1601 C   0  0  0  0  0  0  0  0  0  0  0  0
    1.0369    0.5474    0.1576 C   0  0  0  0  0  0  0  0  0  0  0  0
    2.4967    0.4703    0.3970 N   0  0  0  0  0  0  0  0  0  0  0  0
    3.0922    1.5265    0.5867 O   0  0  0  0  0  0  0  0  0  0  0  0
    3.0090   -0.6457    0.3882 O   0  0  0  0  0  0  0  0  0  0  0  0
    0.3361   -0.6375   -0.0601 C   0  0  0  0  0  0  0  0  0  0  0  0
   -1.0326   -0.5621   -0.2843 C   0  0  0  0  0  0  0  0  0  0  0  0
   -1.6348    3.0577   -0.0719 H   0  0  0  0  0  0  0  0  0  0  0  0
    1.0224    2.6873    0.3345 H   0  0  0  0  0  0  0  0  0  0  0  0
    0.8643   -1.5822   -0.0519 H   0  0  0  0  0  0  0  0  0  0  0  0
   -1.6217   -1.4545   -0.4625 H   0  0  0  0  0  0  0  0  0  0  0  0
   -3.6037    3.0610   -0.2896 O   0  0  0  0  0  0  0  0  0  0  0  0
   -4.4426    3.8678   -0.9037 C   0  0  0  0  0  0  0  0  0  0  0  0
   -5.3087    3.6094   -1.7060 O   0  0  0  0  0  0  0  0  0  0  0  0
   -4.1744    5.3291   -0.4416 C   0  0  0  0  0  0  0  0  0  0  0  0
   -4.8296    6.2047   -1.2067 F   0  0  0  0  0  0  0  0  0  0  0  0
   -4.5680    5.4973    0.8353 F   0  0  0  0  0  0  0  0  0  0  0  0
   -2.8530    5.6152   -0.5071 F   0  0  0  0  0  0  0  0  0  0  0  0
  1  4  1  0  0  0  0
  2  1  1  0  0  0  0
  3  2  1  0  0  0  0
  3 16  1  0  0  0  0
  4  5  2  0  0  0  0
  5 13  1  0  0  0  0
  6  5  1  0  0  0  0
  6  7  1  0  0  0  0
  7  8  2  0  0  0  0
  9  7  2  0  0  0  0
 10 14  1  0  0  0  0
 10  6  2  0  0  0  0
 11  1  2  0  0  0  0
 11 10  1  0  0  0  0
 12  4  1  0  0  0  0
 15 11  1  0  0  0  0
 17 19  1  0  0  0  0
 17 16  1  0  0  0  0
 18 17  2  0  0  0  0
 19 21  1  0  0  0  0
 20 19  1  0  0  0  0
 22 19  1  0  0  0  0
M  RAD  2   2   2   3   2
M  END
