Coordinates from ORCA-job 4-NO2PhN2+~CF3COO-_B3LYPG-6-31G_dp-CH-Scan-d09-49-n800
 OpenBabel11261919433D

 22 21  0  0  0  0  0  0  0  0999 V2000
   -1.5016    0.4510   -0.4557 C   0  0  0  0  0  0  0  0  0  0  0  0
   -2.8580    0.5272   -0.7996 N   0  0  0  0  0  0  0  0  0  0  0  0
   -3.9353    0.6488   -1.0604 N   0  0  0  0  0  0  0  0  0  0  0  0
   -0.9491    1.6763   -0.0675 C   0  0  0  0  0  0  0  0  0  0  0  0
    0.4248    1.5175    0.2659 C   0  0  0  0  0  0  0  0  0  0  0  0
    1.0601    0.2865    0.1908 C   0  0  0  0  0  0  0  0  0  0  0  0
    2.4994    0.1903    0.5531 N   0  0  0  0  0  0  0  0  0  0  0  0
    3.0658    1.2179    0.9108 O   0  0  0  0  0  0  0  0  0  0  0  0
    3.0293   -0.9167    0.4703 O   0  0  0  0  0  0  0  0  0  0  0  0
    0.4225   -0.9040   -0.2137 C   0  0  0  0  0  0  0  0  0  0  0  0
   -0.9095   -0.8353   -0.5526 C   0  0  0  0  0  0  0  0  0  0  0  0
   -2.1375    3.7684   -0.0064 H   0  0  0  0  0  0  0  0  0  0  0  0
    1.0142    2.3690    0.5914 H   0  0  0  0  0  0  0  0  0  0  0  0
    0.9826   -1.8289   -0.2491 H   0  0  0  0  0  0  0  0  0  0  0  0
   -1.4656   -1.7108   -0.8734 H   0  0  0  0  0  0  0  0  0  0  0  0
   -2.6391    4.6189   -0.0076 O   0  0  0  0  0  0  0  0  0  0  0  0
   -3.8582    4.4066   -0.4729 C   0  0  0  0  0  0  0  0  0  0  0  0
   -4.3345    3.3572   -0.8429 O   0  0  0  0  0  0  0  0  0  0  0  0
   -4.6590    5.7279   -0.4963 C   0  0  0  0  0  0  0  0  0  0  0  0
   -5.8994    5.5148   -0.9439 F   0  0  0  0  0  0  0  0  0  0  0  0
   -4.7323    6.2537    0.7394 F   0  0  0  0  0  0  0  0  0  0  0  0
   -4.0589    6.6229   -1.3015 F   0  0  0  0  0  0  0  0  0  0  0  0
  1  4  1  0  0  0  0
  2  1  1  0  0  0  0
  3  2  1  0  0  0  0
  4  5  2  0  0  0  0
  5 13  1  0  0  0  0
  6  5  1  0  0  0  0
  6  7  1  0  0  0  0
  7  8  2  0  0  0  0
  9  7  2  0  0  0  0
 10  6  2  0  0  0  0
 11  1  2  0  0  0  0
 11 10  1  0  0  0  0
 14 10  1  0  0  0  0
 15 11  1  0  0  0  0
 16 12  1  0  0  0  0
 17 16  1  0  0  0  0
 18 17  2  0  0  0  0
 19 17  1  0  0  0  0
 19 21  1  0  0  0  0
 20 19  1  0  0  0  0
 22 19  1  0  0  0  0
M  RAD  3   2   2   3   3   4   2
M  END
