Coordinates from ORCA-job 4-NO2PhN2+~CF3COO-_B3LYPG-6-31G_dp-CH-Scan-d09-49-n800
 OpenBabel11261919433D

 22 21  0  0  0  0  0  0  0  0999 V2000
   -1.1537    0.4204   -0.4883 C   0  0  0  0  0  0  0  0  0  0  0  0
   -2.4779    0.7162   -0.8610 N   0  0  0  0  0  0  0  0  0  0  0  0
   -3.5151    1.0155   -1.1459 N   0  0  0  0  0  0  0  0  0  0  0  0
   -0.4362    1.5609   -0.1235 C   0  0  0  0  0  0  0  0  0  0  0  0
    0.8931    1.1887    0.2432 C   0  0  0  0  0  0  0  0  0  0  0  0
    1.3249   -0.1288    0.2186 C   0  0  0  0  0  0  0  0  0  0  0  0
    2.7215   -0.4439    0.6205 N   0  0  0  0  0  0  0  0  0  0  0  0
    3.4409    0.4897    0.9633 O   0  0  0  0  0  0  0  0  0  0  0  0
    3.0699   -1.6239    0.5851 O   0  0  0  0  0  0  0  0  0  0  0  0
    0.5137   -1.2184   -0.1695 C   0  0  0  0  0  0  0  0  0  0  0  0
   -0.7825   -0.9499   -0.5425 C   0  0  0  0  0  0  0  0  0  0  0  0
   -2.2702    5.2352    0.0184 H   0  0  0  0  0  0  0  0  0  0  0  0
    1.6088    1.9430    0.5576 H   0  0  0  0  0  0  0  0  0  0  0  0
    0.9215   -2.2203   -0.1654 H   0  0  0  0  0  0  0  0  0  0  0  0
   -1.4658   -1.7344   -0.8548 H   0  0  0  0  0  0  0  0  0  0  0  0
   -3.0697    5.7856   -0.0466 O   0  0  0  0  0  0  0  0  0  0  0  0
   -4.0789    5.0034   -0.4369 C   0  0  0  0  0  0  0  0  0  0  0  0
   -4.0239    3.8236   -0.6735 O   0  0  0  0  0  0  0  0  0  0  0  0
   -5.3753    5.8344   -0.5541 C   0  0  0  0  0  0  0  0  0  0  0  0
   -6.3897    5.0530   -0.9294 F   0  0  0  0  0  0  0  0  0  0  0  0
   -5.6758    6.3987    0.6277 F   0  0  0  0  0  0  0  0  0  0  0  0
   -5.2192    6.8106   -1.4647 F   0  0  0  0  0  0  0  0  0  0  0  0
  1  4  1  0  0  0  0
  2  1  1  0  0  0  0
  3  2  1  0  0  0  0
  4  5  2  0  0  0  0
  5 13  1  0  0  0  0
  6  5  1  0  0  0  0
  6  7  1  0  0  0  0
  7  8  2  0  0  0  0
  9  7  2  0  0  0  0
 10 14  1  0  0  0  0
 10  6  2  0  0  0  0
 11  1  2  0  0  0  0
 11 10  1  0  0  0  0
 15 11  1  0  0  0  0
 16 12  1  0  0  0  0
 17 16  1  0  0  0  0
 18 17  2  0  0  0  0
 19 17  1  0  0  0  0
 19 21  1  0  0  0  0
 20 19  1  0  0  0  0
 22 19  1  0  0  0  0
M  RAD  3   2   2   3   3   4   2
M  END
