Coordinates from ORCA-job 4-NO2PhN2+~CF3COO-_B3LYPG-6-31G_dp-CH-Scan-d09-49-n800
 OpenBabel11261919433D

 22 21  0  0  0  0  0  0  0  0999 V2000
   -1.5526    0.4633   -0.4609 C   0  0  0  0  0  0  0  0  0  0  0  0
   -2.9093    0.5115   -0.8061 N   0  0  0  0  0  0  0  0  0  0  0  0
   -3.9877    0.6172   -1.0681 N   0  0  0  0  0  0  0  0  0  0  0  0
   -1.0197    1.6989   -0.0769 C   0  0  0  0  0  0  0  0  0  0  0  0
    0.3560    1.5680    0.2570 C   0  0  0  0  0  0  0  0  0  0  0  0
    1.0139    0.3485    0.1867 C   0  0  0  0  0  0  0  0  0  0  0  0
    2.4548    0.2809    0.5489 N   0  0  0  0  0  0  0  0  0  0  0  0
    3.0014    1.3205    0.9020 O   0  0  0  0  0  0  0  0  0  0  0  0
    3.0051   -0.8163    0.4696 O   0  0  0  0  0  0  0  0  0  0  0  0
    0.3980   -0.8543   -0.2126 C   0  0  0  0  0  0  0  0  0  0  0  0
   -0.9355   -0.8110   -0.5516 C   0  0  0  0  0  0  0  0  0  0  0  0
   -2.1101    3.5934   -0.0221 H   0  0  0  0  0  0  0  0  0  0  0  0
    0.9284    2.4323    0.5788 H   0  0  0  0  0  0  0  0  0  0  0  0
    0.9742   -1.7694   -0.2446 H   0  0  0  0  0  0  0  0  0  0  0  0
   -1.4752   -1.6978   -0.8689 H   0  0  0  0  0  0  0  0  0  0  0  0
   -2.5838    4.4710   -0.0089 O   0  0  0  0  0  0  0  0  0  0  0  0
   -3.8080    4.3249   -0.4748 C   0  0  0  0  0  0  0  0  0  0  0  0
   -4.3387    3.3060   -0.8617 O   0  0  0  0  0  0  0  0  0  0  0  0
   -4.5478    5.6820   -0.4775 C   0  0  0  0  0  0  0  0  0  0  0  0
   -5.7948    5.5368   -0.9357 F   0  0  0  0  0  0  0  0  0  0  0  0
   -4.6052    6.1880    0.7677 F   0  0  0  0  0  0  0  0  0  0  0  0
   -3.9029    6.5646   -1.2619 F   0  0  0  0  0  0  0  0  0  0  0  0
  1  4  1  0  0  0  0
  2  1  1  0  0  0  0
  3  2  1  0  0  0  0
  4  5  2  0  0  0  0
  5 13  1  0  0  0  0
  6  5  1  0  0  0  0
  6  7  1  0  0  0  0
  7  8  2  0  0  0  0
  9  7  2  0  0  0  0
 10  6  2  0  0  0  0
 11  1  2  0  0  0  0
 11 10  1  0  0  0  0
 12 16  1  0  0  0  0
 14 10  1  0  0  0  0
 15 11  1  0  0  0  0
 17 16  1  0  0  0  0
 18 17  2  0  0  0  0
 19 17  1  0  0  0  0
 19 21  1  0  0  0  0
 20 19  1  0  0  0  0
 22 19  1  0  0  0  0
M  RAD  3   2   2   3   3   4   2
M  END
