Coordinates from ORCA-job 4-NO2PhN2+~CF3COO-_B3LYPG-6-31G_dp-CH-Scan-d09-49-n800
 OpenBabel11261919433D

 22 22  0  0  0  0  0  0  0  0999 V2000
   -1.6928    0.7259   -0.3417 C   0  0  0  0  0  0  0  0  0  0  0  0
   -3.0746    0.6452   -0.6261 N   0  0  0  0  0  0  0  0  0  0  0  0
   -3.9977    1.3738   -0.7516 N   0  0  0  0  0  0  0  0  0  0  0  0
   -0.9754    1.9226   -0.1478 C   0  0  0  0  0  0  0  0  0  0  0  0
    0.3895    1.8420    0.1100 C   0  0  0  0  0  0  0  0  0  0  0  0
    1.0027    0.5924    0.1737 C   0  0  0  0  0  0  0  0  0  0  0  0
    2.4546    0.5262    0.4516 N   0  0  0  0  0  0  0  0  0  0  0  0
    3.0472    1.5896    0.6109 O   0  0  0  0  0  0  0  0  0  0  0  0
    2.9664   -0.5889    0.5053 O   0  0  0  0  0  0  0  0  0  0  0  0
    0.3049   -0.5980   -0.0151 C   0  0  0  0  0  0  0  0  0  0  0  0
   -1.0569   -0.5244   -0.2782 C   0  0  0  0  0  0  0  0  0  0  0  0
   -1.4673    2.8603   -0.1992 H   0  0  0  0  0  0  0  0  0  0  0  0
    0.9830    2.7343    0.2645 H   0  0  0  0  0  0  0  0  0  0  0  0
    0.8281   -1.5438    0.0432 H   0  0  0  0  0  0  0  0  0  0  0  0
   -1.6453   -1.4206   -0.4381 H   0  0  0  0  0  0  0  0  0  0  0  0
   -3.5584    2.9860   -0.4461 O   0  0  0  0  0  0  0  0  0  0  0  0
   -4.4711    3.8408   -0.8850 C   0  0  0  0  0  0  0  0  0  0  0  0
   -5.4589    3.6349   -1.5435 O   0  0  0  0  0  0  0  0  0  0  0  0
   -4.0936    5.2675   -0.3954 C   0  0  0  0  0  0  0  0  0  0  0  0
   -4.7780    6.1958   -1.0660 F   0  0  0  0  0  0  0  0  0  0  0  0
   -4.3717    5.3915    0.9165 F   0  0  0  0  0  0  0  0  0  0  0  0
   -2.7741    5.5062   -0.5636 F   0  0  0  0  0  0  0  0  0  0  0  0
  1 11  2  0  0  0  0
  1  4  1  0  0  0  0
  2  1  1  0  0  0  0
  3  2  1  0  0  0  0
  3 16  1  0  0  0  0
  4  5  2  0  0  0  0
  5  6  1  0  0  0  0
  5 13  1  0  0  0  0
  6  7  1  0  0  0  0
  7  9  2  0  0  0  0
  7  8  2  0  0  0  0
 10 14  1  0  0  0  0
 10  6  2  0  0  0  0
 11 10  1  0  0  0  0
 12  4  1  0  0  0  0
 15 11  1  0  0  0  0
 17 16  1  0  0  0  0
 17 19  1  0  0  0  0
 18 17  2  0  0  0  0
 19 21  1  0  0  0  0
 20 19  1  0  0  0  0
 22 19  1  0  0  0  0
M  RAD  2   2   2   3   2
M  END
