Coordinates from ORCA-job 4-NO2PhN2+~CF3COO-_B3LYPG-6-31G_dp-CH-Scan-d09-49-n800
 OpenBabel11261919433D

 22 21  0  0  0  0  0  0  0  0999 V2000
   -1.4379    0.4396   -0.4504 C   0  0  0  0  0  0  0  0  0  0  0  0
   -2.7929    0.5519   -0.7934 N   0  0  0  0  0  0  0  0  0  0  0  0
   -3.8676    0.6972   -1.0541 N   0  0  0  0  0  0  0  0  0  0  0  0
   -0.8592    1.6507   -0.0578 C   0  0  0  0  0  0  0  0  0  0  0  0
    0.5114    1.4548    0.2754 C   0  0  0  0  0  0  0  0  0  0  0  0
    1.1159    0.2089    0.1957 C   0  0  0  0  0  0  0  0  0  0  0  0
    2.5518    0.0747    0.5589 N   0  0  0  0  0  0  0  0  0  0  0  0
    3.1442    1.0859    0.9216 O   0  0  0  0  0  0  0  0  0  0  0  0
    3.0541   -1.0451    0.4730 O   0  0  0  0  0  0  0  0  0  0  0  0
    0.4495   -0.9648   -0.2143 C   0  0  0  0  0  0  0  0  0  0  0  0
   -0.8799   -0.8619   -0.5535 C   0  0  0  0  0  0  0  0  0  0  0  0
   -2.1619    4.0001    0.0110 H   0  0  0  0  0  0  0  0  0  0  0  0
    1.1229    2.2892    0.6049 H   0  0  0  0  0  0  0  0  0  0  0  0
    0.9872   -1.9028   -0.2530 H   0  0  0  0  0  0  0  0  0  0  0  0
   -1.4576   -1.7220   -0.8782 H   0  0  0  0  0  0  0  0  0  0  0  0
   -2.7073    4.8145   -0.0089 O   0  0  0  0  0  0  0  0  0  0  0  0
   -3.9136    4.5104   -0.4677 C   0  0  0  0  0  0  0  0  0  0  0  0
   -4.3138    3.4230   -0.8109 O   0  0  0  0  0  0  0  0  0  0  0  0
   -4.7988    5.7754   -0.5190 C   0  0  0  0  0  0  0  0  0  0  0  0
   -6.0239    5.4671   -0.9515 F   0  0  0  0  0  0  0  0  0  0  0  0
   -4.8988    6.3273    0.7029 F   0  0  0  0  0  0  0  0  0  0  0  0
   -4.2633    6.6852   -1.3522 F   0  0  0  0  0  0  0  0  0  0  0  0
  1  4  1  0  0  0  0
  2  1  1  0  0  0  0
  3  2  1  0  0  0  0
  4  5  2  0  0  0  0
  5 13  1  0  0  0  0
  6  5  1  0  0  0  0
  6  7  1  0  0  0  0
  7  8  2  0  0  0  0
  9  7  2  0  0  0  0
 10  6  2  0  0  0  0
 11  1  2  0  0  0  0
 11 10  1  0  0  0  0
 14 10  1  0  0  0  0
 15 11  1  0  0  0  0
 16 12  1  0  0  0  0
 17 16  1  0  0  0  0
 18 17  2  0  0  0  0
 19 17  1  0  0  0  0
 19 21  1  0  0  0  0
 20 19  1  0  0  0  0
 22 19  1  0  0  0  0
M  RAD  3   2   2   3   3   4   2
M  END
