Coordinates from ORCA-job 4-NO2PhN2+~CF3COO-_B3LYPG-6-31G_dp-CH-Scan-d09-49-n800
 OpenBabel11261919433D

 22 21  0  0  0  0  0  0  0  0999 V2000
   -1.3157    0.4080   -0.4313 C   0  0  0  0  0  0  0  0  0  0  0  0
   -2.6682    0.5916   -0.7635 N   0  0  0  0  0  0  0  0  0  0  0  0
   -3.7362    0.7965   -1.0143 N   0  0  0  0  0  0  0  0  0  0  0  0
   -0.6889    1.5903   -0.0298 C   0  0  0  0  0  0  0  0  0  0  0  0
    0.6750    1.3273    0.2939 C   0  0  0  0  0  0  0  0  0  0  0  0
    1.2229    0.0568    0.1989 C   0  0  0  0  0  0  0  0  0  0  0  0
    2.6524   -0.1461    0.5554 N   0  0  0  0  0  0  0  0  0  0  0  0
    3.2922    0.8335    0.9252 O   0  0  0  0  0  0  0  0  0  0  0  0
    3.1041   -1.2865    0.4576 O   0  0  0  0  0  0  0  0  0  0  0  0
    0.5035   -1.0831   -0.2208 C   0  0  0  0  0  0  0  0  0  0  0  0
   -0.8210   -0.9178   -0.5530 C   0  0  0  0  0  0  0  0  0  0  0  0
   -2.2344    4.4731    0.0850 H   0  0  0  0  0  0  0  0  0  0  0  0
    1.3262    2.1291    0.6291 H   0  0  0  0  0  0  0  0  0  0  0  0
    0.9995   -2.0432   -0.2713 H   0  0  0  0  0  0  0  0  0  0  0  0
   -1.4385   -1.7474   -0.8845 H   0  0  0  0  0  0  0  0  0  0  0  0
   -2.8699    5.2081    0.0133 O   0  0  0  0  0  0  0  0  0  0  0  0
   -4.0206    4.7226   -0.4482 C   0  0  0  0  0  0  0  0  0  0  0  0
   -4.2604    3.5761   -0.7362 O   0  0  0  0  0  0  0  0  0  0  0  0
   -5.0589    5.8588   -0.5784 C   0  0  0  0  0  0  0  0  0  0  0  0
   -6.2194    5.3753   -1.0261 F   0  0  0  0  0  0  0  0  0  0  0  0
   -5.2643    6.4419    0.6152 F   0  0  0  0  0  0  0  0  0  0  0  0
   -4.6188    6.7940   -1.4379 F   0  0  0  0  0  0  0  0  0  0  0  0
  1  4  1  0  0  0  0
  2  1  1  0  0  0  0
  3  2  1  0  0  0  0
  4  5  2  0  0  0  0
  5 13  1  0  0  0  0
  6  5  1  0  0  0  0
  6  7  1  0  0  0  0
  7  8  2  0  0  0  0
  9  7  2  0  0  0  0
 10  6  2  0  0  0  0
 11  1  2  0  0  0  0
 11 10  1  0  0  0  0
 14 10  1  0  0  0  0
 15 11  1  0  0  0  0
 16 12  1  0  0  0  0
 17 16  1  0  0  0  0
 18 17  2  0  0  0  0
 19 17  1  0  0  0  0
 19 21  1  0  0  0  0
 20 19  1  0  0  0  0
 22 19  1  0  0  0  0
M  RAD  3   2   2   3   3   4   2
M  END
