Coordinates from ORCA-job 4-NO2PhN2+~CF3COO-_B3LYPG-6-31G_dp-CH-Scan-d09-49-n800
 OpenBabel11261919433D

 22 21  0  0  0  0  0  0  0  0999 V2000
   -1.3374    0.4119   -0.4352 C   0  0  0  0  0  0  0  0  0  0  0  0
   -2.6906    0.5820   -0.7700 N   0  0  0  0  0  0  0  0  0  0  0  0
   -3.7611    0.7746   -1.0193 N   0  0  0  0  0  0  0  0  0  0  0  0
   -0.7211    1.5993   -0.0317 C   0  0  0  0  0  0  0  0  0  0  0  0
    0.6443    1.3495    0.2942 C   0  0  0  0  0  0  0  0  0  0  0  0
    1.2042    0.0842    0.1992 C   0  0  0  0  0  0  0  0  0  0  0  0
    2.6350   -0.1054    0.5578 N   0  0  0  0  0  0  0  0  0  0  0  0
    3.2648    0.8800    0.9294 O   0  0  0  0  0  0  0  0  0  0  0  0
    3.0977   -1.2413    0.4591 O   0  0  0  0  0  0  0  0  0  0  0  0
    0.4962   -1.0619   -0.2223 C   0  0  0  0  0  0  0  0  0  0  0  0
   -0.8294   -0.9088   -0.5566 C   0  0  0  0  0  0  0  0  0  0  0  0
   -2.2233    4.3807    0.0726 H   0  0  0  0  0  0  0  0  0  0  0  0
    1.2871    2.1573    0.6309 H   0  0  0  0  0  0  0  0  0  0  0  0
    1.0011   -2.0173   -0.2728 H   0  0  0  0  0  0  0  0  0  0  0  0
   -1.4383   -1.7441   -0.8896 H   0  0  0  0  0  0  0  0  0  0  0  0
   -2.8403    5.1329    0.0102 O   0  0  0  0  0  0  0  0  0  0  0  0
   -4.0046    4.6835   -0.4515 C   0  0  0  0  0  0  0  0  0  0  0  0
   -4.2773    3.5469   -0.7506 O   0  0  0  0  0  0  0  0  0  0  0  0
   -5.0121    5.8485   -0.5680 C   0  0  0  0  0  0  0  0  0  0  0  0
   -6.1923    5.3980   -0.9991 F   0  0  0  0  0  0  0  0  0  0  0  0
   -5.1846    6.4390    0.6270 F   0  0  0  0  0  0  0  0  0  0  0  0
   -4.5575    6.7697   -1.4354 F   0  0  0  0  0  0  0  0  0  0  0  0
  1  4  1  0  0  0  0
  2  1  1  0  0  0  0
  3  2  1  0  0  0  0
  4  5  2  0  0  0  0
  5 13  1  0  0  0  0
  6  5  1  0  0  0  0
  6  7  1  0  0  0  0
  7  8  2  0  0  0  0
  9  7  2  0  0  0  0
 10  6  2  0  0  0  0
 11  1  2  0  0  0  0
 11 10  1  0  0  0  0
 14 10  1  0  0  0  0
 15 11  1  0  0  0  0
 16 12  1  0  0  0  0
 17 16  1  0  0  0  0
 18 17  2  0  0  0  0
 19 17  1  0  0  0  0
 19 21  1  0  0  0  0
 20 19  1  0  0  0  0
 22 19  1  0  0  0  0
M  RAD  3   2   2   3   3   4   2
M  END
