Coordinates from ORCA-job 4-NO2PhN2+~CF3COO-_B3LYPG-6-31G_dp-CH-Scan-d09-49-n800
 OpenBabel11261919433D

 22 21  0  0  0  0  0  0  0  0999 V2000
   -1.2001    0.4071   -0.4488 C   0  0  0  0  0  0  0  0  0  0  0  0
   -2.5382    0.6699   -0.7936 N   0  0  0  0  0  0  0  0  0  0  0  0
   -3.5891    0.9423   -1.0539 N   0  0  0  0  0  0  0  0  0  0  0  0
   -0.5096    1.5600   -0.0700 C   0  0  0  0  0  0  0  0  0  0  0  0
    0.8354    1.2198    0.2679 C   0  0  0  0  0  0  0  0  0  0  0  0
    1.3054   -0.0835    0.2066 C   0  0  0  0  0  0  0  0  0  0  0  0
    2.7172   -0.3653    0.5792 N   0  0  0  0  0  0  0  0  0  0  0  0
    3.4158    0.5824    0.9257 O   0  0  0  0  0  0  0  0  0  0  0  0
    3.0989   -1.5336    0.5138 O   0  0  0  0  0  0  0  0  0  0  0  0
    0.5204   -1.1878   -0.1926 C   0  0  0  0  0  0  0  0  0  0  0  0
   -0.7893   -0.9499   -0.5387 C   0  0  0  0  0  0  0  0  0  0  0  0
   -2.2663    5.0261    0.0798 H   0  0  0  0  0  0  0  0  0  0  0  0
    1.5335    1.9877    0.5886 H   0  0  0  0  0  0  0  0  0  0  0  0
    0.9573   -2.1771   -0.2172 H   0  0  0  0  0  0  0  0  0  0  0  0
   -1.4544   -1.7475   -0.8568 H   0  0  0  0  0  0  0  0  0  0  0  0
   -3.0188    5.6357   -0.0126 O   0  0  0  0  0  0  0  0  0  0  0  0
   -4.0710    4.9337   -0.4384 C   0  0  0  0  0  0  0  0  0  0  0  0
   -4.1012    3.7527   -0.6745 O   0  0  0  0  0  0  0  0  0  0  0  0
   -5.2969    5.8608   -0.5900 C   0  0  0  0  0  0  0  0  0  0  0  0
   -6.3385    5.1728   -1.0614 F   0  0  0  0  0  0  0  0  0  0  0  0
   -5.6280    6.3862    0.6022 F   0  0  0  0  0  0  0  0  0  0  0  0
   -5.0220    6.8666   -1.4369 F   0  0  0  0  0  0  0  0  0  0  0  0
  1  4  1  0  0  0  0
  2  1  1  0  0  0  0
  3  2  1  0  0  0  0
  4  5  2  0  0  0  0
  5 13  1  0  0  0  0
  6  5  1  0  0  0  0
  6  7  1  0  0  0  0
  7  8  2  0  0  0  0
  9  7  2  0  0  0  0
 10  6  2  0  0  0  0
 11  1  2  0  0  0  0
 11 10  1  0  0  0  0
 14 10  1  0  0  0  0
 15 11  1  0  0  0  0
 16 12  1  0  0  0  0
 17 16  1  0  0  0  0
 18 17  2  0  0  0  0
 19 17  1  0  0  0  0
 19 21  1  0  0  0  0
 20 19  1  0  0  0  0
 22 19  1  0  0  0  0
M  RAD  3   2   2   3   3   4   2
M  END
