Coordinates from ORCA-job 4-NO2PhN2+~CF3COO-_B3LYPG-6-31G_dp-CH-Scan-d09-49-n800
 OpenBabel11261919433D

 22 21  0  0  0  0  0  0  0  0999 V2000
   -1.5653    0.4669   -0.4626 C   0  0  0  0  0  0  0  0  0  0  0  0
   -2.9220    0.5084   -0.8084 N   0  0  0  0  0  0  0  0  0  0  0  0
   -4.0005    0.6108   -1.0708 N   0  0  0  0  0  0  0  0  0  0  0  0
   -1.0369    1.7050   -0.0797 C   0  0  0  0  0  0  0  0  0  0  0  0
    0.3389    1.5807    0.2546 C   0  0  0  0  0  0  0  0  0  0  0  0
    1.0022    0.3639    0.1857 C   0  0  0  0  0  0  0  0  0  0  0  0
    2.4433    0.3031    0.5481 N   0  0  0  0  0  0  0  0  0  0  0  0
    2.9850    1.3455    0.9005 O   0  0  0  0  0  0  0  0  0  0  0  0
    2.9983   -0.7918    0.4703 O   0  0  0  0  0  0  0  0  0  0  0  0
    0.3915   -0.8418   -0.2123 C   0  0  0  0  0  0  0  0  0  0  0  0
   -0.9422   -0.8044   -0.5516 C   0  0  0  0  0  0  0  0  0  0  0  0
   -2.1015    3.5509   -0.0266 H   0  0  0  0  0  0  0  0  0  0  0  0
    0.9072    2.4480    0.5754 H   0  0  0  0  0  0  0  0  0  0  0  0
    0.9715   -1.7545   -0.2433 H   0  0  0  0  0  0  0  0  0  0  0  0
   -1.4781   -1.6939   -0.8680 H   0  0  0  0  0  0  0  0  0  0  0  0
   -2.5695    4.4354   -0.0100 O   0  0  0  0  0  0  0  0  0  0  0  0
   -3.7947    4.3046   -0.4747 C   0  0  0  0  0  0  0  0  0  0  0  0
   -4.3383    3.2932   -0.8649 O   0  0  0  0  0  0  0  0  0  0  0  0
   -4.5204    5.6694   -0.4727 C   0  0  0  0  0  0  0  0  0  0  0  0
   -5.7688    5.5396   -0.9319 F   0  0  0  0  0  0  0  0  0  0  0  0
   -4.5731    6.1716    0.7745 F   0  0  0  0  0  0  0  0  0  0  0  0
   -3.8661    6.5486   -1.2534 F   0  0  0  0  0  0  0  0  0  0  0  0
  1  4  1  0  0  0  0
  2  1  1  0  0  0  0
  3  2  1  0  0  0  0
  4  5  2  0  0  0  0
  5 13  1  0  0  0  0
  6  5  1  0  0  0  0
  6  7  1  0  0  0  0
  7  8  2  0  0  0  0
  9  7  2  0  0  0  0
 10  6  2  0  0  0  0
 11  1  2  0  0  0  0
 11 10  1  0  0  0  0
 12 16  1  0  0  0  0
 14 10  1  0  0  0  0
 15 11  1  0  0  0  0
 17 19  1  0  0  0  0
 17 16  1  0  0  0  0
 18 17  2  0  0  0  0
 19 21  1  0  0  0  0
 20 19  1  0  0  0  0
 22 19  1  0  0  0  0
M  RAD  3   2   2   3   3   4   2
M  END
