Coordinates from ORCA-job 4-NO2PhN2+~CF3COO-_B3LYPG-6-31G_dp-CH-Scan-d09-49-n800
 OpenBabel11261919433D

 22 21  0  0  0  0  0  0  0  0999 V2000
   -1.5097    0.4527   -0.4566 C   0  0  0  0  0  0  0  0  0  0  0  0
   -2.8663    0.5243   -0.8002 N   0  0  0  0  0  0  0  0  0  0  0  0
   -3.9439    0.6430   -1.0609 N   0  0  0  0  0  0  0  0  0  0  0  0
   -0.9603    1.6797   -0.0694 C   0  0  0  0  0  0  0  0  0  0  0  0
    0.4140    1.5257    0.2637 C   0  0  0  0  0  0  0  0  0  0  0  0
    1.0531    0.2966    0.1892 C   0  0  0  0  0  0  0  0  0  0  0  0
    2.4928    0.2052    0.5510 N   0  0  0  0  0  0  0  0  0  0  0  0
    3.0550    1.2340    0.9116 O   0  0  0  0  0  0  0  0  0  0  0  0
    3.0251   -0.9010    0.4726 O   0  0  0  0  0  0  0  0  0  0  0  0
    0.4190   -0.8961   -0.2141 C   0  0  0  0  0  0  0  0  0  0  0  0
   -0.9134   -0.8316   -0.5526 C   0  0  0  0  0  0  0  0  0  0  0  0
   -2.1337    3.7401   -0.0090 H   0  0  0  0  0  0  0  0  0  0  0  0
    1.0008    2.3794    0.5883 H   0  0  0  0  0  0  0  0  0  0  0  0
    0.9818   -1.8194   -0.2491 H   0  0  0  0  0  0  0  0  0  0  0  0
   -1.4669   -1.7091   -0.8726 H   0  0  0  0  0  0  0  0  0  0  0  0
   -2.6304    4.5949   -0.0078 O   0  0  0  0  0  0  0  0  0  0  0  0
   -3.8507    4.3936   -0.4733 C   0  0  0  0  0  0  0  0  0  0  0  0
   -4.3361    3.3491   -0.8460 O   0  0  0  0  0  0  0  0  0  0  0  0
   -4.6413    5.7211   -0.4932 C   0  0  0  0  0  0  0  0  0  0  0  0
   -5.8831    5.5194   -0.9423 F   0  0  0  0  0  0  0  0  0  0  0  0
   -4.7115    6.2438    0.7441 F   0  0  0  0  0  0  0  0  0  0  0  0
   -4.0338    6.6141   -1.2951 F   0  0  0  0  0  0  0  0  0  0  0  0
  1  4  1  0  0  0  0
  2  1  1  0  0  0  0
  3  2  1  0  0  0  0
  4  5  2  0  0  0  0
  5 13  1  0  0  0  0
  6  5  1  0  0  0  0
  6  7  1  0  0  0  0
  7  8  2  0  0  0  0
  9  7  2  0  0  0  0
 10  6  2  0  0  0  0
 11  1  2  0  0  0  0
 11 10  1  0  0  0  0
 12 16  1  0  0  0  0
 14 10  1  0  0  0  0
 15 11  1  0  0  0  0
 17 16  1  0  0  0  0
 18 17  2  0  0  0  0
 19 17  1  0  0  0  0
 19 21  1  0  0  0  0
 20 19  1  0  0  0  0
 22 19  1  0  0  0  0
M  RAD  3   2   2   3   3   4   2
M  END
