Coordinates from ORCA-job 4-NO2PhN2+~CF3COO-_B3LYPG-6-31G_dp-CH-Scan-d09-49-n800
 OpenBabel11261919433D

 22 21  0  0  0  0  0  0  0  0999 V2000
   -1.4900    0.4488   -0.4545 C   0  0  0  0  0  0  0  0  0  0  0  0
   -2.8463    0.5316   -0.7981 N   0  0  0  0  0  0  0  0  0  0  0  0
   -3.9232    0.6573   -1.0588 N   0  0  0  0  0  0  0  0  0  0  0  0
   -0.9329    1.6715   -0.0654 C   0  0  0  0  0  0  0  0  0  0  0  0
    0.4406    1.5061    0.2680 C   0  0  0  0  0  0  0  0  0  0  0  0
    1.0704    0.2725    0.1917 C   0  0  0  0  0  0  0  0  0  0  0  0
    2.5092    0.1694    0.5541 N   0  0  0  0  0  0  0  0  0  0  0  0
    3.0804    1.1940    0.9126 O   0  0  0  0  0  0  0  0  0  0  0  0
    3.0343   -0.9399    0.4703 O   0  0  0  0  0  0  0  0  0  0  0  0
    0.4277   -0.9151   -0.2139 C   0  0  0  0  0  0  0  0  0  0  0  0
   -0.9040   -0.8402   -0.5528 C   0  0  0  0  0  0  0  0  0  0  0  0
   -2.1427    3.8090   -0.0030 H   0  0  0  0  0  0  0  0  0  0  0  0
    1.0340    2.3546    0.5942 H   0  0  0  0  0  0  0  0  0  0  0  0
    0.9838   -1.8423   -0.2501 H   0  0  0  0  0  0  0  0  0  0  0  0
   -1.4639   -1.7131   -0.8744 H   0  0  0  0  0  0  0  0  0  0  0  0
   -2.6515    4.6533   -0.0075 O   0  0  0  0  0  0  0  0  0  0  0  0
   -3.8689    4.4251   -0.4723 C   0  0  0  0  0  0  0  0  0  0  0  0
   -4.3322    3.3688   -0.8378 O   0  0  0  0  0  0  0  0  0  0  0  0
   -4.6844    5.7372   -0.5006 C   0  0  0  0  0  0  0  0  0  0  0  0
   -5.9225    5.5076   -0.9460 F   0  0  0  0  0  0  0  0  0  0  0  0
   -4.7623    6.2676    0.7328 F   0  0  0  0  0  0  0  0  0  0  0  0
   -4.0952    6.6351   -1.3105 F   0  0  0  0  0  0  0  0  0  0  0  0
  1  4  1  0  0  0  0
  2  1  1  0  0  0  0
  3  2  1  0  0  0  0
  4  5  2  0  0  0  0
  5 13  1  0  0  0  0
  6  5  1  0  0  0  0
  6  7  1  0  0  0  0
  7  8  2  0  0  0  0
  9  7  2  0  0  0  0
 10  6  2  0  0  0  0
 11  1  2  0  0  0  0
 11 10  1  0  0  0  0
 14 10  1  0  0  0  0
 15 11  1  0  0  0  0
 16 12  1  0  0  0  0
 17 16  1  0  0  0  0
 18 17  2  0  0  0  0
 19 17  1  0  0  0  0
 19 21  1  0  0  0  0
 20 19  1  0  0  0  0
 22 19  1  0  0  0  0
M  RAD  3   2   2   3   3   4   2
M  END
