Coordinates from ORCA-job 4-NO2PhN2+~CF3COO-_B3LYPG-6-31G_dp-CH-Scan-d09-49-n800
 OpenBabel11261919433D

 22 22  0  0  0  0  0  0  0  0999 V2000
   -1.6888    0.7252   -0.3394 C   0  0  0  0  0  0  0  0  0  0  0  0
   -3.0707    0.6480   -0.6226 N   0  0  0  0  0  0  0  0  0  0  0  0
   -3.9953    1.3734   -0.7482 N   0  0  0  0  0  0  0  0  0  0  0  0
   -0.9690    1.9200   -0.1444 C   0  0  0  0  0  0  0  0  0  0  0  0
    0.3958    1.8381    0.1123 C   0  0  0  0  0  0  0  0  0  0  0  0
    1.0068    0.5873    0.1739 C   0  0  0  0  0  0  0  0  0  0  0  0
    2.4589    0.5185    0.4509 N   0  0  0  0  0  0  0  0  0  0  0  0
    3.0535    1.5808    0.6094 O   0  0  0  0  0  0  0  0  0  0  0  0
    2.9693   -0.5975    0.5009 O   0  0  0  0  0  0  0  0  0  0  0  0
    0.3072   -0.6019   -0.0158 C   0  0  0  0  0  0  0  0  0  0  0  0
   -1.0547   -0.5262   -0.2779 C   0  0  0  0  0  0  0  0  0  0  0  0
   -1.4753    2.8841   -0.1958 H   0  0  0  0  0  0  0  0  0  0  0  0
    0.9906    2.7293    0.2675 H   0  0  0  0  0  0  0  0  0  0  0  0
    0.8292   -1.5484    0.0409 H   0  0  0  0  0  0  0  0  0  0  0  0
   -1.6444   -1.4215   -0.4384 H   0  0  0  0  0  0  0  0  0  0  0  0
   -3.5604    2.9923   -0.4415 O   0  0  0  0  0  0  0  0  0  0  0  0
   -4.4732    3.8429   -0.8862 C   0  0  0  0  0  0  0  0  0  0  0  0
   -5.4572    3.6329   -1.5494 O   0  0  0  0  0  0  0  0  0  0  0  0
   -4.1032    5.2720   -0.3975 C   0  0  0  0  0  0  0  0  0  0  0  0
   -4.7891    6.1968   -1.0717 F   0  0  0  0  0  0  0  0  0  0  0  0
   -4.3857    5.3973    0.9134 F   0  0  0  0  0  0  0  0  0  0  0  0
   -2.7841    5.5158   -0.5620 F   0  0  0  0  0  0  0  0  0  0  0  0
  1 11  2  0  0  0  0
  1  4  1  0  0  0  0
  2  1  1  0  0  0  0
  3  2  1  0  0  0  0
  3 16  1  0  0  0  0
  4  5  2  0  0  0  0
  5  6  1  0  0  0  0
  5 13  1  0  0  0  0
  6  7  1  0  0  0  0
  7  9  2  0  0  0  0
  7  8  2  0  0  0  0
 10 14  1  0  0  0  0
 10  6  2  0  0  0  0
 11 10  1  0  0  0  0
 12  4  1  0  0  0  0
 15 11  1  0  0  0  0
 17 16  1  0  0  0  0
 17 19  1  0  0  0  0
 18 17  2  0  0  0  0
 19 21  1  0  0  0  0
 20 19  1  0  0  0  0
 22 19  1  0  0  0  0
M  RAD  2   2   2   3   2
M  END
