Coordinates from ORCA-job 4-NO2PhN2+~CF3COO-_B3LYPG-6-31G_dp-CH-Scan-d09-49-n800
 OpenBabel11261919433D

 22 21  0  0  0  0  0  0  0  0999 V2000
   -1.2413    0.3997   -0.4222 C   0  0  0  0  0  0  0  0  0  0  0  0
   -2.5889    0.6338   -0.7489 N   0  0  0  0  0  0  0  0  0  0  0  0
   -3.6493    0.8819   -0.9940 N   0  0  0  0  0  0  0  0  0  0  0  0
   -0.5740    1.5624   -0.0317 C   0  0  0  0  0  0  0  0  0  0  0  0
    0.7823    1.2509    0.2861 C   0  0  0  0  0  0  0  0  0  0  0  0
    1.2837   -0.0390    0.1971 C   0  0  0  0  0  0  0  0  0  0  0  0
    2.7066   -0.2915    0.5484 N   0  0  0  0  0  0  0  0  0  0  0  0
    3.3846    0.6671    0.9054 O   0  0  0  0  0  0  0  0  0  0  0  0
    3.1160   -1.4487    0.4592 O   0  0  0  0  0  0  0  0  0  0  0  0
    0.5215   -1.1557   -0.2115 C   0  0  0  0  0  0  0  0  0  0  0  0
   -0.7976   -0.9448   -0.5386 C   0  0  0  0  0  0  0  0  0  0  0  0
   -2.2698    4.8340    0.1309 H   0  0  0  0  0  0  0  0  0  0  0  0
    1.4646    2.0305    0.6124 H   0  0  0  0  0  0  0  0  0  0  0  0
    0.9824   -2.1333   -0.2577 H   0  0  0  0  0  0  0  0  0  0  0  0
   -1.4465   -1.7534   -0.8620 H   0  0  0  0  0  0  0  0  0  0  0  0
   -2.9776    5.4929    0.0230 O   0  0  0  0  0  0  0  0  0  0  0  0
   -4.0620    4.8661   -0.4361 C   0  0  0  0  0  0  0  0  0  0  0  0
   -4.1660    3.6911   -0.6830 O   0  0  0  0  0  0  0  0  0  0  0  0
   -5.2184    5.8745   -0.6127 C   0  0  0  0  0  0  0  0  0  0  0  0
   -6.2884    5.2642   -1.1255 F   0  0  0  0  0  0  0  0  0  0  0  0
   -5.5511    6.4067    0.5761 F   0  0  0  0  0  0  0  0  0  0  0  0
   -4.8505    6.8699   -1.4365 F   0  0  0  0  0  0  0  0  0  0  0  0
  1  4  1  0  0  0  0
  2  1  1  0  0  0  0
  3  2  1  0  0  0  0
  4  5  2  0  0  0  0
  5 13  1  0  0  0  0
  6  5  1  0  0  0  0
  6  7  1  0  0  0  0
  7  8  2  0  0  0  0
  9  7  2  0  0  0  0
 10  6  2  0  0  0  0
 11  1  2  0  0  0  0
 11 10  1  0  0  0  0
 14 10  1  0  0  0  0
 15 11  1  0  0  0  0
 16 12  1  0  0  0  0
 17 16  1  0  0  0  0
 18 17  2  0  0  0  0
 19 17  1  0  0  0  0
 19 21  1  0  0  0  0
 20 19  1  0  0  0  0
 22 19  1  0  0  0  0
M  RAD  3   2   2   3   3   4   2
M  END
