Coordinates from ORCA-job 4-NO2PhN2+~CF3COO-_B3LYPG-6-31G_dp-CH-Scan-d09-49-n800
 OpenBabel11261919433D

 22 21  0  0  0  0  0  0  0  0999 V2000
   -1.1585    0.4196   -0.4866 C   0  0  0  0  0  0  0  0  0  0  0  0
   -2.4836    0.7117   -0.8584 N   0  0  0  0  0  0  0  0  0  0  0  0
   -3.5220    1.0079   -1.1423 N   0  0  0  0  0  0  0  0  0  0  0  0
   -0.4446    1.5612   -0.1185 C   0  0  0  0  0  0  0  0  0  0  0  0
    0.8859    1.1923    0.2472 C   0  0  0  0  0  0  0  0  0  0  0  0
    1.3220   -0.1237    0.2187 C   0  0  0  0  0  0  0  0  0  0  0  0
    2.7197   -0.4354    0.6196 N   0  0  0  0  0  0  0  0  0  0  0  0
    3.4362    0.4996    0.9643 O   0  0  0  0  0  0  0  0  0  0  0  0
    3.0716   -1.6142    0.5815 O   0  0  0  0  0  0  0  0  0  0  0  0
    0.5143   -1.2148   -0.1726 C   0  0  0  0  0  0  0  0  0  0  0  0
   -0.7828   -0.9494   -0.5448 C   0  0  0  0  0  0  0  0  0  0  0  0
   -2.2662    5.2140    0.0162 H   0  0  0  0  0  0  0  0  0  0  0  0
    1.5991    1.9480    0.5640 H   0  0  0  0  0  0  0  0  0  0  0  0
    0.9253   -2.2154   -0.1715 H   0  0  0  0  0  0  0  0  0  0  0  0
   -1.4635   -1.7352   -0.8592 H   0  0  0  0  0  0  0  0  0  0  0  0
   -3.0618    5.7701   -0.0480 O   0  0  0  0  0  0  0  0  0  0  0  0
   -4.0770    4.9954   -0.4378 C   0  0  0  0  0  0  0  0  0  0  0  0
   -4.0311    3.8154   -0.6749 O   0  0  0  0  0  0  0  0  0  0  0  0
   -5.3673    5.8361   -0.5538 C   0  0  0  0  0  0  0  0  0  0  0  0
   -6.3884    5.0617   -0.9257 F   0  0  0  0  0  0  0  0  0  0  0  0
   -5.6612    6.4048    0.6275 F   0  0  0  0  0  0  0  0  0  0  0  0
   -5.2055    6.8094   -1.4665 F   0  0  0  0  0  0  0  0  0  0  0  0
  1  4  1  0  0  0  0
  2  1  1  0  0  0  0
  3  2  1  0  0  0  0
  4  5  2  0  0  0  0
  5 13  1  0  0  0  0
  6  5  1  0  0  0  0
  6  7  1  0  0  0  0
  7  8  2  0  0  0  0
  9  7  2  0  0  0  0
 10 14  1  0  0  0  0
 10  6  2  0  0  0  0
 11  1  2  0  0  0  0
 11 10  1  0  0  0  0
 15 11  1  0  0  0  0
 16 12  1  0  0  0  0
 17 16  1  0  0  0  0
 18 17  2  0  0  0  0
 19 17  1  0  0  0  0
 19 21  1  0  0  0  0
 20 19  1  0  0  0  0
 22 19  1  0  0  0  0
M  RAD  3   2   2   3   3   4   2
M  END
