Coordinates from ORCA-job 4-NO2PhN2+~CF3COO-_B3LYPG-6-31G_dp-CH-Scan-d09-49-n800
 OpenBabel11261919433D

 22 22  0  0  0  0  0  0  0  0999 V2000
   -1.7126    0.7258   -0.3551 C   0  0  0  0  0  0  0  0  0  0  0  0
   -3.0934    0.6300   -0.6464 N   0  0  0  0  0  0  0  0  0  0  0  0
   -4.0081    1.3745   -0.7734 N   0  0  0  0  0  0  0  0  0  0  0  0
   -1.0096    1.9320   -0.1635 C   0  0  0  0  0  0  0  0  0  0  0  0
    0.3552    1.8604    0.1025 C   0  0  0  0  0  0  0  0  0  0  0  0
    0.9804    0.6178    0.1760 C   0  0  0  0  0  0  0  0  0  0  0  0
    2.4308    0.5666    0.4624 N   0  0  0  0  0  0  0  0  0  0  0  0
    3.0131    1.6362    0.6185 O   0  0  0  0  0  0  0  0  0  0  0  0
    2.9528   -0.5435    0.5246 O   0  0  0  0  0  0  0  0  0  0  0  0
    0.2941   -0.5794   -0.0109 C   0  0  0  0  0  0  0  0  0  0  0  0
   -1.0669   -0.5183   -0.2820 C   0  0  0  0  0  0  0  0  0  0  0  0
   -1.4337    2.7355   -0.2136 H   0  0  0  0  0  0  0  0  0  0  0  0
    0.9393    2.7594    0.2560 H   0  0  0  0  0  0  0  0  0  0  0  0
    0.8250   -1.5204    0.0549 H   0  0  0  0  0  0  0  0  0  0  0  0
   -1.6473   -1.4199   -0.4405 H   0  0  0  0  0  0  0  0  0  0  0  0
   -3.5455    2.9583   -0.4741 O   0  0  0  0  0  0  0  0  0  0  0  0
   -4.4600    3.8323   -0.8780 C   0  0  0  0  0  0  0  0  0  0  0  0
   -5.4705    3.6457   -1.5051 O   0  0  0  0  0  0  0  0  0  0  0  0
   -4.0434    5.2471   -0.3870 C   0  0  0  0  0  0  0  0  0  0  0  0
   -4.7351    6.1921   -1.0258 F   0  0  0  0  0  0  0  0  0  0  0  0
   -4.2773    5.3605    0.9344 F   0  0  0  0  0  0  0  0  0  0  0  0
   -2.7270    5.4664   -0.5958 F   0  0  0  0  0  0  0  0  0  0  0  0
  1 11  2  0  0  0  0
  1  4  1  0  0  0  0
  2  1  1  0  0  0  0
  3  2  1  0  0  0  0
  3 16  1  0  0  0  0
  4  5  2  0  0  0  0
  5  6  1  0  0  0  0
  5 13  1  0  0  0  0
  6  7  1  0  0  0  0
  7  9  2  0  0  0  0
  7  8  2  0  0  0  0
 10 14  1  0  0  0  0
 10  6  2  0  0  0  0
 11 10  1  0  0  0  0
 12  4  1  0  0  0  0
 15 11  1  0  0  0  0
 17 16  1  0  0  0  0
 17 19  1  0  0  0  0
 18 17  2  0  0  0  0
 19 21  1  0  0  0  0
 20 19  1  0  0  0  0
 22 19  1  0  0  0  0
M  RAD  2   2   2   3   2
M  END
