Coordinates from ORCA-job 4-NO2PhN2+~CF3COO-_B3LYPG-6-31G_dp-CH-Scan-d09-49-n800
 OpenBabel11261919433D

 22 21  0  0  0  0  0  0  0  0999 V2000
   -1.6655    0.4954   -0.4712 C   0  0  0  0  0  0  0  0  0  0  0  0
   -3.0235    0.4925   -0.8142 N   0  0  0  0  0  0  0  0  0  0  0  0
   -4.1022    0.6033   -1.0710 N   0  0  0  0  0  0  0  0  0  0  0  0
   -1.1676    1.7482   -0.0970 C   0  0  0  0  0  0  0  0  0  0  0  0
    0.2077    1.6794    0.2364 C   0  0  0  0  0  0  0  0  0  0  0  0
    0.9107    0.4836    0.1767 C   0  0  0  0  0  0  0  0  0  0  0  0
    2.3529    0.4747    0.5390 N   0  0  0  0  0  0  0  0  0  0  0  0
    2.8576    1.5385    0.8808 O   0  0  0  0  0  0  0  0  0  0  0  0
    2.9447   -0.6005    0.4641 O   0  0  0  0  0  0  0  0  0  0  0  0
    0.3386   -0.7417   -0.2110 C   0  0  0  0  0  0  0  0  0  0  0  0
   -0.9974   -0.7503   -0.5492 C   0  0  0  0  0  0  0  0  0  0  0  0
   -2.0140    3.1940   -0.0492 H   0  0  0  0  0  0  0  0  0  0  0  0
    0.7420    2.5709    0.5483 H   0  0  0  0  0  0  0  0  0  0  0  0
    0.9468   -1.6361   -0.2363 H   0  0  0  0  0  0  0  0  0  0  0  0
   -1.5038   -1.6591   -0.8583 H   0  0  0  0  0  0  0  0  0  0  0  0
   -2.4699    4.1596   -0.0017 O   0  0  0  0  0  0  0  0  0  0  0  0
   -3.6813    4.1478   -0.4790 C   0  0  0  0  0  0  0  0  0  0  0  0
   -4.3151    3.2025   -0.9194 O   0  0  0  0  0  0  0  0  0  0  0  0
   -4.3101    5.5617   -0.4385 C   0  0  0  0  0  0  0  0  0  0  0  0
   -5.5592    5.5466   -0.9184 F   0  0  0  0  0  0  0  0  0  0  0  0
   -4.3477    6.0265    0.8254 F   0  0  0  0  0  0  0  0  0  0  0  0
   -3.5831    6.4217   -1.1780 F   0  0  0  0  0  0  0  0  0  0  0  0
  1  4  1  0  0  0  0
  2  1  1  0  0  0  0
  3  2  1  0  0  0  0
  4  5  2  0  0  0  0
  5 13  1  0  0  0  0
  6  5  1  0  0  0  0
  6  7  1  0  0  0  0
  7  8  2  0  0  0  0
  9  7  2  0  0  0  0
 10  6  2  0  0  0  0
 11  1  2  0  0  0  0
 11 10  1  0  0  0  0
 12 16  1  0  0  0  0
 14 10  1  0  0  0  0
 15 11  1  0  0  0  0
 17 19  1  0  0  0  0
 17 16  1  0  0  0  0
 18 17  2  0  0  0  0
 19 21  1  0  0  0  0
 20 19  1  0  0  0  0
 22 19  1  0  0  0  0
M  RAD  3   2   2   3   3   4   2
M  END
