Coordinates from ORCA-job 4-NO2PhN2+~CF3COO-_B3LYPG-6-31G_dp-CH-Scan-d09-49-n800
 OpenBabel11261919433D

 22 21  0  0  0  0  0  0  0  0999 V2000
   -1.2751    0.4030   -0.4246 C   0  0  0  0  0  0  0  0  0  0  0  0
   -2.6255    0.6139   -0.7528 N   0  0  0  0  0  0  0  0  0  0  0  0
   -3.6904    0.8416   -0.9975 N   0  0  0  0  0  0  0  0  0  0  0  0
   -0.6259    1.5750   -0.0299 C   0  0  0  0  0  0  0  0  0  0  0  0
    0.7345    1.2854    0.2889 C   0  0  0  0  0  0  0  0  0  0  0  0
    1.2571    0.0042    0.1965 C   0  0  0  0  0  0  0  0  0  0  0  0
    2.6838   -0.2256    0.5481 N   0  0  0  0  0  0  0  0  0  0  0  0
    3.3437    0.7421    0.9143 O   0  0  0  0  0  0  0  0  0  0  0  0
    3.1111   -1.3762    0.4595 O   0  0  0  0  0  0  0  0  0  0  0  0
    0.5139   -1.1234   -0.2160 C   0  0  0  0  0  0  0  0  0  0  0  0
   -0.8083   -0.9333   -0.5438 C   0  0  0  0  0  0  0  0  0  0  0  0
   -2.2502    4.6703    0.1075 H   0  0  0  0  0  0  0  0  0  0  0  0
    1.4032    2.0753    0.6183 H   0  0  0  0  0  0  0  0  0  0  0  0
    0.9908   -2.0932   -0.2647 H   0  0  0  0  0  0  0  0  0  0  0  0
   -1.4434   -1.7517   -0.8700 H   0  0  0  0  0  0  0  0  0  0  0  0
   -2.9256    5.3652    0.0153 O   0  0  0  0  0  0  0  0  0  0  0  0
   -4.0432    4.8012   -0.4427 C   0  0  0  0  0  0  0  0  0  0  0  0
   -4.2103    3.6365   -0.7054 O   0  0  0  0  0  0  0  0  0  0  0  0
   -5.1480    5.8694   -0.5980 C   0  0  0  0  0  0  0  0  0  0  0  0
   -6.2566    5.3175   -1.0948 F   0  0  0  0  0  0  0  0  0  0  0  0
   -5.4338    6.4162    0.5964 F   0  0  0  0  0  0  0  0  0  0  0  0
   -4.7413    6.8461   -1.4263 F   0  0  0  0  0  0  0  0  0  0  0  0
  1  4  1  0  0  0  0
  2  1  1  0  0  0  0
  3  2  1  0  0  0  0
  4  5  2  0  0  0  0
  5 13  1  0  0  0  0
  6  5  1  0  0  0  0
  6  7  1  0  0  0  0
  7  8  2  0  0  0  0
  9  7  2  0  0  0  0
 10  6  2  0  0  0  0
 11  1  2  0  0  0  0
 11 10  1  0  0  0  0
 14 10  1  0  0  0  0
 15 11  1  0  0  0  0
 16 12  1  0  0  0  0
 17 16  1  0  0  0  0
 18 17  2  0  0  0  0
 19 17  1  0  0  0  0
 19 21  1  0  0  0  0
 20 19  1  0  0  0  0
 22 19  1  0  0  0  0
M  RAD  3   2   2   3   3   4   2
M  END
