Coordinates from ORCA-job 4-NO2PhN2+~CF3COO-_B3LYPG-6-31G_dp-CH-Scan-d09-49-n800
 OpenBabel11261919433D

 22 21  0  0  0  0  0  0  0  0999 V2000
   -0.8482    1.0295   -1.6194 C   0  0  0  0  0  0  0  0  0  0  0  0
   -1.7301    1.3661   -2.6617 N   0  0  0  0  0  0  0  0  0  0  0  0
   -2.3583    1.6535   -3.5385 N   0  0  0  0  0  0  0  0  0  0  0  0
    0.4749    1.3028   -1.9645 C   0  0  0  0  0  0  0  0  0  0  0  0
    1.3348    0.9298   -0.8866 C   0  0  0  0  0  0  0  0  0  0  0  0
    0.8455    0.3678    0.2835 C   0  0  0  0  0  0  0  0  0  0  0  0
    1.7974   -0.0117    1.3609 N   0  0  0  0  0  0  0  0  0  0  0  0
    2.9953    0.1509    1.1487 O   0  0  0  0  0  0  0  0  0  0  0  0
    1.3244   -0.4663    2.4030 O   0  0  0  0  0  0  0  0  0  0  0  0
   -0.5257    0.1348    0.5355 C   0  0  0  0  0  0  0  0  0  0  0  0
   -1.4264    0.4787   -0.4457 C   0  0  0  0  0  0  0  0  0  0  0  0
   -1.8765    4.8936   -0.4712 H   0  0  0  0  0  0  0  0  0  0  0  0
    2.4087    1.0783   -0.9623 H   0  0  0  0  0  0  0  0  0  0  0  0
   -0.8322   -0.2967    1.4786 H   0  0  0  0  0  0  0  0  0  0  0  0
   -2.4972    0.3484   -0.3234 H   0  0  0  0  0  0  0  0  0  0  0  0
   -2.7156    5.0887   -0.0184 O   0  0  0  0  0  0  0  0  0  0  0  0
   -3.5668    4.0945   -0.2736 C   0  0  0  0  0  0  0  0  0  0  0  0
   -3.3457    3.1208   -0.9501 O   0  0  0  0  0  0  0  0  0  0  0  0
   -4.9222    4.3608    0.4177 C   0  0  0  0  0  0  0  0  0  0  0  0
   -5.7402    3.3232    0.2341 F   0  0  0  0  0  0  0  0  0  0  0  0
   -4.7460    4.5502    1.7343 F   0  0  0  0  0  0  0  0  0  0  0  0
   -5.4895    5.4612   -0.1026 F   0  0  0  0  0  0  0  0  0  0  0  0
  1 11  1  0  0  0  0
  2  1  1  0  0  0  0
  3  2  1  0  0  0  0
  4  1  2  0  0  0  0
  4  5  1  0  0  0  0
  5  6  2  0  0  0  0
  6 10  1  0  0  0  0
  6  7  1  0  0  0  0
  7  9  2  0  0  0  0
  8  7  2  0  0  0  0
 10 14  1  0  0  0  0
 11 15  1  0  0  0  0
 11 10  2  0  0  0  0
 12 16  1  0  0  0  0
 13  5  1  0  0  0  0
 17 16  1  0  0  0  0
 17 19  1  0  0  0  0
 18 17  2  0  0  0  0
 19 21  1  0  0  0  0
 20 19  1  0  0  0  0
 22 19  1  0  0  0  0
M  RAD  3   2   2   3   3   4   2
M  END
