Coordinates from ORCA-job 4-NO2PhN2+~CF3COO-_B3LYPG-6-31G_dp-CH-Scan-d09-49-n800
 OpenBabel11261919433D

 22 22  0  0  0  0  0  0  0  0999 V2000
   -1.6685    0.6793   -0.2654 C   0  0  0  0  0  0  0  0  0  0  0  0
   -3.0572    0.6503   -0.4955 N   0  0  0  0  0  0  0  0  0  0  0  0
   -4.0021    1.3282   -0.5908 N   0  0  0  0  0  0  0  0  0  0  0  0
   -0.9537    1.8647   -0.0334 C   0  0  0  0  0  0  0  0  0  0  0  0
    0.4160    1.7981    0.1752 C   0  0  0  0  0  0  0  0  0  0  0  0
    1.0344    0.5478    0.1516 C   0  0  0  0  0  0  0  0  0  0  0  0
    2.4967    0.4765    0.3795 N   0  0  0  0  0  0  0  0  0  0  0  0
    3.0869    1.5337    0.5795 O   0  0  0  0  0  0  0  0  0  0  0  0
    3.0161   -0.6358    0.3496 O   0  0  0  0  0  0  0  0  0  0  0  0
    0.3401   -0.6393   -0.0766 C   0  0  0  0  0  0  0  0  0  0  0  0
   -1.0309   -0.5714   -0.2894 C   0  0  0  0  0  0  0  0  0  0  0  0
   -1.6819    3.0553   -0.0291 H   0  0  0  0  0  0  0  0  0  0  0  0
    1.0086    2.6854    0.3569 H   0  0  0  0  0  0  0  0  0  0  0  0
    0.8754   -1.5800   -0.0847 H   0  0  0  0  0  0  0  0  0  0  0  0
   -1.6151   -1.4657   -0.4744 H   0  0  0  0  0  0  0  0  0  0  0  0
   -3.6146    3.0706   -0.2412 O   0  0  0  0  0  0  0  0  0  0  0  0
   -4.4198    3.8697   -0.9045 C   0  0  0  0  0  0  0  0  0  0  0  0
   -5.2484    3.6007   -1.7433 O   0  0  0  0  0  0  0  0  0  0  0  0
   -4.1700    5.3383   -0.4550 C   0  0  0  0  0  0  0  0  0  0  0  0
   -4.8070    6.2020   -1.2488 F   0  0  0  0  0  0  0  0  0  0  0  0
   -4.5966    5.5237    0.8088 F   0  0  0  0  0  0  0  0  0  0  0  0
   -2.8477    5.6269   -0.4905 F   0  0  0  0  0  0  0  0  0  0  0  0
  1  4  1  0  0  0  0
  2  1  1  0  0  0  0
  3  2  1  0  0  0  0
  3 16  1  0  0  0  0
  4 12  1  0  0  0  0
  4  5  2  0  0  0  0
  5 13  1  0  0  0  0
  6  5  1  0  0  0  0
  6  7  1  0  0  0  0
  7  8  2  0  0  0  0
  9  7  2  0  0  0  0
 10  6  2  0  0  0  0
 11  1  2  0  0  0  0
 11 10  1  0  0  0  0
 14 10  1  0  0  0  0
 15 11  1  0  0  0  0
 17 19  1  0  0  0  0
 17 16  1  0  0  0  0
 18 17  2  0  0  0  0
 19 21  1  0  0  0  0
 20 19  1  0  0  0  0
 22 19  1  0  0  0  0
M  RAD  2   2   2   3   2
M  END
