Coordinates from ORCA-job 4-NO2PhN2+~CF3COO-_B3LYPG-6-31G_dp-CH-Scan-d09-49-n800
 OpenBabel11261919433D

 22 21  0  0  0  0  0  0  0  0999 V2000
   -1.2492    0.4002   -0.4233 C   0  0  0  0  0  0  0  0  0  0  0  0
   -2.5972    0.6289   -0.7514 N   0  0  0  0  0  0  0  0  0  0  0  0
   -3.6596    0.8717   -0.9929 N   0  0  0  0  0  0  0  0  0  0  0  0
   -0.5865    1.5652   -0.0312 C   0  0  0  0  0  0  0  0  0  0  0  0
    0.7708    1.2588    0.2872 C   0  0  0  0  0  0  0  0  0  0  0  0
    1.2773   -0.0290    0.1975 C   0  0  0  0  0  0  0  0  0  0  0  0
    2.7010   -0.2761    0.5495 N   0  0  0  0  0  0  0  0  0  0  0  0
    3.3748    0.6849    0.9083 O   0  0  0  0  0  0  0  0  0  0  0  0
    3.1150   -1.4315    0.4597 O   0  0  0  0  0  0  0  0  0  0  0  0
    0.5199   -1.1482   -0.2126 C   0  0  0  0  0  0  0  0  0  0  0  0
   -0.7998   -0.9423   -0.5405 C   0  0  0  0  0  0  0  0  0  0  0  0
   -2.2639    4.7959    0.1228 H   0  0  0  0  0  0  0  0  0  0  0  0
    1.4497    2.0409    0.6145 H   0  0  0  0  0  0  0  0  0  0  0  0
    0.9847   -2.1239   -0.2594 H   0  0  0  0  0  0  0  0  0  0  0  0
   -1.4452   -1.7532   -0.8651 H   0  0  0  0  0  0  0  0  0  0  0  0
   -2.9641    5.4634    0.0183 O   0  0  0  0  0  0  0  0  0  0  0  0
   -4.0574    4.8509   -0.4384 C   0  0  0  0  0  0  0  0  0  0  0  0
   -4.1767    3.6779   -0.6879 O   0  0  0  0  0  0  0  0  0  0  0  0
   -5.2022    5.8737   -0.6085 C   0  0  0  0  0  0  0  0  0  0  0  0
   -6.2819    5.2770   -1.1172 F   0  0  0  0  0  0  0  0  0  0  0  0
   -5.5232    6.4087    0.5822 F   0  0  0  0  0  0  0  0  0  0  0  0
   -4.8259    6.8653   -1.4330 F   0  0  0  0  0  0  0  0  0  0  0  0
  1  4  1  0  0  0  0
  2  1  1  0  0  0  0
  3  2  1  0  0  0  0
  4  5  2  0  0  0  0
  5 13  1  0  0  0  0
  6  5  1  0  0  0  0
  6  7  1  0  0  0  0
  7  8  2  0  0  0  0
  9  7  2  0  0  0  0
 10  6  2  0  0  0  0
 11  1  2  0  0  0  0
 11 10  1  0  0  0  0
 14 10  1  0  0  0  0
 15 11  1  0  0  0  0
 16 12  1  0  0  0  0
 17 16  1  0  0  0  0
 18 17  2  0  0  0  0
 19 17  1  0  0  0  0
 19 21  1  0  0  0  0
 20 19  1  0  0  0  0
 22 19  1  0  0  0  0
M  RAD  3   2   2   3   3   4   2
M  END
