Coordinates from ORCA-job 4-NO2PhN2+~CF3COO-_B3LYPG-6-31G_dp-CH-Scan-d09-49-n800
 OpenBabel11261919433D

 22 21  0  0  0  0  0  0  0  0999 V2000
   -1.4279    0.4373   -0.4492 C   0  0  0  0  0  0  0  0  0  0  0  0
   -2.7827    0.5555   -0.7923 N   0  0  0  0  0  0  0  0  0  0  0  0
   -3.8579    0.7042   -1.0491 N   0  0  0  0  0  0  0  0  0  0  0  0
   -0.8456    1.6459   -0.0546 C   0  0  0  0  0  0  0  0  0  0  0  0
    0.5244    1.4445    0.2784 C   0  0  0  0  0  0  0  0  0  0  0  0
    1.1245    0.1966    0.1969 C   0  0  0  0  0  0  0  0  0  0  0  0
    2.5598    0.0566    0.5603 N   0  0  0  0  0  0  0  0  0  0  0  0
    3.1565    1.0656    0.9222 O   0  0  0  0  0  0  0  0  0  0  0  0
    3.0588   -1.0644    0.4704 O   0  0  0  0  0  0  0  0  0  0  0  0
    0.4541   -0.9742   -0.2151 C   0  0  0  0  0  0  0  0  0  0  0  0
   -0.8748   -0.8662   -0.5544 C   0  0  0  0  0  0  0  0  0  0  0  0
   -2.1675    4.0361    0.0164 H   0  0  0  0  0  0  0  0  0  0  0  0
    1.1389    2.2762    0.6092 H   0  0  0  0  0  0  0  0  0  0  0  0
    0.9886   -1.9140   -0.2552 H   0  0  0  0  0  0  0  0  0  0  0  0
   -1.4555   -1.7237   -0.8808 H   0  0  0  0  0  0  0  0  0  0  0  0
   -2.7193    4.8451   -0.0079 O   0  0  0  0  0  0  0  0  0  0  0  0
   -3.9225    4.5269   -0.4666 C   0  0  0  0  0  0  0  0  0  0  0  0
   -4.3111    3.4341   -0.8053 O   0  0  0  0  0  0  0  0  0  0  0  0
   -4.8200    5.7830   -0.5238 C   0  0  0  0  0  0  0  0  0  0  0  0
   -6.0420    5.4605   -0.9543 F   0  0  0  0  0  0  0  0  0  0  0  0
   -4.9248    6.3401    0.6952 F   0  0  0  0  0  0  0  0  0  0  0  0
   -4.2935    6.6936   -1.3620 F   0  0  0  0  0  0  0  0  0  0  0  0
  1  4  1  0  0  0  0
  2  1  1  0  0  0  0
  3  2  1  0  0  0  0
  4  5  2  0  0  0  0
  5 13  1  0  0  0  0
  6  5  1  0  0  0  0
  6  7  1  0  0  0  0
  7  8  2  0  0  0  0
  9  7  2  0  0  0  0
 10  6  2  0  0  0  0
 11  1  2  0  0  0  0
 11 10  1  0  0  0  0
 14 10  1  0  0  0  0
 15 11  1  0  0  0  0
 16 12  1  0  0  0  0
 17 16  1  0  0  0  0
 18 17  2  0  0  0  0
 19 17  1  0  0  0  0
 19 21  1  0  0  0  0
 20 19  1  0  0  0  0
 22 19  1  0  0  0  0
M  RAD  3   2   2   3   3   4   2
M  END
