Coordinates from ORCA-job 4-NO2PhN2+~CF3COO-_B3LYPG-6-31G_dp-CH-Scan-d09-49-n800
 OpenBabel11261919433D

 22 21  0  0  0  0  0  0  0  0999 V2000
   -1.3221    0.4093   -0.4336 C   0  0  0  0  0  0  0  0  0  0  0  0
   -2.6746    0.5887   -0.7672 N   0  0  0  0  0  0  0  0  0  0  0  0
   -3.7442    0.7892   -1.0145 N   0  0  0  0  0  0  0  0  0  0  0  0
   -0.6987    1.5932   -0.0311 C   0  0  0  0  0  0  0  0  0  0  0  0
    0.6656    1.3343    0.2935 C   0  0  0  0  0  0  0  0  0  0  0  0
    1.2173    0.0654    0.1987 C   0  0  0  0  0  0  0  0  0  0  0  0
    2.6471   -0.1333    0.5563 N   0  0  0  0  0  0  0  0  0  0  0  0
    3.2828    0.8475    0.9299 O   0  0  0  0  0  0  0  0  0  0  0  0
    3.1015   -1.2729    0.4612 O   0  0  0  0  0  0  0  0  0  0  0  0
    0.5016   -1.0765   -0.2218 C   0  0  0  0  0  0  0  0  0  0  0  0
   -0.8231   -0.9150   -0.5551 C   0  0  0  0  0  0  0  0  0  0  0  0
   -2.2308    4.4436    0.0787 H   0  0  0  0  0  0  0  0  0  0  0  0
    1.3142    2.1380    0.6293 H   0  0  0  0  0  0  0  0  0  0  0  0
    1.0004   -2.0351   -0.2723 H   0  0  0  0  0  0  0  0  0  0  0  0
   -1.4378   -1.7463   -0.8874 H   0  0  0  0  0  0  0  0  0  0  0  0
   -2.8601    5.1843    0.0100 O   0  0  0  0  0  0  0  0  0  0  0  0
   -4.0161    4.7103   -0.4496 C   0  0  0  0  0  0  0  0  0  0  0  0
   -4.2672    3.5669   -0.7404 O   0  0  0  0  0  0  0  0  0  0  0  0
   -5.0446    5.8560   -0.5742 C   0  0  0  0  0  0  0  0  0  0  0  0
   -6.2128    5.3830   -1.0132 F   0  0  0  0  0  0  0  0  0  0  0  0
   -5.2364    6.4433    0.6195 F   0  0  0  0  0  0  0  0  0  0  0  0
   -4.6015    6.7855   -1.4385 F   0  0  0  0  0  0  0  0  0  0  0  0
  1  4  1  0  0  0  0
  2  1  1  0  0  0  0
  3  2  1  0  0  0  0
  4  5  2  0  0  0  0
  5 13  1  0  0  0  0
  6  5  1  0  0  0  0
  6  7  1  0  0  0  0
  7  8  2  0  0  0  0
  9  7  2  0  0  0  0
 10  6  2  0  0  0  0
 11  1  2  0  0  0  0
 11 10  1  0  0  0  0
 14 10  1  0  0  0  0
 15 11  1  0  0  0  0
 16 12  1  0  0  0  0
 17 16  1  0  0  0  0
 18 17  2  0  0  0  0
 19 17  1  0  0  0  0
 19 21  1  0  0  0  0
 20 19  1  0  0  0  0
 22 19  1  0  0  0  0
M  RAD  3   2   2   3   3   4   2
M  END
