Coordinates from ORCA-job 4-NO2PhN2+~CF3COO-_B3LYPG-6-31G_dp-CH-Scan-d09-49-n800
 OpenBabel11261919433D

 22 21  0  0  0  0  0  0  0  0999 V2000
   -1.5607    0.4656   -0.4620 C   0  0  0  0  0  0  0  0  0  0  0  0
   -2.9174    0.5095   -0.8075 N   0  0  0  0  0  0  0  0  0  0  0  0
   -3.9959    0.6131   -1.0698 N   0  0  0  0  0  0  0  0  0  0  0  0
   -1.0307    1.7028   -0.0787 C   0  0  0  0  0  0  0  0  0  0  0  0
    0.3451    1.5761    0.2554 C   0  0  0  0  0  0  0  0  0  0  0  0
    1.0065    0.3583    0.1861 C   0  0  0  0  0  0  0  0  0  0  0  0
    2.4475    0.2951    0.5483 N   0  0  0  0  0  0  0  0  0  0  0  0
    2.9910    1.3364    0.9010 O   0  0  0  0  0  0  0  0  0  0  0  0
    3.0008   -0.8007    0.4701 O   0  0  0  0  0  0  0  0  0  0  0  0
    0.3938   -0.8464   -0.2124 C   0  0  0  0  0  0  0  0  0  0  0  0
   -0.9397   -0.8068   -0.5516 C   0  0  0  0  0  0  0  0  0  0  0  0
   -2.1047    3.5663   -0.0249 H   0  0  0  0  0  0  0  0  0  0  0  0
    0.9150    2.4423    0.5766 H   0  0  0  0  0  0  0  0  0  0  0  0
    0.9725   -1.7599   -0.2438 H   0  0  0  0  0  0  0  0  0  0  0  0
   -1.4771   -1.6953   -0.8683 H   0  0  0  0  0  0  0  0  0  0  0  0
   -2.5747    4.4483   -0.0096 O   0  0  0  0  0  0  0  0  0  0  0  0
   -3.7996    4.3120   -0.4748 C   0  0  0  0  0  0  0  0  0  0  0  0
   -4.3385    3.2978   -0.8638 O   0  0  0  0  0  0  0  0  0  0  0  0
   -4.5304    5.6740   -0.4744 C   0  0  0  0  0  0  0  0  0  0  0  0
   -5.7782    5.5387   -0.9333 F   0  0  0  0  0  0  0  0  0  0  0  0
   -4.5848    6.1775    0.7721 F   0  0  0  0  0  0  0  0  0  0  0  0
   -3.8794    6.5545   -1.2564 F   0  0  0  0  0  0  0  0  0  0  0  0
  1  4  1  0  0  0  0
  2  1  1  0  0  0  0
  3  2  1  0  0  0  0
  4  5  2  0  0  0  0
  5 13  1  0  0  0  0
  6  5  1  0  0  0  0
  6  7  1  0  0  0  0
  7  8  2  0  0  0  0
  9  7  2  0  0  0  0
 10  6  2  0  0  0  0
 11  1  2  0  0  0  0
 11 10  1  0  0  0  0
 12 16  1  0  0  0  0
 14 10  1  0  0  0  0
 15 11  1  0  0  0  0
 17 19  1  0  0  0  0
 17 16  1  0  0  0  0
 18 17  2  0  0  0  0
 19 21  1  0  0  0  0
 20 19  1  0  0  0  0
 22 19  1  0  0  0  0
M  RAD  3   2   2   3   3   4   2
M  END
