Coordinates from ORCA-job 4-NO2PhN2+~CF3COO-_B3LYPG-6-31G_dp-CH-Scan-d09-49-n800
 OpenBabel11261919433D

 22 21  0  0  0  0  0  0  0  0999 V2000
   -1.2764    0.4028   -0.4238 C   0  0  0  0  0  0  0  0  0  0  0  0
   -2.6268    0.6129   -0.7520 N   0  0  0  0  0  0  0  0  0  0  0  0
   -3.6911    0.8409   -0.9991 N   0  0  0  0  0  0  0  0  0  0  0  0
   -0.6278    1.5752   -0.0290 C   0  0  0  0  0  0  0  0  0  0  0  0
    0.7327    1.2861    0.2899 C   0  0  0  0  0  0  0  0  0  0  0  0
    1.2560    0.0052    0.1974 C   0  0  0  0  0  0  0  0  0  0  0  0
    2.6827   -0.2239    0.5492 N   0  0  0  0  0  0  0  0  0  0  0  0
    3.3436    0.7451    0.9103 O   0  0  0  0  0  0  0  0  0  0  0  0
    3.1121   -1.3734    0.4553 O   0  0  0  0  0  0  0  0  0  0  0  0
    0.5134   -1.1227   -0.2153 C   0  0  0  0  0  0  0  0  0  0  0  0
   -0.8088   -0.9333   -0.5432 C   0  0  0  0  0  0  0  0  0  0  0  0
   -2.2501    4.6658    0.1092 H   0  0  0  0  0  0  0  0  0  0  0  0
    1.4010    2.0763    0.6197 H   0  0  0  0  0  0  0  0  0  0  0  0
    0.9908   -2.0922   -0.2641 H   0  0  0  0  0  0  0  0  0  0  0  0
   -1.4435   -1.7519   -0.8694 H   0  0  0  0  0  0  0  0  0  0  0  0
   -2.9248    5.3615    0.0173 O   0  0  0  0  0  0  0  0  0  0  0  0
   -4.0426    4.7995   -0.4426 C   0  0  0  0  0  0  0  0  0  0  0  0
   -4.2107    3.6353   -0.7064 O   0  0  0  0  0  0  0  0  0  0  0  0
   -5.1458    5.8693   -0.5984 C   0  0  0  0  0  0  0  0  0  0  0  0
   -6.2546    5.3192   -1.0969 F   0  0  0  0  0  0  0  0  0  0  0  0
   -5.4321    6.4158    0.5959 F   0  0  0  0  0  0  0  0  0  0  0  0
   -4.7368    6.8459   -1.4257 F   0  0  0  0  0  0  0  0  0  0  0  0
  1  4  1  0  0  0  0
  2  1  1  0  0  0  0
  3  2  1  0  0  0  0
  4  5  2  0  0  0  0
  5 13  1  0  0  0  0
  6  5  1  0  0  0  0
  6  7  1  0  0  0  0
  7  8  2  0  0  0  0
  9  7  2  0  0  0  0
 10  6  2  0  0  0  0
 11  1  2  0  0  0  0
 11 10  1  0  0  0  0
 14 10  1  0  0  0  0
 15 11  1  0  0  0  0
 16 12  1  0  0  0  0
 17 16  1  0  0  0  0
 18 17  2  0  0  0  0
 19 17  1  0  0  0  0
 19 21  1  0  0  0  0
 20 19  1  0  0  0  0
 22 19  1  0  0  0  0
M  RAD  3   2   2   3   3   4   2
M  END
