Coordinates from ORCA-job 4-NO2PhN2+~CF3COO-_B3LYPG-6-31G_dp-CH-Scan-d09-49-n800
 OpenBabel11261919433D

 22 21  0  0  0  0  0  0  0  0999 V2000
   -1.3542    0.4154   -0.4366 C   0  0  0  0  0  0  0  0  0  0  0  0
   -2.7081    0.5754   -0.7719 N   0  0  0  0  0  0  0  0  0  0  0  0
   -3.7790    0.7603   -1.0248 N   0  0  0  0  0  0  0  0  0  0  0  0
   -0.7448    1.6069   -0.0335 C   0  0  0  0  0  0  0  0  0  0  0  0
    0.6218    1.3663    0.2929 C   0  0  0  0  0  0  0  0  0  0  0  0
    1.1900    0.1047    0.1985 C   0  0  0  0  0  0  0  0  0  0  0  0
    2.6221   -0.0752    0.5572 N   0  0  0  0  0  0  0  0  0  0  0  0
    3.2451    0.9145    0.9288 O   0  0  0  0  0  0  0  0  0  0  0  0
    3.0921   -1.2081    0.4593 O   0  0  0  0  0  0  0  0  0  0  0  0
    0.4896   -1.0460   -0.2225 C   0  0  0  0  0  0  0  0  0  0  0  0
   -0.8369   -0.9018   -0.5569 C   0  0  0  0  0  0  0  0  0  0  0  0
   -2.2144    4.3149    0.0660 H   0  0  0  0  0  0  0  0  0  0  0  0
    1.2591    2.1786    0.6295 H   0  0  0  0  0  0  0  0  0  0  0  0
    1.0007   -1.9982   -0.2725 H   0  0  0  0  0  0  0  0  0  0  0  0
   -1.4403   -1.7412   -0.8895 H   0  0  0  0  0  0  0  0  0  0  0  0
   -2.8188    5.0786    0.0104 O   0  0  0  0  0  0  0  0  0  0  0  0
   -3.9910    4.6546   -0.4537 C   0  0  0  0  0  0  0  0  0  0  0  0
   -4.2857    3.5257   -0.7615 O   0  0  0  0  0  0  0  0  0  0  0  0
   -4.9770    5.8387   -0.5613 C   0  0  0  0  0  0  0  0  0  0  0  0
   -6.1673    5.4123   -0.9892 F   0  0  0  0  0  0  0  0  0  0  0  0
   -5.1336    6.4281    0.6365 F   0  0  0  0  0  0  0  0  0  0  0  0
   -4.5088    6.7547   -1.4272 F   0  0  0  0  0  0  0  0  0  0  0  0
  1  4  1  0  0  0  0
  2  1  1  0  0  0  0
  3  2  1  0  0  0  0
  4  5  2  0  0  0  0
  5 13  1  0  0  0  0
  6  5  1  0  0  0  0
  6  7  1  0  0  0  0
  7  8  2  0  0  0  0
  9  7  2  0  0  0  0
 10  6  2  0  0  0  0
 11  1  2  0  0  0  0
 11 10  1  0  0  0  0
 14 10  1  0  0  0  0
 15 11  1  0  0  0  0
 16 12  1  0  0  0  0
 17 16  1  0  0  0  0
 18 17  2  0  0  0  0
 19 17  1  0  0  0  0
 19 21  1  0  0  0  0
 20 19  1  0  0  0  0
 22 19  1  0  0  0  0
M  RAD  3   2   2   3   3   4   2
M  END
