Coordinates from ORCA-job 4-NO2PhN2+~CF3COO-_B3LYPG-6-31G_dp-CH-Scan-d09-49-n800
 OpenBabel11261919433D

 22 21  0  0  0  0  0  0  0  0999 V2000
   -1.6865    0.5137   -0.4681 C   0  0  0  0  0  0  0  0  0  0  0  0
   -3.0483    0.5226   -0.8050 N   0  0  0  0  0  0  0  0  0  0  0  0
   -4.1171    0.7385   -1.0454 N   0  0  0  0  0  0  0  0  0  0  0  0
   -1.1778    1.7586   -0.0907 C   0  0  0  0  0  0  0  0  0  0  0  0
    0.1928    1.7068    0.2389 C   0  0  0  0  0  0  0  0  0  0  0  0
    0.8983    0.5111    0.1740 C   0  0  0  0  0  0  0  0  0  0  0  0
    2.3411    0.5065    0.5323 N   0  0  0  0  0  0  0  0  0  0  0  0
    2.8403    1.5712    0.8787 O   0  0  0  0  0  0  0  0  0  0  0  0
    2.9350   -0.5670    0.4565 O   0  0  0  0  0  0  0  0  0  0  0  0
    0.3269   -0.7118   -0.2143 C   0  0  0  0  0  0  0  0  0  0  0  0
   -1.0125   -0.7239   -0.5486 C   0  0  0  0  0  0  0  0  0  0  0  0
   -1.9592    3.0155   -0.0419 H   0  0  0  0  0  0  0  0  0  0  0  0
    0.7192    2.6028    0.5498 H   0  0  0  0  0  0  0  0  0  0  0  0
    0.9367   -1.6051   -0.2438 H   0  0  0  0  0  0  0  0  0  0  0  0
   -1.5169   -1.6332   -0.8582 H   0  0  0  0  0  0  0  0  0  0  0  0
   -2.4831    4.0623    0.0202 O   0  0  0  0  0  0  0  0  0  0  0  0
   -3.6691    4.0931   -0.4782 C   0  0  0  0  0  0  0  0  0  0  0  0
   -4.3387    3.1791   -0.9566 O   0  0  0  0  0  0  0  0  0  0  0  0
   -4.2724    5.5213   -0.4409 C   0  0  0  0  0  0  0  0  0  0  0  0
   -5.5208    5.5421   -0.9259 F   0  0  0  0  0  0  0  0  0  0  0  0
   -4.3052    5.9892    0.8227 F   0  0  0  0  0  0  0  0  0  0  0  0
   -3.5223    6.3659   -1.1773 F   0  0  0  0  0  0  0  0  0  0  0  0
  1  4  1  0  0  0  0
  2  1  1  0  0  0  0
  3  2  1  0  0  0  0
  4  5  2  0  0  0  0
  5 13  1  0  0  0  0
  6  5  1  0  0  0  0
  6  7  1  0  0  0  0
  7  8  2  0  0  0  0
  9  7  2  0  0  0  0
 10  6  2  0  0  0  0
 11  1  2  0  0  0  0
 11 10  1  0  0  0  0
 12 16  1  0  0  0  0
 14 10  1  0  0  0  0
 15 11  1  0  0  0  0
 17 19  1  0  0  0  0
 17 16  1  0  0  0  0
 18 17  2  0  0  0  0
 19 21  1  0  0  0  0
 20 19  1  0  0  0  0
 22 19  1  0  0  0  0
M  RAD  3   2   2   3   3   4   2
M  END
