Coordinates from ORCA-job 4-NO2PhN2+~CF3COO-_B3LYPG-6-31G_dp-CH-Scan-d09-49-n800
 OpenBabel11261919433D

 22 21  0  0  0  0  0  0  0  0999 V2000
   -1.2129    0.4043   -0.4380 C   0  0  0  0  0  0  0  0  0  0  0  0
   -2.5546    0.6582   -0.7753 N   0  0  0  0  0  0  0  0  0  0  0  0
   -3.6090    0.9227   -1.0295 N   0  0  0  0  0  0  0  0  0  0  0  0
   -0.5292    1.5603   -0.0564 C   0  0  0  0  0  0  0  0  0  0  0  0
    0.8200    1.2289    0.2731 C   0  0  0  0  0  0  0  0  0  0  0  0
    1.2999   -0.0702    0.2022 C   0  0  0  0  0  0  0  0  0  0  0  0
    2.7158   -0.3430    0.5658 N   0  0  0  0  0  0  0  0  0  0  0  0
    3.4083    0.6080    0.9156 O   0  0  0  0  0  0  0  0  0  0  0  0
    3.1056   -1.5082    0.4938 O   0  0  0  0  0  0  0  0  0  0  0  0
    0.5213   -1.1785   -0.1989 C   0  0  0  0  0  0  0  0  0  0  0  0
   -0.7919   -0.9488   -0.5371 C   0  0  0  0  0  0  0  0  0  0  0  0
   -2.2694    4.9669    0.1044 H   0  0  0  0  0  0  0  0  0  0  0  0
    1.5137    2.0005    0.5946 H   0  0  0  0  0  0  0  0  0  0  0  0
    0.9657   -2.1642   -0.2311 H   0  0  0  0  0  0  0  0  0  0  0  0
   -1.4524   -1.7499   -0.8559 H   0  0  0  0  0  0  0  0  0  0  0  0
   -3.0081    5.5920    0.0040 O   0  0  0  0  0  0  0  0  0  0  0  0
   -4.0693    4.9133   -0.4364 C   0  0  0  0  0  0  0  0  0  0  0  0
   -4.1222    3.7334   -0.6751 O   0  0  0  0  0  0  0  0  0  0  0  0
   -5.2732    5.8666   -0.6011 C   0  0  0  0  0  0  0  0  0  0  0  0
   -6.3207    5.2045   -1.0959 F   0  0  0  0  0  0  0  0  0  0  0  0
   -5.6135    6.3888    0.5899 F   0  0  0  0  0  0  0  0  0  0  0  0
   -4.9634    6.8735   -1.4345 F   0  0  0  0  0  0  0  0  0  0  0  0
  1  4  1  0  0  0  0
  2  1  1  0  0  0  0
  3  2  1  0  0  0  0
  4  5  2  0  0  0  0
  5 13  1  0  0  0  0
  6  5  1  0  0  0  0
  6  7  1  0  0  0  0
  7  8  2  0  0  0  0
  9  7  2  0  0  0  0
 10  6  2  0  0  0  0
 11  1  2  0  0  0  0
 11 10  1  0  0  0  0
 14 10  1  0  0  0  0
 15 11  1  0  0  0  0
 16 12  1  0  0  0  0
 17 16  1  0  0  0  0
 18 17  2  0  0  0  0
 19 17  1  0  0  0  0
 19 21  1  0  0  0  0
 20 19  1  0  0  0  0
 22 19  1  0  0  0  0
M  RAD  3   2   2   3   3   4   2
M  END
