Coordinates from ORCA-job 4-NO2PhN2+~CF3COO-_B3LYPG-6-31G_dp-CH-Scan-d09-49-n800
 OpenBabel11261919433D

 22 22  0  0  0  0  0  0  0  0999 V2000
   -1.6666    0.7094   -0.3054 C   0  0  0  0  0  0  0  0  0  0  0  0
   -3.0512    0.6611   -0.5663 N   0  0  0  0  0  0  0  0  0  0  0  0
   -3.9880    1.3598   -0.6822 N   0  0  0  0  0  0  0  0  0  0  0  0
   -0.9372    1.8926   -0.0959 C   0  0  0  0  0  0  0  0  0  0  0  0
    0.4286    1.8107    0.1393 C   0  0  0  0  0  0  0  0  0  0  0  0
    1.0333    0.5544    0.1654 C   0  0  0  0  0  0  0  0  0  0  0  0
    2.4896    0.4735    0.4208 N   0  0  0  0  0  0  0  0  0  0  0  0
    3.0899    1.5297    0.5964 O   0  0  0  0  0  0  0  0  0  0  0  0
    2.9953   -0.6454    0.4397 O   0  0  0  0  0  0  0  0  0  0  0  0
    0.3270   -0.6290   -0.0389 C   0  0  0  0  0  0  0  0  0  0  0  0
   -1.0385   -0.5468   -0.2793 C   0  0  0  0  0  0  0  0  0  0  0  0
   -1.5653    3.0309   -0.1289 H   0  0  0  0  0  0  0  0  0  0  0  0
    1.0288    2.6962    0.3045 H   0  0  0  0  0  0  0  0  0  0  0  0
    0.8479   -1.5773   -0.0090 H   0  0  0  0  0  0  0  0  0  0  0  0
   -1.6321   -1.4379   -0.4490 H   0  0  0  0  0  0  0  0  0  0  0  0
   -3.5869    3.0402   -0.3576 O   0  0  0  0  0  0  0  0  0  0  0  0
   -4.4666    3.8604   -0.8993 C   0  0  0  0  0  0  0  0  0  0  0  0
   -5.3859    3.6182   -1.6434 O   0  0  0  0  0  0  0  0  0  0  0  0
   -4.1647    5.3103   -0.4231 C   0  0  0  0  0  0  0  0  0  0  0  0
   -4.8376    6.2037   -1.1511 F   0  0  0  0  0  0  0  0  0  0  0  0
   -4.5150    5.4582    0.8689 F   0  0  0  0  0  0  0  0  0  0  0  0
   -2.8444    5.5862   -0.5272 F   0  0  0  0  0  0  0  0  0  0  0  0
  1 11  2  0  0  0  0
  1  4  1  0  0  0  0
  2  1  1  0  0  0  0
  3  2  1  0  0  0  0
  3 16  1  0  0  0  0
  4  5  2  0  0  0  0
  5  6  1  0  0  0  0
  5 13  1  0  0  0  0
  6  7  1  0  0  0  0
  7  9  2  0  0  0  0
  7  8  2  0  0  0  0
 10 14  1  0  0  0  0
 10  6  2  0  0  0  0
 11 10  1  0  0  0  0
 12  4  1  0  0  0  0
 15 11  1  0  0  0  0
 17 19  1  0  0  0  0
 17 16  1  0  0  0  0
 18 17  2  0  0  0  0
 19 21  1  0  0  0  0
 20 19  1  0  0  0  0
 22 19  1  0  0  0  0
M  RAD  2   2   2   3   2
M  END
