Coordinates from ORCA-job 4-NO2PhN2+~CF3COO-_B3LYPG-6-31G_dp-CH-Scan-d09-49-n800
 OpenBabel11261919433D

 22 21  0  0  0  0  0  0  0  0999 V2000
   -1.3090    0.4068   -0.4309 C   0  0  0  0  0  0  0  0  0  0  0  0
   -2.6609    0.5944   -0.7633 N   0  0  0  0  0  0  0  0  0  0  0  0
   -3.7289    0.8031   -1.0112 N   0  0  0  0  0  0  0  0  0  0  0  0
   -0.6789    1.5878   -0.0302 C   0  0  0  0  0  0  0  0  0  0  0  0
    0.6844    1.3204    0.2931 C   0  0  0  0  0  0  0  0  0  0  0  0
    1.2284    0.0482    0.1989 C   0  0  0  0  0  0  0  0  0  0  0  0
    2.6573   -0.1588    0.5553 N   0  0  0  0  0  0  0  0  0  0  0  0
    3.3003    0.8191    0.9241 O   0  0  0  0  0  0  0  0  0  0  0  0
    3.1055   -1.3007    0.4584 O   0  0  0  0  0  0  0  0  0  0  0  0
    0.5055   -1.0899   -0.2199 C   0  0  0  0  0  0  0  0  0  0  0  0
   -0.8185   -0.9207   -0.5520 C   0  0  0  0  0  0  0  0  0  0  0  0
   -2.2362    4.5039    0.0870 H   0  0  0  0  0  0  0  0  0  0  0  0
    1.3383    2.1204    0.6276 H   0  0  0  0  0  0  0  0  0  0  0  0
    0.9985   -2.0515   -0.2699 H   0  0  0  0  0  0  0  0  0  0  0  0
   -1.4386   -1.7487   -0.8828 H   0  0  0  0  0  0  0  0  0  0  0  0
   -2.8781    5.2331    0.0120 O   0  0  0  0  0  0  0  0  0  0  0  0
   -4.0247    4.7354   -0.4476 C   0  0  0  0  0  0  0  0  0  0  0  0
   -4.2534    3.5859   -0.7308 O   0  0  0  0  0  0  0  0  0  0  0  0
   -5.0737    5.8614   -0.5810 C   0  0  0  0  0  0  0  0  0  0  0  0
   -6.2269    5.3670   -1.0354 F   0  0  0  0  0  0  0  0  0  0  0  0
   -5.2908    6.4396    0.6129 F   0  0  0  0  0  0  0  0  0  0  0  0
   -4.6390    6.8029   -1.4362 F   0  0  0  0  0  0  0  0  0  0  0  0
  1  4  1  0  0  0  0
  2  1  1  0  0  0  0
  3  2  1  0  0  0  0
  4  5  2  0  0  0  0
  5 13  1  0  0  0  0
  6  5  1  0  0  0  0
  6  7  1  0  0  0  0
  7  8  2  0  0  0  0
  9  7  2  0  0  0  0
 10  6  2  0  0  0  0
 11  1  2  0  0  0  0
 11 10  1  0  0  0  0
 14 10  1  0  0  0  0
 15 11  1  0  0  0  0
 16 12  1  0  0  0  0
 17 16  1  0  0  0  0
 18 17  2  0  0  0  0
 19 17  1  0  0  0  0
 19 21  1  0  0  0  0
 20 19  1  0  0  0  0
 22 19  1  0  0  0  0
M  RAD  3   2   2   3   3   4   2
M  END
