Coordinates from ORCA-job 4-NO2PhN2+~CF3COO-_B3LYPG-6-31G_dp-CH-Scan-d09-49-n800
 OpenBabel11261919433D

 22 21  0  0  0  0  0  0  0  0999 V2000
   -0.8026    1.0502   -1.6052 C   0  0  0  0  0  0  0  0  0  0  0  0
   -1.6841    1.4183   -2.6370 N   0  0  0  0  0  0  0  0  0  0  0  0
   -2.3070    1.7288   -3.5097 N   0  0  0  0  0  0  0  0  0  0  0  0
    0.5274    1.1909   -1.9997 C   0  0  0  0  0  0  0  0  0  0  0  0
    1.3862    0.7880   -0.9318 C   0  0  0  0  0  0  0  0  0  0  0  0
    0.8877    0.3172    0.2741 C   0  0  0  0  0  0  0  0  0  0  0  0
    1.8371   -0.1027    1.3385 N   0  0  0  0  0  0  0  0  0  0  0  0
    3.0364   -0.0724    1.0795 O   0  0  0  0  0  0  0  0  0  0  0  0
    1.3606   -0.4573    2.4173 O   0  0  0  0  0  0  0  0  0  0  0  0
   -0.4898    0.2173    0.5753 C   0  0  0  0  0  0  0  0  0  0  0  0
   -1.3887    0.6004   -0.3930 C   0  0  0  0  0  0  0  0  0  0  0  0
   -1.9828    5.0459   -0.4479 H   0  0  0  0  0  0  0  0  0  0  0  0
    2.4660    0.8389   -1.0444 H   0  0  0  0  0  0  0  0  0  0  0  0
   -0.8016   -0.1480    1.5443 H   0  0  0  0  0  0  0  0  0  0  0  0
   -2.4623    0.5732   -0.2346 H   0  0  0  0  0  0  0  0  0  0  0  0
   -2.8412    5.1913   -0.0135 O   0  0  0  0  0  0  0  0  0  0  0  0
   -3.6200    4.1402   -0.2715 C   0  0  0  0  0  0  0  0  0  0  0  0
   -3.3225    3.1756   -0.9325 O   0  0  0  0  0  0  0  0  0  0  0  0
   -5.0018    4.3220    0.3945 C   0  0  0  0  0  0  0  0  0  0  0  0
   -5.7539    3.2401    0.1870 F   0  0  0  0  0  0  0  0  0  0  0  0
   -4.8606    4.5092    1.7157 F   0  0  0  0  0  0  0  0  0  0  0  0
   -5.6220    5.3923   -0.1274 F   0  0  0  0  0  0  0  0  0  0  0  0
  1 11  1  0  0  0  0
  2  1  1  0  0  0  0
  3  2  1  0  0  0  0
  4  1  2  0  0  0  0
  4  5  1  0  0  0  0
  5  6  2  0  0  0  0
  6 10  1  0  0  0  0
  6  7  1  0  0  0  0
  7  9  2  0  0  0  0
  8  7  2  0  0  0  0
 10 14  1  0  0  0  0
 11 15  1  0  0  0  0
 11 10  2  0  0  0  0
 12 16  1  0  0  0  0
 13  5  1  0  0  0  0
 17 16  1  0  0  0  0
 17 19  1  0  0  0  0
 18 17  2  0  0  0  0
 19 21  1  0  0  0  0
 20 19  1  0  0  0  0
 22 19  1  0  0  0  0
M  RAD  3   2   2   3   3   4   2
M  END
