Coordinates from ORCA-job 4-NO2PhN2+~CF3COO-_B3LYPG-6-31G_dp-CH-Scan-d09-49-n800
 OpenBabel11261919433D

 22 22  0  0  0  0  0  0  0  0999 V2000
   -1.6854    0.7242   -0.3354 C   0  0  0  0  0  0  0  0  0  0  0  0
   -3.0676    0.6504   -0.6162 N   0  0  0  0  0  0  0  0  0  0  0  0
   -3.9938    1.3724   -0.7409 N   0  0  0  0  0  0  0  0  0  0  0  0
   -0.9634    1.9170   -0.1390 C   0  0  0  0  0  0  0  0  0  0  0  0
    0.4014    1.8344    0.1152 C   0  0  0  0  0  0  0  0  0  0  0  0
    1.0109    0.5825    0.1731 C   0  0  0  0  0  0  0  0  0  0  0  0
    2.4635    0.5113    0.4475 N   0  0  0  0  0  0  0  0  0  0  0  0
    3.0595    1.5726    0.6071 O   0  0  0  0  0  0  0  0  0  0  0  0
    2.9726   -0.6053    0.4940 O   0  0  0  0  0  0  0  0  0  0  0  0
    0.3096   -0.6056   -0.0180 C   0  0  0  0  0  0  0  0  0  0  0  0
   -1.0526   -0.5283   -0.2776 C   0  0  0  0  0  0  0  0  0  0  0  0
   -1.4849    2.9073   -0.1892 H   0  0  0  0  0  0  0  0  0  0  0  0
    0.9975    2.7245    0.2713 H   0  0  0  0  0  0  0  0  0  0  0  0
    0.8308   -1.5528    0.0360 H   0  0  0  0  0  0  0  0  0  0  0  0
   -1.6433   -1.4227   -0.4389 H   0  0  0  0  0  0  0  0  0  0  0  0
   -3.5636    2.9982   -0.4325 O   0  0  0  0  0  0  0  0  0  0  0  0
   -4.4737    3.8449   -0.8881 C   0  0  0  0  0  0  0  0  0  0  0  0
   -5.4507    3.6309   -1.5608 O   0  0  0  0  0  0  0  0  0  0  0  0
   -4.1125    5.2766   -0.4002 C   0  0  0  0  0  0  0  0  0  0  0  0
   -4.7961    6.1977   -1.0818 F   0  0  0  0  0  0  0  0  0  0  0  0
   -4.4050    5.4046    0.9082 F   0  0  0  0  0  0  0  0  0  0  0  0
   -2.7928    5.5243   -0.5555 F   0  0  0  0  0  0  0  0  0  0  0  0
  1 11  2  0  0  0  0
  1  4  1  0  0  0  0
  2  1  1  0  0  0  0
  3  2  1  0  0  0  0
  3 16  1  0  0  0  0
  4  5  2  0  0  0  0
  5  6  1  0  0  0  0
  5 13  1  0  0  0  0
  6  7  1  0  0  0  0
  7  9  2  0  0  0  0
  7  8  2  0  0  0  0
 10 14  1  0  0  0  0
 10  6  2  0  0  0  0
 11 10  1  0  0  0  0
 12  4  1  0  0  0  0
 15 11  1  0  0  0  0
 17 16  1  0  0  0  0
 17 19  1  0  0  0  0
 18 17  2  0  0  0  0
 19 21  1  0  0  0  0
 20 19  1  0  0  0  0
 22 19  1  0  0  0  0
M  RAD  2   2   2   3   2
M  END
