Coordinates from ORCA-job 4-NO2PhN2+~CF3COO-_B3LYPG-6-31G_dp-CH-Scan-d09-49-n800
 OpenBabel11261919433D

 22 22  0  0  0  0  0  0  0  0999 V2000
   -1.6681    0.7089   -0.3052 C   0  0  0  0  0  0  0  0  0  0  0  0
   -3.0526    0.6599   -0.5659 N   0  0  0  0  0  0  0  0  0  0  0  0
   -3.9893    1.3588   -0.6815 N   0  0  0  0  0  0  0  0  0  0  0  0
   -0.9396    1.8927   -0.0957 C   0  0  0  0  0  0  0  0  0  0  0  0
    0.4263    1.8118    0.1393 C   0  0  0  0  0  0  0  0  0  0  0  0
    1.0320    0.5559    0.1651 C   0  0  0  0  0  0  0  0  0  0  0  0
    2.4884    0.4761    0.4203 N   0  0  0  0  0  0  0  0  0  0  0  0
    3.0879    1.5326    0.5957 O   0  0  0  0  0  0  0  0  0  0  0  0
    2.9949   -0.6425    0.4387 O   0  0  0  0  0  0  0  0  0  0  0  0
    0.3265   -0.6280   -0.0393 C   0  0  0  0  0  0  0  0  0  0  0  0
   -1.0391   -0.5468   -0.2794 C   0  0  0  0  0  0  0  0  0  0  0  0
   -1.5661    3.0262   -0.1282 H   0  0  0  0  0  0  0  0  0  0  0  0
    1.0259    2.6976    0.3046 H   0  0  0  0  0  0  0  0  0  0  0  0
    0.8481   -1.5760   -0.0096 H   0  0  0  0  0  0  0  0  0  0  0  0
   -1.6320   -1.4383   -0.4491 H   0  0  0  0  0  0  0  0  0  0  0  0
   -3.5864    3.0384   -0.3569 O   0  0  0  0  0  0  0  0  0  0  0  0
   -4.4647    3.8596   -0.8994 C   0  0  0  0  0  0  0  0  0  0  0  0
   -5.3839    3.6185   -1.6439 O   0  0  0  0  0  0  0  0  0  0  0  0
   -4.1615    5.3092   -0.4230 C   0  0  0  0  0  0  0  0  0  0  0  0
   -4.8326    6.2034   -1.1516 F   0  0  0  0  0  0  0  0  0  0  0  0
   -4.5128    5.4575    0.8687 F   0  0  0  0  0  0  0  0  0  0  0  0
   -2.8407    5.5834   -0.5257 F   0  0  0  0  0  0  0  0  0  0  0  0
  1 11  2  0  0  0  0
  1  4  1  0  0  0  0
  2  1  1  0  0  0  0
  3  2  1  0  0  0  0
  3 16  1  0  0  0  0
  4  5  2  0  0  0  0
  5  6  1  0  0  0  0
  5 13  1  0  0  0  0
  6  7  1  0  0  0  0
  7  9  2  0  0  0  0
  7  8  2  0  0  0  0
 10 14  1  0  0  0  0
 10  6  2  0  0  0  0
 11 10  1  0  0  0  0
 12  4  1  0  0  0  0
 15 11  1  0  0  0  0
 17 19  1  0  0  0  0
 17 16  1  0  0  0  0
 18 17  2  0  0  0  0
 19 21  1  0  0  0  0
 20 19  1  0  0  0  0
 22 19  1  0  0  0  0
M  RAD  2   2   2   3   2
M  END
