Coordinates from ORCA-job 4-NO2PhN2+~CF3COO-_B3LYPG-6-31G_dp-CH-Scan-d09-49-n800
 OpenBabel11261919433D

 22 22  0  0  0  0  0  0  0  0999 V2000
   -1.7015    0.7272   -0.3484 C   0  0  0  0  0  0  0  0  0  0  0  0
   -3.0830    0.6389   -0.6362 N   0  0  0  0  0  0  0  0  0  0  0  0
   -4.0019    1.3757   -0.7629 N   0  0  0  0  0  0  0  0  0  0  0  0
   -0.9898    1.9282   -0.1570 C   0  0  0  0  0  0  0  0  0  0  0  0
    0.3751    1.8504    0.1049 C   0  0  0  0  0  0  0  0  0  0  0  0
    0.9929    0.6037    0.1749 C   0  0  0  0  0  0  0  0  0  0  0  0
    2.4440    0.5437    0.4570 N   0  0  0  0  0  0  0  0  0  0  0  0
    3.0327    1.6097    0.6133 O   0  0  0  0  0  0  0  0  0  0  0  0
    2.9597   -0.5695    0.5159 O   0  0  0  0  0  0  0  0  0  0  0  0
    0.2994   -0.5894   -0.0116 C   0  0  0  0  0  0  0  0  0  0  0  0
   -1.0619   -0.5207   -0.2787 C   0  0  0  0  0  0  0  0  0  0  0  0
   -1.4485    2.8041   -0.2093 H   0  0  0  0  0  0  0  0  0  0  0  0
    0.9650    2.7455    0.2579 H   0  0  0  0  0  0  0  0  0  0  0  0
    0.8253   -1.5334    0.0514 H   0  0  0  0  0  0  0  0  0  0  0  0
   -1.6474   -1.4191   -0.4369 H   0  0  0  0  0  0  0  0  0  0  0  0
   -3.5518    2.9731   -0.4618 O   0  0  0  0  0  0  0  0  0  0  0  0
   -4.4658    3.8370   -0.8840 C   0  0  0  0  0  0  0  0  0  0  0  0
   -5.4655    3.6397   -1.5260 O   0  0  0  0  0  0  0  0  0  0  0  0
   -4.0719    5.2575   -0.3903 C   0  0  0  0  0  0  0  0  0  0  0  0
   -4.7600    6.1943   -1.0450 F   0  0  0  0  0  0  0  0  0  0  0  0
   -4.3311    5.3737    0.9262 F   0  0  0  0  0  0  0  0  0  0  0  0
   -2.7537    5.4888   -0.5753 F   0  0  0  0  0  0  0  0  0  0  0  0
  1 11  2  0  0  0  0
  1  4  1  0  0  0  0
  2  1  1  0  0  0  0
  3  2  1  0  0  0  0
  3 16  1  0  0  0  0
  4  5  2  0  0  0  0
  5  6  1  0  0  0  0
  5 13  1  0  0  0  0
  6  7  1  0  0  0  0
  7  9  2  0  0  0  0
  7  8  2  0  0  0  0
 10 14  1  0  0  0  0
 10  6  2  0  0  0  0
 11 10  1  0  0  0  0
 12  4  1  0  0  0  0
 15 11  1  0  0  0  0
 17 16  1  0  0  0  0
 17 19  1  0  0  0  0
 18 17  2  0  0  0  0
 19 21  1  0  0  0  0
 20 19  1  0  0  0  0
 22 19  1  0  0  0  0
M  RAD  2   2   2   3   2
M  END
