Coordinates from ORCA-job 4-NO2PhN2+~CF3COO-_B3LYPG-6-31G_dp-CH-Scan-d09-49-n800
 OpenBabel11261919433D

 22 21  0  0  0  0  0  0  0  0999 V2000
   -1.5155    0.4541   -0.4571 C   0  0  0  0  0  0  0  0  0  0  0  0
   -2.8721    0.5224   -0.8010 N   0  0  0  0  0  0  0  0  0  0  0  0
   -3.9499    0.6393   -1.0619 N   0  0  0  0  0  0  0  0  0  0  0  0
   -0.9684    1.6822   -0.0702 C   0  0  0  0  0  0  0  0  0  0  0  0
    0.4061    1.5313    0.2630 C   0  0  0  0  0  0  0  0  0  0  0  0
    1.0478    0.3036    0.1891 C   0  0  0  0  0  0  0  0  0  0  0  0
    2.4877    0.2154    0.5510 N   0  0  0  0  0  0  0  0  0  0  0  0
    3.0480    1.2458    0.9097 O   0  0  0  0  0  0  0  0  0  0  0  0
    3.0227   -0.8894    0.4715 O   0  0  0  0  0  0  0  0  0  0  0  0
    0.4162   -0.8905   -0.2138 C   0  0  0  0  0  0  0  0  0  0  0  0
   -0.9164   -0.8289   -0.5524 C   0  0  0  0  0  0  0  0  0  0  0  0
   -2.1309    3.7201   -0.0105 H   0  0  0  0  0  0  0  0  0  0  0  0
    0.9909    2.3864    0.5873 H   0  0  0  0  0  0  0  0  0  0  0  0
    0.9809   -1.8127   -0.2484 H   0  0  0  0  0  0  0  0  0  0  0  0
   -1.4679   -1.7077   -0.8722 H   0  0  0  0  0  0  0  0  0  0  0  0
   -2.6242    4.5779   -0.0077 O   0  0  0  0  0  0  0  0  0  0  0  0
   -3.8451    4.3842   -0.4736 C   0  0  0  0  0  0  0  0  0  0  0  0
   -4.3367    3.3432   -0.8485 O   0  0  0  0  0  0  0  0  0  0  0  0
   -4.6286    5.7161   -0.4911 C   0  0  0  0  0  0  0  0  0  0  0  0
   -5.8713    5.5223   -0.9417 F   0  0  0  0  0  0  0  0  0  0  0  0
   -4.6971    6.2364    0.7473 F   0  0  0  0  0  0  0  0  0  0  0  0
   -4.0158    6.6077   -1.2906 F   0  0  0  0  0  0  0  0  0  0  0  0
  1  4  1  0  0  0  0
  2  1  1  0  0  0  0
  3  2  1  0  0  0  0
  4  5  2  0  0  0  0
  5 13  1  0  0  0  0
  6  5  1  0  0  0  0
  6  7  1  0  0  0  0
  7  8  2  0  0  0  0
  9  7  2  0  0  0  0
 10  6  2  0  0  0  0
 11  1  2  0  0  0  0
 11 10  1  0  0  0  0
 12 16  1  0  0  0  0
 14 10  1  0  0  0  0
 15 11  1  0  0  0  0
 17 16  1  0  0  0  0
 18 17  2  0  0  0  0
 19 17  1  0  0  0  0
 19 21  1  0  0  0  0
 20 19  1  0  0  0  0
 22 19  1  0  0  0  0
M  RAD  3   2   2   3   3   4   2
M  END
