Coordinates from ORCA-job 4-NO2PhN2+~CF3COO-_B3LYPG-6-31G_dp-CH-Scan-d09-49-n800
 OpenBabel11261919433D

 22 21  0  0  0  0  0  0  0  0999 V2000
   -1.6863    0.5172   -0.4678 C   0  0  0  0  0  0  0  0  0  0  0  0
   -3.0485    0.5298   -0.8042 N   0  0  0  0  0  0  0  0  0  0  0  0
   -4.1147    0.7640   -1.0425 N   0  0  0  0  0  0  0  0  0  0  0  0
   -1.1731    1.7598   -0.0898 C   0  0  0  0  0  0  0  0  0  0  0  0
    0.1965    1.7081    0.2397 C   0  0  0  0  0  0  0  0  0  0  0  0
    0.9000    0.5110    0.1743 C   0  0  0  0  0  0  0  0  0  0  0  0
    2.3428    0.5042    0.5325 N   0  0  0  0  0  0  0  0  0  0  0  0
    2.8432    1.5682    0.8795 O   0  0  0  0  0  0  0  0  0  0  0  0
    2.9348   -0.5702    0.4570 O   0  0  0  0  0  0  0  0  0  0  0  0
    0.3262   -0.7104   -0.2141 C   0  0  0  0  0  0  0  0  0  0  0  0
   -1.0136   -0.7203   -0.5482 C   0  0  0  0  0  0  0  0  0  0  0  0
   -1.9487    2.9966   -0.0420 H   0  0  0  0  0  0  0  0  0  0  0  0
    0.7235    2.6038    0.5507 H   0  0  0  0  0  0  0  0  0  0  0  0
    0.9345   -1.6047   -0.2440 H   0  0  0  0  0  0  0  0  0  0  0  0
   -1.5194   -1.6287   -0.8578 H   0  0  0  0  0  0  0  0  0  0  0  0
   -2.4882    4.0568    0.0206 O   0  0  0  0  0  0  0  0  0  0  0  0
   -3.6703    4.0900   -0.4805 C   0  0  0  0  0  0  0  0  0  0  0  0
   -4.3448    3.1778   -0.9597 O   0  0  0  0  0  0  0  0  0  0  0  0
   -4.2755    5.5180   -0.4422 C   0  0  0  0  0  0  0  0  0  0  0  0
   -5.5249    5.5393   -0.9249 F   0  0  0  0  0  0  0  0  0  0  0  0
   -4.3062    5.9859    0.8215 F   0  0  0  0  0  0  0  0  0  0  0  0
   -3.5269    6.3630   -1.1797 F   0  0  0  0  0  0  0  0  0  0  0  0
  1  4  1  0  0  0  0
  2  1  1  0  0  0  0
  3  2  1  0  0  0  0
  4  5  2  0  0  0  0
  5 13  1  0  0  0  0
  6  5  1  0  0  0  0
  6  7  1  0  0  0  0
  7  8  2  0  0  0  0
  9  7  2  0  0  0  0
 10  6  2  0  0  0  0
 11  1  2  0  0  0  0
 11 10  1  0  0  0  0
 12 16  1  0  0  0  0
 14 10  1  0  0  0  0
 15 11  1  0  0  0  0
 17 19  1  0  0  0  0
 17 16  1  0  0  0  0
 18 17  2  0  0  0  0
 19 21  1  0  0  0  0
 20 19  1  0  0  0  0
 22 19  1  0  0  0  0
M  RAD  3   2   2   3   3   4   2
M  END
