Coordinates from ORCA-job 4-NO2PhN2+~CF3COO-_B3LYPG-6-31G_dp-CH-Scan-d09-49-n800
 OpenBabel11261919433D

 22 21  0  0  0  0  0  0  0  0999 V2000
   -1.6159    0.4804   -0.4635 C   0  0  0  0  0  0  0  0  0  0  0  0
   -2.9737    0.4967   -0.8058 N   0  0  0  0  0  0  0  0  0  0  0  0
   -4.0535    0.5910   -1.0648 N   0  0  0  0  0  0  0  0  0  0  0  0
   -1.1044    1.7270   -0.0849 C   0  0  0  0  0  0  0  0  0  0  0  0
    0.2729    1.6294    0.2461 C   0  0  0  0  0  0  0  0  0  0  0  0
    0.9570    0.4237    0.1793 C   0  0  0  0  0  0  0  0  0  0  0  0
    2.3997    0.3896    0.5385 N   0  0  0  0  0  0  0  0  0  0  0  0
    2.9221    1.4418    0.8902 O   0  0  0  0  0  0  0  0  0  0  0  0
    2.9727   -0.6962    0.4649 O   0  0  0  0  0  0  0  0  0  0  0  0
    0.3658   -0.7924   -0.2135 C   0  0  0  0  0  0  0  0  0  0  0  0
   -0.9696   -0.7785   -0.5496 C   0  0  0  0  0  0  0  0  0  0  0  0
   -2.0660    3.3837   -0.0335 H   0  0  0  0  0  0  0  0  0  0  0  0
    0.8253    2.5084    0.5625 H   0  0  0  0  0  0  0  0  0  0  0  0
    0.9607   -1.6955   -0.2436 H   0  0  0  0  0  0  0  0  0  0  0  0
   -1.4909   -1.6778   -0.8621 H   0  0  0  0  0  0  0  0  0  0  0  0
   -2.5194    4.2980   -0.0015 O   0  0  0  0  0  0  0  0  0  0  0  0
   -3.7386    4.2275   -0.4790 C   0  0  0  0  0  0  0  0  0  0  0  0
   -4.3235    3.2487   -0.8999 O   0  0  0  0  0  0  0  0  0  0  0  0
   -4.4144    5.6184   -0.4570 C   0  0  0  0  0  0  0  0  0  0  0  0
   -5.6605    5.5479   -0.9368 F   0  0  0  0  0  0  0  0  0  0  0  0
   -4.4682    6.0960    0.8005 F   0  0  0  0  0  0  0  0  0  0  0  0
   -3.7171    6.4913   -1.2080 F   0  0  0  0  0  0  0  0  0  0  0  0
  1  4  1  0  0  0  0
  2  1  1  0  0  0  0
  3  2  1  0  0  0  0
  4  5  2  0  0  0  0
  5 13  1  0  0  0  0
  6  5  1  0  0  0  0
  6  7  1  0  0  0  0
  7  8  2  0  0  0  0
  9  7  2  0  0  0  0
 10  6  2  0  0  0  0
 11  1  2  0  0  0  0
 11 10  1  0  0  0  0
 12 16  1  0  0  0  0
 14 10  1  0  0  0  0
 15 11  1  0  0  0  0
 17 19  1  0  0  0  0
 17 16  1  0  0  0  0
 18 17  2  0  0  0  0
 19 21  1  0  0  0  0
 20 19  1  0  0  0  0
 22 19  1  0  0  0  0
M  RAD  3   2   2   3   3   4   2
M  END
