Coordinates from ORCA-job 4-NO2PhN2+~CF3COO-_B3LYPG-6-31G_dp-CH-Scan-d09-49-n800
 OpenBabel11261919433D

 22 21  0  0  0  0  0  0  0  0999 V2000
   -1.5895    0.4734   -0.4614 C   0  0  0  0  0  0  0  0  0  0  0  0
   -2.9468    0.5027   -0.8048 N   0  0  0  0  0  0  0  0  0  0  0  0
   -4.0262    0.6001   -1.0652 N   0  0  0  0  0  0  0  0  0  0  0  0
   -1.0691    1.7155   -0.0801 C   0  0  0  0  0  0  0  0  0  0  0  0
    0.3077    1.6034    0.2518 C   0  0  0  0  0  0  0  0  0  0  0  0
    0.9810    0.3920    0.1828 C   0  0  0  0  0  0  0  0  0  0  0  0
    2.4231    0.3437    0.5427 N   0  0  0  0  0  0  0  0  0  0  0  0
    2.9563    1.3909    0.8935 O   0  0  0  0  0  0  0  0  0  0  0  0
    2.9871   -0.7465    0.4645 O   0  0  0  0  0  0  0  0  0  0  0  0
    0.3794   -0.8185   -0.2132 C   0  0  0  0  0  0  0  0  0  0  0  0
   -0.9554   -0.7921   -0.5502 C   0  0  0  0  0  0  0  0  0  0  0  0
   -2.0863    3.4731   -0.0270 H   0  0  0  0  0  0  0  0  0  0  0  0
    0.8689    2.4760    0.5707 H   0  0  0  0  0  0  0  0  0  0  0  0
    0.9664   -1.7267   -0.2447 H   0  0  0  0  0  0  0  0  0  0  0  0
   -1.4845   -1.6861   -0.8649 H   0  0  0  0  0  0  0  0  0  0  0  0
   -2.5466    4.3702   -0.0030 O   0  0  0  0  0  0  0  0  0  0  0  0
   -3.7679    4.2684   -0.4784 C   0  0  0  0  0  0  0  0  0  0  0  0
   -4.3293    3.2725   -0.8865 O   0  0  0  0  0  0  0  0  0  0  0  0
   -4.4704    5.6456   -0.4663 C   0  0  0  0  0  0  0  0  0  0  0  0
   -5.7168    5.5441   -0.9386 F   0  0  0  0  0  0  0  0  0  0  0  0
   -4.5266    6.1339    0.7866 F   0  0  0  0  0  0  0  0  0  0  0  0
   -3.7940    6.5235   -1.2299 F   0  0  0  0  0  0  0  0  0  0  0  0
  1  4  1  0  0  0  0
  2  1  1  0  0  0  0
  3  2  1  0  0  0  0
  4  5  2  0  0  0  0
  5 13  1  0  0  0  0
  6  5  1  0  0  0  0
  6  7  1  0  0  0  0
  7  8  2  0  0  0  0
  9  7  2  0  0  0  0
 10  6  2  0  0  0  0
 11  1  2  0  0  0  0
 11 10  1  0  0  0  0
 12 16  1  0  0  0  0
 14 10  1  0  0  0  0
 15 11  1  0  0  0  0
 17 19  1  0  0  0  0
 17 16  1  0  0  0  0
 18 17  2  0  0  0  0
 19 21  1  0  0  0  0
 20 19  1  0  0  0  0
 22 19  1  0  0  0  0
M  RAD  3   2   2   3   3   4   2
M  END
