Coordinates from ORCA-job 4-NO2PhN2+~CF3COO-_B3LYPG-6-31G_dp-CH-Scan-d09-49-n800
 OpenBabel11261919433D

 22 22  0  0  0  0  0  0  0  0999 V2000
   -1.6862    0.7246   -0.3374 C   0  0  0  0  0  0  0  0  0  0  0  0
   -3.0682    0.6498   -0.6194 N   0  0  0  0  0  0  0  0  0  0  0  0
   -3.9938    1.3730   -0.7449 N   0  0  0  0  0  0  0  0  0  0  0  0
   -0.9648    1.9181   -0.1417 C   0  0  0  0  0  0  0  0  0  0  0  0
    0.3999    1.8356    0.1138 C   0  0  0  0  0  0  0  0  0  0  0  0
    1.0097    0.5839    0.1735 C   0  0  0  0  0  0  0  0  0  0  0  0
    2.4620    0.5135    0.4493 N   0  0  0  0  0  0  0  0  0  0  0  0
    3.0575    1.5750    0.6090 O   0  0  0  0  0  0  0  0  0  0  0  0
    2.9712   -0.6031    0.4982 O   0  0  0  0  0  0  0  0  0  0  0  0
    0.3088   -0.6045   -0.0169 C   0  0  0  0  0  0  0  0  0  0  0  0
   -1.0532   -0.5275   -0.2778 C   0  0  0  0  0  0  0  0  0  0  0  0
   -1.4810    2.8998   -0.1929 H   0  0  0  0  0  0  0  0  0  0  0  0
    0.9957    2.7260    0.2695 H   0  0  0  0  0  0  0  0  0  0  0  0
    0.8301   -1.5515    0.0385 H   0  0  0  0  0  0  0  0  0  0  0  0
   -1.6437   -1.4222   -0.4387 H   0  0  0  0  0  0  0  0  0  0  0  0
   -3.5620    2.9965   -0.4375 O   0  0  0  0  0  0  0  0  0  0  0  0
   -4.4743    3.8444   -0.8871 C   0  0  0  0  0  0  0  0  0  0  0  0
   -5.4551    3.6316   -1.5544 O   0  0  0  0  0  0  0  0  0  0  0  0
   -4.1096    5.2751   -0.3991 C   0  0  0  0  0  0  0  0  0  0  0  0
   -4.7959    6.1975   -1.0763 F   0  0  0  0  0  0  0  0  0  0  0  0
   -4.3959    5.4015    0.9109 F   0  0  0  0  0  0  0  0  0  0  0  0
   -2.7906    5.5222   -0.5603 F   0  0  0  0  0  0  0  0  0  0  0  0
  1 11  2  0  0  0  0
  1  4  1  0  0  0  0
  2  1  1  0  0  0  0
  3  2  1  0  0  0  0
  3 16  1  0  0  0  0
  4  5  2  0  0  0  0
  5  6  1  0  0  0  0
  5 13  1  0  0  0  0
  6  7  1  0  0  0  0
  7  9  2  0  0  0  0
  7  8  2  0  0  0  0
 10 14  1  0  0  0  0
 10  6  2  0  0  0  0
 11 10  1  0  0  0  0
 12  4  1  0  0  0  0
 15 11  1  0  0  0  0
 17 16  1  0  0  0  0
 17 19  1  0  0  0  0
 18 17  2  0  0  0  0
 19 21  1  0  0  0  0
 20 19  1  0  0  0  0
 22 19  1  0  0  0  0
M  RAD  2   2   2   3   2
M  END
