Coordinates from ORCA-job 4-NO2PhN2+~CF3COO-_B3LYPG-6-31G_dp-CH-Scan-d09-49-n800
 OpenBabel11261919433D

 22 21  0  0  0  0  0  0  0  0999 V2000
   -1.6832    0.5278   -0.4670 C   0  0  0  0  0  0  0  0  0  0  0  0
   -3.0462    0.5502   -0.8029 N   0  0  0  0  0  0  0  0  0  0  0  0
   -4.1051    0.8303   -1.0345 N   0  0  0  0  0  0  0  0  0  0  0  0
   -1.1557    1.7626   -0.0857 C   0  0  0  0  0  0  0  0  0  0  0  0
    0.2109    1.7090    0.2439 C   0  0  0  0  0  0  0  0  0  0  0  0
    0.9074    0.5073    0.1755 C   0  0  0  0  0  0  0  0  0  0  0  0
    2.3500    0.4923    0.5331 N   0  0  0  0  0  0  0  0  0  0  0  0
    2.8558    1.5534    0.8810 O   0  0  0  0  0  0  0  0  0  0  0  0
    2.9363   -0.5849    0.4549 O   0  0  0  0  0  0  0  0  0  0  0  0
    0.3258   -0.7086   -0.2148 C   0  0  0  0  0  0  0  0  0  0  0  0
   -1.0152   -0.7104   -0.5484 C   0  0  0  0  0  0  0  0  0  0  0  0
   -1.9181    2.9545   -0.0401 H   0  0  0  0  0  0  0  0  0  0  0  0
    0.7405    2.6023    0.5563 H   0  0  0  0  0  0  0  0  0  0  0  0
    0.9284   -1.6067   -0.2467 H   0  0  0  0  0  0  0  0  0  0  0  0
   -1.5262   -1.6155   -0.8591 H   0  0  0  0  0  0  0  0  0  0  0  0
   -2.5036    4.0523    0.0215 O   0  0  0  0  0  0  0  0  0  0  0  0
   -3.6806    4.0845   -0.4745 C   0  0  0  0  0  0  0  0  0  0  0  0
   -4.3643    3.1735   -0.9554 O   0  0  0  0  0  0  0  0  0  0  0  0
   -4.2908    5.5121   -0.4482 C   0  0  0  0  0  0  0  0  0  0  0  0
   -5.5390    5.5318   -0.9350 F   0  0  0  0  0  0  0  0  0  0  0  0
   -4.3260    5.9874    0.8127 F   0  0  0  0  0  0  0  0  0  0  0  0
   -3.5402    6.3536   -1.1880 F   0  0  0  0  0  0  0  0  0  0  0  0
  1  4  1  0  0  0  0
  2  1  1  0  0  0  0
  3  2  1  0  0  0  0
  4  5  2  0  0  0  0
  5 13  1  0  0  0  0
  6  5  1  0  0  0  0
  6  7  1  0  0  0  0
  7  8  2  0  0  0  0
  9  7  2  0  0  0  0
 10  6  2  0  0  0  0
 11  1  2  0  0  0  0
 11 10  1  0  0  0  0
 12 16  1  0  0  0  0
 14 10  1  0  0  0  0
 15 11  1  0  0  0  0
 17 19  1  0  0  0  0
 17 16  1  0  0  0  0
 18 17  2  0  0  0  0
 19 21  1  0  0  0  0
 20 19  1  0  0  0  0
 22 19  1  0  0  0  0
M  RAD  3   2   2   3   3   4   2
M  END
