Coordinates from ORCA-job 4-NO2PhN2+~CF3COO-_B3LYPG-6-31G_dp-CH-Scan-d09-49-n800
 OpenBabel11261919433D

 22 21  0  0  0  0  0  0  0  0999 V2000
   -1.4057    0.4306   -0.4450 C   0  0  0  0  0  0  0  0  0  0  0  0
   -2.7604    0.5612   -0.7854 N   0  0  0  0  0  0  0  0  0  0  0  0
   -3.8346    0.7202   -1.0411 N   0  0  0  0  0  0  0  0  0  0  0  0
   -0.8154    1.6338   -0.0469 C   0  0  0  0  0  0  0  0  0  0  0  0
    0.5538    1.4207    0.2837 C   0  0  0  0  0  0  0  0  0  0  0  0
    1.1446    0.1688    0.1971 C   0  0  0  0  0  0  0  0  0  0  0  0
    2.5792    0.0168    0.5587 N   0  0  0  0  0  0  0  0  0  0  0  0
    3.1834    1.0195    0.9257 O   0  0  0  0  0  0  0  0  0  0  0  0
    3.0693   -1.1080    0.4668 O   0  0  0  0  0  0  0  0  0  0  0  0
    0.4653   -0.9959   -0.2184 C   0  0  0  0  0  0  0  0  0  0  0  0
   -0.8631   -0.8770   -0.5560 C   0  0  0  0  0  0  0  0  0  0  0  0
   -2.1815    4.1194    0.0328 H   0  0  0  0  0  0  0  0  0  0  0  0
    1.1751    2.2464    0.6169 H   0  0  0  0  0  0  0  0  0  0  0  0
    0.9930   -1.9393   -0.2624 H   0  0  0  0  0  0  0  0  0  0  0  0
   -1.4505   -1.7290   -0.8848 H   0  0  0  0  0  0  0  0  0  0  0  0
   -2.7488    4.9154   -0.0012 O   0  0  0  0  0  0  0  0  0  0  0  0
   -3.9435    4.5654   -0.4625 C   0  0  0  0  0  0  0  0  0  0  0  0
   -4.3041    3.4609   -0.7922 O   0  0  0  0  0  0  0  0  0  0  0  0
   -4.8679    5.8009   -0.5358 C   0  0  0  0  0  0  0  0  0  0  0  0
   -6.0820    5.4462   -0.9631 F   0  0  0  0  0  0  0  0  0  0  0  0
   -4.9858    6.3707    0.6760 F   0  0  0  0  0  0  0  0  0  0  0  0
   -4.3600    6.7116   -1.3850 F   0  0  0  0  0  0  0  0  0  0  0  0
  1  4  1  0  0  0  0
  2  1  1  0  0  0  0
  3  2  1  0  0  0  0
  4  5  2  0  0  0  0
  5 13  1  0  0  0  0
  6  5  1  0  0  0  0
  6  7  1  0  0  0  0
  7  8  2  0  0  0  0
  9  7  2  0  0  0  0
 10  6  2  0  0  0  0
 11  1  2  0  0  0  0
 11 10  1  0  0  0  0
 14 10  1  0  0  0  0
 15 11  1  0  0  0  0
 16 12  1  0  0  0  0
 17 16  1  0  0  0  0
 18 17  2  0  0  0  0
 19 17  1  0  0  0  0
 19 21  1  0  0  0  0
 20 19  1  0  0  0  0
 22 19  1  0  0  0  0
M  RAD  3   2   2   3   3   4   2
M  END
