Coordinates from ORCA-job 4-NO2PhN2+~CF3COO-_B3LYPG-6-31G_dp-CH-Scan-d09-49-n800
 OpenBabel11261919433D

 22 21  0  0  0  0  0  0  0  0999 V2000
   -1.6579    0.4933   -0.4708 C   0  0  0  0  0  0  0  0  0  0  0  0
   -3.0156    0.4926   -0.8145 N   0  0  0  0  0  0  0  0  0  0  0  0
   -4.0946    0.5972   -1.0725 N   0  0  0  0  0  0  0  0  0  0  0  0
   -1.1584    1.7455   -0.0963 C   0  0  0  0  0  0  0  0  0  0  0  0
    0.2173    1.6718    0.2372 C   0  0  0  0  0  0  0  0  0  0  0  0
    0.9174    0.4745    0.1772 C   0  0  0  0  0  0  0  0  0  0  0  0
    2.3597    0.4618    0.5394 N   0  0  0  0  0  0  0  0  0  0  0  0
    2.8671    1.5239    0.8826 O   0  0  0  0  0  0  0  0  0  0  0  0
    2.9485   -0.6151    0.4655 O   0  0  0  0  0  0  0  0  0  0  0  0
    0.3425   -0.7496   -0.2110 C   0  0  0  0  0  0  0  0  0  0  0  0
   -0.9932   -0.7548   -0.5493 C   0  0  0  0  0  0  0  0  0  0  0  0
   -2.0225    3.2273   -0.0486 H   0  0  0  0  0  0  0  0  0  0  0  0
    0.7547    2.5614    0.5497 H   0  0  0  0  0  0  0  0  0  0  0  0
    0.9487   -1.6454   -0.2364 H   0  0  0  0  0  0  0  0  0  0  0  0
   -1.5019   -1.6622   -0.8587 H   0  0  0  0  0  0  0  0  0  0  0  0
   -2.4753    4.1820   -0.0038 O   0  0  0  0  0  0  0  0  0  0  0  0
   -3.6901    4.1599   -0.4774 C   0  0  0  0  0  0  0  0  0  0  0  0
   -4.3162    3.2085   -0.9126 O   0  0  0  0  0  0  0  0  0  0  0  0
   -4.3258    5.5705   -0.4406 C   0  0  0  0  0  0  0  0  0  0  0  0
   -5.5747    5.5463   -0.9202 F   0  0  0  0  0  0  0  0  0  0  0  0
   -4.3657    6.0379    0.8221 F   0  0  0  0  0  0  0  0  0  0  0  0
   -3.6035    6.4321   -1.1824 F   0  0  0  0  0  0  0  0  0  0  0  0
  1  4  1  0  0  0  0
  2  1  1  0  0  0  0
  3  2  1  0  0  0  0
  4  5  2  0  0  0  0
  5 13  1  0  0  0  0
  6  5  1  0  0  0  0
  6  7  1  0  0  0  0
  7  8  2  0  0  0  0
  9  7  2  0  0  0  0
 10  6  2  0  0  0  0
 11  1  2  0  0  0  0
 11 10  1  0  0  0  0
 12 16  1  0  0  0  0
 14 10  1  0  0  0  0
 15 11  1  0  0  0  0
 17 19  1  0  0  0  0
 17 16  1  0  0  0  0
 18 17  2  0  0  0  0
 19 21  1  0  0  0  0
 20 19  1  0  0  0  0
 22 19  1  0  0  0  0
M  RAD  3   2   2   3   3   4   2
M  END
