Coordinates from ORCA-job 4-NO2PhN2+~CF3COO-_B3LYPG-6-31G_dp-CH-Scan-d09-49-n800
 OpenBabel11261919433D

 22 21  0  0  0  0  0  0  0  0999 V2000
   -1.4176    0.4340   -0.4466 C   0  0  0  0  0  0  0  0  0  0  0  0
   -2.7725    0.5579   -0.7877 N   0  0  0  0  0  0  0  0  0  0  0  0
   -3.8465    0.7122   -1.0464 N   0  0  0  0  0  0  0  0  0  0  0  0
   -0.8314    1.6402   -0.0506 C   0  0  0  0  0  0  0  0  0  0  0  0
    0.5383    1.4332    0.2808 C   0  0  0  0  0  0  0  0  0  0  0  0
    1.1341    0.1834    0.1966 C   0  0  0  0  0  0  0  0  0  0  0  0
    2.5693    0.0378    0.5586 N   0  0  0  0  0  0  0  0  0  0  0  0
    3.1693    1.0437    0.9237 O   0  0  0  0  0  0  0  0  0  0  0  0
    3.0638   -1.0851    0.4685 O   0  0  0  0  0  0  0  0  0  0  0  0
    0.4594   -0.9846   -0.2169 C   0  0  0  0  0  0  0  0  0  0  0  0
   -0.8694   -0.8714   -0.5549 C   0  0  0  0  0  0  0  0  0  0  0  0
   -2.1740    4.0760    0.0257 H   0  0  0  0  0  0  0  0  0  0  0  0
    1.1562    2.2620    0.6127 H   0  0  0  0  0  0  0  0  0  0  0  0
    0.9907   -1.9260   -0.2591 H   0  0  0  0  0  0  0  0  0  0  0  0
   -1.4534   -1.7263   -0.8821 H   0  0  0  0  0  0  0  0  0  0  0  0
   -2.7335    4.8786   -0.0032 O   0  0  0  0  0  0  0  0  0  0  0  0
   -3.9324    4.5451   -0.4643 C   0  0  0  0  0  0  0  0  0  0  0  0
   -4.3071    3.4467   -0.7991 O   0  0  0  0  0  0  0  0  0  0  0  0
   -4.8428    5.7915   -0.5299 C   0  0  0  0  0  0  0  0  0  0  0  0
   -6.0607    5.4534   -0.9598 F   0  0  0  0  0  0  0  0  0  0  0  0
   -4.9548    6.3548    0.6855 F   0  0  0  0  0  0  0  0  0  0  0  0
   -4.3246    6.7022   -1.3731 F   0  0  0  0  0  0  0  0  0  0  0  0
  1  4  1  0  0  0  0
  2  1  1  0  0  0  0
  3  2  1  0  0  0  0
  4  5  2  0  0  0  0
  5 13  1  0  0  0  0
  6  5  1  0  0  0  0
  6  7  1  0  0  0  0
  7  8  2  0  0  0  0
  9  7  2  0  0  0  0
 10  6  2  0  0  0  0
 11  1  2  0  0  0  0
 11 10  1  0  0  0  0
 14 10  1  0  0  0  0
 15 11  1  0  0  0  0
 16 12  1  0  0  0  0
 17 16  1  0  0  0  0
 18 17  2  0  0  0  0
 19 17  1  0  0  0  0
 19 21  1  0  0  0  0
 20 19  1  0  0  0  0
 22 19  1  0  0  0  0
M  RAD  3   2   2   3   3   4   2
M  END
