Coordinates from ORCA-job 4-NO2PhN2+~CF3COO-_B3LYPG-6-31G_dp-CH-Scan-d09-49-n800
 OpenBabel11261919433D

 22 21  0  0  0  0  0  0  0  0999 V2000
   -1.0943    0.4467   -0.5439 C   0  0  0  0  0  0  0  0  0  0  0  0
   -2.3970    0.7861   -0.9551 N   0  0  0  0  0  0  0  0  0  0  0  0
   -3.4115    1.1220   -1.2785 N   0  0  0  0  0  0  0  0  0  0  0  0
   -0.3299    1.5696   -0.2247 C   0  0  0  0  0  0  0  0  0  0  0  0
    0.9755    1.1553    0.1815 C   0  0  0  0  0  0  0  0  0  0  0  0
    1.3445   -0.1804    0.2316 C   0  0  0  0  0  0  0  0  0  0  0  0
    2.7189   -0.5392    0.6712 N   0  0  0  0  0  0  0  0  0  0  0  0
    3.4739    0.3756    0.9872 O   0  0  0  0  0  0  0  0  0  0  0  0
    3.0146   -1.7339    0.6920 O   0  0  0  0  0  0  0  0  0  0  0  0
    0.4881   -1.2496   -0.1146 C   0  0  0  0  0  0  0  0  0  0  0  0
   -0.7882   -0.9405   -0.5231 C   0  0  0  0  0  0  0  0  0  0  0  0
   -2.2868    5.5014   -0.0766 H   0  0  0  0  0  0  0  0  0  0  0  0
    1.7218    1.8910    0.4680 H   0  0  0  0  0  0  0  0  0  0  0  0
    0.8479   -2.2678   -0.0525 H   0  0  0  0  0  0  0  0  0  0  0  0
   -1.5031   -1.7073   -0.8077 H   0  0  0  0  0  0  0  0  0  0  0  0
   -3.1371    5.9723   -0.1176 O   0  0  0  0  0  0  0  0  0  0  0  0
   -4.0820    5.0861   -0.4434 C   0  0  0  0  0  0  0  0  0  0  0  0
   -3.9209    3.9120   -0.6572 O   0  0  0  0  0  0  0  0  0  0  0  0
   -5.4598    5.7812   -0.5038 C   0  0  0  0  0  0  0  0  0  0  0  0
   -6.3951    4.9142   -0.8956 F   0  0  0  0  0  0  0  0  0  0  0  0
   -5.7891    6.2557    0.7099 F   0  0  0  0  0  0  0  0  0  0  0  0
   -5.4298    6.8086   -1.3688 F   0  0  0  0  0  0  0  0  0  0  0  0
  1 11  2  0  0  0  0
  1  4  1  0  0  0  0
  2  1  1  0  0  0  0
  3  2  1  0  0  0  0
  4  5  2  0  0  0  0
  5  6  1  0  0  0  0
  5 13  1  0  0  0  0
  6  7  1  0  0  0  0
  7  9  2  0  0  0  0
  7  8  2  0  0  0  0
 10 14  1  0  0  0  0
 10  6  2  0  0  0  0
 11 10  1  0  0  0  0
 15 11  1  0  0  0  0
 16 12  1  0  0  0  0
 17 16  1  0  0  0  0
 18 17  2  0  0  0  0
 19 17  1  0  0  0  0
 19 21  1  0  0  0  0
 20 19  1  0  0  0  0
 22 19  1  0  0  0  0
M  RAD  3   2   2   3   3   4   2
M  END
