Coordinates from ORCA-job 4-NO2PhN2+~CF3COO-_B3LYPG-6-31G_dp-CH-Scan-d09-49-n800
 OpenBabel11261919433D

 22 21  0  0  0  0  0  0  0  0999 V2000
   -1.2937    0.4052   -0.4272 C   0  0  0  0  0  0  0  0  0  0  0  0
   -2.6451    0.6035   -0.7573 N   0  0  0  0  0  0  0  0  0  0  0  0
   -3.7113    0.8207   -1.0056 N   0  0  0  0  0  0  0  0  0  0  0  0
   -0.6548    1.5820   -0.0293 C   0  0  0  0  0  0  0  0  0  0  0  0
    0.7072    1.3046    0.2918 C   0  0  0  0  0  0  0  0  0  0  0  0
    1.2415    0.0282    0.1981 C   0  0  0  0  0  0  0  0  0  0  0  0
    2.6696   -0.1892    0.5520 N   0  0  0  0  0  0  0  0  0  0  0  0
    3.3210    0.7845    0.9173 O   0  0  0  0  0  0  0  0  0  0  0  0
    3.1088   -1.3348    0.4565 O   0  0  0  0  0  0  0  0  0  0  0  0
    0.5092   -1.1051   -0.2177 C   0  0  0  0  0  0  0  0  0  0  0  0
   -0.8141   -0.9264   -0.5476 C   0  0  0  0  0  0  0  0  0  0  0  0
   -2.2429    4.5778    0.0971 H   0  0  0  0  0  0  0  0  0  0  0  0
    1.3680    2.0999    0.6240 H   0  0  0  0  0  0  0  0  0  0  0  0
    0.9950   -2.0705   -0.2672 H   0  0  0  0  0  0  0  0  0  0  0  0
   -1.4411   -1.7500   -0.8762 H   0  0  0  0  0  0  0  0  0  0  0  0
   -2.8997    5.2920    0.0145 O   0  0  0  0  0  0  0  0  0  0  0  0
   -4.0335    4.7647   -0.4453 C   0  0  0  0  0  0  0  0  0  0  0  0
   -4.2351    3.6080   -0.7197 O   0  0  0  0  0  0  0  0  0  0  0  0
   -5.1074    5.8656   -0.5893 C   0  0  0  0  0  0  0  0  0  0  0  0
   -6.2403    5.3457   -1.0659 F   0  0  0  0  0  0  0  0  0  0  0  0
   -5.3580    6.4288    0.6053 F   0  0  0  0  0  0  0  0  0  0  0  0
   -4.6830    6.8240   -1.4303 F   0  0  0  0  0  0  0  0  0  0  0  0
  1  4  1  0  0  0  0
  2  1  1  0  0  0  0
  3  2  1  0  0  0  0
  4  5  2  0  0  0  0
  5 13  1  0  0  0  0
  6  5  1  0  0  0  0
  6  7  1  0  0  0  0
  7  8  2  0  0  0  0
  9  7  2  0  0  0  0
 10  6  2  0  0  0  0
 11  1  2  0  0  0  0
 11 10  1  0  0  0  0
 14 10  1  0  0  0  0
 15 11  1  0  0  0  0
 16 12  1  0  0  0  0
 17 16  1  0  0  0  0
 18 17  2  0  0  0  0
 19 17  1  0  0  0  0
 19 21  1  0  0  0  0
 20 19  1  0  0  0  0
 22 19  1  0  0  0  0
M  RAD  3   2   2   3   3   4   2
M  END
