Coordinates from ORCA-job 4-NO2PhN2+~CF3COO-_B3LYPG-6-31G_dp-CH-Scan-d09-49-n800
 OpenBabel11261919433D

 22 21  0  0  0  0  0  0  0  0999 V2000
   -1.2771    0.4031   -0.4241 C   0  0  0  0  0  0  0  0  0  0  0  0
   -2.6276    0.6128   -0.7524 N   0  0  0  0  0  0  0  0  0  0  0  0
   -3.6921    0.8401   -0.9992 N   0  0  0  0  0  0  0  0  0  0  0  0
   -0.6290    1.5756   -0.0290 C   0  0  0  0  0  0  0  0  0  0  0  0
    0.7316    1.2871    0.2900 C   0  0  0  0  0  0  0  0  0  0  0  0
    1.2554    0.0063    0.1974 C   0  0  0  0  0  0  0  0  0  0  0  0
    2.6821   -0.2223    0.5493 N   0  0  0  0  0  0  0  0  0  0  0  0
    3.3424    0.7467    0.9113 O   0  0  0  0  0  0  0  0  0  0  0  0
    3.1118   -1.3717    0.4558 O   0  0  0  0  0  0  0  0  0  0  0  0
    0.5132   -1.1218   -0.2155 C   0  0  0  0  0  0  0  0  0  0  0  0
   -0.8091   -0.9327   -0.5435 C   0  0  0  0  0  0  0  0  0  0  0  0
   -2.2497    4.6615    0.1080 H   0  0  0  0  0  0  0  0  0  0  0  0
    1.3995    2.0774    0.6199 H   0  0  0  0  0  0  0  0  0  0  0  0
    0.9910   -2.0911   -0.2644 H   0  0  0  0  0  0  0  0  0  0  0  0
   -1.4434   -1.7516   -0.8700 H   0  0  0  0  0  0  0  0  0  0  0  0
   -2.9234    5.3581    0.0166 O   0  0  0  0  0  0  0  0  0  0  0  0
   -4.0422    4.7976   -0.4428 C   0  0  0  0  0  0  0  0  0  0  0  0
   -4.2121    3.6337   -0.7070 O   0  0  0  0  0  0  0  0  0  0  0  0
   -5.1440    5.8690   -0.5978 C   0  0  0  0  0  0  0  0  0  0  0  0
   -6.2542    5.3203   -1.0947 F   0  0  0  0  0  0  0  0  0  0  0  0
   -5.4281    6.4165    0.5966 F   0  0  0  0  0  0  0  0  0  0  0  0
   -4.7344    6.8446   -1.4261 F   0  0  0  0  0  0  0  0  0  0  0  0
  1  4  1  0  0  0  0
  2  1  1  0  0  0  0
  3  2  1  0  0  0  0
  4  5  2  0  0  0  0
  5 13  1  0  0  0  0
  6  5  1  0  0  0  0
  6  7  1  0  0  0  0
  7  8  2  0  0  0  0
  9  7  2  0  0  0  0
 10  6  2  0  0  0  0
 11  1  2  0  0  0  0
 11 10  1  0  0  0  0
 14 10  1  0  0  0  0
 15 11  1  0  0  0  0
 16 12  1  0  0  0  0
 17 16  1  0  0  0  0
 18 17  2  0  0  0  0
 19 17  1  0  0  0  0
 19 21  1  0  0  0  0
 20 19  1  0  0  0  0
 22 19  1  0  0  0  0
M  RAD  3   2   2   3   3   4   2
M  END
