Coordinates from ORCA-job 4-NO2PhN2+~CF3COO-_B3LYPG-6-31G_dp-CH-Scan-d09-49-n800
 OpenBabel11261919433D

 22 21  0  0  0  0  0  0  0  0999 V2000
   -1.0912    0.4490   -0.5501 C   0  0  0  0  0  0  0  0  0  0  0  0
   -2.3920    0.7905   -0.9656 N   0  0  0  0  0  0  0  0  0  0  0  0
   -3.4053    1.1279   -1.2914 N   0  0  0  0  0  0  0  0  0  0  0  0
   -0.3243    1.5711   -0.2339 C   0  0  0  0  0  0  0  0  0  0  0  0
    0.9790    1.1548    0.1767 C   0  0  0  0  0  0  0  0  0  0  0  0
    1.3441   -0.1817    0.2331 C   0  0  0  0  0  0  0  0  0  0  0  0
    2.7165   -0.5425    0.6771 N   0  0  0  0  0  0  0  0  0  0  0  0
    3.4734    0.3714    0.9911 O   0  0  0  0  0  0  0  0  0  0  0  0
    3.0093   -1.7379    0.7022 O   0  0  0  0  0  0  0  0  0  0  0  0
    0.4855   -1.2499   -0.1104 C   0  0  0  0  0  0  0  0  0  0  0  0
   -0.7891   -0.9390   -0.5230 C   0  0  0  0  0  0  0  0  0  0  0  0
   -2.2860    5.5118   -0.0872 H   0  0  0  0  0  0  0  0  0  0  0  0
    1.7269    1.8896    0.4616 H   0  0  0  0  0  0  0  0  0  0  0  0
    0.8423   -2.2689   -0.0433 H   0  0  0  0  0  0  0  0  0  0  0  0
   -1.5056   -1.7049   -0.8059 H   0  0  0  0  0  0  0  0  0  0  0  0
   -3.1385    5.9790   -0.1241 O   0  0  0  0  0  0  0  0  0  0  0  0
   -4.0811    5.0883   -0.4443 C   0  0  0  0  0  0  0  0  0  0  0  0
   -3.9156    3.9147   -0.6580 O   0  0  0  0  0  0  0  0  0  0  0  0
   -5.4624    5.7768   -0.4975 C   0  0  0  0  0  0  0  0  0  0  0  0
   -6.3953    4.9059   -0.8864 F   0  0  0  0  0  0  0  0  0  0  0  0
   -5.7885    6.2477    0.7185 F   0  0  0  0  0  0  0  0  0  0  0  0
   -5.4415    6.8057   -1.3609 F   0  0  0  0  0  0  0  0  0  0  0  0
  1 11  2  0  0  0  0
  1  4  1  0  0  0  0
  2  1  1  0  0  0  0
  3  2  1  0  0  0  0
  4  5  2  0  0  0  0
  5  6  1  0  0  0  0
  5 13  1  0  0  0  0
  6  7  1  0  0  0  0
  7  9  2  0  0  0  0
  7  8  2  0  0  0  0
 10 14  1  0  0  0  0
 10  6  2  0  0  0  0
 11 10  1  0  0  0  0
 15 11  1  0  0  0  0
 16 12  1  0  0  0  0
 17 16  1  0  0  0  0
 18 17  2  0  0  0  0
 19 17  1  0  0  0  0
 19 21  1  0  0  0  0
 20 19  1  0  0  0  0
 22 19  1  0  0  0  0
M  RAD  3   2   2   3   3   4   2
M  END
