Coordinates from ORCA-job 4-NO2PhN2+~CF3COO-_B3LYPG-6-31G_dp-CH-Scan-d09-49-n800
 OpenBabel11261919433D

 22 21  0  0  0  0  0  0  0  0999 V2000
   -1.6790    0.5015   -0.4707 C   0  0  0  0  0  0  0  0  0  0  0  0
   -3.0383    0.4987   -0.8111 N   0  0  0  0  0  0  0  0  0  0  0  0
   -4.1153    0.6369   -1.0627 N   0  0  0  0  0  0  0  0  0  0  0  0
   -1.1815    1.7535   -0.0958 C   0  0  0  0  0  0  0  0  0  0  0  0
    0.1927    1.6940    0.2356 C   0  0  0  0  0  0  0  0  0  0  0  0
    0.9000    0.5004    0.1743 C   0  0  0  0  0  0  0  0  0  0  0  0
    2.3426    0.4973    0.5349 N   0  0  0  0  0  0  0  0  0  0  0  0
    2.8417    1.5624    0.8805 O   0  0  0  0  0  0  0  0  0  0  0  0
    2.9377   -0.5761    0.4618 O   0  0  0  0  0  0  0  0  0  0  0  0
    0.3317   -0.7259   -0.2132 C   0  0  0  0  0  0  0  0  0  0  0  0
   -1.0054   -0.7397   -0.5497 C   0  0  0  0  0  0  0  0  0  0  0  0
   -1.9946    3.1200   -0.0463 H   0  0  0  0  0  0  0  0  0  0  0  0
    0.7218    2.5888    0.5468 H   0  0  0  0  0  0  0  0  0  0  0  0
    0.9431   -1.6181   -0.2400 H   0  0  0  0  0  0  0  0  0  0  0  0
   -1.5086   -1.6501   -0.8588 H   0  0  0  0  0  0  0  0  0  0  0  0
   -2.4658    4.1133    0.0081 O   0  0  0  0  0  0  0  0  0  0  0  0
   -3.6687    4.1214   -0.4771 C   0  0  0  0  0  0  0  0  0  0  0  0
   -4.3165    3.1896   -0.9337 O   0  0  0  0  0  0  0  0  0  0  0  0
   -4.2830    5.5426   -0.4371 C   0  0  0  0  0  0  0  0  0  0  0  0
   -5.5316    5.5452   -0.9201 F   0  0  0  0  0  0  0  0  0  0  0  0
   -4.3186    6.0081    0.8269 F   0  0  0  0  0  0  0  0  0  0  0  0
   -3.5441    6.3953   -1.1743 F   0  0  0  0  0  0  0  0  0  0  0  0
  1  4  1  0  0  0  0
  2  1  1  0  0  0  0
  3  2  1  0  0  0  0
  4  5  2  0  0  0  0
  5 13  1  0  0  0  0
  6  5  1  0  0  0  0
  6  7  1  0  0  0  0
  7  8  2  0  0  0  0
  9  7  2  0  0  0  0
 10  6  2  0  0  0  0
 11  1  2  0  0  0  0
 11 10  1  0  0  0  0
 12 16  1  0  0  0  0
 14 10  1  0  0  0  0
 15 11  1  0  0  0  0
 17 19  1  0  0  0  0
 17 16  1  0  0  0  0
 18 17  2  0  0  0  0
 19 21  1  0  0  0  0
 20 19  1  0  0  0  0
 22 19  1  0  0  0  0
M  RAD  3   2   2   3   3   4   2
M  END
