Coordinates from ORCA-job 4-NO2PhN2+~CF3COO-_B3LYPG-6-31G_dp-CH-Scan-d09-49-n800
 OpenBabel11261919433D

 22 21  0  0  0  0  0  0  0  0999 V2000
   -1.4069    0.4307   -0.4447 C   0  0  0  0  0  0  0  0  0  0  0  0
   -2.7618    0.5605   -0.7847 N   0  0  0  0  0  0  0  0  0  0  0  0
   -3.8354    0.7197   -1.0425 N   0  0  0  0  0  0  0  0  0  0  0  0
   -0.8170    1.6344   -0.0470 C   0  0  0  0  0  0  0  0  0  0  0  0
    0.5523    1.4218    0.2835 C   0  0  0  0  0  0  0  0  0  0  0  0
    1.1436    0.1701    0.1969 C   0  0  0  0  0  0  0  0  0  0  0  0
    2.5784    0.0188    0.5582 N   0  0  0  0  0  0  0  0  0  0  0  0
    3.1822    1.0219    0.9249 O   0  0  0  0  0  0  0  0  0  0  0  0
    3.0690   -1.1057    0.4664 O   0  0  0  0  0  0  0  0  0  0  0  0
    0.4648   -0.9949   -0.2183 C   0  0  0  0  0  0  0  0  0  0  0  0
   -0.8637   -0.8767   -0.5556 C   0  0  0  0  0  0  0  0  0  0  0  0
   -2.1810    4.1154    0.0333 H   0  0  0  0  0  0  0  0  0  0  0  0
    1.1733    2.2478    0.6165 H   0  0  0  0  0  0  0  0  0  0  0  0
    0.9929   -1.9381   -0.2622 H   0  0  0  0  0  0  0  0  0  0  0  0
   -1.4509   -1.7290   -0.8840 H   0  0  0  0  0  0  0  0  0  0  0  0
   -2.7477    4.9119   -0.0002 O   0  0  0  0  0  0  0  0  0  0  0  0
   -3.9426    4.5635   -0.4624 C   0  0  0  0  0  0  0  0  0  0  0  0
   -4.3041    3.4597   -0.7930 O   0  0  0  0  0  0  0  0  0  0  0  0
   -4.8655    5.8001   -0.5355 C   0  0  0  0  0  0  0  0  0  0  0  0
   -6.0797    5.4471   -0.9640 F   0  0  0  0  0  0  0  0  0  0  0  0
   -4.9837    6.3693    0.6765 F   0  0  0  0  0  0  0  0  0  0  0  0
   -4.3561    6.7109   -1.3839 F   0  0  0  0  0  0  0  0  0  0  0  0
  1  4  1  0  0  0  0
  2  1  1  0  0  0  0
  3  2  1  0  0  0  0
  4  5  2  0  0  0  0
  5 13  1  0  0  0  0
  6  5  1  0  0  0  0
  6  7  1  0  0  0  0
  7  8  2  0  0  0  0
  9  7  2  0  0  0  0
 10  6  2  0  0  0  0
 11  1  2  0  0  0  0
 11 10  1  0  0  0  0
 14 10  1  0  0  0  0
 15 11  1  0  0  0  0
 16 12  1  0  0  0  0
 17 16  1  0  0  0  0
 18 17  2  0  0  0  0
 19 17  1  0  0  0  0
 19 21  1  0  0  0  0
 20 19  1  0  0  0  0
 22 19  1  0  0  0  0
M  RAD  3   2   2   3   3   4   2
M  END
