Coordinates from ORCA-job 4-NO2PhN2+~CF3COO-_B3LYPG-6-31G_dp-CH-Scan-d09-49-n800
 OpenBabel11261919433D

 22 21  0  0  0  0  0  0  0  0999 V2000
   -0.8354    1.0334   -1.6151 C   0  0  0  0  0  0  0  0  0  0  0  0
   -1.7177    1.3783   -2.6542 N   0  0  0  0  0  0  0  0  0  0  0  0
   -2.3433    1.6737   -3.5302 N   0  0  0  0  0  0  0  0  0  0  0  0
    0.4908    1.2715   -1.9742 C   0  0  0  0  0  0  0  0  0  0  0  0
    1.3509    0.8908   -0.8992 C   0  0  0  0  0  0  0  0  0  0  0  0
    0.8585    0.3534    0.2811 C   0  0  0  0  0  0  0  0  0  0  0  0
    1.8102   -0.0361    1.3550 N   0  0  0  0  0  0  0  0  0  0  0  0
    3.0099    0.0916    1.1296 O   0  0  0  0  0  0  0  0  0  0  0  0
    1.3356   -0.4687    2.4056 O   0  0  0  0  0  0  0  0  0  0  0  0
   -0.5156    0.1555    0.5469 C   0  0  0  0  0  0  0  0  0  0  0  0
   -1.4164    0.5094   -0.4307 C   0  0  0  0  0  0  0  0  0  0  0  0
   -1.9071    4.9394   -0.4654 H   0  0  0  0  0  0  0  0  0  0  0  0
    2.4274    1.0135   -0.9853 H   0  0  0  0  0  0  0  0  0  0  0  0
   -0.8240   -0.2584    1.4973 H   0  0  0  0  0  0  0  0  0  0  0  0
   -2.4890    0.4059   -0.2981 H   0  0  0  0  0  0  0  0  0  0  0  0
   -2.7519    5.1201   -0.0181 O   0  0  0  0  0  0  0  0  0  0  0  0
   -3.5829    4.1088   -0.2736 C   0  0  0  0  0  0  0  0  0  0  0  0
   -3.3410    3.1363   -0.9453 O   0  0  0  0  0  0  0  0  0  0  0  0
   -4.9458    4.3523    0.4112 C   0  0  0  0  0  0  0  0  0  0  0  0
   -5.7475    3.3037    0.2187 F   0  0  0  0  0  0  0  0  0  0  0  0
   -4.7789    4.5383    1.7295 F   0  0  0  0  0  0  0  0  0  0  0  0
   -5.5264    5.4466   -0.1071 F   0  0  0  0  0  0  0  0  0  0  0  0
  1 11  1  0  0  0  0
  2  1  1  0  0  0  0
  3  2  1  0  0  0  0
  4  1  2  0  0  0  0
  4  5  1  0  0  0  0
  5  6  2  0  0  0  0
  6 10  1  0  0  0  0
  6  7  1  0  0  0  0
  7  9  2  0  0  0  0
  8  7  2  0  0  0  0
 10 14  1  0  0  0  0
 11 15  1  0  0  0  0
 11 10  2  0  0  0  0
 12 16  1  0  0  0  0
 13  5  1  0  0  0  0
 17 16  1  0  0  0  0
 17 19  1  0  0  0  0
 18 17  2  0  0  0  0
 19 21  1  0  0  0  0
 20 19  1  0  0  0  0
 22 19  1  0  0  0  0
M  RAD  3   2   2   3   3   4   2
M  END
