Coordinates from ORCA-job 4-NO2PhN2+~CF3COO-_B3LYPG-6-31G_dp-CH-Scan-d09-49-n800
 OpenBabel11261919433D

 22 21  0  0  0  0  0  0  0  0999 V2000
   -1.6868    0.5124   -0.4685 C   0  0  0  0  0  0  0  0  0  0  0  0
   -3.0483    0.5199   -0.8058 N   0  0  0  0  0  0  0  0  0  0  0  0
   -4.1180    0.7288   -1.0473 N   0  0  0  0  0  0  0  0  0  0  0  0
   -1.1799    1.7583   -0.0913 C   0  0  0  0  0  0  0  0  0  0  0  0
    0.1911    1.7065    0.2383 C   0  0  0  0  0  0  0  0  0  0  0  0
    0.8974    0.5114    0.1739 C   0  0  0  0  0  0  0  0  0  0  0  0
    2.3402    0.5077    0.5325 N   0  0  0  0  0  0  0  0  0  0  0  0
    2.8388    1.5728    0.8790 O   0  0  0  0  0  0  0  0  0  0  0  0
    2.9348   -0.5654    0.4571 O   0  0  0  0  0  0  0  0  0  0  0  0
    0.3269   -0.7122   -0.2143 C   0  0  0  0  0  0  0  0  0  0  0  0
   -1.0122   -0.7251   -0.5488 C   0  0  0  0  0  0  0  0  0  0  0  0
   -1.9619    3.0207   -0.0425 H   0  0  0  0  0  0  0  0  0  0  0  0
    0.7173    2.6028    0.5493 H   0  0  0  0  0  0  0  0  0  0  0  0
    0.9374   -1.6050   -0.2435 H   0  0  0  0  0  0  0  0  0  0  0  0
   -1.5160   -1.6348   -0.8584 H   0  0  0  0  0  0  0  0  0  0  0  0
   -2.4807    4.0640    0.0194 O   0  0  0  0  0  0  0  0  0  0  0  0
   -3.6681    4.0942   -0.4780 C   0  0  0  0  0  0  0  0  0  0  0  0
   -4.3367    3.1794   -0.9546 O   0  0  0  0  0  0  0  0  0  0  0  0
   -4.2709    5.5225   -0.4402 C   0  0  0  0  0  0  0  0  0  0  0  0
   -5.5196    5.5430   -0.9243 F   0  0  0  0  0  0  0  0  0  0  0  0
   -4.3028    5.9903    0.8234 F   0  0  0  0  0  0  0  0  0  0  0  0
   -3.5213    6.3670   -1.1771 F   0  0  0  0  0  0  0  0  0  0  0  0
  1  4  1  0  0  0  0
  2  1  1  0  0  0  0
  3  2  1  0  0  0  0
  4  5  2  0  0  0  0
  5 13  1  0  0  0  0
  6  5  1  0  0  0  0
  6  7  1  0  0  0  0
  7  8  2  0  0  0  0
  9  7  2  0  0  0  0
 10  6  2  0  0  0  0
 11  1  2  0  0  0  0
 11 10  1  0  0  0  0
 12 16  1  0  0  0  0
 14 10  1  0  0  0  0
 15 11  1  0  0  0  0
 17 19  1  0  0  0  0
 17 16  1  0  0  0  0
 18 17  2  0  0  0  0
 19 21  1  0  0  0  0
 20 19  1  0  0  0  0
 22 19  1  0  0  0  0
M  RAD  3   2   2   3   3   4   2
M  END
