Coordinates from ORCA-job 4-NO2PhN2+~CF3COO-_B3LYPG-6-31G_dp-CH-Scan-d09-49-n800
 OpenBabel11261919433D

 22 21  0  0  0  0  0  0  0  0999 V2000
   -1.6257    0.4835   -0.4657 C   0  0  0  0  0  0  0  0  0  0  0  0
   -2.9831    0.4956   -0.8092 N   0  0  0  0  0  0  0  0  0  0  0  0
   -4.0627    0.5902   -1.0689 N   0  0  0  0  0  0  0  0  0  0  0  0
   -1.1172    1.7316   -0.0879 C   0  0  0  0  0  0  0  0  0  0  0  0
    0.2596    1.6392    0.2446 C   0  0  0  0  0  0  0  0  0  0  0  0
    0.9473    0.4354    0.1800 C   0  0  0  0  0  0  0  0  0  0  0  0
    2.3898    0.4061    0.5408 N   0  0  0  0  0  0  0  0  0  0  0  0
    2.9096    1.4614    0.8870 O   0  0  0  0  0  0  0  0  0  0  0  0
    2.9673   -0.6769    0.4639 O   0  0  0  0  0  0  0  0  0  0  0  0
    0.3601   -0.7826   -0.2120 C   0  0  0  0  0  0  0  0  0  0  0  0
   -0.9752   -0.7731   -0.5494 C   0  0  0  0  0  0  0  0  0  0  0  0
   -2.0563    3.3494   -0.0386 H   0  0  0  0  0  0  0  0  0  0  0  0
    0.8085    2.5206    0.5603 H   0  0  0  0  0  0  0  0  0  0  0  0
    0.9575   -1.6842   -0.2405 H   0  0  0  0  0  0  0  0  0  0  0  0
   -1.4934   -1.6743   -0.8613 H   0  0  0  0  0  0  0  0  0  0  0  0
   -2.5077    4.2714   -0.0044 O   0  0  0  0  0  0  0  0  0  0  0  0
   -3.7267    4.2121   -0.4803 C   0  0  0  0  0  0  0  0  0  0  0  0
   -4.3222    3.2389   -0.9013 O   0  0  0  0  0  0  0  0  0  0  0  0
   -4.3936    5.6074   -0.4527 C   0  0  0  0  0  0  0  0  0  0  0  0
   -5.6413    5.5473   -0.9303 F   0  0  0  0  0  0  0  0  0  0  0  0
   -4.4420    6.0818    0.8064 F   0  0  0  0  0  0  0  0  0  0  0  0
   -3.6921    6.4784   -1.2023 F   0  0  0  0  0  0  0  0  0  0  0  0
  1  4  1  0  0  0  0
  2  1  1  0  0  0  0
  3  2  1  0  0  0  0
  4  5  2  0  0  0  0
  5 13  1  0  0  0  0
  6  5  1  0  0  0  0
  6  7  1  0  0  0  0
  7  8  2  0  0  0  0
  9  7  2  0  0  0  0
 10  6  2  0  0  0  0
 11  1  2  0  0  0  0
 11 10  1  0  0  0  0
 12 16  1  0  0  0  0
 14 10  1  0  0  0  0
 15 11  1  0  0  0  0
 17 19  1  0  0  0  0
 17 16  1  0  0  0  0
 18 17  2  0  0  0  0
 19 21  1  0  0  0  0
 20 19  1  0  0  0  0
 22 19  1  0  0  0  0
M  RAD  3   2   2   3   3   4   2
M  END
