Coordinates from ORCA-job 4-NO2PhN2+~CF3COO-_B3LYPG-6-31G_dp-CH-Scan-d09-49-n800
 OpenBabel11261919433D

 22 21  0  0  0  0  0  0  0  0999 V2000
   -1.3017    0.4057   -0.4294 C   0  0  0  0  0  0  0  0  0  0  0  0
   -2.6532    0.5982   -0.7613 N   0  0  0  0  0  0  0  0  0  0  0  0
   -3.7205    0.8110   -1.0085 N   0  0  0  0  0  0  0  0  0  0  0  0
   -0.6677    1.5849   -0.0298 C   0  0  0  0  0  0  0  0  0  0  0  0
    0.6949    1.3127    0.2929 C   0  0  0  0  0  0  0  0  0  0  0  0
    1.2345    0.0386    0.1991 C   0  0  0  0  0  0  0  0  0  0  0  0
    2.6629   -0.1733    0.5549 N   0  0  0  0  0  0  0  0  0  0  0  0
    3.3103    0.8031    0.9201 O   0  0  0  0  0  0  0  0  0  0  0  0
    3.1076   -1.3165    0.4566 O   0  0  0  0  0  0  0  0  0  0  0  0
    0.5074   -1.0973   -0.2185 C   0  0  0  0  0  0  0  0  0  0  0  0
   -0.8162   -0.9237   -0.5500 C   0  0  0  0  0  0  0  0  0  0  0  0
   -2.2392    4.5387    0.0912 H   0  0  0  0  0  0  0  0  0  0  0  0
    1.3520    2.1105    0.6265 H   0  0  0  0  0  0  0  0  0  0  0  0
    0.9970   -2.0607   -0.2682 H   0  0  0  0  0  0  0  0  0  0  0  0
   -1.4394   -1.7497   -0.8801 H   0  0  0  0  0  0  0  0  0  0  0  0
   -2.8881    5.2610    0.0125 O   0  0  0  0  0  0  0  0  0  0  0  0
   -4.0291    4.7495   -0.4467 C   0  0  0  0  0  0  0  0  0  0  0  0
   -4.2450    3.5966   -0.7254 O   0  0  0  0  0  0  0  0  0  0  0  0
   -5.0899    5.8639   -0.5847 C   0  0  0  0  0  0  0  0  0  0  0  0
   -6.2338    5.3574   -1.0492 F   0  0  0  0  0  0  0  0  0  0  0  0
   -5.3223    6.4352    0.6096 F   0  0  0  0  0  0  0  0  0  0  0  0
   -4.6601    6.8133   -1.4334 F   0  0  0  0  0  0  0  0  0  0  0  0
  1  4  1  0  0  0  0
  2  1  1  0  0  0  0
  3  2  1  0  0  0  0
  4  5  2  0  0  0  0
  5 13  1  0  0  0  0
  6  5  1  0  0  0  0
  6  7  1  0  0  0  0
  7  8  2  0  0  0  0
  9  7  2  0  0  0  0
 10  6  2  0  0  0  0
 11  1  2  0  0  0  0
 11 10  1  0  0  0  0
 14 10  1  0  0  0  0
 15 11  1  0  0  0  0
 16 12  1  0  0  0  0
 17 16  1  0  0  0  0
 18 17  2  0  0  0  0
 19 17  1  0  0  0  0
 19 21  1  0  0  0  0
 20 19  1  0  0  0  0
 22 19  1  0  0  0  0
M  RAD  3   2   2   3   3   4   2
M  END
