Coordinates from ORCA-job 4-NO2PhN2+~CF3COO-_B3LYPG-6-31G_dp-CH-Scan-d09-49-n800
 OpenBabel11261919433D

 22 21  0  0  0  0  0  0  0  0999 V2000
   -1.4695    0.4457   -0.4528 C   0  0  0  0  0  0  0  0  0  0  0  0
   -2.8253    0.5400   -0.7963 N   0  0  0  0  0  0  0  0  0  0  0  0
   -3.9016    0.6724   -1.0568 N   0  0  0  0  0  0  0  0  0  0  0  0
   -0.9037    1.6637   -0.0621 C   0  0  0  0  0  0  0  0  0  0  0  0
    0.4687    1.4860    0.2712 C   0  0  0  0  0  0  0  0  0  0  0  0
    1.0884    0.2474    0.1934 C   0  0  0  0  0  0  0  0  0  0  0  0
    2.5261    0.1318    0.5562 N   0  0  0  0  0  0  0  0  0  0  0  0
    3.1059    1.1510    0.9165 O   0  0  0  0  0  0  0  0  0  0  0  0
    3.0420   -0.9818    0.4714 O   0  0  0  0  0  0  0  0  0  0  0  0
    0.4362   -0.9346   -0.2141 C   0  0  0  0  0  0  0  0  0  0  0  0
   -0.8946   -0.8484   -0.5532 C   0  0  0  0  0  0  0  0  0  0  0  0
   -2.1495    3.8844    0.0019 H   0  0  0  0  0  0  0  0  0  0  0  0
    1.0694    2.3288    0.5989 H   0  0  0  0  0  0  0  0  0  0  0  0
    0.9850   -1.8662   -0.2515 H   0  0  0  0  0  0  0  0  0  0  0  0
   -1.4617   -1.7162   -0.8762 H   0  0  0  0  0  0  0  0  0  0  0  0
   -2.6727    4.7168   -0.0085 O   0  0  0  0  0  0  0  0  0  0  0  0
   -3.8863    4.4584   -0.4707 C   0  0  0  0  0  0  0  0  0  0  0  0
   -4.3250    3.3894   -0.8273 O   0  0  0  0  0  0  0  0  0  0  0  0
   -4.7298    5.7524   -0.5078 C   0  0  0  0  0  0  0  0  0  0  0  0
   -5.9634    5.4914   -0.9479 F   0  0  0  0  0  0  0  0  0  0  0  0
   -4.8159    6.2913    0.7211 F   0  0  0  0  0  0  0  0  0  0  0  0
   -4.1621    6.6555   -1.3271 F   0  0  0  0  0  0  0  0  0  0  0  0
  1  4  1  0  0  0  0
  2  1  1  0  0  0  0
  3  2  1  0  0  0  0
  4  5  2  0  0  0  0
  5 13  1  0  0  0  0
  6  5  1  0  0  0  0
  6  7  1  0  0  0  0
  7  8  2  0  0  0  0
  9  7  2  0  0  0  0
 10  6  2  0  0  0  0
 11  1  2  0  0  0  0
 11 10  1  0  0  0  0
 14 10  1  0  0  0  0
 15 11  1  0  0  0  0
 16 12  1  0  0  0  0
 17 16  1  0  0  0  0
 18 17  2  0  0  0  0
 19 17  1  0  0  0  0
 19 21  1  0  0  0  0
 20 19  1  0  0  0  0
 22 19  1  0  0  0  0
M  RAD  3   2   2   3   3   4   2
M  END
