Coordinates from ORCA-job 4-NO2PhN2+~CF3COO-_B3LYPG-6-31G_dp-CH-Scan-d09-49-n800
 OpenBabel11261919433D

 22 21  0  0  0  0  0  0  0  0999 V2000
   -1.2533    0.4002   -0.4221 C   0  0  0  0  0  0  0  0  0  0  0  0
   -2.6020    0.6261   -0.7489 N   0  0  0  0  0  0  0  0  0  0  0  0
   -3.6638    0.8676   -0.9943 N   0  0  0  0  0  0  0  0  0  0  0  0
   -0.5924    1.5664   -0.0302 C   0  0  0  0  0  0  0  0  0  0  0  0
    0.7656    1.2625    0.2876 C   0  0  0  0  0  0  0  0  0  0  0  0
    1.2746   -0.0243    0.1970 C   0  0  0  0  0  0  0  0  0  0  0  0
    2.6989   -0.2687    0.5480 N   0  0  0  0  0  0  0  0  0  0  0  0
    3.3711    0.6935    0.9064 O   0  0  0  0  0  0  0  0  0  0  0  0
    3.1152   -1.4233    0.4572 O   0  0  0  0  0  0  0  0  0  0  0  0
    0.5190   -1.1449   -0.2130 C   0  0  0  0  0  0  0  0  0  0  0  0
   -0.8013   -0.9414   -0.5399 C   0  0  0  0  0  0  0  0  0  0  0  0
   -2.2626    4.7782    0.1242 H   0  0  0  0  0  0  0  0  0  0  0  0
    1.4431    2.0457    0.6150 H   0  0  0  0  0  0  0  0  0  0  0  0
    0.9857   -2.1197   -0.2603 H   0  0  0  0  0  0  0  0  0  0  0  0
   -1.4454   -1.7535   -0.8642 H   0  0  0  0  0  0  0  0  0  0  0  0
   -2.9595    5.4495    0.0212 O   0  0  0  0  0  0  0  0  0  0  0  0
   -4.0554    4.8440   -0.4384 C   0  0  0  0  0  0  0  0  0  0  0  0
   -4.1807    3.6722   -0.6904 O   0  0  0  0  0  0  0  0  0  0  0  0
   -5.1944    5.8733   -0.6085 C   0  0  0  0  0  0  0  0  0  0  0  0
   -6.2767    5.2833   -1.1192 F   0  0  0  0  0  0  0  0  0  0  0  0
   -5.5138    6.4087    0.5825 F   0  0  0  0  0  0  0  0  0  0  0  0
   -4.8115    6.8639   -1.4313 F   0  0  0  0  0  0  0  0  0  0  0  0
  1  4  1  0  0  0  0
  2  1  1  0  0  0  0
  3  2  1  0  0  0  0
  4  5  2  0  0  0  0
  5 13  1  0  0  0  0
  6  5  1  0  0  0  0
  6  7  1  0  0  0  0
  7  8  2  0  0  0  0
  9  7  2  0  0  0  0
 10  6  2  0  0  0  0
 11  1  2  0  0  0  0
 11 10  1  0  0  0  0
 14 10  1  0  0  0  0
 15 11  1  0  0  0  0
 16 12  1  0  0  0  0
 17 16  1  0  0  0  0
 18 17  2  0  0  0  0
 19 17  1  0  0  0  0
 19 21  1  0  0  0  0
 20 19  1  0  0  0  0
 22 19  1  0  0  0  0
M  RAD  3   2   2   3   3   4   2
M  END
