Coordinates from ORCA-job 4-NO2PhN2+~CF3COO-_B3LYPG-6-31G_dp-CH-Scan-d09-49-n800
 OpenBabel11261919433D

 22 21  0  0  0  0  0  0  0  0999 V2000
   -1.1511    0.4209   -0.4882 C   0  0  0  0  0  0  0  0  0  0  0  0
   -2.4749    0.7186   -0.8610 N   0  0  0  0  0  0  0  0  0  0  0  0
   -3.5115    1.0195   -1.1460 N   0  0  0  0  0  0  0  0  0  0  0  0
   -0.4317    1.5604   -0.1243 C   0  0  0  0  0  0  0  0  0  0  0  0
    0.8970    1.1863    0.2423 C   0  0  0  0  0  0  0  0  0  0  0  0
    1.3267   -0.1319    0.2186 C   0  0  0  0  0  0  0  0  0  0  0  0
    2.7229   -0.4490    0.6204 N   0  0  0  0  0  0  0  0  0  0  0  0
    3.4439    0.4837    0.9624 O   0  0  0  0  0  0  0  0  0  0  0  0
    3.0694   -1.6295    0.5856 O   0  0  0  0  0  0  0  0  0  0  0  0
    0.5136   -1.2205   -0.1685 C   0  0  0  0  0  0  0  0  0  0  0  0
   -0.7822   -0.9501   -0.5415 C   0  0  0  0  0  0  0  0  0  0  0  0
   -2.2725    5.2481    0.0188 H   0  0  0  0  0  0  0  0  0  0  0  0
    1.6140    1.9397    0.5561 H   0  0  0  0  0  0  0  0  0  0  0  0
    0.9198   -2.2230   -0.1638 H   0  0  0  0  0  0  0  0  0  0  0  0
   -1.4668   -1.7337   -0.8531 H   0  0  0  0  0  0  0  0  0  0  0  0
   -3.0742    5.7951   -0.0469 O   0  0  0  0  0  0  0  0  0  0  0  0
   -4.0800    5.0082   -0.4368 C   0  0  0  0  0  0  0  0  0  0  0  0
   -4.0198    3.8285   -0.6722 O   0  0  0  0  0  0  0  0  0  0  0  0
   -5.3800    5.8335   -0.5548 C   0  0  0  0  0  0  0  0  0  0  0  0
   -6.3905    5.0479   -0.9318 F   0  0  0  0  0  0  0  0  0  0  0  0
   -5.6842    6.3954    0.6272 F   0  0  0  0  0  0  0  0  0  0  0  0
   -5.2273    6.8112   -1.4643 F   0  0  0  0  0  0  0  0  0  0  0  0
  1  4  1  0  0  0  0
  2  1  1  0  0  0  0
  3  2  1  0  0  0  0
  4  5  2  0  0  0  0
  5 13  1  0  0  0  0
  6  5  1  0  0  0  0
  6  7  1  0  0  0  0
  7  8  2  0  0  0  0
  9  7  2  0  0  0  0
 10 14  1  0  0  0  0
 10  6  2  0  0  0  0
 11  1  2  0  0  0  0
 11 10  1  0  0  0  0
 15 11  1  0  0  0  0
 16 12  1  0  0  0  0
 17 16  1  0  0  0  0
 18 17  2  0  0  0  0
 19 17  1  0  0  0  0
 19 21  1  0  0  0  0
 20 19  1  0  0  0  0
 22 19  1  0  0  0  0
M  RAD  3   2   2   3   3   4   2
M  END
