Coordinates from ORCA-job 4-NO2PhN2+~CF3COO-_B3LYPG-6-31G_dp-CH-Scan-d09-49-n800
 OpenBabel11261919433D

 22 21  0  0  0  0  0  0  0  0999 V2000
   -1.6715    0.4982   -0.4713 C   0  0  0  0  0  0  0  0  0  0  0  0
   -3.0300    0.4948   -0.8132 N   0  0  0  0  0  0  0  0  0  0  0  0
   -4.1083    0.6143   -1.0681 N   0  0  0  0  0  0  0  0  0  0  0  0
   -1.1742    1.7508   -0.0968 C   0  0  0  0  0  0  0  0  0  0  0  0
    0.2007    1.6859    0.2356 C   0  0  0  0  0  0  0  0  0  0  0  0
    0.9058    0.4912    0.1752 C   0  0  0  0  0  0  0  0  0  0  0  0
    2.3482    0.4849    0.5367 N   0  0  0  0  0  0  0  0  0  0  0  0
    2.8499    1.5489    0.8820 O   0  0  0  0  0  0  0  0  0  0  0  0
    2.9410   -0.5898    0.4644 O   0  0  0  0  0  0  0  0  0  0  0  0
    0.3355   -0.7347   -0.2124 C   0  0  0  0  0  0  0  0  0  0  0  0
   -1.0010   -0.7457   -0.5498 C   0  0  0  0  0  0  0  0  0  0  0  0
   -2.0059    3.1645   -0.0481 H   0  0  0  0  0  0  0  0  0  0  0  0
    0.7329    2.5788    0.5472 H   0  0  0  0  0  0  0  0  0  0  0  0
    0.9452   -1.6281   -0.2383 H   0  0  0  0  0  0  0  0  0  0  0  0
   -1.5059   -1.6552   -0.8589 H   0  0  0  0  0  0  0  0  0  0  0  0
   -2.4666    4.1405    0.0021 O   0  0  0  0  0  0  0  0  0  0  0  0
   -3.6754    4.1363   -0.4770 C   0  0  0  0  0  0  0  0  0  0  0  0
   -4.3146    3.1961   -0.9233 O   0  0  0  0  0  0  0  0  0  0  0  0
   -4.2979    5.5533   -0.4377 C   0  0  0  0  0  0  0  0  0  0  0  0
   -5.5469    5.5452   -0.9187 F   0  0  0  0  0  0  0  0  0  0  0  0
   -4.3344    6.0194    0.8258 F   0  0  0  0  0  0  0  0  0  0  0  0
   -3.5660    6.4097   -1.1771 F   0  0  0  0  0  0  0  0  0  0  0  0
  1  4  1  0  0  0  0
  2  1  1  0  0  0  0
  3  2  1  0  0  0  0
  4  5  2  0  0  0  0
  5 13  1  0  0  0  0
  6  5  1  0  0  0  0
  6  7  1  0  0  0  0
  7  8  2  0  0  0  0
  9  7  2  0  0  0  0
 10  6  2  0  0  0  0
 11  1  2  0  0  0  0
 11 10  1  0  0  0  0
 12 16  1  0  0  0  0
 14 10  1  0  0  0  0
 15 11  1  0  0  0  0
 17 19  1  0  0  0  0
 17 16  1  0  0  0  0
 18 17  2  0  0  0  0
 19 21  1  0  0  0  0
 20 19  1  0  0  0  0
 22 19  1  0  0  0  0
M  RAD  3   2   2   3   3   4   2
M  END
