Coordinates from ORCA-job 4-NO2PhN2+~CF3COO-_B3LYPG-6-31G_dp-CH-Scan-d09-49-n800
 OpenBabel11261919433D

 22 22  0  0  0  0  0  0  0  0999 V2000
   -1.6760    0.7198   -0.3243 C   0  0  0  0  0  0  0  0  0  0  0  0
   -3.0590    0.6567   -0.5979 N   0  0  0  0  0  0  0  0  0  0  0  0
   -3.9899    1.3690   -0.7200 N   0  0  0  0  0  0  0  0  0  0  0  0
   -0.9489    1.9078   -0.1235 C   0  0  0  0  0  0  0  0  0  0  0  0
    0.4160    1.8240    0.1237 C   0  0  0  0  0  0  0  0  0  0  0  0
    1.0218    0.5693    0.1704 C   0  0  0  0  0  0  0  0  0  0  0  0
    2.4757    0.4924    0.4379 N   0  0  0  0  0  0  0  0  0  0  0  0
    3.0748    1.5510    0.6034 O   0  0  0  0  0  0  0  0  0  0  0  0
    2.9817   -0.6260    0.4755 O   0  0  0  0  0  0  0  0  0  0  0  0
    0.3168   -0.6160   -0.0249 C   0  0  0  0  0  0  0  0  0  0  0  0
   -1.0465   -0.5349   -0.2775 C   0  0  0  0  0  0  0  0  0  0  0  0
   -1.5135    2.9661   -0.1689 H   0  0  0  0  0  0  0  0  0  0  0  0
    1.0151    2.7115    0.2827 H   0  0  0  0  0  0  0  0  0  0  0  0
    0.8365   -1.5645    0.0206 H   0  0  0  0  0  0  0  0  0  0  0  0
   -1.6395   -1.4273   -0.4415 H   0  0  0  0  0  0  0  0  0  0  0  0
   -3.5725    3.0161   -0.4062 O   0  0  0  0  0  0  0  0  0  0  0  0
   -4.4741    3.8514   -0.8931 C   0  0  0  0  0  0  0  0  0  0  0  0
   -5.4310    3.6255   -1.5916 O   0  0  0  0  0  0  0  0  0  0  0  0
   -4.1377    5.2905   -0.4086 C   0  0  0  0  0  0  0  0  0  0  0  0
   -4.8187    6.2004   -1.1078 F   0  0  0  0  0  0  0  0  0  0  0  0
   -4.4528    5.4253    0.8938 F   0  0  0  0  0  0  0  0  0  0  0  0
   -2.8178    5.5511   -0.5438 F   0  0  0  0  0  0  0  0  0  0  0  0
  1 11  2  0  0  0  0
  1  4  1  0  0  0  0
  2  1  1  0  0  0  0
  3  2  1  0  0  0  0
  3 16  1  0  0  0  0
  4  5  2  0  0  0  0
  5  6  1  0  0  0  0
  5 13  1  0  0  0  0
  6  7  1  0  0  0  0
  7  9  2  0  0  0  0
  7  8  2  0  0  0  0
 10 14  1  0  0  0  0
 10  6  2  0  0  0  0
 11 10  1  0  0  0  0
 12  4  1  0  0  0  0
 15 11  1  0  0  0  0
 17 19  1  0  0  0  0
 17 16  1  0  0  0  0
 18 17  2  0  0  0  0
 19 21  1  0  0  0  0
 20 19  1  0  0  0  0
 22 19  1  0  0  0  0
M  RAD  2   2   2   3   2
M  END
