Coordinates from ORCA-job 4-NO2PhN2+~CF3COO-_B3LYPG-6-31G_dp-CH-Scan-d09-49-n800
 OpenBabel11261919433D

 22 21  0  0  0  0  0  0  0  0999 V2000
   -1.1844    0.4133   -0.4670 C   0  0  0  0  0  0  0  0  0  0  0  0
   -2.5173    0.6872   -0.8239 N   0  0  0  0  0  0  0  0  0  0  0  0
   -3.5631    0.9684   -1.0953 N   0  0  0  0  0  0  0  0  0  0  0  0
   -0.4865    1.5615   -0.0879 C   0  0  0  0  0  0  0  0  0  0  0  0
    0.8522    1.2099    0.2637 C   0  0  0  0  0  0  0  0  0  0  0  0
    1.3100   -0.0981    0.2136 C   0  0  0  0  0  0  0  0  0  0  0  0
    2.7154   -0.3919    0.6009 N   0  0  0  0  0  0  0  0  0  0  0  0
    3.4189    0.5503    0.9529 O   0  0  0  0  0  0  0  0  0  0  0  0
    3.0861   -1.5642    0.5456 O   0  0  0  0  0  0  0  0  0  0  0  0
    0.5180   -1.1968   -0.1877 C   0  0  0  0  0  0  0  0  0  0  0  0
   -0.7860   -0.9480   -0.5470 C   0  0  0  0  0  0  0  0  0  0  0  0
   -2.2579    5.0997    0.0369 H   0  0  0  0  0  0  0  0  0  0  0  0
    1.5549    1.9728    0.5866 H   0  0  0  0  0  0  0  0  0  0  0  0
    0.9456   -2.1904   -0.2036 H   0  0  0  0  0  0  0  0  0  0  0  0
   -1.4558   -1.7407   -0.8675 H   0  0  0  0  0  0  0  0  0  0  0  0
   -3.0291    5.6879   -0.0387 O   0  0  0  0  0  0  0  0  0  0  0  0
   -4.0704    4.9560   -0.4407 C   0  0  0  0  0  0  0  0  0  0  0  0
   -4.0719    3.7746   -0.6763 O   0  0  0  0  0  0  0  0  0  0  0  0
   -5.3241    5.8486   -0.5691 C   0  0  0  0  0  0  0  0  0  0  0  0
   -6.3658    5.1217   -0.9780 F   0  0  0  0  0  0  0  0  0  0  0  0
   -5.6218    6.4040    0.6179 F   0  0  0  0  0  0  0  0  0  0  0  0
   -5.1065    6.8332   -1.4572 F   0  0  0  0  0  0  0  0  0  0  0  0
  1  4  1  0  0  0  0
  2  1  1  0  0  0  0
  3  2  1  0  0  0  0
  4  5  2  0  0  0  0
  5 13  1  0  0  0  0
  6  5  1  0  0  0  0
  6  7  1  0  0  0  0
  7  8  2  0  0  0  0
  9  7  2  0  0  0  0
 10  6  2  0  0  0  0
 11  1  2  0  0  0  0
 11 10  1  0  0  0  0
 14 10  1  0  0  0  0
 15 11  1  0  0  0  0
 16 12  1  0  0  0  0
 17 16  1  0  0  0  0
 18 17  2  0  0  0  0
 19 17  1  0  0  0  0
 19 21  1  0  0  0  0
 20 19  1  0  0  0  0
 22 19  1  0  0  0  0
M  RAD  3   2   2   3   3   4   2
M  END
