Coordinates from ORCA-job 4-NO2PhN2+~CF3COO-_B3LYPG-6-31G_dp-CH-Scan-d09-49-n800
 OpenBabel11261919433D

 22 21  0  0  0  0  0  0  0  0999 V2000
   -1.4099    0.4318   -0.4459 C   0  0  0  0  0  0  0  0  0  0  0  0
   -2.7646    0.5600   -0.7870 N   0  0  0  0  0  0  0  0  0  0  0  0
   -3.8391    0.7169   -1.0424 N   0  0  0  0  0  0  0  0  0  0  0  0
   -0.8212    1.6361   -0.0484 C   0  0  0  0  0  0  0  0  0  0  0  0
    0.5482    1.4252    0.2827 C   0  0  0  0  0  0  0  0  0  0  0  0
    1.1408    0.1741    0.1970 C   0  0  0  0  0  0  0  0  0  0  0  0
    2.5755    0.0244    0.5590 N   0  0  0  0  0  0  0  0  0  0  0  0
    3.1781    1.0283    0.9254 O   0  0  0  0  0  0  0  0  0  0  0  0
    3.0672   -1.0997    0.4678 O   0  0  0  0  0  0  0  0  0  0  0  0
    0.4632   -0.9918   -0.2179 C   0  0  0  0  0  0  0  0  0  0  0  0
   -0.8653   -0.8750   -0.5558 C   0  0  0  0  0  0  0  0  0  0  0  0
   -2.1787    4.1036    0.0295 H   0  0  0  0  0  0  0  0  0  0  0  0
    1.1682    2.2521    0.6154 H   0  0  0  0  0  0  0  0  0  0  0  0
    0.9923   -1.9345   -0.2611 H   0  0  0  0  0  0  0  0  0  0  0  0
   -1.4514   -1.7280   -0.8842 H   0  0  0  0  0  0  0  0  0  0  0  0
   -2.7430    4.9021   -0.0027 O   0  0  0  0  0  0  0  0  0  0  0  0
   -3.9395    4.5581   -0.4632 C   0  0  0  0  0  0  0  0  0  0  0  0
   -4.3055    3.4557   -0.7945 O   0  0  0  0  0  0  0  0  0  0  0  0
   -4.8588    5.7975   -0.5334 C   0  0  0  0  0  0  0  0  0  0  0  0
   -6.0745    5.4489   -0.9611 F   0  0  0  0  0  0  0  0  0  0  0  0
   -4.9739    6.3651    0.6797 F   0  0  0  0  0  0  0  0  0  0  0  0
   -4.3476    6.7082   -1.3808 F   0  0  0  0  0  0  0  0  0  0  0  0
  1  4  1  0  0  0  0
  2  1  1  0  0  0  0
  3  2  1  0  0  0  0
  4  5  2  0  0  0  0
  5 13  1  0  0  0  0
  6  5  1  0  0  0  0
  6  7  1  0  0  0  0
  7  8  2  0  0  0  0
  9  7  2  0  0  0  0
 10  6  2  0  0  0  0
 11  1  2  0  0  0  0
 11 10  1  0  0  0  0
 14 10  1  0  0  0  0
 15 11  1  0  0  0  0
 16 12  1  0  0  0  0
 17 16  1  0  0  0  0
 18 17  2  0  0  0  0
 19 17  1  0  0  0  0
 19 21  1  0  0  0  0
 20 19  1  0  0  0  0
 22 19  1  0  0  0  0
M  RAD  3   2   2   3   3   4   2
M  END
