Coordinates from ORCA-job 4-NO2PhN2+~CF3COO-_B3LYPG-6-31G_dp-CH-Scan-d09-49-n800
 OpenBabel11261919433D

 22 21  0  0  0  0  0  0  0  0999 V2000
   -1.3636    0.4179   -0.4378 C   0  0  0  0  0  0  0  0  0  0  0  0
   -2.7177    0.5724   -0.7737 N   0  0  0  0  0  0  0  0  0  0  0  0
   -3.7892    0.7527   -1.0275 N   0  0  0  0  0  0  0  0  0  0  0  0
   -0.7579    1.6115   -0.0351 C   0  0  0  0  0  0  0  0  0  0  0  0
    0.6093    1.3760    0.2920 C   0  0  0  0  0  0  0  0  0  0  0  0
    1.1819    0.1163    0.1983 C   0  0  0  0  0  0  0  0  0  0  0  0
    2.6146   -0.0584    0.5573 N   0  0  0  0  0  0  0  0  0  0  0  0
    3.2340    0.9336    0.9285 O   0  0  0  0  0  0  0  0  0  0  0  0
    3.0884   -1.1897    0.4599 O   0  0  0  0  0  0  0  0  0  0  0  0
    0.4855   -1.0370   -0.2222 C   0  0  0  0  0  0  0  0  0  0  0  0
   -0.8414   -0.8975   -0.5571 C   0  0  0  0  0  0  0  0  0  0  0  0
   -2.2089    4.2784    0.0609 H   0  0  0  0  0  0  0  0  0  0  0  0
    1.2436    2.1907    0.6283 H   0  0  0  0  0  0  0  0  0  0  0  0
    0.9999   -1.9874   -0.2716 H   0  0  0  0  0  0  0  0  0  0  0  0
   -1.4417   -1.7392   -0.8893 H   0  0  0  0  0  0  0  0  0  0  0  0
   -2.8063    5.0483    0.0092 O   0  0  0  0  0  0  0  0  0  0  0  0
   -3.9828    4.6383   -0.4552 C   0  0  0  0  0  0  0  0  0  0  0  0
   -4.2898    3.5137   -0.7674 O   0  0  0  0  0  0  0  0  0  0  0  0
   -4.9572    5.8325   -0.5571 C   0  0  0  0  0  0  0  0  0  0  0  0
   -6.1527    5.4194   -0.9836 F   0  0  0  0  0  0  0  0  0  0  0  0
   -5.1055    6.4199    0.6427 F   0  0  0  0  0  0  0  0  0  0  0  0
   -4.4818    6.7465   -1.4213 F   0  0  0  0  0  0  0  0  0  0  0  0
  1  4  1  0  0  0  0
  2  1  1  0  0  0  0
  3  2  1  0  0  0  0
  4  5  2  0  0  0  0
  5 13  1  0  0  0  0
  6  5  1  0  0  0  0
  6  7  1  0  0  0  0
  7  8  2  0  0  0  0
  9  7  2  0  0  0  0
 10  6  2  0  0  0  0
 11  1  2  0  0  0  0
 11 10  1  0  0  0  0
 14 10  1  0  0  0  0
 15 11  1  0  0  0  0
 16 12  1  0  0  0  0
 17 16  1  0  0  0  0
 18 17  2  0  0  0  0
 19 17  1  0  0  0  0
 19 21  1  0  0  0  0
 20 19  1  0  0  0  0
 22 19  1  0  0  0  0
M  RAD  3   2   2   3   3   4   2
M  END
