Coordinates from ORCA-job 4-NO2PhN2+~CF3COO-_B3LYPG-6-31G_dp-CH-Scan-d09-49-n800
 OpenBabel11261919433D

 22 21  0  0  0  0  0  0  0  0999 V2000
   -1.2877    0.4043   -0.4262 C   0  0  0  0  0  0  0  0  0  0  0  0
   -2.6387    0.6066   -0.7558 N   0  0  0  0  0  0  0  0  0  0  0  0
   -3.7044    0.8277   -1.0029 N   0  0  0  0  0  0  0  0  0  0  0  0
   -0.6454    1.5797   -0.0297 C   0  0  0  0  0  0  0  0  0  0  0  0
    0.7161    1.2982    0.2906 C   0  0  0  0  0  0  0  0  0  0  0  0
    1.2465    0.0202    0.1977 C   0  0  0  0  0  0  0  0  0  0  0  0
    2.6741   -0.2013    0.5509 N   0  0  0  0  0  0  0  0  0  0  0  0
    3.3287    0.7708    0.9150 O   0  0  0  0  0  0  0  0  0  0  0  0
    3.1097   -1.3483    0.4569 O   0  0  0  0  0  0  0  0  0  0  0  0
    0.5106   -1.1114   -0.2167 C   0  0  0  0  0  0  0  0  0  0  0  0
   -0.8123   -0.9289   -0.5459 C   0  0  0  0  0  0  0  0  0  0  0  0
   -2.2445    4.6093    0.1007 H   0  0  0  0  0  0  0  0  0  0  0  0
    1.3796    2.0918    0.6217 H   0  0  0  0  0  0  0  0  0  0  0  0
    0.9934   -2.0782   -0.2657 H   0  0  0  0  0  0  0  0  0  0  0  0
   -1.4421   -1.7508   -0.8735 H   0  0  0  0  0  0  0  0  0  0  0  0
   -2.9078    5.3169    0.0147 O   0  0  0  0  0  0  0  0  0  0  0  0
   -4.0363    4.7770   -0.4445 C   0  0  0  0  0  0  0  0  0  0  0  0
   -4.2259    3.6174   -0.7146 O   0  0  0  0  0  0  0  0  0  0  0  0
   -5.1210    5.8668   -0.5923 C   0  0  0  0  0  0  0  0  0  0  0  0
   -6.2449    5.3360   -1.0779 F   0  0  0  0  0  0  0  0  0  0  0  0
   -5.3853    6.4227    0.6028 F   0  0  0  0  0  0  0  0  0  0  0  0
   -4.7018    6.8327   -1.4270 F   0  0  0  0  0  0  0  0  0  0  0  0
  1  4  1  0  0  0  0
  2  1  1  0  0  0  0
  3  2  1  0  0  0  0
  4  5  2  0  0  0  0
  5 13  1  0  0  0  0
  6  5  1  0  0  0  0
  6  7  1  0  0  0  0
  7  8  2  0  0  0  0
  9  7  2  0  0  0  0
 10  6  2  0  0  0  0
 11  1  2  0  0  0  0
 11 10  1  0  0  0  0
 14 10  1  0  0  0  0
 15 11  1  0  0  0  0
 16 12  1  0  0  0  0
 17 16  1  0  0  0  0
 18 17  2  0  0  0  0
 19 17  1  0  0  0  0
 19 21  1  0  0  0  0
 20 19  1  0  0  0  0
 22 19  1  0  0  0  0
M  RAD  3   2   2   3   3   4   2
M  END
