Coordinates from ORCA-job 4-NO2PhN2+~CF3COO-_B3LYPG-6-31G_dp-CH-Scan-d09-49-n800
 OpenBabel11261919433D

 22 21  0  0  0  0  0  0  0  0999 V2000
   -1.4935    0.4494   -0.4547 C   0  0  0  0  0  0  0  0  0  0  0  0
   -2.8498    0.5302   -0.7987 N   0  0  0  0  0  0  0  0  0  0  0  0
   -3.9267    0.6547   -1.0596 N   0  0  0  0  0  0  0  0  0  0  0  0
   -0.9379    1.6727   -0.0657 C   0  0  0  0  0  0  0  0  0  0  0  0
    0.4357    1.5094    0.2679 C   0  0  0  0  0  0  0  0  0  0  0  0
    1.0672    0.2766    0.1921 C   0  0  0  0  0  0  0  0  0  0  0  0
    2.5060    0.1756    0.5547 N   0  0  0  0  0  0  0  0  0  0  0  0
    3.0764    1.2016    0.9105 O   0  0  0  0  0  0  0  0  0  0  0  0
    3.0333   -0.9325    0.4686 O   0  0  0  0  0  0  0  0  0  0  0  0
    0.4261   -0.9119   -0.2134 C   0  0  0  0  0  0  0  0  0  0  0  0
   -0.9057   -0.8389   -0.5526 C   0  0  0  0  0  0  0  0  0  0  0  0
   -2.1414    3.7966   -0.0038 H   0  0  0  0  0  0  0  0  0  0  0  0
    1.0278    2.3588    0.5942 H   0  0  0  0  0  0  0  0  0  0  0  0
    0.9834   -1.8384   -0.2494 H   0  0  0  0  0  0  0  0  0  0  0  0
   -1.4643   -1.7125   -0.8742 H   0  0  0  0  0  0  0  0  0  0  0  0
   -2.6480    4.6428   -0.0073 O   0  0  0  0  0  0  0  0  0  0  0  0
   -3.8658    4.4196   -0.4726 C   0  0  0  0  0  0  0  0  0  0  0  0
   -4.3330    3.3655   -0.8397 O   0  0  0  0  0  0  0  0  0  0  0  0
   -4.6766    5.7346   -0.4994 C   0  0  0  0  0  0  0  0  0  0  0  0
   -5.9154    5.5102   -0.9458 F   0  0  0  0  0  0  0  0  0  0  0  0
   -4.7535    6.2634    0.7347 F   0  0  0  0  0  0  0  0  0  0  0  0
   -4.0838    6.6317   -1.3076 F   0  0  0  0  0  0  0  0  0  0  0  0
  1  4  1  0  0  0  0
  2  1  1  0  0  0  0
  3  2  1  0  0  0  0
  4  5  2  0  0  0  0
  5 13  1  0  0  0  0
  6  5  1  0  0  0  0
  6  7  1  0  0  0  0
  7  8  2  0  0  0  0
  9  7  2  0  0  0  0
 10  6  2  0  0  0  0
 11  1  2  0  0  0  0
 11 10  1  0  0  0  0
 14 10  1  0  0  0  0
 15 11  1  0  0  0  0
 16 12  1  0  0  0  0
 17 16  1  0  0  0  0
 18 17  2  0  0  0  0
 19 17  1  0  0  0  0
 19 21  1  0  0  0  0
 20 19  1  0  0  0  0
 22 19  1  0  0  0  0
M  RAD  3   2   2   3   3   4   2
M  END
