Coordinates from ORCA-job 4-NO2PhN2+~CF3COO-_B3LYPG-6-31G_dp-CH-Scan-d09-49-n800
 OpenBabel11261919433D

 22 21  0  0  0  0  0  0  0  0999 V2000
   -0.8241    1.0379   -1.6121 C   0  0  0  0  0  0  0  0  0  0  0  0
   -1.7062    1.3913   -2.6485 N   0  0  0  0  0  0  0  0  0  0  0  0
   -2.3320    1.6907   -3.5230 N   0  0  0  0  0  0  0  0  0  0  0  0
    0.5042    1.2440   -1.9830 C   0  0  0  0  0  0  0  0  0  0  0  0
    1.3639    0.8558   -0.9104 C   0  0  0  0  0  0  0  0  0  0  0  0
    0.8689    0.3404    0.2785 C   0  0  0  0  0  0  0  0  0  0  0  0
    1.8200   -0.0591    1.3493 N   0  0  0  0  0  0  0  0  0  0  0  0
    3.0204    0.0436    1.1153 O   0  0  0  0  0  0  0  0  0  0  0  0
    1.3438   -0.4658    2.4096 O   0  0  0  0  0  0  0  0  0  0  0  0
   -0.5072    0.1743    0.5561 C   0  0  0  0  0  0  0  0  0  0  0  0
   -1.4075    0.5379   -0.4184 C   0  0  0  0  0  0  0  0  0  0  0  0
   -1.9326    4.9756   -0.4602 H   0  0  0  0  0  0  0  0  0  0  0  0
    2.4421    0.9547   -1.0055 H   0  0  0  0  0  0  0  0  0  0  0  0
   -0.8172   -0.2239    1.5126 H   0  0  0  0  0  0  0  0  0  0  0  0
   -2.4810    0.4591   -0.2773 H   0  0  0  0  0  0  0  0  0  0  0  0
   -2.7819    5.1448   -0.0170 O   0  0  0  0  0  0  0  0  0  0  0  0
   -3.5960    4.1201   -0.2732 C   0  0  0  0  0  0  0  0  0  0  0  0
   -3.3360    3.1498   -0.9414 O   0  0  0  0  0  0  0  0  0  0  0  0
   -4.9652    4.3436    0.4060 C   0  0  0  0  0  0  0  0  0  0  0  0
   -5.7522    3.2854    0.2061 F   0  0  0  0  0  0  0  0  0  0  0  0
   -4.8062    4.5267    1.7258 F   0  0  0  0  0  0  0  0  0  0  0  0
   -5.5575    5.4322   -0.1107 F   0  0  0  0  0  0  0  0  0  0  0  0
  1 11  1  0  0  0  0
  2  1  1  0  0  0  0
  3  2  1  0  0  0  0
  4  1  2  0  0  0  0
  4  5  1  0  0  0  0
  5  6  2  0  0  0  0
  6 10  1  0  0  0  0
  6  7  1  0  0  0  0
  7  9  2  0  0  0  0
  8  7  2  0  0  0  0
 10 14  1  0  0  0  0
 11 15  1  0  0  0  0
 11 10  2  0  0  0  0
 12 16  1  0  0  0  0
 13  5  1  0  0  0  0
 17 16  1  0  0  0  0
 17 19  1  0  0  0  0
 18 17  2  0  0  0  0
 19 21  1  0  0  0  0
 20 19  1  0  0  0  0
 22 19  1  0  0  0  0
M  RAD  3   2   2   3   3   4   2
M  END
