Coordinates from ORCA-job 4-NO2PhN2+~CF3COO-_B3LYPG-6-31G_dp-CH-Scan-d09-49-n800
 OpenBabel11261919433D

 22 21  0  0  0  0  0  0  0  0999 V2000
   -1.1362    0.4233   -0.4872 C   0  0  0  0  0  0  0  0  0  0  0  0
   -2.4575    0.7323   -0.8600 N   0  0  0  0  0  0  0  0  0  0  0  0
   -3.4931    1.0412   -1.1405 N   0  0  0  0  0  0  0  0  0  0  0  0
   -0.4068    1.5572   -0.1264 C   0  0  0  0  0  0  0  0  0  0  0  0
    0.9190    1.1723    0.2400 C   0  0  0  0  0  0  0  0  0  0  0  0
    1.3371   -0.1497    0.2191 C   0  0  0  0  0  0  0  0  0  0  0  0
    2.7308   -0.4781    0.6204 N   0  0  0  0  0  0  0  0  0  0  0  0
    3.4599    0.4488    0.9608 O   0  0  0  0  0  0  0  0  0  0  0  0
    3.0672   -1.6617    0.5870 O   0  0  0  0  0  0  0  0  0  0  0  0
    0.5141   -1.2320   -0.1650 C   0  0  0  0  0  0  0  0  0  0  0  0
   -0.7796   -0.9511   -0.5377 C   0  0  0  0  0  0  0  0  0  0  0  0
   -2.2854    5.3213    0.0148 H   0  0  0  0  0  0  0  0  0  0  0  0
    1.6429    1.9202    0.5513 H   0  0  0  0  0  0  0  0  0  0  0  0
    0.9114   -2.2380   -0.1582 H   0  0  0  0  0  0  0  0  0  0  0  0
   -1.4713   -1.7294   -0.8471 H   0  0  0  0  0  0  0  0  0  0  0  0
   -3.0996    5.8491   -0.0542 O   0  0  0  0  0  0  0  0  0  0  0  0
   -4.0870    5.0359   -0.4376 C   0  0  0  0  0  0  0  0  0  0  0  0
   -3.9988    3.8564   -0.6649 O   0  0  0  0  0  0  0  0  0  0  0  0
   -5.4066    5.8291   -0.5579 C   0  0  0  0  0  0  0  0  0  0  0  0
   -6.3955    5.0205   -0.9431 F   0  0  0  0  0  0  0  0  0  0  0  0
   -5.7295    6.3766    0.6260 F   0  0  0  0  0  0  0  0  0  0  0  0
   -5.2749    6.8152   -1.4614 F   0  0  0  0  0  0  0  0  0  0  0  0
  1  4  1  0  0  0  0
  2  1  1  0  0  0  0
  3  2  1  0  0  0  0
  4  5  2  0  0  0  0
  5 13  1  0  0  0  0
  6  5  1  0  0  0  0
  6  7  1  0  0  0  0
  7  8  2  0  0  0  0
  9  7  2  0  0  0  0
 10 14  1  0  0  0  0
 10  6  2  0  0  0  0
 11  1  2  0  0  0  0
 11 10  1  0  0  0  0
 15 11  1  0  0  0  0
 16 12  1  0  0  0  0
 17 16  1  0  0  0  0
 18 17  2  0  0  0  0
 19 17  1  0  0  0  0
 19 21  1  0  0  0  0
 20 19  1  0  0  0  0
 22 19  1  0  0  0  0
M  RAD  3   2   2   3   3   4   2
M  END
