Coordinates from ORCA-job 4-NO2PhN2+~CF3COO-_B3LYPG-6-31G_dp-CH-Scan-d09-49-n800
 OpenBabel11261919433D

 22 21  0  0  0  0  0  0  0  0999 V2000
   -1.6570    0.4932   -0.4703 C   0  0  0  0  0  0  0  0  0  0  0  0
   -3.0149    0.4930   -0.8133 N   0  0  0  0  0  0  0  0  0  0  0  0
   -4.0940    0.5968   -1.0711 N   0  0  0  0  0  0  0  0  0  0  0  0
   -1.1570    1.7454   -0.0961 C   0  0  0  0  0  0  0  0  0  0  0  0
    0.2188    1.6710    0.2369 C   0  0  0  0  0  0  0  0  0  0  0  0
    0.9184    0.4734    0.1767 C   0  0  0  0  0  0  0  0  0  0  0  0
    2.3609    0.4601    0.5382 N   0  0  0  0  0  0  0  0  0  0  0  0
    2.8683    1.5216    0.8834 O   0  0  0  0  0  0  0  0  0  0  0  0
    2.9487   -0.6175    0.4665 O   0  0  0  0  0  0  0  0  0  0  0  0
    0.3429   -0.7506   -0.2112 C   0  0  0  0  0  0  0  0  0  0  0  0
   -0.9929   -0.7552   -0.5490 C   0  0  0  0  0  0  0  0  0  0  0  0
   -2.0233    3.2317   -0.0483 H   0  0  0  0  0  0  0  0  0  0  0  0
    0.7568    2.5603    0.5492 H   0  0  0  0  0  0  0  0  0  0  0  0
    0.9487   -1.6466   -0.2368 H   0  0  0  0  0  0  0  0  0  0  0  0
   -1.5021   -1.6624   -0.8581 H   0  0  0  0  0  0  0  0  0  0  0  0
   -2.4760    4.1850   -0.0039 O   0  0  0  0  0  0  0  0  0  0  0  0
   -3.6904    4.1617   -0.4791 C   0  0  0  0  0  0  0  0  0  0  0  0
   -4.3149    3.2095   -0.9144 O   0  0  0  0  0  0  0  0  0  0  0  0
   -4.3281    5.5713   -0.4408 C   0  0  0  0  0  0  0  0  0  0  0  0
   -5.5766    5.5458   -0.9213 F   0  0  0  0  0  0  0  0  0  0  0  0
   -4.3693    6.0370    0.8224 F   0  0  0  0  0  0  0  0  0  0  0  0
   -3.6066    6.4348   -1.1812 F   0  0  0  0  0  0  0  0  0  0  0  0
  1  4  1  0  0  0  0
  2  1  1  0  0  0  0
  3  2  1  0  0  0  0
  4  5  2  0  0  0  0
  5 13  1  0  0  0  0
  6  5  1  0  0  0  0
  6  7  1  0  0  0  0
  7  8  2  0  0  0  0
  9  7  2  0  0  0  0
 10  6  2  0  0  0  0
 11  1  2  0  0  0  0
 11 10  1  0  0  0  0
 12 16  1  0  0  0  0
 14 10  1  0  0  0  0
 15 11  1  0  0  0  0
 17 19  1  0  0  0  0
 17 16  1  0  0  0  0
 18 17  2  0  0  0  0
 19 21  1  0  0  0  0
 20 19  1  0  0  0  0
 22 19  1  0  0  0  0
M  RAD  3   2   2   3   3   4   2
M  END
