Coordinates from ORCA-job 4-NO2PhN2+~CF3COO-_B3LYPG-6-31G_dp-CH-Scan-d09-49-n800
 OpenBabel11261919433D

 22 21  0  0  0  0  0  0  0  0999 V2000
   -1.4993    0.4506   -0.4554 C   0  0  0  0  0  0  0  0  0  0  0  0
   -2.8556    0.5282   -0.7992 N   0  0  0  0  0  0  0  0  0  0  0  0
   -3.9328    0.6506   -1.0601 N   0  0  0  0  0  0  0  0  0  0  0  0
   -0.9459    1.6753   -0.0669 C   0  0  0  0  0  0  0  0  0  0  0  0
    0.4280    1.5152    0.2665 C   0  0  0  0  0  0  0  0  0  0  0  0
    1.0622    0.2837    0.1911 C   0  0  0  0  0  0  0  0  0  0  0  0
    2.5013    0.1861    0.5535 N   0  0  0  0  0  0  0  0  0  0  0  0
    3.0689    1.2131    0.9107 O   0  0  0  0  0  0  0  0  0  0  0  0
    3.0305   -0.9213    0.4697 O   0  0  0  0  0  0  0  0  0  0  0  0
    0.4235   -0.9062   -0.2136 C   0  0  0  0  0  0  0  0  0  0  0  0
   -0.9084   -0.8363   -0.5526 C   0  0  0  0  0  0  0  0  0  0  0  0
   -2.1387    3.7764   -0.0055 H   0  0  0  0  0  0  0  0  0  0  0  0
    1.0182    2.3661    0.5922 H   0  0  0  0  0  0  0  0  0  0  0  0
    0.9828   -1.8316   -0.2493 H   0  0  0  0  0  0  0  0  0  0  0  0
   -1.4652   -1.7113   -0.8737 H   0  0  0  0  0  0  0  0  0  0  0  0
   -2.6417    4.6257   -0.0074 O   0  0  0  0  0  0  0  0  0  0  0  0
   -3.8604    4.4103   -0.4728 C   0  0  0  0  0  0  0  0  0  0  0  0
   -4.3341    3.3596   -0.8420 O   0  0  0  0  0  0  0  0  0  0  0  0
   -4.6641    5.7298   -0.4972 C   0  0  0  0  0  0  0  0  0  0  0  0
   -5.9040    5.5134   -0.9446 F   0  0  0  0  0  0  0  0  0  0  0  0
   -4.7385    6.2565    0.7380 F   0  0  0  0  0  0  0  0  0  0  0  0
   -4.0660    6.6254   -1.3032 F   0  0  0  0  0  0  0  0  0  0  0  0
  1  4  1  0  0  0  0
  2  1  1  0  0  0  0
  3  2  1  0  0  0  0
  4  5  2  0  0  0  0
  5 13  1  0  0  0  0
  6  5  1  0  0  0  0
  6  7  1  0  0  0  0
  7  8  2  0  0  0  0
  9  7  2  0  0  0  0
 10  6  2  0  0  0  0
 11  1  2  0  0  0  0
 11 10  1  0  0  0  0
 14 10  1  0  0  0  0
 15 11  1  0  0  0  0
 16 12  1  0  0  0  0
 17 16  1  0  0  0  0
 18 17  2  0  0  0  0
 19 17  1  0  0  0  0
 19 21  1  0  0  0  0
 20 19  1  0  0  0  0
 22 19  1  0  0  0  0
M  RAD  3   2   2   3   3   4   2
M  END
