Coordinates from ORCA-job 4-NO2PhN2+~CF3COO-_B3LYPG-6-31G_dp-CH-Scan-d09-49-n800
 OpenBabel11261919433D

 22 21  0  0  0  0  0  0  0  0999 V2000
   -1.6127    0.4800   -0.4666 C   0  0  0  0  0  0  0  0  0  0  0  0
   -2.9698    0.4975   -0.8117 N   0  0  0  0  0  0  0  0  0  0  0  0
   -4.0490    0.5921   -1.0731 N   0  0  0  0  0  0  0  0  0  0  0  0
   -1.1007    1.7263   -0.0873 C   0  0  0  0  0  0  0  0  0  0  0  0
    0.2758    1.6270    0.2466 C   0  0  0  0  0  0  0  0  0  0  0  0
    0.9587    0.4205    0.1816 C   0  0  0  0  0  0  0  0  0  0  0  0
    2.4006    0.3848    0.5439 N   0  0  0  0  0  0  0  0  0  0  0  0
    2.9245    1.4374    0.8923 O   0  0  0  0  0  0  0  0  0  0  0  0
    2.9735   -0.7008    0.4677 O   0  0  0  0  0  0  0  0  0  0  0  0
    0.3670   -0.7950   -0.2122 C   0  0  0  0  0  0  0  0  0  0  0  0
   -0.9677   -0.7797   -0.5510 C   0  0  0  0  0  0  0  0  0  0  0  0
   -2.0664    3.3923   -0.0384 H   0  0  0  0  0  0  0  0  0  0  0  0
    0.8286    2.5054    0.5639 H   0  0  0  0  0  0  0  0  0  0  0  0
    0.9609   -1.6989   -0.2407 H   0  0  0  0  0  0  0  0  0  0  0  0
   -1.4894   -1.6785   -0.8643 H   0  0  0  0  0  0  0  0  0  0  0  0
   -2.5194    4.3055   -0.0087 O   0  0  0  0  0  0  0  0  0  0  0  0
   -3.7420    4.2311   -0.4777 C   0  0  0  0  0  0  0  0  0  0  0  0
   -4.3294    3.2490   -0.8868 O   0  0  0  0  0  0  0  0  0  0  0  0
   -4.4196    5.6211   -0.4563 C   0  0  0  0  0  0  0  0  0  0  0  0
   -5.6700    5.5462   -0.9240 F   0  0  0  0  0  0  0  0  0  0  0  0
   -4.4622    6.1050    0.7992 F   0  0  0  0  0  0  0  0  0  0  0  0
   -3.7307    6.4910   -1.2183 F   0  0  0  0  0  0  0  0  0  0  0  0
  1  4  1  0  0  0  0
  2  1  1  0  0  0  0
  3  2  1  0  0  0  0
  4  5  2  0  0  0  0
  5 13  1  0  0  0  0
  6  5  1  0  0  0  0
  6  7  1  0  0  0  0
  7  8  2  0  0  0  0
  9  7  2  0  0  0  0
 10  6  2  0  0  0  0
 11  1  2  0  0  0  0
 11 10  1  0  0  0  0
 12 16  1  0  0  0  0
 14 10  1  0  0  0  0
 15 11  1  0  0  0  0
 17 19  1  0  0  0  0
 17 16  1  0  0  0  0
 18 17  2  0  0  0  0
 19 21  1  0  0  0  0
 20 19  1  0  0  0  0
 22 19  1  0  0  0  0
M  RAD  3   2   2   3   3   4   2
M  END
