Coordinates from ORCA-job 4-NO2PhN2+~CF3COO-_B3LYPG-6-31G_dp-CH-Scan-d09-49-n800
 OpenBabel11261919433D

 22 21  0  0  0  0  0  0  0  0999 V2000
   -0.8248    1.0374   -1.6124 C   0  0  0  0  0  0  0  0  0  0  0  0
   -1.7069    1.3904   -2.6490 N   0  0  0  0  0  0  0  0  0  0  0  0
   -2.3317    1.6911   -3.5238 N   0  0  0  0  0  0  0  0  0  0  0  0
    0.5033    1.2451   -1.9828 C   0  0  0  0  0  0  0  0  0  0  0  0
    1.3631    0.8570   -0.9102 C   0  0  0  0  0  0  0  0  0  0  0  0
    0.8683    0.3405    0.2783 C   0  0  0  0  0  0  0  0  0  0  0  0
    1.8194   -0.0587    1.3491 N   0  0  0  0  0  0  0  0  0  0  0  0
    3.0198    0.0487    1.1168 O   0  0  0  0  0  0  0  0  0  0  0  0
    1.3434   -0.4635    2.4102 O   0  0  0  0  0  0  0  0  0  0  0  0
   -0.5077    0.1729    0.5554 C   0  0  0  0  0  0  0  0  0  0  0  0
   -1.4080    0.5361   -0.4192 C   0  0  0  0  0  0  0  0  0  0  0  0
   -1.9308    4.9722   -0.4603 H   0  0  0  0  0  0  0  0  0  0  0  0
    2.4412    0.9570   -1.0049 H   0  0  0  0  0  0  0  0  0  0  0  0
   -0.8176   -0.2263    1.5115 H   0  0  0  0  0  0  0  0  0  0  0  0
   -2.4815    0.4560   -0.2785 H   0  0  0  0  0  0  0  0  0  0  0  0
   -2.7798    5.1427   -0.0167 O   0  0  0  0  0  0  0  0  0  0  0  0
   -3.5954    4.1193   -0.2729 C   0  0  0  0  0  0  0  0  0  0  0  0
   -3.3363    3.1493   -0.9415 O   0  0  0  0  0  0  0  0  0  0  0  0
   -4.9643    4.3443    0.4064 C   0  0  0  0  0  0  0  0  0  0  0  0
   -5.7526    3.2870    0.2065 F   0  0  0  0  0  0  0  0  0  0  0  0
   -4.8051    4.5272    1.7262 F   0  0  0  0  0  0  0  0  0  0  0  0
   -5.5555    5.4336   -0.1102 F   0  0  0  0  0  0  0  0  0  0  0  0
  1 11  1  0  0  0  0
  2  1  1  0  0  0  0
  3  2  1  0  0  0  0
  4  1  2  0  0  0  0
  4  5  1  0  0  0  0
  5  6  2  0  0  0  0
  6 10  1  0  0  0  0
  6  7  1  0  0  0  0
  7  9  2  0  0  0  0
  8  7  2  0  0  0  0
 10 14  1  0  0  0  0
 11 15  1  0  0  0  0
 11 10  2  0  0  0  0
 12 16  1  0  0  0  0
 13  5  1  0  0  0  0
 17 16  1  0  0  0  0
 17 19  1  0  0  0  0
 18 17  2  0  0  0  0
 19 21  1  0  0  0  0
 20 19  1  0  0  0  0
 22 19  1  0  0  0  0
M  RAD  3   2   2   3   3   4   2
M  END
