Coordinates from ORCA-job 4-NO2PhN2+~CF3COO-_B3LYPG-6-31G_dp-CH-Scan-d09-49-n800
 OpenBabel11261919433D

 22 21  0  0  0  0  0  0  0  0999 V2000
   -1.6868    0.5161   -0.4666 C   0  0  0  0  0  0  0  0  0  0  0  0
   -3.0491    0.5276   -0.8023 N   0  0  0  0  0  0  0  0  0  0  0  0
   -4.1163    0.7566   -1.0404 N   0  0  0  0  0  0  0  0  0  0  0  0
   -1.1751    1.7593   -0.0884 C   0  0  0  0  0  0  0  0  0  0  0  0
    0.1951    1.7077    0.2402 C   0  0  0  0  0  0  0  0  0  0  0  0
    0.8994    0.5113    0.1739 C   0  0  0  0  0  0  0  0  0  0  0  0
    2.3425    0.5054    0.5310 N   0  0  0  0  0  0  0  0  0  0  0  0
    2.8426    1.5696    0.8777 O   0  0  0  0  0  0  0  0  0  0  0  0
    2.9354   -0.5685    0.4540 O   0  0  0  0  0  0  0  0  0  0  0  0
    0.3264   -0.7105   -0.2147 C   0  0  0  0  0  0  0  0  0  0  0  0
   -1.0135   -0.7213   -0.5479 C   0  0  0  0  0  0  0  0  0  0  0  0
   -1.9523    3.0010   -0.0397 H   0  0  0  0  0  0  0  0  0  0  0  0
    0.7218    2.6035    0.5511 H   0  0  0  0  0  0  0  0  0  0  0  0
    0.9353   -1.6044   -0.2453 H   0  0  0  0  0  0  0  0  0  0  0  0
   -1.5189   -1.6300   -0.8576 H   0  0  0  0  0  0  0  0  0  0  0  0
   -2.4878    4.0574    0.0235 O   0  0  0  0  0  0  0  0  0  0  0  0
   -3.6701    4.0904   -0.4789 C   0  0  0  0  0  0  0  0  0  0  0  0
   -4.3411    3.1786   -0.9626 O   0  0  0  0  0  0  0  0  0  0  0  0
   -4.2740    5.5188   -0.4426 C   0  0  0  0  0  0  0  0  0  0  0  0
   -5.5212    5.5410   -0.9311 F   0  0  0  0  0  0  0  0  0  0  0  0
   -4.3104    5.9859    0.8212 F   0  0  0  0  0  0  0  0  0  0  0  0
   -3.5214    6.3637   -1.1761 F   0  0  0  0  0  0  0  0  0  0  0  0
  1  4  1  0  0  0  0
  2  1  1  0  0  0  0
  3  2  1  0  0  0  0
  4  5  2  0  0  0  0
  5 13  1  0  0  0  0
  6  5  1  0  0  0  0
  6  7  1  0  0  0  0
  7  8  2  0  0  0  0
  9  7  2  0  0  0  0
 10  6  2  0  0  0  0
 11  1  2  0  0  0  0
 11 10  1  0  0  0  0
 12 16  1  0  0  0  0
 14 10  1  0  0  0  0
 15 11  1  0  0  0  0
 17 19  1  0  0  0  0
 17 16  1  0  0  0  0
 18 17  2  0  0  0  0
 19 21  1  0  0  0  0
 20 19  1  0  0  0  0
 22 19  1  0  0  0  0
M  RAD  3   2   2   3   3   4   2
M  END
