Coordinates from ORCA-job 4-NO2PhN2+~CF3COO-_B3LYPG-6-31G_dp-CH-Scan-d09-49-n800
 OpenBabel11261919433D

 22 22  0  0  0  0  0  0  0  0999 V2000
   -1.7077    0.7268   -0.3544 C   0  0  0  0  0  0  0  0  0  0  0  0
   -3.0886    0.6339   -0.6454 N   0  0  0  0  0  0  0  0  0  0  0  0
   -4.0044    1.3759   -0.7740 N   0  0  0  0  0  0  0  0  0  0  0  0
   -1.0012    1.9309   -0.1629 C   0  0  0  0  0  0  0  0  0  0  0  0
    0.3635    1.8565    0.1030 C   0  0  0  0  0  0  0  0  0  0  0  0
    0.9853    0.6122    0.1765 C   0  0  0  0  0  0  0  0  0  0  0  0
    2.4357    0.5573    0.4628 N   0  0  0  0  0  0  0  0  0  0  0  0
    3.0206    1.6254    0.6191 O   0  0  0  0  0  0  0  0  0  0  0  0
    2.9548   -0.5541    0.5249 O   0  0  0  0  0  0  0  0  0  0  0  0
    0.2959   -0.5833   -0.0101 C   0  0  0  0  0  0  0  0  0  0  0  0
   -1.0649   -0.5189   -0.2810 C   0  0  0  0  0  0  0  0  0  0  0  0
   -1.4378    2.7618   -0.2148 H   0  0  0  0  0  0  0  0  0  0  0  0
    0.9499    2.7539    0.2563 H   0  0  0  0  0  0  0  0  0  0  0  0
    0.8246   -1.5256    0.0558 H   0  0  0  0  0  0  0  0  0  0  0  0
   -1.6474   -1.4192   -0.4394 H   0  0  0  0  0  0  0  0  0  0  0  0
   -3.5459    2.9645   -0.4759 O   0  0  0  0  0  0  0  0  0  0  0  0
   -4.4644    3.8341   -0.8788 C   0  0  0  0  0  0  0  0  0  0  0  0
   -5.4749    3.6431   -1.5049 O   0  0  0  0  0  0  0  0  0  0  0  0
   -4.0544    5.2510   -0.3881 C   0  0  0  0  0  0  0  0  0  0  0  0
   -4.7501    6.1928   -1.0273 F   0  0  0  0  0  0  0  0  0  0  0  0
   -4.2893    5.3639    0.9332 F   0  0  0  0  0  0  0  0  0  0  0  0
   -2.7389    5.4764   -0.5964 F   0  0  0  0  0  0  0  0  0  0  0  0
  1 11  2  0  0  0  0
  1  4  1  0  0  0  0
  2  1  1  0  0  0  0
  3  2  1  0  0  0  0
  3 16  1  0  0  0  0
  4  5  2  0  0  0  0
  5  6  1  0  0  0  0
  5 13  1  0  0  0  0
  6  7  1  0  0  0  0
  7  9  2  0  0  0  0
  7  8  2  0  0  0  0
 10 14  1  0  0  0  0
 10  6  2  0  0  0  0
 11 10  1  0  0  0  0
 12  4  1  0  0  0  0
 15 11  1  0  0  0  0
 17 16  1  0  0  0  0
 17 19  1  0  0  0  0
 18 17  2  0  0  0  0
 19 21  1  0  0  0  0
 20 19  1  0  0  0  0
 22 19  1  0  0  0  0
M  RAD  2   2   2   3   2
M  END
