Coordinates from ORCA-job 4-NO2PhN2+~CF3COO-_B3LYPG-6-31G_dp-CH-Scan-d09-49-n800
 OpenBabel11261919433D

 22 21  0  0  0  0  0  0  0  0999 V2000
   -0.8327    1.0342   -1.6150 C   0  0  0  0  0  0  0  0  0  0  0  0
   -1.7145    1.3817   -2.6537 N   0  0  0  0  0  0  0  0  0  0  0  0
   -2.3428    1.6748   -3.5285 N   0  0  0  0  0  0  0  0  0  0  0  0
    0.4942    1.2666   -1.9758 C   0  0  0  0  0  0  0  0  0  0  0  0
    1.3538    0.8841   -0.9011 C   0  0  0  0  0  0  0  0  0  0  0  0
    0.8605    0.3501    0.2804 C   0  0  0  0  0  0  0  0  0  0  0  0
    1.8118   -0.0418    1.3538 N   0  0  0  0  0  0  0  0  0  0  0  0
    3.0116    0.0852    1.1287 O   0  0  0  0  0  0  0  0  0  0  0  0
    1.3364   -0.4670    2.4071 O   0  0  0  0  0  0  0  0  0  0  0  0
   -0.5141    0.1578    0.5478 C   0  0  0  0  0  0  0  0  0  0  0  0
   -1.4145    0.5139   -0.4293 C   0  0  0  0  0  0  0  0  0  0  0  0
   -1.9123    4.9473   -0.4655 H   0  0  0  0  0  0  0  0  0  0  0  0
    2.4307    1.0024   -0.9885 H   0  0  0  0  0  0  0  0  0  0  0  0
   -0.8231   -0.2538    1.4989 H   0  0  0  0  0  0  0  0  0  0  0  0
   -2.4873    0.4147   -0.2956 H   0  0  0  0  0  0  0  0  0  0  0  0
   -2.7578    5.1255   -0.0185 O   0  0  0  0  0  0  0  0  0  0  0  0
   -3.5855    4.1114   -0.2735 C   0  0  0  0  0  0  0  0  0  0  0  0
   -3.3405    3.1391   -0.9444 O   0  0  0  0  0  0  0  0  0  0  0  0
   -4.9493    4.3511    0.4109 C   0  0  0  0  0  0  0  0  0  0  0  0
   -5.7482    3.3005    0.2178 F   0  0  0  0  0  0  0  0  0  0  0  0
   -4.7832    4.5371    1.7294 F   0  0  0  0  0  0  0  0  0  0  0  0
   -5.5326    5.4441   -0.1071 F   0  0  0  0  0  0  0  0  0  0  0  0
  1 11  1  0  0  0  0
  2  1  1  0  0  0  0
  3  2  1  0  0  0  0
  4  1  2  0  0  0  0
  4  5  1  0  0  0  0
  5  6  2  0  0  0  0
  6 10  1  0  0  0  0
  6  7  1  0  0  0  0
  7  9  2  0  0  0  0
  8  7  2  0  0  0  0
 10 14  1  0  0  0  0
 11 15  1  0  0  0  0
 11 10  2  0  0  0  0
 12 16  1  0  0  0  0
 13  5  1  0  0  0  0
 17 16  1  0  0  0  0
 17 19  1  0  0  0  0
 18 17  2  0  0  0  0
 19 21  1  0  0  0  0
 20 19  1  0  0  0  0
 22 19  1  0  0  0  0
M  RAD  3   2   2   3   3   4   2
M  END
