Coordinates from ORCA-job 4-NO2PhN2+~CF3COO-_B3LYPG-6-31G_dp-CH-Scan-d09-49-n800
 OpenBabel11261919433D

 22 21  0  0  0  0  0  0  0  0999 V2000
   -1.2655    0.4016   -0.4234 C   0  0  0  0  0  0  0  0  0  0  0  0
   -2.6149    0.6190   -0.7518 N   0  0  0  0  0  0  0  0  0  0  0  0
   -3.6789    0.8525   -0.9956 N   0  0  0  0  0  0  0  0  0  0  0  0
   -0.6113    1.5710   -0.0294 C   0  0  0  0  0  0  0  0  0  0  0  0
    0.7479    1.2751    0.2893 C   0  0  0  0  0  0  0  0  0  0  0  0
    1.2646   -0.0086    0.1978 C   0  0  0  0  0  0  0  0  0  0  0  0
    2.6900   -0.2450    0.5497 N   0  0  0  0  0  0  0  0  0  0  0  0
    3.3565    0.7211    0.9085 O   0  0  0  0  0  0  0  0  0  0  0  0
    3.1137   -1.3966    0.4559 O   0  0  0  0  0  0  0  0  0  0  0  0
    0.5161   -1.1331   -0.2141 C   0  0  0  0  0  0  0  0  0  0  0  0
   -0.8052   -0.9370   -0.5420 C   0  0  0  0  0  0  0  0  0  0  0  0
   -2.2550    4.7180    0.1142 H   0  0  0  0  0  0  0  0  0  0  0  0
    1.4204    2.0620    0.6182 H   0  0  0  0  0  0  0  0  0  0  0  0
    0.9885   -2.1051   -0.2621 H   0  0  0  0  0  0  0  0  0  0  0  0
   -1.4441   -1.7526   -0.8678 H   0  0  0  0  0  0  0  0  0  0  0  0
   -2.9401    5.4027    0.0170 O   0  0  0  0  0  0  0  0  0  0  0  0
   -4.0485    4.8203   -0.4412 C   0  0  0  0  0  0  0  0  0  0  0  0
   -4.1972    3.6523   -0.6988 O   0  0  0  0  0  0  0  0  0  0  0  0
   -5.1687    5.8714   -0.6026 C   0  0  0  0  0  0  0  0  0  0  0  0
   -6.2655    5.3028   -1.1067 F   0  0  0  0  0  0  0  0  0  0  0  0
   -5.4701    6.4121    0.5907 F   0  0  0  0  0  0  0  0  0  0  0  0
   -4.7723    6.8552   -1.4274 F   0  0  0  0  0  0  0  0  0  0  0  0
  1  4  1  0  0  0  0
  2  1  1  0  0  0  0
  3  2  1  0  0  0  0
  4  5  2  0  0  0  0
  5 13  1  0  0  0  0
  6  5  1  0  0  0  0
  6  7  1  0  0  0  0
  7  8  2  0  0  0  0
  9  7  2  0  0  0  0
 10  6  2  0  0  0  0
 11  1  2  0  0  0  0
 11 10  1  0  0  0  0
 14 10  1  0  0  0  0
 15 11  1  0  0  0  0
 16 12  1  0  0  0  0
 17 16  1  0  0  0  0
 18 17  2  0  0  0  0
 19 17  1  0  0  0  0
 19 21  1  0  0  0  0
 20 19  1  0  0  0  0
 22 19  1  0  0  0  0
M  RAD  3   2   2   3   3   4   2
M  END
