Coordinates from ORCA-job 4-NO2PhN2+~CF3COO-_B3LYPG-6-31G_dp-CH-Scan-d09-49-n800
 OpenBabel11261919433D

 22 21  0  0  0  0  0  0  0  0999 V2000
   -1.4647    0.4450   -0.4534 C   0  0  0  0  0  0  0  0  0  0  0  0
   -2.8203    0.5419   -0.7975 N   0  0  0  0  0  0  0  0  0  0  0  0
   -3.8971    0.6757   -1.0551 N   0  0  0  0  0  0  0  0  0  0  0  0
   -0.8971    1.6620   -0.0623 C   0  0  0  0  0  0  0  0  0  0  0  0
    0.4749    1.4816    0.2713 C   0  0  0  0  0  0  0  0  0  0  0  0
    1.0924    0.2419    0.1937 C   0  0  0  0  0  0  0  0  0  0  0  0
    2.5297    0.1235    0.5570 N   0  0  0  0  0  0  0  0  0  0  0  0
    3.1109    1.1413    0.9190 O   0  0  0  0  0  0  0  0  0  0  0  0
    3.0433   -0.9913    0.4737 O   0  0  0  0  0  0  0  0  0  0  0  0
    0.4382   -0.9390   -0.2142 C   0  0  0  0  0  0  0  0  0  0  0  0
   -0.8923   -0.8503   -0.5538 C   0  0  0  0  0  0  0  0  0  0  0  0
   -2.1505    3.9014    0.0012 H   0  0  0  0  0  0  0  0  0  0  0  0
    1.0772    2.3232    0.5993 H   0  0  0  0  0  0  0  0  0  0  0  0
    0.9853   -1.8715   -0.2515 H   0  0  0  0  0  0  0  0  0  0  0  0
   -1.4609   -1.7169   -0.8772 H   0  0  0  0  0  0  0  0  0  0  0  0
   -2.6769    4.7313   -0.0106 O   0  0  0  0  0  0  0  0  0  0  0  0
   -3.8902    4.4659   -0.4705 C   0  0  0  0  0  0  0  0  0  0  0  0
   -4.3237    3.3940   -0.8242 O   0  0  0  0  0  0  0  0  0  0  0  0
   -4.7400    5.7556   -0.5087 C   0  0  0  0  0  0  0  0  0  0  0  0
   -5.9731    5.4875   -0.9459 F   0  0  0  0  0  0  0  0  0  0  0  0
   -4.8263    6.2968    0.7191 F   0  0  0  0  0  0  0  0  0  0  0  0
   -4.1783    6.6597   -1.3311 F   0  0  0  0  0  0  0  0  0  0  0  0
  1  4  1  0  0  0  0
  2  1  1  0  0  0  0
  3  2  1  0  0  0  0
  4  5  2  0  0  0  0
  5 13  1  0  0  0  0
  6  5  1  0  0  0  0
  6  7  1  0  0  0  0
  7  8  2  0  0  0  0
  9  7  2  0  0  0  0
 10  6  2  0  0  0  0
 11  1  2  0  0  0  0
 11 10  1  0  0  0  0
 14 10  1  0  0  0  0
 15 11  1  0  0  0  0
 16 12  1  0  0  0  0
 17 16  1  0  0  0  0
 18 17  2  0  0  0  0
 19 17  1  0  0  0  0
 19 21  1  0  0  0  0
 20 19  1  0  0  0  0
 22 19  1  0  0  0  0
M  RAD  3   2   2   3   3   4   2
M  END
