Coordinates from ORCA-job 4-NO2PhN2+~CF3COO-_B3LYPG-6-31G_dp-CH-Scan-d09-49-n800
 OpenBabel11261919433D

 22 21  0  0  0  0  0  0  0  0999 V2000
   -0.8538    1.0284   -1.6208 C   0  0  0  0  0  0  0  0  0  0  0  0
   -1.7360    1.3611   -2.6640 N   0  0  0  0  0  0  0  0  0  0  0  0
   -2.3622    1.6491   -3.5420 N   0  0  0  0  0  0  0  0  0  0  0  0
    0.4681    1.3119   -1.9623 C   0  0  0  0  0  0  0  0  0  0  0  0
    1.3282    0.9418   -0.8835 C   0  0  0  0  0  0  0  0  0  0  0  0
    0.8403    0.3737    0.2842 C   0  0  0  0  0  0  0  0  0  0  0  0
    1.7924   -0.0019    1.3627 N   0  0  0  0  0  0  0  0  0  0  0  0
    2.9894    0.1724    1.1548 O   0  0  0  0  0  0  0  0  0  0  0  0
    1.3205   -0.4650    2.4015 O   0  0  0  0  0  0  0  0  0  0  0  0
   -0.5299    0.1307    0.5326 C   0  0  0  0  0  0  0  0  0  0  0  0
   -1.4307    0.4709   -0.4498 C   0  0  0  0  0  0  0  0  0  0  0  0
   -1.8644    4.8771   -0.4691 H   0  0  0  0  0  0  0  0  0  0  0  0
    2.4013    1.0978   -0.9566 H   0  0  0  0  0  0  0  0  0  0  0  0
   -0.8355   -0.3051    1.4740 H   0  0  0  0  0  0  0  0  0  0  0  0
   -2.5009    0.3329   -0.3301 H   0  0  0  0  0  0  0  0  0  0  0  0
   -2.7020    5.0763   -0.0158 O   0  0  0  0  0  0  0  0  0  0  0  0
   -3.5596    4.0881   -0.2735 C   0  0  0  0  0  0  0  0  0  0  0  0
   -3.3453    3.1145   -0.9526 O   0  0  0  0  0  0  0  0  0  0  0  0
   -4.9130    4.3615    0.4188 C   0  0  0  0  0  0  0  0  0  0  0  0
   -5.7364    3.3280    0.2360 F   0  0  0  0  0  0  0  0  0  0  0  0
   -4.7350    4.5504    1.7352 F   0  0  0  0  0  0  0  0  0  0  0  0
   -5.4751    5.4646   -0.1015 F   0  0  0  0  0  0  0  0  0  0  0  0
  1 11  1  0  0  0  0
  2  1  1  0  0  0  0
  3  2  1  0  0  0  0
  4  1  2  0  0  0  0
  4  5  1  0  0  0  0
  5  6  2  0  0  0  0
  6 10  1  0  0  0  0
  6  7  1  0  0  0  0
  7  9  2  0  0  0  0
  8  7  2  0  0  0  0
 10 14  1  0  0  0  0
 11 15  1  0  0  0  0
 11 10  2  0  0  0  0
 12 16  1  0  0  0  0
 13  5  1  0  0  0  0
 17 16  1  0  0  0  0
 17 19  1  0  0  0  0
 18 17  2  0  0  0  0
 19 21  1  0  0  0  0
 20 19  1  0  0  0  0
 22 19  1  0  0  0  0
M  RAD  3   2   2   3   3   4   2
M  END
