Coordinates from ORCA-job 4-NO2PhN2+~CF3COO-_B3LYPG-6-31G_dp-CH-Scan-d09-49-n800
 OpenBabel11261919433D

 22 21  0  0  0  0  0  0  0  0999 V2000
   -0.8547    1.0283   -1.6211 C   0  0  0  0  0  0  0  0  0  0  0  0
   -1.7370    1.3606   -2.6645 N   0  0  0  0  0  0  0  0  0  0  0  0
   -2.3629    1.6488   -3.5426 N   0  0  0  0  0  0  0  0  0  0  0  0
    0.4670    1.3131   -1.9621 C   0  0  0  0  0  0  0  0  0  0  0  0
    1.3271    0.9433   -0.8832 C   0  0  0  0  0  0  0  0  0  0  0  0
    0.8393    0.3745    0.2842 C   0  0  0  0  0  0  0  0  0  0  0  0
    1.7914   -0.0006    1.3629 N   0  0  0  0  0  0  0  0  0  0  0  0
    2.9881    0.1772    1.1564 O   0  0  0  0  0  0  0  0  0  0  0  0
    1.3196   -0.4641    2.4015 O   0  0  0  0  0  0  0  0  0  0  0  0
   -0.5307    0.1303    0.5321 C   0  0  0  0  0  0  0  0  0  0  0  0
   -1.4315    0.4699   -0.4505 C   0  0  0  0  0  0  0  0  0  0  0  0
   -1.8623    4.8739   -0.4686 H   0  0  0  0  0  0  0  0  0  0  0  0
    2.4001    1.1001   -0.9560 H   0  0  0  0  0  0  0  0  0  0  0  0
   -0.8362   -0.3060    1.4733 H   0  0  0  0  0  0  0  0  0  0  0  0
   -2.5017    0.3311   -0.3312 H   0  0  0  0  0  0  0  0  0  0  0  0
   -2.6995    5.0741   -0.0153 O   0  0  0  0  0  0  0  0  0  0  0  0
   -3.5582    4.0869   -0.2734 C   0  0  0  0  0  0  0  0  0  0  0  0
   -3.3450    3.1133   -0.9531 O   0  0  0  0  0  0  0  0  0  0  0  0
   -4.9113    4.3613    0.4191 C   0  0  0  0  0  0  0  0  0  0  0  0
   -5.7355    3.3285    0.2363 F   0  0  0  0  0  0  0  0  0  0  0  0
   -4.7329    4.5499    1.7354 F   0  0  0  0  0  0  0  0  0  0  0  0
   -5.4725    5.4648   -0.1011 F   0  0  0  0  0  0  0  0  0  0  0  0
  1 11  1  0  0  0  0
  2  1  1  0  0  0  0
  3  2  1  0  0  0  0
  4  1  2  0  0  0  0
  4  5  1  0  0  0  0
  5  6  2  0  0  0  0
  6 10  1  0  0  0  0
  6  7  1  0  0  0  0
  7  9  2  0  0  0  0
  8  7  2  0  0  0  0
 10 14  1  0  0  0  0
 11 15  1  0  0  0  0
 11 10  2  0  0  0  0
 12 16  1  0  0  0  0
 13  5  1  0  0  0  0
 17 16  1  0  0  0  0
 17 19  1  0  0  0  0
 18 17  2  0  0  0  0
 19 21  1  0  0  0  0
 20 19  1  0  0  0  0
 22 19  1  0  0  0  0
M  RAD  3   2   2   3   3   4   2
M  END
