Coordinates from ORCA-job 4-NO2PhN2+~CF3COO-_B3LYPG-6-31G_dp-CH-Scan-d09-49-n800
 OpenBabel11261919433D

 22 22  0  0  0  0  0  0  0  0999 V2000
   -1.6765    0.7210   -0.3269 C   0  0  0  0  0  0  0  0  0  0  0  0
   -3.0593    0.6564   -0.6023 N   0  0  0  0  0  0  0  0  0  0  0  0
   -3.9893    1.3704   -0.7253 N   0  0  0  0  0  0  0  0  0  0  0  0
   -0.9493    1.9092   -0.1273 C   0  0  0  0  0  0  0  0  0  0  0  0
    0.4154    1.8250    0.1216 C   0  0  0  0  0  0  0  0  0  0  0  0
    1.0209    0.5704    0.1712 C   0  0  0  0  0  0  0  0  0  0  0  0
    2.4745    0.4937    0.4404 N   0  0  0  0  0  0  0  0  0  0  0  0
    3.0736    1.5524    0.6050 O   0  0  0  0  0  0  0  0  0  0  0  0
    2.9802   -0.6248    0.4809 O   0  0  0  0  0  0  0  0  0  0  0  0
    0.3159   -0.6151   -0.0231 C   0  0  0  0  0  0  0  0  0  0  0  0
   -1.0471   -0.5337   -0.2774 C   0  0  0  0  0  0  0  0  0  0  0  0
   -1.5099    2.9639   -0.1745 H   0  0  0  0  0  0  0  0  0  0  0  0
    1.0144    2.7127    0.2799 H   0  0  0  0  0  0  0  0  0  0  0  0
    0.8351   -1.5636    0.0246 H   0  0  0  0  0  0  0  0  0  0  0  0
   -1.6403   -1.4262   -0.4407 H   0  0  0  0  0  0  0  0  0  0  0  0
   -3.5706    3.0138   -0.4128 O   0  0  0  0  0  0  0  0  0  0  0  0
   -4.4757    3.8504   -0.8920 C   0  0  0  0  0  0  0  0  0  0  0  0
   -5.4375    3.6259   -1.5839 O   0  0  0  0  0  0  0  0  0  0  0  0
   -4.1353    5.2884   -0.4069 C   0  0  0  0  0  0  0  0  0  0  0  0
   -4.8186    6.1999   -1.1017 F   0  0  0  0  0  0  0  0  0  0  0  0
   -4.4444    5.4212    0.8972 F   0  0  0  0  0  0  0  0  0  0  0  0
   -2.8158    5.5479   -0.5476 F   0  0  0  0  0  0  0  0  0  0  0  0
  1 11  2  0  0  0  0
  1  4  1  0  0  0  0
  2  1  1  0  0  0  0
  3  2  1  0  0  0  0
  3 16  1  0  0  0  0
  4  5  2  0  0  0  0
  5  6  1  0  0  0  0
  5 13  1  0  0  0  0
  6  7  1  0  0  0  0
  7  9  2  0  0  0  0
  7  8  2  0  0  0  0
 10 14  1  0  0  0  0
 10  6  2  0  0  0  0
 11 10  1  0  0  0  0
 12  4  1  0  0  0  0
 15 11  1  0  0  0  0
 17 16  1  0  0  0  0
 17 19  1  0  0  0  0
 18 17  2  0  0  0  0
 19 21  1  0  0  0  0
 20 19  1  0  0  0  0
 22 19  1  0  0  0  0
M  RAD  2   2   2   3   2
M  END
