Coordinates from ORCA-job 4-NO2PhN2+~CF3COO-_B3LYPG-6-31G_dp-CH-Scan-d09-49-n800
 OpenBabel11261919433D

 22 21  0  0  0  0  0  0  0  0999 V2000
   -0.8452    1.0310   -1.6180 C   0  0  0  0  0  0  0  0  0  0  0  0
   -1.7275    1.3697   -2.6593 N   0  0  0  0  0  0  0  0  0  0  0  0
   -2.3530    1.6621   -3.5362 N   0  0  0  0  0  0  0  0  0  0  0  0
    0.4789    1.2939   -1.9674 C   0  0  0  0  0  0  0  0  0  0  0  0
    1.3390    0.9184   -0.8905 C   0  0  0  0  0  0  0  0  0  0  0  0
    0.8487    0.3634    0.2825 C   0  0  0  0  0  0  0  0  0  0  0  0
    1.8007   -0.0193    1.3587 N   0  0  0  0  0  0  0  0  0  0  0  0
    2.9992    0.1328    1.1424 O   0  0  0  0  0  0  0  0  0  0  0  0
    1.3270   -0.4626    2.4053 O   0  0  0  0  0  0  0  0  0  0  0  0
   -0.5234    0.1411    0.5389 C   0  0  0  0  0  0  0  0  0  0  0  0
   -1.4243    0.4882   -0.4411 C   0  0  0  0  0  0  0  0  0  0  0  0
   -1.8845    4.9063   -0.4688 H   0  0  0  0  0  0  0  0  0  0  0  0
    2.4137    1.0594   -0.9694 H   0  0  0  0  0  0  0  0  0  0  0  0
   -0.8305   -0.2850    1.4842 H   0  0  0  0  0  0  0  0  0  0  0  0
   -2.4957    0.3662   -0.3156 H   0  0  0  0  0  0  0  0  0  0  0  0
   -2.7253    5.0971   -0.0180 O   0  0  0  0  0  0  0  0  0  0  0  0
   -3.5705    4.0977   -0.2737 C   0  0  0  0  0  0  0  0  0  0  0  0
   -3.3433    3.1242   -0.9491 O   0  0  0  0  0  0  0  0  0  0  0  0
   -4.9281    4.3571    0.4156 C   0  0  0  0  0  0  0  0  0  0  0  0
   -5.7411    3.3160    0.2296 F   0  0  0  0  0  0  0  0  0  0  0  0
   -4.7546    4.5458    1.7327 F   0  0  0  0  0  0  0  0  0  0  0  0
   -5.4995    5.4555   -0.1044 F   0  0  0  0  0  0  0  0  0  0  0  0
  1 11  1  0  0  0  0
  2  1  1  0  0  0  0
  3  2  1  0  0  0  0
  4  1  2  0  0  0  0
  4  5  1  0  0  0  0
  5  6  2  0  0  0  0
  6 10  1  0  0  0  0
  6  7  1  0  0  0  0
  7  9  2  0  0  0  0
  8  7  2  0  0  0  0
 10 14  1  0  0  0  0
 11 15  1  0  0  0  0
 11 10  2  0  0  0  0
 12 16  1  0  0  0  0
 13  5  1  0  0  0  0
 17 16  1  0  0  0  0
 17 19  1  0  0  0  0
 18 17  2  0  0  0  0
 19 21  1  0  0  0  0
 20 19  1  0  0  0  0
 22 19  1  0  0  0  0
M  RAD  3   2   2   3   3   4   2
M  END
