Coordinates from ORCA-job 4-NO2PhN2+~CF3COO-_B3LYPG-6-31G_dp-CH-Scan-d09-49-n800
 OpenBabel11261919433D

 22 21  0  0  0  0  0  0  0  0999 V2000
   -1.3952    0.4273   -0.4427 C   0  0  0  0  0  0  0  0  0  0  0  0
   -2.7499    0.5638   -0.7816 N   0  0  0  0  0  0  0  0  0  0  0  0
   -3.8231    0.7284   -1.0379 N   0  0  0  0  0  0  0  0  0  0  0  0
   -0.8011    1.6281   -0.0432 C   0  0  0  0  0  0  0  0  0  0  0  0
    0.5677    1.4093    0.2863 C   0  0  0  0  0  0  0  0  0  0  0  0
    1.1541    0.1555    0.1974 C   0  0  0  0  0  0  0  0  0  0  0  0
    2.5883   -0.0021    0.5580 N   0  0  0  0  0  0  0  0  0  0  0  0
    3.1963    0.9980    0.9261 O   0  0  0  0  0  0  0  0  0  0  0  0
    3.0744   -1.1284    0.4643 O   0  0  0  0  0  0  0  0  0  0  0  0
    0.4706   -1.0063   -0.2197 C   0  0  0  0  0  0  0  0  0  0  0  0
   -0.8576   -0.8822   -0.5563 C   0  0  0  0  0  0  0  0  0  0  0  0
   -2.1886    4.1590    0.0410 H   0  0  0  0  0  0  0  0  0  0  0  0
    1.1922    2.2323    0.6205 H   0  0  0  0  0  0  0  0  0  0  0  0
    0.9951   -1.9514   -0.2654 H   0  0  0  0  0  0  0  0  0  0  0  0
   -1.4482   -1.7316   -0.8860 H   0  0  0  0  0  0  0  0  0  0  0  0
   -2.7634    4.9485    0.0025 O   0  0  0  0  0  0  0  0  0  0  0  0
   -3.9536    4.5836   -0.4605 C   0  0  0  0  0  0  0  0  0  0  0  0
   -4.3006    3.4739   -0.7862 O   0  0  0  0  0  0  0  0  0  0  0  0
   -4.8904    5.8092   -0.5416 C   0  0  0  0  0  0  0  0  0  0  0  0
   -6.1001    5.4398   -0.9687 F   0  0  0  0  0  0  0  0  0  0  0  0
   -5.0157    6.3842    0.6669 F   0  0  0  0  0  0  0  0  0  0  0  0
   -4.3904    6.7203   -1.3950 F   0  0  0  0  0  0  0  0  0  0  0  0
  1  4  1  0  0  0  0
  2  1  1  0  0  0  0
  3  2  1  0  0  0  0
  4  5  2  0  0  0  0
  5 13  1  0  0  0  0
  6  5  1  0  0  0  0
  6  7  1  0  0  0  0
  7  8  2  0  0  0  0
  9  7  2  0  0  0  0
 10  6  2  0  0  0  0
 11  1  2  0  0  0  0
 11 10  1  0  0  0  0
 14 10  1  0  0  0  0
 15 11  1  0  0  0  0
 16 12  1  0  0  0  0
 17 16  1  0  0  0  0
 18 17  2  0  0  0  0
 19 17  1  0  0  0  0
 19 21  1  0  0  0  0
 20 19  1  0  0  0  0
 22 19  1  0  0  0  0
M  RAD  3   2   2   3   3   4   2
M  END
