Coordinates from ORCA-job 4-NO2PhN2+~CF3COO-_B3LYPG-6-31G_dp-CH-Scan-d09-49-n800
 OpenBabel11261919433D

 22 22  0  0  0  0  0  0  0  0999 V2000
   -1.6653    0.6952   -0.2855 C   0  0  0  0  0  0  0  0  0  0  0  0
   -3.0517    0.6582   -0.5317 N   0  0  0  0  0  0  0  0  0  0  0  0
   -3.9929    1.3455   -0.6386 N   0  0  0  0  0  0  0  0  0  0  0  0
   -0.9409    1.8784   -0.0657 C   0  0  0  0  0  0  0  0  0  0  0  0
    0.4266    1.8030    0.1565 C   0  0  0  0  0  0  0  0  0  0  0  0
    1.0364    0.5485    0.1589 C   0  0  0  0  0  0  0  0  0  0  0  0
    2.4957    0.4704    0.4009 N   0  0  0  0  0  0  0  0  0  0  0  0
    3.0922    1.5265    0.5883 O   0  0  0  0  0  0  0  0  0  0  0  0
    3.0066   -0.6462    0.3972 O   0  0  0  0  0  0  0  0  0  0  0  0
    0.3345   -0.6360   -0.0564 C   0  0  0  0  0  0  0  0  0  0  0  0
   -1.0337   -0.5593   -0.2832 C   0  0  0  0  0  0  0  0  0  0  0  0
   -1.6205    3.0512   -0.0817 H   0  0  0  0  0  0  0  0  0  0  0  0
    1.0241    2.6888    0.3293 H   0  0  0  0  0  0  0  0  0  0  0  0
    0.8614   -1.5814   -0.0444 H   0  0  0  0  0  0  0  0  0  0  0  0
   -1.6237   -1.4515   -0.4598 H   0  0  0  0  0  0  0  0  0  0  0  0
   -3.6001    3.0577   -0.3025 O   0  0  0  0  0  0  0  0  0  0  0  0
   -4.4468    3.8668   -0.9037 C   0  0  0  0  0  0  0  0  0  0  0  0
   -5.3235    3.6112   -1.6950 O   0  0  0  0  0  0  0  0  0  0  0  0
   -4.1734    5.3261   -0.4385 C   0  0  0  0  0  0  0  0  0  0  0  0
   -4.8318    6.2049   -1.1972 F   0  0  0  0  0  0  0  0  0  0  0  0
   -4.5603    5.4902    0.8410 F   0  0  0  0  0  0  0  0  0  0  0  0
   -2.8522    5.6110   -0.5098 F   0  0  0  0  0  0  0  0  0  0  0  0
  1 11  2  0  0  0  0
  1  4  1  0  0  0  0
  2  1  1  0  0  0  0
  3  2  1  0  0  0  0
  3 16  1  0  0  0  0
  4  5  2  0  0  0  0
  5  6  1  0  0  0  0
  5 13  1  0  0  0  0
  6  7  1  0  0  0  0
  7  8  2  0  0  0  0
  9  7  2  0  0  0  0
 10 14  1  0  0  0  0
 10  6  2  0  0  0  0
 11 10  1  0  0  0  0
 12  4  1  0  0  0  0
 15 11  1  0  0  0  0
 17 19  1  0  0  0  0
 17 16  1  0  0  0  0
 18 17  2  0  0  0  0
 19 21  1  0  0  0  0
 20 19  1  0  0  0  0
 22 19  1  0  0  0  0
M  RAD  2   2   2   3   2
M  END
