Coordinates from ORCA-job 4-NO2PhN2+~CF3COO-_B3LYPG-6-31G_dp-CH-Scan-d09-49-n800
 OpenBabel11261919433D

 22 21  0  0  0  0  0  0  0  0999 V2000
   -1.0894    0.4503   -0.5531 C   0  0  0  0  0  0  0  0  0  0  0  0
   -2.3890    0.7929   -0.9713 N   0  0  0  0  0  0  0  0  0  0  0  0
   -3.4046    1.1288   -1.2913 N   0  0  0  0  0  0  0  0  0  0  0  0
   -0.3223    1.5717   -0.2348 C   0  0  0  0  0  0  0  0  0  0  0  0
    0.9799    1.1542    0.1782 C   0  0  0  0  0  0  0  0  0  0  0  0
    1.3438   -0.1826    0.2349 C   0  0  0  0  0  0  0  0  0  0  0  0
    2.7150   -0.5447    0.6817 N   0  0  0  0  0  0  0  0  0  0  0  0
    3.4723    0.3685    0.9966 O   0  0  0  0  0  0  0  0  0  0  0  0
    3.0072   -1.7402    0.7056 O   0  0  0  0  0  0  0  0  0  0  0  0
    0.4851   -1.2500   -0.1107 C   0  0  0  0  0  0  0  0  0  0  0  0
   -0.7885   -0.9379   -0.5259 C   0  0  0  0  0  0  0  0  0  0  0  0
   -2.2845    5.5182   -0.1011 H   0  0  0  0  0  0  0  0  0  0  0  0
    1.7278    1.8883    0.4650 H   0  0  0  0  0  0  0  0  0  0  0  0
    0.8409   -2.2693   -0.0434 H   0  0  0  0  0  0  0  0  0  0  0  0
   -1.5049   -1.7032   -0.8107 H   0  0  0  0  0  0  0  0  0  0  0  0
   -3.1384    5.9832   -0.1338 O   0  0  0  0  0  0  0  0  0  0  0  0
   -4.0807    5.0897   -0.4468 C   0  0  0  0  0  0  0  0  0  0  0  0
   -3.9138    3.9161   -0.6593 O   0  0  0  0  0  0  0  0  0  0  0  0
   -5.4640    5.7749   -0.4929 C   0  0  0  0  0  0  0  0  0  0  0  0
   -6.3969    4.9012   -0.8752 F   0  0  0  0  0  0  0  0  0  0  0  0
   -5.7841    6.2466    0.7243 F   0  0  0  0  0  0  0  0  0  0  0  0
   -5.4505    6.8026   -1.3578 F   0  0  0  0  0  0  0  0  0  0  0  0
  1 11  2  0  0  0  0
  1  4  1  0  0  0  0
  2  1  1  0  0  0  0
  3  2  1  0  0  0  0
  4  5  2  0  0  0  0
  5  6  1  0  0  0  0
  5 13  1  0  0  0  0
  6  7  1  0  0  0  0
  7  9  2  0  0  0  0
  7  8  2  0  0  0  0
 10 14  1  0  0  0  0
 10  6  2  0  0  0  0
 11 10  1  0  0  0  0
 15 11  1  0  0  0  0
 16 12  1  0  0  0  0
 17 16  1  0  0  0  0
 18 17  2  0  0  0  0
 19 17  1  0  0  0  0
 19 21  1  0  0  0  0
 20 19  1  0  0  0  0
 22 19  1  0  0  0  0
M  RAD  3   2   2   3   3   4   2
M  END
