Coordinates from ORCA-job 4-NO2PhN2+~CF3COO-_B3LYPG-6-31G_dp-CH-Scan-d09-49-n800
 OpenBabel11261919433D

 22 21  0  0  0  0  0  0  0  0999 V2000
   -1.6210    0.4825   -0.4656 C   0  0  0  0  0  0  0  0  0  0  0  0
   -2.9784    0.4968   -0.8095 N   0  0  0  0  0  0  0  0  0  0  0  0
   -4.0579    0.5915   -1.0697 N   0  0  0  0  0  0  0  0  0  0  0  0
   -1.1112    1.7299   -0.0872 C   0  0  0  0  0  0  0  0  0  0  0  0
    0.2656    1.6348    0.2455 C   0  0  0  0  0  0  0  0  0  0  0  0
    0.9514    0.4300    0.1806 C   0  0  0  0  0  0  0  0  0  0  0  0
    2.3938    0.3982    0.5417 N   0  0  0  0  0  0  0  0  0  0  0  0
    2.9153    1.4525    0.8883 O   0  0  0  0  0  0  0  0  0  0  0  0
    2.9696   -0.6857    0.4645 O   0  0  0  0  0  0  0  0  0  0  0  0
    0.3624   -0.7871   -0.2120 C   0  0  0  0  0  0  0  0  0  0  0  0
   -0.9727   -0.7753   -0.5497 C   0  0  0  0  0  0  0  0  0  0  0  0
   -2.0600    3.3652   -0.0379 H   0  0  0  0  0  0  0  0  0  0  0  0
    0.8161    2.5150    0.5618 H   0  0  0  0  0  0  0  0  0  0  0  0
    0.9585   -1.6895   -0.2407 H   0  0  0  0  0  0  0  0  0  0  0  0
   -1.4923   -1.6755   -0.8622 H   0  0  0  0  0  0  0  0  0  0  0  0
   -2.5120    4.2838   -0.0053 O   0  0  0  0  0  0  0  0  0  0  0  0
   -3.7318    4.2189   -0.4800 C   0  0  0  0  0  0  0  0  0  0  0  0
   -4.3238    3.2424   -0.8975 O   0  0  0  0  0  0  0  0  0  0  0  0
   -4.4031    5.6120   -0.4542 C   0  0  0  0  0  0  0  0  0  0  0  0
   -5.6514    5.5464   -0.9292 F   0  0  0  0  0  0  0  0  0  0  0  0
   -4.4505    6.0891    0.8039 F   0  0  0  0  0  0  0  0  0  0  0  0
   -3.7060    6.4834   -1.2072 F   0  0  0  0  0  0  0  0  0  0  0  0
  1  4  1  0  0  0  0
  2  1  1  0  0  0  0
  3  2  1  0  0  0  0
  4  5  2  0  0  0  0
  5 13  1  0  0  0  0
  6  5  1  0  0  0  0
  6  7  1  0  0  0  0
  7  8  2  0  0  0  0
  9  7  2  0  0  0  0
 10  6  2  0  0  0  0
 11  1  2  0  0  0  0
 11 10  1  0  0  0  0
 12 16  1  0  0  0  0
 14 10  1  0  0  0  0
 15 11  1  0  0  0  0
 17 19  1  0  0  0  0
 17 16  1  0  0  0  0
 18 17  2  0  0  0  0
 19 21  1  0  0  0  0
 20 19  1  0  0  0  0
 22 19  1  0  0  0  0
M  RAD  3   2   2   3   3   4   2
M  END
