Coordinates from ORCA-job 4-NO2PhN2+~CF3COO-_B3LYPG-6-31G_dp-CH-Scan-d09-49-n800
 OpenBabel11261919433D

 22 22  0  0  0  0  0  0  0  0999 V2000
   -1.6654    0.6886   -0.2788 C   0  0  0  0  0  0  0  0  0  0  0  0
   -3.0526    0.6552   -0.5196 N   0  0  0  0  0  0  0  0  0  0  0  0
   -3.9949    1.3393   -0.6227 N   0  0  0  0  0  0  0  0  0  0  0  0
   -0.9440    1.8721   -0.0551 C   0  0  0  0  0  0  0  0  0  0  0  0
    0.4241    1.8002    0.1625 C   0  0  0  0  0  0  0  0  0  0  0  0
    1.0368    0.5469    0.1565 C   0  0  0  0  0  0  0  0  0  0  0  0
    2.4970    0.4710    0.3939 N   0  0  0  0  0  0  0  0  0  0  0  0
    3.0914    1.5274    0.5858 O   0  0  0  0  0  0  0  0  0  0  0  0
    3.0107   -0.6443    0.3819 O   0  0  0  0  0  0  0  0  0  0  0  0
    0.3373   -0.6385   -0.0630 C   0  0  0  0  0  0  0  0  0  0  0  0
   -1.0319   -0.5647   -0.2852 C   0  0  0  0  0  0  0  0  0  0  0  0
   -1.6498    3.0644   -0.0648 H   0  0  0  0  0  0  0  0  0  0  0  0
    1.0199    2.6866    0.3382 H   0  0  0  0  0  0  0  0  0  0  0  0
    0.8669   -1.5825   -0.0576 H   0  0  0  0  0  0  0  0  0  0  0  0
   -1.6200   -1.4576   -0.4645 H   0  0  0  0  0  0  0  0  0  0  0  0
   -3.6046    3.0631   -0.2816 O   0  0  0  0  0  0  0  0  0  0  0  0
   -4.4379    3.8685   -0.9042 C   0  0  0  0  0  0  0  0  0  0  0  0
   -5.2983    3.6080   -1.7121 O   0  0  0  0  0  0  0  0  0  0  0  0
   -4.1735    5.3311   -0.4440 C   0  0  0  0  0  0  0  0  0  0  0  0
   -4.8265    6.2045   -1.2135 F   0  0  0  0  0  0  0  0  0  0  0  0
   -4.5722    5.5016    0.8310 F   0  0  0  0  0  0  0  0  0  0  0  0
   -2.8520    5.6183   -0.5048 F   0  0  0  0  0  0  0  0  0  0  0  0
  1  4  1  0  0  0  0
  2  1  1  0  0  0  0
  3  2  1  0  0  0  0
  3 16  1  0  0  0  0
  4  5  2  0  0  0  0
  5 13  1  0  0  0  0
  6  5  1  0  0  0  0
  6  7  1  0  0  0  0
  7  8  2  0  0  0  0
  9  7  2  0  0  0  0
 10 14  1  0  0  0  0
 10  6  2  0  0  0  0
 11  1  2  0  0  0  0
 11 10  1  0  0  0  0
 12  4  1  0  0  0  0
 15 11  1  0  0  0  0
 17 19  1  0  0  0  0
 17 16  1  0  0  0  0
 18 17  2  0  0  0  0
 19 21  1  0  0  0  0
 20 19  1  0  0  0  0
 22 19  1  0  0  0  0
M  RAD  2   2   2   3   2
M  END
