Coordinates from ORCA-job 4-NO2PhN2+~CF3COO-_B3LYPG-6-31G_dp-CH-Scan-d09-49-n800
 OpenBabel11261919433D

 22 21  0  0  0  0  0  0  0  0999 V2000
   -1.2973    0.4056   -0.4280 C   0  0  0  0  0  0  0  0  0  0  0  0
   -2.6489    0.6016   -0.7586 N   0  0  0  0  0  0  0  0  0  0  0  0
   -3.7155    0.8166   -1.0071 N   0  0  0  0  0  0  0  0  0  0  0  0
   -0.6604    1.5834   -0.0295 C   0  0  0  0  0  0  0  0  0  0  0  0
    0.7019    1.3083    0.2920 C   0  0  0  0  0  0  0  0  0  0  0  0
    1.2384    0.0329    0.1983 C   0  0  0  0  0  0  0  0  0  0  0  0
    2.6667   -0.1821    0.5527 N   0  0  0  0  0  0  0  0  0  0  0  0
    3.3162    0.7926    0.9189 O   0  0  0  0  0  0  0  0  0  0  0  0
    3.1080   -1.3268    0.4570 O   0  0  0  0  0  0  0  0  0  0  0  0
    0.5083   -1.1015   -0.2182 C   0  0  0  0  0  0  0  0  0  0  0  0
   -0.8152   -0.9250   -0.5485 C   0  0  0  0  0  0  0  0  0  0  0  0
   -2.2412    4.5605    0.0947 H   0  0  0  0  0  0  0  0  0  0  0  0
    1.3611    2.1048    0.6247 H   0  0  0  0  0  0  0  0  0  0  0  0
    0.9957   -2.0660   -0.2678 H   0  0  0  0  0  0  0  0  0  0  0  0
   -1.4406   -1.7496   -0.8776 H   0  0  0  0  0  0  0  0  0  0  0  0
   -2.8945    5.2782    0.0139 O   0  0  0  0  0  0  0  0  0  0  0  0
   -4.0313    4.7577   -0.4458 C   0  0  0  0  0  0  0  0  0  0  0  0
   -4.2393    3.6026   -0.7222 O   0  0  0  0  0  0  0  0  0  0  0  0
   -5.0995    5.8645   -0.5873 C   0  0  0  0  0  0  0  0  0  0  0  0
   -6.2371    5.3505   -1.0589 F   0  0  0  0  0  0  0  0  0  0  0  0
   -5.3424    6.4312    0.6072 F   0  0  0  0  0  0  0  0  0  0  0  0
   -4.6725    6.8191   -1.4315 F   0  0  0  0  0  0  0  0  0  0  0  0
  1  4  1  0  0  0  0
  2  1  1  0  0  0  0
  3  2  1  0  0  0  0
  4  5  2  0  0  0  0
  5 13  1  0  0  0  0
  6  5  1  0  0  0  0
  6  7  1  0  0  0  0
  7  8  2  0  0  0  0
  9  7  2  0  0  0  0
 10  6  2  0  0  0  0
 11  1  2  0  0  0  0
 11 10  1  0  0  0  0
 14 10  1  0  0  0  0
 15 11  1  0  0  0  0
 16 12  1  0  0  0  0
 17 16  1  0  0  0  0
 18 17  2  0  0  0  0
 19 17  1  0  0  0  0
 19 21  1  0  0  0  0
 20 19  1  0  0  0  0
 22 19  1  0  0  0  0
M  RAD  3   2   2   3   3   4   2
M  END
