Coordinates from ORCA-job 4-NO2PhN2+~CF3COO-_B3LYPG-6-31G_dp-CH-Scan-d09-49-n800
 OpenBabel11261919433D

 22 21  0  0  0  0  0  0  0  0999 V2000
   -1.4271    0.4368   -0.4483 C   0  0  0  0  0  0  0  0  0  0  0  0
   -2.7821    0.5553   -0.7904 N   0  0  0  0  0  0  0  0  0  0  0  0
   -3.8565    0.7053   -1.0500 N   0  0  0  0  0  0  0  0  0  0  0  0
   -0.8444    1.6453   -0.0539 C   0  0  0  0  0  0  0  0  0  0  0  0
    0.5258    1.4434    0.2783 C   0  0  0  0  0  0  0  0  0  0  0  0
    1.1255    0.1954    0.1962 C   0  0  0  0  0  0  0  0  0  0  0  0
    2.5611    0.0551    0.5586 N   0  0  0  0  0  0  0  0  0  0  0  0
    3.1577    1.0635    0.9224 O   0  0  0  0  0  0  0  0  0  0  0  0
    3.0592   -1.0664    0.4704 O   0  0  0  0  0  0  0  0  0  0  0  0
    0.4547   -0.9752   -0.2155 C   0  0  0  0  0  0  0  0  0  0  0  0
   -0.8744   -0.8668   -0.5540 C   0  0  0  0  0  0  0  0  0  0  0  0
   -2.1684    4.0400    0.0187 H   0  0  0  0  0  0  0  0  0  0  0  0
    1.1407    2.2749    0.6089 H   0  0  0  0  0  0  0  0  0  0  0  0
    0.9889   -1.9151   -0.2560 H   0  0  0  0  0  0  0  0  0  0  0  0
   -1.4555   -1.7242   -0.8801 H   0  0  0  0  0  0  0  0  0  0  0  0
   -2.7211    4.8482   -0.0059 O   0  0  0  0  0  0  0  0  0  0  0  0
   -3.9236    4.5286   -0.4661 C   0  0  0  0  0  0  0  0  0  0  0  0
   -4.3104    3.4354   -0.8050 O   0  0  0  0  0  0  0  0  0  0  0  0
   -4.8221    5.7839   -0.5248 C   0  0  0  0  0  0  0  0  0  0  0  0
   -6.0433    5.4600   -0.9565 F   0  0  0  0  0  0  0  0  0  0  0  0
   -4.9288    6.3413    0.6939 F   0  0  0  0  0  0  0  0  0  0  0  0
   -4.2955    6.6946   -1.3627 F   0  0  0  0  0  0  0  0  0  0  0  0
  1  4  1  0  0  0  0
  2  1  1  0  0  0  0
  3  2  1  0  0  0  0
  4  5  2  0  0  0  0
  5 13  1  0  0  0  0
  6  5  1  0  0  0  0
  6  7  1  0  0  0  0
  7  8  2  0  0  0  0
  9  7  2  0  0  0  0
 10  6  2  0  0  0  0
 11  1  2  0  0  0  0
 11 10  1  0  0  0  0
 14 10  1  0  0  0  0
 15 11  1  0  0  0  0
 16 12  1  0  0  0  0
 17 16  1  0  0  0  0
 18 17  2  0  0  0  0
 19 17  1  0  0  0  0
 19 21  1  0  0  0  0
 20 19  1  0  0  0  0
 22 19  1  0  0  0  0
M  RAD  3   2   2   3   3   4   2
M  END
