Coordinates from ORCA-job 4-NO2PhN2+~CF3COO-_B3LYPG-6-31G_dp-CH-Scan-d09-49-n800
 OpenBabel11261919433D

 22 21  0  0  0  0  0  0  0  0999 V2000
   -1.3109    0.4069   -0.4310 C   0  0  0  0  0  0  0  0  0  0  0  0
   -2.6631    0.5932   -0.7628 N   0  0  0  0  0  0  0  0  0  0  0  0
   -3.7309    0.8011   -1.0120 N   0  0  0  0  0  0  0  0  0  0  0  0
   -0.6817    1.5885   -0.0304 C   0  0  0  0  0  0  0  0  0  0  0  0
    0.6818    1.3225    0.2927 C   0  0  0  0  0  0  0  0  0  0  0  0
    1.2270    0.0508    0.1981 C   0  0  0  0  0  0  0  0  0  0  0  0
    2.6563   -0.1550    0.5541 N   0  0  0  0  0  0  0  0  0  0  0  0
    3.2975    0.8230    0.9259 O   0  0  0  0  0  0  0  0  0  0  0  0
    3.1048   -1.2970    0.4598 O   0  0  0  0  0  0  0  0  0  0  0  0
    0.5051   -1.0880   -0.2205 C   0  0  0  0  0  0  0  0  0  0  0  0
   -0.8191   -0.9201   -0.5523 C   0  0  0  0  0  0  0  0  0  0  0  0
   -2.2358    4.4950    0.0867 H   0  0  0  0  0  0  0  0  0  0  0  0
    1.3351    2.1230    0.6271 H   0  0  0  0  0  0  0  0  0  0  0  0
    0.9991   -2.0491   -0.2708 H   0  0  0  0  0  0  0  0  0  0  0  0
   -1.4384   -1.7486   -0.8831 H   0  0  0  0  0  0  0  0  0  0  0  0
   -2.8759    5.2259    0.0127 O   0  0  0  0  0  0  0  0  0  0  0  0
   -4.0238    4.7319   -0.4476 C   0  0  0  0  0  0  0  0  0  0  0  0
   -4.2556    3.5833   -0.7322 O   0  0  0  0  0  0  0  0  0  0  0  0
   -5.0696    5.8610   -0.5802 C   0  0  0  0  0  0  0  0  0  0  0  0
   -6.2249    5.3697   -1.0327 F   0  0  0  0  0  0  0  0  0  0  0  0
   -5.2833    6.4408    0.6135 F   0  0  0  0  0  0  0  0  0  0  0  0
   -4.6332    6.8005   -1.4368 F   0  0  0  0  0  0  0  0  0  0  0  0
  1  4  1  0  0  0  0
  2  1  1  0  0  0  0
  3  2  1  0  0  0  0
  4  5  2  0  0  0  0
  5 13  1  0  0  0  0
  6  5  1  0  0  0  0
  6  7  1  0  0  0  0
  7  8  2  0  0  0  0
  9  7  2  0  0  0  0
 10  6  2  0  0  0  0
 11  1  2  0  0  0  0
 11 10  1  0  0  0  0
 14 10  1  0  0  0  0
 15 11  1  0  0  0  0
 16 12  1  0  0  0  0
 17 16  1  0  0  0  0
 18 17  2  0  0  0  0
 19 17  1  0  0  0  0
 19 21  1  0  0  0  0
 20 19  1  0  0  0  0
 22 19  1  0  0  0  0
M  RAD  3   2   2   3   3   4   2
M  END
