Coordinates from ORCA-job 4-NO2PhN2+~CF3COO-_B3LYPG-6-31G_dp-CH-Scan-d09-49-n800
 OpenBabel11261919433D

 22 21  0  0  0  0  0  0  0  0999 V2000
   -1.2685    0.4019   -0.4232 C   0  0  0  0  0  0  0  0  0  0  0  0
   -2.6184    0.6176   -0.7507 N   0  0  0  0  0  0  0  0  0  0  0  0
   -3.6820    0.8499   -0.9968 N   0  0  0  0  0  0  0  0  0  0  0  0
   -0.6156    1.5722   -0.0294 C   0  0  0  0  0  0  0  0  0  0  0  0
    0.7441    1.2780    0.2890 C   0  0  0  0  0  0  0  0  0  0  0  0
    1.2624   -0.0050    0.1971 C   0  0  0  0  0  0  0  0  0  0  0  0
    2.6884   -0.2394    0.5485 N   0  0  0  0  0  0  0  0  0  0  0  0
    3.3531    0.7272    0.9090 O   0  0  0  0  0  0  0  0  0  0  0  0
    3.1131   -1.3907    0.4562 O   0  0  0  0  0  0  0  0  0  0  0  0
    0.5153   -1.1304   -0.2145 C   0  0  0  0  0  0  0  0  0  0  0  0
   -0.8064   -0.9360   -0.5420 C   0  0  0  0  0  0  0  0  0  0  0  0
   -2.2538    4.7052    0.1141 H   0  0  0  0  0  0  0  0  0  0  0  0
    1.4156    2.0658    0.6178 H   0  0  0  0  0  0  0  0  0  0  0  0
    0.9890   -2.1017   -0.2628 H   0  0  0  0  0  0  0  0  0  0  0  0
   -1.4443   -1.7524   -0.8674 H   0  0  0  0  0  0  0  0  0  0  0  0
   -2.9363    5.3924    0.0182 O   0  0  0  0  0  0  0  0  0  0  0  0
   -4.0467    4.8149   -0.4412 C   0  0  0  0  0  0  0  0  0  0  0  0
   -4.1999    3.6477   -0.7006 O   0  0  0  0  0  0  0  0  0  0  0  0
   -5.1627    5.8706   -0.6020 C   0  0  0  0  0  0  0  0  0  0  0  0
   -6.2619    5.3065   -1.1060 F   0  0  0  0  0  0  0  0  0  0  0  0
   -5.4616    6.4121    0.5916 F   0  0  0  0  0  0  0  0  0  0  0  0
   -4.7624    6.8530   -1.4265 F   0  0  0  0  0  0  0  0  0  0  0  0
  1  4  1  0  0  0  0
  2  1  1  0  0  0  0
  3  2  1  0  0  0  0
  4  5  2  0  0  0  0
  5 13  1  0  0  0  0
  6  5  1  0  0  0  0
  6  7  1  0  0  0  0
  7  8  2  0  0  0  0
  9  7  2  0  0  0  0
 10  6  2  0  0  0  0
 11  1  2  0  0  0  0
 11 10  1  0  0  0  0
 14 10  1  0  0  0  0
 15 11  1  0  0  0  0
 16 12  1  0  0  0  0
 17 16  1  0  0  0  0
 18 17  2  0  0  0  0
 19 17  1  0  0  0  0
 19 21  1  0  0  0  0
 20 19  1  0  0  0  0
 22 19  1  0  0  0  0
M  RAD  3   2   2   3   3   4   2
M  END
