Coordinates from ORCA-job 4-NO2PhN2+~CF3COO-_B3LYPG-6-31G_dp-CH-Scan-d09-49-n800
 OpenBabel11261919433D

 22 21  0  0  0  0  0  0  0  0999 V2000
   -1.4422    0.4407   -0.4512 C   0  0  0  0  0  0  0  0  0  0  0  0
   -2.7973    0.5506   -0.7946 N   0  0  0  0  0  0  0  0  0  0  0  0
   -3.8722    0.6941   -1.0553 N   0  0  0  0  0  0  0  0  0  0  0  0
   -0.8652    1.6528   -0.0590 C   0  0  0  0  0  0  0  0  0  0  0  0
    0.5055    1.4593    0.2746 C   0  0  0  0  0  0  0  0  0  0  0  0
    1.1119    0.2143    0.1956 C   0  0  0  0  0  0  0  0  0  0  0  0
    2.5481    0.0825    0.5591 N   0  0  0  0  0  0  0  0  0  0  0  0
    3.1389    1.0949    0.9210 O   0  0  0  0  0  0  0  0  0  0  0  0
    3.0521   -1.0365    0.4735 O   0  0  0  0  0  0  0  0  0  0  0  0
    0.4475   -0.9606   -0.2138 C   0  0  0  0  0  0  0  0  0  0  0  0
   -0.8821   -0.8599   -0.5534 C   0  0  0  0  0  0  0  0  0  0  0  0
   -2.1594    3.9841    0.0080 H   0  0  0  0  0  0  0  0  0  0  0  0
    1.1155    2.2949    0.6037 H   0  0  0  0  0  0  0  0  0  0  0  0
    0.9866   -1.8978   -0.2520 H   0  0  0  0  0  0  0  0  0  0  0  0
   -1.4584   -1.7211   -0.8778 H   0  0  0  0  0  0  0  0  0  0  0  0
   -2.7018    4.8009   -0.0101 O   0  0  0  0  0  0  0  0  0  0  0  0
   -3.9096    4.5029   -0.4685 C   0  0  0  0  0  0  0  0  0  0  0  0
   -4.3153    3.4180   -0.8133 O   0  0  0  0  0  0  0  0  0  0  0  0
   -4.7893    5.7720   -0.5167 C   0  0  0  0  0  0  0  0  0  0  0  0
   -6.0159    5.4701   -0.9495 F   0  0  0  0  0  0  0  0  0  0  0  0
   -4.8865    6.3218    0.7063 F   0  0  0  0  0  0  0  0  0  0  0  0
   -4.2501    6.6812   -1.3483 F   0  0  0  0  0  0  0  0  0  0  0  0
  1  4  1  0  0  0  0
  2  1  1  0  0  0  0
  3  2  1  0  0  0  0
  4  5  2  0  0  0  0
  5 13  1  0  0  0  0
  6  5  1  0  0  0  0
  6  7  1  0  0  0  0
  7  8  2  0  0  0  0
  9  7  2  0  0  0  0
 10  6  2  0  0  0  0
 11  1  2  0  0  0  0
 11 10  1  0  0  0  0
 14 10  1  0  0  0  0
 15 11  1  0  0  0  0
 16 12  1  0  0  0  0
 17 16  1  0  0  0  0
 18 17  2  0  0  0  0
 19 17  1  0  0  0  0
 19 21  1  0  0  0  0
 20 19  1  0  0  0  0
 22 19  1  0  0  0  0
M  RAD  3   2   2   3   3   4   2
M  END
