Coordinates from ORCA-job 4-NO2PhN2+~CF3COO-_B3LYPG-6-31G_dp-CH-Scan-d09-49-n800
 OpenBabel11261919433D

 22 21  0  0  0  0  0  0  0  0999 V2000
   -1.3646    0.4183   -0.4380 C   0  0  0  0  0  0  0  0  0  0  0  0
   -2.7187    0.5723   -0.7742 N   0  0  0  0  0  0  0  0  0  0  0  0
   -3.7904    0.7519   -1.0276 N   0  0  0  0  0  0  0  0  0  0  0  0
   -0.7593    1.6120   -0.0353 C   0  0  0  0  0  0  0  0  0  0  0  0
    0.6079    1.3771    0.2919 C   0  0  0  0  0  0  0  0  0  0  0  0
    1.1810    0.1176    0.1983 C   0  0  0  0  0  0  0  0  0  0  0  0
    2.6137   -0.0566    0.5575 N   0  0  0  0  0  0  0  0  0  0  0  0
    3.2327    0.9357    0.9285 O   0  0  0  0  0  0  0  0  0  0  0  0
    3.0880   -1.1877    0.4600 O   0  0  0  0  0  0  0  0  0  0  0  0
    0.4850   -1.0359   -0.2222 C   0  0  0  0  0  0  0  0  0  0  0  0
   -0.8420   -0.8969   -0.5571 C   0  0  0  0  0  0  0  0  0  0  0  0
   -2.2082    4.2745    0.0600 H   0  0  0  0  0  0  0  0  0  0  0  0
    1.2419    2.1921    0.6283 H   0  0  0  0  0  0  0  0  0  0  0  0
    0.9997   -1.9862   -0.2715 H   0  0  0  0  0  0  0  0  0  0  0  0
   -1.4419   -1.7388   -0.8894 H   0  0  0  0  0  0  0  0  0  0  0  0
   -2.8048    5.0450    0.0087 O   0  0  0  0  0  0  0  0  0  0  0  0
   -3.9819    4.6364   -0.4554 C   0  0  0  0  0  0  0  0  0  0  0  0
   -4.2903    3.5123   -0.7680 O   0  0  0  0  0  0  0  0  0  0  0  0
   -4.9550    5.8317   -0.5565 C   0  0  0  0  0  0  0  0  0  0  0  0
   -6.1511    5.4199   -0.9827 F   0  0  0  0  0  0  0  0  0  0  0  0
   -5.1022    6.4189    0.6435 F   0  0  0  0  0  0  0  0  0  0  0  0
   -4.4790    6.7455   -1.4206 F   0  0  0  0  0  0  0  0  0  0  0  0
  1  4  1  0  0  0  0
  2  1  1  0  0  0  0
  3  2  1  0  0  0  0
  4  5  2  0  0  0  0
  5 13  1  0  0  0  0
  6  5  1  0  0  0  0
  6  7  1  0  0  0  0
  7  8  2  0  0  0  0
  9  7  2  0  0  0  0
 10  6  2  0  0  0  0
 11  1  2  0  0  0  0
 11 10  1  0  0  0  0
 14 10  1  0  0  0  0
 15 11  1  0  0  0  0
 16 12  1  0  0  0  0
 17 16  1  0  0  0  0
 18 17  2  0  0  0  0
 19 17  1  0  0  0  0
 19 21  1  0  0  0  0
 20 19  1  0  0  0  0
 22 19  1  0  0  0  0
M  RAD  3   2   2   3   3   4   2
M  END
