Coordinates from ORCA-job 4-NO2PhN2+~CF3COO-_B3LYPG-6-31G_dp-CH-Scan-d09-49-n800
 OpenBabel11261919433D

 22 22  0  0  0  0  0  0  0  0999 V2000
   -1.7017    0.7271   -0.3498 C   0  0  0  0  0  0  0  0  0  0  0  0
   -3.0830    0.6385   -0.6386 N   0  0  0  0  0  0  0  0  0  0  0  0
   -4.0016    1.3756   -0.7660 N   0  0  0  0  0  0  0  0  0  0  0  0
   -0.9907    1.9283   -0.1574 C   0  0  0  0  0  0  0  0  0  0  0  0
    0.3741    1.8509    0.1056 C   0  0  0  0  0  0  0  0  0  0  0  0
    0.9923    0.6044    0.1756 C   0  0  0  0  0  0  0  0  0  0  0  0
    2.4432    0.5448    0.4589 N   0  0  0  0  0  0  0  0  0  0  0  0
    3.0314    1.6110    0.6159 O   0  0  0  0  0  0  0  0  0  0  0  0
    2.9593   -0.5681    0.5177 O   0  0  0  0  0  0  0  0  0  0  0  0
    0.2993   -0.5889   -0.0118 C   0  0  0  0  0  0  0  0  0  0  0  0
   -1.0618   -0.5205   -0.2800 C   0  0  0  0  0  0  0  0  0  0  0  0
   -1.4473    2.7997   -0.2093 H   0  0  0  0  0  0  0  0  0  0  0  0
    0.9635    2.7461    0.2594 H   0  0  0  0  0  0  0  0  0  0  0  0
    0.8256   -1.5328    0.0513 H   0  0  0  0  0  0  0  0  0  0  0  0
   -1.6468   -1.4191   -0.4389 H   0  0  0  0  0  0  0  0  0  0  0  0
   -3.5511    2.9726   -0.4650 O   0  0  0  0  0  0  0  0  0  0  0  0
   -4.4684    3.8364   -0.8802 C   0  0  0  0  0  0  0  0  0  0  0  0
   -5.4702    3.6399   -1.5191 O   0  0  0  0  0  0  0  0  0  0  0  0
   -4.0701    5.2572   -0.3907 C   0  0  0  0  0  0  0  0  0  0  0  0
   -4.7607    6.1938   -1.0431 F   0  0  0  0  0  0  0  0  0  0  0  0
   -4.3222    5.3755    0.9270 F   0  0  0  0  0  0  0  0  0  0  0  0
   -2.7527    5.4867   -0.5831 F   0  0  0  0  0  0  0  0  0  0  0  0
  1 11  2  0  0  0  0
  1  4  1  0  0  0  0
  2  1  1  0  0  0  0
  3  2  1  0  0  0  0
  3 16  1  0  0  0  0
  4  5  2  0  0  0  0
  5  6  1  0  0  0  0
  5 13  1  0  0  0  0
  6  7  1  0  0  0  0
  7  9  2  0  0  0  0
  7  8  2  0  0  0  0
 10 14  1  0  0  0  0
 10  6  2  0  0  0  0
 11 10  1  0  0  0  0
 12  4  1  0  0  0  0
 15 11  1  0  0  0  0
 17 16  1  0  0  0  0
 17 19  1  0  0  0  0
 18 17  2  0  0  0  0
 19 21  1  0  0  0  0
 20 19  1  0  0  0  0
 22 19  1  0  0  0  0
M  RAD  2   2   2   3   2
M  END
