Coordinates from ORCA-job 4-NO2PhN2+~CF3COO-_B3LYPG-6-31G_dp-CH-Scan-d09-49-n800
 OpenBabel11261919433D

 22 21  0  0  0  0  0  0  0  0999 V2000
   -1.2860    0.4041   -0.4257 C   0  0  0  0  0  0  0  0  0  0  0  0
   -2.6370    0.6078   -0.7550 N   0  0  0  0  0  0  0  0  0  0  0  0
   -3.7024    0.8298   -1.0025 N   0  0  0  0  0  0  0  0  0  0  0  0
   -0.6427    1.5791   -0.0294 C   0  0  0  0  0  0  0  0  0  0  0  0
    0.7187    1.2964    0.2906 C   0  0  0  0  0  0  0  0  0  0  0  0
    1.2480    0.0179    0.1977 C   0  0  0  0  0  0  0  0  0  0  0  0
    2.6754   -0.2048    0.5505 N   0  0  0  0  0  0  0  0  0  0  0  0
    3.3311    0.7668    0.9139 O   0  0  0  0  0  0  0  0  0  0  0  0
    3.1102   -1.3521    0.4563 O   0  0  0  0  0  0  0  0  0  0  0  0
    0.5110   -1.1131   -0.2164 C   0  0  0  0  0  0  0  0  0  0  0  0
   -0.8119   -0.9295   -0.5454 C   0  0  0  0  0  0  0  0  0  0  0  0
   -2.2455    4.6180    0.1023 H   0  0  0  0  0  0  0  0  0  0  0  0
    1.3829    2.0894    0.6214 H   0  0  0  0  0  0  0  0  0  0  0  0
    0.9929   -2.0803   -0.2655 H   0  0  0  0  0  0  0  0  0  0  0  0
   -1.4424   -1.7509   -0.8727 H   0  0  0  0  0  0  0  0  0  0  0  0
   -2.9105    5.3237    0.0154 O   0  0  0  0  0  0  0  0  0  0  0  0
   -4.0372    4.7804   -0.4442 C   0  0  0  0  0  0  0  0  0  0  0  0
   -4.2235    3.6200   -0.7134 O   0  0  0  0  0  0  0  0  0  0  0  0
   -5.1247    5.8671   -0.5933 C   0  0  0  0  0  0  0  0  0  0  0  0
   -6.2461    5.3334   -1.0815 F   0  0  0  0  0  0  0  0  0  0  0  0
   -5.3929    6.4214    0.6016 F   0  0  0  0  0  0  0  0  0  0  0  0
   -4.7068    6.8349   -1.4267 F   0  0  0  0  0  0  0  0  0  0  0  0
  1  4  1  0  0  0  0
  2  1  1  0  0  0  0
  3  2  1  0  0  0  0
  4  5  2  0  0  0  0
  5 13  1  0  0  0  0
  6  5  1  0  0  0  0
  6  7  1  0  0  0  0
  7  8  2  0  0  0  0
  9  7  2  0  0  0  0
 10  6  2  0  0  0  0
 11  1  2  0  0  0  0
 11 10  1  0  0  0  0
 14 10  1  0  0  0  0
 15 11  1  0  0  0  0
 16 12  1  0  0  0  0
 17 16  1  0  0  0  0
 18 17  2  0  0  0  0
 19 17  1  0  0  0  0
 19 21  1  0  0  0  0
 20 19  1  0  0  0  0
 22 19  1  0  0  0  0
M  RAD  3   2   2   3   3   4   2
M  END
