Coordinates from ORCA-job 4-NO2PhN2+~CF3COO-_B3LYPG-6-31G_dp-CH-Scan-d09-49-n800
 OpenBabel11261919433D

 22 21  0  0  0  0  0  0  0  0999 V2000
   -1.4843    0.4479   -0.4538 C   0  0  0  0  0  0  0  0  0  0  0  0
   -2.8406    0.5337   -0.7970 N   0  0  0  0  0  0  0  0  0  0  0  0
   -3.9173    0.6610   -1.0578 N   0  0  0  0  0  0  0  0  0  0  0  0
   -0.9247    1.6692   -0.0642 C   0  0  0  0  0  0  0  0  0  0  0  0
    0.4486    1.5006    0.2688 C   0  0  0  0  0  0  0  0  0  0  0  0
    1.0757    0.2656    0.1919 C   0  0  0  0  0  0  0  0  0  0  0  0
    2.5142    0.1591    0.5540 N   0  0  0  0  0  0  0  0  0  0  0  0
    3.0875    1.1820    0.9142 O   0  0  0  0  0  0  0  0  0  0  0  0
    3.0365   -0.9517    0.4710 O   0  0  0  0  0  0  0  0  0  0  0  0
    0.4302   -0.9205   -0.2142 C   0  0  0  0  0  0  0  0  0  0  0  0
   -0.9013   -0.8425   -0.5529 C   0  0  0  0  0  0  0  0  0  0  0  0
   -2.1451    3.8295   -0.0012 H   0  0  0  0  0  0  0  0  0  0  0  0
    1.0440    2.3475    0.5954 H   0  0  0  0  0  0  0  0  0  0  0  0
    0.9844   -1.8489   -0.2510 H   0  0  0  0  0  0  0  0  0  0  0  0
   -1.4632   -1.7140   -0.8749 H   0  0  0  0  0  0  0  0  0  0  0  0
   -2.6578    4.6706   -0.0074 O   0  0  0  0  0  0  0  0  0  0  0  0
   -3.8741    4.4343   -0.4719 C   0  0  0  0  0  0  0  0  0  0  0  0
   -4.3309    3.3747   -0.8352 O   0  0  0  0  0  0  0  0  0  0  0  0
   -4.6969    5.7418   -0.5028 C   0  0  0  0  0  0  0  0  0  0  0  0
   -5.9338    5.5040   -0.9472 F   0  0  0  0  0  0  0  0  0  0  0  0
   -4.7774    6.2744    0.7294 F   0  0  0  0  0  0  0  0  0  0  0  0
   -4.1131    6.6411   -1.3149 F   0  0  0  0  0  0  0  0  0  0  0  0
  1  4  1  0  0  0  0
  2  1  1  0  0  0  0
  3  2  1  0  0  0  0
  4  5  2  0  0  0  0
  5 13  1  0  0  0  0
  6  5  1  0  0  0  0
  6  7  1  0  0  0  0
  7  8  2  0  0  0  0
  9  7  2  0  0  0  0
 10  6  2  0  0  0  0
 11  1  2  0  0  0  0
 11 10  1  0  0  0  0
 14 10  1  0  0  0  0
 15 11  1  0  0  0  0
 16 12  1  0  0  0  0
 17 16  1  0  0  0  0
 18 17  2  0  0  0  0
 19 17  1  0  0  0  0
 19 21  1  0  0  0  0
 20 19  1  0  0  0  0
 22 19  1  0  0  0  0
M  RAD  3   2   2   3   3   4   2
M  END
