Coordinates from ORCA-job 4-NO2PhN2+~CF3COO-_B3LYPG-6-31G_dp-CH-Scan-d09-49-n800
 OpenBabel11261919433D

 22 21  0  0  0  0  0  0  0  0999 V2000
   -1.4866    0.4482   -0.4538 C   0  0  0  0  0  0  0  0  0  0  0  0
   -2.8429    0.5326   -0.7970 N   0  0  0  0  0  0  0  0  0  0  0  0
   -3.9194    0.6597   -1.0590 N   0  0  0  0  0  0  0  0  0  0  0  0
   -0.9280    1.6701   -0.0645 C   0  0  0  0  0  0  0  0  0  0  0  0
    0.4453    1.5028    0.2685 C   0  0  0  0  0  0  0  0  0  0  0  0
    1.0735    0.2683    0.1919 C   0  0  0  0  0  0  0  0  0  0  0  0
    2.5121    0.1632    0.5540 N   0  0  0  0  0  0  0  0  0  0  0  0
    3.0847    1.1870    0.9128 O   0  0  0  0  0  0  0  0  0  0  0  0
    3.0357   -0.9468    0.4701 O   0  0  0  0  0  0  0  0  0  0  0  0
    0.4292   -0.9184   -0.2139 C   0  0  0  0  0  0  0  0  0  0  0  0
   -0.9024   -0.8417   -0.5526 C   0  0  0  0  0  0  0  0  0  0  0  0
   -2.1443    3.8213   -0.0015 H   0  0  0  0  0  0  0  0  0  0  0  0
    1.0399    2.3503    0.5950 H   0  0  0  0  0  0  0  0  0  0  0  0
    0.9842   -1.8463   -0.2505 H   0  0  0  0  0  0  0  0  0  0  0  0
   -1.4635   -1.7138   -0.8744 H   0  0  0  0  0  0  0  0  0  0  0  0
   -2.6555    4.6635   -0.0069 O   0  0  0  0  0  0  0  0  0  0  0  0
   -3.8721    4.4307   -0.4720 C   0  0  0  0  0  0  0  0  0  0  0  0
   -4.3313    3.3724   -0.8365 O   0  0  0  0  0  0  0  0  0  0  0  0
   -4.6919    5.7400   -0.5020 C   0  0  0  0  0  0  0  0  0  0  0  0
   -5.9291    5.5056   -0.9472 F   0  0  0  0  0  0  0  0  0  0  0  0
   -4.7717    6.2716    0.7307 F   0  0  0  0  0  0  0  0  0  0  0  0
   -4.1055    6.6389   -1.3129 F   0  0  0  0  0  0  0  0  0  0  0  0
  1  4  1  0  0  0  0
  2  1  1  0  0  0  0
  3  2  1  0  0  0  0
  4  5  2  0  0  0  0
  5 13  1  0  0  0  0
  6  5  1  0  0  0  0
  6  7  1  0  0  0  0
  7  8  2  0  0  0  0
  9  7  2  0  0  0  0
 10  6  2  0  0  0  0
 11  1  2  0  0  0  0
 11 10  1  0  0  0  0
 14 10  1  0  0  0  0
 15 11  1  0  0  0  0
 16 12  1  0  0  0  0
 17 16  1  0  0  0  0
 18 17  2  0  0  0  0
 19 17  1  0  0  0  0
 19 21  1  0  0  0  0
 20 19  1  0  0  0  0
 22 19  1  0  0  0  0
M  RAD  3   2   2   3   3   4   2
M  END
