Coordinates from ORCA-job 4-NO2PhN2+~CF3COO-_B3LYPG-6-31G_dp-CH-Scan-d09-49-n800
 OpenBabel11261919433D

 22 21  0  0  0  0  0  0  0  0999 V2000
   -1.2902    0.4047   -0.4267 C   0  0  0  0  0  0  0  0  0  0  0  0
   -2.6413    0.6055   -0.7567 N   0  0  0  0  0  0  0  0  0  0  0  0
   -3.7074    0.8246   -1.0038 N   0  0  0  0  0  0  0  0  0  0  0  0
   -0.6493    1.5807   -0.0295 C   0  0  0  0  0  0  0  0  0  0  0  0
    0.7124    1.3009    0.2912 C   0  0  0  0  0  0  0  0  0  0  0  0
    1.2444    0.0236    0.1979 C   0  0  0  0  0  0  0  0  0  0  0  0
    2.6722   -0.1962    0.5515 N   0  0  0  0  0  0  0  0  0  0  0  0
    3.3254    0.7765    0.9163 O   0  0  0  0  0  0  0  0  0  0  0  0
    3.1093   -1.3427    0.4569 O   0  0  0  0  0  0  0  0  0  0  0  0
    0.5100   -1.1087   -0.2172 C   0  0  0  0  0  0  0  0  0  0  0  0
   -0.8130   -0.9278   -0.5468 C   0  0  0  0  0  0  0  0  0  0  0  0
   -2.2439    4.5957    0.0988 H   0  0  0  0  0  0  0  0  0  0  0  0
    1.3747    2.0952    0.6228 H   0  0  0  0  0  0  0  0  0  0  0  0
    0.9940   -2.0749   -0.2665 H   0  0  0  0  0  0  0  0  0  0  0  0
   -1.4416   -1.7504   -0.8749 H   0  0  0  0  0  0  0  0  0  0  0  0
   -2.9043    5.3062    0.0142 O   0  0  0  0  0  0  0  0  0  0  0  0
   -4.0352    4.7717   -0.4449 C   0  0  0  0  0  0  0  0  0  0  0  0
   -4.2301    3.6133   -0.7168 O   0  0  0  0  0  0  0  0  0  0  0  0
   -5.1153    5.8663   -0.5909 C   0  0  0  0  0  0  0  0  0  0  0  0
   -6.2432    5.3402   -1.0722 F   0  0  0  0  0  0  0  0  0  0  0  0
   -5.3733    6.4256    0.6040 F   0  0  0  0  0  0  0  0  0  0  0  0
   -4.6940    6.8289   -1.4286 F   0  0  0  0  0  0  0  0  0  0  0  0
  1  4  1  0  0  0  0
  2  1  1  0  0  0  0
  3  2  1  0  0  0  0
  4  5  2  0  0  0  0
  5 13  1  0  0  0  0
  6  5  1  0  0  0  0
  6  7  1  0  0  0  0
  7  8  2  0  0  0  0
  9  7  2  0  0  0  0
 10  6  2  0  0  0  0
 11  1  2  0  0  0  0
 11 10  1  0  0  0  0
 14 10  1  0  0  0  0
 15 11  1  0  0  0  0
 16 12  1  0  0  0  0
 17 16  1  0  0  0  0
 18 17  2  0  0  0  0
 19 17  1  0  0  0  0
 19 21  1  0  0  0  0
 20 19  1  0  0  0  0
 22 19  1  0  0  0  0
M  RAD  3   2   2   3   3   4   2
M  END
