Coordinates from ORCA-job 4-NO2PhN2+~CF3COO-_B3LYPG-6-31G_dp-CH-Scan-d09-49-n800
 OpenBabel11261919433D

 22 22  0  0  0  0  0  0  0  0999 V2000
   -1.6684    0.7116   -0.3085 C   0  0  0  0  0  0  0  0  0  0  0  0
   -3.0527    0.6603   -0.5716 N   0  0  0  0  0  0  0  0  0  0  0  0
   -3.9885    1.3616   -0.6880 N   0  0  0  0  0  0  0  0  0  0  0  0
   -0.9387    1.8953   -0.1013 C   0  0  0  0  0  0  0  0  0  0  0  0
    0.4269    1.8130    0.1358 C   0  0  0  0  0  0  0  0  0  0  0  0
    1.0315    0.5569    0.1660 C   0  0  0  0  0  0  0  0  0  0  0  0
    2.4875    0.4764    0.4232 N   0  0  0  0  0  0  0  0  0  0  0  0
    3.0879    1.5330    0.5962 O   0  0  0  0  0  0  0  0  0  0  0  0
    2.9929   -0.6425    0.4458 O   0  0  0  0  0  0  0  0  0  0  0  0
    0.3250   -0.6268   -0.0361 C   0  0  0  0  0  0  0  0  0  0  0  0
   -1.0401   -0.5444   -0.2783 C   0  0  0  0  0  0  0  0  0  0  0  0
   -1.5584    3.0267   -0.1370 H   0  0  0  0  0  0  0  0  0  0  0  0
    1.0271    2.6988    0.2993 H   0  0  0  0  0  0  0  0  0  0  0  0
    0.8454   -1.5753   -0.0031 H   0  0  0  0  0  0  0  0  0  0  0  0
   -1.6339   -1.4356   -0.4465 H   0  0  0  0  0  0  0  0  0  0  0  0
   -3.5848    3.0348   -0.3653 O   0  0  0  0  0  0  0  0  0  0  0  0
   -4.4674    3.8581   -0.8990 C   0  0  0  0  0  0  0  0  0  0  0  0
   -5.3924    3.6193   -1.6365 O   0  0  0  0  0  0  0  0  0  0  0  0
   -4.1599    5.3059   -0.4199 C   0  0  0  0  0  0  0  0  0  0  0  0
   -4.8311    6.2028   -1.1451 F   0  0  0  0  0  0  0  0  0  0  0  0
   -4.5085    5.4514    0.8728 F   0  0  0  0  0  0  0  0  0  0  0  0
   -2.8390    5.5781   -0.5246 F   0  0  0  0  0  0  0  0  0  0  0  0
  1 11  2  0  0  0  0
  1  4  1  0  0  0  0
  2  1  1  0  0  0  0
  3  2  1  0  0  0  0
  3 16  1  0  0  0  0
  4  5  2  0  0  0  0
  5  6  1  0  0  0  0
  5 13  1  0  0  0  0
  6  7  1  0  0  0  0
  7  9  2  0  0  0  0
  7  8  2  0  0  0  0
 10 14  1  0  0  0  0
 10  6  2  0  0  0  0
 11 10  1  0  0  0  0
 12  4  1  0  0  0  0
 15 11  1  0  0  0  0
 17 19  1  0  0  0  0
 17 16  1  0  0  0  0
 18 17  2  0  0  0  0
 19 21  1  0  0  0  0
 20 19  1  0  0  0  0
 22 19  1  0  0  0  0
M  RAD  2   2   2   3   2
M  END
