Coordinates from ORCA-job 4-NO2PhN2+~CF3COO-_B3LYPG-6-31G_dp-CH-Scan-d09-49-n800
 OpenBabel11261919433D

 22 21  0  0  0  0  0  0  0  0999 V2000
   -1.4215    0.4355   -0.4481 C   0  0  0  0  0  0  0  0  0  0  0  0
   -2.7763    0.5572   -0.7904 N   0  0  0  0  0  0  0  0  0  0  0  0
   -3.8513    0.7088   -1.0464 N   0  0  0  0  0  0  0  0  0  0  0  0
   -0.8369    1.6425   -0.0525 C   0  0  0  0  0  0  0  0  0  0  0  0
    0.5329    1.4377    0.2797 C   0  0  0  0  0  0  0  0  0  0  0  0
    1.1303    0.1887    0.1967 C   0  0  0  0  0  0  0  0  0  0  0  0
    2.5655    0.0452    0.5596 N   0  0  0  0  0  0  0  0  0  0  0  0
    3.1641    1.0522    0.9238 O   0  0  0  0  0  0  0  0  0  0  0  0
    3.0616   -1.0771    0.4701 O   0  0  0  0  0  0  0  0  0  0  0  0
    0.4573   -0.9804   -0.2162 C   0  0  0  0  0  0  0  0  0  0  0  0
   -0.8715   -0.8692   -0.5550 C   0  0  0  0  0  0  0  0  0  0  0  0
   -2.1713    4.0600    0.0209 H   0  0  0  0  0  0  0  0  0  0  0  0
    1.1494    2.2677    0.6112 H   0  0  0  0  0  0  0  0  0  0  0  0
    0.9899   -1.9212   -0.2574 H   0  0  0  0  0  0  0  0  0  0  0  0
   -1.4541   -1.7251   -0.8820 H   0  0  0  0  0  0  0  0  0  0  0  0
   -2.7275    4.8653   -0.0062 O   0  0  0  0  0  0  0  0  0  0  0  0
   -3.9285    4.5379   -0.4654 C   0  0  0  0  0  0  0  0  0  0  0  0
   -4.3091    3.4416   -0.8014 O   0  0  0  0  0  0  0  0  0  0  0  0
   -4.8338    5.7881   -0.5272 C   0  0  0  0  0  0  0  0  0  0  0  0
   -6.0537    5.4562   -0.9566 F   0  0  0  0  0  0  0  0  0  0  0  0
   -4.9422    6.3489    0.6898 F   0  0  0  0  0  0  0  0  0  0  0  0
   -4.3128    6.6988   -1.3686 F   0  0  0  0  0  0  0  0  0  0  0  0
  1  4  1  0  0  0  0
  2  1  1  0  0  0  0
  3  2  1  0  0  0  0
  4  5  2  0  0  0  0
  5 13  1  0  0  0  0
  6  5  1  0  0  0  0
  6  7  1  0  0  0  0
  7  8  2  0  0  0  0
  9  7  2  0  0  0  0
 10  6  2  0  0  0  0
 11  1  2  0  0  0  0
 11 10  1  0  0  0  0
 14 10  1  0  0  0  0
 15 11  1  0  0  0  0
 16 12  1  0  0  0  0
 17 16  1  0  0  0  0
 18 17  2  0  0  0  0
 19 17  1  0  0  0  0
 19 21  1  0  0  0  0
 20 19  1  0  0  0  0
 22 19  1  0  0  0  0
M  RAD  3   2   2   3   3   4   2
M  END
