Coordinates from ORCA-job 4-NO2PhN2+~CF3COO-_B3LYPG-6-31G_dp-CH-Scan-d09-49-n800
 OpenBabel11261919433D

 22 21  0  0  0  0  0  0  0  0999 V2000
   -1.6124    0.4798   -0.4633 C   0  0  0  0  0  0  0  0  0  0  0  0
   -2.9700    0.4980   -0.8062 N   0  0  0  0  0  0  0  0  0  0  0  0
   -4.0497    0.5926   -1.0658 N   0  0  0  0  0  0  0  0  0  0  0  0
   -1.0997    1.7258   -0.0841 C   0  0  0  0  0  0  0  0  0  0  0  0
    0.2774    1.6259    0.2474 C   0  0  0  0  0  0  0  0  0  0  0  0
    0.9599    0.4194    0.1806 C   0  0  0  0  0  0  0  0  0  0  0  0
    2.4025    0.3832    0.5403 N   0  0  0  0  0  0  0  0  0  0  0  0
    2.9270    1.4352    0.8894 O   0  0  0  0  0  0  0  0  0  0  0  0
    2.9748   -0.7027    0.4635 O   0  0  0  0  0  0  0  0  0  0  0  0
    0.3673   -0.7958   -0.2130 C   0  0  0  0  0  0  0  0  0  0  0  0
   -0.9679   -0.7800   -0.5496 C   0  0  0  0  0  0  0  0  0  0  0  0
   -2.0685    3.3957   -0.0330 H   0  0  0  0  0  0  0  0  0  0  0  0
    0.8310    2.5040    0.5644 H   0  0  0  0  0  0  0  0  0  0  0  0
    0.9610   -1.6997   -0.2431 H   0  0  0  0  0  0  0  0  0  0  0  0
   -1.4903   -1.6786   -0.8626 H   0  0  0  0  0  0  0  0  0  0  0  0
   -2.5225    4.3075   -0.0023 O   0  0  0  0  0  0  0  0  0  0  0  0
   -3.7421    4.2328   -0.4797 C   0  0  0  0  0  0  0  0  0  0  0  0
   -4.3241    3.2514   -0.8980 O   0  0  0  0  0  0  0  0  0  0  0  0
   -4.4218    5.6217   -0.4582 C   0  0  0  0  0  0  0  0  0  0  0  0
   -5.6684    5.5468   -0.9360 F   0  0  0  0  0  0  0  0  0  0  0  0
   -4.4749    6.1006    0.7988 F   0  0  0  0  0  0  0  0  0  0  0  0
   -3.7281    6.4956   -1.2114 F   0  0  0  0  0  0  0  0  0  0  0  0
  1  4  1  0  0  0  0
  2  1  1  0  0  0  0
  3  2  1  0  0  0  0
  4  5  2  0  0  0  0
  5 13  1  0  0  0  0
  6  5  1  0  0  0  0
  6  7  1  0  0  0  0
  7  8  2  0  0  0  0
  9  7  2  0  0  0  0
 10  6  2  0  0  0  0
 11  1  2  0  0  0  0
 11 10  1  0  0  0  0
 12 16  1  0  0  0  0
 14 10  1  0  0  0  0
 15 11  1  0  0  0  0
 17 19  1  0  0  0  0
 17 16  1  0  0  0  0
 18 17  2  0  0  0  0
 19 21  1  0  0  0  0
 20 19  1  0  0  0  0
 22 19  1  0  0  0  0
M  RAD  3   2   2   3   3   4   2
M  END
