Coordinates from ORCA-job 4-NO2PhN2+~CF3COO-_B3LYPG-6-31G_dp-CH-Scan-d09-49-n800
 OpenBabel11261919433D

 22 21  0  0  0  0  0  0  0  0999 V2000
   -1.2150    0.4036   -0.4367 C   0  0  0  0  0  0  0  0  0  0  0  0
   -2.5571    0.6561   -0.7734 N   0  0  0  0  0  0  0  0  0  0  0  0
   -3.6125    0.9194   -1.0242 N   0  0  0  0  0  0  0  0  0  0  0  0
   -0.5330    1.5600   -0.0531 C   0  0  0  0  0  0  0  0  0  0  0  0
    0.8167    1.2301    0.2756 C   0  0  0  0  0  0  0  0  0  0  0  0
    1.2986   -0.0681    0.2022 C   0  0  0  0  0  0  0  0  0  0  0  0
    2.7151   -0.3393    0.5650 N   0  0  0  0  0  0  0  0  0  0  0  0
    3.4061    0.6123    0.9162 O   0  0  0  0  0  0  0  0  0  0  0  0
    3.1069   -1.5037    0.4905 O   0  0  0  0  0  0  0  0  0  0  0  0
    0.5218   -1.1768   -0.2008 C   0  0  0  0  0  0  0  0  0  0  0  0
   -0.7919   -0.9487   -0.5383 C   0  0  0  0  0  0  0  0  0  0  0  0
   -2.2685    4.9579    0.1032 H   0  0  0  0  0  0  0  0  0  0  0  0
    1.5092    2.0023    0.5983 H   0  0  0  0  0  0  0  0  0  0  0  0
    0.9677   -2.1618   -0.2348 H   0  0  0  0  0  0  0  0  0  0  0  0
   -1.4512   -1.7502   -0.8584 H   0  0  0  0  0  0  0  0  0  0  0  0
   -3.0051    5.5855    0.0029 O   0  0  0  0  0  0  0  0  0  0  0  0
   -4.0687    4.9101   -0.4369 C   0  0  0  0  0  0  0  0  0  0  0  0
   -4.1256    3.7303   -0.6749 O   0  0  0  0  0  0  0  0  0  0  0  0
   -5.2695    5.8674   -0.6017 C   0  0  0  0  0  0  0  0  0  0  0  0
   -6.3192    5.2087   -1.0962 F   0  0  0  0  0  0  0  0  0  0  0  0
   -5.6078    6.3911    0.5892 F   0  0  0  0  0  0  0  0  0  0  0  0
   -4.9563    6.8730   -1.4354 F   0  0  0  0  0  0  0  0  0  0  0  0
  1  4  1  0  0  0  0
  2  1  1  0  0  0  0
  3  2  1  0  0  0  0
  4  5  2  0  0  0  0
  5 13  1  0  0  0  0
  6  5  1  0  0  0  0
  6  7  1  0  0  0  0
  7  8  2  0  0  0  0
  9  7  2  0  0  0  0
 10  6  2  0  0  0  0
 11  1  2  0  0  0  0
 11 10  1  0  0  0  0
 14 10  1  0  0  0  0
 15 11  1  0  0  0  0
 16 12  1  0  0  0  0
 17 16  1  0  0  0  0
 18 17  2  0  0  0  0
 19 17  1  0  0  0  0
 19 21  1  0  0  0  0
 20 19  1  0  0  0  0
 22 19  1  0  0  0  0
M  RAD  3   2   2   3   3   4   2
M  END
