Coordinates from ORCA-job 4-NO2PhN2+~CF3COO-_B3LYPG-6-31G_dp-CH-Scan-d09-49-n800
 OpenBabel11261919433D

 22 21  0  0  0  0  0  0  0  0999 V2000
   -1.3728    0.4208   -0.4396 C   0  0  0  0  0  0  0  0  0  0  0  0
   -2.7271    0.5701   -0.7769 N   0  0  0  0  0  0  0  0  0  0  0  0
   -3.7997    0.7449   -1.0297 N   0  0  0  0  0  0  0  0  0  0  0  0
   -0.7707    1.6164   -0.0374 C   0  0  0  0  0  0  0  0  0  0  0  0
    0.5969    1.3859    0.2905 C   0  0  0  0  0  0  0  0  0  0  0  0
    1.1737    0.1280    0.1982 C   0  0  0  0  0  0  0  0  0  0  0  0
    2.6068   -0.0417    0.5580 N   0  0  0  0  0  0  0  0  0  0  0  0
    3.2226    0.9526    0.9288 O   0  0  0  0  0  0  0  0  0  0  0  0
    3.0842   -1.1716    0.4617 O   0  0  0  0  0  0  0  0  0  0  0  0
    0.4812   -1.0277   -0.2217 C   0  0  0  0  0  0  0  0  0  0  0  0
   -0.8461   -0.8928   -0.5574 C   0  0  0  0  0  0  0  0  0  0  0  0
   -2.2028    4.2424    0.0543 H   0  0  0  0  0  0  0  0  0  0  0  0
    1.2282    2.2031    0.6265 H   0  0  0  0  0  0  0  0  0  0  0  0
    0.9986   -1.9766   -0.2701 H   0  0  0  0  0  0  0  0  0  0  0  0
   -1.4434   -1.7367   -0.8892 H   0  0  0  0  0  0  0  0  0  0  0  0
   -2.7932    5.0185    0.0064 O   0  0  0  0  0  0  0  0  0  0  0  0
   -3.9743    4.6219   -0.4569 C   0  0  0  0  0  0  0  0  0  0  0  0
   -4.2937    3.5016   -0.7729 O   0  0  0  0  0  0  0  0  0  0  0  0
   -4.9374    5.8258   -0.5523 C   0  0  0  0  0  0  0  0  0  0  0  0
   -6.1379    5.4256   -0.9772 F   0  0  0  0  0  0  0  0  0  0  0  0
   -5.0771    6.4106    0.6499 F   0  0  0  0  0  0  0  0  0  0  0  0
   -4.4556    6.7382   -1.4146 F   0  0  0  0  0  0  0  0  0  0  0  0
  1  4  1  0  0  0  0
  2  1  1  0  0  0  0
  3  2  1  0  0  0  0
  4  5  2  0  0  0  0
  5 13  1  0  0  0  0
  6  5  1  0  0  0  0
  6  7  1  0  0  0  0
  7  8  2  0  0  0  0
  9  7  2  0  0  0  0
 10  6  2  0  0  0  0
 11  1  2  0  0  0  0
 11 10  1  0  0  0  0
 14 10  1  0  0  0  0
 15 11  1  0  0  0  0
 16 12  1  0  0  0  0
 17 16  1  0  0  0  0
 18 17  2  0  0  0  0
 19 17  1  0  0  0  0
 19 21  1  0  0  0  0
 20 19  1  0  0  0  0
 22 19  1  0  0  0  0
M  RAD  3   2   2   3   3   4   2
M  END
