Coordinates from ORCA-job 4-NO2PhN2+~CF3COO-_B3LYPG-6-31G_dp-CH-Scan-d09-49-n800
 OpenBabel11261919433D

 22 21  0  0  0  0  0  0  0  0999 V2000
   -1.4854    0.4480   -0.4540 C   0  0  0  0  0  0  0  0  0  0  0  0
   -2.8416    0.5331   -0.7975 N   0  0  0  0  0  0  0  0  0  0  0  0
   -3.9184    0.6602   -1.0580 N   0  0  0  0  0  0  0  0  0  0  0  0
   -0.9264    1.6697   -0.0645 C   0  0  0  0  0  0  0  0  0  0  0  0
    0.4469    1.5016    0.2688 C   0  0  0  0  0  0  0  0  0  0  0  0
    1.0745    0.2669    0.1921 C   0  0  0  0  0  0  0  0  0  0  0  0
    2.5131    0.1611    0.5545 N   0  0  0  0  0  0  0  0  0  0  0  0
    3.0861    1.1845    0.9134 O   0  0  0  0  0  0  0  0  0  0  0  0
    3.0362   -0.9492    0.4705 O   0  0  0  0  0  0  0  0  0  0  0  0
    0.4297   -0.9195   -0.2140 C   0  0  0  0  0  0  0  0  0  0  0  0
   -0.9018   -0.8422   -0.5529 C   0  0  0  0  0  0  0  0  0  0  0  0
   -2.1445    3.8255   -0.0017 H   0  0  0  0  0  0  0  0  0  0  0  0
    1.0419    2.3488    0.5954 H   0  0  0  0  0  0  0  0  0  0  0  0
    0.9843   -1.8477   -0.2506 H   0  0  0  0  0  0  0  0  0  0  0  0
   -1.4632   -1.7139   -0.8749 H   0  0  0  0  0  0  0  0  0  0  0  0
   -2.6565    4.6672   -0.0076 O   0  0  0  0  0  0  0  0  0  0  0  0
   -3.8731    4.4326   -0.4720 C   0  0  0  0  0  0  0  0  0  0  0  0
   -4.3311    3.3736   -0.8357 O   0  0  0  0  0  0  0  0  0  0  0  0
   -4.6945    5.7410   -0.5023 C   0  0  0  0  0  0  0  0  0  0  0  0
   -5.9317    5.5048   -0.9466 F   0  0  0  0  0  0  0  0  0  0  0  0
   -4.7742    6.2732    0.7301 F   0  0  0  0  0  0  0  0  0  0  0  0
   -4.1097    6.6400   -1.3141 F   0  0  0  0  0  0  0  0  0  0  0  0
  1  4  1  0  0  0  0
  2  1  1  0  0  0  0
  3  2  1  0  0  0  0
  4  5  2  0  0  0  0
  5 13  1  0  0  0  0
  6  5  1  0  0  0  0
  6  7  1  0  0  0  0
  7  8  2  0  0  0  0
  9  7  2  0  0  0  0
 10  6  2  0  0  0  0
 11  1  2  0  0  0  0
 11 10  1  0  0  0  0
 14 10  1  0  0  0  0
 15 11  1  0  0  0  0
 16 12  1  0  0  0  0
 17 16  1  0  0  0  0
 18 17  2  0  0  0  0
 19 17  1  0  0  0  0
 19 21  1  0  0  0  0
 20 19  1  0  0  0  0
 22 19  1  0  0  0  0
M  RAD  3   2   2   3   3   4   2
M  END
