Coordinates from ORCA-job 4-NO2PhN2+~CF3COO-_B3LYPG-6-31G_dp-CH-Scan-d09-49-n800
 OpenBabel11261919433D

 22 21  0  0  0  0  0  0  0  0999 V2000
   -1.3815    0.4232   -0.4404 C   0  0  0  0  0  0  0  0  0  0  0  0
   -2.7359    0.5675   -0.7781 N   0  0  0  0  0  0  0  0  0  0  0  0
   -3.8085    0.7387   -1.0331 N   0  0  0  0  0  0  0  0  0  0  0  0
   -0.7824    1.6208   -0.0392 C   0  0  0  0  0  0  0  0  0  0  0  0
    0.5857    1.3948    0.2891 C   0  0  0  0  0  0  0  0  0  0  0  0
    1.1662    0.1385    0.1978 C   0  0  0  0  0  0  0  0  0  0  0  0
    2.5998   -0.0266    0.5577 N   0  0  0  0  0  0  0  0  0  0  0  0
    3.2127    0.9700    0.9274 O   0  0  0  0  0  0  0  0  0  0  0  0
    3.0807   -1.1550    0.4620 O   0  0  0  0  0  0  0  0  0  0  0  0
    0.4772   -1.0196   -0.2211 C   0  0  0  0  0  0  0  0  0  0  0  0
   -0.8505   -0.8888   -0.5569 C   0  0  0  0  0  0  0  0  0  0  0  0
   -2.1975    4.2107    0.0501 H   0  0  0  0  0  0  0  0  0  0  0  0
    1.2144    2.2141    0.6245 H   0  0  0  0  0  0  0  0  0  0  0  0
    0.9974   -1.9670   -0.2686 H   0  0  0  0  0  0  0  0  0  0  0  0
   -1.4453   -1.7349   -0.8879 H   0  0  0  0  0  0  0  0  0  0  0  0
   -2.7820    4.9918    0.0058 O   0  0  0  0  0  0  0  0  0  0  0  0
   -3.9664    4.6073   -0.4581 C   0  0  0  0  0  0  0  0  0  0  0  0
   -4.2961    3.4910   -0.7781 O   0  0  0  0  0  0  0  0  0  0  0  0
   -4.9195    5.8196   -0.5485 C   0  0  0  0  0  0  0  0  0  0  0  0
   -6.1235    5.4310   -0.9745 F   0  0  0  0  0  0  0  0  0  0  0  0
   -5.0540    6.4009    0.6559 F   0  0  0  0  0  0  0  0  0  0  0  0
   -4.4305    6.7313   -1.4075 F   0  0  0  0  0  0  0  0  0  0  0  0
  1  4  1  0  0  0  0
  2  1  1  0  0  0  0
  3  2  1  0  0  0  0
  4  5  2  0  0  0  0
  5 13  1  0  0  0  0
  6  5  1  0  0  0  0
  6  7  1  0  0  0  0
  7  8  2  0  0  0  0
  9  7  2  0  0  0  0
 10  6  2  0  0  0  0
 11  1  2  0  0  0  0
 11 10  1  0  0  0  0
 14 10  1  0  0  0  0
 15 11  1  0  0  0  0
 16 12  1  0  0  0  0
 17 16  1  0  0  0  0
 18 17  2  0  0  0  0
 19 17  1  0  0  0  0
 19 21  1  0  0  0  0
 20 19  1  0  0  0  0
 22 19  1  0  0  0  0
M  RAD  3   2   2   3   3   4   2
M  END
