Coordinates from ORCA-job 4-NO2PhN2+~CF3COO-_B3LYPG-6-31G_dp-CH-Scan-d09-49-n800
 OpenBabel11261919433D

 22 21  0  0  0  0  0  0  0  0999 V2000
   -1.1622    0.4190   -0.4851 C   0  0  0  0  0  0  0  0  0  0  0  0
   -2.4883    0.7083   -0.8558 N   0  0  0  0  0  0  0  0  0  0  0  0
   -3.5272    1.0021   -1.1402 N   0  0  0  0  0  0  0  0  0  0  0  0
   -0.4507    1.5618   -0.1158 C   0  0  0  0  0  0  0  0  0  0  0  0
    0.8808    1.1954    0.2488 C   0  0  0  0  0  0  0  0  0  0  0  0
    1.3199   -0.1196    0.2183 C   0  0  0  0  0  0  0  0  0  0  0  0
    2.7184   -0.4287    0.6182 N   0  0  0  0  0  0  0  0  0  0  0  0
    3.4331    0.5076    0.9636 O   0  0  0  0  0  0  0  0  0  0  0  0
    3.0729   -1.6067    0.5786 O   0  0  0  0  0  0  0  0  0  0  0  0
    0.5146   -1.2119   -0.1742 C   0  0  0  0  0  0  0  0  0  0  0  0
   -0.7833   -0.9490   -0.5454 C   0  0  0  0  0  0  0  0  0  0  0  0
   -2.2643    5.1961    0.0189 H   0  0  0  0  0  0  0  0  0  0  0  0
    1.5924    1.9522    0.5663 H   0  0  0  0  0  0  0  0  0  0  0  0
    0.9278   -2.2116   -0.1747 H   0  0  0  0  0  0  0  0  0  0  0  0
   -1.4624   -1.7359   -0.8606 H   0  0  0  0  0  0  0  0  0  0  0  0
   -3.0566    5.7569   -0.0457 O   0  0  0  0  0  0  0  0  0  0  0  0
   -4.0758    4.9889   -0.4377 C   0  0  0  0  0  0  0  0  0  0  0  0
   -4.0372    3.8088   -0.6761 O   0  0  0  0  0  0  0  0  0  0  0  0
   -5.3608    5.8377   -0.5547 C   0  0  0  0  0  0  0  0  0  0  0  0
   -6.3865    5.0697   -0.9272 F   0  0  0  0  0  0  0  0  0  0  0  0
   -5.6519    6.4084    0.6263 F   0  0  0  0  0  0  0  0  0  0  0  0
   -5.1923    6.8099   -1.4674 F   0  0  0  0  0  0  0  0  0  0  0  0
  1  4  1  0  0  0  0
  2  1  1  0  0  0  0
  3  2  1  0  0  0  0
  4  5  2  0  0  0  0
  5 13  1  0  0  0  0
  6  5  1  0  0  0  0
  6  7  1  0  0  0  0
  7  8  2  0  0  0  0
  9  7  2  0  0  0  0
 10  6  2  0  0  0  0
 11  1  2  0  0  0  0
 11 10  1  0  0  0  0
 14 10  1  0  0  0  0
 15 11  1  0  0  0  0
 16 12  1  0  0  0  0
 17 16  1  0  0  0  0
 18 17  2  0  0  0  0
 19 17  1  0  0  0  0
 19 21  1  0  0  0  0
 20 19  1  0  0  0  0
 22 19  1  0  0  0  0
M  RAD  3   2   2   3   3   4   2
M  END
