Coordinates from ORCA-job 4-NO2PhN2+~CF3COO-_B3LYPG-6-31G_dp-CH-Scan-d09-49-n800
 OpenBabel11261919433D

 22 21  0  0  0  0  0  0  0  0999 V2000
   -1.4412    0.4404   -0.4509 C   0  0  0  0  0  0  0  0  0  0  0  0
   -2.7962    0.5508   -0.7942 N   0  0  0  0  0  0  0  0  0  0  0  0
   -3.8710    0.6949   -1.0552 N   0  0  0  0  0  0  0  0  0  0  0  0
   -0.8637    1.6523   -0.0587 C   0  0  0  0  0  0  0  0  0  0  0  0
    0.5069    1.4581    0.2748 C   0  0  0  0  0  0  0  0  0  0  0  0
    1.1129    0.2129    0.1956 C   0  0  0  0  0  0  0  0  0  0  0  0
    2.5490    0.0806    0.5591 N   0  0  0  0  0  0  0  0  0  0  0  0
    3.1403    1.0927    0.9210 O   0  0  0  0  0  0  0  0  0  0  0  0
    3.0527   -1.0386    0.4732 O   0  0  0  0  0  0  0  0  0  0  0  0
    0.4480   -0.9617   -0.2139 C   0  0  0  0  0  0  0  0  0  0  0  0
   -0.8815   -0.8605   -0.5533 C   0  0  0  0  0  0  0  0  0  0  0  0
   -2.1601    3.9880    0.0088 H   0  0  0  0  0  0  0  0  0  0  0  0
    1.1174    2.2934    0.6040 H   0  0  0  0  0  0  0  0  0  0  0  0
    0.9867   -1.8991   -0.2522 H   0  0  0  0  0  0  0  0  0  0  0  0
   -1.4582   -1.7214   -0.8778 H   0  0  0  0  0  0  0  0  0  0  0  0
   -2.7032    4.8043   -0.0096 O   0  0  0  0  0  0  0  0  0  0  0  0
   -3.9106    4.5048   -0.4683 C   0  0  0  0  0  0  0  0  0  0  0  0
   -4.3149    3.4193   -0.8128 O   0  0  0  0  0  0  0  0  0  0  0  0
   -4.7917    5.7729   -0.5173 C   0  0  0  0  0  0  0  0  0  0  0  0
   -6.0179    5.4694   -0.9502 F   0  0  0  0  0  0  0  0  0  0  0  0
   -4.8897    6.3231    0.7054 F   0  0  0  0  0  0  0  0  0  0  0  0
   -4.2534    6.6823   -1.3492 F   0  0  0  0  0  0  0  0  0  0  0  0
  1  4  1  0  0  0  0
  2  1  1  0  0  0  0
  3  2  1  0  0  0  0
  4  5  2  0  0  0  0
  5 13  1  0  0  0  0
  6  5  1  0  0  0  0
  6  7  1  0  0  0  0
  7  8  2  0  0  0  0
  9  7  2  0  0  0  0
 10  6  2  0  0  0  0
 11  1  2  0  0  0  0
 11 10  1  0  0  0  0
 14 10  1  0  0  0  0
 15 11  1  0  0  0  0
 16 12  1  0  0  0  0
 17 16  1  0  0  0  0
 18 17  2  0  0  0  0
 19 17  1  0  0  0  0
 19 21  1  0  0  0  0
 20 19  1  0  0  0  0
 22 19  1  0  0  0  0
M  RAD  3   2   2   3   3   4   2
M  END
