Coordinates from ORCA-job 4-NO2PhN2+~CF3COO-_B3LYPG-6-31G_dp-CH-Scan-d09-49-n800
 OpenBabel11261919433D

 22 21  0  0  0  0  0  0  0  0999 V2000
   -1.3284    0.4101   -0.4334 C   0  0  0  0  0  0  0  0  0  0  0  0
   -2.6814    0.5856   -0.7670 N   0  0  0  0  0  0  0  0  0  0  0  0
   -3.7506    0.7836   -1.0177 N   0  0  0  0  0  0  0  0  0  0  0  0
   -0.7079    1.5955   -0.0306 C   0  0  0  0  0  0  0  0  0  0  0  0
    0.6569    1.3402    0.2943 C   0  0  0  0  0  0  0  0  0  0  0  0
    1.2120    0.0728    0.1990 C   0  0  0  0  0  0  0  0  0  0  0  0
    2.6424   -0.1221    0.5568 N   0  0  0  0  0  0  0  0  0  0  0  0
    3.2761    0.8609    0.9279 O   0  0  0  0  0  0  0  0  0  0  0  0
    3.1007   -1.2598    0.4582 O   0  0  0  0  0  0  0  0  0  0  0  0
    0.4994   -1.0708   -0.2219 C   0  0  0  0  0  0  0  0  0  0  0  0
   -0.8257   -0.9127   -0.5552 C   0  0  0  0  0  0  0  0  0  0  0  0
   -2.2284    4.4181    0.0782 H   0  0  0  0  0  0  0  0  0  0  0  0
    1.3032    2.1456    0.6305 H   0  0  0  0  0  0  0  0  0  0  0  0
    1.0008   -2.0280   -0.2725 H   0  0  0  0  0  0  0  0  0  0  0  0
   -1.4381   -1.7457   -0.8877 H   0  0  0  0  0  0  0  0  0  0  0  0
   -2.8528    5.1634    0.0120 O   0  0  0  0  0  0  0  0  0  0  0  0
   -4.0117    4.6996   -0.4501 C   0  0  0  0  0  0  0  0  0  0  0  0
   -4.2712    3.5590   -0.7449 O   0  0  0  0  0  0  0  0  0  0  0  0
   -5.0315    5.8533   -0.5724 C   0  0  0  0  0  0  0  0  0  0  0  0
   -6.2042    5.3895   -1.0094 F   0  0  0  0  0  0  0  0  0  0  0  0
   -5.2166    6.4420    0.6216 F   0  0  0  0  0  0  0  0  0  0  0  0
   -4.5826    6.7794   -1.4375 F   0  0  0  0  0  0  0  0  0  0  0  0
  1  4  1  0  0  0  0
  2  1  1  0  0  0  0
  3  2  1  0  0  0  0
  4  5  2  0  0  0  0
  5 13  1  0  0  0  0
  6  5  1  0  0  0  0
  6  7  1  0  0  0  0
  7  8  2  0  0  0  0
  9  7  2  0  0  0  0
 10  6  2  0  0  0  0
 11  1  2  0  0  0  0
 11 10  1  0  0  0  0
 14 10  1  0  0  0  0
 15 11  1  0  0  0  0
 16 12  1  0  0  0  0
 17 16  1  0  0  0  0
 18 17  2  0  0  0  0
 19 17  1  0  0  0  0
 19 21  1  0  0  0  0
 20 19  1  0  0  0  0
 22 19  1  0  0  0  0
M  RAD  3   2   2   3   3   4   2
M  END
