Coordinates from ORCA-job 4-NO2PhN2+~CF3COO-_B3LYPG-6-31G_dp-CH-Scan-d09-49-n800
 OpenBabel11261919433D

 22 21  0  0  0  0  0  0  0  0999 V2000
   -1.2701    0.4022   -0.4236 C   0  0  0  0  0  0  0  0  0  0  0  0
   -2.6200    0.6168   -0.7517 N   0  0  0  0  0  0  0  0  0  0  0  0
   -3.6841    0.8477   -0.9968 N   0  0  0  0  0  0  0  0  0  0  0  0
   -0.6181    1.5728   -0.0294 C   0  0  0  0  0  0  0  0  0  0  0  0
    0.7416    1.2798    0.2893 C   0  0  0  0  0  0  0  0  0  0  0  0
    1.2610   -0.0028    0.1974 C   0  0  0  0  0  0  0  0  0  0  0  0
    2.6871   -0.2361    0.5491 N   0  0  0  0  0  0  0  0  0  0  0  0
    3.3510    0.7310    0.9097 O   0  0  0  0  0  0  0  0  0  0  0  0
    3.1128   -1.3870    0.4563 O   0  0  0  0  0  0  0  0  0  0  0  0
    0.5149   -1.1287   -0.2147 C   0  0  0  0  0  0  0  0  0  0  0  0
   -0.8068   -0.9353   -0.5425 C   0  0  0  0  0  0  0  0  0  0  0  0
   -2.2529    4.6964    0.1120 H   0  0  0  0  0  0  0  0  0  0  0  0
    1.4124    2.0680    0.6185 H   0  0  0  0  0  0  0  0  0  0  0  0
    0.9894   -2.0997   -0.2631 H   0  0  0  0  0  0  0  0  0  0  0  0
   -1.4440   -1.7522   -0.8683 H   0  0  0  0  0  0  0  0  0  0  0  0
   -2.9335    5.3856    0.0170 O   0  0  0  0  0  0  0  0  0  0  0  0
   -4.0458    4.8115   -0.4417 C   0  0  0  0  0  0  0  0  0  0  0  0
   -4.2027    3.6449   -0.7019 O   0  0  0  0  0  0  0  0  0  0  0  0
   -5.1591    5.8703   -0.6009 C   0  0  0  0  0  0  0  0  0  0  0  0
   -6.2608    5.3093   -1.1029 F   0  0  0  0  0  0  0  0  0  0  0  0
   -5.4545    6.4132    0.5930 F   0  0  0  0  0  0  0  0  0  0  0  0
   -4.7573    6.8513   -1.4264 F   0  0  0  0  0  0  0  0  0  0  0  0
  1  4  1  0  0  0  0
  2  1  1  0  0  0  0
  3  2  1  0  0  0  0
  4  5  2  0  0  0  0
  5 13  1  0  0  0  0
  6  5  1  0  0  0  0
  6  7  1  0  0  0  0
  7  8  2  0  0  0  0
  9  7  2  0  0  0  0
 10  6  2  0  0  0  0
 11  1  2  0  0  0  0
 11 10  1  0  0  0  0
 14 10  1  0  0  0  0
 15 11  1  0  0  0  0
 16 12  1  0  0  0  0
 17 16  1  0  0  0  0
 18 17  2  0  0  0  0
 19 17  1  0  0  0  0
 19 21  1  0  0  0  0
 20 19  1  0  0  0  0
 22 19  1  0  0  0  0
M  RAD  3   2   2   3   3   4   2
M  END
