Coordinates from ORCA-job 4-NO2PhN2+~CF3COO-_B3LYPG-6-31G_dp-CH-Scan-d09-49-n800
 OpenBabel11261919433D

 22 21  0  0  0  0  0  0  0  0999 V2000
   -1.1224    0.4278   -0.4936 C   0  0  0  0  0  0  0  0  0  0  0  0
   -2.4399    0.7480   -0.8707 N   0  0  0  0  0  0  0  0  0  0  0  0
   -3.4695    1.0682   -1.1608 N   0  0  0  0  0  0  0  0  0  0  0  0
   -0.3824    1.5573   -0.1405 C   0  0  0  0  0  0  0  0  0  0  0  0
    0.9392    1.1621    0.2305 C   0  0  0  0  0  0  0  0  0  0  0  0
    1.3440   -0.1642    0.2206 C   0  0  0  0  0  0  0  0  0  0  0  0
    2.7338   -0.5034    0.6261 N   0  0  0  0  0  0  0  0  0  0  0  0
    3.4703    0.4183    0.9648 O   0  0  0  0  0  0  0  0  0  0  0  0
    3.0581   -1.6906    0.6034 O   0  0  0  0  0  0  0  0  0  0  0  0
    0.5107   -1.2412   -0.1563 C   0  0  0  0  0  0  0  0  0  0  0  0
   -0.7796   -0.9504   -0.5332 C   0  0  0  0  0  0  0  0  0  0  0  0
   -2.2925    5.3896   -0.0007 H   0  0  0  0  0  0  0  0  0  0  0  0
    1.6701    1.9052    0.5365 H   0  0  0  0  0  0  0  0  0  0  0  0
    0.8980   -2.2511   -0.1412 H   0  0  0  0  0  0  0  0  0  0  0  0
   -1.4785   -1.7241   -0.8378 H   0  0  0  0  0  0  0  0  0  0  0  0
   -3.1190    5.8983   -0.0682 O   0  0  0  0  0  0  0  0  0  0  0  0
   -4.0897    5.0589   -0.4386 C   0  0  0  0  0  0  0  0  0  0  0  0
   -3.9741    3.8804   -0.6582 O   0  0  0  0  0  0  0  0  0  0  0  0
   -5.4293    5.8188   -0.5518 C   0  0  0  0  0  0  0  0  0  0  0  0
   -6.3977    4.9880   -0.9417 F   0  0  0  0  0  0  0  0  0  0  0  0
   -5.7639    6.3481    0.6372 F   0  0  0  0  0  0  0  0  0  0  0  0
   -5.3249    6.8152   -1.4474 F   0  0  0  0  0  0  0  0  0  0  0  0
  1  4  1  0  0  0  0
  2  1  1  0  0  0  0
  3  2  1  0  0  0  0
  4  5  2  0  0  0  0
  5 13  1  0  0  0  0
  6  5  1  0  0  0  0
  6  7  1  0  0  0  0
  7  8  2  0  0  0  0
  9  7  2  0  0  0  0
 10 14  1  0  0  0  0
 10  6  2  0  0  0  0
 11  1  2  0  0  0  0
 11 10  1  0  0  0  0
 15 11  1  0  0  0  0
 16 12  1  0  0  0  0
 17 16  1  0  0  0  0
 18 17  2  0  0  0  0
 19 17  1  0  0  0  0
 19 21  1  0  0  0  0
 20 19  1  0  0  0  0
 22 19  1  0  0  0  0
M  RAD  3   2   2   3   3   4   2
M  END
