Coordinates from ORCA-job 4-NO2PhN2+~CF3COO-_B3LYPG-6-31G_dp-CH-Scan-d09-49-n800
 OpenBabel11261919433D

 22 21  0  0  0  0  0  0  0  0999 V2000
   -1.1799    0.4149   -0.4727 C   0  0  0  0  0  0  0  0  0  0  0  0
   -2.5110    0.6919   -0.8340 N   0  0  0  0  0  0  0  0  0  0  0  0
   -3.5550    0.9757   -1.1096 N   0  0  0  0  0  0  0  0  0  0  0  0
   -0.4798    1.5619   -0.0944 C   0  0  0  0  0  0  0  0  0  0  0  0
    0.8570    1.2073    0.2614 C   0  0  0  0  0  0  0  0  0  0  0  0
    1.3112   -0.1021    0.2155 C   0  0  0  0  0  0  0  0  0  0  0  0
    2.7147   -0.3990    0.6072 N   0  0  0  0  0  0  0  0  0  0  0  0
    3.4199    0.5419    0.9592 O   0  0  0  0  0  0  0  0  0  0  0  0
    3.0823   -1.5725    0.5552 O   0  0  0  0  0  0  0  0  0  0  0  0
    0.5171   -1.1995   -0.1853 C   0  0  0  0  0  0  0  0  0  0  0  0
   -0.7853   -0.9478   -0.5487 C   0  0  0  0  0  0  0  0  0  0  0  0
   -2.2567    5.1199    0.0275 H   0  0  0  0  0  0  0  0  0  0  0  0
    1.5611    1.9689    0.5843 H   0  0  0  0  0  0  0  0  0  0  0  0
    0.9419   -2.1943   -0.1979 H   0  0  0  0  0  0  0  0  0  0  0  0
   -1.4565   -1.7392   -0.8693 H   0  0  0  0  0  0  0  0  0  0  0  0
   -3.0329    5.7021   -0.0431 O   0  0  0  0  0  0  0  0  0  0  0  0
   -4.0704    4.9622   -0.4403 C   0  0  0  0  0  0  0  0  0  0  0  0
   -4.0635    3.7811   -0.6773 O   0  0  0  0  0  0  0  0  0  0  0  0
   -5.3315    5.8452   -0.5631 C   0  0  0  0  0  0  0  0  0  0  0  0
   -6.3727    5.1076   -0.9538 F   0  0  0  0  0  0  0  0  0  0  0  0
   -5.6202    6.4110    0.6211 F   0  0  0  0  0  0  0  0  0  0  0  0
   -5.1293    6.8221   -1.4636 F   0  0  0  0  0  0  0  0  0  0  0  0
  1  4  1  0  0  0  0
  2  1  1  0  0  0  0
  3  2  1  0  0  0  0
  4  5  2  0  0  0  0
  5 13  1  0  0  0  0
  6  5  1  0  0  0  0
  6  7  1  0  0  0  0
  7  8  2  0  0  0  0
  9  7  2  0  0  0  0
 10  6  2  0  0  0  0
 11  1  2  0  0  0  0
 11 10  1  0  0  0  0
 14 10  1  0  0  0  0
 15 11  1  0  0  0  0
 16 12  1  0  0  0  0
 17 16  1  0  0  0  0
 18 17  2  0  0  0  0
 19 17  1  0  0  0  0
 19 21  1  0  0  0  0
 20 19  1  0  0  0  0
 22 19  1  0  0  0  0
M  RAD  3   2   2   3   3   4   2
M  END
