Coordinates from ORCA-job 4-NO2PhN2+~CF3COO-_B3LYPG-6-31G_dp-CH-Scan-d09-49-n800
 OpenBabel11261919433D

 22 21  0  0  0  0  0  0  0  0999 V2000
   -1.4912    0.4490   -0.4547 C   0  0  0  0  0  0  0  0  0  0  0  0
   -2.8474    0.5311   -0.7983 N   0  0  0  0  0  0  0  0  0  0  0  0
   -3.9244    0.6563   -1.0590 N   0  0  0  0  0  0  0  0  0  0  0  0
   -0.9345    1.6720   -0.0657 C   0  0  0  0  0  0  0  0  0  0  0  0
    0.4390    1.5073    0.2677 C   0  0  0  0  0  0  0  0  0  0  0  0
    1.0694    0.2739    0.1916 C   0  0  0  0  0  0  0  0  0  0  0  0
    2.5082    0.1716    0.5540 N   0  0  0  0  0  0  0  0  0  0  0  0
    3.0788    1.1965    0.9126 O   0  0  0  0  0  0  0  0  0  0  0  0
    3.0338   -0.9376    0.4705 O   0  0  0  0  0  0  0  0  0  0  0  0
    0.4272   -0.9140   -0.2139 C   0  0  0  0  0  0  0  0  0  0  0  0
   -0.9045   -0.8398   -0.5527 C   0  0  0  0  0  0  0  0  0  0  0  0
   -2.1421    3.8050   -0.0034 H   0  0  0  0  0  0  0  0  0  0  0  0
    1.0320    2.3561    0.5939 H   0  0  0  0  0  0  0  0  0  0  0  0
    0.9837   -1.8410   -0.2500 H   0  0  0  0  0  0  0  0  0  0  0  0
   -1.4641   -1.7129   -0.8743 H   0  0  0  0  0  0  0  0  0  0  0  0
   -2.6503    4.6499   -0.0076 O   0  0  0  0  0  0  0  0  0  0  0  0
   -3.8678    4.4233   -0.4723 C   0  0  0  0  0  0  0  0  0  0  0  0
   -4.3324    3.3677   -0.8383 O   0  0  0  0  0  0  0  0  0  0  0  0
   -4.6818    5.7363   -0.5001 C   0  0  0  0  0  0  0  0  0  0  0  0
   -5.9202    5.5084   -0.9456 F   0  0  0  0  0  0  0  0  0  0  0  0
   -4.7592    6.2663    0.7335 F   0  0  0  0  0  0  0  0  0  0  0  0
   -4.0916    6.6339   -1.3096 F   0  0  0  0  0  0  0  0  0  0  0  0
  1  4  1  0  0  0  0
  2  1  1  0  0  0  0
  3  2  1  0  0  0  0
  4  5  2  0  0  0  0
  5 13  1  0  0  0  0
  6  5  1  0  0  0  0
  6  7  1  0  0  0  0
  7  8  2  0  0  0  0
  9  7  2  0  0  0  0
 10  6  2  0  0  0  0
 11  1  2  0  0  0  0
 11 10  1  0  0  0  0
 14 10  1  0  0  0  0
 15 11  1  0  0  0  0
 16 12  1  0  0  0  0
 17 16  1  0  0  0  0
 18 17  2  0  0  0  0
 19 17  1  0  0  0  0
 19 21  1  0  0  0  0
 20 19  1  0  0  0  0
 22 19  1  0  0  0  0
M  RAD  3   2   2   3   3   4   2
M  END
