Coordinates from ORCA-job 4-NO2PhN2+~CF3COO-_B3LYPG-6-31G_dp-CH-Scan-d09-49-n800
 OpenBabel11261919433D

 22 22  0  0  0  0  0  0  0  0999 V2000
   -1.6968    0.7266   -0.3464 C   0  0  0  0  0  0  0  0  0  0  0  0
   -3.0782    0.6421   -0.6334 N   0  0  0  0  0  0  0  0  0  0  0  0
   -3.9991    1.3748   -0.7603 N   0  0  0  0  0  0  0  0  0  0  0  0
   -0.9823    1.9254   -0.1536 C   0  0  0  0  0  0  0  0  0  0  0  0
    0.3825    1.8462    0.1074 C   0  0  0  0  0  0  0  0  0  0  0  0
    0.9978    0.5980    0.1750 C   0  0  0  0  0  0  0  0  0  0  0  0
    2.4491    0.5349    0.4562 N   0  0  0  0  0  0  0  0  0  0  0  0
    3.0398    1.5996    0.6135 O   0  0  0  0  0  0  0  0  0  0  0  0
    2.9628   -0.5793    0.5127 O   0  0  0  0  0  0  0  0  0  0  0  0
    0.3021   -0.5938   -0.0127 C   0  0  0  0  0  0  0  0  0  0  0  0
   -1.0592   -0.5226   -0.2790 C   0  0  0  0  0  0  0  0  0  0  0  0
   -1.4574    2.8323   -0.2060 H   0  0  0  0  0  0  0  0  0  0  0  0
    0.9741    2.7398    0.2613 H   0  0  0  0  0  0  0  0  0  0  0  0
    0.8266   -1.5387    0.0486 H   0  0  0  0  0  0  0  0  0  0  0  0
   -1.6461   -1.4199   -0.4381 H   0  0  0  0  0  0  0  0  0  0  0  0
   -3.5542    2.9798   -0.4573 O   0  0  0  0  0  0  0  0  0  0  0  0
   -4.4702    3.8388   -0.8828 C   0  0  0  0  0  0  0  0  0  0  0  0
   -5.4664    3.6373   -1.5293 O   0  0  0  0  0  0  0  0  0  0  0  0
   -4.0825    5.2625   -0.3927 C   0  0  0  0  0  0  0  0  0  0  0  0
   -4.7717    6.1950   -1.0527 F   0  0  0  0  0  0  0  0  0  0  0  0
   -4.3458    5.3827    0.9226 F   0  0  0  0  0  0  0  0  0  0  0  0
   -2.7644    5.4977   -0.5748 F   0  0  0  0  0  0  0  0  0  0  0  0
  1 11  2  0  0  0  0
  1  4  1  0  0  0  0
  2  1  1  0  0  0  0
  3  2  1  0  0  0  0
  3 16  1  0  0  0  0
  4  5  2  0  0  0  0
  5  6  1  0  0  0  0
  5 13  1  0  0  0  0
  6  7  1  0  0  0  0
  7  9  2  0  0  0  0
  7  8  2  0  0  0  0
 10 14  1  0  0  0  0
 10  6  2  0  0  0  0
 11 10  1  0  0  0  0
 12  4  1  0  0  0  0
 15 11  1  0  0  0  0
 17 16  1  0  0  0  0
 17 19  1  0  0  0  0
 18 17  2  0  0  0  0
 19 21  1  0  0  0  0
 20 19  1  0  0  0  0
 22 19  1  0  0  0  0
M  RAD  2   2   2   3   2
M  END
