Coordinates from ORCA-job 4-NO2PhN2+~CF3COO-_B3LYPG-6-31G_dp-CH-Scan-d09-49-n800
 OpenBabel11261919433D

 22 22  0  0  0  0  0  0  0  0999 V2000
   -1.6708    0.6779   -0.2635 C   0  0  0  0  0  0  0  0  0  0  0  0
   -3.0599    0.6480   -0.4906 N   0  0  0  0  0  0  0  0  0  0  0  0
   -4.0052    1.3254   -0.5832 N   0  0  0  0  0  0  0  0  0  0  0  0
   -0.9571    1.8640   -0.0323 C   0  0  0  0  0  0  0  0  0  0  0  0
    0.4131    1.7993    0.1733 C   0  0  0  0  0  0  0  0  0  0  0  0
    1.0332    0.5498    0.1473 C   0  0  0  0  0  0  0  0  0  0  0  0
    2.4961    0.4804    0.3719 N   0  0  0  0  0  0  0  0  0  0  0  0
    3.0833    1.5370    0.5829 O   0  0  0  0  0  0  0  0  0  0  0  0
    3.0151   -0.6323    0.3514 O   0  0  0  0  0  0  0  0  0  0  0  0
    0.3399   -0.6381   -0.0801 C   0  0  0  0  0  0  0  0  0  0  0  0
   -1.0316   -0.5720   -0.2899 C   0  0  0  0  0  0  0  0  0  0  0  0
   -1.6903    3.0574   -0.0257 H   0  0  0  0  0  0  0  0  0  0  0  0
    1.0049    2.6873    0.3543 H   0  0  0  0  0  0  0  0  0  0  0  0
    0.8765   -1.5781   -0.0900 H   0  0  0  0  0  0  0  0  0  0  0  0
   -1.6151   -1.4669   -0.4743 H   0  0  0  0  0  0  0  0  0  0  0  0
   -3.6167    3.0682   -0.2330 O   0  0  0  0  0  0  0  0  0  0  0  0
   -4.4148    3.8679   -0.9040 C   0  0  0  0  0  0  0  0  0  0  0  0
   -5.2370    3.5992   -1.7493 O   0  0  0  0  0  0  0  0  0  0  0  0
   -4.1654    5.3367   -0.4553 C   0  0  0  0  0  0  0  0  0  0  0  0
   -4.7944    6.2004   -1.2553 F   0  0  0  0  0  0  0  0  0  0  0  0
   -4.6010    5.5253    0.8050 F   0  0  0  0  0  0  0  0  0  0  0  0
   -2.8422    5.6224   -0.4812 F   0  0  0  0  0  0  0  0  0  0  0  0
  1  4  1  0  0  0  0
  2  1  1  0  0  0  0
  3  2  1  0  0  0  0
  3 16  1  0  0  0  0
  4 12  1  0  0  0  0
  4  5  2  0  0  0  0
  5 13  1  0  0  0  0
  6  5  1  0  0  0  0
  6  7  1  0  0  0  0
  7  8  2  0  0  0  0
  9  7  2  0  0  0  0
 10  6  2  0  0  0  0
 11  1  2  0  0  0  0
 11 10  1  0  0  0  0
 14 10  1  0  0  0  0
 15 11  1  0  0  0  0
 17 19  1  0  0  0  0
 17 16  1  0  0  0  0
 18 17  2  0  0  0  0
 19 21  1  0  0  0  0
 20 19  1  0  0  0  0
 22 19  1  0  0  0  0
M  RAD  2   2   2   3   2
M  END
