Coordinates from ORCA-job 4-NO2PhN2+~CF3COO-_B3LYPG-6-31G_dp-CH-Scan-d09-49-n800
 OpenBabel11261919433D

 22 22  0  0  0  0  0  0  0  0999 V2000
   -1.7097    0.7264   -0.3528 C   0  0  0  0  0  0  0  0  0  0  0  0
   -3.0908    0.6325   -0.6427 N   0  0  0  0  0  0  0  0  0  0  0  0
   -4.0065    1.3752   -0.7698 N   0  0  0  0  0  0  0  0  0  0  0  0
   -1.0043    1.9312   -0.1610 C   0  0  0  0  0  0  0  0  0  0  0  0
    0.3606    1.8578    0.1036 C   0  0  0  0  0  0  0  0  0  0  0  0
    0.9838    0.6141    0.1756 C   0  0  0  0  0  0  0  0  0  0  0  0
    2.4345    0.5604    0.4604 N   0  0  0  0  0  0  0  0  0  0  0  0
    3.0185    1.6290    0.6168 O   0  0  0  0  0  0  0  0  0  0  0  0
    2.9549   -0.5505    0.5211 O   0  0  0  0  0  0  0  0  0  0  0  0
    0.2955   -0.5820   -0.0113 C   0  0  0  0  0  0  0  0  0  0  0  0
   -1.0657   -0.5187   -0.2810 C   0  0  0  0  0  0  0  0  0  0  0  0
   -1.4369    2.7529   -0.2113 H   0  0  0  0  0  0  0  0  0  0  0  0
    0.9463    2.7556    0.2570 H   0  0  0  0  0  0  0  0  0  0  0  0
    0.8251   -1.5238    0.0533 H   0  0  0  0  0  0  0  0  0  0  0  0
   -1.6475   -1.4194   -0.4395 H   0  0  0  0  0  0  0  0  0  0  0  0
   -3.5471    2.9622   -0.4708 O   0  0  0  0  0  0  0  0  0  0  0  0
   -4.4614    3.8335   -0.8799 C   0  0  0  0  0  0  0  0  0  0  0  0
   -5.4687    3.6439   -1.5117 O   0  0  0  0  0  0  0  0  0  0  0  0
   -4.0512    5.2499   -0.3881 C   0  0  0  0  0  0  0  0  0  0  0  0
   -4.7412    6.1926   -1.0322 F   0  0  0  0  0  0  0  0  0  0  0  0
   -4.2935    5.3644    0.9317 F   0  0  0  0  0  0  0  0  0  0  0  0
   -2.7340    5.4722   -0.5891 F   0  0  0  0  0  0  0  0  0  0  0  0
  1 11  2  0  0  0  0
  1  4  1  0  0  0  0
  2  1  1  0  0  0  0
  3  2  1  0  0  0  0
  3 16  1  0  0  0  0
  4  5  2  0  0  0  0
  5  6  1  0  0  0  0
  5 13  1  0  0  0  0
  6  7  1  0  0  0  0
  7  9  2  0  0  0  0
  7  8  2  0  0  0  0
 10 14  1  0  0  0  0
 10  6  2  0  0  0  0
 11 10  1  0  0  0  0
 12  4  1  0  0  0  0
 15 11  1  0  0  0  0
 17 16  1  0  0  0  0
 17 19  1  0  0  0  0
 18 17  2  0  0  0  0
 19 21  1  0  0  0  0
 20 19  1  0  0  0  0
 22 19  1  0  0  0  0
M  RAD  2   2   2   3   2
M  END
