Coordinates from ORCA-job 4-NO2PhN2+~CF3COO-_B3LYPG-6-31G_dp-CH-Scan-d09-49-n800
 OpenBabel11261919433D

 22 22  0  0  0  0  0  0  0  0999 V2000
   -1.6928    0.7265   -0.3435 C   0  0  0  0  0  0  0  0  0  0  0  0
   -3.0745    0.6452   -0.6290 N   0  0  0  0  0  0  0  0  0  0  0  0
   -3.9970    1.3748   -0.7554 N   0  0  0  0  0  0  0  0  0  0  0  0
   -0.9754    1.9233   -0.1501 C   0  0  0  0  0  0  0  0  0  0  0  0
    0.3893    1.8424    0.1090 C   0  0  0  0  0  0  0  0  0  0  0  0
    1.0022    0.5928    0.1745 C   0  0  0  0  0  0  0  0  0  0  0  0
    2.4539    0.5268    0.4538 N   0  0  0  0  0  0  0  0  0  0  0  0
    3.0466    1.5902    0.6119 O   0  0  0  0  0  0  0  0  0  0  0  0
    2.9656   -0.5884    0.5086 O   0  0  0  0  0  0  0  0  0  0  0  0
    0.3044   -0.5976   -0.0137 C   0  0  0  0  0  0  0  0  0  0  0  0
   -1.0572   -0.5239   -0.2782 C   0  0  0  0  0  0  0  0  0  0  0  0
   -1.4643    2.8569   -0.2027 H   0  0  0  0  0  0  0  0  0  0  0  0
    0.9827    2.7348    0.2631 H   0  0  0  0  0  0  0  0  0  0  0  0
    0.8273   -1.5434    0.0459 H   0  0  0  0  0  0  0  0  0  0  0  0
   -1.6456   -1.4201   -0.4377 H   0  0  0  0  0  0  0  0  0  0  0  0
   -3.5571    2.9855   -0.4507 O   0  0  0  0  0  0  0  0  0  0  0  0
   -4.4722    3.8407   -0.8844 C   0  0  0  0  0  0  0  0  0  0  0  0
   -5.4631    3.6352   -1.5381 O   0  0  0  0  0  0  0  0  0  0  0  0
   -4.0928    5.2667   -0.3945 C   0  0  0  0  0  0  0  0  0  0  0  0
   -4.7805    6.1958   -1.0608 F   0  0  0  0  0  0  0  0  0  0  0  0
   -4.3649    5.3888    0.9188 F   0  0  0  0  0  0  0  0  0  0  0  0
   -2.7741    5.5061   -0.5684 F   0  0  0  0  0  0  0  0  0  0  0  0
  1 11  2  0  0  0  0
  1  4  1  0  0  0  0
  2  1  1  0  0  0  0
  3  2  1  0  0  0  0
  3 16  1  0  0  0  0
  4  5  2  0  0  0  0
  5  6  1  0  0  0  0
  5 13  1  0  0  0  0
  6  7  1  0  0  0  0
  7  9  2  0  0  0  0
  7  8  2  0  0  0  0
 10 14  1  0  0  0  0
 10  6  2  0  0  0  0
 11 10  1  0  0  0  0
 12  4  1  0  0  0  0
 15 11  1  0  0  0  0
 17 16  1  0  0  0  0
 17 19  1  0  0  0  0
 18 17  2  0  0  0  0
 19 21  1  0  0  0  0
 20 19  1  0  0  0  0
 22 19  1  0  0  0  0
M  RAD  2   2   2   3   2
M  END
