Coordinates from ORCA-job 4-NO2PhN2+~CF3COO-_B3LYPG-6-31G_dp-CH-Scan-d09-49-n800
 OpenBabel11261919433D

 22 21  0  0  0  0  0  0  0  0999 V2000
   -1.5538    0.4637   -0.4610 C   0  0  0  0  0  0  0  0  0  0  0  0
   -2.9105    0.5112   -0.8063 N   0  0  0  0  0  0  0  0  0  0  0  0
   -3.9889    0.6166   -1.0683 N   0  0  0  0  0  0  0  0  0  0  0  0
   -1.0212    1.6995   -0.0772 C   0  0  0  0  0  0  0  0  0  0  0  0
    0.3544    1.5692    0.2567 C   0  0  0  0  0  0  0  0  0  0  0  0
    1.0129    0.3499    0.1866 C   0  0  0  0  0  0  0  0  0  0  0  0
    2.4538    0.2830    0.5487 N   0  0  0  0  0  0  0  0  0  0  0  0
    2.9999    1.3227    0.9020 O   0  0  0  0  0  0  0  0  0  0  0  0
    3.0045   -0.8141    0.4699 O   0  0  0  0  0  0  0  0  0  0  0  0
    0.3974   -0.8532   -0.2126 C   0  0  0  0  0  0  0  0  0  0  0  0
   -0.9361   -0.8104   -0.5516 C   0  0  0  0  0  0  0  0  0  0  0  0
   -2.1093    3.5896   -0.0225 H   0  0  0  0  0  0  0  0  0  0  0  0
    0.9265    2.4337    0.5783 H   0  0  0  0  0  0  0  0  0  0  0  0
    0.9740   -1.7680   -0.2445 H   0  0  0  0  0  0  0  0  0  0  0  0
   -1.4755   -1.6975   -0.8688 H   0  0  0  0  0  0  0  0  0  0  0  0
   -2.5825    4.4678   -0.0091 O   0  0  0  0  0  0  0  0  0  0  0  0
   -3.8068    4.3230   -0.4748 C   0  0  0  0  0  0  0  0  0  0  0  0
   -4.3387    3.3049   -0.8620 O   0  0  0  0  0  0  0  0  0  0  0  0
   -4.5453    5.6809   -0.4771 C   0  0  0  0  0  0  0  0  0  0  0  0
   -5.7924    5.5371   -0.9353 F   0  0  0  0  0  0  0  0  0  0  0  0
   -4.6022    6.1866    0.7684 F   0  0  0  0  0  0  0  0  0  0  0  0
   -3.8996    6.5632   -1.2611 F   0  0  0  0  0  0  0  0  0  0  0  0
  1  4  1  0  0  0  0
  2  1  1  0  0  0  0
  3  2  1  0  0  0  0
  4  5  2  0  0  0  0
  5 13  1  0  0  0  0
  6  5  1  0  0  0  0
  6  7  1  0  0  0  0
  7  8  2  0  0  0  0
  9  7  2  0  0  0  0
 10  6  2  0  0  0  0
 11  1  2  0  0  0  0
 11 10  1  0  0  0  0
 12 16  1  0  0  0  0
 14 10  1  0  0  0  0
 15 11  1  0  0  0  0
 17 16  1  0  0  0  0
 18 17  2  0  0  0  0
 19 17  1  0  0  0  0
 19 21  1  0  0  0  0
 20 19  1  0  0  0  0
 22 19  1  0  0  0  0
M  RAD  3   2   2   3   3   4   2
M  END
