Coordinates from ORCA-job 4-NO2PhN2+~CF3COO-_B3LYPG-6-31G_dp-CH-Scan-d09-49-n800
 OpenBabel11261919433D

 22 22  0  0  0  0  0  0  0  0999 V2000
   -1.6945    0.7266   -0.3446 C   0  0  0  0  0  0  0  0  0  0  0  0
   -3.0761    0.6440   -0.6306 N   0  0  0  0  0  0  0  0  0  0  0  0
   -3.9979    1.3749   -0.7572 N   0  0  0  0  0  0  0  0  0  0  0  0
   -0.9784    1.9243   -0.1516 C   0  0  0  0  0  0  0  0  0  0  0  0
    0.3864    1.8440    0.1082 C   0  0  0  0  0  0  0  0  0  0  0  0
    1.0003    0.5950    0.1746 C   0  0  0  0  0  0  0  0  0  0  0  0
    2.4519    0.5302    0.4547 N   0  0  0  0  0  0  0  0  0  0  0  0
    3.0437    1.5942    0.6124 O   0  0  0  0  0  0  0  0  0  0  0  0
    2.9644   -0.5846    0.5103 O   0  0  0  0  0  0  0  0  0  0  0  0
    0.3034   -0.5959   -0.0133 C   0  0  0  0  0  0  0  0  0  0  0  0
   -1.0581   -0.5233   -0.2784 C   0  0  0  0  0  0  0  0  0  0  0  0
   -1.4603    2.8446   -0.2041 H   0  0  0  0  0  0  0  0  0  0  0  0
    0.9791    2.7370    0.2622 H   0  0  0  0  0  0  0  0  0  0  0  0
    0.8270   -1.5414    0.0471 H   0  0  0  0  0  0  0  0  0  0  0  0
   -1.6459   -1.4200   -0.4376 H   0  0  0  0  0  0  0  0  0  0  0  0
   -3.5559    2.9833   -0.4534 O   0  0  0  0  0  0  0  0  0  0  0  0
   -4.4710    3.8401   -0.8842 C   0  0  0  0  0  0  0  0  0  0  0  0
   -5.4642    3.6362   -1.5349 O   0  0  0  0  0  0  0  0  0  0  0  0
   -4.0887    5.2651   -0.3937 C   0  0  0  0  0  0  0  0  0  0  0  0
   -4.7771    6.1957   -1.0572 F   0  0  0  0  0  0  0  0  0  0  0  0
   -4.3575    5.3860    0.9204 F   0  0  0  0  0  0  0  0  0  0  0  0
   -2.7703    5.5031   -0.5706 F   0  0  0  0  0  0  0  0  0  0  0  0
  1 11  2  0  0  0  0
  1  4  1  0  0  0  0
  2  1  1  0  0  0  0
  3  2  1  0  0  0  0
  3 16  1  0  0  0  0
  4  5  2  0  0  0  0
  5  6  1  0  0  0  0
  5 13  1  0  0  0  0
  6  7  1  0  0  0  0
  7  9  2  0  0  0  0
  7  8  2  0  0  0  0
 10 14  1  0  0  0  0
 10  6  2  0  0  0  0
 11 10  1  0  0  0  0
 12  4  1  0  0  0  0
 15 11  1  0  0  0  0
 17 16  1  0  0  0  0
 17 19  1  0  0  0  0
 18 17  2  0  0  0  0
 19 21  1  0  0  0  0
 20 19  1  0  0  0  0
 22 19  1  0  0  0  0
M  RAD  2   2   2   3   2
M  END
