Coordinates from ORCA-job 4-NO2PhN2+~CF3COO-_B3LYPG-6-31G_dp-CH-Scan-d09-49-n800
 OpenBabel11261919433D

 22 21  0  0  0  0  0  0  0  0999 V2000
   -0.8018    1.0495   -1.6051 C   0  0  0  0  0  0  0  0  0  0  0  0
   -1.6833    1.4178   -2.6374 N   0  0  0  0  0  0  0  0  0  0  0  0
   -2.3047    1.7329   -3.5096 N   0  0  0  0  0  0  0  0  0  0  0  0
    0.5280    1.1853   -2.0013 C   0  0  0  0  0  0  0  0  0  0  0  0
    1.3870    0.7838   -0.9331 C   0  0  0  0  0  0  0  0  0  0  0  0
    0.8886    0.3154    0.2738 C   0  0  0  0  0  0  0  0  0  0  0  0
    1.8380   -0.1057    1.3376 N   0  0  0  0  0  0  0  0  0  0  0  0
    3.0374   -0.0736    1.0790 O   0  0  0  0  0  0  0  0  0  0  0  0
    1.3619   -0.4575    2.4174 O   0  0  0  0  0  0  0  0  0  0  0  0
   -0.4889    0.2191    0.5764 C   0  0  0  0  0  0  0  0  0  0  0  0
   -1.3877    0.6032   -0.3916 C   0  0  0  0  0  0  0  0  0  0  0  0
   -1.9856    5.0497   -0.4469 H   0  0  0  0  0  0  0  0  0  0  0  0
    2.4668    0.8329   -1.0466 H   0  0  0  0  0  0  0  0  0  0  0  0
   -0.8006   -0.1438    1.5462 H   0  0  0  0  0  0  0  0  0  0  0  0
   -2.4612    0.5798   -0.2320 H   0  0  0  0  0  0  0  0  0  0  0  0
   -2.8443    5.1939   -0.0129 O   0  0  0  0  0  0  0  0  0  0  0  0
   -3.6213    4.1414   -0.2711 C   0  0  0  0  0  0  0  0  0  0  0  0
   -3.3214    3.1774   -0.9317 O   0  0  0  0  0  0  0  0  0  0  0  0
   -5.0037    4.3210    0.3940 C   0  0  0  0  0  0  0  0  0  0  0  0
   -5.7546    3.2386    0.1847 F   0  0  0  0  0  0  0  0  0  0  0  0
   -4.8637    4.5069    1.7155 F   0  0  0  0  0  0  0  0  0  0  0  0
   -5.6246    5.3912   -0.1272 F   0  0  0  0  0  0  0  0  0  0  0  0
  1 11  1  0  0  0  0
  2  1  1  0  0  0  0
  3  2  1  0  0  0  0
  4  1  2  0  0  0  0
  4  5  1  0  0  0  0
  5  6  2  0  0  0  0
  6 10  1  0  0  0  0
  6  7  1  0  0  0  0
  7  9  2  0  0  0  0
  8  7  2  0  0  0  0
 10 14  1  0  0  0  0
 11 15  1  0  0  0  0
 11 10  2  0  0  0  0
 12 16  1  0  0  0  0
 13  5  1  0  0  0  0
 17 16  1  0  0  0  0
 17 19  1  0  0  0  0
 18 17  2  0  0  0  0
 19 21  1  0  0  0  0
 20 19  1  0  0  0  0
 22 19  1  0  0  0  0
M  RAD  3   2   2   3   3   4   2
M  END
