Coordinates from ORCA-job 4-NO2PhN2+~CF3COO-_B3LYPG-6-31G_dp-CH-Scan-d09-49-n800
 OpenBabel11261919433D

 22 21  0  0  0  0  0  0  0  0999 V2000
   -0.8299    1.0350   -1.6141 C   0  0  0  0  0  0  0  0  0  0  0  0
   -1.7119    1.3843   -2.6519 N   0  0  0  0  0  0  0  0  0  0  0  0
   -2.3388    1.6805   -3.5268 N   0  0  0  0  0  0  0  0  0  0  0  0
    0.4974    1.2590   -1.9782 C   0  0  0  0  0  0  0  0  0  0  0  0
    1.3572    0.8747   -0.9042 C   0  0  0  0  0  0  0  0  0  0  0  0
    0.8634    0.3469    0.2798 C   0  0  0  0  0  0  0  0  0  0  0  0
    1.8147   -0.0473    1.3523 N   0  0  0  0  0  0  0  0  0  0  0  0
    3.0147    0.0724    1.1245 O   0  0  0  0  0  0  0  0  0  0  0  0
    1.3390   -0.4669    2.4078 O   0  0  0  0  0  0  0  0  0  0  0  0
   -0.5117    0.1628    0.5505 C   0  0  0  0  0  0  0  0  0  0  0  0
   -1.4122    0.5212   -0.4258 C   0  0  0  0  0  0  0  0  0  0  0  0
   -1.9190    4.9567   -0.4636 H   0  0  0  0  0  0  0  0  0  0  0  0
    2.4345    0.9868   -0.9943 H   0  0  0  0  0  0  0  0  0  0  0  0
   -0.8210   -0.2444    1.5034 H   0  0  0  0  0  0  0  0  0  0  0  0
   -2.4853    0.4284   -0.2897 H   0  0  0  0  0  0  0  0  0  0  0  0
   -2.7658    5.1320   -0.0178 O   0  0  0  0  0  0  0  0  0  0  0  0
   -3.5891    4.1145   -0.2733 C   0  0  0  0  0  0  0  0  0  0  0  0
   -3.3392    3.1428   -0.9433 O   0  0  0  0  0  0  0  0  0  0  0  0
   -4.9548    4.3491    0.4093 C   0  0  0  0  0  0  0  0  0  0  0  0
   -5.7499    3.2960    0.2139 F   0  0  0  0  0  0  0  0  0  0  0  0
   -4.7911    4.5341    1.7282 F   0  0  0  0  0  0  0  0  0  0  0  0
   -5.5408    5.4407   -0.1084 F   0  0  0  0  0  0  0  0  0  0  0  0
  1 11  1  0  0  0  0
  2  1  1  0  0  0  0
  3  2  1  0  0  0  0
  4  1  2  0  0  0  0
  4  5  1  0  0  0  0
  5  6  2  0  0  0  0
  6 10  1  0  0  0  0
  6  7  1  0  0  0  0
  7  9  2  0  0  0  0
  8  7  2  0  0  0  0
 10 14  1  0  0  0  0
 11 15  1  0  0  0  0
 11 10  2  0  0  0  0
 12 16  1  0  0  0  0
 13  5  1  0  0  0  0
 17 16  1  0  0  0  0
 17 19  1  0  0  0  0
 18 17  2  0  0  0  0
 19 21  1  0  0  0  0
 20 19  1  0  0  0  0
 22 19  1  0  0  0  0
M  RAD  3   2   2   3   3   4   2
M  END
