Coordinates from ORCA-job 4-NO2PhN2+~CF3COO-_B3LYPG-6-31G_dp-CH-Scan-d09-49-n800
 OpenBabel11261919433D

 22 21  0  0  0  0  0  0  0  0999 V2000
   -1.2260    0.4007   -0.4266 C   0  0  0  0  0  0  0  0  0  0  0  0
   -2.5711    0.6454   -0.7560 N   0  0  0  0  0  0  0  0  0  0  0  0
   -3.6289    0.9027   -1.0034 N   0  0  0  0  0  0  0  0  0  0  0  0
   -0.5503    1.5594   -0.0386 C   0  0  0  0  0  0  0  0  0  0  0  0
    0.8030    1.2373    0.2825 C   0  0  0  0  0  0  0  0  0  0  0  0
    1.2938   -0.0571    0.1989 C   0  0  0  0  0  0  0  0  0  0  0  0
    2.7138   -0.3203    0.5538 N   0  0  0  0  0  0  0  0  0  0  0  0
    3.3992    0.6339    0.9088 O   0  0  0  0  0  0  0  0  0  0  0  0
    3.1136   -1.4812    0.4701 O   0  0  0  0  0  0  0  0  0  0  0  0
    0.5231   -1.1687   -0.2076 C   0  0  0  0  0  0  0  0  0  0  0  0
   -0.7935   -0.9479   -0.5380 C   0  0  0  0  0  0  0  0  0  0  0  0
   -2.2730    4.9072    0.1246 H   0  0  0  0  0  0  0  0  0  0  0  0
    1.4913    2.0123    0.6073 H   0  0  0  0  0  0  0  0  0  0  0  0
    0.9759   -2.1503   -0.2497 H   0  0  0  0  0  0  0  0  0  0  0  0
   -1.4486   -1.7521   -0.8601 H   0  0  0  0  0  0  0  0  0  0  0  0
   -2.9972    5.5480    0.0176 O   0  0  0  0  0  0  0  0  0  0  0  0
   -4.0680    4.8931   -0.4350 C   0  0  0  0  0  0  0  0  0  0  0  0
   -4.1443    3.7149   -0.6758 O   0  0  0  0  0  0  0  0  0  0  0  0
   -5.2489    5.8727   -0.6116 C   0  0  0  0  0  0  0  0  0  0  0  0
   -6.3053    5.2347   -1.1188 F   0  0  0  0  0  0  0  0  0  0  0  0
   -5.5907    6.4011    0.5763 F   0  0  0  0  0  0  0  0  0  0  0  0
   -4.9077    6.8736   -1.4402 F   0  0  0  0  0  0  0  0  0  0  0  0
  1  4  1  0  0  0  0
  2  1  1  0  0  0  0
  3  2  1  0  0  0  0
  4  5  2  0  0  0  0
  5 13  1  0  0  0  0
  6  5  1  0  0  0  0
  6  7  1  0  0  0  0
  7  8  2  0  0  0  0
  9  7  2  0  0  0  0
 10  6  2  0  0  0  0
 11  1  2  0  0  0  0
 11 10  1  0  0  0  0
 14 10  1  0  0  0  0
 15 11  1  0  0  0  0
 16 12  1  0  0  0  0
 17 16  1  0  0  0  0
 18 17  2  0  0  0  0
 19 17  1  0  0  0  0
 19 21  1  0  0  0  0
 20 19  1  0  0  0  0
 22 19  1  0  0  0  0
M  RAD  3   2   2   3   3   4   2
M  END
