Coordinates from ORCA-job 4-NO2PhN2+~CF3COO-_B3LYPG-6-31G_dp-CH-Scan-d09-49-n800
 OpenBabel11261919433D

 22 21  0  0  0  0  0  0  0  0999 V2000
   -1.1416    0.4220   -0.4870 C   0  0  0  0  0  0  0  0  0  0  0  0
   -2.4639    0.7269   -0.8593 N   0  0  0  0  0  0  0  0  0  0  0  0
   -3.4989    1.0336   -1.1445 N   0  0  0  0  0  0  0  0  0  0  0  0
   -0.4153    1.5583   -0.1268 C   0  0  0  0  0  0  0  0  0  0  0  0
    0.9117    1.1773    0.2393 C   0  0  0  0  0  0  0  0  0  0  0  0
    1.3336   -0.1435    0.2186 C   0  0  0  0  0  0  0  0  0  0  0  0
    2.7284   -0.4677    0.6197 N   0  0  0  0  0  0  0  0  0  0  0  0
    3.4555    0.4617    0.9574 O   0  0  0  0  0  0  0  0  0  0  0  0
    3.0687   -1.6500    0.5851 O   0  0  0  0  0  0  0  0  0  0  0  0
    0.5137   -1.2282   -0.1649 C   0  0  0  0  0  0  0  0  0  0  0  0
   -0.7809   -0.9512   -0.5373 C   0  0  0  0  0  0  0  0  0  0  0  0
   -2.2825    5.2940    0.0235 H   0  0  0  0  0  0  0  0  0  0  0  0
    1.6334    1.9274    0.5503 H   0  0  0  0  0  0  0  0  0  0  0  0
    0.9140   -2.2331   -0.1580 H   0  0  0  0  0  0  0  0  0  0  0  0
   -1.4704   -1.7316   -0.8462 H   0  0  0  0  0  0  0  0  0  0  0  0
   -3.0919    5.8291   -0.0461 O   0  0  0  0  0  0  0  0  0  0  0  0
   -4.0851    5.0260   -0.4360 C   0  0  0  0  0  0  0  0  0  0  0  0
   -4.0065    3.8467   -0.6674 O   0  0  0  0  0  0  0  0  0  0  0  0
   -5.3971    5.8314   -0.5586 C   0  0  0  0  0  0  0  0  0  0  0  0
   -6.3929    5.0316   -0.9445 F   0  0  0  0  0  0  0  0  0  0  0  0
   -5.7167    6.3832    0.6241 F   0  0  0  0  0  0  0  0  0  0  0  0
   -5.2548    6.8153   -1.4631 F   0  0  0  0  0  0  0  0  0  0  0  0
  1  4  1  0  0  0  0
  2  1  1  0  0  0  0
  3  2  1  0  0  0  0
  4  5  2  0  0  0  0
  5 13  1  0  0  0  0
  6  5  1  0  0  0  0
  6  7  1  0  0  0  0
  7  8  2  0  0  0  0
  9  7  2  0  0  0  0
 10 14  1  0  0  0  0
 10  6  2  0  0  0  0
 11  1  2  0  0  0  0
 11 10  1  0  0  0  0
 15 11  1  0  0  0  0
 16 12  1  0  0  0  0
 17 16  1  0  0  0  0
 18 17  2  0  0  0  0
 19 17  1  0  0  0  0
 19 21  1  0  0  0  0
 20 19  1  0  0  0  0
 22 19  1  0  0  0  0
M  RAD  3   2   2   3   3   4   2
M  END
