Coordinates from ORCA-job 4-NO2PhN2+~CF3COO-_B3LYPG-6-31G_dp-CH-Scan-d09-49-n800
 OpenBabel11261919433D

 22 21  0  0  0  0  0  0  0  0999 V2000
   -1.3356    0.4113   -0.4344 C   0  0  0  0  0  0  0  0  0  0  0  0
   -2.6888    0.5823   -0.7686 N   0  0  0  0  0  0  0  0  0  0  0  0
   -3.7585    0.7767   -1.0199 N   0  0  0  0  0  0  0  0  0  0  0  0
   -0.7184    1.5984   -0.0313 C   0  0  0  0  0  0  0  0  0  0  0  0
    0.6469    1.3474    0.2941 C   0  0  0  0  0  0  0  0  0  0  0  0
    1.2059    0.0817    0.1991 C   0  0  0  0  0  0  0  0  0  0  0  0
    2.6367   -0.1089    0.5573 N   0  0  0  0  0  0  0  0  0  0  0  0
    3.2674    0.8761    0.9282 O   0  0  0  0  0  0  0  0  0  0  0  0
    3.0985   -1.2451    0.4583 O   0  0  0  0  0  0  0  0  0  0  0  0
    0.4969   -1.0640   -0.2221 C   0  0  0  0  0  0  0  0  0  0  0  0
   -0.8286   -0.9099   -0.5559 C   0  0  0  0  0  0  0  0  0  0  0  0
   -2.2245    4.3890    0.0749 H   0  0  0  0  0  0  0  0  0  0  0  0
    1.2905    2.1547    0.6307 H   0  0  0  0  0  0  0  0  0  0  0  0
    1.0011   -2.0197   -0.2726 H   0  0  0  0  0  0  0  0  0  0  0  0
   -1.4383   -1.7447   -0.8886 H   0  0  0  0  0  0  0  0  0  0  0  0
   -2.8433    5.1396    0.0117 O   0  0  0  0  0  0  0  0  0  0  0  0
   -4.0062    4.6871   -0.4510 C   0  0  0  0  0  0  0  0  0  0  0  0
   -4.2756    3.5497   -0.7495 O   0  0  0  0  0  0  0  0  0  0  0  0
   -5.0163    5.8496   -0.5693 C   0  0  0  0  0  0  0  0  0  0  0  0
   -6.1945    5.3964   -1.0027 F   0  0  0  0  0  0  0  0  0  0  0  0
   -5.1925    6.4394    0.6255 F   0  0  0  0  0  0  0  0  0  0  0  0
   -4.5622    6.7722   -1.4355 F   0  0  0  0  0  0  0  0  0  0  0  0
  1  4  1  0  0  0  0
  2  1  1  0  0  0  0
  3  2  1  0  0  0  0
  4  5  2  0  0  0  0
  5 13  1  0  0  0  0
  6  5  1  0  0  0  0
  6  7  1  0  0  0  0
  7  8  2  0  0  0  0
  9  7  2  0  0  0  0
 10  6  2  0  0  0  0
 11  1  2  0  0  0  0
 11 10  1  0  0  0  0
 14 10  1  0  0  0  0
 15 11  1  0  0  0  0
 16 12  1  0  0  0  0
 17 16  1  0  0  0  0
 18 17  2  0  0  0  0
 19 17  1  0  0  0  0
 19 21  1  0  0  0  0
 20 19  1  0  0  0  0
 22 19  1  0  0  0  0
M  RAD  3   2   2   3   3   4   2
M  END
