Coordinates from ORCA-job 4-NO2PhN2+~CF3COO-_B3LYPG-6-31G_dp-CH-Scan-d09-49-n800
 OpenBabel11261919433D

 22 21  0  0  0  0  0  0  0  0999 V2000
   -1.3133    0.4079   -0.4328 C   0  0  0  0  0  0  0  0  0  0  0  0
   -2.6651    0.5930   -0.7669 N   0  0  0  0  0  0  0  0  0  0  0  0
   -3.7346    0.7981   -1.0112 N   0  0  0  0  0  0  0  0  0  0  0  0
   -0.6858    1.5897   -0.0308 C   0  0  0  0  0  0  0  0  0  0  0  0
    0.6777    1.3253    0.2937 C   0  0  0  0  0  0  0  0  0  0  0  0
    1.2243    0.0542    0.1995 C   0  0  0  0  0  0  0  0  0  0  0  0
    2.6533   -0.1501    0.5574 N   0  0  0  0  0  0  0  0  0  0  0  0
    3.2939    0.8290    0.9274 O   0  0  0  0  0  0  0  0  0  0  0  0
    3.1040   -1.2910    0.4600 O   0  0  0  0  0  0  0  0  0  0  0  0
    0.5041   -1.0851   -0.2206 C   0  0  0  0  0  0  0  0  0  0  0  0
   -0.8199   -0.9185   -0.5540 C   0  0  0  0  0  0  0  0  0  0  0  0
   -2.2339    4.4825    0.0817 H   0  0  0  0  0  0  0  0  0  0  0  0
    1.3296    2.1265    0.6291 H   0  0  0  0  0  0  0  0  0  0  0  0
    0.9992   -2.0457   -0.2706 H   0  0  0  0  0  0  0  0  0  0  0  0
   -1.4378   -1.7475   -0.8861 H   0  0  0  0  0  0  0  0  0  0  0  0
   -2.8710    5.2159    0.0088 O   0  0  0  0  0  0  0  0  0  0  0  0
   -4.0217    4.7264   -0.4487 C   0  0  0  0  0  0  0  0  0  0  0  0
   -4.2590    3.5788   -0.7339 O   0  0  0  0  0  0  0  0  0  0  0  0
   -5.0636    5.8595   -0.5778 C   0  0  0  0  0  0  0  0  0  0  0  0
   -6.2233    5.3723   -1.0234 F   0  0  0  0  0  0  0  0  0  0  0  0
   -5.2687    6.4424    0.6159 F   0  0  0  0  0  0  0  0  0  0  0  0
   -4.6277    6.7956   -1.4383 F   0  0  0  0  0  0  0  0  0  0  0  0
  1  4  1  0  0  0  0
  2  1  1  0  0  0  0
  3  2  1  0  0  0  0
  4  5  2  0  0  0  0
  5 13  1  0  0  0  0
  6  5  1  0  0  0  0
  6  7  1  0  0  0  0
  7  8  2  0  0  0  0
  9  7  2  0  0  0  0
 10  6  2  0  0  0  0
 11  1  2  0  0  0  0
 11 10  1  0  0  0  0
 14 10  1  0  0  0  0
 15 11  1  0  0  0  0
 16 12  1  0  0  0  0
 17 16  1  0  0  0  0
 18 17  2  0  0  0  0
 19 17  1  0  0  0  0
 19 21  1  0  0  0  0
 20 19  1  0  0  0  0
 22 19  1  0  0  0  0
M  RAD  3   2   2   3   3   4   2
M  END
