Coordinates from ORCA-job 4-NO2PhN2+~CF3COO-_B3LYPG-6-31G_dp-CH-Scan-d09-49-n800
 OpenBabel11261919433D

 22 21  0  0  0  0  0  0  0  0999 V2000
   -1.5734    0.4693   -0.4638 C   0  0  0  0  0  0  0  0  0  0  0  0
   -2.9300    0.5066   -0.8100 N   0  0  0  0  0  0  0  0  0  0  0  0
   -4.0086    0.6072   -1.0727 N   0  0  0  0  0  0  0  0  0  0  0  0
   -1.0480    1.7087   -0.0814 C   0  0  0  0  0  0  0  0  0  0  0  0
    0.3279    1.5887    0.2532 C   0  0  0  0  0  0  0  0  0  0  0  0
    0.9946    0.3737    0.1852 C   0  0  0  0  0  0  0  0  0  0  0  0
    2.4358    0.3172    0.5478 N   0  0  0  0  0  0  0  0  0  0  0  0
    2.9745    1.3614    0.8995 O   0  0  0  0  0  0  0  0  0  0  0  0
    2.9939   -0.7761    0.4705 O   0  0  0  0  0  0  0  0  0  0  0  0
    0.3872   -0.8338   -0.2122 C   0  0  0  0  0  0  0  0  0  0  0  0
   -0.9465   -0.8001   -0.5517 C   0  0  0  0  0  0  0  0  0  0  0  0
   -2.0955    3.5240   -0.0292 H   0  0  0  0  0  0  0  0  0  0  0  0
    0.8936    2.4579    0.5736 H   0  0  0  0  0  0  0  0  0  0  0  0
    0.9696   -1.7450   -0.2426 H   0  0  0  0  0  0  0  0  0  0  0  0
   -1.4800   -1.6912   -0.8677 H   0  0  0  0  0  0  0  0  0  0  0  0
   -2.5602    4.4131   -0.0106 O   0  0  0  0  0  0  0  0  0  0  0  0
   -3.7858    4.2917   -0.4744 C   0  0  0  0  0  0  0  0  0  0  0  0
   -4.3375    3.2849   -0.8663 O   0  0  0  0  0  0  0  0  0  0  0  0
   -4.5030    5.6612   -0.4696 C   0  0  0  0  0  0  0  0  0  0  0  0
   -5.7524    5.5405   -0.9288 F   0  0  0  0  0  0  0  0  0  0  0  0
   -4.5524    6.1615    0.7785 F   0  0  0  0  0  0  0  0  0  0  0  0
   -3.8433    6.5379   -1.2488 F   0  0  0  0  0  0  0  0  0  0  0  0
  1  4  1  0  0  0  0
  2  1  1  0  0  0  0
  3  2  1  0  0  0  0
  4  5  2  0  0  0  0
  5 13  1  0  0  0  0
  6  5  1  0  0  0  0
  6  7  1  0  0  0  0
  7  8  2  0  0  0  0
  9  7  2  0  0  0  0
 10  6  2  0  0  0  0
 11  1  2  0  0  0  0
 11 10  1  0  0  0  0
 12 16  1  0  0  0  0
 14 10  1  0  0  0  0
 15 11  1  0  0  0  0
 17 19  1  0  0  0  0
 17 16  1  0  0  0  0
 18 17  2  0  0  0  0
 19 21  1  0  0  0  0
 20 19  1  0  0  0  0
 22 19  1  0  0  0  0
M  RAD  3   2   2   3   3   4   2
M  END
