Coordinates from ORCA-job 4-NO2PhN2+~CF3COO-_B3LYPG-6-31G_dp-CH-Scan-d09-49-n800
 OpenBabel11261919433D

 22 21  0  0  0  0  0  0  0  0999 V2000
   -1.4087    0.4315   -0.4463 C   0  0  0  0  0  0  0  0  0  0  0  0
   -2.7635    0.5602   -0.7869 N   0  0  0  0  0  0  0  0  0  0  0  0
   -3.8383    0.7175   -1.0407 N   0  0  0  0  0  0  0  0  0  0  0  0
   -0.8195    1.6357   -0.0490 C   0  0  0  0  0  0  0  0  0  0  0  0
    0.5499    1.4243    0.2815 C   0  0  0  0  0  0  0  0  0  0  0  0
    1.1421    0.1730    0.1957 C   0  0  0  0  0  0  0  0  0  0  0  0
    2.5770    0.0229    0.5571 N   0  0  0  0  0  0  0  0  0  0  0  0
    3.1783    1.0253    0.9295 O   0  0  0  0  0  0  0  0  0  0  0  0
    3.0666   -1.1026    0.4720 O   0  0  0  0  0  0  0  0  0  0  0  0
    0.4640   -0.9927   -0.2188 C   0  0  0  0  0  0  0  0  0  0  0  0
   -0.8645   -0.8755   -0.5563 C   0  0  0  0  0  0  0  0  0  0  0  0
   -2.1790    4.1078    0.0292 H   0  0  0  0  0  0  0  0  0  0  0  0
    1.1704    2.2510    0.6139 H   0  0  0  0  0  0  0  0  0  0  0  0
    0.9928   -1.9356   -0.2622 H   0  0  0  0  0  0  0  0  0  0  0  0
   -1.4510   -1.7283   -0.8845 H   0  0  0  0  0  0  0  0  0  0  0  0
   -2.7441    4.9056   -0.0035 O   0  0  0  0  0  0  0  0  0  0  0  0
   -3.9406    4.5599   -0.4630 C   0  0  0  0  0  0  0  0  0  0  0  0
   -4.3054    3.4569   -0.7932 O   0  0  0  0  0  0  0  0  0  0  0  0
   -4.8613    5.7984   -0.5335 C   0  0  0  0  0  0  0  0  0  0  0  0
   -6.0770    5.4480   -0.9598 F   0  0  0  0  0  0  0  0  0  0  0  0
   -4.9759    6.3669    0.6792 F   0  0  0  0  0  0  0  0  0  0  0  0
   -4.3518    6.7088   -1.3822 F   0  0  0  0  0  0  0  0  0  0  0  0
  1  4  1  0  0  0  0
  2  1  1  0  0  0  0
  3  2  1  0  0  0  0
  4  5  2  0  0  0  0
  5 13  1  0  0  0  0
  6  5  1  0  0  0  0
  6  7  1  0  0  0  0
  7  8  2  0  0  0  0
  9  7  2  0  0  0  0
 10  6  2  0  0  0  0
 11  1  2  0  0  0  0
 11 10  1  0  0  0  0
 14 10  1  0  0  0  0
 15 11  1  0  0  0  0
 16 12  1  0  0  0  0
 17 16  1  0  0  0  0
 18 17  2  0  0  0  0
 19 17  1  0  0  0  0
 19 21  1  0  0  0  0
 20 19  1  0  0  0  0
 22 19  1  0  0  0  0
M  RAD  3   2   2   3   3   4   2
M  END
