Coordinates from ORCA-job 4-NO2PhN2+~CF3COO-_B3LYPG-6-31G_dp-CH-Scan-d09-49-n800
 OpenBabel11261919433D

 22 22  0  0  0  0  0  0  0  0999 V2000
   -1.6638    0.7013   -0.2954 C   0  0  0  0  0  0  0  0  0  0  0  0
   -3.0494    0.6603   -0.5482 N   0  0  0  0  0  0  0  0  0  0  0  0
   -3.9886    1.3525   -0.6595 N   0  0  0  0  0  0  0  0  0  0  0  0
   -0.9358    1.8834   -0.0810 C   0  0  0  0  0  0  0  0  0  0  0  0
    0.4307    1.8048    0.1471 C   0  0  0  0  0  0  0  0  0  0  0  0
    1.0372    0.5489    0.1609 C   0  0  0  0  0  0  0  0  0  0  0  0
    2.4951    0.4686    0.4090 N   0  0  0  0  0  0  0  0  0  0  0  0
    3.0930    1.5239    0.5966 O   0  0  0  0  0  0  0  0  0  0  0  0
    3.0017   -0.6500    0.4224 O   0  0  0  0  0  0  0  0  0  0  0  0
    0.3323   -0.6347   -0.0486 C   0  0  0  0  0  0  0  0  0  0  0  0
   -1.0346   -0.5545   -0.2816 C   0  0  0  0  0  0  0  0  0  0  0  0
   -1.6017    3.0582   -0.1058 H   0  0  0  0  0  0  0  0  0  0  0  0
    1.0300    2.6902    0.3159 H   0  0  0  0  0  0  0  0  0  0  0  0
    0.8557   -1.5819   -0.0280 H   0  0  0  0  0  0  0  0  0  0  0  0
   -1.6269   -1.4459   -0.4546 H   0  0  0  0  0  0  0  0  0  0  0  0
   -3.5937    3.0516   -0.3289 O   0  0  0  0  0  0  0  0  0  0  0  0
   -4.4583    3.8647   -0.9012 C   0  0  0  0  0  0  0  0  0  0  0  0
   -5.3560    3.6141   -1.6694 O   0  0  0  0  0  0  0  0  0  0  0  0
   -4.1729    5.3201   -0.4313 C   0  0  0  0  0  0  0  0  0  0  0  0
   -4.8415    6.2048   -1.1738 F   0  0  0  0  0  0  0  0  0  0  0  0
   -4.5394    5.4760    0.8552 F   0  0  0  0  0  0  0  0  0  0  0  0
   -2.8525    5.6028   -0.5215 F   0  0  0  0  0  0  0  0  0  0  0  0
  1 11  2  0  0  0  0
  1  4  1  0  0  0  0
  2  1  1  0  0  0  0
  3  2  1  0  0  0  0
  3 16  1  0  0  0  0
  4  5  2  0  0  0  0
  5  6  1  0  0  0  0
  5 13  1  0  0  0  0
  6  7  1  0  0  0  0
  7  9  2  0  0  0  0
  7  8  2  0  0  0  0
 10 14  1  0  0  0  0
 10  6  2  0  0  0  0
 11 10  1  0  0  0  0
 12  4  1  0  0  0  0
 15 11  1  0  0  0  0
 17 19  1  0  0  0  0
 17 16  1  0  0  0  0
 18 17  2  0  0  0  0
 19 21  1  0  0  0  0
 20 19  1  0  0  0  0
 22 19  1  0  0  0  0
M  RAD  2   2   2   3   2
M  END
