Coordinates from ORCA-job 4-NO2PhN2+~CF3COO-_B3LYPG-6-31G_dp-CH-Scan-d09-49-n800
 OpenBabel11261919433D

 22 21  0  0  0  0  0  0  0  0999 V2000
   -1.4144    0.4329   -0.4459 C   0  0  0  0  0  0  0  0  0  0  0  0
   -2.7694    0.5585   -0.7865 N   0  0  0  0  0  0  0  0  0  0  0  0
   -3.8431    0.7143   -1.0456 N   0  0  0  0  0  0  0  0  0  0  0  0
   -0.8272    1.6384   -0.0494 C   0  0  0  0  0  0  0  0  0  0  0  0
    0.5424    1.4297    0.2816 C   0  0  0  0  0  0  0  0  0  0  0  0
    1.1370    0.1794    0.1966 C   0  0  0  0  0  0  0  0  0  0  0  0
    2.5721    0.0322    0.5583 N   0  0  0  0  0  0  0  0  0  0  0  0
    3.1732    1.0373    0.9239 O   0  0  0  0  0  0  0  0  0  0  0  0
    3.0654   -1.0912    0.4677 O   0  0  0  0  0  0  0  0  0  0  0  0
    0.4611   -0.9877   -0.2173 C   0  0  0  0  0  0  0  0  0  0  0  0
   -0.8677   -0.8731   -0.5550 C   0  0  0  0  0  0  0  0  0  0  0  0
   -2.1762    4.0877    0.0284 H   0  0  0  0  0  0  0  0  0  0  0  0
    1.1613    2.2578    0.6138 H   0  0  0  0  0  0  0  0  0  0  0  0
    0.9915   -1.9296   -0.2600 H   0  0  0  0  0  0  0  0  0  0  0  0
   -1.4526   -1.7273   -0.8825 H   0  0  0  0  0  0  0  0  0  0  0  0
   -2.7379    4.8885   -0.0019 O   0  0  0  0  0  0  0  0  0  0  0  0
   -3.9355    4.5507   -0.4636 C   0  0  0  0  0  0  0  0  0  0  0  0
   -4.3061    3.4507   -0.7974 O   0  0  0  0  0  0  0  0  0  0  0  0
   -4.8495    5.7942   -0.5317 C   0  0  0  0  0  0  0  0  0  0  0  0
   -6.0663    5.4517   -0.9615 F   0  0  0  0  0  0  0  0  0  0  0  0
   -4.9637    6.3592    0.6827 F   0  0  0  0  0  0  0  0  0  0  0  0
   -4.3338    6.7049   -1.3762 F   0  0  0  0  0  0  0  0  0  0  0  0
  1  4  1  0  0  0  0
  2  1  1  0  0  0  0
  3  2  1  0  0  0  0
  4  5  2  0  0  0  0
  5 13  1  0  0  0  0
  6  5  1  0  0  0  0
  6  7  1  0  0  0  0
  7  8  2  0  0  0  0
  9  7  2  0  0  0  0
 10  6  2  0  0  0  0
 11  1  2  0  0  0  0
 11 10  1  0  0  0  0
 14 10  1  0  0  0  0
 15 11  1  0  0  0  0
 16 12  1  0  0  0  0
 17 16  1  0  0  0  0
 18 17  2  0  0  0  0
 19 17  1  0  0  0  0
 19 21  1  0  0  0  0
 20 19  1  0  0  0  0
 22 19  1  0  0  0  0
M  RAD  3   2   2   3   3   4   2
M  END
