23
Coordinates from ORCA-job 4-MeOPhN2+~HSO4-_B3LYPG-6-31G_dp-CH-Scan-d09-49-n800
  C   -1.97037444584500      0.01984636940019     -0.11105953651475
  N   -3.32213891564207     -0.20179959504868     -0.06089890613557
  N   -4.42724712495147     -0.35804596178897     -0.02370992725511
  C   -1.51836605202523      1.33953206184649     -0.34284324018020
  C   -0.14194886048519      1.48524397483149     -0.39447435913329
  C   0.73495297836957      0.39469936624500     -0.22637324904659
  O   2.04407507236769      0.68130218785666     -0.30241597304283
  C   3.01088151282208     -0.35828807789067     -0.14655595021737
  C   0.23105827100226     -0.91018169227808      0.00426382763822
  C   -1.13242870411639     -1.10511118730837      0.06055375934846
  H   -2.38173933614950      2.38812397427970     -0.48375352873798
  H   0.29904060497357      2.46235803475292     -0.56663904406439
  H   3.98120841297304      0.12590869884837     -0.25262470584546
  H   2.89857065642439     -1.12401970088873     -0.92237391553324
  H   2.94128495866315     -0.81967435024797      0.84473792150059
  H   0.89586193216599     -1.75378905548071      0.13664216270130
  H   -1.55015118808866     -2.09102042218296      0.23757684527392
  S   -4.41791030928334      3.39468664184798      0.33001327629194
  O   -3.23786252418541      3.45733235444648     -0.62653597664621
  O   -5.65555036287801      3.90753352387601     -0.26138052680476
  O   -4.45891175774914      2.09053978395208      1.01780380081925
  O   -4.02733638811330      4.46767384476724      1.52908042661707
  H   -4.53745543024895      5.26683322616461      1.32485181896714
