18
Coordinates from ORCA-job 4-MeOPhN2+~Cl-_B3LYPG-6-31G_dp-CH-Scan-d09-49-n800
  C   -1.41444089200356     -0.66831115140712     -0.08845833843418
  N   -2.76771054714801     -0.90294844577664      0.00555137785099
  N   -3.88190097734879     -1.02396966700662      0.08242527384420
  C   -1.09222055566876      0.70892563806052     -0.11138794773961
  C   0.30322000301289      0.86958004204611     -0.21053405634849
  C   1.21657204208222     -0.19399573014123     -0.27592645047642
  O   2.52517999176425      0.14266873202294     -0.37086724521535
  C   3.51592131442269     -0.87552852428128     -0.44296816910786
  C   0.77840815752023     -1.55119899497930     -0.24301284785460
  C   -0.56803662561711     -1.80828181788801     -0.14726636324563
  H   -3.23583317225078      5.08695804614862      0.38636405751438
  H   0.74456549762064      1.86683114272360     -0.24193107926052
  H   4.47167403141240     -0.35571981091936     -0.51703884883128
  H   3.38142384577333     -1.50867775121706     -1.32848747932180
  H   3.51723313108153     -1.50300304289018      0.45695457845866
  H   1.48308813408774     -2.37140324524364     -0.29158107118291
  H   -0.95188580222895     -2.82550447916615     -0.11872354639801
  Cl  -3.89585757651194      6.17687905991475      0.56178815574842
