18
Coordinates from ORCA-job 4-MeOPhN2+~Cl-_B3LYPG-6-31G_dp-CH-Scan-d09-49-n800
  C   -1.55998714906911      0.01498725603626     -0.01559805019091
  N   -2.94656346190029     -0.11921312319196      0.09490481126517
  N   -3.95354933811331      0.46412936061092      0.20820690242985
  C   -0.90651093741685      1.26464779205684     -0.02363525057807
  C   0.47061002480709      1.28930423057195     -0.13675213900535
  C   1.20993675855745      0.09403648482229     -0.24120848867687
  O   2.54708047943172      0.24612029616519     -0.34427426252152
  C   3.37013958032350     -0.91244417703617     -0.44866419171808
  C   0.54929409247190     -1.14723607702144     -0.23310512617102
  C   -0.83394330559132     -1.17896995714415     -0.12081215020255
  H   -1.49151817941968      2.17493623314615      0.05924401926770
  H   1.01102341798891      2.22966657916153     -0.14638600767633
  H   4.39379777320860     -0.54351506539500     -0.51357597797947
  H   3.13444919069971     -1.49016788025709     -1.35030609357458
  H   3.26954869779359     -1.55392182453557      0.43486626654231
  H   1.10007259420688     -2.07598395398168     -0.31283282707125
  H   -1.36746449055571     -2.12347465539254     -0.11242992273153
  Cl  -3.86701574742305      2.63039848138446      0.30725848859251
