20
Coordinates from ORCA-job 4-NO2PhN2+~BF4-_B3LYPG-6-31G_dp-CH-Scan-d09-49-n800
  C   -2.29447746928534      0.10963279775051     -0.40835706393420
  N   -3.62129829812871     -0.21703355655938     -0.67170401172214
  N   -4.62539002068705     -0.62009461802059     -0.91686265620846
  C   -1.79800962162693      1.35351071040663     -0.81817738901694
  C   -0.44674074627883      1.59611623517600     -0.58887528392070
  C   0.32358763510663      0.61757650449073      0.03008808413068
  N   1.76419319402166      0.89092911722458      0.26417284651344
  O   2.19990106137068      1.96643815863632     -0.12879833346016
  O   2.41033559314582      0.01698070590163      0.83428477429118
  C   -0.18677110379054     -0.61459243439051      0.44663255179400
  C   -1.52635548651113     -0.88565171815728      0.22250585254398
  H   -2.47003488702947      2.07987451441641     -1.25137980508274
  H   0.00382087538731      2.53869245116280     -0.87182293141853
  H   0.46498903600576     -1.33038413035959      0.93022101482577
  H   -1.97265677811712     -1.82454555791317      0.52803691033072
  B   -4.45407418499067      2.50162315076483      0.38241407841231
  F   -4.49474401037548      2.11450598241447     -1.01265562834265
  F   -3.26539966663107      3.21795732054243      0.57431154062999
  F   -5.57361844959128      3.21027014149202      0.71862396480753
  F   -4.36827367199429      1.27754522502116      1.11352648482693
