22
Coordinates from ORCA-job 4-NO2PhN2+~CF3COO-_B3LYPG-6-31G_dp-CH-Scan-d09-49-n800
  C   -0.81825196158736      1.04180996393786     -1.61034855199276
  N   -1.69979335406186      1.39912121941462     -2.64600493139933
  N   -2.32701556114718      1.69821798249828     -3.51969058233707
  C   0.51082773692557      1.23091198242506     -1.98723644094805
  C   1.37010277249709      0.83879315859573     -0.91570204769460
  C   0.87379981462647      0.33415623486580      0.27730301260663
  N   1.82435374483113     -0.07145043113092      1.34623278750667
  O   3.02497837548582      0.01427385219343      1.10634507209054
  O   1.34769101065000     -0.46232767538411      2.41223472269597
  C   -0.50298221833182      0.18525650804372      0.56083855950801
  C   -1.40277954947030      0.55452510721360     -0.41195780573787
  H   -1.94498898426314      4.99175417677241     -0.45811439467266
  H   2.44895993176706      0.92557305199291     -1.01514198880500
  H   -0.81379641274259     -0.20483011469771      1.52040900485796
  H   -2.47662870930770      0.48939166843991     -0.26634407265881
  O   -2.79651520274936      5.15570027537387     -0.01666062285879
  C   -3.60247754505323      4.12484434432944     -0.27285475107126
  O   -3.33290223261118      3.15627661556346     -0.93926566393920
  C   -4.97477675067244      4.33822514632467      0.40337972365547
  F   -5.75406101634207      3.27489448328976      0.20029383004622
  F   -4.81995410730675      4.52060569180621      1.72374775088275
  F   -5.57328978113630      5.42347675813187     -0.11316260973484
