22
Coordinates from ORCA-job 4-NO2PhN2+~CF3COO-_B3LYPG-6-31G_dp-CH-Scan-d09-49-n800
  C   -0.85203512636700      1.02876209876007     -1.62004769446427
  N   -1.73426570364728      1.36212416726936     -2.66308002156799
  N   -2.36134614043455      1.64923830013508     -3.54070497781580
  C   0.47018870307502      1.30961490225975     -1.96257774340866
  C   1.33028257359489      0.93913805413414     -0.88395298362209
  C   0.84202492787563      0.37268100920868      0.28446166044298
  N   1.79411648750718     -0.00354742949426      1.36277614703477
  O   2.99169505334350      0.16253705209863      1.15152184576075
  O   1.32229505210448     -0.46851022635176      2.40076244824390
  C   -0.52834869282849      0.13220785213199      0.53384735283794
  C   -1.42923427331066      0.47309122416277     -0.44828603324531
  H   -1.86852746419689      4.88355784705109     -0.46968916122818
  H   2.40355707712603      1.09333021816592     -0.95771943003085
  H   -0.83413219550934     -0.30235825478418      1.47576885054545
  H   -2.49958506400975      0.33700227313155     -0.32789901830402
  O   -2.70669428318546      5.08092780889265     -0.01684805633247
  C   -3.56189507396344      4.09042210316755     -0.27373812150410
  O   -3.34566967882278      3.11637853175708     -0.95187351904023
  C   -4.91599454494366      4.36153330289171      0.41815940240021
  F   -5.73746478555556      3.32651184780099      0.23546403178835
  F   -4.73853430426507      4.55111714562512      1.73453431199679
  F   -5.47993254358696      5.46344017198592     -0.10257929048718
