22
Coordinates from ORCA-job 4-NO2PhN2+~CF3COO-_B3LYPG-6-31G_dp-CH-Scan-d09-49-n800
  C   -0.80946003918797      1.04542148406902     -1.60723410193280
  N   -1.69141658267821      1.40854344480298     -2.64043181914769
  N   -2.31253957454863      1.71859047895218     -3.51473743895694
  C   0.52012957935632      1.20518920851818     -1.99550833088591
  C   1.37959515363516      0.80688545572033     -0.92640171085585
  C   0.88246043885673      0.32320227241634      0.27490329516426
  N   1.83286050511743     -0.09061434132428      1.34081846090754
  O   3.03310338533201     -0.03073456238854      1.09138357803779
  O   1.35671804956862     -0.45801942657204      2.41538708383658
  C   -0.49482175884824      0.20374014290488      0.56979907794866
  C   -1.39450848448558      0.58105096053117     -0.39998960063698
  H   -1.96643503310198      5.02129332546645     -0.44975220600288
  H   2.45917426854234      0.87191791044656     -1.03443604604561
  H   -0.80591087833574     -0.17126745507758      1.53527418660220
  H   -2.46832632607343      0.53866045785229     -0.24617340379431
  O   -2.82238322737574      5.17542481122582     -0.01290992905393
  C   -3.61359198552619      4.13401475095867     -0.27139809545710
  O   -3.32716505605328      3.16852120089007     -0.93481596637562
  C   -4.99215480529343      4.32977678811247      0.39750242768241
  F   -5.75742425599665      3.25754915620213      0.18797584528017
  F   -4.84664523938093      4.51119372480151      1.71908078415647
  F   -5.60075813352274      5.40886021149125     -0.12003609047051
