22
Coordinates from ORCA-job 4-NO2PhN2+~CF3COO-_B3LYPG-6-31G_dp-CH-Scan-d09-49-n800
  C   -0.79762545147963      1.05139749702546     -1.60348787244204
  N   -1.67898964026327      1.42232562584763     -2.63440342506425
  N   -2.29987198527584      1.73621527786848     -3.50756101310238
  C   0.53209918246444      1.17933252441035     -2.00276205656413
  C   1.39087032790303      0.77367537535846     -0.93587442360507
  C   0.89248128451666      0.31197062958842      0.27352090837929
  N   1.84174014443680     -0.11139472781684      1.33669293479550
  O   3.04059963473880     -0.08919294748172      1.07472975464945
  O   1.36547646716579     -0.46455196447199      2.41599413390186
  C   -0.48482733653215      0.22428027522401      0.57932803340226
  C   -1.38351648556496      0.61110605611597     -0.38762292197764
  H   -1.99489684212874      5.06019985432078     -0.44834852320116
  H   2.47076128597484      0.81511811743724     -1.05218697787129
  H   -0.79653119607005     -0.13499533754022      1.55056834132014
  H   -2.45682741792124      0.59337814198383     -0.22594340424032
  O   -2.85470886419557      5.20181125225975     -0.01472341363496
  C   -3.62706513181806      4.14596442696362     -0.27100022999975
  O   -3.32143049160569      3.18299812256941     -0.92935888804122
  C   -5.01102560317354      4.32021307903040      0.39270684967665
  F   -5.75709711711260      3.23448946122343      0.18335209073426
  F   -4.87301339791935      4.50739184325393      1.71427549912651
  F   -5.63610136613982      5.38746741682946     -0.12959539624174
