22
Coordinates from ORCA-job 4-NO2PhN2+~CF3COO-_B3LYPG-6-31G_dp-CH-Scan-d09-49-n800
  C   -0.81471203648523      1.04335251138418     -1.60846666551155
  N   -1.69707648013209      1.40246834437007     -2.64262655962723
  N   -2.31751890683759      1.71171830151980     -3.51754403991675
  C   0.51472626721331      1.21709775051214     -1.99187241700476
  C   1.37448609143662      0.82227289526580     -0.92173750269524
  C   0.87802308076206      0.32915691407727      0.27600292040574
  N   1.82882682929712     -0.08005641632037      1.34330060407401
  O   3.02915513230447     -0.01357939045108      1.09594008296278
  O   1.35269384926663     -0.45703339575449      2.41454966743597
  C   -0.49903728898792      0.19592733022455      0.56609510180302
  C   -1.39919590128530      0.56879144541591     -0.40500362193522
  H   -1.95532630967099      5.00790153795891     -0.45057062396565
  H   2.45374666581431      0.89777390318220     -1.02599917680985
  H   -0.80970002904565     -0.18551044518007      1.52918625220583
  H   -2.47303396433132      0.51565277668555     -0.25467985090095
  O   -2.80962062384662      5.16569112896407     -0.01265655101736
  C   -3.60724150902403      4.12898868532443     -0.27197989435652
  O   -3.32901308401257      3.16182282176535     -0.93746043378381
  C   -4.98334864250853      4.33278647103042      0.39935946081928
  F   -5.75464010304025      3.26431754808868      0.19274461430374
  F   -4.83447713957108      4.51533403172257      1.72036818286169
  F   -5.58721589731547      5.41432525021398     -0.11864954934719
