22
Coordinates from ORCA-job 4-NO2PhN2+~CF3COO-_B3LYPG-6-31G_dp-CH-Scan-d09-49-n800
  C   -1.05802283831895      0.47318931421019     -0.62117654596383
  N   -2.33755658524504      0.83359612336845     -1.08483103079455
  N   -3.33125447865525      1.18631676028468     -1.45203877710564
  C   -0.26577652199005      1.58596722165557     -0.33726224204919
  C   1.01490024172476      1.15167186686152      0.12310911864605
  C   1.33802279681179     -0.19085240951571      0.24945352039670
  N   2.68832732665819     -0.57049318722846      0.74265474765857
  O   3.46376763653013      0.33443785174776      1.03673787011896
  O   2.94577490584701     -1.77145133654169      0.82474727189886
  C   0.45597953018337     -1.24846852362328     -0.06641433535043
  C   -0.79867416169125     -0.92015283789710     -0.52436166755745
  H   -2.28116904264549      5.59525213988578     -0.19826712570116
  H   1.77782368509642      1.87699267748345      0.39202852118861
  H   0.78042482086877     -2.27313401454991      0.05578001320046
  H   -1.53082529058451     -1.67720961067212     -0.79056627214378
  O   -3.15206648811105      6.02869655470255     -0.18556093122278
  C   -4.07546305069991      5.10048289876854     -0.45070172187337
  O   -3.87534432375389      3.93398265547727     -0.67324374750763
  C   -5.48404767260916      5.73300069712296     -0.42425343462214
  F   -6.40176453659126      4.82391494292528     -0.75743513372758
  F   -5.75765873280202      6.19441278657652      0.80823696571501
  F   -5.55489722002273      6.75904742895760     -1.28833506320368
