22
Coordinates from ORCA-job 4-NO2PhN2+~CF3COO-_B3LYPG-6-31G_dp-CH-Scan-d09-49-n800
  C   -0.82607502588846      1.03712691369874     -1.61254287247787
  N   -1.70802711103368      1.38884578565831     -2.64979507602594
  N   -2.33440854677654      1.68680665060066     -3.52453677574030
  C   0.50166703750720      1.25091030312942     -1.98062342978673
  C   1.36141543171944      0.86447982560719     -0.90735684891352
  C   0.86695645948298      0.34391763838671      0.27957896243357
  N   1.81820523719524     -0.05307385730798      1.35116695828404
  O   3.01857554982574      0.05220960868854      1.11790771634777
  O   1.34236919453529     -0.46953527020040      2.40779343094275
  C   -0.50868017095619      0.17009568369677      0.55425128393880
  C   -1.40899209653423      0.53125559518118     -0.42110335790337
  H   -1.92716615779813      4.96494294303056     -0.46392789702920
  H   2.43924550047795      0.96899853142840     -1.00038466341605
  H   -0.81838740048674     -0.23195184844462      1.50923350336612
  H   -2.48236273698967      0.44633012977941     -0.28210720095711
  O   -2.77514003427746      5.13847513957206     -0.01876559395900
  C   -3.59427920754204      4.11769890714654     -0.27335913906116
  O   -3.33818540130018      3.14732386961281     -0.94196580638300
  C   -4.96180124149052      4.34649155423396      0.40755851765525
  F   -5.75260590135818      3.29059069478880      0.21025375256458
  F   -4.80049167025177      4.53093732481410      1.72684400618370
  F   -5.55133170806018      5.43632387689869     -0.10981947006335
