22
Coordinates from ORCA-job 4-NO2PhN2+~CF3COO-_B3LYPG-6-31G_dp-CH-Scan-d09-49-n800
  C   -0.85726169935733      1.02851600798150     -1.62185001763086
  N   -1.73972398871662      1.35976532556987     -2.66545963571103
  N   -2.36584652239625      1.64723892936467     -3.54369157280522
  C   0.46402965641446      1.31669244376505     -1.96148204799110
  C   1.32408555690371      0.94800457901807     -0.88214853088873
  C   0.83649975472322      0.37759523873303      0.28462329596807
  N   1.78857166266674      0.00401425337530      1.36394102007297
  O   2.98432755614063      0.19334944938606      1.16218504428389
  O   1.31763518845187     -0.46988481856655      2.39827701385125
  C   -0.53312472997923      0.12992226562815      0.53115766828301
  C   -1.43384775691002      0.46808814227153     -0.45205928328174
  H   -1.85628013720175      4.86474065560645     -0.46883851598084
  H   2.39678972109037      1.10688842273956     -0.95403811388396
  H   -0.83851193471776     -0.30775493449470      1.47176401125583
  H   -2.50377150585526      0.32690676516933     -0.33380997742063
  O   -2.69258293258872      5.06739860483833     -0.01471934851233
  C   -3.55449037486208      4.08315537498755     -0.27365959971078
  O   -3.34418479013799      3.10991941659060     -0.95480312919428
  C   -4.90643285603424      4.36061580351289      0.41974637035122
  F   -5.73277486320154      3.32924663693378      0.23828560865673
  F   -4.72675196342832      4.54991047248443      1.73580477119151
  F   -5.46585304100403      5.46487096510494     -0.10092503090301
