24
Coordinates from ORCA-job 4-MeOPhN2+~CF3COO-_B3LYPG-6-31G_dp-CH-Scan-d09-49-n800
  C   -2.26328302386900      0.47548008500624      0.35303314235509
  N   -3.65888558358930      0.31865768861395      0.43740009114610
  N   -4.55762814382032     -0.35607331493877      0.35598642783745
  C   -1.61486139705938      1.59859152004763      0.87038951289549
  C   -0.24066072206989      1.67484895278308      0.79294235335945
  C   0.49177211324216      0.63354574928387      0.18642496857339
  O   1.82645260815710      0.80669259939321      0.15029384774265
  C   2.64415896849862     -0.18813023803710     -0.46484485940662
  C   -0.17540356673554     -0.49425335312588     -0.33339098759532
  C   -1.55663414580706     -0.57860992645419     -0.24678414459615
  H   -2.40126708989917      2.49843163619727      1.38337658032177
  H   0.29995603057431      2.52960347271068      1.18258252542576
  H   3.66669369335533      0.18110767886588     -0.38563859961818
  H   2.38411526845195     -0.31825251460736     -1.52144853989788
  H   2.56297023991615     -1.14815201686672      0.05765809929943
  H   0.37286365725788     -1.30126993139668     -0.80225108241696
  H   -2.08562866951947     -1.43883476413349     -0.64238177325920
  O   -4.32060554127038      2.32404313863354      1.11748091651002
  C   -4.59699231717678      2.82948221357337     -0.02777559001243
  O   -4.29521464709676      2.40944320784197     -1.14393029810571
  C   -5.41163614679837      4.14925068324928      0.09048267175841
  F   -5.72836141621652      4.65826264696552     -1.10943696103864
  F   -6.55986314347660      3.95073692396304      0.77124792411784
  F   -4.69665702504897      5.08399786243165      0.75888377460422
