24
Coordinates from ORCA-job 4-MeOPhN2+~CF3COO-_B3LYPG-6-31G_dp-CH-Scan-d09-49-n800
  C   -2.21938527125285      0.27243003532384     -0.41663977130417
  N   -3.55816862231492      0.04985990828113     -0.63012280454666
  N   -4.61978489458295     -0.22177354362614     -0.84657616630504
  C   -1.74996595197589      1.59712616738971     -0.26121465250363
  C   -0.37786596602697      1.70500869470415     -0.08820705310524
  C   0.47387521202962      0.58353929901900     -0.06559501070323
  O   1.78025772777504      0.84189052390816      0.11334235588698
  C   2.71741612823210     -0.23385059787417      0.16219958533290
  C   -0.04997048097524     -0.72401152562707     -0.22478006138867
  C   -1.40641557394166     -0.88620341435959     -0.40553159175559
  H   -2.60249796192586      2.65551038823172     -0.19657491728866
  H   0.08124469727478      2.68059094715012      0.04497775725703
  H   3.68999400766224      0.23105866121365      0.32103198219793
  H   2.73104003989231     -0.79218013126815     -0.78079085412453
  H   2.49876886245592     -0.91370979449215      0.99315379650963
  H   0.59316330646063     -1.59443610053281     -0.20847782004500
  H   -1.83873054177810     -1.87375076525696     -0.53356197102956
  O   -3.46290938700052      3.66175168893354     -0.03145206619870
  C   -4.51759819261496      3.17754750619355      0.50073621744773
  O   -4.77400222933595      1.99667627001828      0.76059006294693
  C   -5.57881203916339      4.26002815703642      0.83216227904795
  F   -5.97419611578588      4.90029982351546     -0.29116210616010
  F   -6.67369012316215      3.73598694562403      1.40857873623344
  F   -5.07636662994536      5.18921085649429      1.67421407359823
