24
Coordinates from ORCA-job 4-MeOPhN2+~CF3COO-_B3LYPG-6-31G_dp-CH-Scan-d09-49-n800
  C   -2.22531025252137      0.37750489822850     -0.20446537241264
  N   -3.59317212471644      0.15238532009059     -0.35849437070424
  N   -4.53073561470531     -0.42323845784345     -0.57763327968604
  C   -1.68083609304099      1.62950799213452      0.12750884699413
  C   -0.30109027361211      1.69005990893256      0.23680176300648
  C   0.51461981724369      0.56180893174628      0.02929437330722
  O   1.83760175296183      0.75842218404130      0.16929621476954
  C   2.73652091421907     -0.33350759598829     -0.02050983645110
  C   -0.06616217253444     -0.68305417060443     -0.30446466332648
  C   -1.43851831241144     -0.77707656459260     -0.42271820537819
  H   -2.42125207306524      2.68596685998796      0.32757638769320
  H   0.18598296244765      2.62602612896849      0.49104286015109
  H   3.73340692725509      0.07319732714185      0.14877185791626
  H   2.67345114202637     -0.72782802759091     -1.04108178360115
  H   2.54393643626309     -1.13663170288697      0.69955897770870
  H   0.54164816030660     -1.56354102575104     -0.46958185741667
  H   -1.90812834977389     -1.72129121194391     -0.67953890476034
  O   -3.33406223583970      3.86449444901665      0.55606287997159
  C   -4.45923861623128      3.32442065221675      0.42067863032925
  O   -4.72502252437840      2.12981053517138      0.15307379481541
  C   -5.70048506470102      4.24144018873628      0.59887007922610
  F   -6.41900613334247      4.28609841741923     -0.54442810857607
  F   -6.50793351589063      3.76256403661078      1.56964653425604
  F   -5.37081475595866      5.50106092675847      0.92503318216788
