24
Coordinates from ORCA-job 4-MeOPhN2+~CF3COO-_B3LYPG-6-31G_dp-CH-Scan-d09-49-n800
  C   -2.16610158114901      0.08828656414979     -0.22043496515398
  N   -3.52531633261520     -0.12701139384108     -0.31245995556249
  N   -4.64731061944165     -0.06561715376266     -0.33182704659875
  C   -1.76250688871522      1.41355737618199      0.03829317586391
  C   -0.39161741278717      1.59838932783850      0.13108945472724
  C   0.51702792557791      0.53144085882799     -0.02376507696152
  O   1.81807456267934      0.85185499521066      0.09331647423613
  C   2.81276153471575     -0.16219827447237     -0.04191618776084
  C   0.05562006213415     -0.78231972921088     -0.28555213926555
  C   -1.30220358202037     -1.01154291402947     -0.38665424592882
  H   -2.67767438444719      2.41705682686927      0.18067099438676
  H   0.02164624469657      2.58306092805570      0.32986767403104
  H   3.76819987193808      0.34256232451533      0.09940927208136
  H   2.78592235016081     -0.61588652690126     -1.03903483323523
  H   2.69530400382474     -0.93941089671473      0.72184250456101
  H   0.74741227691339     -1.60564233446995     -0.40690806045497
  H   -1.69104462732266     -2.00509961643311     -0.58612655187228
  O   -3.52485594492451      3.45901228383487      0.34294304111312
  C   -4.76638068774367      3.19272640072000      0.38304328726265
  O   -5.36483896476597      2.11514118461206      0.24465059170209
  C   -5.63384659840995      4.45327013929146      0.65849342672172
  F   -5.42591985097514      5.39251359037512     -0.28916295111953
  F   -6.94749130738360      4.17701348779083      0.67874480297796
  F   -5.30946004993946      4.99744255156195      1.85177731424894
