Coordinates from ORCA-job 4-NO2PhN2+~BF4-_B3LYPG-6-31G_dp-CH-Scan-d09-49-n800
 OpenBabel11261918593D

 20 18  0  0  0  0  0  0  0  0999 V2000
   -1.5659   -0.0204    0.0577 C   0  0  0  0  0  0  0  0  0  0  0  0
   -2.9722   -0.0552    0.0332 N   0  0  0  0  0  0  0  0  0  0  0  0
   -4.0876    0.0050    0.0178 N   0  0  0  0  0  0  0  0  0  0  0  0
   -1.0836    1.2870    0.1032 C   0  0  0  0  0  0  0  0  0  0  0  0
    0.3444    1.2673    0.1289 C   0  0  0  0  0  0  0  0  0  0  0  0
    1.0637    0.0819    0.1109 C   0  0  0  0  0  0  0  0  0  0  0  0
    2.5499    0.1328    0.1417 N   0  0  0  0  0  0  0  0  0  0  0  0
    3.0825    1.2371    0.1935 O   0  0  0  0  0  0  0  0  0  0  0  0
    3.1551   -0.9388    0.1132 O   0  0  0  0  0  0  0  0  0  0  0  0
    0.4733   -1.2013    0.0635 C   0  0  0  0  0  0  0  0  0  0  0  0
   -0.8995   -1.2745    0.0349 C   0  0  0  0  0  0  0  0  0  0  0  0
   -4.6159    4.6344   -0.2602 H   0  0  0  0  0  0  0  0  0  0  0  0
    0.9079    2.1957    0.1640 H   0  0  0  0  0  0  0  0  0  0  0  0
    1.1021   -2.0812    0.0507 H   0  0  0  0  0  0  0  0  0  0  0  0
   -1.4261   -2.2240   -0.0028 H   0  0  0  0  0  0  0  0  0  0  0  0
   -6.1420    2.6573   -0.2103 B   0  0  0  0  0  0  0  0  0  0  0  0
   -5.9215    2.0200   -1.3489 F   0  0  0  0  0  0  0  0  0  0  0  0
   -5.3362    4.5728   -0.8464 F   0  0  0  0  0  0  0  0  0  0  0  0
   -7.3491    3.1015    0.0858 F   0  0  0  0  0  0  0  0  0  0  0  0
   -5.2104    2.6020    0.7457 F   0  0  0  0  0  0  0  0  0  0  0  0
  1  4  1  0  0  0  0
  2  1  1  0  0  0  0
  3  2  1  0  0  0  0
  4  5  2  0  0  0  0
  5 13  1  0  0  0  0
  6  5  1  0  0  0  0
  6  7  1  0  0  0  0
  7  8  2  0  0  0  0
  9  7  2  0  0  0  0
 10  6  2  0  0  0  0
 11  1  2  0  0  0  0
 11 10  1  0  0  0  0
 14 10  1  0  0  0  0
 15 11  1  0  0  0  0
 16 19  1  0  0  0  0
 16 20  1  0  0  0  0
 17 16  1  0  0  0  0
 18 12  1  0  0  0  0
M  RAD  3   2   2   3   3   4   2
M  END
