Coordinates from ORCA-job 4-NO2PhN2+~BF4-_B3LYPG-6-31G_dp-CH-Scan-d09-49-n800
 OpenBabel11261918593D

 20 18  0  0  0  0  0  0  0  0999 V2000
   -1.8427   -0.0674   -0.0127 C   0  0  0  0  0  0  0  0  0  0  0  0
   -3.2294   -0.2667   -0.0487 N   0  0  0  0  0  0  0  0  0  0  0  0
   -4.3402   -0.3656   -0.0809 N   0  0  0  0  0  0  0  0  0  0  0  0
   -1.4790    1.2819   -0.0768 C   0  0  0  0  0  0  0  0  0  0  0  0
   -0.0597    1.4045   -0.0344 C   0  0  0  0  0  0  0  0  0  0  0  0
    0.7728    0.2990    0.0571 C   0  0  0  0  0  0  0  0  0  0  0  0
    2.2462    0.5009    0.0967 N   0  0  0  0  0  0  0  0  0  0  0  0
    2.6647    1.6529    0.0462 O   0  0  0  0  0  0  0  0  0  0  0  0
    2.9523   -0.5037    0.1756 O   0  0  0  0  0  0  0  0  0  0  0  0
    0.3105   -1.0329    0.1163 C   0  0  0  0  0  0  0  0  0  0  0  0
   -1.0485   -1.2413    0.0811 C   0  0  0  0  0  0  0  0  0  0  0  0
   -3.4053    3.5986   -0.2466 H   0  0  0  0  0  0  0  0  0  0  0  0
    0.4097    2.3830   -0.0736 H   0  0  0  0  0  0  0  0  0  0  0  0
    1.0201   -1.8458    0.1872 H   0  0  0  0  0  0  0  0  0  0  0  0
   -1.4782   -2.2379    0.1231 H   0  0  0  0  0  0  0  0  0  0  0  0
   -5.7416    2.6650   -0.1678 B   0  0  0  0  0  0  0  0  0  0  0  0
   -5.4192    2.0330   -1.2967 F   0  0  0  0  0  0  0  0  0  0  0  0
   -4.2166    4.0614   -0.2850 F   0  0  0  0  0  0  0  0  0  0  0  0
   -6.7222    3.5508   -0.1645 F   0  0  0  0  0  0  0  0  0  0  0  0
   -5.3248    2.1297    0.9807 F   0  0  0  0  0  0  0  0  0  0  0  0
  1 11  2  0  0  0  0
  2  1  1  0  0  0  0
  3  2  1  0  0  0  0
  4  5  2  0  0  0  0
  4  1  1  0  0  0  0
  5  6  1  0  0  0  0
  6  7  1  0  0  0  0
  6 10  2  0  0  0  0
  7  9  2  0  0  0  0
  8  7  2  0  0  0  0
 10 14  1  0  0  0  0
 11 10  1  0  0  0  0
 11 15  1  0  0  0  0
 13  5  1  0  0  0  0
 16 19  1  0  0  0  0
 16 20  1  0  0  0  0
 17 16  1  0  0  0  0
 18 12  1  0  0  0  0
M  RAD  3   2   2   3   3   4   2
M  END
