Coordinates from ORCA-job 4-NO2PhN2+~BF4-_B3LYPG-6-31G_dp-CH-Scan-d09-49-n800
 OpenBabel11261918593D

 20 18  0  0  0  0  0  0  0  0999 V2000
   -2.0645   -0.0137   -0.0375 C   0  0  0  0  0  0  0  0  0  0  0  0
   -3.4307   -0.2973   -0.0800 N   0  0  0  0  0  0  0  0  0  0  0  0
   -4.5265   -0.4888   -0.1172 N   0  0  0  0  0  0  0  0  0  0  0  0
   -1.7223    1.3452   -0.1037 C   0  0  0  0  0  0  0  0  0  0  0  0
   -0.3203    1.5323   -0.0535 C   0  0  0  0  0  0  0  0  0  0  0  0
    0.5543    0.4592    0.0482 C   0  0  0  0  0  0  0  0  0  0  0  0
    2.0173    0.7225    0.0971 N   0  0  0  0  0  0  0  0  0  0  0  0
    2.3837    1.8914    0.0501 O   0  0  0  0  0  0  0  0  0  0  0  0
    2.7602   -0.2533    0.1814 O   0  0  0  0  0  0  0  0  0  0  0  0
    0.1402   -0.8829    0.1091 C   0  0  0  0  0  0  0  0  0  0  0  0
   -1.2123   -1.1415    0.0658 C   0  0  0  0  0  0  0  0  0  0  0  0
   -2.9255    2.7141   -0.2187 H   0  0  0  0  0  0  0  0  0  0  0  0
    0.1027    2.5303   -0.0939 H   0  0  0  0  0  0  0  0  0  0  0  0
    0.8762   -1.6715    0.1876 H   0  0  0  0  0  0  0  0  0  0  0  0
   -1.6015   -2.1537    0.1089 H   0  0  0  0  0  0  0  0  0  0  0  0
   -5.1558    2.6795   -0.1396 B   0  0  0  0  0  0  0  0  0  0  0  0
   -5.1642    1.8880   -1.2502 F   0  0  0  0  0  0  0  0  0  0  0  0
   -3.6457    3.4266   -0.2741 F   0  0  0  0  0  0  0  0  0  0  0  0
   -5.9892    3.7285   -0.1273 F   0  0  0  0  0  0  0  0  0  0  0  0
   -5.0071    1.9846    1.0239 F   0  0  0  0  0  0  0  0  0  0  0  0
  1 11  2  0  0  0  0
  2  1  1  0  0  0  0
  3  2  1  0  0  0  0
  4  5  2  0  0  0  0
  4  1  1  0  0  0  0
  5  6  1  0  0  0  0
  6  7  1  0  0  0  0
  6 10  2  0  0  0  0
  7  9  2  0  0  0  0
  8  7  2  0  0  0  0
 10 14  1  0  0  0  0
 11 15  1  0  0  0  0
 11 10  1  0  0  0  0
 13  5  1  0  0  0  0
 16 19  1  0  0  0  0
 16 20  1  0  0  0  0
 17 16  1  0  0  0  0
 18 12  1  0  0  0  0
M  RAD  3   2   2   3   3   4   2
M  END
