Coordinates from ORCA-job 4-NO2PhN2+~BF4-_B3LYPG-6-31G_dp-CH-Scan-d09-49-n800
 OpenBabel11261918593D

 20 18  0  0  0  0  0  0  0  0999 V2000
   -1.9974   -0.0327   -0.0354 C   0  0  0  0  0  0  0  0  0  0  0  0
   -3.3690   -0.2948   -0.0799 N   0  0  0  0  0  0  0  0  0  0  0  0
   -4.4694   -0.4644   -0.1184 N   0  0  0  0  0  0  0  0  0  0  0  0
   -1.6552    1.3252   -0.1034 C   0  0  0  0  0  0  0  0  0  0  0  0
   -0.2473    1.4962   -0.0513 C   0  0  0  0  0  0  0  0  0  0  0  0
    0.6178    0.4164    0.0529 C   0  0  0  0  0  0  0  0  0  0  0  0
    2.0834    0.6658    0.1028 N   0  0  0  0  0  0  0  0  0  0  0  0
    2.4626    1.8308    0.0531 O   0  0  0  0  0  0  0  0  0  0  0  0
    2.8183   -0.3164    0.1898 O   0  0  0  0  0  0  0  0  0  0  0  0
    0.1937   -0.9246    0.1155 C   0  0  0  0  0  0  0  0  0  0  0  0
   -1.1597   -1.1728    0.0708 C   0  0  0  0  0  0  0  0  0  0  0  0
   -3.0540    2.9343   -0.2415 H   0  0  0  0  0  0  0  0  0  0  0  0
    0.1880    2.4894   -0.0924 H   0  0  0  0  0  0  0  0  0  0  0  0
    0.9245   -1.7178    0.1961 H   0  0  0  0  0  0  0  0  0  0  0  0
   -1.5579   -2.1817    0.1150 H   0  0  0  0  0  0  0  0  0  0  0  0
   -5.3525    2.6849   -0.1400 B   0  0  0  0  0  0  0  0  0  0  0  0
   -5.2869    1.9357   -1.2606 F   0  0  0  0  0  0  0  0  0  0  0  0
   -3.7738    3.5787   -0.2941 F   0  0  0  0  0  0  0  0  0  0  0  0
   -6.1869    3.7224   -0.1156 F   0  0  0  0  0  0  0  0  0  0  0  0
   -5.1091    2.0249    1.0128 F   0  0  0  0  0  0  0  0  0  0  0  0
  1 11  2  0  0  0  0
  2  1  1  0  0  0  0
  3  2  1  0  0  0  0
  4  5  2  0  0  0  0
  4  1  1  0  0  0  0
  5  6  1  0  0  0  0
  6  7  1  0  0  0  0
  6 10  2  0  0  0  0
  7  9  2  0  0  0  0
  8  7  2  0  0  0  0
 10 14  1  0  0  0  0
 11 15  1  0  0  0  0
 11 10  1  0  0  0  0
 13  5  1  0  0  0  0
 16 19  1  0  0  0  0
 16 20  1  0  0  0  0
 17 16  1  0  0  0  0
 18 12  1  0  0  0  0
M  RAD  3   2   2   3   3   4   2
M  END
