Coordinates from ORCA-job 4-NO2PhN2+~BF4-_B3LYPG-6-31G_dp-CH-Scan-d09-49-n800
 OpenBabel11261918593D

 20 19  0  0  0  0  0  0  0  0999 V2000
   -2.1568    0.0668   -0.1902 C   0  0  0  0  0  0  0  0  0  0  0  0
   -3.5094   -0.2083   -0.3670 N   0  0  0  0  0  0  0  0  0  0  0  0
   -4.5840   -0.4290   -0.5510 N   0  0  0  0  0  0  0  0  0  0  0  0
   -1.7253    1.3931   -0.3313 C   0  0  0  0  0  0  0  0  0  0  0  0
   -0.3519    1.5992   -0.1849 C   0  0  0  0  0  0  0  0  0  0  0  0
    0.4833    0.5205    0.0889 C   0  0  0  0  0  0  0  0  0  0  0  0
    1.9412    0.7675    0.2416 N   0  0  0  0  0  0  0  0  0  0  0  0
    2.3316    1.9204    0.1028 O   0  0  0  0  0  0  0  0  0  0  0  0
    2.6469   -0.2048    0.4946 O   0  0  0  0  0  0  0  0  0  0  0  0
    0.0276   -0.7943    0.2305 C   0  0  0  0  0  0  0  0  0  0  0  0
   -1.3267   -1.0382    0.0849 C   0  0  0  0  0  0  0  0  0  0  0  0
   -2.6114    2.3690   -0.5462 H   0  0  0  0  0  0  0  0  0  0  0  0
    0.0747    2.5907   -0.2759 H   0  0  0  0  0  0  0  0  0  0  0  0
    0.7314   -1.5871    0.4469 H   0  0  0  0  0  0  0  0  0  0  0  0
   -1.7360   -2.0377    0.1811 H   0  0  0  0  0  0  0  0  0  0  0  0
   -4.8813    2.6266    0.0157 B   0  0  0  0  0  0  0  0  0  0  0  0
   -5.4981    1.7611   -0.9098 F   0  0  0  0  0  0  0  0  0  0  0  0
   -3.7704    3.2714   -0.6882 F   0  0  0  0  0  0  0  0  0  0  0  0
   -5.7283    3.5718    0.5064 F   0  0  0  0  0  0  0  0  0  0  0  0
   -4.2880    1.8407    1.0274 F   0  0  0  0  0  0  0  0  0  0  0  0
  1 11  1  0  0  0  0
  2  1  1  0  0  0  0
  3  2  1  0  0  0  0
  4  1  2  0  0  0  0
  4  5  1  0  0  0  0
  5  6  2  0  0  0  0
  6 10  1  0  0  0  0
  6  7  1  0  0  0  0
  7  9  2  0  0  0  0
  8  7  2  0  0  0  0
 10 14  1  0  0  0  0
 11 15  1  0  0  0  0
 11 10  2  0  0  0  0
 12  4  1  0  0  0  0
 13  5  1  0  0  0  0
 16 19  1  0  0  0  0
 16 20  1  0  0  0  0
 17 16  1  0  0  0  0
 18 16  1  0  0  0  0
M  RAD  2   2   2   3   3
M  END
