Coordinates from ORCA-job 4-NO2PhN2+~BF4-_B3LYPG-6-31G_dp-CH-Scan-d09-49-n800
 OpenBabel11261918593D

 20 18  0  0  0  0  0  0  0  0999 V2000
   -1.7332   -0.0809    0.0109 C   0  0  0  0  0  0  0  0  0  0  0  0
   -3.1305   -0.2252   -0.0307 N   0  0  0  0  0  0  0  0  0  0  0  0
   -4.2461   -0.2592   -0.0624 N   0  0  0  0  0  0  0  0  0  0  0  0
   -1.3421    1.2592    0.0126 C   0  0  0  0  0  0  0  0  0  0  0  0
    0.0827    1.3397    0.0566 C   0  0  0  0  0  0  0  0  0  0  0  0
    0.8846    0.2088    0.0905 C   0  0  0  0  0  0  0  0  0  0  0  0
    2.3629    0.3667    0.1353 N   0  0  0  0  0  0  0  0  0  0  0  0
    2.8152    1.5074    0.1377 O   0  0  0  0  0  0  0  0  0  0  0  0
    3.0419   -0.6595    0.1680 O   0  0  0  0  0  0  0  0  0  0  0  0
    0.3865   -1.1130    0.0854 C   0  0  0  0  0  0  0  0  0  0  0  0
   -0.9775   -1.2831    0.0440 C   0  0  0  0  0  0  0  0  0  0  0  0
   -3.8620    4.1565   -0.2489 H   0  0  0  0  0  0  0  0  0  0  0  0
    0.5797    2.3058    0.0646 H   0  0  0  0  0  0  0  0  0  0  0  0
    1.0748   -1.9466    0.1138 H   0  0  0  0  0  0  0  0  0  0  0  0
   -1.4352   -2.2682    0.0377 H   0  0  0  0  0  0  0  0  0  0  0  0
   -5.9077    2.6555   -0.1618 B   0  0  0  0  0  0  0  0  0  0  0  0
   -5.7501    2.0005   -1.3042 F   0  0  0  0  0  0  0  0  0  0  0  0
   -4.6665    4.3235   -0.6870 F   0  0  0  0  0  0  0  0  0  0  0  0
   -6.9972    3.3698    0.0517 F   0  0  0  0  0  0  0  0  0  0  0  0
   -5.1111    2.3416    0.8622 F   0  0  0  0  0  0  0  0  0  0  0  0
  1  4  2  0  0  0  0
  1 11  1  0  0  0  0
  2  1  1  0  0  0  0
  3  2  1  0  0  0  0
  4  5  1  0  0  0  0
  5 13  1  0  0  0  0
  5  6  2  0  0  0  0
  6  7  1  0  0  0  0
  7  8  2  0  0  0  0
  7  9  2  0  0  0  0
 10  6  1  0  0  0  0
 10 14  1  0  0  0  0
 11 10  2  0  0  0  0
 15 11  1  0  0  0  0
 16 19  1  0  0  0  0
 16 20  1  0  0  0  0
 17 16  1  0  0  0  0
 18 12  1  0  0  0  0
M  RAD  3   2   2   3   3   4   2
M  END
