Coordinates from ORCA-job 4-NO2PhN2+~BF4-_B3LYPG-6-31G_dp-CH-Scan-d09-49-n800
 OpenBabel11261918593D

 20 18  0  0  0  0  0  0  0  0999 V2000
   -1.8043   -0.0749   -0.0105 C   0  0  0  0  0  0  0  0  0  0  0  0
   -3.1948   -0.2565   -0.0517 N   0  0  0  0  0  0  0  0  0  0  0  0
   -4.3076   -0.3334   -0.0861 N   0  0  0  0  0  0  0  0  0  0  0  0
   -1.4325    1.2715   -0.0680 C   0  0  0  0  0  0  0  0  0  0  0  0
   -0.0110    1.3805   -0.0242 C   0  0  0  0  0  0  0  0  0  0  0  0
    0.8116    0.2673    0.0629 C   0  0  0  0  0  0  0  0  0  0  0  0
    2.2866    0.4555    0.1035 N   0  0  0  0  0  0  0  0  0  0  0  0
    2.7163    1.6036    0.0556 O   0  0  0  0  0  0  0  0  0  0  0  0
    2.9839   -0.5555    0.1825 O   0  0  0  0  0  0  0  0  0  0  0  0
    0.3377   -1.0613    0.1169 C   0  0  0  0  0  0  0  0  0  0  0  0
   -1.0230   -1.2577    0.0797 C   0  0  0  0  0  0  0  0  0  0  0  0
   -3.5268    3.7931   -0.2512 H   0  0  0  0  0  0  0  0  0  0  0  0
    0.4677    2.3549   -0.0588 H   0  0  0  0  0  0  0  0  0  0  0  0
    1.0404   -1.8804    0.1850 H   0  0  0  0  0  0  0  0  0  0  0  0
   -1.4620   -2.2506    0.1172 H   0  0  0  0  0  0  0  0  0  0  0  0
   -5.8119    2.6573   -0.1655 B   0  0  0  0  0  0  0  0  0  0  0  0
   -5.4856    2.0482   -1.3030 F   0  0  0  0  0  0  0  0  0  0  0  0
   -4.3682    4.1834   -0.3477 F   0  0  0  0  0  0  0  0  0  0  0  0
   -6.8430    3.4816   -0.1279 F   0  0  0  0  0  0  0  0  0  0  0  0
   -5.3046    2.1727    0.9675 F   0  0  0  0  0  0  0  0  0  0  0  0
  1 11  2  0  0  0  0
  2  1  1  0  0  0  0
  3  2  1  0  0  0  0
  4  5  2  0  0  0  0
  4  1  1  0  0  0  0
  5  6  1  0  0  0  0
  6  7  1  0  0  0  0
  6 10  2  0  0  0  0
  7  9  2  0  0  0  0
  8  7  2  0  0  0  0
 10 14  1  0  0  0  0
 11 10  1  0  0  0  0
 11 15  1  0  0  0  0
 13  5  1  0  0  0  0
 16 19  1  0  0  0  0
 16 20  1  0  0  0  0
 17 16  1  0  0  0  0
 18 12  1  0  0  0  0
M  RAD  3   2   2   3   3   4   2
M  END
