Coordinates from ORCA-job 4-NO2PhN2+~BF4-_B3LYPG-6-31G_dp-CH-Scan-d09-49-n800
 OpenBabel11261918593D

 20 18  0  0  0  0  0  0  0  0999 V2000
   -1.7381   -0.0810    0.0118 C   0  0  0  0  0  0  0  0  0  0  0  0
   -3.1352   -0.2279   -0.0284 N   0  0  0  0  0  0  0  0  0  0  0  0
   -4.2507   -0.2643   -0.0591 N   0  0  0  0  0  0  0  0  0  0  0  0
   -1.3489    1.2597    0.0130 C   0  0  0  0  0  0  0  0  0  0  0  0
    0.0758    1.3424    0.0558 C   0  0  0  0  0  0  0  0  0  0  0  0
    0.8794    0.2127    0.0893 C   0  0  0  0  0  0  0  0  0  0  0  0
    2.3575    0.3729    0.1329 N   0  0  0  0  0  0  0  0  0  0  0  0
    2.8080    1.5143    0.1348 O   0  0  0  0  0  0  0  0  0  0  0  0
    3.0381   -0.6522    0.1652 O   0  0  0  0  0  0  0  0  0  0  0  0
    0.3833   -1.1098    0.0848 C   0  0  0  0  0  0  0  0  0  0  0  0
   -0.9804   -1.2819    0.0446 C   0  0  0  0  0  0  0  0  0  0  0  0
   -3.8394    4.1361   -0.2469 H   0  0  0  0  0  0  0  0  0  0  0  0
    0.5713    2.3092    0.0632 H   0  0  0  0  0  0  0  0  0  0  0  0
    1.0729   -1.9424    0.1128 H   0  0  0  0  0  0  0  0  0  0  0  0
   -1.4367   -2.2678    0.0388 H   0  0  0  0  0  0  0  0  0  0  0  0
   -5.9009    2.6551   -0.1631 B   0  0  0  0  0  0  0  0  0  0  0  0
   -5.7374    1.9993   -1.3044 F   0  0  0  0  0  0  0  0  0  0  0  0
   -4.6456    4.3140   -0.6775 F   0  0  0  0  0  0  0  0  0  0  0  0
   -6.9875    3.3767    0.0406 F   0  0  0  0  0  0  0  0  0  0  0  0
   -5.1163    2.3343    0.8680 F   0  0  0  0  0  0  0  0  0  0  0  0
  1  4  2  0  0  0  0
  1 11  1  0  0  0  0
  2  1  1  0  0  0  0
  3  2  1  0  0  0  0
  4  5  1  0  0  0  0
  5 13  1  0  0  0  0
  5  6  2  0  0  0  0
  6  7  1  0  0  0  0
  7  8  2  0  0  0  0
  7  9  2  0  0  0  0
 10  6  1  0  0  0  0
 10 14  1  0  0  0  0
 11 10  2  0  0  0  0
 15 11  1  0  0  0  0
 16 19  1  0  0  0  0
 16 20  1  0  0  0  0
 17 16  1  0  0  0  0
 18 12  1  0  0  0  0
M  RAD  3   2   2   3   3   4   2
M  END
