Coordinates from ORCA-job 4-NO2PhN2+~BF4-_B3LYPG-6-31G_dp-CH-Scan-d09-49-n800
 OpenBabel11261918593D

 20 18  0  0  0  0  0  0  0  0999 V2000
   -2.1209    0.0124   -0.1215 C   0  0  0  0  0  0  0  0  0  0  0  0
   -3.4794   -0.2822   -0.2252 N   0  0  0  0  0  0  0  0  0  0  0  0
   -4.5669   -0.4931   -0.3241 N   0  0  0  0  0  0  0  0  0  0  0  0
   -1.7560    1.3627   -0.2301 C   0  0  0  0  0  0  0  0  0  0  0  0
   -0.3658    1.5646   -0.1281 C   0  0  0  0  0  0  0  0  0  0  0  0
    0.5021    0.4970    0.0628 C   0  0  0  0  0  0  0  0  0  0  0  0
    1.9611    0.7657    0.1661 N   0  0  0  0  0  0  0  0  0  0  0  0
    2.3280    1.9310    0.0685 O   0  0  0  0  0  0  0  0  0  0  0  0
    2.6967   -0.2027    0.3415 O   0  0  0  0  0  0  0  0  0  0  0  0
    0.0822   -0.8378    0.1669 C   0  0  0  0  0  0  0  0  0  0  0  0
   -1.2688   -1.1004    0.0722 C   0  0  0  0  0  0  0  0  0  0  0  0
   -2.7990    2.5208   -0.3813 H   0  0  0  0  0  0  0  0  0  0  0  0
    0.0518    2.5630   -0.1940 H   0  0  0  0  0  0  0  0  0  0  0  0
    0.8116   -1.6224    0.3173 H   0  0  0  0  0  0  0  0  0  0  0  0
   -1.6586   -2.1103    0.1440 H   0  0  0  0  0  0  0  0  0  0  0  0
   -4.9803    2.6602   -0.0413 B   0  0  0  0  0  0  0  0  0  0  0  0
   -5.2904    1.8600   -1.1233 F   0  0  0  0  0  0  0  0  0  0  0  0
   -3.6006    3.3146   -0.4414 F   0  0  0  0  0  0  0  0  0  0  0  0
   -5.8186    3.6937    0.1780 F   0  0  0  0  0  0  0  0  0  0  0  0
   -4.6594    1.9026    1.0693 F   0  0  0  0  0  0  0  0  0  0  0  0
  1 11  2  0  0  0  0
  2  1  1  0  0  0  0
  3  2  1  0  0  0  0
  4  5  2  0  0  0  0
  4  1  1  0  0  0  0
  5  6  1  0  0  0  0
  6  7  1  0  0  0  0
  6 10  2  0  0  0  0
  7  9  2  0  0  0  0
  8  7  2  0  0  0  0
 10 14  1  0  0  0  0
 11 15  1  0  0  0  0
 11 10  1  0  0  0  0
 13  5  1  0  0  0  0
 16 19  1  0  0  0  0
 16 20  1  0  0  0  0
 17 16  1  0  0  0  0
 18 12  1  0  0  0  0
M  RAD  3   2   2   3   3   4   2
M  END
