Coordinates from ORCA-job 4-NO2PhN2+~BF4-_B3LYPG-6-31G_dp-CH-Scan-d09-49-n800
 OpenBabel11261918593D

 20 18  0  0  0  0  0  0  0  0999 V2000
   -2.0734   -0.0104   -0.0377 C   0  0  0  0  0  0  0  0  0  0  0  0
   -3.4389   -0.2961   -0.0801 N   0  0  0  0  0  0  0  0  0  0  0  0
   -4.5341   -0.4901   -0.1177 N   0  0  0  0  0  0  0  0  0  0  0  0
   -1.7299    1.3483   -0.1033 C   0  0  0  0  0  0  0  0  0  0  0  0
   -0.3289    1.5371   -0.0536 C   0  0  0  0  0  0  0  0  0  0  0  0
    0.5464    0.4644    0.0475 C   0  0  0  0  0  0  0  0  0  0  0  0
    2.0092    0.7288    0.0958 N   0  0  0  0  0  0  0  0  0  0  0  0
    2.3745    1.8980    0.0488 O   0  0  0  0  0  0  0  0  0  0  0  0
    2.7527   -0.2466    0.1799 O   0  0  0  0  0  0  0  0  0  0  0  0
    0.1329   -0.8775    0.1080 C   0  0  0  0  0  0  0  0  0  0  0  0
   -1.2197   -1.1368    0.0650 C   0  0  0  0  0  0  0  0  0  0  0  0
   -2.9074    2.6866   -0.2150 H   0  0  0  0  0  0  0  0  0  0  0  0
    0.0928    2.5356   -0.0938 H   0  0  0  0  0  0  0  0  0  0  0  0
    0.8692   -1.6660    0.1861 H   0  0  0  0  0  0  0  0  0  0  0  0
   -1.6082   -2.1492    0.1080 H   0  0  0  0  0  0  0  0  0  0  0  0
   -5.1302    2.6780   -0.1393 B   0  0  0  0  0  0  0  0  0  0  0  0
   -5.1470    1.8822   -1.2496 F   0  0  0  0  0  0  0  0  0  0  0  0
   -3.6315    3.4102   -0.2704 F   0  0  0  0  0  0  0  0  0  0  0  0
   -5.9671    3.7257   -0.1270 F   0  0  0  0  0  0  0  0  0  0  0  0
   -4.9926    1.9773    1.0246 F   0  0  0  0  0  0  0  0  0  0  0  0
  1 11  2  0  0  0  0
  2  1  1  0  0  0  0
  3  2  1  0  0  0  0
  4  5  2  0  0  0  0
  4  1  1  0  0  0  0
  5  6  1  0  0  0  0
  6  7  1  0  0  0  0
  6 10  2  0  0  0  0
  7  9  2  0  0  0  0
  8  7  2  0  0  0  0
 10 14  1  0  0  0  0
 11 10  1  0  0  0  0
 11 15  1  0  0  0  0
 13  5  1  0  0  0  0
 16 19  1  0  0  0  0
 16 20  1  0  0  0  0
 17 16  1  0  0  0  0
 18 12  1  0  0  0  0
M  RAD  3   2   2   3   3   4   2
M  END
