Coordinates from ORCA-job 4-NO2PhN2+~BF4-_B3LYPG-6-31G_dp-CH-Scan-d09-49-n800
 OpenBabel11261918593D

 20 18  0  0  0  0  0  0  0  0999 V2000
   -1.8685   -0.0617   -0.0108 C   0  0  0  0  0  0  0  0  0  0  0  0
   -3.2530   -0.2704   -0.0443 N   0  0  0  0  0  0  0  0  0  0  0  0
   -4.3628   -0.3791   -0.0746 N   0  0  0  0  0  0  0  0  0  0  0  0
   -1.5093    1.2894   -0.0758 C   0  0  0  0  0  0  0  0  0  0  0  0
   -0.0914    1.4200   -0.0364 C   0  0  0  0  0  0  0  0  0  0  0  0
    0.7470    0.3187    0.0537 C   0  0  0  0  0  0  0  0  0  0  0  0
    2.2193    0.5285    0.0903 N   0  0  0  0  0  0  0  0  0  0  0  0
    2.6311    1.6829    0.0405 O   0  0  0  0  0  0  0  0  0  0  0  0
    2.9306   -0.4723    0.1686 O   0  0  0  0  0  0  0  0  0  0  0  0
    0.2914   -1.0150    0.1143 C   0  0  0  0  0  0  0  0  0  0  0  0
   -1.0668   -1.2304    0.0817 C   0  0  0  0  0  0  0  0  0  0  0  0
   -3.3398    3.4845   -0.2309 H   0  0  0  0  0  0  0  0  0  0  0  0
    0.3724    2.4010   -0.0768 H   0  0  0  0  0  0  0  0  0  0  0  0
    1.0051   -1.8246    0.1840 H   0  0  0  0  0  0  0  0  0  0  0  0
   -1.4910   -2.2292    0.1249 H   0  0  0  0  0  0  0  0  0  0  0  0
   -5.6855    2.6662   -0.1722 B   0  0  0  0  0  0  0  0  0  0  0  0
   -5.3754    2.0192   -1.2981 F   0  0  0  0  0  0  0  0  0  0  0  0
   -4.1312    3.9852   -0.2622 F   0  0  0  0  0  0  0  0  0  0  0  0
   -6.6411    3.5802   -0.1807 F   0  0  0  0  0  0  0  0  0  0  0  0
   -5.3123    2.1062    0.9811 F   0  0  0  0  0  0  0  0  0  0  0  0
  1 11  2  0  0  0  0
  2  1  1  0  0  0  0
  3  2  1  0  0  0  0
  4  5  2  0  0  0  0
  4  1  1  0  0  0  0
  5  6  1  0  0  0  0
  6  7  1  0  0  0  0
  6 10  2  0  0  0  0
  7  9  2  0  0  0  0
  8  7  2  0  0  0  0
 10 14  1  0  0  0  0
 11 10  1  0  0  0  0
 11 15  1  0  0  0  0
 13  5  1  0  0  0  0
 16 20  1  0  0  0  0
 17 16  1  0  0  0  0
 18 12  1  0  0  0  0
 19 16  1  0  0  0  0
M  RAD  3   2   2   3   3   4   2
M  END
