Coordinates from ORCA-job 4-NO2PhN2+~BF4-_B3LYPG-6-31G_dp-CH-Scan-d09-49-n800
 OpenBabel11261918593D

 20 19  0  0  0  0  0  0  0  0999 V2000
   -2.2950    0.1097   -0.4087 C   0  0  0  0  0  0  0  0  0  0  0  0
   -3.6216   -0.2169   -0.6725 N   0  0  0  0  0  0  0  0  0  0  0  0
   -4.6257   -0.6200   -0.9180 N   0  0  0  0  0  0  0  0  0  0  0  0
   -1.7987    1.3538   -0.8185 C   0  0  0  0  0  0  0  0  0  0  0  0
   -0.4476    1.5966   -0.5888 C   0  0  0  0  0  0  0  0  0  0  0  0
    0.3228    0.6184    0.0306 C   0  0  0  0  0  0  0  0  0  0  0  0
    1.7632    0.8921    0.2652 N   0  0  0  0  0  0  0  0  0  0  0  0
    2.1994    1.9665   -0.1301 O   0  0  0  0  0  0  0  0  0  0  0  0
    2.4099    0.0172    0.8333 O   0  0  0  0  0  0  0  0  0  0  0  0
   -0.1875   -0.6139    0.4471 C   0  0  0  0  0  0  0  0  0  0  0  0
   -1.5269   -0.8853    0.2225 C   0  0  0  0  0  0  0  0  0  0  0  0
   -2.4675    2.0764   -1.2504 H   0  0  0  0  0  0  0  0  0  0  0  0
    0.0029    2.5393   -0.8717 H   0  0  0  0  0  0  0  0  0  0  0  0
    0.4643   -1.3295    0.9310 H   0  0  0  0  0  0  0  0  0  0  0  0
   -1.9731   -1.8243    0.5280 H   0  0  0  0  0  0  0  0  0  0  0  0
   -4.4529    2.5011    0.3826 B   0  0  0  0  0  0  0  0  0  0  0  0
   -4.4939    2.1144   -1.0125 F   0  0  0  0  0  0  0  0  0  0  0  0
   -3.2634    3.2161    0.5746 F   0  0  0  0  0  0  0  0  0  0  0  0
   -5.5717    3.2107    0.7191 F   0  0  0  0  0  0  0  0  0  0  0  0
   -4.3682    1.2767    1.1134 F   0  0  0  0  0  0  0  0  0  0  0  0
  1 11  2  0  0  0  0
  2  1  1  0  0  0  0
  3  2  1  0  0  0  0
  4  5  2  0  0  0  0
  4  1  1  0  0  0  0
  5  6  1  0  0  0  0
  6  7  1  0  0  0  0
  6 10  2  0  0  0  0
  7  9  2  0  0  0  0
  8  7  2  0  0  0  0
 10 14  1  0  0  0  0
 11 10  1  0  0  0  0
 11 15  1  0  0  0  0
 12  4  1  0  0  0  0
 13  5  1  0  0  0  0
 16 18  1  0  0  0  0
 16 19  1  0  0  0  0
 16 20  1  0  0  0  0
 17 16  1  0  0  0  0
M  RAD  2   2   2   3   3
M  END
