Coordinates from ORCA-job 4-NO2PhN2+~BF4-_B3LYPG-6-31G_dp-CH-Scan-d09-49-n800
 OpenBabel11261918593D

 20 18  0  0  0  0  0  0  0  0999 V2000
   -2.0719   -0.0128   -0.0402 C   0  0  0  0  0  0  0  0  0  0  0  0
   -3.4371   -0.2998   -0.0852 N   0  0  0  0  0  0  0  0  0  0  0  0
   -4.5321   -0.4949   -0.1249 N   0  0  0  0  0  0  0  0  0  0  0  0
   -1.7295    1.3462   -0.1053 C   0  0  0  0  0  0  0  0  0  0  0  0
   -0.3286    1.5358   -0.0532 C   0  0  0  0  0  0  0  0  0  0  0  0
    0.5472    0.4637    0.0497 C   0  0  0  0  0  0  0  0  0  0  0  0
    2.0097    0.7291    0.1008 N   0  0  0  0  0  0  0  0  0  0  0  0
    2.3747    1.8981    0.0472 O   0  0  0  0  0  0  0  0  0  0  0  0
    2.7540   -0.2461    0.1793 O   0  0  0  0  0  0  0  0  0  0  0  0
    0.1346   -0.8785    0.1097 C   0  0  0  0  0  0  0  0  0  0  0  0
   -1.2178   -1.1387    0.0643 C   0  0  0  0  0  0  0  0  0  0  0  0
   -2.9101    2.6883   -0.2198 H   0  0  0  0  0  0  0  0  0  0  0  0
    0.0927    2.5345   -0.0928 H   0  0  0  0  0  0  0  0  0  0  0  0
    0.8713   -1.6664    0.1893 H   0  0  0  0  0  0  0  0  0  0  0  0
   -1.6056   -2.1514    0.1067 H   0  0  0  0  0  0  0  0  0  0  0  0
   -5.1339    2.6815   -0.1360 B   0  0  0  0  0  0  0  0  0  0  0  0
   -5.1556    1.8811   -1.2424 F   0  0  0  0  0  0  0  0  0  0  0  0
   -3.6326    3.4113   -0.2762 F   0  0  0  0  0  0  0  0  0  0  0  0
   -5.9678    3.7314   -0.1257 F   0  0  0  0  0  0  0  0  0  0  0  0
   -4.9926    1.9868    1.0308 F   0  0  0  0  0  0  0  0  0  0  0  0
  1 11  2  0  0  0  0
  2  1  1  0  0  0  0
  3  2  1  0  0  0  0
  4  5  2  0  0  0  0
  4  1  1  0  0  0  0
  5  6  1  0  0  0  0
  6  7  1  0  0  0  0
  6 10  2  0  0  0  0
  7  9  2  0  0  0  0
  8  7  2  0  0  0  0
 10 14  1  0  0  0  0
 11 15  1  0  0  0  0
 11 10  1  0  0  0  0
 13  5  1  0  0  0  0
 16 19  1  0  0  0  0
 16 20  1  0  0  0  0
 17 16  1  0  0  0  0
 18 12  1  0  0  0  0
M  RAD  3   2   2   3   3   4   2
M  END
