Coordinates from ORCA-job 4-NO2PhN2+~BF4-_B3LYPG-6-31G_dp-CH-Scan-d09-49-n800
 OpenBabel11261918593D

 20 18  0  0  0  0  0  0  0  0999 V2000
   -2.0479   -0.0193   -0.0370 C   0  0  0  0  0  0  0  0  0  0  0  0
   -3.4153   -0.2982   -0.0795 N   0  0  0  0  0  0  0  0  0  0  0  0
   -4.5122   -0.4849   -0.1165 N   0  0  0  0  0  0  0  0  0  0  0  0
   -1.7069    1.3397   -0.1037 C   0  0  0  0  0  0  0  0  0  0  0  0
   -0.3034    1.5232   -0.0529 C   0  0  0  0  0  0  0  0  0  0  0  0
    0.5695    0.4489    0.0495 C   0  0  0  0  0  0  0  0  0  0  0  0
    2.0330    0.7096    0.0987 N   0  0  0  0  0  0  0  0  0  0  0  0
    2.4020    1.8778    0.0518 O   0  0  0  0  0  0  0  0  0  0  0  0
    2.7745   -0.2674    0.1834 O   0  0  0  0  0  0  0  0  0  0  0  0
    0.1538   -0.8932    0.1106 C   0  0  0  0  0  0  0  0  0  0  0  0
   -1.1988   -1.1499    0.0670 C   0  0  0  0  0  0  0  0  0  0  0  0
   -2.9579    2.7663   -0.2247 H   0  0  0  0  0  0  0  0  0  0  0  0
    0.1225    2.5202   -0.0935 H   0  0  0  0  0  0  0  0  0  0  0  0
    0.8890   -1.6825    0.1896 H   0  0  0  0  0  0  0  0  0  0  0  0
   -1.5897   -2.1615    0.1104 H   0  0  0  0  0  0  0  0  0  0  0  0
   -5.2050    2.6820   -0.1401 B   0  0  0  0  0  0  0  0  0  0  0  0
   -5.1959    1.8995   -1.2522 F   0  0  0  0  0  0  0  0  0  0  0  0
   -3.6738    3.4603   -0.2797 F   0  0  0  0  0  0  0  0  0  0  0  0
   -6.0340    3.7316   -0.1269 F   0  0  0  0  0  0  0  0  0  0  0  0
   -5.0344    1.9970    1.0218 F   0  0  0  0  0  0  0  0  0  0  0  0
  1 11  2  0  0  0  0
  2  1  1  0  0  0  0
  3  2  1  0  0  0  0
  4  5  2  0  0  0  0
  4  1  1  0  0  0  0
  5  6  1  0  0  0  0
  6  7  1  0  0  0  0
  6 10  2  0  0  0  0
  7  9  2  0  0  0  0
  8  7  2  0  0  0  0
 10 14  1  0  0  0  0
 11 15  1  0  0  0  0
 11 10  1  0  0  0  0
 13  5  1  0  0  0  0
 16 19  1  0  0  0  0
 16 20  1  0  0  0  0
 17 16  1  0  0  0  0
 18 12  1  0  0  0  0
M  RAD  3   2   2   3   3   4   2
M  END
