Coordinates from ORCA-job 4-NO2PhN2+~BF4-_B3LYPG-6-31G_dp-CH-Scan-d09-49-n800
 OpenBabel11261918593D

 20 18  0  0  0  0  0  0  0  0999 V2000
   -1.8388   -0.0692   -0.0131 C   0  0  0  0  0  0  0  0  0  0  0  0
   -3.2258   -0.2667   -0.0499 N   0  0  0  0  0  0  0  0  0  0  0  0
   -4.3369   -0.3628   -0.0818 N   0  0  0  0  0  0  0  0  0  0  0  0
   -1.4751    1.2801   -0.0769 C   0  0  0  0  0  0  0  0  0  0  0  0
   -0.0555    1.4018   -0.0343 C   0  0  0  0  0  0  0  0  0  0  0  0
    0.7764    0.2959    0.0573 C   0  0  0  0  0  0  0  0  0  0  0  0
    2.2498    0.4970    0.0973 N   0  0  0  0  0  0  0  0  0  0  0  0
    2.6690    1.6489    0.0480 O   0  0  0  0  0  0  0  0  0  0  0  0
    2.9554   -0.5078    0.1778 O   0  0  0  0  0  0  0  0  0  0  0  0
    0.3135   -1.0359    0.1165 C   0  0  0  0  0  0  0  0  0  0  0  0
   -1.0456   -1.2438    0.0809 C   0  0  0  0  0  0  0  0  0  0  0  0
   -3.4158    3.6171   -0.2499 H   0  0  0  0  0  0  0  0  0  0  0  0
    0.4145    2.3801   -0.0733 H   0  0  0  0  0  0  0  0  0  0  0  0
    1.0228   -1.8491    0.1875 H   0  0  0  0  0  0  0  0  0  0  0  0
   -1.4758   -2.2401    0.1227 H   0  0  0  0  0  0  0  0  0  0  0  0
   -5.7490    2.6649   -0.1667 B   0  0  0  0  0  0  0  0  0  0  0  0
   -5.4256    2.0354   -1.2964 F   0  0  0  0  0  0  0  0  0  0  0  0
   -4.2302    4.0739   -0.2895 F   0  0  0  0  0  0  0  0  0  0  0  0
   -6.7342    3.5455   -0.1606 F   0  0  0  0  0  0  0  0  0  0  0  0
   -5.3241    2.1339    0.9806 F   0  0  0  0  0  0  0  0  0  0  0  0
  1 11  2  0  0  0  0
  2  1  1  0  0  0  0
  3  2  1  0  0  0  0
  4  5  2  0  0  0  0
  4  1  1  0  0  0  0
  5  6  1  0  0  0  0
  6  7  1  0  0  0  0
  6 10  2  0  0  0  0
  7  9  2  0  0  0  0
  8  7  2  0  0  0  0
 10 14  1  0  0  0  0
 11 10  1  0  0  0  0
 11 15  1  0  0  0  0
 13  5  1  0  0  0  0
 16 19  1  0  0  0  0
 16 20  1  0  0  0  0
 17 16  1  0  0  0  0
 18 12  1  0  0  0  0
M  RAD  3   2   2   3   3   4   2
M  END
