Coordinates from ORCA-job 4-NO2PhN2+~BF4-_B3LYPG-6-31G_dp-CH-Scan-d09-49-n800
 OpenBabel11261918593D

 20 19  0  0  0  0  0  0  0  0999 V2000
   -2.1563    0.0887   -0.2507 C   0  0  0  0  0  0  0  0  0  0  0  0
   -3.5074   -0.1714   -0.4602 N   0  0  0  0  0  0  0  0  0  0  0  0
   -4.5764   -0.3968   -0.6736 N   0  0  0  0  0  0  0  0  0  0  0  0
   -1.7020    1.4050   -0.4069 C   0  0  0  0  0  0  0  0  0  0  0  0
   -0.3353    1.6096   -0.2245 C   0  0  0  0  0  0  0  0  0  0  0  0
    0.4802    0.5297    0.1026 C   0  0  0  0  0  0  0  0  0  0  0  0
    1.9335    0.7696    0.3006 N   0  0  0  0  0  0  0  0  0  0  0  0
    2.3365    1.9170    0.1524 O   0  0  0  0  0  0  0  0  0  0  0  0
    2.6226   -0.2022    0.5968 O   0  0  0  0  0  0  0  0  0  0  0  0
    0.0077   -0.7767    0.2575 C   0  0  0  0  0  0  0  0  0  0  0  0
   -1.3442   -1.0142    0.0728 C   0  0  0  0  0  0  0  0  0  0  0  0
   -2.5520    2.3342   -0.6647 H   0  0  0  0  0  0  0  0  0  0  0  0
    0.1002    2.5960   -0.3244 H   0  0  0  0  0  0  0  0  0  0  0  0
    0.6969   -1.5700    0.5148 H   0  0  0  0  0  0  0  0  0  0  0  0
   -1.7643   -2.0081    0.1790 H   0  0  0  0  0  0  0  0  0  0  0  0
   -4.8702    2.5990    0.0659 B   0  0  0  0  0  0  0  0  0  0  0  0
   -5.6591    1.7089   -0.6981 F   0  0  0  0  0  0  0  0  0  0  0  0
   -3.8881    3.1746   -0.8299 F   0  0  0  0  0  0  0  0  0  0  0  0
   -5.6109    3.5772    0.6581 F   0  0  0  0  0  0  0  0  0  0  0  0
   -4.1423    1.8292    1.0088 F   0  0  0  0  0  0  0  0  0  0  0  0
  1 11  1  0  0  0  0
  2  1  1  0  0  0  0
  3  2  1  0  0  0  0
  4  1  2  0  0  0  0
  4  5  1  0  0  0  0
  5  6  2  0  0  0  0
  6 10  1  0  0  0  0
  6  7  1  0  0  0  0
  7  9  2  0  0  0  0
  8  7  2  0  0  0  0
 10 14  1  0  0  0  0
 11 15  1  0  0  0  0
 11 10  2  0  0  0  0
 12  4  1  0  0  0  0
 13  5  1  0  0  0  0
 16 19  1  0  0  0  0
 16 20  1  0  0  0  0
 17 16  1  0  0  0  0
 18 16  1  0  0  0  0
M  RAD  2   2   2   3   3
M  END
