Coordinates from ORCA-job 4-NO2PhN2+~BF4-_B3LYPG-6-31G_dp-CH-Scan-d09-49-n800
 OpenBabel11261918593D

 20 18  0  0  0  0  0  0  0  0999 V2000
   -1.7619   -0.0825    0.0207 C   0  0  0  0  0  0  0  0  0  0  0  0
   -3.1571   -0.2417   -0.0110 N   0  0  0  0  0  0  0  0  0  0  0  0
   -4.2722   -0.2904   -0.0348 N   0  0  0  0  0  0  0  0  0  0  0  0
   -1.3818    1.2615    0.0211 C   0  0  0  0  0  0  0  0  0  0  0  0
    0.0422    1.3547    0.0558 C   0  0  0  0  0  0  0  0  0  0  0  0
    0.8546    0.2311    0.0830 C   0  0  0  0  0  0  0  0  0  0  0  0
    2.3318    0.4028    0.1181 N   0  0  0  0  0  0  0  0  0  0  0  0
    2.7731    1.5476    0.1204 O   0  0  0  0  0  0  0  0  0  0  0  0
    3.0202   -0.6172    0.1429 O   0  0  0  0  0  0  0  0  0  0  0  0
    0.3686   -1.0949    0.0795 C   0  0  0  0  0  0  0  0  0  0  0  0
   -0.9941   -1.2771    0.0473 C   0  0  0  0  0  0  0  0  0  0  0  0
   -3.7337    4.0389   -0.2353 H   0  0  0  0  0  0  0  0  0  0  0  0
    0.5305    2.3252    0.0616 H   0  0  0  0  0  0  0  0  0  0  0  0
    1.0645   -1.9223    0.1020 H   0  0  0  0  0  0  0  0  0  0  0  0
   -1.4428   -2.2664    0.0430 H   0  0  0  0  0  0  0  0  0  0  0  0
   -5.8680    2.6548   -0.1734 B   0  0  0  0  0  0  0  0  0  0  0  0
   -5.6691    1.9918   -1.3060 F   0  0  0  0  0  0  0  0  0  0  0  0
   -4.5460    4.2674   -0.6294 F   0  0  0  0  0  0  0  0  0  0  0  0
   -6.9389    3.4125   -0.0254 F   0  0  0  0  0  0  0  0  0  0  0  0
   -5.1512    2.3036    0.8961 F   0  0  0  0  0  0  0  0  0  0  0  0
  1  4  2  0  0  0  0
  1 11  1  0  0  0  0
  2  1  1  0  0  0  0
  3  2  1  0  0  0  0
  4  5  1  0  0  0  0
  5 13  1  0  0  0  0
  5  6  2  0  0  0  0
  6  7  1  0  0  0  0
  7  8  2  0  0  0  0
  7  9  2  0  0  0  0
 10  6  1  0  0  0  0
 10 14  1  0  0  0  0
 11 10  2  0  0  0  0
 15 11  1  0  0  0  0
 16 19  1  0  0  0  0
 16 20  1  0  0  0  0
 17 16  1  0  0  0  0
 18 12  1  0  0  0  0
M  RAD  3   2   2   3   3   4   2
M  END
