Coordinates from ORCA-job 4-NO2PhN2+~BF4-_B3LYPG-6-31G_dp-CH-Scan-d09-49-n800
 OpenBabel11261918593D

 20 18  0  0  0  0  0  0  0  0999 V2000
   -1.9790   -0.0354   -0.0334 C   0  0  0  0  0  0  0  0  0  0  0  0
   -3.3523   -0.2905   -0.0784 N   0  0  0  0  0  0  0  0  0  0  0  0
   -4.4535   -0.4557   -0.1176 N   0  0  0  0  0  0  0  0  0  0  0  0
   -1.6340    1.3214   -0.1021 C   0  0  0  0  0  0  0  0  0  0  0  0
   -0.2245    1.4864   -0.0508 C   0  0  0  0  0  0  0  0  0  0  0  0
    0.6364    0.4033    0.0532 C   0  0  0  0  0  0  0  0  0  0  0  0
    2.1031    0.6467    0.1017 N   0  0  0  0  0  0  0  0  0  0  0  0
    2.4874    1.8101    0.0513 O   0  0  0  0  0  0  0  0  0  0  0  0
    2.8342   -0.3382    0.1911 O   0  0  0  0  0  0  0  0  0  0  0  0
    0.2075   -0.9365    0.1171 C   0  0  0  0  0  0  0  0  0  0  0  0
   -1.1466   -1.1799    0.0732 C   0  0  0  0  0  0  0  0  0  0  0  0
   -3.0932    3.0039   -0.2440 H   0  0  0  0  0  0  0  0  0  0  0  0
    0.2152    2.4777   -0.0927 H   0  0  0  0  0  0  0  0  0  0  0  0
    0.9357   -1.7321    0.1978 H   0  0  0  0  0  0  0  0  0  0  0  0
   -1.5487   -2.1873    0.1183 H   0  0  0  0  0  0  0  0  0  0  0  0
   -5.4028    2.6847   -0.1417 B   0  0  0  0  0  0  0  0  0  0  0  0
   -5.3100    1.9473   -1.2652 F   0  0  0  0  0  0  0  0  0  0  0  0
   -3.8202    3.6291   -0.2941 F   0  0  0  0  0  0  0  0  0  0  0  0
   -6.2493    3.7104   -0.1162 F   0  0  0  0  0  0  0  0  0  0  0  0
   -5.1365    2.0341    1.0086 F   0  0  0  0  0  0  0  0  0  0  0  0
  1 11  2  0  0  0  0
  2  1  1  0  0  0  0
  3  2  1  0  0  0  0
  4  5  2  0  0  0  0
  4  1  1  0  0  0  0
  5  6  1  0  0  0  0
  6  7  1  0  0  0  0
  6 10  2  0  0  0  0
  7  9  2  0  0  0  0
  8  7  2  0  0  0  0
 10 14  1  0  0  0  0
 11 10  1  0  0  0  0
 11 15  1  0  0  0  0
 13  5  1  0  0  0  0
 16 19  1  0  0  0  0
 16 20  1  0  0  0  0
 17 16  1  0  0  0  0
 18 12  1  0  0  0  0
M  RAD  3   2   2   3   3   4   2
M  END
