Coordinates from ORCA-job 4-NO2PhN2+~BF4-_B3LYPG-6-31G_dp-CH-Scan-d09-49-n800
 OpenBabel11261918593D

 20 18  0  0  0  0  0  0  0  0999 V2000
   -1.8563   -0.0641   -0.0111 C   0  0  0  0  0  0  0  0  0  0  0  0
   -3.2417   -0.2698   -0.0450 N   0  0  0  0  0  0  0  0  0  0  0  0
   -4.3517   -0.3768   -0.0758 N   0  0  0  0  0  0  0  0  0  0  0  0
   -1.4949    1.2860   -0.0753 C   0  0  0  0  0  0  0  0  0  0  0  0
   -0.0763    1.4129   -0.0348 C   0  0  0  0  0  0  0  0  0  0  0  0
    0.7594    0.3097    0.0551 C   0  0  0  0  0  0  0  0  0  0  0  0
    2.2322    0.5159    0.0928 N   0  0  0  0  0  0  0  0  0  0  0  0
    2.6470    1.6692    0.0437 O   0  0  0  0  0  0  0  0  0  0  0  0
    2.9411   -0.4868    0.1709 O   0  0  0  0  0  0  0  0  0  0  0  0
    0.3007   -1.0232    0.1146 C   0  0  0  0  0  0  0  0  0  0  0  0
   -1.0579   -1.2353    0.0811 C   0  0  0  0  0  0  0  0  0  0  0  0
   -3.3692    3.5355   -0.2380 H   0  0  0  0  0  0  0  0  0  0  0  0
    0.3900    2.3928   -0.0744 H   0  0  0  0  0  0  0  0  0  0  0  0
    1.0125   -1.8344    0.1842 H   0  0  0  0  0  0  0  0  0  0  0  0
   -1.4846   -2.2331    0.1234 H   0  0  0  0  0  0  0  0  0  0  0  0
   -5.7130    2.6674   -0.1708 B   0  0  0  0  0  0  0  0  0  0  0  0
   -5.3978    2.0256   -1.2973 F   0  0  0  0  0  0  0  0  0  0  0  0
   -4.1697    4.0193   -0.2728 F   0  0  0  0  0  0  0  0  0  0  0  0
   -6.6784    3.5706   -0.1753 F   0  0  0  0  0  0  0  0  0  0  0  0
   -5.3224    2.1181    0.9811 F   0  0  0  0  0  0  0  0  0  0  0  0
  1 11  2  0  0  0  0
  2  1  1  0  0  0  0
  3  2  1  0  0  0  0
  4  5  2  0  0  0  0
  4  1  1  0  0  0  0
  5  6  1  0  0  0  0
  6  7  1  0  0  0  0
  6 10  2  0  0  0  0
  7  9  2  0  0  0  0
  8  7  2  0  0  0  0
 10 14  1  0  0  0  0
 11 10  1  0  0  0  0
 11 15  1  0  0  0  0
 13  5  1  0  0  0  0
 16 20  1  0  0  0  0
 17 16  1  0  0  0  0
 18 12  1  0  0  0  0
 19 16  1  0  0  0  0
M  RAD  3   2   2   3   3   4   2
M  END
