Coordinates from ORCA-job 4-NO2PhN2+~BF4-_B3LYPG-6-31G_dp-CH-Scan-d09-49-n800
 OpenBabel11261918593D

 20 18  0  0  0  0  0  0  0  0999 V2000
   -1.9252   -0.0470   -0.0029 C   0  0  0  0  0  0  0  0  0  0  0  0
   -3.3041   -0.2811   -0.0323 N   0  0  0  0  0  0  0  0  0  0  0  0
   -4.4096   -0.4227   -0.0594 N   0  0  0  0  0  0  0  0  0  0  0  0
   -1.5740    1.3074   -0.0647 C   0  0  0  0  0  0  0  0  0  0  0  0
   -0.1596    1.4548   -0.0325 C   0  0  0  0  0  0  0  0  0  0  0  0
    0.6911    0.3622    0.0491 C   0  0  0  0  0  0  0  0  0  0  0  0
    2.1611    0.5885    0.0772 N   0  0  0  0  0  0  0  0  0  0  0  0
    2.5589    1.7474    0.0241 O   0  0  0  0  0  0  0  0  0  0  0  0
    2.8833   -0.4050    0.1458 O   0  0  0  0  0  0  0  0  0  0  0  0
    0.2496   -0.9751    0.1084 C   0  0  0  0  0  0  0  0  0  0  0  0
   -1.1068   -1.2043    0.0822 C   0  0  0  0  0  0  0  0  0  0  0  0
   -3.2076    3.2377   -0.1925 H   0  0  0  0  0  0  0  0  0  0  0  0
    0.2919    2.4412   -0.0723 H   0  0  0  0  0  0  0  0  0  0  0  0
    0.9712   -1.7781    0.1719 H   0  0  0  0  0  0  0  0  0  0  0  0
   -1.5195   -2.2078    0.1246 H   0  0  0  0  0  0  0  0  0  0  0  0
   -5.5493    2.6766   -0.1841 B   0  0  0  0  0  0  0  0  0  0  0  0
   -5.2910    1.9840   -1.3022 F   0  0  0  0  0  0  0  0  0  0  0  0
   -3.9637    3.8037   -0.2280 F   0  0  0  0  0  0  0  0  0  0  0  0
   -6.4449    3.6535   -0.2146 F   0  0  0  0  0  0  0  0  0  0  0  0
   -5.2831    2.0632    0.9782 F   0  0  0  0  0  0  0  0  0  0  0  0
  1 11  2  0  0  0  0
  2  1  1  0  0  0  0
  3  2  1  0  0  0  0
  4  5  2  0  0  0  0
  4  1  1  0  0  0  0
  5  6  1  0  0  0  0
  6  7  1  0  0  0  0
  6 10  2  0  0  0  0
  7  9  2  0  0  0  0
  8  7  2  0  0  0  0
 10 14  1  0  0  0  0
 11 10  1  0  0  0  0
 11 15  1  0  0  0  0
 13  5  1  0  0  0  0
 16 20  1  0  0  0  0
 17 16  1  0  0  0  0
 18 12  1  0  0  0  0
 19 16  1  0  0  0  0
M  RAD  3   2   2   3   3   4   2
M  END
