Coordinates from ORCA-job 4-NO2PhN2+~BF4-_B3LYPG-6-31G_dp-CH-Scan-d09-49-n800
 OpenBabel11261918593D

 20 19  0  0  0  0  0  0  0  0999 V2000
   -2.1577    0.0980   -0.2596 C   0  0  0  0  0  0  0  0  0  0  0  0
   -3.5085   -0.1583   -0.4764 N   0  0  0  0  0  0  0  0  0  0  0  0
   -4.5755   -0.3856   -0.6980 N   0  0  0  0  0  0  0  0  0  0  0  0
   -1.6956    1.4112   -0.4193 C   0  0  0  0  0  0  0  0  0  0  0  0
   -0.3299    1.6130   -0.2324 C   0  0  0  0  0  0  0  0  0  0  0  0
    0.4800    0.5317    0.1046 C   0  0  0  0  0  0  0  0  0  0  0  0
    1.9332    0.7673    0.3075 N   0  0  0  0  0  0  0  0  0  0  0  0
    2.3411    1.9121    0.1525 O   0  0  0  0  0  0  0  0  0  0  0  0
    2.6169   -0.2049    0.6139 O   0  0  0  0  0  0  0  0  0  0  0  0
    0.0013   -0.7713    0.2648 C   0  0  0  0  0  0  0  0  0  0  0  0
   -1.3509   -1.0050    0.0740 C   0  0  0  0  0  0  0  0  0  0  0  0
   -2.5192    2.3215   -0.6823 H   0  0  0  0  0  0  0  0  0  0  0  0
    0.1090    2.5975   -0.3360 H   0  0  0  0  0  0  0  0  0  0  0  0
    0.6859   -1.5659    0.5305 H   0  0  0  0  0  0  0  0  0  0  0  0
   -1.7751   -1.9966    0.1839 H   0  0  0  0  0  0  0  0  0  0  0  0
   -4.8704    2.5910    0.0728 B   0  0  0  0  0  0  0  0  0  0  0  0
   -5.6766    1.6931   -0.6676 F   0  0  0  0  0  0  0  0  0  0  0  0
   -3.9167    3.1656   -0.8439 F   0  0  0  0  0  0  0  0  0  0  0  0
   -5.6037    3.5630    0.6856 F   0  0  0  0  0  0  0  0  0  0  0  0
   -4.1187    1.8221    1.0014 F   0  0  0  0  0  0  0  0  0  0  0  0
  1 11  1  0  0  0  0
  2  1  1  0  0  0  0
  3  2  1  0  0  0  0
  4  1  2  0  0  0  0
  4  5  1  0  0  0  0
  5  6  2  0  0  0  0
  6 10  1  0  0  0  0
  6  7  1  0  0  0  0
  7  9  2  0  0  0  0
  8  7  2  0  0  0  0
 10 14  1  0  0  0  0
 11 15  1  0  0  0  0
 11 10  2  0  0  0  0
 12  4  1  0  0  0  0
 13  5  1  0  0  0  0
 16 19  1  0  0  0  0
 16 20  1  0  0  0  0
 17 16  1  0  0  0  0
 18 16  1  0  0  0  0
M  RAD  2   2   2   3   3
M  END
