Coordinates from ORCA-job 4-NO2PhN2+~BF4-_B3LYPG-6-31G_dp-CH-Scan-d09-49-n800
 OpenBabel11261918593D

 20 18  0  0  0  0  0  0  0  0999 V2000
   -1.8354   -0.0680   -0.0133 C   0  0  0  0  0  0  0  0  0  0  0  0
   -3.2228   -0.2643   -0.0498 N   0  0  0  0  0  0  0  0  0  0  0  0
   -4.3339   -0.3602   -0.0839 N   0  0  0  0  0  0  0  0  0  0  0  0
   -1.4698    1.2806   -0.0782 C   0  0  0  0  0  0  0  0  0  0  0  0
   -0.0500    1.4003   -0.0349 C   0  0  0  0  0  0  0  0  0  0  0  0
    0.7803    0.2933    0.0575 C   0  0  0  0  0  0  0  0  0  0  0  0
    2.2540    0.4924    0.0976 N   0  0  0  0  0  0  0  0  0  0  0  0
    2.6749    1.6435    0.0473 O   0  0  0  0  0  0  0  0  0  0  0  0
    2.9582   -0.5135    0.1787 O   0  0  0  0  0  0  0  0  0  0  0  0
    0.3155   -1.0378    0.1173 C   0  0  0  0  0  0  0  0  0  0  0  0
   -1.0439   -1.2437    0.0814 C   0  0  0  0  0  0  0  0  0  0  0  0
   -3.4261    3.6309   -0.2482 H   0  0  0  0  0  0  0  0  0  0  0  0
    0.4213    2.3780   -0.0744 H   0  0  0  0  0  0  0  0  0  0  0  0
    1.0236   -1.8520    0.1890 H   0  0  0  0  0  0  0  0  0  0  0  0
   -1.4755   -2.2394    0.1239 H   0  0  0  0  0  0  0  0  0  0  0  0
   -5.7562    2.6639   -0.1669 B   0  0  0  0  0  0  0  0  0  0  0  0
   -5.4297    2.0373   -1.2972 F   0  0  0  0  0  0  0  0  0  0  0  0
   -4.2429    4.0828   -0.2897 F   0  0  0  0  0  0  0  0  0  0  0  0
   -6.7452    3.5401   -0.1599 F   0  0  0  0  0  0  0  0  0  0  0  0
   -5.3275    2.1350    0.9798 F   0  0  0  0  0  0  0  0  0  0  0  0
  1 11  2  0  0  0  0
  2  1  1  0  0  0  0
  3  2  1  0  0  0  0
  4  5  2  0  0  0  0
  4  1  1  0  0  0  0
  5  6  1  0  0  0  0
  6  7  1  0  0  0  0
  6 10  2  0  0  0  0
  7  9  2  0  0  0  0
  8  7  2  0  0  0  0
 10 14  1  0  0  0  0
 11 10  1  0  0  0  0
 11 15  1  0  0  0  0
 13  5  1  0  0  0  0
 16 19  1  0  0  0  0
 16 20  1  0  0  0  0
 17 16  1  0  0  0  0
 18 12  1  0  0  0  0
M  RAD  3   2   2   3   3   4   2
M  END
