Coordinates from ORCA-job 4-NO2PhN2+~BF4-_B3LYPG-6-31G_dp-CH-Scan-d09-49-n800
 OpenBabel11261918593D

 20 18  0  0  0  0  0  0  0  0999 V2000
   -1.9907   -0.0336   -0.0351 C   0  0  0  0  0  0  0  0  0  0  0  0
   -3.3630   -0.2930   -0.0799 N   0  0  0  0  0  0  0  0  0  0  0  0
   -4.4636   -0.4612   -0.1185 N   0  0  0  0  0  0  0  0  0  0  0  0
   -1.6472    1.3238   -0.1034 C   0  0  0  0  0  0  0  0  0  0  0  0
   -0.2388    1.4927   -0.0513 C   0  0  0  0  0  0  0  0  0  0  0  0
    0.6247    0.4116    0.0531 C   0  0  0  0  0  0  0  0  0  0  0  0
    2.0907    0.6588    0.1028 N   0  0  0  0  0  0  0  0  0  0  0  0
    2.4717    1.8232    0.0535 O   0  0  0  0  0  0  0  0  0  0  0  0
    2.8241   -0.3244    0.1911 O   0  0  0  0  0  0  0  0  0  0  0  0
    0.1987   -0.9289    0.1159 C   0  0  0  0  0  0  0  0  0  0  0  0
   -1.1549   -1.1754    0.0714 C   0  0  0  0  0  0  0  0  0  0  0  0
   -3.0696    2.9587   -0.2436 H   0  0  0  0  0  0  0  0  0  0  0  0
    0.1980    2.4852   -0.0926 H   0  0  0  0  0  0  0  0  0  0  0  0
    0.9286   -1.7229    0.1967 H   0  0  0  0  0  0  0  0  0  0  0  0
   -1.5545   -2.1837    0.1158 H   0  0  0  0  0  0  0  0  0  0  0  0
   -5.3698    2.6856   -0.1400 B   0  0  0  0  0  0  0  0  0  0  0  0
   -5.2963    1.9389   -1.2610 F   0  0  0  0  0  0  0  0  0  0  0  0
   -3.7919    3.5962   -0.2956 F   0  0  0  0  0  0  0  0  0  0  0  0
   -6.2092    3.7185   -0.1153 F   0  0  0  0  0  0  0  0  0  0  0  0
   -5.1179    2.0291    1.0122 F   0  0  0  0  0  0  0  0  0  0  0  0
  1 11  2  0  0  0  0
  2  1  1  0  0  0  0
  3  2  1  0  0  0  0
  4  5  2  0  0  0  0
  4  1  1  0  0  0  0
  5  6  1  0  0  0  0
  6  7  1  0  0  0  0
  6 10  2  0  0  0  0
  7  9  2  0  0  0  0
  8  7  2  0  0  0  0
 10 14  1  0  0  0  0
 11 15  1  0  0  0  0
 11 10  1  0  0  0  0
 13  5  1  0  0  0  0
 16 19  1  0  0  0  0
 16 20  1  0  0  0  0
 17 16  1  0  0  0  0
 18 12  1  0  0  0  0
M  RAD  3   2   2   3   3   4   2
M  END
