Coordinates from ORCA-job 4-NO2PhN2+~BF4-_B3LYPG-6-31G_dp-CH-Scan-d09-49-n800
 OpenBabel11261918593D

 20 18  0  0  0  0  0  0  0  0999 V2000
   -1.7541   -0.0815    0.0192 C   0  0  0  0  0  0  0  0  0  0  0  0
   -3.1499   -0.2371   -0.0144 N   0  0  0  0  0  0  0  0  0  0  0  0
   -4.2651   -0.2831   -0.0391 N   0  0  0  0  0  0  0  0  0  0  0  0
   -1.3709    1.2614    0.0205 C   0  0  0  0  0  0  0  0  0  0  0  0
    0.0534    1.3510    0.0569 C   0  0  0  0  0  0  0  0  0  0  0  0
    0.8629    0.2253    0.0848 C   0  0  0  0  0  0  0  0  0  0  0  0
    2.3404    0.3930    0.1219 N   0  0  0  0  0  0  0  0  0  0  0  0
    2.7849    1.5367    0.1234 O   0  0  0  0  0  0  0  0  0  0  0  0
    3.0263   -0.6287    0.1466 O   0  0  0  0  0  0  0  0  0  0  0  0
    0.3734   -1.0995    0.0805 C   0  0  0  0  0  0  0  0  0  0  0  0
   -0.9897   -1.2783    0.0465 C   0  0  0  0  0  0  0  0  0  0  0  0
   -3.7652    4.0684   -0.2378 H   0  0  0  0  0  0  0  0  0  0  0  0
    0.5442    2.3202    0.0635 H   0  0  0  0  0  0  0  0  0  0  0  0
    1.0672   -1.9288    0.1038 H   0  0  0  0  0  0  0  0  0  0  0  0
   -1.4409   -2.2664    0.0413 H   0  0  0  0  0  0  0  0  0  0  0  0
   -5.8802    2.6553   -0.1716 B   0  0  0  0  0  0  0  0  0  0  0  0
   -5.6875    1.9936   -1.3058 F   0  0  0  0  0  0  0  0  0  0  0  0
   -4.5765    4.2818   -0.6421 F   0  0  0  0  0  0  0  0  0  0  0  0
   -6.9565    3.4029   -0.0121 F   0  0  0  0  0  0  0  0  0  0  0  0
   -5.1472    2.3133    0.8899 F   0  0  0  0  0  0  0  0  0  0  0  0
  1  4  2  0  0  0  0
  1 11  1  0  0  0  0
  2  1  1  0  0  0  0
  3  2  1  0  0  0  0
  4  5  1  0  0  0  0
  5 13  1  0  0  0  0
  5  6  2  0  0  0  0
  6  7  1  0  0  0  0
  7  8  2  0  0  0  0
  7  9  2  0  0  0  0
 10  6  1  0  0  0  0
 10 14  1  0  0  0  0
 11 10  2  0  0  0  0
 15 11  1  0  0  0  0
 16 19  1  0  0  0  0
 16 20  1  0  0  0  0
 17 16  1  0  0  0  0
 18 12  1  0  0  0  0
M  RAD  3   2   2   3   3   4   2
M  END
