Coordinates from ORCA-job 4-NO2PhN2+~BF4-_B3LYPG-6-31G_dp-CH-Scan-d09-49-n800
 OpenBabel11261918593D

 20 18  0  0  0  0  0  0  0  0999 V2000
   -2.0623   -0.0145   -0.0376 C   0  0  0  0  0  0  0  0  0  0  0  0
   -3.4286   -0.2974   -0.0800 N   0  0  0  0  0  0  0  0  0  0  0  0
   -4.5246   -0.4884   -0.1173 N   0  0  0  0  0  0  0  0  0  0  0  0
   -1.7203    1.3444   -0.1037 C   0  0  0  0  0  0  0  0  0  0  0  0
   -0.3181    1.5310   -0.0534 C   0  0  0  0  0  0  0  0  0  0  0  0
    0.5563    0.4578    0.0484 C   0  0  0  0  0  0  0  0  0  0  0  0
    2.0193    0.7208    0.0973 N   0  0  0  0  0  0  0  0  0  0  0  0
    2.3861    1.8896    0.0504 O   0  0  0  0  0  0  0  0  0  0  0  0
    2.7621   -0.2552    0.1815 O   0  0  0  0  0  0  0  0  0  0  0  0
    0.1420   -0.8843    0.1091 C   0  0  0  0  0  0  0  0  0  0  0  0
   -1.2105   -1.1427    0.0657 C   0  0  0  0  0  0  0  0  0  0  0  0
   -2.9299    2.7210   -0.2195 H   0  0  0  0  0  0  0  0  0  0  0  0
    0.1053    2.5289   -0.0937 H   0  0  0  0  0  0  0  0  0  0  0  0
    0.8779   -1.6730    0.1876 H   0  0  0  0  0  0  0  0  0  0  0  0
   -1.5999   -2.1548    0.1089 H   0  0  0  0  0  0  0  0  0  0  0  0
   -5.1624    2.6800   -0.1395 B   0  0  0  0  0  0  0  0  0  0  0  0
   -5.1687    1.8897   -1.2503 F   0  0  0  0  0  0  0  0  0  0  0  0
   -3.6493    3.4309   -0.2748 F   0  0  0  0  0  0  0  0  0  0  0  0
   -5.9949    3.7292   -0.1269 F   0  0  0  0  0  0  0  0  0  0  0  0
   -5.0106    1.9864    1.0238 F   0  0  0  0  0  0  0  0  0  0  0  0
  1 11  2  0  0  0  0
  2  1  1  0  0  0  0
  3  2  1  0  0  0  0
  4  5  2  0  0  0  0
  4  1  1  0  0  0  0
  5  6  1  0  0  0  0
  6  7  1  0  0  0  0
  6 10  2  0  0  0  0
  7  9  2  0  0  0  0
  8  7  2  0  0  0  0
 10 14  1  0  0  0  0
 11 15  1  0  0  0  0
 11 10  1  0  0  0  0
 13  5  1  0  0  0  0
 16 19  1  0  0  0  0
 16 20  1  0  0  0  0
 17 16  1  0  0  0  0
 18 12  1  0  0  0  0
M  RAD  3   2   2   3   3   4   2
M  END
