Coordinates from ORCA-job 4-NO2PhN2+~BF4-_B3LYPG-6-31G_dp-CH-Scan-d09-49-n800
 OpenBabel11261918593D

 20 18  0  0  0  0  0  0  0  0999 V2000
   -1.8953   -0.0554   -0.0056 C   0  0  0  0  0  0  0  0  0  0  0  0
   -3.2772   -0.2760   -0.0355 N   0  0  0  0  0  0  0  0  0  0  0  0
   -4.3853   -0.3993   -0.0632 N   0  0  0  0  0  0  0  0  0  0  0  0
   -1.5407    1.2977   -0.0684 C   0  0  0  0  0  0  0  0  0  0  0  0
   -0.1245    1.4370   -0.0339 C   0  0  0  0  0  0  0  0  0  0  0  0
    0.7203    0.3402    0.0506 C   0  0  0  0  0  0  0  0  0  0  0  0
    2.1915    0.5586    0.0819 N   0  0  0  0  0  0  0  0  0  0  0  0
    2.5960    1.7155    0.0325 O   0  0  0  0  0  0  0  0  0  0  0  0
    2.9085   -0.4384    0.1555 O   0  0  0  0  0  0  0  0  0  0  0  0
    0.2722   -0.9956    0.1100 C   0  0  0  0  0  0  0  0  0  0  0  0
   -1.0850   -1.2183    0.0817 C   0  0  0  0  0  0  0  0  0  0  0  0
   -3.2715    3.3552   -0.2073 H   0  0  0  0  0  0  0  0  0  0  0  0
    0.3329    2.4209   -0.0738 H   0  0  0  0  0  0  0  0  0  0  0  0
    0.9902   -1.8016    0.1755 H   0  0  0  0  0  0  0  0  0  0  0  0
   -1.5031   -2.2196    0.1242 H   0  0  0  0  0  0  0  0  0  0  0  0
   -5.6248    2.6736   -0.1803 B   0  0  0  0  0  0  0  0  0  0  0  0
   -5.3364    2.0015   -1.3000 F   0  0  0  0  0  0  0  0  0  0  0  0
   -4.0430    3.8917   -0.2424 F   0  0  0  0  0  0  0  0  0  0  0  0
   -6.5452    3.6246   -0.2056 F   0  0  0  0  0  0  0  0  0  0  0  0
   -5.3106    2.0871    0.9801 F   0  0  0  0  0  0  0  0  0  0  0  0
  1 11  2  0  0  0  0
  2  1  1  0  0  0  0
  3  2  1  0  0  0  0
  4  5  2  0  0  0  0
  4  1  1  0  0  0  0
  5  6  1  0  0  0  0
  6  7  1  0  0  0  0
  6 10  2  0  0  0  0
  7  9  2  0  0  0  0
  8  7  2  0  0  0  0
 10 14  1  0  0  0  0
 11 10  1  0  0  0  0
 11 15  1  0  0  0  0
 13  5  1  0  0  0  0
 16 20  1  0  0  0  0
 17 16  1  0  0  0  0
 18 12  1  0  0  0  0
 19 16  1  0  0  0  0
M  RAD  3   2   2   3   3   4   2
M  END
