Coordinates from ORCA-job 4-NO2PhN2+~BF4-_B3LYPG-6-31G_dp-CH-Scan-d09-49-n800
 OpenBabel11261918593D

 20 18  0  0  0  0  0  0  0  0999 V2000
   -1.7398   -0.0818    0.0129 C   0  0  0  0  0  0  0  0  0  0  0  0
   -3.1367   -0.2293   -0.0280 N   0  0  0  0  0  0  0  0  0  0  0  0
   -4.2522   -0.2658   -0.0593 N   0  0  0  0  0  0  0  0  0  0  0  0
   -1.3516    1.2594    0.0147 C   0  0  0  0  0  0  0  0  0  0  0  0
    0.0731    1.3430    0.0583 C   0  0  0  0  0  0  0  0  0  0  0  0
    0.8775    0.2139    0.0915 C   0  0  0  0  0  0  0  0  0  0  0  0
    2.3555    0.3752    0.1361 N   0  0  0  0  0  0  0  0  0  0  0  0
    2.8054    1.5168    0.1272 O   0  0  0  0  0  0  0  0  0  0  0  0
    3.0371   -0.6495    0.1568 O   0  0  0  0  0  0  0  0  0  0  0  0
    0.3824   -1.1090    0.0862 C   0  0  0  0  0  0  0  0  0  0  0  0
   -0.9812   -1.2821    0.0454 C   0  0  0  0  0  0  0  0  0  0  0  0
   -3.8326    4.1307   -0.2450 H   0  0  0  0  0  0  0  0  0  0  0  0
    0.5679    2.3102    0.0664 H   0  0  0  0  0  0  0  0  0  0  0  0
    1.0726   -1.9410    0.1141 H   0  0  0  0  0  0  0  0  0  0  0  0
   -1.4367   -2.2683    0.0390 H   0  0  0  0  0  0  0  0  0  0  0  0
   -5.8984    2.6551   -0.1646 B   0  0  0  0  0  0  0  0  0  0  0  0
   -5.7327    1.9995   -1.3058 F   0  0  0  0  0  0  0  0  0  0  0  0
   -4.6387    4.3115   -0.6746 F   0  0  0  0  0  0  0  0  0  0  0  0
   -6.9841    3.3788    0.0361 F   0  0  0  0  0  0  0  0  0  0  0  0
   -5.1177    2.3321    0.8687 F   0  0  0  0  0  0  0  0  0  0  0  0
  1  4  2  0  0  0  0
  1 11  1  0  0  0  0
  2  1  1  0  0  0  0
  3  2  1  0  0  0  0
  4  5  1  0  0  0  0
  5 13  1  0  0  0  0
  5  6  2  0  0  0  0
  6  7  1  0  0  0  0
  7  9  2  0  0  0  0
  8  7  2  0  0  0  0
 10  6  1  0  0  0  0
 10 14  1  0  0  0  0
 11 10  2  0  0  0  0
 15 11  1  0  0  0  0
 16 19  1  0  0  0  0
 16 20  1  0  0  0  0
 17 16  1  0  0  0  0
 18 12  1  0  0  0  0
M  RAD  3   2   2   3   3   4   2
M  END
