Coordinates from ORCA-job 4-NO2PhN2+~BF4-_B3LYPG-6-31G_dp-CH-Scan-d09-49-n800
 OpenBabel11261918593D

 20 18  0  0  0  0  0  0  0  0999 V2000
   -2.0336   -0.0235   -0.0358 C   0  0  0  0  0  0  0  0  0  0  0  0
   -3.4021   -0.2980   -0.0783 N   0  0  0  0  0  0  0  0  0  0  0  0
   -4.5001   -0.4801   -0.1150 N   0  0  0  0  0  0  0  0  0  0  0  0
   -1.6929    1.3354   -0.1027 C   0  0  0  0  0  0  0  0  0  0  0  0
   -0.2880    1.5155   -0.0520 C   0  0  0  0  0  0  0  0  0  0  0  0
    0.5830    0.4399    0.0503 C   0  0  0  0  0  0  0  0  0  0  0  0
    2.0470    0.6978    0.0994 N   0  0  0  0  0  0  0  0  0  0  0  0
    2.4186    1.8652    0.0524 O   0  0  0  0  0  0  0  0  0  0  0  0
    2.7870   -0.2805    0.1841 O   0  0  0  0  0  0  0  0  0  0  0  0
    0.1653   -0.9021    0.1116 C   0  0  0  0  0  0  0  0  0  0  0  0
   -1.1874   -1.1568    0.0681 C   0  0  0  0  0  0  0  0  0  0  0  0
   -2.9849    2.8123   -0.2283 H   0  0  0  0  0  0  0  0  0  0  0  0
    0.1403    2.5115   -0.0926 H   0  0  0  0  0  0  0  0  0  0  0  0
    0.8996   -1.6923    0.1905 H   0  0  0  0  0  0  0  0  0  0  0  0
   -1.5801   -2.1677    0.1115 H   0  0  0  0  0  0  0  0  0  0  0  0
   -5.2479    2.6833   -0.1411 B   0  0  0  0  0  0  0  0  0  0  0  0
   -5.2214    1.9094   -1.2549 F   0  0  0  0  0  0  0  0  0  0  0  0
   -3.6994    3.4918   -0.2831 F   0  0  0  0  0  0  0  0  0  0  0  0
   -6.0755    3.7316   -0.1272 F   0  0  0  0  0  0  0  0  0  0  0  0
   -5.0588    2.0064    1.0192 F   0  0  0  0  0  0  0  0  0  0  0  0
  1 11  2  0  0  0  0
  2  1  1  0  0  0  0
  3  2  1  0  0  0  0
  4  5  2  0  0  0  0
  4  1  1  0  0  0  0
  5  6  1  0  0  0  0
  6  7  1  0  0  0  0
  6 10  2  0  0  0  0
  7  9  2  0  0  0  0
  8  7  2  0  0  0  0
 10 14  1  0  0  0  0
 11 15  1  0  0  0  0
 11 10  1  0  0  0  0
 13  5  1  0  0  0  0
 16 19  1  0  0  0  0
 16 20  1  0  0  0  0
 17 16  1  0  0  0  0
 18 12  1  0  0  0  0
M  RAD  3   2   2   3   3   4   2
M  END
