Coordinates from ORCA-job 4-NO2PhN2+~BF4-_B3LYPG-6-31G_dp-CH-Scan-d09-49-n800
 OpenBabel11261918593D

 20 18  0  0  0  0  0  0  0  0999 V2000
   -1.6906   -0.0741    0.0298 C   0  0  0  0  0  0  0  0  0  0  0  0
   -3.0913   -0.1930   -0.0054 N   0  0  0  0  0  0  0  0  0  0  0  0
   -4.2076   -0.2045   -0.0318 N   0  0  0  0  0  0  0  0  0  0  0  0
   -1.2805    1.2592    0.0577 C   0  0  0  0  0  0  0  0  0  0  0  0
    0.1460    1.3173    0.0952 C   0  0  0  0  0  0  0  0  0  0  0  0
    0.9303    0.1737    0.1002 C   0  0  0  0  0  0  0  0  0  0  0  0
    2.4112    0.3076    0.1402 N   0  0  0  0  0  0  0  0  0  0  0  0
    2.8814    1.4406    0.1682 O   0  0  0  0  0  0  0  0  0  0  0  0
    3.0745   -0.7294    0.1432 O   0  0  0  0  0  0  0  0  0  0  0  0
    0.4120   -1.1403    0.0693 C   0  0  0  0  0  0  0  0  0  0  0  0
   -0.9545   -1.2889    0.0324 C   0  0  0  0  0  0  0  0  0  0  0  0
   -4.0927    4.3415   -0.2548 H   0  0  0  0  0  0  0  0  0  0  0  0
    0.6577    2.2755    0.1210 H   0  0  0  0  0  0  0  0  0  0  0  0
    1.0879   -1.9845    0.0754 H   0  0  0  0  0  0  0  0  0  0  0  0
   -1.4276   -2.2666    0.0072 H   0  0  0  0  0  0  0  0  0  0  0  0
   -5.9582    2.6547   -0.1715 B   0  0  0  0  0  0  0  0  0  0  0  0
   -5.8239    1.9823   -1.3050 F   0  0  0  0  0  0  0  0  0  0  0  0
   -4.8476    4.3948   -0.7969 F   0  0  0  0  0  0  0  0  0  0  0  0
   -7.0797    3.2990    0.0936 F   0  0  0  0  0  0  0  0  0  0  0  0
   -5.0779    2.4345    0.8082 F   0  0  0  0  0  0  0  0  0  0  0  0
  1 11  2  0  0  0  0
  1  4  1  0  0  0  0
  2  1  1  0  0  0  0
  3  2  1  0  0  0  0
  4  5  2  0  0  0  0
  5  6  1  0  0  0  0
  5 13  1  0  0  0  0
  6  7  1  0  0  0  0
  7  9  2  0  0  0  0
  7  8  2  0  0  0  0
 10 14  1  0  0  0  0
 10  6  2  0  0  0  0
 11 10  1  0  0  0  0
 15 11  1  0  0  0  0
 16 19  1  0  0  0  0
 16 20  1  0  0  0  0
 17 16  1  0  0  0  0
 18 12  1  0  0  0  0
M  RAD  3   2   2   3   3   4   2
M  END
