Coordinates from ORCA-job 4-NO2PhN2+~BF4-_B3LYPG-6-31G_dp-CH-Scan-d09-49-n800
 OpenBabel11261918593D

 20 18  0  0  0  0  0  0  0  0999 V2000
   -1.8280   -0.0704   -0.0142 C   0  0  0  0  0  0  0  0  0  0  0  0
   -3.2160   -0.2632   -0.0531 N   0  0  0  0  0  0  0  0  0  0  0  0
   -4.3277   -0.3540   -0.0856 N   0  0  0  0  0  0  0  0  0  0  0  0
   -1.4614    1.2779   -0.0774 C   0  0  0  0  0  0  0  0  0  0  0  0
   -0.0413    1.3955   -0.0335 C   0  0  0  0  0  0  0  0  0  0  0  0
    0.7875    0.2873    0.0589 C   0  0  0  0  0  0  0  0  0  0  0  0
    2.2613    0.4842    0.1002 N   0  0  0  0  0  0  0  0  0  0  0  0
    2.6840    1.6348    0.0504 O   0  0  0  0  0  0  0  0  0  0  0  0
    2.9641   -0.5226    0.1819 O   0  0  0  0  0  0  0  0  0  0  0  0
    0.3209   -1.0433    0.1178 C   0  0  0  0  0  0  0  0  0  0  0  0
   -1.0387   -1.2475    0.0808 C   0  0  0  0  0  0  0  0  0  0  0  0
   -3.4478    3.6678   -0.2561 H   0  0  0  0  0  0  0  0  0  0  0  0
    0.4316    2.3725   -0.0721 H   0  0  0  0  0  0  0  0  0  0  0  0
    1.0280   -1.8584    0.1895 H   0  0  0  0  0  0  0  0  0  0  0  0
   -1.4718   -2.2427    0.1221 H   0  0  0  0  0  0  0  0  0  0  0  0
   -5.7702    2.6626   -0.1643 B   0  0  0  0  0  0  0  0  0  0  0  0
   -5.4434    2.0409   -1.2966 F   0  0  0  0  0  0  0  0  0  0  0  0
   -4.2706    4.1070   -0.3013 F   0  0  0  0  0  0  0  0  0  0  0  0
   -6.7686    3.5277   -0.1501 F   0  0  0  0  0  0  0  0  0  0  0  0
   -5.3230    2.1431    0.9792 F   0  0  0  0  0  0  0  0  0  0  0  0
  1 11  2  0  0  0  0
  2  1  1  0  0  0  0
  3  2  1  0  0  0  0
  4  5  2  0  0  0  0
  4  1  1  0  0  0  0
  5  6  1  0  0  0  0
  6  7  1  0  0  0  0
  6 10  2  0  0  0  0
  7  9  2  0  0  0  0
  8  7  2  0  0  0  0
 10 14  1  0  0  0  0
 11 10  1  0  0  0  0
 11 15  1  0  0  0  0
 13  5  1  0  0  0  0
 16 19  1  0  0  0  0
 16 20  1  0  0  0  0
 17 16  1  0  0  0  0
 18 12  1  0  0  0  0
M  RAD  3   2   2   3   3   4   2
M  END
