Coordinates from ORCA-job 4-NO2PhN2+~BF4-_B3LYPG-6-31G_dp-CH-Scan-d09-49-n800
 OpenBabel11261918593D

 20 18  0  0  0  0  0  0  0  0999 V2000
   -1.9278   -0.0470   -0.0031 C   0  0  0  0  0  0  0  0  0  0  0  0
   -3.3065   -0.2818   -0.0322 N   0  0  0  0  0  0  0  0  0  0  0  0
   -4.4120   -0.4234   -0.0591 N   0  0  0  0  0  0  0  0  0  0  0  0
   -1.5773    1.3077   -0.0650 C   0  0  0  0  0  0  0  0  0  0  0  0
   -0.1631    1.4561   -0.0331 C   0  0  0  0  0  0  0  0  0  0  0  0
    0.6884    0.3640    0.0484 C   0  0  0  0  0  0  0  0  0  0  0  0
    2.1582    0.5915    0.0761 N   0  0  0  0  0  0  0  0  0  0  0  0
    2.5551    1.7508    0.0259 O   0  0  0  0  0  0  0  0  0  0  0  0
    2.8810   -0.4014    0.1475 O   0  0  0  0  0  0  0  0  0  0  0  0
    0.2478   -0.9735    0.1078 C   0  0  0  0  0  0  0  0  0  0  0  0
   -1.1085   -1.2036    0.0819 C   0  0  0  0  0  0  0  0  0  0  0  0
   -3.2013    3.2265   -0.1926 H   0  0  0  0  0  0  0  0  0  0  0  0
    0.2877    2.4428   -0.0730 H   0  0  0  0  0  0  0  0  0  0  0  0
    0.9700   -1.7760    0.1712 H   0  0  0  0  0  0  0  0  0  0  0  0
   -1.5205   -2.2073    0.1244 H   0  0  0  0  0  0  0  0  0  0  0  0
   -5.5432    2.6767   -0.1836 B   0  0  0  0  0  0  0  0  0  0  0  0
   -5.2882    1.9826   -1.3017 F   0  0  0  0  0  0  0  0  0  0  0  0
   -3.9551    3.7963   -0.2283 F   0  0  0  0  0  0  0  0  0  0  0  0
   -6.4365    3.6558   -0.2139 F   0  0  0  0  0  0  0  0  0  0  0  0
   -5.2790    2.0622    0.9787 F   0  0  0  0  0  0  0  0  0  0  0  0
  1 11  2  0  0  0  0
  2  1  1  0  0  0  0
  3  2  1  0  0  0  0
  4  5  2  0  0  0  0
  4  1  1  0  0  0  0
  5  6  1  0  0  0  0
  6  7  1  0  0  0  0
  6 10  2  0  0  0  0
  7  9  2  0  0  0  0
  8  7  2  0  0  0  0
 10 14  1  0  0  0  0
 11 10  1  0  0  0  0
 11 15  1  0  0  0  0
 13  5  1  0  0  0  0
 16 20  1  0  0  0  0
 17 16  1  0  0  0  0
 18 12  1  0  0  0  0
 19 16  1  0  0  0  0
M  RAD  3   2   2   3   3   4   2
M  END
