Coordinates from ORCA-job 4-NO2PhN2+~BF4-_B3LYPG-6-31G_dp-CH-Scan-d09-49-n800
 OpenBabel11261918593D

 20 18  0  0  0  0  0  0  0  0999 V2000
   -1.8641   -0.0634   -0.0106 C   0  0  0  0  0  0  0  0  0  0  0  0
   -3.2489   -0.2717   -0.0441 N   0  0  0  0  0  0  0  0  0  0  0  0
   -4.3587   -0.3805   -0.0741 N   0  0  0  0  0  0  0  0  0  0  0  0
   -1.5046    1.2875   -0.0747 C   0  0  0  0  0  0  0  0  0  0  0  0
   -0.0865    1.4172   -0.0350 C   0  0  0  0  0  0  0  0  0  0  0  0
    0.7513    0.3155    0.0545 C   0  0  0  0  0  0  0  0  0  0  0  0
    2.2237    0.5245    0.0914 N   0  0  0  0  0  0  0  0  0  0  0  0
    2.6363    1.6786    0.0419 O   0  0  0  0  0  0  0  0  0  0  0  0
    2.9346   -0.4768    0.1686 O   0  0  0  0  0  0  0  0  0  0  0  0
    0.2951   -1.0181    0.1140 C   0  0  0  0  0  0  0  0  0  0  0  0
   -1.0632   -1.2327    0.0812 C   0  0  0  0  0  0  0  0  0  0  0  0
   -3.3494    3.5030   -0.2344 H   0  0  0  0  0  0  0  0  0  0  0  0
    0.3779    2.3980   -0.0747 H   0  0  0  0  0  0  0  0  0  0  0  0
    1.0084   -1.8281    0.1832 H   0  0  0  0  0  0  0  0  0  0  0  0
   -1.4879   -2.2313    0.1235 H   0  0  0  0  0  0  0  0  0  0  0  0
   -5.6958    2.6677   -0.1718 B   0  0  0  0  0  0  0  0  0  0  0  0
   -5.3848    2.0217   -1.2976 F   0  0  0  0  0  0  0  0  0  0  0  0
   -4.1440    3.9978   -0.2676 F   0  0  0  0  0  0  0  0  0  0  0  0
   -6.6542    3.5786   -0.1789 F   0  0  0  0  0  0  0  0  0  0  0  0
   -5.3164    2.1119    0.9812 F   0  0  0  0  0  0  0  0  0  0  0  0
  1 11  2  0  0  0  0
  2  1  1  0  0  0  0
  3  2  1  0  0  0  0
  4  5  2  0  0  0  0
  4  1  1  0  0  0  0
  5  6  1  0  0  0  0
  6  7  1  0  0  0  0
  6 10  2  0  0  0  0
  7  9  2  0  0  0  0
  8  7  2  0  0  0  0
 10 14  1  0  0  0  0
 11 10  1  0  0  0  0
 11 15  1  0  0  0  0
 13  5  1  0  0  0  0
 16 20  1  0  0  0  0
 17 16  1  0  0  0  0
 18 12  1  0  0  0  0
 19 16  1  0  0  0  0
M  RAD  3   2   2   3   3   4   2
M  END
