Coordinates from ORCA-job 4-NO2PhN2+~BF4-_B3LYPG-6-31G_dp-CH-Scan-d09-49-n800
 OpenBabel11261918593D

 20 18  0  0  0  0  0  0  0  0999 V2000
   -1.7373   -0.0805    0.0118 C   0  0  0  0  0  0  0  0  0  0  0  0
   -3.1344   -0.2271   -0.0287 N   0  0  0  0  0  0  0  0  0  0  0  0
   -4.2499   -0.2636   -0.0596 N   0  0  0  0  0  0  0  0  0  0  0  0
   -1.3475    1.2600    0.0131 C   0  0  0  0  0  0  0  0  0  0  0  0
    0.0772    1.3421    0.0562 C   0  0  0  0  0  0  0  0  0  0  0  0
    0.8804    0.2120    0.0897 C   0  0  0  0  0  0  0  0  0  0  0  0
    2.3586    0.3717    0.1337 N   0  0  0  0  0  0  0  0  0  0  0  0
    2.8095    1.5129    0.1341 O   0  0  0  0  0  0  0  0  0  0  0  0
    3.0387   -0.6537    0.1646 O   0  0  0  0  0  0  0  0  0  0  0  0
    0.3838   -1.1103    0.0851 C   0  0  0  0  0  0  0  0  0  0  0  0
   -0.9800   -1.2818    0.0447 C   0  0  0  0  0  0  0  0  0  0  0  0
   -3.8428    4.1389   -0.2468 H   0  0  0  0  0  0  0  0  0  0  0  0
    0.5732    2.3087    0.0637 H   0  0  0  0  0  0  0  0  0  0  0  0
    1.0730   -1.9431    0.1132 H   0  0  0  0  0  0  0  0  0  0  0  0
   -1.4367   -2.2675    0.0388 H   0  0  0  0  0  0  0  0  0  0  0  0
   -5.9024    2.6551   -0.1632 B   0  0  0  0  0  0  0  0  0  0  0  0
   -5.7389    1.9995   -1.3047 F   0  0  0  0  0  0  0  0  0  0  0  0
   -4.6489    4.3155   -0.6781 F   0  0  0  0  0  0  0  0  0  0  0  0
   -6.9895    3.3757    0.0412 F   0  0  0  0  0  0  0  0  0  0  0  0
   -5.1169    2.3351    0.8674 F   0  0  0  0  0  0  0  0  0  0  0  0
  1  4  2  0  0  0  0
  1 11  1  0  0  0  0
  2  1  1  0  0  0  0
  3  2  1  0  0  0  0
  4  5  1  0  0  0  0
  5 13  1  0  0  0  0
  5  6  2  0  0  0  0
  6  7  1  0  0  0  0
  7  8  2  0  0  0  0
  7  9  2  0  0  0  0
 10  6  1  0  0  0  0
 10 14  1  0  0  0  0
 11 10  2  0  0  0  0
 15 11  1  0  0  0  0
 16 19  1  0  0  0  0
 16 20  1  0  0  0  0
 17 16  1  0  0  0  0
 18 12  1  0  0  0  0
M  RAD  3   2   2   3   3   4   2
M  END
