Coordinates from ORCA-job 4-NO2PhN2+~BF4-_B3LYPG-6-31G_dp-CH-Scan-d09-49-n800
 OpenBabel11261918593D

 20 18  0  0  0  0  0  0  0  0999 V2000
   -1.7600   -0.0810    0.0204 C   0  0  0  0  0  0  0  0  0  0  0  0
   -3.1555   -0.2396   -0.0114 N   0  0  0  0  0  0  0  0  0  0  0  0
   -4.2705   -0.2888   -0.0353 N   0  0  0  0  0  0  0  0  0  0  0  0
   -1.3785    1.2624    0.0207 C   0  0  0  0  0  0  0  0  0  0  0  0
    0.0456    1.3542    0.0556 C   0  0  0  0  0  0  0  0  0  0  0  0
    0.8569    0.2298    0.0828 C   0  0  0  0  0  0  0  0  0  0  0  0
    2.3342    0.3999    0.1181 N   0  0  0  0  0  0  0  0  0  0  0  0
    2.7767    1.5444    0.1219 O   0  0  0  0  0  0  0  0  0  0  0  0
    3.0215   -0.6207    0.1447 O   0  0  0  0  0  0  0  0  0  0  0  0
    0.3694   -1.0957    0.0795 C   0  0  0  0  0  0  0  0  0  0  0  0
   -0.9934   -1.2764    0.0471 C   0  0  0  0  0  0  0  0  0  0  0  0
   -3.7407    4.0443   -0.2357 H   0  0  0  0  0  0  0  0  0  0  0  0
    0.5348    2.3242    0.0613 H   0  0  0  0  0  0  0  0  0  0  0  0
    1.0644   -1.9239    0.1021 H   0  0  0  0  0  0  0  0  0  0  0  0
   -1.4431   -2.2653    0.0428 H   0  0  0  0  0  0  0  0  0  0  0  0
   -5.8713    2.6545   -0.1731 B   0  0  0  0  0  0  0  0  0  0  0  0
   -5.6728    1.9918   -1.3059 F   0  0  0  0  0  0  0  0  0  0  0  0
   -4.5531    4.2701   -0.6311 F   0  0  0  0  0  0  0  0  0  0  0  0
   -6.9436    3.4100   -0.0236 F   0  0  0  0  0  0  0  0  0  0  0  0
   -5.1521    2.3051    0.8953 F   0  0  0  0  0  0  0  0  0  0  0  0
  1  4  2  0  0  0  0
  1 11  1  0  0  0  0
  2  1  1  0  0  0  0
  3  2  1  0  0  0  0
  4  5  1  0  0  0  0
  5 13  1  0  0  0  0
  5  6  2  0  0  0  0
  6  7  1  0  0  0  0
  7  8  2  0  0  0  0
  7  9  2  0  0  0  0
 10  6  1  0  0  0  0
 10 14  1  0  0  0  0
 11 10  2  0  0  0  0
 15 11  1  0  0  0  0
 16 19  1  0  0  0  0
 16 20  1  0  0  0  0
 17 16  1  0  0  0  0
 18 12  1  0  0  0  0
M  RAD  3   2   2   3   3   4   2
M  END
