Coordinates from ORCA-job 4-NO2PhN2+~BF4-_B3LYPG-6-31G_dp-CH-Scan-d09-49-n800
 OpenBabel11261918593D

 20 18  0  0  0  0  0  0  0  0999 V2000
   -1.7242   -0.0803    0.0109 C   0  0  0  0  0  0  0  0  0  0  0  0
   -3.1221   -0.2196   -0.0320 N   0  0  0  0  0  0  0  0  0  0  0  0
   -4.2379   -0.2487   -0.0644 N   0  0  0  0  0  0  0  0  0  0  0  0
   -1.3297    1.2587    0.0151 C   0  0  0  0  0  0  0  0  0  0  0  0
    0.0954    1.3350    0.0601 C   0  0  0  0  0  0  0  0  0  0  0  0
    0.8939    0.2017    0.0926 C   0  0  0  0  0  0  0  0  0  0  0  0
    2.3727    0.3552    0.1386 N   0  0  0  0  0  0  0  0  0  0  0  0
    2.8284    1.4945    0.1433 O   0  0  0  0  0  0  0  0  0  0  0  0
    3.0487   -0.6730    0.1697 O   0  0  0  0  0  0  0  0  0  0  0  0
    0.3921   -1.1188    0.0850 C   0  0  0  0  0  0  0  0  0  0  0  0
   -0.9723   -1.2849    0.0426 C   0  0  0  0  0  0  0  0  0  0  0  0
   -3.9042    4.1945   -0.2518 H   0  0  0  0  0  0  0  0  0  0  0  0
    0.5952    2.2997    0.0700 H   0  0  0  0  0  0  0  0  0  0  0  0
    1.0781   -1.9543    0.1125 H   0  0  0  0  0  0  0  0  0  0  0  0
   -1.4330   -2.2687    0.0343 H   0  0  0  0  0  0  0  0  0  0  0  0
   -5.9197    2.6556   -0.1606 B   0  0  0  0  0  0  0  0  0  0  0  0
   -5.7704    2.0001   -1.3035 F   0  0  0  0  0  0  0  0  0  0  0  0
   -4.7039    4.3396   -0.7059 F   0  0  0  0  0  0  0  0  0  0  0  0
   -7.0148    3.3567    0.0674 F   0  0  0  0  0  0  0  0  0  0  0  0
   -5.1033    2.3564    0.8522 F   0  0  0  0  0  0  0  0  0  0  0  0
  1  4  2  0  0  0  0
  1 11  1  0  0  0  0
  2  1  1  0  0  0  0
  3  2  1  0  0  0  0
  4  5  1  0  0  0  0
  5 13  1  0  0  0  0
  5  6  2  0  0  0  0
  6  7  1  0  0  0  0
  7  8  2  0  0  0  0
  7  9  2  0  0  0  0
 10  6  1  0  0  0  0
 10 14  1  0  0  0  0
 11 10  2  0  0  0  0
 15 11  1  0  0  0  0
 16 19  1  0  0  0  0
 16 20  1  0  0  0  0
 17 16  1  0  0  0  0
 18 12  1  0  0  0  0
M  RAD  3   2   2   3   3   4   2
M  END
