Coordinates from ORCA-job 4-NO2PhN2+~BF4-_B3LYPG-6-31G_dp-CH-Scan-d09-49-n800
 OpenBabel11261918593D

 20 18  0  0  0  0  0  0  0  0999 V2000
   -2.0490   -0.0189   -0.0370 C   0  0  0  0  0  0  0  0  0  0  0  0
   -3.4163   -0.2982   -0.0795 N   0  0  0  0  0  0  0  0  0  0  0  0
   -4.5132   -0.4852   -0.1164 N   0  0  0  0  0  0  0  0  0  0  0  0
   -1.7080    1.3401   -0.1037 C   0  0  0  0  0  0  0  0  0  0  0  0
   -0.3045    1.5238   -0.0530 C   0  0  0  0  0  0  0  0  0  0  0  0
    0.5684    0.4496    0.0494 C   0  0  0  0  0  0  0  0  0  0  0  0
    2.0319    0.7105    0.0986 N   0  0  0  0  0  0  0  0  0  0  0  0
    2.4008    1.8787    0.0517 O   0  0  0  0  0  0  0  0  0  0  0  0
    2.7736   -0.2664    0.1833 O   0  0  0  0  0  0  0  0  0  0  0  0
    0.1529   -0.8925    0.1106 C   0  0  0  0  0  0  0  0  0  0  0  0
   -1.1997   -1.1494    0.0670 C   0  0  0  0  0  0  0  0  0  0  0  0
   -2.9558    2.7628   -0.2244 H   0  0  0  0  0  0  0  0  0  0  0  0
    0.1211    2.5208   -0.0936 H   0  0  0  0  0  0  0  0  0  0  0  0
    0.8882   -1.6817    0.1895 H   0  0  0  0  0  0  0  0  0  0  0  0
   -1.5905   -2.1610    0.1104 H   0  0  0  0  0  0  0  0  0  0  0  0
   -5.2017    2.6819   -0.1402 B   0  0  0  0  0  0  0  0  0  0  0  0
   -5.1938    1.8987   -1.2522 F   0  0  0  0  0  0  0  0  0  0  0  0
   -3.6719    3.4580   -0.2794 F   0  0  0  0  0  0  0  0  0  0  0  0
   -6.0309    3.7314   -0.1271 F   0  0  0  0  0  0  0  0  0  0  0  0
   -5.0326    1.9962    1.0219 F   0  0  0  0  0  0  0  0  0  0  0  0
  1 11  2  0  0  0  0
  2  1  1  0  0  0  0
  3  2  1  0  0  0  0
  4  5  2  0  0  0  0
  4  1  1  0  0  0  0
  5  6  1  0  0  0  0
  6  7  1  0  0  0  0
  6 10  2  0  0  0  0
  7  9  2  0  0  0  0
  8  7  2  0  0  0  0
 10 14  1  0  0  0  0
 11 15  1  0  0  0  0
 11 10  1  0  0  0  0
 13  5  1  0  0  0  0
 16 19  1  0  0  0  0
 16 20  1  0  0  0  0
 17 16  1  0  0  0  0
 18 12  1  0  0  0  0
M  RAD  3   2   2   3   3   4   2
M  END
