Coordinates from ORCA-job 4-NO2PhN2+~BF4-_B3LYPG-6-31G_dp-CH-Scan-d09-49-n800
 OpenBabel11261918593D

 20 18  0  0  0  0  0  0  0  0999 V2000
   -1.6354   -0.0565    0.0393 C   0  0  0  0  0  0  0  0  0  0  0  0
   -3.0391   -0.1415    0.0063 N   0  0  0  0  0  0  0  0  0  0  0  0
   -4.1557   -0.1247   -0.0170 N   0  0  0  0  0  0  0  0  0  0  0  0
   -1.1963    1.2667    0.0773 C   0  0  0  0  0  0  0  0  0  0  0  0
    0.2313    1.2936    0.1120 C   0  0  0  0  0  0  0  0  0  0  0  0
    0.9898    0.1328    0.1066 C   0  0  0  0  0  0  0  0  0  0  0  0
    2.4732    0.2332    0.1450 N   0  0  0  0  0  0  0  0  0  0  0  0
    2.9687    1.3552    0.1848 O   0  0  0  0  0  0  0  0  0  0  0  0
    3.1136   -0.8181    0.1348 O   0  0  0  0  0  0  0  0  0  0  0  0
    0.4423   -1.1694    0.0660 C   0  0  0  0  0  0  0  0  0  0  0  0
   -0.9272   -1.2877    0.0305 C   0  0  0  0  0  0  0  0  0  0  0  0
   -4.3246    4.4895   -0.2670 H   0  0  0  0  0  0  0  0  0  0  0  0
    0.7639    2.2402    0.1439 H   0  0  0  0  0  0  0  0  0  0  0  0
    1.0996   -2.0282    0.0639 H   0  0  0  0  0  0  0  0  0  0  0  0
   -1.4218   -2.2544   -0.0021 H   0  0  0  0  0  0  0  0  0  0  0  0
   -6.0418    2.6591   -0.1823 B   0  0  0  0  0  0  0  0  0  0  0  0
   -5.8835    1.9942   -1.3161 F   0  0  0  0  0  0  0  0  0  0  0  0
   -5.0633    4.4788   -0.8332 F   0  0  0  0  0  0  0  0  0  0  0  0
   -7.1995    3.2243    0.1057 F   0  0  0  0  0  0  0  0  0  0  0  0
   -5.1252    2.5121    0.7780 F   0  0  0  0  0  0  0  0  0  0  0  0
  1  4  1  0  0  0  0
  2  1  1  0  0  0  0
  3  2  1  0  0  0  0
  4  5  2  0  0  0  0
  5 13  1  0  0  0  0
  6  5  1  0  0  0  0
  6  7  1  0  0  0  0
  7  8  2  0  0  0  0
  9  7  2  0  0  0  0
 10  6  2  0  0  0  0
 11  1  2  0  0  0  0
 11 10  1  0  0  0  0
 14 10  1  0  0  0  0
 15 11  1  0  0  0  0
 16 19  1  0  0  0  0
 16 20  1  0  0  0  0
 17 16  1  0  0  0  0
 18 12  1  0  0  0  0
M  RAD  3   2   2   3   3   4   2
M  END
