Coordinates from ORCA-job 4-NO2PhN2+~BF4-_B3LYPG-6-31G_dp-CH-Scan-d09-49-n800
 OpenBabel11261918593D

 20 18  0  0  0  0  0  0  0  0999 V2000
   -1.7166   -0.0782    0.0123 C   0  0  0  0  0  0  0  0  0  0  0  0
   -3.1151   -0.2134   -0.0308 N   0  0  0  0  0  0  0  0  0  0  0  0
   -4.2310   -0.2394   -0.0624 N   0  0  0  0  0  0  0  0  0  0  0  0
   -1.3183    1.2594    0.0198 C   0  0  0  0  0  0  0  0  0  0  0  0
    0.1071    1.3315    0.0646 C   0  0  0  0  0  0  0  0  0  0  0  0
    0.9022    0.1957    0.0941 C   0  0  0  0  0  0  0  0  0  0  0  0
    2.3815    0.3446    0.1404 N   0  0  0  0  0  0  0  0  0  0  0  0
    2.8406    1.4825    0.1482 O   0  0  0  0  0  0  0  0  0  0  0  0
    3.0544   -0.6857    0.1685 O   0  0  0  0  0  0  0  0  0  0  0  0
    0.3965   -1.1233    0.0835 C   0  0  0  0  0  0  0  0  0  0  0  0
   -0.9684   -1.2853    0.0409 C   0  0  0  0  0  0  0  0  0  0  0  0
   -3.9409    4.2258   -0.2533 H   0  0  0  0  0  0  0  0  0  0  0  0
    0.6098    2.2946    0.0767 H   0  0  0  0  0  0  0  0  0  0  0  0
    1.0800   -1.9609    0.1087 H   0  0  0  0  0  0  0  0  0  0  0  0
   -1.4320   -2.2677    0.0303 H   0  0  0  0  0  0  0  0  0  0  0  0
   -5.9301    2.6551   -0.1608 B   0  0  0  0  0  0  0  0  0  0  0  0
   -5.7851    1.9975   -1.3027 F   0  0  0  0  0  0  0  0  0  0  0  0
   -4.7352    4.3513   -0.7223 F   0  0  0  0  0  0  0  0  0  0  0  0
   -7.0303    3.3454    0.0758 F   0  0  0  0  0  0  0  0  0  0  0  0
   -5.0999    2.3698    0.8448 F   0  0  0  0  0  0  0  0  0  0  0  0
  1  4  2  0  0  0  0
  1 11  1  0  0  0  0
  2  1  1  0  0  0  0
  3  2  1  0  0  0  0
  4  5  1  0  0  0  0
  5 13  1  0  0  0  0
  5  6  2  0  0  0  0
  6  7  1  0  0  0  0
  7  8  2  0  0  0  0
  7  9  2  0  0  0  0
 10  6  1  0  0  0  0
 10 14  1  0  0  0  0
 11 10  2  0  0  0  0
 15 11  1  0  0  0  0
 16 19  1  0  0  0  0
 16 20  1  0  0  0  0
 17 16  1  0  0  0  0
 18 12  1  0  0  0  0
M  RAD  3   2   2   3   3   4   2
M  END
