Coordinates from ORCA-job 4-NO2PhN2+~BF4-_B3LYPG-6-31G_dp-CH-Scan-d09-49-n800
 OpenBabel11261918593D

 20 18  0  0  0  0  0  0  0  0999 V2000
   -2.0810   -0.0073   -0.0368 C   0  0  0  0  0  0  0  0  0  0  0  0
   -3.4460   -0.2947   -0.0788 N   0  0  0  0  0  0  0  0  0  0  0  0
   -4.5408   -0.4905   -0.1162 N   0  0  0  0  0  0  0  0  0  0  0  0
   -1.7362    1.3511   -0.1019 C   0  0  0  0  0  0  0  0  0  0  0  0
   -0.3361    1.5415   -0.0533 C   0  0  0  0  0  0  0  0  0  0  0  0
    0.5397    0.4690    0.0468 C   0  0  0  0  0  0  0  0  0  0  0  0
    2.0024    0.7342    0.0942 N   0  0  0  0  0  0  0  0  0  0  0  0
    2.3668    1.9036    0.0469 O   0  0  0  0  0  0  0  0  0  0  0  0
    2.7463   -0.2408    0.1776 O   0  0  0  0  0  0  0  0  0  0  0  0
    0.1266   -0.8727    0.1072 C   0  0  0  0  0  0  0  0  0  0  0  0
   -1.2261   -1.1325    0.0650 C   0  0  0  0  0  0  0  0  0  0  0  0
   -2.8912    2.6628   -0.2104 H   0  0  0  0  0  0  0  0  0  0  0  0
    0.0845    2.5404   -0.0933 H   0  0  0  0  0  0  0  0  0  0  0  0
    0.8631   -1.6611    0.1846 H   0  0  0  0  0  0  0  0  0  0  0  0
   -1.6140   -2.1451    0.1079 H   0  0  0  0  0  0  0  0  0  0  0  0
   -5.1082    2.6760   -0.1406 B   0  0  0  0  0  0  0  0  0  0  0  0
   -5.1295    1.8766   -1.2507 F   0  0  0  0  0  0  0  0  0  0  0  0
   -3.6198    3.3968   -0.2659 F   0  0  0  0  0  0  0  0  0  0  0  0
   -5.9493    3.7218   -0.1299 F   0  0  0  0  0  0  0  0  0  0  0  0
   -4.9821    1.9703    1.0239 F   0  0  0  0  0  0  0  0  0  0  0  0
  1 11  2  0  0  0  0
  2  1  1  0  0  0  0
  3  2  1  0  0  0  0
  4  5  2  0  0  0  0
  4  1  1  0  0  0  0
  5  6  1  0  0  0  0
  6  7  1  0  0  0  0
  6 10  2  0  0  0  0
  7  9  2  0  0  0  0
  8  7  2  0  0  0  0
 10 14  1  0  0  0  0
 11 10  1  0  0  0  0
 11 15  1  0  0  0  0
 13  5  1  0  0  0  0
 16 19  1  0  0  0  0
 16 20  1  0  0  0  0
 17 16  1  0  0  0  0
 18 12  1  0  0  0  0
M  RAD  3   2   2   3   3   4   2
M  END
