Coordinates from ORCA-job 4-NO2PhN2+~BF4-_B3LYPG-6-31G_dp-CH-Scan-d09-49-n800
 OpenBabel11261918593D

 20 18  0  0  0  0  0  0  0  0999 V2000
   -1.9657   -0.0381   -0.0275 C   0  0  0  0  0  0  0  0  0  0  0  0
   -3.3403   -0.2880   -0.0708 N   0  0  0  0  0  0  0  0  0  0  0  0
   -4.4426   -0.4476   -0.1092 N   0  0  0  0  0  0  0  0  0  0  0  0
   -1.6193    1.3182   -0.0954 C   0  0  0  0  0  0  0  0  0  0  0  0
   -0.2086    1.4789   -0.0475 C   0  0  0  0  0  0  0  0  0  0  0  0
    0.6497    0.3936    0.0529 C   0  0  0  0  0  0  0  0  0  0  0  0
    2.1173    0.6327    0.0971 N   0  0  0  0  0  0  0  0  0  0  0  0
    2.5050    1.7949    0.0444 O   0  0  0  0  0  0  0  0  0  0  0  0
    2.8461   -0.3542    0.1837 O   0  0  0  0  0  0  0  0  0  0  0  0
    0.2177   -0.9456    0.1167 C   0  0  0  0  0  0  0  0  0  0  0  0
   -1.1368   -1.1857    0.0761 C   0  0  0  0  0  0  0  0  0  0  0  0
   -3.1200    3.0579   -0.2349 H   0  0  0  0  0  0  0  0  0  0  0  0
    0.2341    2.4689   -0.0895 H   0  0  0  0  0  0  0  0  0  0  0  0
    0.9443   -1.7429    0.1949 H   0  0  0  0  0  0  0  0  0  0  0  0
   -1.5415   -2.1921    0.1211 H   0  0  0  0  0  0  0  0  0  0  0  0
   -5.4402    2.6830   -0.1493 B   0  0  0  0  0  0  0  0  0  0  0  0
   -5.3137    1.9574   -1.2747 F   0  0  0  0  0  0  0  0  0  0  0  0
   -3.8526    3.6696   -0.2827 F   0  0  0  0  0  0  0  0  0  0  0  0
   -6.2967    3.6989   -0.1305 F   0  0  0  0  0  0  0  0  0  0  0  0
   -5.1671    2.0395    1.0011 F   0  0  0  0  0  0  0  0  0  0  0  0
  1 11  2  0  0  0  0
  2  1  1  0  0  0  0
  3  2  1  0  0  0  0
  4  5  2  0  0  0  0
  4  1  1  0  0  0  0
  5  6  1  0  0  0  0
  6  7  1  0  0  0  0
  6 10  2  0  0  0  0
  7  9  2  0  0  0  0
  8  7  2  0  0  0  0
 10 14  1  0  0  0  0
 11 10  1  0  0  0  0
 11 15  1  0  0  0  0
 13  5  1  0  0  0  0
 16 19  1  0  0  0  0
 16 20  1  0  0  0  0
 17 16  1  0  0  0  0
 18 12  1  0  0  0  0
M  RAD  3   2   2   3   3   4   2
M  END
