Coordinates from ORCA-job 4-NO2PhN2+~BF4-_B3LYPG-6-31G_dp-CH-Scan-d09-49-n800
 OpenBabel11261918593D

 20 19  0  0  0  0  0  0  0  0999 V2000
   -2.1552    0.0825   -0.2447 C   0  0  0  0  0  0  0  0  0  0  0  0
   -3.5066   -0.1801   -0.4490 N   0  0  0  0  0  0  0  0  0  0  0  0
   -4.5768   -0.4040   -0.6572 N   0  0  0  0  0  0  0  0  0  0  0  0
   -1.7067    1.4011   -0.3990 C   0  0  0  0  0  0  0  0  0  0  0  0
   -0.3393    1.6072   -0.2196 C   0  0  0  0  0  0  0  0  0  0  0  0
    0.4801    0.5285    0.1009 C   0  0  0  0  0  0  0  0  0  0  0  0
    1.9336    0.7712    0.2953 N   0  0  0  0  0  0  0  0  0  0  0  0
    2.3334    1.9202    0.1510 O   0  0  0  0  0  0  0  0  0  0  0  0
    2.6262   -0.2002    0.5846 O   0  0  0  0  0  0  0  0  0  0  0  0
    0.0118   -0.7802    0.2527 C   0  0  0  0  0  0  0  0  0  0  0  0
   -1.3398   -1.0205    0.0723 C   0  0  0  0  0  0  0  0  0  0  0  0
   -2.5749    2.3425   -0.6527 H   0  0  0  0  0  0  0  0  0  0  0  0
    0.0943    2.5948   -0.3173 H   0  0  0  0  0  0  0  0  0  0  0  0
    0.7043   -1.5724    0.5046 H   0  0  0  0  0  0  0  0  0  0  0  0
   -1.7571   -2.0157    0.1764 H   0  0  0  0  0  0  0  0  0  0  0  0
   -4.8704    2.6036    0.0621 B   0  0  0  0  0  0  0  0  0  0  0  0
   -5.6442    1.7203   -0.7215 F   0  0  0  0  0  0  0  0  0  0  0  0
   -3.8649    3.1805   -0.8159 F   0  0  0  0  0  0  0  0  0  0  0  0
   -5.6166    3.5870    0.6375 F   0  0  0  0  0  0  0  0  0  0  0  0
   -4.1621    1.8329    1.0157 F   0  0  0  0  0  0  0  0  0  0  0  0
  1 11  1  0  0  0  0
  2  1  1  0  0  0  0
  3  2  1  0  0  0  0
  4  1  2  0  0  0  0
  4  5  1  0  0  0  0
  5  6  2  0  0  0  0
  6 10  1  0  0  0  0
  6  7  1  0  0  0  0
  7  9  2  0  0  0  0
  8  7  2  0  0  0  0
 10 14  1  0  0  0  0
 11 15  1  0  0  0  0
 11 10  2  0  0  0  0
 12  4  1  0  0  0  0
 13  5  1  0  0  0  0
 16 19  1  0  0  0  0
 16 20  1  0  0  0  0
 17 16  1  0  0  0  0
 18 16  1  0  0  0  0
M  RAD  2   2   2   3   3
M  END
