Coordinates from ORCA-job 4-NO2PhN2+~BF4-_B3LYPG-6-31G_dp-CH-Scan-d09-49-n800
 OpenBabel11261918593D

 20 19  0  0  0  0  0  0  0  0999 V2000
   -2.3123    0.1155   -0.4239 C   0  0  0  0  0  0  0  0  0  0  0  0
   -3.6369   -0.2175   -0.6888 N   0  0  0  0  0  0  0  0  0  0  0  0
   -4.6381   -0.6287   -0.9327 N   0  0  0  0  0  0  0  0  0  0  0  0
   -1.8219    1.3627   -0.8326 C   0  0  0  0  0  0  0  0  0  0  0  0
   -0.4713    1.6072   -0.5959 C   0  0  0  0  0  0  0  0  0  0  0  0
    0.3007    0.6349    0.0286 C   0  0  0  0  0  0  0  0  0  0  0  0
    1.7383    0.9160    0.2699 N   0  0  0  0  0  0  0  0  0  0  0  0
    2.1710    1.9927   -0.1229 O   0  0  0  0  0  0  0  0  0  0  0  0
    2.3854    0.0465    0.8459 O   0  0  0  0  0  0  0  0  0  0  0  0
   -0.2063   -0.5989    0.4441 C   0  0  0  0  0  0  0  0  0  0  0  0
   -1.5433   -0.8750    0.2125 C   0  0  0  0  0  0  0  0  0  0  0  0
   -2.3685    1.9678   -1.2136 H   0  0  0  0  0  0  0  0  0  0  0  0
   -0.0251    2.5521   -0.8782 H   0  0  0  0  0  0  0  0  0  0  0  0
    0.4455   -1.3114    0.9326 H   0  0  0  0  0  0  0  0  0  0  0  0
   -1.9883   -1.8146    0.5176 H   0  0  0  0  0  0  0  0  0  0  0  0
   -4.4154    2.4869    0.3884 B   0  0  0  0  0  0  0  0  0  0  0  0
   -4.4841    2.0984   -1.0020 F   0  0  0  0  0  0  0  0  0  0  0  0
   -3.1951    3.1589    0.5663 F   0  0  0  0  0  0  0  0  0  0  0  0
   -5.5002    3.2416    0.7368 F   0  0  0  0  0  0  0  0  0  0  0  0
   -4.3651    1.2641    1.1240 F   0  0  0  0  0  0  0  0  0  0  0  0
  1 11  2  0  0  0  0
  2  1  1  0  0  0  0
  3  2  1  0  0  0  0
  4  5  2  0  0  0  0
  4  1  1  0  0  0  0
  5  6  1  0  0  0  0
  6  7  1  0  0  0  0
  6 10  2  0  0  0  0
  7  9  2  0  0  0  0
  8  7  2  0  0  0  0
 10 14  1  0  0  0  0
 11 10  1  0  0  0  0
 11 15  1  0  0  0  0
 12  4  1  0  0  0  0
 13  5  1  0  0  0  0
 16 18  1  0  0  0  0
 16 19  1  0  0  0  0
 16 20  1  0  0  0  0
 17 16  1  0  0  0  0
M  RAD  2   2   2   3   3
M  END
