Coordinates from ORCA-job 4-NO2PhN2+~BF4-_B3LYPG-6-31G_dp-CH-Scan-d09-49-n800
 OpenBabel11261918593D

 20 18  0  0  0  0  0  0  0  0999 V2000
   -2.1355    0.0244   -0.1348 C   0  0  0  0  0  0  0  0  0  0  0  0
   -3.4925   -0.2673   -0.2547 N   0  0  0  0  0  0  0  0  0  0  0  0
   -4.5776   -0.4789   -0.3738 N   0  0  0  0  0  0  0  0  0  0  0  0
   -1.7557    1.3699   -0.2487 C   0  0  0  0  0  0  0  0  0  0  0  0
   -0.3701    1.5751   -0.1384 C   0  0  0  0  0  0  0  0  0  0  0  0
    0.4925    0.5052    0.0674 C   0  0  0  0  0  0  0  0  0  0  0  0
    1.9513    0.7707    0.1793 N   0  0  0  0  0  0  0  0  0  0  0  0
    2.3214    1.9339    0.0722 O   0  0  0  0  0  0  0  0  0  0  0  0
    2.6818   -0.1982    0.3709 O   0  0  0  0  0  0  0  0  0  0  0  0
    0.0662   -0.8257    0.1788 C   0  0  0  0  0  0  0  0  0  0  0  0
   -1.2858   -1.0855    0.0745 C   0  0  0  0  0  0  0  0  0  0  0  0
   -2.7502    2.4689   -0.4077 H   0  0  0  0  0  0  0  0  0  0  0  0
    0.0471    2.5730   -0.2086 H   0  0  0  0  0  0  0  0  0  0  0  0
    0.7912   -1.6119    0.3416 H   0  0  0  0  0  0  0  0  0  0  0  0
   -1.6783   -2.0938    0.1509 H   0  0  0  0  0  0  0  0  0  0  0  0
   -4.9387    2.6533   -0.0293 B   0  0  0  0  0  0  0  0  0  0  0  0
   -5.3108    1.8437   -1.0948 F   0  0  0  0  0  0  0  0  0  0  0  0
   -3.6152    3.3026   -0.4793 F   0  0  0  0  0  0  0  0  0  0  0  0
   -5.7958    3.6626    0.2447 F   0  0  0  0  0  0  0  0  0  0  0  0
   -4.5763    1.8775    1.0659 F   0  0  0  0  0  0  0  0  0  0  0  0
  1 11  2  0  0  0  0
  2  1  1  0  0  0  0
  3  2  1  0  0  0  0
  4  5  2  0  0  0  0
  4  1  1  0  0  0  0
  5  6  1  0  0  0  0
  6 10  2  0  0  0  0
  6  7  1  0  0  0  0
  7  9  2  0  0  0  0
  8  7  2  0  0  0  0
 10 14  1  0  0  0  0
 11 15  1  0  0  0  0
 11 10  1  0  0  0  0
 13  5  1  0  0  0  0
 16 19  1  0  0  0  0
 16 20  1  0  0  0  0
 17 16  1  0  0  0  0
 18 12  1  0  0  0  0
M  RAD  3   2   2   3   3   4   2
M  END
