Coordinates from ORCA-job 4-NO2PhN2+~BF4-_B3LYPG-6-31G_dp-CH-Scan-d09-49-n800
 OpenBabel11261918593D

 20 18  0  0  0  0  0  0  0  0999 V2000
   -2.1260    0.0159   -0.1272 C   0  0  0  0  0  0  0  0  0  0  0  0
   -3.4839   -0.2781   -0.2364 N   0  0  0  0  0  0  0  0  0  0  0  0
   -4.5707   -0.4894   -0.3416 N   0  0  0  0  0  0  0  0  0  0  0  0
   -1.7569    1.3648   -0.2374 C   0  0  0  0  0  0  0  0  0  0  0  0
   -0.3682    1.5680   -0.1319 C   0  0  0  0  0  0  0  0  0  0  0  0
    0.4983    0.5000    0.0642 C   0  0  0  0  0  0  0  0  0  0  0  0
    1.9570    0.7681    0.1711 N   0  0  0  0  0  0  0  0  0  0  0  0
    2.3247    1.9329    0.0710 O   0  0  0  0  0  0  0  0  0  0  0  0
    2.6913   -0.2003    0.3522 O   0  0  0  0  0  0  0  0  0  0  0  0
    0.0767   -0.8337    0.1704 C   0  0  0  0  0  0  0  0  0  0  0  0
   -1.2745   -1.0958    0.0720 C   0  0  0  0  0  0  0  0  0  0  0  0
   -2.7839    2.5032   -0.3910 H   0  0  0  0  0  0  0  0  0  0  0  0
    0.0491    2.5664   -0.1990 H   0  0  0  0  0  0  0  0  0  0  0  0
    0.8049   -1.6186    0.3252 H   0  0  0  0  0  0  0  0  0  0  0  0
   -1.6649   -2.1053    0.1451 H   0  0  0  0  0  0  0  0  0  0  0  0
   -4.9652    2.6578   -0.0357 B   0  0  0  0  0  0  0  0  0  0  0  0
   -5.2967    1.8558   -1.1131 F   0  0  0  0  0  0  0  0  0  0  0  0
   -3.6027    3.3094   -0.4529 F   0  0  0  0  0  0  0  0  0  0  0  0
   -5.8084    3.6847    0.2018 F   0  0  0  0  0  0  0  0  0  0  0  0
   -4.6310    1.8935    1.0694 F   0  0  0  0  0  0  0  0  0  0  0  0
  1 11  2  0  0  0  0
  2  1  1  0  0  0  0
  3  2  1  0  0  0  0
  4  5  2  0  0  0  0
  4  1  1  0  0  0  0
  5  6  1  0  0  0  0
  6 10  2  0  0  0  0
  6  7  1  0  0  0  0
  7  9  2  0  0  0  0
  8  7  2  0  0  0  0
 10 14  1  0  0  0  0
 11 15  1  0  0  0  0
 11 10  1  0  0  0  0
 13  5  1  0  0  0  0
 16 19  1  0  0  0  0
 16 20  1  0  0  0  0
 17 16  1  0  0  0  0
 18 12  1  0  0  0  0
M  RAD  3   2   2   3   3   4   2
M  END
