Coordinates from ORCA-job 4-NO2PhN2+~BF4-_B3LYPG-6-31G_dp-CH-Scan-d09-49-n800
 OpenBabel11261918593D

 20 18  0  0  0  0  0  0  0  0999 V2000
   -1.6207   -0.0505    0.0420 C   0  0  0  0  0  0  0  0  0  0  0  0
   -3.0249   -0.1243    0.0096 N   0  0  0  0  0  0  0  0  0  0  0  0
   -4.1412   -0.0949   -0.0145 N   0  0  0  0  0  0  0  0  0  0  0  0
   -1.1732    1.2699    0.0798 C   0  0  0  0  0  0  0  0  0  0  0  0
    0.2546    1.2876    0.1135 C   0  0  0  0  0  0  0  0  0  0  0  0
    1.0054    0.1218    0.1078 C   0  0  0  0  0  0  0  0  0  0  0  0
    2.4895    0.2124    0.1455 N   0  0  0  0  0  0  0  0  0  0  0  0
    2.9924    1.3311    0.1853 O   0  0  0  0  0  0  0  0  0  0  0  0
    3.1230   -0.8430    0.1325 O   0  0  0  0  0  0  0  0  0  0  0  0
    0.4495   -1.1769    0.0674 C   0  0  0  0  0  0  0  0  0  0  0  0
   -0.9208   -1.2864    0.0325 C   0  0  0  0  0  0  0  0  0  0  0  0
   -4.3864    4.5220   -0.2635 H   0  0  0  0  0  0  0  0  0  0  0  0
    0.7934    2.2307    0.1451 H   0  0  0  0  0  0  0  0  0  0  0  0
    1.1012   -2.0400    0.0648 H   0  0  0  0  0  0  0  0  0  0  0  0
   -1.4218   -2.2499    0.0000 H   0  0  0  0  0  0  0  0  0  0  0  0
   -6.0633    2.6588   -0.1880 B   0  0  0  0  0  0  0  0  0  0  0  0
   -5.8927    2.0020   -1.3248 F   0  0  0  0  0  0  0  0  0  0  0  0
   -5.1220    4.5019   -0.8336 F   0  0  0  0  0  0  0  0  0  0  0  0
   -7.2325    3.1968    0.1051 F   0  0  0  0  0  0  0  0  0  0  0  0
   -5.1408    2.5302    0.7696 F   0  0  0  0  0  0  0  0  0  0  0  0
  1  4  1  0  0  0  0
  2  1  1  0  0  0  0
  3  2  1  0  0  0  0
  4  5  2  0  0  0  0
  5 13  1  0  0  0  0
  6  5  1  0  0  0  0
  6  7  1  0  0  0  0
  7  8  2  0  0  0  0
  9  7  2  0  0  0  0
 10  6  2  0  0  0  0
 11  1  2  0  0  0  0
 11 10  1  0  0  0  0
 14 10  1  0  0  0  0
 15 11  1  0  0  0  0
 16 19  1  0  0  0  0
 16 20  1  0  0  0  0
 17 16  1  0  0  0  0
 18 12  1  0  0  0  0
M  RAD  3   2   2   3   3   4   2
M  END
