Coordinates from ORCA-job 4-NO2PhN2+~BF4-_B3LYPG-6-31G_dp-CH-Scan-d09-49-n800
 OpenBabel11261918593D

 20 18  0  0  0  0  0  0  0  0999 V2000
   -2.0689   -0.0121   -0.0377 C   0  0  0  0  0  0  0  0  0  0  0  0
   -3.4347   -0.2968   -0.0802 N   0  0  0  0  0  0  0  0  0  0  0  0
   -4.5303   -0.4896   -0.1178 N   0  0  0  0  0  0  0  0  0  0  0  0
   -1.7261    1.3467   -0.1035 C   0  0  0  0  0  0  0  0  0  0  0  0
   -0.3247    1.5347   -0.0536 C   0  0  0  0  0  0  0  0  0  0  0  0
    0.5503    0.4618    0.0479 C   0  0  0  0  0  0  0  0  0  0  0  0
    2.0132    0.7257    0.0965 N   0  0  0  0  0  0  0  0  0  0  0  0
    2.3791    1.8947    0.0496 O   0  0  0  0  0  0  0  0  0  0  0  0
    2.7564   -0.2499    0.1807 O   0  0  0  0  0  0  0  0  0  0  0  0
    0.1366   -0.8802    0.1085 C   0  0  0  0  0  0  0  0  0  0  0  0
   -1.2160   -1.1392    0.0653 C   0  0  0  0  0  0  0  0  0  0  0  0
   -2.9165    2.7003   -0.2170 H   0  0  0  0  0  0  0  0  0  0  0  0
    0.0977    2.5329   -0.0938 H   0  0  0  0  0  0  0  0  0  0  0  0
    0.8728   -1.6687    0.1868 H   0  0  0  0  0  0  0  0  0  0  0  0
   -1.6048   -2.1515    0.1083 H   0  0  0  0  0  0  0  0  0  0  0  0
   -5.1430    2.6788   -0.1393 B   0  0  0  0  0  0  0  0  0  0  0  0
   -5.1562    1.8852   -1.2497 F   0  0  0  0  0  0  0  0  0  0  0  0
   -3.6385    3.4182   -0.2728 F   0  0  0  0  0  0  0  0  0  0  0  0
   -5.9779    3.7273   -0.1265 F   0  0  0  0  0  0  0  0  0  0  0  0
   -4.9993    1.9811    1.0244 F   0  0  0  0  0  0  0  0  0  0  0  0
  1 11  2  0  0  0  0
  2  1  1  0  0  0  0
  3  2  1  0  0  0  0
  4  5  2  0  0  0  0
  4  1  1  0  0  0  0
  5  6  1  0  0  0  0
  6  7  1  0  0  0  0
  6 10  2  0  0  0  0
  7  9  2  0  0  0  0
  8  7  2  0  0  0  0
 10 14  1  0  0  0  0
 11 15  1  0  0  0  0
 11 10  1  0  0  0  0
 13  5  1  0  0  0  0
 16 19  1  0  0  0  0
 16 20  1  0  0  0  0
 17 16  1  0  0  0  0
 18 12  1  0  0  0  0
M  RAD  3   2   2   3   3   4   2
M  END
