Coordinates from ORCA-job 4-NO2PhN2+~BF4-_B3LYPG-6-31G_dp-CH-Scan-d09-49-n800
 OpenBabel11261918593D

 20 18  0  0  0  0  0  0  0  0999 V2000
   -1.8788   -0.0606   -0.0096 C   0  0  0  0  0  0  0  0  0  0  0  0
   -3.2621   -0.2750   -0.0424 N   0  0  0  0  0  0  0  0  0  0  0  0
   -4.3711   -0.3903   -0.0722 N   0  0  0  0  0  0  0  0  0  0  0  0
   -1.5221    1.2916   -0.0736 C   0  0  0  0  0  0  0  0  0  0  0  0
   -0.1049    1.4263   -0.0354 C   0  0  0  0  0  0  0  0  0  0  0  0
    0.7366    0.3273    0.0530 C   0  0  0  0  0  0  0  0  0  0  0  0
    2.2083    0.5414    0.0884 N   0  0  0  0  0  0  0  0  0  0  0  0
    2.6167    1.6969    0.0378 O   0  0  0  0  0  0  0  0  0  0  0  0
    2.9225   -0.4577    0.1638 O   0  0  0  0  0  0  0  0  0  0  0  0
    0.2847   -1.0075    0.1129 C   0  0  0  0  0  0  0  0  0  0  0  0
   -1.0730   -1.2265    0.0813 C   0  0  0  0  0  0  0  0  0  0  0  0
   -3.3116    3.4299   -0.2235 H   0  0  0  0  0  0  0  0  0  0  0  0
    0.3558    2.4087   -0.0754 H   0  0  0  0  0  0  0  0  0  0  0  0
    1.0005   -1.8152    0.1813 H   0  0  0  0  0  0  0  0  0  0  0  0
   -1.4942   -2.2265    0.1239 H   0  0  0  0  0  0  0  0  0  0  0  0
   -5.6636    2.6718   -0.1740 B   0  0  0  0  0  0  0  0  0  0  0  0
   -5.3642    2.0121   -1.2964 F   0  0  0  0  0  0  0  0  0  0  0  0
   -4.0938    3.9470   -0.2566 F   0  0  0  0  0  0  0  0  0  0  0  0
   -6.6028    3.6032   -0.1902 F   0  0  0  0  0  0  0  0  0  0  0  0
   -5.3140    2.1024    0.9831 F   0  0  0  0  0  0  0  0  0  0  0  0
  1 11  2  0  0  0  0
  2  1  1  0  0  0  0
  3  2  1  0  0  0  0
  4  5  2  0  0  0  0
  4  1  1  0  0  0  0
  5  6  1  0  0  0  0
  6  7  1  0  0  0  0
  6 10  2  0  0  0  0
  7  9  2  0  0  0  0
  8  7  2  0  0  0  0
 10 14  1  0  0  0  0
 11 10  1  0  0  0  0
 11 15  1  0  0  0  0
 13  5  1  0  0  0  0
 16 20  1  0  0  0  0
 17 16  1  0  0  0  0
 18 12  1  0  0  0  0
 19 16  1  0  0  0  0
M  RAD  3   2   2   3   3   4   2
M  END
