Coordinates from ORCA-job 4-NO2PhN2+~BF4-_B3LYPG-6-31G_dp-CH-Scan-d09-49-n800
 OpenBabel11261918593D

 20 18  0  0  0  0  0  0  0  0999 V2000
   -1.9630   -0.0386   -0.0257 C   0  0  0  0  0  0  0  0  0  0  0  0
   -3.3378   -0.2876   -0.0684 N   0  0  0  0  0  0  0  0  0  0  0  0
   -4.4402   -0.4459   -0.1065 N   0  0  0  0  0  0  0  0  0  0  0  0
   -1.6163    1.3178   -0.0933 C   0  0  0  0  0  0  0  0  0  0  0  0
   -0.2052    1.4773   -0.0465 C   0  0  0  0  0  0  0  0  0  0  0  0
    0.6526    0.3914    0.0526 C   0  0  0  0  0  0  0  0  0  0  0  0
    2.1203    0.6296    0.0957 N   0  0  0  0  0  0  0  0  0  0  0  0
    2.5088    1.7915    0.0425 O   0  0  0  0  0  0  0  0  0  0  0  0
    2.8486   -0.3578    0.1813 O   0  0  0  0  0  0  0  0  0  0  0  0
    0.2199   -0.9476    0.1164 C   0  0  0  0  0  0  0  0  0  0  0  0
   -1.1348   -1.1869    0.0767 C   0  0  0  0  0  0  0  0  0  0  0  0
   -3.1255    3.0701   -0.2317 H   0  0  0  0  0  0  0  0  0  0  0  0
    0.2382    2.4670   -0.0885 H   0  0  0  0  0  0  0  0  0  0  0  0
    0.9461   -1.7452    0.1938 H   0  0  0  0  0  0  0  0  0  0  0  0
   -1.5401   -2.1930    0.1218 H   0  0  0  0  0  0  0  0  0  0  0  0
   -5.4484    2.6823   -0.1516 B   0  0  0  0  0  0  0  0  0  0  0  0
   -5.3125    1.9595   -1.2771 F   0  0  0  0  0  0  0  0  0  0  0  0
   -3.8595    3.6787   -0.2789 F   0  0  0  0  0  0  0  0  0  0  0  0
   -6.3074    3.6957   -0.1356 F   0  0  0  0  0  0  0  0  0  0  0  0
   -5.1748    2.0409    0.9993 F   0  0  0  0  0  0  0  0  0  0  0  0
  1 11  2  0  0  0  0
  2  1  1  0  0  0  0
  3  2  1  0  0  0  0
  4  5  2  0  0  0  0
  4  1  1  0  0  0  0
  5  6  1  0  0  0  0
  6  7  1  0  0  0  0
  6 10  2  0  0  0  0
  7  9  2  0  0  0  0
  8  7  2  0  0  0  0
 10 14  1  0  0  0  0
 11 10  1  0  0  0  0
 11 15  1  0  0  0  0
 13  5  1  0  0  0  0
 16 19  1  0  0  0  0
 16 20  1  0  0  0  0
 17 16  1  0  0  0  0
 18 12  1  0  0  0  0
M  RAD  3   2   2   3   3   4   2
M  END
