Coordinates from ORCA-job 4-NO2PhN2+~BF4-_B3LYPG-6-31G_dp-CH-Scan-d09-49-n800
 OpenBabel11261918593D

 20 18  0  0  0  0  0  0  0  0999 V2000
   -1.9008   -0.0538   -0.0040 C   0  0  0  0  0  0  0  0  0  0  0  0
   -3.2820   -0.2781   -0.0327 N   0  0  0  0  0  0  0  0  0  0  0  0
   -4.3893   -0.4080   -0.0592 N   0  0  0  0  0  0  0  0  0  0  0  0
   -1.5468    1.2994   -0.0665 C   0  0  0  0  0  0  0  0  0  0  0  0
   -0.1308    1.4400   -0.0332 C   0  0  0  0  0  0  0  0  0  0  0  0
    0.7151    0.3439    0.0499 C   0  0  0  0  0  0  0  0  0  0  0  0
    2.1861    0.5637    0.0798 N   0  0  0  0  0  0  0  0  0  0  0  0
    2.5894    1.7210    0.0305 O   0  0  0  0  0  0  0  0  0  0  0  0
    2.9041   -0.4327    0.1525 O   0  0  0  0  0  0  0  0  0  0  0  0
    0.2682   -0.9921    0.1091 C   0  0  0  0  0  0  0  0  0  0  0  0
   -1.0889   -1.2159    0.0820 C   0  0  0  0  0  0  0  0  0  0  0  0
   -3.2598    3.3392   -0.2023 H   0  0  0  0  0  0  0  0  0  0  0  0
    0.3255    2.4243   -0.0730 H   0  0  0  0  0  0  0  0  0  0  0  0
    0.9868   -1.7977    0.1735 H   0  0  0  0  0  0  0  0  0  0  0  0
   -1.5060   -2.2176    0.1244 H   0  0  0  0  0  0  0  0  0  0  0  0
   -5.6116    2.6739   -0.1828 B   0  0  0  0  0  0  0  0  0  0  0  0
   -5.3253    1.9995   -1.3021 F   0  0  0  0  0  0  0  0  0  0  0  0
   -4.0296    3.8793   -0.2378 F   0  0  0  0  0  0  0  0  0  0  0  0
   -6.5280    3.6291   -0.2099 F   0  0  0  0  0  0  0  0  0  0  0  0
   -5.3073    2.0818    0.9780 F   0  0  0  0  0  0  0  0  0  0  0  0
  1 11  2  0  0  0  0
  2  1  1  0  0  0  0
  3  2  1  0  0  0  0
  4  5  2  0  0  0  0
  4  1  1  0  0  0  0
  5  6  1  0  0  0  0
  6  7  1  0  0  0  0
  6 10  2  0  0  0  0
  7  9  2  0  0  0  0
  8  7  2  0  0  0  0
 10 14  1  0  0  0  0
 11 10  1  0  0  0  0
 11 15  1  0  0  0  0
 13  5  1  0  0  0  0
 16 20  1  0  0  0  0
 17 16  1  0  0  0  0
 18 12  1  0  0  0  0
 19 16  1  0  0  0  0
M  RAD  3   2   2   3   3   4   2
M  END
