Coordinates from ORCA-job 4-NO2PhN2+~BF4-_B3LYPG-6-31G_dp-CH-Scan-d09-49-n800
 OpenBabel11261918593D

 20 18  0  0  0  0  0  0  0  0999 V2000
   -1.9269   -0.0469   -0.0031 C   0  0  0  0  0  0  0  0  0  0  0  0
   -3.3057   -0.2815   -0.0322 N   0  0  0  0  0  0  0  0  0  0  0  0
   -4.4112   -0.4232   -0.0591 N   0  0  0  0  0  0  0  0  0  0  0  0
   -1.5761    1.3077   -0.0650 C   0  0  0  0  0  0  0  0  0  0  0  0
   -0.1619    1.4557   -0.0331 C   0  0  0  0  0  0  0  0  0  0  0  0
    0.6893    0.3634    0.0484 C   0  0  0  0  0  0  0  0  0  0  0  0
    2.1592    0.5904    0.0761 N   0  0  0  0  0  0  0  0  0  0  0  0
    2.5564    1.7497    0.0259 O   0  0  0  0  0  0  0  0  0  0  0  0
    2.8817   -0.4026    0.1475 O   0  0  0  0  0  0  0  0  0  0  0  0
    0.2484   -0.9740    0.1078 C   0  0  0  0  0  0  0  0  0  0  0  0
   -1.1080   -1.2037    0.0819 C   0  0  0  0  0  0  0  0  0  0  0  0
   -3.2035    3.2302   -0.1926 H   0  0  0  0  0  0  0  0  0  0  0  0
    0.2892    2.4423   -0.0731 H   0  0  0  0  0  0  0  0  0  0  0  0
    0.9703   -1.7767    0.1713 H   0  0  0  0  0  0  0  0  0  0  0  0
   -1.5202   -2.2074    0.1245 H   0  0  0  0  0  0  0  0  0  0  0  0
   -5.5452    2.6766   -0.1836 B   0  0  0  0  0  0  0  0  0  0  0  0
   -5.2892    1.9830   -1.3018 F   0  0  0  0  0  0  0  0  0  0  0  0
   -3.9580    3.7987   -0.2282 F   0  0  0  0  0  0  0  0  0  0  0  0
   -6.4393    3.6550   -0.2140 F   0  0  0  0  0  0  0  0  0  0  0  0
   -5.2804    2.0625    0.9786 F   0  0  0  0  0  0  0  0  0  0  0  0
  1 11  2  0  0  0  0
  2  1  1  0  0  0  0
  3  2  1  0  0  0  0
  4  5  2  0  0  0  0
  4  1  1  0  0  0  0
  5  6  1  0  0  0  0
  6  7  1  0  0  0  0
  6 10  2  0  0  0  0
  7  9  2  0  0  0  0
  8  7  2  0  0  0  0
 10 14  1  0  0  0  0
 11 10  1  0  0  0  0
 11 15  1  0  0  0  0
 13  5  1  0  0  0  0
 16 20  1  0  0  0  0
 17 16  1  0  0  0  0
 18 12  1  0  0  0  0
 19 16  1  0  0  0  0
M  RAD  3   2   2   3   3   4   2
M  END
