Coordinates from ORCA-job 4-NO2PhN2+~BF4-_B3LYPG-6-31G_dp-CH-Scan-d09-49-n800
 OpenBabel11261918593D

 20 18  0  0  0  0  0  0  0  0999 V2000
   -1.9876   -0.0344   -0.0349 C   0  0  0  0  0  0  0  0  0  0  0  0
   -3.3602   -0.2928   -0.0793 N   0  0  0  0  0  0  0  0  0  0  0  0
   -4.4610   -0.4601   -0.1178 N   0  0  0  0  0  0  0  0  0  0  0  0
   -1.6441    1.3229   -0.1036 C   0  0  0  0  0  0  0  0  0  0  0  0
   -0.2354    1.4909   -0.0522 C   0  0  0  0  0  0  0  0  0  0  0  0
    0.6276    0.4094    0.0521 C   0  0  0  0  0  0  0  0  0  0  0  0
    2.0938    0.6558    0.1009 N   0  0  0  0  0  0  0  0  0  0  0  0
    2.4754    1.8202    0.0551 O   0  0  0  0  0  0  0  0  0  0  0  0
    2.8266   -0.3275    0.1939 O   0  0  0  0  0  0  0  0  0  0  0  0
    0.2011   -0.9310    0.1158 C   0  0  0  0  0  0  0  0  0  0  0  0
   -1.1526   -1.1768    0.0718 C   0  0  0  0  0  0  0  0  0  0  0  0
   -3.0742    2.9711   -0.2440 H   0  0  0  0  0  0  0  0  0  0  0  0
    0.2022    2.4831   -0.0941 H   0  0  0  0  0  0  0  0  0  0  0  0
    0.9306   -1.7253    0.1966 H   0  0  0  0  0  0  0  0  0  0  0  0
   -1.5529   -2.1849    0.1167 H   0  0  0  0  0  0  0  0  0  0  0  0
   -5.3798    2.6848   -0.1400 B   0  0  0  0  0  0  0  0  0  0  0  0
   -5.3007    1.9416   -1.2621 F   0  0  0  0  0  0  0  0  0  0  0  0
   -3.7975    3.6054   -0.2953 F   0  0  0  0  0  0  0  0  0  0  0  0
   -6.2196    3.7167   -0.1147 F   0  0  0  0  0  0  0  0  0  0  0  0
   -5.1229    2.0302    1.0113 F   0  0  0  0  0  0  0  0  0  0  0  0
  1 11  2  0  0  0  0
  2  1  1  0  0  0  0
  3  2  1  0  0  0  0
  4  5  2  0  0  0  0
  4  1  1  0  0  0  0
  5  6  1  0  0  0  0
  6  7  1  0  0  0  0
  6 10  2  0  0  0  0
  7  9  2  0  0  0  0
  8  7  2  0  0  0  0
 10 14  1  0  0  0  0
 11 10  1  0  0  0  0
 11 15  1  0  0  0  0
 13  5  1  0  0  0  0
 16 19  1  0  0  0  0
 16 20  1  0  0  0  0
 17 16  1  0  0  0  0
 18 12  1  0  0  0  0
M  RAD  3   2   2   3   3   4   2
M  END
