Coordinates from ORCA-job 4-NO2PhN2+~BF4-_B3LYPG-6-31G_dp-CH-Scan-d09-49-n800
 OpenBabel11261918593D

 20 19  0  0  0  0  0  0  0  0999 V2000
   -2.2913    0.1074   -0.4029 C   0  0  0  0  0  0  0  0  0  0  0  0
   -3.6187   -0.2177   -0.6647 N   0  0  0  0  0  0  0  0  0  0  0  0
   -4.6243   -0.6171   -0.9095 N   0  0  0  0  0  0  0  0  0  0  0  0
   -1.7957    1.3523   -0.8100 C   0  0  0  0  0  0  0  0  0  0  0  0
   -0.4442    1.5951   -0.5831 C   0  0  0  0  0  0  0  0  0  0  0  0
    0.3277    0.6143    0.0307 C   0  0  0  0  0  0  0  0  0  0  0  0
    1.7689    0.8869    0.2623 N   0  0  0  0  0  0  0  0  0  0  0  0
    2.2042    1.9625   -0.1307 O   0  0  0  0  0  0  0  0  0  0  0  0
    2.4168    0.0103    0.8263 O   0  0  0  0  0  0  0  0  0  0  0  0
   -0.1815   -0.6193    0.4445 C   0  0  0  0  0  0  0  0  0  0  0  0
   -1.5216   -0.8900    0.2229 C   0  0  0  0  0  0  0  0  0  0  0  0
   -2.4844    2.0926   -1.2437 H   0  0  0  0  0  0  0  0  0  0  0  0
    0.0057    2.5386   -0.8640 H   0  0  0  0  0  0  0  0  0  0  0  0
    0.4716   -1.3365    0.9241 H   0  0  0  0  0  0  0  0  0  0  0  0
   -1.9669   -1.8301    0.5263 H   0  0  0  0  0  0  0  0  0  0  0  0
   -4.4624    2.5074    0.3769 B   0  0  0  0  0  0  0  0  0  0  0  0
   -4.4947    2.1168   -1.0180 F   0  0  0  0  0  0  0  0  0  0  0  0
   -3.2811    3.2341    0.5713 F   0  0  0  0  0  0  0  0  0  0  0  0
   -5.5897    3.2067    0.7069 F   0  0  0  0  0  0  0  0  0  0  0  0
   -4.3695    1.2853    1.1105 F   0  0  0  0  0  0  0  0  0  0  0  0
  1 11  2  0  0  0  0
  2  1  1  0  0  0  0
  3  2  1  0  0  0  0
  4  5  2  0  0  0  0
  4  1  1  0  0  0  0
  5  6  1  0  0  0  0
  6  7  1  0  0  0  0
  6 10  2  0  0  0  0
  7  9  2  0  0  0  0
  8  7  2  0  0  0  0
 10 14  1  0  0  0  0
 11 10  1  0  0  0  0
 11 15  1  0  0  0  0
 12  4  1  0  0  0  0
 13  5  1  0  0  0  0
 16 18  1  0  0  0  0
 16 19  1  0  0  0  0
 16 20  1  0  0  0  0
 17 16  1  0  0  0  0
M  RAD  2   2   2   3   3
M  END
