Coordinates from ORCA-job 4-NO2PhN2+~BF4-_B3LYPG-6-31G_dp-CH-Scan-d09-49-n800
 OpenBabel11261918593D

 20 18  0  0  0  0  0  0  0  0999 V2000
   -1.5803   -0.0292    0.0525 C   0  0  0  0  0  0  0  0  0  0  0  0
   -2.9861   -0.0747    0.0253 N   0  0  0  0  0  0  0  0  0  0  0  0
   -4.1018   -0.0226    0.0051 N   0  0  0  0  0  0  0  0  0  0  0  0
   -1.1075    1.2820    0.0926 C   0  0  0  0  0  0  0  0  0  0  0  0
    0.3205    1.2726    0.1210 C   0  0  0  0  0  0  0  0  0  0  0  0
    1.0485    0.0924    0.1097 C   0  0  0  0  0  0  0  0  0  0  0  0
    2.5342    0.1542    0.1425 N   0  0  0  0  0  0  0  0  0  0  0  0
    3.0587    1.2627    0.1871 O   0  0  0  0  0  0  0  0  0  0  0  0
    3.1472   -0.9131    0.1213 O   0  0  0  0  0  0  0  0  0  0  0  0
    0.4674   -1.1953    0.0675 C   0  0  0  0  0  0  0  0  0  0  0  0
   -0.9048   -1.2784    0.0369 C   0  0  0  0  0  0  0  0  0  0  0  0
   -4.5542    4.6046   -0.2531 H   0  0  0  0  0  0  0  0  0  0  0  0
    0.8773    2.2051    0.1529 H   0  0  0  0  0  0  0  0  0  0  0  0
    1.1026   -2.0707    0.0600 H   0  0  0  0  0  0  0  0  0  0  0  0
   -1.4244   -2.2320    0.0031 H   0  0  0  0  0  0  0  0  0  0  0  0
   -6.1222    2.6582   -0.2064 B   0  0  0  0  0  0  0  0  0  0  0  0
   -5.9120    2.0201   -1.3467 F   0  0  0  0  0  0  0  0  0  0  0  0
   -5.2789    4.5580   -0.8353 F   0  0  0  0  0  0  0  0  0  0  0  0
   -7.3209    3.1256    0.0884 F   0  0  0  0  0  0  0  0  0  0  0  0
   -5.1944    2.5798    0.7517 F   0  0  0  0  0  0  0  0  0  0  0  0
  1  4  1  0  0  0  0
  2  1  1  0  0  0  0
  3  2  1  0  0  0  0
  4  5  2  0  0  0  0
  5 13  1  0  0  0  0
  6  5  1  0  0  0  0
  6  7  1  0  0  0  0
  7  8  2  0  0  0  0
  9  7  2  0  0  0  0
 10  6  2  0  0  0  0
 11  1  2  0  0  0  0
 11 10  1  0  0  0  0
 14 10  1  0  0  0  0
 15 11  1  0  0  0  0
 16 19  1  0  0  0  0
 16 20  1  0  0  0  0
 17 16  1  0  0  0  0
 18 12  1  0  0  0  0
M  RAD  3   2   2   3   3   4   2
M  END
