Coordinates from ORCA-job 4-NO2PhN2+~BF4-_B3LYPG-6-31G_dp-CH-Scan-d09-49-n800
 OpenBabel11261918593D

 20 18  0  0  0  0  0  0  0  0999 V2000
   -1.7160   -0.0789    0.0228 C   0  0  0  0  0  0  0  0  0  0  0  0
   -3.1152   -0.2116   -0.0160 N   0  0  0  0  0  0  0  0  0  0  0  0
   -4.2312   -0.2330   -0.0450 N   0  0  0  0  0  0  0  0  0  0  0  0
   -1.3175    1.2584    0.0429 C   0  0  0  0  0  0  0  0  0  0  0  0
    0.1082    1.3296    0.0831 C   0  0  0  0  0  0  0  0  0  0  0  0
    0.9029    0.1931    0.0971 C   0  0  0  0  0  0  0  0  0  0  0  0
    2.3824    0.3408    0.1389 N   0  0  0  0  0  0  0  0  0  0  0  0
    2.8421    1.4784    0.1581 O   0  0  0  0  0  0  0  0  0  0  0  0
    3.0550   -0.6900    0.1519 O   0  0  0  0  0  0  0  0  0  0  0  0
    0.3965   -1.1255    0.0741 C   0  0  0  0  0  0  0  0  0  0  0  0
   -0.9686   -1.2865    0.0353 C   0  0  0  0  0  0  0  0  0  0  0  0
   -3.9810    4.2537   -0.2502 H   0  0  0  0  0  0  0  0  0  0  0  0
    0.6112    2.2924    0.1036 H   0  0  0  0  0  0  0  0  0  0  0  0
    1.0798   -1.9636    0.0873 H   0  0  0  0  0  0  0  0  0  0  0  0
   -1.4327   -2.2686    0.0158 H   0  0  0  0  0  0  0  0  0  0  0  0
   -5.9200    2.6520   -0.1661 B   0  0  0  0  0  0  0  0  0  0  0  0
   -5.7952    1.9832   -1.3032 F   0  0  0  0  0  0  0  0  0  0  0  0
   -4.7483    4.3531   -0.7681 F   0  0  0  0  0  0  0  0  0  0  0  0
   -7.0236    3.3293    0.0917 F   0  0  0  0  0  0  0  0  0  0  0  0
   -5.0598    2.3931    0.8222 F   0  0  0  0  0  0  0  0  0  0  0  0
  1 11  2  0  0  0  0
  1  4  1  0  0  0  0
  2  1  1  0  0  0  0
  3  2  1  0  0  0  0
  4  5  2  0  0  0  0
  5  6  1  0  0  0  0
  5 13  1  0  0  0  0
  6  7  1  0  0  0  0
  7  9  2  0  0  0  0
  7  8  2  0  0  0  0
 10 14  1  0  0  0  0
 10  6  2  0  0  0  0
 11 10  1  0  0  0  0
 15 11  1  0  0  0  0
 16 19  1  0  0  0  0
 16 20  1  0  0  0  0
 17 16  1  0  0  0  0
 18 12  1  0  0  0  0
M  RAD  3   2   2   3   3   4   2
M  END
