Coordinates from ORCA-job 4-NO2PhN2+~BF4-_B3LYPG-6-31G_dp-CH-Scan-d09-49-n800
 OpenBabel11261918593D

 20 18  0  0  0  0  0  0  0  0999 V2000
   -2.1015    0.0019   -0.0280 C   0  0  0  0  0  0  0  0  0  0  0  0
   -3.4655   -0.2886   -0.0654 N   0  0  0  0  0  0  0  0  0  0  0  0
   -4.5592   -0.4877   -0.1014 N   0  0  0  0  0  0  0  0  0  0  0  0
   -1.7513    1.3592   -0.0901 C   0  0  0  0  0  0  0  0  0  0  0  0
   -0.3537    1.5535   -0.0484 C   0  0  0  0  0  0  0  0  0  0  0  0
    0.5231    0.4807    0.0440 C   0  0  0  0  0  0  0  0  0  0  0  0
    1.9857    0.7471    0.0840 N   0  0  0  0  0  0  0  0  0  0  0  0
    2.3482    1.9170    0.0366 O   0  0  0  0  0  0  0  0  0  0  0  0
    2.7302   -0.2277    0.1618 O   0  0  0  0  0  0  0  0  0  0  0  0
    0.1101   -0.8600    0.1029 C   0  0  0  0  0  0  0  0  0  0  0  0
   -1.2434   -1.1204    0.0666 C   0  0  0  0  0  0  0  0  0  0  0  0
   -2.8447    2.5991   -0.1865 H   0  0  0  0  0  0  0  0  0  0  0  0
    0.0636    2.5536   -0.0880 H   0  0  0  0  0  0  0  0  0  0  0  0
    0.8466   -1.6489    0.1746 H   0  0  0  0  0  0  0  0  0  0  0  0
   -1.6301   -2.1333    0.1088 H   0  0  0  0  0  0  0  0  0  0  0  0
   -5.0509    2.6706   -0.1518 B   0  0  0  0  0  0  0  0  0  0  0  0
   -5.0646    1.8611   -1.2624 F   0  0  0  0  0  0  0  0  0  0  0  0
   -3.5926    3.3670   -0.2385 F   0  0  0  0  0  0  0  0  0  0  0  0
   -5.9099    3.7058   -0.1572 F   0  0  0  0  0  0  0  0  0  0  0  0
   -4.9712    1.9493    1.0147 F   0  0  0  0  0  0  0  0  0  0  0  0
  1 11  2  0  0  0  0
  2  1  1  0  0  0  0
  3  2  1  0  0  0  0
  4  5  2  0  0  0  0
  4  1  1  0  0  0  0
  5  6  1  0  0  0  0
  6  7  1  0  0  0  0
  6 10  2  0  0  0  0
  7  9  2  0  0  0  0
  8  7  2  0  0  0  0
 10 14  1  0  0  0  0
 11 10  1  0  0  0  0
 11 15  1  0  0  0  0
 13  5  1  0  0  0  0
 16 20  1  0  0  0  0
 17 16  1  0  0  0  0
 18 12  1  0  0  0  0
 19 16  1  0  0  0  0
M  RAD  3   2   2   3   3   4   2
M  END
