Coordinates from ORCA-job 4-NO2PhN2+~BF4-_B3LYPG-6-31G_dp-CH-Scan-d09-49-n800
 OpenBabel11261918593D

 20 18  0  0  0  0  0  0  0  0999 V2000
   -1.6606   -0.0651    0.0363 C   0  0  0  0  0  0  0  0  0  0  0  0
   -3.0631   -0.1654    0.0030 N   0  0  0  0  0  0  0  0  0  0  0  0
   -4.1797   -0.1609   -0.0207 N   0  0  0  0  0  0  0  0  0  0  0  0
   -1.2349    1.2628    0.0720 C   0  0  0  0  0  0  0  0  0  0  0  0
    0.1923    1.3041    0.1073 C   0  0  0  0  0  0  0  0  0  0  0  0
    0.9628    0.1511    0.1041 C   0  0  0  0  0  0  0  0  0  0  0  0
    2.4451    0.2669    0.1428 N   0  0  0  0  0  0  0  0  0  0  0  0
    2.9290    1.3940    0.1794 O   0  0  0  0  0  0  0  0  0  0  0  0
    3.0962   -0.7778    0.1360 O   0  0  0  0  0  0  0  0  0  0  0  0
    0.4287   -1.1565    0.0657 C   0  0  0  0  0  0  0  0  0  0  0  0
   -0.9395   -1.2888    0.0300 C   0  0  0  0  0  0  0  0  0  0  0  0
   -4.2215    4.4273   -0.2650 H   0  0  0  0  0  0  0  0  0  0  0  0
    0.7152    2.2561    0.1380 H   0  0  0  0  0  0  0  0  0  0  0  0
    1.0946   -2.0087    0.0653 H   0  0  0  0  0  0  0  0  0  0  0  0
   -1.4242   -2.2606   -0.0009 H   0  0  0  0  0  0  0  0  0  0  0  0
   -6.0030    2.6565   -0.1770 B   0  0  0  0  0  0  0  0  0  0  0  0
   -5.8570    1.9856   -1.3093 F   0  0  0  0  0  0  0  0  0  0  0  0
   -4.9665    4.4416   -0.8229 F   0  0  0  0  0  0  0  0  0  0  0  0
   -7.1451    3.2573    0.1014 F   0  0  0  0  0  0  0  0  0  0  0  0
   -5.0997    2.4799    0.7908 F   0  0  0  0  0  0  0  0  0  0  0  0
  1  4  1  0  0  0  0
  2  1  1  0  0  0  0
  3  2  1  0  0  0  0
  4  5  2  0  0  0  0
  5 13  1  0  0  0  0
  6  5  1  0  0  0  0
  6  7  1  0  0  0  0
  7  8  2  0  0  0  0
  9  7  2  0  0  0  0
 10  6  2  0  0  0  0
 11  1  2  0  0  0  0
 11 10  1  0  0  0  0
 14 10  1  0  0  0  0
 15 11  1  0  0  0  0
 16 19  1  0  0  0  0
 16 20  1  0  0  0  0
 17 16  1  0  0  0  0
 18 12  1  0  0  0  0
M  RAD  3   2   2   3   3   4   2
M  END
