Coordinates from ORCA-job 4-NO2PhN2+~BF4-_B3LYPG-6-31G_dp-CH-Scan-d09-49-n800
 OpenBabel11261918593D

 20 19  0  0  0  0  0  0  0  0999 V2000
   -2.1559    0.0859   -0.2483 C   0  0  0  0  0  0  0  0  0  0  0  0
   -3.5071   -0.1754   -0.4555 N   0  0  0  0  0  0  0  0  0  0  0  0
   -4.5765   -0.4003   -0.6667 N   0  0  0  0  0  0  0  0  0  0  0  0
   -1.7041    1.4031   -0.4037 C   0  0  0  0  0  0  0  0  0  0  0  0
   -0.3372    1.6085   -0.2226 C   0  0  0  0  0  0  0  0  0  0  0  0
    0.4801    0.5292    0.1018 C   0  0  0  0  0  0  0  0  0  0  0  0
    1.9334    0.7704    0.2984 N   0  0  0  0  0  0  0  0  0  0  0  0
    2.3350    1.9185    0.1519 O   0  0  0  0  0  0  0  0  0  0  0  0
    2.6240   -0.2012    0.5919 O   0  0  0  0  0  0  0  0  0  0  0  0
    0.0095   -0.7782    0.2555 C   0  0  0  0  0  0  0  0  0  0  0  0
   -1.3423   -1.0171    0.0727 C   0  0  0  0  0  0  0  0  0  0  0  0
   -2.5630    2.3385   -0.6601 H   0  0  0  0  0  0  0  0  0  0  0  0
    0.0975    2.5955   -0.3216 H   0  0  0  0  0  0  0  0  0  0  0  0
    0.7002   -1.5710    0.5105 H   0  0  0  0  0  0  0  0  0  0  0  0
   -1.7611   -2.0116    0.1780 H   0  0  0  0  0  0  0  0  0  0  0  0
   -4.8700    2.6010    0.0645 B   0  0  0  0  0  0  0  0  0  0  0  0
   -5.6524    1.7142   -0.7082 F   0  0  0  0  0  0  0  0  0  0  0  0
   -3.8776    3.1772   -0.8236 F   0  0  0  0  0  0  0  0  0  0  0  0
   -5.6129    3.5816    0.6495 F   0  0  0  0  0  0  0  0  0  0  0  0
   -4.1506    1.8306    1.0119 F   0  0  0  0  0  0  0  0  0  0  0  0
  1 11  1  0  0  0  0
  2  1  1  0  0  0  0
  3  2  1  0  0  0  0
  4  1  2  0  0  0  0
  4  5  1  0  0  0  0
  5  6  2  0  0  0  0
  6 10  1  0  0  0  0
  6  7  1  0  0  0  0
  7  9  2  0  0  0  0
  8  7  2  0  0  0  0
 10 14  1  0  0  0  0
 11 15  1  0  0  0  0
 11 10  2  0  0  0  0
 12  4  1  0  0  0  0
 13  5  1  0  0  0  0
 16 19  1  0  0  0  0
 16 20  1  0  0  0  0
 17 16  1  0  0  0  0
 18 16  1  0  0  0  0
M  RAD  2   2   2   3   3
M  END
