Coordinates from ORCA-job 4-NO2PhN2+~BF4-_B3LYPG-6-31G_dp-CH-Scan-d09-49-n800
 OpenBabel11261918593D

 20 18  0  0  0  0  0  0  0  0999 V2000
   -2.0098   -0.0298   -0.0361 C   0  0  0  0  0  0  0  0  0  0  0  0
   -3.3803   -0.2963   -0.0801 N   0  0  0  0  0  0  0  0  0  0  0  0
   -4.4799   -0.4704   -0.1182 N   0  0  0  0  0  0  0  0  0  0  0  0
   -1.6685    1.3285   -0.1040 C   0  0  0  0  0  0  0  0  0  0  0  0
   -0.2616    1.5028   -0.0520 C   0  0  0  0  0  0  0  0  0  0  0  0
    0.6057    0.4246    0.0521 C   0  0  0  0  0  0  0  0  0  0  0  0
    2.0707    0.6772    0.1022 N   0  0  0  0  0  0  0  0  0  0  0  0
    2.4471    1.8431    0.0537 O   0  0  0  0  0  0  0  0  0  0  0  0
    2.8075   -0.3035    0.1890 O   0  0  0  0  0  0  0  0  0  0  0  0
    0.1840   -0.9168    0.1144 C   0  0  0  0  0  0  0  0  0  0  0  0
   -1.1691   -1.1675    0.0698 C   0  0  0  0  0  0  0  0  0  0  0  0
   -3.0296    2.8909   -0.2385 H   0  0  0  0  0  0  0  0  0  0  0  0
    0.1712    2.4970   -0.0931 H   0  0  0  0  0  0  0  0  0  0  0  0
    0.9162   -1.7088    0.1949 H   0  0  0  0  0  0  0  0  0  0  0  0
   -1.5653   -2.1771    0.1139 H   0  0  0  0  0  0  0  0  0  0  0  0
   -5.3174    2.6847   -0.1396 B   0  0  0  0  0  0  0  0  0  0  0  0
   -5.2674    1.9270   -1.2579 F   0  0  0  0  0  0  0  0  0  0  0  0
   -3.7462    3.5474   -0.2921 F   0  0  0  0  0  0  0  0  0  0  0  0
   -6.1472    3.7276   -0.1178 F   0  0  0  0  0  0  0  0  0  0  0  0
   -5.0911    2.0189    1.0156 F   0  0  0  0  0  0  0  0  0  0  0  0
  1 11  2  0  0  0  0
  2  1  1  0  0  0  0
  3  2  1  0  0  0  0
  4  5  2  0  0  0  0
  4  1  1  0  0  0  0
  5  6  1  0  0  0  0
  6  7  1  0  0  0  0
  6 10  2  0  0  0  0
  7  9  2  0  0  0  0
  8  7  2  0  0  0  0
 10 14  1  0  0  0  0
 11 15  1  0  0  0  0
 11 10  1  0  0  0  0
 13  5  1  0  0  0  0
 16 19  1  0  0  0  0
 16 20  1  0  0  0  0
 17 16  1  0  0  0  0
 18 12  1  0  0  0  0
M  RAD  3   2   2   3   3   4   2
M  END
