Coordinates from ORCA-job 4-NO2PhN2+~BF4-_B3LYPG-6-31G_dp-CH-Scan-d09-49-n800
 OpenBabel11261918593D

 20 18  0  0  0  0  0  0  0  0999 V2000
   -2.0799   -0.0078   -0.0371 C   0  0  0  0  0  0  0  0  0  0  0  0
   -3.4450   -0.2950   -0.0793 N   0  0  0  0  0  0  0  0  0  0  0  0
   -4.5398   -0.4906   -0.1168 N   0  0  0  0  0  0  0  0  0  0  0  0
   -1.7353    1.3507   -0.1023 C   0  0  0  0  0  0  0  0  0  0  0  0
   -0.3351    1.5408   -0.0534 C   0  0  0  0  0  0  0  0  0  0  0  0
    0.5407    0.4683    0.0469 C   0  0  0  0  0  0  0  0  0  0  0  0
    2.0033    0.7334    0.0945 N   0  0  0  0  0  0  0  0  0  0  0  0
    2.3679    1.9028    0.0473 O   0  0  0  0  0  0  0  0  0  0  0  0
    2.7472   -0.2416    0.1782 O   0  0  0  0  0  0  0  0  0  0  0  0
    0.1275   -0.8734    0.1074 C   0  0  0  0  0  0  0  0  0  0  0  0
   -1.2252   -1.1332    0.0649 C   0  0  0  0  0  0  0  0  0  0  0  0
   -2.8935    2.6662   -0.2114 H   0  0  0  0  0  0  0  0  0  0  0  0
    0.0856    2.5397   -0.0935 H   0  0  0  0  0  0  0  0  0  0  0  0
    0.8640   -1.6618    0.1849 H   0  0  0  0  0  0  0  0  0  0  0  0
   -1.6131   -2.1457    0.1078 H   0  0  0  0  0  0  0  0  0  0  0  0
   -5.1113    2.6764   -0.1402 B   0  0  0  0  0  0  0  0  0  0  0  0
   -5.1326    1.8775   -1.2503 F   0  0  0  0  0  0  0  0  0  0  0  0
   -3.6214    3.3986   -0.2669 F   0  0  0  0  0  0  0  0  0  0  0  0
   -5.9517    3.7226   -0.1288 F   0  0  0  0  0  0  0  0  0  0  0  0
   -4.9832    1.9713    1.0242 F   0  0  0  0  0  0  0  0  0  0  0  0
  1 11  2  0  0  0  0
  2  1  1  0  0  0  0
  3  2  1  0  0  0  0
  4  5  2  0  0  0  0
  4  1  1  0  0  0  0
  5  6  1  0  0  0  0
  6  7  1  0  0  0  0
  6 10  2  0  0  0  0
  7  9  2  0  0  0  0
  8  7  2  0  0  0  0
 10 14  1  0  0  0  0
 11 10  1  0  0  0  0
 11 15  1  0  0  0  0
 13  5  1  0  0  0  0
 16 19  1  0  0  0  0
 16 20  1  0  0  0  0
 17 16  1  0  0  0  0
 18 12  1  0  0  0  0
M  RAD  3   2   2   3   3   4   2
M  END
