Coordinates from ORCA-job 4-NO2PhN2+~BF4-_B3LYPG-6-31G_dp-CH-Scan-d09-49-n800
 OpenBabel11261918593D

 20 18  0  0  0  0  0  0  0  0999 V2000
   -2.0534   -0.0177   -0.0378 C   0  0  0  0  0  0  0  0  0  0  0  0
   -3.4204   -0.2985   -0.0803 N   0  0  0  0  0  0  0  0  0  0  0  0
   -4.5169   -0.4869   -0.1174 N   0  0  0  0  0  0  0  0  0  0  0  0
   -1.7122    1.3412   -0.1045 C   0  0  0  0  0  0  0  0  0  0  0  0
   -0.3092    1.5260   -0.0539 C   0  0  0  0  0  0  0  0  0  0  0  0
    0.5643    0.4523    0.0485 C   0  0  0  0  0  0  0  0  0  0  0  0
    2.0277    0.7140    0.0976 N   0  0  0  0  0  0  0  0  0  0  0  0
    2.3956    1.8826    0.0532 O   0  0  0  0  0  0  0  0  0  0  0  0
    2.7697   -0.2623    0.1850 O   0  0  0  0  0  0  0  0  0  0  0  0
    0.1493   -0.8898    0.1097 C   0  0  0  0  0  0  0  0  0  0  0  0
   -1.2032   -1.1473    0.0662 C   0  0  0  0  0  0  0  0  0  0  0  0
   -2.9474    2.7485   -0.2239 H   0  0  0  0  0  0  0  0  0  0  0  0
    0.1156    2.5234   -0.0946 H   0  0  0  0  0  0  0  0  0  0  0  0
    0.8849   -1.6788    0.1887 H   0  0  0  0  0  0  0  0  0  0  0  0
   -1.5934   -2.1592    0.1096 H   0  0  0  0  0  0  0  0  0  0  0  0
   -5.1884    2.6819   -0.1389 B   0  0  0  0  0  0  0  0  0  0  0  0
   -5.1868    1.8954   -1.2499 F   0  0  0  0  0  0  0  0  0  0  0  0
   -3.6642    3.4486   -0.2790 F   0  0  0  0  0  0  0  0  0  0  0  0
   -6.0183    3.7317   -0.1261 F   0  0  0  0  0  0  0  0  0  0  0  0
   -5.0244    1.9944    1.0240 F   0  0  0  0  0  0  0  0  0  0  0  0
  1 11  2  0  0  0  0
  2  1  1  0  0  0  0
  3  2  1  0  0  0  0
  4  5  2  0  0  0  0
  4  1  1  0  0  0  0
  5  6  1  0  0  0  0
  6  7  1  0  0  0  0
  6 10  2  0  0  0  0
  7  9  2  0  0  0  0
  8  7  2  0  0  0  0
 10 14  1  0  0  0  0
 11 15  1  0  0  0  0
 11 10  1  0  0  0  0
 13  5  1  0  0  0  0
 16 19  1  0  0  0  0
 16 20  1  0  0  0  0
 17 16  1  0  0  0  0
 18 12  1  0  0  0  0
M  RAD  3   2   2   3   3   4   2
M  END
