Coordinates from ORCA-job 4-NO2PhN2+~BF4-_B3LYPG-6-31G_dp-CH-Scan-d09-49-n800
 OpenBabel11261918593D

 20 18  0  0  0  0  0  0  0  0999 V2000
   -1.7819   -0.0815    0.0215 C   0  0  0  0  0  0  0  0  0  0  0  0
   -3.1752   -0.2518   -0.0077 N   0  0  0  0  0  0  0  0  0  0  0  0
   -4.2895   -0.3140   -0.0285 N   0  0  0  0  0  0  0  0  0  0  0  0
   -1.4079    1.2646    0.0162 C   0  0  0  0  0  0  0  0  0  0  0  0
    0.0154    1.3657    0.0483 C   0  0  0  0  0  0  0  0  0  0  0  0
    0.8341    0.2468    0.0782 C   0  0  0  0  0  0  0  0  0  0  0  0
    2.3103    0.4269    0.1102 N   0  0  0  0  0  0  0  0  0  0  0  0
    2.7450    1.5743    0.1086 O   0  0  0  0  0  0  0  0  0  0  0  0
    3.0043   -0.5891    0.1365 O   0  0  0  0  0  0  0  0  0  0  0  0
    0.3552   -1.0816    0.0805 C   0  0  0  0  0  0  0  0  0  0  0  0
   -1.0065   -1.2713    0.0514 C   0  0  0  0  0  0  0  0  0  0  0  0
   -3.6504    3.9511   -0.2325 H   0  0  0  0  0  0  0  0  0  0  0  0
    0.4983    2.3389    0.0496 H   0  0  0  0  0  0  0  0  0  0  0  0
    1.0555   -1.9054    0.1047 H   0  0  0  0  0  0  0  0  0  0  0  0
   -1.4496   -2.2630    0.0514 H   0  0  0  0  0  0  0  0  0  0  0  0
   -5.8374    2.6548   -0.1770 B   0  0  0  0  0  0  0  0  0  0  0  0
   -5.6187    1.9928   -1.3076 F   0  0  0  0  0  0  0  0  0  0  0  0
   -4.4682    4.2296   -0.5813 F   0  0  0  0  0  0  0  0  0  0  0  0
   -6.8928    3.4396   -0.0601 F   0  0  0  0  0  0  0  0  0  0  0  0
   -5.1707    2.2720    0.9135 F   0  0  0  0  0  0  0  0  0  0  0  0
  1 11  1  0  0  0  0
  2  1  1  0  0  0  0
  3  2  1  0  0  0  0
  4  1  2  0  0  0  0
  4  5  1  0  0  0  0
  5 13  1  0  0  0  0
  5  6  2  0  0  0  0
  6 10  1  0  0  0  0
  6  7  1  0  0  0  0
  7  9  2  0  0  0  0
  8  7  2  0  0  0  0
 10 14  1  0  0  0  0
 11 10  2  0  0  0  0
 15 11  1  0  0  0  0
 16 19  1  0  0  0  0
 16 20  1  0  0  0  0
 17 16  1  0  0  0  0
 18 12  1  0  0  0  0
M  RAD  3   2   2   3   3   4   2
M  END
