Coordinates from ORCA-job 4-NO2PhN2+~BF4-_B3LYPG-6-31G_dp-CH-Scan-d09-49-n800
 OpenBabel11261918593D

 20 18  0  0  0  0  0  0  0  0999 V2000
   -1.6087   -0.0428    0.0437 C   0  0  0  0  0  0  0  0  0  0  0  0
   -3.0137   -0.1073    0.0118 N   0  0  0  0  0  0  0  0  0  0  0  0
   -4.1299   -0.0711   -0.0097 N   0  0  0  0  0  0  0  0  0  0  0  0
   -1.1530    1.2746    0.0822 C   0  0  0  0  0  0  0  0  0  0  0  0
    0.2749    1.2836    0.1152 C   0  0  0  0  0  0  0  0  0  0  0  0
    1.0184    0.1131    0.1085 C   0  0  0  0  0  0  0  0  0  0  0  0
    2.5030    0.1945    0.1457 N   0  0  0  0  0  0  0  0  0  0  0  0
    3.0128    1.3099    0.1874 O   0  0  0  0  0  0  0  0  0  0  0  0
    3.1300   -0.8648    0.1316 O   0  0  0  0  0  0  0  0  0  0  0  0
    0.4543   -1.1820    0.0676 C   0  0  0  0  0  0  0  0  0  0  0  0
   -0.9167   -1.2830    0.0332 C   0  0  0  0  0  0  0  0  0  0  0  0
   -4.4347    4.5434   -0.2633 H   0  0  0  0  0  0  0  0  0  0  0  0
    0.8194    2.2234    0.1469 H   0  0  0  0  0  0  0  0  0  0  0  0
    1.1007   -2.0491    0.0642 H   0  0  0  0  0  0  0  0  0  0  0  0
   -1.4237   -2.2433    0.0002 H   0  0  0  0  0  0  0  0  0  0  0  0
   -6.0808    2.6575   -0.1922 B   0  0  0  0  0  0  0  0  0  0  0  0
   -5.9009    2.0068   -1.3308 F   0  0  0  0  0  0  0  0  0  0  0  0
   -5.1695    4.5182   -0.8339 F   0  0  0  0  0  0  0  0  0  0  0  0
   -7.2588    3.1737    0.1048 F   0  0  0  0  0  0  0  0  0  0  0  0
   -5.1539    2.5439    0.7630 F   0  0  0  0  0  0  0  0  0  0  0  0
  1  4  1  0  0  0  0
  2  1  1  0  0  0  0
  3  2  1  0  0  0  0
  4  5  2  0  0  0  0
  5 13  1  0  0  0  0
  6  5  1  0  0  0  0
  6  7  1  0  0  0  0
  7  8  2  0  0  0  0
  9  7  2  0  0  0  0
 10  6  2  0  0  0  0
 11  1  2  0  0  0  0
 11 10  1  0  0  0  0
 14 10  1  0  0  0  0
 15 11  1  0  0  0  0
 16 19  1  0  0  0  0
 16 20  1  0  0  0  0
 17 16  1  0  0  0  0
 18 12  1  0  0  0  0
M  RAD  3   2   2   3   3   4   2
M  END
