Coordinates from ORCA-job 4-NO2PhN2+~BF4-_B3LYPG-6-31G_dp-CH-Scan-d09-49-n800
 OpenBabel11261918593D

 20 18  0  0  0  0  0  0  0  0999 V2000
   -1.6428   -0.0592    0.0386 C   0  0  0  0  0  0  0  0  0  0  0  0
   -3.0461   -0.1487    0.0055 N   0  0  0  0  0  0  0  0  0  0  0  0
   -4.1627   -0.1356   -0.0177 N   0  0  0  0  0  0  0  0  0  0  0  0
   -1.2076    1.2654    0.0762 C   0  0  0  0  0  0  0  0  0  0  0  0
    0.2199    1.2966    0.1109 C   0  0  0  0  0  0  0  0  0  0  0  0
    0.9820    0.1381    0.1059 C   0  0  0  0  0  0  0  0  0  0  0  0
    2.4651    0.2431    0.1444 N   0  0  0  0  0  0  0  0  0  0  0  0
    2.9571    1.3666    0.1835 O   0  0  0  0  0  0  0  0  0  0  0  0
    3.1087   -0.8063    0.1348 O   0  0  0  0  0  0  0  0  0  0  0  0
    0.4385   -1.1657    0.0657 C   0  0  0  0  0  0  0  0  0  0  0  0
   -0.9307   -1.2882    0.0302 C   0  0  0  0  0  0  0  0  0  0  0  0
   -4.2948    4.4721   -0.2669 H   0  0  0  0  0  0  0  0  0  0  0  0
    0.7496    2.2448    0.1427 H   0  0  0  0  0  0  0  0  0  0  0  0
    1.0983   -2.0226    0.0638 H   0  0  0  0  0  0  0  0  0  0  0  0
   -1.4224   -2.2564   -0.0021 H   0  0  0  0  0  0  0  0  0  0  0  0
   -6.0305    2.6585   -0.1807 B   0  0  0  0  0  0  0  0  0  0  0  0
   -5.8760    1.9914   -1.3139 F   0  0  0  0  0  0  0  0  0  0  0  0
   -5.0352    4.4682   -0.8309 F   0  0  0  0  0  0  0  0  0  0  0  0
   -7.1837    3.2342    0.1046 F   0  0  0  0  0  0  0  0  0  0  0  0
   -5.1175    2.5031    0.7816 F   0  0  0  0  0  0  0  0  0  0  0  0
  1  4  1  0  0  0  0
  2  1  1  0  0  0  0
  3  2  1  0  0  0  0
  4  5  2  0  0  0  0
  5 13  1  0  0  0  0
  6  5  1  0  0  0  0
  6  7  1  0  0  0  0
  7  8  2  0  0  0  0
  9  7  2  0  0  0  0
 10  6  2  0  0  0  0
 11  1  2  0  0  0  0
 11 10  1  0  0  0  0
 14 10  1  0  0  0  0
 15 11  1  0  0  0  0
 16 19  1  0  0  0  0
 16 20  1  0  0  0  0
 17 16  1  0  0  0  0
 18 12  1  0  0  0  0
M  RAD  3   2   2   3   3   4   2
M  END
