Coordinates from ORCA-job 4-NO2PhN2+~BF4-_B3LYPG-6-31G_dp-CH-Scan-d09-49-n800
 OpenBabel11261918593D

 20 18  0  0  0  0  0  0  0  0999 V2000
   -1.7595   -0.0820    0.0202 C   0  0  0  0  0  0  0  0  0  0  0  0
   -3.1549   -0.2401   -0.0119 N   0  0  0  0  0  0  0  0  0  0  0  0
   -4.2699   -0.2883   -0.0361 N   0  0  0  0  0  0  0  0  0  0  0  0
   -1.3783    1.2616    0.0208 C   0  0  0  0  0  0  0  0  0  0  0  0
    0.0458    1.3536    0.0560 C   0  0  0  0  0  0  0  0  0  0  0  0
    0.8572    0.2293    0.0834 C   0  0  0  0  0  0  0  0  0  0  0  0
    2.3345    0.3997    0.1190 N   0  0  0  0  0  0  0  0  0  0  0  0
    2.7769    1.5442    0.1214 O   0  0  0  0  0  0  0  0  0  0  0  0
    3.0221   -0.6209    0.1443 O   0  0  0  0  0  0  0  0  0  0  0  0
    0.3700   -1.0963    0.0798 C   0  0  0  0  0  0  0  0  0  0  0  0
   -0.9928   -1.2774    0.0471 C   0  0  0  0  0  0  0  0  0  0  0  0
   -3.7433    4.0477   -0.2358 H   0  0  0  0  0  0  0  0  0  0  0  0
    0.5349    2.3237    0.0619 H   0  0  0  0  0  0  0  0  0  0  0  0
    1.0652   -1.9243    0.1026 H   0  0  0  0  0  0  0  0  0  0  0  0
   -1.4423   -2.2663    0.0426 H   0  0  0  0  0  0  0  0  0  0  0  0
   -5.8718    2.6549   -0.1729 B   0  0  0  0  0  0  0  0  0  0  0  0
   -5.6746    1.9924   -1.3060 F   0  0  0  0  0  0  0  0  0  0  0  0
   -4.5553    4.2718   -0.6329 F   0  0  0  0  0  0  0  0  0  0  0  0
   -6.9445    3.4095   -0.0217 F   0  0  0  0  0  0  0  0  0  0  0  0
   -5.1504    2.3064    0.8943 F   0  0  0  0  0  0  0  0  0  0  0  0
  1  4  2  0  0  0  0
  1 11  1  0  0  0  0
  2  1  1  0  0  0  0
  3  2  1  0  0  0  0
  4  5  1  0  0  0  0
  5 13  1  0  0  0  0
  5  6  2  0  0  0  0
  6  7  1  0  0  0  0
  7  8  2  0  0  0  0
  7  9  2  0  0  0  0
 10  6  1  0  0  0  0
 10 14  1  0  0  0  0
 11 10  2  0  0  0  0
 15 11  1  0  0  0  0
 16 19  1  0  0  0  0
 16 20  1  0  0  0  0
 17 16  1  0  0  0  0
 18 12  1  0  0  0  0
M  RAD  3   2   2   3   3   4   2
M  END
