Coordinates from ORCA-job 4-NO2PhN2+~BF4-_B3LYPG-6-31G_dp-CH-Scan-d09-49-n800
 OpenBabel11261918593D

 20 18  0  0  0  0  0  0  0  0999 V2000
   -2.0172   -0.0280   -0.0356 C   0  0  0  0  0  0  0  0  0  0  0  0
   -3.3871   -0.2970   -0.0790 N   0  0  0  0  0  0  0  0  0  0  0  0
   -4.4862   -0.4734   -0.1166 N   0  0  0  0  0  0  0  0  0  0  0  0
   -1.6763    1.3305   -0.1031 C   0  0  0  0  0  0  0  0  0  0  0  0
   -0.2700    1.5068   -0.0516 C   0  0  0  0  0  0  0  0  0  0  0  0
    0.5986    0.4295    0.0517 C   0  0  0  0  0  0  0  0  0  0  0  0
    2.0633    0.6840    0.1012 N   0  0  0  0  0  0  0  0  0  0  0  0
    2.4380    1.8504    0.0532 O   0  0  0  0  0  0  0  0  0  0  0  0
    2.8012   -0.2959    0.1872 O   0  0  0  0  0  0  0  0  0  0  0  0
    0.1783   -0.9122    0.1135 C   0  0  0  0  0  0  0  0  0  0  0  0
   -1.1746   -1.1643    0.0695 C   0  0  0  0  0  0  0  0  0  0  0  0
   -3.0156    2.8655   -0.2353 H   0  0  0  0  0  0  0  0  0  0  0  0
    0.1612    2.5016   -0.0924 H   0  0  0  0  0  0  0  0  0  0  0  0
    0.9113   -1.7035    0.1933 H   0  0  0  0  0  0  0  0  0  0  0  0
   -1.5695   -2.1744    0.1133 H   0  0  0  0  0  0  0  0  0  0  0  0
   -5.2961    2.6843   -0.1407 B   0  0  0  0  0  0  0  0  0  0  0  0
   -5.2537    1.9216   -1.2575 F   0  0  0  0  0  0  0  0  0  0  0  0
   -3.7308    3.5293   -0.2899 F   0  0  0  0  0  0  0  0  0  0  0  0
   -6.1243    3.7295   -0.1212 F   0  0  0  0  0  0  0  0  0  0  0  0
   -5.0815    2.0151    1.0162 F   0  0  0  0  0  0  0  0  0  0  0  0
  1 11  2  0  0  0  0
  2  1  1  0  0  0  0
  3  2  1  0  0  0  0
  4  5  2  0  0  0  0
  4  1  1  0  0  0  0
  5  6  1  0  0  0  0
  6  7  1  0  0  0  0
  6 10  2  0  0  0  0
  7  9  2  0  0  0  0
  8  7  2  0  0  0  0
 10 14  1  0  0  0  0
 11 15  1  0  0  0  0
 11 10  1  0  0  0  0
 13  5  1  0  0  0  0
 16 19  1  0  0  0  0
 16 20  1  0  0  0  0
 17 16  1  0  0  0  0
 18 12  1  0  0  0  0
M  RAD  3   2   2   3   3   4   2
M  END
