Coordinates from ORCA-job 4-NO2PhN2+~BF4-_B3LYPG-6-31G_dp-CH-Scan-d09-49-n800
 OpenBabel11261918593D

 20 19  0  0  0  0  0  0  0  0999 V2000
   -2.2837    0.1015   -0.3906 C   0  0  0  0  0  0  0  0  0  0  0  0
   -3.6129   -0.2202   -0.6480 N   0  0  0  0  0  0  0  0  0  0  0  0
   -4.6216   -0.6129   -0.8907 N   0  0  0  0  0  0  0  0  0  0  0  0
   -1.7903    1.3491   -0.7910 C   0  0  0  0  0  0  0  0  0  0  0  0
   -0.4383    1.5920   -0.5703 C   0  0  0  0  0  0  0  0  0  0  0  0
    0.3375    0.6058    0.0308 C   0  0  0  0  0  0  0  0  0  0  0  0
    1.7801    0.8768    0.2564 N   0  0  0  0  0  0  0  0  0  0  0  0
    2.2131    1.9553   -0.1312 O   0  0  0  0  0  0  0  0  0  0  0  0
    2.4311   -0.0037    0.8107 O   0  0  0  0  0  0  0  0  0  0  0  0
   -0.1689   -0.6313    0.4378 C   0  0  0  0  0  0  0  0  0  0  0  0
   -1.5103   -0.9010    0.2225 C   0  0  0  0  0  0  0  0  0  0  0  0
   -2.5176    2.1206   -1.2242 H   0  0  0  0  0  0  0  0  0  0  0  0
    0.0099    2.5378   -0.8460 H   0  0  0  0  0  0  0  0  0  0  0  0
    0.4876   -1.3519    0.9077 H   0  0  0  0  0  0  0  0  0  0  0  0
   -1.9531   -1.8439    0.5209 H   0  0  0  0  0  0  0  0  0  0  0  0
   -4.4819    2.5224    0.3643 B   0  0  0  0  0  0  0  0  0  0  0  0
   -4.4950    2.1229   -1.0300 F   0  0  0  0  0  0  0  0  0  0  0  0
   -3.3186    3.2743    0.5624 F   0  0  0  0  0  0  0  0  0  0  0  0
   -5.6269    3.1993    0.6796 F   0  0  0  0  0  0  0  0  0  0  0  0
   -4.3711    1.3063    1.1050 F   0  0  0  0  0  0  0  0  0  0  0  0
  1 11  2  0  0  0  0
  2  1  1  0  0  0  0
  3  2  1  0  0  0  0
  4  5  2  0  0  0  0
  4  1  1  0  0  0  0
  5  6  1  0  0  0  0
  6  7  1  0  0  0  0
  6 10  2  0  0  0  0
  7  9  2  0  0  0  0
  8  7  2  0  0  0  0
 10 14  1  0  0  0  0
 11 10  1  0  0  0  0
 11 15  1  0  0  0  0
 12  4  1  0  0  0  0
 13  5  1  0  0  0  0
 16 18  1  0  0  0  0
 16 19  1  0  0  0  0
 16 20  1  0  0  0  0
 17 16  1  0  0  0  0
M  RAD  2   2   2   3   3
M  END
