Coordinates from ORCA-job 4-NO2PhN2+~BF4-_B3LYPG-6-31G_dp-CH-Scan-d09-49-n800
 OpenBabel11261918593D

 20 18  0  0  0  0  0  0  0  0999 V2000
   -2.0788   -0.0082   -0.0373 C   0  0  0  0  0  0  0  0  0  0  0  0
   -3.4440   -0.2952   -0.0796 N   0  0  0  0  0  0  0  0  0  0  0  0
   -4.5388   -0.4906   -0.1172 N   0  0  0  0  0  0  0  0  0  0  0  0
   -1.7345    1.3503   -0.1025 C   0  0  0  0  0  0  0  0  0  0  0  0
   -0.3341    1.5402   -0.0534 C   0  0  0  0  0  0  0  0  0  0  0  0
    0.5416    0.4677    0.0471 C   0  0  0  0  0  0  0  0  0  0  0  0
    2.0043    0.7327    0.0948 N   0  0  0  0  0  0  0  0  0  0  0  0
    2.3690    1.9020    0.0475 O   0  0  0  0  0  0  0  0  0  0  0  0
    2.7481   -0.2424    0.1784 O   0  0  0  0  0  0  0  0  0  0  0  0
    0.1284   -0.8741    0.1075 C   0  0  0  0  0  0  0  0  0  0  0  0
   -1.2243   -1.1338    0.0649 C   0  0  0  0  0  0  0  0  0  0  0  0
   -2.8958    2.6696   -0.2121 H   0  0  0  0  0  0  0  0  0  0  0  0
    0.0868    2.5390   -0.0935 H   0  0  0  0  0  0  0  0  0  0  0  0
    0.8648   -1.6625    0.1852 H   0  0  0  0  0  0  0  0  0  0  0  0
   -1.6123   -2.1463    0.1078 H   0  0  0  0  0  0  0  0  0  0  0  0
   -5.1145    2.6767   -0.1399 B   0  0  0  0  0  0  0  0  0  0  0  0
   -5.1351    1.8783   -1.2500 F   0  0  0  0  0  0  0  0  0  0  0  0
   -3.6231    3.4005   -0.2675 F   0  0  0  0  0  0  0  0  0  0  0  0
   -5.9542    3.7232   -0.1283 F   0  0  0  0  0  0  0  0  0  0  0  0
   -4.9846    1.9724    1.0244 F   0  0  0  0  0  0  0  0  0  0  0  0
  1 11  2  0  0  0  0
  2  1  1  0  0  0  0
  3  2  1  0  0  0  0
  4  5  2  0  0  0  0
  4  1  1  0  0  0  0
  5  6  1  0  0  0  0
  6  7  1  0  0  0  0
  6 10  2  0  0  0  0
  7  9  2  0  0  0  0
  8  7  2  0  0  0  0
 10 14  1  0  0  0  0
 11 10  1  0  0  0  0
 11 15  1  0  0  0  0
 13  5  1  0  0  0  0
 16 19  1  0  0  0  0
 16 20  1  0  0  0  0
 17 16  1  0  0  0  0
 18 12  1  0  0  0  0
M  RAD  3   2   2   3   3   4   2
M  END
