Coordinates from ORCA-job 4-NO2PhN2+~BF4-_B3LYPG-6-31G_dp-CH-Scan-d09-49-n800
 OpenBabel11261918593D

 20 18  0  0  0  0  0  0  0  0999 V2000
   -1.9232   -0.0500   -0.0031 C   0  0  0  0  0  0  0  0  0  0  0  0
   -3.3023   -0.2827   -0.0317 N   0  0  0  0  0  0  0  0  0  0  0  0
   -4.4083   -0.4211   -0.0583 N   0  0  0  0  0  0  0  0  0  0  0  0
   -1.5733    1.3050   -0.0655 C   0  0  0  0  0  0  0  0  0  0  0  0
   -0.1588    1.4528   -0.0338 C   0  0  0  0  0  0  0  0  0  0  0  0
    0.6924    0.3606    0.0480 C   0  0  0  0  0  0  0  0  0  0  0  0
    2.1623    0.5876    0.0755 N   0  0  0  0  0  0  0  0  0  0  0  0
    2.5595    1.7470    0.0268 O   0  0  0  0  0  0  0  0  0  0  0  0
    2.8849   -0.4052    0.1490 O   0  0  0  0  0  0  0  0  0  0  0  0
    0.2517   -0.9770    0.1078 C   0  0  0  0  0  0  0  0  0  0  0  0
   -1.1046   -1.2070    0.0821 C   0  0  0  0  0  0  0  0  0  0  0  0
   -3.2101    3.2459   -0.1919 H   0  0  0  0  0  0  0  0  0  0  0  0
    0.2924    2.4394   -0.0741 H   0  0  0  0  0  0  0  0  0  0  0  0
    0.9739   -1.7795    0.1714 H   0  0  0  0  0  0  0  0  0  0  0  0
   -1.5168   -2.2107    0.1251 H   0  0  0  0  0  0  0  0  0  0  0  0
   -5.5549    2.6771   -0.1841 B   0  0  0  0  0  0  0  0  0  0  0  0
   -5.2925    1.9872   -1.3023 F   0  0  0  0  0  0  0  0  0  0  0  0
   -3.9663    3.8110   -0.2279 F   0  0  0  0  0  0  0  0  0  0  0  0
   -6.4518    3.6525   -0.2149 F   0  0  0  0  0  0  0  0  0  0  0  0
   -5.2852    2.0666    0.9782 F   0  0  0  0  0  0  0  0  0  0  0  0
  1 11  2  0  0  0  0
  2  1  1  0  0  0  0
  3  2  1  0  0  0  0
  4  5  2  0  0  0  0
  4  1  1  0  0  0  0
  5  6  1  0  0  0  0
  6  7  1  0  0  0  0
  6 10  2  0  0  0  0
  7  9  2  0  0  0  0
  8  7  2  0  0  0  0
 10 14  1  0  0  0  0
 11 10  1  0  0  0  0
 11 15  1  0  0  0  0
 13  5  1  0  0  0  0
 16 20  1  0  0  0  0
 17 16  1  0  0  0  0
 18 12  1  0  0  0  0
 19 16  1  0  0  0  0
M  RAD  3   2   2   3   3   4   2
M  END
