Coordinates from ORCA-job 4-NO2PhN2+~BF4-_B3LYPG-6-31G_dp-CH-Scan-d09-49-n800
 OpenBabel11261918593D

 20 18  0  0  0  0  0  0  0  0999 V2000
   -1.8156   -0.0726   -0.0142 C   0  0  0  0  0  0  0  0  0  0  0  0
   -3.2049   -0.2597   -0.0551 N   0  0  0  0  0  0  0  0  0  0  0  0
   -4.3171   -0.3433   -0.0895 N   0  0  0  0  0  0  0  0  0  0  0  0
   -1.4462    1.2745   -0.0766 C   0  0  0  0  0  0  0  0  0  0  0  0
   -0.0254    1.3877   -0.0317 C   0  0  0  0  0  0  0  0  0  0  0  0
    0.8001    0.2771    0.0607 C   0  0  0  0  0  0  0  0  0  0  0  0
    2.2746    0.4695    0.1026 N   0  0  0  0  0  0  0  0  0  0  0  0
    2.7010    1.6187    0.0521 O   0  0  0  0  0  0  0  0  0  0  0  0
    2.9744   -0.5393    0.1852 O   0  0  0  0  0  0  0  0  0  0  0  0
    0.3296   -1.0524    0.1190 C   0  0  0  0  0  0  0  0  0  0  0  0
   -1.0306   -1.2526    0.0810 C   0  0  0  0  0  0  0  0  0  0  0  0
   -3.4867    3.7301   -0.2577 H   0  0  0  0  0  0  0  0  0  0  0  0
    0.4506    2.3633   -0.0695 H   0  0  0  0  0  0  0  0  0  0  0  0
    1.0344   -1.8695    0.1909 H   0  0  0  0  0  0  0  0  0  0  0  0
   -1.4668   -2.2464    0.1218 H   0  0  0  0  0  0  0  0  0  0  0  0
   -5.7931    2.6600   -0.1633 B   0  0  0  0  0  0  0  0  0  0  0  0
   -5.4633    2.0473   -1.2988 F   0  0  0  0  0  0  0  0  0  0  0  0
   -4.3196    4.1466   -0.3176 F   0  0  0  0  0  0  0  0  0  0  0  0
   -6.8078    3.5052   -0.1383 F   0  0  0  0  0  0  0  0  0  0  0  0
   -5.3184    2.1551    0.9752 F   0  0  0  0  0  0  0  0  0  0  0  0
  1 11  2  0  0  0  0
  2  1  1  0  0  0  0
  3  2  1  0  0  0  0
  4  5  2  0  0  0  0
  4  1  1  0  0  0  0
  5  6  1  0  0  0  0
  6  7  1  0  0  0  0
  6 10  2  0  0  0  0
  7  9  2  0  0  0  0
  8  7  2  0  0  0  0
 10 14  1  0  0  0  0
 11 10  1  0  0  0  0
 11 15  1  0  0  0  0
 13  5  1  0  0  0  0
 16 19  1  0  0  0  0
 16 20  1  0  0  0  0
 17 16  1  0  0  0  0
 18 12  1  0  0  0  0
M  RAD  3   2   2   3   3   4   2
M  END
