Coordinates from ORCA-job 4-NO2PhN2+~BF4-_B3LYPG-6-31G_dp-CH-Scan-d09-49-n800
 OpenBabel11261918593D

 20 18  0  0  0  0  0  0  0  0999 V2000
   -1.7947   -0.0811    0.0200 C   0  0  0  0  0  0  0  0  0  0  0  0
   -3.1868   -0.2581   -0.0067 N   0  0  0  0  0  0  0  0  0  0  0  0
   -4.3006   -0.3282   -0.0287 N   0  0  0  0  0  0  0  0  0  0  0  0
   -1.4244    1.2663    0.0076 C   0  0  0  0  0  0  0  0  0  0  0  0
   -0.0017    1.3725    0.0380 C   0  0  0  0  0  0  0  0  0  0  0  0
    0.8209    0.2565    0.0724 C   0  0  0  0  0  0  0  0  0  0  0  0
    2.2965    0.4420    0.1014 N   0  0  0  0  0  0  0  0  0  0  0  0
    2.7267    1.5911    0.1051 O   0  0  0  0  0  0  0  0  0  0  0  0
    2.9937   -0.5713    0.1432 O   0  0  0  0  0  0  0  0  0  0  0  0
    0.3466   -1.0733    0.0817 C   0  0  0  0  0  0  0  0  0  0  0  0
   -1.0146   -1.2677    0.0549 C   0  0  0  0  0  0  0  0  0  0  0  0
   -3.6027    3.8966   -0.2261 H   0  0  0  0  0  0  0  0  0  0  0  0
    0.4777    2.3472    0.0340 H   0  0  0  0  0  0  0  0  0  0  0  0
    1.0495   -1.8946    0.1094 H   0  0  0  0  0  0  0  0  0  0  0  0
   -1.4542   -2.2610    0.0605 H   0  0  0  0  0  0  0  0  0  0  0  0
   -5.8158    2.6548   -0.1786 B   0  0  0  0  0  0  0  0  0  0  0  0
   -5.5857    1.9963   -1.3096 F   0  0  0  0  0  0  0  0  0  0  0  0
   -4.4207    4.2067   -0.5474 F   0  0  0  0  0  0  0  0  0  0  0  0
   -6.8619    3.4540   -0.0765 F   0  0  0  0  0  0  0  0  0  0  0  0
   -5.1787    2.2507    0.9219 F   0  0  0  0  0  0  0  0  0  0  0  0
  1 11  1  0  0  0  0
  2  1  1  0  0  0  0
  3  2  1  0  0  0  0
  4  1  2  0  0  0  0
  4  5  1  0  0  0  0
  5  6  2  0  0  0  0
  6 10  1  0  0  0  0
  6  7  1  0  0  0  0
  7  8  2  0  0  0  0
  7  9  2  0  0  0  0
 10 14  1  0  0  0  0
 11 15  1  0  0  0  0
 11 10  2  0  0  0  0
 13  5  1  0  0  0  0
 16 19  1  0  0  0  0
 16 20  1  0  0  0  0
 17 16  1  0  0  0  0
 18 12  1  0  0  0  0
M  RAD  3   2   2   3   3   4   2
M  END
