Coordinates from ORCA-job 4-NO2PhN2+~BF4-_B3LYPG-6-31G_dp-CH-Scan-d09-49-n800
 OpenBabel11261918593D

 20 18  0  0  0  0  0  0  0  0999 V2000
   -1.8690   -0.0629   -0.0121 C   0  0  0  0  0  0  0  0  0  0  0  0
   -3.2533   -0.2730   -0.0465 N   0  0  0  0  0  0  0  0  0  0  0  0
   -4.3629   -0.3831   -0.0775 N   0  0  0  0  0  0  0  0  0  0  0  0
   -1.5106    1.2885   -0.0770 C   0  0  0  0  0  0  0  0  0  0  0  0
   -0.0928    1.4199   -0.0368 C   0  0  0  0  0  0  0  0  0  0  0  0
    0.7462    0.3192    0.0540 C   0  0  0  0  0  0  0  0  0  0  0  0
    2.2184    0.5302    0.0915 N   0  0  0  0  0  0  0  0  0  0  0  0
    2.6294    1.6848    0.0416 O   0  0  0  0  0  0  0  0  0  0  0  0
    2.9303   -0.4702    0.1702 O   0  0  0  0  0  0  0  0  0  0  0  0
    0.2916   -1.0147    0.1145 C   0  0  0  0  0  0  0  0  0  0  0  0
   -1.0665   -1.2310    0.0811 C   0  0  0  0  0  0  0  0  0  0  0  0
   -3.3373    3.4802   -0.2334 H   0  0  0  0  0  0  0  0  0  0  0  0
    0.3703    2.4013   -0.0770 H   0  0  0  0  0  0  0  0  0  0  0  0
    1.0057   -1.8238    0.1847 H   0  0  0  0  0  0  0  0  0  0  0  0
   -1.4900   -2.2301    0.1241 H   0  0  0  0  0  0  0  0  0  0  0  0
   -5.6848    2.6685   -0.1701 B   0  0  0  0  0  0  0  0  0  0  0  0
   -5.3779    2.0182   -1.2950 F   0  0  0  0  0  0  0  0  0  0  0  0
   -4.1276    3.9828   -0.2647 F   0  0  0  0  0  0  0  0  0  0  0  0
   -6.6382    3.5849   -0.1794 F   0  0  0  0  0  0  0  0  0  0  0  0
   -5.3120    2.1098    0.9840 F   0  0  0  0  0  0  0  0  0  0  0  0
  1 11  2  0  0  0  0
  2  1  1  0  0  0  0
  3  2  1  0  0  0  0
  4  5  2  0  0  0  0
  4  1  1  0  0  0  0
  5  6  1  0  0  0  0
  6  7  1  0  0  0  0
  6 10  2  0  0  0  0
  7  9  2  0  0  0  0
  8  7  2  0  0  0  0
 10 14  1  0  0  0  0
 11 10  1  0  0  0  0
 11 15  1  0  0  0  0
 13  5  1  0  0  0  0
 16 20  1  0  0  0  0
 17 16  1  0  0  0  0
 18 12  1  0  0  0  0
 19 16  1  0  0  0  0
M  RAD  3   2   2   3   3   4   2
M  END
