Coordinates from ORCA-job 4-NO2PhN2+~BF4-_B3LYPG-6-31G_dp-CH-Scan-d09-49-n800
 OpenBabel11261918593D

 20 18  0  0  0  0  0  0  0  0999 V2000
   -1.5912   -0.0350    0.0488 C   0  0  0  0  0  0  0  0  0  0  0  0
   -2.9967   -0.0879    0.0197 N   0  0  0  0  0  0  0  0  0  0  0  0
   -4.1126   -0.0418   -0.0011 N   0  0  0  0  0  0  0  0  0  0  0  0
   -1.1253    1.2788    0.0875 C   0  0  0  0  0  0  0  0  0  0  0  0
    0.3028    1.2767    0.1178 C   0  0  0  0  0  0  0  0  0  0  0  0
    1.0370    0.1003    0.1090 C   0  0  0  0  0  0  0  0  0  0  0  0
    2.5222    0.1700    0.1435 N   0  0  0  0  0  0  0  0  0  0  0  0
    3.0409    1.2813    0.1869 O   0  0  0  0  0  0  0  0  0  0  0  0
    3.1409   -0.8942    0.1265 O   0  0  0  0  0  0  0  0  0  0  0  0
    0.4627   -1.1904    0.0680 C   0  0  0  0  0  0  0  0  0  0  0  0
   -0.9091   -1.2807    0.0359 C   0  0  0  0  0  0  0  0  0  0  0  0
   -4.5079    4.5811   -0.2556 H   0  0  0  0  0  0  0  0  0  0  0  0
    0.8547    2.2121    0.1490 H   0  0  0  0  0  0  0  0  0  0  0  0
    1.1023   -2.0624    0.0627 H   0  0  0  0  0  0  0  0  0  0  0  0
   -1.4237   -2.2369    0.0030 H   0  0  0  0  0  0  0  0  0  0  0  0
   -6.1067    2.6584   -0.2013 B   0  0  0  0  0  0  0  0  0  0  0  0
   -5.9078    2.0162   -1.3414 F   0  0  0  0  0  0  0  0  0  0  0  0
   -5.2368    4.5439   -0.8332 F   0  0  0  0  0  0  0  0  0  0  0  0
   -7.2976    3.1443    0.0946 F   0  0  0  0  0  0  0  0  0  0  0  0
   -5.1792    2.5656    0.7558 F   0  0  0  0  0  0  0  0  0  0  0  0
  1  4  1  0  0  0  0
  2  1  1  0  0  0  0
  3  2  1  0  0  0  0
  4  5  2  0  0  0  0
  5 13  1  0  0  0  0
  6  5  1  0  0  0  0
  6  7  1  0  0  0  0
  7  8  2  0  0  0  0
  9  7  2  0  0  0  0
 10  6  2  0  0  0  0
 11  1  2  0  0  0  0
 11 10  1  0  0  0  0
 14 10  1  0  0  0  0
 15 11  1  0  0  0  0
 16 19  1  0  0  0  0
 16 20  1  0  0  0  0
 17 16  1  0  0  0  0
 18 12  1  0  0  0  0
M  RAD  3   2   2   3   3   4   2
M  END
