Coordinates from ORCA-job 4-NO2PhN2+~BF4-_B3LYPG-6-31G_dp-CH-Scan-d09-49-n800
 OpenBabel11261918593D

 20 18  0  0  0  0  0  0  0  0999 V2000
   -1.8599   -0.0655   -0.0109 C   0  0  0  0  0  0  0  0  0  0  0  0
   -3.2450   -0.2722   -0.0448 N   0  0  0  0  0  0  0  0  0  0  0  0
   -4.3550   -0.3791   -0.0746 N   0  0  0  0  0  0  0  0  0  0  0  0
   -1.5005    1.2854   -0.0747 C   0  0  0  0  0  0  0  0  0  0  0  0
   -0.0821    1.4144   -0.0346 C   0  0  0  0  0  0  0  0  0  0  0  0
    0.7552    0.3123    0.0549 C   0  0  0  0  0  0  0  0  0  0  0  0
    2.2277    0.5207    0.0923 N   0  0  0  0  0  0  0  0  0  0  0  0
    2.6408    1.6747    0.0434 O   0  0  0  0  0  0  0  0  0  0  0  0
    2.9381   -0.4809    0.1699 O   0  0  0  0  0  0  0  0  0  0  0  0
    0.2985   -1.0212    0.1142 C   0  0  0  0  0  0  0  0  0  0  0  0
   -1.0598   -1.2354    0.0809 C   0  0  0  0  0  0  0  0  0  0  0  0
   -3.3591    3.5218   -0.2376 H   0  0  0  0  0  0  0  0  0  0  0  0
    0.3828    2.3950   -0.0740 H   0  0  0  0  0  0  0  0  0  0  0  0
    1.0115   -1.8314    0.1834 H   0  0  0  0  0  0  0  0  0  0  0  0
   -1.4850   -2.2338    0.1230 H   0  0  0  0  0  0  0  0  0  0  0  0
   -5.7049    2.6682   -0.1709 B   0  0  0  0  0  0  0  0  0  0  0  0
   -5.3922    2.0243   -1.2972 F   0  0  0  0  0  0  0  0  0  0  0  0
   -4.1570    4.0104   -0.2717 F   0  0  0  0  0  0  0  0  0  0  0  0
   -6.6667    3.5753   -0.1763 F   0  0  0  0  0  0  0  0  0  0  0  0
   -5.3184    2.1165    0.9814 F   0  0  0  0  0  0  0  0  0  0  0  0
  1 11  2  0  0  0  0
  2  1  1  0  0  0  0
  3  2  1  0  0  0  0
  4  5  2  0  0  0  0
  4  1  1  0  0  0  0
  5  6  1  0  0  0  0
  6  7  1  0  0  0  0
  6 10  2  0  0  0  0
  7  9  2  0  0  0  0
  8  7  2  0  0  0  0
 10 14  1  0  0  0  0
 11 10  1  0  0  0  0
 11 15  1  0  0  0  0
 13  5  1  0  0  0  0
 16 20  1  0  0  0  0
 17 16  1  0  0  0  0
 18 12  1  0  0  0  0
 19 16  1  0  0  0  0
M  RAD  3   2   2   3   3   4   2
M  END
