Coordinates from ORCA-job 4-NO2PhN2+~BF4-_B3LYPG-6-31G_dp-CH-Scan-d09-49-n800
 OpenBabel11261918593D

 20 18  0  0  0  0  0  0  0  0999 V2000
   -1.8052   -0.0756   -0.0106 C   0  0  0  0  0  0  0  0  0  0  0  0
   -3.1956   -0.2574   -0.0507 N   0  0  0  0  0  0  0  0  0  0  0  0
   -4.3083   -0.3341   -0.0881 N   0  0  0  0  0  0  0  0  0  0  0  0
   -1.4340    1.2710   -0.0701 C   0  0  0  0  0  0  0  0  0  0  0  0
   -0.0126    1.3807   -0.0258 C   0  0  0  0  0  0  0  0  0  0  0  0
    0.8105    0.2679    0.0623 C   0  0  0  0  0  0  0  0  0  0  0  0
    2.2855    0.4568    0.1027 N   0  0  0  0  0  0  0  0  0  0  0  0
    2.7147    1.6051    0.0537 O   0  0  0  0  0  0  0  0  0  0  0  0
    2.9832   -0.5538    0.1828 O   0  0  0  0  0  0  0  0  0  0  0  0
    0.3372   -1.0608    0.1176 C   0  0  0  0  0  0  0  0  0  0  0  0
   -1.0234   -1.2580    0.0806 C   0  0  0  0  0  0  0  0  0  0  0  0
   -3.5238    3.7902   -0.2467 H   0  0  0  0  0  0  0  0  0  0  0  0
    0.4657    2.3553   -0.0614 H   0  0  0  0  0  0  0  0  0  0  0  0
    1.0403   -1.8795    0.1868 H   0  0  0  0  0  0  0  0  0  0  0  0
   -1.4619   -2.2509    0.1195 H   0  0  0  0  0  0  0  0  0  0  0  0
   -5.8102    2.6575   -0.1664 B   0  0  0  0  0  0  0  0  0  0  0  0
   -5.4819    2.0495   -1.3039 F   0  0  0  0  0  0  0  0  0  0  0  0
   -4.3646    4.1819   -0.3432 F   0  0  0  0  0  0  0  0  0  0  0  0
   -6.8405    3.4828   -0.1301 F   0  0  0  0  0  0  0  0  0  0  0  0
   -5.3062    2.1707    0.9672 F   0  0  0  0  0  0  0  0  0  0  0  0
  1 11  2  0  0  0  0
  2  1  1  0  0  0  0
  3  2  1  0  0  0  0
  4  5  2  0  0  0  0
  4  1  1  0  0  0  0
  5  6  1  0  0  0  0
  6  7  1  0  0  0  0
  6 10  2  0  0  0  0
  7  9  2  0  0  0  0
  8  7  2  0  0  0  0
 10 14  1  0  0  0  0
 11 10  1  0  0  0  0
 11 15  1  0  0  0  0
 13  5  1  0  0  0  0
 16 19  1  0  0  0  0
 16 20  1  0  0  0  0
 17 16  1  0  0  0  0
 18 12  1  0  0  0  0
M  RAD  3   2   2   3   3   4   2
M  END
