Coordinates from ORCA-job 4-NO2PhN2+~BF4-_B3LYPG-6-31G_dp-CH-Scan-d09-49-n800
 OpenBabel11261918593D

 20 18  0  0  0  0  0  0  0  0999 V2000
   -1.7737   -0.0811    0.0223 C   0  0  0  0  0  0  0  0  0  0  0  0
   -3.1678   -0.2472   -0.0080 N   0  0  0  0  0  0  0  0  0  0  0  0
   -4.2824   -0.3050   -0.0297 N   0  0  0  0  0  0  0  0  0  0  0  0
   -1.3968    1.2640    0.0204 C   0  0  0  0  0  0  0  0  0  0  0  0
    0.0268    1.3615    0.0535 C   0  0  0  0  0  0  0  0  0  0  0  0
    0.8427    0.2405    0.0815 C   0  0  0  0  0  0  0  0  0  0  0  0
    2.3193    0.4168    0.1149 N   0  0  0  0  0  0  0  0  0  0  0  0
    2.7571    1.5630    0.1098 O   0  0  0  0  0  0  0  0  0  0  0  0
    3.0110   -0.6010    0.1333 O   0  0  0  0  0  0  0  0  0  0  0  0
    0.3606   -1.0868    0.0803 C   0  0  0  0  0  0  0  0  0  0  0  0
   -1.0016   -1.2730    0.0500 C   0  0  0  0  0  0  0  0  0  0  0  0
   -3.6828    3.9856   -0.2333 H   0  0  0  0  0  0  0  0  0  0  0  0
    0.5121    2.3335    0.0575 H   0  0  0  0  0  0  0  0  0  0  0  0
    1.0588   -1.9123    0.1031 H   0  0  0  0  0  0  0  0  0  0  0  0
   -1.4472   -2.2637    0.0474 H   0  0  0  0  0  0  0  0  0  0  0  0
   -5.8508    2.6547   -0.1767 B   0  0  0  0  0  0  0  0  0  0  0  0
   -5.6376    1.9916   -1.3073 F   0  0  0  0  0  0  0  0  0  0  0  0
   -4.4991    4.2444   -0.5998 F   0  0  0  0  0  0  0  0  0  0  0  0
   -6.9125    3.4293   -0.0506 F   0  0  0  0  0  0  0  0  0  0  0  0
   -5.1668    2.2845    0.9074 F   0  0  0  0  0  0  0  0  0  0  0  0
  1 11  1  0  0  0  0
  2  1  1  0  0  0  0
  3  2  1  0  0  0  0
  4  1  2  0  0  0  0
  4  5  1  0  0  0  0
  5 13  1  0  0  0  0
  5  6  2  0  0  0  0
  6  7  1  0  0  0  0
  7  9  2  0  0  0  0
  8  7  2  0  0  0  0
 10  6  1  0  0  0  0
 10 14  1  0  0  0  0
 11 10  2  0  0  0  0
 15 11  1  0  0  0  0
 16 19  1  0  0  0  0
 16 20  1  0  0  0  0
 17 16  1  0  0  0  0
 18 12  1  0  0  0  0
M  RAD  3   2   2   3   3   4   2
M  END
