Coordinates from ORCA-job 4-NO2PhN2+~BF4-_B3LYPG-6-31G_dp-CH-Scan-d09-49-n800
 OpenBabel11261918593D

 20 18  0  0  0  0  0  0  0  0999 V2000
   -1.7979   -0.0804    0.0204 C   0  0  0  0  0  0  0  0  0  0  0  0
   -3.1897   -0.2591   -0.0076 N   0  0  0  0  0  0  0  0  0  0  0  0
   -4.3033   -0.3313   -0.0281 N   0  0  0  0  0  0  0  0  0  0  0  0
   -1.4282    1.2672    0.0088 C   0  0  0  0  0  0  0  0  0  0  0  0
   -0.0057    1.3743    0.0393 C   0  0  0  0  0  0  0  0  0  0  0  0
    0.8177    0.2589    0.0738 C   0  0  0  0  0  0  0  0  0  0  0  0
    2.2932    0.4455    0.1035 N   0  0  0  0  0  0  0  0  0  0  0  0
    2.7228    1.5947    0.0997 O   0  0  0  0  0  0  0  0  0  0  0  0
    2.9912   -0.5675    0.1376 O   0  0  0  0  0  0  0  0  0  0  0  0
    0.3442   -1.0712    0.0827 C   0  0  0  0  0  0  0  0  0  0  0  0
   -1.0168   -1.2663    0.0554 C   0  0  0  0  0  0  0  0  0  0  0  0
   -3.5919    3.8833   -0.2272 H   0  0  0  0  0  0  0  0  0  0  0  0
    0.4731    2.3494    0.0358 H   0  0  0  0  0  0  0  0  0  0  0  0
    1.0477   -1.8921    0.1103 H   0  0  0  0  0  0  0  0  0  0  0  0
   -1.4557   -2.2599    0.0604 H   0  0  0  0  0  0  0  0  0  0  0  0
   -5.8102    2.6544   -0.1792 B   0  0  0  0  0  0  0  0  0  0  0  0
   -5.5789    1.9958   -1.3100 F   0  0  0  0  0  0  0  0  0  0  0  0
   -4.4097    4.2003   -0.5425 F   0  0  0  0  0  0  0  0  0  0  0  0
   -6.8542    3.4569   -0.0798 F   0  0  0  0  0  0  0  0  0  0  0  0
   -5.1788    2.2464    0.9231 F   0  0  0  0  0  0  0  0  0  0  0  0
  1 11  1  0  0  0  0
  2  1  1  0  0  0  0
  3  2  1  0  0  0  0
  4  1  2  0  0  0  0
  4  5  1  0  0  0  0
  5  6  2  0  0  0  0
  6 10  1  0  0  0  0
  6  7  1  0  0  0  0
  7  9  2  0  0  0  0
  8  7  2  0  0  0  0
 10 14  1  0  0  0  0
 11 15  1  0  0  0  0
 11 10  2  0  0  0  0
 13  5  1  0  0  0  0
 16 19  1  0  0  0  0
 16 20  1  0  0  0  0
 17 16  1  0  0  0  0
 18 12  1  0  0  0  0
M  RAD  3   2   2   3   3   4   2
M  END
