Coordinates from ORCA-job 4-NO2PhN2+~BF4-_B3LYPG-6-31G_dp-CH-Scan-d09-49-n800
 OpenBabel11261918593D

 20 18  0  0  0  0  0  0  0  0999 V2000
   -1.9025   -0.0537   -0.0038 C   0  0  0  0  0  0  0  0  0  0  0  0
   -3.2836   -0.2785   -0.0327 N   0  0  0  0  0  0  0  0  0  0  0  0
   -4.3908   -0.4088   -0.0588 N   0  0  0  0  0  0  0  0  0  0  0  0
   -1.5489    1.2998   -0.0658 C   0  0  0  0  0  0  0  0  0  0  0  0
   -0.1331    1.4410   -0.0325 C   0  0  0  0  0  0  0  0  0  0  0  0
    0.7133    0.3452    0.0503 C   0  0  0  0  0  0  0  0  0  0  0  0
    2.1842    0.5657    0.0802 N   0  0  0  0  0  0  0  0  0  0  0  0
    2.5870    1.7231    0.0296 O   0  0  0  0  0  0  0  0  0  0  0  0
    2.9026   -0.4305    0.1510 O   0  0  0  0  0  0  0  0  0  0  0  0
    0.2670   -0.9910    0.1091 C   0  0  0  0  0  0  0  0  0  0  0  0
   -1.0901   -1.2152    0.0819 C   0  0  0  0  0  0  0  0  0  0  0  0
   -3.2558    3.3316   -0.2032 H   0  0  0  0  0  0  0  0  0  0  0  0
    0.3228    2.4255   -0.0720 H   0  0  0  0  0  0  0  0  0  0  0  0
    0.9859   -1.7963    0.1732 H   0  0  0  0  0  0  0  0  0  0  0  0
   -1.5068   -2.2171    0.1240 H   0  0  0  0  0  0  0  0  0  0  0  0
   -5.6075    2.6741   -0.1829 B   0  0  0  0  0  0  0  0  0  0  0  0
   -5.3228    1.9986   -1.3020 F   0  0  0  0  0  0  0  0  0  0  0  0
   -4.0241    3.8742   -0.2373 F   0  0  0  0  0  0  0  0  0  0  0  0
   -6.5224    3.6309   -0.2102 F   0  0  0  0  0  0  0  0  0  0  0  0
   -5.3055    2.0808    0.9781 F   0  0  0  0  0  0  0  0  0  0  0  0
  1 11  2  0  0  0  0
  2  1  1  0  0  0  0
  3  2  1  0  0  0  0
  4  5  2  0  0  0  0
  4  1  1  0  0  0  0
  5  6  1  0  0  0  0
  6  7  1  0  0  0  0
  6 10  2  0  0  0  0
  7  9  2  0  0  0  0
  8  7  2  0  0  0  0
 10 14  1  0  0  0  0
 11 10  1  0  0  0  0
 11 15  1  0  0  0  0
 13  5  1  0  0  0  0
 16 20  1  0  0  0  0
 17 16  1  0  0  0  0
 18 12  1  0  0  0  0
 19 16  1  0  0  0  0
M  RAD  3   2   2   3   3   4   2
M  END
