Coordinates from ORCA-job 4-NO2PhN2+~BF4-_B3LYPG-6-31G_dp-CH-Scan-d09-49-n800
 OpenBabel11261918593D

 20 18  0  0  0  0  0  0  0  0999 V2000
   -1.9371   -0.0437   -0.0050 C   0  0  0  0  0  0  0  0  0  0  0  0
   -3.3149   -0.2815   -0.0360 N   0  0  0  0  0  0  0  0  0  0  0  0
   -4.4195   -0.4284   -0.0653 N   0  0  0  0  0  0  0  0  0  0  0  0
   -1.5872    1.3115   -0.0667 C   0  0  0  0  0  0  0  0  0  0  0  0
   -0.1737    1.4624   -0.0337 C   0  0  0  0  0  0  0  0  0  0  0  0
    0.6792    0.3714    0.0487 C   0  0  0  0  0  0  0  0  0  0  0  0
    2.1487    0.6010    0.0774 N   0  0  0  0  0  0  0  0  0  0  0  0
    2.5437    1.7609    0.0269 O   0  0  0  0  0  0  0  0  0  0  0  0
    2.8727   -0.3908    0.1498 O   0  0  0  0  0  0  0  0  0  0  0  0
    0.2403   -0.9665    0.1082 C   0  0  0  0  0  0  0  0  0  0  0  0
   -1.1157   -1.1985    0.0811 C   0  0  0  0  0  0  0  0  0  0  0  0
   -3.1825    3.1825   -0.1918 H   0  0  0  0  0  0  0  0  0  0  0  0
    0.2754    2.4498   -0.0736 H   0  0  0  0  0  0  0  0  0  0  0  0
    0.9635   -1.7680    0.1725 H   0  0  0  0  0  0  0  0  0  0  0  0
   -1.5261   -2.2029    0.1236 H   0  0  0  0  0  0  0  0  0  0  0  0
   -5.5182    2.6783   -0.1804 B   0  0  0  0  0  0  0  0  0  0  0  0
   -5.2865    1.9750   -1.2992 F   0  0  0  0  0  0  0  0  0  0  0  0
   -3.9299    3.7637   -0.2359 F   0  0  0  0  0  0  0  0  0  0  0  0
   -6.4030    3.6663   -0.2054 F   0  0  0  0  0  0  0  0  0  0  0  0
   -5.2601    2.0569    0.9811 F   0  0  0  0  0  0  0  0  0  0  0  0
  1 11  2  0  0  0  0
  2  1  1  0  0  0  0
  3  2  1  0  0  0  0
  4  5  2  0  0  0  0
  4  1  1  0  0  0  0
  5  6  1  0  0  0  0
  6  7  1  0  0  0  0
  6 10  2  0  0  0  0
  7  9  2  0  0  0  0
  8  7  2  0  0  0  0
 10 14  1  0  0  0  0
 11 10  1  0  0  0  0
 11 15  1  0  0  0  0
 13  5  1  0  0  0  0
 16 20  1  0  0  0  0
 17 16  1  0  0  0  0
 18 12  1  0  0  0  0
 19 16  1  0  0  0  0
M  RAD  3   2   2   3   3   4   2
M  END
