Coordinates from ORCA-job 4-NO2PhN2+~BF4-_B3LYPG-6-31G_dp-CH-Scan-d09-49-n800
 OpenBabel11261918593D

 20 19  0  0  0  0  0  0  0  0999 V2000
   -2.3083    0.1162   -0.4241 C   0  0  0  0  0  0  0  0  0  0  0  0
   -3.6330   -0.2164   -0.6903 N   0  0  0  0  0  0  0  0  0  0  0  0
   -4.6332   -0.6293   -0.9355 N   0  0  0  0  0  0  0  0  0  0  0  0
   -1.8140    1.3605   -0.8365 C   0  0  0  0  0  0  0  0  0  0  0  0
   -0.4632    1.6039   -0.5997 C   0  0  0  0  0  0  0  0  0  0  0  0
    0.3057    0.6319    0.0296 C   0  0  0  0  0  0  0  0  0  0  0  0
    1.7438    0.9104    0.2714 N   0  0  0  0  0  0  0  0  0  0  0  0
    2.1795    1.9845   -0.1255 O   0  0  0  0  0  0  0  0  0  0  0  0
    2.3889    0.0405    0.8488 O   0  0  0  0  0  0  0  0  0  0  0  0
   -0.2046   -0.5993    0.4491 C   0  0  0  0  0  0  0  0  0  0  0  0
   -1.5419   -0.8736    0.2171 C   0  0  0  0  0  0  0  0  0  0  0  0
   -2.3976    2.0051   -1.2435 H   0  0  0  0  0  0  0  0  0  0  0  0
   -0.0141    2.5464   -0.8851 H   0  0  0  0  0  0  0  0  0  0  0  0
    0.4451   -1.3114    0.9408 H   0  0  0  0  0  0  0  0  0  0  0  0
   -1.9889   -1.8112    0.5250 H   0  0  0  0  0  0  0  0  0  0  0  0
   -4.4224    2.4851    0.3931 B   0  0  0  0  0  0  0  0  0  0  0  0
   -4.4882    2.1026   -0.9997 F   0  0  0  0  0  0  0  0  0  0  0  0
   -3.2059    3.1622    0.5751 F   0  0  0  0  0  0  0  0  0  0  0  0
   -5.5118    3.2322    0.7432 F   0  0  0  0  0  0  0  0  0  0  0  0
   -4.3667    1.2592    1.1230 F   0  0  0  0  0  0  0  0  0  0  0  0
  1 11  2  0  0  0  0
  2  1  1  0  0  0  0
  3  2  1  0  0  0  0
  4  5  2  0  0  0  0
  4  1  1  0  0  0  0
  5  6  1  0  0  0  0
  6  7  1  0  0  0  0
  6 10  2  0  0  0  0
  7  9  2  0  0  0  0
  8  7  2  0  0  0  0
 10 14  1  0  0  0  0
 11 10  1  0  0  0  0
 11 15  1  0  0  0  0
 12  4  1  0  0  0  0
 13  5  1  0  0  0  0
 16 18  1  0  0  0  0
 16 19  1  0  0  0  0
 16 20  1  0  0  0  0
 17 16  1  0  0  0  0
M  RAD  2   2   2   3   3
M  END
