Coordinates from ORCA-job 4-NO2PhN2+~BF4-_B3LYPG-6-31G_dp-CH-Scan-d09-49-n800
 OpenBabel11261918593D

 20 18  0  0  0  0  0  0  0  0999 V2000
   -1.8401   -0.0670   -0.0129 C   0  0  0  0  0  0  0  0  0  0  0  0
   -3.2270   -0.2654   -0.0489 N   0  0  0  0  0  0  0  0  0  0  0  0
   -4.3379   -0.3638   -0.0818 N   0  0  0  0  0  0  0  0  0  0  0  0
   -1.4754    1.2819   -0.0773 C   0  0  0  0  0  0  0  0  0  0  0  0
   -0.0559    1.4032   -0.0347 C   0  0  0  0  0  0  0  0  0  0  0  0
    0.7756    0.2970    0.0570 C   0  0  0  0  0  0  0  0  0  0  0  0
    2.2491    0.4977    0.0967 N   0  0  0  0  0  0  0  0  0  0  0  0
    2.6687    1.6493    0.0468 O   0  0  0  0  0  0  0  0  0  0  0  0
    2.9544   -0.5075    0.1769 O   0  0  0  0  0  0  0  0  0  0  0  0
    0.3122   -1.0344    0.1166 C   0  0  0  0  0  0  0  0  0  0  0  0
   -1.0471   -1.2417    0.0812 C   0  0  0  0  0  0  0  0  0  0  0  0
   -3.4127    3.6090   -0.2469 H   0  0  0  0  0  0  0  0  0  0  0  0
    0.4143    2.3814   -0.0741 H   0  0  0  0  0  0  0  0  0  0  0  0
    1.0211   -1.8480    0.1877 H   0  0  0  0  0  0  0  0  0  0  0  0
   -1.4776   -2.2379    0.1234 H   0  0  0  0  0  0  0  0  0  0  0  0
   -5.7469    2.6646   -0.1676 B   0  0  0  0  0  0  0  0  0  0  0  0
   -5.4229    2.0343   -1.2968 F   0  0  0  0  0  0  0  0  0  0  0  0
   -4.2259    4.0682   -0.2861 F   0  0  0  0  0  0  0  0  0  0  0  0
   -6.7303    3.5472   -0.1633 F   0  0  0  0  0  0  0  0  0  0  0  0
   -5.3266    2.1312    0.9804 F   0  0  0  0  0  0  0  0  0  0  0  0
  1 11  2  0  0  0  0
  2  1  1  0  0  0  0
  3  2  1  0  0  0  0
  4  5  2  0  0  0  0
  4  1  1  0  0  0  0
  5  6  1  0  0  0  0
  6  7  1  0  0  0  0
  6 10  2  0  0  0  0
  7  9  2  0  0  0  0
  8  7  2  0  0  0  0
 10 14  1  0  0  0  0
 11 10  1  0  0  0  0
 11 15  1  0  0  0  0
 13  5  1  0  0  0  0
 16 19  1  0  0  0  0
 16 20  1  0  0  0  0
 17 16  1  0  0  0  0
 18 12  1  0  0  0  0
M  RAD  3   2   2   3   3   4   2
M  END
