Coordinates from ORCA-job 4-NO2PhN2+~BF4-_B3LYPG-6-31G_dp-CH-Scan-d09-49-n800
 OpenBabel11261918593D

 20 18  0  0  0  0  0  0  0  0999 V2000
   -1.6138   -0.0465    0.0430 C   0  0  0  0  0  0  0  0  0  0  0  0
   -3.0185   -0.1146    0.0112 N   0  0  0  0  0  0  0  0  0  0  0  0
   -4.1348   -0.0803   -0.0117 N   0  0  0  0  0  0  0  0  0  0  0  0
   -1.1618    1.2723    0.0812 C   0  0  0  0  0  0  0  0  0  0  0  0
    0.2661    1.2852    0.1144 C   0  0  0  0  0  0  0  0  0  0  0  0
    1.0128    0.1167    0.1080 C   0  0  0  0  0  0  0  0  0  0  0  0
    2.4972    0.2022    0.1453 N   0  0  0  0  0  0  0  0  0  0  0  0
    3.0039    1.3191    0.1870 O   0  0  0  0  0  0  0  0  0  0  0  0
    3.1271   -0.8554    0.1323 O   0  0  0  0  0  0  0  0  0  0  0  0
    0.4523   -1.1800    0.0674 C   0  0  0  0  0  0  0  0  0  0  0  0
   -0.9183   -1.2848    0.0329 C   0  0  0  0  0  0  0  0  0  0  0  0
   -4.4145    4.5346   -0.2635 H   0  0  0  0  0  0  0  0  0  0  0  0
    0.8081    2.2264    0.1460 H   0  0  0  0  0  0  0  0  0  0  0  0
    1.1011   -2.0452    0.0643 H   0  0  0  0  0  0  0  0  0  0  0  0
   -1.4227   -2.2465    0.0002 H   0  0  0  0  0  0  0  0  0  0  0  0
   -6.0732    2.6581   -0.1905 B   0  0  0  0  0  0  0  0  0  0  0  0
   -5.8973    2.0049   -1.3283 F   0  0  0  0  0  0  0  0  0  0  0  0
   -5.1497    4.5117   -0.8339 F   0  0  0  0  0  0  0  0  0  0  0  0
   -7.2475    3.1831    0.1053 F   0  0  0  0  0  0  0  0  0  0  0  0
   -5.1478    2.5384    0.7655 F   0  0  0  0  0  0  0  0  0  0  0  0
  1  4  1  0  0  0  0
  2  1  1  0  0  0  0
  3  2  1  0  0  0  0
  4  5  2  0  0  0  0
  5 13  1  0  0  0  0
  6  5  1  0  0  0  0
  6  7  1  0  0  0  0
  7  8  2  0  0  0  0
  9  7  2  0  0  0  0
 10  6  2  0  0  0  0
 11  1  2  0  0  0  0
 11 10  1  0  0  0  0
 14 10  1  0  0  0  0
 15 11  1  0  0  0  0
 16 19  1  0  0  0  0
 16 20  1  0  0  0  0
 17 16  1  0  0  0  0
 18 12  1  0  0  0  0
M  RAD  3   2   2   3   3   4   2
M  END
