Coordinates from ORCA-job 4-NO2PhN2+~BF4-_B3LYPG-6-31G_dp-CH-Scan-d09-49-n800
 OpenBabel11261918593D

 20 18  0  0  0  0  0  0  0  0999 V2000
   -2.1081    0.0055   -0.0975 C   0  0  0  0  0  0  0  0  0  0  0  0
   -3.4687   -0.2881   -0.1837 N   0  0  0  0  0  0  0  0  0  0  0  0
   -4.5583   -0.4961   -0.2654 N   0  0  0  0  0  0  0  0  0  0  0  0
   -1.7516    1.3590   -0.1960 C   0  0  0  0  0  0  0  0  0  0  0  0
   -0.3576    1.5568   -0.1088 C   0  0  0  0  0  0  0  0  0  0  0  0
    0.5136    0.4883    0.0580 C   0  0  0  0  0  0  0  0  0  0  0  0
    1.9738    0.7565    0.1447 N   0  0  0  0  0  0  0  0  0  0  0  0
    2.3395    1.9232    0.0593 O   0  0  0  0  0  0  0  0  0  0  0  0
    2.7128   -0.2137    0.2961 O   0  0  0  0  0  0  0  0  0  0  0  0
    0.0967   -0.8490    0.1521 C   0  0  0  0  0  0  0  0  0  0  0  0
   -1.2548   -1.1111    0.0725 C   0  0  0  0  0  0  0  0  0  0  0  0
   -2.8309    2.5669   -0.3360 H   0  0  0  0  0  0  0  0  0  0  0  0
    0.0610    2.5553   -0.1691 H   0  0  0  0  0  0  0  0  0  0  0  0
    0.8289   -1.6343    0.2832 H   0  0  0  0  0  0  0  0  0  0  0  0
   -1.6436   -2.1220    0.1377 H   0  0  0  0  0  0  0  0  0  0  0  0
   -5.0216    2.6654   -0.0672 B   0  0  0  0  0  0  0  0  0  0  0  0
   -5.2502    1.8684   -1.1648 F   0  0  0  0  0  0  0  0  0  0  0  0
   -3.5992    3.3373   -0.3923 F   0  0  0  0  0  0  0  0  0  0  0  0
   -5.8593    3.7072    0.0921 F   0  0  0  0  0  0  0  0  0  0  0  0
   -4.7534    1.9237    1.0612 F   0  0  0  0  0  0  0  0  0  0  0  0
  1 11  2  0  0  0  0
  2  1  1  0  0  0  0
  3  2  1  0  0  0  0
  4  5  2  0  0  0  0
  4  1  1  0  0  0  0
  5  6  1  0  0  0  0
  6  7  1  0  0  0  0
  6 10  2  0  0  0  0
  7  9  2  0  0  0  0
  8  7  2  0  0  0  0
 10 14  1  0  0  0  0
 11 15  1  0  0  0  0
 11 10  1  0  0  0  0
 13  5  1  0  0  0  0
 16 19  1  0  0  0  0
 16 20  1  0  0  0  0
 17 16  1  0  0  0  0
 18 12  1  0  0  0  0
M  RAD  3   2   2   3   3   4   2
M  END
