Coordinates from ORCA-job 4-NO2PhN2+~BF4-_B3LYPG-6-31G_dp-CH-Scan-d09-49-n800
 OpenBabel11261918593D

 20 18  0  0  0  0  0  0  0  0999 V2000
   -1.5674   -0.0208    0.0561 C   0  0  0  0  0  0  0  0  0  0  0  0
   -2.9737   -0.0565    0.0292 N   0  0  0  0  0  0  0  0  0  0  0  0
   -4.0892    0.0023    0.0164 N   0  0  0  0  0  0  0  0  0  0  0  0
   -1.0860    1.2869    0.1029 C   0  0  0  0  0  0  0  0  0  0  0  0
    0.3420    1.2680    0.1304 C   0  0  0  0  0  0  0  0  0  0  0  0
    1.0620    0.0831    0.1129 C   0  0  0  0  0  0  0  0  0  0  0  0
    2.5481    0.1348    0.1459 N   0  0  0  0  0  0  0  0  0  0  0  0
    3.0801    1.2397    0.1915 O   0  0  0  0  0  0  0  0  0  0  0  0
    3.1542   -0.9361    0.1110 O   0  0  0  0  0  0  0  0  0  0  0  0
    0.4724   -1.2005    0.0642 C   0  0  0  0  0  0  0  0  0  0  0  0
   -0.9003   -1.2745    0.0337 C   0  0  0  0  0  0  0  0  0  0  0  0
   -4.6081    4.6300   -0.2650 H   0  0  0  0  0  0  0  0  0  0  0  0
    0.9048    2.1967    0.1667 H   0  0  0  0  0  0  0  0  0  0  0  0
    1.1018   -2.0800    0.0518 H   0  0  0  0  0  0  0  0  0  0  0  0
   -1.4263   -2.2243   -0.0051 H   0  0  0  0  0  0  0  0  0  0  0  0
   -6.1398    2.6573   -0.2081 B   0  0  0  0  0  0  0  0  0  0  0  0
   -5.9237    2.0182   -1.3465 F   0  0  0  0  0  0  0  0  0  0  0  0
   -5.3309    4.5697   -0.8482 F   0  0  0  0  0  0  0  0  0  0  0  0
   -7.3450    3.1048    0.0906 F   0  0  0  0  0  0  0  0  0  0  0  0
   -5.2060    2.6004    0.7457 F   0  0  0  0  0  0  0  0  0  0  0  0
  1  4  1  0  0  0  0
  2  1  1  0  0  0  0
  3  2  1  0  0  0  0
  4  5  2  0  0  0  0
  5 13  1  0  0  0  0
  6  5  1  0  0  0  0
  6  7  1  0  0  0  0
  7  8  2  0  0  0  0
  9  7  2  0  0  0  0
 10  6  2  0  0  0  0
 11  1  2  0  0  0  0
 11 10  1  0  0  0  0
 14 10  1  0  0  0  0
 15 11  1  0  0  0  0
 16 19  1  0  0  0  0
 16 20  1  0  0  0  0
 17 16  1  0  0  0  0
 18 12  1  0  0  0  0
M  RAD  3   2   2   3   3   4   2
M  END
