Coordinates from ORCA-job 4-NO2PhN2+~BF4-_B3LYPG-6-31G_dp-CH-Scan-d09-49-n800
 OpenBabel11261918593D

 20 19  0  0  0  0  0  0  0  0999 V2000
   -2.1553    0.0615   -0.1913 C   0  0  0  0  0  0  0  0  0  0  0  0
   -3.5079   -0.2156   -0.3657 N   0  0  0  0  0  0  0  0  0  0  0  0
   -4.5830   -0.4363   -0.5466 N   0  0  0  0  0  0  0  0  0  0  0  0
   -1.7292    1.3894   -0.3336 C   0  0  0  0  0  0  0  0  0  0  0  0
   -0.3553    1.5968   -0.1869 C   0  0  0  0  0  0  0  0  0  0  0  0
    0.4822    0.5202    0.0873 C   0  0  0  0  0  0  0  0  0  0  0  0
    1.9396    0.7702    0.2405 N   0  0  0  0  0  0  0  0  0  0  0  0
    2.3279    1.9239    0.1021 O   0  0  0  0  0  0  0  0  0  0  0  0
    2.6475   -0.2007    0.4934 O   0  0  0  0  0  0  0  0  0  0  0  0
    0.0296   -0.7961    0.2294 C   0  0  0  0  0  0  0  0  0  0  0  0
   -1.3238   -1.0429    0.0843 C   0  0  0  0  0  0  0  0  0  0  0  0
   -2.6322    2.3775   -0.5480 H   0  0  0  0  0  0  0  0  0  0  0  0
    0.0702    2.5888   -0.2780 H   0  0  0  0  0  0  0  0  0  0  0  0
    0.7354   -1.5870    0.4460 H   0  0  0  0  0  0  0  0  0  0  0  0
   -1.7312   -2.0431    0.1811 H   0  0  0  0  0  0  0  0  0  0  0  0
   -4.8809    2.6279    0.0193 B   0  0  0  0  0  0  0  0  0  0  0  0
   -5.4908    1.7741   -0.9171 F   0  0  0  0  0  0  0  0  0  0  0  0
   -3.7514    3.2690   -0.6738 F   0  0  0  0  0  0  0  0  0  0  0  0
   -5.7201    3.5838    0.5004 F   0  0  0  0  0  0  0  0  0  0  0  0
   -4.3024    1.8379    1.0333 F   0  0  0  0  0  0  0  0  0  0  0  0
  1 11  1  0  0  0  0
  2  1  1  0  0  0  0
  3  2  1  0  0  0  0
  4  1  2  0  0  0  0
  4  5  1  0  0  0  0
  5  6  2  0  0  0  0
  6 10  1  0  0  0  0
  6  7  1  0  0  0  0
  7  9  2  0  0  0  0
  8  7  2  0  0  0  0
 10 14  1  0  0  0  0
 11 15  1  0  0  0  0
 11 10  2  0  0  0  0
 12  4  1  0  0  0  0
 13  5  1  0  0  0  0
 16 19  1  0  0  0  0
 16 20  1  0  0  0  0
 17 16  1  0  0  0  0
 18 16  1  0  0  0  0
M  RAD  2   2   2   3   3
M  END
