Coordinates from ORCA-job 4-NO2PhN2+~BF4-_B3LYPG-6-31G_dp-CH-Scan-d09-49-n800
 OpenBabel11261918593D

 20 18  0  0  0  0  0  0  0  0999 V2000
   -1.8326   -0.0689   -0.0138 C   0  0  0  0  0  0  0  0  0  0  0  0
   -3.2203   -0.2638   -0.0517 N   0  0  0  0  0  0  0  0  0  0  0  0
   -4.3316   -0.3572   -0.0844 N   0  0  0  0  0  0  0  0  0  0  0  0
   -1.4666    1.2795   -0.0776 C   0  0  0  0  0  0  0  0  0  0  0  0
   -0.0467    1.3984   -0.0341 C   0  0  0  0  0  0  0  0  0  0  0  0
    0.7830    0.2909    0.0582 C   0  0  0  0  0  0  0  0  0  0  0  0
    2.2568    0.4892    0.0990 N   0  0  0  0  0  0  0  0  0  0  0  0
    2.6783    1.6402    0.0493 O   0  0  0  0  0  0  0  0  0  0  0  0
    2.9605   -0.5170    0.1802 O   0  0  0  0  0  0  0  0  0  0  0  0
    0.3175   -1.0400    0.1174 C   0  0  0  0  0  0  0  0  0  0  0  0
   -1.0420   -1.2452    0.0809 C   0  0  0  0  0  0  0  0  0  0  0  0
   -3.4344    3.6460   -0.2531 H   0  0  0  0  0  0  0  0  0  0  0  0
    0.4252    2.3758   -0.0729 H   0  0  0  0  0  0  0  0  0  0  0  0
    1.0252   -1.8545    0.1889 H   0  0  0  0  0  0  0  0  0  0  0  0
   -1.4742   -2.2407    0.1225 H   0  0  0  0  0  0  0  0  0  0  0  0
   -5.7615    2.6629   -0.1653 B   0  0  0  0  0  0  0  0  0  0  0  0
   -5.4357    2.0382   -1.2965 F   0  0  0  0  0  0  0  0  0  0  0  0
   -4.2537    4.0927   -0.2959 F   0  0  0  0  0  0  0  0  0  0  0  0
   -6.7545    3.5344   -0.1547 F   0  0  0  0  0  0  0  0  0  0  0  0
   -5.3238    2.1385    0.9798 F   0  0  0  0  0  0  0  0  0  0  0  0
  1 11  2  0  0  0  0
  2  1  1  0  0  0  0
  3  2  1  0  0  0  0
  4  5  2  0  0  0  0
  4  1  1  0  0  0  0
  5  6  1  0  0  0  0
  6  7  1  0  0  0  0
  6 10  2  0  0  0  0
  7  9  2  0  0  0  0
  8  7  2  0  0  0  0
 10 14  1  0  0  0  0
 11 10  1  0  0  0  0
 11 15  1  0  0  0  0
 13  5  1  0  0  0  0
 16 19  1  0  0  0  0
 16 20  1  0  0  0  0
 17 16  1  0  0  0  0
 18 12  1  0  0  0  0
M  RAD  3   2   2   3   3   4   2
M  END
