Coordinates from ORCA-job 4-NO2PhN2+~BF4-_B3LYPG-6-31G_dp-CH-Scan-d09-49-n800
 OpenBabel11261918593D

 20 18  0  0  0  0  0  0  0  0999 V2000
   -1.9398   -0.0431   -0.0063 C   0  0  0  0  0  0  0  0  0  0  0  0
   -3.3173   -0.2821   -0.0381 N   0  0  0  0  0  0  0  0  0  0  0  0
   -4.4217   -0.4302   -0.0681 N   0  0  0  0  0  0  0  0  0  0  0  0
   -1.5903    1.3123   -0.0684 C   0  0  0  0  0  0  0  0  0  0  0  0
   -0.1770    1.4640   -0.0346 C   0  0  0  0  0  0  0  0  0  0  0  0
    0.6764    0.3734    0.0488 C   0  0  0  0  0  0  0  0  0  0  0  0
    2.1458    0.6039    0.0783 N   0  0  0  0  0  0  0  0  0  0  0  0
    2.5402    1.7640    0.0276 O   0  0  0  0  0  0  0  0  0  0  0  0
    2.8702   -0.3876    0.1517 O   0  0  0  0  0  0  0  0  0  0  0  0
    0.2382   -0.9645    0.1087 C   0  0  0  0  0  0  0  0  0  0  0  0
   -1.1177   -1.1973    0.0809 C   0  0  0  0  0  0  0  0  0  0  0  0
   -3.1764    3.1713   -0.1938 H   0  0  0  0  0  0  0  0  0  0  0  0
    0.2716    2.4516   -0.0746 H   0  0  0  0  0  0  0  0  0  0  0  0
    0.9617   -1.7657    0.1738 H   0  0  0  0  0  0  0  0  0  0  0  0
   -1.5276   -2.2018    0.1236 H   0  0  0  0  0  0  0  0  0  0  0  0
   -5.5112    2.6785   -0.1786 B   0  0  0  0  0  0  0  0  0  0  0  0
   -5.2865    1.9734   -1.2980 F   0  0  0  0  0  0  0  0  0  0  0  0
   -3.9223    3.7553   -0.2380 F   0  0  0  0  0  0  0  0  0  0  0  0
   -6.3936    3.6690   -0.2011 F   0  0  0  0  0  0  0  0  0  0  0  0
   -5.2536    2.0551    0.9822 F   0  0  0  0  0  0  0  0  0  0  0  0
  1 11  2  0  0  0  0
  2  1  1  0  0  0  0
  3  2  1  0  0  0  0
  4  5  2  0  0  0  0
  4  1  1  0  0  0  0
  5  6  1  0  0  0  0
  6  7  1  0  0  0  0
  6 10  2  0  0  0  0
  7  9  2  0  0  0  0
  8  7  2  0  0  0  0
 10 14  1  0  0  0  0
 11 10  1  0  0  0  0
 11 15  1  0  0  0  0
 13  5  1  0  0  0  0
 16 20  1  0  0  0  0
 17 16  1  0  0  0  0
 18 12  1  0  0  0  0
 19 16  1  0  0  0  0
M  RAD  3   2   2   3   3   4   2
M  END
