Coordinates from ORCA-job 4-NO2PhN2+~BF4-_B3LYPG-6-31G_dp-CH-Scan-d09-49-n800
 OpenBabel11261918593D

 20 18  0  0  0  0  0  0  0  0999 V2000
   -1.7466   -0.0818    0.0157 C   0  0  0  0  0  0  0  0  0  0  0  0
   -3.1431   -0.2330   -0.0211 N   0  0  0  0  0  0  0  0  0  0  0  0
   -4.2585   -0.2735   -0.0480 N   0  0  0  0  0  0  0  0  0  0  0  0
   -1.3608    1.2602    0.0176 C   0  0  0  0  0  0  0  0  0  0  0  0
    0.0637    1.3468    0.0569 C   0  0  0  0  0  0  0  0  0  0  0  0
    0.8706    0.2193    0.0871 C   0  0  0  0  0  0  0  0  0  0  0  0
    2.3484    0.3837    0.1274 N   0  0  0  0  0  0  0  0  0  0  0  0
    2.7954    1.5264    0.1294 O   0  0  0  0  0  0  0  0  0  0  0  0
    3.0319   -0.6395    0.1552 O   0  0  0  0  0  0  0  0  0  0  0  0
    0.3782   -1.1045    0.0823 C   0  0  0  0  0  0  0  0  0  0  0  0
   -0.9852   -1.2804    0.0452 C   0  0  0  0  0  0  0  0  0  0  0  0
   -3.7999    4.1013   -0.2432 H   0  0  0  0  0  0  0  0  0  0  0  0
    0.5565    2.3149    0.0641 H   0  0  0  0  0  0  0  0  0  0  0  0
    1.0701   -1.9352    0.1074 H   0  0  0  0  0  0  0  0  0  0  0  0
   -1.4386   -2.2675    0.0393 H   0  0  0  0  0  0  0  0  0  0  0  0
   -5.8899    2.6551   -0.1672 B   0  0  0  0  0  0  0  0  0  0  0  0
   -5.7115    1.9957   -1.3047 F   0  0  0  0  0  0  0  0  0  0  0  0
   -4.6091    4.2970   -0.6605 F   0  0  0  0  0  0  0  0  0  0  0  0
   -6.9713    3.3904    0.0135 F   0  0  0  0  0  0  0  0  0  0  0  0
   -5.1313    2.3239    0.8797 F   0  0  0  0  0  0  0  0  0  0  0  0
  1  4  2  0  0  0  0
  1 11  1  0  0  0  0
  2  1  1  0  0  0  0
  3  2  1  0  0  0  0
  4  5  1  0  0  0  0
  5 13  1  0  0  0  0
  5  6  2  0  0  0  0
  6  7  1  0  0  0  0
  7  8  2  0  0  0  0
  7  9  2  0  0  0  0
 10  6  1  0  0  0  0
 10 14  1  0  0  0  0
 11 10  2  0  0  0  0
 15 11  1  0  0  0  0
 16 19  1  0  0  0  0
 16 20  1  0  0  0  0
 17 16  1  0  0  0  0
 18 12  1  0  0  0  0
M  RAD  3   2   2   3   3   4   2
M  END
