Coordinates from ORCA-job 4-NO2PhN2+~BF4-_B3LYPG-6-31G_dp-CH-Scan-d09-49-n800
 OpenBabel11261918593D

 20 18  0  0  0  0  0  0  0  0999 V2000
   -2.1046    0.0035   -0.0282 C   0  0  0  0  0  0  0  0  0  0  0  0
   -3.4684   -0.2874   -0.0662 N   0  0  0  0  0  0  0  0  0  0  0  0
   -4.5619   -0.4872   -0.1046 N   0  0  0  0  0  0  0  0  0  0  0  0
   -1.7533    1.3604   -0.0911 C   0  0  0  0  0  0  0  0  0  0  0  0
   -0.3562    1.5553   -0.0497 C   0  0  0  0  0  0  0  0  0  0  0  0
    0.5206    0.4826    0.0437 C   0  0  0  0  0  0  0  0  0  0  0  0
    1.9832    0.7489    0.0834 N   0  0  0  0  0  0  0  0  0  0  0  0
    2.3455    1.9188    0.0345 O   0  0  0  0  0  0  0  0  0  0  0  0
    2.7276   -0.2257    0.1626 O   0  0  0  0  0  0  0  0  0  0  0  0
    0.1074   -0.8579    0.1040 C   0  0  0  0  0  0  0  0  0  0  0  0
   -1.2462   -1.1183    0.0678 C   0  0  0  0  0  0  0  0  0  0  0  0
   -2.8368    2.5890   -0.1864 H   0  0  0  0  0  0  0  0  0  0  0  0
    0.0607    2.5556   -0.0902 H   0  0  0  0  0  0  0  0  0  0  0  0
    0.8438   -1.6469    0.1765 H   0  0  0  0  0  0  0  0  0  0  0  0
   -1.6328   -2.1312    0.1108 H   0  0  0  0  0  0  0  0  0  0  0  0
   -5.0423    2.6696   -0.1512 B   0  0  0  0  0  0  0  0  0  0  0  0
   -5.0572    1.8595   -1.2627 F   0  0  0  0  0  0  0  0  0  0  0  0
   -3.5890    3.3632   -0.2353 F   0  0  0  0  0  0  0  0  0  0  0  0
   -5.9047    3.7026   -0.1561 F   0  0  0  0  0  0  0  0  0  0  0  0
   -4.9664    1.9449    1.0145 F   0  0  0  0  0  0  0  0  0  0  0  0
  1 11  2  0  0  0  0
  2  1  1  0  0  0  0
  3  2  1  0  0  0  0
  4  5  2  0  0  0  0
  4  1  1  0  0  0  0
  5  6  1  0  0  0  0
  6  7  1  0  0  0  0
  6 10  2  0  0  0  0
  7  9  2  0  0  0  0
  8  7  2  0  0  0  0
 10 14  1  0  0  0  0
 11 10  1  0  0  0  0
 11 15  1  0  0  0  0
 13  5  1  0  0  0  0
 16 20  1  0  0  0  0
 17 16  1  0  0  0  0
 18 12  1  0  0  0  0
 19 16  1  0  0  0  0
M  RAD  3   2   2   3   3   4   2
M  END
