Coordinates from ORCA-job 4-NO2PhN2+~BF4-_B3LYPG-6-31G_dp-CH-Scan-d09-49-n800
 OpenBabel11261918593D

 20 18  0  0  0  0  0  0  0  0999 V2000
   -1.6992   -0.0758    0.0274 C   0  0  0  0  0  0  0  0  0  0  0  0
   -3.0993   -0.1999   -0.0089 N   0  0  0  0  0  0  0  0  0  0  0  0
   -4.2156   -0.2161   -0.0360 N   0  0  0  0  0  0  0  0  0  0  0  0
   -1.2930    1.2588    0.0525 C   0  0  0  0  0  0  0  0  0  0  0  0
    0.1332    1.3214    0.0909 C   0  0  0  0  0  0  0  0  0  0  0  0
    0.9211    0.1803    0.0990 C   0  0  0  0  0  0  0  0  0  0  0  0
    2.4015    0.3189    0.1397 N   0  0  0  0  0  0  0  0  0  0  0  0
    2.8682    1.4535    0.1643 O   0  0  0  0  0  0  0  0  0  0  0  0
    3.0681   -0.7160    0.1463 O   0  0  0  0  0  0  0  0  0  0  0  0
    0.4069   -1.1353    0.0710 C   0  0  0  0  0  0  0  0  0  0  0  0
   -0.9591   -1.2882    0.0335 C   0  0  0  0  0  0  0  0  0  0  0  0
   -4.0549    4.3130   -0.2519 H   0  0  0  0  0  0  0  0  0  0  0  0
    0.6420    2.2812    0.1148 H   0  0  0  0  0  0  0  0  0  0  0  0
    1.0853   -1.9775    0.0796 H   0  0  0  0  0  0  0  0  0  0  0  0
   -1.4291   -2.2674    0.0104 H   0  0  0  0  0  0  0  0  0  0  0  0
   -5.9456    2.6542   -0.1700 B   0  0  0  0  0  0  0  0  0  0  0  0
   -5.8144    1.9826   -1.3045 F   0  0  0  0  0  0  0  0  0  0  0  0
   -4.8137    4.3811   -0.7870 F   0  0  0  0  0  0  0  0  0  0  0  0
   -7.0609    3.3104    0.0920 F   0  0  0  0  0  0  0  0  0  0  0  0
   -5.0726    2.4202    0.8131 F   0  0  0  0  0  0  0  0  0  0  0  0
  1 11  2  0  0  0  0
  1  4  1  0  0  0  0
  2  1  1  0  0  0  0
  3  2  1  0  0  0  0
  4  5  2  0  0  0  0
  5  6  1  0  0  0  0
  5 13  1  0  0  0  0
  6  7  1  0  0  0  0
  7  9  2  0  0  0  0
  7  8  2  0  0  0  0
 10 14  1  0  0  0  0
 10  6  2  0  0  0  0
 11 10  1  0  0  0  0
 15 11  1  0  0  0  0
 16 19  1  0  0  0  0
 16 20  1  0  0  0  0
 17 16  1  0  0  0  0
 18 12  1  0  0  0  0
M  RAD  3   2   2   3   3   4   2
M  END
