Coordinates from ORCA-job 4-NO2PhN2+~BF4-_B3LYPG-6-31G_dp-CH-Scan-d09-49-n800
 OpenBabel11261918593D

 20 19  0  0  0  0  0  0  0  0999 V2000
   -2.1588    0.1063   -0.2632 C   0  0  0  0  0  0  0  0  0  0  0  0
   -3.5093   -0.1475   -0.4849 N   0  0  0  0  0  0  0  0  0  0  0  0
   -4.5744   -0.3799   -0.7107 N   0  0  0  0  0  0  0  0  0  0  0  0
   -1.6910    1.4176   -0.4216 C   0  0  0  0  0  0  0  0  0  0  0  0
   -0.3254    1.6161   -0.2328 C   0  0  0  0  0  0  0  0  0  0  0  0
    0.4807    0.5326    0.1063 C   0  0  0  0  0  0  0  0  0  0  0  0
    1.9341    0.7641    0.3111 N   0  0  0  0  0  0  0  0  0  0  0  0
    2.3457    1.9073    0.1544 O   0  0  0  0  0  0  0  0  0  0  0  0
    2.6143   -0.2097    0.6206 O   0  0  0  0  0  0  0  0  0  0  0  0
   -0.0026   -0.7684    0.2664 C   0  0  0  0  0  0  0  0  0  0  0  0
   -1.3553   -0.9980    0.0724 C   0  0  0  0  0  0  0  0  0  0  0  0
   -2.4919    2.3139   -0.6843 H   0  0  0  0  0  0  0  0  0  0  0  0
    0.1159    2.5995   -0.3364 H   0  0  0  0  0  0  0  0  0  0  0  0
    0.6787   -1.5652    0.5341 H   0  0  0  0  0  0  0  0  0  0  0  0
   -1.7826   -1.9883    0.1817 H   0  0  0  0  0  0  0  0  0  0  0  0
   -4.8730    2.5861    0.0737 B   0  0  0  0  0  0  0  0  0  0  0  0
   -5.6945    1.6801   -0.6419 F   0  0  0  0  0  0  0  0  0  0  0  0
   -3.9407    3.1532   -0.8617 F   0  0  0  0  0  0  0  0  0  0  0  0
   -5.5975    3.5580    0.6983 F   0  0  0  0  0  0  0  0  0  0  0  0
   -4.1033    1.8214    0.9946 F   0  0  0  0  0  0  0  0  0  0  0  0
  1 11  1  0  0  0  0
  2  1  1  0  0  0  0
  3  2  1  0  0  0  0
  4  1  2  0  0  0  0
  4  5  1  0  0  0  0
  5  6  2  0  0  0  0
  6 10  1  0  0  0  0
  6  7  1  0  0  0  0
  7  9  2  0  0  0  0
  8  7  2  0  0  0  0
 10 14  1  0  0  0  0
 11 15  1  0  0  0  0
 11 10  2  0  0  0  0
 12  4  1  0  0  0  0
 13  5  1  0  0  0  0
 16 19  1  0  0  0  0
 16 20  1  0  0  0  0
 17 16  1  0  0  0  0
 18 16  1  0  0  0  0
M  RAD  2   2   2   3   3
M  END
