Coordinates from ORCA-job 4-NO2PhN2+~BF4-_B3LYPG-6-31G_dp-CH-Scan-d09-49-n800
 OpenBabel11261918593D

 20 18  0  0  0  0  0  0  0  0999 V2000
   -2.0501   -0.0186   -0.0370 C   0  0  0  0  0  0  0  0  0  0  0  0
   -3.4173   -0.2981   -0.0795 N   0  0  0  0  0  0  0  0  0  0  0  0
   -4.5141   -0.4855   -0.1165 N   0  0  0  0  0  0  0  0  0  0  0  0
   -1.7090    1.3404   -0.1038 C   0  0  0  0  0  0  0  0  0  0  0  0
   -0.3057    1.5244   -0.0531 C   0  0  0  0  0  0  0  0  0  0  0  0
    0.5674    0.4503    0.0493 C   0  0  0  0  0  0  0  0  0  0  0  0
    2.0309    0.7114    0.0986 N   0  0  0  0  0  0  0  0  0  0  0  0
    2.3995    1.8797    0.0517 O   0  0  0  0  0  0  0  0  0  0  0  0
    2.7726   -0.2654    0.1833 O   0  0  0  0  0  0  0  0  0  0  0  0
    0.1520   -0.8918    0.1105 C   0  0  0  0  0  0  0  0  0  0  0  0
   -1.2006   -1.1488    0.0670 C   0  0  0  0  0  0  0  0  0  0  0  0
   -2.9537    2.7592   -0.2241 H   0  0  0  0  0  0  0  0  0  0  0  0
    0.1197    2.5215   -0.0937 H   0  0  0  0  0  0  0  0  0  0  0  0
    0.8873   -1.6810    0.1895 H   0  0  0  0  0  0  0  0  0  0  0  0
   -1.5912   -2.1605    0.1104 H   0  0  0  0  0  0  0  0  0  0  0  0
   -5.1983    2.6817   -0.1402 B   0  0  0  0  0  0  0  0  0  0  0  0
   -5.1916    1.8977   -1.2519 F   0  0  0  0  0  0  0  0  0  0  0  0
   -3.6699    3.4556   -0.2792 F   0  0  0  0  0  0  0  0  0  0  0  0
   -6.0279    3.7312   -0.1274 F   0  0  0  0  0  0  0  0  0  0  0  0
   -5.0308    1.9956    1.0222 F   0  0  0  0  0  0  0  0  0  0  0  0
  1 11  2  0  0  0  0
  2  1  1  0  0  0  0
  3  2  1  0  0  0  0
  4  5  2  0  0  0  0
  4  1  1  0  0  0  0
  5  6  1  0  0  0  0
  6  7  1  0  0  0  0
  6 10  2  0  0  0  0
  7  9  2  0  0  0  0
  8  7  2  0  0  0  0
 10 14  1  0  0  0  0
 11 15  1  0  0  0  0
 11 10  1  0  0  0  0
 13  5  1  0  0  0  0
 16 19  1  0  0  0  0
 16 20  1  0  0  0  0
 17 16  1  0  0  0  0
 18 12  1  0  0  0  0
M  RAD  3   2   2   3   3   4   2
M  END
