Coordinates from ORCA-job 4-NO2PhN2+~BF4-_B3LYPG-6-31G_dp-CH-Scan-d09-49-n800
 OpenBabel11261918593D

 20 18  0  0  0  0  0  0  0  0999 V2000
   -1.6107   -0.0438    0.0430 C   0  0  0  0  0  0  0  0  0  0  0  0
   -3.0156   -0.1097    0.0109 N   0  0  0  0  0  0  0  0  0  0  0  0
   -4.1318   -0.0746   -0.0103 N   0  0  0  0  0  0  0  0  0  0  0  0
   -1.1562    1.2740    0.0817 C   0  0  0  0  0  0  0  0  0  0  0  0
    0.2717    1.2844    0.1149 C   0  0  0  0  0  0  0  0  0  0  0  0
    1.0163    0.1145    0.1083 C   0  0  0  0  0  0  0  0  0  0  0  0
    2.5008    0.1973    0.1457 N   0  0  0  0  0  0  0  0  0  0  0  0
    3.0096    1.3132    0.1884 O   0  0  0  0  0  0  0  0  0  0  0  0
    3.1288   -0.8614    0.1327 O   0  0  0  0  0  0  0  0  0  0  0  0
    0.4534   -1.1811    0.0673 C   0  0  0  0  0  0  0  0  0  0  0  0
   -0.9174   -1.2834    0.0326 C   0  0  0  0  0  0  0  0  0  0  0  0
   -4.4267    4.5396   -0.2649 H   0  0  0  0  0  0  0  0  0  0  0  0
    0.8154    2.2246    0.1468 H   0  0  0  0  0  0  0  0  0  0  0  0
    1.1006   -2.0476    0.0639 H   0  0  0  0  0  0  0  0  0  0  0  0
   -1.4235   -2.2442   -0.0005 H   0  0  0  0  0  0  0  0  0  0  0  0
   -6.0779    2.6576   -0.1909 B   0  0  0  0  0  0  0  0  0  0  0  0
   -5.9005    2.0053   -1.3290 F   0  0  0  0  0  0  0  0  0  0  0  0
   -5.1622    4.5151   -0.8348 F   0  0  0  0  0  0  0  0  0  0  0  0
   -7.2542    3.1774    0.1063 F   0  0  0  0  0  0  0  0  0  0  0  0
   -5.1509    2.5419    0.7640 F   0  0  0  0  0  0  0  0  0  0  0  0
  1  4  1  0  0  0  0
  2  1  1  0  0  0  0
  3  2  1  0  0  0  0
  4  5  2  0  0  0  0
  5 13  1  0  0  0  0
  6  5  1  0  0  0  0
  6  7  1  0  0  0  0
  7  8  2  0  0  0  0
  9  7  2  0  0  0  0
 10  6  2  0  0  0  0
 11  1  2  0  0  0  0
 11 10  1  0  0  0  0
 14 10  1  0  0  0  0
 15 11  1  0  0  0  0
 16 19  1  0  0  0  0
 16 20  1  0  0  0  0
 17 16  1  0  0  0  0
 18 12  1  0  0  0  0
M  RAD  3   2   2   3   3   4   2
M  END
