Coordinates from ORCA-job 4-NO2PhN2+~BF4-_B3LYPG-6-31G_dp-CH-Scan-d09-49-n800
 OpenBabel11261918593D

 20 18  0  0  0  0  0  0  0  0999 V2000
   -1.8010   -0.0751   -0.0080 C   0  0  0  0  0  0  0  0  0  0  0  0
   -3.1919   -0.2551   -0.0480 N   0  0  0  0  0  0  0  0  0  0  0  0
   -4.3048   -0.3303   -0.0834 N   0  0  0  0  0  0  0  0  0  0  0  0
   -1.4283    1.2710   -0.0638 C   0  0  0  0  0  0  0  0  0  0  0  0
   -0.0066    1.3786   -0.0208 C   0  0  0  0  0  0  0  0  0  0  0  0
    0.8150    0.2645    0.0635 C   0  0  0  0  0  0  0  0  0  0  0  0
    2.2903    0.4511    0.1029 N   0  0  0  0  0  0  0  0  0  0  0  0
    2.7212    1.5989    0.0554 O   0  0  0  0  0  0  0  0  0  0  0  0
    2.9868   -0.5606    0.1787 O   0  0  0  0  0  0  0  0  0  0  0  0
    0.3400   -1.0638    0.1157 C   0  0  0  0  0  0  0  0  0  0  0  0
   -1.0209   -1.2590    0.0795 C   0  0  0  0  0  0  0  0  0  0  0  0
   -3.5391    3.8116   -0.2442 H   0  0  0  0  0  0  0  0  0  0  0  0
    0.4730    2.3526   -0.0541 H   0  0  0  0  0  0  0  0  0  0  0  0
    1.0421   -1.8837    0.1818 H   0  0  0  0  0  0  0  0  0  0  0  0
   -1.4608   -2.2514    0.1160 H   0  0  0  0  0  0  0  0  0  0  0  0
   -5.8174    2.6564   -0.1681 B   0  0  0  0  0  0  0  0  0  0  0  0
   -5.4908    2.0473   -1.3052 F   0  0  0  0  0  0  0  0  0  0  0  0
   -4.3823    4.1932   -0.3570 F   0  0  0  0  0  0  0  0  0  0  0  0
   -6.8531    3.4748   -0.1288 F   0  0  0  0  0  0  0  0  0  0  0  0
   -5.3025    2.1784    0.9643 F   0  0  0  0  0  0  0  0  0  0  0  0
  1 11  2  0  0  0  0
  2  1  1  0  0  0  0
  3  2  1  0  0  0  0
  4  5  2  0  0  0  0
  4  1  1  0  0  0  0
  5  6  1  0  0  0  0
  6  7  1  0  0  0  0
  6 10  2  0  0  0  0
  7  9  2  0  0  0  0
  8  7  2  0  0  0  0
 10 14  1  0  0  0  0
 11 10  1  0  0  0  0
 11 15  1  0  0  0  0
 13  5  1  0  0  0  0
 16 19  1  0  0  0  0
 16 20  1  0  0  0  0
 17 16  1  0  0  0  0
 18 12  1  0  0  0  0
M  RAD  3   2   2   3   3   4   2
M  END
