Coordinates from ORCA-job 4-NO2PhN2+~BF4-_B3LYPG-6-31G_dp-CH-Scan-d09-49-n800
 OpenBabel11261918593D

 20 18  0  0  0  0  0  0  0  0999 V2000
   -1.8034   -0.0765   -0.0089 C   0  0  0  0  0  0  0  0  0  0  0  0
   -3.1940   -0.2573   -0.0494 N   0  0  0  0  0  0  0  0  0  0  0  0
   -4.3070   -0.3322   -0.0852 N   0  0  0  0  0  0  0  0  0  0  0  0
   -1.4323    1.2702   -0.0658 C   0  0  0  0  0  0  0  0  0  0  0  0
   -0.0107    1.3794   -0.0222 C   0  0  0  0  0  0  0  0  0  0  0  0
    0.8122    0.2664    0.0635 C   0  0  0  0  0  0  0  0  0  0  0  0
    2.2872    0.4548    0.1036 N   0  0  0  0  0  0  0  0  0  0  0  0
    2.7167    1.6029    0.0540 O   0  0  0  0  0  0  0  0  0  0  0  0
    2.9849   -0.5562    0.1792 O   0  0  0  0  0  0  0  0  0  0  0  0
    0.3386   -1.0624    0.1166 C   0  0  0  0  0  0  0  0  0  0  0  0
   -1.0220   -1.2593    0.0798 C   0  0  0  0  0  0  0  0  0  0  0  0
   -3.5305    3.8018   -0.2459 H   0  0  0  0  0  0  0  0  0  0  0  0
    0.4678    2.3539   -0.0561 H   0  0  0  0  0  0  0  0  0  0  0  0
    1.0417   -1.8814    0.1838 H   0  0  0  0  0  0  0  0  0  0  0  0
   -1.4607   -2.2522    0.1169 H   0  0  0  0  0  0  0  0  0  0  0  0
   -5.8129    2.6571   -0.1673 B   0  0  0  0  0  0  0  0  0  0  0  0
   -5.4864    2.0481   -1.3047 F   0  0  0  0  0  0  0  0  0  0  0  0
   -4.3725    4.1880   -0.3523 F   0  0  0  0  0  0  0  0  0  0  0  0
   -6.8458    3.4788   -0.1288 F   0  0  0  0  0  0  0  0  0  0  0  0
   -5.3019    2.1755    0.9654 F   0  0  0  0  0  0  0  0  0  0  0  0
  1 11  2  0  0  0  0
  2  1  1  0  0  0  0
  3  2  1  0  0  0  0
  4  5  2  0  0  0  0
  4  1  1  0  0  0  0
  5  6  1  0  0  0  0
  6  7  1  0  0  0  0
  6 10  2  0  0  0  0
  7  9  2  0  0  0  0
  8  7  2  0  0  0  0
 10 14  1  0  0  0  0
 11 10  1  0  0  0  0
 11 15  1  0  0  0  0
 13  5  1  0  0  0  0
 16 19  1  0  0  0  0
 16 20  1  0  0  0  0
 17 16  1  0  0  0  0
 18 12  1  0  0  0  0
M  RAD  3   2   2   3   3   4   2
M  END
