Coordinates from ORCA-job 4-NO2PhN2+~BF4-_B3LYPG-6-31G_dp-CH-Scan-d09-49-n800
 OpenBabel11261918593D

 20 18  0  0  0  0  0  0  0  0999 V2000
   -1.8186   -0.0728   -0.0143 C   0  0  0  0  0  0  0  0  0  0  0  0
   -3.2076   -0.2611   -0.0539 N   0  0  0  0  0  0  0  0  0  0  0  0
   -4.3197   -0.3458   -0.0905 N   0  0  0  0  0  0  0  0  0  0  0  0
   -1.4503    1.2747   -0.0785 C   0  0  0  0  0  0  0  0  0  0  0  0
   -0.0297    1.3893   -0.0334 C   0  0  0  0  0  0  0  0  0  0  0  0
    0.7968    0.2795    0.0599 C   0  0  0  0  0  0  0  0  0  0  0  0
    2.2711    0.4734    0.1015 N   0  0  0  0  0  0  0  0  0  0  0  0
    2.6964    1.6230    0.0502 O   0  0  0  0  0  0  0  0  0  0  0  0
    2.9719   -0.5347    0.1849 O   0  0  0  0  0  0  0  0  0  0  0  0
    0.3276   -1.0503    0.1194 C   0  0  0  0  0  0  0  0  0  0  0  0
   -1.0324   -1.2518    0.0817 C   0  0  0  0  0  0  0  0  0  0  0  0
   -3.4768    3.7162   -0.2537 H   0  0  0  0  0  0  0  0  0  0  0  0
    0.4453    2.3653   -0.0722 H   0  0  0  0  0  0  0  0  0  0  0  0
    1.0331   -1.8667    0.1921 H   0  0  0  0  0  0  0  0  0  0  0  0
   -1.4676   -2.2461    0.1237 H   0  0  0  0  0  0  0  0  0  0  0  0
   -5.7875    2.6605   -0.1642 B   0  0  0  0  0  0  0  0  0  0  0  0
   -5.4564    2.0472   -1.2991 F   0  0  0  0  0  0  0  0  0  0  0  0
   -4.3073    4.1381   -0.3108 F   0  0  0  0  0  0  0  0  0  0  0  0
   -6.7985    3.5103   -0.1423 F   0  0  0  0  0  0  0  0  0  0  0  0
   -5.3206    2.1512    0.9757 F   0  0  0  0  0  0  0  0  0  0  0  0
  1 11  2  0  0  0  0
  2  1  1  0  0  0  0
  3  2  1  0  0  0  0
  4  5  2  0  0  0  0
  4  1  1  0  0  0  0
  5  6  1  0  0  0  0
  6  7  1  0  0  0  0
  6 10  2  0  0  0  0
  7  9  2  0  0  0  0
  8  7  2  0  0  0  0
 10 14  1  0  0  0  0
 11 10  1  0  0  0  0
 11 15  1  0  0  0  0
 13  5  1  0  0  0  0
 16 19  1  0  0  0  0
 16 20  1  0  0  0  0
 17 16  1  0  0  0  0
 18 12  1  0  0  0  0
M  RAD  3   2   2   3   3   4   2
M  END
