Coordinates from ORCA-job 4-NO2PhN2+~BF4-_B3LYPG-6-31G_dp-CH-Scan-d09-49-n800
 OpenBabel11261918593D

 20 18  0  0  0  0  0  0  0  0999 V2000
   -1.9945   -0.0332   -0.0352 C   0  0  0  0  0  0  0  0  0  0  0  0
   -3.3664   -0.2941   -0.0799 N   0  0  0  0  0  0  0  0  0  0  0  0
   -4.4670   -0.4630   -0.1183 N   0  0  0  0  0  0  0  0  0  0  0  0
   -1.6518    1.3244   -0.1033 C   0  0  0  0  0  0  0  0  0  0  0  0
   -0.2437    1.4947   -0.0511 C   0  0  0  0  0  0  0  0  0  0  0  0
    0.6207    0.4144    0.0531 C   0  0  0  0  0  0  0  0  0  0  0  0
    2.0865    0.6629    0.1030 N   0  0  0  0  0  0  0  0  0  0  0  0
    2.4664    1.8277    0.0531 O   0  0  0  0  0  0  0  0  0  0  0  0
    2.8208   -0.3197    0.1900 O   0  0  0  0  0  0  0  0  0  0  0  0
    0.1959   -0.9265    0.1157 C   0  0  0  0  0  0  0  0  0  0  0  0
   -1.1576   -1.1740    0.0711 C   0  0  0  0  0  0  0  0  0  0  0  0
   -3.0608    2.9445   -0.2425 H   0  0  0  0  0  0  0  0  0  0  0  0
    0.1921    2.4876   -0.0923 H   0  0  0  0  0  0  0  0  0  0  0  0
    0.9263   -1.7200    0.1964 H   0  0  0  0  0  0  0  0  0  0  0  0
   -1.5564   -2.1827    0.1153 H   0  0  0  0  0  0  0  0  0  0  0  0
   -5.3598    2.6854   -0.1401 B   0  0  0  0  0  0  0  0  0  0  0  0
   -5.2912    1.9372   -1.2610 F   0  0  0  0  0  0  0  0  0  0  0  0
   -3.7815    3.5861   -0.2949 F   0  0  0  0  0  0  0  0  0  0  0  0
   -6.1963    3.7210   -0.1153 F   0  0  0  0  0  0  0  0  0  0  0  0
   -5.1127    2.0267    1.0124 F   0  0  0  0  0  0  0  0  0  0  0  0
  1 11  2  0  0  0  0
  2  1  1  0  0  0  0
  3  2  1  0  0  0  0
  4  5  2  0  0  0  0
  4  1  1  0  0  0  0
  5  6  1  0  0  0  0
  6  7  1  0  0  0  0
  6 10  2  0  0  0  0
  7  9  2  0  0  0  0
  8  7  2  0  0  0  0
 10 14  1  0  0  0  0
 11 15  1  0  0  0  0
 11 10  1  0  0  0  0
 13  5  1  0  0  0  0
 16 19  1  0  0  0  0
 16 20  1  0  0  0  0
 17 16  1  0  0  0  0
 18 12  1  0  0  0  0
M  RAD  3   2   2   3   3   4   2
M  END
