Coordinates from ORCA-job 4-NO2PhN2+~BF4-_B3LYPG-6-31G_dp-CH-Scan-d09-49-n800
 OpenBabel11261918593D

 20 18  0  0  0  0  0  0  0  0999 V2000
   -1.6658   -0.0660    0.0355 C   0  0  0  0  0  0  0  0  0  0  0  0
   -3.0681   -0.1695    0.0019 N   0  0  0  0  0  0  0  0  0  0  0  0
   -4.1847   -0.1679   -0.0222 N   0  0  0  0  0  0  0  0  0  0  0  0
   -1.2424    1.2626    0.0705 C   0  0  0  0  0  0  0  0  0  0  0  0
    0.1847    1.3065    0.1062 C   0  0  0  0  0  0  0  0  0  0  0  0
    0.9573    0.1550    0.1038 C   0  0  0  0  0  0  0  0  0  0  0  0
    2.4394    0.2735    0.1428 N   0  0  0  0  0  0  0  0  0  0  0  0
    2.9212    1.4016    0.1774 O   0  0  0  0  0  0  0  0  0  0  0  0
    3.0924   -0.7700    0.1360 O   0  0  0  0  0  0  0  0  0  0  0  0
    0.4256   -1.1537    0.0660 C   0  0  0  0  0  0  0  0  0  0  0  0
   -0.9423   -1.2884    0.0301 C   0  0  0  0  0  0  0  0  0  0  0  0
   -4.2000    4.4132   -0.2642 H   0  0  0  0  0  0  0  0  0  0  0  0
    0.7059    2.2594    0.1365 H   0  0  0  0  0  0  0  0  0  0  0  0
    1.0931   -2.0046    0.0663 H   0  0  0  0  0  0  0  0  0  0  0  0
   -1.4252   -2.2611   -0.0003 H   0  0  0  0  0  0  0  0  0  0  0  0
   -5.9951    2.6556   -0.1760 B   0  0  0  0  0  0  0  0  0  0  0  0
   -5.8514    1.9839   -1.3082 F   0  0  0  0  0  0  0  0  0  0  0  0
   -4.9466    4.4333   -0.8198 F   0  0  0  0  0  0  0  0  0  0  0  0
   -7.1339    3.2635    0.1005 F   0  0  0  0  0  0  0  0  0  0  0  0
   -5.0950    2.4724    0.7935 F   0  0  0  0  0  0  0  0  0  0  0  0
  1  4  1  0  0  0  0
  2  1  1  0  0  0  0
  3  2  1  0  0  0  0
  4  5  2  0  0  0  0
  5 13  1  0  0  0  0
  6  5  1  0  0  0  0
  6  7  1  0  0  0  0
  7  8  2  0  0  0  0
  9  7  2  0  0  0  0
 10 14  1  0  0  0  0
 10  6  2  0  0  0  0
 11  1  2  0  0  0  0
 11 10  1  0  0  0  0
 15 11  1  0  0  0  0
 16 19  1  0  0  0  0
 16 20  1  0  0  0  0
 17 16  1  0  0  0  0
 18 12  1  0  0  0  0
M  RAD  3   2   2   3   3   4   2
M  END
