Coordinates from ORCA-job 4-NO2PhN2+~BF4-_B3LYPG-6-31G_dp-CH-Scan-d09-49-n800
 OpenBabel11261918593D

 20 18  0  0  0  0  0  0  0  0999 V2000
   -2.0854   -0.0055   -0.0361 C   0  0  0  0  0  0  0  0  0  0  0  0
   -3.4501   -0.2938   -0.0778 N   0  0  0  0  0  0  0  0  0  0  0  0
   -4.5445   -0.4907   -0.1151 N   0  0  0  0  0  0  0  0  0  0  0  0
   -1.7397    1.3527   -0.1011 C   0  0  0  0  0  0  0  0  0  0  0  0
   -0.3401    1.5440   -0.0531 C   0  0  0  0  0  0  0  0  0  0  0  0
    0.5361    0.4716    0.0466 C   0  0  0  0  0  0  0  0  0  0  0  0
    1.9987    0.7372    0.0932 N   0  0  0  0  0  0  0  0  0  0  0  0
    2.3626    1.9067    0.0457 O   0  0  0  0  0  0  0  0  0  0  0  0
    2.7427   -0.2376    0.1765 O   0  0  0  0  0  0  0  0  0  0  0  0
    0.1231   -0.8699    0.1070 C   0  0  0  0  0  0  0  0  0  0  0  0
   -1.2298   -1.1300    0.0653 C   0  0  0  0  0  0  0  0  0  0  0  0
   -2.8817    2.6492   -0.2081 H   0  0  0  0  0  0  0  0  0  0  0  0
    0.0798    2.5432   -0.0933 H   0  0  0  0  0  0  0  0  0  0  0  0
    0.8596   -1.6583    0.1841 H   0  0  0  0  0  0  0  0  0  0  0  0
   -1.6173   -2.1427    0.1083 H   0  0  0  0  0  0  0  0  0  0  0  0
   -5.0959    2.6750   -0.1417 B   0  0  0  0  0  0  0  0  0  0  0  0
   -5.1198    1.8732   -1.2516 F   0  0  0  0  0  0  0  0  0  0  0  0
   -3.6135    3.3895   -0.2638 F   0  0  0  0  0  0  0  0  0  0  0  0
   -5.9398    3.7193   -0.1318 F   0  0  0  0  0  0  0  0  0  0  0  0
   -4.9761    1.9663    1.0232 F   0  0  0  0  0  0  0  0  0  0  0  0
  1 11  2  0  0  0  0
  2  1  1  0  0  0  0
  3  2  1  0  0  0  0
  4  5  2  0  0  0  0
  4  1  1  0  0  0  0
  5  6  1  0  0  0  0
  6  7  1  0  0  0  0
  6 10  2  0  0  0  0
  7  9  2  0  0  0  0
  8  7  2  0  0  0  0
 10 14  1  0  0  0  0
 11 10  1  0  0  0  0
 11 15  1  0  0  0  0
 13  5  1  0  0  0  0
 16 19  1  0  0  0  0
 16 20  1  0  0  0  0
 17 16  1  0  0  0  0
 18 12  1  0  0  0  0
M  RAD  3   2   2   3   3   4   2
M  END
