Coordinates from ORCA-job 4-NO2PhN2+~BF4-_B3LYPG-6-31G_dp-CH-Scan-d09-49-n800
 OpenBabel11261918593D

 20 18  0  0  0  0  0  0  0  0999 V2000
   -2.1468    0.0410   -0.1797 C   0  0  0  0  0  0  0  0  0  0  0  0
   -3.5006   -0.2448   -0.3347 N   0  0  0  0  0  0  0  0  0  0  0  0
   -4.5796   -0.4629   -0.4919 N   0  0  0  0  0  0  0  0  0  0  0  0
   -1.7447    1.3774   -0.3154 C   0  0  0  0  0  0  0  0  0  0  0  0
   -0.3662    1.5861   -0.1763 C   0  0  0  0  0  0  0  0  0  0  0  0
    0.4832    0.5155    0.0796 C   0  0  0  0  0  0  0  0  0  0  0  0
    1.9398    0.7760    0.2247 N   0  0  0  0  0  0  0  0  0  0  0  0
    2.3185    1.9343    0.0973 O   0  0  0  0  0  0  0  0  0  0  0  0
    2.6583   -0.1915    0.4612 O   0  0  0  0  0  0  0  0  0  0  0  0
    0.0445   -0.8082    0.2121 C   0  0  0  0  0  0  0  0  0  0  0  0
   -1.3069   -1.0640    0.0777 C   0  0  0  0  0  0  0  0  0  0  0  0
   -2.7014    2.4160   -0.5116 H   0  0  0  0  0  0  0  0  0  0  0  0
    0.0547    2.5811   -0.2601 H   0  0  0  0  0  0  0  0  0  0  0  0
    0.7596   -1.5945    0.4139 H   0  0  0  0  0  0  0  0  0  0  0  0
   -1.7062   -2.0683    0.1684 H   0  0  0  0  0  0  0  0  0  0  0  0
   -4.8972    2.6392    0.0146 B   0  0  0  0  0  0  0  0  0  0  0  0
   -5.4407    1.8156   -0.9741 F   0  0  0  0  0  0  0  0  0  0  0  0
   -3.6788    3.2684   -0.6079 F   0  0  0  0  0  0  0  0  0  0  0  0
   -5.7234    3.6338    0.4229 F   0  0  0  0  0  0  0  0  0  0  0  0
   -4.3971    1.8491    1.0556 F   0  0  0  0  0  0  0  0  0  0  0  0
  1 11  1  0  0  0  0
  2  1  1  0  0  0  0
  3  2  1  0  0  0  0
  4  1  2  0  0  0  0
  4  5  1  0  0  0  0
  5  6  2  0  0  0  0
  6 10  1  0  0  0  0
  6  7  1  0  0  0  0
  7  9  2  0  0  0  0
  8  7  2  0  0  0  0
 10 14  1  0  0  0  0
 11 15  1  0  0  0  0
 11 10  2  0  0  0  0
 13  5  1  0  0  0  0
 16 19  1  0  0  0  0
 16 20  1  0  0  0  0
 17 16  1  0  0  0  0
 18 12  1  0  0  0  0
M  RAD  3   2   2   3   3   4   2
M  END
