Coordinates from ORCA-job 4-NO2PhN2+~BF4-_B3LYPG-6-31G_dp-CH-Scan-d09-49-n800
 OpenBabel11261918593D

 20 18  0  0  0  0  0  0  0  0999 V2000
   -1.9780   -0.0357   -0.0330 C   0  0  0  0  0  0  0  0  0  0  0  0
   -3.3513   -0.2906   -0.0781 N   0  0  0  0  0  0  0  0  0  0  0  0
   -4.4527   -0.4552   -0.1173 N   0  0  0  0  0  0  0  0  0  0  0  0
   -1.6330    1.3212   -0.1017 C   0  0  0  0  0  0  0  0  0  0  0  0
   -0.2234    1.4858   -0.0504 C   0  0  0  0  0  0  0  0  0  0  0  0
    0.6373    0.4026    0.0534 C   0  0  0  0  0  0  0  0  0  0  0  0
    2.1041    0.6457    0.1017 N   0  0  0  0  0  0  0  0  0  0  0  0
    2.4886    1.8090    0.0503 O   0  0  0  0  0  0  0  0  0  0  0  0
    2.8351   -0.3394    0.1903 O   0  0  0  0  0  0  0  0  0  0  0  0
    0.2082   -0.9372    0.1172 C   0  0  0  0  0  0  0  0  0  0  0  0
   -1.1458   -1.1804    0.0735 C   0  0  0  0  0  0  0  0  0  0  0  0
   -3.0947    3.0082   -0.2434 H   0  0  0  0  0  0  0  0  0  0  0  0
    0.2165    2.4770   -0.0923 H   0  0  0  0  0  0  0  0  0  0  0  0
    0.9363   -1.7328    0.1979 H   0  0  0  0  0  0  0  0  0  0  0  0
   -1.5481   -2.1878    0.1185 H   0  0  0  0  0  0  0  0  0  0  0  0
   -5.4060    2.6844   -0.1421 B   0  0  0  0  0  0  0  0  0  0  0  0
   -5.3105    1.9483   -1.2660 F   0  0  0  0  0  0  0  0  0  0  0  0
   -3.8221    3.6324   -0.2934 F   0  0  0  0  0  0  0  0  0  0  0  0
   -6.2529    3.7095   -0.1169 F   0  0  0  0  0  0  0  0  0  0  0  0
   -5.1385    2.0345    1.0080 F   0  0  0  0  0  0  0  0  0  0  0  0
  1 11  2  0  0  0  0
  2  1  1  0  0  0  0
  3  2  1  0  0  0  0
  4  5  2  0  0  0  0
  4  1  1  0  0  0  0
  5  6  1  0  0  0  0
  6  7  1  0  0  0  0
  6 10  2  0  0  0  0
  7  9  2  0  0  0  0
  8  7  2  0  0  0  0
 10 14  1  0  0  0  0
 11 10  1  0  0  0  0
 11 15  1  0  0  0  0
 13  5  1  0  0  0  0
 16 19  1  0  0  0  0
 16 20  1  0  0  0  0
 17 16  1  0  0  0  0
 18 12  1  0  0  0  0
M  RAD  3   2   2   3   3   4   2
M  END
