Coordinates from ORCA-job 4-NO2PhN2+~BF4-_B3LYPG-6-31G_dp-CH-Scan-d09-49-n800
 OpenBabel11261918593D

 20 18  0  0  0  0  0  0  0  0999 V2000
   -1.7264   -0.0810    0.0107 C   0  0  0  0  0  0  0  0  0  0  0  0
   -3.1241   -0.2213   -0.0319 N   0  0  0  0  0  0  0  0  0  0  0  0
   -4.2398   -0.2512   -0.0645 N   0  0  0  0  0  0  0  0  0  0  0  0
   -1.3330    1.2584    0.0142 C   0  0  0  0  0  0  0  0  0  0  0  0
    0.0921    1.3360    0.0592 C   0  0  0  0  0  0  0  0  0  0  0  0
    0.8916    0.2033    0.0921 C   0  0  0  0  0  0  0  0  0  0  0  0
    2.3702    0.3581    0.1380 N   0  0  0  0  0  0  0  0  0  0  0  0
    2.8249    1.4979    0.1420 O   0  0  0  0  0  0  0  0  0  0  0  0
    3.0471   -0.6694    0.1696 O   0  0  0  0  0  0  0  0  0  0  0  0
    0.3909   -1.1175    0.0853 C   0  0  0  0  0  0  0  0  0  0  0  0
   -0.9734   -1.2849    0.0429 C   0  0  0  0  0  0  0  0  0  0  0  0
   -3.8941    4.1860   -0.2512 H   0  0  0  0  0  0  0  0  0  0  0  0
    0.5911    2.3011    0.0685 H   0  0  0  0  0  0  0  0  0  0  0  0
    1.0776   -1.9525    0.1131 H   0  0  0  0  0  0  0  0  0  0  0  0
   -1.4332   -2.2691    0.0352 H   0  0  0  0  0  0  0  0  0  0  0  0
   -5.9167    2.6557   -0.1607 B   0  0  0  0  0  0  0  0  0  0  0  0
   -5.7659    2.0006   -1.3037 F   0  0  0  0  0  0  0  0  0  0  0  0
   -4.6950    4.3362   -0.7016 F   0  0  0  0  0  0  0  0  0  0  0  0
   -7.0104    3.3600    0.0645 F   0  0  0  0  0  0  0  0  0  0  0  0
   -5.1044    2.3530    0.8543 F   0  0  0  0  0  0  0  0  0  0  0  0
  1  4  2  0  0  0  0
  1 11  1  0  0  0  0
  2  1  1  0  0  0  0
  3  2  1  0  0  0  0
  4  5  1  0  0  0  0
  5 13  1  0  0  0  0
  5  6  2  0  0  0  0
  6  7  1  0  0  0  0
  7  8  2  0  0  0  0
  7  9  2  0  0  0  0
 10  6  1  0  0  0  0
 10 14  1  0  0  0  0
 11 10  2  0  0  0  0
 15 11  1  0  0  0  0
 16 19  1  0  0  0  0
 16 20  1  0  0  0  0
 17 16  1  0  0  0  0
 18 12  1  0  0  0  0
M  RAD  3   2   2   3   3   4   2
M  END
