Coordinates from ORCA-job 4-NO2PhN2+~BF4-_B3LYPG-6-31G_dp-CH-Scan-d09-49-n800
 OpenBabel11261918593D

 20 18  0  0  0  0  0  0  0  0999 V2000
   -1.5694   -0.0224    0.0562 C   0  0  0  0  0  0  0  0  0  0  0  0
   -2.9757   -0.0595    0.0308 N   0  0  0  0  0  0  0  0  0  0  0  0
   -4.0912   -0.0011    0.0150 N   0  0  0  0  0  0  0  0  0  0  0  0
   -1.0894    1.2859    0.1005 C   0  0  0  0  0  0  0  0  0  0  0  0
    0.3386    1.2686    0.1270 C   0  0  0  0  0  0  0  0  0  0  0  0
    1.0600    0.0845    0.1106 C   0  0  0  0  0  0  0  0  0  0  0  0
    2.5460    0.1379    0.1421 N   0  0  0  0  0  0  0  0  0  0  0  0
    3.0767    1.2432    0.1927 O   0  0  0  0  0  0  0  0  0  0  0  0
    3.1531   -0.9327    0.1157 O   0  0  0  0  0  0  0  0  0  0  0  0
    0.4718   -1.1998    0.0643 C   0  0  0  0  0  0  0  0  0  0  0  0
   -0.9009   -1.2753    0.0351 C   0  0  0  0  0  0  0  0  0  0  0  0
   -4.6006    4.6267   -0.2595 H   0  0  0  0  0  0  0  0  0  0  0  0
    0.9005    2.1980    0.1615 H   0  0  0  0  0  0  0  0  0  0  0  0
    1.1021   -2.0786    0.0528 H   0  0  0  0  0  0  0  0  0  0  0  0
   -1.4259   -2.2258   -0.0018 H   0  0  0  0  0  0  0  0  0  0  0  0
   -6.1370    2.6573   -0.2090 B   0  0  0  0  0  0  0  0  0  0  0  0
   -5.9195    2.0197   -1.3480 F   0  0  0  0  0  0  0  0  0  0  0  0
   -5.3226    4.5690   -0.8441 F   0  0  0  0  0  0  0  0  0  0  0  0
   -7.3420    3.1069    0.0875 F   0  0  0  0  0  0  0  0  0  0  0  0
   -5.2057    2.5968    0.7470 F   0  0  0  0  0  0  0  0  0  0  0  0
  1  4  1  0  0  0  0
  2  1  1  0  0  0  0
  3  2  1  0  0  0  0
  4  5  2  0  0  0  0
  5 13  1  0  0  0  0
  6  5  1  0  0  0  0
  6  7  1  0  0  0  0
  7  8  2  0  0  0  0
  9  7  2  0  0  0  0
 10  6  2  0  0  0  0
 11  1  2  0  0  0  0
 11 10  1  0  0  0  0
 14 10  1  0  0  0  0
 15 11  1  0  0  0  0
 16 19  1  0  0  0  0
 16 20  1  0  0  0  0
 17 16  1  0  0  0  0
 18 12  1  0  0  0  0
M  RAD  3   2   2   3   3   4   2
M  END
