Coordinates from ORCA-job 4-NO2PhN2+~BF4-_B3LYPG-6-31G_dp-CH-Scan-d09-49-n800
 OpenBabel11261918593D

 20 19  0  0  0  0  0  0  0  0999 V2000
   -2.1568    0.0913   -0.2523 C   0  0  0  0  0  0  0  0  0  0  0  0
   -3.5078   -0.1678   -0.4635 N   0  0  0  0  0  0  0  0  0  0  0  0
   -4.5764   -0.3936   -0.6788 N   0  0  0  0  0  0  0  0  0  0  0  0
   -1.7003    1.4068   -0.4087 C   0  0  0  0  0  0  0  0  0  0  0  0
   -0.3339    1.6106   -0.2255 C   0  0  0  0  0  0  0  0  0  0  0  0
    0.4803    0.5302    0.1032 C   0  0  0  0  0  0  0  0  0  0  0  0
    1.9337    0.7688    0.3021 N   0  0  0  0  0  0  0  0  0  0  0  0
    2.3378    1.9156    0.1528 O   0  0  0  0  0  0  0  0  0  0  0  0
    2.6214   -0.2033    0.6001 O   0  0  0  0  0  0  0  0  0  0  0  0
    0.0062   -0.7754    0.2588 C   0  0  0  0  0  0  0  0  0  0  0  0
   -1.3459   -1.0118    0.0728 C   0  0  0  0  0  0  0  0  0  0  0  0
   -2.5418    2.3299   -0.6670 H   0  0  0  0  0  0  0  0  0  0  0  0
    0.1024    2.5966   -0.3259 H   0  0  0  0  0  0  0  0  0  0  0  0
    0.6943   -1.5693    0.5175 H   0  0  0  0  0  0  0  0  0  0  0  0
   -1.7670   -2.0052    0.1794 H   0  0  0  0  0  0  0  0  0  0  0  0
   -4.8705    2.5973    0.0666 B   0  0  0  0  0  0  0  0  0  0  0  0
   -5.6643    1.7038   -0.6897 F   0  0  0  0  0  0  0  0  0  0  0  0
   -3.8970    3.1720   -0.8357 F   0  0  0  0  0  0  0  0  0  0  0  0
   -5.6099    3.5739    0.6637 F   0  0  0  0  0  0  0  0  0  0  0  0
   -4.1357    1.8290    1.0063 F   0  0  0  0  0  0  0  0  0  0  0  0
  1 11  1  0  0  0  0
  2  1  1  0  0  0  0
  3  2  1  0  0  0  0
  4  1  2  0  0  0  0
  4  5  1  0  0  0  0
  5  6  2  0  0  0  0
  6 10  1  0  0  0  0
  6  7  1  0  0  0  0
  7  9  2  0  0  0  0
  8  7  2  0  0  0  0
 10 14  1  0  0  0  0
 11 15  1  0  0  0  0
 11 10  2  0  0  0  0
 12  4  1  0  0  0  0
 13  5  1  0  0  0  0
 16 19  1  0  0  0  0
 16 20  1  0  0  0  0
 17 16  1  0  0  0  0
 18 16  1  0  0  0  0
M  RAD  2   2   2   3   3
M  END
