Coordinates from ORCA-job 4-NO2PhN2+~BF4-_B3LYPG-6-31G_dp-CH-Scan-d09-49-n800
 OpenBabel11261918593D

 20 18  0  0  0  0  0  0  0  0999 V2000
   -2.1431    0.0355   -0.1686 C   0  0  0  0  0  0  0  0  0  0  0  0
   -3.4978   -0.2521   -0.3146 N   0  0  0  0  0  0  0  0  0  0  0  0
   -4.5786   -0.4684   -0.4617 N   0  0  0  0  0  0  0  0  0  0  0  0
   -1.7482    1.3748   -0.2985 C   0  0  0  0  0  0  0  0  0  0  0  0
   -0.3677    1.5827   -0.1662 C   0  0  0  0  0  0  0  0  0  0  0  0
    0.4858    0.5126    0.0765 C   0  0  0  0  0  0  0  0  0  0  0  0
    1.9429    0.7751    0.2133 N   0  0  0  0  0  0  0  0  0  0  0  0
    2.3188    1.9350    0.0917 O   0  0  0  0  0  0  0  0  0  0  0  0
    2.6653   -0.1926    0.4379 O   0  0  0  0  0  0  0  0  0  0  0  0
    0.0511   -0.8134    0.2030 C   0  0  0  0  0  0  0  0  0  0  0  0
   -1.3002   -1.0708    0.0762 C   0  0  0  0  0  0  0  0  0  0  0  0
   -2.7181    2.4306   -0.4850 H   0  0  0  0  0  0  0  0  0  0  0  0
    0.0520    2.5786   -0.2461 H   0  0  0  0  0  0  0  0  0  0  0  0
    0.7693   -1.5994    0.3946 H   0  0  0  0  0  0  0  0  0  0  0  0
   -1.6973   -2.0764    0.1629 H   0  0  0  0  0  0  0  0  0  0  0  0
   -4.9093    2.6436    0.0046 B   0  0  0  0  0  0  0  0  0  0  0  0
   -5.4112    1.8256   -1.0065 F   0  0  0  0  0  0  0  0  0  0  0  0
   -3.6575    3.2745   -0.5758 F   0  0  0  0  0  0  0  0  0  0  0  0
   -5.7409    3.6464    0.3769 F   0  0  0  0  0  0  0  0  0  0  0  0
   -4.4462    1.8573    1.0614 F   0  0  0  0  0  0  0  0  0  0  0  0
  1 11  1  0  0  0  0
  2  1  1  0  0  0  0
  3  2  1  0  0  0  0
  4  1  2  0  0  0  0
  4  5  1  0  0  0  0
  5  6  2  0  0  0  0
  6 10  1  0  0  0  0
  6  7  1  0  0  0  0
  7  9  2  0  0  0  0
  8  7  2  0  0  0  0
 10 14  1  0  0  0  0
 11 15  1  0  0  0  0
 11 10  2  0  0  0  0
 13  5  1  0  0  0  0
 16 19  1  0  0  0  0
 16 20  1  0  0  0  0
 17 16  1  0  0  0  0
 18 12  1  0  0  0  0
M  RAD  3   2   2   3   3   4   2
M  END
