Coordinates from ORCA-job 4-NO2PhN2+~BF4-_B3LYPG-6-31G_dp-CH-Scan-d09-49-n800
 OpenBabel11261918593D

 20 18  0  0  0  0  0  0  0  0999 V2000
   -2.0042   -0.0281   -0.0325 C   0  0  0  0  0  0  0  0  0  0  0  0
   -3.3758   -0.2902   -0.0755 N   0  0  0  0  0  0  0  0  0  0  0  0
   -4.4761   -0.4599   -0.1128 N   0  0  0  0  0  0  0  0  0  0  0  0
   -1.6611    1.3296   -0.0999 C   0  0  0  0  0  0  0  0  0  0  0  0
   -0.2534    1.5008   -0.0489 C   0  0  0  0  0  0  0  0  0  0  0  0
    0.6116    0.4207    0.0537 C   0  0  0  0  0  0  0  0  0  0  0  0
    2.0773    0.6701    0.1026 N   0  0  0  0  0  0  0  0  0  0  0  0
    2.4566    1.8348    0.0467 O   0  0  0  0  0  0  0  0  0  0  0  0
    2.8123   -0.3126    0.1810 O   0  0  0  0  0  0  0  0  0  0  0  0
    0.1873   -0.9201    0.1156 C   0  0  0  0  0  0  0  0  0  0  0  0
   -1.1662   -1.1681    0.0721 C   0  0  0  0  0  0  0  0  0  0  0  0
   -3.0413    2.9152   -0.2339 H   0  0  0  0  0  0  0  0  0  0  0  0
    0.1816    2.4941   -0.0898 H   0  0  0  0  0  0  0  0  0  0  0  0
    0.9181   -1.7135    0.1949 H   0  0  0  0  0  0  0  0  0  0  0  0
   -1.5645   -2.1769    0.1160 H   0  0  0  0  0  0  0  0  0  0  0  0
   -5.3337    2.6794   -0.1449 B   0  0  0  0  0  0  0  0  0  0  0  0
   -5.2677    1.9313   -1.2675 F   0  0  0  0  0  0  0  0  0  0  0  0
   -3.7606    3.5640   -0.2868 F   0  0  0  0  0  0  0  0  0  0  0  0
   -6.1694    3.7167   -0.1209 F   0  0  0  0  0  0  0  0  0  0  0  0
   -5.1017    2.0121    1.0071 F   0  0  0  0  0  0  0  0  0  0  0  0
  1 11  2  0  0  0  0
  2  1  1  0  0  0  0
  3  2  1  0  0  0  0
  4  5  2  0  0  0  0
  4  1  1  0  0  0  0
  5  6  1  0  0  0  0
  6  7  1  0  0  0  0
  6 10  2  0  0  0  0
  7  9  2  0  0  0  0
  8  7  2  0  0  0  0
 10 14  1  0  0  0  0
 11 10  1  0  0  0  0
 11 15  1  0  0  0  0
 13  5  1  0  0  0  0
 16 19  1  0  0  0  0
 16 20  1  0  0  0  0
 17 16  1  0  0  0  0
 18 12  1  0  0  0  0
M  RAD  3   2   2   3   3   4   2
M  END
