Coordinates from ORCA-job 4-NO2PhN2+~BF4-_B3LYPG-6-31G_dp-CH-Scan-d09-49-n800
 OpenBabel11261918593D

 20 18  0  0  0  0  0  0  0  0999 V2000
   -1.9062   -0.0527   -0.0034 C   0  0  0  0  0  0  0  0  0  0  0  0
   -3.2869   -0.2792   -0.0320 N   0  0  0  0  0  0  0  0  0  0  0  0
   -4.3938   -0.4117   -0.0578 N   0  0  0  0  0  0  0  0  0  0  0  0
   -1.5531    1.3009   -0.0653 C   0  0  0  0  0  0  0  0  0  0  0  0
   -0.1375    1.4432   -0.0326 C   0  0  0  0  0  0  0  0  0  0  0  0
    0.7097    0.3479    0.0496 C   0  0  0  0  0  0  0  0  0  0  0  0
    2.1805    0.5694    0.0788 N   0  0  0  0  0  0  0  0  0  0  0  0
    2.5824    1.7272    0.0293 O   0  0  0  0  0  0  0  0  0  0  0  0
    2.8995   -0.4262    0.1507 O   0  0  0  0  0  0  0  0  0  0  0  0
    0.2642   -0.9885    0.1085 C   0  0  0  0  0  0  0  0  0  0  0  0
   -1.0927   -1.2136    0.0819 C   0  0  0  0  0  0  0  0  0  0  0  0
   -3.2479    3.3168   -0.2013 H   0  0  0  0  0  0  0  0  0  0  0  0
    0.3177    2.4280   -0.0723 H   0  0  0  0  0  0  0  0  0  0  0  0
    0.9837   -1.7934    0.1723 H   0  0  0  0  0  0  0  0  0  0  0  0
   -1.5087   -2.2158    0.1241 H   0  0  0  0  0  0  0  0  0  0  0  0
   -5.5979    2.6749   -0.1834 B   0  0  0  0  0  0  0  0  0  0  0  0
   -5.3168    1.9963   -1.3021 F   0  0  0  0  0  0  0  0  0  0  0  0
   -4.0147    3.8626   -0.2347 F   0  0  0  0  0  0  0  0  0  0  0  0
   -6.5095    3.6351   -0.2121 F   0  0  0  0  0  0  0  0  0  0  0  0
   -5.3030    2.0780    0.9780 F   0  0  0  0  0  0  0  0  0  0  0  0
  1 11  2  0  0  0  0
  2  1  1  0  0  0  0
  3  2  1  0  0  0  0
  4  5  2  0  0  0  0
  4  1  1  0  0  0  0
  5  6  1  0  0  0  0
  6  7  1  0  0  0  0
  6 10  2  0  0  0  0
  7  9  2  0  0  0  0
  8  7  2  0  0  0  0
 10 14  1  0  0  0  0
 11 10  1  0  0  0  0
 11 15  1  0  0  0  0
 13  5  1  0  0  0  0
 16 20  1  0  0  0  0
 17 16  1  0  0  0  0
 18 12  1  0  0  0  0
 19 16  1  0  0  0  0
M  RAD  3   2   2   3   3   4   2
M  END
