Coordinates from ORCA-job 4-NO2PhN2+~BF4-_B3LYPG-6-31G_dp-CH-Scan-d09-49-n800
 OpenBabel11261918593D

 20 18  0  0  0  0  0  0  0  0999 V2000
   -1.7864   -0.0813    0.0211 C   0  0  0  0  0  0  0  0  0  0  0  0
   -3.1792   -0.2540   -0.0079 N   0  0  0  0  0  0  0  0  0  0  0  0
   -4.2934   -0.3189   -0.0288 N   0  0  0  0  0  0  0  0  0  0  0  0
   -1.4136    1.2653    0.0140 C   0  0  0  0  0  0  0  0  0  0  0  0
    0.0094    1.3681    0.0458 C   0  0  0  0  0  0  0  0  0  0  0  0
    0.8295    0.2502    0.0772 C   0  0  0  0  0  0  0  0  0  0  0  0
    2.3055    0.4322    0.1087 N   0  0  0  0  0  0  0  0  0  0  0  0
    2.7387    1.5801    0.1055 O   0  0  0  0  0  0  0  0  0  0  0  0
    3.0007   -0.5829    0.1363 O   0  0  0  0  0  0  0  0  0  0  0  0
    0.3522   -1.0787    0.0814 C   0  0  0  0  0  0  0  0  0  0  0  0
   -1.0093   -1.2700    0.0527 C   0  0  0  0  0  0  0  0  0  0  0  0
   -3.6334    3.9318   -0.2312 H   0  0  0  0  0  0  0  0  0  0  0  0
    0.4911    2.3418    0.0458 H   0  0  0  0  0  0  0  0  0  0  0  0
    1.0534   -1.9016    0.1067 H   0  0  0  0  0  0  0  0  0  0  0  0
   -1.4512   -2.2623    0.0541 H   0  0  0  0  0  0  0  0  0  0  0  0
   -5.8301    2.6548   -0.1776 B   0  0  0  0  0  0  0  0  0  0  0  0
   -5.6078    1.9940   -1.3084 F   0  0  0  0  0  0  0  0  0  0  0  0
   -4.4516    4.2216   -0.5700 F   0  0  0  0  0  0  0  0  0  0  0  0
   -6.8821    3.4448   -0.0656 F   0  0  0  0  0  0  0  0  0  0  0  0
   -5.1734    2.2645    0.9163 F   0  0  0  0  0  0  0  0  0  0  0  0
  1 11  1  0  0  0  0
  2  1  1  0  0  0  0
  3  2  1  0  0  0  0
  4  1  2  0  0  0  0
  4  5  1  0  0  0  0
  5 13  1  0  0  0  0
  5  6  2  0  0  0  0
  6 10  1  0  0  0  0
  6  7  1  0  0  0  0
  7  9  2  0  0  0  0
  8  7  2  0  0  0  0
 10 14  1  0  0  0  0
 11 15  1  0  0  0  0
 11 10  2  0  0  0  0
 16 19  1  0  0  0  0
 16 20  1  0  0  0  0
 17 16  1  0  0  0  0
 18 12  1  0  0  0  0
M  RAD  3   2   2   3   3   4   2
M  END
