Coordinates from ORCA-job 4-NO2PhN2+~BF4-_B3LYPG-6-31G_dp-CH-Scan-d09-49-n800
 OpenBabel11261918593D

 20 19  0  0  0  0  0  0  0  0999 V2000
   -2.3075    0.1160   -0.4241 C   0  0  0  0  0  0  0  0  0  0  0  0
   -3.6321   -0.2162   -0.6908 N   0  0  0  0  0  0  0  0  0  0  0  0
   -4.6324   -0.6287   -0.9364 N   0  0  0  0  0  0  0  0  0  0  0  0
   -1.8125    1.3598   -0.8372 C   0  0  0  0  0  0  0  0  0  0  0  0
   -0.4618    1.6032   -0.6003 C   0  0  0  0  0  0  0  0  0  0  0  0
    0.3065    0.6314    0.0299 C   0  0  0  0  0  0  0  0  0  0  0  0
    1.7446    0.9096    0.2719 N   0  0  0  0  0  0  0  0  0  0  0  0
    2.1811    1.9828   -0.1266 O   0  0  0  0  0  0  0  0  0  0  0  0
    2.3897    0.0393    0.8488 O   0  0  0  0  0  0  0  0  0  0  0  0
   -0.2042   -0.5994    0.4501 C   0  0  0  0  0  0  0  0  0  0  0  0
   -1.5415   -0.8735    0.2180 C   0  0  0  0  0  0  0  0  0  0  0  0
   -2.4031    2.0108   -1.2478 H   0  0  0  0  0  0  0  0  0  0  0  0
   -0.0122    2.5454   -0.8862 H   0  0  0  0  0  0  0  0  0  0  0  0
    0.4452   -1.3113    0.9426 H   0  0  0  0  0  0  0  0  0  0  0  0
   -1.9889   -1.8109    0.5265 H   0  0  0  0  0  0  0  0  0  0  0  0
   -4.4236    2.4850    0.3938 B   0  0  0  0  0  0  0  0  0  0  0  0
   -4.4888    2.1039   -0.9996 F   0  0  0  0  0  0  0  0  0  0  0  0
   -3.2084    3.1635    0.5768 F   0  0  0  0  0  0  0  0  0  0  0  0
   -5.5144    3.2300    0.7444 F   0  0  0  0  0  0  0  0  0  0  0  0
   -4.3667    1.2583    1.1224 F   0  0  0  0  0  0  0  0  0  0  0  0
  1 11  2  0  0  0  0
  2  1  1  0  0  0  0
  3  2  1  0  0  0  0
  4  5  2  0  0  0  0
  4  1  1  0  0  0  0
  5  6  1  0  0  0  0
  6  7  1  0  0  0  0
  6 10  2  0  0  0  0
  7  9  2  0  0  0  0
  8  7  2  0  0  0  0
 10 14  1  0  0  0  0
 11 10  1  0  0  0  0
 11 15  1  0  0  0  0
 12  4  1  0  0  0  0
 13  5  1  0  0  0  0
 16 18  1  0  0  0  0
 16 19  1  0  0  0  0
 16 20  1  0  0  0  0
 17 16  1  0  0  0  0
M  RAD  2   2   2   3   3
M  END
