Coordinates from ORCA-job 4-NO2PhN2+~BF4-_B3LYPG-6-31G_dp-CH-Scan-d09-49-n800
 OpenBabel11261918593D

 20 18  0  0  0  0  0  0  0  0999 V2000
   -1.8067   -0.0764   -0.0112 C   0  0  0  0  0  0  0  0  0  0  0  0
   -3.1968   -0.2587   -0.0523 N   0  0  0  0  0  0  0  0  0  0  0  0
   -4.3096   -0.3355   -0.0876 N   0  0  0  0  0  0  0  0  0  0  0  0
   -1.4366    1.2707   -0.0701 C   0  0  0  0  0  0  0  0  0  0  0  0
   -0.0152    1.3814   -0.0258 C   0  0  0  0  0  0  0  0  0  0  0  0
    0.8086    0.2692    0.0625 C   0  0  0  0  0  0  0  0  0  0  0  0
    2.2835    0.4591    0.1034 N   0  0  0  0  0  0  0  0  0  0  0  0
    2.7118    1.6077    0.0545 O   0  0  0  0  0  0  0  0  0  0  0  0
    2.9819   -0.5509    0.1832 O   0  0  0  0  0  0  0  0  0  0  0  0
    0.3363   -1.0600    0.1175 C   0  0  0  0  0  0  0  0  0  0  0  0
   -1.0241   -1.2582    0.0801 C   0  0  0  0  0  0  0  0  0  0  0  0
   -3.5183    3.7833   -0.2510 H   0  0  0  0  0  0  0  0  0  0  0  0
    0.4624    2.3563   -0.0612 H   0  0  0  0  0  0  0  0  0  0  0  0
    1.0401   -1.8781    0.1866 H   0  0  0  0  0  0  0  0  0  0  0  0
   -1.4619   -2.2514    0.1186 H   0  0  0  0  0  0  0  0  0  0  0  0
   -5.8073    2.6581   -0.1652 B   0  0  0  0  0  0  0  0  0  0  0  0
   -5.4806    2.0490   -1.3028 F   0  0  0  0  0  0  0  0  0  0  0  0
   -4.3582    4.1781   -0.3426 F   0  0  0  0  0  0  0  0  0  0  0  0
   -6.8357    3.4858   -0.1290 F   0  0  0  0  0  0  0  0  0  0  0  0
   -5.3047    2.1699    0.9685 F   0  0  0  0  0  0  0  0  0  0  0  0
  1 11  2  0  0  0  0
  2  1  1  0  0  0  0
  3  2  1  0  0  0  0
  4  5  2  0  0  0  0
  4  1  1  0  0  0  0
  5  6  1  0  0  0  0
  6  7  1  0  0  0  0
  6 10  2  0  0  0  0
  7  9  2  0  0  0  0
  8  7  2  0  0  0  0
 10 14  1  0  0  0  0
 11 10  1  0  0  0  0
 11 15  1  0  0  0  0
 13  5  1  0  0  0  0
 16 19  1  0  0  0  0
 16 20  1  0  0  0  0
 17 16  1  0  0  0  0
 18 12  1  0  0  0  0
M  RAD  3   2   2   3   3   4   2
M  END
