Coordinates from ORCA-job 4-NO2PhN2+~BF4-_B3LYPG-6-31G_dp-CH-Scan-d09-49-n800
 OpenBabel11261918593D

 20 18  0  0  0  0  0  0  0  0999 V2000
   -1.7195   -0.0804    0.0222 C   0  0  0  0  0  0  0  0  0  0  0  0
   -3.1185   -0.2141   -0.0169 N   0  0  0  0  0  0  0  0  0  0  0  0
   -4.2346   -0.2343   -0.0463 N   0  0  0  0  0  0  0  0  0  0  0  0
   -1.3231    1.2577    0.0419 C   0  0  0  0  0  0  0  0  0  0  0  0
    0.1025    1.3309    0.0822 C   0  0  0  0  0  0  0  0  0  0  0  0
    0.8989    0.1956    0.0968 C   0  0  0  0  0  0  0  0  0  0  0  0
    2.3781    0.3455    0.1388 N   0  0  0  0  0  0  0  0  0  0  0  0
    2.8362    1.4837    0.1577 O   0  0  0  0  0  0  0  0  0  0  0  0
    3.0523   -0.6843    0.1524 O   0  0  0  0  0  0  0  0  0  0  0  0
    0.3945   -1.1238    0.0742 C   0  0  0  0  0  0  0  0  0  0  0  0
   -0.9704   -1.2869    0.0353 C   0  0  0  0  0  0  0  0  0  0  0  0
   -3.9670    4.2435   -0.2508 H   0  0  0  0  0  0  0  0  0  0  0  0
    0.6042    2.2944    0.1025 H   0  0  0  0  0  0  0  0  0  0  0  0
    1.0790   -1.9608    0.0879 H   0  0  0  0  0  0  0  0  0  0  0  0
   -1.4331   -2.2696    0.0161 H   0  0  0  0  0  0  0  0  0  0  0  0
   -5.9138    2.6512   -0.1650 B   0  0  0  0  0  0  0  0  0  0  0  0
   -5.7909    1.9826   -1.3027 F   0  0  0  0  0  0  0  0  0  0  0  0
   -4.7354    4.3474   -0.7662 F   0  0  0  0  0  0  0  0  0  0  0  0
   -7.0153    3.3319    0.0927 F   0  0  0  0  0  0  0  0  0  0  0  0
   -5.0551    2.3889    0.8235 F   0  0  0  0  0  0  0  0  0  0  0  0
  1 11  2  0  0  0  0
  1  4  1  0  0  0  0
  2  1  1  0  0  0  0
  3  2  1  0  0  0  0
  4  5  2  0  0  0  0
  5  6  1  0  0  0  0
  5 13  1  0  0  0  0
  6  7  1  0  0  0  0
  7  9  2  0  0  0  0
  7  8  2  0  0  0  0
 10 14  1  0  0  0  0
 10  6  2  0  0  0  0
 11 10  1  0  0  0  0
 15 11  1  0  0  0  0
 16 19  1  0  0  0  0
 16 20  1  0  0  0  0
 17 16  1  0  0  0  0
 18 12  1  0  0  0  0
M  RAD  3   2   2   3   3   4   2
M  END
