Coordinates from ORCA-job 4-NO2PhN2+~BF4-_B3LYPG-6-31G_dp-CH-Scan-d09-49-n800
 OpenBabel11261918593D

 20 18  0  0  0  0  0  0  0  0999 V2000
   -1.6009   -0.0380    0.0443 C   0  0  0  0  0  0  0  0  0  0  0  0
   -3.0061   -0.0974    0.0139 N   0  0  0  0  0  0  0  0  0  0  0  0
   -4.1223   -0.0579   -0.0048 N   0  0  0  0  0  0  0  0  0  0  0  0
   -1.1400    1.2775    0.0828 C   0  0  0  0  0  0  0  0  0  0  0  0
    0.2880    1.2810    0.1141 C   0  0  0  0  0  0  0  0  0  0  0  0
    1.0269    0.1076    0.1066 C   0  0  0  0  0  0  0  0  0  0  0  0
    2.5118    0.1832    0.1422 N   0  0  0  0  0  0  0  0  0  0  0  0
    3.0258    1.2962    0.1949 O   0  0  0  0  0  0  0  0  0  0  0  0
    3.1343   -0.8789    0.1372 O   0  0  0  0  0  0  0  0  0  0  0  0
    0.4577   -1.1853    0.0661 C   0  0  0  0  0  0  0  0  0  0  0  0
   -0.9137   -1.2810    0.0329 C   0  0  0  0  0  0  0  0  0  0  0  0
   -4.4662    4.5582   -0.2636 H   0  0  0  0  0  0  0  0  0  0  0  0
    0.8362    2.2187    0.1453 H   0  0  0  0  0  0  0  0  0  0  0  0
    1.1007   -2.0549    0.0618 H   0  0  0  0  0  0  0  0  0  0  0  0
   -1.4244   -2.2393    0.0001 H   0  0  0  0  0  0  0  0  0  0  0  0
   -6.0926    2.6575   -0.1941 B   0  0  0  0  0  0  0  0  0  0  0  0
   -5.9068    2.0094   -1.3332 F   0  0  0  0  0  0  0  0  0  0  0  0
   -5.2004    4.5285   -0.8349 F   0  0  0  0  0  0  0  0  0  0  0  0
   -7.2757    3.1606    0.1046 F   0  0  0  0  0  0  0  0  0  0  0  0
   -5.1633    2.5537    0.7600 F   0  0  0  0  0  0  0  0  0  0  0  0
  1  4  1  0  0  0  0
  2  1  1  0  0  0  0
  3  2  1  0  0  0  0
  4  5  2  0  0  0  0
  5 13  1  0  0  0  0
  6  5  1  0  0  0  0
  6  7  1  0  0  0  0
  7  8  2  0  0  0  0
  9  7  2  0  0  0  0
 10  6  2  0  0  0  0
 11  1  2  0  0  0  0
 11 10  1  0  0  0  0
 14 10  1  0  0  0  0
 15 11  1  0  0  0  0
 16 19  1  0  0  0  0
 16 20  1  0  0  0  0
 17 16  1  0  0  0  0
 18 12  1  0  0  0  0
M  RAD  3   2   2   3   3   4   2
M  END
