Coordinates from ORCA-job 4-NO2PhN2+~BF4-_B3LYPG-6-31G_dp-CH-Scan-d09-49-n800
 OpenBabel11261918593D

 20 18  0  0  0  0  0  0  0  0999 V2000
   -1.9847   -0.0347   -0.0343 C   0  0  0  0  0  0  0  0  0  0  0  0
   -3.3575   -0.2919   -0.0792 N   0  0  0  0  0  0  0  0  0  0  0  0
   -4.4585   -0.4587   -0.1183 N   0  0  0  0  0  0  0  0  0  0  0  0
   -1.6406    1.3224   -0.1027 C   0  0  0  0  0  0  0  0  0  0  0  0
   -0.2317    1.4895   -0.0510 C   0  0  0  0  0  0  0  0  0  0  0  0
    0.6306    0.4075    0.0533 C   0  0  0  0  0  0  0  0  0  0  0  0
    2.0969    0.6528    0.1024 N   0  0  0  0  0  0  0  0  0  0  0  0
    2.4796    1.8167    0.0521 O   0  0  0  0  0  0  0  0  0  0  0  0
    2.8292   -0.3313    0.1910 O   0  0  0  0  0  0  0  0  0  0  0  0
    0.2032   -0.9328    0.1166 C   0  0  0  0  0  0  0  0  0  0  0  0
   -1.1506   -1.1778    0.0724 C   0  0  0  0  0  0  0  0  0  0  0  0
   -3.0811    2.9814   -0.2439 H   0  0  0  0  0  0  0  0  0  0  0  0
    0.2065    2.4814   -0.0927 H   0  0  0  0  0  0  0  0  0  0  0  0
    0.9322   -1.7275    0.1975 H   0  0  0  0  0  0  0  0  0  0  0  0
   -1.5515   -2.1857    0.1171 H   0  0  0  0  0  0  0  0  0  0  0  0
   -5.3870    2.6851   -0.1408 B   0  0  0  0  0  0  0  0  0  0  0  0
   -5.3039    1.9434   -1.2632 F   0  0  0  0  0  0  0  0  0  0  0  0
   -3.8055    3.6128   -0.2950 F   0  0  0  0  0  0  0  0  0  0  0  0
   -6.2292    3.7150   -0.1154 F   0  0  0  0  0  0  0  0  0  0  0  0
   -5.1275    2.0315    1.0102 F   0  0  0  0  0  0  0  0  0  0  0  0
  1 11  2  0  0  0  0
  2  1  1  0  0  0  0
  3  2  1  0  0  0  0
  4  5  2  0  0  0  0
  4  1  1  0  0  0  0
  5  6  1  0  0  0  0
  6  7  1  0  0  0  0
  6 10  2  0  0  0  0
  7  9  2  0  0  0  0
  8  7  2  0  0  0  0
 10 14  1  0  0  0  0
 11 10  1  0  0  0  0
 11 15  1  0  0  0  0
 13  5  1  0  0  0  0
 16 19  1  0  0  0  0
 16 20  1  0  0  0  0
 17 16  1  0  0  0  0
 18 12  1  0  0  0  0
M  RAD  3   2   2   3   3   4   2
M  END
