Coordinates from ORCA-job 4-NO2PhN2+~BF4-_B3LYPG-6-31G_dp-CH-Scan-d09-49-n800
 OpenBabel11261918593D

 20 18  0  0  0  0  0  0  0  0999 V2000
   -1.8203   -0.0740   -0.0144 C   0  0  0  0  0  0  0  0  0  0  0  0
   -3.2091   -0.2628   -0.0544 N   0  0  0  0  0  0  0  0  0  0  0  0
   -4.3212   -0.3473   -0.0891 N   0  0  0  0  0  0  0  0  0  0  0  0
   -1.4533    1.2741   -0.0777 C   0  0  0  0  0  0  0  0  0  0  0  0
   -0.0327    1.3899   -0.0330 C   0  0  0  0  0  0  0  0  0  0  0  0
    0.7948    0.2808    0.0599 C   0  0  0  0  0  0  0  0  0  0  0  0
    2.2689    0.4760    0.1016 N   0  0  0  0  0  0  0  0  0  0  0  0
    2.6931    1.6260    0.0512 O   0  0  0  0  0  0  0  0  0  0  0  0
    2.9706   -0.5315    0.1847 O   0  0  0  0  0  0  0  0  0  0  0  0
    0.3268   -1.0495    0.1188 C   0  0  0  0  0  0  0  0  0  0  0  0
   -1.0330   -1.2523    0.0812 C   0  0  0  0  0  0  0  0  0  0  0  0
   -3.4713    3.7094   -0.2565 H   0  0  0  0  0  0  0  0  0  0  0  0
    0.4415    2.3663   -0.0713 H   0  0  0  0  0  0  0  0  0  0  0  0
    1.0331   -1.8652    0.1911 H   0  0  0  0  0  0  0  0  0  0  0  0
   -1.4673   -2.2470    0.1226 H   0  0  0  0  0  0  0  0  0  0  0  0
   -5.7842    2.6614   -0.1635 B   0  0  0  0  0  0  0  0  0  0  0  0
   -5.4550    2.0463   -1.2982 F   0  0  0  0  0  0  0  0  0  0  0  0
   -4.3006    4.1339   -0.3112 F   0  0  0  0  0  0  0  0  0  0  0  0
   -6.7930    3.5138   -0.1421 F   0  0  0  0  0  0  0  0  0  0  0  0
   -5.3188    2.1512    0.9766 F   0  0  0  0  0  0  0  0  0  0  0  0
  1 11  2  0  0  0  0
  2  1  1  0  0  0  0
  3  2  1  0  0  0  0
  4  5  2  0  0  0  0
  4  1  1  0  0  0  0
  5  6  1  0  0  0  0
  6  7  1  0  0  0  0
  6 10  2  0  0  0  0
  7  9  2  0  0  0  0
  8  7  2  0  0  0  0
 10 14  1  0  0  0  0
 11 10  1  0  0  0  0
 11 15  1  0  0  0  0
 13  5  1  0  0  0  0
 16 19  1  0  0  0  0
 16 20  1  0  0  0  0
 17 16  1  0  0  0  0
 18 12  1  0  0  0  0
M  RAD  3   2   2   3   3   4   2
M  END
