Coordinates from ORCA-job 4-NO2PhN2+~BF4-_B3LYPG-6-31G_dp-CH-Scan-d09-49-n800
 OpenBabel11261918593D

 20 18  0  0  0  0  0  0  0  0999 V2000
   -1.7084   -0.0778    0.0249 C   0  0  0  0  0  0  0  0  0  0  0  0
   -3.1079   -0.2070   -0.0129 N   0  0  0  0  0  0  0  0  0  0  0  0
   -4.2240   -0.2269   -0.0407 N   0  0  0  0  0  0  0  0  0  0  0  0
   -1.3066    1.2583    0.0472 C   0  0  0  0  0  0  0  0  0  0  0  0
    0.1194    1.3258    0.0864 C   0  0  0  0  0  0  0  0  0  0  0  0
    0.9112    0.1873    0.0979 C   0  0  0  0  0  0  0  0  0  0  0  0
    2.3911    0.3311    0.1391 N   0  0  0  0  0  0  0  0  0  0  0  0
    2.8538    1.4674    0.1607 O   0  0  0  0  0  0  0  0  0  0  0  0
    3.0611   -0.7015    0.1496 O   0  0  0  0  0  0  0  0  0  0  0  0
    0.4014   -1.1300    0.0727 C   0  0  0  0  0  0  0  0  0  0  0  0
   -0.9641   -1.2875    0.0346 C   0  0  0  0  0  0  0  0  0  0  0  0
   -4.0144    4.2809   -0.2503 H   0  0  0  0  0  0  0  0  0  0  0  0
    0.6249    2.2873    0.1084 H   0  0  0  0  0  0  0  0  0  0  0  0
    1.0826   -1.9699    0.0839 H   0  0  0  0  0  0  0  0  0  0  0  0
   -1.4307   -2.2684    0.0135 H   0  0  0  0  0  0  0  0  0  0  0  0
   -5.9319    2.6535   -0.1680 B   0  0  0  0  0  0  0  0  0  0  0  0
   -5.8042    1.9833   -1.3039 F   0  0  0  0  0  0  0  0  0  0  0  0
   -4.7778    4.3663   -0.7764 F   0  0  0  0  0  0  0  0  0  0  0  0
   -7.0405    3.3218    0.0914 F   0  0  0  0  0  0  0  0  0  0  0  0
   -5.0662    2.4054    0.8181 F   0  0  0  0  0  0  0  0  0  0  0  0
  1 11  2  0  0  0  0
  1  4  1  0  0  0  0
  2  1  1  0  0  0  0
  3  2  1  0  0  0  0
  4  5  2  0  0  0  0
  5  6  1  0  0  0  0
  5 13  1  0  0  0  0
  6  7  1  0  0  0  0
  7  9  2  0  0  0  0
  7  8  2  0  0  0  0
 10 14  1  0  0  0  0
 10  6  2  0  0  0  0
 11 10  1  0  0  0  0
 15 11  1  0  0  0  0
 16 19  1  0  0  0  0
 16 20  1  0  0  0  0
 17 16  1  0  0  0  0
 18 12  1  0  0  0  0
M  RAD  3   2   2   3   3   4   2
M  END
