Coordinates from ORCA-job 4-NO2PhN2+~BF4-_B3LYPG-6-31G_dp-CH-Scan-d09-49-n800
 OpenBabel11261918593D

 20 18  0  0  0  0  0  0  0  0999 V2000
   -1.7269   -0.0808    0.0105 C   0  0  0  0  0  0  0  0  0  0  0  0
   -3.1247   -0.2216   -0.0318 N   0  0  0  0  0  0  0  0  0  0  0  0
   -4.2403   -0.2522   -0.0642 N   0  0  0  0  0  0  0  0  0  0  0  0
   -1.3336    1.2586    0.0136 C   0  0  0  0  0  0  0  0  0  0  0  0
    0.0915    1.3364    0.0583 C   0  0  0  0  0  0  0  0  0  0  0  0
    0.8911    0.2038    0.0915 C   0  0  0  0  0  0  0  0  0  0  0  0
    2.3697    0.3588    0.1371 N   0  0  0  0  0  0  0  0  0  0  0  0
    2.8242    1.4986    0.1424 O   0  0  0  0  0  0  0  0  0  0  0  0
    3.0467   -0.6687    0.1708 O   0  0  0  0  0  0  0  0  0  0  0  0
    0.3905   -1.1171    0.0852 C   0  0  0  0  0  0  0  0  0  0  0  0
   -0.9737   -1.2846    0.0431 C   0  0  0  0  0  0  0  0  0  0  0  0
   -3.8910    4.1829   -0.2509 H   0  0  0  0  0  0  0  0  0  0  0  0
    0.5904    2.3015    0.0672 H   0  0  0  0  0  0  0  0  0  0  0  0
    1.0773   -1.9520    0.1131 H   0  0  0  0  0  0  0  0  0  0  0  0
   -1.4334   -2.2688    0.0357 H   0  0  0  0  0  0  0  0  0  0  0  0
   -5.9163    2.6558   -0.1607 B   0  0  0  0  0  0  0  0  0  0  0  0
   -5.7644    2.0008   -1.3036 F   0  0  0  0  0  0  0  0  0  0  0  0
   -4.6925    4.3350   -0.6995 F   0  0  0  0  0  0  0  0  0  0  0  0
   -7.0096    3.3611    0.0629 F   0  0  0  0  0  0  0  0  0  0  0  0
   -5.1060    2.3517    0.8555 F   0  0  0  0  0  0  0  0  0  0  0  0
  1  4  2  0  0  0  0
  1 11  1  0  0  0  0
  2  1  1  0  0  0  0
  3  2  1  0  0  0  0
  4  5  1  0  0  0  0
  5 13  1  0  0  0  0
  5  6  2  0  0  0  0
  6  7  1  0  0  0  0
  7  8  2  0  0  0  0
  7  9  2  0  0  0  0
 10  6  1  0  0  0  0
 10 14  1  0  0  0  0
 11 10  2  0  0  0  0
 15 11  1  0  0  0  0
 16 19  1  0  0  0  0
 16 20  1  0  0  0  0
 17 16  1  0  0  0  0
 18 12  1  0  0  0  0
M  RAD  3   2   2   3   3   4   2
M  END
