Coordinates from ORCA-job 4-NO2PhN2+~BF4-_B3LYPG-6-31G_dp-CH-Scan-d09-49-n800
 OpenBabel11261918593D

 20 18  0  0  0  0  0  0  0  0999 V2000
   -2.0656   -0.0135   -0.0377 C   0  0  0  0  0  0  0  0  0  0  0  0
   -3.4316   -0.2974   -0.0802 N   0  0  0  0  0  0  0  0  0  0  0  0
   -4.5273   -0.4893   -0.1176 N   0  0  0  0  0  0  0  0  0  0  0  0
   -1.7233    1.3454   -0.1038 C   0  0  0  0  0  0  0  0  0  0  0  0
   -0.3215    1.5328   -0.0536 C   0  0  0  0  0  0  0  0  0  0  0  0
    0.5533    0.4598    0.0483 C   0  0  0  0  0  0  0  0  0  0  0  0
    2.0162    0.7234    0.0971 N   0  0  0  0  0  0  0  0  0  0  0  0
    2.3825    1.8924    0.0501 O   0  0  0  0  0  0  0  0  0  0  0  0
    2.7593   -0.2523    0.1815 O   0  0  0  0  0  0  0  0  0  0  0  0
    0.1394   -0.8822    0.1091 C   0  0  0  0  0  0  0  0  0  0  0  0
   -1.2132   -1.1410    0.0658 C   0  0  0  0  0  0  0  0  0  0  0  0
   -2.9233    2.7105   -0.2189 H   0  0  0  0  0  0  0  0  0  0  0  0
    0.1014    2.5309   -0.0940 H   0  0  0  0  0  0  0  0  0  0  0  0
    0.8755   -1.6707    0.1877 H   0  0  0  0  0  0  0  0  0  0  0  0
   -1.6022   -2.1532    0.1090 H   0  0  0  0  0  0  0  0  0  0  0  0
   -5.1527    2.6795   -0.1395 B   0  0  0  0  0  0  0  0  0  0  0  0
   -5.1628    1.8873   -1.2500 F   0  0  0  0  0  0  0  0  0  0  0  0
   -3.6438    3.4244   -0.2744 F   0  0  0  0  0  0  0  0  0  0  0  0
   -5.9863    3.7285   -0.1269 F   0  0  0  0  0  0  0  0  0  0  0  0
   -5.0048    1.9841    1.0241 F   0  0  0  0  0  0  0  0  0  0  0  0
  1 11  2  0  0  0  0
  2  1  1  0  0  0  0
  3  2  1  0  0  0  0
  4  5  2  0  0  0  0
  4  1  1  0  0  0  0
  5  6  1  0  0  0  0
  6  7  1  0  0  0  0
  6 10  2  0  0  0  0
  7  9  2  0  0  0  0
  8  7  2  0  0  0  0
 10 14  1  0  0  0  0
 11 15  1  0  0  0  0
 11 10  1  0  0  0  0
 13  5  1  0  0  0  0
 16 19  1  0  0  0  0
 16 20  1  0  0  0  0
 17 16  1  0  0  0  0
 18 12  1  0  0  0  0
M  RAD  3   2   2   3   3   4   2
M  END
