Coordinates from ORCA-job 4-NO2PhN2+~BF4-_B3LYPG-6-31G_dp-CH-Scan-d09-49-n800
 OpenBabel11261918593D

 20 18  0  0  0  0  0  0  0  0999 V2000
   -1.6817   -0.0710    0.0321 C   0  0  0  0  0  0  0  0  0  0  0  0
   -3.0830   -0.1843   -0.0023 N   0  0  0  0  0  0  0  0  0  0  0  0
   -4.1995   -0.1912   -0.0277 N   0  0  0  0  0  0  0  0  0  0  0  0
   -1.2667    1.2606    0.0629 C   0  0  0  0  0  0  0  0  0  0  0  0
    0.1601    1.3135    0.0997 C   0  0  0  0  0  0  0  0  0  0  0  0
    0.9401    0.1669    0.1015 C   0  0  0  0  0  0  0  0  0  0  0  0
    2.4214    0.2951    0.1411 N   0  0  0  0  0  0  0  0  0  0  0  0
    2.8959    1.4263    0.1722 O   0  0  0  0  0  0  0  0  0  0  0  0
    3.0810   -0.7443    0.1403 O   0  0  0  0  0  0  0  0  0  0  0  0
    0.4168   -1.1451    0.0676 C   0  0  0  0  0  0  0  0  0  0  0  0
   -0.9503   -1.2886    0.0312 C   0  0  0  0  0  0  0  0  0  0  0  0
   -4.1318    4.3683   -0.2588 H   0  0  0  0  0  0  0  0  0  0  0  0
    0.6753    2.2697    0.1273 H   0  0  0  0  0  0  0  0  0  0  0  0
    1.0896   -1.9918    0.0712 H   0  0  0  0  0  0  0  0  0  0  0  0
   -1.4269   -2.2644    0.0038 H   0  0  0  0  0  0  0  0  0  0  0  0
   -5.9713    2.6547   -0.1730 B   0  0  0  0  0  0  0  0  0  0  0  0
   -5.8339    1.9819   -1.3056 F   0  0  0  0  0  0  0  0  0  0  0  0
   -4.8835    4.4085   -0.8066 F   0  0  0  0  0  0  0  0  0  0  0  0
   -7.0993    3.2857    0.0963 F   0  0  0  0  0  0  0  0  0  0  0  0
   -5.0833    2.4487    0.8029 F   0  0  0  0  0  0  0  0  0  0  0  0
  1  4  1  0  0  0  0
  2  1  1  0  0  0  0
  3  2  1  0  0  0  0
  4  5  2  0  0  0  0
  5  6  1  0  0  0  0
  5 13  1  0  0  0  0
  6  7  1  0  0  0  0
  7  8  2  0  0  0  0
  9  7  2  0  0  0  0
 10 14  1  0  0  0  0
 10  6  2  0  0  0  0
 11  1  2  0  0  0  0
 11 10  1  0  0  0  0
 15 11  1  0  0  0  0
 16 19  1  0  0  0  0
 16 20  1  0  0  0  0
 17 16  1  0  0  0  0
 18 12  1  0  0  0  0
M  RAD  3   2   2   3   3   4   2
M  END
