Coordinates from ORCA-job 4-NO2PhN2+~BF4-_B3LYPG-6-31G_dp-CH-Scan-d09-49-n800
 OpenBabel11261918593D

 20 18  0  0  0  0  0  0  0  0999 V2000
   -1.9349   -0.0461   -0.0049 C   0  0  0  0  0  0  0  0  0  0  0  0
   -3.3129   -0.2835   -0.0353 N   0  0  0  0  0  0  0  0  0  0  0  0
   -4.4181   -0.4272   -0.0637 N   0  0  0  0  0  0  0  0  0  0  0  0
   -1.5859    1.3093   -0.0674 C   0  0  0  0  0  0  0  0  0  0  0  0
   -0.1722    1.4601   -0.0345 C   0  0  0  0  0  0  0  0  0  0  0  0
    0.6810    0.3694    0.0484 C   0  0  0  0  0  0  0  0  0  0  0  0
    2.1504    0.5993    0.0770 N   0  0  0  0  0  0  0  0  0  0  0  0
    2.5453    1.7593    0.0260 O   0  0  0  0  0  0  0  0  0  0  0  0
    2.8747   -0.3923    0.1497 O   0  0  0  0  0  0  0  0  0  0  0  0
    0.2424   -0.9686    0.1085 C   0  0  0  0  0  0  0  0  0  0  0  0
   -1.1136   -1.2009    0.0817 C   0  0  0  0  0  0  0  0  0  0  0  0
   -3.1852    3.1965   -0.1938 H   0  0  0  0  0  0  0  0  0  0  0  0
    0.2769    2.4475   -0.0748 H   0  0  0  0  0  0  0  0  0  0  0  0
    0.9658   -1.7699    0.1732 H   0  0  0  0  0  0  0  0  0  0  0  0
   -1.5239   -2.2052    0.1248 H   0  0  0  0  0  0  0  0  0  0  0  0
   -5.5249    2.6775   -0.1810 B   0  0  0  0  0  0  0  0  0  0  0  0
   -5.2835    1.9790   -1.3001 F   0  0  0  0  0  0  0  0  0  0  0  0
   -3.9346    3.7744   -0.2299 F   0  0  0  0  0  0  0  0  0  0  0  0
   -6.4118    3.6631   -0.2079 F   0  0  0  0  0  0  0  0  0  0  0  0
   -5.2661    2.0575    0.9804 F   0  0  0  0  0  0  0  0  0  0  0  0
  1 11  2  0  0  0  0
  2  1  1  0  0  0  0
  3  2  1  0  0  0  0
  4  5  2  0  0  0  0
  4  1  1  0  0  0  0
  5  6  1  0  0  0  0
  6  7  1  0  0  0  0
  6 10  2  0  0  0  0
  7  9  2  0  0  0  0
  8  7  2  0  0  0  0
 10 14  1  0  0  0  0
 11 10  1  0  0  0  0
 11 15  1  0  0  0  0
 13  5  1  0  0  0  0
 16 20  1  0  0  0  0
 17 16  1  0  0  0  0
 18 12  1  0  0  0  0
 19 16  1  0  0  0  0
M  RAD  3   2   2   3   3   4   2
M  END
