Coordinates from ORCA-job 4-NO2PhN2+~BF4-_B3LYPG-6-31G_dp-CH-Scan-d09-49-n800
 OpenBabel11261918593D

 20 18  0  0  0  0  0  0  0  0999 V2000
   -2.1338    0.0229   -0.1334 C   0  0  0  0  0  0  0  0  0  0  0  0
   -3.4910   -0.2693   -0.2510 N   0  0  0  0  0  0  0  0  0  0  0  0
   -4.5763   -0.4809   -0.3671 N   0  0  0  0  0  0  0  0  0  0  0  0
   -1.7561    1.3691   -0.2461 C   0  0  0  0  0  0  0  0  0  0  0  0
   -0.3698    1.5738   -0.1367 C   0  0  0  0  0  0  0  0  0  0  0  0
    0.4935    0.5042    0.0666 C   0  0  0  0  0  0  0  0  0  0  0  0
    1.9523    0.7701    0.1775 N   0  0  0  0  0  0  0  0  0  0  0  0
    2.3221    1.9336    0.0720 O   0  0  0  0  0  0  0  0  0  0  0  0
    2.6836   -0.1988    0.3667 O   0  0  0  0  0  0  0  0  0  0  0  0
    0.0682   -0.8273    0.1765 C   0  0  0  0  0  0  0  0  0  0  0  0
   -1.2837   -1.0874    0.0733 C   0  0  0  0  0  0  0  0  0  0  0  0
   -2.7571    2.4761   -0.4032 H   0  0  0  0  0  0  0  0  0  0  0  0
    0.0474    2.5718   -0.2059 H   0  0  0  0  0  0  0  0  0  0  0  0
    0.7938   -1.6134    0.3373 H   0  0  0  0  0  0  0  0  0  0  0  0
   -1.6758   -2.0960    0.1487 H   0  0  0  0  0  0  0  0  0  0  0  0
   -4.9436    2.6540   -0.0305 B   0  0  0  0  0  0  0  0  0  0  0  0
   -5.3055    1.8462   -1.0995 F   0  0  0  0  0  0  0  0  0  0  0  0
   -3.6119    3.3041   -0.4713 F   0  0  0  0  0  0  0  0  0  0  0  0
   -5.7989    3.6664    0.2351 F   0  0  0  0  0  0  0  0  0  0  0  0
   -4.5885    1.8801    1.0671 F   0  0  0  0  0  0  0  0  0  0  0  0
  1 11  2  0  0  0  0
  2  1  1  0  0  0  0
  3  2  1  0  0  0  0
  4  5  2  0  0  0  0
  4  1  1  0  0  0  0
  5  6  1  0  0  0  0
  6 10  2  0  0  0  0
  6  7  1  0  0  0  0
  7  9  2  0  0  0  0
  8  7  2  0  0  0  0
 10 14  1  0  0  0  0
 11 15  1  0  0  0  0
 11 10  1  0  0  0  0
 13  5  1  0  0  0  0
 16 19  1  0  0  0  0
 16 20  1  0  0  0  0
 17 16  1  0  0  0  0
 18 12  1  0  0  0  0
M  RAD  3   2   2   3   3   4   2
M  END
