Coordinates from ORCA-job 4-NO2PhN2+~BF4-_B3LYPG-6-31G_dp-CH-Scan-d09-49-n800
 OpenBabel11261918593D

 20 18  0  0  0  0  0  0  0  0999 V2000
   -1.8120   -0.0728   -0.0137 C   0  0  0  0  0  0  0  0  0  0  0  0
   -3.2017   -0.2582   -0.0546 N   0  0  0  0  0  0  0  0  0  0  0  0
   -4.3141   -0.3402   -0.0904 N   0  0  0  0  0  0  0  0  0  0  0  0
   -1.4416    1.2739   -0.0759 C   0  0  0  0  0  0  0  0  0  0  0  0
   -0.0206    1.3856   -0.0308 C   0  0  0  0  0  0  0  0  0  0  0  0
    0.8038    0.2741    0.0612 C   0  0  0  0  0  0  0  0  0  0  0  0
    2.2785    0.4650    0.1030 N   0  0  0  0  0  0  0  0  0  0  0  0
    2.7061    1.6137    0.0519 O   0  0  0  0  0  0  0  0  0  0  0  0
    2.9773   -0.5446    0.1853 O   0  0  0  0  0  0  0  0  0  0  0  0
    0.3319   -1.0549    0.1192 C   0  0  0  0  0  0  0  0  0  0  0  0
   -1.0284   -1.2537    0.0812 C   0  0  0  0  0  0  0  0  0  0  0  0
   -3.4987    3.7485   -0.2553 H   0  0  0  0  0  0  0  0  0  0  0  0
    0.4564    2.3607   -0.0684 H   0  0  0  0  0  0  0  0  0  0  0  0
    1.0359   -1.8727    0.1910 H   0  0  0  0  0  0  0  0  0  0  0  0
   -1.4656   -2.2471    0.1219 H   0  0  0  0  0  0  0  0  0  0  0  0
   -5.7994    2.6589   -0.1638 B   0  0  0  0  0  0  0  0  0  0  0  0
   -5.4687    2.0488   -1.3001 F   0  0  0  0  0  0  0  0  0  0  0  0
   -4.3343    4.1578   -0.3228 F   0  0  0  0  0  0  0  0  0  0  0  0
   -6.8191    3.4979   -0.1358 F   0  0  0  0  0  0  0  0  0  0  0  0
   -5.3168    2.1586    0.9732 F   0  0  0  0  0  0  0  0  0  0  0  0
  1 11  2  0  0  0  0
  2  1  1  0  0  0  0
  3  2  1  0  0  0  0
  4  5  2  0  0  0  0
  4  1  1  0  0  0  0
  5  6  1  0  0  0  0
  6  7  1  0  0  0  0
  6 10  2  0  0  0  0
  7  9  2  0  0  0  0
  8  7  2  0  0  0  0
 10 14  1  0  0  0  0
 11 10  1  0  0  0  0
 11 15  1  0  0  0  0
 13  5  1  0  0  0  0
 16 19  1  0  0  0  0
 16 20  1  0  0  0  0
 17 16  1  0  0  0  0
 18 12  1  0  0  0  0
M  RAD  3   2   2   3   3   4   2
M  END
