Coordinates from ORCA-job 4-NO2PhN2+~BF4-_B3LYPG-6-31G_dp-CH-Scan-d09-49-n800
 OpenBabel11261918593D

 20 18  0  0  0  0  0  0  0  0999 V2000
   -1.7844   -0.0828    0.0214 C   0  0  0  0  0  0  0  0  0  0  0  0
   -3.1774   -0.2540   -0.0075 N   0  0  0  0  0  0  0  0  0  0  0  0
   -4.2917   -0.3166   -0.0288 N   0  0  0  0  0  0  0  0  0  0  0  0
   -1.4118    1.2640    0.0151 C   0  0  0  0  0  0  0  0  0  0  0  0
    0.0113    1.3666    0.0471 C   0  0  0  0  0  0  0  0  0  0  0  0
    0.8312    0.2486    0.0777 C   0  0  0  0  0  0  0  0  0  0  0  0
    2.3073    0.4304    0.1094 N   0  0  0  0  0  0  0  0  0  0  0  0
    2.7407    1.5783    0.1069 O   0  0  0  0  0  0  0  0  0  0  0  0
    3.0024   -0.5849    0.1362 O   0  0  0  0  0  0  0  0  0  0  0  0
    0.3539   -1.0804    0.0810 C   0  0  0  0  0  0  0  0  0  0  0  0
   -1.0077   -1.2716    0.0521 C   0  0  0  0  0  0  0  0  0  0  0  0
   -3.6411    3.9421   -0.2311 H   0  0  0  0  0  0  0  0  0  0  0  0
    0.4932    2.3403    0.0477 H   0  0  0  0  0  0  0  0  0  0  0  0
    1.0551   -1.9033    0.1057 H   0  0  0  0  0  0  0  0  0  0  0  0
   -1.4497   -2.2638    0.0529 H   0  0  0  0  0  0  0  0  0  0  0  0
   -5.8331    2.6552   -0.1774 B   0  0  0  0  0  0  0  0  0  0  0  0
   -5.6129    1.9937   -1.3081 F   0  0  0  0  0  0  0  0  0  0  0  0
   -4.4588    4.2258   -0.5761 F   0  0  0  0  0  0  0  0  0  0  0  0
   -6.8865    3.4429   -0.0627 F   0  0  0  0  0  0  0  0  0  0  0  0
   -5.1710    2.2688    0.9147 F   0  0  0  0  0  0  0  0  0  0  0  0
  1 11  1  0  0  0  0
  2  1  1  0  0  0  0
  3  2  1  0  0  0  0
  4  1  2  0  0  0  0
  4  5  1  0  0  0  0
  5 13  1  0  0  0  0
  5  6  2  0  0  0  0
  6 10  1  0  0  0  0
  6  7  1  0  0  0  0
  7  9  2  0  0  0  0
  8  7  2  0  0  0  0
 10 14  1  0  0  0  0
 11 15  1  0  0  0  0
 11 10  2  0  0  0  0
 16 19  1  0  0  0  0
 16 20  1  0  0  0  0
 17 16  1  0  0  0  0
 18 12  1  0  0  0  0
M  RAD  3   2   2   3   3   4   2
M  END
