Coordinates from ORCA-job 4-NO2PhN2+~BF4-_B3LYPG-6-31G_dp-CH-Scan-d09-49-n800
 OpenBabel11261918593D

 20 18  0  0  0  0  0  0  0  0999 V2000
   -1.6614   -0.0644    0.0366 C   0  0  0  0  0  0  0  0  0  0  0  0
   -3.0639   -0.1655    0.0025 N   0  0  0  0  0  0  0  0  0  0  0  0
   -4.1805   -0.1623   -0.0218 N   0  0  0  0  0  0  0  0  0  0  0  0
   -1.2356    1.2633    0.0726 C   0  0  0  0  0  0  0  0  0  0  0  0
    0.1916    1.3047    0.1087 C   0  0  0  0  0  0  0  0  0  0  0  0
    0.9621    0.1517    0.1056 C   0  0  0  0  0  0  0  0  0  0  0  0
    2.4444    0.2675    0.1452 N   0  0  0  0  0  0  0  0  0  0  0  0
    2.9284    1.3947    0.1748 O   0  0  0  0  0  0  0  0  0  0  0  0
    3.0956   -0.7771    0.1314 O   0  0  0  0  0  0  0  0  0  0  0  0
    0.4280   -1.1559    0.0668 C   0  0  0  0  0  0  0  0  0  0  0  0
   -0.9402   -1.2881    0.0304 C   0  0  0  0  0  0  0  0  0  0  0  0
   -4.2182    4.4247   -0.2643 H   0  0  0  0  0  0  0  0  0  0  0  0
    0.7145    2.2566    0.1398 H   0  0  0  0  0  0  0  0  0  0  0  0
    1.0939   -2.0081    0.0666 H   0  0  0  0  0  0  0  0  0  0  0  0
   -1.4249   -2.2599   -0.0007 H   0  0  0  0  0  0  0  0  0  0  0  0
   -6.0021    2.6560   -0.1775 B   0  0  0  0  0  0  0  0  0  0  0  0
   -5.8558    1.9853   -1.3098 F   0  0  0  0  0  0  0  0  0  0  0  0
   -4.9633    4.4401   -0.8219 F   0  0  0  0  0  0  0  0  0  0  0  0
   -7.1438    3.2579    0.1001 F   0  0  0  0  0  0  0  0  0  0  0  0
   -5.1000    2.4780    0.7911 F   0  0  0  0  0  0  0  0  0  0  0  0
  1  4  1  0  0  0  0
  2  1  1  0  0  0  0
  3  2  1  0  0  0  0
  4  5  2  0  0  0  0
  5 13  1  0  0  0  0
  6  5  1  0  0  0  0
  6  7  1  0  0  0  0
  7  8  2  0  0  0  0
  9  7  2  0  0  0  0
 10  6  2  0  0  0  0
 11  1  2  0  0  0  0
 11 10  1  0  0  0  0
 14 10  1  0  0  0  0
 15 11  1  0  0  0  0
 16 19  1  0  0  0  0
 16 20  1  0  0  0  0
 17 16  1  0  0  0  0
 18 12  1  0  0  0  0
M  RAD  3   2   2   3   3   4   2
M  END
