Coordinates from ORCA-job 4-NO2PhN2+~BF4-_B3LYPG-6-31G_dp-CH-Scan-d09-49-n800
 OpenBabel11261918593D

 20 18  0  0  0  0  0  0  0  0999 V2000
   -1.8544   -0.0638   -0.0114 C   0  0  0  0  0  0  0  0  0  0  0  0
   -3.2401   -0.2688   -0.0449 N   0  0  0  0  0  0  0  0  0  0  0  0
   -4.3500   -0.3759   -0.0761 N   0  0  0  0  0  0  0  0  0  0  0  0
   -1.4923    1.2860   -0.0760 C   0  0  0  0  0  0  0  0  0  0  0  0
   -0.0737    1.4120   -0.0356 C   0  0  0  0  0  0  0  0  0  0  0  0
    0.7614    0.3083    0.0546 C   0  0  0  0  0  0  0  0  0  0  0  0
    2.2343    0.5136    0.0920 N   0  0  0  0  0  0  0  0  0  0  0  0
    2.6498    1.6668    0.0452 O   0  0  0  0  0  0  0  0  0  0  0  0
    2.9425   -0.4893    0.1731 O   0  0  0  0  0  0  0  0  0  0  0  0
    0.3019   -1.0243    0.1145 C   0  0  0  0  0  0  0  0  0  0  0  0
   -1.0568   -1.2355    0.0811 C   0  0  0  0  0  0  0  0  0  0  0  0
   -3.3741    3.5424   -0.2380 H   0  0  0  0  0  0  0  0  0  0  0  0
    0.3932    2.3917   -0.0756 H   0  0  0  0  0  0  0  0  0  0  0  0
    1.0131   -1.8359    0.1842 H   0  0  0  0  0  0  0  0  0  0  0  0
   -1.4841   -2.2331    0.1238 H   0  0  0  0  0  0  0  0  0  0  0  0
   -5.7169    2.6673   -0.1706 B   0  0  0  0  0  0  0  0  0  0  0  0
   -5.4004    2.0265   -1.2972 F   0  0  0  0  0  0  0  0  0  0  0  0
   -4.1759    4.0238   -0.2732 F   0  0  0  0  0  0  0  0  0  0  0  0
   -6.6840    3.5686   -0.1748 F   0  0  0  0  0  0  0  0  0  0  0  0
   -5.3244    2.1191    0.9811 F   0  0  0  0  0  0  0  0  0  0  0  0
  1 11  2  0  0  0  0
  2  1  1  0  0  0  0
  3  2  1  0  0  0  0
  4  5  2  0  0  0  0
  4  1  1  0  0  0  0
  5  6  1  0  0  0  0
  6  7  1  0  0  0  0
  6 10  2  0  0  0  0
  7  9  2  0  0  0  0
  8  7  2  0  0  0  0
 10 14  1  0  0  0  0
 11 10  1  0  0  0  0
 11 15  1  0  0  0  0
 13  5  1  0  0  0  0
 16 20  1  0  0  0  0
 17 16  1  0  0  0  0
 18 12  1  0  0  0  0
 19 16  1  0  0  0  0
M  RAD  3   2   2   3   3   4   2
M  END
