Coordinates from ORCA-job 4-NO2PhN2+~BF4-_B3LYPG-6-31G_dp-CH-Scan-d09-49-n800
 OpenBabel11261918593D

 20 18  0  0  0  0  0  0  0  0999 V2000
   -1.6832   -0.0710    0.0309 C   0  0  0  0  0  0  0  0  0  0  0  0
   -3.0845   -0.1854   -0.0033 N   0  0  0  0  0  0  0  0  0  0  0  0
   -4.2010   -0.1934   -0.0270 N   0  0  0  0  0  0  0  0  0  0  0  0
   -1.2688    1.2607    0.0614 C   0  0  0  0  0  0  0  0  0  0  0  0
    0.1579    1.3143    0.0974 C   0  0  0  0  0  0  0  0  0  0  0  0
    0.9385    0.1682    0.0994 C   0  0  0  0  0  0  0  0  0  0  0  0
    2.4198    0.2971    0.1384 N   0  0  0  0  0  0  0  0  0  0  0  0
    2.8935    1.4284    0.1776 O   0  0  0  0  0  0  0  0  0  0  0  0
    3.0796   -0.7421    0.1467 O   0  0  0  0  0  0  0  0  0  0  0  0
    0.4159   -1.1441    0.0664 C   0  0  0  0  0  0  0  0  0  0  0  0
   -0.9511   -1.2882    0.0304 C   0  0  0  0  0  0  0  0  0  0  0  0
   -4.1248    4.3632   -0.2609 H   0  0  0  0  0  0  0  0  0  0  0  0
    0.6727    2.2709    0.1244 H   0  0  0  0  0  0  0  0  0  0  0  0
    1.0890   -1.9905    0.0700 H   0  0  0  0  0  0  0  0  0  0  0  0
   -1.4273   -2.2643    0.0034 H   0  0  0  0  0  0  0  0  0  0  0  0
   -5.9691    2.6545   -0.1713 B   0  0  0  0  0  0  0  0  0  0  0  0
   -5.8338    1.9808   -1.3036 F   0  0  0  0  0  0  0  0  0  0  0  0
   -4.8779    4.4053   -0.8065 F   0  0  0  0  0  0  0  0  0  0  0  0
   -7.0955    3.2882    0.0983 F   0  0  0  0  0  0  0  0  0  0  0  0
   -5.0810    2.4468    0.8042 F   0  0  0  0  0  0  0  0  0  0  0  0
  1  4  1  0  0  0  0
  2  1  1  0  0  0  0
  3  2  1  0  0  0  0
  4  5  2  0  0  0  0
  5  6  1  0  0  0  0
  5 13  1  0  0  0  0
  6  7  1  0  0  0  0
  7  9  2  0  0  0  0
  7  8  2  0  0  0  0
 10 14  1  0  0  0  0
 10  6  2  0  0  0  0
 11  1  2  0  0  0  0
 11 10  1  0  0  0  0
 15 11  1  0  0  0  0
 16 19  1  0  0  0  0
 16 20  1  0  0  0  0
 17 16  1  0  0  0  0
 18 12  1  0  0  0  0
M  RAD  3   2   2   3   3   4   2
M  END
