Coordinates from ORCA-job 4-NO2PhN2+~BF4-_B3LYPG-6-31G_dp-CH-Scan-d09-49-n800
 OpenBabel11261918593D

 20 18  0  0  0  0  0  0  0  0999 V2000
   -1.7178   -0.0779    0.0124 C   0  0  0  0  0  0  0  0  0  0  0  0
   -3.1163   -0.2139   -0.0307 N   0  0  0  0  0  0  0  0  0  0  0  0
   -4.2320   -0.2411   -0.0647 N   0  0  0  0  0  0  0  0  0  0  0  0
   -1.3198    1.2598    0.0187 C   0  0  0  0  0  0  0  0  0  0  0  0
    0.1056    1.3323    0.0646 C   0  0  0  0  0  0  0  0  0  0  0  0
    0.9010    0.1967    0.0954 C   0  0  0  0  0  0  0  0  0  0  0  0
    2.3802    0.3460    0.1423 N   0  0  0  0  0  0  0  0  0  0  0  0
    2.8392    1.4840    0.1415 O   0  0  0  0  0  0  0  0  0  0  0  0
    3.0536   -0.6841    0.1640 O   0  0  0  0  0  0  0  0  0  0  0  0
    0.3956   -1.1224    0.0855 C   0  0  0  0  0  0  0  0  0  0  0  0
   -0.9692   -1.2847    0.0423 C   0  0  0  0  0  0  0  0  0  0  0  0
   -3.9346    4.2200   -0.2497 H   0  0  0  0  0  0  0  0  0  0  0  0
    0.6080    2.2956    0.0763 H   0  0  0  0  0  0  0  0  0  0  0  0
    1.0793   -1.9599    0.1117 H   0  0  0  0  0  0  0  0  0  0  0  0
   -1.4326   -2.2673    0.0325 H   0  0  0  0  0  0  0  0  0  0  0  0
   -5.9289    2.6549   -0.1622 B   0  0  0  0  0  0  0  0  0  0  0  0
   -5.7809    1.9990   -1.3047 F   0  0  0  0  0  0  0  0  0  0  0  0
   -4.7296    4.3498   -0.7165 F   0  0  0  0  0  0  0  0  0  0  0  0
   -7.0287    3.3467    0.0716 F   0  0  0  0  0  0  0  0  0  0  0  0
   -5.1031    2.3659    0.8460 F   0  0  0  0  0  0  0  0  0  0  0  0
  1  4  2  0  0  0  0
  1 11  1  0  0  0  0
  2  1  1  0  0  0  0
  3  2  1  0  0  0  0
  4  5  1  0  0  0  0
  5 13  1  0  0  0  0
  5  6  2  0  0  0  0
  6  7  1  0  0  0  0
  7  9  2  0  0  0  0
  8  7  2  0  0  0  0
 10  6  1  0  0  0  0
 10 14  1  0  0  0  0
 11 10  2  0  0  0  0
 15 11  1  0  0  0  0
 16 19  1  0  0  0  0
 16 20  1  0  0  0  0
 17 16  1  0  0  0  0
 18 12  1  0  0  0  0
M  RAD  3   2   2   3   3   4   2
M  END
