Coordinates from ORCA-job 4-NO2PhN2+~BF4-_B3LYPG-6-31G_dp-CH-Scan-d09-49-n800
 OpenBabel11261918593D

 20 18  0  0  0  0  0  0  0  0999 V2000
   -1.9686   -0.0379   -0.0286 C   0  0  0  0  0  0  0  0  0  0  0  0
   -3.3429   -0.2888   -0.0723 N   0  0  0  0  0  0  0  0  0  0  0  0
   -4.4450   -0.4492   -0.1109 N   0  0  0  0  0  0  0  0  0  0  0  0
   -1.6227    1.3186   -0.0967 C   0  0  0  0  0  0  0  0  0  0  0  0
   -0.2122    1.4804   -0.0482 C   0  0  0  0  0  0  0  0  0  0  0  0
    0.6468    0.3956    0.0530 C   0  0  0  0  0  0  0  0  0  0  0  0
    2.1142    0.6359    0.0981 N   0  0  0  0  0  0  0  0  0  0  0  0
    2.5010    1.7983    0.0455 O   0  0  0  0  0  0  0  0  0  0  0  0
    2.8436   -0.3505    0.1852 O   0  0  0  0  0  0  0  0  0  0  0  0
    0.2156   -0.9438    0.1169 C   0  0  0  0  0  0  0  0  0  0  0  0
   -1.1388   -1.1847    0.0755 C   0  0  0  0  0  0  0  0  0  0  0  0
   -3.1136    3.0468   -0.2367 H   0  0  0  0  0  0  0  0  0  0  0  0
    0.2297    2.4707   -0.0902 H   0  0  0  0  0  0  0  0  0  0  0  0
    0.9427   -1.7406    0.1956 H   0  0  0  0  0  0  0  0  0  0  0  0
   -1.5429   -2.1913    0.1206 H   0  0  0  0  0  0  0  0  0  0  0  0
   -5.4328    2.6831   -0.1477 B   0  0  0  0  0  0  0  0  0  0  0  0
   -5.3129    1.9557   -1.2730 F   0  0  0  0  0  0  0  0  0  0  0  0
   -3.8448    3.6614   -0.2849 F   0  0  0  0  0  0  0  0  0  0  0  0
   -6.2866    3.7015   -0.1274 F   0  0  0  0  0  0  0  0  0  0  0  0
   -5.1608    2.0381    1.0024 F   0  0  0  0  0  0  0  0  0  0  0  0
  1 11  2  0  0  0  0
  2  1  1  0  0  0  0
  3  2  1  0  0  0  0
  4  5  2  0  0  0  0
  4  1  1  0  0  0  0
  5  6  1  0  0  0  0
  6  7  1  0  0  0  0
  6 10  2  0  0  0  0
  7  9  2  0  0  0  0
  8  7  2  0  0  0  0
 10 14  1  0  0  0  0
 11 10  1  0  0  0  0
 11 15  1  0  0  0  0
 13  5  1  0  0  0  0
 16 19  1  0  0  0  0
 16 20  1  0  0  0  0
 17 16  1  0  0  0  0
 18 12  1  0  0  0  0
M  RAD  3   2   2   3   3   4   2
M  END
