Coordinates from ORCA-job 4-NO2PhN2+~BF4-_B3LYPG-6-31G_dp-CH-Scan-d09-49-n800
 OpenBabel11261918593D

 20 18  0  0  0  0  0  0  0  0999 V2000
   -1.8041   -0.0822    0.0214 C   0  0  0  0  0  0  0  0  0  0  0  0
   -3.1952   -0.2634   -0.0055 N   0  0  0  0  0  0  0  0  0  0  0  0
   -4.3087   -0.3373   -0.0269 N   0  0  0  0  0  0  0  0  0  0  0  0
   -1.4372    1.2666    0.0086 C   0  0  0  0  0  0  0  0  0  0  0  0
   -0.0150    1.3769    0.0386 C   0  0  0  0  0  0  0  0  0  0  0  0
    0.8109    0.2633    0.0734 C   0  0  0  0  0  0  0  0  0  0  0  0
    2.2860    0.4533    0.1023 N   0  0  0  0  0  0  0  0  0  0  0  0
    2.7130    1.6035    0.0937 O   0  0  0  0  0  0  0  0  0  0  0  0
    2.9864   -0.5581    0.1330 O   0  0  0  0  0  0  0  0  0  0  0  0
    0.3405   -1.0678    0.0833 C   0  0  0  0  0  0  0  0  0  0  0  0
   -1.0201   -1.2662    0.0567 C   0  0  0  0  0  0  0  0  0  0  0  0
   -3.5716    3.8618   -0.2219 H   0  0  0  0  0  0  0  0  0  0  0  0
    0.4616    2.3530    0.0343 H   0  0  0  0  0  0  0  0  0  0  0  0
    1.0458   -1.8871    0.1111 H   0  0  0  0  0  0  0  0  0  0  0  0
   -1.4567   -2.2607    0.0627 H   0  0  0  0  0  0  0  0  0  0  0  0
   -5.7986    2.6549   -0.1814 B   0  0  0  0  0  0  0  0  0  0  0  0
   -5.5632    1.9962   -1.3117 F   0  0  0  0  0  0  0  0  0  0  0  0
   -4.3873    4.1898   -0.5318 F   0  0  0  0  0  0  0  0  0  0  0  0
   -6.8387    3.4632   -0.0886 F   0  0  0  0  0  0  0  0  0  0  0  0
   -5.1790    2.2398    0.9250 F   0  0  0  0  0  0  0  0  0  0  0  0
  1 11  1  0  0  0  0
  2  1  1  0  0  0  0
  3  2  1  0  0  0  0
  4  1  2  0  0  0  0
  4  5  1  0  0  0  0
  5  6  2  0  0  0  0
  6 10  1  0  0  0  0
  6  7  1  0  0  0  0
  7  9  2  0  0  0  0
  8  7  2  0  0  0  0
 10 14  1  0  0  0  0
 11 15  1  0  0  0  0
 11 10  2  0  0  0  0
 13  5  1  0  0  0  0
 16 19  1  0  0  0  0
 16 20  1  0  0  0  0
 17 16  1  0  0  0  0
 18 12  1  0  0  0  0
M  RAD  3   2   2   3   3   4   2
M  END
