Coordinates from ORCA-job 4-NO2PhN2+~BF4-_B3LYPG-6-31G_dp-CH-Scan-d09-49-n800
 OpenBabel11261918593D

 20 18  0  0  0  0  0  0  0  0999 V2000
   -1.7912   -0.0819    0.0209 C   0  0  0  0  0  0  0  0  0  0  0  0
   -3.1837   -0.2567   -0.0077 N   0  0  0  0  0  0  0  0  0  0  0  0
   -4.2977   -0.3233   -0.0295 N   0  0  0  0  0  0  0  0  0  0  0  0
   -1.4203    1.2653    0.0119 C   0  0  0  0  0  0  0  0  0  0  0  0
    0.0025    1.3704    0.0435 C   0  0  0  0  0  0  0  0  0  0  0  0
    0.8243    0.2538    0.0762 C   0  0  0  0  0  0  0  0  0  0  0  0
    2.3000    0.4382    0.1072 N   0  0  0  0  0  0  0  0  0  0  0  0
    2.7314    1.5867    0.1023 O   0  0  0  0  0  0  0  0  0  0  0  0
    2.9968   -0.5759    0.1359 O   0  0  0  0  0  0  0  0  0  0  0  0
    0.3491   -1.0758    0.0822 C   0  0  0  0  0  0  0  0  0  0  0  0
   -1.0122   -1.2692    0.0539 C   0  0  0  0  0  0  0  0  0  0  0  0
   -3.6159    3.9132   -0.2290 H   0  0  0  0  0  0  0  0  0  0  0  0
    0.4827    2.3448    0.0422 H   0  0  0  0  0  0  0  0  0  0  0  0
    1.0515   -1.8976    0.1085 H   0  0  0  0  0  0  0  0  0  0  0  0
   -1.4525   -2.2622    0.0568 H   0  0  0  0  0  0  0  0  0  0  0  0
   -5.8215    2.6545   -0.1782 B   0  0  0  0  0  0  0  0  0  0  0  0
   -5.5964    1.9948   -1.3093 F   0  0  0  0  0  0  0  0  0  0  0  0
   -4.4338    4.2132   -0.5599 F   0  0  0  0  0  0  0  0  0  0  0  0
   -6.8702    3.4497   -0.0705 F   0  0  0  0  0  0  0  0  0  0  0  0
   -5.1738    2.2574    0.9186 F   0  0  0  0  0  0  0  0  0  0  0  0
  1 11  1  0  0  0  0
  2  1  1  0  0  0  0
  3  2  1  0  0  0  0
  4  1  2  0  0  0  0
  4  5  1  0  0  0  0
  5  6  2  0  0  0  0
  6 10  1  0  0  0  0
  6  7  1  0  0  0  0
  7  9  2  0  0  0  0
  8  7  2  0  0  0  0
 10 14  1  0  0  0  0
 11 15  1  0  0  0  0
 11 10  2  0  0  0  0
 13  5  1  0  0  0  0
 16 19  1  0  0  0  0
 16 20  1  0  0  0  0
 17 16  1  0  0  0  0
 18 12  1  0  0  0  0
M  RAD  3   2   2   3   3   4   2
M  END
