Coordinates from ORCA-job 4-NO2PhN2+~BF4-_B3LYPG-6-31G_dp-CH-Scan-d09-49-n800
 OpenBabel11261918593D

 20 18  0  0  0  0  0  0  0  0999 V2000
   -2.0918   -0.0026   -0.0335 C   0  0  0  0  0  0  0  0  0  0  0  0
   -3.4562   -0.2920   -0.0738 N   0  0  0  0  0  0  0  0  0  0  0  0
   -4.5504   -0.4899   -0.1102 N   0  0  0  0  0  0  0  0  0  0  0  0
   -1.7446    1.3553   -0.0977 C   0  0  0  0  0  0  0  0  0  0  0  0
   -0.3458    1.5478   -0.0517 C   0  0  0  0  0  0  0  0  0  0  0  0
    0.5307    0.4754    0.0458 C   0  0  0  0  0  0  0  0  0  0  0  0
    1.9933    0.7414    0.0903 N   0  0  0  0  0  0  0  0  0  0  0  0
    2.3566    1.9111    0.0429 O   0  0  0  0  0  0  0  0  0  0  0  0
    2.7376   -0.2333    0.1721 O   0  0  0  0  0  0  0  0  0  0  0  0
    0.1179   -0.8659    0.1058 C   0  0  0  0  0  0  0  0  0  0  0  0
   -1.2352   -1.1262    0.0658 C   0  0  0  0  0  0  0  0  0  0  0  0
   -2.8672    2.6290   -0.2012 H   0  0  0  0  0  0  0  0  0  0  0  0
    0.0730    2.5474   -0.0917 H   0  0  0  0  0  0  0  0  0  0  0  0
    0.8545   -1.6543    0.1812 H   0  0  0  0  0  0  0  0  0  0  0  0
   -1.6223   -2.1390    0.1085 H   0  0  0  0  0  0  0  0  0  0  0  0
   -5.0777    2.6731   -0.1453 B   0  0  0  0  0  0  0  0  0  0  0  0
   -5.1004    1.8679   -1.2550 F   0  0  0  0  0  0  0  0  0  0  0  0
   -3.6045    3.3795   -0.2568 F   0  0  0  0  0  0  0  0  0  0  0  0
   -5.9268    3.7145   -0.1400 F   0  0  0  0  0  0  0  0  0  0  0  0
   -4.9716    1.9601    1.0205 F   0  0  0  0  0  0  0  0  0  0  0  0
  1 11  2  0  0  0  0
  2  1  1  0  0  0  0
  3  2  1  0  0  0  0
  4  5  2  0  0  0  0
  4  1  1  0  0  0  0
  5  6  1  0  0  0  0
  6  7  1  0  0  0  0
  6 10  2  0  0  0  0
  7  9  2  0  0  0  0
  8  7  2  0  0  0  0
 10 14  1  0  0  0  0
 11 10  1  0  0  0  0
 11 15  1  0  0  0  0
 13  5  1  0  0  0  0
 16 19  1  0  0  0  0
 16 20  1  0  0  0  0
 17 16  1  0  0  0  0
 18 12  1  0  0  0  0
M  RAD  3   2   2   3   3   4   2
M  END
