Coordinates from ORCA-job 4-NO2PhN2+~BF4-_B3LYPG-6-31G_dp-CH-Scan-d09-49-n800
 OpenBabel11261918593D

 20 18  0  0  0  0  0  0  0  0999 V2000
   -1.8776   -0.0594   -0.0088 C   0  0  0  0  0  0  0  0  0  0  0  0
   -3.2613   -0.2721   -0.0408 N   0  0  0  0  0  0  0  0  0  0  0  0
   -4.3705   -0.3855   -0.0699 N   0  0  0  0  0  0  0  0  0  0  0  0
   -1.5200    1.2924   -0.0731 C   0  0  0  0  0  0  0  0  0  0  0  0
   -0.1026    1.4259   -0.0355 C   0  0  0  0  0  0  0  0  0  0  0  0
    0.7379    0.3261    0.0527 C   0  0  0  0  0  0  0  0  0  0  0  0
    2.2099    0.5389    0.0874 N   0  0  0  0  0  0  0  0  0  0  0  0
    2.6192    1.6941    0.0377 O   0  0  0  0  0  0  0  0  0  0  0  0
    2.9231   -0.4607    0.1637 O   0  0  0  0  0  0  0  0  0  0  0  0
    0.2849   -1.0083    0.1128 C   0  0  0  0  0  0  0  0  0  0  0  0
   -1.0730   -1.2261    0.0818 C   0  0  0  0  0  0  0  0  0  0  0  0
   -3.3152    3.4390   -0.2224 H   0  0  0  0  0  0  0  0  0  0  0  0
    0.3590    2.4079   -0.0757 H   0  0  0  0  0  0  0  0  0  0  0  0
    1.0000   -1.8167    0.1809 H   0  0  0  0  0  0  0  0  0  0  0  0
   -1.4951   -2.2258    0.1247 H   0  0  0  0  0  0  0  0  0  0  0  0
   -5.6659    2.6685   -0.1754 B   0  0  0  0  0  0  0  0  0  0  0  0
   -5.3629    2.0132   -1.2993 F   0  0  0  0  0  0  0  0  0  0  0  0
   -4.0993    3.9528   -0.2553 F   0  0  0  0  0  0  0  0  0  0  0  0
   -6.6086    3.5963   -0.1896 F   0  0  0  0  0  0  0  0  0  0  0  0
   -5.3130    2.0988    0.9803 F   0  0  0  0  0  0  0  0  0  0  0  0
  1 11  2  0  0  0  0
  2  1  1  0  0  0  0
  3  2  1  0  0  0  0
  4  5  2  0  0  0  0
  4  1  1  0  0  0  0
  5  6  1  0  0  0  0
  6  7  1  0  0  0  0
  6 10  2  0  0  0  0
  7  9  2  0  0  0  0
  8  7  2  0  0  0  0
 10 14  1  0  0  0  0
 11 10  1  0  0  0  0
 11 15  1  0  0  0  0
 13  5  1  0  0  0  0
 16 20  1  0  0  0  0
 17 16  1  0  0  0  0
 18 12  1  0  0  0  0
 19 16  1  0  0  0  0
M  RAD  3   2   2   3   3   4   2
M  END
