Coordinates from ORCA-job 4-NO2PhN2+~BF4-_B3LYPG-6-31G_dp-CH-Scan-d09-49-n800
 OpenBabel11261918593D

 20 18  0  0  0  0  0  0  0  0999 V2000
   -2.1390    0.0287   -0.1374 C   0  0  0  0  0  0  0  0  0  0  0  0
   -3.4956   -0.2617   -0.2618 N   0  0  0  0  0  0  0  0  0  0  0  0
   -4.5798   -0.4741   -0.3873 N   0  0  0  0  0  0  0  0  0  0  0  0
   -1.7540    1.3724   -0.2529 C   0  0  0  0  0  0  0  0  0  0  0  0
   -0.3696    1.5780   -0.1407 C   0  0  0  0  0  0  0  0  0  0  0  0
    0.4909    0.5071    0.0691 C   0  0  0  0  0  0  0  0  0  0  0  0
    1.9498    0.7709    0.1830 N   0  0  0  0  0  0  0  0  0  0  0  0
    2.3214    1.9334    0.0733 O   0  0  0  0  0  0  0  0  0  0  0  0
    2.6785   -0.1985    0.3789 O   0  0  0  0  0  0  0  0  0  0  0  0
    0.0621   -0.8225    0.1825 C   0  0  0  0  0  0  0  0  0  0  0  0
   -1.2903   -1.0807    0.0759 C   0  0  0  0  0  0  0  0  0  0  0  0
   -2.7350    2.4561   -0.4149 H   0  0  0  0  0  0  0  0  0  0  0  0
    0.0479    2.5756   -0.2123 H   0  0  0  0  0  0  0  0  0  0  0  0
    0.7854   -1.6095    0.3486 H   0  0  0  0  0  0  0  0  0  0  0  0
   -1.6841   -2.0884    0.1536 H   0  0  0  0  0  0  0  0  0  0  0  0
   -4.9298    2.6513   -0.0276 B   0  0  0  0  0  0  0  0  0  0  0  0
   -5.3224    1.8365   -1.0846 F   0  0  0  0  0  0  0  0  0  0  0  0
   -3.6245    3.2994   -0.4962 F   0  0  0  0  0  0  0  0  0  0  0  0
   -5.7916    3.6531    0.2637 F   0  0  0  0  0  0  0  0  0  0  0  0
   -4.5512    1.8725    1.0633 F   0  0  0  0  0  0  0  0  0  0  0  0
  1 11  2  0  0  0  0
  2  1  1  0  0  0  0
  3  2  1  0  0  0  0
  4  5  2  0  0  0  0
  4  1  1  0  0  0  0
  5  6  1  0  0  0  0
  6 10  2  0  0  0  0
  6  7  1  0  0  0  0
  7  9  2  0  0  0  0
  8  7  2  0  0  0  0
 10 14  1  0  0  0  0
 11 15  1  0  0  0  0
 11 10  1  0  0  0  0
 13  5  1  0  0  0  0
 16 19  1  0  0  0  0
 16 20  1  0  0  0  0
 17 16  1  0  0  0  0
 18 12  1  0  0  0  0
M  RAD  3   2   2   3   3   4   2
M  END
