Coordinates from ORCA-job 4-NO2PhN2+~BF4-_B3LYPG-6-31G_dp-CH-Scan-d09-49-n800
 OpenBabel11261918593D

 20 18  0  0  0  0  0  0  0  0999 V2000
   -2.0993    0.0008   -0.0294 C   0  0  0  0  0  0  0  0  0  0  0  0
   -3.4634   -0.2895   -0.0676 N   0  0  0  0  0  0  0  0  0  0  0  0
   -4.5573   -0.4883   -0.1034 N   0  0  0  0  0  0  0  0  0  0  0  0
   -1.7500    1.3582   -0.0920 C   0  0  0  0  0  0  0  0  0  0  0  0
   -0.3521    1.5522   -0.0492 C   0  0  0  0  0  0  0  0  0  0  0  0
    0.5247    0.4796    0.0445 C   0  0  0  0  0  0  0  0  0  0  0  0
    1.9873    0.7459    0.0857 N   0  0  0  0  0  0  0  0  0  0  0  0
    2.3499    1.9157    0.0383 O   0  0  0  0  0  0  0  0  0  0  0  0
    2.7318   -0.2288    0.1645 O   0  0  0  0  0  0  0  0  0  0  0  0
    0.1118   -0.8613    0.1037 C   0  0  0  0  0  0  0  0  0  0  0  0
   -1.2416   -1.1217    0.0664 C   0  0  0  0  0  0  0  0  0  0  0  0
   -2.8498    2.6057   -0.1905 H   0  0  0  0  0  0  0  0  0  0  0  0
    0.0655    2.5522   -0.0889 H   0  0  0  0  0  0  0  0  0  0  0  0
    0.8484   -1.6501    0.1763 H   0  0  0  0  0  0  0  0  0  0  0  0
   -1.6283   -2.1347    0.1086 H   0  0  0  0  0  0  0  0  0  0  0  0
   -5.0567    2.6713   -0.1502 B   0  0  0  0  0  0  0  0  0  0  0  0
   -5.0739    1.8627   -1.2605 F   0  0  0  0  0  0  0  0  0  0  0  0
   -3.5950    3.3695   -0.2441 F   0  0  0  0  0  0  0  0  0  0  0  0
   -5.9132    3.7082   -0.1522 F   0  0  0  0  0  0  0  0  0  0  0  0
   -4.9700    1.9520    1.0162 F   0  0  0  0  0  0  0  0  0  0  0  0
  1 11  2  0  0  0  0
  2  1  1  0  0  0  0
  3  2  1  0  0  0  0
  4  5  2  0  0  0  0
  4  1  1  0  0  0  0
  5  6  1  0  0  0  0
  6  7  1  0  0  0  0
  6 10  2  0  0  0  0
  7  9  2  0  0  0  0
  8  7  2  0  0  0  0
 10 14  1  0  0  0  0
 11 10  1  0  0  0  0
 11 15  1  0  0  0  0
 13  5  1  0  0  0  0
 16 20  1  0  0  0  0
 17 16  1  0  0  0  0
 18 12  1  0  0  0  0
 19 16  1  0  0  0  0
M  RAD  3   2   2   3   3   4   2
M  END
