Coordinates from ORCA-job 4-NO2PhN2+~BF4-_B3LYPG-6-31G_dp-CH-Scan-d09-49-n800
 OpenBabel11261918593D

 20 18  0  0  0  0  0  0  0  0999 V2000
   -1.8018   -0.0756   -0.0083 C   0  0  0  0  0  0  0  0  0  0  0  0
   -3.1926   -0.2558   -0.0483 N   0  0  0  0  0  0  0  0  0  0  0  0
   -4.3056   -0.3308   -0.0837 N   0  0  0  0  0  0  0  0  0  0  0  0
   -1.4297    1.2707   -0.0646 C   0  0  0  0  0  0  0  0  0  0  0  0
   -0.0080    1.3788   -0.0215 C   0  0  0  0  0  0  0  0  0  0  0  0
    0.8141    0.2651    0.0631 C   0  0  0  0  0  0  0  0  0  0  0  0
    2.2893    0.4523    0.1025 N   0  0  0  0  0  0  0  0  0  0  0  0
    2.7196    1.6003    0.0559 O   0  0  0  0  0  0  0  0  0  0  0  0
    2.9861   -0.5591    0.1797 O   0  0  0  0  0  0  0  0  0  0  0  0
    0.3395   -1.0634    0.1157 C   0  0  0  0  0  0  0  0  0  0  0  0
   -1.0213   -1.2590    0.0795 C   0  0  0  0  0  0  0  0  0  0  0  0
   -3.5362    3.8084   -0.2447 H   0  0  0  0  0  0  0  0  0  0  0  0
    0.4712    2.3530   -0.0551 H   0  0  0  0  0  0  0  0  0  0  0  0
    1.0419   -1.8829    0.1821 H   0  0  0  0  0  0  0  0  0  0  0  0
   -1.4608   -2.2517    0.1162 H   0  0  0  0  0  0  0  0  0  0  0  0
   -5.8158    2.6565   -0.1677 B   0  0  0  0  0  0  0  0  0  0  0  0
   -5.4894    2.0473   -1.3049 F   0  0  0  0  0  0  0  0  0  0  0  0
   -4.3789    4.1914   -0.3558 F   0  0  0  0  0  0  0  0  0  0  0  0
   -6.8506    3.4760   -0.1286 F   0  0  0  0  0  0  0  0  0  0  0  0
   -5.3019    2.1776    0.9647 F   0  0  0  0  0  0  0  0  0  0  0  0
  1 11  2  0  0  0  0
  2  1  1  0  0  0  0
  3  2  1  0  0  0  0
  4  5  2  0  0  0  0
  4  1  1  0  0  0  0
  5  6  1  0  0  0  0
  6  7  1  0  0  0  0
  6 10  2  0  0  0  0
  7  9  2  0  0  0  0
  8  7  2  0  0  0  0
 10 14  1  0  0  0  0
 11 10  1  0  0  0  0
 11 15  1  0  0  0  0
 13  5  1  0  0  0  0
 16 19  1  0  0  0  0
 16 20  1  0  0  0  0
 17 16  1  0  0  0  0
 18 12  1  0  0  0  0
M  RAD  3   2   2   3   3   4   2
M  END
