Coordinates from ORCA-job 4-NO2PhN2+~BF4-_B3LYPG-6-31G_dp-CH-Scan-d09-49-n800
 OpenBabel11261918593D

 20 18  0  0  0  0  0  0  0  0999 V2000
   -1.8258   -0.0709   -0.0143 C   0  0  0  0  0  0  0  0  0  0  0  0
   -3.2140   -0.2626   -0.0535 N   0  0  0  0  0  0  0  0  0  0  0  0
   -4.3258   -0.3521   -0.0868 N   0  0  0  0  0  0  0  0  0  0  0  0
   -1.4588    1.2772   -0.0777 C   0  0  0  0  0  0  0  0  0  0  0  0
   -0.0385    1.3941   -0.0335 C   0  0  0  0  0  0  0  0  0  0  0  0
    0.7897    0.2855    0.0591 C   0  0  0  0  0  0  0  0  0  0  0  0
    2.2637    0.4817    0.1006 N   0  0  0  0  0  0  0  0  0  0  0  0
    2.6870    1.6320    0.0504 O   0  0  0  0  0  0  0  0  0  0  0  0
    2.9660   -0.5254    0.1827 O   0  0  0  0  0  0  0  0  0  0  0  0
    0.3225   -1.0450    0.1182 C   0  0  0  0  0  0  0  0  0  0  0  0
   -1.0372   -1.2485    0.0810 C   0  0  0  0  0  0  0  0  0  0  0  0
   -3.4545    3.6789   -0.2560 H   0  0  0  0  0  0  0  0  0  0  0  0
    0.4349    2.3708   -0.0721 H   0  0  0  0  0  0  0  0  0  0  0  0
    1.0292   -1.8604    0.1901 H   0  0  0  0  0  0  0  0  0  0  0  0
   -1.4708   -2.2434    0.1224 H   0  0  0  0  0  0  0  0  0  0  0  0
   -5.7744    2.6622   -0.1642 B   0  0  0  0  0  0  0  0  0  0  0  0
   -5.4465    2.0424   -1.2971 F   0  0  0  0  0  0  0  0  0  0  0  0
   -4.2792    4.1142   -0.3033 F   0  0  0  0  0  0  0  0  0  0  0  0
   -6.7757    3.5238   -0.1483 F   0  0  0  0  0  0  0  0  0  0  0  0
   -5.3228    2.1449    0.9785 F   0  0  0  0  0  0  0  0  0  0  0  0
  1 11  2  0  0  0  0
  2  1  1  0  0  0  0
  3  2  1  0  0  0  0
  4  5  2  0  0  0  0
  4  1  1  0  0  0  0
  5  6  1  0  0  0  0
  6  7  1  0  0  0  0
  6 10  2  0  0  0  0
  7  9  2  0  0  0  0
  8  7  2  0  0  0  0
 10 14  1  0  0  0  0
 11 10  1  0  0  0  0
 11 15  1  0  0  0  0
 13  5  1  0  0  0  0
 16 19  1  0  0  0  0
 16 20  1  0  0  0  0
 17 16  1  0  0  0  0
 18 12  1  0  0  0  0
M  RAD  3   2   2   3   3   4   2
M  END
