Coordinates from ORCA-job 4-NO2PhN2+~BF4-_B3LYPG-6-31G_dp-CH-Scan-d09-49-n800
 OpenBabel11261918593D

 20 18  0  0  0  0  0  0  0  0999 V2000
   -1.7151   -0.0784    0.0229 C   0  0  0  0  0  0  0  0  0  0  0  0
   -3.1143   -0.2109   -0.0158 N   0  0  0  0  0  0  0  0  0  0  0  0
   -4.2304   -0.2324   -0.0447 N   0  0  0  0  0  0  0  0  0  0  0  0
   -1.3161    1.2587    0.0431 C   0  0  0  0  0  0  0  0  0  0  0  0
    0.1096    1.3292    0.0831 C   0  0  0  0  0  0  0  0  0  0  0  0
    0.9039    0.1925    0.0970 C   0  0  0  0  0  0  0  0  0  0  0  0
    2.3834    0.3396    0.1387 N   0  0  0  0  0  0  0  0  0  0  0  0
    2.8437    1.4769    0.1587 O   0  0  0  0  0  0  0  0  0  0  0  0
    3.0556   -0.6915    0.1523 O   0  0  0  0  0  0  0  0  0  0  0  0
    0.3970   -1.1259    0.0739 C   0  0  0  0  0  0  0  0  0  0  0  0
   -0.9682   -1.2864    0.0352 C   0  0  0  0  0  0  0  0  0  0  0  0
   -3.9845    4.2562   -0.2502 H   0  0  0  0  0  0  0  0  0  0  0  0
    0.6131    2.2919    0.1037 H   0  0  0  0  0  0  0  0  0  0  0  0
    1.0799   -1.9643    0.0870 H   0  0  0  0  0  0  0  0  0  0  0  0
   -1.4327   -2.2682    0.0157 H   0  0  0  0  0  0  0  0  0  0  0  0
   -5.9215    2.6521   -0.1662 B   0  0  0  0  0  0  0  0  0  0  0  0
   -5.7963    1.9832   -1.3032 F   0  0  0  0  0  0  0  0  0  0  0  0
   -4.7516    4.3544   -0.7687 F   0  0  0  0  0  0  0  0  0  0  0  0
   -7.0257    3.3284    0.0917 F   0  0  0  0  0  0  0  0  0  0  0  0
   -5.0610    2.3942    0.8219 F   0  0  0  0  0  0  0  0  0  0  0  0
  1 11  2  0  0  0  0
  1  4  1  0  0  0  0
  2  1  1  0  0  0  0
  3  2  1  0  0  0  0
  4  5  2  0  0  0  0
  5  6  1  0  0  0  0
  5 13  1  0  0  0  0
  6  7  1  0  0  0  0
  7  9  2  0  0  0  0
  7  8  2  0  0  0  0
 10 14  1  0  0  0  0
 10  6  2  0  0  0  0
 11 10  1  0  0  0  0
 15 11  1  0  0  0  0
 16 19  1  0  0  0  0
 16 20  1  0  0  0  0
 17 16  1  0  0  0  0
 18 12  1  0  0  0  0
M  RAD  3   2   2   3   3   4   2
M  END
