Coordinates from ORCA-job 4-NO2PhN2+~BF4-_B3LYPG-6-31G_dp-CH-Scan-d09-49-n800
 OpenBabel11261918593D

 20 18  0  0  0  0  0  0  0  0999 V2000
   -1.8054   -0.0797    0.0219 C   0  0  0  0  0  0  0  0  0  0  0  0
   -3.1966   -0.2620   -0.0047 N   0  0  0  0  0  0  0  0  0  0  0  0
   -4.3098   -0.3386   -0.0244 N   0  0  0  0  0  0  0  0  0  0  0  0
   -1.4376    1.2686    0.0097 C   0  0  0  0  0  0  0  0  0  0  0  0
   -0.0154    1.3783    0.0390 C   0  0  0  0  0  0  0  0  0  0  0  0
    0.8100    0.2644    0.0731 C   0  0  0  0  0  0  0  0  0  0  0  0
    2.2852    0.4538    0.1016 N   0  0  0  0  0  0  0  0  0  0  0  0
    2.7126    1.6038    0.0936 O   0  0  0  0  0  0  0  0  0  0  0  0
    2.9852   -0.5580    0.1317 O   0  0  0  0  0  0  0  0  0  0  0  0
    0.3390   -1.0664    0.0826 C   0  0  0  0  0  0  0  0  0  0  0  0
   -1.0217   -1.2640    0.0565 C   0  0  0  0  0  0  0  0  0  0  0  0
   -3.5676    3.8543   -0.2223 H   0  0  0  0  0  0  0  0  0  0  0  0
    0.4615    2.3543    0.0349 H   0  0  0  0  0  0  0  0  0  0  0  0
    1.0438   -1.8861    0.1098 H   0  0  0  0  0  0  0  0  0  0  0  0
   -1.4588   -2.2584    0.0621 H   0  0  0  0  0  0  0  0  0  0  0  0
   -5.7963    2.6540   -0.1820 B   0  0  0  0  0  0  0  0  0  0  0  0
   -5.5594    1.9943   -1.3115 F   0  0  0  0  0  0  0  0  0  0  0  0
   -4.3831    4.1856   -0.5296 F   0  0  0  0  0  0  0  0  0  0  0  0
   -6.8359    3.4633   -0.0918 F   0  0  0  0  0  0  0  0  0  0  0  0
   -5.1805    2.2378    0.9261 F   0  0  0  0  0  0  0  0  0  0  0  0
  1 11  1  0  0  0  0
  2  1  1  0  0  0  0
  3  2  1  0  0  0  0
  4  1  2  0  0  0  0
  4  5  1  0  0  0  0
  5  6  2  0  0  0  0
  6 10  1  0  0  0  0
  6  7  1  0  0  0  0
  7  9  2  0  0  0  0
  8  7  2  0  0  0  0
 10 14  1  0  0  0  0
 11 15  1  0  0  0  0
 11 10  2  0  0  0  0
 13  5  1  0  0  0  0
 16 19  1  0  0  0  0
 16 20  1  0  0  0  0
 17 16  1  0  0  0  0
 18 12  1  0  0  0  0
M  RAD  3   2   2   3   3   4   2
M  END
