Coordinates from ORCA-job 4-NO2PhN2+~BF4-_B3LYPG-6-31G_dp-CH-Scan-d09-49-n800
 OpenBabel11261918593D

 20 19  0  0  0  0  0  0  0  0999 V2000
   -2.1572    0.1331   -0.2894 C   0  0  0  0  0  0  0  0  0  0  0  0
   -3.5082   -0.1088   -0.5244 N   0  0  0  0  0  0  0  0  0  0  0  0
   -4.5696   -0.3533   -0.7559 N   0  0  0  0  0  0  0  0  0  0  0  0
   -1.6746    1.4402   -0.4358 C   0  0  0  0  0  0  0  0  0  0  0  0
   -0.3106    1.6281   -0.2315 C   0  0  0  0  0  0  0  0  0  0  0  0
    0.4826    0.5364    0.1125 C   0  0  0  0  0  0  0  0  0  0  0  0
    1.9349    0.7554    0.3363 N   0  0  0  0  0  0  0  0  0  0  0  0
    2.3570    1.8963    0.1906 O   0  0  0  0  0  0  0  0  0  0  0  0
    2.6037   -0.2251    0.6487 O   0  0  0  0  0  0  0  0  0  0  0  0
   -0.0136   -0.7607    0.2602 C   0  0  0  0  0  0  0  0  0  0  0  0
   -1.3662   -0.9786    0.0489 C   0  0  0  0  0  0  0  0  0  0  0  0
   -2.4410    2.3113   -0.7020 H   0  0  0  0  0  0  0  0  0  0  0  0
    0.1394    2.6085   -0.3258 H   0  0  0  0  0  0  0  0  0  0  0  0
    0.6577   -1.5645    0.5323 H   0  0  0  0  0  0  0  0  0  0  0  0
   -1.8027   -1.9658    0.1489 H   0  0  0  0  0  0  0  0  0  0  0  0
   -4.8802    2.5600    0.0917 B   0  0  0  0  0  0  0  0  0  0  0  0
   -5.7774    1.6330   -0.4965 F   0  0  0  0  0  0  0  0  0  0  0  0
   -4.0176    3.0440   -0.9440 F   0  0  0  0  0  0  0  0  0  0  0  0
   -5.5316    3.5830    0.7171 F   0  0  0  0  0  0  0  0  0  0  0  0
   -4.0555    1.8269    0.9943 F   0  0  0  0  0  0  0  0  0  0  0  0
  1 11  1  0  0  0  0
  2  1  1  0  0  0  0
  3  2  1  0  0  0  0
  4  1  2  0  0  0  0
  4  5  1  0  0  0  0
  5  6  2  0  0  0  0
  6 10  1  0  0  0  0
  6  7  1  0  0  0  0
  7  9  2  0  0  0  0
  8  7  2  0  0  0  0
 10 14  1  0  0  0  0
 11 15  1  0  0  0  0
 11 10  2  0  0  0  0
 12  4  1  0  0  0  0
 13  5  1  0  0  0  0
 16 19  1  0  0  0  0
 16 20  1  0  0  0  0
 17 16  1  0  0  0  0
 18 16  1  0  0  0  0
M  RAD  2   2   2   3   3
M  END
