Coordinates from ORCA-job 4-NO2PhN2+~BF4-_B3LYPG-6-31G_dp-CH-Scan-d09-49-n800
 OpenBabel11261918593D

 20 18  0  0  0  0  0  0  0  0999 V2000
   -2.0667   -0.0132   -0.0376 C   0  0  0  0  0  0  0  0  0  0  0  0
   -3.4327   -0.2971   -0.0802 N   0  0  0  0  0  0  0  0  0  0  0  0
   -4.5283   -0.4892   -0.1178 N   0  0  0  0  0  0  0  0  0  0  0  0
   -1.7243    1.3457   -0.1036 C   0  0  0  0  0  0  0  0  0  0  0  0
   -0.3226    1.5335   -0.0534 C   0  0  0  0  0  0  0  0  0  0  0  0
    0.5522    0.4606    0.0483 C   0  0  0  0  0  0  0  0  0  0  0  0
    2.0152    0.7243    0.0971 N   0  0  0  0  0  0  0  0  0  0  0  0
    2.3812    1.8933    0.0503 O   0  0  0  0  0  0  0  0  0  0  0  0
    2.7583   -0.2513    0.1816 O   0  0  0  0  0  0  0  0  0  0  0  0
    0.1385   -0.8815    0.1091 C   0  0  0  0  0  0  0  0  0  0  0  0
   -1.2140   -1.1405    0.0657 C   0  0  0  0  0  0  0  0  0  0  0  0
   -2.9211    2.7068   -0.2194 H   0  0  0  0  0  0  0  0  0  0  0  0
    0.1000    2.5317   -0.0937 H   0  0  0  0  0  0  0  0  0  0  0  0
    0.8747   -1.6700    0.1875 H   0  0  0  0  0  0  0  0  0  0  0  0
   -1.6029   -2.1528    0.1089 H   0  0  0  0  0  0  0  0  0  0  0  0
   -5.1496    2.6791   -0.1396 B   0  0  0  0  0  0  0  0  0  0  0  0
   -5.1623    1.8871   -1.2502 F   0  0  0  0  0  0  0  0  0  0  0  0
   -3.6419    3.4222   -0.2755 F   0  0  0  0  0  0  0  0  0  0  0  0
   -5.9833    3.7282   -0.1250 F   0  0  0  0  0  0  0  0  0  0  0  0
   -5.0015    1.9825    1.0237 F   0  0  0  0  0  0  0  0  0  0  0  0
  1 11  2  0  0  0  0
  2  1  1  0  0  0  0
  3  2  1  0  0  0  0
  4  5  2  0  0  0  0
  4  1  1  0  0  0  0
  5  6  1  0  0  0  0
  6  7  1  0  0  0  0
  6 10  2  0  0  0  0
  7  9  2  0  0  0  0
  8  7  2  0  0  0  0
 10 14  1  0  0  0  0
 11 15  1  0  0  0  0
 11 10  1  0  0  0  0
 13  5  1  0  0  0  0
 16 19  1  0  0  0  0
 16 20  1  0  0  0  0
 17 16  1  0  0  0  0
 18 12  1  0  0  0  0
M  RAD  3   2   2   3   3   4   2
M  END
