Coordinates from ORCA-job 4-NO2PhN2+~BF4-_B3LYPG-6-31G_dp-CH-Scan-d09-49-n800
 OpenBabel11261918593D

 20 18  0  0  0  0  0  0  0  0999 V2000
   -1.5956   -0.0360    0.0476 C   0  0  0  0  0  0  0  0  0  0  0  0
   -3.0010   -0.0918    0.0179 N   0  0  0  0  0  0  0  0  0  0  0  0
   -4.1170   -0.0490   -0.0034 N   0  0  0  0  0  0  0  0  0  0  0  0
   -1.1317    1.2785    0.0862 C   0  0  0  0  0  0  0  0  0  0  0  0
    0.2963    1.2787    0.1170 C   0  0  0  0  0  0  0  0  0  0  0  0
    1.0324    0.1036    0.1088 C   0  0  0  0  0  0  0  0  0  0  0  0
    2.5176    0.1757    0.1439 N   0  0  0  0  0  0  0  0  0  0  0  0
    3.0345    1.2878    0.1866 O   0  0  0  0  0  0  0  0  0  0  0  0
    3.1379   -0.8876    0.1276 O   0  0  0  0  0  0  0  0  0  0  0  0
    0.4603   -1.1880    0.0681 C   0  0  0  0  0  0  0  0  0  0  0  0
   -0.9113   -1.2805    0.0355 C   0  0  0  0  0  0  0  0  0  0  0  0
   -4.4893    4.5706   -0.2569 H   0  0  0  0  0  0  0  0  0  0  0  0
    0.8467    2.2151    0.1483 H   0  0  0  0  0  0  0  0  0  0  0  0
    1.1013   -2.0591    0.0633 H   0  0  0  0  0  0  0  0  0  0  0  0
   -1.4243   -2.2376    0.0027 H   0  0  0  0  0  0  0  0  0  0  0  0
   -6.1004    2.6577   -0.1994 B   0  0  0  0  0  0  0  0  0  0  0  0
   -5.9059    2.0138   -1.3393 F   0  0  0  0  0  0  0  0  0  0  0  0
   -5.2199    4.5374   -0.8325 F   0  0  0  0  0  0  0  0  0  0  0  0
   -7.2884    3.1508    0.0967 F   0  0  0  0  0  0  0  0  0  0  0  0
   -5.1733    2.5593    0.7575 F   0  0  0  0  0  0  0  0  0  0  0  0
  1  4  1  0  0  0  0
  2  1  1  0  0  0  0
  3  2  1  0  0  0  0
  4  5  2  0  0  0  0
  5 13  1  0  0  0  0
  6  5  1  0  0  0  0
  6  7  1  0  0  0  0
  7  8  2  0  0  0  0
  9  7  2  0  0  0  0
 10  6  2  0  0  0  0
 11  1  2  0  0  0  0
 11 10  1  0  0  0  0
 14 10  1  0  0  0  0
 15 11  1  0  0  0  0
 16 19  1  0  0  0  0
 16 20  1  0  0  0  0
 17 16  1  0  0  0  0
 18 12  1  0  0  0  0
M  RAD  3   2   2   3   3   4   2
M  END
