Coordinates from ORCA-job 4-NO2PhN2+~BF4-_B3LYPG-6-31G_dp-CH-Scan-d09-49-n800
 OpenBabel11261918593D

 20 18  0  0  0  0  0  0  0  0999 V2000
   -1.8895   -0.0563   -0.0054 C   0  0  0  0  0  0  0  0  0  0  0  0
   -3.2720   -0.2740   -0.0351 N   0  0  0  0  0  0  0  0  0  0  0  0
   -4.3805   -0.3937   -0.0623 N   0  0  0  0  0  0  0  0  0  0  0  0
   -1.5337    1.2963   -0.0687 C   0  0  0  0  0  0  0  0  0  0  0  0
   -0.1171    1.4335   -0.0341 C   0  0  0  0  0  0  0  0  0  0  0  0
    0.7263    0.3356    0.0508 C   0  0  0  0  0  0  0  0  0  0  0  0
    2.1977    0.5520    0.0823 N   0  0  0  0  0  0  0  0  0  0  0  0
    2.6039    1.7083    0.0334 O   0  0  0  0  0  0  0  0  0  0  0  0
    2.9134   -0.4460    0.1568 O   0  0  0  0  0  0  0  0  0  0  0  0
    0.2764   -0.9997    0.1105 C   0  0  0  0  0  0  0  0  0  0  0  0
   -1.0812   -1.2206    0.0822 C   0  0  0  0  0  0  0  0  0  0  0  0
   -3.2860    3.3814   -0.2093 H   0  0  0  0  0  0  0  0  0  0  0  0
    0.3418    2.4167   -0.0743 H   0  0  0  0  0  0  0  0  0  0  0  0
    0.9934   -1.8066    0.1762 H   0  0  0  0  0  0  0  0  0  0  0  0
   -1.5007   -2.2213    0.1249 H   0  0  0  0  0  0  0  0  0  0  0  0
   -5.6385    2.6718   -0.1808 B   0  0  0  0  0  0  0  0  0  0  0  0
   -5.3434    2.0068   -1.3024 F   0  0  0  0  0  0  0  0  0  0  0  0
   -4.0613    3.9110   -0.2438 F   0  0  0  0  0  0  0  0  0  0  0  0
   -6.5661    3.6155   -0.2027 F   0  0  0  0  0  0  0  0  0  0  0  0
   -5.3139    2.0886    0.9778 F   0  0  0  0  0  0  0  0  0  0  0  0
  1 11  2  0  0  0  0
  2  1  1  0  0  0  0
  3  2  1  0  0  0  0
  4  5  2  0  0  0  0
  4  1  1  0  0  0  0
  5  6  1  0  0  0  0
  6  7  1  0  0  0  0
  6 10  2  0  0  0  0
  7  9  2  0  0  0  0
  8  7  2  0  0  0  0
 10 14  1  0  0  0  0
 11 10  1  0  0  0  0
 11 15  1  0  0  0  0
 13  5  1  0  0  0  0
 16 20  1  0  0  0  0
 17 16  1  0  0  0  0
 18 12  1  0  0  0  0
 19 16  1  0  0  0  0
M  RAD  3   2   2   3   3   4   2
M  END
