Coordinates from ORCA-job 4-NO2PhN2+~BF4-_B3LYPG-6-31G_dp-CH-Scan-d09-49-n800
 OpenBabel11261918593D

 20 18  0  0  0  0  0  0  0  0999 V2000
   -1.6372   -0.0564    0.0391 C   0  0  0  0  0  0  0  0  0  0  0  0
   -3.0409   -0.1427    0.0060 N   0  0  0  0  0  0  0  0  0  0  0  0
   -4.1575   -0.1275   -0.0174 N   0  0  0  0  0  0  0  0  0  0  0  0
   -1.1986    1.2669    0.0770 C   0  0  0  0  0  0  0  0  0  0  0  0
    0.2289    1.2945    0.1119 C   0  0  0  0  0  0  0  0  0  0  0  0
    0.9881    0.1341    0.1066 C   0  0  0  0  0  0  0  0  0  0  0  0
    2.4715    0.2353    0.1452 N   0  0  0  0  0  0  0  0  0  0  0  0
    2.9664    1.3575    0.1839 O   0  0  0  0  0  0  0  0  0  0  0  0
    3.1124   -0.8157    0.1342 O   0  0  0  0  0  0  0  0  0  0  0  0
    0.4412   -1.1683    0.0661 C   0  0  0  0  0  0  0  0  0  0  0  0
   -0.9282   -1.2872    0.0305 C   0  0  0  0  0  0  0  0  0  0  0  0
   -4.3174    4.4849   -0.2668 H   0  0  0  0  0  0  0  0  0  0  0  0
    0.7610    2.2414    0.1439 H   0  0  0  0  0  0  0  0  0  0  0  0
    1.0988   -2.0269    0.0641 H   0  0  0  0  0  0  0  0  0  0  0  0
   -1.4224   -2.2542   -0.0020 H   0  0  0  0  0  0  0  0  0  0  0  0
   -6.0393    2.6587   -0.1820 B   0  0  0  0  0  0  0  0  0  0  0  0
   -5.8817    1.9932   -1.3156 F   0  0  0  0  0  0  0  0  0  0  0  0
   -5.0565    4.4760   -0.8324 F   0  0  0  0  0  0  0  0  0  0  0  0
   -7.1959    3.2265    0.1050 F   0  0  0  0  0  0  0  0  0  0  0  0
   -5.1238    2.5095    0.7790 F   0  0  0  0  0  0  0  0  0  0  0  0
  1  4  1  0  0  0  0
  2  1  1  0  0  0  0
  3  2  1  0  0  0  0
  4  5  2  0  0  0  0
  5 13  1  0  0  0  0
  6  5  1  0  0  0  0
  6  7  1  0  0  0  0
  7  8  2  0  0  0  0
  9  7  2  0  0  0  0
 10  6  2  0  0  0  0
 11  1  2  0  0  0  0
 11 10  1  0  0  0  0
 14 10  1  0  0  0  0
 15 11  1  0  0  0  0
 16 19  1  0  0  0  0
 16 20  1  0  0  0  0
 17 16  1  0  0  0  0
 18 12  1  0  0  0  0
M  RAD  3   2   2   3   3   4   2
M  END
