Coordinates from ORCA-job 4-NO2PhN2+~BF4-_B3LYPG-6-31G_dp-CH-Scan-d09-49-n800
 OpenBabel11261918593D

 20 18  0  0  0  0  0  0  0  0999 V2000
   -1.9523   -0.0408   -0.0144 C   0  0  0  0  0  0  0  0  0  0  0  0
   -3.3285   -0.2849   -0.0516 N   0  0  0  0  0  0  0  0  0  0  0  0
   -4.4320   -0.4382   -0.0860 N   0  0  0  0  0  0  0  0  0  0  0  0
   -1.6046    1.3150   -0.0788 C   0  0  0  0  0  0  0  0  0  0  0  0
   -0.1925    1.4712   -0.0392 C   0  0  0  0  0  0  0  0  0  0  0  0
    0.6635    0.3831    0.0511 C   0  0  0  0  0  0  0  0  0  0  0  0
    2.1321    0.6178    0.0864 N   0  0  0  0  0  0  0  0  0  0  0  0
    2.5233    1.7788    0.0316 O   0  0  0  0  0  0  0  0  0  0  0  0
    2.8588   -0.3716    0.1624 O   0  0  0  0  0  0  0  0  0  0  0  0
    0.2284   -0.9555    0.1126 C   0  0  0  0  0  0  0  0  0  0  0  0
   -1.1268   -1.1919    0.0795 C   0  0  0  0  0  0  0  0  0  0  0  0
   -3.1483    3.1175   -0.2091 H   0  0  0  0  0  0  0  0  0  0  0  0
    0.2532    2.4600   -0.0801 H   0  0  0  0  0  0  0  0  0  0  0  0
    0.9536   -1.7548    0.1831 H   0  0  0  0  0  0  0  0  0  0  0  0
   -1.5342   -2.1973    0.1232 H   0  0  0  0  0  0  0  0  0  0  0  0
   -5.4780    2.6801   -0.1670 B   0  0  0  0  0  0  0  0  0  0  0  0
   -5.2947    1.9663   -1.2899 F   0  0  0  0  0  0  0  0  0  0  0  0
   -3.8873    3.7151   -0.2546 F   0  0  0  0  0  0  0  0  0  0  0  0
   -6.3478    3.6831   -0.1723 F   0  0  0  0  0  0  0  0  0  0  0  0
   -5.2169    2.0464    0.9893 F   0  0  0  0  0  0  0  0  0  0  0  0
  1 11  2  0  0  0  0
  2  1  1  0  0  0  0
  3  2  1  0  0  0  0
  4  5  2  0  0  0  0
  4  1  1  0  0  0  0
  5  6  1  0  0  0  0
  6  7  1  0  0  0  0
  6 10  2  0  0  0  0
  7  9  2  0  0  0  0
  8  7  2  0  0  0  0
 10 14  1  0  0  0  0
 11 10  1  0  0  0  0
 11 15  1  0  0  0  0
 13  5  1  0  0  0  0
 16 20  1  0  0  0  0
 17 16  1  0  0  0  0
 18 12  1  0  0  0  0
 19 16  1  0  0  0  0
M  RAD  3   2   2   3   3   4   2
M  END
