Coordinates from ORCA-job 4-NO2PhN2+~BF4-_B3LYPG-6-31G_dp-CH-Scan-d09-49-n800
 OpenBabel11261918593D

 20 18  0  0  0  0  0  0  0  0999 V2000
   -2.0427   -0.0196   -0.0346 C   0  0  0  0  0  0  0  0  0  0  0  0
   -3.4108   -0.2959   -0.0768 N   0  0  0  0  0  0  0  0  0  0  0  0
   -4.5083   -0.4799   -0.1134 N   0  0  0  0  0  0  0  0  0  0  0  0
   -1.7014    1.3392   -0.1006 C   0  0  0  0  0  0  0  0  0  0  0  0
   -0.2972    1.5209   -0.0501 C   0  0  0  0  0  0  0  0  0  0  0  0
    0.5745    0.4457    0.0513 C   0  0  0  0  0  0  0  0  0  0  0  0
    2.0384    0.7047    0.1003 N   0  0  0  0  0  0  0  0  0  0  0  0
    2.4091    1.8720    0.0466 O   0  0  0  0  0  0  0  0  0  0  0  0
    2.7792   -0.2736    0.1766 O   0  0  0  0  0  0  0  0  0  0  0  0
    0.1575   -0.8963    0.1116 C   0  0  0  0  0  0  0  0  0  0  0  0
   -1.1952   -1.1517    0.0683 C   0  0  0  0  0  0  0  0  0  0  0  0
   -2.9683    2.7851   -0.2223 H   0  0  0  0  0  0  0  0  0  0  0  0
    0.1299    2.5173   -0.0901 H   0  0  0  0  0  0  0  0  0  0  0  0
    0.8921   -1.6863    0.1898 H   0  0  0  0  0  0  0  0  0  0  0  0
   -1.5872   -2.1629    0.1112 H   0  0  0  0  0  0  0  0  0  0  0  0
   -5.2205    2.6803   -0.1434 B   0  0  0  0  0  0  0  0  0  0  0  0
   -5.1998    1.9033   -1.2577 F   0  0  0  0  0  0  0  0  0  0  0  0
   -3.6838    3.4728   -0.2771 F   0  0  0  0  0  0  0  0  0  0  0  0
   -6.0509    3.7279   -0.1306 F   0  0  0  0  0  0  0  0  0  0  0  0
   -5.0457    1.9962    1.0171 F   0  0  0  0  0  0  0  0  0  0  0  0
  1 11  2  0  0  0  0
  2  1  1  0  0  0  0
  3  2  1  0  0  0  0
  4  5  2  0  0  0  0
  4  1  1  0  0  0  0
  5  6  1  0  0  0  0
  6  7  1  0  0  0  0
  6 10  2  0  0  0  0
  7  9  2  0  0  0  0
  8  7  2  0  0  0  0
 10 14  1  0  0  0  0
 11 15  1  0  0  0  0
 11 10  1  0  0  0  0
 13  5  1  0  0  0  0
 16 19  1  0  0  0  0
 16 20  1  0  0  0  0
 17 16  1  0  0  0  0
 18 12  1  0  0  0  0
M  RAD  3   2   2   3   3   4   2
M  END
