Coordinates from ORCA-job 4-NO2PhN2+~BF4-_B3LYPG-6-31G_dp-CH-Scan-d09-49-n800
 OpenBabel11261918593D

 20 18  0  0  0  0  0  0  0  0999 V2000
   -1.7920   -0.0822    0.0210 C   0  0  0  0  0  0  0  0  0  0  0  0
   -3.1844   -0.2573   -0.0077 N   0  0  0  0  0  0  0  0  0  0  0  0
   -4.2984   -0.3242   -0.0296 N   0  0  0  0  0  0  0  0  0  0  0  0
   -1.4214    1.2653    0.0117 C   0  0  0  0  0  0  0  0  0  0  0  0
    0.0014    1.3707    0.0434 C   0  0  0  0  0  0  0  0  0  0  0  0
    0.8235    0.2543    0.0764 C   0  0  0  0  0  0  0  0  0  0  0  0
    2.2991    0.4392    0.1074 N   0  0  0  0  0  0  0  0  0  0  0  0
    2.7302    1.5879    0.1007 O   0  0  0  0  0  0  0  0  0  0  0  0
    2.9962   -0.5747    0.1348 O   0  0  0  0  0  0  0  0  0  0  0  0
    0.3486   -1.0753    0.0826 C   0  0  0  0  0  0  0  0  0  0  0  0
   -1.0126   -1.2691    0.0543 C   0  0  0  0  0  0  0  0  0  0  0  0
   -3.6130    3.9100   -0.2283 H   0  0  0  0  0  0  0  0  0  0  0  0
    0.4813    2.3453    0.0419 H   0  0  0  0  0  0  0  0  0  0  0  0
    1.0513   -1.8969    0.1092 H   0  0  0  0  0  0  0  0  0  0  0  0
   -1.4527   -2.2622    0.0573 H   0  0  0  0  0  0  0  0  0  0  0  0
   -5.8202    2.6547   -0.1786 B   0  0  0  0  0  0  0  0  0  0  0  0
   -5.5940    1.9953   -1.3096 F   0  0  0  0  0  0  0  0  0  0  0  0
   -4.4309    4.2120   -0.5575 F   0  0  0  0  0  0  0  0  0  0  0  0
   -6.8683    3.4507   -0.0720 F   0  0  0  0  0  0  0  0  0  0  0  0
   -5.1747    2.2561    0.9189 F   0  0  0  0  0  0  0  0  0  0  0  0
  1 11  1  0  0  0  0
  2  1  1  0  0  0  0
  3  2  1  0  0  0  0
  4  1  2  0  0  0  0
  4  5  1  0  0  0  0
  5  6  2  0  0  0  0
  6 10  1  0  0  0  0
  6  7  1  0  0  0  0
  7  9  2  0  0  0  0
  8  7  2  0  0  0  0
 10 14  1  0  0  0  0
 11 15  1  0  0  0  0
 11 10  2  0  0  0  0
 13  5  1  0  0  0  0
 16 19  1  0  0  0  0
 16 20  1  0  0  0  0
 17 16  1  0  0  0  0
 18 12  1  0  0  0  0
M  RAD  3   2   2   3   3   4   2
M  END
