Coordinates from ORCA-job 4-NO2PhN2+~BF4-_B3LYPG-6-31G_dp-CH-Scan-d09-49-n800
 OpenBabel11261918593D

 20 18  0  0  0  0  0  0  0  0999 V2000
   -1.7577   -0.0808    0.0198 C   0  0  0  0  0  0  0  0  0  0  0  0
   -3.1533   -0.2383   -0.0122 N   0  0  0  0  0  0  0  0  0  0  0  0
   -4.2684   -0.2867   -0.0364 N   0  0  0  0  0  0  0  0  0  0  0  0
   -1.3752    1.2624    0.0202 C   0  0  0  0  0  0  0  0  0  0  0  0
    0.0489    1.3531    0.0553 C   0  0  0  0  0  0  0  0  0  0  0  0
    0.8594    0.2281    0.0829 C   0  0  0  0  0  0  0  0  0  0  0  0
    2.3368    0.3970    0.1184 N   0  0  0  0  0  0  0  0  0  0  0  0
    2.7802    1.5411    0.1240 O   0  0  0  0  0  0  0  0  0  0  0  0
    3.0233   -0.6241    0.1472 O   0  0  0  0  0  0  0  0  0  0  0  0
    0.3709   -1.0971    0.0795 C   0  0  0  0  0  0  0  0  0  0  0  0
   -0.9921   -1.2768    0.0468 C   0  0  0  0  0  0  0  0  0  0  0  0
   -3.7501    4.0531   -0.2363 H   0  0  0  0  0  0  0  0  0  0  0  0
    0.5389    2.3227    0.0611 H   0  0  0  0  0  0  0  0  0  0  0  0
    1.0653   -1.9258    0.1024 H   0  0  0  0  0  0  0  0  0  0  0  0
   -1.4425   -2.2653    0.0424 H   0  0  0  0  0  0  0  0  0  0  0  0
   -5.8750    2.6547   -0.1725 B   0  0  0  0  0  0  0  0  0  0  0  0
   -5.6783    1.9923   -1.3057 F   0  0  0  0  0  0  0  0  0  0  0  0
   -4.5622    4.2745   -0.6348 F   0  0  0  0  0  0  0  0  0  0  0  0
   -6.9489    3.4072   -0.0195 F   0  0  0  0  0  0  0  0  0  0  0  0
   -5.1510    2.3080    0.8936 F   0  0  0  0  0  0  0  0  0  0  0  0
  1  4  2  0  0  0  0
  1 11  1  0  0  0  0
  2  1  1  0  0  0  0
  3  2  1  0  0  0  0
  4  5  1  0  0  0  0
  5 13  1  0  0  0  0
  5  6  2  0  0  0  0
  6  7  1  0  0  0  0
  7  8  2  0  0  0  0
  7  9  2  0  0  0  0
 10  6  1  0  0  0  0
 10 14  1  0  0  0  0
 11 10  2  0  0  0  0
 15 11  1  0  0  0  0
 16 19  1  0  0  0  0
 16 20  1  0  0  0  0
 17 16  1  0  0  0  0
 18 12  1  0  0  0  0
M  RAD  3   2   2   3   3   4   2
M  END
