Coordinates from ORCA-job 4-NO2PhN2+~BF4-_B3LYPG-6-31G_dp-CH-Scan-d09-49-n800
 OpenBabel11261918593D

 20 18  0  0  0  0  0  0  0  0999 V2000
   -1.9964   -0.0330   -0.0351 C   0  0  0  0  0  0  0  0  0  0  0  0
   -3.3681   -0.2948   -0.0795 N   0  0  0  0  0  0  0  0  0  0  0  0
   -4.4685   -0.4640   -0.1179 N   0  0  0  0  0  0  0  0  0  0  0  0
   -1.6541    1.3249   -0.1032 C   0  0  0  0  0  0  0  0  0  0  0  0
   -0.2461    1.4956   -0.0513 C   0  0  0  0  0  0  0  0  0  0  0  0
    0.6188    0.4156    0.0528 C   0  0  0  0  0  0  0  0  0  0  0  0
    2.0845    0.6648    0.1025 N   0  0  0  0  0  0  0  0  0  0  0  0
    2.4638    1.8298    0.0532 O   0  0  0  0  0  0  0  0  0  0  0  0
    2.8192   -0.3175    0.1899 O   0  0  0  0  0  0  0  0  0  0  0  0
    0.1946   -0.9253    0.1155 C   0  0  0  0  0  0  0  0  0  0  0  0
   -1.1588   -1.1733    0.0710 C   0  0  0  0  0  0  0  0  0  0  0  0
   -3.0560    2.9379   -0.2415 H   0  0  0  0  0  0  0  0  0  0  0  0
    0.1893    2.4887   -0.0925 H   0  0  0  0  0  0  0  0  0  0  0  0
    0.9253   -1.7185    0.1960 H   0  0  0  0  0  0  0  0  0  0  0  0
   -1.5572   -2.1822    0.1153 H   0  0  0  0  0  0  0  0  0  0  0  0
   -5.3556    2.6850   -0.1403 B   0  0  0  0  0  0  0  0  0  0  0  0
   -5.2884    1.9368   -1.2613 F   0  0  0  0  0  0  0  0  0  0  0  0
   -3.7760    3.5814   -0.2940 F   0  0  0  0  0  0  0  0  0  0  0  0
   -6.1903    3.7221   -0.1157 F   0  0  0  0  0  0  0  0  0  0  0  0
   -5.1110    2.0253    1.0122 F   0  0  0  0  0  0  0  0  0  0  0  0
  1 11  2  0  0  0  0
  2  1  1  0  0  0  0
  3  2  1  0  0  0  0
  4  5  2  0  0  0  0
  4  1  1  0  0  0  0
  5  6  1  0  0  0  0
  6  7  1  0  0  0  0
  6 10  2  0  0  0  0
  7  9  2  0  0  0  0
  8  7  2  0  0  0  0
 10 14  1  0  0  0  0
 11 15  1  0  0  0  0
 11 10  1  0  0  0  0
 13  5  1  0  0  0  0
 16 19  1  0  0  0  0
 16 20  1  0  0  0  0
 17 16  1  0  0  0  0
 18 12  1  0  0  0  0
M  RAD  3   2   2   3   3   4   2
M  END
