Coordinates from ORCA-job 4-NO2PhN2+~BF4-_B3LYPG-6-31G_dp-CH-Scan-d09-49-n800
 OpenBabel11261918593D

 20 18  0  0  0  0  0  0  0  0999 V2000
   -1.7176   -0.0788    0.0222 C   0  0  0  0  0  0  0  0  0  0  0  0
   -3.1167   -0.2121   -0.0166 N   0  0  0  0  0  0  0  0  0  0  0  0
   -4.2328   -0.2334   -0.0457 N   0  0  0  0  0  0  0  0  0  0  0  0
   -1.3196    1.2586    0.0419 C   0  0  0  0  0  0  0  0  0  0  0  0
    0.1060    1.3304    0.0821 C   0  0  0  0  0  0  0  0  0  0  0  0
    0.9012    0.1943    0.0965 C   0  0  0  0  0  0  0  0  0  0  0  0
    2.3806    0.3427    0.1382 N   0  0  0  0  0  0  0  0  0  0  0  0
    2.8398    1.4804    0.1592 O   0  0  0  0  0  0  0  0  0  0  0  0
    3.0536   -0.6879    0.1537 O   0  0  0  0  0  0  0  0  0  0  0  0
    0.3954   -1.1245    0.0739 C   0  0  0  0  0  0  0  0  0  0  0  0
   -0.9697   -1.2861    0.0352 C   0  0  0  0  0  0  0  0  0  0  0  0
   -3.9744    4.2482   -0.2507 H   0  0  0  0  0  0  0  0  0  0  0  0
    0.6087    2.2934    0.1023 H   0  0  0  0  0  0  0  0  0  0  0  0
    1.0790   -1.9623    0.0875 H   0  0  0  0  0  0  0  0  0  0  0  0
   -1.4334   -2.2684    0.0160 H   0  0  0  0  0  0  0  0  0  0  0  0
   -5.9174    2.6513   -0.1653 B   0  0  0  0  0  0  0  0  0  0  0  0
   -5.7935    1.9826   -1.3027 F   0  0  0  0  0  0  0  0  0  0  0  0
   -4.7425    4.3500   -0.7670 F   0  0  0  0  0  0  0  0  0  0  0  0
   -7.0200    3.3301    0.0925 F   0  0  0  0  0  0  0  0  0  0  0  0
   -5.0579    2.3907    0.8231 F   0  0  0  0  0  0  0  0  0  0  0  0
  1 11  2  0  0  0  0
  1  4  1  0  0  0  0
  2  1  1  0  0  0  0
  3  2  1  0  0  0  0
  4  5  2  0  0  0  0
  5  6  1  0  0  0  0
  5 13  1  0  0  0  0
  6  7  1  0  0  0  0
  7  9  2  0  0  0  0
  7  8  2  0  0  0  0
 10 14  1  0  0  0  0
 10  6  2  0  0  0  0
 11 10  1  0  0  0  0
 15 11  1  0  0  0  0
 16 19  1  0  0  0  0
 16 20  1  0  0  0  0
 17 16  1  0  0  0  0
 18 12  1  0  0  0  0
M  RAD  3   2   2   3   3   4   2
M  END
