Coordinates from ORCA-job 4-NO2PhN2+~BF4-_B3LYPG-6-31G_dp-CH-Scan-d09-49-n800
 OpenBabel11261918593D

 20 18  0  0  0  0  0  0  0  0999 V2000
   -2.0590   -0.0156   -0.0375 C   0  0  0  0  0  0  0  0  0  0  0  0
   -3.4256   -0.2976   -0.0799 N   0  0  0  0  0  0  0  0  0  0  0  0
   -4.5218   -0.4875   -0.1171 N   0  0  0  0  0  0  0  0  0  0  0  0
   -1.7172    1.3434   -0.1035 C   0  0  0  0  0  0  0  0  0  0  0  0
   -0.3147    1.5292   -0.0532 C   0  0  0  0  0  0  0  0  0  0  0  0
    0.5593    0.4557    0.0485 C   0  0  0  0  0  0  0  0  0  0  0  0
    2.0225    0.7181    0.0975 N   0  0  0  0  0  0  0  0  0  0  0  0
    2.3898    1.8868    0.0508 O   0  0  0  0  0  0  0  0  0  0  0  0
    2.7649   -0.2581    0.1815 O   0  0  0  0  0  0  0  0  0  0  0  0
    0.1447   -0.8864    0.1091 C   0  0  0  0  0  0  0  0  0  0  0  0
   -1.2079   -1.1444    0.0657 C   0  0  0  0  0  0  0  0  0  0  0  0
   -2.9364    2.7315   -0.2202 H   0  0  0  0  0  0  0  0  0  0  0  0
    0.1093    2.5269   -0.0934 H   0  0  0  0  0  0  0  0  0  0  0  0
    0.8805   -1.6753    0.1876 H   0  0  0  0  0  0  0  0  0  0  0  0
   -1.5976   -2.1564    0.1088 H   0  0  0  0  0  0  0  0  0  0  0  0
   -5.1721    2.6806   -0.1394 B   0  0  0  0  0  0  0  0  0  0  0  0
   -5.1748    1.8921   -1.2506 F   0  0  0  0  0  0  0  0  0  0  0  0
   -3.6548    3.4376   -0.2754 F   0  0  0  0  0  0  0  0  0  0  0  0
   -6.0037    3.7299   -0.1268 F   0  0  0  0  0  0  0  0  0  0  0  0
   -5.0163    1.9889    1.0236 F   0  0  0  0  0  0  0  0  0  0  0  0
  1 11  2  0  0  0  0
  2  1  1  0  0  0  0
  3  2  1  0  0  0  0
  4  5  2  0  0  0  0
  4  1  1  0  0  0  0
  5  6  1  0  0  0  0
  6  7  1  0  0  0  0
  6 10  2  0  0  0  0
  7  9  2  0  0  0  0
  8  7  2  0  0  0  0
 10 14  1  0  0  0  0
 11 15  1  0  0  0  0
 11 10  1  0  0  0  0
 13  5  1  0  0  0  0
 16 19  1  0  0  0  0
 16 20  1  0  0  0  0
 17 16  1  0  0  0  0
 18 12  1  0  0  0  0
M  RAD  3   2   2   3   3   4   2
M  END
