Coordinates from ORCA-job 4-NO2PhN2+~BF4-_B3LYPG-6-31G_dp-CH-Scan-d09-49-n800
 OpenBabel11261918593D

 20 18  0  0  0  0  0  0  0  0999 V2000
   -2.0413   -0.0213   -0.0361 C   0  0  0  0  0  0  0  0  0  0  0  0
   -3.4093   -0.2983   -0.0782 N   0  0  0  0  0  0  0  0  0  0  0  0
   -4.5067   -0.4830   -0.1148 N   0  0  0  0  0  0  0  0  0  0  0  0
   -1.7006    1.3376   -0.1027 C   0  0  0  0  0  0  0  0  0  0  0  0
   -0.2964    1.5196   -0.0523 C   0  0  0  0  0  0  0  0  0  0  0  0
    0.5756    0.4448    0.0497 C   0  0  0  0  0  0  0  0  0  0  0  0
    2.0394    0.7043    0.0987 N   0  0  0  0  0  0  0  0  0  0  0  0
    2.4095    1.8722    0.0518 O   0  0  0  0  0  0  0  0  0  0  0  0
    2.7803   -0.2733    0.1831 O   0  0  0  0  0  0  0  0  0  0  0  0
    0.1591   -0.8973    0.1108 C   0  0  0  0  0  0  0  0  0  0  0  0
   -1.1935   -1.1532    0.0675 C   0  0  0  0  0  0  0  0  0  0  0  0
   -2.9706    2.7874   -0.2253 H   0  0  0  0  0  0  0  0  0  0  0  0
    0.1305    2.5162   -0.0927 H   0  0  0  0  0  0  0  0  0  0  0  0
    0.8940   -1.6870    0.1894 H   0  0  0  0  0  0  0  0  0  0  0  0
   -1.5851   -2.1645    0.1108 H   0  0  0  0  0  0  0  0  0  0  0  0
   -5.2243    2.6829   -0.1411 B   0  0  0  0  0  0  0  0  0  0  0  0
   -5.2059    1.9038   -1.2537 F   0  0  0  0  0  0  0  0  0  0  0  0
   -3.6856    3.4747   -0.2800 F   0  0  0  0  0  0  0  0  0  0  0  0
   -6.0530    3.7317   -0.1292 F   0  0  0  0  0  0  0  0  0  0  0  0
   -5.0471    2.0019    1.0206 F   0  0  0  0  0  0  0  0  0  0  0  0
  1 11  2  0  0  0  0
  2  1  1  0  0  0  0
  3  2  1  0  0  0  0
  4  5  2  0  0  0  0
  4  1  1  0  0  0  0
  5  6  1  0  0  0  0
  6  7  1  0  0  0  0
  6 10  2  0  0  0  0
  7  9  2  0  0  0  0
  8  7  2  0  0  0  0
 10 14  1  0  0  0  0
 11 10  1  0  0  0  0
 11 15  1  0  0  0  0
 13  5  1  0  0  0  0
 16 19  1  0  0  0  0
 16 20  1  0  0  0  0
 17 16  1  0  0  0  0
 18 12  1  0  0  0  0
M  RAD  3   2   2   3   3   4   2
M  END
