Coordinates from ORCA-job 4-NO2PhN2+~BF4-_B3LYPG-6-31G_dp-CH-Scan-d09-49-n800
 OpenBabel11261918593D

 20 18  0  0  0  0  0  0  0  0999 V2000
   -2.1125    0.0075   -0.1139 C   0  0  0  0  0  0  0  0  0  0  0  0
   -3.4719   -0.2870   -0.2113 N   0  0  0  0  0  0  0  0  0  0  0  0
   -4.5605   -0.4966   -0.3029 N   0  0  0  0  0  0  0  0  0  0  0  0
   -1.7529    1.3595   -0.2209 C   0  0  0  0  0  0  0  0  0  0  0  0
   -0.3607    1.5593   -0.1232 C   0  0  0  0  0  0  0  0  0  0  0  0
    0.5087    0.4921    0.0612 C   0  0  0  0  0  0  0  0  0  0  0  0
    1.9680    0.7611    0.1594 N   0  0  0  0  0  0  0  0  0  0  0  0
    2.3344    1.9269    0.0655 O   0  0  0  0  0  0  0  0  0  0  0  0
    2.7052   -0.2076    0.3281 O   0  0  0  0  0  0  0  0  0  0  0  0
    0.0906   -0.8440    0.1634 C   0  0  0  0  0  0  0  0  0  0  0  0
   -1.2603   -1.1069    0.0734 C   0  0  0  0  0  0  0  0  0  0  0  0
   -2.8216    2.5488   -0.3704 H   0  0  0  0  0  0  0  0  0  0  0  0
    0.0578    2.5575   -0.1882 H   0  0  0  0  0  0  0  0  0  0  0  0
    0.8213   -1.6283    0.3085 H   0  0  0  0  0  0  0  0  0  0  0  0
   -1.6496   -2.1172    0.1441 H   0  0  0  0  0  0  0  0  0  0  0  0
   -5.0047    2.6633   -0.0484 B   0  0  0  0  0  0  0  0  0  0  0  0
   -5.2878    1.8670   -1.1362 F   0  0  0  0  0  0  0  0  0  0  0  0
   -3.6020    3.3244   -0.4295 F   0  0  0  0  0  0  0  0  0  0  0  0
   -5.8352    3.7052    0.1499 F   0  0  0  0  0  0  0  0  0  0  0  0
   -4.6971    1.9144    1.0675 F   0  0  0  0  0  0  0  0  0  0  0  0
  1 11  2  0  0  0  0
  2  1  1  0  0  0  0
  3  2  1  0  0  0  0
  4  5  2  0  0  0  0
  4  1  1  0  0  0  0
  5  6  1  0  0  0  0
  6  7  1  0  0  0  0
  6 10  2  0  0  0  0
  7  9  2  0  0  0  0
  8  7  2  0  0  0  0
 10 14  1  0  0  0  0
 11 15  1  0  0  0  0
 11 10  1  0  0  0  0
 13  5  1  0  0  0  0
 16 19  1  0  0  0  0
 16 20  1  0  0  0  0
 17 16  1  0  0  0  0
 18 12  1  0  0  0  0
M  RAD  3   2   2   3   3   4   2
M  END
