Coordinates from ORCA-job 4-NO2PhN2+~BF4-_B3LYPG-6-31G_dp-CH-Scan-d09-49-n800
 OpenBabel11261918593D

 20 18  0  0  0  0  0  0  0  0999 V2000
   -1.5919   -0.0344    0.0487 C   0  0  0  0  0  0  0  0  0  0  0  0
   -2.9974   -0.0883    0.0199 N   0  0  0  0  0  0  0  0  0  0  0  0
   -4.1134   -0.0443   -0.0024 N   0  0  0  0  0  0  0  0  0  0  0  0
   -1.1258    1.2793    0.0866 C   0  0  0  0  0  0  0  0  0  0  0  0
    0.3022    1.2773    0.1167 C   0  0  0  0  0  0  0  0  0  0  0  0
    1.0364    0.1010    0.1084 C   0  0  0  0  0  0  0  0  0  0  0  0
    2.5217    0.1707    0.1426 N   0  0  0  0  0  0  0  0  0  0  0  0
    3.0403    1.2819    0.1866 O   0  0  0  0  0  0  0  0  0  0  0  0
    3.1403   -0.8936    0.1276 O   0  0  0  0  0  0  0  0  0  0  0  0
    0.4621   -1.1897    0.0683 C   0  0  0  0  0  0  0  0  0  0  0  0
   -0.9096   -1.2801    0.0365 C   0  0  0  0  0  0  0  0  0  0  0  0
   -4.5045    4.5789   -0.2535 H   0  0  0  0  0  0  0  0  0  0  0  0
    0.8541    2.2128    0.1474 H   0  0  0  0  0  0  0  0  0  0  0  0
    1.1018   -2.0618    0.0634 H   0  0  0  0  0  0  0  0  0  0  0  0
   -1.4242   -2.2364    0.0043 H   0  0  0  0  0  0  0  0  0  0  0  0
   -6.1062    2.6581   -0.2016 B   0  0  0  0  0  0  0  0  0  0  0  0
   -5.9069    2.0163   -1.3418 F   0  0  0  0  0  0  0  0  0  0  0  0
   -5.2331    4.5428   -0.8315 F   0  0  0  0  0  0  0  0  0  0  0  0
   -7.2968    3.1456    0.0932 F   0  0  0  0  0  0  0  0  0  0  0  0
   -5.1800    2.5632    0.7566 F   0  0  0  0  0  0  0  0  0  0  0  0
  1  4  1  0  0  0  0
  2  1  1  0  0  0  0
  3  2  1  0  0  0  0
  4  5  2  0  0  0  0
  5 13  1  0  0  0  0
  6  5  1  0  0  0  0
  6  7  1  0  0  0  0
  7  8  2  0  0  0  0
  9  7  2  0  0  0  0
 10  6  2  0  0  0  0
 11  1  2  0  0  0  0
 11 10  1  0  0  0  0
 14 10  1  0  0  0  0
 15 11  1  0  0  0  0
 16 19  1  0  0  0  0
 16 20  1  0  0  0  0
 17 16  1  0  0  0  0
 18 12  1  0  0  0  0
M  RAD  3   2   2   3   3   4   2
M  END
