Coordinates from ORCA-job 4-NO2PhN2+~BF4-_B3LYPG-6-31G_dp-CH-Scan-d09-49-n800
 OpenBabel11261918593D

 20 18  0  0  0  0  0  0  0  0999 V2000
   -2.1115    0.0070   -0.1123 C   0  0  0  0  0  0  0  0  0  0  0  0
   -3.4710   -0.2874   -0.2085 N   0  0  0  0  0  0  0  0  0  0  0  0
   -4.5597   -0.4968   -0.2990 N   0  0  0  0  0  0  0  0  0  0  0  0
   -1.7525    1.3592   -0.2183 C   0  0  0  0  0  0  0  0  0  0  0  0
   -0.3599    1.5587   -0.1216 C   0  0  0  0  0  0  0  0  0  0  0  0
    0.5097    0.4913    0.0609 C   0  0  0  0  0  0  0  0  0  0  0  0
    1.9691    0.7603    0.1579 N   0  0  0  0  0  0  0  0  0  0  0  0
    2.3354    1.9262    0.0651 O   0  0  0  0  0  0  0  0  0  0  0  0
    2.7065   -0.2085    0.3247 O   0  0  0  0  0  0  0  0  0  0  0  0
    0.0918   -0.8449    0.1620 C   0  0  0  0  0  0  0  0  0  0  0  0
   -1.2592   -1.1078    0.0731 C   0  0  0  0  0  0  0  0  0  0  0  0
   -2.8242    2.5527   -0.3668 H   0  0  0  0  0  0  0  0  0  0  0  0
    0.0586    2.5569   -0.1860 H   0  0  0  0  0  0  0  0  0  0  0  0
    0.8227   -1.6293    0.3055 H   0  0  0  0  0  0  0  0  0  0  0  0
   -1.6484   -2.1181    0.1430 H   0  0  0  0  0  0  0  0  0  0  0  0
   -5.0082    2.6637   -0.0501 B   0  0  0  0  0  0  0  0  0  0  0  0
   -5.2851    1.8679   -1.1393 F   0  0  0  0  0  0  0  0  0  0  0  0
   -3.6022    3.3264   -0.4254 F   0  0  0  0  0  0  0  0  0  0  0  0
   -5.8386    3.7062    0.1441 F   0  0  0  0  0  0  0  0  0  0  0  0
   -4.7044    1.9157    1.0670 F   0  0  0  0  0  0  0  0  0  0  0  0
  1 11  2  0  0  0  0
  2  1  1  0  0  0  0
  3  2  1  0  0  0  0
  4  5  2  0  0  0  0
  4  1  1  0  0  0  0
  5  6  1  0  0  0  0
  6  7  1  0  0  0  0
  6 10  2  0  0  0  0
  7  9  2  0  0  0  0
  8  7  2  0  0  0  0
 10 14  1  0  0  0  0
 11 15  1  0  0  0  0
 11 10  1  0  0  0  0
 13  5  1  0  0  0  0
 16 19  1  0  0  0  0
 16 20  1  0  0  0  0
 17 16  1  0  0  0  0
 18 12  1  0  0  0  0
M  RAD  3   2   2   3   3   4   2
M  END
