Coordinates from ORCA-job 4-NO2PhN2+~BF4-_B3LYPG-6-31G_dp-CH-Scan-d09-49-n800
 OpenBabel11261918593D

 20 18  0  0  0  0  0  0  0  0999 V2000
   -1.7476   -0.0829    0.0159 C   0  0  0  0  0  0  0  0  0  0  0  0
   -3.1439   -0.2343   -0.0201 N   0  0  0  0  0  0  0  0  0  0  0  0
   -4.2593   -0.2744   -0.0481 N   0  0  0  0  0  0  0  0  0  0  0  0
   -1.3627    1.2595    0.0169 C   0  0  0  0  0  0  0  0  0  0  0  0
    0.0618    1.3469    0.0561 C   0  0  0  0  0  0  0  0  0  0  0  0
    0.8694    0.2199    0.0866 C   0  0  0  0  0  0  0  0  0  0  0  0
    2.3471    0.3853    0.1265 N   0  0  0  0  0  0  0  0  0  0  0  0
    2.7934    1.5282    0.1287 O   0  0  0  0  0  0  0  0  0  0  0  0
    3.0312   -0.6375    0.1553 O   0  0  0  0  0  0  0  0  0  0  0  0
    0.3778   -1.1042    0.0823 C   0  0  0  0  0  0  0  0  0  0  0  0
   -0.9854   -1.2810    0.0456 C   0  0  0  0  0  0  0  0  0  0  0  0
   -3.7964    4.0990   -0.2408 H   0  0  0  0  0  0  0  0  0  0  0  0
    0.5541    2.3154    0.0629 H   0  0  0  0  0  0  0  0  0  0  0  0
    1.0703   -1.9344    0.1078 H   0  0  0  0  0  0  0  0  0  0  0  0
   -1.4383   -2.2684    0.0404 H   0  0  0  0  0  0  0  0  0  0  0  0
   -5.8882    2.6553   -0.1678 B   0  0  0  0  0  0  0  0  0  0  0  0
   -5.7086    1.9963   -1.3054 F   0  0  0  0  0  0  0  0  0  0  0  0
   -4.6050    4.2960   -0.6583 F   0  0  0  0  0  0  0  0  0  0  0  0
   -6.9691    3.3917    0.0114 F   0  0  0  0  0  0  0  0  0  0  0  0
   -5.1318    2.3228    0.8803 F   0  0  0  0  0  0  0  0  0  0  0  0
  1  4  2  0  0  0  0
  1 11  1  0  0  0  0
  2  1  1  0  0  0  0
  3  2  1  0  0  0  0
  4  5  1  0  0  0  0
  5 13  1  0  0  0  0
  5  6  2  0  0  0  0
  6  7  1  0  0  0  0
  7  8  2  0  0  0  0
  7  9  2  0  0  0  0
 10  6  1  0  0  0  0
 10 14  1  0  0  0  0
 11 10  2  0  0  0  0
 15 11  1  0  0  0  0
 16 19  1  0  0  0  0
 16 20  1  0  0  0  0
 17 16  1  0  0  0  0
 18 12  1  0  0  0  0
M  RAD  3   2   2   3   3   4   2
M  END
