Coordinates from ORCA-job 4-NO2PhN2+~BF4-_B3LYPG-6-31G_dp-CH-Scan-d09-49-n800
 OpenBabel11261918593D

 20 18  0  0  0  0  0  0  0  0999 V2000
   -1.6050   -0.0409    0.0448 C   0  0  0  0  0  0  0  0  0  0  0  0
   -3.0101   -0.1027    0.0135 N   0  0  0  0  0  0  0  0  0  0  0  0
   -4.1262   -0.0639   -0.0076 N   0  0  0  0  0  0  0  0  0  0  0  0
   -1.1469    1.2757    0.0834 C   0  0  0  0  0  0  0  0  0  0  0  0
    0.2810    1.2822    0.1158 C   0  0  0  0  0  0  0  0  0  0  0  0
    1.0224    0.1103    0.1087 C   0  0  0  0  0  0  0  0  0  0  0  0
    2.5072    0.1891    0.1453 N   0  0  0  0  0  0  0  0  0  0  0  0
    3.0190    1.3036    0.1871 O   0  0  0  0  0  0  0  0  0  0  0  0
    3.1323   -0.8714    0.1303 O   0  0  0  0  0  0  0  0  0  0  0  0
    0.4560   -1.1838    0.0678 C   0  0  0  0  0  0  0  0  0  0  0  0
   -0.9151   -1.2824    0.0339 C   0  0  0  0  0  0  0  0  0  0  0  0
   -4.4505    4.5509   -0.2616 H   0  0  0  0  0  0  0  0  0  0  0  0
    0.8272    2.2210    0.1473 H   0  0  0  0  0  0  0  0  0  0  0  0
    1.1009   -2.0520    0.0640 H   0  0  0  0  0  0  0  0  0  0  0  0
   -1.4239   -2.2418    0.0009 H   0  0  0  0  0  0  0  0  0  0  0  0
   -6.0863    2.6575   -0.1944 B   0  0  0  0  0  0  0  0  0  0  0  0
   -5.9022    2.0091   -1.3336 F   0  0  0  0  0  0  0  0  0  0  0  0
   -5.1845    4.5242   -0.8333 F   0  0  0  0  0  0  0  0  0  0  0  0
   -7.2674    3.1664    0.1028 F   0  0  0  0  0  0  0  0  0  0  0  0
   -5.1590    2.5485    0.7610 F   0  0  0  0  0  0  0  0  0  0  0  0
  1  4  1  0  0  0  0
  2  1  1  0  0  0  0
  3  2  1  0  0  0  0
  4  5  2  0  0  0  0
  5 13  1  0  0  0  0
  6  5  1  0  0  0  0
  6  7  1  0  0  0  0
  7  8  2  0  0  0  0
  9  7  2  0  0  0  0
 10  6  2  0  0  0  0
 11  1  2  0  0  0  0
 11 10  1  0  0  0  0
 14 10  1  0  0  0  0
 15 11  1  0  0  0  0
 16 19  1  0  0  0  0
 16 20  1  0  0  0  0
 17 16  1  0  0  0  0
 18 12  1  0  0  0  0
M  RAD  3   2   2   3   3   4   2
M  END
