Coordinates from ORCA-job 4-NO2PhN2+~BF4-_B3LYPG-6-31G_dp-CH-Scan-d09-49-n800
 OpenBabel11261918593D

 20 18  0  0  0  0  0  0  0  0999 V2000
   -1.7031   -0.0773    0.0265 C   0  0  0  0  0  0  0  0  0  0  0  0
   -3.1029   -0.2035   -0.0104 N   0  0  0  0  0  0  0  0  0  0  0  0
   -4.2192   -0.2210   -0.0379 N   0  0  0  0  0  0  0  0  0  0  0  0
   -1.2992    1.2582    0.0504 C   0  0  0  0  0  0  0  0  0  0  0  0
    0.1269    1.3231    0.0890 C   0  0  0  0  0  0  0  0  0  0  0  0
    0.9168    0.1833    0.0985 C   0  0  0  0  0  0  0  0  0  0  0  0
    2.3969    0.3244    0.1393 N   0  0  0  0  0  0  0  0  0  0  0  0
    2.8617    1.4598    0.1627 O   0  0  0  0  0  0  0  0  0  0  0  0
    3.0651   -0.7094    0.1475 O   0  0  0  0  0  0  0  0  0  0  0  0
    0.4047   -1.1332    0.0717 C   0  0  0  0  0  0  0  0  0  0  0  0
   -0.9611   -1.2884    0.0340 C   0  0  0  0  0  0  0  0  0  0  0  0
   -4.0377    4.3000   -0.2509 H   0  0  0  0  0  0  0  0  0  0  0  0
    0.6341    2.2838    0.1121 H   0  0  0  0  0  0  0  0  0  0  0  0
    1.0845   -1.9742    0.0813 H   0  0  0  0  0  0  0  0  0  0  0  0
   -1.4294   -2.2684    0.0118 H   0  0  0  0  0  0  0  0  0  0  0  0
   -5.9396    2.6542   -0.1693 B   0  0  0  0  0  0  0  0  0  0  0  0
   -5.8099    1.9831   -1.3043 F   0  0  0  0  0  0  0  0  0  0  0  0
   -4.7982    4.3751   -0.7826 F   0  0  0  0  0  0  0  0  0  0  0  0
   -7.0520    3.3156    0.0916 F   0  0  0  0  0  0  0  0  0  0  0  0
   -5.0697    2.4142    0.8151 F   0  0  0  0  0  0  0  0  0  0  0  0
  1 11  2  0  0  0  0
  1  4  1  0  0  0  0
  2  1  1  0  0  0  0
  3  2  1  0  0  0  0
  4  5  2  0  0  0  0
  5  6  1  0  0  0  0
  5 13  1  0  0  0  0
  6  7  1  0  0  0  0
  7  9  2  0  0  0  0
  7  8  2  0  0  0  0
 10 14  1  0  0  0  0
 10  6  2  0  0  0  0
 11 10  1  0  0  0  0
 15 11  1  0  0  0  0
 16 19  1  0  0  0  0
 16 20  1  0  0  0  0
 17 16  1  0  0  0  0
 18 12  1  0  0  0  0
M  RAD  3   2   2   3   3   4   2
M  END
