Coordinates from ORCA-job 4-NO2PhN2+~BF4-_B3LYPG-6-31G_dp-CH-Scan-d09-49-n800
 OpenBabel11261918593D

 20 18  0  0  0  0  0  0  0  0999 V2000
   -1.9407   -0.0428   -0.0071 C   0  0  0  0  0  0  0  0  0  0  0  0
   -3.3181   -0.2819   -0.0394 N   0  0  0  0  0  0  0  0  0  0  0  0
   -4.4224   -0.4307   -0.0699 N   0  0  0  0  0  0  0  0  0  0  0  0
   -1.5911    1.3125   -0.0695 C   0  0  0  0  0  0  0  0  0  0  0  0
   -0.1779    1.4646   -0.0353 C   0  0  0  0  0  0  0  0  0  0  0  0
    0.6756    0.3742    0.0488 C   0  0  0  0  0  0  0  0  0  0  0  0
    2.1449    0.6048    0.0785 N   0  0  0  0  0  0  0  0  0  0  0  0
    2.5391    1.7650    0.0287 O   0  0  0  0  0  0  0  0  0  0  0  0
    2.8694   -0.3865    0.1536 O   0  0  0  0  0  0  0  0  0  0  0  0
    0.2375   -0.9638    0.1090 C   0  0  0  0  0  0  0  0  0  0  0  0
   -1.1184   -1.1968    0.0808 C   0  0  0  0  0  0  0  0  0  0  0  0
   -3.1750    3.1668   -0.1954 H   0  0  0  0  0  0  0  0  0  0  0  0
    0.2704    2.4522   -0.0756 H   0  0  0  0  0  0  0  0  0  0  0  0
    0.9610   -1.7649    0.1746 H   0  0  0  0  0  0  0  0  0  0  0  0
   -1.5282   -2.2013    0.1237 H   0  0  0  0  0  0  0  0  0  0  0  0
   -5.5085    2.6789   -0.1774 B   0  0  0  0  0  0  0  0  0  0  0  0
   -5.2879    1.9727   -1.2971 F   0  0  0  0  0  0  0  0  0  0  0  0
   -3.9203    3.7519   -0.2396 F   0  0  0  0  0  0  0  0  0  0  0  0
   -6.3900    3.6703   -0.1981 F   0  0  0  0  0  0  0  0  0  0  0  0
   -5.2505    2.0543    0.9830 F   0  0  0  0  0  0  0  0  0  0  0  0
  1 11  2  0  0  0  0
  2  1  1  0  0  0  0
  3  2  1  0  0  0  0
  4  5  2  0  0  0  0
  4  1  1  0  0  0  0
  5  6  1  0  0  0  0
  6  7  1  0  0  0  0
  6 10  2  0  0  0  0
  7  9  2  0  0  0  0
  8  7  2  0  0  0  0
 10 14  1  0  0  0  0
 11 10  1  0  0  0  0
 11 15  1  0  0  0  0
 13  5  1  0  0  0  0
 16 20  1  0  0  0  0
 17 16  1  0  0  0  0
 18 12  1  0  0  0  0
 19 16  1  0  0  0  0
M  RAD  3   2   2   3   3   4   2
M  END
