Coordinates from ORCA-job 4-NO2PhN2+~BF4-_B3LYPG-6-31G_dp-CH-Scan-d09-49-n800
 OpenBabel11261918593D

 20 19  0  0  0  0  0  0  0  0999 V2000
   -2.1581    0.0992   -0.2617 C   0  0  0  0  0  0  0  0  0  0  0  0
   -3.5088   -0.1567   -0.4787 N   0  0  0  0  0  0  0  0  0  0  0  0
   -4.5753   -0.3858   -0.7010 N   0  0  0  0  0  0  0  0  0  0  0  0
   -1.6947    1.4117   -0.4225 C   0  0  0  0  0  0  0  0  0  0  0  0
   -0.3291    1.6132   -0.2348 C   0  0  0  0  0  0  0  0  0  0  0  0
    0.4799    0.5319    0.1044 C   0  0  0  0  0  0  0  0  0  0  0  0
    1.9330    0.7671    0.3082 N   0  0  0  0  0  0  0  0  0  0  0  0
    2.3413    1.9118    0.1539 O   0  0  0  0  0  0  0  0  0  0  0  0
    2.6156   -0.2046    0.6191 O   0  0  0  0  0  0  0  0  0  0  0  0
    0.0002   -0.7705    0.2658 C   0  0  0  0  0  0  0  0  0  0  0  0
   -1.3520   -1.0035    0.0740 C   0  0  0  0  0  0  0  0  0  0  0  0
   -2.5128    2.3196   -0.6869 H   0  0  0  0  0  0  0  0  0  0  0  0
    0.1101    2.5974   -0.3394 H   0  0  0  0  0  0  0  0  0  0  0  0
    0.6840   -1.5652    0.5333 H   0  0  0  0  0  0  0  0  0  0  0  0
   -1.7769   -1.9947    0.1850 H   0  0  0  0  0  0  0  0  0  0  0  0
   -4.8701    2.5903    0.0738 B   0  0  0  0  0  0  0  0  0  0  0  0
   -5.6783    1.6923   -0.6649 F   0  0  0  0  0  0  0  0  0  0  0  0
   -3.9212    3.1681   -0.8434 F   0  0  0  0  0  0  0  0  0  0  0  0
   -5.6033    3.5585    0.6930 F   0  0  0  0  0  0  0  0  0  0  0  0
   -4.1144    1.8192    0.9989 F   0  0  0  0  0  0  0  0  0  0  0  0
  1 11  1  0  0  0  0
  2  1  1  0  0  0  0
  3  2  1  0  0  0  0
  4  1  2  0  0  0  0
  4  5  1  0  0  0  0
  5  6  2  0  0  0  0
  6 10  1  0  0  0  0
  6  7  1  0  0  0  0
  7  9  2  0  0  0  0
  8  7  2  0  0  0  0
 10 14  1  0  0  0  0
 11 15  1  0  0  0  0
 11 10  2  0  0  0  0
 12  4  1  0  0  0  0
 13  5  1  0  0  0  0
 16 19  1  0  0  0  0
 16 20  1  0  0  0  0
 17 16  1  0  0  0  0
 18 16  1  0  0  0  0
M  RAD  2   2   2   3   3
M  END
