Coordinates from ORCA-job 4-NO2PhN2+~BF4-_B3LYPG-6-31G_dp-CH-Scan-d09-49-n800
 OpenBabel11261918593D

 20 18  0  0  0  0  0  0  0  0999 V2000
   -1.8146   -0.0740   -0.0138 C   0  0  0  0  0  0  0  0  0  0  0  0
   -3.2040   -0.2602   -0.0547 N   0  0  0  0  0  0  0  0  0  0  0  0
   -4.3163   -0.3420   -0.0907 N   0  0  0  0  0  0  0  0  0  0  0  0
   -1.4456    1.2733   -0.0763 C   0  0  0  0  0  0  0  0  0  0  0  0
   -0.0247    1.3866   -0.0310 C   0  0  0  0  0  0  0  0  0  0  0  0
    0.8009    0.2760    0.0613 C   0  0  0  0  0  0  0  0  0  0  0  0
    2.2753    0.4686    0.1034 N   0  0  0  0  0  0  0  0  0  0  0  0
    2.7017    1.6177    0.0503 O   0  0  0  0  0  0  0  0  0  0  0  0
    2.9754   -0.5403    0.1839 O   0  0  0  0  0  0  0  0  0  0  0  0
    0.3305   -1.0535    0.1195 C   0  0  0  0  0  0  0  0  0  0  0  0
   -1.0296   -1.2539    0.0814 C   0  0  0  0  0  0  0  0  0  0  0  0
   -3.4904    3.7385   -0.2551 H   0  0  0  0  0  0  0  0  0  0  0  0
    0.4512    2.3622   -0.0687 H   0  0  0  0  0  0  0  0  0  0  0  0
    1.0354   -1.8705    0.1916 H   0  0  0  0  0  0  0  0  0  0  0  0
   -1.4657   -2.2478    0.1222 H   0  0  0  0  0  0  0  0  0  0  0  0
   -5.7946    2.6595   -0.1639 B   0  0  0  0  0  0  0  0  0  0  0  0
   -5.4642    2.0485   -1.2999 F   0  0  0  0  0  0  0  0  0  0  0  0
   -4.3243    4.1519   -0.3197 F   0  0  0  0  0  0  0  0  0  0  0  0
   -6.8114    3.5020   -0.1373 F   0  0  0  0  0  0  0  0  0  0  0  0
   -5.3161    2.1566    0.9738 F   0  0  0  0  0  0  0  0  0  0  0  0
  1 11  2  0  0  0  0
  2  1  1  0  0  0  0
  3  2  1  0  0  0  0
  4  5  2  0  0  0  0
  4  1  1  0  0  0  0
  5  6  1  0  0  0  0
  6  7  1  0  0  0  0
  6 10  2  0  0  0  0
  7  9  2  0  0  0  0
  8  7  2  0  0  0  0
 10 14  1  0  0  0  0
 11 10  1  0  0  0  0
 11 15  1  0  0  0  0
 13  5  1  0  0  0  0
 16 19  1  0  0  0  0
 16 20  1  0  0  0  0
 17 16  1  0  0  0  0
 18 12  1  0  0  0  0
M  RAD  3   2   2   3   3   4   2
M  END
