Coordinates from ORCA-job 4-NO2PhN2+~BF4-_B3LYPG-6-31G_dp-CH-Scan-d09-49-n800
 OpenBabel11261918593D

 20 18  0  0  0  0  0  0  0  0999 V2000
   -1.9926   -0.0334   -0.0352 C   0  0  0  0  0  0  0  0  0  0  0  0
   -3.3647   -0.2936   -0.0799 N   0  0  0  0  0  0  0  0  0  0  0  0
   -4.4653   -0.4620   -0.1184 N   0  0  0  0  0  0  0  0  0  0  0  0
   -1.6495    1.3242   -0.1034 C   0  0  0  0  0  0  0  0  0  0  0  0
   -0.2413    1.4937   -0.0512 C   0  0  0  0  0  0  0  0  0  0  0  0
    0.6227    0.4130    0.0531 C   0  0  0  0  0  0  0  0  0  0  0  0
    2.0886    0.6608    0.1029 N   0  0  0  0  0  0  0  0  0  0  0  0
    2.4691    1.8254    0.0533 O   0  0  0  0  0  0  0  0  0  0  0  0
    2.8224   -0.3221    0.1906 O   0  0  0  0  0  0  0  0  0  0  0  0
    0.1973   -0.9277    0.1158 C   0  0  0  0  0  0  0  0  0  0  0  0
   -1.1562   -1.1747    0.0712 C   0  0  0  0  0  0  0  0  0  0  0  0
   -3.0651    2.9518   -0.2430 H   0  0  0  0  0  0  0  0  0  0  0  0
    0.1951    2.4864   -0.0925 H   0  0  0  0  0  0  0  0  0  0  0  0
    0.9274   -1.7215    0.1966 H   0  0  0  0  0  0  0  0  0  0  0  0
   -1.5555   -2.1832    0.1155 H   0  0  0  0  0  0  0  0  0  0  0  0
   -5.3650    2.6853   -0.1400 B   0  0  0  0  0  0  0  0  0  0  0  0
   -5.2936    1.9380   -1.2609 F   0  0  0  0  0  0  0  0  0  0  0  0
   -3.7866    3.5913   -0.2952 F   0  0  0  0  0  0  0  0  0  0  0  0
   -6.2030    3.7196   -0.1154 F   0  0  0  0  0  0  0  0  0  0  0  0
   -5.1153    2.0280    1.0123 F   0  0  0  0  0  0  0  0  0  0  0  0
  1 11  2  0  0  0  0
  2  1  1  0  0  0  0
  3  2  1  0  0  0  0
  4  5  2  0  0  0  0
  4  1  1  0  0  0  0
  5  6  1  0  0  0  0
  6  7  1  0  0  0  0
  6 10  2  0  0  0  0
  7  9  2  0  0  0  0
  8  7  2  0  0  0  0
 10 14  1  0  0  0  0
 11 15  1  0  0  0  0
 11 10  1  0  0  0  0
 13  5  1  0  0  0  0
 16 19  1  0  0  0  0
 16 20  1  0  0  0  0
 17 16  1  0  0  0  0
 18 12  1  0  0  0  0
M  RAD  3   2   2   3   3   4   2
M  END
