Coordinates from ORCA-job 4-NO2PhN2+~BF4-_B3LYPG-6-31G_dp-CH-Scan-d09-49-n800
 OpenBabel11261918593D

 20 18  0  0  0  0  0  0  0  0999 V2000
   -1.9443   -0.0420   -0.0089 C   0  0  0  0  0  0  0  0  0  0  0  0
   -3.3213   -0.2828   -0.0427 N   0  0  0  0  0  0  0  0  0  0  0  0
   -4.4253   -0.4329   -0.0743 N   0  0  0  0  0  0  0  0  0  0  0  0
   -1.5953    1.3135   -0.0717 C   0  0  0  0  0  0  0  0  0  0  0  0
   -0.1824    1.4666   -0.0360 C   0  0  0  0  0  0  0  0  0  0  0  0
    0.6719    0.3769    0.0497 C   0  0  0  0  0  0  0  0  0  0  0  0
    2.1410    0.6087    0.0810 N   0  0  0  0  0  0  0  0  0  0  0  0
    2.5344    1.7690    0.0283 O   0  0  0  0  0  0  0  0  0  0  0  0
    2.8662   -0.3821    0.1546 O   0  0  0  0  0  0  0  0  0  0  0  0
    0.2347   -0.9613    0.1101 C   0  0  0  0  0  0  0  0  0  0  0  0
   -1.1211   -1.1952    0.0806 C   0  0  0  0  0  0  0  0  0  0  0  0
   -3.1666    3.1521   -0.1984 H   0  0  0  0  0  0  0  0  0  0  0  0
    0.2653    2.4546   -0.0763 H   0  0  0  0  0  0  0  0  0  0  0  0
    0.9587   -1.7619    0.1771 H   0  0  0  0  0  0  0  0  0  0  0  0
   -1.5301   -2.2000    0.1237 H   0  0  0  0  0  0  0  0  0  0  0  0
   -5.4994    2.6790   -0.1749 B   0  0  0  0  0  0  0  0  0  0  0  0
   -5.2884    1.9708   -1.2955 F   0  0  0  0  0  0  0  0  0  0  0  0
   -3.9101    3.7409   -0.2429 F   0  0  0  0  0  0  0  0  0  0  0  0
   -6.3776    3.6738   -0.1918 F   0  0  0  0  0  0  0  0  0  0  0  0
   -5.2414    2.0517    0.9845 F   0  0  0  0  0  0  0  0  0  0  0  0
  1 11  2  0  0  0  0
  2  1  1  0  0  0  0
  3  2  1  0  0  0  0
  4  5  2  0  0  0  0
  4  1  1  0  0  0  0
  5  6  1  0  0  0  0
  6  7  1  0  0  0  0
  6 10  2  0  0  0  0
  7  9  2  0  0  0  0
  8  7  2  0  0  0  0
 10 14  1  0  0  0  0
 11 10  1  0  0  0  0
 11 15  1  0  0  0  0
 13  5  1  0  0  0  0
 16 20  1  0  0  0  0
 17 16  1  0  0  0  0
 18 12  1  0  0  0  0
 19 16  1  0  0  0  0
M  RAD  3   2   2   3   3   4   2
M  END
