Coordinates from ORCA-job 4-NO2PhN2+~BF4-_B3LYPG-6-31G_dp-CH-Scan-d09-49-n800
 OpenBabel11261918593D

 20 18  0  0  0  0  0  0  0  0999 V2000
   -2.1300    0.0192   -0.1298 C   0  0  0  0  0  0  0  0  0  0  0  0
   -3.4875   -0.2741   -0.2425 N   0  0  0  0  0  0  0  0  0  0  0  0
   -4.5736   -0.4857   -0.3523 N   0  0  0  0  0  0  0  0  0  0  0  0
   -1.7569    1.3669   -0.2407 C   0  0  0  0  0  0  0  0  0  0  0  0
   -0.3693    1.5709   -0.1337 C   0  0  0  0  0  0  0  0  0  0  0  0
    0.4958    0.5021    0.0651 C   0  0  0  0  0  0  0  0  0  0  0  0
    1.9546    0.7692    0.1737 N   0  0  0  0  0  0  0  0  0  0  0  0
    2.3231    1.9335    0.0715 O   0  0  0  0  0  0  0  0  0  0  0  0
    2.6876   -0.1994    0.3580 O   0  0  0  0  0  0  0  0  0  0  0  0
    0.0726   -0.8307    0.1725 C   0  0  0  0  0  0  0  0  0  0  0  0
   -1.2789   -1.0919    0.0721 C   0  0  0  0  0  0  0  0  0  0  0  0
   -2.7708    2.4899   -0.3950 H   0  0  0  0  0  0  0  0  0  0  0  0
    0.0478    2.5691   -0.2014 H   0  0  0  0  0  0  0  0  0  0  0  0
    0.7996   -1.6162    0.3295 H   0  0  0  0  0  0  0  0  0  0  0  0
   -1.6700   -2.1010    0.1459 H   0  0  0  0  0  0  0  0  0  0  0  0
   -4.9543    2.6561   -0.0337 B   0  0  0  0  0  0  0  0  0  0  0  0
   -5.2977    1.8515   -1.1082 F   0  0  0  0  0  0  0  0  0  0  0  0
   -3.6059    3.3072   -0.4587 F   0  0  0  0  0  0  0  0  0  0  0  0
   -5.8044    3.6759    0.2153 F   0  0  0  0  0  0  0  0  0  0  0  0
   -4.6127    1.8870    1.0686 F   0  0  0  0  0  0  0  0  0  0  0  0
  1 11  2  0  0  0  0
  2  1  1  0  0  0  0
  3  2  1  0  0  0  0
  4  5  2  0  0  0  0
  4  1  1  0  0  0  0
  5  6  1  0  0  0  0
  6 10  2  0  0  0  0
  6  7  1  0  0  0  0
  7  9  2  0  0  0  0
  8  7  2  0  0  0  0
 10 14  1  0  0  0  0
 11 15  1  0  0  0  0
 11 10  1  0  0  0  0
 13  5  1  0  0  0  0
 16 19  1  0  0  0  0
 16 20  1  0  0  0  0
 17 16  1  0  0  0  0
 18 12  1  0  0  0  0
M  RAD  3   2   2   3   3   4   2
M  END
