Coordinates from ORCA-job 4-NO2PhN2+~BF4-_B3LYPG-6-31G_dp-CH-Scan-d09-49-n800
 OpenBabel11261918593D

 20 18  0  0  0  0  0  0  0  0999 V2000
   -1.6860   -0.0730    0.0312 C   0  0  0  0  0  0  0  0  0  0  0  0
   -3.0870   -0.1886   -0.0035 N   0  0  0  0  0  0  0  0  0  0  0  0
   -4.2035   -0.1967   -0.0290 N   0  0  0  0  0  0  0  0  0  0  0  0
   -1.2736    1.2596    0.0612 C   0  0  0  0  0  0  0  0  0  0  0  0
    0.1531    1.3152    0.0982 C   0  0  0  0  0  0  0  0  0  0  0  0
    0.9353    0.1701    0.1010 C   0  0  0  0  0  0  0  0  0  0  0  0
    2.4163    0.3012    0.1407 N   0  0  0  0  0  0  0  0  0  0  0  0
    2.8886    1.4333    0.1709 O   0  0  0  0  0  0  0  0  0  0  0  0
    3.0778   -0.7370    0.1413 O   0  0  0  0  0  0  0  0  0  0  0  0
    0.4146   -1.1429    0.0681 C   0  0  0  0  0  0  0  0  0  0  0  0
   -0.9522   -1.2891    0.0314 C   0  0  0  0  0  0  0  0  0  0  0  0
   -4.1138    4.3564   -0.2578 H   0  0  0  0  0  0  0  0  0  0  0  0
    0.6665    2.2724    0.1252 H   0  0  0  0  0  0  0  0  0  0  0  0
    1.0890   -1.9883    0.0724 H   0  0  0  0  0  0  0  0  0  0  0  0
   -1.4270   -2.2659    0.0047 H   0  0  0  0  0  0  0  0  0  0  0  0
   -5.9645    2.6546   -0.1721 B   0  0  0  0  0  0  0  0  0  0  0  0
   -5.8291    1.9817   -1.3050 F   0  0  0  0  0  0  0  0  0  0  0  0
   -4.8667    4.4021   -0.8033 F   0  0  0  0  0  0  0  0  0  0  0  0
   -7.0895    3.2914    0.0958 F   0  0  0  0  0  0  0  0  0  0  0  0
   -5.0792    2.4428    0.8049 F   0  0  0  0  0  0  0  0  0  0  0  0
  1 11  2  0  0  0  0
  1  4  1  0  0  0  0
  2  1  1  0  0  0  0
  3  2  1  0  0  0  0
  4  5  2  0  0  0  0
  5  6  1  0  0  0  0
  5 13  1  0  0  0  0
  6  7  1  0  0  0  0
  7  9  2  0  0  0  0
  7  8  2  0  0  0  0
 10 14  1  0  0  0  0
 10  6  2  0  0  0  0
 11 10  1  0  0  0  0
 15 11  1  0  0  0  0
 16 19  1  0  0  0  0
 16 20  1  0  0  0  0
 17 16  1  0  0  0  0
 18 12  1  0  0  0  0
M  RAD  3   2   2   3   3   4   2
M  END
