Coordinates from ORCA-job 4-NO2PhN2+~BF4-_B3LYPG-6-31G_dp-CH-Scan-d09-49-n800
 OpenBabel11261918593D

 20 18  0  0  0  0  0  0  0  0999 V2000
   -1.6272   -0.0520    0.0412 C   0  0  0  0  0  0  0  0  0  0  0  0
   -3.0313   -0.1302    0.0087 N   0  0  0  0  0  0  0  0  0  0  0  0
   -4.1478   -0.1067   -0.0163 N   0  0  0  0  0  0  0  0  0  0  0  0
   -1.1828    1.2694    0.0795 C   0  0  0  0  0  0  0  0  0  0  0  0
    0.2450    1.2906    0.1136 C   0  0  0  0  0  0  0  0  0  0  0  0
    0.9987    0.1266    0.1077 C   0  0  0  0  0  0  0  0  0  0  0  0
    2.4825    0.2209    0.1457 N   0  0  0  0  0  0  0  0  0  0  0  0
    2.9827    1.3409    0.1841 O   0  0  0  0  0  0  0  0  0  0  0  0
    3.1187   -0.8329    0.1321 O   0  0  0  0  0  0  0  0  0  0  0  0
    0.4459   -1.1733    0.0668 C   0  0  0  0  0  0  0  0  0  0  0  0
   -0.9241   -1.2861    0.0317 C   0  0  0  0  0  0  0  0  0  0  0  0
   -4.3597    4.5077   -0.2652 H   0  0  0  0  0  0  0  0  0  0  0  0
    0.7814    2.2350    0.1456 H   0  0  0  0  0  0  0  0  0  0  0  0
    1.0997   -2.0348    0.0642 H   0  0  0  0  0  0  0  0  0  0  0  0
   -1.4227   -2.2508   -0.0011 H   0  0  0  0  0  0  0  0  0  0  0  0
   -6.0536    2.6579   -0.1857 B   0  0  0  0  0  0  0  0  0  0  0  0
   -5.8883    1.9975   -1.3211 F   0  0  0  0  0  0  0  0  0  0  0  0
   -5.0964    4.4909   -0.8338 F   0  0  0  0  0  0  0  0  0  0  0  0
   -7.2179    3.2075    0.1052 F   0  0  0  0  0  0  0  0  0  0  0  0
   -5.1336    2.5214    0.7731 F   0  0  0  0  0  0  0  0  0  0  0  0
  1  4  1  0  0  0  0
  2  1  1  0  0  0  0
  3  2  1  0  0  0  0
  4  5  2  0  0  0  0
  5 13  1  0  0  0  0
  6  5  1  0  0  0  0
  6  7  1  0  0  0  0
  7  8  2  0  0  0  0
  9  7  2  0  0  0  0
 10  6  2  0  0  0  0
 11  1  2  0  0  0  0
 11 10  1  0  0  0  0
 14 10  1  0  0  0  0
 15 11  1  0  0  0  0
 16 19  1  0  0  0  0
 16 20  1  0  0  0  0
 17 16  1  0  0  0  0
 18 12  1  0  0  0  0
M  RAD  3   2   2   3   3   4   2
M  END
