Coordinates from ORCA-job 4-NO2PhN2+~BF4-_B3LYPG-6-31G_dp-CH-Scan-d09-49-n800
 OpenBabel11261918593D

 20 18  0  0  0  0  0  0  0  0999 V2000
   -2.0280   -0.0251   -0.0363 C   0  0  0  0  0  0  0  0  0  0  0  0
   -3.3971   -0.2977   -0.0792 N   0  0  0  0  0  0  0  0  0  0  0  0
   -4.4954   -0.4778   -0.1163 N   0  0  0  0  0  0  0  0  0  0  0  0
   -1.6874    1.3337   -0.1032 C   0  0  0  0  0  0  0  0  0  0  0  0
   -0.2820    1.5126   -0.0519 C   0  0  0  0  0  0  0  0  0  0  0  0
    0.5882    0.4365    0.0508 C   0  0  0  0  0  0  0  0  0  0  0  0
    2.0524    0.6933    0.1005 N   0  0  0  0  0  0  0  0  0  0  0  0
    2.4250    1.8604    0.0532 O   0  0  0  0  0  0  0  0  0  0  0  0
    2.7917   -0.2855    0.1858 O   0  0  0  0  0  0  0  0  0  0  0  0
    0.1697   -0.9055    0.1120 C   0  0  0  0  0  0  0  0  0  0  0  0
   -1.1830   -1.1594    0.0681 C   0  0  0  0  0  0  0  0  0  0  0  0
   -2.9952    2.8299   -0.2316 H   0  0  0  0  0  0  0  0  0  0  0  0
    0.1472    2.5082   -0.0923 H   0  0  0  0  0  0  0  0  0  0  0  0
    0.9036   -1.6960    0.1913 H   0  0  0  0  0  0  0  0  0  0  0  0
   -1.5764   -2.1701    0.1115 H   0  0  0  0  0  0  0  0  0  0  0  0
   -5.2642    2.6837   -0.1402 B   0  0  0  0  0  0  0  0  0  0  0  0
   -5.2334    1.9128   -1.2544 F   0  0  0  0  0  0  0  0  0  0  0  0
   -3.7097    3.5040   -0.2866 F   0  0  0  0  0  0  0  0  0  0  0  0
   -6.0915    3.7313   -0.1243 F   0  0  0  0  0  0  0  0  0  0  0  0
   -5.0655    2.0101    1.0193 F   0  0  0  0  0  0  0  0  0  0  0  0
  1 11  2  0  0  0  0
  2  1  1  0  0  0  0
  3  2  1  0  0  0  0
  4  5  2  0  0  0  0
  4  1  1  0  0  0  0
  5  6  1  0  0  0  0
  6  7  1  0  0  0  0
  6 10  2  0  0  0  0
  7  9  2  0  0  0  0
  8  7  2  0  0  0  0
 10 14  1  0  0  0  0
 11 15  1  0  0  0  0
 11 10  1  0  0  0  0
 13  5  1  0  0  0  0
 16 19  1  0  0  0  0
 16 20  1  0  0  0  0
 17 16  1  0  0  0  0
 18 12  1  0  0  0  0
M  RAD  3   2   2   3   3   4   2
M  END
