Coordinates from ORCA-job 4-NO2PhN2+~BF4-_B3LYPG-6-31G_dp-CH-Scan-d09-49-n800
 OpenBabel11261918593D

 20 18  0  0  0  0  0  0  0  0999 V2000
   -1.9714   -0.0375   -0.0298 C   0  0  0  0  0  0  0  0  0  0  0  0
   -3.3454   -0.2898   -0.0739 N   0  0  0  0  0  0  0  0  0  0  0  0
   -4.4474   -0.4506   -0.1126 N   0  0  0  0  0  0  0  0  0  0  0  0
   -1.6262    1.3192   -0.0981 C   0  0  0  0  0  0  0  0  0  0  0  0
   -0.2159    1.4818   -0.0487 C   0  0  0  0  0  0  0  0  0  0  0  0
    0.6438    0.3976    0.0533 C   0  0  0  0  0  0  0  0  0  0  0  0
    2.1110    0.6390    0.0992 N   0  0  0  0  0  0  0  0  0  0  0  0
    2.4971    1.8017    0.0459 O   0  0  0  0  0  0  0  0  0  0  0  0
    2.8410   -0.3470    0.1861 O   0  0  0  0  0  0  0  0  0  0  0  0
    0.2135   -0.9420    0.1172 C   0  0  0  0  0  0  0  0  0  0  0  0
   -1.1408   -1.1836    0.0751 C   0  0  0  0  0  0  0  0  0  0  0  0
   -3.1064    3.0367   -0.2381 H   0  0  0  0  0  0  0  0  0  0  0  0
    0.2254    2.4724   -0.0907 H   0  0  0  0  0  0  0  0  0  0  0  0
    0.9409   -1.7383    0.1965 H   0  0  0  0  0  0  0  0  0  0  0  0
   -1.5443   -2.1905    0.1202 H   0  0  0  0  0  0  0  0  0  0  0  0
   -5.4260    2.6826   -0.1463 B   0  0  0  0  0  0  0  0  0  0  0  0
   -5.3115    1.9540   -1.2716 F   0  0  0  0  0  0  0  0  0  0  0  0
   -3.8365    3.6539   -0.2867 F   0  0  0  0  0  0  0  0  0  0  0  0
   -6.2772    3.7032   -0.1245 F   0  0  0  0  0  0  0  0  0  0  0  0
   -5.1546    2.0365    1.0036 F   0  0  0  0  0  0  0  0  0  0  0  0
  1 11  2  0  0  0  0
  2  1  1  0  0  0  0
  3  2  1  0  0  0  0
  4  5  2  0  0  0  0
  4  1  1  0  0  0  0
  5  6  1  0  0  0  0
  6  7  1  0  0  0  0
  6 10  2  0  0  0  0
  7  9  2  0  0  0  0
  8  7  2  0  0  0  0
 10 14  1  0  0  0  0
 11 10  1  0  0  0  0
 11 15  1  0  0  0  0
 13  5  1  0  0  0  0
 16 19  1  0  0  0  0
 16 20  1  0  0  0  0
 17 16  1  0  0  0  0
 18 12  1  0  0  0  0
M  RAD  3   2   2   3   3   4   2
M  END
