Coordinates from ORCA-job 4-NO2PhN2+~BF4-_B3LYPG-6-31G_dp-CH-Scan-d09-49-n800
 OpenBabel11261918593D

 20 18  0  0  0  0  0  0  0  0999 V2000
   -1.7826   -0.0810    0.0219 C   0  0  0  0  0  0  0  0  0  0  0  0
   -3.1759   -0.2518   -0.0080 N   0  0  0  0  0  0  0  0  0  0  0  0
   -4.2901   -0.3148   -0.0295 N   0  0  0  0  0  0  0  0  0  0  0  0
   -1.4084    1.2651    0.0167 C   0  0  0  0  0  0  0  0  0  0  0  0
    0.0147    1.3662    0.0495 C   0  0  0  0  0  0  0  0  0  0  0  0
    0.8335    0.2473    0.0798 C   0  0  0  0  0  0  0  0  0  0  0  0
    2.3097    0.4275    0.1125 N   0  0  0  0  0  0  0  0  0  0  0  0
    2.7445    1.5748    0.1034 O   0  0  0  0  0  0  0  0  0  0  0  0
    3.0039   -0.5886    0.1315 O   0  0  0  0  0  0  0  0  0  0  0  0
    0.3547   -1.0811    0.0818 C   0  0  0  0  0  0  0  0  0  0  0  0
   -1.0071   -1.2707    0.0522 C   0  0  0  0  0  0  0  0  0  0  0  0
   -3.6479    3.9477   -0.2314 H   0  0  0  0  0  0  0  0  0  0  0  0
    0.4976    2.3394    0.0511 H   0  0  0  0  0  0  0  0  0  0  0  0
    1.0549   -1.9048    0.1064 H   0  0  0  0  0  0  0  0  0  0  0  0
   -1.4502   -2.2625    0.0520 H   0  0  0  0  0  0  0  0  0  0  0  0
   -5.8365    2.6546   -0.1779 B   0  0  0  0  0  0  0  0  0  0  0  0
   -5.6162    1.9933   -1.3086 F   0  0  0  0  0  0  0  0  0  0  0  0
   -4.4657    4.2284   -0.5784 F   0  0  0  0  0  0  0  0  0  0  0  0
   -6.8915    3.4401   -0.0624 F   0  0  0  0  0  0  0  0  0  0  0  0
   -5.1724    2.2700    0.9135 F   0  0  0  0  0  0  0  0  0  0  0  0
  1 11  1  0  0  0  0
  2  1  1  0  0  0  0
  3  2  1  0  0  0  0
  4  1  2  0  0  0  0
  4  5  1  0  0  0  0
  5 13  1  0  0  0  0
  5  6  2  0  0  0  0
  6 10  1  0  0  0  0
  6  7  1  0  0  0  0
  7  9  2  0  0  0  0
  8  7  2  0  0  0  0
 10 14  1  0  0  0  0
 11 10  2  0  0  0  0
 15 11  1  0  0  0  0
 16 19  1  0  0  0  0
 16 20  1  0  0  0  0
 17 16  1  0  0  0  0
 18 12  1  0  0  0  0
M  RAD  3   2   2   3   3   4   2
M  END
