Coordinates from ORCA-job 4-NO2PhN2+~BF4-_B3LYPG-6-31G_dp-CH-Scan-d09-49-n800
 OpenBabel11261918593D

 20 18  0  0  0  0  0  0  0  0999 V2000
   -1.6677   -0.0676    0.0353 C   0  0  0  0  0  0  0  0  0  0  0  0
   -3.0698   -0.1719    0.0017 N   0  0  0  0  0  0  0  0  0  0  0  0
   -4.1864   -0.1702   -0.0223 N   0  0  0  0  0  0  0  0  0  0  0  0
   -1.2458    1.2616    0.0700 C   0  0  0  0  0  0  0  0  0  0  0  0
    0.1812    1.3070    0.1056 C   0  0  0  0  0  0  0  0  0  0  0  0
    0.9551    0.1563    0.1033 C   0  0  0  0  0  0  0  0  0  0  0  0
    2.4370    0.2765    0.1422 N   0  0  0  0  0  0  0  0  0  0  0  0
    2.9176    1.4050    0.1777 O   0  0  0  0  0  0  0  0  0  0  0  0
    3.0911   -0.7664    0.1368 O   0  0  0  0  0  0  0  0  0  0  0  0
    0.4249   -1.1529    0.0659 C   0  0  0  0  0  0  0  0  0  0  0  0
   -0.9430   -1.2892    0.0300 C   0  0  0  0  0  0  0  0  0  0  0  0
   -4.1924    4.4089   -0.2641 H   0  0  0  0  0  0  0  0  0  0  0  0
    0.7015    2.2605    0.1356 H   0  0  0  0  0  0  0  0  0  0  0  0
    1.0932   -2.0031    0.0663 H   0  0  0  0  0  0  0  0  0  0  0  0
   -1.4248   -2.2624   -0.0001 H   0  0  0  0  0  0  0  0  0  0  0  0
   -5.9919    2.6558   -0.1755 B   0  0  0  0  0  0  0  0  0  0  0  0
   -5.8493    1.9838   -1.3077 F   0  0  0  0  0  0  0  0  0  0  0  0
   -4.9393    4.4309   -0.8191 F   0  0  0  0  0  0  0  0  0  0  0  0
   -7.1295    3.2662    0.1005 F   0  0  0  0  0  0  0  0  0  0  0  0
   -5.0926    2.4705    0.7943 F   0  0  0  0  0  0  0  0  0  0  0  0
  1  4  1  0  0  0  0
  2  1  1  0  0  0  0
  3  2  1  0  0  0  0
  4  5  2  0  0  0  0
  5 13  1  0  0  0  0
  6  5  1  0  0  0  0
  6  7  1  0  0  0  0
  7  8  2  0  0  0  0
  9  7  2  0  0  0  0
 10 14  1  0  0  0  0
 10  6  2  0  0  0  0
 11  1  2  0  0  0  0
 11 10  1  0  0  0  0
 15 11  1  0  0  0  0
 16 19  1  0  0  0  0
 16 20  1  0  0  0  0
 17 16  1  0  0  0  0
 18 12  1  0  0  0  0
M  RAD  3   2   2   3   3   4   2
M  END
