Coordinates from ORCA-job 4-NO2PhN2+~BF4-_B3LYPG-6-31G_dp-CH-Scan-d09-49-n800
 OpenBabel11261918593D

 20 18  0  0  0  0  0  0  0  0999 V2000
   -1.7523   -0.0828    0.0182 C   0  0  0  0  0  0  0  0  0  0  0  0
   -3.1482   -0.2369   -0.0152 N   0  0  0  0  0  0  0  0  0  0  0  0
   -4.2634   -0.2806   -0.0422 N   0  0  0  0  0  0  0  0  0  0  0  0
   -1.3691    1.2602    0.0186 C   0  0  0  0  0  0  0  0  0  0  0  0
    0.0553    1.3496    0.0559 C   0  0  0  0  0  0  0  0  0  0  0  0
    0.8645    0.2237    0.0848 C   0  0  0  0  0  0  0  0  0  0  0  0
    2.3420    0.3912    0.1225 N   0  0  0  0  0  0  0  0  0  0  0  0
    2.7867    1.5349    0.1248 O   0  0  0  0  0  0  0  0  0  0  0  0
    3.0277   -0.6306    0.1500 O   0  0  0  0  0  0  0  0  0  0  0  0
    0.3749   -1.1011    0.0811 C   0  0  0  0  0  0  0  0  0  0  0  0
   -0.9882   -1.2797    0.0466 C   0  0  0  0  0  0  0  0  0  0  0  0
   -3.7741    4.0782   -0.2364 H   0  0  0  0  0  0  0  0  0  0  0  0
    0.5462    2.3187    0.0620 H   0  0  0  0  0  0  0  0  0  0  0  0
    1.0685   -1.9304    0.1054 H   0  0  0  0  0  0  0  0  0  0  0  0
   -1.4396   -2.2678    0.0420 H   0  0  0  0  0  0  0  0  0  0  0  0
   -5.8822    2.6555   -0.1709 B   0  0  0  0  0  0  0  0  0  0  0  0
   -5.6926    1.9950   -1.3063 F   0  0  0  0  0  0  0  0  0  0  0  0
   -4.5841    4.2865   -0.6458 F   0  0  0  0  0  0  0  0  0  0  0  0
   -6.9600    3.3998   -0.0060 F   0  0  0  0  0  0  0  0  0  0  0  0
   -5.1429    2.3160    0.8871 F   0  0  0  0  0  0  0  0  0  0  0  0
  1  4  2  0  0  0  0
  1 11  1  0  0  0  0
  2  1  1  0  0  0  0
  3  2  1  0  0  0  0
  4  5  1  0  0  0  0
  5 13  1  0  0  0  0
  5  6  2  0  0  0  0
  6  7  1  0  0  0  0
  7  8  2  0  0  0  0
  7  9  2  0  0  0  0
 10  6  1  0  0  0  0
 10 14  1  0  0  0  0
 11 10  2  0  0  0  0
 15 11  1  0  0  0  0
 16 19  1  0  0  0  0
 16 20  1  0  0  0  0
 17 16  1  0  0  0  0
 18 12  1  0  0  0  0
M  RAD  3   2   2   3   3   4   2
M  END
