Coordinates from ORCA-job 4-NO2PhN2+~BF4-_B3LYPG-6-31G_dp-CH-Scan-d09-49-n800
 OpenBabel11261918593D

 20 19  0  0  0  0  0  0  0  0999 V2000
   -2.2852    0.1028   -0.3927 C   0  0  0  0  0  0  0  0  0  0  0  0
   -3.6142   -0.2196   -0.6508 N   0  0  0  0  0  0  0  0  0  0  0  0
   -4.6224   -0.6133   -0.8938 N   0  0  0  0  0  0  0  0  0  0  0  0
   -1.7915    1.3501   -0.7944 C   0  0  0  0  0  0  0  0  0  0  0  0
   -0.4395    1.5928   -0.5725 C   0  0  0  0  0  0  0  0  0  0  0  0
    0.3355    0.6075    0.0308 C   0  0  0  0  0  0  0  0  0  0  0  0
    1.7779    0.8788    0.2575 N   0  0  0  0  0  0  0  0  0  0  0  0
    2.2114    1.9567   -0.1311 O   0  0  0  0  0  0  0  0  0  0  0  0
    2.4284   -0.0011    0.8134 O   0  0  0  0  0  0  0  0  0  0  0  0
   -0.1713   -0.6290    0.4390 C   0  0  0  0  0  0  0  0  0  0  0  0
   -1.5125   -0.8989    0.2225 C   0  0  0  0  0  0  0  0  0  0  0  0
   -2.5104    2.1144   -1.2277 H   0  0  0  0  0  0  0  0  0  0  0  0
    0.0090    2.5382   -0.8491 H   0  0  0  0  0  0  0  0  0  0  0  0
    0.4846   -1.3490    0.9105 H   0  0  0  0  0  0  0  0  0  0  0  0
   -1.9558   -1.8413    0.5217 H   0  0  0  0  0  0  0  0  0  0  0  0
   -4.4781    2.5195    0.3665 B   0  0  0  0  0  0  0  0  0  0  0  0
   -4.4949    2.1214   -1.0279 F   0  0  0  0  0  0  0  0  0  0  0  0
   -3.3114    3.2667    0.5639 F   0  0  0  0  0  0  0  0  0  0  0  0
   -5.6200    3.2005    0.6845 F   0  0  0  0  0  0  0  0  0  0  0  0
   -4.3706    1.3022    1.1058 F   0  0  0  0  0  0  0  0  0  0  0  0
  1 11  2  0  0  0  0
  2  1  1  0  0  0  0
  3  2  1  0  0  0  0
  4  5  2  0  0  0  0
  4  1  1  0  0  0  0
  5  6  1  0  0  0  0
  6  7  1  0  0  0  0
  6 10  2  0  0  0  0
  7  9  2  0  0  0  0
  8  7  2  0  0  0  0
 10 14  1  0  0  0  0
 11 10  1  0  0  0  0
 11 15  1  0  0  0  0
 12  4  1  0  0  0  0
 13  5  1  0  0  0  0
 16 18  1  0  0  0  0
 16 19  1  0  0  0  0
 16 20  1  0  0  0  0
 17 16  1  0  0  0  0
M  RAD  2   2   2   3   3
M  END
