Coordinates from ORCA-job 4-NO2PhN2+~BF4-_B3LYPG-6-31G_dp-CH-Scan-d09-49-n800
 OpenBabel11261918593D

 20 18  0  0  0  0  0  0  0  0999 V2000
   -1.8144   -0.0825    0.0255 C   0  0  0  0  0  0  0  0  0  0  0  0
   -3.2047   -0.2675    0.0021 N   0  0  0  0  0  0  0  0  0  0  0  0
   -4.3180   -0.3443   -0.0156 N   0  0  0  0  0  0  0  0  0  0  0  0
   -1.4504    1.2675    0.0148 C   0  0  0  0  0  0  0  0  0  0  0  0
   -0.0286    1.3817    0.0413 C   0  0  0  0  0  0  0  0  0  0  0  0
    0.8004    0.2704    0.0717 C   0  0  0  0  0  0  0  0  0  0  0  0
    2.2751    0.4645    0.0975 N   0  0  0  0  0  0  0  0  0  0  0  0
    2.6987    1.6159    0.0915 O   0  0  0  0  0  0  0  0  0  0  0  0
    2.9784   -0.5450    0.1239 O   0  0  0  0  0  0  0  0  0  0  0  0
    0.3337   -1.0618    0.0798 C   0  0  0  0  0  0  0  0  0  0  0  0
   -1.0265   -1.2637    0.0561 C   0  0  0  0  0  0  0  0  0  0  0  0
   -3.5410    3.8273   -0.2156 H   0  0  0  0  0  0  0  0  0  0  0  0
    0.4452    2.3591    0.0377 H   0  0  0  0  0  0  0  0  0  0  0  0
    1.0413   -1.8792    0.1040 H   0  0  0  0  0  0  0  0  0  0  0  0
   -1.4603   -2.2595    0.0608 H   0  0  0  0  0  0  0  0  0  0  0  0
   -5.7788    2.6540   -0.1859 B   0  0  0  0  0  0  0  0  0  0  0  0
   -5.5383    1.9899   -1.3120 F   0  0  0  0  0  0  0  0  0  0  0  0
   -4.3523    4.1684   -0.5242 F   0  0  0  0  0  0  0  0  0  0  0  0
   -6.8142    3.4702   -0.1053 F   0  0  0  0  0  0  0  0  0  0  0  0
   -5.1763    2.2338    0.9281 F   0  0  0  0  0  0  0  0  0  0  0  0
  1 11  1  0  0  0  0
  2  1  1  0  0  0  0
  3  2  1  0  0  0  0
  4  1  2  0  0  0  0
  4  5  1  0  0  0  0
  5  6  2  0  0  0  0
  6 10  1  0  0  0  0
  6  7  1  0  0  0  0
  7  9  2  0  0  0  0
  8  7  2  0  0  0  0
 10 14  1  0  0  0  0
 11 15  1  0  0  0  0
 11 10  2  0  0  0  0
 13  5  1  0  0  0  0
 16 19  1  0  0  0  0
 16 20  1  0  0  0  0
 17 16  1  0  0  0  0
 18 12  1  0  0  0  0
M  RAD  3   2   2   3   3   4   2
M  END
