Coordinates from ORCA-job 4-NO2PhN2+~BF4-_B3LYPG-6-31G_dp-CH-Scan-d09-49-n800
 OpenBabel11261918593D

 20 18  0  0  0  0  0  0  0  0999 V2000
   -1.5785   -0.0280    0.0531 C   0  0  0  0  0  0  0  0  0  0  0  0
   -2.9845   -0.0719    0.0261 N   0  0  0  0  0  0  0  0  0  0  0  0
   -4.1001   -0.0185    0.0070 N   0  0  0  0  0  0  0  0  0  0  0  0
   -1.1045    1.2827    0.0940 C   0  0  0  0  0  0  0  0  0  0  0  0
    0.3236    1.2719    0.1221 C   0  0  0  0  0  0  0  0  0  0  0  0
    1.0504    0.0911    0.1097 C   0  0  0  0  0  0  0  0  0  0  0  0
    2.5361    0.1515    0.1423 N   0  0  0  0  0  0  0  0  0  0  0  0
    3.0617    1.2594    0.1886 O   0  0  0  0  0  0  0  0  0  0  0  0
    3.1482   -0.9165    0.1209 O   0  0  0  0  0  0  0  0  0  0  0  0
    0.4681   -1.1960    0.0667 C   0  0  0  0  0  0  0  0  0  0  0  0
   -0.9042   -1.2779    0.0364 C   0  0  0  0  0  0  0  0  0  0  0  0
   -4.5620    4.6082   -0.2549 H   0  0  0  0  0  0  0  0  0  0  0  0
    0.8812    2.2039    0.1545 H   0  0  0  0  0  0  0  0  0  0  0  0
    1.1025   -2.0720    0.0584 H   0  0  0  0  0  0  0  0  0  0  0  0
   -1.4247   -2.2309    0.0020 H   0  0  0  0  0  0  0  0  0  0  0  0
   -6.1245    2.6579   -0.2066 B   0  0  0  0  0  0  0  0  0  0  0  0
   -5.9135    2.0196   -1.3465 F   0  0  0  0  0  0  0  0  0  0  0  0
   -5.2864    4.5596   -0.8372 F   0  0  0  0  0  0  0  0  0  0  0  0
   -7.3242    3.1223    0.0889 F   0  0  0  0  0  0  0  0  0  0  0  0
   -5.1957    2.5828    0.7508 F   0  0  0  0  0  0  0  0  0  0  0  0
  1  4  1  0  0  0  0
  2  1  1  0  0  0  0
  3  2  1  0  0  0  0
  4  5  2  0  0  0  0
  5 13  1  0  0  0  0
  6  5  1  0  0  0  0
  6  7  1  0  0  0  0
  7  8  2  0  0  0  0
  9  7  2  0  0  0  0
 10  6  2  0  0  0  0
 11  1  2  0  0  0  0
 11 10  1  0  0  0  0
 14 10  1  0  0  0  0
 15 11  1  0  0  0  0
 16 19  1  0  0  0  0
 16 20  1  0  0  0  0
 17 16  1  0  0  0  0
 18 12  1  0  0  0  0
M  RAD  3   2   2   3   3   4   2
M  END
