Coordinates from ORCA-job 4-NO2PhN2+~BF4-_B3LYPG-6-31G_dp-CH-Scan-d09-49-n800
 OpenBabel11261918593D

 20 18  0  0  0  0  0  0  0  0999 V2000
   -1.7637   -0.0846    0.0211 C   0  0  0  0  0  0  0  0  0  0  0  0
   -3.1585   -0.2443   -0.0103 N   0  0  0  0  0  0  0  0  0  0  0  0
   -4.2736   -0.2926   -0.0338 N   0  0  0  0  0  0  0  0  0  0  0  0
   -1.3853    1.2602    0.0214 C   0  0  0  0  0  0  0  0  0  0  0  0
    0.0387    1.3550    0.0557 C   0  0  0  0  0  0  0  0  0  0  0  0
    0.8524    0.2323    0.0827 C   0  0  0  0  0  0  0  0  0  0  0  0
    2.3294    0.4058    0.1174 N   0  0  0  0  0  0  0  0  0  0  0  0
    2.7693    1.5512    0.1194 O   0  0  0  0  0  0  0  0  0  0  0  0
    3.0191   -0.6133    0.1418 O   0  0  0  0  0  0  0  0  0  0  0  0
    0.3680   -1.0943    0.0794 C   0  0  0  0  0  0  0  0  0  0  0  0
   -0.9945   -1.2783    0.0476 C   0  0  0  0  0  0  0  0  0  0  0  0
   -3.7264    4.0336   -0.2347 H   0  0  0  0  0  0  0  0  0  0  0  0
    0.5259    2.3260    0.0613 H   0  0  0  0  0  0  0  0  0  0  0  0
    1.0649   -1.9208    0.1017 H   0  0  0  0  0  0  0  0  0  0  0  0
   -1.4420   -2.2681    0.0433 H   0  0  0  0  0  0  0  0  0  0  0  0
   -5.8649    2.6557   -0.1738 B   0  0  0  0  0  0  0  0  0  0  0  0
   -5.6649    1.9923   -1.3062 F   0  0  0  0  0  0  0  0  0  0  0  0
   -4.5388    4.2651   -0.6268 F   0  0  0  0  0  0  0  0  0  0  0  0
   -6.9344    3.4158   -0.0283 F   0  0  0  0  0  0  0  0  0  0  0  0
   -5.1516    2.3025    0.8973 F   0  0  0  0  0  0  0  0  0  0  0  0
  1  4  2  0  0  0  0
  1 11  1  0  0  0  0
  2  1  1  0  0  0  0
  3  2  1  0  0  0  0
  4  5  1  0  0  0  0
  5 13  1  0  0  0  0
  5  6  2  0  0  0  0
  6  7  1  0  0  0  0
  7  8  2  0  0  0  0
  7  9  2  0  0  0  0
 10  6  1  0  0  0  0
 10 14  1  0  0  0  0
 11 10  2  0  0  0  0
 15 11  1  0  0  0  0
 16 19  1  0  0  0  0
 16 20  1  0  0  0  0
 17 16  1  0  0  0  0
 18 12  1  0  0  0  0
M  RAD  3   2   2   3   3   4   2
M  END
