Coordinates from ORCA-job 4-NO2PhN2+~BF4-_B3LYPG-6-31G_dp-CH-Scan-d09-49-n800
 OpenBabel11261918593D

 20 18  0  0  0  0  0  0  0  0999 V2000
   -1.6196   -0.0491    0.0418 C   0  0  0  0  0  0  0  0  0  0  0  0
   -3.0241   -0.1212    0.0094 N   0  0  0  0  0  0  0  0  0  0  0  0
   -4.1404   -0.0909   -0.0136 N   0  0  0  0  0  0  0  0  0  0  0  0
   -1.1709    1.2709    0.0802 C   0  0  0  0  0  0  0  0  0  0  0  0
    0.2569    1.2874    0.1140 C   0  0  0  0  0  0  0  0  0  0  0  0
    1.0067    0.1209    0.1078 C   0  0  0  0  0  0  0  0  0  0  0  0
    2.4909    0.2103    0.1457 N   0  0  0  0  0  0  0  0  0  0  0  0
    2.9946    1.3285    0.1871 O   0  0  0  0  0  0  0  0  0  0  0  0
    3.1235   -0.8456    0.1332 O   0  0  0  0  0  0  0  0  0  0  0  0
    0.4496   -1.1772    0.0669 C   0  0  0  0  0  0  0  0  0  0  0  0
   -0.9208   -1.2855    0.0319 C   0  0  0  0  0  0  0  0  0  0  0  0
   -4.3909    4.5230   -0.2659 H   0  0  0  0  0  0  0  0  0  0  0  0
    0.7964    2.2301    0.1460 H   0  0  0  0  0  0  0  0  0  0  0  0
    1.1006   -2.0408    0.0640 H   0  0  0  0  0  0  0  0  0  0  0  0
   -1.4226   -2.2485   -0.0011 H   0  0  0  0  0  0  0  0  0  0  0  0
   -6.0645    2.6580   -0.1876 B   0  0  0  0  0  0  0  0  0  0  0  0
   -5.8943    2.0013   -1.3244 F   0  0  0  0  0  0  0  0  0  0  0  0
   -5.1273    4.5026   -0.8348 F   0  0  0  0  0  0  0  0  0  0  0  0
   -7.2344    3.1935    0.1071 F   0  0  0  0  0  0  0  0  0  0  0  0
   -5.1403    2.5316    0.7685 F   0  0  0  0  0  0  0  0  0  0  0  0
  1  4  1  0  0  0  0
  2  1  1  0  0  0  0
  3  2  1  0  0  0  0
  4  5  2  0  0  0  0
  5 13  1  0  0  0  0
  6  5  1  0  0  0  0
  6  7  1  0  0  0  0
  7  8  2  0  0  0  0
  9  7  2  0  0  0  0
 10  6  2  0  0  0  0
 11  1  2  0  0  0  0
 11 10  1  0  0  0  0
 14 10  1  0  0  0  0
 15 11  1  0  0  0  0
 16 19  1  0  0  0  0
 16 20  1  0  0  0  0
 17 16  1  0  0  0  0
 18 12  1  0  0  0  0
M  RAD  3   2   2   3   3   4   2
M  END
