Coordinates from ORCA-job 4-NO2PhN2+~BF4-_B3LYPG-6-31G_dp-CH-Scan-d09-49-n800
 OpenBabel11261918593D

 20 18  0  0  0  0  0  0  0  0999 V2000
   -1.8706   -0.0614   -0.0110 C   0  0  0  0  0  0  0  0  0  0  0  0
   -3.2548   -0.2713   -0.0446 N   0  0  0  0  0  0  0  0  0  0  0  0
   -4.3644   -0.3814   -0.0751 N   0  0  0  0  0  0  0  0  0  0  0  0
   -1.5118    1.2899   -0.0757 C   0  0  0  0  0  0  0  0  0  0  0  0
   -0.0941    1.4213   -0.0363 C   0  0  0  0  0  0  0  0  0  0  0  0
    0.7449    0.3205    0.0537 C   0  0  0  0  0  0  0  0  0  0  0  0
    2.2171    0.5312    0.0904 N   0  0  0  0  0  0  0  0  0  0  0  0
    2.6282    1.6858    0.0402 O   0  0  0  0  0  0  0  0  0  0  0  0
    2.9289   -0.4693    0.1680 O   0  0  0  0  0  0  0  0  0  0  0  0
    0.2901   -1.0134    0.1141 C   0  0  0  0  0  0  0  0  0  0  0  0
   -1.0681   -1.2295    0.0815 C   0  0  0  0  0  0  0  0  0  0  0  0
   -3.3341    3.4724   -0.2302 H   0  0  0  0  0  0  0  0  0  0  0  0
    0.3691    2.4026   -0.0765 H   0  0  0  0  0  0  0  0  0  0  0  0
    1.0041   -1.8226    0.1837 H   0  0  0  0  0  0  0  0  0  0  0  0
   -1.4916   -2.2286    0.1244 H   0  0  0  0  0  0  0  0  0  0  0  0
   -5.6810    2.6677   -0.1719 B   0  0  0  0  0  0  0  0  0  0  0  0
   -5.3738    2.0170   -1.2967 F   0  0  0  0  0  0  0  0  0  0  0  0
   -4.1235    3.9767   -0.2619 F   0  0  0  0  0  0  0  0  0  0  0  0
   -6.6331    3.5855   -0.1824 F   0  0  0  0  0  0  0  0  0  0  0  0
   -5.3126    2.1063    0.9825 F   0  0  0  0  0  0  0  0  0  0  0  0
  1 11  2  0  0  0  0
  2  1  1  0  0  0  0
  3  2  1  0  0  0  0
  4  5  2  0  0  0  0
  4  1  1  0  0  0  0
  5  6  1  0  0  0  0
  6  7  1  0  0  0  0
  6 10  2  0  0  0  0
  7  9  2  0  0  0  0
  8  7  2  0  0  0  0
 10 14  1  0  0  0  0
 11 10  1  0  0  0  0
 11 15  1  0  0  0  0
 13  5  1  0  0  0  0
 16 20  1  0  0  0  0
 17 16  1  0  0  0  0
 18 12  1  0  0  0  0
 19 16  1  0  0  0  0
M  RAD  3   2   2   3   3   4   2
M  END
