Coordinates from ORCA-job 4-NO2PhN2+~BF4-_B3LYPG-6-31G_dp-CH-Scan-d09-49-n800
 OpenBabel11261918593D

 20 19  0  0  0  0  0  0  0  0999 V2000
   -2.3072    0.1159   -0.4241 C   0  0  0  0  0  0  0  0  0  0  0  0
   -3.6319   -0.2161   -0.6907 N   0  0  0  0  0  0  0  0  0  0  0  0
   -4.6323   -0.6285   -0.9361 N   0  0  0  0  0  0  0  0  0  0  0  0
   -1.8119    1.3594   -0.8378 C   0  0  0  0  0  0  0  0  0  0  0  0
   -0.4612    1.6027   -0.6011 C   0  0  0  0  0  0  0  0  0  0  0  0
    0.3070    0.6308    0.0293 C   0  0  0  0  0  0  0  0  0  0  0  0
    1.7452    0.9088    0.2710 N   0  0  0  0  0  0  0  0  0  0  0  0
    2.1812    1.9831   -0.1251 O   0  0  0  0  0  0  0  0  0  0  0  0
    2.3894    0.0397    0.8508 O   0  0  0  0  0  0  0  0  0  0  0  0
   -0.2039   -0.5997    0.4500 C   0  0  0  0  0  0  0  0  0  0  0  0
   -1.5414   -0.8736    0.2181 C   0  0  0  0  0  0  0  0  0  0  0  0
   -2.4057    2.0137   -1.2503 H   0  0  0  0  0  0  0  0  0  0  0  0
   -0.0114    2.5447   -0.8874 H   0  0  0  0  0  0  0  0  0  0  0  0
    0.4453   -1.3116    0.9426 H   0  0  0  0  0  0  0  0  0  0  0  0
   -1.9889   -1.8108    0.5270 H   0  0  0  0  0  0  0  0  0  0  0  0
   -4.4239    2.4850    0.3943 B   0  0  0  0  0  0  0  0  0  0  0  0
   -4.4892    2.1043   -0.9993 F   0  0  0  0  0  0  0  0  0  0  0  0
   -3.2090    3.1639    0.5772 F   0  0  0  0  0  0  0  0  0  0  0  0
   -5.5150    3.2295    0.7453 F   0  0  0  0  0  0  0  0  0  0  0  0
   -4.3663    1.2581    1.1225 F   0  0  0  0  0  0  0  0  0  0  0  0
  1 11  2  0  0  0  0
  2  1  1  0  0  0  0
  3  2  1  0  0  0  0
  4  5  2  0  0  0  0
  4  1  1  0  0  0  0
  5  6  1  0  0  0  0
  6  7  1  0  0  0  0
  6 10  2  0  0  0  0
  7  9  2  0  0  0  0
  8  7  2  0  0  0  0
 10 14  1  0  0  0  0
 11 10  1  0  0  0  0
 11 15  1  0  0  0  0
 12  4  1  0  0  0  0
 13  5  1  0  0  0  0
 16 18  1  0  0  0  0
 16 19  1  0  0  0  0
 16 20  1  0  0  0  0
 17 16  1  0  0  0  0
M  RAD  2   2   2   3   3
M  END
