Coordinates from ORCA-job 4-NO2PhN2+~BF4-_B3LYPG-6-31G_dp-CH-Scan-d09-49-n800
 OpenBabel11261918593D

 20 18  0  0  0  0  0  0  0  0999 V2000
   -2.1319    0.0207   -0.1317 C   0  0  0  0  0  0  0  0  0  0  0  0
   -3.4892   -0.2723   -0.2468 N   0  0  0  0  0  0  0  0  0  0  0  0
   -4.5750   -0.4838   -0.3596 N   0  0  0  0  0  0  0  0  0  0  0  0
   -1.7568    1.3677   -0.2437 C   0  0  0  0  0  0  0  0  0  0  0  0
   -0.3699    1.5722   -0.1354 C   0  0  0  0  0  0  0  0  0  0  0  0
    0.4945    0.5032    0.0659 C   0  0  0  0  0  0  0  0  0  0  0  0
    1.9533    0.7700    0.1756 N   0  0  0  0  0  0  0  0  0  0  0  0
    2.3222    1.9339    0.0718 O   0  0  0  0  0  0  0  0  0  0  0  0
    2.6856   -0.1986    0.3624 O   0  0  0  0  0  0  0  0  0  0  0  0
    0.0705   -0.8291    0.1747 C   0  0  0  0  0  0  0  0  0  0  0  0
   -1.2812   -1.0899    0.0729 C   0  0  0  0  0  0  0  0  0  0  0  0
   -2.7642    2.4827   -0.3997 H   0  0  0  0  0  0  0  0  0  0  0  0
    0.0471    2.5704   -0.2040 H   0  0  0  0  0  0  0  0  0  0  0  0
    0.7969   -1.6146    0.3338 H   0  0  0  0  0  0  0  0  0  0  0  0
   -1.6726   -2.0988    0.1477 H   0  0  0  0  0  0  0  0  0  0  0  0
   -4.9488    2.6553   -0.0319 B   0  0  0  0  0  0  0  0  0  0  0  0
   -5.3018    1.8493   -1.1037 F   0  0  0  0  0  0  0  0  0  0  0  0
   -3.6081    3.3056   -0.4653 F   0  0  0  0  0  0  0  0  0  0  0  0
   -5.8009    3.6719    0.2253 F   0  0  0  0  0  0  0  0  0  0  0  0
   -4.6004    1.8838    1.0679 F   0  0  0  0  0  0  0  0  0  0  0  0
  1 11  2  0  0  0  0
  2  1  1  0  0  0  0
  3  2  1  0  0  0  0
  4  5  2  0  0  0  0
  4  1  1  0  0  0  0
  5  6  1  0  0  0  0
  6 10  2  0  0  0  0
  6  7  1  0  0  0  0
  7  9  2  0  0  0  0
  8  7  2  0  0  0  0
 10 14  1  0  0  0  0
 11 15  1  0  0  0  0
 11 10  1  0  0  0  0
 13  5  1  0  0  0  0
 16 19  1  0  0  0  0
 16 20  1  0  0  0  0
 17 16  1  0  0  0  0
 18 12  1  0  0  0  0
M  RAD  3   2   2   3   3   4   2
M  END
