Coordinates from ORCA-job 4-NO2PhN2+~BF4-_B3LYPG-6-31G_dp-CH-Scan-d09-49-n800
 OpenBabel11261918593D

 20 18  0  0  0  0  0  0  0  0999 V2000
   -1.8030   -0.0811    0.0212 C   0  0  0  0  0  0  0  0  0  0  0  0
   -3.1944   -0.2620   -0.0061 N   0  0  0  0  0  0  0  0  0  0  0  0
   -4.3078   -0.3362   -0.0266 N   0  0  0  0  0  0  0  0  0  0  0  0
   -1.4352    1.2673    0.0087 C   0  0  0  0  0  0  0  0  0  0  0  0
   -0.0129    1.3767    0.0387 C   0  0  0  0  0  0  0  0  0  0  0  0
    0.8122    0.2626    0.0733 C   0  0  0  0  0  0  0  0  0  0  0  0
    2.2874    0.4516    0.1024 N   0  0  0  0  0  0  0  0  0  0  0  0
    2.7152    1.6015    0.0952 O   0  0  0  0  0  0  0  0  0  0  0  0
    2.9872   -0.5603    0.1341 O   0  0  0  0  0  0  0  0  0  0  0  0
    0.3409   -1.0682    0.0830 C   0  0  0  0  0  0  0  0  0  0  0  0
   -1.0198   -1.2655    0.0563 C   0  0  0  0  0  0  0  0  0  0  0  0
   -3.5750    3.8645   -0.2237 H   0  0  0  0  0  0  0  0  0  0  0  0
    0.4643    2.3525    0.0346 H   0  0  0  0  0  0  0  0  0  0  0  0
    1.0457   -1.8879    0.1107 H   0  0  0  0  0  0  0  0  0  0  0  0
   -1.4571   -2.2598    0.0620 H   0  0  0  0  0  0  0  0  0  0  0  0
   -5.8007    2.6545   -0.1809 B   0  0  0  0  0  0  0  0  0  0  0  0
   -5.5660    1.9956   -1.3111 F   0  0  0  0  0  0  0  0  0  0  0  0
   -4.3913    4.1911   -0.5336 F   0  0  0  0  0  0  0  0  0  0  0  0
   -6.8414    3.4618   -0.0871 F   0  0  0  0  0  0  0  0  0  0  0  0
   -5.1793    2.2406    0.9249 F   0  0  0  0  0  0  0  0  0  0  0  0
  1 11  1  0  0  0  0
  2  1  1  0  0  0  0
  3  2  1  0  0  0  0
  4  1  2  0  0  0  0
  4  5  1  0  0  0  0
  5  6  2  0  0  0  0
  6 10  1  0  0  0  0
  6  7  1  0  0  0  0
  7  9  2  0  0  0  0
  8  7  2  0  0  0  0
 10 14  1  0  0  0  0
 11 15  1  0  0  0  0
 11 10  2  0  0  0  0
 13  5  1  0  0  0  0
 16 19  1  0  0  0  0
 16 20  1  0  0  0  0
 17 16  1  0  0  0  0
 18 12  1  0  0  0  0
M  RAD  3   2   2   3   3   4   2
M  END
