Coordinates from ORCA-job 4-NO2PhN2+~BF4-_B3LYPG-6-31G_dp-CH-Scan-d09-49-n800
 OpenBabel11261918593D

 20 18  0  0  0  0  0  0  0  0999 V2000
   -1.7887   -0.0815    0.0210 C   0  0  0  0  0  0  0  0  0  0  0  0
   -3.1814   -0.2553   -0.0078 N   0  0  0  0  0  0  0  0  0  0  0  0
   -4.2955   -0.3211   -0.0293 N   0  0  0  0  0  0  0  0  0  0  0  0
   -1.4169    1.2654    0.0129 C   0  0  0  0  0  0  0  0  0  0  0  0
    0.0060    1.3693    0.0446 C   0  0  0  0  0  0  0  0  0  0  0  0
    0.8269    0.2520    0.0767 C   0  0  0  0  0  0  0  0  0  0  0  0
    2.3028    0.4351    0.1079 N   0  0  0  0  0  0  0  0  0  0  0  0
    2.7352    1.5833    0.1038 O   0  0  0  0  0  0  0  0  0  0  0  0
    2.9988   -0.5795    0.1361 O   0  0  0  0  0  0  0  0  0  0  0  0
    0.3506   -1.0773    0.0819 C   0  0  0  0  0  0  0  0  0  0  0  0
   -1.0108   -1.2695    0.0533 C   0  0  0  0  0  0  0  0  0  0  0  0
   -3.6247    3.9225   -0.2300 H   0  0  0  0  0  0  0  0  0  0  0  0
    0.4871    2.3433    0.0439 H   0  0  0  0  0  0  0  0  0  0  0  0
    1.0524   -1.8996    0.1077 H   0  0  0  0  0  0  0  0  0  0  0  0
   -1.4519   -2.2622    0.0555 H   0  0  0  0  0  0  0  0  0  0  0  0
   -5.8259    2.6546   -0.1779 B   0  0  0  0  0  0  0  0  0  0  0  0
   -5.6021    1.9944   -1.3089 F   0  0  0  0  0  0  0  0  0  0  0  0
   -4.4428    4.2174   -0.5648 F   0  0  0  0  0  0  0  0  0  0  0  0
   -6.8763    3.4472   -0.0681 F   0  0  0  0  0  0  0  0  0  0  0  0
   -5.1738    2.2608    0.9175 F   0  0  0  0  0  0  0  0  0  0  0  0
  1 11  1  0  0  0  0
  2  1  1  0  0  0  0
  3  2  1  0  0  0  0
  4  1  2  0  0  0  0
  4  5  1  0  0  0  0
  5  6  2  0  0  0  0
  6 10  1  0  0  0  0
  6  7  1  0  0  0  0
  7  9  2  0  0  0  0
  8  7  2  0  0  0  0
 10 14  1  0  0  0  0
 11 15  1  0  0  0  0
 11 10  2  0  0  0  0
 13  5  1  0  0  0  0
 16 19  1  0  0  0  0
 16 20  1  0  0  0  0
 17 16  1  0  0  0  0
 18 12  1  0  0  0  0
M  RAD  3   2   2   3   3   4   2
M  END
