Coordinates from ORCA-job 4-NO2PhN2+~BF4-_B3LYPG-6-31G_dp-CH-Scan-d09-49-n800
 OpenBabel11261918593D

 20 18  0  0  0  0  0  0  0  0999 V2000
   -1.9389   -0.0432   -0.0059 C   0  0  0  0  0  0  0  0  0  0  0  0
   -3.3165   -0.2817   -0.0376 N   0  0  0  0  0  0  0  0  0  0  0  0
   -4.4210   -0.4295   -0.0675 N   0  0  0  0  0  0  0  0  0  0  0  0
   -1.5892    1.3120   -0.0678 C   0  0  0  0  0  0  0  0  0  0  0  0
   -0.1759    1.4635   -0.0342 C   0  0  0  0  0  0  0  0  0  0  0  0
    0.6774    0.3728    0.0490 C   0  0  0  0  0  0  0  0  0  0  0  0
    2.1468    0.6029    0.0783 N   0  0  0  0  0  0  0  0  0  0  0  0
    2.5414    1.7629    0.0270 O   0  0  0  0  0  0  0  0  0  0  0  0
    2.8710   -0.3887    0.1507 O   0  0  0  0  0  0  0  0  0  0  0  0
    0.2389   -0.9652    0.1087 C   0  0  0  0  0  0  0  0  0  0  0  0
   -1.1171   -1.1977    0.0811 C   0  0  0  0  0  0  0  0  0  0  0  0
   -3.1786    3.1748   -0.1932 H   0  0  0  0  0  0  0  0  0  0  0  0
    0.2729    2.4510   -0.0741 H   0  0  0  0  0  0  0  0  0  0  0  0
    0.9622   -1.7665    0.1736 H   0  0  0  0  0  0  0  0  0  0  0  0
   -1.5272   -2.2021    0.1237 H   0  0  0  0  0  0  0  0  0  0  0  0
   -5.5134    2.6785   -0.1792 B   0  0  0  0  0  0  0  0  0  0  0  0
   -5.2867    1.9739   -1.2984 F   0  0  0  0  0  0  0  0  0  0  0  0
   -3.9250    3.7579   -0.2374 F   0  0  0  0  0  0  0  0  0  0  0  0
   -6.3966    3.6682   -0.2023 F   0  0  0  0  0  0  0  0  0  0  0  0
   -5.2556    2.0555    0.9818 F   0  0  0  0  0  0  0  0  0  0  0  0
  1 11  2  0  0  0  0
  2  1  1  0  0  0  0
  3  2  1  0  0  0  0
  4  5  2  0  0  0  0
  4  1  1  0  0  0  0
  5  6  1  0  0  0  0
  6  7  1  0  0  0  0
  6 10  2  0  0  0  0
  7  9  2  0  0  0  0
  8  7  2  0  0  0  0
 10 14  1  0  0  0  0
 11 10  1  0  0  0  0
 11 15  1  0  0  0  0
 13  5  1  0  0  0  0
 16 20  1  0  0  0  0
 17 16  1  0  0  0  0
 18 12  1  0  0  0  0
 19 16  1  0  0  0  0
M  RAD  3   2   2   3   3   4   2
M  END
