Coordinates from ORCA-job 4-NO2PhN2+~BF4-_B3LYPG-6-31G_dp-CH-Scan-d09-49-n800
 OpenBabel11261918593D

 20 18  0  0  0  0  0  0  0  0999 V2000
   -1.9242   -0.0479   -0.0031 C   0  0  0  0  0  0  0  0  0  0  0  0
   -3.3033   -0.2815   -0.0320 N   0  0  0  0  0  0  0  0  0  0  0  0
   -4.4089   -0.4223   -0.0591 N   0  0  0  0  0  0  0  0  0  0  0  0
   -1.5733    1.3067   -0.0654 C   0  0  0  0  0  0  0  0  0  0  0  0
   -0.1589    1.4540   -0.0335 C   0  0  0  0  0  0  0  0  0  0  0  0
    0.6919    0.3614    0.0484 C   0  0  0  0  0  0  0  0  0  0  0  0
    2.1619    0.5878    0.0761 N   0  0  0  0  0  0  0  0  0  0  0  0
    2.5596    1.7469    0.0256 O   0  0  0  0  0  0  0  0  0  0  0  0
    2.8840   -0.4055    0.1479 O   0  0  0  0  0  0  0  0  0  0  0  0
    0.2504   -0.9759    0.1081 C   0  0  0  0  0  0  0  0  0  0  0  0
   -1.1060   -1.2052    0.0822 C   0  0  0  0  0  0  0  0  0  0  0  0
   -3.2092    3.2417   -0.1912 H   0  0  0  0  0  0  0  0  0  0  0  0
    0.2926    2.4404   -0.0737 H   0  0  0  0  0  0  0  0  0  0  0  0
    0.9722   -1.7788    0.1718 H   0  0  0  0  0  0  0  0  0  0  0  0
   -1.5186   -2.2086    0.1251 H   0  0  0  0  0  0  0  0  0  0  0  0
   -5.5516    2.6768   -0.1841 B   0  0  0  0  0  0  0  0  0  0  0  0
   -5.2917    1.9851   -1.3023 F   0  0  0  0  0  0  0  0  0  0  0  0
   -3.9657    3.8068   -0.2278 F   0  0  0  0  0  0  0  0  0  0  0  0
   -6.4480    3.6529   -0.2149 F   0  0  0  0  0  0  0  0  0  0  0  0
   -5.2843    2.0643    0.9781 F   0  0  0  0  0  0  0  0  0  0  0  0
  1 11  2  0  0  0  0
  2  1  1  0  0  0  0
  3  2  1  0  0  0  0
  4  5  2  0  0  0  0
  4  1  1  0  0  0  0
  5  6  1  0  0  0  0
  6  7  1  0  0  0  0
  6 10  2  0  0  0  0
  7  9  2  0  0  0  0
  8  7  2  0  0  0  0
 10 14  1  0  0  0  0
 11 10  1  0  0  0  0
 11 15  1  0  0  0  0
 13  5  1  0  0  0  0
 16 20  1  0  0  0  0
 17 16  1  0  0  0  0
 18 12  1  0  0  0  0
 19 16  1  0  0  0  0
M  RAD  3   2   2   3   3   4   2
M  END
