Coordinates from ORCA-job 4-NO2PhN2+~BF4-_B3LYPG-6-31G_dp-CH-Scan-d09-49-n800
 OpenBabel11261918593D

 20 18  0  0  0  0  0  0  0  0999 V2000
   -1.7150   -0.0774    0.0121 C   0  0  0  0  0  0  0  0  0  0  0  0
   -3.1137   -0.2119   -0.0304 N   0  0  0  0  0  0  0  0  0  0  0  0
   -4.2296   -0.2377   -0.0611 N   0  0  0  0  0  0  0  0  0  0  0  0
   -1.3158    1.2599    0.0197 C   0  0  0  0  0  0  0  0  0  0  0  0
    0.1097    1.3309    0.0638 C   0  0  0  0  0  0  0  0  0  0  0  0
    0.9040    0.1945    0.0928 C   0  0  0  0  0  0  0  0  0  0  0  0
    2.3834    0.3423    0.1382 N   0  0  0  0  0  0  0  0  0  0  0  0
    2.8431    1.4799    0.1533 O   0  0  0  0  0  0  0  0  0  0  0  0
    3.0554   -0.6884    0.1728 O   0  0  0  0  0  0  0  0  0  0  0  0
    0.3973   -1.1241    0.0822 C   0  0  0  0  0  0  0  0  0  0  0  0
   -0.9677   -1.2850    0.0402 C   0  0  0  0  0  0  0  0  0  0  0  0
   -3.9478    4.2313   -0.2543 H   0  0  0  0  0  0  0  0  0  0  0  0
    0.6131    2.2937    0.0758 H   0  0  0  0  0  0  0  0  0  0  0  0
    1.0802   -1.9622    0.1069 H   0  0  0  0  0  0  0  0  0  0  0  0
   -1.4320   -2.2671    0.0295 H   0  0  0  0  0  0  0  0  0  0  0  0
   -5.9324    2.6550   -0.1602 B   0  0  0  0  0  0  0  0  0  0  0  0
   -5.7882    1.9966   -1.3017 F   0  0  0  0  0  0  0  0  0  0  0  0
   -4.7415    4.3532   -0.7253 F   0  0  0  0  0  0  0  0  0  0  0  0
   -7.0335    3.3435    0.0778 F   0  0  0  0  0  0  0  0  0  0  0  0
   -5.0998    2.3725    0.8441 F   0  0  0  0  0  0  0  0  0  0  0  0
  1  4  2  0  0  0  0
  1 11  1  0  0  0  0
  2  1  1  0  0  0  0
  3  2  1  0  0  0  0
  4  5  1  0  0  0  0
  5 13  1  0  0  0  0
  5  6  2  0  0  0  0
  6  7  1  0  0  0  0
  7  8  2  0  0  0  0
  7  9  2  0  0  0  0
 10  6  1  0  0  0  0
 10 14  1  0  0  0  0
 11 10  2  0  0  0  0
 15 11  1  0  0  0  0
 16 19  1  0  0  0  0
 16 20  1  0  0  0  0
 17 16  1  0  0  0  0
 18 12  1  0  0  0  0
M  RAD  3   2   2   3   3   4   2
M  END
