Coordinates from ORCA-job 4-NO2PhN2+~BF4-_B3LYPG-6-31G_dp-CH-Scan-d09-49-n800
 OpenBabel11261918593D

 20 18  0  0  0  0  0  0  0  0999 V2000
   -1.6381   -0.0570    0.0390 C   0  0  0  0  0  0  0  0  0  0  0  0
   -3.0418   -0.1439    0.0059 N   0  0  0  0  0  0  0  0  0  0  0  0
   -4.1584   -0.1288   -0.0173 N   0  0  0  0  0  0  0  0  0  0  0  0
   -1.2003    1.2665    0.0768 C   0  0  0  0  0  0  0  0  0  0  0  0
    0.2273    1.2948    0.1115 C   0  0  0  0  0  0  0  0  0  0  0  0
    0.9870    0.1348    0.1063 C   0  0  0  0  0  0  0  0  0  0  0  0
    2.4703    0.2367    0.1447 N   0  0  0  0  0  0  0  0  0  0  0  0
    2.9647    1.3591    0.1844 O   0  0  0  0  0  0  0  0  0  0  0  0
    3.1118   -0.8140    0.1349 O   0  0  0  0  0  0  0  0  0  0  0  0
    0.4408   -1.1679    0.0659 C   0  0  0  0  0  0  0  0  0  0  0  0
   -0.9286   -1.2875    0.0303 C   0  0  0  0  0  0  0  0  0  0  0  0
   -4.3135    4.4829   -0.2670 H   0  0  0  0  0  0  0  0  0  0  0  0
    0.7589    2.2419    0.1434 H   0  0  0  0  0  0  0  0  0  0  0  0
    1.0989   -2.0261    0.0638 H   0  0  0  0  0  0  0  0  0  0  0  0
   -1.4223   -2.2548   -0.0021 H   0  0  0  0  0  0  0  0  0  0  0  0
   -6.0378    2.6587   -0.1817 B   0  0  0  0  0  0  0  0  0  0  0  0
   -5.8808    1.9929   -1.3152 F   0  0  0  0  0  0  0  0  0  0  0  0
   -5.0529    4.4747   -0.8323 F   0  0  0  0  0  0  0  0  0  0  0  0
   -7.1938    3.2278    0.1052 F   0  0  0  0  0  0  0  0  0  0  0  0
   -5.1225    2.5086    0.7794 F   0  0  0  0  0  0  0  0  0  0  0  0
  1  4  1  0  0  0  0
  2  1  1  0  0  0  0
  3  2  1  0  0  0  0
  4  5  2  0  0  0  0
  5 13  1  0  0  0  0
  6  5  1  0  0  0  0
  6  7  1  0  0  0  0
  7  8  2  0  0  0  0
  9  7  2  0  0  0  0
 10  6  2  0  0  0  0
 11  1  2  0  0  0  0
 11 10  1  0  0  0  0
 14 10  1  0  0  0  0
 15 11  1  0  0  0  0
 16 19  1  0  0  0  0
 16 20  1  0  0  0  0
 17 16  1  0  0  0  0
 18 12  1  0  0  0  0
M  RAD  3   2   2   3   3   4   2
M  END
