Coordinates from ORCA-job 4-NO2PhN2+~BF4-_B3LYPG-6-31G_dp-CH-Scan-d09-49-n800
 OpenBabel11261918593D

 20 18  0  0  0  0  0  0  0  0999 V2000
   -1.7894   -0.0805    0.0210 C   0  0  0  0  0  0  0  0  0  0  0  0
   -3.1821   -0.2548   -0.0079 N   0  0  0  0  0  0  0  0  0  0  0  0
   -4.2960   -0.3217   -0.0296 N   0  0  0  0  0  0  0  0  0  0  0  0
   -1.4171    1.2662    0.0125 C   0  0  0  0  0  0  0  0  0  0  0  0
    0.0058    1.3699    0.0444 C   0  0  0  0  0  0  0  0  0  0  0  0
    0.8265    0.2525    0.0769 C   0  0  0  0  0  0  0  0  0  0  0  0
    2.3024    0.4354    0.1082 N   0  0  0  0  0  0  0  0  0  0  0  0
    2.7350    1.5835    0.1022 O   0  0  0  0  0  0  0  0  0  0  0  0
    2.9982   -0.5794    0.1351 O   0  0  0  0  0  0  0  0  0  0  0  0
    0.3500   -1.0766    0.0823 C   0  0  0  0  0  0  0  0  0  0  0  0
   -1.0115   -1.2686    0.0537 C   0  0  0  0  0  0  0  0  0  0  0  0
   -3.6225    3.9189   -0.2294 H   0  0  0  0  0  0  0  0  0  0  0  0
    0.4869    2.3439    0.0435 H   0  0  0  0  0  0  0  0  0  0  0  0
    1.0515   -1.8991    0.1085 H   0  0  0  0  0  0  0  0  0  0  0  0
   -1.4528   -2.2612    0.0561 H   0  0  0  0  0  0  0  0  0  0  0  0
   -5.8251    2.6542   -0.1783 B   0  0  0  0  0  0  0  0  0  0  0  0
   -5.6000    1.9945   -1.3092 F   0  0  0  0  0  0  0  0  0  0  0  0
   -4.4407    4.2159   -0.5621 F   0  0  0  0  0  0  0  0  0  0  0  0
   -6.8751    3.4474   -0.0696 F   0  0  0  0  0  0  0  0  0  0  0  0
   -5.1752    2.2590    0.9179 F   0  0  0  0  0  0  0  0  0  0  0  0
  1 11  1  0  0  0  0
  2  1  1  0  0  0  0
  3  2  1  0  0  0  0
  4  1  2  0  0  0  0
  4  5  1  0  0  0  0
  5  6  2  0  0  0  0
  6 10  1  0  0  0  0
  6  7  1  0  0  0  0
  7  9  2  0  0  0  0
  8  7  2  0  0  0  0
 10 14  1  0  0  0  0
 11 15  1  0  0  0  0
 11 10  2  0  0  0  0
 13  5  1  0  0  0  0
 16 19  1  0  0  0  0
 16 20  1  0  0  0  0
 17 16  1  0  0  0  0
 18 12  1  0  0  0  0
M  RAD  3   2   2   3   3   4   2
M  END
