Coordinates from ORCA-job 4-NO2PhN2+~BF4-_B3LYPG-6-31G_dp-CH-Scan-d09-49-n800
 OpenBabel11261918593D

 20 18  0  0  0  0  0  0  0  0999 V2000
   -1.8822   -0.0586   -0.0042 C   0  0  0  0  0  0  0  0  0  0  0  0
   -3.2654   -0.2736   -0.0328 N   0  0  0  0  0  0  0  0  0  0  0  0
   -4.3744   -0.3898   -0.0592 N   0  0  0  0  0  0  0  0  0  0  0  0
   -1.5255    1.2936   -0.0680 C   0  0  0  0  0  0  0  0  0  0  0  0
   -0.1084    1.4288   -0.0338 C   0  0  0  0  0  0  0  0  0  0  0  0
    0.7335    0.3298    0.0512 C   0  0  0  0  0  0  0  0  0  0  0  0
    2.2053    0.5442    0.0824 N   0  0  0  0  0  0  0  0  0  0  0  0
    2.6131    1.6999    0.0330 O   0  0  0  0  0  0  0  0  0  0  0  0
    2.9198   -0.4547    0.1564 O   0  0  0  0  0  0  0  0  0  0  0  0
    0.2820   -1.0051    0.1112 C   0  0  0  0  0  0  0  0  0  0  0  0
   -1.0757   -1.2243    0.0834 C   0  0  0  0  0  0  0  0  0  0  0  0
   -3.3037    3.4158   -0.2101 H   0  0  0  0  0  0  0  0  0  0  0  0
    0.3519    2.4113   -0.0743 H   0  0  0  0  0  0  0  0  0  0  0  0
    0.9981   -1.8128    0.1769 H   0  0  0  0  0  0  0  0  0  0  0  0
   -1.4966   -2.2245    0.1265 H   0  0  0  0  0  0  0  0  0  0  0  0
   -5.6559    2.6707   -0.1831 B   0  0  0  0  0  0  0  0  0  0  0  0
   -5.3520    2.0169   -1.3081 F   0  0  0  0  0  0  0  0  0  0  0  0
   -4.0839    3.9365   -0.2441 F   0  0  0  0  0  0  0  0  0  0  0  0
   -6.5920    3.6055   -0.1995 F   0  0  0  0  0  0  0  0  0  0  0  0
   -5.3190    2.0898    0.9723 F   0  0  0  0  0  0  0  0  0  0  0  0
  1 11  2  0  0  0  0
  2  1  1  0  0  0  0
  3  2  1  0  0  0  0
  4  5  2  0  0  0  0
  4  1  1  0  0  0  0
  5  6  1  0  0  0  0
  6  7  1  0  0  0  0
  6 10  2  0  0  0  0
  7  9  2  0  0  0  0
  8  7  2  0  0  0  0
 10 14  1  0  0  0  0
 11 10  1  0  0  0  0
 11 15  1  0  0  0  0
 13  5  1  0  0  0  0
 16 20  1  0  0  0  0
 17 16  1  0  0  0  0
 18 12  1  0  0  0  0
 19 16  1  0  0  0  0
M  RAD  3   2   2   3   3   4   2
M  END
