Coordinates from ORCA-job 4-NO2PhN2+~BF4-_B3LYPG-6-31G_dp-CH-Scan-d09-49-n800
 OpenBabel11261918593D

 20 18  0  0  0  0  0  0  0  0999 V2000
   -2.0259   -0.0257   -0.0361 C   0  0  0  0  0  0  0  0  0  0  0  0
   -3.3950   -0.2977   -0.0791 N   0  0  0  0  0  0  0  0  0  0  0  0
   -4.4935   -0.4772   -0.1163 N   0  0  0  0  0  0  0  0  0  0  0  0
   -1.6852    1.3331   -0.1032 C   0  0  0  0  0  0  0  0  0  0  0  0
   -0.2796    1.5114   -0.0520 C   0  0  0  0  0  0  0  0  0  0  0  0
    0.5903    0.4350    0.0509 C   0  0  0  0  0  0  0  0  0  0  0  0
    2.0546    0.6914    0.1004 N   0  0  0  0  0  0  0  0  0  0  0  0
    2.4277    1.8583    0.0530 O   0  0  0  0  0  0  0  0  0  0  0  0
    2.7936   -0.2877    0.1857 O   0  0  0  0  0  0  0  0  0  0  0  0
    0.1715   -0.9068    0.1124 C   0  0  0  0  0  0  0  0  0  0  0  0
   -1.1813   -1.1603    0.0685 C   0  0  0  0  0  0  0  0  0  0  0  0
   -2.9993    2.8371   -0.2318 H   0  0  0  0  0  0  0  0  0  0  0  0
    0.1501    2.5068   -0.0927 H   0  0  0  0  0  0  0  0  0  0  0  0
    0.9051   -1.6975    0.1918 H   0  0  0  0  0  0  0  0  0  0  0  0
   -1.5751   -2.1709    0.1121 H   0  0  0  0  0  0  0  0  0  0  0  0
   -5.2706    2.6840   -0.1403 B   0  0  0  0  0  0  0  0  0  0  0  0
   -5.2373    1.9155   -1.2557 F   0  0  0  0  0  0  0  0  0  0  0  0
   -3.7138    3.5091   -0.2862 F   0  0  0  0  0  0  0  0  0  0  0  0
   -6.0981    3.7311   -0.1234 F   0  0  0  0  0  0  0  0  0  0  0  0
   -5.0692    2.0104    1.0182 F   0  0  0  0  0  0  0  0  0  0  0  0
  1 11  2  0  0  0  0
  2  1  1  0  0  0  0
  3  2  1  0  0  0  0
  4  5  2  0  0  0  0
  4  1  1  0  0  0  0
  5  6  1  0  0  0  0
  6  7  1  0  0  0  0
  6 10  2  0  0  0  0
  7  9  2  0  0  0  0
  8  7  2  0  0  0  0
 10 14  1  0  0  0  0
 11 15  1  0  0  0  0
 11 10  1  0  0  0  0
 13  5  1  0  0  0  0
 16 19  1  0  0  0  0
 16 20  1  0  0  0  0
 17 16  1  0  0  0  0
 18 12  1  0  0  0  0
M  RAD  3   2   2   3   3   4   2
M  END
