Coordinates from ORCA-job 4-NO2PhN2+~BF4-_B3LYPG-6-31G_dp-CH-Scan-d09-49-n800
 OpenBabel11261918593D

 20 18  0  0  0  0  0  0  0  0999 V2000
   -2.0325   -0.0238   -0.0358 C   0  0  0  0  0  0  0  0  0  0  0  0
   -3.4011   -0.2979   -0.0782 N   0  0  0  0  0  0  0  0  0  0  0  0
   -4.4991   -0.4796   -0.1149 N   0  0  0  0  0  0  0  0  0  0  0  0
   -1.6918    1.3351   -0.1026 C   0  0  0  0  0  0  0  0  0  0  0  0
   -0.2868    1.5149   -0.0519 C   0  0  0  0  0  0  0  0  0  0  0  0
    0.5840    0.4392    0.0504 C   0  0  0  0  0  0  0  0  0  0  0  0
    2.0481    0.6968    0.0994 N   0  0  0  0  0  0  0  0  0  0  0  0
    2.4200    1.8642    0.0524 O   0  0  0  0  0  0  0  0  0  0  0  0
    2.7880   -0.2816    0.1840 O   0  0  0  0  0  0  0  0  0  0  0  0
    0.1662   -0.9028    0.1116 C   0  0  0  0  0  0  0  0  0  0  0  0
   -1.1865   -1.1573    0.0682 C   0  0  0  0  0  0  0  0  0  0  0  0
   -2.9870    2.8159   -0.2285 H   0  0  0  0  0  0  0  0  0  0  0  0
    0.1417    2.5108   -0.0925 H   0  0  0  0  0  0  0  0  0  0  0  0
    0.9004   -1.6931    0.1905 H   0  0  0  0  0  0  0  0  0  0  0  0
   -1.5794   -2.1681    0.1116 H   0  0  0  0  0  0  0  0  0  0  0  0
   -5.2512    2.6834   -0.1411 B   0  0  0  0  0  0  0  0  0  0  0  0
   -5.2232    1.9102   -1.2552 F   0  0  0  0  0  0  0  0  0  0  0  0
   -3.7014    3.4943   -0.2831 F   0  0  0  0  0  0  0  0  0  0  0  0
   -6.0788    3.7315   -0.1272 F   0  0  0  0  0  0  0  0  0  0  0  0
   -5.0607    2.0070    1.0190 F   0  0  0  0  0  0  0  0  0  0  0  0
  1 11  2  0  0  0  0
  2  1  1  0  0  0  0
  3  2  1  0  0  0  0
  4  5  2  0  0  0  0
  4  1  1  0  0  0  0
  5  6  1  0  0  0  0
  6  7  1  0  0  0  0
  6 10  2  0  0  0  0
  7  9  2  0  0  0  0
  8  7  2  0  0  0  0
 10 14  1  0  0  0  0
 11 15  1  0  0  0  0
 11 10  1  0  0  0  0
 13  5  1  0  0  0  0
 16 19  1  0  0  0  0
 16 20  1  0  0  0  0
 17 16  1  0  0  0  0
 18 12  1  0  0  0  0
M  RAD  3   2   2   3   3   4   2
M  END
