Coordinates from ORCA-job 4-NO2PhN2+~BF4-_B3LYPG-6-31G_dp-CH-Scan-d09-49-n800
 OpenBabel11261918593D

 20 18  0  0  0  0  0  0  0  0999 V2000
   -1.9648   -0.0382   -0.0271 C   0  0  0  0  0  0  0  0  0  0  0  0
   -3.3395   -0.2876   -0.0703 N   0  0  0  0  0  0  0  0  0  0  0  0
   -4.4418   -0.4470   -0.1088 N   0  0  0  0  0  0  0  0  0  0  0  0
   -1.6182    1.3180   -0.0950 C   0  0  0  0  0  0  0  0  0  0  0  0
   -0.2074    1.4784   -0.0474 C   0  0  0  0  0  0  0  0  0  0  0  0
    0.6507    0.3929    0.0528 C   0  0  0  0  0  0  0  0  0  0  0  0
    2.1183    0.6317    0.0968 N   0  0  0  0  0  0  0  0  0  0  0  0
    2.5064    1.7938    0.0442 O   0  0  0  0  0  0  0  0  0  0  0  0
    2.8470   -0.3554    0.1834 O   0  0  0  0  0  0  0  0  0  0  0  0
    0.2184   -0.9463    0.1167 C   0  0  0  0  0  0  0  0  0  0  0  0
   -1.1362   -1.1860    0.0762 C   0  0  0  0  0  0  0  0  0  0  0  0
   -3.1222    3.0614   -0.2345 H   0  0  0  0  0  0  0  0  0  0  0  0
    0.2355    2.4684   -0.0894 H   0  0  0  0  0  0  0  0  0  0  0  0
    0.9449   -1.7436    0.1947 H   0  0  0  0  0  0  0  0  0  0  0  0
   -1.5411   -2.1923    0.1213 H   0  0  0  0  0  0  0  0  0  0  0  0
   -5.4425    2.6830   -0.1497 B   0  0  0  0  0  0  0  0  0  0  0  0
   -5.3141    1.9579   -1.2751 F   0  0  0  0  0  0  0  0  0  0  0  0
   -3.8553    3.6722   -0.2822 F   0  0  0  0  0  0  0  0  0  0  0  0
   -6.2998    3.6982   -0.1314 F   0  0  0  0  0  0  0  0  0  0  0  0
   -5.1691    2.0399    1.0008 F   0  0  0  0  0  0  0  0  0  0  0  0
  1 11  2  0  0  0  0
  2  1  1  0  0  0  0
  3  2  1  0  0  0  0
  4  5  2  0  0  0  0
  4  1  1  0  0  0  0
  5  6  1  0  0  0  0
  6  7  1  0  0  0  0
  6 10  2  0  0  0  0
  7  9  2  0  0  0  0
  8  7  2  0  0  0  0
 10 14  1  0  0  0  0
 11 10  1  0  0  0  0
 11 15  1  0  0  0  0
 13  5  1  0  0  0  0
 16 19  1  0  0  0  0
 16 20  1  0  0  0  0
 17 16  1  0  0  0  0
 18 12  1  0  0  0  0
M  RAD  3   2   2   3   3   4   2
M  END
