Coordinates from ORCA-job 4-NO2PhN2+~BF4-_B3LYPG-6-31G_dp-CH-Scan-d09-49-n800
 OpenBabel11261918593D

 20 18  0  0  0  0  0  0  0  0999 V2000
   -1.7234   -0.0796    0.0109 C   0  0  0  0  0  0  0  0  0  0  0  0
   -3.1214   -0.2185   -0.0317 N   0  0  0  0  0  0  0  0  0  0  0  0
   -4.2372   -0.2478   -0.0648 N   0  0  0  0  0  0  0  0  0  0  0  0
   -1.3282    1.2592    0.0150 C   0  0  0  0  0  0  0  0  0  0  0  0
    0.0970    1.3348    0.0602 C   0  0  0  0  0  0  0  0  0  0  0  0
    0.8950    0.2011    0.0927 C   0  0  0  0  0  0  0  0  0  0  0  0
    2.3738    0.3538    0.1388 N   0  0  0  0  0  0  0  0  0  0  0  0
    2.8301    1.4929    0.1431 O   0  0  0  0  0  0  0  0  0  0  0  0
    3.0493   -0.6747    0.1696 O   0  0  0  0  0  0  0  0  0  0  0  0
    0.3924   -1.1191    0.0852 C   0  0  0  0  0  0  0  0  0  0  0  0
   -0.9721   -1.2845    0.0427 C   0  0  0  0  0  0  0  0  0  0  0  0
   -3.9078    4.1971   -0.2510 H   0  0  0  0  0  0  0  0  0  0  0  0
    0.5973    2.2992    0.0701 H   0  0  0  0  0  0  0  0  0  0  0  0
    1.0780   -1.9550    0.1127 H   0  0  0  0  0  0  0  0  0  0  0  0
   -1.4332   -2.2681    0.0345 H   0  0  0  0  0  0  0  0  0  0  0  0
   -5.9211    2.6553   -0.1609 B   0  0  0  0  0  0  0  0  0  0  0  0
   -5.7714    2.0001   -1.3038 F   0  0  0  0  0  0  0  0  0  0  0  0
   -4.7071    4.3408   -0.7063 F   0  0  0  0  0  0  0  0  0  0  0  0
   -7.0169    3.3553    0.0675 F   0  0  0  0  0  0  0  0  0  0  0  0
   -5.1041    2.3571    0.8517 F   0  0  0  0  0  0  0  0  0  0  0  0
  1  4  2  0  0  0  0
  1 11  1  0  0  0  0
  2  1  1  0  0  0  0
  3  2  1  0  0  0  0
  4  5  1  0  0  0  0
  5 13  1  0  0  0  0
  5  6  2  0  0  0  0
  6  7  1  0  0  0  0
  7  8  2  0  0  0  0
  7  9  2  0  0  0  0
 10  6  1  0  0  0  0
 10 14  1  0  0  0  0
 11 10  2  0  0  0  0
 15 11  1  0  0  0  0
 16 19  1  0  0  0  0
 16 20  1  0  0  0  0
 17 16  1  0  0  0  0
 18 12  1  0  0  0  0
M  RAD  3   2   2   3   3   4   2
M  END
