Coordinates from ORCA-job 4-NO2PhN2+~BF4-_B3LYPG-6-31G_dp-CH-Scan-d09-49-n800
 OpenBabel11261918593D

 20 18  0  0  0  0  0  0  0  0999 V2000
   -1.6185   -0.0479    0.0420 C   0  0  0  0  0  0  0  0  0  0  0  0
   -3.0231   -0.1195    0.0096 N   0  0  0  0  0  0  0  0  0  0  0  0
   -4.1394   -0.0895   -0.0135 N   0  0  0  0  0  0  0  0  0  0  0  0
   -1.1689    1.2717    0.0804 C   0  0  0  0  0  0  0  0  0  0  0  0
    0.2590    1.2872    0.1140 C   0  0  0  0  0  0  0  0  0  0  0  0
    1.0079    0.1202    0.1078 C   0  0  0  0  0  0  0  0  0  0  0  0
    2.4922    0.2086    0.1455 N   0  0  0  0  0  0  0  0  0  0  0  0
    2.9967    1.3264    0.1872 O   0  0  0  0  0  0  0  0  0  0  0  0
    3.1240   -0.8478    0.1332 O   0  0  0  0  0  0  0  0  0  0  0  0
    0.4499   -1.1775    0.0670 C   0  0  0  0  0  0  0  0  0  0  0  0
   -0.9205   -1.2848    0.0321 C   0  0  0  0  0  0  0  0  0  0  0  0
   -4.3950    4.5248   -0.2654 H   0  0  0  0  0  0  0  0  0  0  0  0
    0.7991    2.2295    0.1459 H   0  0  0  0  0  0  0  0  0  0  0  0
    1.1003   -2.0415    0.0640 H   0  0  0  0  0  0  0  0  0  0  0  0
   -1.4230   -2.2475   -0.0008 H   0  0  0  0  0  0  0  0  0  0  0  0
   -6.0664    2.6577   -0.1881 B   0  0  0  0  0  0  0  0  0  0  0  0
   -5.8951    2.0016   -1.3250 F   0  0  0  0  0  0  0  0  0  0  0  0
   -5.1312    4.5037   -0.8346 F   0  0  0  0  0  0  0  0  0  0  0  0
   -7.2370    3.1917    0.1066 F   0  0  0  0  0  0  0  0  0  0  0  0
   -5.1422    2.5323    0.7682 F   0  0  0  0  0  0  0  0  0  0  0  0
  1  4  1  0  0  0  0
  2  1  1  0  0  0  0
  3  2  1  0  0  0  0
  4  5  2  0  0  0  0
  5 13  1  0  0  0  0
  6  5  1  0  0  0  0
  6  7  1  0  0  0  0
  7  8  2  0  0  0  0
  9  7  2  0  0  0  0
 10  6  2  0  0  0  0
 11  1  2  0  0  0  0
 11 10  1  0  0  0  0
 14 10  1  0  0  0  0
 15 11  1  0  0  0  0
 16 19  1  0  0  0  0
 16 20  1  0  0  0  0
 17 16  1  0  0  0  0
 18 12  1  0  0  0  0
M  RAD  3   2   2   3   3   4   2
M  END
