Coordinates from ORCA-job 4-NO2PhN2+~BF4-_B3LYPG-6-31G_dp-CH-Scan-d09-49-n800
 OpenBabel11261918593D

 20 18  0  0  0  0  0  0  0  0999 V2000
   -1.7668   -0.0831    0.0218 C   0  0  0  0  0  0  0  0  0  0  0  0
   -3.1615   -0.2450   -0.0091 N   0  0  0  0  0  0  0  0  0  0  0  0
   -4.2764   -0.2968   -0.0316 N   0  0  0  0  0  0  0  0  0  0  0  0
   -1.3888    1.2617    0.0215 C   0  0  0  0  0  0  0  0  0  0  0  0
    0.0351    1.3572    0.0547 C   0  0  0  0  0  0  0  0  0  0  0  0
    0.8494    0.2350    0.0817 C   0  0  0  0  0  0  0  0  0  0  0  0
    2.3263    0.4092    0.1155 N   0  0  0  0  0  0  0  0  0  0  0  0
    2.7657    1.5548    0.1170 O   0  0  0  0  0  0  0  0  0  0  0  0
    3.0165   -0.6096    0.1397 O   0  0  0  0  0  0  0  0  0  0  0  0
    0.3656   -1.0918    0.0793 C   0  0  0  0  0  0  0  0  0  0  0  0
   -0.9968   -1.2763    0.0484 C   0  0  0  0  0  0  0  0  0  0  0  0
   -3.7118    4.0176   -0.2339 H   0  0  0  0  0  0  0  0  0  0  0  0
    0.5218    2.3285    0.0596 H   0  0  0  0  0  0  0  0  0  0  0  0
    1.0628   -1.9181    0.1015 H   0  0  0  0  0  0  0  0  0  0  0  0
   -1.4438   -2.2664    0.0447 H   0  0  0  0  0  0  0  0  0  0  0  0
   -5.8608    2.6553   -0.1750 B   0  0  0  0  0  0  0  0  0  0  0  0
   -5.6554    1.9918   -1.3064 F   0  0  0  0  0  0  0  0  0  0  0  0
   -4.5258    4.2582   -0.6174 F   0  0  0  0  0  0  0  0  0  0  0  0
   -6.9278    3.4205   -0.0372 F   0  0  0  0  0  0  0  0  0  0  0  0
   -5.1583    2.2966    0.9013 F   0  0  0  0  0  0  0  0  0  0  0  0
  1 11  1  0  0  0  0
  2  1  1  0  0  0  0
  3  2  1  0  0  0  0
  4  1  2  0  0  0  0
  4  5  1  0  0  0  0
  5 13  1  0  0  0  0
  5  6  2  0  0  0  0
  6  7  1  0  0  0  0
  7  8  2  0  0  0  0
  7  9  2  0  0  0  0
 10  6  1  0  0  0  0
 10 14  1  0  0  0  0
 11 10  2  0  0  0  0
 15 11  1  0  0  0  0
 16 19  1  0  0  0  0
 16 20  1  0  0  0  0
 17 16  1  0  0  0  0
 18 12  1  0  0  0  0
M  RAD  3   2   2   3   3   4   2
M  END
