Coordinates from ORCA-job 4-NO2PhN2+~BF4-_B3LYPG-6-31G_dp-CH-Scan-d09-49-n800
 OpenBabel11261918593D

 20 18  0  0  0  0  0  0  0  0999 V2000
   -1.7174   -0.0788    0.0122 C   0  0  0  0  0  0  0  0  0  0  0  0
   -3.1158   -0.2142   -0.0301 N   0  0  0  0  0  0  0  0  0  0  0  0
   -4.2316   -0.2403   -0.0635 N   0  0  0  0  0  0  0  0  0  0  0  0
   -1.3197    1.2591    0.0184 C   0  0  0  0  0  0  0  0  0  0  0  0
    0.1057    1.3317    0.0635 C   0  0  0  0  0  0  0  0  0  0  0  0
    0.9013    0.1963    0.0938 C   0  0  0  0  0  0  0  0  0  0  0  0
    2.3805    0.3458    0.1398 N   0  0  0  0  0  0  0  0  0  0  0  0
    2.8392    1.4838    0.1466 O   0  0  0  0  0  0  0  0  0  0  0  0
    3.0538   -0.6843    0.1686 O   0  0  0  0  0  0  0  0  0  0  0  0
    0.3961   -1.1229    0.0841 C   0  0  0  0  0  0  0  0  0  0  0  0
   -0.9687   -1.2855    0.0417 C   0  0  0  0  0  0  0  0  0  0  0  0
   -3.9375    4.2234   -0.2503 H   0  0  0  0  0  0  0  0  0  0  0  0
    0.6080    2.2951    0.0749 H   0  0  0  0  0  0  0  0  0  0  0  0
    1.0799   -1.9603    0.1100 H   0  0  0  0  0  0  0  0  0  0  0  0
   -1.4319   -2.2681    0.0319 H   0  0  0  0  0  0  0  0  0  0  0  0
   -5.9290    2.6551   -0.1615 B   0  0  0  0  0  0  0  0  0  0  0  0
   -5.7824    1.9985   -1.3038 F   0  0  0  0  0  0  0  0  0  0  0  0
   -4.7316    4.3507   -0.7192 F   0  0  0  0  0  0  0  0  0  0  0  0
   -7.0290    3.3462    0.0737 F   0  0  0  0  0  0  0  0  0  0  0  0
   -5.1010    2.3680    0.8454 F   0  0  0  0  0  0  0  0  0  0  0  0
  1  4  2  0  0  0  0
  1 11  1  0  0  0  0
  2  1  1  0  0  0  0
  3  2  1  0  0  0  0
  4  5  1  0  0  0  0
  5 13  1  0  0  0  0
  5  6  2  0  0  0  0
  6  7  1  0  0  0  0
  7  8  2  0  0  0  0
  7  9  2  0  0  0  0
 10  6  1  0  0  0  0
 10 14  1  0  0  0  0
 11 10  2  0  0  0  0
 15 11  1  0  0  0  0
 16 19  1  0  0  0  0
 16 20  1  0  0  0  0
 17 16  1  0  0  0  0
 18 12  1  0  0  0  0
M  RAD  3   2   2   3   3   4   2
M  END
