Coordinates from ORCA-job 4-NO2PhN2+~BF4-_B3LYPG-6-31G_dp-CH-Scan-d09-49-n800
 OpenBabel11261918593D

 20 18  0  0  0  0  0  0  0  0999 V2000
   -1.8935   -0.0558   -0.0067 C   0  0  0  0  0  0  0  0  0  0  0  0
   -3.2756   -0.2757   -0.0370 N   0  0  0  0  0  0  0  0  0  0  0  0
   -4.3837   -0.3981   -0.0649 N   0  0  0  0  0  0  0  0  0  0  0  0
   -1.5386    1.2971   -0.0698 C   0  0  0  0  0  0  0  0  0  0  0  0
   -0.1223    1.4359   -0.0349 C   0  0  0  0  0  0  0  0  0  0  0  0
    0.7222    0.3388    0.0502 C   0  0  0  0  0  0  0  0  0  0  0  0
    2.1934    0.5567    0.0818 N   0  0  0  0  0  0  0  0  0  0  0  0
    2.5983    1.7136    0.0355 O   0  0  0  0  0  0  0  0  0  0  0  0
    2.9100   -0.4403    0.1592 O   0  0  0  0  0  0  0  0  0  0  0  0
    0.2736   -0.9968    0.1099 C   0  0  0  0  0  0  0  0  0  0  0  0
   -1.0837   -1.2191    0.0812 C   0  0  0  0  0  0  0  0  0  0  0  0
   -3.2763    3.3617   -0.2102 H   0  0  0  0  0  0  0  0  0  0  0  0
    0.3355    2.4196   -0.0750 H   0  0  0  0  0  0  0  0  0  0  0  0
    0.9913   -1.8030    0.1757 H   0  0  0  0  0  0  0  0  0  0  0  0
   -1.5022   -2.2202    0.1238 H   0  0  0  0  0  0  0  0  0  0  0  0
   -5.6286    2.6740   -0.1785 B   0  0  0  0  0  0  0  0  0  0  0  0
   -5.3402    2.0013   -1.2977 F   0  0  0  0  0  0  0  0  0  0  0  0
   -4.0488    3.8965   -0.2450 F   0  0  0  0  0  0  0  0  0  0  0  0
   -6.5510    3.6230   -0.2036 F   0  0  0  0  0  0  0  0  0  0  0  0
   -5.3107    2.0902    0.9822 F   0  0  0  0  0  0  0  0  0  0  0  0
  1 11  2  0  0  0  0
  2  1  1  0  0  0  0
  3  2  1  0  0  0  0
  4  5  2  0  0  0  0
  4  1  1  0  0  0  0
  5  6  1  0  0  0  0
  6  7  1  0  0  0  0
  6 10  2  0  0  0  0
  7  9  2  0  0  0  0
  8  7  2  0  0  0  0
 10 14  1  0  0  0  0
 11 10  1  0  0  0  0
 11 15  1  0  0  0  0
 13  5  1  0  0  0  0
 16 20  1  0  0  0  0
 17 16  1  0  0  0  0
 18 12  1  0  0  0  0
 19 16  1  0  0  0  0
M  RAD  3   2   2   3   3   4   2
M  END
