Coordinates from ORCA-job 4-NO2PhN2+~BF4-_B3LYPG-6-31G_dp-CH-Scan-d09-49-n800
 OpenBabel11261918593D

 20 18  0  0  0  0  0  0  0  0999 V2000
   -1.7296   -0.0808    0.0106 C   0  0  0  0  0  0  0  0  0  0  0  0
   -3.1272   -0.2232   -0.0315 N   0  0  0  0  0  0  0  0  0  0  0  0
   -4.2428   -0.2555   -0.0638 N   0  0  0  0  0  0  0  0  0  0  0  0
   -1.3373    1.2589    0.0130 C   0  0  0  0  0  0  0  0  0  0  0  0
    0.0877    1.3379    0.0576 C   0  0  0  0  0  0  0  0  0  0  0  0
    0.8883    0.2060    0.0913 C   0  0  0  0  0  0  0  0  0  0  0  0
    2.3668    0.3622    0.1367 N   0  0  0  0  0  0  0  0  0  0  0  0
    2.8203    1.5024    0.1394 O   0  0  0  0  0  0  0  0  0  0  0  0
    3.0446   -0.6647    0.1690 O   0  0  0  0  0  0  0  0  0  0  0  0
    0.3888   -1.1153    0.0856 C   0  0  0  0  0  0  0  0  0  0  0  0
   -0.9753   -1.2839    0.0437 C   0  0  0  0  0  0  0  0  0  0  0  0
   -3.8781    4.1711   -0.2497 H   0  0  0  0  0  0  0  0  0  0  0  0
    0.5858    2.3034    0.0660 H   0  0  0  0  0  0  0  0  0  0  0  0
    1.0762   -1.9496    0.1139 H   0  0  0  0  0  0  0  0  0  0  0  0
   -1.4342   -2.2686    0.0369 H   0  0  0  0  0  0  0  0  0  0  0  0
   -5.9127    2.6558   -0.1613 B   0  0  0  0  0  0  0  0  0  0  0  0
   -5.7580    2.0010   -1.3041 F   0  0  0  0  0  0  0  0  0  0  0  0
   -4.6811    4.3302   -0.6933 F   0  0  0  0  0  0  0  0  0  0  0  0
   -7.0044    3.3651    0.0577 F   0  0  0  0  0  0  0  0  0  0  0  0
   -5.1088    2.3470    0.8585 F   0  0  0  0  0  0  0  0  0  0  0  0
  1  4  2  0  0  0  0
  1 11  1  0  0  0  0
  2  1  1  0  0  0  0
  3  2  1  0  0  0  0
  4  5  1  0  0  0  0
  5 13  1  0  0  0  0
  5  6  2  0  0  0  0
  6  7  1  0  0  0  0
  7  8  2  0  0  0  0
  7  9  2  0  0  0  0
 10  6  1  0  0  0  0
 10 14  1  0  0  0  0
 11 10  2  0  0  0  0
 15 11  1  0  0  0  0
 16 19  1  0  0  0  0
 16 20  1  0  0  0  0
 17 16  1  0  0  0  0
 18 12  1  0  0  0  0
M  RAD  3   2   2   3   3   4   2
M  END
