Coordinates from ORCA-job 4-NO2PhN2+~BF4-_B3LYPG-6-31G_dp-CH-Scan-d09-49-n800
 OpenBabel11261918593D

 20 18  0  0  0  0  0  0  0  0999 V2000
   -1.6445   -0.0590    0.0384 C   0  0  0  0  0  0  0  0  0  0  0  0
   -3.0478   -0.1499    0.0052 N   0  0  0  0  0  0  0  0  0  0  0  0
   -4.1644   -0.1383   -0.0182 N   0  0  0  0  0  0  0  0  0  0  0  0
   -1.2099    1.2656    0.0757 C   0  0  0  0  0  0  0  0  0  0  0  0
    0.2176    1.2975    0.1107 C   0  0  0  0  0  0  0  0  0  0  0  0
    0.9803    0.1394    0.1059 C   0  0  0  0  0  0  0  0  0  0  0  0
    2.4633    0.2451    0.1445 N   0  0  0  0  0  0  0  0  0  0  0  0
    2.9548    1.3688    0.1826 O   0  0  0  0  0  0  0  0  0  0  0  0
    3.1074   -0.8040    0.1345 O   0  0  0  0  0  0  0  0  0  0  0  0
    0.4374   -1.1647    0.0659 C   0  0  0  0  0  0  0  0  0  0  0  0
   -0.9317   -1.2877    0.0302 C   0  0  0  0  0  0  0  0  0  0  0  0
   -4.2877    4.4675   -0.2664 H   0  0  0  0  0  0  0  0  0  0  0  0
    0.7469    2.2459    0.1424 H   0  0  0  0  0  0  0  0  0  0  0  0
    1.0976   -2.0213    0.0642 H   0  0  0  0  0  0  0  0  0  0  0  0
   -1.4230   -2.2562   -0.0019 H   0  0  0  0  0  0  0  0  0  0  0  0
   -6.0281    2.6580   -0.1804 B   0  0  0  0  0  0  0  0  0  0  0  0
   -5.8741    1.9905   -1.3135 F   0  0  0  0  0  0  0  0  0  0  0  0
   -5.0285    4.4654   -0.8299 F   0  0  0  0  0  0  0  0  0  0  0  0
   -7.1803    3.2362    0.1038 F   0  0  0  0  0  0  0  0  0  0  0  0
   -5.1163    2.5004    0.7827 F   0  0  0  0  0  0  0  0  0  0  0  0
  1  4  1  0  0  0  0
  2  1  1  0  0  0  0
  3  2  1  0  0  0  0
  4  5  2  0  0  0  0
  5 13  1  0  0  0  0
  6  5  1  0  0  0  0
  6  7  1  0  0  0  0
  7  8  2  0  0  0  0
  9  7  2  0  0  0  0
 10  6  2  0  0  0  0
 11  1  2  0  0  0  0
 11 10  1  0  0  0  0
 14 10  1  0  0  0  0
 15 11  1  0  0  0  0
 16 19  1  0  0  0  0
 16 20  1  0  0  0  0
 17 16  1  0  0  0  0
 18 12  1  0  0  0  0
M  RAD  3   2   2   3   3   4   2
M  END
