Coordinates from ORCA-job 4-NO2PhN2+~BF4-_B3LYPG-6-31G_dp-CH-Scan-d09-49-n800
 OpenBabel11261918593D

 20 19  0  0  0  0  0  0  0  0999 V2000
   -2.3094    0.1163   -0.4241 C   0  0  0  0  0  0  0  0  0  0  0  0
   -3.6341   -0.2167   -0.6898 N   0  0  0  0  0  0  0  0  0  0  0  0
   -4.6344   -0.6297   -0.9345 N   0  0  0  0  0  0  0  0  0  0  0  0
   -1.8160    1.3613   -0.8354 C   0  0  0  0  0  0  0  0  0  0  0  0
   -0.4652    1.6048   -0.5987 C   0  0  0  0  0  0  0  0  0  0  0  0
    0.3044    0.6327    0.0293 C   0  0  0  0  0  0  0  0  0  0  0  0
    1.7424    0.9118    0.2710 N   0  0  0  0  0  0  0  0  0  0  0  0
    2.1774    1.9866   -0.1246 O   0  0  0  0  0  0  0  0  0  0  0  0
    2.3880    0.0419    0.8480 O   0  0  0  0  0  0  0  0  0  0  0  0
   -0.2051   -0.5992    0.4478 C   0  0  0  0  0  0  0  0  0  0  0  0
   -1.5423   -0.8738    0.2158 C   0  0  0  0  0  0  0  0  0  0  0  0
   -2.3899    1.9961   -1.2365 H   0  0  0  0  0  0  0  0  0  0  0  0
   -0.0168    2.5480   -0.8833 H   0  0  0  0  0  0  0  0  0  0  0  0
    0.4451   -1.3115    0.9386 H   0  0  0  0  0  0  0  0  0  0  0  0
   -1.9889   -1.8119    0.5230 H   0  0  0  0  0  0  0  0  0  0  0  0
   -4.4206    2.4854    0.3919 B   0  0  0  0  0  0  0  0  0  0  0  0
   -4.4872    2.1012   -1.0002 F   0  0  0  0  0  0  0  0  0  0  0  0
   -3.2030    3.1609    0.5729 F   0  0  0  0  0  0  0  0  0  0  0  0
   -5.5087    3.2347    0.7414 F   0  0  0  0  0  0  0  0  0  0  0  0
   -4.3666    1.2604    1.1235 F   0  0  0  0  0  0  0  0  0  0  0  0
  1 11  2  0  0  0  0
  2  1  1  0  0  0  0
  3  2  1  0  0  0  0
  4  5  2  0  0  0  0
  4  1  1  0  0  0  0
  5  6  1  0  0  0  0
  6  7  1  0  0  0  0
  6 10  2  0  0  0  0
  7  9  2  0  0  0  0
  8  7  2  0  0  0  0
 10 14  1  0  0  0  0
 11 10  1  0  0  0  0
 11 15  1  0  0  0  0
 12  4  1  0  0  0  0
 13  5  1  0  0  0  0
 16 18  1  0  0  0  0
 16 19  1  0  0  0  0
 16 20  1  0  0  0  0
 17 16  1  0  0  0  0
M  RAD  2   2   2   3   3
M  END
