Coordinates from ORCA-job 4-NO2PhN2+~BF4-_B3LYPG-6-31G_dp-CH-Scan-d09-49-n800
 OpenBabel11261918593D

 20 18  0  0  0  0  0  0  0  0999 V2000
   -1.8129   -0.0732   -0.0138 C   0  0  0  0  0  0  0  0  0  0  0  0
   -3.2025   -0.2589   -0.0543 N   0  0  0  0  0  0  0  0  0  0  0  0
   -4.3149   -0.3407   -0.0908 N   0  0  0  0  0  0  0  0  0  0  0  0
   -1.4429    1.2737   -0.0766 C   0  0  0  0  0  0  0  0  0  0  0  0
   -0.0220    1.3859   -0.0314 C   0  0  0  0  0  0  0  0  0  0  0  0
    0.8028    0.2748    0.0609 C   0  0  0  0  0  0  0  0  0  0  0  0
    2.2774    0.4662    0.1026 N   0  0  0  0  0  0  0  0  0  0  0  0
    2.7046    1.6151    0.0517 O   0  0  0  0  0  0  0  0  0  0  0  0
    2.9766   -0.5431    0.1857 O   0  0  0  0  0  0  0  0  0  0  0  0
    0.3314   -1.0544    0.1193 C   0  0  0  0  0  0  0  0  0  0  0  0
   -1.0288   -1.2538    0.0814 C   0  0  0  0  0  0  0  0  0  0  0  0
   -3.4958    3.7453   -0.2542 H   0  0  0  0  0  0  0  0  0  0  0  0
    0.4547    2.3612   -0.0693 H   0  0  0  0  0  0  0  0  0  0  0  0
    1.0357   -1.8719    0.1913 H   0  0  0  0  0  0  0  0  0  0  0  0
   -1.4657   -2.2473    0.1224 H   0  0  0  0  0  0  0  0  0  0  0  0
   -5.7977    2.6590   -0.1640 B   0  0  0  0  0  0  0  0  0  0  0  0
   -5.4668    2.0488   -1.3002 F   0  0  0  0  0  0  0  0  0  0  0  0
   -4.3309    4.1559   -0.3212 F   0  0  0  0  0  0  0  0  0  0  0  0
   -6.8165    3.4991   -0.1365 F   0  0  0  0  0  0  0  0  0  0  0  0
   -5.3166    2.1577    0.9733 F   0  0  0  0  0  0  0  0  0  0  0  0
  1 11  2  0  0  0  0
  2  1  1  0  0  0  0
  3  2  1  0  0  0  0
  4  5  2  0  0  0  0
  4  1  1  0  0  0  0
  5  6  1  0  0  0  0
  6  7  1  0  0  0  0
  6 10  2  0  0  0  0
  7  9  2  0  0  0  0
  8  7  2  0  0  0  0
 10 14  1  0  0  0  0
 11 10  1  0  0  0  0
 11 15  1  0  0  0  0
 13  5  1  0  0  0  0
 16 19  1  0  0  0  0
 16 20  1  0  0  0  0
 17 16  1  0  0  0  0
 18 12  1  0  0  0  0
M  RAD  3   2   2   3   3   4   2
M  END
