Coordinates from ORCA-job 4-NO2PhN2+~BF4-_B3LYPG-6-31G_dp-CH-Scan-d09-49-n800
 OpenBabel11261918593D

 20 18  0  0  0  0  0  0  0  0999 V2000
   -2.0745   -0.0100   -0.0376 C   0  0  0  0  0  0  0  0  0  0  0  0
   -3.4399   -0.2960   -0.0801 N   0  0  0  0  0  0  0  0  0  0  0  0
   -4.5350   -0.4902   -0.1177 N   0  0  0  0  0  0  0  0  0  0  0  0
   -1.7308    1.3486   -0.1033 C   0  0  0  0  0  0  0  0  0  0  0  0
   -0.3300    1.5377   -0.0537 C   0  0  0  0  0  0  0  0  0  0  0  0
    0.5454    0.4650    0.0474 C   0  0  0  0  0  0  0  0  0  0  0  0
    2.0082    0.7296    0.0957 N   0  0  0  0  0  0  0  0  0  0  0  0
    2.3734    1.8988    0.0486 O   0  0  0  0  0  0  0  0  0  0  0  0
    2.7517   -0.2457    0.1798 O   0  0  0  0  0  0  0  0  0  0  0  0
    0.1320   -0.8768    0.1080 C   0  0  0  0  0  0  0  0  0  0  0  0
   -1.2206   -1.1362    0.0651 C   0  0  0  0  0  0  0  0  0  0  0  0
   -2.9051    2.6832   -0.2147 H   0  0  0  0  0  0  0  0  0  0  0  0
    0.0916    2.5363   -0.0939 H   0  0  0  0  0  0  0  0  0  0  0  0
    0.8683   -1.6652    0.1861 H   0  0  0  0  0  0  0  0  0  0  0  0
   -1.6090   -2.1487    0.1081 H   0  0  0  0  0  0  0  0  0  0  0  0
   -5.1270    2.6777   -0.1395 B   0  0  0  0  0  0  0  0  0  0  0  0
   -5.1448    1.8814   -1.2497 F   0  0  0  0  0  0  0  0  0  0  0  0
   -3.6298    3.4082   -0.2701 F   0  0  0  0  0  0  0  0  0  0  0  0
   -5.9644    3.7252   -0.1271 F   0  0  0  0  0  0  0  0  0  0  0  0
   -4.9908    1.9763    1.0246 F   0  0  0  0  0  0  0  0  0  0  0  0
  1 11  2  0  0  0  0
  2  1  1  0  0  0  0
  3  2  1  0  0  0  0
  4  5  2  0  0  0  0
  4  1  1  0  0  0  0
  5  6  1  0  0  0  0
  6  7  1  0  0  0  0
  6 10  2  0  0  0  0
  7  9  2  0  0  0  0
  8  7  2  0  0  0  0
 10 14  1  0  0  0  0
 11 10  1  0  0  0  0
 11 15  1  0  0  0  0
 13  5  1  0  0  0  0
 16 19  1  0  0  0  0
 16 20  1  0  0  0  0
 17 16  1  0  0  0  0
 18 12  1  0  0  0  0
M  RAD  3   2   2   3   3   4   2
M  END
