Coordinates from ORCA-job 4-NO2PhN2+~BF4-_B3LYPG-6-31G_dp-CH-Scan-d09-49-n800
 OpenBabel11261918593D

 20 18  0  0  0  0  0  0  0  0999 V2000
   -2.0303   -0.0244   -0.0359 C   0  0  0  0  0  0  0  0  0  0  0  0
   -3.3991   -0.2978   -0.0785 N   0  0  0  0  0  0  0  0  0  0  0  0
   -4.4973   -0.4788   -0.1154 N   0  0  0  0  0  0  0  0  0  0  0  0
   -1.6896    1.3344   -0.1029 C   0  0  0  0  0  0  0  0  0  0  0  0
   -0.2844    1.5137   -0.0520 C   0  0  0  0  0  0  0  0  0  0  0  0
    0.5861    0.4378    0.0505 C   0  0  0  0  0  0  0  0  0  0  0  0
    2.0503    0.6950    0.0998 N   0  0  0  0  0  0  0  0  0  0  0  0
    2.4225    1.8622    0.0527 O   0  0  0  0  0  0  0  0  0  0  0  0
    2.7898   -0.2837    0.1847 O   0  0  0  0  0  0  0  0  0  0  0  0
    0.1679   -0.9041    0.1119 C   0  0  0  0  0  0  0  0  0  0  0  0
   -1.1848   -1.1583    0.0682 C   0  0  0  0  0  0  0  0  0  0  0  0
   -2.9910    2.8230   -0.2297 H   0  0  0  0  0  0  0  0  0  0  0  0
    0.1445    2.5095   -0.0926 H   0  0  0  0  0  0  0  0  0  0  0  0
    0.9019   -1.6946    0.1909 H   0  0  0  0  0  0  0  0  0  0  0  0
   -1.5780   -2.1691    0.1117 H   0  0  0  0  0  0  0  0  0  0  0  0
   -5.2576    2.6837   -0.1408 B   0  0  0  0  0  0  0  0  0  0  0  0
   -5.2278    1.9119   -1.2552 F   0  0  0  0  0  0  0  0  0  0  0  0
   -3.7055    3.4993   -0.2841 F   0  0  0  0  0  0  0  0  0  0  0  0
   -6.0851    3.7314   -0.1260 F   0  0  0  0  0  0  0  0  0  0  0  0
   -5.0636    2.0083    1.0189 F   0  0  0  0  0  0  0  0  0  0  0  0
  1 11  2  0  0  0  0
  2  1  1  0  0  0  0
  3  2  1  0  0  0  0
  4  5  2  0  0  0  0
  4  1  1  0  0  0  0
  5  6  1  0  0  0  0
  6  7  1  0  0  0  0
  6 10  2  0  0  0  0
  7  9  2  0  0  0  0
  8  7  2  0  0  0  0
 10 14  1  0  0  0  0
 11 15  1  0  0  0  0
 11 10  1  0  0  0  0
 13  5  1  0  0  0  0
 16 19  1  0  0  0  0
 16 20  1  0  0  0  0
 17 16  1  0  0  0  0
 18 12  1  0  0  0  0
M  RAD  3   2   2   3   3   4   2
M  END
