Coordinates from ORCA-job 4-NO2PhN2+~BF4-_B3LYPG-6-31G_dp-CH-Scan-d09-49-n800
 OpenBabel11261918593D

 20 18  0  0  0  0  0  0  0  0999 V2000
   -1.6157   -0.0475    0.0423 C   0  0  0  0  0  0  0  0  0  0  0  0
   -3.0203   -0.1172    0.0101 N   0  0  0  0  0  0  0  0  0  0  0  0
   -4.1366   -0.0845   -0.0125 N   0  0  0  0  0  0  0  0  0  0  0  0
   -1.1649    1.2718    0.0806 C   0  0  0  0  0  0  0  0  0  0  0  0
    0.2630    1.2859    0.1142 C   0  0  0  0  0  0  0  0  0  0  0  0
    1.0108    0.1181    0.1080 C   0  0  0  0  0  0  0  0  0  0  0  0
    2.4951    0.2050    0.1457 N   0  0  0  0  0  0  0  0  0  0  0  0
    3.0008    1.3224    0.1872 O   0  0  0  0  0  0  0  0  0  0  0  0
    3.1260   -0.8520    0.1329 O   0  0  0  0  0  0  0  0  0  0  0  0
    0.4515   -1.1791    0.0673 C   0  0  0  0  0  0  0  0  0  0  0  0
   -0.9190   -1.2851    0.0324 C   0  0  0  0  0  0  0  0  0  0  0  0
   -4.4064    4.5309   -0.2646 H   0  0  0  0  0  0  0  0  0  0  0  0
    0.8041    2.2276    0.1459 H   0  0  0  0  0  0  0  0  0  0  0  0
    1.1011   -2.0437    0.0644 H   0  0  0  0  0  0  0  0  0  0  0  0
   -1.4225   -2.2473   -0.0004 H   0  0  0  0  0  0  0  0  0  0  0  0
   -6.0704    2.6583   -0.1892 B   0  0  0  0  0  0  0  0  0  0  0  0
   -5.8968    2.0037   -1.3267 F   0  0  0  0  0  0  0  0  0  0  0  0
   -5.1421    4.5085   -0.8344 F   0  0  0  0  0  0  0  0  0  0  0  0
   -7.2431    3.1872    0.1062 F   0  0  0  0  0  0  0  0  0  0  0  0
   -5.1453    2.5362    0.7667 F   0  0  0  0  0  0  0  0  0  0  0  0
  1  4  1  0  0  0  0
  2  1  1  0  0  0  0
  3  2  1  0  0  0  0
  4  5  2  0  0  0  0
  5 13  1  0  0  0  0
  6  5  1  0  0  0  0
  6  7  1  0  0  0  0
  7  8  2  0  0  0  0
  9  7  2  0  0  0  0
 10  6  2  0  0  0  0
 11  1  2  0  0  0  0
 11 10  1  0  0  0  0
 14 10  1  0  0  0  0
 15 11  1  0  0  0  0
 16 19  1  0  0  0  0
 16 20  1  0  0  0  0
 17 16  1  0  0  0  0
 18 12  1  0  0  0  0
M  RAD  3   2   2   3   3   4   2
M  END
