Coordinates from ORCA-job 4-NO2PhN2+~BF4-_B3LYPG-6-31G_dp-CH-Scan-d09-49-n800
 OpenBabel11261918593D

 20 18  0  0  0  0  0  0  0  0999 V2000
   -2.1229    0.0136   -0.1245 C   0  0  0  0  0  0  0  0  0  0  0  0
   -3.4813   -0.2807   -0.2310 N   0  0  0  0  0  0  0  0  0  0  0  0
   -4.5685   -0.4915   -0.3328 N   0  0  0  0  0  0  0  0  0  0  0  0
   -1.7566    1.3633   -0.2344 C   0  0  0  0  0  0  0  0  0  0  0  0
   -0.3670    1.5659   -0.1303 C   0  0  0  0  0  0  0  0  0  0  0  0
    0.5003    0.4984    0.0636 C   0  0  0  0  0  0  0  0  0  0  0  0
    1.9591    0.7671    0.1688 N   0  0  0  0  0  0  0  0  0  0  0  0
    2.3262    1.9322    0.0704 O   0  0  0  0  0  0  0  0  0  0  0  0
    2.6943   -0.2012    0.3469 O   0  0  0  0  0  0  0  0  0  0  0  0
    0.0799   -0.8360    0.1691 C   0  0  0  0  0  0  0  0  0  0  0  0
   -1.2712   -1.0986    0.0724 C   0  0  0  0  0  0  0  0  0  0  0  0
   -2.7933    2.5133   -0.3880 H   0  0  0  0  0  0  0  0  0  0  0  0
    0.0504    2.5643   -0.1970 H   0  0  0  0  0  0  0  0  0  0  0  0
    0.8088   -1.6205    0.3220 H   0  0  0  0  0  0  0  0  0  0  0  0
   -1.6612   -2.1083    0.1452 H   0  0  0  0  0  0  0  0  0  0  0  0
   -4.9738    2.6589   -0.0379 B   0  0  0  0  0  0  0  0  0  0  0  0
   -5.2959    1.8580   -1.1170 F   0  0  0  0  0  0  0  0  0  0  0  0
   -3.6012    3.3118   -0.4496 F   0  0  0  0  0  0  0  0  0  0  0  0
   -5.8126    3.6905    0.1906 F   0  0  0  0  0  0  0  0  0  0  0  0
   -4.6444    1.8990    1.0697 F   0  0  0  0  0  0  0  0  0  0  0  0
  1 11  2  0  0  0  0
  2  1  1  0  0  0  0
  3  2  1  0  0  0  0
  4  5  2  0  0  0  0
  4  1  1  0  0  0  0
  5  6  1  0  0  0  0
  6  7  1  0  0  0  0
  6 10  2  0  0  0  0
  7  9  2  0  0  0  0
  8  7  2  0  0  0  0
 10 14  1  0  0  0  0
 11 15  1  0  0  0  0
 11 10  1  0  0  0  0
 13  5  1  0  0  0  0
 16 19  1  0  0  0  0
 16 20  1  0  0  0  0
 17 16  1  0  0  0  0
 18 12  1  0  0  0  0
M  RAD  3   2   2   3   3   4   2
M  END
