Coordinates from ORCA-job 4-NO2PhN2+~BF4-_B3LYPG-6-31G_dp-CH-Scan-d09-49-n800
 OpenBabel11261918593D

 20 18  0  0  0  0  0  0  0  0999 V2000
   -1.8287   -0.0699   -0.0134 C   0  0  0  0  0  0  0  0  0  0  0  0
   -3.2166   -0.2631   -0.0532 N   0  0  0  0  0  0  0  0  0  0  0  0
   -4.3282   -0.3546   -0.0869 N   0  0  0  0  0  0  0  0  0  0  0  0
   -1.4621    1.2784   -0.0759 C   0  0  0  0  0  0  0  0  0  0  0  0
   -0.0421    1.3962   -0.0309 C   0  0  0  0  0  0  0  0  0  0  0  0
    0.7868    0.2880    0.0616 C   0  0  0  0  0  0  0  0  0  0  0  0
    2.2607    0.4851    0.1041 N   0  0  0  0  0  0  0  0  0  0  0  0
    2.6836    1.6351    0.0428 O   0  0  0  0  0  0  0  0  0  0  0  0
    2.9639   -0.5223    0.1735 O   0  0  0  0  0  0  0  0  0  0  0  0
    0.3203   -1.0427    0.1195 C   0  0  0  0  0  0  0  0  0  0  0  0
   -1.0393   -1.2469    0.0816 C   0  0  0  0  0  0  0  0  0  0  0  0
   -3.4458    3.6641   -0.2541 H   0  0  0  0  0  0  0  0  0  0  0  0
    0.4307    2.3732   -0.0686 H   0  0  0  0  0  0  0  0  0  0  0  0
    1.0274   -1.8577    0.1913 H   0  0  0  0  0  0  0  0  0  0  0  0
   -1.4723   -2.2421    0.1223 H   0  0  0  0  0  0  0  0  0  0  0  0
   -5.7690    2.6627   -0.1658 B   0  0  0  0  0  0  0  0  0  0  0  0
   -5.4411    2.0409   -1.2978 F   0  0  0  0  0  0  0  0  0  0  0  0
   -4.2680    4.1046   -0.2993 F   0  0  0  0  0  0  0  0  0  0  0  0
   -6.7665    3.5288   -0.1528 F   0  0  0  0  0  0  0  0  0  0  0  0
   -5.3247    2.1416    0.9782 F   0  0  0  0  0  0  0  0  0  0  0  0
  1 11  2  0  0  0  0
  2  1  1  0  0  0  0
  3  2  1  0  0  0  0
  4  5  2  0  0  0  0
  4  1  1  0  0  0  0
  5  6  1  0  0  0  0
  6  7  1  0  0  0  0
  6 10  2  0  0  0  0
  7  9  2  0  0  0  0
  8  7  2  0  0  0  0
 10 14  1  0  0  0  0
 11 10  1  0  0  0  0
 11 15  1  0  0  0  0
 13  5  1  0  0  0  0
 16 19  1  0  0  0  0
 16 20  1  0  0  0  0
 17 16  1  0  0  0  0
 18 12  1  0  0  0  0
M  RAD  3   2   2   3   3   4   2
M  END
