Coordinates from ORCA-job 4-NO2PhN2+~BF4-_B3LYPG-6-31G_dp-CH-Scan-d09-49-n800
 OpenBabel11261918593D

 20 18  0  0  0  0  0  0  0  0999 V2000
   -1.8045   -0.0794    0.0219 C   0  0  0  0  0  0  0  0  0  0  0  0
   -3.1957   -0.2614   -0.0044 N   0  0  0  0  0  0  0  0  0  0  0  0
   -4.3090   -0.3380   -0.0258 N   0  0  0  0  0  0  0  0  0  0  0  0
   -1.4362    1.2687    0.0088 C   0  0  0  0  0  0  0  0  0  0  0  0
   -0.0140    1.3780    0.0386 C   0  0  0  0  0  0  0  0  0  0  0  0
    0.8111    0.2638    0.0732 C   0  0  0  0  0  0  0  0  0  0  0  0
    2.2863    0.4526    0.1017 N   0  0  0  0  0  0  0  0  0  0  0  0
    2.7142    1.6024    0.0923 O   0  0  0  0  0  0  0  0  0  0  0  0
    2.9859   -0.5594    0.1316 O   0  0  0  0  0  0  0  0  0  0  0  0
    0.3395   -1.0669    0.0832 C   0  0  0  0  0  0  0  0  0  0  0  0
   -1.0213   -1.2640    0.0570 C   0  0  0  0  0  0  0  0  0  0  0  0
   -3.5707    3.8575   -0.2199 H   0  0  0  0  0  0  0  0  0  0  0  0
    0.4633    2.3537    0.0340 H   0  0  0  0  0  0  0  0  0  0  0  0
    1.0441   -1.8868    0.1109 H   0  0  0  0  0  0  0  0  0  0  0  0
   -1.4587   -2.2582    0.0632 H   0  0  0  0  0  0  0  0  0  0  0  0
   -5.7982    2.6539   -0.1826 B   0  0  0  0  0  0  0  0  0  0  0  0
   -5.5600    1.9952   -1.3123 F   0  0  0  0  0  0  0  0  0  0  0  0
   -4.3862    4.1876   -0.5285 F   0  0  0  0  0  0  0  0  0  0  0  0
   -6.8386    3.4623   -0.0924 F   0  0  0  0  0  0  0  0  0  0  0  0
   -5.1825    2.2377    0.9256 F   0  0  0  0  0  0  0  0  0  0  0  0
  1 11  1  0  0  0  0
  2  1  1  0  0  0  0
  3  2  1  0  0  0  0
  4  1  2  0  0  0  0
  4  5  1  0  0  0  0
  5  6  2  0  0  0  0
  6 10  1  0  0  0  0
  6  7  1  0  0  0  0
  7  9  2  0  0  0  0
  8  7  2  0  0  0  0
 10 14  1  0  0  0  0
 11 15  1  0  0  0  0
 11 10  2  0  0  0  0
 13  5  1  0  0  0  0
 16 19  1  0  0  0  0
 16 20  1  0  0  0  0
 17 16  1  0  0  0  0
 18 12  1  0  0  0  0
M  RAD  3   2   2   3   3   4   2
M  END
