Coordinates from ORCA-job 4-NO2PhN2+~BF4-_B3LYPG-6-31G_dp-CH-Scan-d09-49-n800
 OpenBabel11261918593D

 20 18  0  0  0  0  0  0  0  0999 V2000
   -1.9560   -0.0405   -0.0171 C   0  0  0  0  0  0  0  0  0  0  0  0
   -3.3317   -0.2864   -0.0551 N   0  0  0  0  0  0  0  0  0  0  0  0
   -4.4351   -0.4401   -0.0897 N   0  0  0  0  0  0  0  0  0  0  0  0
   -1.6091    1.3157   -0.0826 C   0  0  0  0  0  0  0  0  0  0  0  0
   -0.1972    1.4729   -0.0419 C   0  0  0  0  0  0  0  0  0  0  0  0
    0.6597    0.3857    0.0504 C   0  0  0  0  0  0  0  0  0  0  0  0
    2.1280    0.6218    0.0868 N   0  0  0  0  0  0  0  0  0  0  0  0
    2.5179    1.7834    0.0358 O   0  0  0  0  0  0  0  0  0  0  0  0
    2.8553   -0.3666    0.1691 O   0  0  0  0  0  0  0  0  0  0  0  0
    0.2257   -0.9532    0.1128 C   0  0  0  0  0  0  0  0  0  0  0  0
   -1.1295   -1.1905    0.0787 C   0  0  0  0  0  0  0  0  0  0  0  0
   -3.1385    3.1041   -0.2137 H   0  0  0  0  0  0  0  0  0  0  0  0
    0.2476    2.4620   -0.0833 H   0  0  0  0  0  0  0  0  0  0  0  0
    0.9513   -1.7518    0.1849 H   0  0  0  0  0  0  0  0  0  0  0  0
   -1.5360   -2.1962    0.1230 H   0  0  0  0  0  0  0  0  0  0  0  0
   -5.4696    2.6794   -0.1633 B   0  0  0  0  0  0  0  0  0  0  0  0
   -5.2965    1.9643   -1.2871 F   0  0  0  0  0  0  0  0  0  0  0  0
   -3.8758    3.7051   -0.2593 F   0  0  0  0  0  0  0  0  0  0  0  0
   -6.3356    3.6859   -0.1639 F   0  0  0  0  0  0  0  0  0  0  0  0
   -5.2058    2.0443    0.9918 F   0  0  0  0  0  0  0  0  0  0  0  0
  1 11  2  0  0  0  0
  2  1  1  0  0  0  0
  3  2  1  0  0  0  0
  4  5  2  0  0  0  0
  4  1  1  0  0  0  0
  5  6  1  0  0  0  0
  6  7  1  0  0  0  0
  6 10  2  0  0  0  0
  7  9  2  0  0  0  0
  8  7  2  0  0  0  0
 10 14  1  0  0  0  0
 11 10  1  0  0  0  0
 11 15  1  0  0  0  0
 13  5  1  0  0  0  0
 16 20  1  0  0  0  0
 17 16  1  0  0  0  0
 18 12  1  0  0  0  0
 19 16  1  0  0  0  0
M  RAD  3   2   2   3   3   4   2
M  END
