Coordinates from ORCA-job 4-NO2PhN2+~BF4-_B3LYPG-6-31G_dp-CH-Scan-d09-49-n800
 OpenBabel11261918593D

 20 18  0  0  0  0  0  0  0  0999 V2000
   -1.7278   -0.0820    0.0107 C   0  0  0  0  0  0  0  0  0  0  0  0
   -3.1253   -0.2230   -0.0317 N   0  0  0  0  0  0  0  0  0  0  0  0
   -4.2410   -0.2533   -0.0643 N   0  0  0  0  0  0  0  0  0  0  0  0
   -1.3355    1.2579    0.0136 C   0  0  0  0  0  0  0  0  0  0  0  0
    0.0895    1.3365    0.0584 C   0  0  0  0  0  0  0  0  0  0  0  0
    0.8899    0.2044    0.0918 C   0  0  0  0  0  0  0  0  0  0  0  0
    2.3685    0.3604    0.1375 N   0  0  0  0  0  0  0  0  0  0  0  0
    2.8222    1.5005    0.1407 O   0  0  0  0  0  0  0  0  0  0  0  0
    3.0461   -0.6667    0.1693 O   0  0  0  0  0  0  0  0  0  0  0  0
    0.3902   -1.1168    0.0855 C   0  0  0  0  0  0  0  0  0  0  0  0
   -0.9739   -1.2853    0.0433 C   0  0  0  0  0  0  0  0  0  0  0  0
   -3.8872    4.1805   -0.2502 H   0  0  0  0  0  0  0  0  0  0  0  0
    0.5878    2.3020    0.0674 H   0  0  0  0  0  0  0  0  0  0  0  0
    1.0776   -1.9512    0.1136 H   0  0  0  0  0  0  0  0  0  0  0  0
   -1.4330   -2.2698    0.0361 H   0  0  0  0  0  0  0  0  0  0  0  0
   -5.9148    2.6562   -0.1610 B   0  0  0  0  0  0  0  0  0  0  0  0
   -5.7625    2.0013   -1.3040 F   0  0  0  0  0  0  0  0  0  0  0  0
   -4.6888    4.3342   -0.6982 F   0  0  0  0  0  0  0  0  0  0  0  0
   -7.0075    3.3627    0.0618 F   0  0  0  0  0  0  0  0  0  0  0  0
   -5.1058    2.3509    0.8560 F   0  0  0  0  0  0  0  0  0  0  0  0
  1  4  2  0  0  0  0
  1 11  1  0  0  0  0
  2  1  1  0  0  0  0
  3  2  1  0  0  0  0
  4  5  1  0  0  0  0
  5 13  1  0  0  0  0
  5  6  2  0  0  0  0
  6  7  1  0  0  0  0
  7  8  2  0  0  0  0
  7  9  2  0  0  0  0
 10  6  1  0  0  0  0
 10 14  1  0  0  0  0
 11 10  2  0  0  0  0
 15 11  1  0  0  0  0
 16 19  1  0  0  0  0
 16 20  1  0  0  0  0
 17 16  1  0  0  0  0
 18 12  1  0  0  0  0
M  RAD  3   2   2   3   3   4   2
M  END
