Coordinates from ORCA-job 4-NO2PhN2+~BF4-_B3LYPG-6-31G_dp-CH-Scan-d09-49-n800
 OpenBabel11261918593D

 20 18  0  0  0  0  0  0  0  0999 V2000
   -1.7006   -0.0757    0.0265 C   0  0  0  0  0  0  0  0  0  0  0  0
   -3.1006   -0.2008   -0.0100 N   0  0  0  0  0  0  0  0  0  0  0  0
   -4.2169   -0.2181   -0.0361 N   0  0  0  0  0  0  0  0  0  0  0  0
   -1.2948    1.2591    0.0510 C   0  0  0  0  0  0  0  0  0  0  0  0
    0.1314    1.3223    0.0890 C   0  0  0  0  0  0  0  0  0  0  0  0
    0.9198    0.1814    0.0977 C   0  0  0  0  0  0  0  0  0  0  0  0
    2.4001    0.3206    0.1379 N   0  0  0  0  0  0  0  0  0  0  0  0
    2.8661    1.4554    0.1673 O   0  0  0  0  0  0  0  0  0  0  0  0
    3.0669   -0.7140    0.1506 O   0  0  0  0  0  0  0  0  0  0  0  0
    0.4060   -1.1344    0.0704 C   0  0  0  0  0  0  0  0  0  0  0  0
   -0.9600   -1.2878    0.0332 C   0  0  0  0  0  0  0  0  0  0  0  0
   -4.0483    4.3074   -0.2529 H   0  0  0  0  0  0  0  0  0  0  0  0
    0.6397    2.2823    0.1123 H   0  0  0  0  0  0  0  0  0  0  0  0
    1.0847   -1.9763    0.0794 H   0  0  0  0  0  0  0  0  0  0  0  0
   -1.4296   -2.2672    0.0106 H   0  0  0  0  0  0  0  0  0  0  0  0
   -5.9437    2.6540   -0.1689 B   0  0  0  0  0  0  0  0  0  0  0  0
   -5.8138    1.9823   -1.3034 F   0  0  0  0  0  0  0  0  0  0  0  0
   -4.8084    4.3783   -0.7858 F   0  0  0  0  0  0  0  0  0  0  0  0
   -7.0577    3.3125    0.0931 F   0  0  0  0  0  0  0  0  0  0  0  0
   -5.0713    2.4179    0.8143 F   0  0  0  0  0  0  0  0  0  0  0  0
  1 11  2  0  0  0  0
  1  4  1  0  0  0  0
  2  1  1  0  0  0  0
  3  2  1  0  0  0  0
  4  5  2  0  0  0  0
  5  6  1  0  0  0  0
  5 13  1  0  0  0  0
  6  7  1  0  0  0  0
  7  9  2  0  0  0  0
  7  8  2  0  0  0  0
 10 14  1  0  0  0  0
 10  6  2  0  0  0  0
 11 10  1  0  0  0  0
 15 11  1  0  0  0  0
 16 19  1  0  0  0  0
 16 20  1  0  0  0  0
 17 16  1  0  0  0  0
 18 12  1  0  0  0  0
M  RAD  3   2   2   3   3   4   2
M  END
