Coordinates from ORCA-job 4-NO2PhN2+~BF4-_B3LYPG-6-31G_dp-CH-Scan-d09-49-n800
 OpenBabel11261918593D

 20 19  0  0  0  0  0  0  0  0999 V2000
   -2.1555    0.0842   -0.2466 C   0  0  0  0  0  0  0  0  0  0  0  0
   -3.5069   -0.1778   -0.4523 N   0  0  0  0  0  0  0  0  0  0  0  0
   -4.5767   -0.4021   -0.6620 N   0  0  0  0  0  0  0  0  0  0  0  0
   -1.7054    1.4021   -0.4015 C   0  0  0  0  0  0  0  0  0  0  0  0
   -0.3382    1.6078   -0.2212 C   0  0  0  0  0  0  0  0  0  0  0  0
    0.4801    0.5289    0.1013 C   0  0  0  0  0  0  0  0  0  0  0  0
    1.9335    0.7708    0.2968 N   0  0  0  0  0  0  0  0  0  0  0  0
    2.3341    1.9194    0.1517 O   0  0  0  0  0  0  0  0  0  0  0  0
    2.6251   -0.2006    0.5884 O   0  0  0  0  0  0  0  0  0  0  0  0
    0.0107   -0.7792    0.2541 C   0  0  0  0  0  0  0  0  0  0  0  0
   -1.3410   -1.0188    0.0724 C   0  0  0  0  0  0  0  0  0  0  0  0
   -2.5690    2.3404   -0.6565 H   0  0  0  0  0  0  0  0  0  0  0  0
    0.0959    2.5951   -0.3195 H   0  0  0  0  0  0  0  0  0  0  0  0
    0.7022   -1.5717    0.5075 H   0  0  0  0  0  0  0  0  0  0  0  0
   -1.7591   -2.0137    0.1771 H   0  0  0  0  0  0  0  0  0  0  0  0
   -4.8702    2.6023    0.0635 B   0  0  0  0  0  0  0  0  0  0  0  0
   -5.6485    1.7173   -0.7147 F   0  0  0  0  0  0  0  0  0  0  0  0
   -3.8712    3.1787   -0.8199 F   0  0  0  0  0  0  0  0  0  0  0  0
   -5.6145    3.5844    0.6435 F   0  0  0  0  0  0  0  0  0  0  0  0
   -4.1564    1.8317    1.0139 F   0  0  0  0  0  0  0  0  0  0  0  0
  1 11  1  0  0  0  0
  2  1  1  0  0  0  0
  3  2  1  0  0  0  0
  4  1  2  0  0  0  0
  4  5  1  0  0  0  0
  5  6  2  0  0  0  0
  6 10  1  0  0  0  0
  6  7  1  0  0  0  0
  7  9  2  0  0  0  0
  8  7  2  0  0  0  0
 10 14  1  0  0  0  0
 11 15  1  0  0  0  0
 11 10  2  0  0  0  0
 12  4  1  0  0  0  0
 13  5  1  0  0  0  0
 16 19  1  0  0  0  0
 16 20  1  0  0  0  0
 17 16  1  0  0  0  0
 18 16  1  0  0  0  0
M  RAD  2   2   2   3   3
M  END
