Coordinates from ORCA-job 4-NO2PhN2+~BF4-_B3LYPG-6-31G_dp-CH-Scan-d09-49-n800
 OpenBabel11261918593D

 20 18  0  0  0  0  0  0  0  0999 V2000
   -1.7066   -0.0770    0.0248 C   0  0  0  0  0  0  0  0  0  0  0  0
   -3.1063   -0.2055   -0.0124 N   0  0  0  0  0  0  0  0  0  0  0  0
   -4.2225   -0.2253   -0.0396 N   0  0  0  0  0  0  0  0  0  0  0  0
   -1.3038    1.2588    0.0472 C   0  0  0  0  0  0  0  0  0  0  0  0
    0.1222    1.3252    0.0859 C   0  0  0  0  0  0  0  0  0  0  0  0
    0.9131    0.1861    0.0969 C   0  0  0  0  0  0  0  0  0  0  0  0
    2.3931    0.3287    0.1375 N   0  0  0  0  0  0  0  0  0  0  0  0
    2.8566    1.4646    0.1643 O   0  0  0  0  0  0  0  0  0  0  0  0
    3.0622   -0.7044    0.1526 O   0  0  0  0  0  0  0  0  0  0  0  0
    0.4023   -1.1309    0.0718 C   0  0  0  0  0  0  0  0  0  0  0  0
   -0.9633   -1.2873    0.0341 C   0  0  0  0  0  0  0  0  0  0  0  0
   -4.0213    4.2860   -0.2510 H   0  0  0  0  0  0  0  0  0  0  0  0
    0.6284    2.2863    0.1077 H   0  0  0  0  0  0  0  0  0  0  0  0
    1.0829   -1.9712    0.0826 H   0  0  0  0  0  0  0  0  0  0  0  0
   -1.4307   -2.2678    0.0131 H   0  0  0  0  0  0  0  0  0  0  0  0
   -5.9346    2.6536   -0.1678 B   0  0  0  0  0  0  0  0  0  0  0  0
   -5.8066    1.9830   -1.3033 F   0  0  0  0  0  0  0  0  0  0  0  0
   -4.7843    4.3686   -0.7781 F   0  0  0  0  0  0  0  0  0  0  0  0
   -7.0443    3.3200    0.0921 F   0  0  0  0  0  0  0  0  0  0  0  0
   -5.0675    2.4078    0.8176 F   0  0  0  0  0  0  0  0  0  0  0  0
  1 11  2  0  0  0  0
  1  4  1  0  0  0  0
  2  1  1  0  0  0  0
  3  2  1  0  0  0  0
  4  5  2  0  0  0  0
  5  6  1  0  0  0  0
  5 13  1  0  0  0  0
  6  7  1  0  0  0  0
  7  9  2  0  0  0  0
  7  8  2  0  0  0  0
 10 14  1  0  0  0  0
 10  6  2  0  0  0  0
 11 10  1  0  0  0  0
 15 11  1  0  0  0  0
 16 19  1  0  0  0  0
 16 20  1  0  0  0  0
 17 16  1  0  0  0  0
 18 12  1  0  0  0  0
M  RAD  3   2   2   3   3   4   2
M  END
