Coordinates from ORCA-job 4-NO2PhN2+~BF4-_B3LYPG-6-31G_dp-CH-Scan-d09-49-n800
 OpenBabel11261918593D

 20 18  0  0  0  0  0  0  0  0999 V2000
   -1.8830   -0.0585   -0.0093 C   0  0  0  0  0  0  0  0  0  0  0  0
   -3.2660   -0.2739   -0.0417 N   0  0  0  0  0  0  0  0  0  0  0  0
   -4.3749   -0.3905   -0.0711 N   0  0  0  0  0  0  0  0  0  0  0  0
   -1.5264    1.2937   -0.0731 C   0  0  0  0  0  0  0  0  0  0  0  0
   -0.1095    1.4293   -0.0355 C   0  0  0  0  0  0  0  0  0  0  0  0
    0.7325    0.3305    0.0524 C   0  0  0  0  0  0  0  0  0  0  0  0
    2.2042    0.5453    0.0871 N   0  0  0  0  0  0  0  0  0  0  0  0
    2.6119    1.7011    0.0376 O   0  0  0  0  0  0  0  0  0  0  0  0
    2.9187   -0.4534    0.1632 O   0  0  0  0  0  0  0  0  0  0  0  0
    0.2812   -1.0043    0.1122 C   0  0  0  0  0  0  0  0  0  0  0  0
   -1.0765   -1.2239    0.0811 C   0  0  0  0  0  0  0  0  0  0  0  0
   -3.3012    3.4119   -0.2210 H   0  0  0  0  0  0  0  0  0  0  0  0
    0.3507    2.4119   -0.0755 H   0  0  0  0  0  0  0  0  0  0  0  0
    0.9973   -1.8119    0.1801 H   0  0  0  0  0  0  0  0  0  0  0  0
   -1.4972   -2.2241    0.1237 H   0  0  0  0  0  0  0  0  0  0  0  0
   -5.6539    2.6707   -0.1744 B   0  0  0  0  0  0  0  0  0  0  0  0
   -5.3575    2.0073   -1.2959 F   0  0  0  0  0  0  0  0  0  0  0  0
   -4.0810    3.9334   -0.2545 F   0  0  0  0  0  0  0  0  0  0  0  0
   -6.5889    3.6065   -0.1929 F   0  0  0  0  0  0  0  0  0  0  0  0
   -5.3113    2.0984    0.9837 F   0  0  0  0  0  0  0  0  0  0  0  0
  1 11  2  0  0  0  0
  2  1  1  0  0  0  0
  3  2  1  0  0  0  0
  4  5  2  0  0  0  0
  4  1  1  0  0  0  0
  5  6  1  0  0  0  0
  6  7  1  0  0  0  0
  6 10  2  0  0  0  0
  7  9  2  0  0  0  0
  8  7  2  0  0  0  0
 10 14  1  0  0  0  0
 11 10  1  0  0  0  0
 11 15  1  0  0  0  0
 13  5  1  0  0  0  0
 16 20  1  0  0  0  0
 17 16  1  0  0  0  0
 18 12  1  0  0  0  0
 19 16  1  0  0  0  0
M  RAD  3   2   2   3   3   4   2
M  END
