Coordinates from ORCA-job 4-NO2PhN2+~BF4-_B3LYPG-6-31G_dp-CH-Scan-d09-49-n800
 OpenBabel11261918593D

 20 18  0  0  0  0  0  0  0  0999 V2000
   -2.0237   -0.0265   -0.0365 C   0  0  0  0  0  0  0  0  0  0  0  0
   -3.3929   -0.2981   -0.0803 N   0  0  0  0  0  0  0  0  0  0  0  0
   -4.4915   -0.4771   -0.1181 N   0  0  0  0  0  0  0  0  0  0  0  0
   -1.6830    1.3322   -0.1035 C   0  0  0  0  0  0  0  0  0  0  0  0
   -0.2773    1.5102   -0.0516 C   0  0  0  0  0  0  0  0  0  0  0  0
    0.5923    0.4336    0.0518 C   0  0  0  0  0  0  0  0  0  0  0  0
    2.0567    0.6897    0.1020 N   0  0  0  0  0  0  0  0  0  0  0  0
    2.4302    1.8564    0.0521 O   0  0  0  0  0  0  0  0  0  0  0  0
    2.7956   -0.2897    0.1851 O   0  0  0  0  0  0  0  0  0  0  0  0
    0.1732   -0.9082    0.1131 C   0  0  0  0  0  0  0  0  0  0  0  0
   -1.1795   -1.1615    0.0685 C   0  0  0  0  0  0  0  0  0  0  0  0
   -3.0034    2.8440   -0.2333 H   0  0  0  0  0  0  0  0  0  0  0  0
    0.1527    2.5055   -0.0921 H   0  0  0  0  0  0  0  0  0  0  0  0
    0.9068   -1.6990    0.1929 H   0  0  0  0  0  0  0  0  0  0  0  0
   -1.5735   -2.1720    0.1119 H   0  0  0  0  0  0  0  0  0  0  0  0
   -5.2770    2.6847   -0.1396 B   0  0  0  0  0  0  0  0  0  0  0  0
   -5.2423    1.9167   -1.2548 F   0  0  0  0  0  0  0  0  0  0  0  0
   -3.7180    3.5140   -0.2878 F   0  0  0  0  0  0  0  0  0  0  0  0
   -6.1043    3.7316   -0.1224 F   0  0  0  0  0  0  0  0  0  0  0  0
   -5.0719    2.0129    1.0189 F   0  0  0  0  0  0  0  0  0  0  0  0
  1 11  2  0  0  0  0
  2  1  1  0  0  0  0
  3  2  1  0  0  0  0
  4  5  2  0  0  0  0
  4  1  1  0  0  0  0
  5  6  1  0  0  0  0
  6  7  1  0  0  0  0
  6 10  2  0  0  0  0
  7  9  2  0  0  0  0
  8  7  2  0  0  0  0
 10 14  1  0  0  0  0
 11 15  1  0  0  0  0
 11 10  1  0  0  0  0
 13  5  1  0  0  0  0
 16 19  1  0  0  0  0
 16 20  1  0  0  0  0
 17 16  1  0  0  0  0
 18 12  1  0  0  0  0
M  RAD  3   2   2   3   3   4   2
M  END
