Coordinates from ORCA-job 4-NO2PhN2+~BF4-_B3LYPG-6-31G_dp-CH-Scan-d09-49-n800
 OpenBabel11261918593D

 20 18  0  0  0  0  0  0  0  0999 V2000
   -2.0179   -0.0297   -0.0392 C   0  0  0  0  0  0  0  0  0  0  0  0
   -3.3874   -0.3006   -0.0854 N   0  0  0  0  0  0  0  0  0  0  0  0
   -4.4860   -0.4790   -0.1252 N   0  0  0  0  0  0  0  0  0  0  0  0
   -1.6779    1.3292   -0.1065 C   0  0  0  0  0  0  0  0  0  0  0  0
   -0.2719    1.5066   -0.0522 C   0  0  0  0  0  0  0  0  0  0  0  0
    0.5974    0.4302    0.0534 C   0  0  0  0  0  0  0  0  0  0  0  0
    2.0617    0.6859    0.1060 N   0  0  0  0  0  0  0  0  0  0  0  0
    2.4357    1.8524    0.0534 O   0  0  0  0  0  0  0  0  0  0  0  0
    2.8005   -0.2936    0.1888 O   0  0  0  0  0  0  0  0  0  0  0  0
    0.1782   -0.9118    0.1149 C   0  0  0  0  0  0  0  0  0  0  0  0
   -1.1744   -1.1650    0.0681 C   0  0  0  0  0  0  0  0  0  0  0  0
   -3.0138    2.8603   -0.2411 H   0  0  0  0  0  0  0  0  0  0  0  0
    0.1586    2.5018   -0.0926 H   0  0  0  0  0  0  0  0  0  0  0  0
    0.9116   -1.7025    0.1965 H   0  0  0  0  0  0  0  0  0  0  0  0
   -1.5686   -2.1755    0.1115 H   0  0  0  0  0  0  0  0  0  0  0  0
   -5.2935    2.6877   -0.1355 B   0  0  0  0  0  0  0  0  0  0  0  0
   -5.2586    1.9175   -1.2478 F   0  0  0  0  0  0  0  0  0  0  0  0
   -3.7282    3.5258   -0.2961 F   0  0  0  0  0  0  0  0  0  0  0  0
   -6.1192    3.7350   -0.1193 F   0  0  0  0  0  0  0  0  0  0  0  0
   -5.0772    2.0244    1.0246 F   0  0  0  0  0  0  0  0  0  0  0  0
  1 11  2  0  0  0  0
  2  1  1  0  0  0  0
  3  2  1  0  0  0  0
  4  5  2  0  0  0  0
  4  1  1  0  0  0  0
  5  6  1  0  0  0  0
  6  7  1  0  0  0  0
  6 10  2  0  0  0  0
  7  9  2  0  0  0  0
  8  7  2  0  0  0  0
 10 14  1  0  0  0  0
 11 15  1  0  0  0  0
 11 10  1  0  0  0  0
 13  5  1  0  0  0  0
 16 19  1  0  0  0  0
 16 20  1  0  0  0  0
 17 16  1  0  0  0  0
 18 12  1  0  0  0  0
M  RAD  3   2   2   3   3   4   2
M  END
