Coordinates from ORCA-job 4-NO2PhN2+~BF4-_B3LYPG-6-31G_dp-CH-Scan-d09-49-n800
 OpenBabel11261918593D

 20 18  0  0  0  0  0  0  0  0999 V2000
   -2.1373    0.0265   -0.1357 C   0  0  0  0  0  0  0  0  0  0  0  0
   -3.4942   -0.2646   -0.2574 N   0  0  0  0  0  0  0  0  0  0  0  0
   -4.5788   -0.4766   -0.3795 N   0  0  0  0  0  0  0  0  0  0  0  0
   -1.7549    1.3711   -0.2501 C   0  0  0  0  0  0  0  0  0  0  0  0
   -0.3699    1.5766   -0.1391 C   0  0  0  0  0  0  0  0  0  0  0  0
    0.4917    0.5061    0.0681 C   0  0  0  0  0  0  0  0  0  0  0  0
    1.9506    0.7708    0.1808 N   0  0  0  0  0  0  0  0  0  0  0  0
    2.3213    1.9337    0.0728 O   0  0  0  0  0  0  0  0  0  0  0  0
    2.6802   -0.1984    0.3744 O   0  0  0  0  0  0  0  0  0  0  0  0
    0.0642   -0.8242    0.1803 C   0  0  0  0  0  0  0  0  0  0  0  0
   -1.2880   -1.0832    0.0750 C   0  0  0  0  0  0  0  0  0  0  0  0
   -2.7428    2.4624   -0.4103 H   0  0  0  0  0  0  0  0  0  0  0  0
    0.0473    2.5744   -0.2098 H   0  0  0  0  0  0  0  0  0  0  0  0
    0.7884   -1.6108    0.3444 H   0  0  0  0  0  0  0  0  0  0  0  0
   -1.6811   -2.0913    0.1520 H   0  0  0  0  0  0  0  0  0  0  0  0
   -4.9341    2.6525   -0.0291 B   0  0  0  0  0  0  0  0  0  0  0  0
   -5.3156    1.8400   -1.0905 F   0  0  0  0  0  0  0  0  0  0  0  0
   -3.6196    3.3012   -0.4873 F   0  0  0  0  0  0  0  0  0  0  0  0
   -5.7941    3.6579    0.2528 F   0  0  0  0  0  0  0  0  0  0  0  0
   -4.5644    1.8753    1.0645 F   0  0  0  0  0  0  0  0  0  0  0  0
  1 11  2  0  0  0  0
  2  1  1  0  0  0  0
  3  2  1  0  0  0  0
  4  5  2  0  0  0  0
  4  1  1  0  0  0  0
  5  6  1  0  0  0  0
  6 10  2  0  0  0  0
  6  7  1  0  0  0  0
  7  9  2  0  0  0  0
  8  7  2  0  0  0  0
 10 14  1  0  0  0  0
 11 15  1  0  0  0  0
 11 10  1  0  0  0  0
 13  5  1  0  0  0  0
 16 19  1  0  0  0  0
 16 20  1  0  0  0  0
 17 16  1  0  0  0  0
 18 12  1  0  0  0  0
M  RAD  3   2   2   3   3   4   2
M  END
