Coordinates from ORCA-job 4-NO2PhN2+~BF4-_B3LYPG-6-31G_dp-CH-Scan-d09-49-n800
 OpenBabel11261918593D

 20 18  0  0  0  0  0  0  0  0999 V2000
   -1.7989   -0.0810    0.0207 C   0  0  0  0  0  0  0  0  0  0  0  0
   -3.1906   -0.2600   -0.0069 N   0  0  0  0  0  0  0  0  0  0  0  0
   -4.3042   -0.3321   -0.0294 N   0  0  0  0  0  0  0  0  0  0  0  0
   -1.4297    1.2669    0.0084 C   0  0  0  0  0  0  0  0  0  0  0  0
   -0.0073    1.3746    0.0394 C   0  0  0  0  0  0  0  0  0  0  0  0
    0.8166    0.2596    0.0744 C   0  0  0  0  0  0  0  0  0  0  0  0
    2.2920    0.4468    0.1043 N   0  0  0  0  0  0  0  0  0  0  0  0
    2.7212    1.5962    0.0959 O   0  0  0  0  0  0  0  0  0  0  0  0
    2.9906   -0.5659    0.1348 O   0  0  0  0  0  0  0  0  0  0  0  0
    0.3437   -1.0707    0.0836 C   0  0  0  0  0  0  0  0  0  0  0  0
   -1.0172   -1.2665    0.0562 C   0  0  0  0  0  0  0  0  0  0  0  0
   -3.5888    3.8806   -0.2239 H   0  0  0  0  0  0  0  0  0  0  0  0
    0.4711    2.3499    0.0356 H   0  0  0  0  0  0  0  0  0  0  0  0
    1.0475   -1.8913    0.1117 H   0  0  0  0  0  0  0  0  0  0  0  0
   -1.4557   -2.2603    0.0617 H   0  0  0  0  0  0  0  0  0  0  0  0
   -5.8084    2.6545   -0.1803 B   0  0  0  0  0  0  0  0  0  0  0  0
   -5.5755    1.9966   -1.3112 F   0  0  0  0  0  0  0  0  0  0  0  0
   -4.4060    4.1992   -0.5395 F   0  0  0  0  0  0  0  0  0  0  0  0
   -6.8519    3.4577   -0.0822 F   0  0  0  0  0  0  0  0  0  0  0  0
   -5.1795    2.2448    0.9229 F   0  0  0  0  0  0  0  0  0  0  0  0
  1 11  1  0  0  0  0
  2  1  1  0  0  0  0
  3  2  1  0  0  0  0
  4  1  2  0  0  0  0
  4  5  1  0  0  0  0
  5  6  2  0  0  0  0
  6 10  1  0  0  0  0
  6  7  1  0  0  0  0
  7  9  2  0  0  0  0
  8  7  2  0  0  0  0
 10 14  1  0  0  0  0
 11 15  1  0  0  0  0
 11 10  2  0  0  0  0
 13  5  1  0  0  0  0
 16 19  1  0  0  0  0
 16 20  1  0  0  0  0
 17 16  1  0  0  0  0
 18 12  1  0  0  0  0
M  RAD  3   2   2   3   3   4   2
M  END
