Coordinates from ORCA-job 4-NO2PhN2+~BF4-_B3LYPG-6-31G_dp-CH-Scan-d09-49-n800
 OpenBabel11261918593D

 20 18  0  0  0  0  0  0  0  0999 V2000
   -1.6362   -0.0558    0.0385 C   0  0  0  0  0  0  0  0  0  0  0  0
   -3.0399   -0.1417    0.0062 N   0  0  0  0  0  0  0  0  0  0  0  0
   -4.1565   -0.1262   -0.0166 N   0  0  0  0  0  0  0  0  0  0  0  0
   -1.1970    1.2673    0.0758 C   0  0  0  0  0  0  0  0  0  0  0  0
    0.2306    1.2942    0.1099 C   0  0  0  0  0  0  0  0  0  0  0  0
    0.9892    0.1334    0.1046 C   0  0  0  0  0  0  0  0  0  0  0  0
    2.4727    0.2340    0.1423 N   0  0  0  0  0  0  0  0  0  0  0  0
    2.9679    1.3557    0.1896 O   0  0  0  0  0  0  0  0  0  0  0  0
    3.1128   -0.8175    0.1403 O   0  0  0  0  0  0  0  0  0  0  0  0
    0.4417   -1.1687    0.0649 C   0  0  0  0  0  0  0  0  0  0  0  0
   -0.9278   -1.2870    0.0299 C   0  0  0  0  0  0  0  0  0  0  0  0
   -4.3212    4.4870   -0.2675 H   0  0  0  0  0  0  0  0  0  0  0  0
    0.7632    2.2409    0.1412 H   0  0  0  0  0  0  0  0  0  0  0  0
    1.0989   -2.0276    0.0628 H   0  0  0  0  0  0  0  0  0  0  0  0
   -1.4224   -2.2538   -0.0021 H   0  0  0  0  0  0  0  0  0  0  0  0
   -6.0409    2.6587   -0.1813 B   0  0  0  0  0  0  0  0  0  0  0  0
   -5.8834    1.9931   -1.3148 F   0  0  0  0  0  0  0  0  0  0  0  0
   -5.0605    4.4770   -0.8330 F   0  0  0  0  0  0  0  0  0  0  0  0
   -7.1979    3.2254    0.1065 F   0  0  0  0  0  0  0  0  0  0  0  0
   -5.1245    2.5109    0.7790 F   0  0  0  0  0  0  0  0  0  0  0  0
  1  4  1  0  0  0  0
  2  1  1  0  0  0  0
  3  2  1  0  0  0  0
  4  5  2  0  0  0  0
  5 13  1  0  0  0  0
  6  5  1  0  0  0  0
  6  7  1  0  0  0  0
  7  8  2  0  0  0  0
  9  7  2  0  0  0  0
 10  6  2  0  0  0  0
 11  1  2  0  0  0  0
 11 10  1  0  0  0  0
 14 10  1  0  0  0  0
 15 11  1  0  0  0  0
 16 19  1  0  0  0  0
 16 20  1  0  0  0  0
 17 16  1  0  0  0  0
 18 12  1  0  0  0  0
M  RAD  3   2   2   3   3   4   2
M  END
