Coordinates from ORCA-job 4-NO2PhN2+~BF4-_B3LYPG-6-31G_dp-CH-Scan-d09-49-n800
 OpenBabel11261918593D

 20 18  0  0  0  0  0  0  0  0999 V2000
   -1.7550   -0.0824    0.0193 C   0  0  0  0  0  0  0  0  0  0  0  0
   -3.1507   -0.2382   -0.0137 N   0  0  0  0  0  0  0  0  0  0  0  0
   -4.2659   -0.2841   -0.0389 N   0  0  0  0  0  0  0  0  0  0  0  0
   -1.3726    1.2608    0.0201 C   0  0  0  0  0  0  0  0  0  0  0  0
    0.0517    1.3512    0.0563 C   0  0  0  0  0  0  0  0  0  0  0  0
    0.8618    0.2259    0.0843 C   0  0  0  0  0  0  0  0  0  0  0  0
    2.3392    0.3945    0.1210 N   0  0  0  0  0  0  0  0  0  0  0  0
    2.7830    1.5384    0.1235 O   0  0  0  0  0  0  0  0  0  0  0  0
    3.0256   -0.6268    0.1471 O   0  0  0  0  0  0  0  0  0  0  0  0
    0.3731   -1.0992    0.0804 C   0  0  0  0  0  0  0  0  0  0  0  0
   -0.9899   -1.2788    0.0467 C   0  0  0  0  0  0  0  0  0  0  0  0
   -3.7617    4.0658   -0.2366 H   0  0  0  0  0  0  0  0  0  0  0  0
    0.5420    2.3207    0.0625 H   0  0  0  0  0  0  0  0  0  0  0  0
    1.0673   -1.9280    0.1038 H   0  0  0  0  0  0  0  0  0  0  0  0
   -1.4406   -2.2671    0.0419 H   0  0  0  0  0  0  0  0  0  0  0  0
   -5.8786    2.6556   -0.1719 B   0  0  0  0  0  0  0  0  0  0  0  0
   -5.6853    1.9939   -1.3060 F   0  0  0  0  0  0  0  0  0  0  0  0
   -4.5729    4.2807   -0.6405 F   0  0  0  0  0  0  0  0  0  0  0  0
   -6.9543    3.4042   -0.0134 F   0  0  0  0  0  0  0  0  0  0  0  0
   -5.1473    2.3125    0.8904 F   0  0  0  0  0  0  0  0  0  0  0  0
  1  4  2  0  0  0  0
  1 11  1  0  0  0  0
  2  1  1  0  0  0  0
  3  2  1  0  0  0  0
  4  5  1  0  0  0  0
  5 13  1  0  0  0  0
  5  6  2  0  0  0  0
  6  7  1  0  0  0  0
  7  8  2  0  0  0  0
  7  9  2  0  0  0  0
 10  6  1  0  0  0  0
 10 14  1  0  0  0  0
 11 10  2  0  0  0  0
 15 11  1  0  0  0  0
 16 19  1  0  0  0  0
 16 20  1  0  0  0  0
 17 16  1  0  0  0  0
 18 12  1  0  0  0  0
M  RAD  3   2   2   3   3   4   2
M  END
