Coordinates from ORCA-job 4-NO2PhN2+~BF4-_B3LYPG-6-31G_dp-CH-Scan-d09-49-n800
 OpenBabel11261918593D

 20 19  0  0  0  0  0  0  0  0999 V2000
   -2.3097    0.1163   -0.4240 C   0  0  0  0  0  0  0  0  0  0  0  0
   -3.6343   -0.2168   -0.6898 N   0  0  0  0  0  0  0  0  0  0  0  0
   -4.6347   -0.6297   -0.9345 N   0  0  0  0  0  0  0  0  0  0  0  0
   -1.8167    1.3616   -0.8349 C   0  0  0  0  0  0  0  0  0  0  0  0
   -0.4658    1.6052   -0.5981 C   0  0  0  0  0  0  0  0  0  0  0  0
    0.3040    0.6331    0.0296 C   0  0  0  0  0  0  0  0  0  0  0  0
    1.7419    0.9124    0.2714 N   0  0  0  0  0  0  0  0  0  0  0  0
    2.1770    1.9868   -0.1254 O   0  0  0  0  0  0  0  0  0  0  0  0
    2.3880    0.0419    0.8467 O   0  0  0  0  0  0  0  0  0  0  0  0
   -0.2053   -0.5990    0.4476 C   0  0  0  0  0  0  0  0  0  0  0  0
   -1.5425   -0.8738    0.2156 C   0  0  0  0  0  0  0  0  0  0  0  0
   -2.3875    1.9930   -1.2340 H   0  0  0  0  0  0  0  0  0  0  0  0
   -0.0177    2.5486   -0.8824 H   0  0  0  0  0  0  0  0  0  0  0  0
    0.4450   -1.3113    0.9383 H   0  0  0  0  0  0  0  0  0  0  0  0
   -1.9888   -1.8121    0.5225 H   0  0  0  0  0  0  0  0  0  0  0  0
   -4.4202    2.4855    0.3914 B   0  0  0  0  0  0  0  0  0  0  0  0
   -4.4867    2.1009   -1.0005 F   0  0  0  0  0  0  0  0  0  0  0  0
   -3.2023    3.1607    0.5724 F   0  0  0  0  0  0  0  0  0  0  0  0
   -5.5080    3.2353    0.7407 F   0  0  0  0  0  0  0  0  0  0  0  0
   -4.3667    1.2607    1.1234 F   0  0  0  0  0  0  0  0  0  0  0  0
  1 11  2  0  0  0  0
  2  1  1  0  0  0  0
  3  2  1  0  0  0  0
  4  5  2  0  0  0  0
  4  1  1  0  0  0  0
  5  6  1  0  0  0  0
  6  7  1  0  0  0  0
  6 10  2  0  0  0  0
  7  9  2  0  0  0  0
  8  7  2  0  0  0  0
 10 14  1  0  0  0  0
 11 10  1  0  0  0  0
 11 15  1  0  0  0  0
 12  4  1  0  0  0  0
 13  5  1  0  0  0  0
 16 18  1  0  0  0  0
 16 19  1  0  0  0  0
 16 20  1  0  0  0  0
 17 16  1  0  0  0  0
M  RAD  2   2   2   3   3
M  END
