Coordinates from ORCA-job 4-NO2PhN2+~BF4-_B3LYPG-6-31G_dp-CH-Scan-d09-49-n800
 OpenBabel11261918593D

 20 18  0  0  0  0  0  0  0  0999 V2000
   -1.6507   -0.0610    0.0371 C   0  0  0  0  0  0  0  0  0  0  0  0
   -3.0538   -0.1557    0.0044 N   0  0  0  0  0  0  0  0  0  0  0  0
   -4.1704   -0.1475   -0.0185 N   0  0  0  0  0  0  0  0  0  0  0  0
   -1.2193    1.2648    0.0736 C   0  0  0  0  0  0  0  0  0  0  0  0
    0.2081    1.3002    0.1082 C   0  0  0  0  0  0  0  0  0  0  0  0
    0.9736    0.1440    0.1039 C   0  0  0  0  0  0  0  0  0  0  0  0
    2.4565    0.2534    0.1420 N   0  0  0  0  0  0  0  0  0  0  0  0
    2.9450    1.3783    0.1850 O   0  0  0  0  0  0  0  0  0  0  0  0
    3.1030   -0.7942    0.1389 O   0  0  0  0  0  0  0  0  0  0  0  0
    0.4340   -1.1614    0.0649 C   0  0  0  0  0  0  0  0  0  0  0  0
   -0.9348   -1.2878    0.0296 C   0  0  0  0  0  0  0  0  0  0  0  0
   -4.2620    4.4519   -0.2668 H   0  0  0  0  0  0  0  0  0  0  0  0
    0.7350    2.2499    0.1392 H   0  0  0  0  0  0  0  0  0  0  0  0
    1.0963   -2.0164    0.0636 H   0  0  0  0  0  0  0  0  0  0  0  0
   -1.4236   -2.2576   -0.0018 H   0  0  0  0  0  0  0  0  0  0  0  0
   -6.0185    2.6573   -0.1784 B   0  0  0  0  0  0  0  0  0  0  0  0
   -5.8683    1.9880   -1.3109 F   0  0  0  0  0  0  0  0  0  0  0  0
   -5.0047    4.4558   -0.8277 F   0  0  0  0  0  0  0  0  0  0  0  0
   -7.1666    3.2447    0.1038 F   0  0  0  0  0  0  0  0  0  0  0  0
   -5.1096    2.4926    0.7862 F   0  0  0  0  0  0  0  0  0  0  0  0
  1  4  1  0  0  0  0
  2  1  1  0  0  0  0
  3  2  1  0  0  0  0
  4  5  2  0  0  0  0
  5 13  1  0  0  0  0
  6  5  1  0  0  0  0
  6  7  1  0  0  0  0
  7  8  2  0  0  0  0
  9  7  2  0  0  0  0
 10  6  2  0  0  0  0
 11  1  2  0  0  0  0
 11 10  1  0  0  0  0
 14 10  1  0  0  0  0
 15 11  1  0  0  0  0
 16 19  1  0  0  0  0
 16 20  1  0  0  0  0
 17 16  1  0  0  0  0
 18 12  1  0  0  0  0
M  RAD  3   2   2   3   3   4   2
M  END
