Coordinates from ORCA-job 4-NO2PhN2+~BF4-_B3LYPG-6-31G_dp-CH-Scan-d09-49-n800
 OpenBabel11261918593D

 20 18  0  0  0  0  0  0  0  0999 V2000
   -1.6042   -0.0412    0.0454 C   0  0  0  0  0  0  0  0  0  0  0  0
   -3.0093   -0.1024    0.0149 N   0  0  0  0  0  0  0  0  0  0  0  0
   -4.1254   -0.0621   -0.0068 N   0  0  0  0  0  0  0  0  0  0  0  0
   -1.1459    1.2754    0.0836 C   0  0  0  0  0  0  0  0  0  0  0  0
    0.2820    1.2817    0.1156 C   0  0  0  0  0  0  0  0  0  0  0  0
    1.0232    0.1097    0.1084 C   0  0  0  0  0  0  0  0  0  0  0  0
    2.5080    0.1881    0.1446 N   0  0  0  0  0  0  0  0  0  0  0  0
    3.0200    1.3025    0.1868 O   0  0  0  0  0  0  0  0  0  0  0  0
    3.1329   -0.8724    0.1299 O   0  0  0  0  0  0  0  0  0  0  0  0
    0.4566   -1.1844    0.0679 C   0  0  0  0  0  0  0  0  0  0  0  0
   -0.9146   -1.2828    0.0344 C   0  0  0  0  0  0  0  0  0  0  0  0
   -4.4543    4.5531   -0.2598 H   0  0  0  0  0  0  0  0  0  0  0  0
    0.8284    2.2203    0.1469 H   0  0  0  0  0  0  0  0  0  0  0  0
    1.1013   -2.0527    0.0640 H   0  0  0  0  0  0  0  0  0  0  0  0
   -1.4235   -2.2421    0.0018 H   0  0  0  0  0  0  0  0  0  0  0  0
   -6.0874    2.6577   -0.1955 B   0  0  0  0  0  0  0  0  0  0  0  0
   -5.9013    2.0103   -1.3350 F   0  0  0  0  0  0  0  0  0  0  0  0
   -5.1876    4.5262   -0.8324 F   0  0  0  0  0  0  0  0  0  0  0  0
   -7.2694    3.1645    0.1012 F   0  0  0  0  0  0  0  0  0  0  0  0
   -5.1605    2.5497    0.7605 F   0  0  0  0  0  0  0  0  0  0  0  0
  1  4  1  0  0  0  0
  2  1  1  0  0  0  0
  3  2  1  0  0  0  0
  4  5  2  0  0  0  0
  5 13  1  0  0  0  0
  6  5  1  0  0  0  0
  6  7  1  0  0  0  0
  7  8  2  0  0  0  0
  9  7  2  0  0  0  0
 10  6  2  0  0  0  0
 11  1  2  0  0  0  0
 11 10  1  0  0  0  0
 14 10  1  0  0  0  0
 15 11  1  0  0  0  0
 16 19  1  0  0  0  0
 16 20  1  0  0  0  0
 17 16  1  0  0  0  0
 18 12  1  0  0  0  0
M  RAD  3   2   2   3   3   4   2
M  END
