Coordinates from ORCA-job 4-NO2PhN2+~BF4-_B3LYPG-6-31G_dp-CH-Scan-d09-49-n800
 OpenBabel11261918593D

 20 18  0  0  0  0  0  0  0  0999 V2000
   -1.8417   -0.0669   -0.0132 C   0  0  0  0  0  0  0  0  0  0  0  0
   -3.2285   -0.2659   -0.0487 N   0  0  0  0  0  0  0  0  0  0  0  0
   -4.3394   -0.3649   -0.0795 N   0  0  0  0  0  0  0  0  0  0  0  0
   -1.4775    1.2822   -0.0776 C   0  0  0  0  0  0  0  0  0  0  0  0
   -0.0581    1.4041   -0.0361 C   0  0  0  0  0  0  0  0  0  0  0  0
    0.7740    0.2982    0.0551 C   0  0  0  0  0  0  0  0  0  0  0  0
    2.2474    0.4994    0.0937 N   0  0  0  0  0  0  0  0  0  0  0  0
    2.6661    1.6517    0.0521 O   0  0  0  0  0  0  0  0  0  0  0  0
    2.9528   -0.5050    0.1817 O   0  0  0  0  0  0  0  0  0  0  0  0
    0.3111   -1.0334    0.1150 C   0  0  0  0  0  0  0  0  0  0  0  0
   -1.0481   -1.2412    0.0804 C   0  0  0  0  0  0  0  0  0  0  0  0
   -3.4081    3.6017   -0.2488 H   0  0  0  0  0  0  0  0  0  0  0  0
    0.4118    2.3824   -0.0758 H   0  0  0  0  0  0  0  0  0  0  0  0
    1.0203   -1.8467    0.1855 H   0  0  0  0  0  0  0  0  0  0  0  0
   -1.4782   -2.2376    0.1227 H   0  0  0  0  0  0  0  0  0  0  0  0
   -5.7435    2.6648   -0.1667 B   0  0  0  0  0  0  0  0  0  0  0  0
   -5.4218    2.0326   -1.2956 F   0  0  0  0  0  0  0  0  0  0  0  0
   -4.2200    4.0634   -0.2868 F   0  0  0  0  0  0  0  0  0  0  0  0
   -6.7251    3.5496   -0.1627 F   0  0  0  0  0  0  0  0  0  0  0  0
   -5.3245    2.1308    0.9815 F   0  0  0  0  0  0  0  0  0  0  0  0
  1 11  2  0  0  0  0
  2  1  1  0  0  0  0
  3  2  1  0  0  0  0
  4  5  2  0  0  0  0
  4  1  1  0  0  0  0
  5  6  1  0  0  0  0
  6  7  1  0  0  0  0
  6 10  2  0  0  0  0
  7  9  2  0  0  0  0
  8  7  2  0  0  0  0
 10 14  1  0  0  0  0
 11 10  1  0  0  0  0
 11 15  1  0  0  0  0
 13  5  1  0  0  0  0
 16 19  1  0  0  0  0
 16 20  1  0  0  0  0
 17 16  1  0  0  0  0
 18 12  1  0  0  0  0
M  RAD  3   2   2   3   3   4   2
M  END
