Coordinates from ORCA-job 4-NO2PhN2+~BF4-_B3LYPG-6-31G_dp-CH-Scan-d09-49-n800
 OpenBabel11261918593D

 20 18  0  0  0  0  0  0  0  0999 V2000
   -1.6784   -0.0701    0.0327 C   0  0  0  0  0  0  0  0  0  0  0  0
   -3.0798   -0.1815   -0.0020 N   0  0  0  0  0  0  0  0  0  0  0  0
   -4.1964   -0.1868   -0.0258 N   0  0  0  0  0  0  0  0  0  0  0  0
   -1.2617    1.2609    0.0652 C   0  0  0  0  0  0  0  0  0  0  0  0
    0.1652    1.3120    0.1014 C   0  0  0  0  0  0  0  0  0  0  0  0
    0.9437    0.1644    0.1020 C   0  0  0  0  0  0  0  0  0  0  0  0
    2.4252    0.2907    0.1416 N   0  0  0  0  0  0  0  0  0  0  0  0
    2.9011    1.4213    0.1744 O   0  0  0  0  0  0  0  0  0  0  0  0
    3.0834   -0.7495    0.1396 O   0  0  0  0  0  0  0  0  0  0  0  0
    0.4188   -1.1469    0.0669 C   0  0  0  0  0  0  0  0  0  0  0  0
   -0.9485   -1.2886    0.0305 C   0  0  0  0  0  0  0  0  0  0  0  0
   -4.1459    4.3778   -0.2619 H   0  0  0  0  0  0  0  0  0  0  0  0
    0.6816    2.2676    0.1300 H   0  0  0  0  0  0  0  0  0  0  0  0
    1.0905   -1.9945    0.0694 H   0  0  0  0  0  0  0  0  0  0  0  0
   -1.4264   -2.2639    0.0020 H   0  0  0  0  0  0  0  0  0  0  0  0
   -5.9764    2.6551   -0.1730 B   0  0  0  0  0  0  0  0  0  0  0  0
   -5.8387    1.9818   -1.3052 F   0  0  0  0  0  0  0  0  0  0  0  0
   -4.8969    4.4134   -0.8107 F   0  0  0  0  0  0  0  0  0  0  0  0
   -7.1063    3.2818    0.0982 F   0  0  0  0  0  0  0  0  0  0  0  0
   -5.0851    2.4543    0.8010 F   0  0  0  0  0  0  0  0  0  0  0  0
  1  4  1  0  0  0  0
  2  1  1  0  0  0  0
  3  2  1  0  0  0  0
  4  5  2  0  0  0  0
  5  6  1  0  0  0  0
  5 13  1  0  0  0  0
  6  7  1  0  0  0  0
  7  8  2  0  0  0  0
  9  7  2  0  0  0  0
 10 14  1  0  0  0  0
 10  6  2  0  0  0  0
 11  1  2  0  0  0  0
 11 10  1  0  0  0  0
 15 11  1  0  0  0  0
 16 19  1  0  0  0  0
 16 20  1  0  0  0  0
 17 16  1  0  0  0  0
 18 12  1  0  0  0  0
M  RAD  3   2   2   3   3   4   2
M  END
