Coordinates from ORCA-job 4-NO2PhN2+~BF4-_B3LYPG-6-31G_dp-CH-Scan-d09-49-n800
 OpenBabel11261918593D

 20 18  0  0  0  0  0  0  0  0999 V2000
   -1.6793   -0.0707    0.0327 C   0  0  0  0  0  0  0  0  0  0  0  0
   -3.0807   -0.1825   -0.0015 N   0  0  0  0  0  0  0  0  0  0  0  0
   -4.1972   -0.1879   -0.0267 N   0  0  0  0  0  0  0  0  0  0  0  0
   -1.2632    1.2605    0.0642 C   0  0  0  0  0  0  0  0  0  0  0  0
    0.1636    1.3123    0.1007 C   0  0  0  0  0  0  0  0  0  0  0  0
    0.9427    0.1651    0.1018 C   0  0  0  0  0  0  0  0  0  0  0  0
    2.4241    0.2920    0.1412 N   0  0  0  0  0  0  0  0  0  0  0  0
    2.8995    1.4228    0.1732 O   0  0  0  0  0  0  0  0  0  0  0  0
    3.0828   -0.7479    0.1397 O   0  0  0  0  0  0  0  0  0  0  0  0
    0.4183   -1.1465    0.0673 C   0  0  0  0  0  0  0  0  0  0  0  0
   -0.9489   -1.2889    0.0310 C   0  0  0  0  0  0  0  0  0  0  0  0
   -4.1423    4.3757   -0.2596 H   0  0  0  0  0  0  0  0  0  0  0  0
    0.6796    2.2681    0.1287 H   0  0  0  0  0  0  0  0  0  0  0  0
    1.0904   -1.9938    0.0703 H   0  0  0  0  0  0  0  0  0  0  0  0
   -1.4263   -2.2644    0.0032 H   0  0  0  0  0  0  0  0  0  0  0  0
   -5.9750    2.6551   -0.1735 B   0  0  0  0  0  0  0  0  0  0  0  0
   -5.8365    1.9823   -1.3060 F   0  0  0  0  0  0  0  0  0  0  0  0
   -4.8930    4.4126   -0.8088 F   0  0  0  0  0  0  0  0  0  0  0  0
   -7.1046    3.2827    0.0968 F   0  0  0  0  0  0  0  0  0  0  0  0
   -5.0850    2.4527    0.8015 F   0  0  0  0  0  0  0  0  0  0  0  0
  1  4  1  0  0  0  0
  2  1  1  0  0  0  0
  3  2  1  0  0  0  0
  4  5  2  0  0  0  0
  5  6  1  0  0  0  0
  5 13  1  0  0  0  0
  6  7  1  0  0  0  0
  7  8  2  0  0  0  0
  9  7  2  0  0  0  0
 10 14  1  0  0  0  0
 10  6  2  0  0  0  0
 11  1  2  0  0  0  0
 11 10  1  0  0  0  0
 15 11  1  0  0  0  0
 16 19  1  0  0  0  0
 16 20  1  0  0  0  0
 17 16  1  0  0  0  0
 18 12  1  0  0  0  0
M  RAD  3   2   2   3   3   4   2
M  END
