Coordinates from ORCA-job 4-NO2PhN2+~BF4-_B3LYPG-6-31G_dp-CH-Scan-d09-49-n800
 OpenBabel11261918593D

 20 18  0  0  0  0  0  0  0  0999 V2000
   -1.6578   -0.0632    0.0361 C   0  0  0  0  0  0  0  0  0  0  0  0
   -3.0605   -0.1622    0.0033 N   0  0  0  0  0  0  0  0  0  0  0  0
   -4.1771   -0.1574   -0.0196 N   0  0  0  0  0  0  0  0  0  0  0  0
   -1.2301    1.2639    0.0717 C   0  0  0  0  0  0  0  0  0  0  0  0
    0.1972    1.3032    0.1063 C   0  0  0  0  0  0  0  0  0  0  0  0
    0.9660    0.1492    0.1027 C   0  0  0  0  0  0  0  0  0  0  0  0
    2.4485    0.2629    0.1407 N   0  0  0  0  0  0  0  0  0  0  0  0
    2.9338    1.3891    0.1847 O   0  0  0  0  0  0  0  0  0  0  0  0
    3.0979   -0.7829    0.1408 O   0  0  0  0  0  0  0  0  0  0  0  0
    0.4301   -1.1577    0.0646 C   0  0  0  0  0  0  0  0  0  0  0  0
   -0.9383   -1.2880    0.0294 C   0  0  0  0  0  0  0  0  0  0  0  0
   -4.2328    4.4338   -0.2664 H   0  0  0  0  0  0  0  0  0  0  0  0
    0.7214    2.2545    0.1366 H   0  0  0  0  0  0  0  0  0  0  0  0
    1.0948   -2.0108    0.0638 H   0  0  0  0  0  0  0  0  0  0  0  0
   -1.4244   -2.2592   -0.0014 H   0  0  0  0  0  0  0  0  0  0  0  0
   -6.0076    2.6566   -0.1766 B   0  0  0  0  0  0  0  0  0  0  0  0
   -5.8609    1.9856   -1.3088 F   0  0  0  0  0  0  0  0  0  0  0  0
   -4.9776    4.4450   -0.8246 F   0  0  0  0  0  0  0  0  0  0  0  0
   -7.1512    3.2538    0.1031 F   0  0  0  0  0  0  0  0  0  0  0  0
   -5.1024    2.4834    0.7899 F   0  0  0  0  0  0  0  0  0  0  0  0
  1  4  1  0  0  0  0
  2  1  1  0  0  0  0
  3  2  1  0  0  0  0
  4  5  2  0  0  0  0
  5 13  1  0  0  0  0
  6  5  1  0  0  0  0
  6  7  1  0  0  0  0
  7  9  2  0  0  0  0
  7  8  2  0  0  0  0
 10  6  2  0  0  0  0
 11  1  2  0  0  0  0
 11 10  1  0  0  0  0
 14 10  1  0  0  0  0
 15 11  1  0  0  0  0
 16 19  1  0  0  0  0
 16 20  1  0  0  0  0
 17 16  1  0  0  0  0
 18 12  1  0  0  0  0
M  RAD  3   2   2   3   3   4   2
M  END
