Coordinates from ORCA-job 4-NO2PhN2+~BF4-_B3LYPG-6-31G_dp-CH-Scan-d09-49-n800
 OpenBabel11261918593D

 20 18  0  0  0  0  0  0  0  0999 V2000
   -1.6983   -0.0753    0.0275 C   0  0  0  0  0  0  0  0  0  0  0  0
   -3.0985   -0.1991   -0.0092 N   0  0  0  0  0  0  0  0  0  0  0  0
   -4.2148   -0.2151   -0.0352 N   0  0  0  0  0  0  0  0  0  0  0  0
   -1.2916    1.2591    0.0533 C   0  0  0  0  0  0  0  0  0  0  0  0
    0.1346    1.3211    0.0915 C   0  0  0  0  0  0  0  0  0  0  0  0
    0.9221    0.1797    0.0991 C   0  0  0  0  0  0  0  0  0  0  0  0
    2.4025    0.3177    0.1398 N   0  0  0  0  0  0  0  0  0  0  0  0
    2.8696    1.4521    0.1655 O   0  0  0  0  0  0  0  0  0  0  0  0
    3.0687   -0.7175    0.1464 O   0  0  0  0  0  0  0  0  0  0  0  0
    0.4074   -1.1357    0.0706 C   0  0  0  0  0  0  0  0  0  0  0  0
   -0.9587   -1.2880    0.0331 C   0  0  0  0  0  0  0  0  0  0  0  0
   -4.0584    4.3154   -0.2536 H   0  0  0  0  0  0  0  0  0  0  0  0
    0.6437    2.2807    0.1158 H   0  0  0  0  0  0  0  0  0  0  0  0
    1.0854   -1.9782    0.0787 H   0  0  0  0  0  0  0  0  0  0  0  0
   -1.4291   -2.2670    0.0094 H   0  0  0  0  0  0  0  0  0  0  0  0
   -5.9470    2.6542   -0.1697 B   0  0  0  0  0  0  0  0  0  0  0  0
   -5.8162    1.9821   -1.3038 F   0  0  0  0  0  0  0  0  0  0  0  0
   -4.8173    4.3820   -0.7888 F   0  0  0  0  0  0  0  0  0  0  0  0
   -7.0626    3.3095    0.0931 F   0  0  0  0  0  0  0  0  0  0  0  0
   -5.0727    2.4218    0.8127 F   0  0  0  0  0  0  0  0  0  0  0  0
  1 11  2  0  0  0  0
  1  4  1  0  0  0  0
  2  1  1  0  0  0  0
  3  2  1  0  0  0  0
  4  5  2  0  0  0  0
  5  6  1  0  0  0  0
  5 13  1  0  0  0  0
  6  7  1  0  0  0  0
  7  9  2  0  0  0  0
  7  8  2  0  0  0  0
 10 14  1  0  0  0  0
 10  6  2  0  0  0  0
 11 10  1  0  0  0  0
 15 11  1  0  0  0  0
 16 19  1  0  0  0  0
 16 20  1  0  0  0  0
 17 16  1  0  0  0  0
 18 12  1  0  0  0  0
M  RAD  3   2   2   3   3   4   2
M  END
