Coordinates from ORCA-job 4-NO2PhN2+~BF4-_B3LYPG-6-31G_dp-CH-Scan-d09-49-n800
 OpenBabel11261918593D

 20 18  0  0  0  0  0  0  0  0999 V2000
   -1.8667   -0.0628   -0.0106 C   0  0  0  0  0  0  0  0  0  0  0  0
   -3.2513   -0.2718   -0.0445 N   0  0  0  0  0  0  0  0  0  0  0  0
   -4.3611   -0.3805   -0.0729 N   0  0  0  0  0  0  0  0  0  0  0  0
   -1.5077    1.2883   -0.0742 C   0  0  0  0  0  0  0  0  0  0  0  0
   -0.0897    1.4188   -0.0349 C   0  0  0  0  0  0  0  0  0  0  0  0
    0.7486    0.3174    0.0543 C   0  0  0  0  0  0  0  0  0  0  0  0
    2.2209    0.5272    0.0911 N   0  0  0  0  0  0  0  0  0  0  0  0
    2.6328    1.6816    0.0421 O   0  0  0  0  0  0  0  0  0  0  0  0
    2.9323   -0.4737    0.1683 O   0  0  0  0  0  0  0  0  0  0  0  0
    0.2931   -1.0164    0.1137 C   0  0  0  0  0  0  0  0  0  0  0  0
   -1.0651   -1.2317    0.0809 C   0  0  0  0  0  0  0  0  0  0  0  0
   -3.3433    3.4918   -0.2352 H   0  0  0  0  0  0  0  0  0  0  0  0
    0.3741    2.3998   -0.0744 H   0  0  0  0  0  0  0  0  0  0  0  0
    1.0067   -1.8260    0.1825 H   0  0  0  0  0  0  0  0  0  0  0  0
   -1.4893   -2.2305    0.1230 H   0  0  0  0  0  0  0  0  0  0  0  0
   -5.6895    2.6674   -0.1716 B   0  0  0  0  0  0  0  0  0  0  0  0
   -5.3806    2.0199   -1.2974 F   0  0  0  0  0  0  0  0  0  0  0  0
   -4.1359    3.9904   -0.2666 F   0  0  0  0  0  0  0  0  0  0  0  0
   -6.6461    3.5804   -0.1792 F   0  0  0  0  0  0  0  0  0  0  0  0
   -5.3131    2.1097    0.9817 F   0  0  0  0  0  0  0  0  0  0  0  0
  1 11  2  0  0  0  0
  2  1  1  0  0  0  0
  3  2  1  0  0  0  0
  4  5  2  0  0  0  0
  4  1  1  0  0  0  0
  5  6  1  0  0  0  0
  6  7  1  0  0  0  0
  6 10  2  0  0  0  0
  7  9  2  0  0  0  0
  8  7  2  0  0  0  0
 10 14  1  0  0  0  0
 11 10  1  0  0  0  0
 11 15  1  0  0  0  0
 13  5  1  0  0  0  0
 16 20  1  0  0  0  0
 17 16  1  0  0  0  0
 18 12  1  0  0  0  0
 19 16  1  0  0  0  0
M  RAD  3   2   2   3   3   4   2
M  END
