Coordinates from ORCA-job 4-NO2PhN2+~BF4-_B3LYPG-6-31G_dp-CH-Scan-d09-49-n800
 OpenBabel11261918593D

 20 19  0  0  0  0  0  0  0  0999 V2000
   -2.1575    0.0965   -0.2582 C   0  0  0  0  0  0  0  0  0  0  0  0
   -3.5082   -0.1607   -0.4742 N   0  0  0  0  0  0  0  0  0  0  0  0
   -4.5753   -0.3881   -0.6949 N   0  0  0  0  0  0  0  0  0  0  0  0
   -1.6965    1.4101   -0.4172 C   0  0  0  0  0  0  0  0  0  0  0  0
   -0.3307    1.6124   -0.2309 C   0  0  0  0  0  0  0  0  0  0  0  0
    0.4801    0.5314    0.1045 C   0  0  0  0  0  0  0  0  0  0  0  0
    1.9333    0.7677    0.3066 N   0  0  0  0  0  0  0  0  0  0  0  0
    2.3404    1.9129    0.1527 O   0  0  0  0  0  0  0  0  0  0  0  0
    2.6179   -0.2045    0.6115 O   0  0  0  0  0  0  0  0  0  0  0  0
    0.0024   -0.7722    0.2637 C   0  0  0  0  0  0  0  0  0  0  0  0
   -1.3497   -1.0065    0.0738 C   0  0  0  0  0  0  0  0  0  0  0  0
   -2.5242    2.3238   -0.6795 H   0  0  0  0  0  0  0  0  0  0  0  0
    0.1076    2.5973   -0.3339 H   0  0  0  0  0  0  0  0  0  0  0  0
    0.6878   -1.5666    0.5281 H   0  0  0  0  0  0  0  0  0  0  0  0
   -1.7732   -1.9985    0.1829 H   0  0  0  0  0  0  0  0  0  0  0  0
   -4.8706    2.5925    0.0716 B   0  0  0  0  0  0  0  0  0  0  0  0
   -5.6758    1.6963   -0.6712 F   0  0  0  0  0  0  0  0  0  0  0  0
   -3.9132    3.1662   -0.8431 F   0  0  0  0  0  0  0  0  0  0  0  0
   -5.6036    3.5662    0.6819 F   0  0  0  0  0  0  0  0  0  0  0  0
   -4.1220    1.8232    1.0019 F   0  0  0  0  0  0  0  0  0  0  0  0
  1 11  1  0  0  0  0
  2  1  1  0  0  0  0
  3  2  1  0  0  0  0
  4  1  2  0  0  0  0
  4  5  1  0  0  0  0
  5  6  2  0  0  0  0
  6 10  1  0  0  0  0
  6  7  1  0  0  0  0
  7  9  2  0  0  0  0
  8  7  2  0  0  0  0
 10 14  1  0  0  0  0
 11 15  1  0  0  0  0
 11 10  2  0  0  0  0
 12  4  1  0  0  0  0
 13  5  1  0  0  0  0
 16 19  1  0  0  0  0
 16 20  1  0  0  0  0
 17 16  1  0  0  0  0
 18 16  1  0  0  0  0
M  RAD  2   2   2   3   3
M  END
