Coordinates from ORCA-job 4-NO2PhN2+~BF4-_B3LYPG-6-31G_dp-CH-Scan-d09-49-n800
 OpenBabel11261918593D

 20 18  0  0  0  0  0  0  0  0999 V2000
   -1.8023   -0.0815    0.0211 C   0  0  0  0  0  0  0  0  0  0  0  0
   -3.1936   -0.2620   -0.0067 N   0  0  0  0  0  0  0  0  0  0  0  0
   -4.3071   -0.3354   -0.0273 N   0  0  0  0  0  0  0  0  0  0  0  0
   -1.4345    1.2669    0.0091 C   0  0  0  0  0  0  0  0  0  0  0  0
   -0.0122    1.3762    0.0393 C   0  0  0  0  0  0  0  0  0  0  0  0
    0.8129    0.2620    0.0739 C   0  0  0  0  0  0  0  0  0  0  0  0
    2.2881    0.4510    0.1031 N   0  0  0  0  0  0  0  0  0  0  0  0
    2.7159    1.6008    0.0952 O   0  0  0  0  0  0  0  0  0  0  0  0
    2.9878   -0.5610    0.1337 O   0  0  0  0  0  0  0  0  0  0  0  0
    0.3415   -1.0688    0.0832 C   0  0  0  0  0  0  0  0  0  0  0  0
   -1.0192   -1.2661    0.0562 C   0  0  0  0  0  0  0  0  0  0  0  0
   -3.5774    3.8679   -0.2247 H   0  0  0  0  0  0  0  0  0  0  0  0
    0.4651    2.3520    0.0354 H   0  0  0  0  0  0  0  0  0  0  0  0
    1.0463   -1.8885    0.1109 H   0  0  0  0  0  0  0  0  0  0  0  0
   -1.4565   -2.2603    0.0616 H   0  0  0  0  0  0  0  0  0  0  0  0
   -5.8020    2.6546   -0.1805 B   0  0  0  0  0  0  0  0  0  0  0  0
   -5.5684    1.9958   -1.3110 F   0  0  0  0  0  0  0  0  0  0  0  0
   -4.3939    4.1927   -0.5357 F   0  0  0  0  0  0  0  0  0  0  0  0
   -6.8432    3.4613   -0.0853 F   0  0  0  0  0  0  0  0  0  0  0  0
   -5.1783    2.2417    0.9244 F   0  0  0  0  0  0  0  0  0  0  0  0
  1 11  1  0  0  0  0
  2  1  1  0  0  0  0
  3  2  1  0  0  0  0
  4  1  2  0  0  0  0
  4  5  1  0  0  0  0
  5  6  2  0  0  0  0
  6 10  1  0  0  0  0
  6  7  1  0  0  0  0
  7  9  2  0  0  0  0
  8  7  2  0  0  0  0
 10 14  1  0  0  0  0
 11 15  1  0  0  0  0
 11 10  2  0  0  0  0
 13  5  1  0  0  0  0
 16 19  1  0  0  0  0
 16 20  1  0  0  0  0
 17 16  1  0  0  0  0
 18 12  1  0  0  0  0
M  RAD  3   2   2   3   3   4   2
M  END
