Coordinates from ORCA-job 4-NO2PhN2+~BF4-_B3LYPG-6-31G_dp-CH-Scan-d09-49-n800
 OpenBabel11261918593D

 20 18  0  0  0  0  0  0  0  0999 V2000
   -1.6127   -0.0450    0.0429 C   0  0  0  0  0  0  0  0  0  0  0  0
   -3.0175   -0.1124    0.0107 N   0  0  0  0  0  0  0  0  0  0  0  0
   -4.1338   -0.0786   -0.0114 N   0  0  0  0  0  0  0  0  0  0  0  0
   -1.1595    1.2733    0.0815 C   0  0  0  0  0  0  0  0  0  0  0  0
    0.2684    1.2850    0.1149 C   0  0  0  0  0  0  0  0  0  0  0  0
    1.0141    0.1160    0.1084 C   0  0  0  0  0  0  0  0  0  0  0  0
    2.4986    0.2003    0.1459 N   0  0  0  0  0  0  0  0  0  0  0  0
    3.0063    1.3167    0.1873 O   0  0  0  0  0  0  0  0  0  0  0  0
    3.1276   -0.8579    0.1320 O   0  0  0  0  0  0  0  0  0  0  0  0
    0.4526   -1.1802    0.0674 C   0  0  0  0  0  0  0  0  0  0  0  0
   -0.9182   -1.2839    0.0326 C   0  0  0  0  0  0  0  0  0  0  0  0
   -4.4186    4.5361   -0.2647 H   0  0  0  0  0  0  0  0  0  0  0  0
    0.8111    2.2258    0.1468 H   0  0  0  0  0  0  0  0  0  0  0  0
    1.1006   -2.0460    0.0641 H   0  0  0  0  0  0  0  0  0  0  0  0
   -1.4233   -2.2452   -0.0004 H   0  0  0  0  0  0  0  0  0  0  0  0
   -6.0750    2.6577   -0.1903 B   0  0  0  0  0  0  0  0  0  0  0  0
   -5.8990    2.0045   -1.3282 F   0  0  0  0  0  0  0  0  0  0  0  0
   -5.1541    4.5123   -0.8346 F   0  0  0  0  0  0  0  0  0  0  0  0
   -7.2499    3.1813    0.1060 F   0  0  0  0  0  0  0  0  0  0  0  0
   -5.1489    2.5394    0.7651 F   0  0  0  0  0  0  0  0  0  0  0  0
  1  4  1  0  0  0  0
  2  1  1  0  0  0  0
  3  2  1  0  0  0  0
  4  5  2  0  0  0  0
  5 13  1  0  0  0  0
  6  5  1  0  0  0  0
  6  7  1  0  0  0  0
  7  8  2  0  0  0  0
  9  7  2  0  0  0  0
 10  6  2  0  0  0  0
 11  1  2  0  0  0  0
 11 10  1  0  0  0  0
 14 10  1  0  0  0  0
 15 11  1  0  0  0  0
 16 19  1  0  0  0  0
 16 20  1  0  0  0  0
 17 16  1  0  0  0  0
 18 12  1  0  0  0  0
M  RAD  3   2   2   3   3   4   2
M  END
