Coordinates from ORCA-job 4-NO2PhN2+~BF4-_B3LYPG-6-31G_dp-CH-Scan-d09-49-n800
 OpenBabel11261918593D

 20 18  0  0  0  0  0  0  0  0999 V2000
   -2.1450    0.0383   -0.1752 C   0  0  0  0  0  0  0  0  0  0  0  0
   -3.4993   -0.2482   -0.3261 N   0  0  0  0  0  0  0  0  0  0  0  0
   -4.5792   -0.4653   -0.4784 N   0  0  0  0  0  0  0  0  0  0  0  0
   -1.7465    1.3762   -0.3083 C   0  0  0  0  0  0  0  0  0  0  0  0
   -0.3670    1.5845   -0.1720 C   0  0  0  0  0  0  0  0  0  0  0  0
    0.4843    0.5142    0.0781 C   0  0  0  0  0  0  0  0  0  0  0  0
    1.9411    0.7758    0.2199 N   0  0  0  0  0  0  0  0  0  0  0  0
    2.3184    1.9348    0.0952 O   0  0  0  0  0  0  0  0  0  0  0  0
    2.6614   -0.1918    0.4512 O   0  0  0  0  0  0  0  0  0  0  0  0
    0.0475   -0.8106    0.2078 C   0  0  0  0  0  0  0  0  0  0  0  0
   -1.3038   -1.0673    0.0767 C   0  0  0  0  0  0  0  0  0  0  0  0
   -2.7101    2.4230   -0.5001 H   0  0  0  0  0  0  0  0  0  0  0  0
    0.0532    2.5799   -0.2539 H   0  0  0  0  0  0  0  0  0  0  0  0
    0.7641   -1.5967    0.4052 H   0  0  0  0  0  0  0  0  0  0  0  0
   -1.7020   -2.0722    0.1655 H   0  0  0  0  0  0  0  0  0  0  0  0
   -4.9026    2.6410    0.0108 B   0  0  0  0  0  0  0  0  0  0  0  0
   -5.4275    1.8200   -0.9880 F   0  0  0  0  0  0  0  0  0  0  0  0
   -3.6682    3.2706   -0.5934 F   0  0  0  0  0  0  0  0  0  0  0  0
   -5.7307    3.6401    0.4022 F   0  0  0  0  0  0  0  0  0  0  0  0
   -4.4192    1.8531    1.0592 F   0  0  0  0  0  0  0  0  0  0  0  0
  1 11  1  0  0  0  0
  2  1  1  0  0  0  0
  3  2  1  0  0  0  0
  4  1  2  0  0  0  0
  4  5  1  0  0  0  0
  5  6  2  0  0  0  0
  6 10  1  0  0  0  0
  6  7  1  0  0  0  0
  7  9  2  0  0  0  0
  8  7  2  0  0  0  0
 10 14  1  0  0  0  0
 11 15  1  0  0  0  0
 11 10  2  0  0  0  0
 13  5  1  0  0  0  0
 16 19  1  0  0  0  0
 16 20  1  0  0  0  0
 17 16  1  0  0  0  0
 18 12  1  0  0  0  0
M  RAD  3   2   2   3   3   4   2
M  END
