Coordinates from ORCA-job 4-NO2PhN2+~BF4-_B3LYPG-6-31G_dp-CH-Scan-d09-49-n800
 OpenBabel11261918593D

 20 18  0  0  0  0  0  0  0  0999 V2000
   -1.6313   -0.0556    0.0399 C   0  0  0  0  0  0  0  0  0  0  0  0
   -3.0350   -0.1365    0.0069 N   0  0  0  0  0  0  0  0  0  0  0  0
   -4.1515   -0.1143   -0.0157 N   0  0  0  0  0  0  0  0  0  0  0  0
   -1.1901    1.2671    0.0786 C   0  0  0  0  0  0  0  0  0  0  0  0
    0.2376    1.2916    0.1130 C   0  0  0  0  0  0  0  0  0  0  0  0
    0.9941    0.1295    0.1068 C   0  0  0  0  0  0  0  0  0  0  0  0
    2.4778    0.2274    0.1451 N   0  0  0  0  0  0  0  0  0  0  0  0
    2.9751    1.3485    0.1874 O   0  0  0  0  0  0  0  0  0  0  0  0
    3.1164   -0.8250    0.1351 O   0  0  0  0  0  0  0  0  0  0  0  0
    0.4445   -1.1718    0.0656 C   0  0  0  0  0  0  0  0  0  0  0  0
   -0.9252   -1.2879    0.0301 C   0  0  0  0  0  0  0  0  0  0  0  0
   -4.3433    4.5002   -0.2691 H   0  0  0  0  0  0  0  0  0  0  0  0
    0.7718    2.2373    0.1453 H   0  0  0  0  0  0  0  0  0  0  0  0
    1.1004   -2.0317    0.0628 H   0  0  0  0  0  0  0  0  0  0  0  0
   -1.4214   -2.2538   -0.0030 H   0  0  0  0  0  0  0  0  0  0  0  0
   -6.0473    2.6589   -0.1828 B   0  0  0  0  0  0  0  0  0  0  0  0
   -5.8873    1.9954   -1.3172 F   0  0  0  0  0  0  0  0  0  0  0  0
   -5.0815    4.4852   -0.8359 F   0  0  0  0  0  0  0  0  0  0  0  0
   -7.2080    3.2161    0.1083 F   0  0  0  0  0  0  0  0  0  0  0  0
   -5.1270    2.5187    0.7750 F   0  0  0  0  0  0  0  0  0  0  0  0
  1  4  1  0  0  0  0
  2  1  1  0  0  0  0
  3  2  1  0  0  0  0
  4  5  2  0  0  0  0
  5 13  1  0  0  0  0
  6  5  1  0  0  0  0
  6  7  1  0  0  0  0
  7  8  2  0  0  0  0
  9  7  2  0  0  0  0
 10  6  2  0  0  0  0
 11  1  2  0  0  0  0
 11 10  1  0  0  0  0
 14 10  1  0  0  0  0
 15 11  1  0  0  0  0
 16 19  1  0  0  0  0
 16 20  1  0  0  0  0
 17 16  1  0  0  0  0
 18 12  1  0  0  0  0
M  RAD  3   2   2   3   3   4   2
M  END
