Coordinates from ORCA-job 4-NO2PhN2+~BF4-_B3LYPG-6-31G_dp-CH-Scan-d09-49-n800
 OpenBabel11261918593D

 20 18  0  0  0  0  0  0  0  0999 V2000
   -1.8971   -0.0550   -0.0050 C   0  0  0  0  0  0  0  0  0  0  0  0
   -3.2789   -0.2764   -0.0347 N   0  0  0  0  0  0  0  0  0  0  0  0
   -4.3867   -0.4007   -0.0620 N   0  0  0  0  0  0  0  0  0  0  0  0
   -1.5428    1.2982   -0.0677 C   0  0  0  0  0  0  0  0  0  0  0  0
   -0.1267    1.4381   -0.0335 C   0  0  0  0  0  0  0  0  0  0  0  0
    0.7186    0.3415    0.0505 C   0  0  0  0  0  0  0  0  0  0  0  0
    2.1897    0.5605    0.0814 N   0  0  0  0  0  0  0  0  0  0  0  0
    2.5937    1.7175    0.0315 O   0  0  0  0  0  0  0  0  0  0  0  0
    2.9071   -0.4363    0.1541 O   0  0  0  0  0  0  0  0  0  0  0  0
    0.2709   -0.9943    0.1099 C   0  0  0  0  0  0  0  0  0  0  0  0
   -1.0863   -1.2175    0.0819 C   0  0  0  0  0  0  0  0  0  0  0  0
   -3.2672    3.3481   -0.2054 H   0  0  0  0  0  0  0  0  0  0  0  0
    0.3303    2.4221   -0.0734 H   0  0  0  0  0  0  0  0  0  0  0  0
    0.9892   -1.8002    0.1749 H   0  0  0  0  0  0  0  0  0  0  0  0
   -1.5040   -2.2190    0.1244 H   0  0  0  0  0  0  0  0  0  0  0  0
   -5.6206    2.6737   -0.1812 B   0  0  0  0  0  0  0  0  0  0  0  0
   -5.3332    2.0009   -1.3009 F   0  0  0  0  0  0  0  0  0  0  0  0
   -4.0377    3.8863   -0.2407 F   0  0  0  0  0  0  0  0  0  0  0  0
   -6.5392    3.6267   -0.2071 F   0  0  0  0  0  0  0  0  0  0  0  0
   -5.3100    2.0851    0.9793 F   0  0  0  0  0  0  0  0  0  0  0  0
  1 11  2  0  0  0  0
  2  1  1  0  0  0  0
  3  2  1  0  0  0  0
  4  5  2  0  0  0  0
  4  1  1  0  0  0  0
  5  6  1  0  0  0  0
  6  7  1  0  0  0  0
  6 10  2  0  0  0  0
  7  9  2  0  0  0  0
  8  7  2  0  0  0  0
 10 14  1  0  0  0  0
 11 10  1  0  0  0  0
 11 15  1  0  0  0  0
 13  5  1  0  0  0  0
 16 20  1  0  0  0  0
 17 16  1  0  0  0  0
 18 12  1  0  0  0  0
 19 16  1  0  0  0  0
M  RAD  3   2   2   3   3   4   2
M  END
