Coordinates from ORCA-job 4-NO2PhN2+~BF4-_B3LYPG-6-31G_dp-CH-Scan-d09-49-n800
 OpenBabel11261918593D

 20 19  0  0  0  0  0  0  0  0999 V2000
   -2.2945    0.1096   -0.4084 C   0  0  0  0  0  0  0  0  0  0  0  0
   -3.6213   -0.2170   -0.6717 N   0  0  0  0  0  0  0  0  0  0  0  0
   -4.6254   -0.6201   -0.9169 N   0  0  0  0  0  0  0  0  0  0  0  0
   -1.7980    1.3535   -0.8182 C   0  0  0  0  0  0  0  0  0  0  0  0
   -0.4467    1.5961   -0.5889 C   0  0  0  0  0  0  0  0  0  0  0  0
    0.3236    0.6176    0.0301 C   0  0  0  0  0  0  0  0  0  0  0  0
    1.7642    0.8909    0.2642 N   0  0  0  0  0  0  0  0  0  0  0  0
    2.1999    1.9664   -0.1288 O   0  0  0  0  0  0  0  0  0  0  0  0
    2.4103    0.0170    0.8343 O   0  0  0  0  0  0  0  0  0  0  0  0
   -0.1868   -0.6146    0.4466 C   0  0  0  0  0  0  0  0  0  0  0  0
   -1.5264   -0.8857    0.2225 C   0  0  0  0  0  0  0  0  0  0  0  0
   -2.4700    2.0799   -1.2514 H   0  0  0  0  0  0  0  0  0  0  0  0
    0.0038    2.5387   -0.8718 H   0  0  0  0  0  0  0  0  0  0  0  0
    0.4650   -1.3304    0.9302 H   0  0  0  0  0  0  0  0  0  0  0  0
   -1.9727   -1.8245    0.5280 H   0  0  0  0  0  0  0  0  0  0  0  0
   -4.4541    2.5016    0.3824 B   0  0  0  0  0  0  0  0  0  0  0  0
   -4.4947    2.1145   -1.0127 F   0  0  0  0  0  0  0  0  0  0  0  0
   -3.2654    3.2180    0.5743 F   0  0  0  0  0  0  0  0  0  0  0  0
   -5.5736    3.2103    0.7186 F   0  0  0  0  0  0  0  0  0  0  0  0
   -4.3683    1.2775    1.1135 F   0  0  0  0  0  0  0  0  0  0  0  0
  1 11  2  0  0  0  0
  2  1  1  0  0  0  0
  3  2  1  0  0  0  0
  4  5  2  0  0  0  0
  4  1  1  0  0  0  0
  5  6  1  0  0  0  0
  6  7  1  0  0  0  0
  6 10  2  0  0  0  0
  7  9  2  0  0  0  0
  8  7  2  0  0  0  0
 10 14  1  0  0  0  0
 11 10  1  0  0  0  0
 11 15  1  0  0  0  0
 12  4  1  0  0  0  0
 13  5  1  0  0  0  0
 16 18  1  0  0  0  0
 16 19  1  0  0  0  0
 16 20  1  0  0  0  0
 17 16  1  0  0  0  0
M  RAD  2   2   2   3   3
M  END
