Coordinates from ORCA-job 4-NO2PhN2+~BF4-_B3LYPG-6-31G_dp-CH-Scan-d09-49-n800
 OpenBabel11261918593D

 20 18  0  0  0  0  0  0  0  0999 V2000
   -1.8506   -0.0663   -0.0116 C   0  0  0  0  0  0  0  0  0  0  0  0
   -3.2364   -0.2693   -0.0466 N   0  0  0  0  0  0  0  0  0  0  0  0
   -4.3468   -0.3728   -0.0768 N   0  0  0  0  0  0  0  0  0  0  0  0
   -1.4889    1.2837   -0.0752 C   0  0  0  0  0  0  0  0  0  0  0  0
   -0.0700    1.4092   -0.0343 C   0  0  0  0  0  0  0  0  0  0  0  0
    0.7648    0.3052    0.0559 C   0  0  0  0  0  0  0  0  0  0  0  0
    2.2377    0.5101    0.0943 N   0  0  0  0  0  0  0  0  0  0  0  0
    2.6537    1.6631    0.0458 O   0  0  0  0  0  0  0  0  0  0  0  0
    2.9458   -0.4931    0.1728 O   0  0  0  0  0  0  0  0  0  0  0  0
    0.3051   -1.0274    0.1149 C   0  0  0  0  0  0  0  0  0  0  0  0
   -1.0537   -1.2385    0.0808 C   0  0  0  0  0  0  0  0  0  0  0  0
   -3.3833    3.5617   -0.2433 H   0  0  0  0  0  0  0  0  0  0  0  0
    0.3973    2.3887   -0.0734 H   0  0  0  0  0  0  0  0  0  0  0  0
    1.0162   -1.8392    0.1846 H   0  0  0  0  0  0  0  0  0  0  0  0
   -1.4813   -2.2360    0.1226 H   0  0  0  0  0  0  0  0  0  0  0  0
   -5.7250    2.6671   -0.1693 B   0  0  0  0  0  0  0  0  0  0  0  0
   -5.4074    2.0286   -1.2966 F   0  0  0  0  0  0  0  0  0  0  0  0
   -4.1885    4.0369   -0.2788 F   0  0  0  0  0  0  0  0  0  0  0  0
   -6.6962    3.5637   -0.1708 F   0  0  0  0  0  0  0  0  0  0  0  0
   -5.3234    2.1238    0.9814 F   0  0  0  0  0  0  0  0  0  0  0  0
  1 11  2  0  0  0  0
  2  1  1  0  0  0  0
  3  2  1  0  0  0  0
  4  5  2  0  0  0  0
  4  1  1  0  0  0  0
  5  6  1  0  0  0  0
  6  7  1  0  0  0  0
  6 10  2  0  0  0  0
  7  9  2  0  0  0  0
  8  7  2  0  0  0  0
 10 14  1  0  0  0  0
 11 10  1  0  0  0  0
 11 15  1  0  0  0  0
 13  5  1  0  0  0  0
 16 20  1  0  0  0  0
 17 16  1  0  0  0  0
 18 12  1  0  0  0  0
 19 16  1  0  0  0  0
M  RAD  3   2   2   3   3   4   2
M  END
