Coordinates from ORCA-job 4-NO2PhN2+~BF4-_B3LYPG-6-31G_dp-CH-Scan-d09-49-n800
 OpenBabel11261918593D

 20 18  0  0  0  0  0  0  0  0999 V2000
   -1.8091   -0.0803    0.0229 C   0  0  0  0  0  0  0  0  0  0  0  0
   -3.1999   -0.2639   -0.0024 N   0  0  0  0  0  0  0  0  0  0  0  0
   -4.3131   -0.3412   -0.0223 N   0  0  0  0  0  0  0  0  0  0  0  0
   -1.4428    1.2686    0.0105 C   0  0  0  0  0  0  0  0  0  0  0  0
   -0.0208    1.3800    0.0391 C   0  0  0  0  0  0  0  0  0  0  0  0
    0.8060    0.2670    0.0725 C   0  0  0  0  0  0  0  0  0  0  0  0
    2.2810    0.4582    0.1000 N   0  0  0  0  0  0  0  0  0  0  0  0
    2.7070    1.6087    0.0919 O   0  0  0  0  0  0  0  0  0  0  0  0
    2.9822   -0.5528    0.1293 O   0  0  0  0  0  0  0  0  0  0  0  0
    0.3365   -1.0644    0.0820 C   0  0  0  0  0  0  0  0  0  0  0  0
   -1.0240   -1.2636    0.0567 C   0  0  0  0  0  0  0  0  0  0  0  0
   -3.5562    3.8422   -0.2189 H   0  0  0  0  0  0  0  0  0  0  0  0
    0.4550    2.3565    0.0348 H   0  0  0  0  0  0  0  0  0  0  0  0
    1.0424   -1.8832    0.1087 H   0  0  0  0  0  0  0  0  0  0  0  0
   -1.4598   -2.2585    0.0625 H   0  0  0  0  0  0  0  0  0  0  0  0
   -5.7891    2.6537   -0.1835 B   0  0  0  0  0  0  0  0  0  0  0  0
   -5.5504    1.9930   -1.3121 F   0  0  0  0  0  0  0  0  0  0  0  0
   -4.3700    4.1785   -0.5256 F   0  0  0  0  0  0  0  0  0  0  0  0
   -6.8267    3.4660   -0.0970 F   0  0  0  0  0  0  0  0  0  0  0  0
   -5.1792    2.2348    0.9270 F   0  0  0  0  0  0  0  0  0  0  0  0
  1 11  1  0  0  0  0
  2  1  1  0  0  0  0
  3  2  1  0  0  0  0
  4  1  2  0  0  0  0
  4  5  1  0  0  0  0
  5  6  2  0  0  0  0
  6 10  1  0  0  0  0
  6  7  1  0  0  0  0
  7  9  2  0  0  0  0
  8  7  2  0  0  0  0
 10 14  1  0  0  0  0
 11 15  1  0  0  0  0
 11 10  2  0  0  0  0
 13  5  1  0  0  0  0
 16 19  1  0  0  0  0
 16 20  1  0  0  0  0
 17 16  1  0  0  0  0
 18 12  1  0  0  0  0
M  RAD  3   2   2   3   3   4   2
M  END
