Coordinates from ORCA-job 4-NO2PhN2+~BF4-_B3LYPG-6-31G_dp-CH-Scan-d09-49-n800
 OpenBabel11261918593D

 20 18  0  0  0  0  0  0  0  0999 V2000
   -1.8265   -0.0705   -0.0146 C   0  0  0  0  0  0  0  0  0  0  0  0
   -3.2147   -0.2626   -0.0529 N   0  0  0  0  0  0  0  0  0  0  0  0
   -4.3264   -0.3527   -0.0859 N   0  0  0  0  0  0  0  0  0  0  0  0
   -1.4594    1.2775   -0.0788 C   0  0  0  0  0  0  0  0  0  0  0  0
   -0.0392    1.3945   -0.0353 C   0  0  0  0  0  0  0  0  0  0  0  0
    0.7891    0.2860    0.0574 C   0  0  0  0  0  0  0  0  0  0  0  0
    2.2632    0.4822    0.0980 N   0  0  0  0  0  0  0  0  0  0  0  0
    2.6861    1.6330    0.0541 O   0  0  0  0  0  0  0  0  0  0  0  0
    2.9653   -0.5244    0.1868 O   0  0  0  0  0  0  0  0  0  0  0  0
    0.3220   -1.0444    0.1172 C   0  0  0  0  0  0  0  0  0  0  0  0
   -1.0378   -1.2480    0.0806 C   0  0  0  0  0  0  0  0  0  0  0  0
   -3.4525    3.6750   -0.2559 H   0  0  0  0  0  0  0  0  0  0  0  0
    0.4341    2.3712   -0.0745 H   0  0  0  0  0  0  0  0  0  0  0  0
    1.0287   -1.8598    0.1891 H   0  0  0  0  0  0  0  0  0  0  0  0
   -1.4713   -2.2429    0.1227 H   0  0  0  0  0  0  0  0  0  0  0  0
   -5.7731    2.6623   -0.1638 B   0  0  0  0  0  0  0  0  0  0  0  0
   -5.4457    2.0417   -1.2964 F   0  0  0  0  0  0  0  0  0  0  0  0
   -4.2765    4.1117   -0.3024 F   0  0  0  0  0  0  0  0  0  0  0  0
   -6.7735    3.5251   -0.1485 F   0  0  0  0  0  0  0  0  0  0  0  0
   -5.3230    2.1443    0.9792 F   0  0  0  0  0  0  0  0  0  0  0  0
  1 11  2  0  0  0  0
  2  1  1  0  0  0  0
  3  2  1  0  0  0  0
  4  5  2  0  0  0  0
  4  1  1  0  0  0  0
  5  6  1  0  0  0  0
  6  7  1  0  0  0  0
  6 10  2  0  0  0  0
  7  9  2  0  0  0  0
  8  7  2  0  0  0  0
 10 14  1  0  0  0  0
 11 10  1  0  0  0  0
 11 15  1  0  0  0  0
 13  5  1  0  0  0  0
 16 19  1  0  0  0  0
 16 20  1  0  0  0  0
 17 16  1  0  0  0  0
 18 12  1  0  0  0  0
M  RAD  3   2   2   3   3   4   2
M  END
