Coordinates from ORCA-job 4-NO2PhN2+~BF4-_B3LYPG-6-31G_dp-CH-Scan-d09-49-n800
 OpenBabel11261918593D

 20 18  0  0  0  0  0  0  0  0999 V2000
   -2.0983    0.0003   -0.0304 C   0  0  0  0  0  0  0  0  0  0  0  0
   -3.4624   -0.2900   -0.0689 N   0  0  0  0  0  0  0  0  0  0  0  0
   -4.5563   -0.4888   -0.1048 N   0  0  0  0  0  0  0  0  0  0  0  0
   -1.7492    1.3578   -0.0932 C   0  0  0  0  0  0  0  0  0  0  0  0
   -0.3512    1.5515   -0.0498 C   0  0  0  0  0  0  0  0  0  0  0  0
    0.5256    0.4790    0.0446 C   0  0  0  0  0  0  0  0  0  0  0  0
    1.9881    0.7453    0.0865 N   0  0  0  0  0  0  0  0  0  0  0  0
    2.3508    1.9151    0.0394 O   0  0  0  0  0  0  0  0  0  0  0  0
    2.7326   -0.2294    0.1662 O   0  0  0  0  0  0  0  0  0  0  0  0
    0.1126   -0.8620    0.1040 C   0  0  0  0  0  0  0  0  0  0  0  0
   -1.2407   -1.1224    0.0661 C   0  0  0  0  0  0  0  0  0  0  0  0
   -2.8523    2.6090   -0.1924 H   0  0  0  0  0  0  0  0  0  0  0  0
    0.0666    2.5515   -0.0895 H   0  0  0  0  0  0  0  0  0  0  0  0
    0.8492   -1.6507    0.1771 H   0  0  0  0  0  0  0  0  0  0  0  0
   -1.6274   -2.1353    0.1085 H   0  0  0  0  0  0  0  0  0  0  0  0
   -5.0597    2.6716   -0.1490 B   0  0  0  0  0  0  0  0  0  0  0  0
   -5.0783    1.8632   -1.2590 F   0  0  0  0  0  0  0  0  0  0  0  0
   -3.5963    3.3709   -0.2464 F   0  0  0  0  0  0  0  0  0  0  0  0
   -5.9150    3.7092   -0.1499 F   0  0  0  0  0  0  0  0  0  0  0  0
   -4.9697    1.9536    1.0175 F   0  0  0  0  0  0  0  0  0  0  0  0
  1 11  2  0  0  0  0
  2  1  1  0  0  0  0
  3  2  1  0  0  0  0
  4  5  2  0  0  0  0
  4  1  1  0  0  0  0
  5  6  1  0  0  0  0
  6  7  1  0  0  0  0
  6 10  2  0  0  0  0
  7  9  2  0  0  0  0
  8  7  2  0  0  0  0
 10 14  1  0  0  0  0
 11 10  1  0  0  0  0
 11 15  1  0  0  0  0
 13  5  1  0  0  0  0
 16 20  1  0  0  0  0
 17 16  1  0  0  0  0
 18 12  1  0  0  0  0
 19 16  1  0  0  0  0
M  RAD  3   2   2   3   3   4   2
M  END
