Coordinates from ORCA-job 4-NO2PhN2+~BF4-_B3LYPG-6-31G_dp-CH-Scan-d09-49-n800
 OpenBabel11261918593D

 20 18  0  0  0  0  0  0  0  0999 V2000
   -1.9223   -0.0491   -0.0031 C   0  0  0  0  0  0  0  0  0  0  0  0
   -3.3015   -0.2816   -0.0315 N   0  0  0  0  0  0  0  0  0  0  0  0
   -4.4074   -0.4204   -0.0597 N   0  0  0  0  0  0  0  0  0  0  0  0
   -1.5715    1.3055   -0.0665 C   0  0  0  0  0  0  0  0  0  0  0  0
   -0.1569    1.4526   -0.0346 C   0  0  0  0  0  0  0  0  0  0  0  0
    0.6937    0.3599    0.0480 C   0  0  0  0  0  0  0  0  0  0  0  0
    2.1637    0.5862    0.0756 N   0  0  0  0  0  0  0  0  0  0  0  0
    2.5616    1.7451    0.0242 O   0  0  0  0  0  0  0  0  0  0  0  0
    2.8857   -0.4072    0.1480 O   0  0  0  0  0  0  0  0  0  0  0  0
    0.2521   -0.9774    0.1086 C   0  0  0  0  0  0  0  0  0  0  0  0
   -1.1043   -1.2066    0.0829 C   0  0  0  0  0  0  0  0  0  0  0  0
   -3.2129    3.2496   -0.1838 H   0  0  0  0  0  0  0  0  0  0  0  0
    0.2948    2.4388   -0.0756 H   0  0  0  0  0  0  0  0  0  0  0  0
    0.9738   -1.7802    0.1728 H   0  0  0  0  0  0  0  0  0  0  0  0
   -1.5171   -2.2099    0.1265 H   0  0  0  0  0  0  0  0  0  0  0  0
   -5.5575    2.6765   -0.1854 B   0  0  0  0  0  0  0  0  0  0  0  0
   -5.2924    1.9875   -1.3036 F   0  0  0  0  0  0  0  0  0  0  0  0
   -3.9694    3.8134   -0.2267 F   0  0  0  0  0  0  0  0  0  0  0  0
   -6.4552    3.6509   -0.2171 F   0  0  0  0  0  0  0  0  0  0  0  0
   -5.2882    2.0659    0.9769 F   0  0  0  0  0  0  0  0  0  0  0  0
  1 11  2  0  0  0  0
  2  1  1  0  0  0  0
  3  2  1  0  0  0  0
  4  5  2  0  0  0  0
  4  1  1  0  0  0  0
  5  6  1  0  0  0  0
  6  7  1  0  0  0  0
  6 10  2  0  0  0  0
  7  9  2  0  0  0  0
  8  7  2  0  0  0  0
 10 14  1  0  0  0  0
 11 10  1  0  0  0  0
 11 15  1  0  0  0  0
 13  5  1  0  0  0  0
 16 20  1  0  0  0  0
 17 16  1  0  0  0  0
 18 12  1  0  0  0  0
 19 16  1  0  0  0  0
M  RAD  3   2   2   3   3   4   2
M  END
