Coordinates from ORCA-job 4-NO2PhN2+~BF4-_B3LYPG-6-31G_dp-CH-Scan-d09-49-n800
 OpenBabel11261918593D

 20 18  0  0  0  0  0  0  0  0999 V2000
   -1.9079   -0.0518   -0.0033 C   0  0  0  0  0  0  0  0  0  0  0  0
   -3.2885   -0.2790   -0.0318 N   0  0  0  0  0  0  0  0  0  0  0  0
   -4.3952   -0.4126   -0.0582 N   0  0  0  0  0  0  0  0  0  0  0  0
   -1.5548    1.3017   -0.0656 C   0  0  0  0  0  0  0  0  0  0  0  0
   -0.1393    1.4444   -0.0329 C   0  0  0  0  0  0  0  0  0  0  0  0
    0.7081    0.3493    0.0494 C   0  0  0  0  0  0  0  0  0  0  0  0
    2.1788    0.5710    0.0784 N   0  0  0  0  0  0  0  0  0  0  0  0
    2.5805    1.7288    0.0282 O   0  0  0  0  0  0  0  0  0  0  0  0
    2.8980   -0.4245    0.1500 O   0  0  0  0  0  0  0  0  0  0  0  0
    0.2628   -0.9871    0.1087 C   0  0  0  0  0  0  0  0  0  0  0  0
   -1.0941   -1.2125    0.0822 C   0  0  0  0  0  0  0  0  0  0  0  0
   -3.2444    3.3092   -0.1979 H   0  0  0  0  0  0  0  0  0  0  0  0
    0.3157    2.4293   -0.0729 H   0  0  0  0  0  0  0  0  0  0  0  0
    0.9823   -1.7920    0.1726 H   0  0  0  0  0  0  0  0  0  0  0  0
   -1.5099   -2.2147    0.1247 H   0  0  0  0  0  0  0  0  0  0  0  0
   -5.5936    2.6749   -0.1840 B   0  0  0  0  0  0  0  0  0  0  0  0
   -5.3137    1.9952   -1.3026 F   0  0  0  0  0  0  0  0  0  0  0  0
   -4.0099    3.8571   -0.2332 F   0  0  0  0  0  0  0  0  0  0  0  0
   -6.5038    3.6366   -0.2133 F   0  0  0  0  0  0  0  0  0  0  0  0
   -5.3021    2.0762    0.9776 F   0  0  0  0  0  0  0  0  0  0  0  0
  1 11  2  0  0  0  0
  2  1  1  0  0  0  0
  3  2  1  0  0  0  0
  4  5  2  0  0  0  0
  4  1  1  0  0  0  0
  5  6  1  0  0  0  0
  6  7  1  0  0  0  0
  6 10  2  0  0  0  0
  7  9  2  0  0  0  0
  8  7  2  0  0  0  0
 10 14  1  0  0  0  0
 11 10  1  0  0  0  0
 11 15  1  0  0  0  0
 13  5  1  0  0  0  0
 16 20  1  0  0  0  0
 17 16  1  0  0  0  0
 18 12  1  0  0  0  0
 19 16  1  0  0  0  0
M  RAD  3   2   2   3   3   4   2
M  END
