Coordinates from ORCA-job 4-NO2PhN2+~BF4-_B3LYPG-6-31G_dp-CH-Scan-d09-49-n800
 OpenBabel11261918593D

 20 18  0  0  0  0  0  0  0  0999 V2000
   -1.8553   -0.0639   -0.0112 C   0  0  0  0  0  0  0  0  0  0  0  0
   -3.2409   -0.2692   -0.0457 N   0  0  0  0  0  0  0  0  0  0  0  0
   -4.3509   -0.3763   -0.0750 N   0  0  0  0  0  0  0  0  0  0  0  0
   -1.4936    1.2861   -0.0745 C   0  0  0  0  0  0  0  0  0  0  0  0
   -0.0750    1.4125   -0.0341 C   0  0  0  0  0  0  0  0  0  0  0  0
    0.7604    0.3090    0.0555 C   0  0  0  0  0  0  0  0  0  0  0  0
    2.2332    0.5147    0.0934 N   0  0  0  0  0  0  0  0  0  0  0  0
    2.6485    1.6679    0.0444 O   0  0  0  0  0  0  0  0  0  0  0  0
    2.9419   -0.4882    0.1708 O   0  0  0  0  0  0  0  0  0  0  0  0
    0.3013   -1.0238    0.1144 C   0  0  0  0  0  0  0  0  0  0  0  0
   -1.0574   -1.2354    0.0807 C   0  0  0  0  0  0  0  0  0  0  0  0
   -3.3717    3.5388   -0.2406 H   0  0  0  0  0  0  0  0  0  0  0  0
    0.3916    2.3924   -0.0732 H   0  0  0  0  0  0  0  0  0  0  0  0
    1.0128   -1.8352    0.1836 H   0  0  0  0  0  0  0  0  0  0  0  0
   -1.4844   -2.2331    0.1224 H   0  0  0  0  0  0  0  0  0  0  0  0
   -5.7150    2.6673   -0.1703 B   0  0  0  0  0  0  0  0  0  0  0  0
   -5.4002    2.0254   -1.2968 F   0  0  0  0  0  0  0  0  0  0  0  0
   -4.1728    4.0214   -0.2750 F   0  0  0  0  0  0  0  0  0  0  0  0
   -6.6811    3.5697   -0.1742 F   0  0  0  0  0  0  0  0  0  0  0  0
   -5.3223    2.1192    0.9814 F   0  0  0  0  0  0  0  0  0  0  0  0
  1 11  2  0  0  0  0
  2  1  1  0  0  0  0
  3  2  1  0  0  0  0
  4  5  2  0  0  0  0
  4  1  1  0  0  0  0
  5  6  1  0  0  0  0
  6  7  1  0  0  0  0
  6 10  2  0  0  0  0
  7  9  2  0  0  0  0
  8  7  2  0  0  0  0
 10 14  1  0  0  0  0
 11 10  1  0  0  0  0
 11 15  1  0  0  0  0
 13  5  1  0  0  0  0
 16 20  1  0  0  0  0
 17 16  1  0  0  0  0
 18 12  1  0  0  0  0
 19 16  1  0  0  0  0
M  RAD  3   2   2   3   3   4   2
M  END
