Coordinates from ORCA-job 4-NO2PhN2+~BF4-_B3LYPG-6-31G_dp-CH-Scan-d09-49-n800
 OpenBabel11261918593D

 20 19  0  0  0  0  0  0  0  0999 V2000
   -2.3121    0.1158   -0.4238 C   0  0  0  0  0  0  0  0  0  0  0  0
   -3.6366   -0.2175   -0.6888 N   0  0  0  0  0  0  0  0  0  0  0  0
   -4.6376   -0.6293   -0.9328 N   0  0  0  0  0  0  0  0  0  0  0  0
   -1.8214    1.3630   -0.8321 C   0  0  0  0  0  0  0  0  0  0  0  0
   -0.4707    1.6073   -0.5955 C   0  0  0  0  0  0  0  0  0  0  0  0
    0.3010    0.6350    0.0293 C   0  0  0  0  0  0  0  0  0  0  0  0
    1.7386    0.9158    0.2708 N   0  0  0  0  0  0  0  0  0  0  0  0
    2.1721    1.9914   -0.1242 O   0  0  0  0  0  0  0  0  0  0  0  0
    2.3861    0.0451    0.8445 O   0  0  0  0  0  0  0  0  0  0  0  0
   -0.2062   -0.5988    0.4448 C   0  0  0  0  0  0  0  0  0  0  0  0
   -1.5433   -0.8747    0.2130 C   0  0  0  0  0  0  0  0  0  0  0  0
   -2.3704    1.9713   -1.2164 H   0  0  0  0  0  0  0  0  0  0  0  0
   -0.0244    2.5521   -0.8780 H   0  0  0  0  0  0  0  0  0  0  0  0
    0.4453   -1.3113    0.9334 H   0  0  0  0  0  0  0  0  0  0  0  0
   -1.9883   -1.8143    0.5180 H   0  0  0  0  0  0  0  0  0  0  0  0
   -4.4161    2.4866    0.3885 B   0  0  0  0  0  0  0  0  0  0  0  0
   -4.4842    2.0983   -1.0020 F   0  0  0  0  0  0  0  0  0  0  0  0
   -3.1960    3.1590    0.5670 F   0  0  0  0  0  0  0  0  0  0  0  0
   -5.5012    3.2408    0.7367 F   0  0  0  0  0  0  0  0  0  0  0  0
   -4.3656    1.2638    1.1239 F   0  0  0  0  0  0  0  0  0  0  0  0
  1 11  2  0  0  0  0
  2  1  1  0  0  0  0
  3  2  1  0  0  0  0
  4  5  2  0  0  0  0
  4  1  1  0  0  0  0
  5  6  1  0  0  0  0
  6  7  1  0  0  0  0
  6 10  2  0  0  0  0
  7  9  2  0  0  0  0
  8  7  2  0  0  0  0
 10 14  1  0  0  0  0
 11 10  1  0  0  0  0
 11 15  1  0  0  0  0
 12  4  1  0  0  0  0
 13  5  1  0  0  0  0
 16 18  1  0  0  0  0
 16 19  1  0  0  0  0
 16 20  1  0  0  0  0
 17 16  1  0  0  0  0
M  RAD  2   2   2   3   3
M  END
