Coordinates from ORCA-job 4-NO2PhN2+~BF4-_B3LYPG-6-31G_dp-CH-Scan-d09-49-n800
 OpenBabel11261918593D

 20 18  0  0  0  0  0  0  0  0999 V2000
   -1.9916   -0.0336   -0.0352 C   0  0  0  0  0  0  0  0  0  0  0  0
   -3.3638   -0.2933   -0.0800 N   0  0  0  0  0  0  0  0  0  0  0  0
   -4.4645   -0.4616   -0.1185 N   0  0  0  0  0  0  0  0  0  0  0  0
   -1.6484    1.3239   -0.1034 C   0  0  0  0  0  0  0  0  0  0  0  0
   -0.2401    1.4932   -0.0511 C   0  0  0  0  0  0  0  0  0  0  0  0
    0.6236    0.4123    0.0531 C   0  0  0  0  0  0  0  0  0  0  0  0
    2.0896    0.6599    0.1029 N   0  0  0  0  0  0  0  0  0  0  0  0
    2.4704    1.8244    0.0533 O   0  0  0  0  0  0  0  0  0  0  0  0
    2.8233   -0.3232    0.1907 O   0  0  0  0  0  0  0  0  0  0  0  0
    0.1980   -0.9283    0.1159 C   0  0  0  0  0  0  0  0  0  0  0  0
   -1.1556   -1.1751    0.0713 C   0  0  0  0  0  0  0  0  0  0  0  0
   -3.0674    2.9552   -0.2433 H   0  0  0  0  0  0  0  0  0  0  0  0
    0.1965    2.4858   -0.0924 H   0  0  0  0  0  0  0  0  0  0  0  0
    0.9280   -1.7222    0.1967 H   0  0  0  0  0  0  0  0  0  0  0  0
   -1.5550   -2.1835    0.1156 H   0  0  0  0  0  0  0  0  0  0  0  0
   -5.3673    2.6855   -0.1400 B   0  0  0  0  0  0  0  0  0  0  0  0
   -5.2949    1.9384   -1.2610 F   0  0  0  0  0  0  0  0  0  0  0  0
   -3.7892    3.5938   -0.2954 F   0  0  0  0  0  0  0  0  0  0  0  0
   -6.2061    3.7191   -0.1154 F   0  0  0  0  0  0  0  0  0  0  0  0
   -5.1165    2.0287    1.0123 F   0  0  0  0  0  0  0  0  0  0  0  0
  1 11  2  0  0  0  0
  2  1  1  0  0  0  0
  3  2  1  0  0  0  0
  4  5  2  0  0  0  0
  4  1  1  0  0  0  0
  5  6  1  0  0  0  0
  6  7  1  0  0  0  0
  6 10  2  0  0  0  0
  7  9  2  0  0  0  0
  8  7  2  0  0  0  0
 10 14  1  0  0  0  0
 11 15  1  0  0  0  0
 11 10  1  0  0  0  0
 13  5  1  0  0  0  0
 16 19  1  0  0  0  0
 16 20  1  0  0  0  0
 17 16  1  0  0  0  0
 18 12  1  0  0  0  0
M  RAD  3   2   2   3   3   4   2
M  END
