Coordinates from ORCA-job 4-NO2PhN2+~BF4-_B3LYPG-6-31G_dp-CH-Scan-d09-49-n800
 OpenBabel11261918593D

 20 19  0  0  0  0  0  0  0  0999 V2000
   -2.1587    0.1083   -0.2635 C   0  0  0  0  0  0  0  0  0  0  0  0
   -3.5092   -0.1448   -0.4859 N   0  0  0  0  0  0  0  0  0  0  0  0
   -4.5743   -0.3769   -0.7122 N   0  0  0  0  0  0  0  0  0  0  0  0
   -1.6896    1.4194   -0.4205 C   0  0  0  0  0  0  0  0  0  0  0  0
   -0.3240    1.6169   -0.2316 C   0  0  0  0  0  0  0  0  0  0  0  0
    0.4813    0.5326    0.1068 C   0  0  0  0  0  0  0  0  0  0  0  0
    1.9350    0.7629    0.3114 N   0  0  0  0  0  0  0  0  0  0  0  0
    2.3474    1.9058    0.1550 O   0  0  0  0  0  0  0  0  0  0  0  0
    2.6144   -0.2115    0.6205 O   0  0  0  0  0  0  0  0  0  0  0  0
   -0.0029   -0.7681    0.2660 C   0  0  0  0  0  0  0  0  0  0  0  0
   -1.3559   -0.9966    0.0716 C   0  0  0  0  0  0  0  0  0  0  0  0
   -2.4864    2.3127   -0.6824 H   0  0  0  0  0  0  0  0  0  0  0  0
    0.1179    2.6001   -0.3347 H   0  0  0  0  0  0  0  0  0  0  0  0
    0.6778   -1.5655    0.5334 H   0  0  0  0  0  0  0  0  0  0  0  0
   -1.7838   -1.9868    0.1802 H   0  0  0  0  0  0  0  0  0  0  0  0
   -4.8747    2.5850    0.0733 B   0  0  0  0  0  0  0  0  0  0  0  0
   -5.6997    1.6761   -0.6353 F   0  0  0  0  0  0  0  0  0  0  0  0
   -3.9468    3.1480   -0.8677 F   0  0  0  0  0  0  0  0  0  0  0  0
   -5.5969    3.5588    0.6978 F   0  0  0  0  0  0  0  0  0  0  0  0
   -4.1018    1.8230    0.9941 F   0  0  0  0  0  0  0  0  0  0  0  0
  1 11  1  0  0  0  0
  2  1  1  0  0  0  0
  3  2  1  0  0  0  0
  4  1  2  0  0  0  0
  4  5  1  0  0  0  0
  5  6  2  0  0  0  0
  6 10  1  0  0  0  0
  6  7  1  0  0  0  0
  7  9  2  0  0  0  0
  8  7  2  0  0  0  0
 10 14  1  0  0  0  0
 11 15  1  0  0  0  0
 11 10  2  0  0  0  0
 12  4  1  0  0  0  0
 13  5  1  0  0  0  0
 16 19  1  0  0  0  0
 16 20  1  0  0  0  0
 17 16  1  0  0  0  0
 18 16  1  0  0  0  0
M  RAD  2   2   2   3   3
M  END
