Coordinates from ORCA-job 4-NO2PhN2+~BF4-_B3LYPG-6-31G_dp-CH-Scan-d09-49-n800
 OpenBabel11261918593D

 20 18  0  0  0  0  0  0  0  0999 V2000
   -1.9570   -0.0403   -0.0176 C   0  0  0  0  0  0  0  0  0  0  0  0
   -3.3325   -0.2869   -0.0560 N   0  0  0  0  0  0  0  0  0  0  0  0
   -4.4358   -0.4405   -0.0907 N   0  0  0  0  0  0  0  0  0  0  0  0
   -1.6103    1.3161   -0.0831 C   0  0  0  0  0  0  0  0  0  0  0  0
   -0.1984    1.4733   -0.0418 C   0  0  0  0  0  0  0  0  0  0  0  0
    0.6587    0.3864    0.0509 C   0  0  0  0  0  0  0  0  0  0  0  0
    2.1269    0.6228    0.0879 N   0  0  0  0  0  0  0  0  0  0  0  0
    2.5167    1.7843    0.0350 O   0  0  0  0  0  0  0  0  0  0  0  0
    2.8546   -0.3655    0.1687 O   0  0  0  0  0  0  0  0  0  0  0  0
    0.2250   -0.9526    0.1133 C   0  0  0  0  0  0  0  0  0  0  0  0
   -1.1301   -1.1901    0.0787 C   0  0  0  0  0  0  0  0  0  0  0  0
   -3.1358    3.1012   -0.2144 H   0  0  0  0  0  0  0  0  0  0  0  0
    0.2463    2.4625   -0.0831 H   0  0  0  0  0  0  0  0  0  0  0  0
    0.9508   -1.7511    0.1857 H   0  0  0  0  0  0  0  0  0  0  0  0
   -1.5365   -2.1959    0.1230 H   0  0  0  0  0  0  0  0  0  0  0  0
   -5.4678    2.6790   -0.1628 B   0  0  0  0  0  0  0  0  0  0  0  0
   -5.2964    1.9640   -1.2869 F   0  0  0  0  0  0  0  0  0  0  0  0
   -3.8728    3.7028   -0.2600 F   0  0  0  0  0  0  0  0  0  0  0  0
   -6.3330    3.6862   -0.1625 F   0  0  0  0  0  0  0  0  0  0  0  0
   -5.2035    2.0437    0.9920 F   0  0  0  0  0  0  0  0  0  0  0  0
  1 11  2  0  0  0  0
  2  1  1  0  0  0  0
  3  2  1  0  0  0  0
  4  5  2  0  0  0  0
  4  1  1  0  0  0  0
  5  6  1  0  0  0  0
  6  7  1  0  0  0  0
  6 10  2  0  0  0  0
  7  9  2  0  0  0  0
  8  7  2  0  0  0  0
 10 14  1  0  0  0  0
 11 10  1  0  0  0  0
 11 15  1  0  0  0  0
 13  5  1  0  0  0  0
 16 19  1  0  0  0  0
 16 20  1  0  0  0  0
 17 16  1  0  0  0  0
 18 12  1  0  0  0  0
M  RAD  3   2   2   3   3   4   2
M  END
