Coordinates from ORCA-job 4-NO2PhN2+~BF4-_B3LYPG-6-31G_dp-CH-Scan-d09-49-n800
 OpenBabel11261918593D

 20 18  0  0  0  0  0  0  0  0999 V2000
   -1.5821   -0.0300    0.0518 C   0  0  0  0  0  0  0  0  0  0  0  0
   -2.9880   -0.0765    0.0242 N   0  0  0  0  0  0  0  0  0  0  0  0
   -4.1037   -0.0251    0.0044 N   0  0  0  0  0  0  0  0  0  0  0  0
   -1.1104    1.2816    0.0919 C   0  0  0  0  0  0  0  0  0  0  0  0
    0.3176    1.2732    0.1206 C   0  0  0  0  0  0  0  0  0  0  0  0
    1.0466    0.0937    0.1095 C   0  0  0  0  0  0  0  0  0  0  0  0
    2.5322    0.1567    0.1426 N   0  0  0  0  0  0  0  0  0  0  0  0
    3.0558    1.2656    0.1878 O   0  0  0  0  0  0  0  0  0  0  0  0
    3.1461   -0.9101    0.1226 O   0  0  0  0  0  0  0  0  0  0  0  0
    0.4666   -1.1944    0.0673 C   0  0  0  0  0  0  0  0  0  0  0  0
   -0.9056   -1.2787    0.0365 C   0  0  0  0  0  0  0  0  0  0  0  0
   -4.5466    4.6005   -0.2544 H   0  0  0  0  0  0  0  0  0  0  0  0
    0.8736    2.2063    0.1525 H   0  0  0  0  0  0  0  0  0  0  0  0
    1.1025   -2.0693    0.0600 H   0  0  0  0  0  0  0  0  0  0  0  0
   -1.4244   -2.2327    0.0027 H   0  0  0  0  0  0  0  0  0  0  0  0
   -6.1195    2.6581   -0.2053 B   0  0  0  0  0  0  0  0  0  0  0  0
   -5.9115    2.0191   -1.3455 F   0  0  0  0  0  0  0  0  0  0  0  0
   -5.2723    4.5554   -0.8355 F   0  0  0  0  0  0  0  0  0  0  0  0
   -7.3168    3.1283    0.0902 F   0  0  0  0  0  0  0  0  0  0  0  0
   -5.1912    2.5777    0.7522 F   0  0  0  0  0  0  0  0  0  0  0  0
  1  4  1  0  0  0  0
  2  1  1  0  0  0  0
  3  2  1  0  0  0  0
  4  5  2  0  0  0  0
  5 13  1  0  0  0  0
  6  5  1  0  0  0  0
  6  7  1  0  0  0  0
  7  8  2  0  0  0  0
  9  7  2  0  0  0  0
 10  6  2  0  0  0  0
 11  1  2  0  0  0  0
 11 10  1  0  0  0  0
 14 10  1  0  0  0  0
 15 11  1  0  0  0  0
 16 19  1  0  0  0  0
 16 20  1  0  0  0  0
 17 16  1  0  0  0  0
 18 12  1  0  0  0  0
M  RAD  3   2   2   3   3   4   2
M  END
