Coordinates from ORCA-job 4-NO2PhN2+~BF4-_B3LYPG-6-31G_dp-CH-Scan-d09-49-n800
 OpenBabel11261918593D

 20 19  0  0  0  0  0  0  0  0999 V2000
   -2.2793    0.0976   -0.3825 C   0  0  0  0  0  0  0  0  0  0  0  0
   -3.6098   -0.2222   -0.6362 N   0  0  0  0  0  0  0  0  0  0  0  0
   -4.6210   -0.6096   -0.8765 N   0  0  0  0  0  0  0  0  0  0  0  0
   -1.7882    1.3477   -0.7775 C   0  0  0  0  0  0  0  0  0  0  0  0
   -0.4358    1.5906   -0.5605 C   0  0  0  0  0  0  0  0  0  0  0  0
    0.3429    0.6009    0.0312 C   0  0  0  0  0  0  0  0  0  0  0  0
    1.7863    0.8713    0.2532 N   0  0  0  0  0  0  0  0  0  0  0  0
    2.2176    1.9518   -0.1307 O   0  0  0  0  0  0  0  0  0  0  0  0
    2.4400   -0.0124    0.7992 O   0  0  0  0  0  0  0  0  0  0  0  0
   -0.1609   -0.6391    0.4324 C   0  0  0  0  0  0  0  0  0  0  0  0
   -1.5031   -0.9086    0.2210 C   0  0  0  0  0  0  0  0  0  0  0  0
   -2.5341    2.1331   -1.2074 H   0  0  0  0  0  0  0  0  0  0  0  0
    0.0108    2.5385   -0.8319 H   0  0  0  0  0  0  0  0  0  0  0  0
    0.4981   -1.3621    0.8950 H   0  0  0  0  0  0  0  0  0  0  0  0
   -1.9439   -1.8538    0.5152 H   0  0  0  0  0  0  0  0  0  0  0  0
   -4.4936    2.5326    0.3548 B   0  0  0  0  0  0  0  0  0  0  0  0
   -4.4954    2.1252   -1.0382 F   0  0  0  0  0  0  0  0  0  0  0  0
   -3.3420    3.3013    0.5527 F   0  0  0  0  0  0  0  0  0  0  0  0
   -5.6495    3.1950    0.6609 F   0  0  0  0  0  0  0  0  0  0  0  0
   -4.3701    1.3217    1.1019 F   0  0  0  0  0  0  0  0  0  0  0  0
  1 11  2  0  0  0  0
  2  1  1  0  0  0  0
  3  2  1  0  0  0  0
  4  5  2  0  0  0  0
  4  1  1  0  0  0  0
  5  6  1  0  0  0  0
  6  7  1  0  0  0  0
  6 10  2  0  0  0  0
  7  9  2  0  0  0  0
  8  7  2  0  0  0  0
 10 14  1  0  0  0  0
 11 10  1  0  0  0  0
 11 15  1  0  0  0  0
 12  4  1  0  0  0  0
 13  5  1  0  0  0  0
 16 18  1  0  0  0  0
 16 19  1  0  0  0  0
 16 20  1  0  0  0  0
 17 16  1  0  0  0  0
M  RAD  2   2   2   3   3
M  END
