Coordinates from ORCA-job 4-NO2PhN2+~BF4-_B3LYPG-6-31G_dp-CH-Scan-d09-49-n800
 OpenBabel11261918593D

 20 18  0  0  0  0  0  0  0  0999 V2000
   -1.8044   -0.0780   -0.0093 C   0  0  0  0  0  0  0  0  0  0  0  0
   -3.1948   -0.2589   -0.0496 N   0  0  0  0  0  0  0  0  0  0  0  0
   -4.3078   -0.3331   -0.0852 N   0  0  0  0  0  0  0  0  0  0  0  0
   -1.4344    1.2692   -0.0667 C   0  0  0  0  0  0  0  0  0  0  0  0
   -0.0129    1.3795   -0.0232 C   0  0  0  0  0  0  0  0  0  0  0  0
    0.8108    0.2670    0.0628 C   0  0  0  0  0  0  0  0  0  0  0  0
    2.2858    0.4565    0.1026 N   0  0  0  0  0  0  0  0  0  0  0  0
    2.7143    1.6051    0.0554 O   0  0  0  0  0  0  0  0  0  0  0  0
    2.9841   -0.5537    0.1812 O   0  0  0  0  0  0  0  0  0  0  0  0
    0.3384   -1.0622    0.1163 C   0  0  0  0  0  0  0  0  0  0  0  0
   -1.0222   -1.2601    0.0797 C   0  0  0  0  0  0  0  0  0  0  0  0
   -3.5270    3.7989   -0.2464 H   0  0  0  0  0  0  0  0  0  0  0  0
    0.4650    2.3543   -0.0575 H   0  0  0  0  0  0  0  0  0  0  0  0
    1.0421   -1.8805    0.1838 H   0  0  0  0  0  0  0  0  0  0  0  0
   -1.4601   -2.2534    0.1172 H   0  0  0  0  0  0  0  0  0  0  0  0
   -5.8109    2.6577   -0.1668 B   0  0  0  0  0  0  0  0  0  0  0  0
   -5.4849    2.0485   -1.3043 F   0  0  0  0  0  0  0  0  0  0  0  0
   -4.3686    4.1865   -0.3513 F   0  0  0  0  0  0  0  0  0  0  0  0
   -6.8428    3.4808   -0.1285 F   0  0  0  0  0  0  0  0  0  0  0  0
   -5.3009    2.1753    0.9660 F   0  0  0  0  0  0  0  0  0  0  0  0
  1 11  2  0  0  0  0
  2  1  1  0  0  0  0
  3  2  1  0  0  0  0
  4  5  2  0  0  0  0
  4  1  1  0  0  0  0
  5  6  1  0  0  0  0
  6  7  1  0  0  0  0
  6 10  2  0  0  0  0
  7  9  2  0  0  0  0
  8  7  2  0  0  0  0
 10 14  1  0  0  0  0
 11 10  1  0  0  0  0
 11 15  1  0  0  0  0
 13  5  1  0  0  0  0
 16 19  1  0  0  0  0
 16 20  1  0  0  0  0
 17 16  1  0  0  0  0
 18 12  1  0  0  0  0
M  RAD  3   2   2   3   3   4   2
M  END
