Coordinates from ORCA-job 4-NO2PhN2+~BF4-_B3LYPG-6-31G_dp-CH-Scan-d09-49-n800
 OpenBabel11261918593D

 20 18  0  0  0  0  0  0  0  0999 V2000
   -1.9133   -0.0505   -0.0029 C   0  0  0  0  0  0  0  0  0  0  0  0
   -3.2934   -0.2798   -0.0315 N   0  0  0  0  0  0  0  0  0  0  0  0
   -4.3998   -0.4160   -0.0573 N   0  0  0  0  0  0  0  0  0  0  0  0
   -1.5609    1.3035   -0.0648 C   0  0  0  0  0  0  0  0  0  0  0  0
   -0.1457    1.4476   -0.0326 C   0  0  0  0  0  0  0  0  0  0  0  0
    0.7028    0.3533    0.0491 C   0  0  0  0  0  0  0  0  0  0  0  0
    2.1733    0.5766    0.0774 N   0  0  0  0  0  0  0  0  0  0  0  0
    2.5736    1.7348    0.0277 O   0  0  0  0  0  0  0  0  0  0  0  0
    2.8934   -0.4182    0.1490 O   0  0  0  0  0  0  0  0  0  0  0  0
    0.2587   -0.9834    0.1081 C   0  0  0  0  0  0  0  0  0  0  0  0
   -1.0980   -1.2100    0.0820 C   0  0  0  0  0  0  0  0  0  0  0  0
   -3.2327    3.2866   -0.1975 H   0  0  0  0  0  0  0  0  0  0  0  0
    0.3081    2.4330   -0.0724 H   0  0  0  0  0  0  0  0  0  0  0  0
    0.9790   -1.7876    0.1716 H   0  0  0  0  0  0  0  0  0  0  0  0
   -1.5128   -2.2127    0.1243 H   0  0  0  0  0  0  0  0  0  0  0  0
   -5.5799    2.6756   -0.1841 B   0  0  0  0  0  0  0  0  0  0  0  0
   -5.3061    1.9917   -1.3023 F   0  0  0  0  0  0  0  0  0  0  0  0
   -3.9952    3.8403   -0.2311 F   0  0  0  0  0  0  0  0  0  0  0  0
   -6.4854    3.6422   -0.2144 F   0  0  0  0  0  0  0  0  0  0  0  0
   -5.2968    2.0724    0.9779 F   0  0  0  0  0  0  0  0  0  0  0  0
  1 11  2  0  0  0  0
  2  1  1  0  0  0  0
  3  2  1  0  0  0  0
  4  5  2  0  0  0  0
  4  1  1  0  0  0  0
  5  6  1  0  0  0  0
  6  7  1  0  0  0  0
  6 10  2  0  0  0  0
  7  9  2  0  0  0  0
  8  7  2  0  0  0  0
 10 14  1  0  0  0  0
 11 10  1  0  0  0  0
 11 15  1  0  0  0  0
 13  5  1  0  0  0  0
 16 20  1  0  0  0  0
 17 16  1  0  0  0  0
 18 12  1  0  0  0  0
 19 16  1  0  0  0  0
M  RAD  3   2   2   3   3   4   2
M  END
