Coordinates from ORCA-job 4-NO2PhN2+~BF4-_B3LYPG-6-31G_dp-CH-Scan-d09-49-n800
 OpenBabel11261918593D

 20 18  0  0  0  0  0  0  0  0999 V2000
   -1.6225   -0.0504    0.0413 C   0  0  0  0  0  0  0  0  0  0  0  0
   -3.0267   -0.1249    0.0087 N   0  0  0  0  0  0  0  0  0  0  0  0
   -4.1432   -0.0974   -0.0146 N   0  0  0  0  0  0  0  0  0  0  0  0
   -1.1755    1.2702    0.0797 C   0  0  0  0  0  0  0  0  0  0  0  0
    0.2523    1.2886    0.1136 C   0  0  0  0  0  0  0  0  0  0  0  0
    1.0037    0.1231    0.1076 C   0  0  0  0  0  0  0  0  0  0  0  0
    2.4877    0.2145    0.1456 N   0  0  0  0  0  0  0  0  0  0  0  0
    2.9900    1.3333    0.1868 O   0  0  0  0  0  0  0  0  0  0  0  0
    3.1217   -0.8407    0.1336 O   0  0  0  0  0  0  0  0  0  0  0  0
    0.4483   -1.1757    0.0668 C   0  0  0  0  0  0  0  0  0  0  0  0
   -0.9219   -1.2858    0.0316 C   0  0  0  0  0  0  0  0  0  0  0  0
   -4.3790    4.5174   -0.2661 H   0  0  0  0  0  0  0  0  0  0  0  0
    0.7906    2.2319    0.1456 H   0  0  0  0  0  0  0  0  0  0  0  0
    1.1004   -2.0385    0.0640 H   0  0  0  0  0  0  0  0  0  0  0  0
   -1.4225   -2.2496   -0.0013 H   0  0  0  0  0  0  0  0  0  0  0  0
   -6.0605    2.6582   -0.1865 B   0  0  0  0  0  0  0  0  0  0  0  0
   -5.8927    1.9998   -1.3227 F   0  0  0  0  0  0  0  0  0  0  0  0
   -5.1156    4.4981   -0.8348 F   0  0  0  0  0  0  0  0  0  0  0  0
   -7.2281    3.1995    0.1070 F   0  0  0  0  0  0  0  0  0  0  0  0
   -5.1377    2.5280    0.7704 F   0  0  0  0  0  0  0  0  0  0  0  0
  1  4  1  0  0  0  0
  2  1  1  0  0  0  0
  3  2  1  0  0  0  0
  4  5  2  0  0  0  0
  5 13  1  0  0  0  0
  6  5  1  0  0  0  0
  6  7  1  0  0  0  0
  7  8  2  0  0  0  0
  9  7  2  0  0  0  0
 10  6  2  0  0  0  0
 11  1  2  0  0  0  0
 11 10  1  0  0  0  0
 14 10  1  0  0  0  0
 15 11  1  0  0  0  0
 16 19  1  0  0  0  0
 16 20  1  0  0  0  0
 17 16  1  0  0  0  0
 18 12  1  0  0  0  0
M  RAD  3   2   2   3   3   4   2
M  END
