Coordinates from ORCA-job 4-NO2PhN2+~BF4-_B3LYPG-6-31G_dp-CH-Scan-d09-49-n800
 OpenBabel11261918593D

 20 18  0  0  0  0  0  0  0  0999 V2000
   -1.9676   -0.0379   -0.0284 C   0  0  0  0  0  0  0  0  0  0  0  0
   -3.3421   -0.2885   -0.0719 N   0  0  0  0  0  0  0  0  0  0  0  0
   -4.4442   -0.4487   -0.1105 N   0  0  0  0  0  0  0  0  0  0  0  0
   -1.6215    1.3184   -0.0964 C   0  0  0  0  0  0  0  0  0  0  0  0
   -0.2110    1.4799   -0.0481 C   0  0  0  0  0  0  0  0  0  0  0  0
    0.6478    0.3950    0.0529 C   0  0  0  0  0  0  0  0  0  0  0  0
    2.1152    0.6349    0.0978 N   0  0  0  0  0  0  0  0  0  0  0  0
    2.5024    1.7972    0.0455 O   0  0  0  0  0  0  0  0  0  0  0  0
    2.8444   -0.3517    0.1851 O   0  0  0  0  0  0  0  0  0  0  0  0
    0.2163   -0.9444    0.1168 C   0  0  0  0  0  0  0  0  0  0  0  0
   -1.1382   -1.1850    0.0757 C   0  0  0  0  0  0  0  0  0  0  0  0
   -3.1159    3.0502   -0.2364 H   0  0  0  0  0  0  0  0  0  0  0  0
    0.2312    2.4702   -0.0901 H   0  0  0  0  0  0  0  0  0  0  0  0
    0.9432   -1.7413    0.1954 H   0  0  0  0  0  0  0  0  0  0  0  0
   -1.5424   -2.1916    0.1208 H   0  0  0  0  0  0  0  0  0  0  0  0
   -5.4351    2.6832   -0.1481 B   0  0  0  0  0  0  0  0  0  0  0  0
   -5.3135    1.9562   -1.2733 F   0  0  0  0  0  0  0  0  0  0  0  0
   -3.8476    3.6639   -0.2845 F   0  0  0  0  0  0  0  0  0  0  0  0
   -6.2897    3.7008   -0.1281 F   0  0  0  0  0  0  0  0  0  0  0  0
   -5.1627    2.0386    1.0021 F   0  0  0  0  0  0  0  0  0  0  0  0
  1 11  2  0  0  0  0
  2  1  1  0  0  0  0
  3  2  1  0  0  0  0
  4  5  2  0  0  0  0
  4  1  1  0  0  0  0
  5  6  1  0  0  0  0
  6  7  1  0  0  0  0
  6 10  2  0  0  0  0
  7  9  2  0  0  0  0
  8  7  2  0  0  0  0
 10 14  1  0  0  0  0
 11 10  1  0  0  0  0
 11 15  1  0  0  0  0
 13  5  1  0  0  0  0
 16 19  1  0  0  0  0
 16 20  1  0  0  0  0
 17 16  1  0  0  0  0
 18 12  1  0  0  0  0
M  RAD  3   2   2   3   3   4   2
M  END
