Coordinates from ORCA-job 4-NO2PhN2+~BF4-_B3LYPG-6-31G_dp-CH-Scan-d09-49-n800
 OpenBabel11261918593D

 20 18  0  0  0  0  0  0  0  0999 V2000
   -1.6929   -0.0742    0.0291 C   0  0  0  0  0  0  0  0  0  0  0  0
   -3.0934   -0.1946   -0.0064 N   0  0  0  0  0  0  0  0  0  0  0  0
   -4.2098   -0.2078   -0.0330 N   0  0  0  0  0  0  0  0  0  0  0  0
   -1.2836    1.2594    0.0562 C   0  0  0  0  0  0  0  0  0  0  0  0
    0.1428    1.3185    0.0940 C   0  0  0  0  0  0  0  0  0  0  0  0
    0.9280    0.1755    0.0999 C   0  0  0  0  0  0  0  0  0  0  0  0
    2.4087    0.3104    0.1401 N   0  0  0  0  0  0  0  0  0  0  0  0
    2.8781    1.4439    0.1671 O   0  0  0  0  0  0  0  0  0  0  0  0
    3.0728   -0.7260    0.1441 O   0  0  0  0  0  0  0  0  0  0  0  0
    0.4105   -1.1389    0.0698 C   0  0  0  0  0  0  0  0  0  0  0  0
   -0.9559   -1.2884    0.0327 C   0  0  0  0  0  0  0  0  0  0  0  0
   -4.0825    4.3337   -0.2539 H   0  0  0  0  0  0  0  0  0  0  0  0
    0.6538    2.2771    0.1192 H   0  0  0  0  0  0  0  0  0  0  0  0
    1.0870   -1.9826    0.0766 H   0  0  0  0  0  0  0  0  0  0  0  0
   -1.4282   -2.2665    0.0081 H   0  0  0  0  0  0  0  0  0  0  0  0
   -5.9549    2.6544   -0.1711 B   0  0  0  0  0  0  0  0  0  0  0  0
   -5.8214    1.9822   -1.3048 F   0  0  0  0  0  0  0  0  0  0  0  0
   -4.8385    4.3909   -0.7942 F   0  0  0  0  0  0  0  0  0  0  0  0
   -7.0748    3.3019    0.0931 F   0  0  0  0  0  0  0  0  0  0  0  0
   -5.0767    2.4304    0.8096 F   0  0  0  0  0  0  0  0  0  0  0  0
  1 11  2  0  0  0  0
  1  4  1  0  0  0  0
  2  1  1  0  0  0  0
  3  2  1  0  0  0  0
  4  5  2  0  0  0  0
  5  6  1  0  0  0  0
  5 13  1  0  0  0  0
  6  7  1  0  0  0  0
  7  9  2  0  0  0  0
  7  8  2  0  0  0  0
 10 14  1  0  0  0  0
 10  6  2  0  0  0  0
 11 10  1  0  0  0  0
 15 11  1  0  0  0  0
 16 19  1  0  0  0  0
 16 20  1  0  0  0  0
 17 16  1  0  0  0  0
 18 12  1  0  0  0  0
M  RAD  3   2   2   3   3   4   2
M  END
