Coordinates from ORCA-job 4-NO2PhN2+~BF4-_B3LYPG-6-31G_dp-CH-Scan-d09-49-n800
 OpenBabel11261918593D

 20 18  0  0  0  0  0  0  0  0999 V2000
   -2.0119   -0.0293   -0.0360 C   0  0  0  0  0  0  0  0  0  0  0  0
   -3.3823   -0.2966   -0.0798 N   0  0  0  0  0  0  0  0  0  0  0  0
   -4.4817   -0.4713   -0.1176 N   0  0  0  0  0  0  0  0  0  0  0  0
   -1.6707    1.3291   -0.1038 C   0  0  0  0  0  0  0  0  0  0  0  0
   -0.2640    1.5040   -0.0519 C   0  0  0  0  0  0  0  0  0  0  0  0
    0.6036    0.4260    0.0520 C   0  0  0  0  0  0  0  0  0  0  0  0
    2.0686    0.6791    0.1018 N   0  0  0  0  0  0  0  0  0  0  0  0
    2.4445    1.8452    0.0536 O   0  0  0  0  0  0  0  0  0  0  0  0
    2.8057   -0.3014    0.1884 O   0  0  0  0  0  0  0  0  0  0  0  0
    0.1824   -0.9155    0.1142 C   0  0  0  0  0  0  0  0  0  0  0  0
   -1.1706   -1.1666    0.0697 C   0  0  0  0  0  0  0  0  0  0  0  0
   -3.0256    2.8837   -0.2375 H   0  0  0  0  0  0  0  0  0  0  0  0
    0.1684    2.4983   -0.0929 H   0  0  0  0  0  0  0  0  0  0  0  0
    0.9148   -1.7073    0.1944 H   0  0  0  0  0  0  0  0  0  0  0  0
   -1.5665   -2.1763    0.1137 H   0  0  0  0  0  0  0  0  0  0  0  0
   -5.3114    2.6846   -0.1399 B   0  0  0  0  0  0  0  0  0  0  0  0
   -5.2633    1.9254   -1.2577 F   0  0  0  0  0  0  0  0  0  0  0  0
   -3.7418    3.5422   -0.2913 F   0  0  0  0  0  0  0  0  0  0  0  0
   -6.1407    3.7281   -0.1190 F   0  0  0  0  0  0  0  0  0  0  0  0
   -5.0886    2.0179    1.0158 F   0  0  0  0  0  0  0  0  0  0  0  0
  1 11  2  0  0  0  0
  2  1  1  0  0  0  0
  3  2  1  0  0  0  0
  4  5  2  0  0  0  0
  4  1  1  0  0  0  0
  5  6  1  0  0  0  0
  6  7  1  0  0  0  0
  6 10  2  0  0  0  0
  7  9  2  0  0  0  0
  8  7  2  0  0  0  0
 10 14  1  0  0  0  0
 11 15  1  0  0  0  0
 11 10  1  0  0  0  0
 13  5  1  0  0  0  0
 16 19  1  0  0  0  0
 16 20  1  0  0  0  0
 17 16  1  0  0  0  0
 18 12  1  0  0  0  0
M  RAD  3   2   2   3   3   4   2
M  END
