Coordinates from ORCA-job 4-NO2PhN2+~BF4-_B3LYPG-6-31G_dp-CH-Scan-d09-49-n800
 OpenBabel11261918593D

 20 18  0  0  0  0  0  0  0  0999 V2000
   -1.9332   -0.0464   -0.0047 C   0  0  0  0  0  0  0  0  0  0  0  0
   -3.3113   -0.2833   -0.0349 N   0  0  0  0  0  0  0  0  0  0  0  0
   -4.4165   -0.4267   -0.0628 N   0  0  0  0  0  0  0  0  0  0  0  0
   -1.5839    1.3088   -0.0677 C   0  0  0  0  0  0  0  0  0  0  0  0
   -0.1701    1.4591   -0.0350 C   0  0  0  0  0  0  0  0  0  0  0  0
    0.6827    0.3681    0.0481 C   0  0  0  0  0  0  0  0  0  0  0  0
    2.1523    0.5975    0.0764 N   0  0  0  0  0  0  0  0  0  0  0  0
    2.5476    1.7573    0.0255 O   0  0  0  0  0  0  0  0  0  0  0  0
    2.8762   -0.3944    0.1496 O   0  0  0  0  0  0  0  0  0  0  0  0
    0.2437   -0.9698    0.1086 C   0  0  0  0  0  0  0  0  0  0  0  0
   -1.1123   -1.2016    0.0820 C   0  0  0  0  0  0  0  0  0  0  0  0
   -3.1892    3.2043   -0.1897 H   0  0  0  0  0  0  0  0  0  0  0  0
    0.2794    2.4463   -0.0756 H   0  0  0  0  0  0  0  0  0  0  0  0
    0.9668   -1.7714    0.1733 H   0  0  0  0  0  0  0  0  0  0  0  0
   -1.5230   -2.2058    0.1253 H   0  0  0  0  0  0  0  0  0  0  0  0
   -5.5292    2.6774   -0.1820 B   0  0  0  0  0  0  0  0  0  0  0  0
   -5.2840    1.9801   -1.3009 F   0  0  0  0  0  0  0  0  0  0  0  0
   -3.9398    3.7799   -0.2290 F   0  0  0  0  0  0  0  0  0  0  0  0
   -6.4177    3.6615   -0.2101 F   0  0  0  0  0  0  0  0  0  0  0  0
   -5.2697    2.0586    0.9796 F   0  0  0  0  0  0  0  0  0  0  0  0
  1 11  2  0  0  0  0
  2  1  1  0  0  0  0
  3  2  1  0  0  0  0
  4  5  2  0  0  0  0
  4  1  1  0  0  0  0
  5  6  1  0  0  0  0
  6  7  1  0  0  0  0
  6 10  2  0  0  0  0
  7  9  2  0  0  0  0
  8  7  2  0  0  0  0
 10 14  1  0  0  0  0
 11 10  1  0  0  0  0
 11 15  1  0  0  0  0
 13  5  1  0  0  0  0
 16 20  1  0  0  0  0
 17 16  1  0  0  0  0
 18 12  1  0  0  0  0
 19 16  1  0  0  0  0
M  RAD  3   2   2   3   3   4   2
M  END
