Coordinates from ORCA-job 4-NO2PhN2+~BF4-_B3LYPG-6-31G_dp-CH-Scan-d09-49-n800
 OpenBabel11261918593D

 20 18  0  0  0  0  0  0  0  0999 V2000
   -1.8213   -0.0713   -0.0144 C   0  0  0  0  0  0  0  0  0  0  0  0
   -3.2100   -0.2610   -0.0537 N   0  0  0  0  0  0  0  0  0  0  0  0
   -4.3219   -0.3483   -0.0893 N   0  0  0  0  0  0  0  0  0  0  0  0
   -1.4530    1.2762   -0.0785 C   0  0  0  0  0  0  0  0  0  0  0  0
   -0.0325    1.3913   -0.0337 C   0  0  0  0  0  0  0  0  0  0  0  0
    0.7944    0.2818    0.0596 C   0  0  0  0  0  0  0  0  0  0  0  0
    2.2686    0.4762    0.1011 N   0  0  0  0  0  0  0  0  0  0  0  0
    2.6934    1.6260    0.0500 O   0  0  0  0  0  0  0  0  0  0  0  0
    2.9697   -0.5317    0.1840 O   0  0  0  0  0  0  0  0  0  0  0  0
    0.3255   -1.0481    0.1190 C   0  0  0  0  0  0  0  0  0  0  0  0
   -1.0344   -1.2500    0.0815 C   0  0  0  0  0  0  0  0  0  0  0  0
   -3.4685    3.7008   -0.2544 H   0  0  0  0  0  0  0  0  0  0  0  0
    0.4421    2.3675   -0.0725 H   0  0  0  0  0  0  0  0  0  0  0  0
    1.0312   -1.8643    0.1916 H   0  0  0  0  0  0  0  0  0  0  0  0
   -1.4693   -2.2443    0.1235 H   0  0  0  0  0  0  0  0  0  0  0  0
   -5.7829    2.6611   -0.1643 B   0  0  0  0  0  0  0  0  0  0  0  0
   -5.4525    2.0452   -1.2983 F   0  0  0  0  0  0  0  0  0  0  0  0
   -4.2966    4.1283   -0.3068 F   0  0  0  0  0  0  0  0  0  0  0  0
   -6.7900    3.5157   -0.1453 F   0  0  0  0  0  0  0  0  0  0  0  0
   -5.3230    2.1482    0.9769 F   0  0  0  0  0  0  0  0  0  0  0  0
  1 11  2  0  0  0  0
  2  1  1  0  0  0  0
  3  2  1  0  0  0  0
  4  5  2  0  0  0  0
  4  1  1  0  0  0  0
  5  6  1  0  0  0  0
  6  7  1  0  0  0  0
  6 10  2  0  0  0  0
  7  9  2  0  0  0  0
  8  7  2  0  0  0  0
 10 14  1  0  0  0  0
 11 10  1  0  0  0  0
 11 15  1  0  0  0  0
 13  5  1  0  0  0  0
 16 19  1  0  0  0  0
 16 20  1  0  0  0  0
 17 16  1  0  0  0  0
 18 12  1  0  0  0  0
M  RAD  3   2   2   3   3   4   2
M  END
