Coordinates from ORCA-job 4-NO2PhN2+~BF4-_B3LYPG-6-31G_dp-CH-Scan-d09-49-n800
 OpenBabel11261918593D

 20 18  0  0  0  0  0  0  0  0999 V2000
   -1.7045   -0.0767    0.0258 C   0  0  0  0  0  0  0  0  0  0  0  0
   -3.1042   -0.2040   -0.0116 N   0  0  0  0  0  0  0  0  0  0  0  0
   -4.2204   -0.2227   -0.0386 N   0  0  0  0  0  0  0  0  0  0  0  0
   -1.3007    1.2587    0.0494 C   0  0  0  0  0  0  0  0  0  0  0  0
    0.1254    1.3240    0.0882 C   0  0  0  0  0  0  0  0  0  0  0  0
    0.9155    0.1844    0.0983 C   0  0  0  0  0  0  0  0  0  0  0  0
    2.3956    0.3259    0.1393 N   0  0  0  0  0  0  0  0  0  0  0  0
    2.8600    1.4614    0.1626 O   0  0  0  0  0  0  0  0  0  0  0  0
    3.0640   -0.7077    0.1486 O   0  0  0  0  0  0  0  0  0  0  0  0
    0.4037   -1.1322    0.0719 C   0  0  0  0  0  0  0  0  0  0  0  0
   -0.9620   -1.2876    0.0340 C   0  0  0  0  0  0  0  0  0  0  0  0
   -4.0313    4.2942   -0.2513 H   0  0  0  0  0  0  0  0  0  0  0  0
    0.6323    2.2848    0.1110 H   0  0  0  0  0  0  0  0  0  0  0  0
    1.0837   -1.9731    0.0820 H   0  0  0  0  0  0  0  0  0  0  0  0
   -1.4301   -2.2678    0.0121 H   0  0  0  0  0  0  0  0  0  0  0  0
   -5.9378    2.6538   -0.1687 B   0  0  0  0  0  0  0  0  0  0  0  0
   -5.8089    1.9829   -1.3039 F   0  0  0  0  0  0  0  0  0  0  0  0
   -4.7930    4.3724   -0.7810 F   0  0  0  0  0  0  0  0  0  0  0  0
   -7.0491    3.3173    0.0918 F   0  0  0  0  0  0  0  0  0  0  0  0
   -5.0690    2.4115    0.8161 F   0  0  0  0  0  0  0  0  0  0  0  0
  1 11  2  0  0  0  0
  1  4  1  0  0  0  0
  2  1  1  0  0  0  0
  3  2  1  0  0  0  0
  4  5  2  0  0  0  0
  5  6  1  0  0  0  0
  5 13  1  0  0  0  0
  6  7  1  0  0  0  0
  7  9  2  0  0  0  0
  7  8  2  0  0  0  0
 10 14  1  0  0  0  0
 10  6  2  0  0  0  0
 11 10  1  0  0  0  0
 15 11  1  0  0  0  0
 16 19  1  0  0  0  0
 16 20  1  0  0  0  0
 17 16  1  0  0  0  0
 18 12  1  0  0  0  0
M  RAD  3   2   2   3   3   4   2
M  END
