Coordinates from ORCA-job 4-NO2PhN2+~BF4-_B3LYPG-6-31G_dp-CH-Scan-d09-49-n800
 OpenBabel11261918593D

 20 18  0  0  0  0  0  0  0  0999 V2000
   -1.9838   -0.0347   -0.0340 C   0  0  0  0  0  0  0  0  0  0  0  0
   -3.3567   -0.2915   -0.0793 N   0  0  0  0  0  0  0  0  0  0  0  0
   -4.4576   -0.4583   -0.1187 N   0  0  0  0  0  0  0  0  0  0  0  0
   -1.6395    1.3223   -0.1023 C   0  0  0  0  0  0  0  0  0  0  0  0
   -0.2305    1.4891   -0.0504 C   0  0  0  0  0  0  0  0  0  0  0  0
    0.6315    0.4068    0.0539 C   0  0  0  0  0  0  0  0  0  0  0  0
    2.0979    0.6518    0.1033 N   0  0  0  0  0  0  0  0  0  0  0  0
    2.4810    1.8155    0.0506 O   0  0  0  0  0  0  0  0  0  0  0  0
    2.8301   -0.3326    0.1893 O   0  0  0  0  0  0  0  0  0  0  0  0
    0.2039   -0.9333    0.1171 C   0  0  0  0  0  0  0  0  0  0  0  0
   -1.1500   -1.1781    0.0726 C   0  0  0  0  0  0  0  0  0  0  0  0
   -3.0833    2.9849   -0.2438 H   0  0  0  0  0  0  0  0  0  0  0  0
    0.2080    2.4809   -0.0919 H   0  0  0  0  0  0  0  0  0  0  0  0
    0.9328   -1.7282    0.1980 H   0  0  0  0  0  0  0  0  0  0  0  0
   -1.5510   -2.1859    0.1172 H   0  0  0  0  0  0  0  0  0  0  0  0
   -5.3894    2.6852   -0.1411 B   0  0  0  0  0  0  0  0  0  0  0  0
   -5.3048    1.9441   -1.2637 F   0  0  0  0  0  0  0  0  0  0  0  0
   -3.8082    3.6153   -0.2948 F   0  0  0  0  0  0  0  0  0  0  0  0
   -6.2324    3.7143   -0.1157 F   0  0  0  0  0  0  0  0  0  0  0  0
   -5.1291    2.0318    1.0098 F   0  0  0  0  0  0  0  0  0  0  0  0
  1 11  2  0  0  0  0
  2  1  1  0  0  0  0
  3  2  1  0  0  0  0
  4  5  2  0  0  0  0
  4  1  1  0  0  0  0
  5  6  1  0  0  0  0
  6  7  1  0  0  0  0
  6 10  2  0  0  0  0
  7  9  2  0  0  0  0
  8  7  2  0  0  0  0
 10 14  1  0  0  0  0
 11 10  1  0  0  0  0
 11 15  1  0  0  0  0
 13  5  1  0  0  0  0
 16 19  1  0  0  0  0
 16 20  1  0  0  0  0
 17 16  1  0  0  0  0
 18 12  1  0  0  0  0
M  RAD  3   2   2   3   3   4   2
M  END
