Coordinates from ORCA-job 4-NO2PhN2+~BF4-_B3LYPG-6-31G_dp-CH-Scan-d09-49-n800
 OpenBabel11261918593D

 20 18  0  0  0  0  0  0  0  0999 V2000
   -2.0130   -0.0290   -0.0358 C   0  0  0  0  0  0  0  0  0  0  0  0
   -3.3832   -0.2967   -0.0796 N   0  0  0  0  0  0  0  0  0  0  0  0
   -4.4826   -0.4718   -0.1173 N   0  0  0  0  0  0  0  0  0  0  0  0
   -1.6718    1.3294   -0.1036 C   0  0  0  0  0  0  0  0  0  0  0  0
   -0.2652    1.5045   -0.0518 C   0  0  0  0  0  0  0  0  0  0  0  0
    0.6026    0.4267    0.0519 C   0  0  0  0  0  0  0  0  0  0  0  0
    2.0675    0.6801    0.1016 N   0  0  0  0  0  0  0  0  0  0  0  0
    2.4432    1.8462    0.0535 O   0  0  0  0  0  0  0  0  0  0  0  0
    2.8048   -0.3003    0.1880 O   0  0  0  0  0  0  0  0  0  0  0  0
    0.1816   -0.9148    0.1140 C   0  0  0  0  0  0  0  0  0  0  0  0
   -1.1714   -1.1661    0.0697 C   0  0  0  0  0  0  0  0  0  0  0  0
   -3.0236    2.8801   -0.2369 H   0  0  0  0  0  0  0  0  0  0  0  0
    0.1670    2.4990   -0.0928 H   0  0  0  0  0  0  0  0  0  0  0  0
    0.9141   -1.7065    0.1942 H   0  0  0  0  0  0  0  0  0  0  0  0
   -1.5671   -2.1759    0.1137 H   0  0  0  0  0  0  0  0  0  0  0  0
   -5.3084    2.6845   -0.1401 B   0  0  0  0  0  0  0  0  0  0  0  0
   -5.2611    1.9246   -1.2578 F   0  0  0  0  0  0  0  0  0  0  0  0
   -3.7396    3.5396   -0.2908 F   0  0  0  0  0  0  0  0  0  0  0  0
   -6.1374    3.7284   -0.1197 F   0  0  0  0  0  0  0  0  0  0  0  0
   -5.0874    2.0173    1.0158 F   0  0  0  0  0  0  0  0  0  0  0  0
  1 11  2  0  0  0  0
  2  1  1  0  0  0  0
  3  2  1  0  0  0  0
  4  5  2  0  0  0  0
  4  1  1  0  0  0  0
  5  6  1  0  0  0  0
  6  7  1  0  0  0  0
  6 10  2  0  0  0  0
  7  9  2  0  0  0  0
  8  7  2  0  0  0  0
 10 14  1  0  0  0  0
 11 15  1  0  0  0  0
 11 10  1  0  0  0  0
 13  5  1  0  0  0  0
 16 19  1  0  0  0  0
 16 20  1  0  0  0  0
 17 16  1  0  0  0  0
 18 12  1  0  0  0  0
M  RAD  3   2   2   3   3   4   2
M  END
