Coordinates from ORCA-job 4-NO2PhN2+~BF4-_B3LYPG-6-31G_dp-CH-Scan-d09-49-n800
 OpenBabel11261918593D

 20 18  0  0  0  0  0  0  0  0999 V2000
   -1.6500   -0.0617    0.0378 C   0  0  0  0  0  0  0  0  0  0  0  0
   -3.0530   -0.1556    0.0045 N   0  0  0  0  0  0  0  0  0  0  0  0
   -4.1696   -0.1461   -0.0186 N   0  0  0  0  0  0  0  0  0  0  0  0
   -1.2187    1.2642    0.0748 C   0  0  0  0  0  0  0  0  0  0  0  0
    0.2087    1.2996    0.1097 C   0  0  0  0  0  0  0  0  0  0  0  0
    0.9742    0.1433    0.1052 C   0  0  0  0  0  0  0  0  0  0  0  0
    2.4570    0.2528    0.1437 N   0  0  0  0  0  0  0  0  0  0  0  0
    2.9457    1.3778    0.1820 O   0  0  0  0  0  0  0  0  0  0  0  0
    3.1037   -0.7947    0.1351 O   0  0  0  0  0  0  0  0  0  0  0  0
    0.4346   -1.1621    0.0655 C   0  0  0  0  0  0  0  0  0  0  0  0
   -0.9342   -1.2886    0.0300 C   0  0  0  0  0  0  0  0  0  0  0  0
   -4.2653    4.4544   -0.2665 H   0  0  0  0  0  0  0  0  0  0  0  0
    0.7356    2.2493    0.1411 H   0  0  0  0  0  0  0  0  0  0  0  0
    1.0969   -2.0170    0.0641 H   0  0  0  0  0  0  0  0  0  0  0  0
   -1.4230   -2.2583   -0.0019 H   0  0  0  0  0  0  0  0  0  0  0  0
   -6.0194    2.6578   -0.1791 B   0  0  0  0  0  0  0  0  0  0  0  0
   -5.8685    1.9888   -1.3118 F   0  0  0  0  0  0  0  0  0  0  0  0
   -5.0075    4.4575   -0.8282 F   0  0  0  0  0  0  0  0  0  0  0  0
   -7.1681    3.2437    0.1034 F   0  0  0  0  0  0  0  0  0  0  0  0
   -5.1101    2.4940    0.7853 F   0  0  0  0  0  0  0  0  0  0  0  0
  1  4  1  0  0  0  0
  2  1  1  0  0  0  0
  3  2  1  0  0  0  0
  4  5  2  0  0  0  0
  5 13  1  0  0  0  0
  6  5  1  0  0  0  0
  6  7  1  0  0  0  0
  7  8  2  0  0  0  0
  9  7  2  0  0  0  0
 10  6  2  0  0  0  0
 11  1  2  0  0  0  0
 11 10  1  0  0  0  0
 14 10  1  0  0  0  0
 15 11  1  0  0  0  0
 16 19  1  0  0  0  0
 16 20  1  0  0  0  0
 17 16  1  0  0  0  0
 18 12  1  0  0  0  0
M  RAD  3   2   2   3   3   4   2
M  END
