Coordinates from ORCA-job 4-NO2PhN2+~BF4-_B3LYPG-6-31G_dp-CH-Scan-d09-49-n800
 OpenBabel11261918593D

 20 18  0  0  0  0  0  0  0  0999 V2000
   -1.9034   -0.0541   -0.0038 C   0  0  0  0  0  0  0  0  0  0  0  0
   -3.2844   -0.2792   -0.0325 N   0  0  0  0  0  0  0  0  0  0  0  0
   -4.3917   -0.4092   -0.0586 N   0  0  0  0  0  0  0  0  0  0  0  0
   -1.5504    1.2995   -0.0660 C   0  0  0  0  0  0  0  0  0  0  0  0
   -0.1346    1.4413   -0.0329 C   0  0  0  0  0  0  0  0  0  0  0  0
    0.7123    0.3458    0.0498 C   0  0  0  0  0  0  0  0  0  0  0  0
    2.1831    0.5669    0.0795 N   0  0  0  0  0  0  0  0  0  0  0  0
    2.5854    1.7245    0.0303 O   0  0  0  0  0  0  0  0  0  0  0  0
    2.9019   -0.4289    0.1518 O   0  0  0  0  0  0  0  0  0  0  0  0
    0.2665   -0.9905    0.1088 C   0  0  0  0  0  0  0  0  0  0  0  0
   -1.0905   -1.2154    0.0818 C   0  0  0  0  0  0  0  0  0  0  0  0
   -3.2534    3.3281   -0.2026 H   0  0  0  0  0  0  0  0  0  0  0  0
    0.3210    2.4260   -0.0726 H   0  0  0  0  0  0  0  0  0  0  0  0
    0.9858   -1.7955    0.1729 H   0  0  0  0  0  0  0  0  0  0  0  0
   -1.5068   -2.2174    0.1241 H   0  0  0  0  0  0  0  0  0  0  0  0
   -5.6055    2.6744   -0.1828 B   0  0  0  0  0  0  0  0  0  0  0  0
   -5.3214    1.9985   -1.3020 F   0  0  0  0  0  0  0  0  0  0  0  0
   -4.0210    3.8719   -0.2370 F   0  0  0  0  0  0  0  0  0  0  0  0
   -6.5195    3.6320   -0.2103 F   0  0  0  0  0  0  0  0  0  0  0  0
   -5.3044    2.0807    0.9781 F   0  0  0  0  0  0  0  0  0  0  0  0
  1 11  2  0  0  0  0
  2  1  1  0  0  0  0
  3  2  1  0  0  0  0
  4  5  2  0  0  0  0
  4  1  1  0  0  0  0
  5  6  1  0  0  0  0
  6  7  1  0  0  0  0
  6 10  2  0  0  0  0
  7  9  2  0  0  0  0
  8  7  2  0  0  0  0
 10 14  1  0  0  0  0
 11 10  1  0  0  0  0
 11 15  1  0  0  0  0
 13  5  1  0  0  0  0
 16 20  1  0  0  0  0
 17 16  1  0  0  0  0
 18 12  1  0  0  0  0
 19 16  1  0  0  0  0
M  RAD  3   2   2   3   3   4   2
M  END
