Coordinates from ORCA-job 4-NO2PhN2+~BF4-_B3LYPG-6-31G_dp-CH-Scan-d09-49-n800
 OpenBabel11261918593D

 20 18  0  0  0  0  0  0  0  0999 V2000
   -1.8497   -0.0656   -0.0116 C   0  0  0  0  0  0  0  0  0  0  0  0
   -3.2357   -0.2684   -0.0464 N   0  0  0  0  0  0  0  0  0  0  0  0
   -4.3460   -0.3720   -0.0780 N   0  0  0  0  0  0  0  0  0  0  0  0
   -1.4872    1.2841   -0.0757 C   0  0  0  0  0  0  0  0  0  0  0  0
   -0.0683    1.4089   -0.0343 C   0  0  0  0  0  0  0  0  0  0  0  0
    0.7659    0.3046    0.0563 C   0  0  0  0  0  0  0  0  0  0  0  0
    2.2390    0.5087    0.0949 N   0  0  0  0  0  0  0  0  0  0  0  0
    2.6556    1.6614    0.0439 O   0  0  0  0  0  0  0  0  0  0  0  0
    2.9466   -0.4949    0.1717 O   0  0  0  0  0  0  0  0  0  0  0  0
    0.3055   -1.0278    0.1156 C   0  0  0  0  0  0  0  0  0  0  0  0
   -1.0533   -1.2381    0.0813 C   0  0  0  0  0  0  0  0  0  0  0  0
   -3.3862    3.5650   -0.2415 H   0  0  0  0  0  0  0  0  0  0  0  0
    0.3995    2.3882   -0.0736 H   0  0  0  0  0  0  0  0  0  0  0  0
    1.0162   -1.8399    0.1856 H   0  0  0  0  0  0  0  0  0  0  0  0
   -1.4814   -2.2354    0.1234 H   0  0  0  0  0  0  0  0  0  0  0  0
   -5.7271    2.6666   -0.1698 B   0  0  0  0  0  0  0  0  0  0  0  0
   -5.4078    2.0293   -1.2972 F   0  0  0  0  0  0  0  0  0  0  0  0
   -4.1919    4.0389   -0.2776 F   0  0  0  0  0  0  0  0  0  0  0  0
   -6.6993    3.5622   -0.1715 F   0  0  0  0  0  0  0  0  0  0  0  0
   -5.3254    2.1235    0.9808 F   0  0  0  0  0  0  0  0  0  0  0  0
  1 11  2  0  0  0  0
  2  1  1  0  0  0  0
  3  2  1  0  0  0  0
  4  5  2  0  0  0  0
  4  1  1  0  0  0  0
  5  6  1  0  0  0  0
  6  7  1  0  0  0  0
  6 10  2  0  0  0  0
  7  9  2  0  0  0  0
  8  7  2  0  0  0  0
 10 14  1  0  0  0  0
 11 10  1  0  0  0  0
 11 15  1  0  0  0  0
 13  5  1  0  0  0  0
 16 20  1  0  0  0  0
 17 16  1  0  0  0  0
 18 12  1  0  0  0  0
 19 16  1  0  0  0  0
M  RAD  3   2   2   3   3   4   2
M  END
