Coordinates from ORCA-job 4-NO2PhN2+~BF4-_B3LYPG-6-31G_dp-CH-Scan-d09-49-n800
 OpenBabel11261918593D

 20 18  0  0  0  0  0  0  0  0999 V2000
   -2.0556   -0.0172   -0.0369 C   0  0  0  0  0  0  0  0  0  0  0  0
   -3.4224   -0.2980   -0.0794 N   0  0  0  0  0  0  0  0  0  0  0  0
   -4.5189   -0.4867   -0.1165 N   0  0  0  0  0  0  0  0  0  0  0  0
   -1.7144    1.3419   -0.1032 C   0  0  0  0  0  0  0  0  0  0  0  0
   -0.3115    1.5273   -0.0528 C   0  0  0  0  0  0  0  0  0  0  0  0
    0.5623    0.4538    0.0491 C   0  0  0  0  0  0  0  0  0  0  0  0
    2.0255    0.7159    0.0980 N   0  0  0  0  0  0  0  0  0  0  0  0
    2.3932    1.8845    0.0515 O   0  0  0  0  0  0  0  0  0  0  0  0
    2.7679   -0.2605    0.1824 O   0  0  0  0  0  0  0  0  0  0  0  0
    0.1476   -0.8884    0.1098 C   0  0  0  0  0  0  0  0  0  0  0  0
   -1.2049   -1.1464    0.0665 C   0  0  0  0  0  0  0  0  0  0  0  0
   -2.9431    2.7414   -0.2231 H   0  0  0  0  0  0  0  0  0  0  0  0
    0.1128    2.5249   -0.0931 H   0  0  0  0  0  0  0  0  0  0  0  0
    0.8834   -1.6773    0.1883 H   0  0  0  0  0  0  0  0  0  0  0  0
   -1.5948   -2.1583    0.1096 H   0  0  0  0  0  0  0  0  0  0  0  0
   -5.1822    2.6811   -0.1403 B   0  0  0  0  0  0  0  0  0  0  0  0
   -5.1833    1.8954   -1.2519 F   0  0  0  0  0  0  0  0  0  0  0  0
   -3.6600    3.4441   -0.2789 F   0  0  0  0  0  0  0  0  0  0  0  0
   -6.0122    3.7312   -0.1250 F   0  0  0  0  0  0  0  0  0  0  0  0
   -5.0203    1.9909    1.0220 F   0  0  0  0  0  0  0  0  0  0  0  0
  1 11  2  0  0  0  0
  2  1  1  0  0  0  0
  3  2  1  0  0  0  0
  4  5  2  0  0  0  0
  4  1  1  0  0  0  0
  5  6  1  0  0  0  0
  6  7  1  0  0  0  0
  6 10  2  0  0  0  0
  7  9  2  0  0  0  0
  8  7  2  0  0  0  0
 10 14  1  0  0  0  0
 11 15  1  0  0  0  0
 11 10  1  0  0  0  0
 13  5  1  0  0  0  0
 16 19  1  0  0  0  0
 16 20  1  0  0  0  0
 17 16  1  0  0  0  0
 18 12  1  0  0  0  0
M  RAD  3   2   2   3   3   4   2
M  END
