Coordinates from ORCA-job 4-NO2PhN2+~BF4-_B3LYPG-6-31G_dp-CH-Scan-d09-49-n800
 OpenBabel11261918593D

 20 18  0  0  0  0  0  0  0  0999 V2000
   -1.8094   -0.0741   -0.0119 C   0  0  0  0  0  0  0  0  0  0  0  0
   -3.1995   -0.2579   -0.0534 N   0  0  0  0  0  0  0  0  0  0  0  0
   -4.3121   -0.3367   -0.0901 N   0  0  0  0  0  0  0  0  0  0  0  0
   -1.4389    1.2726   -0.0717 C   0  0  0  0  0  0  0  0  0  0  0  0
   -0.0177    1.3836   -0.0263 C   0  0  0  0  0  0  0  0  0  0  0  0
    0.8062    0.2716    0.0636 C   0  0  0  0  0  0  0  0  0  0  0  0
    2.2810    0.4617    0.1058 N   0  0  0  0  0  0  0  0  0  0  0  0
    2.7094    1.6099    0.0493 O   0  0  0  0  0  0  0  0  0  0  0  0
    2.9796   -0.5487    0.1796 O   0  0  0  0  0  0  0  0  0  0  0  0
    0.3338   -1.0574    0.1192 C   0  0  0  0  0  0  0  0  0  0  0  0
   -1.0266   -1.2556    0.0809 C   0  0  0  0  0  0  0  0  0  0  0  0
   -3.5093    3.7686   -0.2516 H   0  0  0  0  0  0  0  0  0  0  0  0
    0.4598    2.3585   -0.0619 H   0  0  0  0  0  0  0  0  0  0  0  0
    1.0375   -1.8756    0.1896 H   0  0  0  0  0  0  0  0  0  0  0  0
   -1.4643   -2.2489    0.1198 H   0  0  0  0  0  0  0  0  0  0  0  0
   -5.8029    2.6571   -0.1652 B   0  0  0  0  0  0  0  0  0  0  0  0
   -5.4747    2.0483   -1.3026 F   0  0  0  0  0  0  0  0  0  0  0  0
   -4.3474    4.1693   -0.3351 F   0  0  0  0  0  0  0  0  0  0  0  0
   -6.8282    3.4888   -0.1315 F   0  0  0  0  0  0  0  0  0  0  0  0
   -5.3074    2.1641    0.9695 F   0  0  0  0  0  0  0  0  0  0  0  0
  1 11  2  0  0  0  0
  2  1  1  0  0  0  0
  3  2  1  0  0  0  0
  4  5  2  0  0  0  0
  4  1  1  0  0  0  0
  5  6  1  0  0  0  0
  6  7  1  0  0  0  0
  6 10  2  0  0  0  0
  7  9  2  0  0  0  0
  8  7  2  0  0  0  0
 10 14  1  0  0  0  0
 11 10  1  0  0  0  0
 11 15  1  0  0  0  0
 13  5  1  0  0  0  0
 16 19  1  0  0  0  0
 16 20  1  0  0  0  0
 17 16  1  0  0  0  0
 18 12  1  0  0  0  0
M  RAD  3   2   2   3   3   4   2
M  END
