Coordinates from ORCA-job 4-NO2PhN2+~BF4-_B3LYPG-6-31G_dp-CH-Scan-d09-49-n800
 OpenBabel11261918593D

 20 18  0  0  0  0  0  0  0  0999 V2000
   -1.6119   -0.0454    0.0436 C   0  0  0  0  0  0  0  0  0  0  0  0
   -3.0167   -0.1121    0.0119 N   0  0  0  0  0  0  0  0  0  0  0  0
   -4.1329   -0.0765   -0.0110 N   0  0  0  0  0  0  0  0  0  0  0  0
   -1.1586    1.2729    0.0816 C   0  0  0  0  0  0  0  0  0  0  0  0
    0.2693    1.2845    0.1145 C   0  0  0  0  0  0  0  0  0  0  0  0
    1.0149    0.1153    0.1081 C   0  0  0  0  0  0  0  0  0  0  0  0
    2.4994    0.1994    0.1451 N   0  0  0  0  0  0  0  0  0  0  0  0
    3.0072    1.3158    0.1865 O   0  0  0  0  0  0  0  0  0  0  0  0
    3.1283   -0.8588    0.1317 O   0  0  0  0  0  0  0  0  0  0  0  0
    0.4532   -1.1809    0.0677 C   0  0  0  0  0  0  0  0  0  0  0  0
   -0.9176   -1.2844    0.0335 C   0  0  0  0  0  0  0  0  0  0  0  0
   -4.4225    4.5382   -0.2621 H   0  0  0  0  0  0  0  0  0  0  0  0
    0.8122    2.2252    0.1459 H   0  0  0  0  0  0  0  0  0  0  0  0
    1.1012   -2.0468    0.0645 H   0  0  0  0  0  0  0  0  0  0  0  0
   -1.4229   -2.2456    0.0009 H   0  0  0  0  0  0  0  0  0  0  0  0
   -6.0760    2.6579   -0.1917 B   0  0  0  0  0  0  0  0  0  0  0  0
   -5.8978    2.0063   -1.3301 F   0  0  0  0  0  0  0  0  0  0  0  0
   -5.1572    4.5148   -0.8331 F   0  0  0  0  0  0  0  0  0  0  0  0
   -7.2521    3.1790    0.1042 F   0  0  0  0  0  0  0  0  0  0  0  0
   -5.1505    2.5405    0.7644 F   0  0  0  0  0  0  0  0  0  0  0  0
  1  4  1  0  0  0  0
  2  1  1  0  0  0  0
  3  2  1  0  0  0  0
  4  5  2  0  0  0  0
  5 13  1  0  0  0  0
  6  5  1  0  0  0  0
  6  7  1  0  0  0  0
  7  8  2  0  0  0  0
  9  7  2  0  0  0  0
 10  6  2  0  0  0  0
 11  1  2  0  0  0  0
 11 10  1  0  0  0  0
 14 10  1  0  0  0  0
 15 11  1  0  0  0  0
 16 19  1  0  0  0  0
 16 20  1  0  0  0  0
 17 16  1  0  0  0  0
 18 12  1  0  0  0  0
M  RAD  3   2   2   3   3   4   2
M  END
