Coordinates from ORCA-job 4-NO2PhN2+~BF4-_B3LYPG-6-31G_dp-CH-Scan-d09-49-n800
 OpenBabel11261918593D

 20 18  0  0  0  0  0  0  0  0999 V2000
   -2.0755   -0.0097   -0.0376 C   0  0  0  0  0  0  0  0  0  0  0  0
   -3.4409   -0.2958   -0.0800 N   0  0  0  0  0  0  0  0  0  0  0  0
   -4.5360   -0.4903   -0.1177 N   0  0  0  0  0  0  0  0  0  0  0  0
   -1.7318    1.3489   -0.1031 C   0  0  0  0  0  0  0  0  0  0  0  0
   -0.3311    1.5383   -0.0536 C   0  0  0  0  0  0  0  0  0  0  0  0
    0.5444    0.4657    0.0475 C   0  0  0  0  0  0  0  0  0  0  0  0
    2.0072    0.7305    0.0957 N   0  0  0  0  0  0  0  0  0  0  0  0
    2.3722    1.8997    0.0486 O   0  0  0  0  0  0  0  0  0  0  0  0
    2.7508   -0.2447    0.1799 O   0  0  0  0  0  0  0  0  0  0  0  0
    0.1312   -0.8761    0.1080 C   0  0  0  0  0  0  0  0  0  0  0  0
   -1.2215   -1.1357    0.0651 C   0  0  0  0  0  0  0  0  0  0  0  0
   -2.9029    2.6796   -0.2150 H   0  0  0  0  0  0  0  0  0  0  0  0
    0.0902    2.5370   -0.0937 H   0  0  0  0  0  0  0  0  0  0  0  0
    0.8675   -1.6645    0.1860 H   0  0  0  0  0  0  0  0  0  0  0  0
   -1.6097   -2.1482    0.1080 H   0  0  0  0  0  0  0  0  0  0  0  0
   -5.1239    2.6775   -0.1396 B   0  0  0  0  0  0  0  0  0  0  0  0
   -5.1435    1.8805   -1.2495 F   0  0  0  0  0  0  0  0  0  0  0  0
   -3.6280    3.4061   -0.2708 F   0  0  0  0  0  0  0  0  0  0  0  0
   -5.9617    3.7249   -0.1266 F   0  0  0  0  0  0  0  0  0  0  0  0
   -4.9882    1.9756    1.0247 F   0  0  0  0  0  0  0  0  0  0  0  0
  1 11  2  0  0  0  0
  2  1  1  0  0  0  0
  3  2  1  0  0  0  0
  4  5  2  0  0  0  0
  4  1  1  0  0  0  0
  5  6  1  0  0  0  0
  6  7  1  0  0  0  0
  6 10  2  0  0  0  0
  7  9  2  0  0  0  0
  8  7  2  0  0  0  0
 10 14  1  0  0  0  0
 11 10  1  0  0  0  0
 11 15  1  0  0  0  0
 13  5  1  0  0  0  0
 16 19  1  0  0  0  0
 16 20  1  0  0  0  0
 17 16  1  0  0  0  0
 18 12  1  0  0  0  0
M  RAD  3   2   2   3   3   4   2
M  END
