Coordinates from ORCA-job 4-NO2PhN2+~BF4-_B3LYPG-6-31G_dp-CH-Scan-d09-49-n800
 OpenBabel11261918593D

 20 18  0  0  0  0  0  0  0  0999 V2000
   -1.8120   -0.0805    0.0241 C   0  0  0  0  0  0  0  0  0  0  0  0
   -3.2026   -0.2651   -0.0001 N   0  0  0  0  0  0  0  0  0  0  0  0
   -4.3158   -0.3428   -0.0189 N   0  0  0  0  0  0  0  0  0  0  0  0
   -1.4466    1.2688    0.0126 C   0  0  0  0  0  0  0  0  0  0  0  0
   -0.0247    1.3813    0.0402 C   0  0  0  0  0  0  0  0  0  0  0  0
    0.8030    0.2690    0.0721 C   0  0  0  0  0  0  0  0  0  0  0  0
    2.2778    0.4613    0.0987 N   0  0  0  0  0  0  0  0  0  0  0  0
    2.7029    1.6122    0.0916 O   0  0  0  0  0  0  0  0  0  0  0  0
    2.9799   -0.5490    0.1265 O   0  0  0  0  0  0  0  0  0  0  0  0
    0.3346   -1.0627    0.0809 C   0  0  0  0  0  0  0  0  0  0  0  0
   -1.0257   -1.2630    0.0564 C   0  0  0  0  0  0  0  0  0  0  0  0
   -3.5477    3.8330   -0.2173 H   0  0  0  0  0  0  0  0  0  0  0  0
    0.4503    2.3582    0.0362 H   0  0  0  0  0  0  0  0  0  0  0  0
    1.0412   -1.8810    0.1063 H   0  0  0  0  0  0  0  0  0  0  0  0
   -1.4608   -2.2583    0.0617 H   0  0  0  0  0  0  0  0  0  0  0  0
   -5.7834    2.6534   -0.1847 B   0  0  0  0  0  0  0  0  0  0  0  0
   -5.5437    1.9909   -1.3121 F   0  0  0  0  0  0  0  0  0  0  0  0
   -4.3602    4.1725   -0.5243 F   0  0  0  0  0  0  0  0  0  0  0  0
   -6.8198    3.4677   -0.1014 F   0  0  0  0  0  0  0  0  0  0  0  0
   -5.1777    2.2334    0.9278 F   0  0  0  0  0  0  0  0  0  0  0  0
  1 11  1  0  0  0  0
  2  1  1  0  0  0  0
  3  2  1  0  0  0  0
  4  1  2  0  0  0  0
  4  5  1  0  0  0  0
  5  6  2  0  0  0  0
  6 10  1  0  0  0  0
  6  7  1  0  0  0  0
  7  9  2  0  0  0  0
  8  7  2  0  0  0  0
 10 14  1  0  0  0  0
 11 15  1  0  0  0  0
 11 10  2  0  0  0  0
 13  5  1  0  0  0  0
 16 19  1  0  0  0  0
 16 20  1  0  0  0  0
 17 16  1  0  0  0  0
 18 12  1  0  0  0  0
M  RAD  3   2   2   3   3   4   2
M  END
