Coordinates from ORCA-job 4-NO2PhN2+~BF4-_B3LYPG-6-31G_dp-CH-Scan-d09-49-n800
 OpenBabel11261918593D

 20 18  0  0  0  0  0  0  0  0999 V2000
   -1.8171   -0.0735   -0.0143 C   0  0  0  0  0  0  0  0  0  0  0  0
   -3.2062   -0.2610   -0.0540 N   0  0  0  0  0  0  0  0  0  0  0  0
   -4.3183   -0.3449   -0.0905 N   0  0  0  0  0  0  0  0  0  0  0  0
   -1.4488    1.2740   -0.0784 C   0  0  0  0  0  0  0  0  0  0  0  0
   -0.0281    1.3883   -0.0335 C   0  0  0  0  0  0  0  0  0  0  0  0
    0.7982    0.2783    0.0597 C   0  0  0  0  0  0  0  0  0  0  0  0
    2.2726    0.4718    0.1011 N   0  0  0  0  0  0  0  0  0  0  0  0
    2.6980    1.6214    0.0516 O   0  0  0  0  0  0  0  0  0  0  0  0
    2.9731   -0.5363    0.1864 O   0  0  0  0  0  0  0  0  0  0  0  0
    0.3288   -1.0516    0.1192 C   0  0  0  0  0  0  0  0  0  0  0  0
   -1.0313   -1.2528    0.0816 C   0  0  0  0  0  0  0  0  0  0  0  0
   -3.4812    3.7236   -0.2541 H   0  0  0  0  0  0  0  0  0  0  0  0
    0.4472    2.3641   -0.0723 H   0  0  0  0  0  0  0  0  0  0  0  0
    1.0341   -1.8680    0.1918 H   0  0  0  0  0  0  0  0  0  0  0  0
   -1.4667   -2.2469    0.1235 H   0  0  0  0  0  0  0  0  0  0  0  0
   -5.7902    2.6606   -0.1639 B   0  0  0  0  0  0  0  0  0  0  0  0
   -5.4591    2.0480   -1.2993 F   0  0  0  0  0  0  0  0  0  0  0  0
   -4.3131    4.1429   -0.3131 F   0  0  0  0  0  0  0  0  0  0  0  0
   -6.8030    3.5082   -0.1408 F   0  0  0  0  0  0  0  0  0  0  0  0
   -5.3200    2.1532    0.9754 F   0  0  0  0  0  0  0  0  0  0  0  0
  1 11  2  0  0  0  0
  2  1  1  0  0  0  0
  3  2  1  0  0  0  0
  4  5  2  0  0  0  0
  4  1  1  0  0  0  0
  5  6  1  0  0  0  0
  6  7  1  0  0  0  0
  6 10  2  0  0  0  0
  7  9  2  0  0  0  0
  8  7  2  0  0  0  0
 10 14  1  0  0  0  0
 11 10  1  0  0  0  0
 11 15  1  0  0  0  0
 13  5  1  0  0  0  0
 16 19  1  0  0  0  0
 16 20  1  0  0  0  0
 17 16  1  0  0  0  0
 18 12  1  0  0  0  0
M  RAD  3   2   2   3   3   4   2
M  END
