Coordinates from ORCA-job 4-NO2PhN2+~BF4-_B3LYPG-6-31G_dp-CH-Scan-d09-49-n800
 OpenBabel11261918593D

 20 18  0  0  0  0  0  0  0  0999 V2000
   -1.7279   -0.0797    0.0107 C   0  0  0  0  0  0  0  0  0  0  0  0
   -3.1257   -0.2214   -0.0317 N   0  0  0  0  0  0  0  0  0  0  0  0
   -4.2413   -0.2538   -0.0642 N   0  0  0  0  0  0  0  0  0  0  0  0
   -1.3344    1.2596    0.0133 C   0  0  0  0  0  0  0  0  0  0  0  0
    0.0906    1.3373    0.0581 C   0  0  0  0  0  0  0  0  0  0  0  0
    0.8902    0.2048    0.0917 C   0  0  0  0  0  0  0  0  0  0  0  0
    2.3689    0.3597    0.1374 N   0  0  0  0  0  0  0  0  0  0  0  0
    2.8234    1.4995    0.1396 O   0  0  0  0  0  0  0  0  0  0  0  0
    3.0458   -0.6678    0.1688 O   0  0  0  0  0  0  0  0  0  0  0  0
    0.3896   -1.1161    0.0857 C   0  0  0  0  0  0  0  0  0  0  0  0
   -0.9747   -1.2835    0.0436 C   0  0  0  0  0  0  0  0  0  0  0  0
   -3.8851    4.1765   -0.2499 H   0  0  0  0  0  0  0  0  0  0  0  0
    0.5895    2.3025    0.0669 H   0  0  0  0  0  0  0  0  0  0  0  0
    1.0763   -1.9510    0.1140 H   0  0  0  0  0  0  0  0  0  0  0  0
   -1.4344   -2.2677    0.0366 H   0  0  0  0  0  0  0  0  0  0  0  0
   -5.9155    2.6555   -0.1614 B   0  0  0  0  0  0  0  0  0  0  0  0
   -5.7611    2.0009   -1.3042 F   0  0  0  0  0  0  0  0  0  0  0  0
   -4.6877    4.3327   -0.6952 F   0  0  0  0  0  0  0  0  0  0  0  0
   -7.0083    3.3627    0.0590 F   0  0  0  0  0  0  0  0  0  0  0  0
   -5.1095    2.3487    0.8574 F   0  0  0  0  0  0  0  0  0  0  0  0
  1  4  2  0  0  0  0
  1 11  1  0  0  0  0
  2  1  1  0  0  0  0
  3  2  1  0  0  0  0
  4  5  1  0  0  0  0
  5 13  1  0  0  0  0
  5  6  2  0  0  0  0
  6  7  1  0  0  0  0
  7  8  2  0  0  0  0
  7  9  2  0  0  0  0
 10  6  1  0  0  0  0
 10 14  1  0  0  0  0
 11 10  2  0  0  0  0
 15 11  1  0  0  0  0
 16 19  1  0  0  0  0
 16 20  1  0  0  0  0
 17 16  1  0  0  0  0
 18 12  1  0  0  0  0
M  RAD  3   2   2   3   3   4   2
M  END
