Coordinates from ORCA-job 4-NO2PhN2+~BF4-_B3LYPG-6-31G_dp-CH-Scan-d09-49-n800
 OpenBabel11261918593D

 20 18  0  0  0  0  0  0  0  0999 V2000
   -1.7203   -0.0802    0.0219 C   0  0  0  0  0  0  0  0  0  0  0  0
   -3.1194   -0.2141   -0.0173 N   0  0  0  0  0  0  0  0  0  0  0  0
   -4.2355   -0.2339   -0.0468 N   0  0  0  0  0  0  0  0  0  0  0  0
   -1.3241    1.2578    0.0414 C   0  0  0  0  0  0  0  0  0  0  0  0
    0.1015    1.3314    0.0818 C   0  0  0  0  0  0  0  0  0  0  0  0
    0.8980    0.1962    0.0966 C   0  0  0  0  0  0  0  0  0  0  0  0
    2.3773    0.3464    0.1386 N   0  0  0  0  0  0  0  0  0  0  0  0
    2.8351    1.4847    0.1583 O   0  0  0  0  0  0  0  0  0  0  0  0
    3.0516   -0.6833    0.1531 O   0  0  0  0  0  0  0  0  0  0  0  0
    0.3938   -1.1232    0.0742 C   0  0  0  0  0  0  0  0  0  0  0  0
   -0.9711   -1.2865    0.0352 C   0  0  0  0  0  0  0  0  0  0  0  0
   -3.9635    4.2409   -0.2514 H   0  0  0  0  0  0  0  0  0  0  0  0
    0.6030    2.2950    0.1020 H   0  0  0  0  0  0  0  0  0  0  0  0
    1.0785   -1.9601    0.0880 H   0  0  0  0  0  0  0  0  0  0  0  0
   -1.4336   -2.2693    0.0161 H   0  0  0  0  0  0  0  0  0  0  0  0
   -5.9124    2.6506   -0.1645 B   0  0  0  0  0  0  0  0  0  0  0  0
   -5.7900    1.9821   -1.3022 F   0  0  0  0  0  0  0  0  0  0  0  0
   -4.7325    4.3455   -0.7659 F   0  0  0  0  0  0  0  0  0  0  0  0
   -7.0135    3.3319    0.0933 F   0  0  0  0  0  0  0  0  0  0  0  0
   -5.0539    2.3876    0.8240 F   0  0  0  0  0  0  0  0  0  0  0  0
  1 11  2  0  0  0  0
  1  4  1  0  0  0  0
  2  1  1  0  0  0  0
  3  2  1  0  0  0  0
  4  5  2  0  0  0  0
  5  6  1  0  0  0  0
  5 13  1  0  0  0  0
  6  7  1  0  0  0  0
  7  9  2  0  0  0  0
  7  8  2  0  0  0  0
 10 14  1  0  0  0  0
 10  6  2  0  0  0  0
 11 10  1  0  0  0  0
 15 11  1  0  0  0  0
 16 19  1  0  0  0  0
 16 20  1  0  0  0  0
 17 16  1  0  0  0  0
 18 12  1  0  0  0  0
M  RAD  3   2   2   3   3   4   2
M  END
