Coordinates from ORCA-job 4-NO2PhN2+~BF4-_B3LYPG-6-31G_dp-CH-Scan-d09-49-n800
 OpenBabel11261918593D

 20 18  0  0  0  0  0  0  0  0999 V2000
   -1.8580   -0.0639   -0.0107 C   0  0  0  0  0  0  0  0  0  0  0  0
   -3.2433   -0.2703   -0.0453 N   0  0  0  0  0  0  0  0  0  0  0  0
   -4.3532   -0.3778   -0.0753 N   0  0  0  0  0  0  0  0  0  0  0  0
   -1.4970    1.2864   -0.0741 C   0  0  0  0  0  0  0  0  0  0  0  0
   -0.0786    1.4139   -0.0334 C   0  0  0  0  0  0  0  0  0  0  0  0
    0.7576    0.3110    0.0562 C   0  0  0  0  0  0  0  0  0  0  0  0
    2.2303    0.5179    0.0942 N   0  0  0  0  0  0  0  0  0  0  0  0
    2.6447    1.6712    0.0412 O   0  0  0  0  0  0  0  0  0  0  0  0
    2.9398   -0.4847    0.1674 O   0  0  0  0  0  0  0  0  0  0  0  0
    0.2995   -1.0221    0.1149 C   0  0  0  0  0  0  0  0  0  0  0  0
   -1.0591   -1.2347    0.0811 C   0  0  0  0  0  0  0  0  0  0  0  0
   -3.3648    3.5282   -0.2381 H   0  0  0  0  0  0  0  0  0  0  0  0
    0.3872    2.3941   -0.0724 H   0  0  0  0  0  0  0  0  0  0  0  0
    1.0116   -1.8330    0.1841 H   0  0  0  0  0  0  0  0  0  0  0  0
   -1.4853   -2.2328    0.1228 H   0  0  0  0  0  0  0  0  0  0  0  0
   -5.7093    2.6675   -0.1712 B   0  0  0  0  0  0  0  0  0  0  0  0
   -5.3953    2.0246   -1.2974 F   0  0  0  0  0  0  0  0  0  0  0  0
   -4.1640    4.0144   -0.2724 F   0  0  0  0  0  0  0  0  0  0  0  0
   -6.6730    3.5726   -0.1762 F   0  0  0  0  0  0  0  0  0  0  0  0
   -5.3209    2.1169    0.9810 F   0  0  0  0  0  0  0  0  0  0  0  0
  1 11  2  0  0  0  0
  2  1  1  0  0  0  0
  3  2  1  0  0  0  0
  4  5  2  0  0  0  0
  4  1  1  0  0  0  0
  5  6  1  0  0  0  0
  6  7  1  0  0  0  0
  6 10  2  0  0  0  0
  7  9  2  0  0  0  0
  8  7  2  0  0  0  0
 10 14  1  0  0  0  0
 11 10  1  0  0  0  0
 11 15  1  0  0  0  0
 13  5  1  0  0  0  0
 16 20  1  0  0  0  0
 17 16  1  0  0  0  0
 18 12  1  0  0  0  0
 19 16  1  0  0  0  0
M  RAD  3   2   2   3   3   4   2
M  END
