Coordinates from ORCA-job 4-NO2PhN2+~BF4-_B3LYPG-6-31G_dp-CH-Scan-d09-49-n800
 OpenBabel11261918593D

 20 18  0  0  0  0  0  0  0  0999 V2000
   -1.8302   -0.0697   -0.0140 C   0  0  0  0  0  0  0  0  0  0  0  0
   -3.2180   -0.2636   -0.0525 N   0  0  0  0  0  0  0  0  0  0  0  0
   -4.3295   -0.3559   -0.0846 N   0  0  0  0  0  0  0  0  0  0  0  0
   -1.4640    1.2787   -0.0772 C   0  0  0  0  0  0  0  0  0  0  0  0
   -0.0440    1.3969   -0.0336 C   0  0  0  0  0  0  0  0  0  0  0  0
    0.7853    0.2891    0.0586 C   0  0  0  0  0  0  0  0  0  0  0  0
    2.2591    0.4867    0.0996 N   0  0  0  0  0  0  0  0  0  0  0  0
    2.6812    1.6375    0.0501 O   0  0  0  0  0  0  0  0  0  0  0  0
    2.9624   -0.5198    0.1809 O   0  0  0  0  0  0  0  0  0  0  0  0
    0.3193   -1.0417    0.1175 C   0  0  0  0  0  0  0  0  0  0  0  0
   -1.0402   -1.2464    0.0807 C   0  0  0  0  0  0  0  0  0  0  0  0
   -3.4412    3.6567   -0.2554 H   0  0  0  0  0  0  0  0  0  0  0  0
    0.4284    2.3741   -0.0721 H   0  0  0  0  0  0  0  0  0  0  0  0
    1.0267   -1.8565    0.1889 H   0  0  0  0  0  0  0  0  0  0  0  0
   -1.4729   -2.2418    0.1220 H   0  0  0  0  0  0  0  0  0  0  0  0
   -5.7660    2.6631   -0.1647 B   0  0  0  0  0  0  0  0  0  0  0  0
   -5.4400    2.0394   -1.2964 F   0  0  0  0  0  0  0  0  0  0  0  0
   -4.2622    4.0998   -0.2990 F   0  0  0  0  0  0  0  0  0  0  0  0
   -6.7616    3.5315   -0.1524 F   0  0  0  0  0  0  0  0  0  0  0  0
   -5.3236    2.1412    0.9797 F   0  0  0  0  0  0  0  0  0  0  0  0
  1 11  2  0  0  0  0
  2  1  1  0  0  0  0
  3  2  1  0  0  0  0
  4  5  2  0  0  0  0
  4  1  1  0  0  0  0
  5  6  1  0  0  0  0
  6  7  1  0  0  0  0
  6 10  2  0  0  0  0
  7  9  2  0  0  0  0
  8  7  2  0  0  0  0
 10 14  1  0  0  0  0
 11 10  1  0  0  0  0
 11 15  1  0  0  0  0
 13  5  1  0  0  0  0
 16 19  1  0  0  0  0
 16 20  1  0  0  0  0
 17 16  1  0  0  0  0
 18 12  1  0  0  0  0
M  RAD  3   2   2   3   3   4   2
M  END
