Coordinates from ORCA-job 4-NO2PhN2+~BF4-_B3LYPG-6-31G_dp-CH-Scan-d09-49-n800
 OpenBabel11261918593D

 20 18  0  0  0  0  0  0  0  0999 V2000
   -1.7139   -0.0794    0.0236 C   0  0  0  0  0  0  0  0  0  0  0  0
   -3.1131   -0.2111   -0.0148 N   0  0  0  0  0  0  0  0  0  0  0  0
   -4.2292   -0.2318   -0.0437 N   0  0  0  0  0  0  0  0  0  0  0  0
   -1.3149    1.2577    0.0444 C   0  0  0  0  0  0  0  0  0  0  0  0
    0.1109    1.3282    0.0843 C   0  0  0  0  0  0  0  0  0  0  0  0
    0.9051    0.1915    0.0975 C   0  0  0  0  0  0  0  0  0  0  0  0
    2.3846    0.3385    0.1391 N   0  0  0  0  0  0  0  0  0  0  0  0
    2.8450    1.4758    0.1581 O   0  0  0  0  0  0  0  0  0  0  0  0
    3.0569   -0.6927    0.1504 O   0  0  0  0  0  0  0  0  0  0  0  0
    0.3981   -1.1270    0.0738 C   0  0  0  0  0  0  0  0  0  0  0  0
   -0.9670   -1.2874    0.0352 C   0  0  0  0  0  0  0  0  0  0  0  0
   -3.9907    4.2621   -0.2495 H   0  0  0  0  0  0  0  0  0  0  0  0
    0.6144    2.2908    0.1053 H   0  0  0  0  0  0  0  0  0  0  0  0
    1.0811   -1.9653    0.0864 H   0  0  0  0  0  0  0  0  0  0  0  0
   -1.4316   -2.2693    0.0153 H   0  0  0  0  0  0  0  0  0  0  0  0
   -5.9232    2.6529   -0.1670 B   0  0  0  0  0  0  0  0  0  0  0  0
   -5.7974    1.9837   -1.3037 F   0  0  0  0  0  0  0  0  0  0  0  0
   -4.7564    4.3574   -0.7705 F   0  0  0  0  0  0  0  0  0  0  0  0
   -7.0282    3.3277    0.0911 F   0  0  0  0  0  0  0  0  0  0  0  0
   -5.0616    2.3970    0.8208 F   0  0  0  0  0  0  0  0  0  0  0  0
  1 11  2  0  0  0  0
  1  4  1  0  0  0  0
  2  1  1  0  0  0  0
  3  2  1  0  0  0  0
  4  5  2  0  0  0  0
  5  6  1  0  0  0  0
  5 13  1  0  0  0  0
  6  7  1  0  0  0  0
  7  9  2  0  0  0  0
  7  8  2  0  0  0  0
 10 14  1  0  0  0  0
 10  6  2  0  0  0  0
 11 10  1  0  0  0  0
 15 11  1  0  0  0  0
 16 19  1  0  0  0  0
 16 20  1  0  0  0  0
 17 16  1  0  0  0  0
 18 12  1  0  0  0  0
M  RAD  3   2   2   3   3   4   2
M  END
