Coordinates from ORCA-job 4-NO2PhN2+~BF4-_B3LYPG-6-31G_dp-CH-Scan-d09-49-n800
 OpenBabel11261918593D

 20 18  0  0  0  0  0  0  0  0999 V2000
   -2.1036    0.0030   -0.0275 C   0  0  0  0  0  0  0  0  0  0  0  0
   -3.4675   -0.2877   -0.0648 N   0  0  0  0  0  0  0  0  0  0  0  0
   -4.5611   -0.4871   -0.1020 N   0  0  0  0  0  0  0  0  0  0  0  0
   -1.7526    1.3600   -0.0898 C   0  0  0  0  0  0  0  0  0  0  0  0
   -0.3554    1.5548   -0.0487 C   0  0  0  0  0  0  0  0  0  0  0  0
    0.5215    0.4820    0.0437 C   0  0  0  0  0  0  0  0  0  0  0  0
    1.9841    0.7483    0.0831 N   0  0  0  0  0  0  0  0  0  0  0  0
    2.3464    1.9181    0.0350 O   0  0  0  0  0  0  0  0  0  0  0  0
    2.7285   -0.2265    0.1611 O   0  0  0  0  0  0  0  0  0  0  0  0
    0.1083   -0.8586    0.1032 C   0  0  0  0  0  0  0  0  0  0  0  0
   -1.2453   -1.1189    0.0673 C   0  0  0  0  0  0  0  0  0  0  0  0
   -2.8395    2.5925   -0.1852 H   0  0  0  0  0  0  0  0  0  0  0  0
    0.0617    2.5550   -0.0886 H   0  0  0  0  0  0  0  0  0  0  0  0
    0.8447   -1.6476    0.1749 H   0  0  0  0  0  0  0  0  0  0  0  0
   -1.6319   -2.1319    0.1099 H   0  0  0  0  0  0  0  0  0  0  0  0
   -5.0449    2.6699   -0.1523 B   0  0  0  0  0  0  0  0  0  0  0  0
   -5.0579    1.8598   -1.2634 F   0  0  0  0  0  0  0  0  0  0  0  0
   -3.5904    3.3646   -0.2352 F   0  0  0  0  0  0  0  0  0  0  0  0
   -5.9066    3.7034   -0.1585 F   0  0  0  0  0  0  0  0  0  0  0  0
   -4.9695    1.9463    1.0140 F   0  0  0  0  0  0  0  0  0  0  0  0
  1 11  2  0  0  0  0
  2  1  1  0  0  0  0
  3  2  1  0  0  0  0
  4  5  2  0  0  0  0
  4  1  1  0  0  0  0
  5  6  1  0  0  0  0
  6  7  1  0  0  0  0
  6 10  2  0  0  0  0
  7  9  2  0  0  0  0
  8  7  2  0  0  0  0
 10 14  1  0  0  0  0
 11 10  1  0  0  0  0
 11 15  1  0  0  0  0
 13  5  1  0  0  0  0
 16 20  1  0  0  0  0
 17 16  1  0  0  0  0
 18 12  1  0  0  0  0
 19 16  1  0  0  0  0
M  RAD  3   2   2   3   3   4   2
M  END
