Coordinates from ORCA-job 4-NO2PhN2+~BF4-_B3LYPG-6-31G_dp-CH-Scan-d09-49-n800
 OpenBabel11261918593D

 20 18  0  0  0  0  0  0  0  0999 V2000
   -2.1459    0.0398   -0.1780 C   0  0  0  0  0  0  0  0  0  0  0  0
   -3.5000   -0.2463   -0.3313 N   0  0  0  0  0  0  0  0  0  0  0  0
   -4.5794   -0.4639   -0.4863 N   0  0  0  0  0  0  0  0  0  0  0  0
   -1.7455    1.3768   -0.3125 C   0  0  0  0  0  0  0  0  0  0  0  0
   -0.3666    1.5854   -0.1745 C   0  0  0  0  0  0  0  0  0  0  0  0
    0.4836    0.5149    0.0789 C   0  0  0  0  0  0  0  0  0  0  0  0
    1.9403    0.7759    0.2227 N   0  0  0  0  0  0  0  0  0  0  0  0
    2.3185    1.9345    0.0966 O   0  0  0  0  0  0  0  0  0  0  0  0
    2.6596   -0.1916    0.4571 O   0  0  0  0  0  0  0  0  0  0  0  0
    0.0458   -0.8093    0.2102 C   0  0  0  0  0  0  0  0  0  0  0  0
   -1.3055   -1.0655    0.0770 C   0  0  0  0  0  0  0  0  0  0  0  0
   -2.7058    2.4194   -0.5068 H   0  0  0  0  0  0  0  0  0  0  0  0
    0.0540    2.5806   -0.2575 H   0  0  0  0  0  0  0  0  0  0  0  0
    0.7616   -1.5955    0.4101 H   0  0  0  0  0  0  0  0  0  0  0  0
   -1.7043   -2.0701    0.1669 H   0  0  0  0  0  0  0  0  0  0  0  0
   -4.8996    2.6398    0.0133 B   0  0  0  0  0  0  0  0  0  0  0  0
   -5.4351    1.8175   -0.9798 F   0  0  0  0  0  0  0  0  0  0  0  0
   -3.6739    3.2692   -0.6016 F   0  0  0  0  0  0  0  0  0  0  0  0
   -5.7263    3.6368    0.4141 F   0  0  0  0  0  0  0  0  0  0  0  0
   -4.4066    1.8509    1.0576 F   0  0  0  0  0  0  0  0  0  0  0  0
  1 11  1  0  0  0  0
  2  1  1  0  0  0  0
  3  2  1  0  0  0  0
  4  1  2  0  0  0  0
  4  5  1  0  0  0  0
  5  6  2  0  0  0  0
  6 10  1  0  0  0  0
  6  7  1  0  0  0  0
  7  9  2  0  0  0  0
  8  7  2  0  0  0  0
 10 14  1  0  0  0  0
 11 15  1  0  0  0  0
 11 10  2  0  0  0  0
 13  5  1  0  0  0  0
 16 19  1  0  0  0  0
 16 20  1  0  0  0  0
 17 16  1  0  0  0  0
 18 12  1  0  0  0  0
M  RAD  3   2   2   3   3   4   2
M  END
