Coordinates from ORCA-job 4-NO2PhN2+~BF4-_B3LYPG-6-31G_dp-CH-Scan-d09-49-n800
 OpenBabel11261918593D

 20 19  0  0  0  0  0  0  0  0999 V2000
   -2.1588    0.1164   -0.2696 C   0  0  0  0  0  0  0  0  0  0  0  0
   -3.5093   -0.1334   -0.4972 N   0  0  0  0  0  0  0  0  0  0  0  0
   -4.5729   -0.3691   -0.7274 N   0  0  0  0  0  0  0  0  0  0  0  0
   -1.6851    1.4263   -0.4233 C   0  0  0  0  0  0  0  0  0  0  0  0
   -0.3198    1.6205   -0.2310 C   0  0  0  0  0  0  0  0  0  0  0  0
    0.4818    0.5336    0.1084 C   0  0  0  0  0  0  0  0  0  0  0  0
    1.9354    0.7599    0.3167 N   0  0  0  0  0  0  0  0  0  0  0  0
    2.3512    1.9017    0.1614 O   0  0  0  0  0  0  0  0  0  0  0  0
    2.6114   -0.2164    0.6274 O   0  0  0  0  0  0  0  0  0  0  0  0
   -0.0066   -0.7656    0.2651 C   0  0  0  0  0  0  0  0  0  0  0  0
   -1.3597   -0.9905    0.0663 C   0  0  0  0  0  0  0  0  0  0  0  0
   -2.4654    2.3071   -0.6844 H   0  0  0  0  0  0  0  0  0  0  0  0
    0.1247    2.6027   -0.3321 H   0  0  0  0  0  0  0  0  0  0  0  0
    0.6711   -1.5651    0.5337 H   0  0  0  0  0  0  0  0  0  0  0  0
   -1.7905   -1.9796    0.1726 H   0  0  0  0  0  0  0  0  0  0  0  0
   -4.8771    2.5786    0.0777 B   0  0  0  0  0  0  0  0  0  0  0  0
   -5.7207    1.6640   -0.6025 F   0  0  0  0  0  0  0  0  0  0  0  0
   -3.9682    3.1271   -0.8861 F   0  0  0  0  0  0  0  0  0  0  0  0
   -5.5838    3.5597    0.7092 F   0  0  0  0  0  0  0  0  0  0  0  0
   -4.0886    1.8215    0.9913 F   0  0  0  0  0  0  0  0  0  0  0  0
  1 11  1  0  0  0  0
  2  1  1  0  0  0  0
  3  2  1  0  0  0  0
  4  1  2  0  0  0  0
  4  5  1  0  0  0  0
  5  6  2  0  0  0  0
  6 10  1  0  0  0  0
  6  7  1  0  0  0  0
  7  9  2  0  0  0  0
  8  7  2  0  0  0  0
 10 14  1  0  0  0  0
 11 15  1  0  0  0  0
 11 10  2  0  0  0  0
 12  4  1  0  0  0  0
 13  5  1  0  0  0  0
 16 19  1  0  0  0  0
 16 20  1  0  0  0  0
 17 16  1  0  0  0  0
 18 16  1  0  0  0  0
M  RAD  2   2   2   3   3
M  END
