Coordinates from ORCA-job 4-NO2PhN2+~BF4-_B3LYPG-6-31G_dp-CH-Scan-d09-49-n800
 OpenBabel11261918593D

 20 19  0  0  0  0  0  0  0  0999 V2000
   -2.3051    0.1153   -0.4236 C   0  0  0  0  0  0  0  0  0  0  0  0
   -3.6298   -0.2159   -0.6913 N   0  0  0  0  0  0  0  0  0  0  0  0
   -4.6305   -0.6270   -0.9375 N   0  0  0  0  0  0  0  0  0  0  0  0
   -1.8086    1.3577   -0.8387 C   0  0  0  0  0  0  0  0  0  0  0  0
   -0.4581    1.6012   -0.6019 C   0  0  0  0  0  0  0  0  0  0  0  0
    0.3092    0.6294    0.0301 C   0  0  0  0  0  0  0  0  0  0  0  0
    1.7475    0.9067    0.2720 N   0  0  0  0  0  0  0  0  0  0  0  0
    2.1849    1.9791   -0.1275 O   0  0  0  0  0  0  0  0  0  0  0  0
    2.3916    0.0367    0.8504 O   0  0  0  0  0  0  0  0  0  0  0  0
   -0.2027   -0.6002    0.4522 C   0  0  0  0  0  0  0  0  0  0  0  0
   -1.5402   -0.8740    0.2202 C   0  0  0  0  0  0  0  0  0  0  0  0
   -2.4196    2.0282   -1.2600 H   0  0  0  0  0  0  0  0  0  0  0  0
   -0.0073    2.5424   -0.8892 H   0  0  0  0  0  0  0  0  0  0  0  0
    0.4461   -1.3118    0.9459 H   0  0  0  0  0  0  0  0  0  0  0  0
   -1.9882   -1.8105    0.5300 H   0  0  0  0  0  0  0  0  0  0  0  0
   -4.4272    2.4852    0.3956 B   0  0  0  0  0  0  0  0  0  0  0  0
   -4.4902    2.1074   -0.9993 F   0  0  0  0  0  0  0  0  0  0  0  0
   -3.2152    3.1677    0.5809 F   0  0  0  0  0  0  0  0  0  0  0  0
   -5.5214    3.2249    0.7470 F   0  0  0  0  0  0  0  0  0  0  0  0
   -4.3666    1.2567    1.1209 F   0  0  0  0  0  0  0  0  0  0  0  0
  1 11  2  0  0  0  0
  2  1  1  0  0  0  0
  3  2  1  0  0  0  0
  4  5  2  0  0  0  0
  4  1  1  0  0  0  0
  5  6  1  0  0  0  0
  6  7  1  0  0  0  0
  6 10  2  0  0  0  0
  7  9  2  0  0  0  0
  8  7  2  0  0  0  0
 10 14  1  0  0  0  0
 11 10  1  0  0  0  0
 11 15  1  0  0  0  0
 12  4  1  0  0  0  0
 13  5  1  0  0  0  0
 16 18  1  0  0  0  0
 16 19  1  0  0  0  0
 16 20  1  0  0  0  0
 17 16  1  0  0  0  0
M  RAD  2   2   2   3   3
M  END
