Coordinates from ORCA-job 4-NO2PhN2+~BF4-_B3LYPG-6-31G_dp-CH-Scan-d09-49-n800
 OpenBabel11261918593D

 20 19  0  0  0  0  0  0  0  0999 V2000
   -2.3047    0.1152   -0.4236 C   0  0  0  0  0  0  0  0  0  0  0  0
   -3.6295   -0.2159   -0.6913 N   0  0  0  0  0  0  0  0  0  0  0  0
   -4.6302   -0.6270   -0.9374 N   0  0  0  0  0  0  0  0  0  0  0  0
   -1.8079    1.3574   -0.8389 C   0  0  0  0  0  0  0  0  0  0  0  0
   -0.4574    1.6009   -0.6021 C   0  0  0  0  0  0  0  0  0  0  0  0
    0.3097    0.6291    0.0301 C   0  0  0  0  0  0  0  0  0  0  0  0
    1.7481    0.9062    0.2720 N   0  0  0  0  0  0  0  0  0  0  0  0
    2.1856    1.9786   -0.1275 O   0  0  0  0  0  0  0  0  0  0  0  0
    2.3920    0.0363    0.8507 O   0  0  0  0  0  0  0  0  0  0  0  0
   -0.2024   -0.6004    0.4524 C   0  0  0  0  0  0  0  0  0  0  0  0
   -1.5399   -0.8740    0.2205 C   0  0  0  0  0  0  0  0  0  0  0  0
   -2.4221    2.0312   -1.2621 H   0  0  0  0  0  0  0  0  0  0  0  0
   -0.0065    2.5420   -0.8895 H   0  0  0  0  0  0  0  0  0  0  0  0
    0.4463   -1.3120    0.9463 H   0  0  0  0  0  0  0  0  0  0  0  0
   -1.9880   -1.8105    0.5305 H   0  0  0  0  0  0  0  0  0  0  0  0
   -4.4279    2.4853    0.3958 B   0  0  0  0  0  0  0  0  0  0  0  0
   -4.4908    2.1078   -0.9992 F   0  0  0  0  0  0  0  0  0  0  0  0
   -3.2162    3.1683    0.5814 F   0  0  0  0  0  0  0  0  0  0  0  0
   -5.5225    3.2243    0.7473 F   0  0  0  0  0  0  0  0  0  0  0  0
   -4.3666    1.2567    1.1208 F   0  0  0  0  0  0  0  0  0  0  0  0
  1 11  2  0  0  0  0
  2  1  1  0  0  0  0
  3  2  1  0  0  0  0
  4  5  2  0  0  0  0
  4  1  1  0  0  0  0
  5  6  1  0  0  0  0
  6  7  1  0  0  0  0
  6 10  2  0  0  0  0
  7  9  2  0  0  0  0
  8  7  2  0  0  0  0
 10 14  1  0  0  0  0
 11 10  1  0  0  0  0
 11 15  1  0  0  0  0
 12  4  1  0  0  0  0
 13  5  1  0  0  0  0
 16 18  1  0  0  0  0
 16 19  1  0  0  0  0
 16 20  1  0  0  0  0
 17 16  1  0  0  0  0
M  RAD  2   2   2   3   3
M  END
