Coordinates from ORCA-job 4-NO2PhN2+~BF4-_B3LYPG-6-31G_dp-CH-Scan-d09-49-n800
 OpenBabel11261918593D

 20 18  0  0  0  0  0  0  0  0999 V2000
   -2.0025   -0.0317   -0.0353 C   0  0  0  0  0  0  0  0  0  0  0  0
   -3.3736   -0.2958   -0.0794 N   0  0  0  0  0  0  0  0  0  0  0  0
   -4.4737   -0.4672   -0.1174 N   0  0  0  0  0  0  0  0  0  0  0  0
   -1.6608    1.3264   -0.1030 C   0  0  0  0  0  0  0  0  0  0  0  0
   -0.2533    1.4989   -0.0512 C   0  0  0  0  0  0  0  0  0  0  0  0
    0.6128    0.4198    0.0525 C   0  0  0  0  0  0  0  0  0  0  0  0
    2.0781    0.6708    0.1022 N   0  0  0  0  0  0  0  0  0  0  0  0
    2.4560    1.8362    0.0535 O   0  0  0  0  0  0  0  0  0  0  0  0
    2.8139   -0.3107    0.1890 O   0  0  0  0  0  0  0  0  0  0  0  0
    0.1899   -0.9214    0.1147 C   0  0  0  0  0  0  0  0  0  0  0  0
   -1.1633   -1.1708    0.0703 C   0  0  0  0  0  0  0  0  0  0  0  0
   -3.0439    2.9160   -0.2395 H   0  0  0  0  0  0  0  0  0  0  0  0
    0.1807    2.4926   -0.0922 H   0  0  0  0  0  0  0  0  0  0  0  0
    0.9214   -1.7140    0.1948 H   0  0  0  0  0  0  0  0  0  0  0  0
   -1.5606   -2.1801    0.1142 H   0  0  0  0  0  0  0  0  0  0  0  0
   -5.3383    2.6850   -0.1403 B   0  0  0  0  0  0  0  0  0  0  0  0
   -5.2779    1.9315   -1.2594 F   0  0  0  0  0  0  0  0  0  0  0  0
   -3.7621    3.5655   -0.2928 F   0  0  0  0  0  0  0  0  0  0  0  0
   -6.1705    3.7250   -0.1187 F   0  0  0  0  0  0  0  0  0  0  0  0
   -5.1033    2.0235    1.0142 F   0  0  0  0  0  0  0  0  0  0  0  0
  1 11  2  0  0  0  0
  2  1  1  0  0  0  0
  3  2  1  0  0  0  0
  4  5  2  0  0  0  0
  4  1  1  0  0  0  0
  5  6  1  0  0  0  0
  6  7  1  0  0  0  0
  6 10  2  0  0  0  0
  7  9  2  0  0  0  0
  8  7  2  0  0  0  0
 10 14  1  0  0  0  0
 11 15  1  0  0  0  0
 11 10  1  0  0  0  0
 13  5  1  0  0  0  0
 16 19  1  0  0  0  0
 16 20  1  0  0  0  0
 17 16  1  0  0  0  0
 18 12  1  0  0  0  0
M  RAD  3   2   2   3   3   4   2
M  END
