Coordinates from ORCA-job 4-NO2PhN2+~BF4-_B3LYPG-6-31G_dp-CH-Scan-d09-49-n800
 OpenBabel11261918593D

 20 18  0  0  0  0  0  0  0  0999 V2000
   -1.6335   -0.0550    0.0394 C   0  0  0  0  0  0  0  0  0  0  0  0
   -3.0373   -0.1390    0.0064 N   0  0  0  0  0  0  0  0  0  0  0  0
   -4.1539   -0.1220   -0.0169 N   0  0  0  0  0  0  0  0  0  0  0  0
   -1.1929    1.2676    0.0773 C   0  0  0  0  0  0  0  0  0  0  0  0
    0.2347    1.2931    0.1120 C   0  0  0  0  0  0  0  0  0  0  0  0
    0.9920    0.1314    0.1065 C   0  0  0  0  0  0  0  0  0  0  0  0
    2.4756    0.2303    0.1449 N   0  0  0  0  0  0  0  0  0  0  0  0
    2.9722    1.3517    0.1857 O   0  0  0  0  0  0  0  0  0  0  0  0
    3.1148   -0.8217    0.1354 O   0  0  0  0  0  0  0  0  0  0  0  0
    0.4432   -1.1701    0.0660 C   0  0  0  0  0  0  0  0  0  0  0  0
   -0.9265   -1.2869    0.0305 C   0  0  0  0  0  0  0  0  0  0  0  0
   -4.3323    4.4935   -0.2671 H   0  0  0  0  0  0  0  0  0  0  0  0
    0.7683    2.2391    0.1439 H   0  0  0  0  0  0  0  0  0  0  0  0
    1.0995   -2.0297    0.0638 H   0  0  0  0  0  0  0  0  0  0  0  0
   -1.4221   -2.2532   -0.0021 H   0  0  0  0  0  0  0  0  0  0  0  0
   -6.0450    2.6590   -0.1826 B   0  0  0  0  0  0  0  0  0  0  0  0
   -5.8857    1.9945   -1.3165 F   0  0  0  0  0  0  0  0  0  0  0  0
   -5.0707    4.4812   -0.8336 F   0  0  0  0  0  0  0  0  0  0  0  0
   -7.2038    3.2215    0.1060 F   0  0  0  0  0  0  0  0  0  0  0  0
   -5.1276    2.5141    0.7772 F   0  0  0  0  0  0  0  0  0  0  0  0
  1  4  1  0  0  0  0
  2  1  1  0  0  0  0
  3  2  1  0  0  0  0
  4  5  2  0  0  0  0
  5 13  1  0  0  0  0
  6  5  1  0  0  0  0
  6  7  1  0  0  0  0
  7  8  2  0  0  0  0
  9  7  2  0  0  0  0
 10  6  2  0  0  0  0
 11  1  2  0  0  0  0
 11 10  1  0  0  0  0
 14 10  1  0  0  0  0
 15 11  1  0  0  0  0
 16 19  1  0  0  0  0
 16 20  1  0  0  0  0
 17 16  1  0  0  0  0
 18 12  1  0  0  0  0
M  RAD  3   2   2   3   3   4   2
M  END
