Coordinates from ORCA-job 4-NO2PhN2+~BF4-_B3LYPG-6-31G_dp-CH-Scan-d09-49-n800
 OpenBabel11261918593D

 20 18  0  0  0  0  0  0  0  0999 V2000
   -1.8194   -0.0728   -0.0142 C   0  0  0  0  0  0  0  0  0  0  0  0
   -3.2083   -0.2614   -0.0540 N   0  0  0  0  0  0  0  0  0  0  0  0
   -4.3203   -0.3464   -0.0904 N   0  0  0  0  0  0  0  0  0  0  0  0
   -1.4513    1.2748   -0.0782 C   0  0  0  0  0  0  0  0  0  0  0  0
   -0.0307    1.3897   -0.0329 C   0  0  0  0  0  0  0  0  0  0  0  0
    0.7961    0.2801    0.0603 C   0  0  0  0  0  0  0  0  0  0  0  0
    2.2703    0.4743    0.1022 N   0  0  0  0  0  0  0  0  0  0  0  0
    2.6954    1.6239    0.0490 O   0  0  0  0  0  0  0  0  0  0  0  0
    2.9714   -0.5338    0.1833 O   0  0  0  0  0  0  0  0  0  0  0  0
    0.3271   -1.0498    0.1196 C   0  0  0  0  0  0  0  0  0  0  0  0
   -1.0328   -1.2516    0.0818 C   0  0  0  0  0  0  0  0  0  0  0  0
   -3.4745    3.7125   -0.2539 H   0  0  0  0  0  0  0  0  0  0  0  0
    0.4441    2.3658   -0.0716 H   0  0  0  0  0  0  0  0  0  0  0  0
    1.0328   -1.8660    0.1923 H   0  0  0  0  0  0  0  0  0  0  0  0
   -1.4678   -2.2459    0.1235 H   0  0  0  0  0  0  0  0  0  0  0  0
   -5.7862    2.6608   -0.1643 B   0  0  0  0  0  0  0  0  0  0  0  0
   -5.4553    2.0469   -1.2990 F   0  0  0  0  0  0  0  0  0  0  0  0
   -4.3044    4.1358   -0.3098 F   0  0  0  0  0  0  0  0  0  0  0  0
   -6.7962    3.5118   -0.1432 F   0  0  0  0  0  0  0  0  0  0  0  0
   -5.3211    2.1506    0.9758 F   0  0  0  0  0  0  0  0  0  0  0  0
  1 11  2  0  0  0  0
  2  1  1  0  0  0  0
  3  2  1  0  0  0  0
  4  5  2  0  0  0  0
  4  1  1  0  0  0  0
  5  6  1  0  0  0  0
  6  7  1  0  0  0  0
  6 10  2  0  0  0  0
  7  9  2  0  0  0  0
  8  7  2  0  0  0  0
 10 14  1  0  0  0  0
 11 10  1  0  0  0  0
 11 15  1  0  0  0  0
 13  5  1  0  0  0  0
 16 19  1  0  0  0  0
 16 20  1  0  0  0  0
 17 16  1  0  0  0  0
 18 12  1  0  0  0  0
M  RAD  3   2   2   3   3   4   2
M  END
