Coordinates from ORCA-job 4-NO2PhN2+~BF4-_B3LYPG-6-31G_dp-CH-Scan-d09-49-n800
 OpenBabel11261918593D

 20 18  0  0  0  0  0  0  0  0999 V2000
   -1.8027   -0.0763   -0.0086 C   0  0  0  0  0  0  0  0  0  0  0  0
   -3.1934   -0.2568   -0.0486 N   0  0  0  0  0  0  0  0  0  0  0  0
   -4.3064   -0.3315   -0.0841 N   0  0  0  0  0  0  0  0  0  0  0  0
   -1.4313    1.2702   -0.0650 C   0  0  0  0  0  0  0  0  0  0  0  0
   -0.0097    1.3791   -0.0218 C   0  0  0  0  0  0  0  0  0  0  0  0
    0.8129    0.2657    0.0631 C   0  0  0  0  0  0  0  0  0  0  0  0
    2.2881    0.4537    0.1026 N   0  0  0  0  0  0  0  0  0  0  0  0
    2.7178    1.6019    0.0557 O   0  0  0  0  0  0  0  0  0  0  0  0
    2.9854   -0.5573    0.1800 O   0  0  0  0  0  0  0  0  0  0  0  0
    0.3391   -1.0629    0.1158 C   0  0  0  0  0  0  0  0  0  0  0  0
   -1.0217   -1.2594    0.0795 C   0  0  0  0  0  0  0  0  0  0  0  0
   -3.5331    3.8053   -0.2453 H   0  0  0  0  0  0  0  0  0  0  0  0
    0.4691    2.3535   -0.0556 H   0  0  0  0  0  0  0  0  0  0  0  0
    1.0419   -1.8821    0.1825 H   0  0  0  0  0  0  0  0  0  0  0  0
   -1.4606   -2.2522    0.1164 H   0  0  0  0  0  0  0  0  0  0  0  0
   -5.8140    2.6568   -0.1675 B   0  0  0  0  0  0  0  0  0  0  0  0
   -5.4880    2.0475   -1.3048 F   0  0  0  0  0  0  0  0  0  0  0  0
   -4.3754    4.1898   -0.3548 F   0  0  0  0  0  0  0  0  0  0  0  0
   -6.8479    3.4774   -0.1285 F   0  0  0  0  0  0  0  0  0  0  0  0
   -5.3011    2.1769    0.9651 F   0  0  0  0  0  0  0  0  0  0  0  0
  1 11  2  0  0  0  0
  2  1  1  0  0  0  0
  3  2  1  0  0  0  0
  4  5  2  0  0  0  0
  4  1  1  0  0  0  0
  5  6  1  0  0  0  0
  6  7  1  0  0  0  0
  6 10  2  0  0  0  0
  7  9  2  0  0  0  0
  8  7  2  0  0  0  0
 10 14  1  0  0  0  0
 11 10  1  0  0  0  0
 11 15  1  0  0  0  0
 13  5  1  0  0  0  0
 16 19  1  0  0  0  0
 16 20  1  0  0  0  0
 17 16  1  0  0  0  0
 18 12  1  0  0  0  0
M  RAD  3   2   2   3   3   4   2
M  END
