Coordinates from ORCA-job 4-NO2PhN2+~BF4-_B3LYPG-6-31G_dp-CH-Scan-d09-49-n800
 OpenBabel11261918593D

 20 18  0  0  0  0  0  0  0  0999 V2000
   -1.7644   -0.0818    0.0213 C   0  0  0  0  0  0  0  0  0  0  0  0
   -3.1593   -0.2427   -0.0100 N   0  0  0  0  0  0  0  0  0  0  0  0
   -4.2742   -0.2942   -0.0319 N   0  0  0  0  0  0  0  0  0  0  0  0
   -1.3847    1.2624    0.0217 C   0  0  0  0  0  0  0  0  0  0  0  0
    0.0392    1.3564    0.0555 C   0  0  0  0  0  0  0  0  0  0  0  0
    0.8522    0.2332    0.0822 C   0  0  0  0  0  0  0  0  0  0  0  0
    2.3293    0.4056    0.1166 N   0  0  0  0  0  0  0  0  0  0  0  0
    2.7700    1.5508    0.1189 O   0  0  0  0  0  0  0  0  0  0  0  0
    3.0182   -0.6139    0.1409 O   0  0  0  0  0  0  0  0  0  0  0  0
    0.3669   -1.0930    0.0791 C   0  0  0  0  0  0  0  0  0  0  0  0
   -0.9957   -1.2759    0.0477 C   0  0  0  0  0  0  0  0  0  0  0  0
   -3.7216    4.0261   -0.2358 H   0  0  0  0  0  0  0  0  0  0  0  0
    0.5270    2.3271    0.0609 H   0  0  0  0  0  0  0  0  0  0  0  0
    1.0631   -1.9202    0.1012 H   0  0  0  0  0  0  0  0  0  0  0  0
   -1.4439   -2.2655    0.0435 H   0  0  0  0  0  0  0  0  0  0  0  0
   -5.8650    2.6550   -0.1742 B   0  0  0  0  0  0  0  0  0  0  0  0
   -5.6615    1.9913   -1.3058 F   0  0  0  0  0  0  0  0  0  0  0  0
   -4.5356    4.2620   -0.6221 F   0  0  0  0  0  0  0  0  0  0  0  0
   -6.9338    3.4171   -0.0332 F   0  0  0  0  0  0  0  0  0  0  0  0
   -5.1573    2.2995    0.8998 F   0  0  0  0  0  0  0  0  0  0  0  0
  1  4  2  0  0  0  0
  1 11  1  0  0  0  0
  2  1  1  0  0  0  0
  3  2  1  0  0  0  0
  4  5  1  0  0  0  0
  5 13  1  0  0  0  0
  5  6  2  0  0  0  0
  6  7  1  0  0  0  0
  7  8  2  0  0  0  0
  7  9  2  0  0  0  0
 10  6  1  0  0  0  0
 10 14  1  0  0  0  0
 11 10  2  0  0  0  0
 15 11  1  0  0  0  0
 16 19  1  0  0  0  0
 16 20  1  0  0  0  0
 17 16  1  0  0  0  0
 18 12  1  0  0  0  0
M  RAD  3   2   2   3   3   4   2
M  END
