Coordinates from ORCA-job 4-NO2PhN2+~BF4-_B3LYPG-6-31G_dp-CH-Scan-d09-49-n800
 OpenBabel11261918593D

 20 18  0  0  0  0  0  0  0  0999 V2000
   -2.1484    0.0440   -0.1830 C   0  0  0  0  0  0  0  0  0  0  0  0
   -3.5020   -0.2404   -0.3414 N   0  0  0  0  0  0  0  0  0  0  0  0
   -4.5805   -0.4588   -0.5024 N   0  0  0  0  0  0  0  0  0  0  0  0
   -1.7427    1.3791   -0.3205 C   0  0  0  0  0  0  0  0  0  0  0  0
   -0.3651    1.5878   -0.1794 C   0  0  0  0  0  0  0  0  0  0  0  0
    0.4824    0.5165    0.0808 C   0  0  0  0  0  0  0  0  0  0  0  0
    1.9390    0.7757    0.2283 N   0  0  0  0  0  0  0  0  0  0  0  0
    2.3192    1.9333    0.0988 O   0  0  0  0  0  0  0  0  0  0  0  0
    2.6558   -0.1921    0.4687 O   0  0  0  0  0  0  0  0  0  0  0  0
    0.0416   -0.8060    0.2153 C   0  0  0  0  0  0  0  0  0  0  0  0
   -1.3099   -1.0607    0.0785 C   0  0  0  0  0  0  0  0  0  0  0  0
   -2.6924    2.4098   -0.5203 H   0  0  0  0  0  0  0  0  0  0  0  0
    0.0564    2.5823   -0.2646 H   0  0  0  0  0  0  0  0  0  0  0  0
    0.7552   -1.5928    0.4206 H   0  0  0  0  0  0  0  0  0  0  0  0
   -1.7105   -2.0643    0.1706 H   0  0  0  0  0  0  0  0  0  0  0  0
   -4.8926    2.6368    0.0171 B   0  0  0  0  0  0  0  0  0  0  0  0
   -5.4493    1.8089   -0.9626 F   0  0  0  0  0  0  0  0  0  0  0  0
   -3.6887    3.2673   -0.6195 F   0  0  0  0  0  0  0  0  0  0  0  0
   -5.7198    3.6263    0.4380 F   0  0  0  0  0  0  0  0  0  0  0  0
   -4.3787    1.8466    1.0533 F   0  0  0  0  0  0  0  0  0  0  0  0
  1 11  1  0  0  0  0
  2  1  1  0  0  0  0
  3  2  1  0  0  0  0
  4  1  2  0  0  0  0
  4  5  1  0  0  0  0
  5  6  2  0  0  0  0
  6 10  1  0  0  0  0
  6  7  1  0  0  0  0
  7  9  2  0  0  0  0
  8  7  2  0  0  0  0
 10 14  1  0  0  0  0
 11 15  1  0  0  0  0
 11 10  2  0  0  0  0
 13  5  1  0  0  0  0
 16 19  1  0  0  0  0
 16 20  1  0  0  0  0
 17 16  1  0  0  0  0
 18 12  1  0  0  0  0
M  RAD  3   2   2   3   3   4   2
M  END
