Coordinates from ORCA-job 4-NO2PhN2+~BF4-_B3LYPG-6-31G_dp-CH-Scan-d09-49-n800
 OpenBabel11261918593D

 20 18  0  0  0  0  0  0  0  0999 V2000
   -1.6912   -0.0733    0.0296 C   0  0  0  0  0  0  0  0  0  0  0  0
   -3.0919   -0.1929   -0.0060 N   0  0  0  0  0  0  0  0  0  0  0  0
   -4.2082   -0.2057   -0.0328 N   0  0  0  0  0  0  0  0  0  0  0  0
   -1.2808    1.2599    0.0573 C   0  0  0  0  0  0  0  0  0  0  0  0
    0.1456    1.3179    0.0953 C   0  0  0  0  0  0  0  0  0  0  0  0
    0.9299    0.1742    0.1008 C   0  0  0  0  0  0  0  0  0  0  0  0
    2.4107    0.3080    0.1413 N   0  0  0  0  0  0  0  0  0  0  0  0
    2.8811    1.4410    0.1658 O   0  0  0  0  0  0  0  0  0  0  0  0
    3.0740   -0.7290    0.1417 O   0  0  0  0  0  0  0  0  0  0  0  0
    0.4114   -1.1397    0.0700 C   0  0  0  0  0  0  0  0  0  0  0  0
   -0.9551   -1.2881    0.0327 C   0  0  0  0  0  0  0  0  0  0  0  0
   -4.0896    4.3386   -0.2540 H   0  0  0  0  0  0  0  0  0  0  0  0
    0.6574    2.2761    0.1210 H   0  0  0  0  0  0  0  0  0  0  0  0
    1.0871   -1.9840    0.0765 H   0  0  0  0  0  0  0  0  0  0  0  0
   -1.4282   -2.2658    0.0077 H   0  0  0  0  0  0  0  0  0  0  0  0
   -5.9577    2.6544   -0.1717 B   0  0  0  0  0  0  0  0  0  0  0  0
   -5.8231    1.9823   -1.3053 F   0  0  0  0  0  0  0  0  0  0  0  0
   -4.8450    4.3934   -0.7954 F   0  0  0  0  0  0  0  0  0  0  0  0
   -7.0788    3.2996    0.0928 F   0  0  0  0  0  0  0  0  0  0  0  0
   -5.0786    2.4325    0.8087 F   0  0  0  0  0  0  0  0  0  0  0  0
  1 11  2  0  0  0  0
  1  4  1  0  0  0  0
  2  1  1  0  0  0  0
  3  2  1  0  0  0  0
  4  5  2  0  0  0  0
  5  6  1  0  0  0  0
  5 13  1  0  0  0  0
  6  7  1  0  0  0  0
  7  9  2  0  0  0  0
  7  8  2  0  0  0  0
 10 14  1  0  0  0  0
 10  6  2  0  0  0  0
 11 10  1  0  0  0  0
 15 11  1  0  0  0  0
 16 19  1  0  0  0  0
 16 20  1  0  0  0  0
 17 16  1  0  0  0  0
 18 12  1  0  0  0  0
M  RAD  3   2   2   3   3   4   2
M  END
