Coordinates from ORCA-job 4-NO2PhN2+~BF4-_B3LYPG-6-31G_dp-CH-Scan-d09-49-n800
 OpenBabel11261918593D

 20 18  0  0  0  0  0  0  0  0999 V2000
   -2.0767   -0.0092   -0.0378 C   0  0  0  0  0  0  0  0  0  0  0  0
   -3.4419   -0.2957   -0.0802 N   0  0  0  0  0  0  0  0  0  0  0  0
   -4.5369   -0.4907   -0.1177 N   0  0  0  0  0  0  0  0  0  0  0  0
   -1.7327    1.3494   -0.1033 C   0  0  0  0  0  0  0  0  0  0  0  0
   -0.3320    1.5389   -0.0540 C   0  0  0  0  0  0  0  0  0  0  0  0
    0.5435    0.4663    0.0468 C   0  0  0  0  0  0  0  0  0  0  0  0
    2.0062    0.7311    0.0947 N   0  0  0  0  0  0  0  0  0  0  0  0
    2.3711    1.9005    0.0493 O   0  0  0  0  0  0  0  0  0  0  0  0
    2.7498   -0.2440    0.1804 O   0  0  0  0  0  0  0  0  0  0  0  0
    0.1302   -0.8755    0.1074 C   0  0  0  0  0  0  0  0  0  0  0  0
   -1.2225   -1.1350    0.0646 C   0  0  0  0  0  0  0  0  0  0  0  0
   -2.9005    2.6763   -0.2138 H   0  0  0  0  0  0  0  0  0  0  0  0
    0.0891    2.5376   -0.0942 H   0  0  0  0  0  0  0  0  0  0  0  0
    0.8666   -1.6639    0.1853 H   0  0  0  0  0  0  0  0  0  0  0  0
   -1.6106   -2.1476    0.1077 H   0  0  0  0  0  0  0  0  0  0  0  0
   -5.1206    2.6775   -0.1391 B   0  0  0  0  0  0  0  0  0  0  0  0
   -5.1406    1.8798   -1.2490 F   0  0  0  0  0  0  0  0  0  0  0  0
   -3.6264    3.4042   -0.2692 F   0  0  0  0  0  0  0  0  0  0  0  0
   -5.9591    3.7245   -0.1269 F   0  0  0  0  0  0  0  0  0  0  0  0
   -4.9871    1.9748    1.0252 F   0  0  0  0  0  0  0  0  0  0  0  0
  1 11  2  0  0  0  0
  2  1  1  0  0  0  0
  3  2  1  0  0  0  0
  4  5  2  0  0  0  0
  4  1  1  0  0  0  0
  5  6  1  0  0  0  0
  6  7  1  0  0  0  0
  6 10  2  0  0  0  0
  7  9  2  0  0  0  0
  8  7  2  0  0  0  0
 10 14  1  0  0  0  0
 11 10  1  0  0  0  0
 11 15  1  0  0  0  0
 13  5  1  0  0  0  0
 16 19  1  0  0  0  0
 16 20  1  0  0  0  0
 17 16  1  0  0  0  0
 18 12  1  0  0  0  0
M  RAD  3   2   2   3   3   4   2
M  END
