Coordinates from ORCA-job 4-NO2PhN2+~BF4-_B3LYPG-6-31G_dp-CH-Scan-d09-49-n800
 OpenBabel11261918593D

 20 18  0  0  0  0  0  0  0  0999 V2000
   -1.7679   -0.0811    0.0218 C   0  0  0  0  0  0  0  0  0  0  0  0
   -3.1626   -0.2440   -0.0079 N   0  0  0  0  0  0  0  0  0  0  0  0
   -4.2773   -0.2983   -0.0315 N   0  0  0  0  0  0  0  0  0  0  0  0
   -1.3890    1.2633    0.0201 C   0  0  0  0  0  0  0  0  0  0  0  0
    0.0348    1.3584    0.0535 C   0  0  0  0  0  0  0  0  0  0  0  0
    0.8488    0.2359    0.0811 C   0  0  0  0  0  0  0  0  0  0  0  0
    2.3257    0.4096    0.1144 N   0  0  0  0  0  0  0  0  0  0  0  0
    2.7655    1.5551    0.1158 O   0  0  0  0  0  0  0  0  0  0  0  0
    3.0155   -0.6094    0.1392 O   0  0  0  0  0  0  0  0  0  0  0  0
    0.3644   -1.0906    0.0795 C   0  0  0  0  0  0  0  0  0  0  0  0
   -0.9981   -1.2745    0.0490 C   0  0  0  0  0  0  0  0  0  0  0  0
   -3.7069    4.0107   -0.2319 H   0  0  0  0  0  0  0  0  0  0  0  0
    0.5218    2.3295    0.0577 H   0  0  0  0  0  0  0  0  0  0  0  0
    1.0613   -1.9172    0.1022 H   0  0  0  0  0  0  0  0  0  0  0  0
   -1.4454   -2.2644    0.0463 H   0  0  0  0  0  0  0  0  0  0  0  0
   -5.8600    2.6546   -0.1759 B   0  0  0  0  0  0  0  0  0  0  0  0
   -5.6509    1.9917   -1.3071 F   0  0  0  0  0  0  0  0  0  0  0  0
   -4.5215    4.2555   -0.6114 F   0  0  0  0  0  0  0  0  0  0  0  0
   -6.9263    3.4214   -0.0419 F   0  0  0  0  0  0  0  0  0  0  0  0
   -5.1630    2.2930    0.9030 F   0  0  0  0  0  0  0  0  0  0  0  0
  1 11  1  0  0  0  0
  2  1  1  0  0  0  0
  3  2  1  0  0  0  0
  4  1  2  0  0  0  0
  4  5  1  0  0  0  0
  5 13  1  0  0  0  0
  5  6  2  0  0  0  0
  6  7  1  0  0  0  0
  7  8  2  0  0  0  0
  7  9  2  0  0  0  0
 10  6  1  0  0  0  0
 10 14  1  0  0  0  0
 11 10  2  0  0  0  0
 15 11  1  0  0  0  0
 16 19  1  0  0  0  0
 16 20  1  0  0  0  0
 17 16  1  0  0  0  0
 18 12  1  0  0  0  0
M  RAD  3   2   2   3   3   4   2
M  END
