Coordinates from ORCA-job 4-NO2PhN2+~BF4-_B3LYPG-6-31G_dp-CH-Scan-d09-49-n800
 OpenBabel11261918593D

 20 18  0  0  0  0  0  0  0  0999 V2000
   -1.8177   -0.0721   -0.0144 C   0  0  0  0  0  0  0  0  0  0  0  0
   -3.2068   -0.2601   -0.0550 N   0  0  0  0  0  0  0  0  0  0  0  0
   -4.3190   -0.3451   -0.0890 N   0  0  0  0  0  0  0  0  0  0  0  0
   -1.4488    1.2752   -0.0770 C   0  0  0  0  0  0  0  0  0  0  0  0
   -0.0281    1.3891   -0.0322 C   0  0  0  0  0  0  0  0  0  0  0  0
    0.7979    0.2789    0.0603 C   0  0  0  0  0  0  0  0  0  0  0  0
    2.2723    0.4720    0.1022 N   0  0  0  0  0  0  0  0  0  0  0  0
    2.6981    1.6214    0.0519 O   0  0  0  0  0  0  0  0  0  0  0  0
    2.9726   -0.5365    0.1850 O   0  0  0  0  0  0  0  0  0  0  0  0
    0.3280   -1.0508    0.1188 C   0  0  0  0  0  0  0  0  0  0  0  0
   -1.0320   -1.2516    0.0809 C   0  0  0  0  0  0  0  0  0  0  0  0
   -3.4798    3.7191   -0.2580 H   0  0  0  0  0  0  0  0  0  0  0  0
    0.4474    2.3649   -0.0702 H   0  0  0  0  0  0  0  0  0  0  0  0
    1.0332   -1.8675    0.1908 H   0  0  0  0  0  0  0  0  0  0  0  0
   -1.4677   -2.2456    0.1219 H   0  0  0  0  0  0  0  0  0  0  0  0
   -5.7893    2.6603   -0.1633 B   0  0  0  0  0  0  0  0  0  0  0  0
   -5.4599    2.0462   -1.2982 F   0  0  0  0  0  0  0  0  0  0  0  0
   -4.3109    4.1398   -0.3145 F   0  0  0  0  0  0  0  0  0  0  0  0
   -6.8012    3.5090   -0.1402 F   0  0  0  0  0  0  0  0  0  0  0  0
   -5.3194    2.1528    0.9761 F   0  0  0  0  0  0  0  0  0  0  0  0
  1 11  2  0  0  0  0
  2  1  1  0  0  0  0
  3  2  1  0  0  0  0
  4  5  2  0  0  0  0
  4  1  1  0  0  0  0
  5  6  1  0  0  0  0
  6  7  1  0  0  0  0
  6 10  2  0  0  0  0
  7  9  2  0  0  0  0
  8  7  2  0  0  0  0
 10 14  1  0  0  0  0
 11 10  1  0  0  0  0
 11 15  1  0  0  0  0
 13  5  1  0  0  0  0
 16 19  1  0  0  0  0
 16 20  1  0  0  0  0
 17 16  1  0  0  0  0
 18 12  1  0  0  0  0
M  RAD  3   2   2   3   3   4   2
M  END
