Coordinates from ORCA-job 4-NO2PhN2+~BF4-_B3LYPG-6-31G_dp-CH-Scan-d09-49-n800
 OpenBabel11261918593D

 20 18  0  0  0  0  0  0  0  0999 V2000
   -1.7359   -0.0810    0.0114 C   0  0  0  0  0  0  0  0  0  0  0  0
   -3.1331   -0.2268   -0.0293 N   0  0  0  0  0  0  0  0  0  0  0  0
   -4.2486   -0.2623   -0.0604 N   0  0  0  0  0  0  0  0  0  0  0  0
   -1.3459    1.2595    0.0127 C   0  0  0  0  0  0  0  0  0  0  0  0
    0.0788    1.3412    0.0559 C   0  0  0  0  0  0  0  0  0  0  0  0
    0.8817    0.2109    0.0896 C   0  0  0  0  0  0  0  0  0  0  0  0
    2.3600    0.3702    0.1337 N   0  0  0  0  0  0  0  0  0  0  0  0
    2.8111    1.5113    0.1362 O   0  0  0  0  0  0  0  0  0  0  0  0
    3.0398   -0.6554    0.1667 O   0  0  0  0  0  0  0  0  0  0  0  0
    0.3848   -1.1113    0.0851 C   0  0  0  0  0  0  0  0  0  0  0  0
   -0.9791   -1.2825    0.0444 C   0  0  0  0  0  0  0  0  0  0  0  0
   -3.8491    4.1449   -0.2475 H   0  0  0  0  0  0  0  0  0  0  0  0
    0.5750    2.3077    0.0634 H   0  0  0  0  0  0  0  0  0  0  0  0
    1.0738   -1.9442    0.1133 H   0  0  0  0  0  0  0  0  0  0  0  0
   -1.4360   -2.2681    0.0386 H   0  0  0  0  0  0  0  0  0  0  0  0
   -5.9042    2.6555   -0.1626 B   0  0  0  0  0  0  0  0  0  0  0  0
   -5.7427    2.0001   -1.3044 F   0  0  0  0  0  0  0  0  0  0  0  0
   -4.6547    4.3183   -0.6810 F   0  0  0  0  0  0  0  0  0  0  0  0
   -6.9920    3.3741    0.0448 F   0  0  0  0  0  0  0  0  0  0  0  0
   -5.1150    2.3374    0.8658 F   0  0  0  0  0  0  0  0  0  0  0  0
  1  4  2  0  0  0  0
  1 11  1  0  0  0  0
  2  1  1  0  0  0  0
  3  2  1  0  0  0  0
  4  5  1  0  0  0  0
  5 13  1  0  0  0  0
  5  6  2  0  0  0  0
  6  7  1  0  0  0  0
  7  8  2  0  0  0  0
  7  9  2  0  0  0  0
 10  6  1  0  0  0  0
 10 14  1  0  0  0  0
 11 10  2  0  0  0  0
 15 11  1  0  0  0  0
 16 19  1  0  0  0  0
 16 20  1  0  0  0  0
 17 16  1  0  0  0  0
 18 12  1  0  0  0  0
M  RAD  3   2   2   3   3   4   2
M  END
