Coordinates from ORCA-job 4-NO2PhN2+~BF4-_B3LYPG-6-31G_dp-CH-Scan-d09-49-n800
 OpenBabel11261918593D

 20 18  0  0  0  0  0  0  0  0999 V2000
   -1.8782   -0.0605   -0.0101 C   0  0  0  0  0  0  0  0  0  0  0  0
   -3.2616   -0.2745   -0.0431 N   0  0  0  0  0  0  0  0  0  0  0  0
   -4.3707   -0.3892   -0.0729 N   0  0  0  0  0  0  0  0  0  0  0  0
   -1.5213    1.2916   -0.0744 C   0  0  0  0  0  0  0  0  0  0  0  0
   -0.1041    1.4259   -0.0359 C   0  0  0  0  0  0  0  0  0  0  0  0
    0.7371    0.3267    0.0529 C   0  0  0  0  0  0  0  0  0  0  0  0
    2.2089    0.5405    0.0885 N   0  0  0  0  0  0  0  0  0  0  0  0
    2.6175    1.6959    0.0389 O   0  0  0  0  0  0  0  0  0  0  0  0
    2.9228   -0.4587    0.1655 O   0  0  0  0  0  0  0  0  0  0  0  0
    0.2849   -1.0079    0.1130 C   0  0  0  0  0  0  0  0  0  0  0  0
   -1.0728   -1.2266    0.0812 C   0  0  0  0  0  0  0  0  0  0  0  0
   -3.3127    3.4348   -0.2250 H   0  0  0  0  0  0  0  0  0  0  0  0
    0.3569    2.4082   -0.0761 H   0  0  0  0  0  0  0  0  0  0  0  0
    1.0005   -1.8159    0.1817 H   0  0  0  0  0  0  0  0  0  0  0  0
   -1.4943   -2.2265    0.1240 H   0  0  0  0  0  0  0  0  0  0  0  0
   -5.6651    2.6704   -0.1732 B   0  0  0  0  0  0  0  0  0  0  0  0
   -5.3652    2.0119   -1.2960 F   0  0  0  0  0  0  0  0  0  0  0  0
   -4.0958    3.9504   -0.2578 F   0  0  0  0  0  0  0  0  0  0  0  0
   -6.6056    3.6004   -0.1882 F   0  0  0  0  0  0  0  0  0  0  0  0
   -5.3122    2.1023    0.9834 F   0  0  0  0  0  0  0  0  0  0  0  0
  1 11  2  0  0  0  0
  2  1  1  0  0  0  0
  3  2  1  0  0  0  0
  4  5  2  0  0  0  0
  4  1  1  0  0  0  0
  5  6  1  0  0  0  0
  6  7  1  0  0  0  0
  6 10  2  0  0  0  0
  7  9  2  0  0  0  0
  8  7  2  0  0  0  0
 10 14  1  0  0  0  0
 11 10  1  0  0  0  0
 11 15  1  0  0  0  0
 13  5  1  0  0  0  0
 16 20  1  0  0  0  0
 17 16  1  0  0  0  0
 18 12  1  0  0  0  0
 19 16  1  0  0  0  0
M  RAD  3   2   2   3   3   4   2
M  END
