Coordinates from ORCA-job 4-NO2PhN2+~BF4-_B3LYPG-6-31G_dp-CH-Scan-d09-49-n800
 OpenBabel11261918593D

 20 18  0  0  0  0  0  0  0  0999 V2000
   -1.9505   -0.0410   -0.0132 C   0  0  0  0  0  0  0  0  0  0  0  0
   -3.3269   -0.2843   -0.0494 N   0  0  0  0  0  0  0  0  0  0  0  0
   -4.4305   -0.4370   -0.0830 N   0  0  0  0  0  0  0  0  0  0  0  0
   -1.6024    1.3147   -0.0774 C   0  0  0  0  0  0  0  0  0  0  0  0
   -0.1901    1.4702   -0.0390 C   0  0  0  0  0  0  0  0  0  0  0  0
    0.6655    0.3817    0.0501 C   0  0  0  0  0  0  0  0  0  0  0  0
    2.1341    0.6157    0.0842 N   0  0  0  0  0  0  0  0  0  0  0  0
    2.5258    1.7766    0.0323 O   0  0  0  0  0  0  0  0  0  0  0  0
    2.8604   -0.3740    0.1622 O   0  0  0  0  0  0  0  0  0  0  0  0
    0.2298   -0.9568    0.1116 C   0  0  0  0  0  0  0  0  0  0  0  0
   -1.1256   -1.1926    0.0797 C   0  0  0  0  0  0  0  0  0  0  0  0
   -3.1526    3.1251   -0.2068 H   0  0  0  0  0  0  0  0  0  0  0  0
    0.2560    2.4588   -0.0799 H   0  0  0  0  0  0  0  0  0  0  0  0
    0.9547   -1.7564    0.1813 H   0  0  0  0  0  0  0  0  0  0  0  0
   -1.5333   -2.1979    0.1233 H   0  0  0  0  0  0  0  0  0  0  0  0
   -5.4827    2.6800   -0.1687 B   0  0  0  0  0  0  0  0  0  0  0  0
   -5.2933    1.9671   -1.2910 F   0  0  0  0  0  0  0  0  0  0  0  0
   -3.8926    3.7207   -0.2519 F   0  0  0  0  0  0  0  0  0  0  0  0
   -6.3545    3.6811   -0.1767 F   0  0  0  0  0  0  0  0  0  0  0  0
   -5.2224    2.0477    0.9884 F   0  0  0  0  0  0  0  0  0  0  0  0
  1 11  2  0  0  0  0
  2  1  1  0  0  0  0
  3  2  1  0  0  0  0
  4  5  2  0  0  0  0
  4  1  1  0  0  0  0
  5  6  1  0  0  0  0
  6  7  1  0  0  0  0
  6 10  2  0  0  0  0
  7  9  2  0  0  0  0
  8  7  2  0  0  0  0
 10 14  1  0  0  0  0
 11 10  1  0  0  0  0
 11 15  1  0  0  0  0
 13  5  1  0  0  0  0
 16 20  1  0  0  0  0
 17 16  1  0  0  0  0
 18 12  1  0  0  0  0
 19 16  1  0  0  0  0
M  RAD  3   2   2   3   3   4   2
M  END
