Coordinates from ORCA-job 4-NO2PhN2+~BF4-_B3LYPG-6-31G_dp-CH-Scan-d09-49-n800
 OpenBabel11261918593D

 20 18  0  0  0  0  0  0  0  0999 V2000
   -1.6970   -0.0758    0.0281 C   0  0  0  0  0  0  0  0  0  0  0  0
   -3.0972   -0.1984   -0.0079 N   0  0  0  0  0  0  0  0  0  0  0  0
   -4.2135   -0.2131   -0.0347 N   0  0  0  0  0  0  0  0  0  0  0  0
   -1.2900    1.2586    0.0541 C   0  0  0  0  0  0  0  0  0  0  0  0
    0.1363    1.3202    0.0922 C   0  0  0  0  0  0  0  0  0  0  0  0
    0.9235    0.1785    0.0993 C   0  0  0  0  0  0  0  0  0  0  0  0
    2.4039    0.3161    0.1398 N   0  0  0  0  0  0  0  0  0  0  0  0
    2.8714    1.4504    0.1655 O   0  0  0  0  0  0  0  0  0  0  0  0
    3.0698   -0.7192    0.1454 O   0  0  0  0  0  0  0  0  0  0  0  0
    0.4084   -1.1368    0.0704 C   0  0  0  0  0  0  0  0  0  0  0  0
   -0.9578   -1.2887    0.0331 C   0  0  0  0  0  0  0  0  0  0  0  0
   -4.0650    4.3210   -0.2527 H   0  0  0  0  0  0  0  0  0  0  0  0
    0.6457    2.2797    0.1166 H   0  0  0  0  0  0  0  0  0  0  0  0
    1.0862   -1.9793    0.0783 H   0  0  0  0  0  0  0  0  0  0  0  0
   -1.4284   -2.2676    0.0094 H   0  0  0  0  0  0  0  0  0  0  0  0
   -5.9488    2.6545   -0.1704 B   0  0  0  0  0  0  0  0  0  0  0  0
   -5.8169    1.9826   -1.3045 F   0  0  0  0  0  0  0  0  0  0  0  0
   -4.8226    4.3848   -0.7900 F   0  0  0  0  0  0  0  0  0  0  0  0
   -7.0657    3.3075    0.0925 F   0  0  0  0  0  0  0  0  0  0  0  0
   -5.0736    2.4243    0.8117 F   0  0  0  0  0  0  0  0  0  0  0  0
  1 11  2  0  0  0  0
  1  4  1  0  0  0  0
  2  1  1  0  0  0  0
  3  2  1  0  0  0  0
  4  5  2  0  0  0  0
  5  6  1  0  0  0  0
  5 13  1  0  0  0  0
  6  7  1  0  0  0  0
  7  9  2  0  0  0  0
  7  8  2  0  0  0  0
 10 14  1  0  0  0  0
 10  6  2  0  0  0  0
 11 10  1  0  0  0  0
 15 11  1  0  0  0  0
 16 19  1  0  0  0  0
 16 20  1  0  0  0  0
 17 16  1  0  0  0  0
 18 12  1  0  0  0  0
M  RAD  3   2   2   3   3   4   2
M  END
