Coordinates from ORCA-job 4-NO2PhN2+~BF4-_B3LYPG-6-31G_dp-CH-Scan-d09-49-n800
 OpenBabel11261918593D

 20 18  0  0  0  0  0  0  0  0999 V2000
   -1.6031   -0.0400    0.0457 C   0  0  0  0  0  0  0  0  0  0  0  0
   -3.0083   -0.1006    0.0151 N   0  0  0  0  0  0  0  0  0  0  0  0
   -4.1244   -0.0608   -0.0067 N   0  0  0  0  0  0  0  0  0  0  0  0
   -1.1439    1.2762    0.0840 C   0  0  0  0  0  0  0  0  0  0  0  0
    0.2841    1.2815    0.1157 C   0  0  0  0  0  0  0  0  0  0  0  0
    1.0244    0.1090    0.1084 C   0  0  0  0  0  0  0  0  0  0  0  0
    2.5093    0.1864    0.1444 N   0  0  0  0  0  0  0  0  0  0  0  0
    3.0221    1.3004    0.1869 O   0  0  0  0  0  0  0  0  0  0  0  0
    3.1334   -0.8746    0.1298 O   0  0  0  0  0  0  0  0  0  0  0  0
    0.4569   -1.1847    0.0679 C   0  0  0  0  0  0  0  0  0  0  0  0
   -0.9144   -1.2820    0.0346 C   0  0  0  0  0  0  0  0  0  0  0  0
   -4.4584    4.5548   -0.2595 H   0  0  0  0  0  0  0  0  0  0  0  0
    0.8312    2.2198    0.1470 H   0  0  0  0  0  0  0  0  0  0  0  0
    1.1010   -2.0534    0.0639 H   0  0  0  0  0  0  0  0  0  0  0  0
   -1.4240   -2.2410    0.0019 H   0  0  0  0  0  0  0  0  0  0  0  0
   -6.0892    2.6575   -0.1959 B   0  0  0  0  0  0  0  0  0  0  0  0
   -5.9021    2.0105   -1.3354 F   0  0  0  0  0  0  0  0  0  0  0  0
   -5.1915    4.5272   -0.8324 F   0  0  0  0  0  0  0  0  0  0  0  0
   -7.2719    3.1628    0.1006 F   0  0  0  0  0  0  0  0  0  0  0  0
   -5.1623    2.5505    0.7603 F   0  0  0  0  0  0  0  0  0  0  0  0
  1  4  1  0  0  0  0
  2  1  1  0  0  0  0
  3  2  1  0  0  0  0
  4  5  2  0  0  0  0
  5 13  1  0  0  0  0
  6  5  1  0  0  0  0
  6  7  1  0  0  0  0
  7  8  2  0  0  0  0
  9  7  2  0  0  0  0
 10  6  2  0  0  0  0
 11  1  2  0  0  0  0
 11 10  1  0  0  0  0
 14 10  1  0  0  0  0
 15 11  1  0  0  0  0
 16 19  1  0  0  0  0
 16 20  1  0  0  0  0
 17 16  1  0  0  0  0
 18 12  1  0  0  0  0
M  RAD  3   2   2   3   3   4   2
M  END
