Coordinates from ORCA-job 4-NO2PhN2+~BF4-_B3LYPG-6-31G_dp-CH-Scan-d09-49-n800
 OpenBabel11261918593D

 20 18  0  0  0  0  0  0  0  0999 V2000
   -1.8440   -0.0660   -0.0125 C   0  0  0  0  0  0  0  0  0  0  0  0
   -3.2306   -0.2662   -0.0483 N   0  0  0  0  0  0  0  0  0  0  0  0
   -4.3413   -0.3670   -0.0790 N   0  0  0  0  0  0  0  0  0  0  0  0
   -1.4800    1.2832   -0.0760 C   0  0  0  0  0  0  0  0  0  0  0  0
   -0.0608    1.4057   -0.0342 C   0  0  0  0  0  0  0  0  0  0  0  0
    0.7717    0.3002    0.0566 C   0  0  0  0  0  0  0  0  0  0  0  0
    2.2451    0.5020    0.0958 N   0  0  0  0  0  0  0  0  0  0  0  0
    2.6635    1.6541    0.0476 O   0  0  0  0  0  0  0  0  0  0  0  0
    2.9511   -0.5026    0.1756 O   0  0  0  0  0  0  0  0  0  0  0  0
    0.3093   -1.0317    0.1156 C   0  0  0  0  0  0  0  0  0  0  0  0
   -1.0498   -1.2399    0.0807 C   0  0  0  0  0  0  0  0  0  0  0  0
   -3.4018    3.5905   -0.2474 H   0  0  0  0  0  0  0  0  0  0  0  0
    0.4086    2.3843   -0.0733 H   0  0  0  0  0  0  0  0  0  0  0  0
    1.0189   -1.8447    0.1858 H   0  0  0  0  0  0  0  0  0  0  0  0
   -1.4794   -2.2365    0.1223 H   0  0  0  0  0  0  0  0  0  0  0  0
   -5.7389    2.6652   -0.1678 B   0  0  0  0  0  0  0  0  0  0  0  0
   -5.4180    2.0312   -1.2962 F   0  0  0  0  0  0  0  0  0  0  0  0
   -4.2119    4.0558   -0.2845 F   0  0  0  0  0  0  0  0  0  0  0  0
   -6.7177    3.5532   -0.1656 F   0  0  0  0  0  0  0  0  0  0  0  0
   -5.3251    2.1285    0.9812 F   0  0  0  0  0  0  0  0  0  0  0  0
  1 11  2  0  0  0  0
  2  1  1  0  0  0  0
  3  2  1  0  0  0  0
  4  5  2  0  0  0  0
  4  1  1  0  0  0  0
  5  6  1  0  0  0  0
  6  7  1  0  0  0  0
  6 10  2  0  0  0  0
  7  9  2  0  0  0  0
  8  7  2  0  0  0  0
 10 14  1  0  0  0  0
 11 10  1  0  0  0  0
 11 15  1  0  0  0  0
 13  5  1  0  0  0  0
 16 19  1  0  0  0  0
 16 20  1  0  0  0  0
 17 16  1  0  0  0  0
 18 12  1  0  0  0  0
M  RAD  3   2   2   3   3   4   2
M  END
