Coordinates from ORCA-job 4-NO2PhN2+~BF4-_B3LYPG-6-31G_dp-CH-Scan-d09-49-n800
 OpenBabel11261918593D

 20 18  0  0  0  0  0  0  0  0999 V2000
   -1.7790   -0.0817    0.0218 C   0  0  0  0  0  0  0  0  0  0  0  0
   -3.1726   -0.2504   -0.0068 N   0  0  0  0  0  0  0  0  0  0  0  0
   -4.2871   -0.3106   -0.0292 N   0  0  0  0  0  0  0  0  0  0  0  0
   -1.4041    1.2642    0.0168 C   0  0  0  0  0  0  0  0  0  0  0  0
    0.0193    1.3641    0.0491 C   0  0  0  0  0  0  0  0  0  0  0  0
    0.8371    0.2445    0.0785 C   0  0  0  0  0  0  0  0  0  0  0  0
    2.3134    0.4234    0.1104 N   0  0  0  0  0  0  0  0  0  0  0  0
    2.7491    1.5705    0.1102 O   0  0  0  0  0  0  0  0  0  0  0  0
    3.0067   -0.5932    0.1372 O   0  0  0  0  0  0  0  0  0  0  0  0
    0.3572   -1.0836    0.0802 C   0  0  0  0  0  0  0  0  0  0  0  0
   -1.0047   -1.2721    0.0511 C   0  0  0  0  0  0  0  0  0  0  0  0
   -3.6620    3.9640   -0.2308 H   0  0  0  0  0  0  0  0  0  0  0  0
    0.5029    2.3369    0.0508 H   0  0  0  0  0  0  0  0  0  0  0  0
    1.0568   -1.9078    0.1041 H   0  0  0  0  0  0  0  0  0  0  0  0
   -1.4486   -2.2636    0.0508 H   0  0  0  0  0  0  0  0  0  0  0  0
   -5.8422    2.6547   -0.1771 B   0  0  0  0  0  0  0  0  0  0  0  0
   -5.6248    1.9927   -1.3077 F   0  0  0  0  0  0  0  0  0  0  0  0
   -4.4790    4.2352   -0.5871 F   0  0  0  0  0  0  0  0  0  0  0  0
   -6.8999    3.4358   -0.0572 F   0  0  0  0  0  0  0  0  0  0  0  0
   -5.1696    2.2763    0.9113 F   0  0  0  0  0  0  0  0  0  0  0  0
  1 11  1  0  0  0  0
  2  1  1  0  0  0  0
  3  2  1  0  0  0  0
  4  1  2  0  0  0  0
  4  5  1  0  0  0  0
  5 13  1  0  0  0  0
  5  6  2  0  0  0  0
  6 10  1  0  0  0  0
  6  7  1  0  0  0  0
  7  9  2  0  0  0  0
  8  7  2  0  0  0  0
 10 14  1  0  0  0  0
 11 10  2  0  0  0  0
 15 11  1  0  0  0  0
 16 19  1  0  0  0  0
 16 20  1  0  0  0  0
 17 16  1  0  0  0  0
 18 12  1  0  0  0  0
M  RAD  3   2   2   3   3   4   2
M  END
