Coordinates from ORCA-job 4-NO2PhN2+~BF4-_B3LYPG-6-31G_dp-CH-Scan-d09-49-n800
 OpenBabel11261918593D

 20 18  0  0  0  0  0  0  0  0999 V2000
   -1.6516   -0.0615    0.0375 C   0  0  0  0  0  0  0  0  0  0  0  0
   -3.0547   -0.1567    0.0043 N   0  0  0  0  0  0  0  0  0  0  0  0
   -4.1713   -0.1487   -0.0193 N   0  0  0  0  0  0  0  0  0  0  0  0
   -1.2209    1.2645    0.0742 C   0  0  0  0  0  0  0  0  0  0  0  0
    0.2065    1.3005    0.1093 C   0  0  0  0  0  0  0  0  0  0  0  0
    0.9725    0.1446    0.1051 C   0  0  0  0  0  0  0  0  0  0  0  0
    2.4553    0.2547    0.1438 N   0  0  0  0  0  0  0  0  0  0  0  0
    2.9435    1.3799    0.1811 O   0  0  0  0  0  0  0  0  0  0  0  0
    3.1024   -0.7925    0.1349 O   0  0  0  0  0  0  0  0  0  0  0  0
    0.4335   -1.1610    0.0657 C   0  0  0  0  0  0  0  0  0  0  0  0
   -0.9352   -1.2880    0.0301 C   0  0  0  0  0  0  0  0  0  0  0  0
   -4.2583    4.4497   -0.2658 H   0  0  0  0  0  0  0  0  0  0  0  0
    0.7330    2.2505    0.1406 H   0  0  0  0  0  0  0  0  0  0  0  0
    1.0961   -2.0157    0.0646 H   0  0  0  0  0  0  0  0  0  0  0  0
   -1.4236   -2.2580   -0.0015 H   0  0  0  0  0  0  0  0  0  0  0  0
   -6.0170    2.6572   -0.1789 B   0  0  0  0  0  0  0  0  0  0  0  0
   -5.8666    1.9881   -1.3115 F   0  0  0  0  0  0  0  0  0  0  0  0
   -5.0009    4.4547   -0.8269 F   0  0  0  0  0  0  0  0  0  0  0  0
   -7.1647    3.2456    0.1026 F   0  0  0  0  0  0  0  0  0  0  0  0
   -5.1090    2.4912    0.7863 F   0  0  0  0  0  0  0  0  0  0  0  0
  1  4  1  0  0  0  0
  2  1  1  0  0  0  0
  3  2  1  0  0  0  0
  4  5  2  0  0  0  0
  5 13  1  0  0  0  0
  6  5  1  0  0  0  0
  6  7  1  0  0  0  0
  7  8  2  0  0  0  0
  9  7  2  0  0  0  0
 10  6  2  0  0  0  0
 11  1  2  0  0  0  0
 11 10  1  0  0  0  0
 14 10  1  0  0  0  0
 15 11  1  0  0  0  0
 16 19  1  0  0  0  0
 16 20  1  0  0  0  0
 17 16  1  0  0  0  0
 18 12  1  0  0  0  0
M  RAD  3   2   2   3   3   4   2
M  END
