Coordinates from ORCA-job 4-NO2PhN2+~BF4-_B3LYPG-6-31G_dp-CH-Scan-d09-49-n800
 OpenBabel11261918593D

 20 18  0  0  0  0  0  0  0  0999 V2000
   -1.8343   -0.0696   -0.0135 C   0  0  0  0  0  0  0  0  0  0  0  0
   -3.2218   -0.2650   -0.0511 N   0  0  0  0  0  0  0  0  0  0  0  0
   -4.3331   -0.3585   -0.0847 N   0  0  0  0  0  0  0  0  0  0  0  0
   -1.4692    1.2792   -0.0774 C   0  0  0  0  0  0  0  0  0  0  0  0
   -0.0494    1.3991   -0.0337 C   0  0  0  0  0  0  0  0  0  0  0  0
    0.7811    0.2922    0.0587 C   0  0  0  0  0  0  0  0  0  0  0  0
    2.2547    0.4916    0.0996 N   0  0  0  0  0  0  0  0  0  0  0  0
    2.6756    1.6427    0.0466 O   0  0  0  0  0  0  0  0  0  0  0  0
    2.9592   -0.5143    0.1775 O   0  0  0  0  0  0  0  0  0  0  0  0
    0.3166   -1.0390    0.1178 C   0  0  0  0  0  0  0  0  0  0  0  0
   -1.0428   -1.2452    0.0813 C   0  0  0  0  0  0  0  0  0  0  0  0
   -3.4293    3.6392   -0.2509 H   0  0  0  0  0  0  0  0  0  0  0  0
    0.4219    2.3768   -0.0725 H   0  0  0  0  0  0  0  0  0  0  0  0
    1.0249   -1.8530    0.1895 H   0  0  0  0  0  0  0  0  0  0  0  0
   -1.4743   -2.2410    0.1231 H   0  0  0  0  0  0  0  0  0  0  0  0
   -5.7581    2.6634   -0.1661 B   0  0  0  0  0  0  0  0  0  0  0  0
   -5.4321    2.0381   -1.2970 F   0  0  0  0  0  0  0  0  0  0  0  0
   -4.2473    4.0884   -0.2934 F   0  0  0  0  0  0  0  0  0  0  0  0
   -6.7492    3.5372   -0.1568 F   0  0  0  0  0  0  0  0  0  0  0  0
   -5.3240    2.1370    0.9795 F   0  0  0  0  0  0  0  0  0  0  0  0
  1 11  2  0  0  0  0
  2  1  1  0  0  0  0
  3  2  1  0  0  0  0
  4  5  2  0  0  0  0
  4  1  1  0  0  0  0
  5  6  1  0  0  0  0
  6  7  1  0  0  0  0
  6 10  2  0  0  0  0
  7  9  2  0  0  0  0
  8  7  2  0  0  0  0
 10 14  1  0  0  0  0
 11 10  1  0  0  0  0
 11 15  1  0  0  0  0
 13  5  1  0  0  0  0
 16 19  1  0  0  0  0
 16 20  1  0  0  0  0
 17 16  1  0  0  0  0
 18 12  1  0  0  0  0
M  RAD  3   2   2   3   3   4   2
M  END
