Coordinates from ORCA-job 4-NO2PhN2+~BF4-_B3LYPG-6-31G_dp-CH-Scan-d09-49-n800
 OpenBabel11261918593D

 20 18  0  0  0  0  0  0  0  0999 V2000
   -1.7301   -0.0801    0.0110 C   0  0  0  0  0  0  0  0  0  0  0  0
   -3.1277   -0.2230   -0.0314 N   0  0  0  0  0  0  0  0  0  0  0  0
   -4.2433   -0.2562   -0.0640 N   0  0  0  0  0  0  0  0  0  0  0  0
   -1.3376    1.2595    0.0134 C   0  0  0  0  0  0  0  0  0  0  0  0
    0.0873    1.3384    0.0584 C   0  0  0  0  0  0  0  0  0  0  0  0
    0.8878    0.2065    0.0922 C   0  0  0  0  0  0  0  0  0  0  0  0
    2.3663    0.3627    0.1380 N   0  0  0  0  0  0  0  0  0  0  0  0
    2.8201    1.5027    0.1361 O   0  0  0  0  0  0  0  0  0  0  0  0
    3.0442   -0.6644    0.1657 O   0  0  0  0  0  0  0  0  0  0  0  0
    0.3882   -1.1148    0.0863 C   0  0  0  0  0  0  0  0  0  0  0  0
   -0.9759   -1.2832    0.0441 C   0  0  0  0  0  0  0  0  0  0  0  0
   -3.8752    4.1679   -0.2490 H   0  0  0  0  0  0  0  0  0  0  0  0
    0.5854    2.3039    0.0670 H   0  0  0  0  0  0  0  0  0  0  0  0
    1.0756   -1.9491    0.1147 H   0  0  0  0  0  0  0  0  0  0  0  0
   -1.4348   -2.2679    0.0372 H   0  0  0  0  0  0  0  0  0  0  0  0
   -5.9123    2.6555   -0.1620 B   0  0  0  0  0  0  0  0  0  0  0  0
   -5.7561    2.0010   -1.3047 F   0  0  0  0  0  0  0  0  0  0  0  0
   -4.6786    4.3289   -0.6913 F   0  0  0  0  0  0  0  0  0  0  0  0
   -7.0038    3.3657    0.0553 F   0  0  0  0  0  0  0  0  0  0  0  0
   -5.1106    2.3453    0.8592 F   0  0  0  0  0  0  0  0  0  0  0  0
  1  4  2  0  0  0  0
  1 11  1  0  0  0  0
  2  1  1  0  0  0  0
  3  2  1  0  0  0  0
  4  5  1  0  0  0  0
  5 13  1  0  0  0  0
  5  6  2  0  0  0  0
  6  7  1  0  0  0  0
  7  9  2  0  0  0  0
  8  7  2  0  0  0  0
 10  6  1  0  0  0  0
 10 14  1  0  0  0  0
 11 10  2  0  0  0  0
 15 11  1  0  0  0  0
 16 19  1  0  0  0  0
 16 20  1  0  0  0  0
 17 16  1  0  0  0  0
 18 12  1  0  0  0  0
M  RAD  3   2   2   3   3   4   2
M  END
