Coordinates from ORCA-job 4-NO2PhN2+~BF4-_B3LYPG-6-31G_dp-CH-Scan-d09-49-n800
 OpenBabel11261918593D

 20 18  0  0  0  0  0  0  0  0999 V2000
   -1.6943   -0.0741    0.0282 C   0  0  0  0  0  0  0  0  0  0  0  0
   -3.0948   -0.1956   -0.0077 N   0  0  0  0  0  0  0  0  0  0  0  0
   -4.2111   -0.2100   -0.0328 N   0  0  0  0  0  0  0  0  0  0  0  0
   -1.2856    1.2596    0.0550 C   0  0  0  0  0  0  0  0  0  0  0  0
    0.1408    1.3194    0.0924 C   0  0  0  0  0  0  0  0  0  0  0  0
    0.9265    0.1767    0.0986 C   0  0  0  0  0  0  0  0  0  0  0  0
    2.4072    0.3123    0.1386 N   0  0  0  0  0  0  0  0  0  0  0  0
    2.8759    1.4459    0.1703 O   0  0  0  0  0  0  0  0  0  0  0  0
    3.0715   -0.7240    0.1482 O   0  0  0  0  0  0  0  0  0  0  0  0
    0.4096   -1.1379    0.0691 C   0  0  0  0  0  0  0  0  0  0  0  0
   -0.9567   -1.2880    0.0322 C   0  0  0  0  0  0  0  0  0  0  0  0
   -4.0757    4.3282   -0.2558 H   0  0  0  0  0  0  0  0  0  0  0  0
    0.6514    2.2782    0.1172 H   0  0  0  0  0  0  0  0  0  0  0  0
    1.0864   -1.9814    0.0761 H   0  0  0  0  0  0  0  0  0  0  0  0
   -1.4286   -2.2663    0.0078 H   0  0  0  0  0  0  0  0  0  0  0  0
   -5.9529    2.6544   -0.1698 B   0  0  0  0  0  0  0  0  0  0  0  0
   -5.8212    1.9816   -1.3033 F   0  0  0  0  0  0  0  0  0  0  0  0
   -4.8331    4.3879   -0.7936 F   0  0  0  0  0  0  0  0  0  0  0  0
   -7.0713    3.3044    0.0946 F   0  0  0  0  0  0  0  0  0  0  0  0
   -5.0750    2.4283    0.8108 F   0  0  0  0  0  0  0  0  0  0  0  0
  1 11  2  0  0  0  0
  1  4  1  0  0  0  0
  2  1  1  0  0  0  0
  3  2  1  0  0  0  0
  4  5  2  0  0  0  0
  5  6  1  0  0  0  0
  5 13  1  0  0  0  0
  6  7  1  0  0  0  0
  7  9  2  0  0  0  0
  7  8  2  0  0  0  0
 10 14  1  0  0  0  0
 10  6  2  0  0  0  0
 11 10  1  0  0  0  0
 15 11  1  0  0  0  0
 16 19  1  0  0  0  0
 16 20  1  0  0  0  0
 17 16  1  0  0  0  0
 18 12  1  0  0  0  0
M  RAD  3   2   2   3   3   4   2
M  END
