Coordinates from ORCA-job 4-NO2PhN2+~BF4-_B3LYPG-6-31G_dp-CH-Scan-d09-49-n800
 OpenBabel11261918593D

 20 18  0  0  0  0  0  0  0  0999 V2000
   -2.0402   -0.0216   -0.0363 C   0  0  0  0  0  0  0  0  0  0  0  0
   -3.4082   -0.2982   -0.0786 N   0  0  0  0  0  0  0  0  0  0  0  0
   -4.5057   -0.4824   -0.1154 N   0  0  0  0  0  0  0  0  0  0  0  0
   -1.6995    1.3374   -0.1030 C   0  0  0  0  0  0  0  0  0  0  0  0
   -0.2952    1.5191   -0.0523 C   0  0  0  0  0  0  0  0  0  0  0  0
    0.5767    0.4441    0.0499 C   0  0  0  0  0  0  0  0  0  0  0  0
    2.0405    0.7033    0.0990 N   0  0  0  0  0  0  0  0  0  0  0  0
    2.4109    1.8711    0.0521 O   0  0  0  0  0  0  0  0  0  0  0  0
    2.7812   -0.2744    0.1836 O   0  0  0  0  0  0  0  0  0  0  0  0
    0.1600   -0.8980    0.1110 C   0  0  0  0  0  0  0  0  0  0  0  0
   -1.1927   -1.1536    0.0675 C   0  0  0  0  0  0  0  0  0  0  0  0
   -2.9726    2.7911   -0.2264 H   0  0  0  0  0  0  0  0  0  0  0  0
    0.1319    2.5155   -0.0929 H   0  0  0  0  0  0  0  0  0  0  0  0
    0.8947   -1.6877    0.1898 H   0  0  0  0  0  0  0  0  0  0  0  0
   -1.5845   -2.1649    0.1109 H   0  0  0  0  0  0  0  0  0  0  0  0
   -5.2278    2.6828   -0.1407 B   0  0  0  0  0  0  0  0  0  0  0  0
   -5.2091    1.9048   -1.2537 F   0  0  0  0  0  0  0  0  0  0  0  0
   -3.6874    3.4771   -0.2812 F   0  0  0  0  0  0  0  0  0  0  0  0
   -6.0561    3.7316   -0.1275 F   0  0  0  0  0  0  0  0  0  0  0  0
   -5.0477    2.0021    1.0204 F   0  0  0  0  0  0  0  0  0  0  0  0
  1 11  2  0  0  0  0
  2  1  1  0  0  0  0
  3  2  1  0  0  0  0
  4  5  2  0  0  0  0
  4  1  1  0  0  0  0
  5  6  1  0  0  0  0
  6  7  1  0  0  0  0
  6 10  2  0  0  0  0
  7  9  2  0  0  0  0
  8  7  2  0  0  0  0
 10 14  1  0  0  0  0
 11 15  1  0  0  0  0
 11 10  1  0  0  0  0
 13  5  1  0  0  0  0
 16 19  1  0  0  0  0
 16 20  1  0  0  0  0
 17 16  1  0  0  0  0
 18 12  1  0  0  0  0
M  RAD  3   2   2   3   3   4   2
M  END
