Coordinates from ORCA-job 4-NO2PhN2+~BF4-_B3LYPG-6-31G_dp-CH-Scan-d09-49-n800
 OpenBabel11261918593D

 20 18  0  0  0  0  0  0  0  0999 V2000
   -1.7465   -0.0841    0.0148 C   0  0  0  0  0  0  0  0  0  0  0  0
   -3.1428   -0.2346   -0.0229 N   0  0  0  0  0  0  0  0  0  0  0  0
   -4.2584   -0.2728   -0.0499 N   0  0  0  0  0  0  0  0  0  0  0  0
   -1.3620    1.2585    0.0169 C   0  0  0  0  0  0  0  0  0  0  0  0
    0.0625    1.3460    0.0569 C   0  0  0  0  0  0  0  0  0  0  0  0
    0.8701    0.2190    0.0875 C   0  0  0  0  0  0  0  0  0  0  0  0
    2.3478    0.3845    0.1286 N   0  0  0  0  0  0  0  0  0  0  0  0
    2.7941    1.5274    0.1310 O   0  0  0  0  0  0  0  0  0  0  0  0
    3.0320   -0.6383    0.1571 O   0  0  0  0  0  0  0  0  0  0  0  0
    0.3788   -1.1052    0.0825 C   0  0  0  0  0  0  0  0  0  0  0  0
   -0.9845   -1.2822    0.0447 C   0  0  0  0  0  0  0  0  0  0  0  0
   -3.8022    4.1051   -0.2452 H   0  0  0  0  0  0  0  0  0  0  0  0
    0.5548    2.3145    0.0643 H   0  0  0  0  0  0  0  0  0  0  0  0
    1.0714   -1.9353    0.1081 H   0  0  0  0  0  0  0  0  0  0  0  0
   -1.4373   -2.2696    0.0386 H   0  0  0  0  0  0  0  0  0  0  0  0
   -5.8887    2.6557   -0.1658 B   0  0  0  0  0  0  0  0  0  0  0  0
   -5.7154    1.9965   -1.3041 F   0  0  0  0  0  0  0  0  0  0  0  0
   -4.6106    4.2986   -0.6649 F   0  0  0  0  0  0  0  0  0  0  0  0
   -6.9699    3.3899    0.0204 F   0  0  0  0  0  0  0  0  0  0  0  0
   -5.1243    2.3258    0.8775 F   0  0  0  0  0  0  0  0  0  0  0  0
  1  4  2  0  0  0  0
  1 11  1  0  0  0  0
  2  1  1  0  0  0  0
  3  2  1  0  0  0  0
  4  5  1  0  0  0  0
  5 13  1  0  0  0  0
  5  6  2  0  0  0  0
  6  7  1  0  0  0  0
  7  8  2  0  0  0  0
  7  9  2  0  0  0  0
 10  6  1  0  0  0  0
 10 14  1  0  0  0  0
 11 10  2  0  0  0  0
 15 11  1  0  0  0  0
 16 19  1  0  0  0  0
 16 20  1  0  0  0  0
 17 16  1  0  0  0  0
 18 12  1  0  0  0  0
M  RAD  3   2   2   3   3   4   2
M  END
