Coordinates from ORCA-job 4-NO2PhN2+~BF4-_B3LYPG-6-31G_dp-CH-Scan-d09-49-n800
 OpenBabel11261918593D

 20 18  0  0  0  0  0  0  0  0999 V2000
   -1.6667   -0.0667    0.0353 C   0  0  0  0  0  0  0  0  0  0  0  0
   -3.0690   -0.1706    0.0015 N   0  0  0  0  0  0  0  0  0  0  0  0
   -4.1856   -0.1690   -0.0220 N   0  0  0  0  0  0  0  0  0  0  0  0
   -1.2441    1.2621    0.0704 C   0  0  0  0  0  0  0  0  0  0  0  0
    0.1830    1.3068    0.1059 C   0  0  0  0  0  0  0  0  0  0  0  0
    0.9562    0.1556    0.1035 C   0  0  0  0  0  0  0  0  0  0  0  0
    2.4383    0.2750    0.1424 N   0  0  0  0  0  0  0  0  0  0  0  0
    2.9195    1.4032    0.1783 O   0  0  0  0  0  0  0  0  0  0  0  0
    3.0918   -0.7683    0.1368 O   0  0  0  0  0  0  0  0  0  0  0  0
    0.4252   -1.1532    0.0657 C   0  0  0  0  0  0  0  0  0  0  0  0
   -0.9427   -1.2887    0.0298 C   0  0  0  0  0  0  0  0  0  0  0  0
   -4.1962    4.4110   -0.2650 H   0  0  0  0  0  0  0  0  0  0  0  0
    0.7038    2.2600    0.1362 H   0  0  0  0  0  0  0  0  0  0  0  0
    1.0931   -2.0038    0.0659 H   0  0  0  0  0  0  0  0  0  0  0  0
   -1.4251   -2.2617   -0.0006 H   0  0  0  0  0  0  0  0  0  0  0  0
   -5.9935    2.6557   -0.1754 B   0  0  0  0  0  0  0  0  0  0  0  0
   -5.8508    1.9836   -1.3075 F   0  0  0  0  0  0  0  0  0  0  0  0
   -4.9432    4.4319   -0.8200 F   0  0  0  0  0  0  0  0  0  0  0  0
   -7.1316    3.2649    0.1011 F   0  0  0  0  0  0  0  0  0  0  0  0
   -5.0934    2.4717    0.7939 F   0  0  0  0  0  0  0  0  0  0  0  0
  1  4  1  0  0  0  0
  2  1  1  0  0  0  0
  3  2  1  0  0  0  0
  4  5  2  0  0  0  0
  5 13  1  0  0  0  0
  6  5  1  0  0  0  0
  6  7  1  0  0  0  0
  7  8  2  0  0  0  0
  9  7  2  0  0  0  0
 10 14  1  0  0  0  0
 10  6  2  0  0  0  0
 11  1  2  0  0  0  0
 11 10  1  0  0  0  0
 15 11  1  0  0  0  0
 16 19  1  0  0  0  0
 16 20  1  0  0  0  0
 17 16  1  0  0  0  0
 18 12  1  0  0  0  0
M  RAD  3   2   2   3   3   4   2
M  END
