Coordinates from ORCA-job 4-NO2PhN2+~BF4-_B3LYPG-6-31G_dp-CH-Scan-d09-49-n800
 OpenBabel11261918593D

 20 19  0  0  0  0  0  0  0  0999 V2000
   -2.1585    0.1043   -0.2631 C   0  0  0  0  0  0  0  0  0  0  0  0
   -3.5091   -0.1498   -0.4840 N   0  0  0  0  0  0  0  0  0  0  0  0
   -4.5746   -0.3809   -0.7093 N   0  0  0  0  0  0  0  0  0  0  0  0
   -1.6919    1.4160   -0.4221 C   0  0  0  0  0  0  0  0  0  0  0  0
   -0.3264    1.6154   -0.2334 C   0  0  0  0  0  0  0  0  0  0  0  0
    0.4804    0.5325    0.1061 C   0  0  0  0  0  0  0  0  0  0  0  0
    1.9337    0.7650    0.3108 N   0  0  0  0  0  0  0  0  0  0  0  0
    2.3445    1.9085    0.1541 O   0  0  0  0  0  0  0  0  0  0  0  0
    2.6146   -0.2083    0.6202 O   0  0  0  0  0  0  0  0  0  0  0  0
   -0.0019   -0.7689    0.2666 C   0  0  0  0  0  0  0  0  0  0  0  0
   -1.3544   -0.9996    0.0729 C   0  0  0  0  0  0  0  0  0  0  0  0
   -2.4976    2.3147   -0.6856 H   0  0  0  0  0  0  0  0  0  0  0  0
    0.1144    2.5990   -0.3374 H   0  0  0  0  0  0  0  0  0  0  0  0
    0.6801   -1.5650    0.5345 H   0  0  0  0  0  0  0  0  0  0  0  0
   -1.7811   -1.9901    0.1827 H   0  0  0  0  0  0  0  0  0  0  0  0
   -4.8723    2.5872    0.0742 B   0  0  0  0  0  0  0  0  0  0  0  0
   -5.6906    1.6832   -0.6471 F   0  0  0  0  0  0  0  0  0  0  0  0
   -3.9359    3.1567   -0.8571 F   0  0  0  0  0  0  0  0  0  0  0  0
   -5.5987    3.5585    0.6973 F   0  0  0  0  0  0  0  0  0  0  0  0
   -4.1060    1.8210    0.9961 F   0  0  0  0  0  0  0  0  0  0  0  0
  1 11  1  0  0  0  0
  2  1  1  0  0  0  0
  3  2  1  0  0  0  0
  4  1  2  0  0  0  0
  4  5  1  0  0  0  0
  5  6  2  0  0  0  0
  6 10  1  0  0  0  0
  6  7  1  0  0  0  0
  7  9  2  0  0  0  0
  8  7  2  0  0  0  0
 10 14  1  0  0  0  0
 11 15  1  0  0  0  0
 11 10  2  0  0  0  0
 12  4  1  0  0  0  0
 13  5  1  0  0  0  0
 16 19  1  0  0  0  0
 16 20  1  0  0  0  0
 17 16  1  0  0  0  0
 18 16  1  0  0  0  0
M  RAD  2   2   2   3   3
M  END
