Coordinates from ORCA-job 4-NO2PhN2+~BF4-_B3LYPG-6-31G_dp-CH-Scan-d09-49-n800
 OpenBabel11261918593D

 20 19  0  0  0  0  0  0  0  0999 V2000
   -2.3067    0.1158   -0.4240 C   0  0  0  0  0  0  0  0  0  0  0  0
   -3.6313   -0.2160   -0.6911 N   0  0  0  0  0  0  0  0  0  0  0  0
   -4.6318   -0.6280   -0.9368 N   0  0  0  0  0  0  0  0  0  0  0  0
   -1.8112    1.3591   -0.8379 C   0  0  0  0  0  0  0  0  0  0  0  0
   -0.4605    1.6025   -0.6010 C   0  0  0  0  0  0  0  0  0  0  0  0
    0.3074    0.6307    0.0299 C   0  0  0  0  0  0  0  0  0  0  0  0
    1.7456    0.9086    0.2719 N   0  0  0  0  0  0  0  0  0  0  0  0
    2.1823    1.9816   -0.1268 O   0  0  0  0  0  0  0  0  0  0  0  0
    2.3902    0.0385    0.8495 O   0  0  0  0  0  0  0  0  0  0  0  0
   -0.2037   -0.5996    0.4509 C   0  0  0  0  0  0  0  0  0  0  0  0
   -1.5411   -0.8736    0.2188 C   0  0  0  0  0  0  0  0  0  0  0  0
   -2.4086    2.0166   -1.2520 H   0  0  0  0  0  0  0  0  0  0  0  0
   -0.0105    2.5444   -0.8874 H   0  0  0  0  0  0  0  0  0  0  0  0
    0.4454   -1.3114    0.9438 H   0  0  0  0  0  0  0  0  0  0  0  0
   -1.9887   -1.8107    0.5278 H   0  0  0  0  0  0  0  0  0  0  0  0
   -4.4247    2.4850    0.3945 B   0  0  0  0  0  0  0  0  0  0  0  0
   -4.4891    2.1052   -0.9994 F   0  0  0  0  0  0  0  0  0  0  0  0
   -3.2107    3.1649    0.5783 F   0  0  0  0  0  0  0  0  0  0  0  0
   -5.5167    3.2281    0.7455 F   0  0  0  0  0  0  0  0  0  0  0  0
   -4.3665    1.2576    1.1218 F   0  0  0  0  0  0  0  0  0  0  0  0
  1 11  2  0  0  0  0
  2  1  1  0  0  0  0
  3  2  1  0  0  0  0
  4  5  2  0  0  0  0
  4  1  1  0  0  0  0
  5  6  1  0  0  0  0
  6  7  1  0  0  0  0
  6 10  2  0  0  0  0
  7  9  2  0  0  0  0
  8  7  2  0  0  0  0
 10 14  1  0  0  0  0
 11 10  1  0  0  0  0
 11 15  1  0  0  0  0
 12  4  1  0  0  0  0
 13  5  1  0  0  0  0
 16 18  1  0  0  0  0
 16 19  1  0  0  0  0
 16 20  1  0  0  0  0
 17 16  1  0  0  0  0
M  RAD  2   2   2   3   3
M  END
