Coordinates from ORCA-job 4-NO2PhN2+~BF4-_B3LYPG-6-31G_dp-CH-Scan-d09-49-n800
 OpenBabel11261918593D

 20 19  0  0  0  0  0  0  0  0999 V2000
   -2.3043    0.1151   -0.4234 C   0  0  0  0  0  0  0  0  0  0  0  0
   -3.6291   -0.2159   -0.6913 N   0  0  0  0  0  0  0  0  0  0  0  0
   -4.6298   -0.6268   -0.9376 N   0  0  0  0  0  0  0  0  0  0  0  0
   -1.8073    1.3572   -0.8389 C   0  0  0  0  0  0  0  0  0  0  0  0
   -0.4568    1.6007   -0.6020 C   0  0  0  0  0  0  0  0  0  0  0  0
    0.3101    0.6289    0.0304 C   0  0  0  0  0  0  0  0  0  0  0  0
    1.7485    0.9059    0.2725 N   0  0  0  0  0  0  0  0  0  0  0  0
    2.1864    1.9776   -0.1283 O   0  0  0  0  0  0  0  0  0  0  0  0
    2.3925    0.0354    0.8502 O   0  0  0  0  0  0  0  0  0  0  0  0
   -0.2021   -0.6005    0.4529 C   0  0  0  0  0  0  0  0  0  0  0  0
   -1.5397   -0.8740    0.2209 C   0  0  0  0  0  0  0  0  0  0  0  0
   -2.4247    2.0343   -1.2640 H   0  0  0  0  0  0  0  0  0  0  0  0
   -0.0057    2.5417   -0.8895 H   0  0  0  0  0  0  0  0  0  0  0  0
    0.4464   -1.3120    0.9470 H   0  0  0  0  0  0  0  0  0  0  0  0
   -1.9879   -1.8105    0.5310 H   0  0  0  0  0  0  0  0  0  0  0  0
   -4.4286    2.4853    0.3959 B   0  0  0  0  0  0  0  0  0  0  0  0
   -4.4911    2.1082   -0.9993 F   0  0  0  0  0  0  0  0  0  0  0  0
   -3.2173    3.1688    0.5819 F   0  0  0  0  0  0  0  0  0  0  0  0
   -5.5238    3.2235    0.7474 F   0  0  0  0  0  0  0  0  0  0  0  0
   -4.3668    1.2564    1.1205 F   0  0  0  0  0  0  0  0  0  0  0  0
  1 11  2  0  0  0  0
  2  1  1  0  0  0  0
  3  2  1  0  0  0  0
  4  5  2  0  0  0  0
  4  1  1  0  0  0  0
  5  6  1  0  0  0  0
  6  7  1  0  0  0  0
  6 10  2  0  0  0  0
  7  9  2  0  0  0  0
  8  7  2  0  0  0  0
 10 14  1  0  0  0  0
 11 10  1  0  0  0  0
 11 15  1  0  0  0  0
 12  4  1  0  0  0  0
 13  5  1  0  0  0  0
 16 18  1  0  0  0  0
 16 19  1  0  0  0  0
 16 20  1  0  0  0  0
 17 16  1  0  0  0  0
M  RAD  2   2   2   3   3
M  END
