Coordinates from ORCA-job 4-NO2PhN2+~BF4-_B3LYPG-6-31G_dp-CH-Scan-d09-49-n800
 OpenBabel11261918593D

 20 18  0  0  0  0  0  0  0  0999 V2000
   -1.8113   -0.0762   -0.0125 C   0  0  0  0  0  0  0  0  0  0  0  0
   -3.2011   -0.2603   -0.0533 N   0  0  0  0  0  0  0  0  0  0  0  0
   -4.3138   -0.3380   -0.0894 N   0  0  0  0  0  0  0  0  0  0  0  0
   -1.4425    1.2713   -0.0732 C   0  0  0  0  0  0  0  0  0  0  0  0
   -0.0214    1.3838   -0.0284 C   0  0  0  0  0  0  0  0  0  0  0  0
    0.8038    0.2728    0.0617 C   0  0  0  0  0  0  0  0  0  0  0  0
    2.2784    0.4647    0.1031 N   0  0  0  0  0  0  0  0  0  0  0  0
    2.7052    1.6138    0.0534 O   0  0  0  0  0  0  0  0  0  0  0  0
    2.9780   -0.5444    0.1845 O   0  0  0  0  0  0  0  0  0  0  0  0
    0.3331   -1.0568    0.1182 C   0  0  0  0  0  0  0  0  0  0  0  0
   -1.0271   -1.2567    0.0805 C   0  0  0  0  0  0  0  0  0  0  0  0
   -3.5027    3.7627   -0.2525 H   0  0  0  0  0  0  0  0  0  0  0  0
    0.4550    2.3593   -0.0648 H   0  0  0  0  0  0  0  0  0  0  0  0
    1.0378   -1.8740    0.1887 H   0  0  0  0  0  0  0  0  0  0  0  0
   -1.4637   -2.2505    0.1202 H   0  0  0  0  0  0  0  0  0  0  0  0
   -5.7991    2.6579   -0.1643 B   0  0  0  0  0  0  0  0  0  0  0  0
   -5.4719    2.0483   -1.3017 F   0  0  0  0  0  0  0  0  0  0  0  0
   -4.3401    4.1660   -0.3339 F   0  0  0  0  0  0  0  0  0  0  0  0
   -6.8224    3.4919   -0.1309 F   0  0  0  0  0  0  0  0  0  0  0  0
   -5.3052    2.1636    0.9707 F   0  0  0  0  0  0  0  0  0  0  0  0
  1 11  2  0  0  0  0
  2  1  1  0  0  0  0
  3  2  1  0  0  0  0
  4  5  2  0  0  0  0
  4  1  1  0  0  0  0
  5  6  1  0  0  0  0
  6  7  1  0  0  0  0
  6 10  2  0  0  0  0
  7  9  2  0  0  0  0
  8  7  2  0  0  0  0
 10 14  1  0  0  0  0
 11 10  1  0  0  0  0
 11 15  1  0  0  0  0
 13  5  1  0  0  0  0
 16 19  1  0  0  0  0
 16 20  1  0  0  0  0
 17 16  1  0  0  0  0
 18 12  1  0  0  0  0
M  RAD  3   2   2   3   3   4   2
M  END
