Coordinates from ORCA-job 4-NO2PhN2+~BF4-_B3LYPG-6-31G_dp-CH-Scan-d09-49-n800
 OpenBabel11261918593D

 20 18  0  0  0  0  0  0  0  0999 V2000
   -1.9575   -0.0394   -0.0223 C   0  0  0  0  0  0  0  0  0  0  0  0
   -3.3330   -0.2858   -0.0637 N   0  0  0  0  0  0  0  0  0  0  0  0
   -4.4358   -0.4423   -0.1010 N   0  0  0  0  0  0  0  0  0  0  0  0
   -1.6099    1.3165   -0.0892 C   0  0  0  0  0  0  0  0  0  0  0  0
   -0.1984    1.4743   -0.0446 C   0  0  0  0  0  0  0  0  0  0  0  0
    0.6582    0.3873    0.0522 C   0  0  0  0  0  0  0  0  0  0  0  0
    2.1264    0.6236    0.0928 N   0  0  0  0  0  0  0  0  0  0  0  0
    2.5164    1.7850    0.0392 O   0  0  0  0  0  0  0  0  0  0  0  0
    2.8536   -0.3648    0.1764 O   0  0  0  0  0  0  0  0  0  0  0  0
    0.2241   -0.9514    0.1156 C   0  0  0  0  0  0  0  0  0  0  0  0
   -1.1309   -1.1890    0.0779 C   0  0  0  0  0  0  0  0  0  0  0  0
   -3.1377    3.0927   -0.2255 H   0  0  0  0  0  0  0  0  0  0  0  0
    0.2462    2.4635   -0.0864 H   0  0  0  0  0  0  0  0  0  0  0  0
    0.9496   -1.7499    0.1911 H   0  0  0  0  0  0  0  0  0  0  0  0
   -1.5374   -2.1948    0.1228 H   0  0  0  0  0  0  0  0  0  0  0  0
   -5.4629    2.6817   -0.1561 B   0  0  0  0  0  0  0  0  0  0  0  0
   -5.3104    1.9628   -1.2814 F   0  0  0  0  0  0  0  0  0  0  0  0
   -3.8743    3.6957   -0.2718 F   0  0  0  0  0  0  0  0  0  0  0  0
   -6.3271    3.6901   -0.1459 F   0  0  0  0  0  0  0  0  0  0  0  0
   -5.1901    2.0433    0.9960 F   0  0  0  0  0  0  0  0  0  0  0  0
  1 11  2  0  0  0  0
  2  1  1  0  0  0  0
  3  2  1  0  0  0  0
  4  5  2  0  0  0  0
  4  1  1  0  0  0  0
  5  6  1  0  0  0  0
  6  7  1  0  0  0  0
  6 10  2  0  0  0  0
  7  9  2  0  0  0  0
  8  7  2  0  0  0  0
 10 14  1  0  0  0  0
 11 10  1  0  0  0  0
 11 15  1  0  0  0  0
 13  5  1  0  0  0  0
 16 19  1  0  0  0  0
 16 20  1  0  0  0  0
 17 16  1  0  0  0  0
 18 12  1  0  0  0  0
M  RAD  3   2   2   3   3   4   2
M  END
