Coordinates from ORCA-job 4-NO2PhN2+~BF4-_B3LYPG-6-31G_dp-CH-Scan-d09-49-n800
 OpenBabel11261918593D

 20 18  0  0  0  0  0  0  0  0999 V2000
   -1.7586   -0.0812    0.0201 C   0  0  0  0  0  0  0  0  0  0  0  0
   -3.1541   -0.2391   -0.0123 N   0  0  0  0  0  0  0  0  0  0  0  0
   -4.2692   -0.2875   -0.0363 N   0  0  0  0  0  0  0  0  0  0  0  0
   -1.3767    1.2621    0.0209 C   0  0  0  0  0  0  0  0  0  0  0  0
    0.0474    1.3534    0.0563 C   0  0  0  0  0  0  0  0  0  0  0  0
    0.8583    0.2287    0.0837 C   0  0  0  0  0  0  0  0  0  0  0  0
    2.3357    0.3983    0.1195 N   0  0  0  0  0  0  0  0  0  0  0  0
    2.7787    1.5426    0.1216 O   0  0  0  0  0  0  0  0  0  0  0  0
    3.0227   -0.6226    0.1443 O   0  0  0  0  0  0  0  0  0  0  0  0
    0.3704   -1.0966    0.0799 C   0  0  0  0  0  0  0  0  0  0  0  0
   -0.9925   -1.2770    0.0470 C   0  0  0  0  0  0  0  0  0  0  0  0
   -3.7468    4.0503   -0.2363 H   0  0  0  0  0  0  0  0  0  0  0  0
    0.5370    2.3232    0.0624 H   0  0  0  0  0  0  0  0  0  0  0  0
    1.0652   -1.9251    0.1026 H   0  0  0  0  0  0  0  0  0  0  0  0
   -1.4425   -2.2657    0.0423 H   0  0  0  0  0  0  0  0  0  0  0  0
   -5.8734    2.6548   -0.1728 B   0  0  0  0  0  0  0  0  0  0  0  0
   -5.6766    1.9922   -1.3059 F   0  0  0  0  0  0  0  0  0  0  0  0
   -4.5589    4.2731   -0.6341 F   0  0  0  0  0  0  0  0  0  0  0  0
   -6.9467    3.4083   -0.0206 F   0  0  0  0  0  0  0  0  0  0  0  0
   -5.1506    2.3072    0.8938 F   0  0  0  0  0  0  0  0  0  0  0  0
  1  4  2  0  0  0  0
  1 11  1  0  0  0  0
  2  1  1  0  0  0  0
  3  2  1  0  0  0  0
  4  5  1  0  0  0  0
  5 13  1  0  0  0  0
  5  6  2  0  0  0  0
  6  7  1  0  0  0  0
  7  8  2  0  0  0  0
  7  9  2  0  0  0  0
 10  6  1  0  0  0  0
 10 14  1  0  0  0  0
 11 10  2  0  0  0  0
 15 11  1  0  0  0  0
 16 19  1  0  0  0  0
 16 20  1  0  0  0  0
 17 16  1  0  0  0  0
 18 12  1  0  0  0  0
M  RAD  3   2   2   3   3   4   2
M  END
