Coordinates from ORCA-job PhN2+~TsO-_B3LYPG-6-31G_dp-CH-Scan-d09-49-n800
 OpenBabel11261919273D

 31 31  0  0  0  0  0  0  0  0999 V2000
   -2.1267    0.5502    0.0961 C   0  0  0  0  0  0  0  0  0  0  0  0
   -3.4897    0.3966    0.3381 N   0  0  0  0  0  0  0  0  0  0  0  0
   -4.5878    0.3134    0.5254 N   0  0  0  0  0  0  0  0  0  0  0  0
   -1.7453    1.8599   -0.2418 C   0  0  0  0  0  0  0  0  0  0  0  0
   -0.3432    1.9077   -0.4712 C   0  0  0  0  0  0  0  0  0  0  0  0
    0.4983    0.8036   -0.3686 C   0  0  0  0  0  0  0  0  0  0  0  0
    0.0035   -0.4750   -0.0182 C   0  0  0  0  0  0  0  0  0  0  0  0
   -1.3434   -0.6286    0.2251 C   0  0  0  0  0  0  0  0  0  0  0  0
   -3.4456    4.0168   -0.4208 H   0  0  0  0  0  0  0  0  0  0  0  0
    0.1097    2.8604   -0.7459 H   0  0  0  0  0  0  0  0  0  0  0  0
    1.5641    0.9133   -0.5615 H   0  0  0  0  0  0  0  0  0  0  0  0
    0.6750   -1.3240    0.0581 H   0  0  0  0  0  0  0  0  0  0  0  0
   -1.7789   -1.5858    0.4985 H   0  0  0  0  0  0  0  0  0  0  0  0
   -7.1096    5.5718    1.1110 C   0  0  0  0  0  0  0  0  0  0  0  0
   -8.0988    6.5524    1.0757 C   0  0  0  0  0  0  0  0  0  0  0  0
   -8.7572    6.8760   -0.1191 C   0  0  0  0  0  0  0  0  0  0  0  0
   -8.4084    6.1808   -1.2872 C   0  0  0  0  0  0  0  0  0  0  0  0
   -7.4234    5.1969   -1.2725 C   0  0  0  0  0  0  0  0  0  0  0  0
   -6.7782    4.9070   -0.0692 C   0  0  0  0  0  0  0  0  0  0  0  0
   -6.6084    5.3114    2.0365 H   0  0  0  0  0  0  0  0  0  0  0  0
   -8.3677    7.0716    1.9914 H   0  0  0  0  0  0  0  0  0  0  0  0
   -8.9189    6.4099   -2.2188 H   0  0  0  0  0  0  0  0  0  0  0  0
   -7.1631    4.6491   -2.1714 H   0  0  0  0  0  0  0  0  0  0  0  0
   -5.5194    3.6479   -0.0362 S   0  0  0  0  0  0  0  0  0  0  0  0
   -5.3652    3.1431    1.3305 O   0  0  0  0  0  0  0  0  0  0  0  0
   -4.2435    4.5883   -0.4075 O   0  0  0  0  0  0  0  0  0  0  0  0
   -5.7479    2.6941   -1.1238 O   0  0  0  0  0  0  0  0  0  0  0  0
   -9.8051    7.9617   -0.1552 C   0  0  0  0  0  0  0  0  0  0  0  0
  -10.6116    7.7168   -0.8528 H   0  0  0  0  0  0  0  0  0  0  0  0
  -10.2451    8.1279    0.8317 H   0  0  0  0  0  0  0  0  0  0  0  0
   -9.3700    8.9134   -0.4844 H   0  0  0  0  0  0  0  0  0  0  0  0
  1  8  1  0  0  0  0
  1  2  1  0  0  0  0
  2  3  1  0  0  0  0
  4  1  2  0  0  0  0
  5  6  2  0  0  0  0
  5  4  1  0  0  0  0
  6  7  1  0  0  0  0
  7 12  1  0  0  0  0
  7  8  2  0  0  0  0
  8 13  1  0  0  0  0
  9 26  1  0  0  0  0
 10  5  1  0  0  0  0
 11  6  1  0  0  0  0
 14 20  1  0  0  0  0
 15 14  1  0  0  0  0
 15 21  1  0  0  0  0
 16 15  2  0  0  0  0
 17 18  2  0  0  0  0
 17 16  1  0  0  0  0
 18 19  1  0  0  0  0
 19 24  1  0  0  0  0
 19 14  2  0  0  0  0
 22 17  1  0  0  0  0
 23 18  1  0  0  0  0
 24 25  2  0  0  0  0
 26 24  1  0  0  0  0
 27 24  2  0  0  0  0
 28 16  1  0  0  0  0
 28 30  1  0  0  0  0
 29 28  1  0  0  0  0
 31 28  1  0  0  0  0
M  RAD  3   2   2   3   3   4   2
M  END
