Coordinates from ORCA-job PhN2+~TsO-_B3LYPG-6-31G_dp-CH-Scan-d09-49-n800
 OpenBabel11261919273D

 31 31  0  0  0  0  0  0  0  0999 V2000
   -2.2272    0.6028    0.1147 C   0  0  0  0  0  0  0  0  0  0  0  0
   -3.5674    0.3483    0.3894 N   0  0  0  0  0  0  0  0  0  0  0  0
   -4.6511    0.1831    0.6020 N   0  0  0  0  0  0  0  0  0  0  0  0
   -1.9394    1.9375   -0.2222 C   0  0  0  0  0  0  0  0  0  0  0  0
   -0.5527    2.0858   -0.4868 C   0  0  0  0  0  0  0  0  0  0  0  0
    0.3651    1.0413   -0.4152 C   0  0  0  0  0  0  0  0  0  0  0  0
   -0.0318   -0.2693   -0.0634 C   0  0  0  0  0  0  0  0  0  0  0  0
   -1.3587   -0.5169    0.2125 C   0  0  0  0  0  0  0  0  0  0  0  0
   -3.4840    3.6675   -0.3314 H   0  0  0  0  0  0  0  0  0  0  0  0
   -0.1762    3.0696   -0.7646 H   0  0  0  0  0  0  0  0  0  0  0  0
    1.4150    1.2262   -0.6343 H   0  0  0  0  0  0  0  0  0  0  0  0
    0.6974   -1.0711   -0.0112 H   0  0  0  0  0  0  0  0  0  0  0  0
   -1.7197   -1.5035    0.4887 H   0  0  0  0  0  0  0  0  0  0  0  0
   -7.0889    5.4717    1.1256 C   0  0  0  0  0  0  0  0  0  0  0  0
   -8.0178    6.5090    1.0690 C   0  0  0  0  0  0  0  0  0  0  0  0
   -8.6261    6.8726   -0.1405 C   0  0  0  0  0  0  0  0  0  0  0  0
   -8.2897    6.1596   -1.3015 C   0  0  0  0  0  0  0  0  0  0  0  0
   -7.3650    5.1194   -1.2650 C   0  0  0  0  0  0  0  0  0  0  0  0
   -6.7675    4.7899   -0.0473 C   0  0  0  0  0  0  0  0  0  0  0  0
   -6.6267    5.1807    2.0622 H   0  0  0  0  0  0  0  0  0  0  0  0
   -8.2785    7.0418    1.9794 H   0  0  0  0  0  0  0  0  0  0  0  0
   -8.7628    6.4195   -2.2447 H   0  0  0  0  0  0  0  0  0  0  0  0
   -7.1154    4.5582   -2.1587 H   0  0  0  0  0  0  0  0  0  0  0  0
   -5.5845    3.4590    0.0128 S   0  0  0  0  0  0  0  0  0  0  0  0
   -5.4929    2.9498    1.3859 O   0  0  0  0  0  0  0  0  0  0  0  0
   -4.2507    4.3012   -0.3390 O   0  0  0  0  0  0  0  0  0  0  0  0
   -5.8611    2.5079   -1.0683 O   0  0  0  0  0  0  0  0  0  0  0  0
   -9.6085    8.0172   -0.1994 C   0  0  0  0  0  0  0  0  0  0  0  0
  -10.4227    7.8106   -0.9005 H   0  0  0  0  0  0  0  0  0  0  0  0
  -10.0458    8.2216    0.7813 H   0  0  0  0  0  0  0  0  0  0  0  0
   -9.1165    8.9377   -0.5373 H   0  0  0  0  0  0  0  0  0  0  0  0
  1  8  1  0  0  0  0
  1  2  1  0  0  0  0
  2  3  1  0  0  0  0
  4  1  2  0  0  0  0
  5  6  2  0  0  0  0
  5  4  1  0  0  0  0
  6  7  1  0  0  0  0
  7 12  1  0  0  0  0
  7  8  2  0  0  0  0
  8 13  1  0  0  0  0
 10  5  1  0  0  0  0
 11  6  1  0  0  0  0
 14 20  1  0  0  0  0
 15 14  1  0  0  0  0
 15 21  1  0  0  0  0
 16 15  2  0  0  0  0
 17 18  2  0  0  0  0
 17 16  1  0  0  0  0
 18 19  1  0  0  0  0
 19 24  1  0  0  0  0
 19 14  2  0  0  0  0
 22 17  1  0  0  0  0
 23 18  1  0  0  0  0
 24 25  2  0  0  0  0
 26  9  1  0  0  0  0
 26 24  1  0  0  0  0
 27 24  2  0  0  0  0
 28 16  1  0  0  0  0
 28 30  1  0  0  0  0
 29 28  1  0  0  0  0
 31 28  1  0  0  0  0
M  RAD  3   2   2   3   3   4   2
M  END
