Coordinates from ORCA-job PhN2+~TsO-_B3LYPG-6-31G_dp-CH-Scan-d09-49-n800
 OpenBabel11261919273D

 31 31  0  0  0  0  0  0  0  0999 V2000
   -2.3420    0.6611    0.1333 C   0  0  0  0  0  0  0  0  0  0  0  0
   -3.6546    0.3142    0.4347 N   0  0  0  0  0  0  0  0  0  0  0  0
   -4.7196    0.0773    0.6691 N   0  0  0  0  0  0  0  0  0  0  0  0
   -2.1384    2.0123   -0.2031 C   0  0  0  0  0  0  0  0  0  0  0  0
   -0.7737    2.2534   -0.4957 C   0  0  0  0  0  0  0  0  0  0  0  0
    0.2105    1.2691   -0.4491 C   0  0  0  0  0  0  0  0  0  0  0  0
   -0.0955   -0.0637   -0.0964 C   0  0  0  0  0  0  0  0  0  0  0  0
   -1.3986   -0.3965    0.2054 C   0  0  0  0  0  0  0  0  0  0  0  0
   -3.4793    3.3444   -0.2663 H   0  0  0  0  0  0  0  0  0  0  0  0
   -0.4717    3.2614   -0.7751 H   0  0  0  0  0  0  0  0  0  0  0  0
    1.2410    1.5224   -0.6889 H   0  0  0  0  0  0  0  0  0  0  0  0
    0.6835   -0.8181   -0.0631 H   0  0  0  0  0  0  0  0  0  0  0  0
   -1.6894   -1.4052    0.4837 H   0  0  0  0  0  0  0  0  0  0  0  0
   -7.0484    5.3776    1.1326 C   0  0  0  0  0  0  0  0  0  0  0  0
   -7.9270    6.4576    1.0630 C   0  0  0  0  0  0  0  0  0  0  0  0
   -8.4944    6.8534   -0.1558 C   0  0  0  0  0  0  0  0  0  0  0  0
   -8.1685    6.1295   -1.3130 C   0  0  0  0  0  0  0  0  0  0  0  0
   -7.2940    5.0473   -1.2628 C   0  0  0  0  0  0  0  0  0  0  0  0
   -6.7356    4.6848   -0.0359 C   0  0  0  0  0  0  0  0  0  0  0  0
   -6.6191    5.0613    2.0765 H   0  0  0  0  0  0  0  0  0  0  0  0
   -8.1806    6.9984    1.9708 H   0  0  0  0  0  0  0  0  0  0  0  0
   -8.6110    6.4139   -2.2641 H   0  0  0  0  0  0  0  0  0  0  0  0
   -7.0543    4.4773   -2.1537 H   0  0  0  0  0  0  0  0  0  0  0  0
   -5.6150    3.3000    0.0403 S   0  0  0  0  0  0  0  0  0  0  0  0
   -5.5812    2.7840    1.4174 O   0  0  0  0  0  0  0  0  0  0  0  0
   -4.2412    4.0425   -0.2913 O   0  0  0  0  0  0  0  0  0  0  0  0
   -5.9418    2.3528   -1.0345 O   0  0  0  0  0  0  0  0  0  0  0  0
   -9.4234    8.0413   -0.2290 C   0  0  0  0  0  0  0  0  0  0  0  0
  -10.2480    7.8623   -0.9259 H   0  0  0  0  0  0  0  0  0  0  0  0
   -9.8493    8.2783    0.7494 H   0  0  0  0  0  0  0  0  0  0  0  0
   -8.8914    8.9341   -0.5804 H   0  0  0  0  0  0  0  0  0  0  0  0
  1  8  1  0  0  0  0
  1  2  1  0  0  0  0
  2  3  1  0  0  0  0
  4  1  2  0  0  0  0
  5  6  2  0  0  0  0
  5  4  1  0  0  0  0
  6  7  1  0  0  0  0
  7 12  1  0  0  0  0
  7  8  2  0  0  0  0
  8 13  1  0  0  0  0
 10  5  1  0  0  0  0
 11  6  1  0  0  0  0
 14 20  1  0  0  0  0
 15 14  1  0  0  0  0
 15 21  1  0  0  0  0
 16 15  2  0  0  0  0
 17 18  2  0  0  0  0
 17 16  1  0  0  0  0
 18 19  1  0  0  0  0
 19 24  1  0  0  0  0
 19 14  2  0  0  0  0
 22 17  1  0  0  0  0
 23 18  1  0  0  0  0
 24 25  2  0  0  0  0
 26  9  1  0  0  0  0
 26 24  1  0  0  0  0
 27 24  2  0  0  0  0
 28 16  1  0  0  0  0
 28 30  1  0  0  0  0
 29 28  1  0  0  0  0
 31 28  1  0  0  0  0
M  RAD  3   2   2   3   3   4   2
M  END
