Coordinates from ORCA-job PhN2+~TsO-_B3LYPG-6-31G_dp-CH-Scan-d09-49-n800
 OpenBabel11261919273D

 31 31  0  0  0  0  0  0  0  0999 V2000
   -2.0979    0.5356    0.0917 C   0  0  0  0  0  0  0  0  0  0  0  0
   -3.4664    0.4158    0.3242 N   0  0  0  0  0  0  0  0  0  0  0  0
   -4.5678    0.3607    0.5035 N   0  0  0  0  0  0  0  0  0  0  0  0
   -1.6864    1.8353   -0.2483 C   0  0  0  0  0  0  0  0  0  0  0  0
   -0.2813    1.8492   -0.4683 C   0  0  0  0  0  0  0  0  0  0  0  0
    0.5340    0.7268   -0.3558 C   0  0  0  0  0  0  0  0  0  0  0  0
    0.0080   -0.5391   -0.0036 C   0  0  0  0  0  0  0  0  0  0  0  0
   -1.3436   -0.6611    0.2312 C   0  0  0  0  0  0  0  0  0  0  0  0
   -3.4293    4.1348   -0.4505 H   0  0  0  0  0  0  0  0  0  0  0  0
    0.1958    2.7902   -0.7436 H   0  0  0  0  0  0  0  0  0  0  0  0
    1.6035    0.8111   -0.5418 H   0  0  0  0  0  0  0  0  0  0  0  0
    0.6597   -1.4028    0.0806 H   0  0  0  0  0  0  0  0  0  0  0  0
   -1.8028   -1.6069    0.5054 H   0  0  0  0  0  0  0  0  0  0  0  0
   -7.1150    5.6025    1.1065 C   0  0  0  0  0  0  0  0  0  0  0  0
   -8.1246    6.5622    1.0784 C   0  0  0  0  0  0  0  0  0  0  0  0
   -8.7972    6.8730   -0.1120 C   0  0  0  0  0  0  0  0  0  0  0  0
   -8.4415    6.1861   -1.2829 C   0  0  0  0  0  0  0  0  0  0  0  0
   -7.4360    5.2231   -1.2755 C   0  0  0  0  0  0  0  0  0  0  0  0
   -6.7774    4.9458   -0.0766 C   0  0  0  0  0  0  0  0  0  0  0  0
   -6.6026    5.3519    2.0286 H   0  0  0  0  0  0  0  0  0  0  0  0
   -8.3984    7.0750    1.9963 H   0  0  0  0  0  0  0  0  0  0  0  0
   -8.9626    6.4054   -2.2110 H   0  0  0  0  0  0  0  0  0  0  0  0
   -7.1700    4.6818   -2.1767 H   0  0  0  0  0  0  0  0  0  0  0  0
   -5.4924    3.7137   -0.0528 S   0  0  0  0  0  0  0  0  0  0  0  0
   -5.3195    3.2093    1.3113 O   0  0  0  0  0  0  0  0  0  0  0  0
   -4.2381    4.6864   -0.4269 O   0  0  0  0  0  0  0  0  0  0  0  0
   -5.7026    2.7603   -1.1439 O   0  0  0  0  0  0  0  0  0  0  0  0
   -9.8676    7.9367   -0.1403 C   0  0  0  0  0  0  0  0  0  0  0  0
  -10.6712    7.6774   -0.8359 H   0  0  0  0  0  0  0  0  0  0  0  0
  -10.3072    8.0903    0.8487 H   0  0  0  0  0  0  0  0  0  0  0  0
   -9.4534    8.8983   -0.4677 H   0  0  0  0  0  0  0  0  0  0  0  0
  1  8  1  0  0  0  0
  1  2  1  0  0  0  0
  2  3  1  0  0  0  0
  4  1  2  0  0  0  0
  5  6  2  0  0  0  0
  5  4  1  0  0  0  0
  6  7  1  0  0  0  0
  7 12  1  0  0  0  0
  7  8  2  0  0  0  0
  8 13  1  0  0  0  0
  9 26  1  0  0  0  0
 10  5  1  0  0  0  0
 11  6  1  0  0  0  0
 14 20  1  0  0  0  0
 15 14  1  0  0  0  0
 15 21  1  0  0  0  0
 16 15  2  0  0  0  0
 17 18  2  0  0  0  0
 17 16  1  0  0  0  0
 18 19  1  0  0  0  0
 19 24  1  0  0  0  0
 19 14  2  0  0  0  0
 22 17  1  0  0  0  0
 23 18  1  0  0  0  0
 24 25  2  0  0  0  0
 26 24  1  0  0  0  0
 27 24  2  0  0  0  0
 28 16  1  0  0  0  0
 28 30  1  0  0  0  0
 29 28  1  0  0  0  0
 31 28  1  0  0  0  0
M  RAD  3   2   2   3   3   4   2
M  END
