Coordinates from ORCA-job PhN2+~TsO-_B3LYPG-6-31G_dp-CH-Scan-d09-49-n800
 OpenBabel11261919273D

 31 31  0  0  0  0  0  0  0  0999 V2000
   -1.9216    0.4796    0.0885 C   0  0  0  0  0  0  0  0  0  0  0  0
   -3.2905    0.6554    0.3025 N   0  0  0  0  0  0  0  0  0  0  0  0
   -4.3805    0.8453    0.4641 N   0  0  0  0  0  0  0  0  0  0  0  0
   -1.2635    1.6660   -0.2694 C   0  0  0  0  0  0  0  0  0  0  0  0
    0.1202    1.3862   -0.4699 C   0  0  0  0  0  0  0  0  0  0  0  0
    0.6907    0.1255   -0.3262 C   0  0  0  0  0  0  0  0  0  0  0  0
   -0.0834   -1.0025    0.0428 C   0  0  0  0  0  0  0  0  0  0  0  0
   -1.4333   -0.8444    0.2625 C   0  0  0  0  0  0  0  0  0  0  0  0
   -3.3035    5.1217   -0.6811 H   0  0  0  0  0  0  0  0  0  0  0  0
    0.7834    2.2044   -0.7557 H   0  0  0  0  0  0  0  0  0  0  0  0
    1.7571   -0.0134   -0.4999 H   0  0  0  0  0  0  0  0  0  0  0  0
    0.3813   -1.9775    0.1513 H   0  0  0  0  0  0  0  0  0  0  0  0
   -2.0780   -1.6715    0.5482 H   0  0  0  0  0  0  0  0  0  0  0  0
   -7.1619    5.7987    1.1037 C   0  0  0  0  0  0  0  0  0  0  0  0
   -8.3359    6.5496    1.1081 C   0  0  0  0  0  0  0  0  0  0  0  0
   -9.0583    6.7734   -0.0722 C   0  0  0  0  0  0  0  0  0  0  0  0
   -8.5812    6.2138   -1.2679 C   0  0  0  0  0  0  0  0  0  0  0  0
   -7.4112    5.4606   -1.2939 C   0  0  0  0  0  0  0  0  0  0  0  0
   -6.7092    5.2661   -0.1028 C   0  0  0  0  0  0  0  0  0  0  0  0
   -6.6087    5.6142    2.0179 H   0  0  0  0  0  0  0  0  0  0  0  0
   -8.6990    6.9650    2.0437 H   0  0  0  0  0  0  0  0  0  0  0  0
   -9.1369    6.3666   -2.1892 H   0  0  0  0  0  0  0  0  0  0  0  0
   -7.0500    5.0165   -2.2147 H   0  0  0  0  0  0  0  0  0  0  0  0
   -5.2138    4.3024   -0.1221 S   0  0  0  0  0  0  0  0  0  0  0  0
   -4.9241    3.8172    1.2260 O   0  0  0  0  0  0  0  0  0  0  0  0
   -4.1714    5.5188   -0.4889 O   0  0  0  0  0  0  0  0  0  0  0  0
   -5.2364    3.3634   -1.2437 O   0  0  0  0  0  0  0  0  0  0  0  0
  -10.3135    7.6122   -0.0653 C   0  0  0  0  0  0  0  0  0  0  0  0
  -11.0769    7.1939   -0.7284 H   0  0  0  0  0  0  0  0  0  0  0  0
  -10.7379    7.6907    0.9390 H   0  0  0  0  0  0  0  0  0  0  0  0
  -10.1037    8.6306   -0.4149 H   0  0  0  0  0  0  0  0  0  0  0  0
  1  8  1  0  0  0  0
  1  2  1  0  0  0  0
  2  3  1  0  0  0  0
  4  1  2  0  0  0  0
  5  6  2  0  0  0  0
  5  4  1  0  0  0  0
  6  7  1  0  0  0  0
  7 12  1  0  0  0  0
  7  8  2  0  0  0  0
  8 13  1  0  0  0  0
  9 26  1  0  0  0  0
 10  5  1  0  0  0  0
 11  6  1  0  0  0  0
 14 15  1  0  0  0  0
 14 20  1  0  0  0  0
 15 21  1  0  0  0  0
 16 28  1  0  0  0  0
 16 15  2  0  0  0  0
 17 16  1  0  0  0  0
 18 17  2  0  0  0  0
 18 19  1  0  0  0  0
 19 14  2  0  0  0  0
 22 17  1  0  0  0  0
 23 18  1  0  0  0  0
 24 19  1  0  0  0  0
 24 25  2  0  0  0  0
 26 24  1  0  0  0  0
 27 24  2  0  0  0  0
 28 30  1  0  0  0  0
 29 28  1  0  0  0  0
 31 28  1  0  0  0  0
M  RAD  3   2   2   3   3   4   2
M  END
