Coordinates from ORCA-job PhN2+~TsO-_B3LYPG-6-31G_dp-CH-Scan-d09-49-n800
 OpenBabel11261919273D

 31 31  0  0  0  0  0  0  0  0999 V2000
   -1.9916    0.4952    0.0964 C   0  0  0  0  0  0  0  0  0  0  0  0
   -3.3660    0.5499    0.3322 N   0  0  0  0  0  0  0  0  0  0  0  0
   -4.4658    0.6410    0.5099 N   0  0  0  0  0  0  0  0  0  0  0  0
   -1.4384    1.7346   -0.2622 C   0  0  0  0  0  0  0  0  0  0  0  0
   -0.0410    1.5747   -0.4887 C   0  0  0  0  0  0  0  0  0  0  0  0
    0.6359    0.3653   -0.3654 C   0  0  0  0  0  0  0  0  0  0  0  0
   -0.0342   -0.8257    0.0076 C   0  0  0  0  0  0  0  0  0  0  0  0
   -1.3889   -0.7831    0.2508 C   0  0  0  0  0  0  0  0  0  0  0  0
   -3.3310    4.7294   -0.5366 H   0  0  0  0  0  0  0  0  0  0  0  0
    0.5453    2.4479   -0.7792 H   0  0  0  0  0  0  0  0  0  0  0  0
    1.7067    0.3183   -0.5585 H   0  0  0  0  0  0  0  0  0  0  0  0
    0.5122   -1.7590    0.1006 H   0  0  0  0  0  0  0  0  0  0  0  0
   -1.9562   -1.6636    0.5406 H   0  0  0  0  0  0  0  0  0  0  0  0
   -7.1535    5.7266    1.1115 C   0  0  0  0  0  0  0  0  0  0  0  0
   -8.2656    6.5660    1.0933 C   0  0  0  0  0  0  0  0  0  0  0  0
   -8.9624    6.8211   -0.0962 C   0  0  0  0  0  0  0  0  0  0  0  0
   -8.5242    6.2019   -1.2772 C   0  0  0  0  0  0  0  0  0  0  0  0
   -7.4158    5.3599   -1.2802 C   0  0  0  0  0  0  0  0  0  0  0  0
   -6.7370    5.1361   -0.0811 C   0  0  0  0  0  0  0  0  0  0  0  0
   -6.6211    5.5183    2.0330 H   0  0  0  0  0  0  0  0  0  0  0  0
   -8.6005    7.0269    2.0181 H   0  0  0  0  0  0  0  0  0  0  0  0
   -9.0616    6.3785   -2.2050 H   0  0  0  0  0  0  0  0  0  0  0  0
   -7.0849    4.8706   -2.1894 H   0  0  0  0  0  0  0  0  0  0  0  0
   -5.3204    4.0592   -0.0712 S   0  0  0  0  0  0  0  0  0  0  0  0
   -5.0896    3.5610    1.2845 O   0  0  0  0  0  0  0  0  0  0  0  0
   -4.1842    5.1870   -0.4266 O   0  0  0  0  0  0  0  0  0  0  0  0
   -5.4065    3.1131   -1.1839 O   0  0  0  0  0  0  0  0  0  0  0  0
  -10.1475    7.7558   -0.1143 C   0  0  0  0  0  0  0  0  0  0  0  0
  -10.9279    7.3985   -0.7931 H   0  0  0  0  0  0  0  0  0  0  0  0
  -10.5848    7.8689    0.8811 H   0  0  0  0  0  0  0  0  0  0  0  0
   -9.8512    8.7543   -0.4586 H   0  0  0  0  0  0  0  0  0  0  0  0
  1  8  1  0  0  0  0
  1  2  1  0  0  0  0
  2  3  1  0  0  0  0
  4  1  2  0  0  0  0
  5  6  2  0  0  0  0
  5  4  1  0  0  0  0
  6  7  1  0  0  0  0
  7 12  1  0  0  0  0
  7  8  2  0  0  0  0
  8 13  1  0  0  0  0
  9 26  1  0  0  0  0
 10  5  1  0  0  0  0
 11  6  1  0  0  0  0
 14 20  1  0  0  0  0
 15 14  1  0  0  0  0
 15 21  1  0  0  0  0
 16 15  2  0  0  0  0
 17 16  1  0  0  0  0
 18 17  2  0  0  0  0
 18 19  1  0  0  0  0
 19 24  1  0  0  0  0
 19 14  2  0  0  0  0
 22 17  1  0  0  0  0
 23 18  1  0  0  0  0
 24 25  2  0  0  0  0
 26 24  1  0  0  0  0
 27 24  2  0  0  0  0
 28 16  1  0  0  0  0
 28 30  1  0  0  0  0
 29 28  1  0  0  0  0
 31 28  1  0  0  0  0
M  RAD  3   2   2   3   3   4   2
M  END
