Coordinates from ORCA-job PhN2+~TsO-_B3LYPG-6-31G_dp-CH-Scan-d09-49-n800
 OpenBabel11261919273D

 31 31  0  0  0  0  0  0  0  0999 V2000
   -1.9470    0.4835    0.0951 C   0  0  0  0  0  0  0  0  0  0  0  0
   -3.3178    0.6172    0.3240 N   0  0  0  0  0  0  0  0  0  0  0  0
   -4.4114    0.7733    0.4962 N   0  0  0  0  0  0  0  0  0  0  0  0
   -1.3275    1.6899   -0.2658 C   0  0  0  0  0  0  0  0  0  0  0  0
    0.0611    1.4522   -0.4830 C   0  0  0  0  0  0  0  0  0  0  0  0
    0.6703    0.2085   -0.3505 C   0  0  0  0  0  0  0  0  0  0  0  0
   -0.0657   -0.9431    0.0233 C   0  0  0  0  0  0  0  0  0  0  0  0
   -1.4173   -0.8257    0.2587 C   0  0  0  0  0  0  0  0  0  0  0  0
   -3.3064    4.9899   -0.6156 H   0  0  0  0  0  0  0  0  0  0  0  0
    0.6963    2.2907   -0.7735 H   0  0  0  0  0  0  0  0  0  0  0  0
    1.7381    0.1019   -0.5369 H   0  0  0  0  0  0  0  0  0  0  0  0
    0.4288   -1.9042    0.1232 H   0  0  0  0  0  0  0  0  0  0  0  0
   -2.0338   -1.6725    0.5488 H   0  0  0  0  0  0  0  0  0  0  0  0
   -7.1620    5.7744    1.1090 C   0  0  0  0  0  0  0  0  0  0  0  0
   -8.3160    6.5559    1.1020 C   0  0  0  0  0  0  0  0  0  0  0  0
   -9.0263    6.7899   -0.0836 C   0  0  0  0  0  0  0  0  0  0  0  0
   -8.5582    6.2090   -1.2727 C   0  0  0  0  0  0  0  0  0  0  0  0
   -7.4082    5.4253   -1.2872 C   0  0  0  0  0  0  0  0  0  0  0  0
   -6.7174    5.2214   -0.0912 C   0  0  0  0  0  0  0  0  0  0  0  0
   -6.6185    5.5822    2.0274 H   0  0  0  0  0  0  0  0  0  0  0  0
   -8.6727    6.9874    2.0327 H   0  0  0  0  0  0  0  0  0  0  0  0
   -9.1051    6.3697   -2.1980 H   0  0  0  0  0  0  0  0  0  0  0  0
   -7.0541    4.9652   -2.2028 H   0  0  0  0  0  0  0  0  0  0  0  0
   -5.2474    4.2191   -0.0961 S   0  0  0  0  0  0  0  0  0  0  0  0
   -4.9808    3.7295    1.2555 O   0  0  0  0  0  0  0  0  0  0  0  0
   -4.1720    5.4070   -0.4562 O   0  0  0  0  0  0  0  0  0  0  0  0
   -5.2879    3.2770   -1.2146 O   0  0  0  0  0  0  0  0  0  0  0  0
  -10.2584    7.6622   -0.0894 C   0  0  0  0  0  0  0  0  0  0  0  0
  -11.0267    7.2640   -0.7592 H   0  0  0  0  0  0  0  0  0  0  0  0
  -10.6898    7.7537    0.9108 H   0  0  0  0  0  0  0  0  0  0  0  0
  -10.0178    8.6741   -0.4381 H   0  0  0  0  0  0  0  0  0  0  0  0
  1  8  1  0  0  0  0
  1  2  1  0  0  0  0
  2  3  1  0  0  0  0
  4  1  2  0  0  0  0
  5  6  2  0  0  0  0
  5  4  1  0  0  0  0
  6  7  1  0  0  0  0
  7 12  1  0  0  0  0
  7  8  2  0  0  0  0
  8 13  1  0  0  0  0
  9 26  1  0  0  0  0
 10  5  1  0  0  0  0
 11  6  1  0  0  0  0
 14 20  1  0  0  0  0
 15 14  1  0  0  0  0
 15 21  1  0  0  0  0
 16 15  2  0  0  0  0
 17 16  1  0  0  0  0
 18 17  2  0  0  0  0
 18 19  1  0  0  0  0
 19 14  2  0  0  0  0
 22 17  1  0  0  0  0
 23 18  1  0  0  0  0
 24 19  1  0  0  0  0
 24 25  2  0  0  0  0
 26 24  1  0  0  0  0
 27 24  2  0  0  0  0
 28 16  1  0  0  0  0
 28 30  1  0  0  0  0
 29 28  1  0  0  0  0
 31 28  1  0  0  0  0
M  RAD  3   2   2   3   3   4   2
M  END
