Coordinates from ORCA-job PhN2+~TsO-_B3LYPG-6-31G_dp-CH-Scan-d09-49-n800
 OpenBabel11261919273D

 31 31  0  0  0  0  0  0  0  0999 V2000
   -2.0659    0.5203    0.0894 C   0  0  0  0  0  0  0  0  0  0  0  0
   -3.4392    0.4457    0.3162 N   0  0  0  0  0  0  0  0  0  0  0  0
   -4.5429    0.4288    0.4891 N   0  0  0  0  0  0  0  0  0  0  0  0
   -1.6166    1.8059   -0.2556 C   0  0  0  0  0  0  0  0  0  0  0  0
   -0.2103    1.7751   -0.4708 C   0  0  0  0  0  0  0  0  0  0  0  0
    0.5704    0.6293   -0.3499 C   0  0  0  0  0  0  0  0  0  0  0  0
    0.0055   -0.6187    0.0074 C   0  0  0  0  0  0  0  0  0  0  0  0
   -1.3499   -0.6986    0.2383 C   0  0  0  0  0  0  0  0  0  0  0  0
   -3.4038    4.2892   -0.4788 H   0  0  0  0  0  0  0  0  0  0  0  0
    0.2967    2.6996   -0.7493 H   0  0  0  0  0  0  0  0  0  0  0  0
    1.6426    0.6800   -0.5329 H   0  0  0  0  0  0  0  0  0  0  0  0
    0.6309   -1.5009    0.0983 H   0  0  0  0  0  0  0  0  0  0  0  0
   -1.8384   -1.6287    0.5160 H   0  0  0  0  0  0  0  0  0  0  0  0
   -7.1243    5.6385    1.1049 C   0  0  0  0  0  0  0  0  0  0  0  0
   -8.1612    6.5690    1.0825 C   0  0  0  0  0  0  0  0  0  0  0  0
   -8.8452    6.8643   -0.1053 C   0  0  0  0  0  0  0  0  0  0  0  0
   -8.4727    6.1920   -1.2795 C   0  0  0  0  0  0  0  0  0  0  0  0
   -7.4399    5.2584   -1.2780 C   0  0  0  0  0  0  0  0  0  0  0  0
   -6.7709    4.9961   -0.0814 C   0  0  0  0  0  0  0  0  0  0  0  0
   -6.6027    5.3997    2.0250 H   0  0  0  0  0  0  0  0  0  0  0  0
   -8.4473    7.0705    2.0027 H   0  0  0  0  0  0  0  0  0  0  0  0
   -9.0021    6.3994   -2.2056 H   0  0  0  0  0  0  0  0  0  0  0  0
   -7.1604    4.7283   -2.1817 H   0  0  0  0  0  0  0  0  0  0  0  0
   -5.4508    3.8019   -0.0650 S   0  0  0  0  0  0  0  0  0  0  0  0
   -5.2586    3.2989    1.2964 O   0  0  0  0  0  0  0  0  0  0  0  0
   -4.2255    4.8165   -0.4377 O   0  0  0  0  0  0  0  0  0  0  0  0
   -5.6320    2.8495   -1.1615 O   0  0  0  0  0  0  0  0  0  0  0  0
   -9.9459    7.8967   -0.1278 C   0  0  0  0  0  0  0  0  0  0  0  0
  -10.7449    7.6147   -0.8199 H   0  0  0  0  0  0  0  0  0  0  0  0
  -10.3852    8.0370    0.8634 H   0  0  0  0  0  0  0  0  0  0  0  0
   -9.5611    8.8700   -0.4565 H   0  0  0  0  0  0  0  0  0  0  0  0
  1  8  1  0  0  0  0
  1  2  1  0  0  0  0
  2  3  1  0  0  0  0
  4  1  2  0  0  0  0
  5  6  2  0  0  0  0
  5  4  1  0  0  0  0
  6  7  1  0  0  0  0
  7 12  1  0  0  0  0
  7  8  2  0  0  0  0
  8 13  1  0  0  0  0
  9 26  1  0  0  0  0
 10  5  1  0  0  0  0
 11  6  1  0  0  0  0
 14 20  1  0  0  0  0
 15 14  1  0  0  0  0
 15 21  1  0  0  0  0
 16 15  2  0  0  0  0
 17 18  2  0  0  0  0
 17 16  1  0  0  0  0
 18 19  1  0  0  0  0
 19 24  1  0  0  0  0
 19 14  2  0  0  0  0
 22 17  1  0  0  0  0
 23 18  1  0  0  0  0
 24 25  2  0  0  0  0
 26 24  1  0  0  0  0
 27 24  2  0  0  0  0
 28 16  1  0  0  0  0
 28 30  1  0  0  0  0
 29 28  1  0  0  0  0
 31 28  1  0  0  0  0
M  RAD  3   2   2   3   3   4   2
M  END
