Coordinates from ORCA-job PhN2+~TsO-_B3LYPG-6-31G_dp-CH-Scan-d09-49-n800
 OpenBabel11261919273D

 31 31  0  0  0  0  0  0  0  0999 V2000
   -1.9224    0.4796    0.0893 C   0  0  0  0  0  0  0  0  0  0  0  0
   -3.2910    0.6547    0.3057 N   0  0  0  0  0  0  0  0  0  0  0  0
   -4.3813    0.8435    0.4662 N   0  0  0  0  0  0  0  0  0  0  0  0
   -1.2659    1.6663   -0.2707 C   0  0  0  0  0  0  0  0  0  0  0  0
    0.1178    1.3877   -0.4727 C   0  0  0  0  0  0  0  0  0  0  0  0
    0.6897    0.1275   -0.3290 C   0  0  0  0  0  0  0  0  0  0  0  0
   -0.0829   -1.0010    0.0419 C   0  0  0  0  0  0  0  0  0  0  0  0
   -1.4327   -0.8439    0.2633 C   0  0  0  0  0  0  0  0  0  0  0  0
   -3.3029    5.1186   -0.6763 H   0  0  0  0  0  0  0  0  0  0  0  0
    0.7799    2.2063   -0.7600 H   0  0  0  0  0  0  0  0  0  0  0  0
    1.7559   -0.0106   -0.5041 H   0  0  0  0  0  0  0  0  0  0  0  0
    0.3828   -1.9754    0.1505 H   0  0  0  0  0  0  0  0  0  0  0  0
   -2.0762   -1.6713    0.5507 H   0  0  0  0  0  0  0  0  0  0  0  0
   -7.1626    5.7978    1.1044 C   0  0  0  0  0  0  0  0  0  0  0  0
   -8.3363    6.5494    1.1078 C   0  0  0  0  0  0  0  0  0  0  0  0
   -9.0575    6.7737   -0.0730 C   0  0  0  0  0  0  0  0  0  0  0  0
   -8.5797    6.2139   -1.2684 C   0  0  0  0  0  0  0  0  0  0  0  0
   -7.4101    5.4601   -1.2934 C   0  0  0  0  0  0  0  0  0  0  0  0
   -6.7092    5.2651   -0.1017 C   0  0  0  0  0  0  0  0  0  0  0  0
   -6.6103    5.6129    2.0190 H   0  0  0  0  0  0  0  0  0  0  0  0
   -8.6999    6.9649    2.0432 H   0  0  0  0  0  0  0  0  0  0  0  0
   -9.1345    6.3671   -2.1902 H   0  0  0  0  0  0  0  0  0  0  0  0
   -7.0483    5.0159   -2.2139 H   0  0  0  0  0  0  0  0  0  0  0  0
   -5.2143    4.3005   -0.1198 S   0  0  0  0  0  0  0  0  0  0  0  0
   -4.9261    3.8150    1.2285 O   0  0  0  0  0  0  0  0  0  0  0  0
   -4.1709    5.5164   -0.4854 O   0  0  0  0  0  0  0  0  0  0  0  0
   -5.2365    3.3617   -1.2416 O   0  0  0  0  0  0  0  0  0  0  0  0
  -10.3121    7.6132   -0.0672 C   0  0  0  0  0  0  0  0  0  0  0  0
  -11.0752    7.1956   -0.7311 H   0  0  0  0  0  0  0  0  0  0  0  0
  -10.7375    7.6918    0.9367 H   0  0  0  0  0  0  0  0  0  0  0  0
  -10.1015    8.6316   -0.4163 H   0  0  0  0  0  0  0  0  0  0  0  0
  1  8  1  0  0  0  0
  1  2  1  0  0  0  0
  2  3  1  0  0  0  0
  4  1  2  0  0  0  0
  5  6  2  0  0  0  0
  5  4  1  0  0  0  0
  6  7  1  0  0  0  0
  7 12  1  0  0  0  0
  7  8  2  0  0  0  0
  8 13  1  0  0  0  0
  9 26  1  0  0  0  0
 10  5  1  0  0  0  0
 11  6  1  0  0  0  0
 14 15  1  0  0  0  0
 14 20  1  0  0  0  0
 15 21  1  0  0  0  0
 16 28  1  0  0  0  0
 16 15  2  0  0  0  0
 17 16  1  0  0  0  0
 18 17  2  0  0  0  0
 18 19  1  0  0  0  0
 19 14  2  0  0  0  0
 22 17  1  0  0  0  0
 23 18  1  0  0  0  0
 24 19  1  0  0  0  0
 24 25  2  0  0  0  0
 26 24  1  0  0  0  0
 27 24  2  0  0  0  0
 28 30  1  0  0  0  0
 29 28  1  0  0  0  0
 31 28  1  0  0  0  0
M  RAD  3   2   2   3   3   4   2
M  END
