Coordinates from ORCA-job PhN2+~TsO-_B3LYPG-6-31G_dp-CH-Scan-d09-49-n800
 OpenBabel11261919273D

 31 31  0  0  0  0  0  0  0  0999 V2000
   -2.0083    0.4989    0.0922 C   0  0  0  0  0  0  0  0  0  0  0  0
   -3.3844    0.5107    0.3212 N   0  0  0  0  0  0  0  0  0  0  0  0
   -4.4871    0.5646    0.4949 N   0  0  0  0  0  0  0  0  0  0  0  0
   -1.4881    1.7539   -0.2627 C   0  0  0  0  0  0  0  0  0  0  0  0
   -0.0859    1.6356   -0.4824 C   0  0  0  0  0  0  0  0  0  0  0  0
    0.6254    0.4463   -0.3563 C   0  0  0  0  0  0  0  0  0  0  0  0
   -0.0116   -0.7638    0.0124 C   0  0  0  0  0  0  0  0  0  0  0  0
   -1.3682   -0.7608    0.2487 C   0  0  0  0  0  0  0  0  0  0  0  0
   -3.3582    4.5855   -0.5195 H   0  0  0  0  0  0  0  0  0  0  0  0
    0.4756    2.5259   -0.7692 H   0  0  0  0  0  0  0  0  0  0  0  0
    1.6981    0.4311   -0.5438 H   0  0  0  0  0  0  0  0  0  0  0  0
    0.5611   -1.6809    0.1077 H   0  0  0  0  0  0  0  0  0  0  0  0
   -1.9109   -1.6579    0.5349 H   0  0  0  0  0  0  0  0  0  0  0  0
   -7.1476    5.7007    1.1079 C   0  0  0  0  0  0  0  0  0  0  0  0
   -8.2348    6.5721    1.0900 C   0  0  0  0  0  0  0  0  0  0  0  0
   -8.9294    6.8411   -0.0978 C   0  0  0  0  0  0  0  0  0  0  0  0
   -8.5150    6.2030   -1.2772 C   0  0  0  0  0  0  0  0  0  0  0  0
   -7.4317    5.3287   -1.2805 C   0  0  0  0  0  0  0  0  0  0  0  0
   -6.7542    5.0916   -0.0833 C   0  0  0  0  0  0  0  0  0  0  0  0
   -6.6173    5.4818    2.0281 H   0  0  0  0  0  0  0  0  0  0  0  0
   -8.5519    7.0475    2.0138 H   0  0  0  0  0  0  0  0  0  0  0  0
   -9.0513    6.3902   -2.2036 H   0  0  0  0  0  0  0  0  0  0  0  0
   -7.1194    4.8249   -2.1884 H   0  0  0  0  0  0  0  0  0  0  0  0
   -5.3697    3.9735   -0.0735 S   0  0  0  0  0  0  0  0  0  0  0  0
   -5.1505    3.4719    1.2834 O   0  0  0  0  0  0  0  0  0  0  0  0
   -4.2027    5.0652   -0.4345 O   0  0  0  0  0  0  0  0  0  0  0  0
   -5.4888    3.0256   -1.1817 O   0  0  0  0  0  0  0  0  0  0  0  0
  -10.0865    7.8101   -0.1155 C   0  0  0  0  0  0  0  0  0  0  0  0
  -10.8747    7.4789   -0.7982 H   0  0  0  0  0  0  0  0  0  0  0  0
  -10.5236    7.9317    0.8791 H   0  0  0  0  0  0  0  0  0  0  0  0
   -9.7600    8.8011   -0.4542 H   0  0  0  0  0  0  0  0  0  0  0  0
  1  8  1  0  0  0  0
  1  2  1  0  0  0  0
  2  3  1  0  0  0  0
  4  1  2  0  0  0  0
  5  6  2  0  0  0  0
  5  4  1  0  0  0  0
  6  7  1  0  0  0  0
  7 12  1  0  0  0  0
  7  8  2  0  0  0  0
  8 13  1  0  0  0  0
  9 26  1  0  0  0  0
 10  5  1  0  0  0  0
 11  6  1  0  0  0  0
 14 20  1  0  0  0  0
 15 14  1  0  0  0  0
 15 21  1  0  0  0  0
 16 15  2  0  0  0  0
 17 16  1  0  0  0  0
 18 17  2  0  0  0  0
 18 19  1  0  0  0  0
 19 24  1  0  0  0  0
 19 14  2  0  0  0  0
 22 17  1  0  0  0  0
 23 18  1  0  0  0  0
 24 25  2  0  0  0  0
 26 24  1  0  0  0  0
 27 24  2  0  0  0  0
 28 16  1  0  0  0  0
 28 30  1  0  0  0  0
 29 28  1  0  0  0  0
 31 28  1  0  0  0  0
M  RAD  3   2   2   3   3   4   2
M  END
