Coordinates from ORCA-job PhN2+~TsO-_B3LYPG-6-31G_dp-CH-Scan-d09-49-n800
 OpenBabel11261919283D

 31 31  0  0  0  0  0  0  0  0999 V2000
   -1.8525    0.4689    0.0387 C   0  0  0  0  0  0  0  0  0  0  0  0
   -3.2132    0.7562    0.1714 N   0  0  0  0  0  0  0  0  0  0  0  0
   -4.2928    1.0330    0.2644 N   0  0  0  0  0  0  0  0  0  0  0  0
   -1.0883    1.5898   -0.3187 C   0  0  0  0  0  0  0  0  0  0  0  0
    0.2796    1.2002   -0.4288 C   0  0  0  0  0  0  0  0  0  0  0  0
    0.7433   -0.0932   -0.2114 C   0  0  0  0  0  0  0  0  0  0  0  0
   -0.1340   -1.1471    0.1465 C   0  0  0  0  0  0  0  0  0  0  0  0
   -1.4782   -0.8815    0.2818 C   0  0  0  0  0  0  0  0  0  0  0  0
   -3.3163    5.4700   -0.8806 H   0  0  0  0  0  0  0  0  0  0  0  0
    1.0181    1.9563   -0.7011 H   0  0  0  0  0  0  0  0  0  0  0  0
    1.8043   -0.3169   -0.3164 H   0  0  0  0  0  0  0  0  0  0  0  0
    0.2484   -2.1491    0.3130 H   0  0  0  0  0  0  0  0  0  0  0  0
   -2.1992   -1.6478    0.5548 H   0  0  0  0  0  0  0  0  0  0  0  0
   -7.1496    5.8562    1.0802 C   0  0  0  0  0  0  0  0  0  0  0  0
   -8.3719    6.5245    1.1307 C   0  0  0  0  0  0  0  0  0  0  0  0
   -9.1360    6.7275   -0.0265 C   0  0  0  0  0  0  0  0  0  0  0  0
   -8.6498    6.2337   -1.2477 C   0  0  0  0  0  0  0  0  0  0  0  0
   -7.4321    5.5643   -1.3199 C   0  0  0  0  0  0  0  0  0  0  0  0
   -6.6906    5.3873   -0.1499 C   0  0  0  0  0  0  0  0  0  0  0  0
   -6.5638    5.6866    1.9768 H   0  0  0  0  0  0  0  0  0  0  0  0
   -8.7399    6.8902    2.0849 H   0  0  0  0  0  0  0  0  0  0  0  0
   -9.2363    6.3717   -2.1521 H   0  0  0  0  0  0  0  0  0  0  0  0
   -7.0635    5.1700   -2.2603 H   0  0  0  0  0  0  0  0  0  0  0  0
   -5.1359    4.5262   -0.2273 S   0  0  0  0  0  0  0  0  0  0  0  0
   -4.7833    4.0321    1.1017 O   0  0  0  0  0  0  0  0  0  0  0  0
   -4.1795    5.8149   -0.5910 O   0  0  0  0  0  0  0  0  0  0  0  0
   -5.1188    3.6166   -1.3733 O   0  0  0  0  0  0  0  0  0  0  0  0
  -10.4483    7.4716    0.0306 C   0  0  0  0  0  0  0  0  0  0  0  0
  -11.2111    6.9814   -0.5822 H   0  0  0  0  0  0  0  0  0  0  0  0
  -10.8255    7.5415    1.0542 H   0  0  0  0  0  0  0  0  0  0  0  0
  -10.3351    8.4937   -0.3505 H   0  0  0  0  0  0  0  0  0  0  0  0
  1  2  1  0  0  0  0
  1  8  2  0  0  0  0
  2  3  1  0  0  0  0
  4  1  1  0  0  0  0
  5  4  2  0  0  0  0
  5  6  1  0  0  0  0
  6  7  2  0  0  0  0
  7  8  1  0  0  0  0
  7 12  1  0  0  0  0
  8 13  1  0  0  0  0
  9 26  1  0  0  0  0
 10  5  1  0  0  0  0
 11  6  1  0  0  0  0
 14 15  1  0  0  0  0
 14 20  1  0  0  0  0
 15 21  1  0  0  0  0
 16 28  1  0  0  0  0
 16 15  2  0  0  0  0
 17 16  1  0  0  0  0
 18 17  2  0  0  0  0
 18 19  1  0  0  0  0
 19 14  2  0  0  0  0
 22 17  1  0  0  0  0
 23 18  1  0  0  0  0
 24 19  1  0  0  0  0
 24 25  2  0  0  0  0
 26 24  1  0  0  0  0
 27 24  2  0  0  0  0
 28 30  1  0  0  0  0
 29 28  1  0  0  0  0
 31 28  1  0  0  0  0
M  RAD  3   2   2   3   3   4   2
M  END
