Coordinates from ORCA-job PhN2+~TsO-_B3LYPG-6-31G_dp-CH-Scan-d09-49-n800
 OpenBabel11261919273D

 31 31  0  0  0  0  0  0  0  0999 V2000
   -2.1670    0.5723    0.1041 C   0  0  0  0  0  0  0  0  0  0  0  0
   -3.5210    0.3750    0.3605 N   0  0  0  0  0  0  0  0  0  0  0  0
   -4.6135    0.2545    0.5590 N   0  0  0  0  0  0  0  0  0  0  0  0
   -1.8266    1.8939   -0.2333 C   0  0  0  0  0  0  0  0  0  0  0  0
   -0.4303    1.9865   -0.4779 C   0  0  0  0  0  0  0  0  0  0  0  0
    0.4454    0.9080   -0.3888 C   0  0  0  0  0  0  0  0  0  0  0  0
   -0.0066   -0.3857   -0.0380 C   0  0  0  0  0  0  0  0  0  0  0  0
   -1.3456   -0.5813    0.2194 C   0  0  0  0  0  0  0  0  0  0  0  0
   -3.4680    3.8558   -0.3787 H   0  0  0  0  0  0  0  0  0  0  0  0
   -0.0106    2.9537   -0.7539 H   0  0  0  0  0  0  0  0  0  0  0  0
    1.5050    1.0509   -0.5929 H   0  0  0  0  0  0  0  0  0  0  0  0
    0.6909   -1.2144    0.0278 H   0  0  0  0  0  0  0  0  0  0  0  0
   -1.7484   -1.5522    0.4939 H   0  0  0  0  0  0  0  0  0  0  0  0
   -7.1029    5.5276    1.1172 C   0  0  0  0  0  0  0  0  0  0  0  0
   -8.0642    6.5355    1.0725 C   0  0  0  0  0  0  0  0  0  0  0  0
   -8.7008    6.8779   -0.1287 C   0  0  0  0  0  0  0  0  0  0  0  0
   -8.3593    6.1738   -1.2936 C   0  0  0  0  0  0  0  0  0  0  0  0
   -7.4023    5.1628   -1.2693 C   0  0  0  0  0  0  0  0  0  0  0  0
   -6.7778    4.8544   -0.0598 C   0  0  0  0  0  0  0  0  0  0  0  0
   -6.6187    5.2529    2.0475 H   0  0  0  0  0  0  0  0  0  0  0  0
   -8.3281    7.0614    1.9858 H   0  0  0  0  0  0  0  0  0  0  0  0
   -8.8536    6.4174   -2.2303 H   0  0  0  0  0  0  0  0  0  0  0  0
   -7.1482    4.6083   -2.1659 H   0  0  0  0  0  0  0  0  0  0  0  0
   -5.5546    3.5605   -0.0149 S   0  0  0  0  0  0  0  0  0  0  0  0
   -5.4283    3.0527    1.3546 O   0  0  0  0  0  0  0  0  0  0  0  0
   -4.2501    4.4561   -0.3777 O   0  0  0  0  0  0  0  0  0  0  0  0
   -5.8058    2.6083   -1.0998 O   0  0  0  0  0  0  0  0  0  0  0  0
   -9.7183    7.9918   -0.1747 C   0  0  0  0  0  0  0  0  0  0  0  0
  -10.5295    7.7647   -0.8730 H   0  0  0  0  0  0  0  0  0  0  0  0
  -10.1563    8.1763    0.8097 H   0  0  0  0  0  0  0  0  0  0  0  0
   -9.2565    8.9291   -0.5089 H   0  0  0  0  0  0  0  0  0  0  0  0
  1  8  1  0  0  0  0
  1  2  1  0  0  0  0
  2  3  1  0  0  0  0
  4  1  2  0  0  0  0
  5  6  2  0  0  0  0
  5  4  1  0  0  0  0
  6  7  1  0  0  0  0
  7 12  1  0  0  0  0
  7  8  2  0  0  0  0
  8 13  1  0  0  0  0
  9 26  1  0  0  0  0
 10  5  1  0  0  0  0
 11  6  1  0  0  0  0
 14 20  1  0  0  0  0
 15 14  1  0  0  0  0
 15 21  1  0  0  0  0
 16 15  2  0  0  0  0
 17 18  2  0  0  0  0
 17 16  1  0  0  0  0
 18 19  1  0  0  0  0
 19 24  1  0  0  0  0
 19 14  2  0  0  0  0
 22 17  1  0  0  0  0
 23 18  1  0  0  0  0
 24 25  2  0  0  0  0
 26 24  1  0  0  0  0
 27 24  2  0  0  0  0
 28 16  1  0  0  0  0
 28 30  1  0  0  0  0
 29 28  1  0  0  0  0
 31 28  1  0  0  0  0
M  RAD  3   2   2   3   3   4   2
M  END
