Coordinates from ORCA-job PhN2+~TsO-_B3LYPG-6-31G_dp-CH-Scan-d09-49-n800
 OpenBabel11261919273D

 31 31  0  0  0  0  0  0  0  0999 V2000
   -2.2203    0.5995    0.1143 C   0  0  0  0  0  0  0  0  0  0  0  0
   -3.5619    0.3509    0.3877 N   0  0  0  0  0  0  0  0  0  0  0  0
   -4.6465    0.1901    0.5992 N   0  0  0  0  0  0  0  0  0  0  0  0
   -1.9273    1.9328   -0.2233 C   0  0  0  0  0  0  0  0  0  0  0  0
   -0.5396    2.0755   -0.4865 C   0  0  0  0  0  0  0  0  0  0  0  0
    0.3740    1.0276   -0.4129 C   0  0  0  0  0  0  0  0  0  0  0  0
   -0.0283   -0.2813   -0.0605 C   0  0  0  0  0  0  0  0  0  0  0  0
   -1.3564   -0.5236    0.2141 C   0  0  0  0  0  0  0  0  0  0  0  0
   -3.4834    3.6859   -0.3363 H   0  0  0  0  0  0  0  0  0  0  0  0
   -0.1589    3.0576   -0.7646 H   0  0  0  0  0  0  0  0  0  0  0  0
    1.4250    1.2081   -0.6309 H   0  0  0  0  0  0  0  0  0  0  0  0
    0.6979   -1.0858   -0.0067 H   0  0  0  0  0  0  0  0  0  0  0  0
   -1.7215   -1.5086    0.4907 H   0  0  0  0  0  0  0  0  0  0  0  0
   -7.0910    5.4769    1.1245 C   0  0  0  0  0  0  0  0  0  0  0  0
   -8.0229    6.5115    1.0694 C   0  0  0  0  0  0  0  0  0  0  0  0
   -8.6339    6.8737   -0.1392 C   0  0  0  0  0  0  0  0  0  0  0  0
   -8.2971    6.1619   -1.3008 C   0  0  0  0  0  0  0  0  0  0  0  0
   -7.3694    5.1244   -1.2658 C   0  0  0  0  0  0  0  0  0  0  0  0
   -6.7693    4.7962   -0.0491 C   0  0  0  0  0  0  0  0  0  0  0  0
   -6.6268    5.1870    2.0604 H   0  0  0  0  0  0  0  0  0  0  0  0
   -8.2839    7.0433    1.9802 H   0  0  0  0  0  0  0  0  0  0  0  0
   -8.7721    6.4207   -2.2434 H   0  0  0  0  0  0  0  0  0  0  0  0
   -7.1194    4.5640   -2.1600 H   0  0  0  0  0  0  0  0  0  0  0  0
   -5.5826    3.4687    0.0091 S   0  0  0  0  0  0  0  0  0  0  0  0
   -5.4877    2.9590    1.3816 O   0  0  0  0  0  0  0  0  0  0  0  0
   -4.2514    4.3163   -0.3433 O   0  0  0  0  0  0  0  0  0  0  0  0
   -5.8567    2.5180   -1.0729 O   0  0  0  0  0  0  0  0  0  0  0  0
   -9.6195    8.0155   -0.1965 C   0  0  0  0  0  0  0  0  0  0  0  0
  -10.4335    7.8073   -0.8974 H   0  0  0  0  0  0  0  0  0  0  0  0
  -10.0569    8.2177    0.7847 H   0  0  0  0  0  0  0  0  0  0  0  0
   -9.1303    8.9378   -0.5337 H   0  0  0  0  0  0  0  0  0  0  0  0
  1  8  1  0  0  0  0
  1  2  1  0  0  0  0
  2  3  1  0  0  0  0
  4  1  2  0  0  0  0
  5  6  2  0  0  0  0
  5  4  1  0  0  0  0
  6  7  1  0  0  0  0
  7 12  1  0  0  0  0
  7  8  2  0  0  0  0
  8 13  1  0  0  0  0
 10  5  1  0  0  0  0
 11  6  1  0  0  0  0
 14 20  1  0  0  0  0
 15 14  1  0  0  0  0
 15 21  1  0  0  0  0
 16 15  2  0  0  0  0
 17 18  2  0  0  0  0
 17 16  1  0  0  0  0
 18 19  1  0  0  0  0
 19 24  1  0  0  0  0
 19 14  2  0  0  0  0
 22 17  1  0  0  0  0
 23 18  1  0  0  0  0
 24 25  2  0  0  0  0
 26  9  1  0  0  0  0
 26 24  1  0  0  0  0
 27 24  2  0  0  0  0
 28 16  1  0  0  0  0
 28 30  1  0  0  0  0
 29 28  1  0  0  0  0
 31 28  1  0  0  0  0
M  RAD  3   2   2   3   3   4   2
M  END
