Coordinates from ORCA-job PhN2+~TsO-_B3LYPG-6-31G_dp-CH-Scan-d09-49-n800
 OpenBabel11261919273D

 31 31  0  0  0  0  0  0  0  0999 V2000
   -2.4596    0.7640    0.1089 C   0  0  0  0  0  0  0  0  0  0  0  0
   -3.7912    0.4930    0.3970 N   0  0  0  0  0  0  0  0  0  0  0  0
   -4.8836    0.3922    0.6025 N   0  0  0  0  0  0  0  0  0  0  0  0
   -2.1277    2.0918   -0.2080 C   0  0  0  0  0  0  0  0  0  0  0  0
   -0.7732    2.2982   -0.4935 C   0  0  0  0  0  0  0  0  0  0  0  0
    0.1532    1.2549   -0.4588 C   0  0  0  0  0  0  0  0  0  0  0  0
   -0.2366   -0.0557   -0.1323 C   0  0  0  0  0  0  0  0  0  0  0  0
   -1.5624   -0.3232    0.1593 C   0  0  0  0  0  0  0  0  0  0  0  0
   -3.0666    3.0693   -0.2289 H   0  0  0  0  0  0  0  0  0  0  0  0
   -0.4408    3.2998   -0.7498 H   0  0  0  0  0  0  0  0  0  0  0  0
    1.1963    1.4540   -0.6886 H   0  0  0  0  0  0  0  0  0  0  0  0
    0.4943   -0.8568   -0.1084 H   0  0  0  0  0  0  0  0  0  0  0  0
   -1.9053   -1.3198    0.4163 H   0  0  0  0  0  0  0  0  0  0  0  0
   -7.0153    5.3730    1.1539 C   0  0  0  0  0  0  0  0  0  0  0  0
   -7.9379    6.4158    1.0693 C   0  0  0  0  0  0  0  0  0  0  0  0
   -8.4960    6.7921   -0.1590 C   0  0  0  0  0  0  0  0  0  0  0  0
   -8.1135    6.0857   -1.3098 C   0  0  0  0  0  0  0  0  0  0  0  0
   -7.1945    5.0419   -1.2415 C   0  0  0  0  0  0  0  0  0  0  0  0
   -6.6453    4.6942   -0.0057 C   0  0  0  0  0  0  0  0  0  0  0  0
   -6.5943    5.0702    2.1061 H   0  0  0  0  0  0  0  0  0  0  0  0
   -8.2336    6.9425    1.9731 H   0  0  0  0  0  0  0  0  0  0  0  0
   -8.5471    6.3537   -2.2702 H   0  0  0  0  0  0  0  0  0  0  0  0
   -6.9132    4.4845   -2.1284 H   0  0  0  0  0  0  0  0  0  0  0  0
   -5.4367    3.3765    0.0854 S   0  0  0  0  0  0  0  0  0  0  0  0
   -5.4574    2.8438    1.4734 O   0  0  0  0  0  0  0  0  0  0  0  0
   -4.1067    4.0553   -0.2312 O   0  0  0  0  0  0  0  0  0  0  0  0
   -5.7861    2.3709   -0.9527 O   0  0  0  0  0  0  0  0  0  0  0  0
   -9.4763    7.9375   -0.2503 C   0  0  0  0  0  0  0  0  0  0  0  0
  -10.3226    7.6903   -0.8996 H   0  0  0  0  0  0  0  0  0  0  0  0
   -9.8712    8.2058    0.7331 H   0  0  0  0  0  0  0  0  0  0  0  0
   -9.0008    8.8331   -0.6693 H   0  0  0  0  0  0  0  0  0  0  0  0
  1  8  1  0  0  0  0
  1  2  1  0  0  0  0
  2  3  1  0  0  0  0
  4  1  2  0  0  0  0
  5  6  2  0  0  0  0
  5  4  1  0  0  0  0
  6  7  1  0  0  0  0
  7 12  1  0  0  0  0
  7  8  2  0  0  0  0
  8 13  1  0  0  0  0
  9  4  1  0  0  0  0
 10  5  1  0  0  0  0
 11  6  1  0  0  0  0
 14 20  1  0  0  0  0
 15 14  1  0  0  0  0
 15 21  1  0  0  0  0
 16 15  2  0  0  0  0
 17 18  2  0  0  0  0
 17 16  1  0  0  0  0
 18 19  1  0  0  0  0
 19 24  1  0  0  0  0
 19 14  2  0  0  0  0
 22 17  1  0  0  0  0
 23 18  1  0  0  0  0
 24 25  1  0  0  0  0
 26 24  2  0  0  0  0
 27 24  2  0  0  0  0
 28 16  1  0  0  0  0
 28 30  1  0  0  0  0
 29 28  1  0  0  0  0
 31 28  1  0  0  0  0
M  RAD  3   2   2   3   3  25   2
M  END
