Coordinates from ORCA-job PhN2+~TsO-_B3LYPG-6-31G_dp-CH-Scan-d09-49-n800
 OpenBabel11261919283D

 31 31  0  0  0  0  0  0  0  0999 V2000
   -1.8239    0.4596    0.0171 C   0  0  0  0  0  0  0  0  0  0  0  0
   -3.1805    0.7765    0.1191 N   0  0  0  0  0  0  0  0  0  0  0  0
   -4.2556    1.0772    0.1870 N   0  0  0  0  0  0  0  0  0  0  0  0
   -1.0318    1.5593   -0.3455 C   0  0  0  0  0  0  0  0  0  0  0  0
    0.3300    1.1414   -0.4233 C   0  0  0  0  0  0  0  0  0  0  0  0
    0.7643   -0.1564   -0.1738 C   0  0  0  0  0  0  0  0  0  0  0  0
   -0.1399   -1.1869    0.1859 C   0  0  0  0  0  0  0  0  0  0  0  0
   -1.4810   -0.8934    0.2909 C   0  0  0  0  0  0  0  0  0  0  0  0
   -3.3281    5.5610   -0.9225 H   0  0  0  0  0  0  0  0  0  0  0  0
    1.0880    1.8782   -0.6951 H   0  0  0  0  0  0  0  0  0  0  0  0
    1.8226   -0.4021   -0.2540 H   0  0  0  0  0  0  0  0  0  0  0  0
    0.2200   -2.1927    0.3775 H   0  0  0  0  0  0  0  0  0  0  0  0
   -2.2218   -1.6408    0.5634 H   0  0  0  0  0  0  0  0  0  0  0  0
   -7.1526    5.8710    1.0735 C   0  0  0  0  0  0  0  0  0  0  0  0
   -8.3851    6.5191    1.1378 C   0  0  0  0  0  0  0  0  0  0  0  0
   -9.1596    6.7206   -0.0126 C   0  0  0  0  0  0  0  0  0  0  0  0
   -8.6730    6.2464   -1.2415 C   0  0  0  0  0  0  0  0  0  0  0  0
   -7.4453    5.5974   -1.3275 C   0  0  0  0  0  0  0  0  0  0  0  0
   -6.6938    5.4212   -0.1637 C   0  0  0  0  0  0  0  0  0  0  0  0
   -6.5585    5.7025    1.9649 H   0  0  0  0  0  0  0  0  0  0  0  0
   -8.7529    6.8700    2.0976 H   0  0  0  0  0  0  0  0  0  0  0  0
   -9.2672    6.3836   -2.1410 H   0  0  0  0  0  0  0  0  0  0  0  0
   -7.0762    5.2183   -2.2739 H   0  0  0  0  0  0  0  0  0  0  0  0
   -5.1261    4.5861   -0.2589 S   0  0  0  0  0  0  0  0  0  0  0  0
   -4.7578    4.0845    1.0629 O   0  0  0  0  0  0  0  0  0  0  0  0
   -4.1905    5.8925   -0.6149 O   0  0  0  0  0  0  0  0  0  0  0  0
   -5.1002    3.6897   -1.4151 O   0  0  0  0  0  0  0  0  0  0  0  0
  -10.4845    7.4408    0.0594 C   0  0  0  0  0  0  0  0  0  0  0  0
  -11.2501    6.9253   -0.5288 H   0  0  0  0  0  0  0  0  0  0  0  0
  -10.8418    7.5212    1.0892 H   0  0  0  0  0  0  0  0  0  0  0  0
  -10.3991    8.4576   -0.3420 H   0  0  0  0  0  0  0  0  0  0  0  0
  1  2  1  0  0  0  0
  1  8  2  0  0  0  0
  2  3  1  0  0  0  0
  4  1  1  0  0  0  0
  5  4  2  0  0  0  0
  5  6  1  0  0  0  0
  6  7  2  0  0  0  0
  7  8  1  0  0  0  0
  7 12  1  0  0  0  0
  8 13  1  0  0  0  0
  9 26  1  0  0  0  0
 10  5  1  0  0  0  0
 11  6  1  0  0  0  0
 14 15  1  0  0  0  0
 14 20  1  0  0  0  0
 15 21  1  0  0  0  0
 16 28  1  0  0  0  0
 16 15  2  0  0  0  0
 17 16  1  0  0  0  0
 18 17  2  0  0  0  0
 18 19  1  0  0  0  0
 19 14  2  0  0  0  0
 22 17  1  0  0  0  0
 23 18  1  0  0  0  0
 24 19  1  0  0  0  0
 24 25  2  0  0  0  0
 26 24  1  0  0  0  0
 27 24  2  0  0  0  0
 28 30  1  0  0  0  0
 29 28  1  0  0  0  0
 31 28  1  0  0  0  0
M  RAD  3   2   2   3   3   4   2
M  END
