Coordinates from ORCA-job PhN2+~TsO-_B3LYPG-6-31G_dp-CH-Scan-d09-49-n800
 OpenBabel11261919273D

 31 31  0  0  0  0  0  0  0  0999 V2000
   -2.7076    0.8106    0.0200 C   0  0  0  0  0  0  0  0  0  0  0  0
   -4.0689    0.8447    0.3554 N   0  0  0  0  0  0  0  0  0  0  0  0
   -5.0744    1.3954    0.3261 N   0  0  0  0  0  0  0  0  0  0  0  0
   -2.1192    1.8642   -0.6997 C   0  0  0  0  0  0  0  0  0  0  0  0
   -0.7606    1.7584   -0.9856 C   0  0  0  0  0  0  0  0  0  0  0  0
   -0.0238    0.6444   -0.5716 C   0  0  0  0  0  0  0  0  0  0  0  0
   -0.6347   -0.3910    0.1438 C   0  0  0  0  0  0  0  0  0  0  0  0
   -1.9888   -0.3137    0.4474 C   0  0  0  0  0  0  0  0  0  0  0  0
   -2.6704    2.6603   -0.9875 H   0  0  0  0  0  0  0  0  0  0  0  0
   -0.2769    2.5599   -1.5347 H   0  0  0  0  0  0  0  0  0  0  0  0
    1.0344    0.5826   -0.8069 H   0  0  0  0  0  0  0  0  0  0  0  0
   -0.0574   -1.2517    0.4645 H   0  0  0  0  0  0  0  0  0  0  0  0
   -2.4943   -1.0958    1.0031 H   0  0  0  0  0  0  0  0  0  0  0  0
   -7.2299    4.9367    1.0184 C   0  0  0  0  0  0  0  0  0  0  0  0
   -8.4339    5.6319    0.9231 C   0  0  0  0  0  0  0  0  0  0  0  0
   -8.6418    6.5875   -0.0822 C   0  0  0  0  0  0  0  0  0  0  0  0
   -7.6009    6.8394   -0.9865 C   0  0  0  0  0  0  0  0  0  0  0  0
   -6.3903    6.1529   -0.9035 C   0  0  0  0  0  0  0  0  0  0  0  0
   -6.2139    5.1984    0.0983 C   0  0  0  0  0  0  0  0  0  0  0  0
   -7.0628    4.2119    1.8079 H   0  0  0  0  0  0  0  0  0  0  0  0
   -9.2228    5.4343    1.6452 H   0  0  0  0  0  0  0  0  0  0  0  0
   -7.7376    7.5885   -1.7628 H   0  0  0  0  0  0  0  0  0  0  0  0
   -5.5788    6.3635   -1.5917 H   0  0  0  0  0  0  0  0  0  0  0  0
   -4.6744    4.2835    0.1897 S   0  0  0  0  0  0  0  0  0  0  0  0
   -4.5068    3.8251    1.5830 O   0  0  0  0  0  0  0  0  0  0  0  0
   -3.6221    5.1335   -0.3947 O   0  0  0  0  0  0  0  0  0  0  0  0
   -4.8957    3.0565   -0.7468 O   0  0  0  0  0  0  0  0  0  0  0  0
   -9.9613    7.3144   -0.1955 C   0  0  0  0  0  0  0  0  0  0  0  0
  -10.6961    6.7143   -0.7473 H   0  0  0  0  0  0  0  0  0  0  0  0
  -10.3887    7.5238    0.7897 H   0  0  0  0  0  0  0  0  0  0  0  0
   -9.8514    8.2643   -0.7264 H   0  0  0  0  0  0  0  0  0  0  0  0
  1  2  1  0  0  0  0
  1  8  2  0  0  0  0
  3  2  2  0  0  0  0
  4  1  1  0  0  0  0
  5  4  2  0  0  0  0
  5  6  1  0  0  0  0
  6  7  2  0  0  0  0
  7  8  1  0  0  0  0
  7 12  1  0  0  0  0
  8 13  1  0  0  0  0
  9  4  1  0  0  0  0
 10  5  1  0  0  0  0
 11  6  1  0  0  0  0
 14 20  1  0  0  0  0
 15 14  1  0  0  0  0
 15 21  1  0  0  0  0
 16 15  2  0  0  0  0
 17 18  2  0  0  0  0
 17 16  1  0  0  0  0
 18 19  1  0  0  0  0
 19 24  1  0  0  0  0
 19 14  2  0  0  0  0
 22 17  1  0  0  0  0
 23 18  1  0  0  0  0
 24 25  1  0  0  0  0
 26 24  2  0  0  0  0
 27 24  2  0  0  0  0
 28 16  1  0  0  0  0
 28 30  1  0  0  0  0
 29 28  1  0  0  0  0
 31 28  1  0  0  0  0
M  RAD  2   3   2  25   2
M  END
