Coordinates from ORCA-job PhN2+~TsO-_B3LYPG-6-31G_dp-CH-Scan-d09-49-n800
 OpenBabel11261919273D

 31 31  0  0  0  0  0  0  0  0999 V2000
   -2.0457    0.5138    0.0902 C   0  0  0  0  0  0  0  0  0  0  0  0
   -3.4206    0.4709    0.3189 N   0  0  0  0  0  0  0  0  0  0  0  0
   -4.5248    0.4792    0.4904 N   0  0  0  0  0  0  0  0  0  0  0  0
   -1.5699    1.7880   -0.2596 C   0  0  0  0  0  0  0  0  0  0  0  0
   -0.1644    1.7245   -0.4765 C   0  0  0  0  0  0  0  0  0  0  0  0
    0.5907    0.5621   -0.3534 C   0  0  0  0  0  0  0  0  0  0  0  0
   -0.0013   -0.6721    0.0089 C   0  0  0  0  0  0  0  0  0  0  0  0
   -1.3577   -0.7209    0.2421 C   0  0  0  0  0  0  0  0  0  0  0  0
   -3.3845    4.3988   -0.4906 H   0  0  0  0  0  0  0  0  0  0  0  0
    0.3631    2.6366   -0.7586 H   0  0  0  0  0  0  0  0  0  0  0  0
    1.6635    0.5881   -0.5384 H   0  0  0  0  0  0  0  0  0  0  0  0
    0.6047   -1.5677    0.1018 H   0  0  0  0  0  0  0  0  0  0  0  0
   -1.8666   -1.6389    0.5238 H   0  0  0  0  0  0  0  0  0  0  0  0
   -7.1330    5.6610    1.1065 C   0  0  0  0  0  0  0  0  0  0  0  0
   -8.1887    6.5701    1.0853 C   0  0  0  0  0  0  0  0  0  0  0  0
   -8.8763    6.8557   -0.1028 C   0  0  0  0  0  0  0  0  0  0  0  0
   -8.4875    6.1957   -1.2788 C   0  0  0  0  0  0  0  0  0  0  0  0
   -7.4358    5.2836   -1.2786 C   0  0  0  0  0  0  0  0  0  0  0  0
   -6.7641    5.0306   -0.0815 C   0  0  0  0  0  0  0  0  0  0  0  0
   -6.6085    5.4295    2.0268 H   0  0  0  0  0  0  0  0  0  0  0  0
   -8.4869    7.0622    2.0067 H   0  0  0  0  0  0  0  0  0  0  0  0
   -9.0192    6.3957   -2.2052 H   0  0  0  0  0  0  0  0  0  0  0  0
   -7.1437    4.7629   -2.1837 H   0  0  0  0  0  0  0  0  0  0  0  0
   -5.4198    3.8639   -0.0669 S   0  0  0  0  0  0  0  0  0  0  0  0
   -5.2182    3.3614    1.2929 O   0  0  0  0  0  0  0  0  0  0  0  0
   -4.2157    4.9078   -0.4351 O   0  0  0  0  0  0  0  0  0  0  0  0
   -5.5778    2.9125   -1.1676 O   0  0  0  0  0  0  0  0  0  0  0  0
   -9.9983    7.8651   -0.1240 C   0  0  0  0  0  0  0  0  0  0  0  0
  -10.7934    7.5646   -0.8128 H   0  0  0  0  0  0  0  0  0  0  0  0
  -10.4370    7.9986    0.8684 H   0  0  0  0  0  0  0  0  0  0  0  0
   -9.6348    8.8453   -0.4565 H   0  0  0  0  0  0  0  0  0  0  0  0
  1  8  1  0  0  0  0
  1  2  1  0  0  0  0
  2  3  1  0  0  0  0
  4  1  2  0  0  0  0
  5  6  2  0  0  0  0
  5  4  1  0  0  0  0
  6  7  1  0  0  0  0
  7 12  1  0  0  0  0
  7  8  2  0  0  0  0
  8 13  1  0  0  0  0
  9 26  1  0  0  0  0
 10  5  1  0  0  0  0
 11  6  1  0  0  0  0
 14 20  1  0  0  0  0
 15 14  1  0  0  0  0
 15 21  1  0  0  0  0
 16 15  2  0  0  0  0
 17 18  2  0  0  0  0
 17 16  1  0  0  0  0
 18 19  1  0  0  0  0
 19 24  1  0  0  0  0
 19 14  2  0  0  0  0
 22 17  1  0  0  0  0
 23 18  1  0  0  0  0
 24 25  2  0  0  0  0
 26 24  1  0  0  0  0
 27 24  2  0  0  0  0
 28 16  1  0  0  0  0
 28 30  1  0  0  0  0
 29 28  1  0  0  0  0
 31 28  1  0  0  0  0
M  RAD  3   2   2   3   3   4   2
M  END
