Coordinates from ORCA-job PhN2+~TsO-_B3LYPG-6-31G_dp-CH-Scan-d09-49-n800
 OpenBabel11261919283D

 31 31  0  0  0  0  0  0  0  0999 V2000
   -2.2099    0.4563   -0.7967 C   0  0  0  0  0  0  0  0  0  0  0  0
   -3.4151    0.0675   -1.3902 N   0  0  0  0  0  0  0  0  0  0  0  0
   -4.3310   -0.2868   -1.9242 N   0  0  0  0  0  0  0  0  0  0  0  0
   -1.1006   -0.0818   -1.4640 C   0  0  0  0  0  0  0  0  0  0  0  0
    0.0894    0.3724   -0.8190 C   0  0  0  0  0  0  0  0  0  0  0  0
    0.1029    1.2140    0.2880 C   0  0  0  0  0  0  0  0  0  0  0  0
   -1.0971    1.6811    0.8830 C   0  0  0  0  0  0  0  0  0  0  0  0
   -2.3073    1.3014    0.3428 C   0  0  0  0  0  0  0  0  0  0  0  0
   -3.0831    4.1582   -0.0484 H   0  0  0  0  0  0  0  0  0  0  0  0
    1.0537    0.0455   -1.2107 H   0  0  0  0  0  0  0  0  0  0  0  0
    1.0511    1.5241    0.7246 H   0  0  0  0  0  0  0  0  0  0  0  0
   -1.0617    2.3139    1.7649 H   0  0  0  0  0  0  0  0  0  0  0  0
   -3.2643    1.6079    0.7531 H   0  0  0  0  0  0  0  0  0  0  0  0
   -7.2737    4.4319    0.6917 C   0  0  0  0  0  0  0  0  0  0  0  0
   -8.3670    5.2135    1.0530 C   0  0  0  0  0  0  0  0  0  0  0  0
   -8.6659    6.4040    0.3724 C   0  0  0  0  0  0  0  0  0  0  0  0
   -7.8355    6.7986   -0.6862 C   0  0  0  0  0  0  0  0  0  0  0  0
   -6.7341    6.0331   -1.0626 C   0  0  0  0  0  0  0  0  0  0  0  0
   -6.4644    4.8566   -0.3636 C   0  0  0  0  0  0  0  0  0  0  0  0
   -7.0523    3.5049    1.2087 H   0  0  0  0  0  0  0  0  0  0  0  0
   -9.0017    4.8934    1.8751 H   0  0  0  0  0  0  0  0  0  0  0  0
   -8.0541    7.7160   -1.2252 H   0  0  0  0  0  0  0  0  0  0  0  0
   -6.0977    6.3320   -1.8884 H   0  0  0  0  0  0  0  0  0  0  0  0
   -5.0648    3.8724   -0.8390 S   0  0  0  0  0  0  0  0  0  0  0  0
   -5.2899    2.4769   -0.4494 O   0  0  0  0  0  0  0  0  0  0  0  0
   -3.9564    4.5172    0.1938 O   0  0  0  0  0  0  0  0  0  0  0  0
   -4.6556    4.1873   -2.2053 O   0  0  0  0  0  0  0  0  0  0  0  0
   -9.8744    7.2226    0.7552 C   0  0  0  0  0  0  0  0  0  0  0  0
  -10.7851    6.8013    0.3129 H   0  0  0  0  0  0  0  0  0  0  0  0
  -10.0190    7.2385    1.8397 H   0  0  0  0  0  0  0  0  0  0  0  0
   -9.7875    8.2548    0.4062 H   0  0  0  0  0  0  0  0  0  0  0  0
  1  8  2  0  0  0  0
  2  1  1  0  0  0  0
  3  2  1  0  0  0  0
  4  5  2  0  0  0  0
  4  1  1  0  0  0  0
  5  6  1  0  0  0  0
  6 11  1  0  0  0  0
  6  7  2  0  0  0  0
  7 12  1  0  0  0  0
  8 13  1  0  0  0  0
  8  7  1  0  0  0  0
  9 26  1  0  0  0  0
 10  5  1  0  0  0  0
 14 15  1  0  0  0  0
 14 20  1  0  0  0  0
 15 21  1  0  0  0  0
 16 28  1  0  0  0  0
 16 15  2  0  0  0  0
 17 16  1  0  0  0  0
 18 17  2  0  0  0  0
 18 19  1  0  0  0  0
 19 14  2  0  0  0  0
 22 17  1  0  0  0  0
 23 18  1  0  0  0  0
 24 25  2  0  0  0  0
 24 19  1  0  0  0  0
 24 26  1  0  0  0  0
 27 24  2  0  0  0  0
 28 30  1  0  0  0  0
 29 28  1  0  0  0  0
 31 28  1  0  0  0  0
M  RAD  3   2   2   3   3   4   2
M  END
