Coordinates from ORCA-job PhN2+~TsO-_B3LYPG-6-31G_dp-CH-Scan-d09-49-n800
 OpenBabel11261919273D

 31 31  0  0  0  0  0  0  0  0999 V2000
   -1.9972    0.4967    0.0958 C   0  0  0  0  0  0  0  0  0  0  0  0
   -3.3718    0.5395    0.3319 N   0  0  0  0  0  0  0  0  0  0  0  0
   -4.4728    0.6201    0.5073 N   0  0  0  0  0  0  0  0  0  0  0  0
   -1.4540    1.7404   -0.2638 C   0  0  0  0  0  0  0  0  0  0  0  0
   -0.0553    1.5923   -0.4898 C   0  0  0  0  0  0  0  0  0  0  0  0
    0.6317    0.3886   -0.3657 C   0  0  0  0  0  0  0  0  0  0  0  0
   -0.0284   -0.8077    0.0078 C   0  0  0  0  0  0  0  0  0  0  0  0
   -1.3835   -0.7762    0.2508 C   0  0  0  0  0  0  0  0  0  0  0  0
   -3.3371    4.6887   -0.5267 H   0  0  0  0  0  0  0  0  0  0  0  0
    0.5235    2.4702   -0.7806 H   0  0  0  0  0  0  0  0  0  0  0  0
    1.7029    0.3507   -0.5585 H   0  0  0  0  0  0  0  0  0  0  0  0
    0.5257   -1.7362    0.1016 H   0  0  0  0  0  0  0  0  0  0  0  0
   -1.9434   -1.6613    0.5412 H   0  0  0  0  0  0  0  0  0  0  0  0
   -7.1524    5.7188    1.1114 C   0  0  0  0  0  0  0  0  0  0  0  0
   -8.2577    6.5672    1.0923 C   0  0  0  0  0  0  0  0  0  0  0  0
   -8.9527    6.8263   -0.0974 C   0  0  0  0  0  0  0  0  0  0  0  0
   -8.5199    6.2020   -1.2776 C   0  0  0  0  0  0  0  0  0  0  0  0
   -7.4184    5.3510   -1.2798 C   0  0  0  0  0  0  0  0  0  0  0  0
   -6.7411    5.1232   -0.0806 C   0  0  0  0  0  0  0  0  0  0  0  0
   -6.6215    5.5074    2.0329 H   0  0  0  0  0  0  0  0  0  0  0  0
   -8.5885    7.0321    2.0166 H   0  0  0  0  0  0  0  0  0  0  0  0
   -9.0562    6.3817   -2.2055 H   0  0  0  0  0  0  0  0  0  0  0  0
   -7.0917    4.8576   -2.1884 H   0  0  0  0  0  0  0  0  0  0  0  0
   -5.3334    4.0347   -0.0695 S   0  0  0  0  0  0  0  0  0  0  0  0
   -5.1075    3.5349    1.2865 O   0  0  0  0  0  0  0  0  0  0  0  0
   -4.1880    5.1527   -0.4245 O   0  0  0  0  0  0  0  0  0  0  0  0
   -5.4274    3.0886   -1.1816 O   0  0  0  0  0  0  0  0  0  0  0  0
  -10.1301    7.7707   -0.1164 C   0  0  0  0  0  0  0  0  0  0  0  0
  -10.9121    7.4207   -0.7971 H   0  0  0  0  0  0  0  0  0  0  0  0
  -10.5683    7.8860    0.8784 H   0  0  0  0  0  0  0  0  0  0  0  0
   -9.8251    8.7673   -0.4587 H   0  0  0  0  0  0  0  0  0  0  0  0
  1  8  1  0  0  0  0
  1  2  1  0  0  0  0
  2  3  1  0  0  0  0
  4  1  2  0  0  0  0
  5  6  2  0  0  0  0
  5  4  1  0  0  0  0
  6  7  1  0  0  0  0
  7 12  1  0  0  0  0
  7  8  2  0  0  0  0
  8 13  1  0  0  0  0
  9 26  1  0  0  0  0
 10  5  1  0  0  0  0
 11  6  1  0  0  0  0
 14 20  1  0  0  0  0
 15 14  1  0  0  0  0
 15 21  1  0  0  0  0
 16 15  2  0  0  0  0
 17 16  1  0  0  0  0
 18 17  2  0  0  0  0
 18 19  1  0  0  0  0
 19 24  1  0  0  0  0
 19 14  2  0  0  0  0
 22 17  1  0  0  0  0
 23 18  1  0  0  0  0
 24 25  2  0  0  0  0
 26 24  1  0  0  0  0
 27 24  2  0  0  0  0
 28 16  1  0  0  0  0
 28 30  1  0  0  0  0
 29 28  1  0  0  0  0
 31 28  1  0  0  0  0
M  RAD  3   2   2   3   3   4   2
M  END
