Coordinates from ORCA-job PhN2+~TsO-_B3LYPG-6-31G_dp-CH-Scan-d09-49-n800
 OpenBabel11261919283D

 31 31  0  0  0  0  0  0  0  0999 V2000
   -1.8905    0.4754    0.0704 C   0  0  0  0  0  0  0  0  0  0  0  0
   -3.2560    0.7075    0.2511 N   0  0  0  0  0  0  0  0  0  0  0  0
   -4.3409    0.9424    0.3856 N   0  0  0  0  0  0  0  0  0  0  0  0
   -1.1800    1.6321   -0.2843 C   0  0  0  0  0  0  0  0  0  0  0  0
    0.1967    1.2972   -0.4479 C   0  0  0  0  0  0  0  0  0  0  0  0
    0.7149    0.0174   -0.2768 C   0  0  0  0  0  0  0  0  0  0  0  0
   -0.1105   -1.0764    0.0847 C   0  0  0  0  0  0  0  0  0  0  0  0
   -1.4583   -0.8646    0.2698 C   0  0  0  0  0  0  0  0  0  0  0  0
   -3.3047    5.2955   -0.7831 H   0  0  0  0  0  0  0  0  0  0  0  0
    0.8974    2.0863   -0.7258 H   0  0  0  0  0  0  0  0  0  0  0  0
    1.7791   -0.1639   -0.4225 H   0  0  0  0  0  0  0  0  0  0  0  0
    0.3138   -2.0669    0.2146 H   0  0  0  0  0  0  0  0  0  0  0  0
   -2.1410   -1.6633    0.5481 H   0  0  0  0  0  0  0  0  0  0  0  0
   -7.1550    5.8290    1.0931 C   0  0  0  0  0  0  0  0  0  0  0  0
   -8.3547    6.5380    1.1182 C   0  0  0  0  0  0  0  0  0  0  0  0
   -9.0973    6.7490   -0.0517 C   0  0  0  0  0  0  0  0  0  0  0  0
   -8.6132    6.2206   -1.2589 C   0  0  0  0  0  0  0  0  0  0  0  0
   -7.4177    5.5099   -1.3057 C   0  0  0  0  0  0  0  0  0  0  0  0
   -6.6967    5.3265   -0.1240 C   0  0  0  0  0  0  0  0  0  0  0  0
   -6.5860    5.6538    1.9994 H   0  0  0  0  0  0  0  0  0  0  0  0
   -8.7222    6.9297    2.0623 H   0  0  0  0  0  0  0  0  0  0  0  0
   -9.1837    6.3640   -2.1726 H   0  0  0  0  0  0  0  0  0  0  0  0
   -7.0511    5.0893   -2.2353 H   0  0  0  0  0  0  0  0  0  0  0  0
   -5.1698    4.4148   -0.1693 S   0  0  0  0  0  0  0  0  0  0  0  0
   -4.8482    3.9300    1.1712 O   0  0  0  0  0  0  0  0  0  0  0  0
   -4.1711    5.6676   -0.5399 O   0  0  0  0  0  0  0  0  0  0  0  0
   -5.1711    3.4860   -1.2998 O   0  0  0  0  0  0  0  0  0  0  0  0
  -10.3826    7.5403   -0.0220 C   0  0  0  0  0  0  0  0  0  0  0  0
  -11.1427    7.0908   -0.6684 H   0  0  0  0  0  0  0  0  0  0  0  0
  -10.7898    7.6059    0.9903 H   0  0  0  0  0  0  0  0  0  0  0  0
  -10.2188    8.5646   -0.3787 H   0  0  0  0  0  0  0  0  0  0  0  0
  1  2  1  0  0  0  0
  1  8  2  0  0  0  0
  2  3  1  0  0  0  0
  4  1  1  0  0  0  0
  5  4  2  0  0  0  0
  5  6  1  0  0  0  0
  6  7  2  0  0  0  0
  7 12  1  0  0  0  0
  7  8  1  0  0  0  0
  8 13  1  0  0  0  0
  9 26  1  0  0  0  0
 10  5  1  0  0  0  0
 11  6  1  0  0  0  0
 14 15  1  0  0  0  0
 14 20  1  0  0  0  0
 15 21  1  0  0  0  0
 16 28  1  0  0  0  0
 16 15  2  0  0  0  0
 17 16  1  0  0  0  0
 18 17  2  0  0  0  0
 18 19  1  0  0  0  0
 19 14  2  0  0  0  0
 22 17  1  0  0  0  0
 23 18  1  0  0  0  0
 24 19  1  0  0  0  0
 24 25  2  0  0  0  0
 26 24  1  0  0  0  0
 27 24  2  0  0  0  0
 28 30  1  0  0  0  0
 29 28  1  0  0  0  0
 31 28  1  0  0  0  0
M  RAD  3   2   2   3   3   4   2
M  END
