Coordinates from ORCA-job PhN2+~TsO-_B3LYPG-6-31G_dp-CH-Scan-d09-49-n800
 OpenBabel11261919273D

 31 31  0  0  0  0  0  0  0  0999 V2000
   -1.9693    0.4897    0.0970 C   0  0  0  0  0  0  0  0  0  0  0  0
   -3.3420    0.5856    0.3321 N   0  0  0  0  0  0  0  0  0  0  0  0
   -4.4386    0.7104    0.5099 N   0  0  0  0  0  0  0  0  0  0  0  0
   -1.3817    1.7124   -0.2632 C   0  0  0  0  0  0  0  0  0  0  0  0
    0.0112    1.5114   -0.4881 C   0  0  0  0  0  0  0  0  0  0  0  0
    0.6529    0.2834   -0.3621 C   0  0  0  0  0  0  0  0  0  0  0  0
   -0.0515   -0.8875    0.0122 C   0  0  0  0  0  0  0  0  0  0  0  0
   -1.4045   -0.8055    0.2543 C   0  0  0  0  0  0  0  0  0  0  0  0
   -3.3150    4.8679   -0.5714 H   0  0  0  0  0  0  0  0  0  0  0  0
    0.6229    2.3668   -0.7794 H   0  0  0  0  0  0  0  0  0  0  0  0
    1.7221    0.2051   -0.5541 H   0  0  0  0  0  0  0  0  0  0  0  0
    0.4680   -1.8358    0.1071 H   0  0  0  0  0  0  0  0  0  0  0  0
   -1.9974   -1.6687    0.5450 H   0  0  0  0  0  0  0  0  0  0  0  0
   -7.1589    5.7518    1.1114 C   0  0  0  0  0  0  0  0  0  0  0  0
   -8.2934    6.5608    1.0974 C   0  0  0  0  0  0  0  0  0  0  0  0
   -8.9960    6.8044   -0.0910 C   0  0  0  0  0  0  0  0  0  0  0  0
   -8.5403    6.2047   -1.2755 C   0  0  0  0  0  0  0  0  0  0  0  0
   -7.4095    5.3932   -1.2829 C   0  0  0  0  0  0  0  0  0  0  0  0
   -6.7257    5.1803   -0.0845 C   0  0  0  0  0  0  0  0  0  0  0  0
   -6.6216    5.5523    2.0320 H   0  0  0  0  0  0  0  0  0  0  0  0
   -8.6412    7.0068    2.0248 H   0  0  0  0  0  0  0  0  0  0  0  0
   -9.0816    6.3725   -2.2027 H   0  0  0  0  0  0  0  0  0  0  0  0
   -7.0650    4.9187   -2.1948 H   0  0  0  0  0  0  0  0  0  0  0  0
   -5.2803    4.1427   -0.0803 S   0  0  0  0  0  0  0  0  0  0  0  0
   -5.0324    3.6488    1.2736 O   0  0  0  0  0  0  0  0  0  0  0  0
   -4.1759    5.3033   -0.4367 O   0  0  0  0  0  0  0  0  0  0  0  0
   -5.3407    3.1983   -1.1960 O   0  0  0  0  0  0  0  0  0  0  0  0
  -10.2062    7.7066   -0.1045 C   0  0  0  0  0  0  0  0  0  0  0  0
  -10.9801    7.3269   -0.7785 H   0  0  0  0  0  0  0  0  0  0  0  0
  -10.6411    7.8095    0.8931 H   0  0  0  0  0  0  0  0  0  0  0  0
   -9.9389    8.7121   -0.4523 H   0  0  0  0  0  0  0  0  0  0  0  0
  1  8  1  0  0  0  0
  1  2  1  0  0  0  0
  2  3  1  0  0  0  0
  4  1  2  0  0  0  0
  5  6  2  0  0  0  0
  5  4  1  0  0  0  0
  6  7  1  0  0  0  0
  7 12  1  0  0  0  0
  7  8  2  0  0  0  0
  8 13  1  0  0  0  0
  9 26  1  0  0  0  0
 10  5  1  0  0  0  0
 11  6  1  0  0  0  0
 14 20  1  0  0  0  0
 15 14  1  0  0  0  0
 15 21  1  0  0  0  0
 16 15  2  0  0  0  0
 17 16  1  0  0  0  0
 18 17  2  0  0  0  0
 18 19  1  0  0  0  0
 19 24  1  0  0  0  0
 19 14  2  0  0  0  0
 22 17  1  0  0  0  0
 23 18  1  0  0  0  0
 24 25  2  0  0  0  0
 26 24  1  0  0  0  0
 27 24  2  0  0  0  0
 28 16  1  0  0  0  0
 28 30  1  0  0  0  0
 29 28  1  0  0  0  0
 31 28  1  0  0  0  0
M  RAD  3   2   2   3   3   4   2
M  END
