Coordinates from ORCA-job PhN2+~TsO-_B3LYPG-6-31G_dp-CH-Scan-d09-49-n800
 OpenBabel11261919273D

 31 31  0  0  0  0  0  0  0  0999 V2000
   -2.3332    0.6563    0.1298 C   0  0  0  0  0  0  0  0  0  0  0  0
   -3.6488    0.3157    0.4255 N   0  0  0  0  0  0  0  0  0  0  0  0
   -4.7159    0.0835    0.6553 N   0  0  0  0  0  0  0  0  0  0  0  0
   -2.1232    2.0065   -0.2057 C   0  0  0  0  0  0  0  0  0  0  0  0
   -0.7559    2.2411   -0.4929 C   0  0  0  0  0  0  0  0  0  0  0  0
    0.2237    1.2526   -0.4421 C   0  0  0  0  0  0  0  0  0  0  0  0
   -0.0895   -0.0790   -0.0905 C   0  0  0  0  0  0  0  0  0  0  0  0
   -1.3951   -0.4061    0.2060 C   0  0  0  0  0  0  0  0  0  0  0  0
   -3.4829    3.3692   -0.2755 H   0  0  0  0  0  0  0  0  0  0  0  0
   -0.4477    3.2476   -0.7712 H   0  0  0  0  0  0  0  0  0  0  0  0
    1.2564    1.5011   -0.6778 H   0  0  0  0  0  0  0  0  0  0  0  0
    0.6861   -0.8368   -0.0540 H   0  0  0  0  0  0  0  0  0  0  0  0
   -1.6916   -1.4134    0.4832 H   0  0  0  0  0  0  0  0  0  0  0  0
   -7.0487    5.3861    1.1311 C   0  0  0  0  0  0  0  0  0  0  0  0
   -7.9309    6.4631    1.0634 C   0  0  0  0  0  0  0  0  0  0  0  0
   -8.5043    6.8553   -0.1538 C   0  0  0  0  0  0  0  0  0  0  0  0
   -8.1807    6.1307   -1.3113 C   0  0  0  0  0  0  0  0  0  0  0  0
   -7.3026    5.0513   -1.2629 C   0  0  0  0  0  0  0  0  0  0  0  0
   -6.7384    4.6925   -0.0377 C   0  0  0  0  0  0  0  0  0  0  0  0
   -6.6147    5.0725    2.0738 H   0  0  0  0  0  0  0  0  0  0  0  0
   -8.1827    7.0045    1.9713 H   0  0  0  0  0  0  0  0  0  0  0  0
   -8.6277    6.4124   -2.2610 H   0  0  0  0  0  0  0  0  0  0  0  0
   -7.0646    4.4807   -2.1539 H   0  0  0  0  0  0  0  0  0  0  0  0
   -5.6139    3.3109    0.0364 S   0  0  0  0  0  0  0  0  0  0  0  0
   -5.5723    2.7972    1.4137 O   0  0  0  0  0  0  0  0  0  0  0  0
   -4.2430    4.0609   -0.3007 O   0  0  0  0  0  0  0  0  0  0  0  0
   -5.9394    2.3626   -1.0372 O   0  0  0  0  0  0  0  0  0  0  0  0
   -9.4372    8.0402   -0.2252 C   0  0  0  0  0  0  0  0  0  0  0  0
  -10.2630    7.8584   -0.9199 H   0  0  0  0  0  0  0  0  0  0  0  0
   -9.8613    8.2763    0.7542 H   0  0  0  0  0  0  0  0  0  0  0  0
   -8.9088    8.9345   -0.5783 H   0  0  0  0  0  0  0  0  0  0  0  0
  1  8  1  0  0  0  0
  1  2  1  0  0  0  0
  2  3  1  0  0  0  0
  4  1  2  0  0  0  0
  5  6  2  0  0  0  0
  5  4  1  0  0  0  0
  6  7  1  0  0  0  0
  7 12  1  0  0  0  0
  7  8  2  0  0  0  0
  8 13  1  0  0  0  0
 10  5  1  0  0  0  0
 11  6  1  0  0  0  0
 14 20  1  0  0  0  0
 15 14  1  0  0  0  0
 15 21  1  0  0  0  0
 16 15  2  0  0  0  0
 17 18  2  0  0  0  0
 17 16  1  0  0  0  0
 18 19  1  0  0  0  0
 19 24  1  0  0  0  0
 19 14  2  0  0  0  0
 22 17  1  0  0  0  0
 23 18  1  0  0  0  0
 24 25  2  0  0  0  0
 26  9  1  0  0  0  0
 26 24  1  0  0  0  0
 27 24  2  0  0  0  0
 28 16  1  0  0  0  0
 28 30  1  0  0  0  0
 29 28  1  0  0  0  0
 31 28  1  0  0  0  0
M  RAD  3   2   2   3   3   4   2
M  END
