Coordinates from ORCA-job PhN2+~TsO-_B3LYPG-6-31G_dp-CH-Scan-d09-49-n800
 OpenBabel11261919273D

 31 31  0  0  0  0  0  0  0  0999 V2000
   -1.9681    0.4887    0.0973 C   0  0  0  0  0  0  0  0  0  0  0  0
   -3.3404    0.5874    0.3327 N   0  0  0  0  0  0  0  0  0  0  0  0
   -4.4369    0.7148    0.5098 N   0  0  0  0  0  0  0  0  0  0  0  0
   -1.3788    1.7105   -0.2635 C   0  0  0  0  0  0  0  0  0  0  0  0
    0.0137    1.5073   -0.4885 C   0  0  0  0  0  0  0  0  0  0  0  0
    0.6535    0.2783   -0.3622 C   0  0  0  0  0  0  0  0  0  0  0  0
   -0.0525   -0.8914    0.0126 C   0  0  0  0  0  0  0  0  0  0  0  0
   -1.4053   -0.8073    0.2549 C   0  0  0  0  0  0  0  0  0  0  0  0
   -3.3138    4.8767   -0.5733 H   0  0  0  0  0  0  0  0  0  0  0  0
    0.6267    2.3616   -0.7802 H   0  0  0  0  0  0  0  0  0  0  0  0
    1.7226    0.1983   -0.5543 H   0  0  0  0  0  0  0  0  0  0  0  0
    0.4655   -1.8405    0.1078 H   0  0  0  0  0  0  0  0  0  0  0  0
   -1.9995   -1.6695    0.5461 H   0  0  0  0  0  0  0  0  0  0  0  0
   -7.1592    5.7534    1.1115 C   0  0  0  0  0  0  0  0  0  0  0  0
   -8.2953    6.5603    1.0977 C   0  0  0  0  0  0  0  0  0  0  0  0
   -8.9981    6.8032   -0.0907 C   0  0  0  0  0  0  0  0  0  0  0  0
   -8.5410    6.2050   -1.2754 C   0  0  0  0  0  0  0  0  0  0  0  0
   -7.4088    5.3957   -1.2831 C   0  0  0  0  0  0  0  0  0  0  0  0
   -6.7248    5.1834   -0.0846 C   0  0  0  0  0  0  0  0  0  0  0  0
   -6.6218    5.5544    2.0321 H   0  0  0  0  0  0  0  0  0  0  0  0
   -8.6441    7.0051    2.0252 H   0  0  0  0  0  0  0  0  0  0  0  0
   -9.0825    6.3724   -2.2027 H   0  0  0  0  0  0  0  0  0  0  0  0
   -7.0632    4.9224   -2.1952 H   0  0  0  0  0  0  0  0  0  0  0  0
   -5.2775    4.1485   -0.0808 S   0  0  0  0  0  0  0  0  0  0  0  0
   -5.0284    3.6550    1.2730 O   0  0  0  0  0  0  0  0  0  0  0  0
   -4.1750    5.3111   -0.4371 O   0  0  0  0  0  0  0  0  0  0  0  0
   -5.3360    3.2044   -1.1969 O   0  0  0  0  0  0  0  0  0  0  0  0
  -10.2100    7.7031   -0.1040 C   0  0  0  0  0  0  0  0  0  0  0  0
  -10.9833    7.3220   -0.7779 H   0  0  0  0  0  0  0  0  0  0  0  0
  -10.6450    7.8052    0.8937 H   0  0  0  0  0  0  0  0  0  0  0  0
   -9.9447    8.7091   -0.4517 H   0  0  0  0  0  0  0  0  0  0  0  0
  1  8  1  0  0  0  0
  1  2  1  0  0  0  0
  2  3  1  0  0  0  0
  4  1  2  0  0  0  0
  5  6  2  0  0  0  0
  5  4  1  0  0  0  0
  6  7  1  0  0  0  0
  7 12  1  0  0  0  0
  7  8  2  0  0  0  0
  8 13  1  0  0  0  0
  9 26  1  0  0  0  0
 10  5  1  0  0  0  0
 11  6  1  0  0  0  0
 14 20  1  0  0  0  0
 15 14  1  0  0  0  0
 15 21  1  0  0  0  0
 16 15  2  0  0  0  0
 17 16  1  0  0  0  0
 18 17  2  0  0  0  0
 18 19  1  0  0  0  0
 19 24  1  0  0  0  0
 19 14  2  0  0  0  0
 22 17  1  0  0  0  0
 23 18  1  0  0  0  0
 24 25  2  0  0  0  0
 26 24  1  0  0  0  0
 27 24  2  0  0  0  0
 28 16  1  0  0  0  0
 28 30  1  0  0  0  0
 29 28  1  0  0  0  0
 31 28  1  0  0  0  0
M  RAD  3   2   2   3   3   4   2
M  END
