Coordinates from ORCA-job PhN2+~TsO-_B3LYPG-6-31G_dp-CH-Scan-d09-49-n800
 OpenBabel11261919273D

 31 31  0  0  0  0  0  0  0  0999 V2000
   -2.1246    0.5483    0.0959 C   0  0  0  0  0  0  0  0  0  0  0  0
   -3.4879    0.3971    0.3374 N   0  0  0  0  0  0  0  0  0  0  0  0
   -4.5864    0.3162    0.5237 N   0  0  0  0  0  0  0  0  0  0  0  0
   -1.7418    1.8575   -0.2423 C   0  0  0  0  0  0  0  0  0  0  0  0
   -0.3394    1.9034   -0.4711 C   0  0  0  0  0  0  0  0  0  0  0  0
    0.5007    0.7983   -0.3678 C   0  0  0  0  0  0  0  0  0  0  0  0
    0.0042   -0.4797   -0.0172 C   0  0  0  0  0  0  0  0  0  0  0  0
   -1.3430   -0.6316    0.2257 C   0  0  0  0  0  0  0  0  0  0  0  0
   -3.4441    4.0254   -0.4225 H   0  0  0  0  0  0  0  0  0  0  0  0
    0.1149    2.8554   -0.7460 H   0  0  0  0  0  0  0  0  0  0  0  0
    1.5668    0.9065   -0.5603 H   0  0  0  0  0  0  0  0  0  0  0  0
    0.6747   -1.3295    0.0597 H   0  0  0  0  0  0  0  0  0  0  0  0
   -1.7798   -1.5881    0.4993 H   0  0  0  0  0  0  0  0  0  0  0  0
   -7.1100    5.5742    1.1107 C   0  0  0  0  0  0  0  0  0  0  0  0
   -8.1008    6.5533    1.0759 C   0  0  0  0  0  0  0  0  0  0  0  0
   -8.7602    6.8760   -0.1186 C   0  0  0  0  0  0  0  0  0  0  0  0
   -8.4108    6.1813   -1.2869 C   0  0  0  0  0  0  0  0  0  0  0  0
   -7.4243    5.1990   -1.2727 C   0  0  0  0  0  0  0  0  0  0  0  0
   -6.7781    4.9101   -0.0698 C   0  0  0  0  0  0  0  0  0  0  0  0
   -6.6080    5.3145    2.0359 H   0  0  0  0  0  0  0  0  0  0  0  0
   -8.3701    7.0720    1.9917 H   0  0  0  0  0  0  0  0  0  0  0  0
   -8.9221    6.4097   -2.2182 H   0  0  0  0  0  0  0  0  0  0  0  0
   -7.1635    4.6517   -2.1718 H   0  0  0  0  0  0  0  0  0  0  0  0
   -5.5173    3.6529   -0.0374 S   0  0  0  0  0  0  0  0  0  0  0  0
   -5.3618    3.1481    1.3292 O   0  0  0  0  0  0  0  0  0  0  0  0
   -4.2428    4.5957   -0.4087 O   0  0  0  0  0  0  0  0  0  0  0  0
   -5.7443    2.6993   -1.1254 O   0  0  0  0  0  0  0  0  0  0  0  0
   -9.8098    7.9600   -0.1542 C   0  0  0  0  0  0  0  0  0  0  0  0
  -10.6159    7.7141   -0.8518 H   0  0  0  0  0  0  0  0  0  0  0  0
  -10.2499    8.1251    0.8328 H   0  0  0  0  0  0  0  0  0  0  0  0
   -9.3762    8.9125   -0.4830 H   0  0  0  0  0  0  0  0  0  0  0  0
  1  8  1  0  0  0  0
  1  2  1  0  0  0  0
  2  3  1  0  0  0  0
  4  1  2  0  0  0  0
  5  6  2  0  0  0  0
  5  4  1  0  0  0  0
  6  7  1  0  0  0  0
  7 12  1  0  0  0  0
  7  8  2  0  0  0  0
  8 13  1  0  0  0  0
  9 26  1  0  0  0  0
 10  5  1  0  0  0  0
 11  6  1  0  0  0  0
 14 20  1  0  0  0  0
 15 14  1  0  0  0  0
 15 21  1  0  0  0  0
 16 15  2  0  0  0  0
 17 18  2  0  0  0  0
 17 16  1  0  0  0  0
 18 19  1  0  0  0  0
 19 24  1  0  0  0  0
 19 14  2  0  0  0  0
 22 17  1  0  0  0  0
 23 18  1  0  0  0  0
 24 25  2  0  0  0  0
 26 24  1  0  0  0  0
 27 24  2  0  0  0  0
 28 16  1  0  0  0  0
 28 30  1  0  0  0  0
 29 28  1  0  0  0  0
 31 28  1  0  0  0  0
M  RAD  3   2   2   3   3   4   2
M  END
