Coordinates from ORCA-job PhN2+~TsO-_B3LYPG-6-31G_dp-CH-Scan-d09-49-n800
 OpenBabel11261919283D

 31 31  0  0  0  0  0  0  0  0999 V2000
   -2.2167    0.4612   -0.8016 C   0  0  0  0  0  0  0  0  0  0  0  0
   -3.4163    0.0567   -1.3963 N   0  0  0  0  0  0  0  0  0  0  0  0
   -4.3270   -0.3081   -1.9321 N   0  0  0  0  0  0  0  0  0  0  0  0
   -1.0993   -0.0457   -1.4794 C   0  0  0  0  0  0  0  0  0  0  0  0
    0.0838    0.4251   -0.8332 C   0  0  0  0  0  0  0  0  0  0  0  0
    0.0845    1.2542    0.2831 C   0  0  0  0  0  0  0  0  0  0  0  0
   -1.1226    1.6884    0.8891 C   0  0  0  0  0  0  0  0  0  0  0  0
   -2.3270    1.2892    0.3494 C   0  0  0  0  0  0  0  0  0  0  0  0
   -3.0936    4.0823   -0.0078 H   0  0  0  0  0  0  0  0  0  0  0  0
    1.0530    0.1224   -1.2322 H   0  0  0  0  0  0  0  0  0  0  0  0
    1.0278    1.5793    0.7193 H   0  0  0  0  0  0  0  0  0  0  0  0
   -1.0965    2.3094    1.7796 H   0  0  0  0  0  0  0  0  0  0  0  0
   -3.2883    1.5685    0.7686 H   0  0  0  0  0  0  0  0  0  0  0  0
   -7.2689    4.4285    0.6972 C   0  0  0  0  0  0  0  0  0  0  0  0
   -8.3568    5.2181    1.0571 C   0  0  0  0  0  0  0  0  0  0  0  0
   -8.6509    6.4067    0.3710 C   0  0  0  0  0  0  0  0  0  0  0  0
   -7.8211    6.7909   -0.6918 C   0  0  0  0  0  0  0  0  0  0  0  0
   -6.7251    6.0172   -1.0671 C   0  0  0  0  0  0  0  0  0  0  0  0
   -6.4601    4.8429   -0.3626 C   0  0  0  0  0  0  0  0  0  0  0  0
   -7.0513    3.5031    1.2187 H   0  0  0  0  0  0  0  0  0  0  0  0
   -8.9911    4.9061    1.8827 H   0  0  0  0  0  0  0  0  0  0  0  0
   -8.0358    7.7069   -1.2350 H   0  0  0  0  0  0  0  0  0  0  0  0
   -6.0890    6.3080   -1.8960 H   0  0  0  0  0  0  0  0  0  0  0  0
   -5.0674    3.8482   -0.8366 S   0  0  0  0  0  0  0  0  0  0  0  0
   -5.3012    2.4539   -0.4467 O   0  0  0  0  0  0  0  0  0  0  0  0
   -3.9570    4.4858    0.1979 O   0  0  0  0  0  0  0  0  0  0  0  0
   -4.6578    4.1592   -2.2035 O   0  0  0  0  0  0  0  0  0  0  0  0
   -9.8539    7.2340    0.7523 C   0  0  0  0  0  0  0  0  0  0  0  0
  -10.7661    6.8235    0.3028 H   0  0  0  0  0  0  0  0  0  0  0  0
  -10.0040    7.2455    1.8361 H   0  0  0  0  0  0  0  0  0  0  0  0
   -9.7559    8.2673    0.4092 H   0  0  0  0  0  0  0  0  0  0  0  0
  1  8  2  0  0  0  0
  2  1  1  0  0  0  0
  3  2  1  0  0  0  0
  4  5  2  0  0  0  0
  4  1  1  0  0  0  0
  5  6  1  0  0  0  0
  6 11  1  0  0  0  0
  6  7  2  0  0  0  0
  7 12  1  0  0  0  0
  8 13  1  0  0  0  0
  8  7  1  0  0  0  0
  9 26  1  0  0  0  0
 10  5  1  0  0  0  0
 14 15  1  0  0  0  0
 14 20  1  0  0  0  0
 15 21  1  0  0  0  0
 16 28  1  0  0  0  0
 16 15  2  0  0  0  0
 17 16  1  0  0  0  0
 18 17  2  0  0  0  0
 18 19  1  0  0  0  0
 19 14  2  0  0  0  0
 22 17  1  0  0  0  0
 23 18  1  0  0  0  0
 24 25  2  0  0  0  0
 24 19  1  0  0  0  0
 24 26  1  0  0  0  0
 27 24  2  0  0  0  0
 28 30  1  0  0  0  0
 29 28  1  0  0  0  0
 31 28  1  0  0  0  0
M  RAD  3   2   2   3   3   4   2
M  END
