Coordinates from ORCA-job PhN2+~TsO-_B3LYPG-6-31G_dp-CH-Scan-d09-49-n800
 OpenBabel11261919273D

 31 31  0  0  0  0  0  0  0  0999 V2000
   -2.3062    0.6430    0.1305 C   0  0  0  0  0  0  0  0  0  0  0  0
   -3.6270    0.3210    0.4240 N   0  0  0  0  0  0  0  0  0  0  0  0
   -4.6977    0.1028    0.6519 N   0  0  0  0  0  0  0  0  0  0  0  0
   -2.0809    1.9894   -0.2105 C   0  0  0  0  0  0  0  0  0  0  0  0
   -0.7089    2.2046   -0.4947 C   0  0  0  0  0  0  0  0  0  0  0  0
    0.2582    1.2045   -0.4365 C   0  0  0  0  0  0  0  0  0  0  0  0
   -0.0721   -0.1220   -0.0796 C   0  0  0  0  0  0  0  0  0  0  0  0
   -1.3822   -0.4315    0.2148 C   0  0  0  0  0  0  0  0  0  0  0  0
   -3.4899    3.4364   -0.2929 H   0  0  0  0  0  0  0  0  0  0  0  0
   -0.3862    3.2056   -0.7770 H   0  0  0  0  0  0  0  0  0  0  0  0
    1.2946    1.4390   -0.6705 H   0  0  0  0  0  0  0  0  0  0  0  0
    0.6943   -0.8889   -0.0374 H   0  0  0  0  0  0  0  0  0  0  0  0
   -1.6920   -1.4339    0.4959 H   0  0  0  0  0  0  0  0  0  0  0  0
   -7.0594    5.4021    1.1272 C   0  0  0  0  0  0  0  0  0  0  0  0
   -7.9509    6.4717    1.0649 C   0  0  0  0  0  0  0  0  0  0  0  0
   -8.5322    6.8614   -0.1495 C   0  0  0  0  0  0  0  0  0  0  0  0
   -8.2070    6.1419   -1.3097 C   0  0  0  0  0  0  0  0  0  0  0  0
   -7.3197    5.0698   -1.2669 C   0  0  0  0  0  0  0  0  0  0  0  0
   -6.7479    4.7137   -0.0444 C   0  0  0  0  0  0  0  0  0  0  0  0
   -6.6190    5.0906    2.0676 H   0  0  0  0  0  0  0  0  0  0  0  0
   -8.2037    7.0092    1.9748 H   0  0  0  0  0  0  0  0  0  0  0  0
   -8.6599    6.4217   -2.2571 H   0  0  0  0  0  0  0  0  0  0  0  0
   -7.0800    4.5033   -2.1601 H   0  0  0  0  0  0  0  0  0  0  0  0
   -5.6125    3.3413    0.0230 S   0  0  0  0  0  0  0  0  0  0  0  0
   -5.5590    2.8254    1.3981 O   0  0  0  0  0  0  0  0  0  0  0  0
   -4.2481    4.1130   -0.3161 O   0  0  0  0  0  0  0  0  0  0  0  0
   -5.9277    2.3957   -1.0549 O   0  0  0  0  0  0  0  0  0  0  0  0
   -9.4750    8.0387   -0.2148 C   0  0  0  0  0  0  0  0  0  0  0  0
  -10.2989    7.8538   -0.9108 H   0  0  0  0  0  0  0  0  0  0  0  0
   -9.9013    8.2661    0.7658 H   0  0  0  0  0  0  0  0  0  0  0  0
   -8.9537    8.9391   -0.5628 H   0  0  0  0  0  0  0  0  0  0  0  0
  1  8  1  0  0  0  0
  1  2  1  0  0  0  0
  2  3  1  0  0  0  0
  4  1  2  0  0  0  0
  5  6  2  0  0  0  0
  5  4  1  0  0  0  0
  6  7  1  0  0  0  0
  7 12  1  0  0  0  0
  7  8  2  0  0  0  0
  8 13  1  0  0  0  0
 10  5  1  0  0  0  0
 11  6  1  0  0  0  0
 14 20  1  0  0  0  0
 15 14  1  0  0  0  0
 15 21  1  0  0  0  0
 16 15  2  0  0  0  0
 17 18  2  0  0  0  0
 17 16  1  0  0  0  0
 18 19  1  0  0  0  0
 19 24  1  0  0  0  0
 19 14  2  0  0  0  0
 22 17  1  0  0  0  0
 23 18  1  0  0  0  0
 24 25  2  0  0  0  0
 26  9  1  0  0  0  0
 26 24  1  0  0  0  0
 27 24  2  0  0  0  0
 28 16  1  0  0  0  0
 28 30  1  0  0  0  0
 29 28  1  0  0  0  0
 31 28  1  0  0  0  0
M  RAD  3   2   2   3   3   4   2
M  END
