Coordinates from ORCA-job PhN2+~TsO-_B3LYPG-6-31G_dp-CH-Scan-d09-49-n800
 OpenBabel11261919283D

 31 31  0  0  0  0  0  0  0  0999 V2000
   -1.8306    0.4624    0.0220 C   0  0  0  0  0  0  0  0  0  0  0  0
   -3.1882    0.7730    0.1311 N   0  0  0  0  0  0  0  0  0  0  0  0
   -4.2645    1.0683    0.2047 N   0  0  0  0  0  0  0  0  0  0  0  0
   -1.0441    1.5666   -0.3390 C   0  0  0  0  0  0  0  0  0  0  0  0
    0.3191    1.1544   -0.4239 C   0  0  0  0  0  0  0  0  0  0  0  0
    0.7594   -0.1428   -0.1820 C   0  0  0  0  0  0  0  0  0  0  0  0
   -0.1394   -1.1783    0.1769 C   0  0  0  0  0  0  0  0  0  0  0  0
   -1.4811   -0.8904    0.2885 C   0  0  0  0  0  0  0  0  0  0  0  0
   -3.3252    5.5423   -0.9142 H   0  0  0  0  0  0  0  0  0  0  0  0
    1.0731    1.8952   -0.6955 H   0  0  0  0  0  0  0  0  0  0  0  0
    1.8182   -0.3841   -0.2677 H   0  0  0  0  0  0  0  0  0  0  0  0
    0.2251   -2.1835    0.3625 H   0  0  0  0  0  0  0  0  0  0  0  0
   -2.2179   -1.6419    0.5608 H   0  0  0  0  0  0  0  0  0  0  0  0
   -7.1514    5.8679    1.0749 C   0  0  0  0  0  0  0  0  0  0  0  0
   -8.3819    6.5201    1.1362 C   0  0  0  0  0  0  0  0  0  0  0  0
   -9.1543    6.7216   -0.0156 C   0  0  0  0  0  0  0  0  0  0  0  0
   -8.6678    6.2430   -1.2428 C   0  0  0  0  0  0  0  0  0  0  0  0
   -7.4421    5.5899   -1.3259 C   0  0  0  0  0  0  0  0  0  0  0  0
   -6.6926    5.4138   -0.1608 C   0  0  0  0  0  0  0  0  0  0  0  0
   -6.5590    5.6994    1.9674 H   0  0  0  0  0  0  0  0  0  0  0  0
   -8.7498    6.8743    2.0948 H   0  0  0  0  0  0  0  0  0  0  0  0
   -9.2605    6.3802   -2.1434 H   0  0  0  0  0  0  0  0  0  0  0  0
   -7.0731    5.2074   -2.2710 H   0  0  0  0  0  0  0  0  0  0  0  0
   -5.1275    4.5733   -0.2522 S   0  0  0  0  0  0  0  0  0  0  0  0
   -4.7624    4.0735    1.0712 O   0  0  0  0  0  0  0  0  0  0  0  0
   -4.1877    5.8762   -0.6102 O   0  0  0  0  0  0  0  0  0  0  0  0
   -5.1035    3.6739   -1.4060 O   0  0  0  0  0  0  0  0  0  0  0  0
  -10.4767    7.4467    0.0533 C   0  0  0  0  0  0  0  0  0  0  0  0
  -11.2416    6.9367   -0.5405 H   0  0  0  0  0  0  0  0  0  0  0  0
  -10.8384    7.5245    1.0818 H   0  0  0  0  0  0  0  0  0  0  0  0
  -10.3854    8.4649   -0.3436 H   0  0  0  0  0  0  0  0  0  0  0  0
  1  2  1  0  0  0  0
  1  8  2  0  0  0  0
  2  3  1  0  0  0  0
  4  1  1  0  0  0  0
  5  4  2  0  0  0  0
  5  6  1  0  0  0  0
  6  7  2  0  0  0  0
  7  8  1  0  0  0  0
  7 12  1  0  0  0  0
  8 13  1  0  0  0  0
  9 26  1  0  0  0  0
 10  5  1  0  0  0  0
 11  6  1  0  0  0  0
 14 15  1  0  0  0  0
 14 20  1  0  0  0  0
 15 21  1  0  0  0  0
 16 28  1  0  0  0  0
 16 15  2  0  0  0  0
 17 16  1  0  0  0  0
 18 17  2  0  0  0  0
 18 19  1  0  0  0  0
 19 14  2  0  0  0  0
 22 17  1  0  0  0  0
 23 18  1  0  0  0  0
 24 19  1  0  0  0  0
 24 25  2  0  0  0  0
 26 24  1  0  0  0  0
 27 24  2  0  0  0  0
 28 30  1  0  0  0  0
 29 28  1  0  0  0  0
 31 28  1  0  0  0  0
M  RAD  3   2   2   3   3   4   2
M  END
