Coordinates from ORCA-job PhN2+~TsO-_B3LYPG-6-31G_dp-CH-Scan-d09-49-n800
 OpenBabel11261919273D

 31 31  0  0  0  0  0  0  0  0999 V2000
   -2.4553    0.7549    0.1219 C   0  0  0  0  0  0  0  0  0  0  0  0
   -3.7756    0.4473    0.4258 N   0  0  0  0  0  0  0  0  0  0  0  0
   -4.8561    0.2909    0.6531 N   0  0  0  0  0  0  0  0  0  0  0  0
   -2.1703    2.0939   -0.1958 C   0  0  0  0  0  0  0  0  0  0  0  0
   -0.8203    2.3269   -0.4955 C   0  0  0  0  0  0  0  0  0  0  0  0
    0.1325    1.3081   -0.4726 C   0  0  0  0  0  0  0  0  0  0  0  0
   -0.2190   -0.0139   -0.1435 C   0  0  0  0  0  0  0  0  0  0  0  0
   -1.5334   -0.3144    0.1619 C   0  0  0  0  0  0  0  0  0  0  0  0
   -3.1650    3.0797   -0.2090 H   0  0  0  0  0  0  0  0  0  0  0  0
   -0.5112    3.3356   -0.7553 H   0  0  0  0  0  0  0  0  0  0  0  0
    1.1679    1.5336   -0.7138 H   0  0  0  0  0  0  0  0  0  0  0  0
    0.5328   -0.7957   -0.1289 H   0  0  0  0  0  0  0  0  0  0  0  0
   -1.8495   -1.3193    0.4216 H   0  0  0  0  0  0  0  0  0  0  0  0
   -7.0176    5.3547    1.1522 C   0  0  0  0  0  0  0  0  0  0  0  0
   -7.9182    6.4160    1.0646 C   0  0  0  0  0  0  0  0  0  0  0  0
   -8.4670    6.8014   -0.1654 C   0  0  0  0  0  0  0  0  0  0  0  0
   -8.0988    6.0848   -1.3144 C   0  0  0  0  0  0  0  0  0  0  0  0
   -7.2016    5.0222   -1.2433 C   0  0  0  0  0  0  0  0  0  0  0  0
   -6.6610    4.6666   -0.0063 C   0  0  0  0  0  0  0  0  0  0  0  0
   -6.6041    5.0450    2.1055 H   0  0  0  0  0  0  0  0  0  0  0  0
   -8.2040    6.9502    1.9671 H   0  0  0  0  0  0  0  0  0  0  0  0
   -8.5263    6.3596   -2.2755 H   0  0  0  0  0  0  0  0  0  0  0  0
   -6.9311    4.4570   -2.1286 H   0  0  0  0  0  0  0  0  0  0  0  0
   -5.4858    3.3209    0.0894 S   0  0  0  0  0  0  0  0  0  0  0  0
   -5.5157    2.7904    1.4752 O   0  0  0  0  0  0  0  0  0  0  0  0
   -4.1367    3.9920   -0.2151 O   0  0  0  0  0  0  0  0  0  0  0  0
   -5.8336    2.3324   -0.9595 O   0  0  0  0  0  0  0  0  0  0  0  0
   -9.4213    7.9682   -0.2594 C   0  0  0  0  0  0  0  0  0  0  0  0
  -10.2502    7.7545   -0.9419 H   0  0  0  0  0  0  0  0  0  0  0  0
   -9.8425    8.2210    0.7173 H   0  0  0  0  0  0  0  0  0  0  0  0
   -8.9142    8.8638   -0.6397 H   0  0  0  0  0  0  0  0  0  0  0  0
  1  8  1  0  0  0  0
  1  2  1  0  0  0  0
  2  3  1  0  0  0  0
  4  1  2  0  0  0  0
  5  6  2  0  0  0  0
  5  4  1  0  0  0  0
  6  7  1  0  0  0  0
  7 12  1  0  0  0  0
  7  8  2  0  0  0  0
  8 13  1  0  0  0  0
 10  5  1  0  0  0  0
 11  6  1  0  0  0  0
 14 20  1  0  0  0  0
 15 14  1  0  0  0  0
 15 21  1  0  0  0  0
 16 15  2  0  0  0  0
 17 18  2  0  0  0  0
 17 16  1  0  0  0  0
 18 19  1  0  0  0  0
 19 24  1  0  0  0  0
 19 14  2  0  0  0  0
 22 17  1  0  0  0  0
 23 18  1  0  0  0  0
 24 25  2  0  0  0  0
 26  9  1  0  0  0  0
 26 24  1  0  0  0  0
 27 24  2  0  0  0  0
 28 16  1  0  0  0  0
 28 30  1  0  0  0  0
 29 28  1  0  0  0  0
 31 28  1  0  0  0  0
M  RAD  3   2   2   3   3   4   2
M  END
