Coordinates from ORCA-job PhN2+~TsO-_B3LYPG-6-31G_dp-CH-Scan-d09-49-n800
 OpenBabel11261919273D

 31 31  0  0  0  0  0  0  0  0999 V2000
   -2.4569    0.7365    0.1176 C   0  0  0  0  0  0  0  0  0  0  0  0
   -3.7448    0.5207    0.5985 N   0  0  0  0  0  0  0  0  0  0  0  0
   -4.8305    0.5656    0.8808 N   0  0  0  0  0  0  0  0  0  0  0  0
   -2.1131    2.0395   -0.2742 C   0  0  0  0  0  0  0  0  0  0  0  0
   -0.8107    2.2011   -0.7510 C   0  0  0  0  0  0  0  0  0  0  0  0
    0.0738    1.1226   -0.8260 C   0  0  0  0  0  0  0  0  0  0  0  0
   -0.3135   -0.1637   -0.4185 C   0  0  0  0  0  0  0  0  0  0  0  0
   -1.5936   -0.3740    0.0684 C   0  0  0  0  0  0  0  0  0  0  0  0
   -2.9613    3.0260   -0.1661 H   0  0  0  0  0  0  0  0  0  0  0  0
   -0.4869    3.1879   -1.0662 H   0  0  0  0  0  0  0  0  0  0  0  0
    1.0807    1.2788   -1.2022 H   0  0  0  0  0  0  0  0  0  0  0  0
    0.3838   -0.9923   -0.4800 H   0  0  0  0  0  0  0  0  0  0  0  0
   -1.9299   -1.3517    0.3959 H   0  0  0  0  0  0  0  0  0  0  0  0
   -7.3428    5.2999    1.3080 C   0  0  0  0  0  0  0  0  0  0  0  0
   -8.3231    6.2615    1.0519 C   0  0  0  0  0  0  0  0  0  0  0  0
   -8.5320    6.7565   -0.2398 C   0  0  0  0  0  0  0  0  0  0  0  0
   -7.7290    6.2622   -1.2814 C   0  0  0  0  0  0  0  0  0  0  0  0
   -6.7486    5.3051   -1.0419 C   0  0  0  0  0  0  0  0  0  0  0  0
   -6.5602    4.8270    0.2583 C   0  0  0  0  0  0  0  0  0  0  0  0
   -7.1741    4.9159    2.3078 H   0  0  0  0  0  0  0  0  0  0  0  0
   -8.9329    6.6333    1.8715 H   0  0  0  0  0  0  0  0  0  0  0  0
   -7.8750    6.6362   -2.2921 H   0  0  0  0  0  0  0  0  0  0  0  0
   -6.1298    4.9324   -1.8511 H   0  0  0  0  0  0  0  0  0  0  0  0
   -5.3057    3.5881    0.5807 S   0  0  0  0  0  0  0  0  0  0  0  0
   -5.2952    3.3212    2.0343 O   0  0  0  0  0  0  0  0  0  0  0  0
   -4.0218    4.1856    0.0548 O   0  0  0  0  0  0  0  0  0  0  0  0
   -5.6885    2.3825   -0.2424 O   0  0  0  0  0  0  0  0  0  0  0  0
   -9.5893    7.7993   -0.5172 C   0  0  0  0  0  0  0  0  0  0  0  0
  -10.3235    7.4389   -1.2474 H   0  0  0  0  0  0  0  0  0  0  0  0
  -10.1293    8.0729    0.3930 H   0  0  0  0  0  0  0  0  0  0  0  0
   -9.1480    8.7131   -0.9316 H   0  0  0  0  0  0  0  0  0  0  0  0
  1  2  1  0  0  0  0
  2  3  1  0  0  0  0
  4  9  1  0  0  0  0
  4  1  2  0  0  0  0
  5  4  1  0  0  0  0
  6  5  2  0  0  0  0
  6  7  1  0  0  0  0
  7  8  2  0  0  0  0
  8  1  1  0  0  0  0
  8 13  1  0  0  0  0
 10  5  1  0  0  0  0
 11  6  1  0  0  0  0
 12  7  1  0  0  0  0
 14 20  1  0  0  0  0
 15 14  1  0  0  0  0
 15 21  1  0  0  0  0
 16 15  2  0  0  0  0
 17 18  2  0  0  0  0
 17 16  1  0  0  0  0
 18 19  1  0  0  0  0
 19 24  1  0  0  0  0
 19 14  2  0  0  0  0
 22 17  1  0  0  0  0
 23 18  1  0  0  0  0
 24 25  1  0  0  0  0
 26 24  2  0  0  0  0
 27 24  2  0  0  0  0
 28 16  1  0  0  0  0
 28 30  1  0  0  0  0
 29 28  1  0  0  0  0
 31 28  1  0  0  0  0
M  RAD  3   2   2   3   3  25   2
M  END
