Coordinates from ORCA-job PhN2+~TsO-_B3LYPG-6-31G_dp-CH-Scan-d09-49-n800
 OpenBabel11261919273D

 31 31  0  0  0  0  0  0  0  0999 V2000
   -2.6683    0.7932    0.0405 C   0  0  0  0  0  0  0  0  0  0  0  0
   -4.0189    0.8428    0.4093 N   0  0  0  0  0  0  0  0  0  0  0  0
   -5.0309    1.3770    0.4141 N   0  0  0  0  0  0  0  0  0  0  0  0
   -2.0957    1.8357   -0.7050 C   0  0  0  0  0  0  0  0  0  0  0  0
   -0.7471    1.7281   -1.0298 C   0  0  0  0  0  0  0  0  0  0  0  0
   -0.0039    0.6144   -0.6252 C   0  0  0  0  0  0  0  0  0  0  0  0
   -0.5972   -0.4129    0.1173 C   0  0  0  0  0  0  0  0  0  0  0  0
   -1.9416   -0.3300    0.4592 C   0  0  0  0  0  0  0  0  0  0  0  0
   -2.7406    2.7366   -1.0144 H   0  0  0  0  0  0  0  0  0  0  0  0
   -0.2761    2.5223   -1.5994 H   0  0  0  0  0  0  0  0  0  0  0  0
    1.0471    0.5464   -0.8893 H   0  0  0  0  0  0  0  0  0  0  0  0
   -0.0127   -1.2718    0.4294 H   0  0  0  0  0  0  0  0  0  0  0  0
   -2.4326   -1.1056    1.0368 H   0  0  0  0  0  0  0  0  0  0  0  0
   -7.2745    4.9363    1.0179 C   0  0  0  0  0  0  0  0  0  0  0  0
   -8.4738    5.6358    0.9019 C   0  0  0  0  0  0  0  0  0  0  0  0
   -8.6555    6.6028   -0.0980 C   0  0  0  0  0  0  0  0  0  0  0  0
   -7.5932    6.8608   -0.9749 C   0  0  0  0  0  0  0  0  0  0  0  0
   -6.3866    6.1695   -0.8709 C   0  0  0  0  0  0  0  0  0  0  0  0
   -6.2362    5.2044    0.1245 C   0  0  0  0  0  0  0  0  0  0  0  0
   -7.1279    4.2029    1.8037 H   0  0  0  0  0  0  0  0  0  0  0  0
   -9.2801    5.4329    1.6031 H   0  0  0  0  0  0  0  0  0  0  0  0
   -7.7095    7.6184   -1.7462 H   0  0  0  0  0  0  0  0  0  0  0  0
   -5.5585    6.3843   -1.5377 H   0  0  0  0  0  0  0  0  0  0  0  0
   -4.7021    4.2827    0.2430 S   0  0  0  0  0  0  0  0  0  0  0  0
   -4.5570    3.8332    1.6421 O   0  0  0  0  0  0  0  0  0  0  0  0
   -3.6369    5.1275   -0.3279 O   0  0  0  0  0  0  0  0  0  0  0  0
   -4.9149    3.0544   -0.6888 O   0  0  0  0  0  0  0  0  0  0  0  0
   -9.9696    7.3356   -0.2326 C   0  0  0  0  0  0  0  0  0  0  0  0
  -10.7069    6.7280   -0.7727 H   0  0  0  0  0  0  0  0  0  0  0  0
  -10.3990    7.5704    0.7461 H   0  0  0  0  0  0  0  0  0  0  0  0
   -9.8512    8.2726   -0.7842 H   0  0  0  0  0  0  0  0  0  0  0  0
  1  2  1  0  0  0  0
  1  8  2  0  0  0  0
  2  3  2  0  0  0  0
  4  1  1  0  0  0  0
  5  4  2  0  0  0  0
  5  6  1  0  0  0  0
  6  7  2  0  0  0  0
  7 12  1  0  0  0  0
  7  8  1  0  0  0  0
  8 13  1  0  0  0  0
  9  4  1  0  0  0  0
 10  5  1  0  0  0  0
 11  6  1  0  0  0  0
 14 20  1  0  0  0  0
 15 14  1  0  0  0  0
 15 21  1  0  0  0  0
 16 15  2  0  0  0  0
 17 18  2  0  0  0  0
 17 16  1  0  0  0  0
 18 19  1  0  0  0  0
 19 24  1  0  0  0  0
 19 14  2  0  0  0  0
 22 17  1  0  0  0  0
 23 18  1  0  0  0  0
 24 25  1  0  0  0  0
 26 24  2  0  0  0  0
 27 24  2  0  0  0  0
 28 16  1  0  0  0  0
 28 30  1  0  0  0  0
 29 28  1  0  0  0  0
 31 28  1  0  0  0  0
M  RAD  2   3   2  25   2
M  END
