Coordinates from ORCA-job PhN2+~TsO-_B3LYPG-6-31G_dp-CH-Scan-d09-49-n800
 OpenBabel11261919283D

 31 31  0  0  0  0  0  0  0  0999 V2000
   -1.8621    0.4713    0.0460 C   0  0  0  0  0  0  0  0  0  0  0  0
   -3.2245    0.7460    0.1879 N   0  0  0  0  0  0  0  0  0  0  0  0
   -4.3053    1.0137    0.2924 N   0  0  0  0  0  0  0  0  0  0  0  0
   -1.1090    1.6009   -0.3074 C   0  0  0  0  0  0  0  0  0  0  0  0
    0.2611    1.2232   -0.4292 C   0  0  0  0  0  0  0  0  0  0  0  0
    0.7367   -0.0679   -0.2240 C   0  0  0  0  0  0  0  0  0  0  0  0
   -0.1299   -1.1314    0.1319 C   0  0  0  0  0  0  0  0  0  0  0  0
   -1.4753   -0.8776    0.2775 C   0  0  0  0  0  0  0  0  0  0  0  0
   -3.3136    5.4313   -0.8646 H   0  0  0  0  0  0  0  0  0  0  0  0
    0.9918    1.9872   -0.7005 H   0  0  0  0  0  0  0  0  0  0  0  0
    1.7987   -0.2823   -0.3374 H   0  0  0  0  0  0  0  0  0  0  0  0
    0.2616   -2.1315    0.2885 H   0  0  0  0  0  0  0  0  0  0  0  0
   -2.1884   -1.6517    0.5492 H   0  0  0  0  0  0  0  0  0  0  0  0
   -7.1491    5.8504    1.0824 C   0  0  0  0  0  0  0  0  0  0  0  0
   -8.3666    6.5276    1.1280 C   0  0  0  0  0  0  0  0  0  0  0  0
   -9.1270    6.7317   -0.0315 C   0  0  0  0  0  0  0  0  0  0  0  0
   -8.6421    6.2297   -1.2498 C   0  0  0  0  0  0  0  0  0  0  0  0
   -7.4290    5.5512   -1.3171 C   0  0  0  0  0  0  0  0  0  0  0  0
   -6.6911    5.3735   -0.1450 C   0  0  0  0  0  0  0  0  0  0  0  0
   -6.5663    5.6800    1.9808 H   0  0  0  0  0  0  0  0  0  0  0  0
   -8.7340    6.8994    2.0801 H   0  0  0  0  0  0  0  0  0  0  0  0
   -9.2258    6.3683   -2.1559 H   0  0  0  0  0  0  0  0  0  0  0  0
   -7.0615    5.1507   -2.2552 H   0  0  0  0  0  0  0  0  0  0  0  0
   -5.1423    4.5012   -0.2160 S   0  0  0  0  0  0  0  0  0  0  0  0
   -4.7954    4.0101    1.1156 O   0  0  0  0  0  0  0  0  0  0  0  0
   -4.1771    5.7821   -0.5832 O   0  0  0  0  0  0  0  0  0  0  0  0
   -5.1300    3.5865   -1.3580 O   0  0  0  0  0  0  0  0  0  0  0  0
  -10.4336    7.4861    0.0203 C   0  0  0  0  0  0  0  0  0  0  0  0
  -11.1959    7.0059   -0.6010 H   0  0  0  0  0  0  0  0  0  0  0  0
  -10.8176    7.5534    1.0415 H   0  0  0  0  0  0  0  0  0  0  0  0
  -10.3091    8.5095   -0.3539 H   0  0  0  0  0  0  0  0  0  0  0  0
  1  2  1  0  0  0  0
  1  8  2  0  0  0  0
  2  3  1  0  0  0  0
  4  1  1  0  0  0  0
  5  4  2  0  0  0  0
  5  6  1  0  0  0  0
  6  7  2  0  0  0  0
  7  8  1  0  0  0  0
  7 12  1  0  0  0  0
  8 13  1  0  0  0  0
  9 26  1  0  0  0  0
 10  5  1  0  0  0  0
 11  6  1  0  0  0  0
 14 15  1  0  0  0  0
 14 20  1  0  0  0  0
 15 21  1  0  0  0  0
 16 28  1  0  0  0  0
 16 15  2  0  0  0  0
 17 16  1  0  0  0  0
 18 17  2  0  0  0  0
 18 19  1  0  0  0  0
 19 14  2  0  0  0  0
 22 17  1  0  0  0  0
 23 18  1  0  0  0  0
 24 19  1  0  0  0  0
 24 25  2  0  0  0  0
 26 24  1  0  0  0  0
 27 24  2  0  0  0  0
 28 30  1  0  0  0  0
 29 28  1  0  0  0  0
 31 28  1  0  0  0  0
M  RAD  3   2   2   3   3   4   2
M  END
