Coordinates from ORCA-job PhN2+~TsO-_B3LYPG-6-31G_dp-CH-Scan-d09-49-n800
 OpenBabel11261919273D

 31 31  0  0  0  0  0  0  0  0999 V2000
   -2.4328    0.7214    0.1304 C   0  0  0  0  0  0  0  0  0  0  0  0
   -3.7363    0.3537    0.4433 N   0  0  0  0  0  0  0  0  0  0  0  0
   -4.7974    0.1122    0.6862 N   0  0  0  0  0  0  0  0  0  0  0  0
   -2.2283    2.0760   -0.1890 C   0  0  0  0  0  0  0  0  0  0  0  0
   -0.8794    2.3479   -0.4951 C   0  0  0  0  0  0  0  0  0  0  0  0
    0.1156    1.3723   -0.4756 C   0  0  0  0  0  0  0  0  0  0  0  0
   -0.1751    0.0340   -0.1412 C   0  0  0  0  0  0  0  0  0  0  0  0
   -1.4723   -0.3185    0.1711 C   0  0  0  0  0  0  0  0  0  0  0  0
   -3.3533    3.1359   -0.2077 H   0  0  0  0  0  0  0  0  0  0  0  0
   -0.6024    3.3658   -0.7602 H   0  0  0  0  0  0  0  0  0  0  0  0
    1.1399    1.6405   -0.7231 H   0  0  0  0  0  0  0  0  0  0  0  0
    0.6104   -0.7140   -0.1291 H   0  0  0  0  0  0  0  0  0  0  0  0
   -1.7474   -1.3347    0.4358 H   0  0  0  0  0  0  0  0  0  0  0  0
   -7.0222    5.3382    1.1489 C   0  0  0  0  0  0  0  0  0  0  0  0
   -7.8909    6.4253    1.0604 C   0  0  0  0  0  0  0  0  0  0  0  0
   -8.4324    6.8222   -0.1694 C   0  0  0  0  0  0  0  0  0  0  0  0
   -8.0906    6.0914   -1.3175 C   0  0  0  0  0  0  0  0  0  0  0  0
   -7.2255    5.0026   -1.2469 C   0  0  0  0  0  0  0  0  0  0  0  0
   -6.6918    4.6374   -0.0098 C   0  0  0  0  0  0  0  0  0  0  0  0
   -6.6138    5.0202    2.1016 H   0  0  0  0  0  0  0  0  0  0  0  0
   -8.1573    6.9708    1.9620 H   0  0  0  0  0  0  0  0  0  0  0  0
   -8.5136    6.3757   -2.2777 H   0  0  0  0  0  0  0  0  0  0  0  0
   -6.9747    4.4269   -2.1312 H   0  0  0  0  0  0  0  0  0  0  0  0
   -5.5695    3.2514    0.0888 S   0  0  0  0  0  0  0  0  0  0  0  0
   -5.5847    2.7351    1.4728 O   0  0  0  0  0  0  0  0  0  0  0  0
   -4.1943    3.9277   -0.2243 O   0  0  0  0  0  0  0  0  0  0  0  0
   -5.9179    2.2847   -0.9704 O   0  0  0  0  0  0  0  0  0  0  0  0
   -9.3506    8.0174   -0.2638 C   0  0  0  0  0  0  0  0  0  0  0  0
  -10.1700    7.8387   -0.9671 H   0  0  0  0  0  0  0  0  0  0  0  0
   -9.7847    8.2672    0.7080 H   0  0  0  0  0  0  0  0  0  0  0  0
   -8.8086    8.9032   -0.6181 H   0  0  0  0  0  0  0  0  0  0  0  0
  1  8  1  0  0  0  0
  1  2  1  0  0  0  0
  2  3  1  0  0  0  0
  4  1  2  0  0  0  0
  5  6  2  0  0  0  0
  5  4  1  0  0  0  0
  6  7  1  0  0  0  0
  7 12  1  0  0  0  0
  7  8  2  0  0  0  0
  8 13  1  0  0  0  0
 10  5  1  0  0  0  0
 11  6  1  0  0  0  0
 14 20  1  0  0  0  0
 15 14  1  0  0  0  0
 15 21  1  0  0  0  0
 16 15  2  0  0  0  0
 17 18  2  0  0  0  0
 17 16  1  0  0  0  0
 18 19  1  0  0  0  0
 19 24  1  0  0  0  0
 19 14  2  0  0  0  0
 22 17  1  0  0  0  0
 23 18  1  0  0  0  0
 24 25  2  0  0  0  0
 26  9  1  0  0  0  0
 26 24  1  0  0  0  0
 27 24  2  0  0  0  0
 28 16  1  0  0  0  0
 28 30  1  0  0  0  0
 29 28  1  0  0  0  0
 31 28  1  0  0  0  0
M  RAD  3   2   2   3   3   4   2
M  END
