Coordinates from ORCA-job PhN2+~TsO-_B3LYPG-6-31G_dp-CH-Scan-d09-49-n800
 OpenBabel11261919283D

 31 31  0  0  0  0  0  0  0  0999 V2000
   -2.2210    0.4627   -0.8025 C   0  0  0  0  0  0  0  0  0  0  0  0
   -3.4160    0.0446   -1.3976 N   0  0  0  0  0  0  0  0  0  0  0  0
   -4.3223   -0.3299   -1.9339 N   0  0  0  0  0  0  0  0  0  0  0  0
   -1.0977   -0.0243   -1.4847 C   0  0  0  0  0  0  0  0  0  0  0  0
    0.0797    0.4608   -0.8385 C   0  0  0  0  0  0  0  0  0  0  0  0
    0.0705    1.2852    0.2811 C   0  0  0  0  0  0  0  0  0  0  0  0
   -1.1418    1.6980    0.8920 C   0  0  0  0  0  0  0  0  0  0  0  0
   -2.3412    1.2829    0.3531 C   0  0  0  0  0  0  0  0  0  0  0  0
   -3.1012    4.0332    0.0073 H   0  0  0  0  0  0  0  0  0  0  0  0
    1.0524    0.1739   -1.2405 H   0  0  0  0  0  0  0  0  0  0  0  0
    1.0097    1.6227    0.7168 H   0  0  0  0  0  0  0  0  0  0  0  0
   -1.1234    2.3143    1.7860 H   0  0  0  0  0  0  0  0  0  0  0  0
   -3.3055    1.5446    0.7767 H   0  0  0  0  0  0  0  0  0  0  0  0
   -7.2673    4.4231    0.6971 C   0  0  0  0  0  0  0  0  0  0  0  0
   -8.3505    5.2186    1.0582 C   0  0  0  0  0  0  0  0  0  0  0  0
   -8.6393    6.4084    0.3719 C   0  0  0  0  0  0  0  0  0  0  0  0
   -7.8089    6.7876   -0.6924 C   0  0  0  0  0  0  0  0  0  0  0  0
   -6.7177    6.0078   -1.0689 C   0  0  0  0  0  0  0  0  0  0  0  0
   -6.4579    4.8325   -0.3641 C   0  0  0  0  0  0  0  0  0  0  0  0
   -7.0539    3.4969    1.2189 H   0  0  0  0  0  0  0  0  0  0  0  0
   -8.9851    4.9106    1.8850 H   0  0  0  0  0  0  0  0  0  0  0  0
   -8.0194    7.7044   -1.2357 H   0  0  0  0  0  0  0  0  0  0  0  0
   -6.0811    6.2947   -1.8988 H   0  0  0  0  0  0  0  0  0  0  0  0
   -5.0711    3.8300   -0.8396 S   0  0  0  0  0  0  0  0  0  0  0  0
   -5.3126    2.4363   -0.4512 O   0  0  0  0  0  0  0  0  0  0  0  0
   -3.9576    4.4599    0.1959 O   0  0  0  0  0  0  0  0  0  0  0  0
   -4.6614    4.1401   -2.2066 O   0  0  0  0  0  0  0  0  0  0  0  0
   -9.8374    7.2423    0.7540 C   0  0  0  0  0  0  0  0  0  0  0  0
  -10.7506    6.8431    0.2964 H   0  0  0  0  0  0  0  0  0  0  0  0
   -9.9930    7.2461    1.8370 H   0  0  0  0  0  0  0  0  0  0  0  0
   -9.7292    8.2776    0.4199 H   0  0  0  0  0  0  0  0  0  0  0  0
  1  8  2  0  0  0  0
  2  1  1  0  0  0  0
  3  2  1  0  0  0  0
  4  5  2  0  0  0  0
  4  1  1  0  0  0  0
  5  6  1  0  0  0  0
  6 11  1  0  0  0  0
  6  7  2  0  0  0  0
  7 12  1  0  0  0  0
  8 13  1  0  0  0  0
  8  7  1  0  0  0  0
  9 26  1  0  0  0  0
 10  5  1  0  0  0  0
 14 15  1  0  0  0  0
 14 20  1  0  0  0  0
 15 21  1  0  0  0  0
 16 28  1  0  0  0  0
 16 15  2  0  0  0  0
 17 16  1  0  0  0  0
 18 17  2  0  0  0  0
 18 19  1  0  0  0  0
 19 14  2  0  0  0  0
 22 17  1  0  0  0  0
 23 18  1  0  0  0  0
 24 25  2  0  0  0  0
 24 19  1  0  0  0  0
 24 26  1  0  0  0  0
 27 24  2  0  0  0  0
 28 30  1  0  0  0  0
 29 28  1  0  0  0  0
 31 28  1  0  0  0  0
M  RAD  3   2   2   3   3   4   2
M  END
