Coordinates from ORCA-job PhN2+~TsO-_B3LYPG-6-31G_dp-CH-Scan-d09-49-n800
 OpenBabel11261919283D

 31 31  0  0  0  0  0  0  0  0999 V2000
   -1.7983    0.4517    0.0012 C   0  0  0  0  0  0  0  0  0  0  0  0
   -3.1516    0.7892    0.0819 N   0  0  0  0  0  0  0  0  0  0  0  0
   -4.2231    1.1059    0.1338 N   0  0  0  0  0  0  0  0  0  0  0  0
   -0.9860    1.5347   -0.3668 C   0  0  0  0  0  0  0  0  0  0  0  0
    0.3704    1.0962   -0.4226 C   0  0  0  0  0  0  0  0  0  0  0  0
    0.7827   -0.2040   -0.1492 C   0  0  0  0  0  0  0  0  0  0  0  0
   -0.1405   -1.2162    0.2139 C   0  0  0  0  0  0  0  0  0  0  0  0
   -1.4784   -0.9020    0.2982 C   0  0  0  0  0  0  0  0  0  0  0  0
   -3.3403    5.6248   -0.9471 H   0  0  0  0  0  0  0  0  0  0  0  0
    1.1422    1.8180   -0.6955 H   0  0  0  0  0  0  0  0  0  0  0  0
    1.8383   -0.4658   -0.2126 H   0  0  0  0  0  0  0  0  0  0  0  0
    0.2025   -2.2241    0.4240 H   0  0  0  0  0  0  0  0  0  0  0  0
   -2.2332   -1.6349    0.5717 H   0  0  0  0  0  0  0  0  0  0  0  0
   -7.1587    5.8820    1.0696 C   0  0  0  0  0  0  0  0  0  0  0  0
   -8.3975    6.5171    1.1426 C   0  0  0  0  0  0  0  0  0  0  0  0
   -9.1782    6.7182   -0.0036 C   0  0  0  0  0  0  0  0  0  0  0  0
   -8.6913    6.2572   -1.2374 C   0  0  0  0  0  0  0  0  0  0  0  0
   -7.4573    5.6214   -1.3322 C   0  0  0  0  0  0  0  0  0  0  0  0
   -6.6999    5.4451   -0.1722 C   0  0  0  0  0  0  0  0  0  0  0  0
   -6.5597    5.7138    1.9577 H   0  0  0  0  0  0  0  0  0  0  0  0
   -8.7653    6.8581    2.1060 H   0  0  0  0  0  0  0  0  0  0  0  0
   -9.2900    6.3946   -2.1339 H   0  0  0  0  0  0  0  0  0  0  0  0
   -7.0878    5.2524   -2.2824 H   0  0  0  0  0  0  0  0  0  0  0  0
   -5.1240    4.6271   -0.2787 S   0  0  0  0  0  0  0  0  0  0  0  0
   -4.7458    4.1199    1.0381 O   0  0  0  0  0  0  0  0  0  0  0  0
   -4.2025    5.9457   -0.6285 O   0  0  0  0  0  0  0  0  0  0  0  0
   -5.0921    3.7398   -1.4418 O   0  0  0  0  0  0  0  0  0  0  0  0
  -10.5106    7.4234    0.0778 C   0  0  0  0  0  0  0  0  0  0  0  0
  -11.2771    6.8926   -0.4955 H   0  0  0  0  0  0  0  0  0  0  0  0
  -10.8561    7.5100    1.1111 H   0  0  0  0  0  0  0  0  0  0  0  0
  -10.4426    8.4368   -0.3353 H   0  0  0  0  0  0  0  0  0  0  0  0
  1  2  1  0  0  0  0
  1  8  2  0  0  0  0
  2  3  1  0  0  0  0
  4  1  1  0  0  0  0
  5  4  2  0  0  0  0
  5  6  1  0  0  0  0
  6  7  2  0  0  0  0
  7  8  1  0  0  0  0
  7 12  1  0  0  0  0
  8 13  1  0  0  0  0
  9 26  1  0  0  0  0
 10  5  1  0  0  0  0
 11  6  1  0  0  0  0
 14 15  1  0  0  0  0
 14 20  1  0  0  0  0
 15 21  1  0  0  0  0
 16 28  1  0  0  0  0
 16 15  2  0  0  0  0
 17 16  1  0  0  0  0
 18 17  2  0  0  0  0
 18 19  1  0  0  0  0
 19 14  2  0  0  0  0
 22 17  1  0  0  0  0
 23 18  1  0  0  0  0
 24 19  1  0  0  0  0
 24 25  2  0  0  0  0
 26 24  1  0  0  0  0
 27 24  2  0  0  0  0
 28 30  1  0  0  0  0
 29 28  1  0  0  0  0
 31 28  1  0  0  0  0
M  RAD  3   2   2   3   3   4   2
M  END
