Coordinates from ORCA-job PhN2+~TsO-_B3LYPG-6-31G_dp-CH-Scan-d09-49-n800
 OpenBabel11261919273D

 31 31  0  0  0  0  0  0  0  0999 V2000
   -1.9620    0.4871    0.0969 C   0  0  0  0  0  0  0  0  0  0  0  0
   -3.3340    0.5958    0.3309 N   0  0  0  0  0  0  0  0  0  0  0  0
   -4.4296    0.7314    0.5070 N   0  0  0  0  0  0  0  0  0  0  0  0
   -1.3643    1.7046   -0.2642 C   0  0  0  0  0  0  0  0  0  0  0  0
    0.0271    1.4915   -0.4875 C   0  0  0  0  0  0  0  0  0  0  0  0
    0.6583    0.2582   -0.3596 C   0  0  0  0  0  0  0  0  0  0  0  0
   -0.0562   -0.9064    0.0152 C   0  0  0  0  0  0  0  0  0  0  0  0
   -1.4087   -0.8128    0.2560 C   0  0  0  0  0  0  0  0  0  0  0  0
   -3.3112    4.9096   -0.5841 H   0  0  0  0  0  0  0  0  0  0  0  0
    0.6465    2.3413   -0.7791 H   0  0  0  0  0  0  0  0  0  0  0  0
    1.7270    0.1706   -0.5505 H   0  0  0  0  0  0  0  0  0  0  0  0
    0.4552   -1.8590    0.1116 H   0  0  0  0  0  0  0  0  0  0  0  0
   -2.0092   -1.6706    0.5471 H   0  0  0  0  0  0  0  0  0  0  0  0
   -7.1603    5.7595    1.1110 C   0  0  0  0  0  0  0  0  0  0  0  0
   -8.3016    6.5591    1.0988 C   0  0  0  0  0  0  0  0  0  0  0  0
   -9.0063    6.7994   -0.0889 C   0  0  0  0  0  0  0  0  0  0  0  0
   -8.5458    6.2061   -1.2748 C   0  0  0  0  0  0  0  0  0  0  0  0
   -7.4083    5.4041   -1.2841 C   0  0  0  0  0  0  0  0  0  0  0  0
   -6.7226    5.1943   -0.0862 C   0  0  0  0  0  0  0  0  0  0  0  0
   -6.6213    5.5625    2.0310 H   0  0  0  0  0  0  0  0  0  0  0  0
   -8.6529    7.0002    2.0272 H   0  0  0  0  0  0  0  0  0  0  0  0
   -9.0886    6.3715   -2.2016 H   0  0  0  0  0  0  0  0  0  0  0  0
   -7.0600    4.9346   -2.1972 H   0  0  0  0  0  0  0  0  0  0  0  0
   -5.2686    4.1688   -0.0846 S   0  0  0  0  0  0  0  0  0  0  0  0
   -5.0148    3.6763    1.2687 O   0  0  0  0  0  0  0  0  0  0  0  0
   -4.1739    5.3389   -0.4417 O   0  0  0  0  0  0  0  0  0  0  0  0
   -5.3217    3.2253   -1.2014 O   0  0  0  0  0  0  0  0  0  0  0  0
  -10.2241    7.6914   -0.1003 C   0  0  0  0  0  0  0  0  0  0  0  0
  -10.9959    7.3053   -0.7731 H   0  0  0  0  0  0  0  0  0  0  0  0
  -10.6582    7.7906    0.8980 H   0  0  0  0  0  0  0  0  0  0  0  0
   -9.9658    8.6991   -0.4485 H   0  0  0  0  0  0  0  0  0  0  0  0
  1  8  1  0  0  0  0
  1  2  1  0  0  0  0
  2  3  1  0  0  0  0
  4  1  2  0  0  0  0
  5  6  2  0  0  0  0
  5  4  1  0  0  0  0
  6  7  1  0  0  0  0
  7 12  1  0  0  0  0
  7  8  2  0  0  0  0
  8 13  1  0  0  0  0
  9 26  1  0  0  0  0
 10  5  1  0  0  0  0
 11  6  1  0  0  0  0
 14 20  1  0  0  0  0
 15 14  1  0  0  0  0
 15 21  1  0  0  0  0
 16 15  2  0  0  0  0
 17 16  1  0  0  0  0
 18 17  2  0  0  0  0
 18 19  1  0  0  0  0
 19 24  1  0  0  0  0
 19 14  2  0  0  0  0
 22 17  1  0  0  0  0
 23 18  1  0  0  0  0
 24 25  2  0  0  0  0
 26 24  1  0  0  0  0
 27 24  2  0  0  0  0
 28 16  1  0  0  0  0
 28 30  1  0  0  0  0
 29 28  1  0  0  0  0
 31 28  1  0  0  0  0
M  RAD  3   2   2   3   3   4   2
M  END
