Coordinates from ORCA-job PhN2+~TsO-_B3LYPG-6-31G_dp-CH-Scan-d09-49-n800
 OpenBabel11261919283D

 31 31  0  0  0  0  0  0  0  0999 V2000
   -1.8831    0.4745    0.0641 C   0  0  0  0  0  0  0  0  0  0  0  0
   -3.2475    0.7198    0.2353 N   0  0  0  0  0  0  0  0  0  0  0  0
   -4.3314    0.9647    0.3602 N   0  0  0  0  0  0  0  0  0  0  0  0
   -1.1604    1.6233   -0.2915 C   0  0  0  0  0  0  0  0  0  0  0  0
    0.2145    1.2756   -0.4438 C   0  0  0  0  0  0  0  0  0  0  0  0
    0.7204   -0.0078   -0.2631 C   0  0  0  0  0  0  0  0  0  0  0  0
   -0.1170   -1.0927    0.0978 C   0  0  0  0  0  0  0  0  0  0  0  0
   -1.4642   -0.8683    0.2727 C   0  0  0  0  0  0  0  0  0  0  0  0
   -3.3061    5.3363   -0.8067 H   0  0  0  0  0  0  0  0  0  0  0  0
    0.9240    2.0573   -0.7207 H   0  0  0  0  0  0  0  0  0  0  0  0
    1.7840   -0.1990   -0.4004 H   0  0  0  0  0  0  0  0  0  0  0  0
    0.2978   -2.0861    0.2355 H   0  0  0  0  0  0  0  0  0  0  0  0
   -2.1556   -1.6597    0.5502 H   0  0  0  0  0  0  0  0  0  0  0  0
   -7.1532    5.8353    1.0903 C   0  0  0  0  0  0  0  0  0  0  0  0
   -8.3586    6.5344    1.1210 C   0  0  0  0  0  0  0  0  0  0  0  0
   -9.1059    6.7433   -0.0462 C   0  0  0  0  0  0  0  0  0  0  0  0
   -8.6207    6.2229   -1.2565 C   0  0  0  0  0  0  0  0  0  0  0  0
   -7.4196    5.5221   -1.3088 C   0  0  0  0  0  0  0  0  0  0  0  0
   -6.6941    5.3406   -0.1296 C   0  0  0  0  0  0  0  0  0  0  0  0
   -6.5805    5.6615    1.9946 H   0  0  0  0  0  0  0  0  0  0  0  0
   -8.7267    6.9200    2.0673 H   0  0  0  0  0  0  0  0  0  0  0  0
   -9.1948    6.3648   -2.1682 H   0  0  0  0  0  0  0  0  0  0  0  0
   -7.0520    5.1077   -2.2408 H   0  0  0  0  0  0  0  0  0  0  0  0
   -5.1602    4.4409   -0.1818 S   0  0  0  0  0  0  0  0  0  0  0  0
   -4.8316    3.9546    1.1563 O   0  0  0  0  0  0  0  0  0  0  0  0
   -4.1715    5.7023   -0.5513 O   0  0  0  0  0  0  0  0  0  0  0  0
   -5.1566    3.5162   -1.3156 O   0  0  0  0  0  0  0  0  0  0  0  0
  -10.3980    7.5232   -0.0105 C   0  0  0  0  0  0  0  0  0  0  0  0
  -11.1581    7.0651   -0.6508 H   0  0  0  0  0  0  0  0  0  0  0  0
  -10.7994    7.5879    1.0042 H   0  0  0  0  0  0  0  0  0  0  0  0
  -10.2457    8.5479   -0.3710 H   0  0  0  0  0  0  0  0  0  0  0  0
  1  2  1  0  0  0  0
  1  8  2  0  0  0  0
  2  3  1  0  0  0  0
  4  1  1  0  0  0  0
  5  4  2  0  0  0  0
  5  6  1  0  0  0  0
  6  7  2  0  0  0  0
  7 12  1  0  0  0  0
  7  8  1  0  0  0  0
  8 13  1  0  0  0  0
  9 26  1  0  0  0  0
 10  5  1  0  0  0  0
 11  6  1  0  0  0  0
 14 15  1  0  0  0  0
 14 20  1  0  0  0  0
 15 21  1  0  0  0  0
 16 28  1  0  0  0  0
 16 15  2  0  0  0  0
 17 16  1  0  0  0  0
 18 17  2  0  0  0  0
 18 19  1  0  0  0  0
 19 14  2  0  0  0  0
 22 17  1  0  0  0  0
 23 18  1  0  0  0  0
 24 19  1  0  0  0  0
 24 25  2  0  0  0  0
 26 24  1  0  0  0  0
 27 24  2  0  0  0  0
 28 30  1  0  0  0  0
 29 28  1  0  0  0  0
 31 28  1  0  0  0  0
M  RAD  3   2   2   3   3   4   2
M  END
