Coordinates from ORCA-job PhN2+~TsO-_B3LYPG-6-31G_dp-CH-Scan-d09-49-n800
 OpenBabel11261919273D

 31 31  0  0  0  0  0  0  0  0999 V2000
   -2.2771    0.6282    0.1240 C   0  0  0  0  0  0  0  0  0  0  0  0
   -3.6054    0.3300    0.4096 N   0  0  0  0  0  0  0  0  0  0  0  0
   -4.6812    0.1301    0.6312 N   0  0  0  0  0  0  0  0  0  0  0  0
   -2.0295    1.9709   -0.2153 C   0  0  0  0  0  0  0  0  0  0  0  0
   -0.6514    2.1621   -0.4914 C   0  0  0  0  0  0  0  0  0  0  0  0
    0.2982    1.1459   -0.4278 C   0  0  0  0  0  0  0  0  0  0  0  0
   -0.0561   -0.1754   -0.0731 C   0  0  0  0  0  0  0  0  0  0  0  0
   -1.3728   -0.4629    0.2138 C   0  0  0  0  0  0  0  0  0  0  0  0
   -3.4906    3.5201   -0.3079 H   0  0  0  0  0  0  0  0  0  0  0  0
   -0.3089    3.1572   -0.7718 H   0  0  0  0  0  0  0  0  0  0  0  0
    1.3400    1.3628   -0.6558 H   0  0  0  0  0  0  0  0  0  0  0  0
    0.6972   -0.9550   -0.0268 H   0  0  0  0  0  0  0  0  0  0  0  0
   -1.7012   -1.4599    0.4928 H   0  0  0  0  0  0  0  0  0  0  0  0
   -7.0700    5.4275    1.1267 C   0  0  0  0  0  0  0  0  0  0  0  0
   -7.9746    6.4859    1.0664 C   0  0  0  0  0  0  0  0  0  0  0  0
   -8.5663    6.8661   -0.1461 C   0  0  0  0  0  0  0  0  0  0  0  0
   -8.2380    6.1482   -1.3065 C   0  0  0  0  0  0  0  0  0  0  0  0
   -7.3376    5.0870   -1.2659 C   0  0  0  0  0  0  0  0  0  0  0  0
   -6.7559    4.7407   -0.0453 C   0  0  0  0  0  0  0  0  0  0  0  0
   -6.6212    5.1236    2.0656 H   0  0  0  0  0  0  0  0  0  0  0  0
   -8.2295    7.0224    1.9763 H   0  0  0  0  0  0  0  0  0  0  0  0
   -8.6986    6.4207   -2.2523 H   0  0  0  0  0  0  0  0  0  0  0  0
   -7.0950    4.5219   -2.1592 H   0  0  0  0  0  0  0  0  0  0  0  0
   -5.6039    3.3826    0.0197 S   0  0  0  0  0  0  0  0  0  0  0  0
   -5.5354    2.8700    1.3943 O   0  0  0  0  0  0  0  0  0  0  0  0
   -4.2500    4.1802   -0.3257 O   0  0  0  0  0  0  0  0  0  0  0  0
   -5.9058    2.4344   -1.0587 O   0  0  0  0  0  0  0  0  0  0  0  0
   -9.5228    8.0322   -0.2092 C   0  0  0  0  0  0  0  0  0  0  0  0
  -10.3436    7.8398   -0.9068 H   0  0  0  0  0  0  0  0  0  0  0  0
   -9.9529    8.2518    0.7715 H   0  0  0  0  0  0  0  0  0  0  0  0
   -9.0116    8.9397   -0.5539 H   0  0  0  0  0  0  0  0  0  0  0  0
  1  8  1  0  0  0  0
  1  2  1  0  0  0  0
  2  3  1  0  0  0  0
  4  1  2  0  0  0  0
  5  6  2  0  0  0  0
  5  4  1  0  0  0  0
  6  7  1  0  0  0  0
  7 12  1  0  0  0  0
  7  8  2  0  0  0  0
  8 13  1  0  0  0  0
 10  5  1  0  0  0  0
 11  6  1  0  0  0  0
 14 20  1  0  0  0  0
 15 14  1  0  0  0  0
 15 21  1  0  0  0  0
 16 15  2  0  0  0  0
 17 18  2  0  0  0  0
 17 16  1  0  0  0  0
 18 19  1  0  0  0  0
 19 24  1  0  0  0  0
 19 14  2  0  0  0  0
 22 17  1  0  0  0  0
 23 18  1  0  0  0  0
 24 25  2  0  0  0  0
 26  9  1  0  0  0  0
 26 24  1  0  0  0  0
 27 24  2  0  0  0  0
 28 16  1  0  0  0  0
 28 30  1  0  0  0  0
 29 28  1  0  0  0  0
 31 28  1  0  0  0  0
M  RAD  3   2   2   3   3   4   2
M  END
