Coordinates from ORCA-job PhN2+~TsO-_B3LYPG-6-31G_dp-CH-Scan-d09-49-n800
 OpenBabel11261919273D

 31 31  0  0  0  0  0  0  0  0999 V2000
   -2.0553    0.5147    0.0901 C   0  0  0  0  0  0  0  0  0  0  0  0
   -3.4293    0.4576    0.3177 N   0  0  0  0  0  0  0  0  0  0  0  0
   -4.5335    0.4557    0.4894 N   0  0  0  0  0  0  0  0  0  0  0  0
   -1.5931    1.7950   -0.2575 C   0  0  0  0  0  0  0  0  0  0  0  0
   -0.1870    1.7476   -0.4737 C   0  0  0  0  0  0  0  0  0  0  0  0
    0.5809    0.5933   -0.3517 C   0  0  0  0  0  0  0  0  0  0  0  0
    0.0024   -0.6479    0.0083 C   0  0  0  0  0  0  0  0  0  0  0  0
   -1.3536   -0.7123    0.2407 C   0  0  0  0  0  0  0  0  0  0  0  0
   -3.3923    4.3494   -0.4857 H   0  0  0  0  0  0  0  0  0  0  0  0
    0.3304    2.6658   -0.7542 H   0  0  0  0  0  0  0  0  0  0  0  0
    1.6534    0.6316   -0.5359 H   0  0  0  0  0  0  0  0  0  0  0  0
    0.6182   -1.5368    0.1003 H   0  0  0  0  0  0  0  0  0  0  0  0
   -1.8523   -1.6363    0.5205 H   0  0  0  0  0  0  0  0  0  0  0  0
   -7.1287    5.6513    1.1057 C   0  0  0  0  0  0  0  0  0  0  0  0
   -8.1761    6.5698    1.0840 C   0  0  0  0  0  0  0  0  0  0  0  0
   -8.8622    6.8597   -0.1039 C   0  0  0  0  0  0  0  0  0  0  0  0
   -8.4808    6.1941   -1.2791 C   0  0  0  0  0  0  0  0  0  0  0  0
   -7.4374    5.2725   -1.2784 C   0  0  0  0  0  0  0  0  0  0  0  0
   -6.7668    5.0154   -0.0816 C   0  0  0  0  0  0  0  0  0  0  0  0
   -6.6054    5.4165    2.0259 H   0  0  0  0  0  0  0  0  0  0  0  0
   -8.4688    7.0662    2.0049 H   0  0  0  0  0  0  0  0  0  0  0  0
   -9.0116    6.3974   -2.2054 H   0  0  0  0  0  0  0  0  0  0  0  0
   -7.1510    4.7476   -2.1829 H   0  0  0  0  0  0  0  0  0  0  0  0
   -5.4332    3.8364   -0.0663 S   0  0  0  0  0  0  0  0  0  0  0  0
   -5.2356    3.3338    1.2943 O   0  0  0  0  0  0  0  0  0  0  0  0
   -4.2191    4.8670   -0.4366 O   0  0  0  0  0  0  0  0  0  0  0  0
   -5.6016    2.8845   -1.1652 O   0  0  0  0  0  0  0  0  0  0  0  0
   -9.9748    7.8794   -0.1256 C   0  0  0  0  0  0  0  0  0  0  0  0
  -10.7717    7.5872   -0.8159 H   0  0  0  0  0  0  0  0  0  0  0  0
  -10.4138    8.0158    0.8663 H   0  0  0  0  0  0  0  0  0  0  0  0
   -9.6018    8.8566   -0.4563 H   0  0  0  0  0  0  0  0  0  0  0  0
  1  8  1  0  0  0  0
  1  2  1  0  0  0  0
  2  3  1  0  0  0  0
  4  1  2  0  0  0  0
  5  6  2  0  0  0  0
  5  4  1  0  0  0  0
  6  7  1  0  0  0  0
  7 12  1  0  0  0  0
  7  8  2  0  0  0  0
  8 13  1  0  0  0  0
  9 26  1  0  0  0  0
 10  5  1  0  0  0  0
 11  6  1  0  0  0  0
 14 20  1  0  0  0  0
 15 14  1  0  0  0  0
 15 21  1  0  0  0  0
 16 15  2  0  0  0  0
 17 18  2  0  0  0  0
 17 16  1  0  0  0  0
 18 19  1  0  0  0  0
 19 24  1  0  0  0  0
 19 14  2  0  0  0  0
 22 17  1  0  0  0  0
 23 18  1  0  0  0  0
 24 25  2  0  0  0  0
 26 24  1  0  0  0  0
 27 24  2  0  0  0  0
 28 16  1  0  0  0  0
 28 30  1  0  0  0  0
 29 28  1  0  0  0  0
 31 28  1  0  0  0  0
M  RAD  3   2   2   3   3   4   2
M  END
