Coordinates from ORCA-job PhN2+~TsO-_B3LYPG-6-31G_dp-CH-Scan-d09-49-n800
 OpenBabel11261919273D

 31 31  0  0  0  0  0  0  0  0999 V2000
   -2.6857    0.8018    0.0324 C   0  0  0  0  0  0  0  0  0  0  0  0
   -4.0405    0.8448    0.3889 N   0  0  0  0  0  0  0  0  0  0  0  0
   -5.0494    1.3871    0.3798 N   0  0  0  0  0  0  0  0  0  0  0  0
   -2.1064    1.8485   -0.7034 C   0  0  0  0  0  0  0  0  0  0  0  0
   -0.7537    1.7404   -1.0129 C   0  0  0  0  0  0  0  0  0  0  0  0
   -0.0133    0.6264   -0.6045 C   0  0  0  0  0  0  0  0  0  0  0  0
   -0.6141   -0.4035    0.1277 C   0  0  0  0  0  0  0  0  0  0  0  0
   -1.9624   -0.3220    0.4546 C   0  0  0  0  0  0  0  0  0  0  0  0
   -2.7066    2.7015   -1.0035 H   0  0  0  0  0  0  0  0  0  0  0  0
   -0.2772    2.5371   -1.5747 H   0  0  0  0  0  0  0  0  0  0  0  0
    1.0405    0.5603   -0.8574 H   0  0  0  0  0  0  0  0  0  0  0  0
   -0.0329   -1.2635    0.4434 H   0  0  0  0  0  0  0  0  0  0  0  0
   -2.4596   -1.0997    1.0238 H   0  0  0  0  0  0  0  0  0  0  0  0
   -7.2558    4.9359    1.0180 C   0  0  0  0  0  0  0  0  0  0  0  0
   -8.4573    5.6329    0.9101 C   0  0  0  0  0  0  0  0  0  0  0  0
   -8.6497    6.5957   -0.0918 C   0  0  0  0  0  0  0  0  0  0  0  0
   -7.5957    6.8522   -0.9792 C   0  0  0  0  0  0  0  0  0  0  0  0
   -6.3871    6.1636   -0.8834 C   0  0  0  0  0  0  0  0  0  0  0  0
   -6.2261    5.2024    0.1144 C   0  0  0  0  0  0  0  0  0  0  0  0
   -7.1009    4.2057    1.8051 H   0  0  0  0  0  0  0  0  0  0  0  0
   -9.2569    5.4314    1.6193 H   0  0  0  0  0  0  0  0  0  0  0  0
   -7.7203    7.6067   -1.7522 H   0  0  0  0  0  0  0  0  0  0  0  0
   -5.5654    6.3774   -1.5584 H   0  0  0  0  0  0  0  0  0  0  0  0
   -4.6894    4.2842    0.2223 S   0  0  0  0  0  0  0  0  0  0  0  0
   -4.5348    3.8319    1.6193 O   0  0  0  0  0  0  0  0  0  0  0  0
   -3.6299    5.1310   -0.3550 O   0  0  0  0  0  0  0  0  0  0  0  0
   -4.9055    3.0555   -0.7106 O   0  0  0  0  0  0  0  0  0  0  0  0
   -9.9664    7.3253   -0.2182 C   0  0  0  0  0  0  0  0  0  0  0  0
  -10.7017    6.7209   -0.7646 H   0  0  0  0  0  0  0  0  0  0  0  0
  -10.3963    7.5482    0.7630 H   0  0  0  0  0  0  0  0  0  0  0  0
   -9.8516    8.2684   -0.7601 H   0  0  0  0  0  0  0  0  0  0  0  0
  1  2  1  0  0  0  0
  1  8  2  0  0  0  0
  3  2  2  0  0  0  0
  4  1  1  0  0  0  0
  5  4  2  0  0  0  0
  5  6  1  0  0  0  0
  6  7  2  0  0  0  0
  7 12  1  0  0  0  0
  7  8  1  0  0  0  0
  8 13  1  0  0  0  0
  9  4  1  0  0  0  0
 10  5  1  0  0  0  0
 11  6  1  0  0  0  0
 14 20  1  0  0  0  0
 15 14  1  0  0  0  0
 15 21  1  0  0  0  0
 16 15  2  0  0  0  0
 17 18  2  0  0  0  0
 17 16  1  0  0  0  0
 18 19  1  0  0  0  0
 19 24  1  0  0  0  0
 19 14  2  0  0  0  0
 22 17  1  0  0  0  0
 23 18  1  0  0  0  0
 24 25  1  0  0  0  0
 26 24  2  0  0  0  0
 27 24  2  0  0  0  0
 28 16  1  0  0  0  0
 28 30  1  0  0  0  0
 29 28  1  0  0  0  0
 31 28  1  0  0  0  0
M  RAD  2   3   2  25   2
M  END
