Coordinates from ORCA-job PhN2+~TsO-_B3LYPG-6-31G_dp-CH-Scan-d09-49-n800
 OpenBabel11261919283D

 31 31  0  0  0  0  0  0  0  0999 V2000
   -1.8572    0.4697    0.0417 C   0  0  0  0  0  0  0  0  0  0  0  0
   -3.2188    0.7512    0.1775 N   0  0  0  0  0  0  0  0  0  0  0  0
   -4.2988    1.0244    0.2758 N   0  0  0  0  0  0  0  0  0  0  0  0
   -1.0981    1.5949   -0.3129 C   0  0  0  0  0  0  0  0  0  0  0  0
    0.2710    1.2110   -0.4277 C   0  0  0  0  0  0  0  0  0  0  0  0
    0.7402   -0.0814   -0.2159 C   0  0  0  0  0  0  0  0  0  0  0  0
   -0.1323   -1.1400    0.1403 C   0  0  0  0  0  0  0  0  0  0  0  0
   -1.4772   -0.8801    0.2795 C   0  0  0  0  0  0  0  0  0  0  0  0
   -3.3151    5.4522   -0.8752 H   0  0  0  0  0  0  0  0  0  0  0  0
    1.0060    1.9708   -0.6989 H   0  0  0  0  0  0  0  0  0  0  0  0
    1.8018   -0.3007   -0.3241 H   0  0  0  0  0  0  0  0  0  0  0  0
    0.2544   -2.1411    0.3022 H   0  0  0  0  0  0  0  0  0  0  0  0
   -2.1946   -1.6502    0.5512 H   0  0  0  0  0  0  0  0  0  0  0  0
   -7.1488    5.8536    1.0809 C   0  0  0  0  0  0  0  0  0  0  0  0
   -8.3690    6.5258    1.1296 C   0  0  0  0  0  0  0  0  0  0  0  0
   -9.1318    6.7293   -0.0284 C   0  0  0  0  0  0  0  0  0  0  0  0
   -8.6465    6.2319   -1.2484 C   0  0  0  0  0  0  0  0  0  0  0  0
   -7.4309    5.5584   -1.3188 C   0  0  0  0  0  0  0  0  0  0  0  0
   -6.6906    5.3811   -0.1481 C   0  0  0  0  0  0  0  0  0  0  0  0
   -6.5641    5.6837    1.9781 H   0  0  0  0  0  0  0  0  0  0  0  0
   -8.7364    6.8943    2.0829 H   0  0  0  0  0  0  0  0  0  0  0  0
   -9.2321    6.3701   -2.1534 H   0  0  0  0  0  0  0  0  0  0  0  0
   -7.0631    5.1614   -2.2583 H   0  0  0  0  0  0  0  0  0  0  0  0
   -5.1385    4.5151   -0.2232 S   0  0  0  0  0  0  0  0  0  0  0  0
   -4.7881    4.0224    1.1069 O   0  0  0  0  0  0  0  0  0  0  0  0
   -4.1781    5.8002   -0.5888 O   0  0  0  0  0  0  0  0  0  0  0  0
   -5.1239    3.6033   -1.3675 O   0  0  0  0  0  0  0  0  0  0  0  0
  -10.4417    7.4779    0.0268 C   0  0  0  0  0  0  0  0  0  0  0  0
  -11.2044    6.9920   -0.5894 H   0  0  0  0  0  0  0  0  0  0  0  0
  -10.8214    7.5468    1.0495 H   0  0  0  0  0  0  0  0  0  0  0  0
  -10.3236    8.5006   -0.3515 H   0  0  0  0  0  0  0  0  0  0  0  0
  1  2  1  0  0  0  0
  1  8  2  0  0  0  0
  2  3  1  0  0  0  0
  4  1  1  0  0  0  0
  5  4  2  0  0  0  0
  5  6  1  0  0  0  0
  6  7  2  0  0  0  0
  7  8  1  0  0  0  0
  7 12  1  0  0  0  0
  8 13  1  0  0  0  0
  9 26  1  0  0  0  0
 10  5  1  0  0  0  0
 11  6  1  0  0  0  0
 14 15  1  0  0  0  0
 14 20  1  0  0  0  0
 15 21  1  0  0  0  0
 16 28  1  0  0  0  0
 16 15  2  0  0  0  0
 17 16  1  0  0  0  0
 18 17  2  0  0  0  0
 18 19  1  0  0  0  0
 19 14  2  0  0  0  0
 22 17  1  0  0  0  0
 23 18  1  0  0  0  0
 24 19  1  0  0  0  0
 24 25  2  0  0  0  0
 26 24  1  0  0  0  0
 27 24  2  0  0  0  0
 28 30  1  0  0  0  0
 29 28  1  0  0  0  0
 31 28  1  0  0  0  0
M  RAD  3   2   2   3   3   4   2
M  END
