Coordinates from ORCA-job PhN2+~TsO-_B3LYPG-6-31G_dp-CH-Scan-d09-49-n800
 OpenBabel11261919273D

 31 31  0  0  0  0  0  0  0  0999 V2000
   -1.9392    0.4825    0.0934 C   0  0  0  0  0  0  0  0  0  0  0  0
   -3.3097    0.6284    0.3184 N   0  0  0  0  0  0  0  0  0  0  0  0
   -4.4022    0.7941    0.4885 N   0  0  0  0  0  0  0  0  0  0  0  0
   -1.3082    1.6831   -0.2663 C   0  0  0  0  0  0  0  0  0  0  0  0
    0.0790    1.4329   -0.4793 C   0  0  0  0  0  0  0  0  0  0  0  0
    0.6768    0.1839   -0.3440 C   0  0  0  0  0  0  0  0  0  0  0  0
   -0.0706   -0.9608    0.0283 C   0  0  0  0  0  0  0  0  0  0  0  0
   -1.4217   -0.8313    0.2596 C   0  0  0  0  0  0  0  0  0  0  0  0
   -3.3055    5.0288   -0.6339 H   0  0  0  0  0  0  0  0  0  0  0  0
    0.7225    2.2655   -0.7684 H   0  0  0  0  0  0  0  0  0  0  0  0
    1.7442    0.0677   -0.5271 H   0  0  0  0  0  0  0  0  0  0  0  0
    0.4150   -1.9262    0.1303 H   0  0  0  0  0  0  0  0  0  0  0  0
   -2.0466   -1.6724    0.5483 H   0  0  0  0  0  0  0  0  0  0  0  0
   -7.1624    5.7816    1.1076 C   0  0  0  0  0  0  0  0  0  0  0  0
   -8.3222    6.5543    1.1037 C   0  0  0  0  0  0  0  0  0  0  0  0
   -9.0360    6.7853   -0.0805 C   0  0  0  0  0  0  0  0  0  0  0  0
   -8.5651    6.2104   -1.2714 C   0  0  0  0  0  0  0  0  0  0  0  0
   -7.4093    5.4354   -1.2890 C   0  0  0  0  0  0  0  0  0  0  0  0
   -6.7153    5.2343   -0.0943 C   0  0  0  0  0  0  0  0  0  0  0  0
   -6.6161    5.5917    2.0248 H   0  0  0  0  0  0  0  0  0  0  0  0
   -8.6810    6.9813    2.0357 H   0  0  0  0  0  0  0  0  0  0  0  0
   -9.1144    6.3687   -2.1956 H   0  0  0  0  0  0  0  0  0  0  0  0
   -7.0529    4.9798   -2.2060 H   0  0  0  0  0  0  0  0  0  0  0  0
   -5.2378    4.2432   -0.1032 S   0  0  0  0  0  0  0  0  0  0  0  0
   -4.9645    3.7550    1.2475 O   0  0  0  0  0  0  0  0  0  0  0  0
   -4.1721    5.4397   -0.4655 O   0  0  0  0  0  0  0  0  0  0  0  0
   -5.2730    3.3016   -1.2223 O   0  0  0  0  0  0  0  0  0  0  0  0
  -10.2747    7.6481   -0.0829 C   0  0  0  0  0  0  0  0  0  0  0  0
  -11.0416    7.2441   -0.7508 H   0  0  0  0  0  0  0  0  0  0  0  0
  -10.7043    7.7359    0.9185 H   0  0  0  0  0  0  0  0  0  0  0  0
  -10.0429    8.6620   -0.4318 H   0  0  0  0  0  0  0  0  0  0  0  0
  1  8  1  0  0  0  0
  1  2  1  0  0  0  0
  2  3  1  0  0  0  0
  4  1  2  0  0  0  0
  5  6  2  0  0  0  0
  5  4  1  0  0  0  0
  6  7  1  0  0  0  0
  7 12  1  0  0  0  0
  7  8  2  0  0  0  0
  8 13  1  0  0  0  0
  9 26  1  0  0  0  0
 10  5  1  0  0  0  0
 11  6  1  0  0  0  0
 14 20  1  0  0  0  0
 15 14  1  0  0  0  0
 15 21  1  0  0  0  0
 16 15  2  0  0  0  0
 17 16  1  0  0  0  0
 18 17  2  0  0  0  0
 18 19  1  0  0  0  0
 19 14  2  0  0  0  0
 22 17  1  0  0  0  0
 23 18  1  0  0  0  0
 24 19  1  0  0  0  0
 24 25  2  0  0  0  0
 26 24  1  0  0  0  0
 27 24  2  0  0  0  0
 28 16  1  0  0  0  0
 28 30  1  0  0  0  0
 29 28  1  0  0  0  0
 31 28  1  0  0  0  0
M  RAD  3   2   2   3   3   4   2
M  END
