Coordinates from ORCA-job PhN2+~TsO-_B3LYPG-6-31G_dp-CH-Scan-d09-49-n800
 OpenBabel11261919273D

 31 31  0  0  0  0  0  0  0  0999 V2000
   -2.3729    0.6767    0.1278 C   0  0  0  0  0  0  0  0  0  0  0  0
   -3.6810    0.3131    0.4281 N   0  0  0  0  0  0  0  0  0  0  0  0
   -4.7434    0.0645    0.6618 N   0  0  0  0  0  0  0  0  0  0  0  0
   -2.1794    2.0321   -0.1973 C   0  0  0  0  0  0  0  0  0  0  0  0
   -0.8195    2.2911   -0.4900 C   0  0  0  0  0  0  0  0  0  0  0  0
    0.1746    1.3161   -0.4532 C   0  0  0  0  0  0  0  0  0  0  0  0
   -0.1183   -0.0220   -0.1119 C   0  0  0  0  0  0  0  0  0  0  0  0
   -1.4179   -0.3705    0.1887 C   0  0  0  0  0  0  0  0  0  0  0  0
   -3.4602    3.2761   -0.2451 H   0  0  0  0  0  0  0  0  0  0  0  0
   -0.5300    3.3050   -0.7606 H   0  0  0  0  0  0  0  0  0  0  0  0
    1.2020    1.5817   -0.6921 H   0  0  0  0  0  0  0  0  0  0  0  0
    0.6678   -0.7693   -0.0862 H   0  0  0  0  0  0  0  0  0  0  0  0
   -1.6981   -1.3844    0.4584 H   0  0  0  0  0  0  0  0  0  0  0  0
   -7.0357    5.3656    1.1391 C   0  0  0  0  0  0  0  0  0  0  0  0
   -7.9070    6.4511    1.0613 C   0  0  0  0  0  0  0  0  0  0  0  0
   -8.4673    6.8448   -0.1614 C   0  0  0  0  0  0  0  0  0  0  0  0
   -8.1417    6.1131   -1.3138 C   0  0  0  0  0  0  0  0  0  0  0  0
   -7.2745    5.0255   -1.2549 C   0  0  0  0  0  0  0  0  0  0  0  0
   -6.7228    4.6647   -0.0245 C   0  0  0  0  0  0  0  0  0  0  0  0
   -6.6122    5.0507    2.0861 H   0  0  0  0  0  0  0  0  0  0  0  0
   -8.1605    6.9979    1.9655 H   0  0  0  0  0  0  0  0  0  0  0  0
   -8.5790    6.3956   -2.2679 H   0  0  0  0  0  0  0  0  0  0  0  0
   -7.0354    4.4493   -2.1421 H   0  0  0  0  0  0  0  0  0  0  0  0
   -5.6090    3.2743    0.0618 S   0  0  0  0  0  0  0  0  0  0  0  0
   -5.5875    2.7637    1.4426 O   0  0  0  0  0  0  0  0  0  0  0  0
   -4.2314    3.9939   -0.2693 O   0  0  0  0  0  0  0  0  0  0  0  0
   -5.9456    2.3200   -1.0054 O   0  0  0  0  0  0  0  0  0  0  0  0
   -9.3883    8.0383   -0.2440 C   0  0  0  0  0  0  0  0  0  0  0  0
  -10.2139    7.8596   -0.9399 H   0  0  0  0  0  0  0  0  0  0  0  0
   -9.8132    8.2854    0.7324 H   0  0  0  0  0  0  0  0  0  0  0  0
   -8.8505    8.9252   -0.6017 H   0  0  0  0  0  0  0  0  0  0  0  0
  1  8  1  0  0  0  0
  1  2  1  0  0  0  0
  2  3  1  0  0  0  0
  4  1  2  0  0  0  0
  5  6  2  0  0  0  0
  5  4  1  0  0  0  0
  6  7  1  0  0  0  0
  7 12  1  0  0  0  0
  7  8  2  0  0  0  0
  8 13  1  0  0  0  0
 10  5  1  0  0  0  0
 11  6  1  0  0  0  0
 14 20  1  0  0  0  0
 15 14  1  0  0  0  0
 15 21  1  0  0  0  0
 16 15  2  0  0  0  0
 17 18  2  0  0  0  0
 17 16  1  0  0  0  0
 18 19  1  0  0  0  0
 19 24  1  0  0  0  0
 19 14  2  0  0  0  0
 22 17  1  0  0  0  0
 23 18  1  0  0  0  0
 24 25  2  0  0  0  0
 26  9  1  0  0  0  0
 26 24  1  0  0  0  0
 27 24  2  0  0  0  0
 28 16  1  0  0  0  0
 28 30  1  0  0  0  0
 29 28  1  0  0  0  0
 31 28  1  0  0  0  0
M  RAD  3   2   2   3   3   4   2
M  END
