Coordinates from ORCA-job PhN2+~TsO-_B3LYPG-6-31G_dp-CH-Scan-d09-49-n800
 OpenBabel11261919273D

 31 31  0  0  0  0  0  0  0  0999 V2000
   -2.1763    0.5773    0.1062 C   0  0  0  0  0  0  0  0  0  0  0  0
   -3.5281    0.3704    0.3662 N   0  0  0  0  0  0  0  0  0  0  0  0
   -4.6191    0.2420    0.5677 N   0  0  0  0  0  0  0  0  0  0  0  0
   -1.8449    1.9011   -0.2313 C   0  0  0  0  0  0  0  0  0  0  0  0
   -0.4500    2.0032   -0.4797 C   0  0  0  0  0  0  0  0  0  0  0  0
    0.4328    0.9303   -0.3937 C   0  0  0  0  0  0  0  0  0  0  0  0
   -0.0098   -0.3664   -0.0425 C   0  0  0  0  0  0  0  0  0  0  0  0
   -1.3469   -0.5708    0.2185 C   0  0  0  0  0  0  0  0  0  0  0  0
   -3.4717    3.8233   -0.3702 H   0  0  0  0  0  0  0  0  0  0  0  0
   -0.0377    2.9733   -0.7562 H   0  0  0  0  0  0  0  0  0  0  0  0
    1.4909    1.0803   -0.6006 H   0  0  0  0  0  0  0  0  0  0  0  0
    0.6932   -1.1906    0.0209 H   0  0  0  0  0  0  0  0  0  0  0  0
   -1.7426   -1.5444    0.4934 H   0  0  0  0  0  0  0  0  0  0  0  0
   -7.1013    5.5180    1.1186 C   0  0  0  0  0  0  0  0  0  0  0  0
   -8.0569    6.5312    1.0719 C   0  0  0  0  0  0  0  0  0  0  0  0
   -8.6885    6.8776   -0.1308 C   0  0  0  0  0  0  0  0  0  0  0  0
   -8.3479    6.1721   -1.2951 C   0  0  0  0  0  0  0  0  0  0  0  0
   -7.3966    5.1558   -1.2687 C   0  0  0  0  0  0  0  0  0  0  0  0
   -6.7769    4.8433   -0.0578 C   0  0  0  0  0  0  0  0  0  0  0  0
   -6.6210    5.2401    2.0501 H   0  0  0  0  0  0  0  0  0  0  0  0
   -8.3202    7.0582    1.9847 H   0  0  0  0  0  0  0  0  0  0  0  0
   -8.8384    6.4188   -2.2329 H   0  0  0  0  0  0  0  0  0  0  0  0
   -7.1433    4.6001   -2.1649 H   0  0  0  0  0  0  0  0  0  0  0  0
   -5.5609    3.5426   -0.0102 S   0  0  0  0  0  0  0  0  0  0  0  0
   -5.4409    3.0342    1.3597 O   0  0  0  0  0  0  0  0  0  0  0  0
   -4.2509    4.4293   -0.3707 O   0  0  0  0  0  0  0  0  0  0  0  0
   -5.8163    2.5909   -1.0948 O   0  0  0  0  0  0  0  0  0  0  0  0
   -9.6998    7.9971   -0.1790 C   0  0  0  0  0  0  0  0  0  0  0  0
  -10.5115    7.7738   -0.8778 H   0  0  0  0  0  0  0  0  0  0  0  0
  -10.1377    8.1851    0.8048 H   0  0  0  0  0  0  0  0  0  0  0  0
   -9.2325    8.9315   -0.5137 H   0  0  0  0  0  0  0  0  0  0  0  0
  1  8  1  0  0  0  0
  1  2  1  0  0  0  0
  2  3  1  0  0  0  0
  4  1  2  0  0  0  0
  5  6  2  0  0  0  0
  5  4  1  0  0  0  0
  6  7  1  0  0  0  0
  7 12  1  0  0  0  0
  7  8  2  0  0  0  0
  8 13  1  0  0  0  0
 10  5  1  0  0  0  0
 11  6  1  0  0  0  0
 14 20  1  0  0  0  0
 15 14  1  0  0  0  0
 15 21  1  0  0  0  0
 16 15  2  0  0  0  0
 17 18  2  0  0  0  0
 17 16  1  0  0  0  0
 18 19  1  0  0  0  0
 19 24  1  0  0  0  0
 19 14  2  0  0  0  0
 22 17  1  0  0  0  0
 23 18  1  0  0  0  0
 24 25  2  0  0  0  0
 26  9  1  0  0  0  0
 26 24  1  0  0  0  0
 27 24  2  0  0  0  0
 28 16  1  0  0  0  0
 28 30  1  0  0  0  0
 29 28  1  0  0  0  0
 31 28  1  0  0  0  0
M  RAD  3   2   2   3   3   4   2
M  END
