Coordinates from ORCA-job PhN2+~TsO-_B3LYPG-6-31G_dp-CH-Scan-d09-49-n800
 OpenBabel11261919273D

 31 31  0  0  0  0  0  0  0  0999 V2000
   -2.3894    0.6879    0.1334 C   0  0  0  0  0  0  0  0  0  0  0  0
   -3.6934    0.3179    0.4432 N   0  0  0  0  0  0  0  0  0  0  0  0
   -4.7530    0.0655    0.6844 N   0  0  0  0  0  0  0  0  0  0  0  0
   -2.2013    2.0436   -0.1933 C   0  0  0  0  0  0  0  0  0  0  0  0
   -0.8458    2.3103   -0.4953 C   0  0  0  0  0  0  0  0  0  0  0  0
    0.1528    1.3394   -0.4652 C   0  0  0  0  0  0  0  0  0  0  0  0
   -0.1324    0.0006   -0.1220 C   0  0  0  0  0  0  0  0  0  0  0  0
   -1.4285   -0.3537    0.1875 C   0  0  0  0  0  0  0  0  0  0  0  0
   -3.4428    3.2349   -0.2308 H   0  0  0  0  0  0  0  0  0  0  0  0
   -0.5644    3.3257   -0.7675 H   0  0  0  0  0  0  0  0  0  0  0  0
    1.1773    1.6096   -0.7108 H   0  0  0  0  0  0  0  0  0  0  0  0
    0.6569   -0.7435   -0.1014 H   0  0  0  0  0  0  0  0  0  0  0  0
   -1.7022   -1.3688    0.4591 H   0  0  0  0  0  0  0  0  0  0  0  0
   -7.0347    5.3522    1.1416 C   0  0  0  0  0  0  0  0  0  0  0  0
   -7.9020    6.4407    1.0610 C   0  0  0  0  0  0  0  0  0  0  0  0
   -8.4527    6.8397   -0.1643 C   0  0  0  0  0  0  0  0  0  0  0  0
   -8.1217    6.1099   -1.3164 C   0  0  0  0  0  0  0  0  0  0  0  0
   -7.2582    5.0195   -1.2544 C   0  0  0  0  0  0  0  0  0  0  0  0
   -6.7158    4.6533   -0.0215 C   0  0  0  0  0  0  0  0  0  0  0  0
   -6.6187    5.0332    2.0906 H   0  0  0  0  0  0  0  0  0  0  0  0
   -8.1600    6.9858    1.9651 H   0  0  0  0  0  0  0  0  0  0  0  0
   -8.5517    6.3964   -2.2727 H   0  0  0  0  0  0  0  0  0  0  0  0
   -7.0151    4.4448   -2.1415 H   0  0  0  0  0  0  0  0  0  0  0  0
   -5.6046    3.2604    0.0681 S   0  0  0  0  0  0  0  0  0  0  0  0
   -5.5966    2.7454    1.4484 O   0  0  0  0  0  0  0  0  0  0  0  0
   -4.2243    3.9677   -0.2532 O   0  0  0  0  0  0  0  0  0  0  0  0
   -5.9425    2.3069   -1.0009 O   0  0  0  0  0  0  0  0  0  0  0  0
   -9.3695    8.0364   -0.2499 C   0  0  0  0  0  0  0  0  0  0  0  0
  -10.1919    7.8616   -0.9506 H   0  0  0  0  0  0  0  0  0  0  0  0
   -9.7990    8.2830    0.7246 H   0  0  0  0  0  0  0  0  0  0  0  0
   -8.8270    8.9223   -0.6030 H   0  0  0  0  0  0  0  0  0  0  0  0
  1  8  1  0  0  0  0
  1  2  1  0  0  0  0
  2  3  1  0  0  0  0
  4  1  2  0  0  0  0
  5  6  2  0  0  0  0
  5  4  1  0  0  0  0
  6  7  1  0  0  0  0
  7 12  1  0  0  0  0
  7  8  2  0  0  0  0
  8 13  1  0  0  0  0
 10  5  1  0  0  0  0
 11  6  1  0  0  0  0
 14 20  1  0  0  0  0
 15 14  1  0  0  0  0
 15 21  1  0  0  0  0
 16 15  2  0  0  0  0
 17 18  2  0  0  0  0
 17 16  1  0  0  0  0
 18 19  1  0  0  0  0
 19 24  1  0  0  0  0
 19 14  2  0  0  0  0
 22 17  1  0  0  0  0
 23 18  1  0  0  0  0
 24 25  2  0  0  0  0
 26  9  1  0  0  0  0
 26 24  1  0  0  0  0
 27 24  2  0  0  0  0
 28 16  1  0  0  0  0
 28 30  1  0  0  0  0
 29 28  1  0  0  0  0
 31 28  1  0  0  0  0
M  RAD  3   2   2   3   3   4   2
M  END
