Coordinates from ORCA-job PhN2+~TsO-_B3LYPG-6-31G_dp-CH-Scan-d09-49-n800
 OpenBabel11261919273D

 31 31  0  0  0  0  0  0  0  0999 V2000
   -2.3501    0.6652    0.1338 C   0  0  0  0  0  0  0  0  0  0  0  0
   -3.6607    0.3127    0.4374 N   0  0  0  0  0  0  0  0  0  0  0  0
   -4.7243    0.0717    0.6736 N   0  0  0  0  0  0  0  0  0  0  0  0
   -2.1510    2.0173   -0.2011 C   0  0  0  0  0  0  0  0  0  0  0  0
   -0.7882    2.2642   -0.4960 C   0  0  0  0  0  0  0  0  0  0  0  0
    0.1996    1.2833   -0.4526 C   0  0  0  0  0  0  0  0  0  0  0  0
   -0.1012   -0.0509   -0.1013 C   0  0  0  0  0  0  0  0  0  0  0  0
   -1.4025   -0.3888    0.2025 C   0  0  0  0  0  0  0  0  0  0  0  0
   -3.4755    3.3237   -0.2592 H   0  0  0  0  0  0  0  0  0  0  0  0
   -0.4909    3.2738   -0.7743 H   0  0  0  0  0  0  0  0  0  0  0  0
    1.2287    1.5406   -0.6939 H   0  0  0  0  0  0  0  0  0  0  0  0
    0.6805   -0.8026   -0.0705 H   0  0  0  0  0  0  0  0  0  0  0  0
   -1.6891   -1.3989    0.4799 H   0  0  0  0  0  0  0  0  0  0  0  0
   -7.0466    5.3724    1.1342 C   0  0  0  0  0  0  0  0  0  0  0  0
   -7.9224    6.4545    1.0626 C   0  0  0  0  0  0  0  0  0  0  0  0
   -8.4862    6.8516   -0.1575 C   0  0  0  0  0  0  0  0  0  0  0  0
   -8.1594    6.1266   -1.3138 C   0  0  0  0  0  0  0  0  0  0  0  0
   -7.2876    5.0423   -1.2614 C   0  0  0  0  0  0  0  0  0  0  0  0
   -6.7327    4.6785   -0.0333 C   0  0  0  0  0  0  0  0  0  0  0  0
   -6.6202    5.0551    2.0791 H   0  0  0  0  0  0  0  0  0  0  0  0
   -8.1768    6.9961    1.9698 H   0  0  0  0  0  0  0  0  0  0  0  0
   -8.5991    6.4119   -2.2659 H   0  0  0  0  0  0  0  0  0  0  0  0
   -7.0473    4.4715   -2.1517 H   0  0  0  0  0  0  0  0  0  0  0  0
   -5.6150    3.2914    0.0454 S   0  0  0  0  0  0  0  0  0  0  0  0
   -5.5862    2.7755    1.4230 O   0  0  0  0  0  0  0  0  0  0  0  0
   -4.2392    4.0272   -0.2840 O   0  0  0  0  0  0  0  0  0  0  0  0
   -5.9438    2.3436   -1.0287 O   0  0  0  0  0  0  0  0  0  0  0  0
   -9.4122    8.0416   -0.2331 C   0  0  0  0  0  0  0  0  0  0  0  0
  -10.2364    7.8639   -0.9307 H   0  0  0  0  0  0  0  0  0  0  0  0
   -9.8387    8.2806    0.7446 H   0  0  0  0  0  0  0  0  0  0  0  0
   -8.8776    8.9329   -0.5846 H   0  0  0  0  0  0  0  0  0  0  0  0
  1  8  1  0  0  0  0
  1  2  1  0  0  0  0
  2  3  1  0  0  0  0
  4  1  2  0  0  0  0
  5  6  2  0  0  0  0
  5  4  1  0  0  0  0
  6  7  1  0  0  0  0
  7 12  1  0  0  0  0
  7  8  2  0  0  0  0
  8 13  1  0  0  0  0
 10  5  1  0  0  0  0
 11  6  1  0  0  0  0
 14 20  1  0  0  0  0
 15 14  1  0  0  0  0
 15 21  1  0  0  0  0
 16 15  2  0  0  0  0
 17 18  2  0  0  0  0
 17 16  1  0  0  0  0
 18 19  1  0  0  0  0
 19 24  1  0  0  0  0
 19 14  2  0  0  0  0
 22 17  1  0  0  0  0
 23 18  1  0  0  0  0
 24 25  2  0  0  0  0
 26  9  1  0  0  0  0
 26 24  1  0  0  0  0
 27 24  2  0  0  0  0
 28 16  1  0  0  0  0
 28 30  1  0  0  0  0
 29 28  1  0  0  0  0
 31 28  1  0  0  0  0
M  RAD  3   2   2   3   3   4   2
M  END
