Coordinates from ORCA-job PhN2+~TsO-_B3LYPG-6-31G_dp-CH-Scan-d09-49-n800
 OpenBabel11261919273D

 31 31  0  0  0  0  0  0  0  0999 V2000
   -2.0578    0.5166    0.0897 C   0  0  0  0  0  0  0  0  0  0  0  0
   -3.4319    0.4554    0.3168 N   0  0  0  0  0  0  0  0  0  0  0  0
   -4.5359    0.4502    0.4889 N   0  0  0  0  0  0  0  0  0  0  0  0
   -1.5978    1.7979   -0.2571 C   0  0  0  0  0  0  0  0  0  0  0  0
   -0.1917    1.7538   -0.4728 C   0  0  0  0  0  0  0  0  0  0  0  0
    0.5788    0.6013   -0.3509 C   0  0  0  0  0  0  0  0  0  0  0  0
    0.0028   -0.6412    0.0083 C   0  0  0  0  0  0  0  0  0  0  0  0
   -1.3531   -0.7086    0.2400 C   0  0  0  0  0  0  0  0  0  0  0  0
   -3.3952    4.3352   -0.4845 H   0  0  0  0  0  0  0  0  0  0  0  0
    0.3237    2.6734   -0.7526 H   0  0  0  0  0  0  0  0  0  0  0  0
    1.6513    0.6421   -0.5345 H   0  0  0  0  0  0  0  0  0  0  0  0
    0.6205   -1.5288    0.1001 H   0  0  0  0  0  0  0  0  0  0  0  0
   -1.8499   -1.6339    0.5192 H   0  0  0  0  0  0  0  0  0  0  0  0
   -7.1275    5.6484    1.1054 C   0  0  0  0  0  0  0  0  0  0  0  0
   -8.1725    6.5696    1.0837 C   0  0  0  0  0  0  0  0  0  0  0  0
   -8.8584    6.8606   -0.1041 C   0  0  0  0  0  0  0  0  0  0  0  0
   -8.4792    6.1935   -1.2791 C   0  0  0  0  0  0  0  0  0  0  0  0
   -7.4382    5.2691   -1.2783 C   0  0  0  0  0  0  0  0  0  0  0  0
   -6.7677    5.0109   -0.0817 C   0  0  0  0  0  0  0  0  0  0  0  0
   -6.6043    5.4128    2.0255 H   0  0  0  0  0  0  0  0  0  0  0  0
   -8.4636    7.0673    2.0044 H   0  0  0  0  0  0  0  0  0  0  0  0
   -9.0098    6.3976   -2.2052 H   0  0  0  0  0  0  0  0  0  0  0  0
   -7.1535    4.7429   -2.1827 H   0  0  0  0  0  0  0  0  0  0  0  0
   -5.4372    3.8285   -0.0663 S   0  0  0  0  0  0  0  0  0  0  0  0
   -5.2407    3.3257    1.2944 O   0  0  0  0  0  0  0  0  0  0  0  0
   -4.2206    4.8554   -0.4373 O   0  0  0  0  0  0  0  0  0  0  0  0
   -5.6086    2.8764   -1.1646 O   0  0  0  0  0  0  0  0  0  0  0  0
   -9.9683    7.8833   -0.1258 C   0  0  0  0  0  0  0  0  0  0  0  0
  -10.7658    7.5933   -0.8164 H   0  0  0  0  0  0  0  0  0  0  0  0
  -10.4072    8.0206    0.8660 H   0  0  0  0  0  0  0  0  0  0  0  0
   -9.5927    8.8596   -0.4562 H   0  0  0  0  0  0  0  0  0  0  0  0
  1  8  1  0  0  0  0
  1  2  1  0  0  0  0
  2  3  1  0  0  0  0
  4  1  2  0  0  0  0
  5  6  2  0  0  0  0
  5  4  1  0  0  0  0
  6  7  1  0  0  0  0
  7 12  1  0  0  0  0
  7  8  2  0  0  0  0
  8 13  1  0  0  0  0
  9 26  1  0  0  0  0
 10  5  1  0  0  0  0
 11  6  1  0  0  0  0
 14 20  1  0  0  0  0
 15 14  1  0  0  0  0
 15 21  1  0  0  0  0
 16 15  2  0  0  0  0
 17 18  2  0  0  0  0
 17 16  1  0  0  0  0
 18 19  1  0  0  0  0
 19 24  1  0  0  0  0
 19 14  2  0  0  0  0
 22 17  1  0  0  0  0
 23 18  1  0  0  0  0
 24 25  2  0  0  0  0
 26 24  1  0  0  0  0
 27 24  2  0  0  0  0
 28 16  1  0  0  0  0
 28 30  1  0  0  0  0
 29 28  1  0  0  0  0
 31 28  1  0  0  0  0
M  RAD  3   2   2   3   3   4   2
M  END
