Coordinates from ORCA-job PhN2+~TsO-_B3LYPG-6-31G_dp-CH-Scan-d09-49-n800
 OpenBabel11261919283D

 31 31  0  0  0  0  0  0  0  0999 V2000
   -1.8180    0.4583    0.0131 C   0  0  0  0  0  0  0  0  0  0  0  0
   -3.1742    0.7799    0.1090 N   0  0  0  0  0  0  0  0  0  0  0  0
   -4.2485    1.0842    0.1740 N   0  0  0  0  0  0  0  0  0  0  0  0
   -1.0206    1.5542   -0.3492 C   0  0  0  0  0  0  0  0  0  0  0  0
    0.3400    1.1312   -0.4213 C   0  0  0  0  0  0  0  0  0  0  0  0
    0.7687   -0.1675   -0.1668 C   0  0  0  0  0  0  0  0  0  0  0  0
   -0.1405   -1.1937    0.1924 C   0  0  0  0  0  0  0  0  0  0  0  0
   -1.4809   -0.8951    0.2917 C   0  0  0  0  0  0  0  0  0  0  0  0
   -3.3312    5.5762   -0.9302 H   0  0  0  0  0  0  0  0  0  0  0  0
    1.1016    1.8645   -0.6923 H   0  0  0  0  0  0  0  0  0  0  0  0
    1.8264   -0.4172   -0.2424 H   0  0  0  0  0  0  0  0  0  0  0  0
    0.2151   -2.2003    0.3878 H   0  0  0  0  0  0  0  0  0  0  0  0
   -2.2254   -1.6392    0.5633 H   0  0  0  0  0  0  0  0  0  0  0  0
   -7.1534    5.8735    1.0723 C   0  0  0  0  0  0  0  0  0  0  0  0
   -8.3874    6.5187    1.1390 C   0  0  0  0  0  0  0  0  0  0  0  0
   -9.1638    6.7199   -0.0101 C   0  0  0  0  0  0  0  0  0  0  0  0
   -8.6777    6.2486   -1.2403 C   0  0  0  0  0  0  0  0  0  0  0  0
   -7.4485    5.6027   -1.3288 C   0  0  0  0  0  0  0  0  0  0  0  0
   -6.6951    5.4266   -0.1661 C   0  0  0  0  0  0  0  0  0  0  0  0
   -6.5578    5.7053    1.9627 H   0  0  0  0  0  0  0  0  0  0  0  0
   -8.7548    6.8674    2.0998 H   0  0  0  0  0  0  0  0  0  0  0  0
   -9.2732    6.3857   -2.1389 H   0  0  0  0  0  0  0  0  0  0  0  0
   -7.0796    5.2258   -2.2762 H   0  0  0  0  0  0  0  0  0  0  0  0
   -5.1255    4.5954   -0.2645 S   0  0  0  0  0  0  0  0  0  0  0  0
   -4.7544    4.0927    1.0560 O   0  0  0  0  0  0  0  0  0  0  0  0
   -4.1935    5.9048   -0.6197 O   0  0  0  0  0  0  0  0  0  0  0  0
   -5.0988    3.7009   -1.4222 O   0  0  0  0  0  0  0  0  0  0  0  0
  -10.4904    7.4366    0.0645 C   0  0  0  0  0  0  0  0  0  0  0  0
  -11.2566    6.9173   -0.5196 H   0  0  0  0  0  0  0  0  0  0  0  0
  -10.8445    7.5188    1.0953 H   0  0  0  0  0  0  0  0  0  0  0  0
  -10.4094    8.4525   -0.3400 H   0  0  0  0  0  0  0  0  0  0  0  0
  1  2  1  0  0  0  0
  1  8  2  0  0  0  0
  2  3  1  0  0  0  0
  4  1  1  0  0  0  0
  5  4  2  0  0  0  0
  5  6  1  0  0  0  0
  6  7  2  0  0  0  0
  7  8  1  0  0  0  0
  7 12  1  0  0  0  0
  8 13  1  0  0  0  0
  9 26  1  0  0  0  0
 10  5  1  0  0  0  0
 11  6  1  0  0  0  0
 14 15  1  0  0  0  0
 14 20  1  0  0  0  0
 15 21  1  0  0  0  0
 16 28  1  0  0  0  0
 16 15  2  0  0  0  0
 17 16  1  0  0  0  0
 18 17  2  0  0  0  0
 18 19  1  0  0  0  0
 19 14  2  0  0  0  0
 22 17  1  0  0  0  0
 23 18  1  0  0  0  0
 24 19  1  0  0  0  0
 24 25  2  0  0  0  0
 26 24  1  0  0  0  0
 27 24  2  0  0  0  0
 28 30  1  0  0  0  0
 29 28  1  0  0  0  0
 31 28  1  0  0  0  0
M  RAD  3   2   2   3   3   4   2
M  END
