Coordinates from ORCA-job PhN2+~TsO-_B3LYPG-6-31G_dp-CH-Scan-d09-49-n800
 OpenBabel11261919273D

 31 31  0  0  0  0  0  0  0  0999 V2000
   -1.9513    0.4850    0.0954 C   0  0  0  0  0  0  0  0  0  0  0  0
   -3.3227    0.6110    0.3256 N   0  0  0  0  0  0  0  0  0  0  0  0
   -4.4169    0.7604    0.4997 N   0  0  0  0  0  0  0  0  0  0  0  0
   -1.3379    1.6947   -0.2651 C   0  0  0  0  0  0  0  0  0  0  0  0
    0.0516    1.4642   -0.4841 C   0  0  0  0  0  0  0  0  0  0  0  0
    0.6671    0.2234   -0.3531 C   0  0  0  0  0  0  0  0  0  0  0  0
   -0.0628   -0.9320    0.0207 C   0  0  0  0  0  0  0  0  0  0  0  0
   -1.4146   -0.8215    0.2576 C   0  0  0  0  0  0  0  0  0  0  0  0
   -3.3081    4.9656   -0.6059 H   0  0  0  0  0  0  0  0  0  0  0  0
    0.6822    2.3060   -0.7747 H   0  0  0  0  0  0  0  0  0  0  0  0
    1.7353    0.1223   -0.5407 H   0  0  0  0  0  0  0  0  0  0  0  0
    0.4366   -1.8907    0.1195 H   0  0  0  0  0  0  0  0  0  0  0  0
   -2.0266   -1.6716    0.5477 H   0  0  0  0  0  0  0  0  0  0  0  0
   -7.1616    5.7699    1.1096 C   0  0  0  0  0  0  0  0  0  0  0  0
   -8.3116    6.5571    1.1010 C   0  0  0  0  0  0  0  0  0  0  0  0
   -9.0203    6.7929   -0.0852 C   0  0  0  0  0  0  0  0  0  0  0  0
   -8.5547    6.2081   -1.2733 C   0  0  0  0  0  0  0  0  0  0  0  0
   -7.4086    5.4185   -1.2862 C   0  0  0  0  0  0  0  0  0  0  0  0
   -6.7192    5.2129   -0.0897 C   0  0  0  0  0  0  0  0  0  0  0  0
   -6.6193    5.5763    2.0285 H   0  0  0  0  0  0  0  0  0  0  0  0
   -8.6666    6.9917    2.0310 H   0  0  0  0  0  0  0  0  0  0  0  0
   -9.1005    6.3701   -2.1990 H   0  0  0  0  0  0  0  0  0  0  0  0
   -7.0564    4.9553   -2.2010 H   0  0  0  0  0  0  0  0  0  0  0  0
   -5.2542    4.2033   -0.0926 S   0  0  0  0  0  0  0  0  0  0  0  0
   -4.9915    3.7128    1.2595 O   0  0  0  0  0  0  0  0  0  0  0  0
   -4.1730    5.3860   -0.4519 O   0  0  0  0  0  0  0  0  0  0  0  0
   -5.2988    3.2607   -1.2104 O   0  0  0  0  0  0  0  0  0  0  0  0
  -10.2479    7.6715   -0.0928 C   0  0  0  0  0  0  0  0  0  0  0  0
  -11.0175    7.2770   -0.7633 H   0  0  0  0  0  0  0  0  0  0  0  0
  -10.6801    7.7655    0.9069 H   0  0  0  0  0  0  0  0  0  0  0  0
  -10.0019    8.6821   -0.4414 H   0  0  0  0  0  0  0  0  0  0  0  0
  1  8  1  0  0  0  0
  1  2  1  0  0  0  0
  2  3  1  0  0  0  0
  4  1  2  0  0  0  0
  5  6  2  0  0  0  0
  5  4  1  0  0  0  0
  6  7  1  0  0  0  0
  7 12  1  0  0  0  0
  7  8  2  0  0  0  0
  8 13  1  0  0  0  0
  9 26  1  0  0  0  0
 10  5  1  0  0  0  0
 11  6  1  0  0  0  0
 14 20  1  0  0  0  0
 15 14  1  0  0  0  0
 15 21  1  0  0  0  0
 16 15  2  0  0  0  0
 17 16  1  0  0  0  0
 18 17  2  0  0  0  0
 18 19  1  0  0  0  0
 19 14  2  0  0  0  0
 22 17  1  0  0  0  0
 23 18  1  0  0  0  0
 24 19  1  0  0  0  0
 24 25  2  0  0  0  0
 26 24  1  0  0  0  0
 27 24  2  0  0  0  0
 28 16  1  0  0  0  0
 28 30  1  0  0  0  0
 29 28  1  0  0  0  0
 31 28  1  0  0  0  0
M  RAD  3   2   2   3   3   4   2
M  END
