Coordinates from ORCA-job PhN2+~TsO-_B3LYPG-6-31G_dp-CH-Scan-d09-49-n800
 OpenBabel11261919273D

 31 31  0  0  0  0  0  0  0  0999 V2000
   -2.0803    0.5247    0.0905 C   0  0  0  0  0  0  0  0  0  0  0  0
   -3.4515    0.4311    0.3201 N   0  0  0  0  0  0  0  0  0  0  0  0
   -4.5549    0.3998    0.4932 N   0  0  0  0  0  0  0  0  0  0  0  0
   -1.6489    1.8168   -0.2539 C   0  0  0  0  0  0  0  0  0  0  0  0
   -0.2428    1.8064   -0.4709 C   0  0  0  0  0  0  0  0  0  0  0  0
    0.5540    0.6714   -0.3525 C   0  0  0  0  0  0  0  0  0  0  0  0
    0.0070   -0.5848    0.0037 C   0  0  0  0  0  0  0  0  0  0  0  0
   -1.3468   -0.6840    0.2364 C   0  0  0  0  0  0  0  0  0  0  0  0
   -3.4128    4.2251   -0.4654 H   0  0  0  0  0  0  0  0  0  0  0  0
    0.2506    2.7383   -0.7488 H   0  0  0  0  0  0  0  0  0  0  0  0
    1.6251    0.7375   -0.5369 H   0  0  0  0  0  0  0  0  0  0  0  0
    0.6448   -1.4583    0.0926 H   0  0  0  0  0  0  0  0  0  0  0  0
   -1.8218   -1.6212    0.5136 H   0  0  0  0  0  0  0  0  0  0  0  0
   -7.1197    5.6235    1.1054 C   0  0  0  0  0  0  0  0  0  0  0  0
   -8.1454    6.5661    1.0807 C   0  0  0  0  0  0  0  0  0  0  0  0
   -8.8249    6.8679   -0.1080 C   0  0  0  0  0  0  0  0  0  0  0  0
   -8.4594    6.1895   -1.2810 C   0  0  0  0  0  0  0  0  0  0  0  0
   -7.4378    5.2436   -1.2771 C   0  0  0  0  0  0  0  0  0  0  0  0
   -6.7730    4.9751   -0.0796 C   0  0  0  0  0  0  0  0  0  0  0  0
   -6.6018    5.3797    2.0263 H   0  0  0  0  0  0  0  0  0  0  0  0
   -8.4264    7.0723    2.0000 H   0  0  0  0  0  0  0  0  0  0  0  0
   -8.9855    6.4019   -2.2078 H   0  0  0  0  0  0  0  0  0  0  0  0
   -7.1639    4.7089   -2.1798 H   0  0  0  0  0  0  0  0  0  0  0  0
   -5.4672    3.7652   -0.0603 S   0  0  0  0  0  0  0  0  0  0  0  0
   -5.2834    3.2609    1.3021 O   0  0  0  0  0  0  0  0  0  0  0  0
   -4.2292    4.7627   -0.4326 O   0  0  0  0  0  0  0  0  0  0  0  0
   -5.6600    2.8129   -1.1553 O   0  0  0  0  0  0  0  0  0  0  0  0
   -9.9131    7.9134   -0.1328 C   0  0  0  0  0  0  0  0  0  0  0  0
  -10.7135    7.6416   -0.8273 H   0  0  0  0  0  0  0  0  0  0  0  0
  -10.3534    8.0582    0.8573 H   0  0  0  0  0  0  0  0  0  0  0  0
   -9.5157    8.8823   -0.4596 H   0  0  0  0  0  0  0  0  0  0  0  0
  1  8  1  0  0  0  0
  1  2  1  0  0  0  0
  2  3  1  0  0  0  0
  4  1  2  0  0  0  0
  5  6  2  0  0  0  0
  5  4  1  0  0  0  0
  6  7  1  0  0  0  0
  7 12  1  0  0  0  0
  7  8  2  0  0  0  0
  8 13  1  0  0  0  0
  9 26  1  0  0  0  0
 10  5  1  0  0  0  0
 11  6  1  0  0  0  0
 14 20  1  0  0  0  0
 15 14  1  0  0  0  0
 15 21  1  0  0  0  0
 16 15  2  0  0  0  0
 17 18  2  0  0  0  0
 17 16  1  0  0  0  0
 18 19  1  0  0  0  0
 19 24  1  0  0  0  0
 19 14  2  0  0  0  0
 22 17  1  0  0  0  0
 23 18  1  0  0  0  0
 24 25  2  0  0  0  0
 26 24  1  0  0  0  0
 27 24  2  0  0  0  0
 28 16  1  0  0  0  0
 28 30  1  0  0  0  0
 29 28  1  0  0  0  0
 31 28  1  0  0  0  0
M  RAD  3   2   2   3   3   4   2
M  END
