Coordinates from ORCA-job PhN2+~TsO-_B3LYPG-6-31G_dp-CH-Scan-d09-49-n800
 OpenBabel11261919283D

 31 31  0  0  0  0  0  0  0  0999 V2000
   -1.8249    0.4612    0.0178 C   0  0  0  0  0  0  0  0  0  0  0  0
   -3.1822    0.7765    0.1198 N   0  0  0  0  0  0  0  0  0  0  0  0
   -4.2576    1.0756    0.1906 N   0  0  0  0  0  0  0  0  0  0  0  0
   -1.0329    1.5617   -0.3421 C   0  0  0  0  0  0  0  0  0  0  0  0
    0.3290    1.1444   -0.4209 C   0  0  0  0  0  0  0  0  0  0  0  0
    0.7636   -0.1538   -0.1739 C   0  0  0  0  0  0  0  0  0  0  0  0
   -0.1403   -1.1852    0.1837 C   0  0  0  0  0  0  0  0  0  0  0  0
   -1.4815   -0.8921    0.2891 C   0  0  0  0  0  0  0  0  0  0  0  0
   -3.3282    5.5576   -0.9234 H   0  0  0  0  0  0  0  0  0  0  0  0
    1.0868    1.8819   -0.6911 H   0  0  0  0  0  0  0  0  0  0  0  0
    1.8220   -0.3990   -0.2545 H   0  0  0  0  0  0  0  0  0  0  0  0
    0.2198   -2.1913    0.3731 H   0  0  0  0  0  0  0  0  0  0  0  0
   -2.2221   -1.6404    0.5597 H   0  0  0  0  0  0  0  0  0  0  0  0
   -7.1517    5.8704    1.0734 C   0  0  0  0  0  0  0  0  0  0  0  0
   -8.3837    6.5196    1.1375 C   0  0  0  0  0  0  0  0  0  0  0  0
   -9.1584    6.7207   -0.0128 C   0  0  0  0  0  0  0  0  0  0  0  0
   -8.6726    6.2452   -1.2415 C   0  0  0  0  0  0  0  0  0  0  0  0
   -7.4454    5.5952   -1.3274 C   0  0  0  0  0  0  0  0  0  0  0  0
   -6.6937    5.4193   -0.1636 C   0  0  0  0  0  0  0  0  0  0  0  0
   -6.5575    5.7022    1.9647 H   0  0  0  0  0  0  0  0  0  0  0  0
   -8.7510    6.8715    2.0972 H   0  0  0  0  0  0  0  0  0  0  0  0
   -9.2670    6.3822   -2.1409 H   0  0  0  0  0  0  0  0  0  0  0  0
   -7.0769    5.2149   -2.2735 H   0  0  0  0  0  0  0  0  0  0  0  0
   -5.1267    4.5828   -0.2586 S   0  0  0  0  0  0  0  0  0  0  0  0
   -4.7584    4.0819    1.0633 O   0  0  0  0  0  0  0  0  0  0  0  0
   -4.1907    5.8887   -0.6161 O   0  0  0  0  0  0  0  0  0  0  0  0
   -5.1020    3.6853   -1.4140 O   0  0  0  0  0  0  0  0  0  0  0  0
  -10.4826    7.4422    0.0591 C   0  0  0  0  0  0  0  0  0  0  0  0
  -11.2484    6.9280   -0.5301 H   0  0  0  0  0  0  0  0  0  0  0  0
  -10.8405    7.5220    1.0887 H   0  0  0  0  0  0  0  0  0  0  0  0
  -10.3960    8.4593   -0.3413 H   0  0  0  0  0  0  0  0  0  0  0  0
  1  2  1  0  0  0  0
  1  8  2  0  0  0  0
  2  3  1  0  0  0  0
  4  1  1  0  0  0  0
  5  4  2  0  0  0  0
  5  6  1  0  0  0  0
  6  7  2  0  0  0  0
  7  8  1  0  0  0  0
  7 12  1  0  0  0  0
  8 13  1  0  0  0  0
  9 26  1  0  0  0  0
 10  5  1  0  0  0  0
 11  6  1  0  0  0  0
 14 15  1  0  0  0  0
 14 20  1  0  0  0  0
 15 21  1  0  0  0  0
 16 28  1  0  0  0  0
 16 15  2  0  0  0  0
 17 16  1  0  0  0  0
 18 17  2  0  0  0  0
 18 19  1  0  0  0  0
 19 14  2  0  0  0  0
 22 17  1  0  0  0  0
 23 18  1  0  0  0  0
 24 19  1  0  0  0  0
 24 25  2  0  0  0  0
 26 24  1  0  0  0  0
 27 24  2  0  0  0  0
 28 30  1  0  0  0  0
 29 28  1  0  0  0  0
 31 28  1  0  0  0  0
M  RAD  3   2   2   3   3   4   2
M  END
