Coordinates from ORCA-job PhN2+~TsO-_B3LYPG-6-31G_dp-CH-Scan-d09-49-n800
 OpenBabel11261919283D

 31 31  0  0  0  0  0  0  0  0999 V2000
   -1.9077    0.4780    0.0822 C   0  0  0  0  0  0  0  0  0  0  0  0
   -3.2753    0.6784    0.2838 N   0  0  0  0  0  0  0  0  0  0  0  0
   -4.3631    0.8880    0.4356 N   0  0  0  0  0  0  0  0  0  0  0  0
   -1.2266    1.6518   -0.2740 C   0  0  0  0  0  0  0  0  0  0  0  0
    0.1540    1.3475   -0.4607 C   0  0  0  0  0  0  0  0  0  0  0  0
    0.7016    0.0778   -0.3073 C   0  0  0  0  0  0  0  0  0  0  0  0
   -0.0950   -1.0356    0.0585 C   0  0  0  0  0  0  0  0  0  0  0  0
   -1.4440   -0.8537    0.2652 C   0  0  0  0  0  0  0  0  0  0  0  0
   -3.3031    5.1980   -0.7240 H   0  0  0  0  0  0  0  0  0  0  0  0
    0.8337    2.1533   -0.7432 H   0  0  0  0  0  0  0  0  0  0  0  0
    1.7670   -0.0799   -0.4704 H   0  0  0  0  0  0  0  0  0  0  0  0
    0.3519   -2.0179    0.1746 H   0  0  0  0  0  0  0  0  0  0  0  0
   -2.1054   -1.6687    0.5478 H   0  0  0  0  0  0  0  0  0  0  0  0
   -7.1596    5.8124    1.0995 C   0  0  0  0  0  0  0  0  0  0  0  0
   -8.3452    6.5450    1.1122 C   0  0  0  0  0  0  0  0  0  0  0  0
   -9.0758    6.7629   -0.0640 C   0  0  0  0  0  0  0  0  0  0  0  0
   -8.5949    6.2164   -1.2644 C   0  0  0  0  0  0  0  0  0  0  0  0
   -7.4135    5.4817   -1.2986 C   0  0  0  0  0  0  0  0  0  0  0  0
   -6.7037    5.2925   -0.1112 C   0  0  0  0  0  0  0  0  0  0  0  0
   -6.5999    5.6322    2.0106 H   0  0  0  0  0  0  0  0  0  0  0  0
   -8.7108    6.9505    2.0512 H   0  0  0  0  0  0  0  0  0  0  0  0
   -9.1567    6.3649   -2.1827 H   0  0  0  0  0  0  0  0  0  0  0  0
   -7.0494    5.0475   -2.2229 H   0  0  0  0  0  0  0  0  0  0  0  0
   -5.1942    4.3514   -0.1407 S   0  0  0  0  0  0  0  0  0  0  0  0
   -4.8907    3.8674    1.2045 O   0  0  0  0  0  0  0  0  0  0  0  0
   -4.1711    5.5840   -0.5103 O   0  0  0  0  0  0  0  0  0  0  0  0
   -5.2072    3.4157   -1.2654 O   0  0  0  0  0  0  0  0  0  0  0  0
  -10.3444    7.5812   -0.0481 C   0  0  0  0  0  0  0  0  0  0  0  0
  -11.1057    7.1503   -0.7055 H   0  0  0  0  0  0  0  0  0  0  0  0
  -10.7627    7.6528    0.9593 H   0  0  0  0  0  0  0  0  0  0  0  0
  -10.1540    8.6029   -0.3993 H   0  0  0  0  0  0  0  0  0  0  0  0
  1  8  1  0  0  0  0
  1  2  1  0  0  0  0
  2  3  1  0  0  0  0
  4  1  2  0  0  0  0
  5  6  2  0  0  0  0
  5  4  1  0  0  0  0
  6  7  1  0  0  0  0
  7 12  1  0  0  0  0
  7  8  2  0  0  0  0
  8 13  1  0  0  0  0
  9 26  1  0  0  0  0
 10  5  1  0  0  0  0
 11  6  1  0  0  0  0
 14 15  1  0  0  0  0
 14 20  1  0  0  0  0
 15 21  1  0  0  0  0
 16 28  1  0  0  0  0
 16 15  2  0  0  0  0
 17 16  1  0  0  0  0
 18 17  2  0  0  0  0
 18 19  1  0  0  0  0
 19 14  2  0  0  0  0
 22 17  1  0  0  0  0
 23 18  1  0  0  0  0
 24 19  1  0  0  0  0
 24 25  2  0  0  0  0
 26 24  1  0  0  0  0
 27 24  2  0  0  0  0
 28 30  1  0  0  0  0
 29 28  1  0  0  0  0
 31 28  1  0  0  0  0
M  RAD  3   2   2   3   3   4   2
M  END
