Coordinates from ORCA-job PhN2+~TsO-_B3LYPG-6-31G_dp-CH-Scan-d09-49-n800
 OpenBabel11261919273D

 31 31  0  0  0  0  0  0  0  0999 V2000
   -2.0670    0.5221    0.0892 C   0  0  0  0  0  0  0  0  0  0  0  0
   -3.4401    0.4447    0.3166 N   0  0  0  0  0  0  0  0  0  0  0  0
   -4.5438    0.4246    0.4893 N   0  0  0  0  0  0  0  0  0  0  0  0
   -1.6192    1.8079   -0.2562 C   0  0  0  0  0  0  0  0  0  0  0  0
   -0.2129    1.7791   -0.4714 C   0  0  0  0  0  0  0  0  0  0  0  0
    0.5693    0.6344   -0.3504 C   0  0  0  0  0  0  0  0  0  0  0  0
    0.0060   -0.6143    0.0071 C   0  0  0  0  0  0  0  0  0  0  0  0
   -1.3492   -0.6959    0.2381 C   0  0  0  0  0  0  0  0  0  0  0  0
   -3.4060    4.2795   -0.4762 H   0  0  0  0  0  0  0  0  0  0  0  0
    0.2927    2.7043   -0.7500 H   0  0  0  0  0  0  0  0  0  0  0  0
    1.6414    0.6865   -0.5335 H   0  0  0  0  0  0  0  0  0  0  0  0
    0.6326   -1.4957    0.0981 H   0  0  0  0  0  0  0  0  0  0  0  0
   -1.8365   -1.6266    0.5160 H   0  0  0  0  0  0  0  0  0  0  0  0
   -7.1244    5.6363    1.1051 C   0  0  0  0  0  0  0  0  0  0  0  0
   -8.1595    6.5687    1.0823 C   0  0  0  0  0  0  0  0  0  0  0  0
   -8.8427    6.8651   -0.1057 C   0  0  0  0  0  0  0  0  0  0  0  0
   -8.4712    6.1919   -1.2797 C   0  0  0  0  0  0  0  0  0  0  0  0
   -7.4403    5.2563   -1.2778 C   0  0  0  0  0  0  0  0  0  0  0  0
   -6.7720    4.9929   -0.0810 C   0  0  0  0  0  0  0  0  0  0  0  0
   -6.6035    5.3966    2.0253 H   0  0  0  0  0  0  0  0  0  0  0  0
   -8.4448    7.0709    2.0023 H   0  0  0  0  0  0  0  0  0  0  0  0
   -9.0001    6.4002   -2.2060 H   0  0  0  0  0  0  0  0  0  0  0  0
   -7.1617    4.7255   -2.1814 H   0  0  0  0  0  0  0  0  0  0  0  0
   -5.4542    3.7962   -0.0642 S   0  0  0  0  0  0  0  0  0  0  0  0
   -5.2634    3.2929    1.2973 O   0  0  0  0  0  0  0  0  0  0  0  0
   -4.2270    4.8082   -0.4368 O   0  0  0  0  0  0  0  0  0  0  0  0
   -5.6372    2.8438   -1.1604 O   0  0  0  0  0  0  0  0  0  0  0  0
   -9.9414    7.8998   -0.1285 C   0  0  0  0  0  0  0  0  0  0  0  0
  -10.7404    7.6196   -0.8213 H   0  0  0  0  0  0  0  0  0  0  0  0
  -10.3810    8.0405    0.8625 H   0  0  0  0  0  0  0  0  0  0  0  0
   -9.5544    8.8724   -0.4566 H   0  0  0  0  0  0  0  0  0  0  0  0
  1  8  1  0  0  0  0
  1  2  1  0  0  0  0
  2  3  1  0  0  0  0
  4  1  2  0  0  0  0
  5  6  2  0  0  0  0
  5  4  1  0  0  0  0
  6  7  1  0  0  0  0
  7 12  1  0  0  0  0
  7  8  2  0  0  0  0
  8 13  1  0  0  0  0
  9 26  1  0  0  0  0
 10  5  1  0  0  0  0
 11  6  1  0  0  0  0
 14 20  1  0  0  0  0
 15 14  1  0  0  0  0
 15 21  1  0  0  0  0
 16 15  2  0  0  0  0
 17 18  2  0  0  0  0
 17 16  1  0  0  0  0
 18 19  1  0  0  0  0
 19 24  1  0  0  0  0
 19 14  2  0  0  0  0
 22 17  1  0  0  0  0
 23 18  1  0  0  0  0
 24 25  2  0  0  0  0
 26 24  1  0  0  0  0
 27 24  2  0  0  0  0
 28 16  1  0  0  0  0
 28 30  1  0  0  0  0
 29 28  1  0  0  0  0
 31 28  1  0  0  0  0
M  RAD  3   2   2   3   3   4   2
M  END
