Coordinates from ORCA-job PhN2+~TsO-_B3LYPG-6-31G_dp-CH-Scan-d09-49-n800
 OpenBabel11261919273D

 31 31  0  0  0  0  0  0  0  0999 V2000
   -2.1049    0.5387    0.0930 C   0  0  0  0  0  0  0  0  0  0  0  0
   -3.4720    0.4106    0.3289 N   0  0  0  0  0  0  0  0  0  0  0  0
   -4.5728    0.3484    0.5087 N   0  0  0  0  0  0  0  0  0  0  0  0
   -1.7015    1.8408   -0.2479 C   0  0  0  0  0  0  0  0  0  0  0  0
   -0.2971    1.8634   -0.4706 C   0  0  0  0  0  0  0  0  0  0  0  0
    0.5251    0.7458   -0.3601 C   0  0  0  0  0  0  0  0  0  0  0  0
    0.0073   -0.5233   -0.0073 C   0  0  0  0  0  0  0  0  0  0  0  0
   -1.3430   -0.6533    0.2303 C   0  0  0  0  0  0  0  0  0  0  0  0
   -3.4330    4.1057   -0.4404 H   0  0  0  0  0  0  0  0  0  0  0  0
    0.1736    2.8073   -0.7466 H   0  0  0  0  0  0  0  0  0  0  0  0
    1.5937    0.8366   -0.5483 H   0  0  0  0  0  0  0  0  0  0  0  0
    0.6643   -1.3831    0.0754 H   0  0  0  0  0  0  0  0  0  0  0  0
   -1.7959   -1.6020    0.5053 H   0  0  0  0  0  0  0  0  0  0  0  0
   -7.1143    5.5948    1.1079 C   0  0  0  0  0  0  0  0  0  0  0  0
   -8.1189    6.5597    1.0778 C   0  0  0  0  0  0  0  0  0  0  0  0
   -8.7874    6.8739   -0.1140 C   0  0  0  0  0  0  0  0  0  0  0  0
   -8.4329    6.1852   -1.2842 C   0  0  0  0  0  0  0  0  0  0  0  0
   -7.4324    5.2170   -1.2747 C   0  0  0  0  0  0  0  0  0  0  0  0
   -6.7777    4.9364   -0.0745 C   0  0  0  0  0  0  0  0  0  0  0  0
   -6.6051    5.3415    2.0311 H   0  0  0  0  0  0  0  0  0  0  0  0
   -8.3919    7.0739    1.9951 H   0  0  0  0  0  0  0  0  0  0  0  0
   -8.9510    6.4072   -2.2133 H   0  0  0  0  0  0  0  0  0  0  0  0
   -7.1674    4.6743   -2.1753 H   0  0  0  0  0  0  0  0  0  0  0  0
   -5.4991    3.6974   -0.0480 S   0  0  0  0  0  0  0  0  0  0  0  0
   -5.3317    3.1925    1.3167 O   0  0  0  0  0  0  0  0  0  0  0  0
   -4.2390    4.6623   -0.4203 O   0  0  0  0  0  0  0  0  0  0  0  0
   -5.7132    2.7443   -1.1387 O   0  0  0  0  0  0  0  0  0  0  0  0
   -9.8523    7.9431   -0.1445 C   0  0  0  0  0  0  0  0  0  0  0  0
  -10.6561    7.6878   -0.8414 H   0  0  0  0  0  0  0  0  0  0  0  0
  -10.2928    8.0993    0.8438 H   0  0  0  0  0  0  0  0  0  0  0  0
   -9.4327    8.9025   -0.4715 H   0  0  0  0  0  0  0  0  0  0  0  0
  1  8  1  0  0  0  0
  1  2  1  0  0  0  0
  2  3  1  0  0  0  0
  4  1  2  0  0  0  0
  5  6  2  0  0  0  0
  5  4  1  0  0  0  0
  6  7  1  0  0  0  0
  7 12  1  0  0  0  0
  7  8  2  0  0  0  0
  8 13  1  0  0  0  0
  9 26  1  0  0  0  0
 10  5  1  0  0  0  0
 11  6  1  0  0  0  0
 14 20  1  0  0  0  0
 15 14  1  0  0  0  0
 15 21  1  0  0  0  0
 16 15  2  0  0  0  0
 17 18  2  0  0  0  0
 17 16  1  0  0  0  0
 18 19  1  0  0  0  0
 19 24  1  0  0  0  0
 19 14  2  0  0  0  0
 22 17  1  0  0  0  0
 23 18  1  0  0  0  0
 24 25  2  0  0  0  0
 26 24  1  0  0  0  0
 27 24  2  0  0  0  0
 28 16  1  0  0  0  0
 28 30  1  0  0  0  0
 29 28  1  0  0  0  0
 31 28  1  0  0  0  0
M  RAD  3   2   2   3   3   4   2
M  END
