Coordinates from ORCA-job PhN2+~TsO-_B3LYPG-6-31G_dp-CH-Scan-d09-49-n800
 OpenBabel11261919273D

 31 31  0  0  0  0  0  0  0  0999 V2000
   -2.4485    0.7422    0.1286 C   0  0  0  0  0  0  0  0  0  0  0  0
   -3.7593    0.4019    0.4402 N   0  0  0  0  0  0  0  0  0  0  0  0
   -4.8291    0.1985    0.6794 N   0  0  0  0  0  0  0  0  0  0  0  0
   -2.2057    2.0897   -0.1906 C   0  0  0  0  0  0  0  0  0  0  0  0
   -0.8577    2.3450   -0.4964 C   0  0  0  0  0  0  0  0  0  0  0  0
    0.1181    1.3491   -0.4773 C   0  0  0  0  0  0  0  0  0  0  0  0
   -0.2003    0.0181   -0.1451 C   0  0  0  0  0  0  0  0  0  0  0  0
   -1.5052   -0.3108    0.1666 C   0  0  0  0  0  0  0  0  0  0  0  0
   -3.2572    3.0964   -0.2040 H   0  0  0  0  0  0  0  0  0  0  0  0
   -0.5675    3.3590   -0.7594 H   0  0  0  0  0  0  0  0  0  0  0  0
    1.1472    1.5977   -0.7238 H   0  0  0  0  0  0  0  0  0  0  0  0
    0.5697   -0.7458   -0.1334 H   0  0  0  0  0  0  0  0  0  0  0  0
   -1.7985   -1.3221    0.4292 H   0  0  0  0  0  0  0  0  0  0  0  0
   -7.0190    5.3418    1.1504 C   0  0  0  0  0  0  0  0  0  0  0  0
   -7.9014    6.4180    1.0619 C   0  0  0  0  0  0  0  0  0  0  0  0
   -8.4446    6.8108   -0.1683 C   0  0  0  0  0  0  0  0  0  0  0  0
   -8.0898    6.0867   -1.3168 C   0  0  0  0  0  0  0  0  0  0  0  0
   -7.2107    5.0091   -1.2454 C   0  0  0  0  0  0  0  0  0  0  0  0
   -6.6755    4.6469   -0.0080 C   0  0  0  0  0  0  0  0  0  0  0  0
   -6.6097    5.0266    2.1036 H   0  0  0  0  0  0  0  0  0  0  0  0
   -8.1775    6.9580    1.9640 H   0  0  0  0  0  0  0  0  0  0  0  0
   -8.5136    6.3674   -2.2778 H   0  0  0  0  0  0  0  0  0  0  0  0
   -6.9504    4.4382   -2.1301 H   0  0  0  0  0  0  0  0  0  0  0  0
   -5.5288    3.2788    0.0895 S   0  0  0  0  0  0  0  0  0  0  0  0
   -5.5559    2.7542    1.4743 O   0  0  0  0  0  0  0  0  0  0  0  0
   -4.1652    3.9473   -0.2155 O   0  0  0  0  0  0  0  0  0  0  0  0
   -5.8780    2.3023   -0.9653 O   0  0  0  0  0  0  0  0  0  0  0  0
   -9.3782    7.9940   -0.2629 C   0  0  0  0  0  0  0  0  0  0  0  0
  -10.1998    7.8017   -0.9602 H   0  0  0  0  0  0  0  0  0  0  0  0
   -9.8097    8.2429    0.7103 H   0  0  0  0  0  0  0  0  0  0  0  0
   -8.8503    8.8852   -0.6250 H   0  0  0  0  0  0  0  0  0  0  0  0
  1  8  1  0  0  0  0
  1  2  1  0  0  0  0
  2  3  1  0  0  0  0
  4  1  2  0  0  0  0
  5  6  2  0  0  0  0
  5  4  1  0  0  0  0
  6  7  1  0  0  0  0
  7 12  1  0  0  0  0
  7  8  2  0  0  0  0
  8 13  1  0  0  0  0
 10  5  1  0  0  0  0
 11  6  1  0  0  0  0
 14 20  1  0  0  0  0
 15 14  1  0  0  0  0
 15 21  1  0  0  0  0
 16 15  2  0  0  0  0
 17 18  2  0  0  0  0
 17 16  1  0  0  0  0
 18 19  1  0  0  0  0
 19 24  1  0  0  0  0
 19 14  2  0  0  0  0
 22 17  1  0  0  0  0
 23 18  1  0  0  0  0
 24 25  2  0  0  0  0
 26  9  1  0  0  0  0
 26 24  1  0  0  0  0
 27 24  2  0  0  0  0
 28 16  1  0  0  0  0
 28 30  1  0  0  0  0
 29 28  1  0  0  0  0
 31 28  1  0  0  0  0
M  RAD  3   2   2   3   3   4   2
M  END
