Coordinates from ORCA-job PhN2+~TsO-_B3LYPG-6-31G_dp-CH-Scan-d09-49-n800
 OpenBabel11261919273D

 31 31  0  0  0  0  0  0  0  0999 V2000
   -2.7092    0.8111    0.0198 C   0  0  0  0  0  0  0  0  0  0  0  0
   -4.0705    0.8442    0.3546 N   0  0  0  0  0  0  0  0  0  0  0  0
   -5.0760    1.3948    0.3248 N   0  0  0  0  0  0  0  0  0  0  0  0
   -2.1211    1.8653   -0.6995 C   0  0  0  0  0  0  0  0  0  0  0  0
   -0.7623    1.7603   -0.9848 C   0  0  0  0  0  0  0  0  0  0  0  0
   -0.0251    0.6466   -0.5708 C   0  0  0  0  0  0  0  0  0  0  0  0
   -0.6356   -0.3894    0.1440 C   0  0  0  0  0  0  0  0  0  0  0  0
   -1.9900   -0.3129    0.4470 C   0  0  0  0  0  0  0  0  0  0  0  0
   -2.6695    2.6575   -0.9860 H   0  0  0  0  0  0  0  0  0  0  0  0
   -0.2788    2.5622   -1.5334 H   0  0  0  0  0  0  0  0  0  0  0  0
    1.0332    0.5854   -0.8057 H   0  0  0  0  0  0  0  0  0  0  0  0
   -0.0581   -1.2499    0.4647 H   0  0  0  0  0  0  0  0  0  0  0  0
   -2.4952   -1.0955    1.0023 H   0  0  0  0  0  0  0  0  0  0  0  0
   -7.2288    4.9364    1.0185 C   0  0  0  0  0  0  0  0  0  0  0  0
   -8.4326    5.6317    0.9235 C   0  0  0  0  0  0  0  0  0  0  0  0
   -8.6409    6.5871   -0.0821 C   0  0  0  0  0  0  0  0  0  0  0  0
   -7.6003    6.8385   -0.9869 C   0  0  0  0  0  0  0  0  0  0  0  0
   -6.3898    6.1518   -0.9041 C   0  0  0  0  0  0  0  0  0  0  0  0
   -6.2130    5.1976    0.0979 C   0  0  0  0  0  0  0  0  0  0  0  0
   -7.0614    4.2119    1.8082 H   0  0  0  0  0  0  0  0  0  0  0  0
   -9.2213    5.4345    1.6460 H   0  0  0  0  0  0  0  0  0  0  0  0
   -7.7372    7.5873   -1.7633 H   0  0  0  0  0  0  0  0  0  0  0  0
   -5.5785    6.3621   -1.5928 H   0  0  0  0  0  0  0  0  0  0  0  0
   -4.6737    4.2825    0.1890 S   0  0  0  0  0  0  0  0  0  0  0  0
   -4.5060    3.8238    1.5821 O   0  0  0  0  0  0  0  0  0  0  0  0
   -3.6214    5.1324   -0.3955 O   0  0  0  0  0  0  0  0  0  0  0  0
   -4.8952    3.0557   -0.7477 O   0  0  0  0  0  0  0  0  0  0  0  0
   -9.9603    7.3141   -0.1951 C   0  0  0  0  0  0  0  0  0  0  0  0
  -10.6952    6.7142   -0.7469 H   0  0  0  0  0  0  0  0  0  0  0  0
  -10.3876    7.5233    0.7902 H   0  0  0  0  0  0  0  0  0  0  0  0
   -9.8503    8.2641   -0.7258 H   0  0  0  0  0  0  0  0  0  0  0  0
  1  2  1  0  0  0  0
  1  8  2  0  0  0  0
  3  2  2  0  0  0  0
  4  1  1  0  0  0  0
  5  4  2  0  0  0  0
  5  6  1  0  0  0  0
  6  7  2  0  0  0  0
  7  8  1  0  0  0  0
  7 12  1  0  0  0  0
  8 13  1  0  0  0  0
  9  4  1  0  0  0  0
 10  5  1  0  0  0  0
 11  6  1  0  0  0  0
 14 20  1  0  0  0  0
 15 14  1  0  0  0  0
 15 21  1  0  0  0  0
 16 15  2  0  0  0  0
 17 18  2  0  0  0  0
 17 16  1  0  0  0  0
 18 19  1  0  0  0  0
 19 24  1  0  0  0  0
 19 14  2  0  0  0  0
 22 17  1  0  0  0  0
 23 18  1  0  0  0  0
 24 25  1  0  0  0  0
 26 24  2  0  0  0  0
 27 24  2  0  0  0  0
 28 16  1  0  0  0  0
 28 30  1  0  0  0  0
 29 28  1  0  0  0  0
 31 28  1  0  0  0  0
M  RAD  2   3   2  25   2
M  END
