Coordinates from ORCA-job PhN2+~TsO-_B3LYPG-6-31G_dp-CH-Scan-d09-49-n800
 OpenBabel11261919283D

 31 31  0  0  0  0  0  0  0  0999 V2000
   -1.8471    0.4667    0.0340 C   0  0  0  0  0  0  0  0  0  0  0  0
   -3.2070    0.7605    0.1595 N   0  0  0  0  0  0  0  0  0  0  0  0
   -4.2855    1.0429    0.2470 N   0  0  0  0  0  0  0  0  0  0  0  0
   -1.0770    1.5835   -0.3236 C   0  0  0  0  0  0  0  0  0  0  0  0
    0.2898    1.1880   -0.4264 C   0  0  0  0  0  0  0  0  0  0  0  0
    0.7474   -0.1066   -0.2023 C   0  0  0  0  0  0  0  0  0  0  0  0
   -0.1358   -1.1558    0.1552 C   0  0  0  0  0  0  0  0  0  0  0  0
   -1.4795   -0.8845    0.2835 C   0  0  0  0  0  0  0  0  0  0  0  0
   -3.3184    5.4900   -0.8916 H   0  0  0  0  0  0  0  0  0  0  0  0
    1.0326    1.9401   -0.6979 H   0  0  0  0  0  0  0  0  0  0  0  0
    1.8080   -0.3348   -0.3016 H   0  0  0  0  0  0  0  0  0  0  0  0
    0.2420   -2.1587    0.3268 H   0  0  0  0  0  0  0  0  0  0  0  0
   -2.2048   -1.6470    0.5557 H   0  0  0  0  0  0  0  0  0  0  0  0
   -7.1494    5.8595    1.0784 C   0  0  0  0  0  0  0  0  0  0  0  0
   -8.3741    6.5232    1.1323 C   0  0  0  0  0  0  0  0  0  0  0  0
   -9.1409    6.7256   -0.0232 C   0  0  0  0  0  0  0  0  0  0  0  0
   -8.6549    6.2362   -1.2462 C   0  0  0  0  0  0  0  0  0  0  0  0
   -7.4348    5.5715   -1.3218 C   0  0  0  0  0  0  0  0  0  0  0  0
   -6.6907    5.3949   -0.1533 C   0  0  0  0  0  0  0  0  0  0  0  0
   -6.5615    5.6904    1.9737 H   0  0  0  0  0  0  0  0  0  0  0  0
   -8.7420    6.8855    2.0878 H   0  0  0  0  0  0  0  0  0  0  0  0
   -9.2433    6.3738   -2.1494 H   0  0  0  0  0  0  0  0  0  0  0  0
   -7.0662    5.1806   -2.2636 H   0  0  0  0  0  0  0  0  0  0  0  0
   -5.1329    4.5398   -0.2351 S   0  0  0  0  0  0  0  0  0  0  0  0
   -4.7764    4.0443    1.0923 O   0  0  0  0  0  0  0  0  0  0  0  0
   -4.1812    5.8323   -0.5974 O   0  0  0  0  0  0  0  0  0  0  0  0
   -5.1140    3.6332   -1.3834 O   0  0  0  0  0  0  0  0  0  0  0  0
  -10.4563    7.4641    0.0376 C   0  0  0  0  0  0  0  0  0  0  0  0
  -11.2198    6.9681   -0.5696 H   0  0  0  0  0  0  0  0  0  0  0  0
  -10.8287    7.5361    1.0627 H   0  0  0  0  0  0  0  0  0  0  0  0
  -10.3495    8.4852   -0.3480 H   0  0  0  0  0  0  0  0  0  0  0  0
  1  2  1  0  0  0  0
  1  8  2  0  0  0  0
  2  3  1  0  0  0  0
  4  1  1  0  0  0  0
  5  4  2  0  0  0  0
  5  6  1  0  0  0  0
  6  7  2  0  0  0  0
  7  8  1  0  0  0  0
  7 12  1  0  0  0  0
  8 13  1  0  0  0  0
  9 26  1  0  0  0  0
 10  5  1  0  0  0  0
 11  6  1  0  0  0  0
 14 15  1  0  0  0  0
 14 20  1  0  0  0  0
 15 21  1  0  0  0  0
 16 28  1  0  0  0  0
 16 15  2  0  0  0  0
 17 16  1  0  0  0  0
 18 17  2  0  0  0  0
 18 19  1  0  0  0  0
 19 14  2  0  0  0  0
 22 17  1  0  0  0  0
 23 18  1  0  0  0  0
 24 19  1  0  0  0  0
 24 25  2  0  0  0  0
 26 24  1  0  0  0  0
 27 24  2  0  0  0  0
 28 30  1  0  0  0  0
 29 28  1  0  0  0  0
 31 28  1  0  0  0  0
M  RAD  3   2   2   3   3   4   2
M  END
