Coordinates from ORCA-job PhN2+~TsO-_B3LYPG-6-31G_dp-CH-Scan-d09-49-n800
 OpenBabel11261919273D

 31 31  0  0  0  0  0  0  0  0999 V2000
   -1.9944    0.4963    0.0962 C   0  0  0  0  0  0  0  0  0  0  0  0
   -3.3688    0.5445    0.3332 N   0  0  0  0  0  0  0  0  0  0  0  0
   -4.4694    0.6292    0.5088 N   0  0  0  0  0  0  0  0  0  0  0  0
   -1.4468    1.7378   -0.2642 C   0  0  0  0  0  0  0  0  0  0  0  0
   -0.0487    1.5842   -0.4908 C   0  0  0  0  0  0  0  0  0  0  0  0
    0.6337    0.3780   -0.3667 C   0  0  0  0  0  0  0  0  0  0  0  0
   -0.0308   -0.8157    0.0075 C   0  0  0  0  0  0  0  0  0  0  0  0
   -1.3856   -0.7790    0.2513 C   0  0  0  0  0  0  0  0  0  0  0  0
   -3.3343    4.7069   -0.5289 H   0  0  0  0  0  0  0  0  0  0  0  0
    0.5334    2.4598   -0.7822 H   0  0  0  0  0  0  0  0  0  0  0  0
    1.7046    0.3358   -0.5602 H   0  0  0  0  0  0  0  0  0  0  0  0
    0.5198   -1.7464    0.1013 H   0  0  0  0  0  0  0  0  0  0  0  0
   -1.9488   -1.6618    0.5423 H   0  0  0  0  0  0  0  0  0  0  0  0
   -7.1536    5.7220    1.1118 C   0  0  0  0  0  0  0  0  0  0  0  0
   -8.2618    6.5665    1.0927 C   0  0  0  0  0  0  0  0  0  0  0  0
   -8.9571    6.8241   -0.0971 C   0  0  0  0  0  0  0  0  0  0  0  0
   -8.5214    6.2022   -1.2776 C   0  0  0  0  0  0  0  0  0  0  0  0
   -7.4169    5.3551   -1.2798 C   0  0  0  0  0  0  0  0  0  0  0  0
   -6.7395    5.1288   -0.0804 C   0  0  0  0  0  0  0  0  0  0  0  0
   -6.6225    5.5118    2.0335 H   0  0  0  0  0  0  0  0  0  0  0  0
   -8.5949    7.0295    2.0172 H   0  0  0  0  0  0  0  0  0  0  0  0
   -9.0578    6.3808   -2.2057 H   0  0  0  0  0  0  0  0  0  0  0  0
   -7.0880    4.8637   -2.1886 H   0  0  0  0  0  0  0  0  0  0  0  0
   -5.3279    4.0454   -0.0694 S   0  0  0  0  0  0  0  0  0  0  0  0
   -5.1006    3.5459    1.2865 O   0  0  0  0  0  0  0  0  0  0  0  0
   -4.1865    5.1678   -0.4238 O   0  0  0  0  0  0  0  0  0  0  0  0
   -5.4180    3.0994   -1.1819 O   0  0  0  0  0  0  0  0  0  0  0  0
  -10.1379    7.7643   -0.1162 C   0  0  0  0  0  0  0  0  0  0  0  0
  -10.9188    7.4114   -0.7965 H   0  0  0  0  0  0  0  0  0  0  0  0
  -10.5762    7.8784    0.8788 H   0  0  0  0  0  0  0  0  0  0  0  0
   -9.8364    8.7618   -0.4589 H   0  0  0  0  0  0  0  0  0  0  0  0
  1  8  1  0  0  0  0
  1  2  1  0  0  0  0
  2  3  1  0  0  0  0
  4  1  2  0  0  0  0
  5  6  2  0  0  0  0
  5  4  1  0  0  0  0
  6  7  1  0  0  0  0
  7 12  1  0  0  0  0
  7  8  2  0  0  0  0
  8 13  1  0  0  0  0
  9 26  1  0  0  0  0
 10  5  1  0  0  0  0
 11  6  1  0  0  0  0
 14 20  1  0  0  0  0
 15 14  1  0  0  0  0
 15 21  1  0  0  0  0
 16 15  2  0  0  0  0
 17 16  1  0  0  0  0
 18 17  2  0  0  0  0
 18 19  1  0  0  0  0
 19 24  1  0  0  0  0
 19 14  2  0  0  0  0
 22 17  1  0  0  0  0
 23 18  1  0  0  0  0
 24 25  2  0  0  0  0
 26 24  1  0  0  0  0
 27 24  2  0  0  0  0
 28 16  1  0  0  0  0
 28 30  1  0  0  0  0
 29 28  1  0  0  0  0
 31 28  1  0  0  0  0
M  RAD  3   2   2   3   3   4   2
M  END
