Coordinates from ORCA-job PhN2+~TsO-_B3LYPG-6-31G_dp-CH-Scan-d09-49-n800
 OpenBabel11261919273D

 31 31  0  0  0  0  0  0  0  0999 V2000
   -2.7207    0.8160    0.0120 C   0  0  0  0  0  0  0  0  0  0  0  0
   -4.0859    0.8473    0.3316 N   0  0  0  0  0  0  0  0  0  0  0  0
   -5.0891    1.4023    0.2893 N   0  0  0  0  0  0  0  0  0  0  0  0
   -2.1246    1.8727   -0.6973 C   0  0  0  0  0  0  0  0  0  0  0  0
   -0.7625    1.7673   -0.9671 C   0  0  0  0  0  0  0  0  0  0  0  0
   -0.0299    0.6524   -0.5482 C   0  0  0  0  0  0  0  0  0  0  0  0
   -0.6489   -0.3855    0.1563 C   0  0  0  0  0  0  0  0  0  0  0  0
   -2.0067   -0.3094    0.4439 C   0  0  0  0  0  0  0  0  0  0  0  0
   -2.6518    2.6426   -0.9803 H   0  0  0  0  0  0  0  0  0  0  0  0
   -0.2727    2.5709   -1.5078 H   0  0  0  0  0  0  0  0  0  0  0  0
    1.0310    0.5918   -0.7713 H   0  0  0  0  0  0  0  0  0  0  0  0
   -0.0754   -1.2472    0.4810 H   0  0  0  0  0  0  0  0  0  0  0  0
   -2.5186   -1.0935    0.9908 H   0  0  0  0  0  0  0  0  0  0  0  0
   -7.2123    4.9372    1.0172 C   0  0  0  0  0  0  0  0  0  0  0  0
   -8.4183    5.6300    0.9310 C   0  0  0  0  0  0  0  0  0  0  0  0
   -8.6376    6.5817   -0.0755 C   0  0  0  0  0  0  0  0  0  0  0  0
   -7.6058    6.8323   -0.9907 C   0  0  0  0  0  0  0  0  0  0  0  0
   -6.3933    6.1483   -0.9169 C   0  0  0  0  0  0  0  0  0  0  0  0
   -6.2056    5.1975    0.0865 C   0  0  0  0  0  0  0  0  0  0  0  0
   -7.0363    4.2154    1.8075 H   0  0  0  0  0  0  0  0  0  0  0  0
   -9.2000    5.4336    1.6613 H   0  0  0  0  0  0  0  0  0  0  0  0
   -7.7513    7.5785   -1.7681 H   0  0  0  0  0  0  0  0  0  0  0  0
   -5.5888    6.3581   -1.6136 H   0  0  0  0  0  0  0  0  0  0  0  0
   -4.6637    4.2857    0.1660 S   0  0  0  0  0  0  0  0  0  0  0  0
   -4.4876    3.8217    1.5563 O   0  0  0  0  0  0  0  0  0  0  0  0
   -3.6166    5.1397   -0.4213 O   0  0  0  0  0  0  0  0  0  0  0  0
   -4.8870    3.0613   -0.7744 O   0  0  0  0  0  0  0  0  0  0  0  0
   -9.9595    7.3057   -0.1791 C   0  0  0  0  0  0  0  0  0  0  0  0
  -10.6952    6.7065   -0.7306 H   0  0  0  0  0  0  0  0  0  0  0  0
  -10.3829    7.5089    0.8092 H   0  0  0  0  0  0  0  0  0  0  0  0
   -9.8545    8.2586   -0.7057 H   0  0  0  0  0  0  0  0  0  0  0  0
  1  2  1  0  0  0  0
  1  8  2  0  0  0  0
  3  2  2  0  0  0  0
  4  1  1  0  0  0  0
  5  4  2  0  0  0  0
  5  6  1  0  0  0  0
  6  7  2  0  0  0  0
  7  8  1  0  0  0  0
  7 12  1  0  0  0  0
  8 13  1  0  0  0  0
  9  4  1  0  0  0  0
 10  5  1  0  0  0  0
 11  6  1  0  0  0  0
 14 20  1  0  0  0  0
 15 14  1  0  0  0  0
 15 21  1  0  0  0  0
 16 15  2  0  0  0  0
 17 18  2  0  0  0  0
 17 16  1  0  0  0  0
 18 19  1  0  0  0  0
 19 24  1  0  0  0  0
 19 14  2  0  0  0  0
 22 17  1  0  0  0  0
 23 18  1  0  0  0  0
 24 25  1  0  0  0  0
 26 24  2  0  0  0  0
 27 24  2  0  0  0  0
 28 16  1  0  0  0  0
 28 30  1  0  0  0  0
 29 28  1  0  0  0  0
 31 28  1  0  0  0  0
M  RAD  2   3   2  25   2
M  END
