Coordinates from ORCA-job PhN2+~TsO-_B3LYPG-6-31G_dp-CH-Scan-d09-49-n800
 OpenBabel11261919273D

 31 31  0  0  0  0  0  0  0  0999 V2000
   -2.2818    0.6304    0.1224 C   0  0  0  0  0  0  0  0  0  0  0  0
   -3.6098    0.3290    0.4060 N   0  0  0  0  0  0  0  0  0  0  0  0
   -4.6855    0.1267    0.6260 N   0  0  0  0  0  0  0  0  0  0  0  0
   -2.0363    1.9739   -0.2151 C   0  0  0  0  0  0  0  0  0  0  0  0
   -0.6585    2.1684   -0.4896 C   0  0  0  0  0  0  0  0  0  0  0  0
    0.2932    1.1541   -0.4261 C   0  0  0  0  0  0  0  0  0  0  0  0
   -0.0588   -0.1683   -0.0731 C   0  0  0  0  0  0  0  0  0  0  0  0
   -1.3752   -0.4588    0.2119 C   0  0  0  0  0  0  0  0  0  0  0  0
   -3.4905    3.5090   -0.3075 H   0  0  0  0  0  0  0  0  0  0  0  0
   -0.3180    3.1646   -0.7686 H   0  0  0  0  0  0  0  0  0  0  0  0
    1.3347    1.3734   -0.6527 H   0  0  0  0  0  0  0  0  0  0  0  0
    0.6960   -0.9463   -0.0268 H   0  0  0  0  0  0  0  0  0  0  0  0
   -1.7019   -1.4568    0.4895 H   0  0  0  0  0  0  0  0  0  0  0  0
   -7.0664    5.4258    1.1269 C   0  0  0  0  0  0  0  0  0  0  0  0
   -7.9696    6.4855    1.0660 C   0  0  0  0  0  0  0  0  0  0  0  0
   -8.5616    6.8651   -0.1464 C   0  0  0  0  0  0  0  0  0  0  0  0
   -8.2352    6.1453   -1.3062 C   0  0  0  0  0  0  0  0  0  0  0  0
   -7.3364    5.0829   -1.2650 C   0  0  0  0  0  0  0  0  0  0  0  0
   -6.7543    4.7372   -0.0444 C   0  0  0  0  0  0  0  0  0  0  0  0
   -6.6174    5.1223    2.0659 H   0  0  0  0  0  0  0  0  0  0  0  0
   -8.2230    7.0233    1.9756 H   0  0  0  0  0  0  0  0  0  0  0  0
   -8.6962    6.4174   -2.2520 H   0  0  0  0  0  0  0  0  0  0  0  0
   -7.0954    4.5163   -2.1578 H   0  0  0  0  0  0  0  0  0  0  0  0
   -5.6043    3.3773    0.0212 S   0  0  0  0  0  0  0  0  0  0  0  0
   -5.5357    2.8663    1.3966 O   0  0  0  0  0  0  0  0  0  0  0  0
   -4.2495    4.1712   -0.3263 O   0  0  0  0  0  0  0  0  0  0  0  0
   -5.9092    2.4279   -1.0553 O   0  0  0  0  0  0  0  0  0  0  0  0
   -9.5166    8.0325   -0.2102 C   0  0  0  0  0  0  0  0  0  0  0  0
  -10.3389    7.8398   -0.9060 H   0  0  0  0  0  0  0  0  0  0  0  0
   -9.9447    8.2546    0.7708 H   0  0  0  0  0  0  0  0  0  0  0  0
   -9.0048    8.9385   -0.5575 H   0  0  0  0  0  0  0  0  0  0  0  0
  1  8  1  0  0  0  0
  1  2  1  0  0  0  0
  2  3  1  0  0  0  0
  4  1  2  0  0  0  0
  5  6  2  0  0  0  0
  5  4  1  0  0  0  0
  6  7  1  0  0  0  0
  7 12  1  0  0  0  0
  7  8  2  0  0  0  0
  8 13  1  0  0  0  0
 10  5  1  0  0  0  0
 11  6  1  0  0  0  0
 14 20  1  0  0  0  0
 15 14  1  0  0  0  0
 15 21  1  0  0  0  0
 16 15  2  0  0  0  0
 17 18  2  0  0  0  0
 17 16  1  0  0  0  0
 18 19  1  0  0  0  0
 19 24  1  0  0  0  0
 19 14  2  0  0  0  0
 22 17  1  0  0  0  0
 23 18  1  0  0  0  0
 24 25  2  0  0  0  0
 26  9  1  0  0  0  0
 26 24  1  0  0  0  0
 27 24  2  0  0  0  0
 28 16  1  0  0  0  0
 28 30  1  0  0  0  0
 29 28  1  0  0  0  0
 31 28  1  0  0  0  0
M  RAD  3   2   2   3   3   4   2
M  END
