Coordinates from ORCA-job PhN2+~TsO-_B3LYPG-6-31G_dp-CH-Scan-d09-49-n800
 OpenBabel11261919273D

 31 31  0  0  0  0  0  0  0  0999 V2000
   -2.3252    0.6526    0.1329 C   0  0  0  0  0  0  0  0  0  0  0  0
   -3.6414    0.3166    0.4309 N   0  0  0  0  0  0  0  0  0  0  0  0
   -4.7090    0.0878    0.6626 N   0  0  0  0  0  0  0  0  0  0  0  0
   -2.1125    2.0015   -0.2067 C   0  0  0  0  0  0  0  0  0  0  0  0
   -0.7445    2.2312   -0.4958 C   0  0  0  0  0  0  0  0  0  0  0  0
    0.2324    1.2401   -0.4431 C   0  0  0  0  0  0  0  0  0  0  0  0
   -0.0840   -0.0897   -0.0874 C   0  0  0  0  0  0  0  0  0  0  0  0
   -1.3901   -0.4124    0.2113 C   0  0  0  0  0  0  0  0  0  0  0  0
   -3.4858    3.3858   -0.2797 H   0  0  0  0  0  0  0  0  0  0  0  0
   -0.4334    3.2359   -0.7773 H   0  0  0  0  0  0  0  0  0  0  0  0
    1.2655    1.4852   -0.6806 H   0  0  0  0  0  0  0  0  0  0  0  0
    0.6897   -0.8495   -0.0495 H   0  0  0  0  0  0  0  0  0  0  0  0
   -1.6892   -1.4181    0.4917 H   0  0  0  0  0  0  0  0  0  0  0  0
   -7.0533    5.3880    1.1294 C   0  0  0  0  0  0  0  0  0  0  0  0
   -7.9375    6.4636    1.0639 C   0  0  0  0  0  0  0  0  0  0  0  0
   -8.5114    6.8575   -0.1525 C   0  0  0  0  0  0  0  0  0  0  0  0
   -8.1863    6.1360   -1.3116 C   0  0  0  0  0  0  0  0  0  0  0  0
   -7.3064    5.0581   -1.2655 C   0  0  0  0  0  0  0  0  0  0  0  0
   -6.7417    4.6977   -0.0409 C   0  0  0  0  0  0  0  0  0  0  0  0
   -6.6188    5.0733    2.0715 H   0  0  0  0  0  0  0  0  0  0  0  0
   -8.1903    7.0026    1.9730 H   0  0  0  0  0  0  0  0  0  0  0  0
   -8.6338    6.4190   -2.2607 H   0  0  0  0  0  0  0  0  0  0  0  0
   -7.0672    4.4899   -2.1577 H   0  0  0  0  0  0  0  0  0  0  0  0
   -5.6151    3.3178    0.0304 S   0  0  0  0  0  0  0  0  0  0  0  0
   -5.5720    2.8013    1.4063 O   0  0  0  0  0  0  0  0  0  0  0  0
   -4.2451    4.0736   -0.3046 O   0  0  0  0  0  0  0  0  0  0  0  0
   -5.9371    2.3721   -1.0462 O   0  0  0  0  0  0  0  0  0  0  0  0
   -9.4463    8.0409   -0.2214 C   0  0  0  0  0  0  0  0  0  0  0  0
  -10.2710    7.8598   -0.9176 H   0  0  0  0  0  0  0  0  0  0  0  0
   -9.8719    8.2733    0.7583 H   0  0  0  0  0  0  0  0  0  0  0  0
   -8.9190    8.9372   -0.5711 H   0  0  0  0  0  0  0  0  0  0  0  0
  1  8  1  0  0  0  0
  1  2  1  0  0  0  0
  2  3  1  0  0  0  0
  4  1  2  0  0  0  0
  5  6  2  0  0  0  0
  5  4  1  0  0  0  0
  6  7  1  0  0  0  0
  7 12  1  0  0  0  0
  7  8  2  0  0  0  0
  8 13  1  0  0  0  0
 10  5  1  0  0  0  0
 11  6  1  0  0  0  0
 14 20  1  0  0  0  0
 15 14  1  0  0  0  0
 15 21  1  0  0  0  0
 16 15  2  0  0  0  0
 17 18  2  0  0  0  0
 17 16  1  0  0  0  0
 18 19  1  0  0  0  0
 19 24  1  0  0  0  0
 19 14  2  0  0  0  0
 22 17  1  0  0  0  0
 23 18  1  0  0  0  0
 24 25  2  0  0  0  0
 26  9  1  0  0  0  0
 26 24  1  0  0  0  0
 27 24  2  0  0  0  0
 28 16  1  0  0  0  0
 28 30  1  0  0  0  0
 29 28  1  0  0  0  0
 31 28  1  0  0  0  0
M  RAD  3   2   2   3   3   4   2
M  END
