Coordinates from ORCA-job PhN2+~TsO-_B3LYPG-6-31G_dp-CH-Scan-d09-49-n800
 OpenBabel11261919273D

 31 31  0  0  0  0  0  0  0  0999 V2000
   -2.0990    0.5358    0.0921 C   0  0  0  0  0  0  0  0  0  0  0  0
   -3.4671    0.4151    0.3262 N   0  0  0  0  0  0  0  0  0  0  0  0
   -4.5686    0.3591    0.5044 N   0  0  0  0  0  0  0  0  0  0  0  0
   -1.6891    1.8356   -0.2493 C   0  0  0  0  0  0  0  0  0  0  0  0
   -0.2842    1.8508   -0.4702 C   0  0  0  0  0  0  0  0  0  0  0  0
    0.5324    0.7293   -0.3577 C   0  0  0  0  0  0  0  0  0  0  0  0
    0.0078   -0.5370   -0.0043 C   0  0  0  0  0  0  0  0  0  0  0  0
   -1.3435   -0.6601    0.2316 C   0  0  0  0  0  0  0  0  0  0  0  0
   -3.4292    4.1314   -0.4466 H   0  0  0  0  0  0  0  0  0  0  0  0
    0.1918    2.7921   -0.7465 H   0  0  0  0  0  0  0  0  0  0  0  0
    1.6016    0.8145   -0.5447 H   0  0  0  0  0  0  0  0  0  0  0  0
    0.6605   -1.3999    0.0799 H   0  0  0  0  0  0  0  0  0  0  0  0
   -1.8015   -1.6062    0.5070 H   0  0  0  0  0  0  0  0  0  0  0  0
   -7.1155    5.6012    1.1071 C   0  0  0  0  0  0  0  0  0  0  0  0
   -8.1245    6.5615    1.0784 C   0  0  0  0  0  0  0  0  0  0  0  0
   -8.7959    6.8730   -0.1125 C   0  0  0  0  0  0  0  0  0  0  0  0
   -8.4395    6.1863   -1.2833 C   0  0  0  0  0  0  0  0  0  0  0  0
   -7.4346    5.2227   -1.2753 C   0  0  0  0  0  0  0  0  0  0  0  0
   -6.7772    4.9447   -0.0759 C   0  0  0  0  0  0  0  0  0  0  0  0
   -6.6040    5.3500    2.0296 H   0  0  0  0  0  0  0  0  0  0  0  0
   -8.3988    7.0741    1.9962 H   0  0  0  0  0  0  0  0  0  0  0  0
   -8.9597    6.4061   -2.2118 H   0  0  0  0  0  0  0  0  0  0  0  0
   -7.1680    4.6815   -2.1764 H   0  0  0  0  0  0  0  0  0  0  0  0
   -5.4929    3.7118   -0.0513 S   0  0  0  0  0  0  0  0  0  0  0  0
   -5.3215    3.2070    1.3128 O   0  0  0  0  0  0  0  0  0  0  0  0
   -4.2376    4.6837   -0.4240 O   0  0  0  0  0  0  0  0  0  0  0  0
   -5.7028    2.7588   -1.1428 O   0  0  0  0  0  0  0  0  0  0  0  0
   -9.8657    7.9373   -0.1415 C   0  0  0  0  0  0  0  0  0  0  0  0
  -10.6688    7.6787   -0.8379 H   0  0  0  0  0  0  0  0  0  0  0  0
  -10.3061    8.0909    0.8472 H   0  0  0  0  0  0  0  0  0  0  0  0
   -9.4507    8.8988   -0.4682 H   0  0  0  0  0  0  0  0  0  0  0  0
  1  8  1  0  0  0  0
  1  2  1  0  0  0  0
  2  3  1  0  0  0  0
  4  1  2  0  0  0  0
  5  6  2  0  0  0  0
  5  4  1  0  0  0  0
  6  7  1  0  0  0  0
  7 12  1  0  0  0  0
  7  8  2  0  0  0  0
  8 13  1  0  0  0  0
  9 26  1  0  0  0  0
 10  5  1  0  0  0  0
 11  6  1  0  0  0  0
 14 20  1  0  0  0  0
 15 14  1  0  0  0  0
 15 21  1  0  0  0  0
 16 15  2  0  0  0  0
 17 18  2  0  0  0  0
 17 16  1  0  0  0  0
 18 19  1  0  0  0  0
 19 24  1  0  0  0  0
 19 14  2  0  0  0  0
 22 17  1  0  0  0  0
 23 18  1  0  0  0  0
 24 25  2  0  0  0  0
 26 24  1  0  0  0  0
 27 24  2  0  0  0  0
 28 16  1  0  0  0  0
 28 30  1  0  0  0  0
 29 28  1  0  0  0  0
 31 28  1  0  0  0  0
M  RAD  3   2   2   3   3   4   2
M  END
