Coordinates from ORCA-job PhN2+~TsO-_B3LYPG-6-31G_dp-CH-Scan-d09-49-n800
 OpenBabel11261919283D

 31 31  0  0  0  0  0  0  0  0999 V2000
   -1.7995    0.4515    0.0022 C   0  0  0  0  0  0  0  0  0  0  0  0
   -3.1526    0.7885    0.0852 N   0  0  0  0  0  0  0  0  0  0  0  0
   -4.2242    1.1046    0.1367 N   0  0  0  0  0  0  0  0  0  0  0  0
   -0.9887    1.5351   -0.3673 C   0  0  0  0  0  0  0  0  0  0  0  0
    0.3680    1.0978   -0.4246 C   0  0  0  0  0  0  0  0  0  0  0  0
    0.7817   -0.2021   -0.1517 C   0  0  0  0  0  0  0  0  0  0  0  0
   -0.1402   -1.2150    0.2128 C   0  0  0  0  0  0  0  0  0  0  0  0
   -1.4782   -0.9020    0.2988 C   0  0  0  0  0  0  0  0  0  0  0  0
   -3.3392    5.6221   -0.9440 H   0  0  0  0  0  0  0  0  0  0  0  0
    1.1388    1.8202   -0.6988 H   0  0  0  0  0  0  0  0  0  0  0  0
    1.8374   -0.4631   -0.2165 H   0  0  0  0  0  0  0  0  0  0  0  0
    0.2040   -2.2226    0.4226 H   0  0  0  0  0  0  0  0  0  0  0  0
   -2.2321   -1.6354    0.5737 H   0  0  0  0  0  0  0  0  0  0  0  0
   -7.1589    5.8815    1.0701 C   0  0  0  0  0  0  0  0  0  0  0  0
   -8.3976    6.5170    1.1423 C   0  0  0  0  0  0  0  0  0  0  0  0
   -9.1775    6.7183   -0.0043 C   0  0  0  0  0  0  0  0  0  0  0  0
   -8.6900    6.2570   -1.2379 C   0  0  0  0  0  0  0  0  0  0  0  0
   -7.4562    5.6208   -1.3318 C   0  0  0  0  0  0  0  0  0  0  0  0
   -6.6995    5.4444   -0.1713 C   0  0  0  0  0  0  0  0  0  0  0  0
   -6.5605    5.7132    1.9586 H   0  0  0  0  0  0  0  0  0  0  0  0
   -8.7659    6.8582    2.1055 H   0  0  0  0  0  0  0  0  0  0  0  0
   -9.2881    6.3945   -2.1347 H   0  0  0  0  0  0  0  0  0  0  0  0
   -7.0862    5.2517   -2.2818 H   0  0  0  0  0  0  0  0  0  0  0  0
   -5.1238    4.6258   -0.2768 S   0  0  0  0  0  0  0  0  0  0  0  0
   -4.7466    4.1187    1.0403 O   0  0  0  0  0  0  0  0  0  0  0  0
   -4.2016    5.9439   -0.6261 O   0  0  0  0  0  0  0  0  0  0  0  0
   -5.0916    3.7384   -1.4399 O   0  0  0  0  0  0  0  0  0  0  0  0
  -10.5097    7.4239    0.0761 C   0  0  0  0  0  0  0  0  0  0  0  0
  -11.2760    6.8937   -0.4980 H   0  0  0  0  0  0  0  0  0  0  0  0
  -10.8561    7.5102    1.1092 H   0  0  0  0  0  0  0  0  0  0  0  0
  -10.4410    8.4375   -0.3365 H   0  0  0  0  0  0  0  0  0  0  0  0
  1  2  1  0  0  0  0
  1  8  2  0  0  0  0
  2  3  1  0  0  0  0
  4  1  1  0  0  0  0
  5  4  2  0  0  0  0
  5  6  1  0  0  0  0
  6  7  2  0  0  0  0
  7  8  1  0  0  0  0
  7 12  1  0  0  0  0
  8 13  1  0  0  0  0
  9 26  1  0  0  0  0
 10  5  1  0  0  0  0
 11  6  1  0  0  0  0
 14 15  1  0  0  0  0
 14 20  1  0  0  0  0
 15 21  1  0  0  0  0
 16 28  1  0  0  0  0
 16 15  2  0  0  0  0
 17 16  1  0  0  0  0
 18 17  2  0  0  0  0
 18 19  1  0  0  0  0
 19 14  2  0  0  0  0
 22 17  1  0  0  0  0
 23 18  1  0  0  0  0
 24 19  1  0  0  0  0
 24 25  2  0  0  0  0
 26 24  1  0  0  0  0
 27 24  2  0  0  0  0
 28 30  1  0  0  0  0
 29 28  1  0  0  0  0
 31 28  1  0  0  0  0
M  RAD  3   2   2   3   3   4   2
M  END
