Coordinates from ORCA-job PhN2+~TsO-_B3LYPG-6-31G_dp-CH-Scan-d09-49-n800
 OpenBabel11261919283D

 31 31  0  0  0  0  0  0  0  0999 V2000
   -1.8478    0.4679    0.0345 C   0  0  0  0  0  0  0  0  0  0  0  0
   -3.2083    0.7599    0.1596 N   0  0  0  0  0  0  0  0  0  0  0  0
   -4.2870    1.0409    0.2501 N   0  0  0  0  0  0  0  0  0  0  0  0
   -1.0779    1.5856   -0.3205 C   0  0  0  0  0  0  0  0  0  0  0  0
    0.2890    1.1908   -0.4240 C   0  0  0  0  0  0  0  0  0  0  0  0
    0.7471   -0.1039   -0.2022 C   0  0  0  0  0  0  0  0  0  0  0  0
   -0.1357   -1.1541    0.1533 C   0  0  0  0  0  0  0  0  0  0  0  0
   -1.4795   -0.8835    0.2817 C   0  0  0  0  0  0  0  0  0  0  0  0
   -3.3189    5.4859   -0.8924 H   0  0  0  0  0  0  0  0  0  0  0  0
    1.0315    1.9438   -0.6939 H   0  0  0  0  0  0  0  0  0  0  0  0
    1.8078   -0.3315   -0.3016 H   0  0  0  0  0  0  0  0  0  0  0  0
    0.2424   -2.1572    0.3229 H   0  0  0  0  0  0  0  0  0  0  0  0
   -2.2046   -1.6469    0.5521 H   0  0  0  0  0  0  0  0  0  0  0  0
   -7.1488    5.8590    1.0782 C   0  0  0  0  0  0  0  0  0  0  0  0
   -8.3729    6.5238    1.1320 C   0  0  0  0  0  0  0  0  0  0  0  0
   -9.1399    6.7261   -0.0233 C   0  0  0  0  0  0  0  0  0  0  0  0
   -8.6547    6.2353   -1.2461 C   0  0  0  0  0  0  0  0  0  0  0  0
   -7.4352    5.5694   -1.3216 C   0  0  0  0  0  0  0  0  0  0  0  0
   -6.6909    5.3930   -0.1533 C   0  0  0  0  0  0  0  0  0  0  0  0
   -6.5608    5.6900    1.9735 H   0  0  0  0  0  0  0  0  0  0  0  0
   -8.7401    6.8872    2.0874 H   0  0  0  0  0  0  0  0  0  0  0  0
   -9.2434    6.3727   -2.1492 H   0  0  0  0  0  0  0  0  0  0  0  0
   -7.0674    5.1774   -2.2633 H   0  0  0  0  0  0  0  0  0  0  0  0
   -5.1340    4.5364   -0.2349 S   0  0  0  0  0  0  0  0  0  0  0  0
   -4.7775    4.0415    1.0926 O   0  0  0  0  0  0  0  0  0  0  0  0
   -4.1817    5.8282   -0.5987 O   0  0  0  0  0  0  0  0  0  0  0  0
   -5.1164    3.6287   -1.3824 O   0  0  0  0  0  0  0  0  0  0  0  0
  -10.4544    7.4660    0.0374 C   0  0  0  0  0  0  0  0  0  0  0  0
  -11.2181    6.9714   -0.5708 H   0  0  0  0  0  0  0  0  0  0  0  0
  -10.8274    7.5375    1.0623 H   0  0  0  0  0  0  0  0  0  0  0  0
  -10.3463    8.4873   -0.3473 H   0  0  0  0  0  0  0  0  0  0  0  0
  1  2  1  0  0  0  0
  1  8  2  0  0  0  0
  2  3  1  0  0  0  0
  4  1  1  0  0  0  0
  5  4  2  0  0  0  0
  5  6  1  0  0  0  0
  6  7  2  0  0  0  0
  7  8  1  0  0  0  0
  7 12  1  0  0  0  0
  8 13  1  0  0  0  0
  9 26  1  0  0  0  0
 10  5  1  0  0  0  0
 11  6  1  0  0  0  0
 14 15  1  0  0  0  0
 14 20  1  0  0  0  0
 15 21  1  0  0  0  0
 16 28  1  0  0  0  0
 16 15  2  0  0  0  0
 17 16  1  0  0  0  0
 18 17  2  0  0  0  0
 18 19  1  0  0  0  0
 19 14  2  0  0  0  0
 22 17  1  0  0  0  0
 23 18  1  0  0  0  0
 24 19  1  0  0  0  0
 24 25  2  0  0  0  0
 26 24  1  0  0  0  0
 27 24  2  0  0  0  0
 28 30  1  0  0  0  0
 29 28  1  0  0  0  0
 31 28  1  0  0  0  0
M  RAD  3   2   2   3   3   4   2
M  END
