Coordinates from ORCA-job PhN2+~TsO-_B3LYPG-6-31G_dp-CH-Scan-d09-49-n800
 OpenBabel11261919273D

 31 31  0  0  0  0  0  0  0  0999 V2000
   -2.7338    0.8218    0.0028 C   0  0  0  0  0  0  0  0  0  0  0  0
   -4.1035    0.8525    0.3034 N   0  0  0  0  0  0  0  0  0  0  0  0
   -5.1037    1.4122    0.2457 N   0  0  0  0  0  0  0  0  0  0  0  0
   -2.1272    1.8803   -0.6949 C   0  0  0  0  0  0  0  0  0  0  0  0
   -0.7614    1.7738   -0.9456 C   0  0  0  0  0  0  0  0  0  0  0  0
   -0.0354    0.6573   -0.5196 C   0  0  0  0  0  0  0  0  0  0  0  0
   -0.6651   -0.3819    0.1731 C   0  0  0  0  0  0  0  0  0  0  0  0
   -2.0268   -0.3053    0.4415 C   0  0  0  0  0  0  0  0  0  0  0  0
   -2.6324    2.6281   -0.9754 H   0  0  0  0  0  0  0  0  0  0  0  0
   -0.2637    2.5787   -1.4771 H   0  0  0  0  0  0  0  0  0  0  0  0
    1.0285    0.5966   -0.7279 H   0  0  0  0  0  0  0  0  0  0  0  0
   -0.0970   -1.2451    0.5034 H   0  0  0  0  0  0  0  0  0  0  0  0
   -2.5472   -1.0904    0.9788 H   0  0  0  0  0  0  0  0  0  0  0  0
   -7.1921    4.9373    1.0137 C   0  0  0  0  0  0  0  0  0  0  0  0
   -8.4010    5.6266    0.9392 C   0  0  0  0  0  0  0  0  0  0  0  0
   -8.6342    6.5752   -0.0671 C   0  0  0  0  0  0  0  0  0  0  0  0
   -7.6131    6.8266   -0.9942 C   0  0  0  0  0  0  0  0  0  0  0  0
   -6.3980    6.1463   -0.9321 C   0  0  0  0  0  0  0  0  0  0  0  0
   -6.1966    5.1982    0.0714 C   0  0  0  0  0  0  0  0  0  0  0  0
   -7.0053    4.2178    1.8036 H   0  0  0  0  0  0  0  0  0  0  0  0
   -9.1740    5.4299    1.6786 H   0  0  0  0  0  0  0  0  0  0  0  0
   -7.7693    7.5705   -1.7717 H   0  0  0  0  0  0  0  0  0  0  0  0
   -5.6019    6.3567   -1.6382 H   0  0  0  0  0  0  0  0  0  0  0  0
   -4.6514    4.2910    0.1356 S   0  0  0  0  0  0  0  0  0  0  0  0
   -4.4640    3.8208    1.5223 O   0  0  0  0  0  0  0  0  0  0  0  0
   -3.6112    5.1501   -0.4559 O   0  0  0  0  0  0  0  0  0  0  0  0
   -4.8773    3.0695   -0.8088 O   0  0  0  0  0  0  0  0  0  0  0  0
   -9.9592    7.2950   -0.1580 C   0  0  0  0  0  0  0  0  0  0  0  0
  -10.6961    6.6965   -0.7087 H   0  0  0  0  0  0  0  0  0  0  0  0
  -10.3771    7.4907    0.8340 H   0  0  0  0  0  0  0  0  0  0  0  0
   -9.8610    8.2513   -0.6797 H   0  0  0  0  0  0  0  0  0  0  0  0
  1  2  1  0  0  0  0
  1  8  2  0  0  0  0
  3  2  2  0  0  0  0
  4  1  1  0  0  0  0
  5  4  2  0  0  0  0
  5  6  1  0  0  0  0
  6  7  2  0  0  0  0
  7  8  1  0  0  0  0
  7 12  1  0  0  0  0
  8 13  1  0  0  0  0
  9  4  1  0  0  0  0
 10  5  1  0  0  0  0
 11  6  1  0  0  0  0
 14 20  1  0  0  0  0
 15 14  1  0  0  0  0
 15 21  1  0  0  0  0
 16 15  2  0  0  0  0
 17 18  2  0  0  0  0
 17 16  1  0  0  0  0
 18 19  1  0  0  0  0
 19 24  1  0  0  0  0
 19 14  2  0  0  0  0
 22 17  1  0  0  0  0
 23 18  1  0  0  0  0
 24 25  1  0  0  0  0
 26 24  2  0  0  0  0
 27 24  2  0  0  0  0
 28 16  1  0  0  0  0
 28 30  1  0  0  0  0
 29 28  1  0  0  0  0
 31 28  1  0  0  0  0
M  RAD  2   3   2  25   2
M  END
