Coordinates from ORCA-job PhN2+~TsO-_B3LYPG-6-31G_dp-CH-Scan-d09-49-n800
 OpenBabel11261919273D

 31 31  0  0  0  0  0  0  0  0999 V2000
   -1.9412    0.4832    0.0944 C   0  0  0  0  0  0  0  0  0  0  0  0
   -3.3114    0.6258    0.3233 N   0  0  0  0  0  0  0  0  0  0  0  0
   -4.4046    0.7878    0.4923 N   0  0  0  0  0  0  0  0  0  0  0  0
   -1.3140    1.6849   -0.2684 C   0  0  0  0  0  0  0  0  0  0  0  0
    0.0734    1.4381   -0.4838 C   0  0  0  0  0  0  0  0  0  0  0  0
    0.6746    0.1907   -0.3489 C   0  0  0  0  0  0  0  0  0  0  0  0
   -0.0691   -0.9556    0.0262 C   0  0  0  0  0  0  0  0  0  0  0  0
   -1.4200   -0.8292    0.2604 C   0  0  0  0  0  0  0  0  0  0  0  0
   -3.3052    5.0179   -0.6237 H   0  0  0  0  0  0  0  0  0  0  0  0
    0.7142    2.2720   -0.7752 H   0  0  0  0  0  0  0  0  0  0  0  0
    1.7419    0.0770   -0.5343 H   0  0  0  0  0  0  0  0  0  0  0  0
    0.4192   -1.9196    0.1282 H   0  0  0  0  0  0  0  0  0  0  0  0
   -2.0421   -1.6715    0.5516 H   0  0  0  0  0  0  0  0  0  0  0  0
   -7.1636    5.7791    1.1088 C   0  0  0  0  0  0  0  0  0  0  0  0
   -8.3217    6.5544    1.1031 C   0  0  0  0  0  0  0  0  0  0  0  0
   -9.0332    6.7867   -0.0822 C   0  0  0  0  0  0  0  0  0  0  0  0
   -8.5620    6.2104   -1.2723 C   0  0  0  0  0  0  0  0  0  0  0  0
   -7.4078    5.4328   -1.2880 C   0  0  0  0  0  0  0  0  0  0  0  0
   -6.7160    5.2304   -0.0923 C   0  0  0  0  0  0  0  0  0  0  0  0
   -6.6191    5.5882    2.0269 H   0  0  0  0  0  0  0  0  0  0  0  0
   -8.6807    6.9825    2.0345 H   0  0  0  0  0  0  0  0  0  0  0  0
   -9.1096    6.3697   -2.1973 H   0  0  0  0  0  0  0  0  0  0  0  0
   -7.0512    4.9761   -2.2044 H   0  0  0  0  0  0  0  0  0  0  0  0
   -5.2407    4.2360   -0.0988 S   0  0  0  0  0  0  0  0  0  0  0  0
   -4.9708    3.7469    1.2522 O   0  0  0  0  0  0  0  0  0  0  0  0
   -4.1719    5.4302   -0.4590 O   0  0  0  0  0  0  0  0  0  0  0  0
   -5.2764    3.2946   -1.2181 O   0  0  0  0  0  0  0  0  0  0  0  0
  -10.2699    7.6524   -0.0865 C   0  0  0  0  0  0  0  0  0  0  0  0
  -11.0366    7.2504   -0.7560 H   0  0  0  0  0  0  0  0  0  0  0  0
  -10.7011    7.7409    0.9140 H   0  0  0  0  0  0  0  0  0  0  0  0
  -10.0351    8.6658   -0.4348 H   0  0  0  0  0  0  0  0  0  0  0  0
  1  8  1  0  0  0  0
  1  2  1  0  0  0  0
  2  3  1  0  0  0  0
  4  1  2  0  0  0  0
  5  6  2  0  0  0  0
  5  4  1  0  0  0  0
  6  7  1  0  0  0  0
  7 12  1  0  0  0  0
  7  8  2  0  0  0  0
  8 13  1  0  0  0  0
  9 26  1  0  0  0  0
 10  5  1  0  0  0  0
 11  6  1  0  0  0  0
 14 20  1  0  0  0  0
 15 14  1  0  0  0  0
 15 21  1  0  0  0  0
 16 15  2  0  0  0  0
 17 16  1  0  0  0  0
 18 17  2  0  0  0  0
 18 19  1  0  0  0  0
 19 14  2  0  0  0  0
 22 17  1  0  0  0  0
 23 18  1  0  0  0  0
 24 19  1  0  0  0  0
 24 25  2  0  0  0  0
 26 24  1  0  0  0  0
 27 24  2  0  0  0  0
 28 16  1  0  0  0  0
 28 30  1  0  0  0  0
 29 28  1  0  0  0  0
 31 28  1  0  0  0  0
M  RAD  3   2   2   3   3   4   2
M  END
