Coordinates from ORCA-job PhN2+~TsO-_B3LYPG-6-31G_dp-CH-Scan-d09-49-n800
 OpenBabel11261919273D

 31 31  0  0  0  0  0  0  0  0999 V2000
   -2.4601    0.7647    0.1064 C   0  0  0  0  0  0  0  0  0  0  0  0
   -3.7932    0.4986    0.3917 N   0  0  0  0  0  0  0  0  0  0  0  0
   -4.8870    0.4053    0.5937 N   0  0  0  0  0  0  0  0  0  0  0  0
   -2.1215    2.0909   -0.2103 C   0  0  0  0  0  0  0  0  0  0  0  0
   -0.7664    2.2936   -0.4932 C   0  0  0  0  0  0  0  0  0  0  0  0
    0.1564    1.2469   -0.4565 C   0  0  0  0  0  0  0  0  0  0  0  0
   -0.2388   -0.0620   -0.1306 C   0  0  0  0  0  0  0  0  0  0  0  0
   -1.5663   -0.3249    0.1586 C   0  0  0  0  0  0  0  0  0  0  0  0
   -3.0532    3.0684   -0.2324 H   0  0  0  0  0  0  0  0  0  0  0  0
   -0.4306    3.2942   -0.7488 H   0  0  0  0  0  0  0  0  0  0  0  0
    1.2006    1.4424   -0.6843 H   0  0  0  0  0  0  0  0  0  0  0  0
    0.4891   -0.8657   -0.1050 H   0  0  0  0  0  0  0  0  0  0  0  0
   -1.9130   -1.3202    0.4151 H   0  0  0  0  0  0  0  0  0  0  0  0
   -7.0151    5.3761    1.1543 C   0  0  0  0  0  0  0  0  0  0  0  0
   -7.9409    6.4162    1.0701 C   0  0  0  0  0  0  0  0  0  0  0  0
   -8.5003    6.7910   -0.1580 C   0  0  0  0  0  0  0  0  0  0  0  0
   -8.1157    6.0859   -1.3090 C   0  0  0  0  0  0  0  0  0  0  0  0
   -7.1935    5.0450   -1.2410 C   0  0  0  0  0  0  0  0  0  0  0  0
   -6.6430    4.6987   -0.0053 C   0  0  0  0  0  0  0  0  0  0  0  0
   -6.5930    5.0746    2.1065 H   0  0  0  0  0  0  0  0  0  0  0  0
   -8.2380    6.9419    1.9740 H   0  0  0  0  0  0  0  0  0  0  0  0
   -8.5502    6.3528   -2.2694 H   0  0  0  0  0  0  0  0  0  0  0  0
   -6.9105    4.4887   -2.1280 H   0  0  0  0  0  0  0  0  0  0  0  0
   -5.4297    3.3851    0.0855 S   0  0  0  0  0  0  0  0  0  0  0  0
   -5.4484    2.8528    1.4739 O   0  0  0  0  0  0  0  0  0  0  0  0
   -4.1026    4.0651   -0.2340 O   0  0  0  0  0  0  0  0  0  0  0  0
   -5.7797    2.3766   -0.9506 O   0  0  0  0  0  0  0  0  0  0  0  0
   -9.4846    7.9331   -0.2491 C   0  0  0  0  0  0  0  0  0  0  0  0
  -10.3332    7.6807   -0.8933 H   0  0  0  0  0  0  0  0  0  0  0  0
   -9.8755    8.2040    0.7352 H   0  0  0  0  0  0  0  0  0  0  0  0
   -9.0139    8.8284   -0.6740 H   0  0  0  0  0  0  0  0  0  0  0  0
  1  8  1  0  0  0  0
  1  2  1  0  0  0  0
  2  3  1  0  0  0  0
  4  1  2  0  0  0  0
  5  6  2  0  0  0  0
  5  4  1  0  0  0  0
  6  7  1  0  0  0  0
  7 12  1  0  0  0  0
  7  8  2  0  0  0  0
  8 13  1  0  0  0  0
  9  4  1  0  0  0  0
 10  5  1  0  0  0  0
 11  6  1  0  0  0  0
 14 20  1  0  0  0  0
 15 14  1  0  0  0  0
 15 21  1  0  0  0  0
 16 15  2  0  0  0  0
 17 18  2  0  0  0  0
 17 16  1  0  0  0  0
 18 19  1  0  0  0  0
 19 24  1  0  0  0  0
 19 14  2  0  0  0  0
 22 17  1  0  0  0  0
 23 18  1  0  0  0  0
 24 25  1  0  0  0  0
 26 24  2  0  0  0  0
 27 24  2  0  0  0  0
 28 16  1  0  0  0  0
 28 30  1  0  0  0  0
 29 28  1  0  0  0  0
 31 28  1  0  0  0  0
M  RAD  3   2   2   3   3  25   2
M  END
