Coordinates from ORCA-job PhN2+~TsO-_B3LYPG-6-31G_dp-CH-Scan-d09-49-n800
 OpenBabel11261919273D

 31 31  0  0  0  0  0  0  0  0999 V2000
   -2.7167    0.8142    0.0148 C   0  0  0  0  0  0  0  0  0  0  0  0
   -4.0805    0.8460    0.3400 N   0  0  0  0  0  0  0  0  0  0  0  0
   -5.0845    1.3995    0.3023 N   0  0  0  0  0  0  0  0  0  0  0  0
   -2.1236    1.8702   -0.6981 C   0  0  0  0  0  0  0  0  0  0  0  0
   -0.7626    1.7650   -0.9735 C   0  0  0  0  0  0  0  0  0  0  0  0
   -0.0283    0.6506   -0.5565 C   0  0  0  0  0  0  0  0  0  0  0  0
   -0.6441   -0.3867    0.1516 C   0  0  0  0  0  0  0  0  0  0  0  0
   -2.0006   -0.3106    0.4449 C   0  0  0  0  0  0  0  0  0  0  0  0
   -2.6579    2.6475   -0.9821 H   0  0  0  0  0  0  0  0  0  0  0  0
   -0.2752    2.5681   -1.5171 H   0  0  0  0  0  0  0  0  0  0  0  0
    1.0317    0.5899   -0.7840 H   0  0  0  0  0  0  0  0  0  0  0  0
   -0.0690   -1.2480    0.4748 H   0  0  0  0  0  0  0  0  0  0  0  0
   -2.5101   -1.0942    0.9948 H   0  0  0  0  0  0  0  0  0  0  0  0
   -7.2183    4.9370    1.0179 C   0  0  0  0  0  0  0  0  0  0  0  0
   -8.4235    5.6308    0.9284 C   0  0  0  0  0  0  0  0  0  0  0  0
   -8.6387    6.5837   -0.0780 C   0  0  0  0  0  0  0  0  0  0  0  0
   -7.6037    6.8344   -0.9894 C   0  0  0  0  0  0  0  0  0  0  0  0
   -6.3919    6.1494   -0.9123 C   0  0  0  0  0  0  0  0  0  0  0  0
   -6.2083    5.1974    0.0908 C   0  0  0  0  0  0  0  0  0  0  0  0
   -7.0454    4.2142    1.8080 H   0  0  0  0  0  0  0  0  0  0  0  0
   -9.2077    5.4342    1.6559 H   0  0  0  0  0  0  0  0  0  0  0  0
   -7.7460    7.5815   -1.7666 H   0  0  0  0  0  0  0  0  0  0  0  0
   -5.5849    6.3592   -1.6061 H   0  0  0  0  0  0  0  0  0  0  0  0
   -4.6673    4.2844    0.1746 S   0  0  0  0  0  0  0  0  0  0  0  0
   -4.4944    3.8223    1.5659 O   0  0  0  0  0  0  0  0  0  0  0  0
   -3.6183    5.1368   -0.4117 O   0  0  0  0  0  0  0  0  0  0  0  0
   -4.8900    3.0591   -0.7644 O   0  0  0  0  0  0  0  0  0  0  0  0
   -9.9597    7.3088   -0.1850 C   0  0  0  0  0  0  0  0  0  0  0  0
  -10.6950    6.7094   -0.7368 H   0  0  0  0  0  0  0  0  0  0  0  0
  -10.3846    7.5142    0.8021 H   0  0  0  0  0  0  0  0  0  0  0  0
   -9.8528    8.2607   -0.7131 H   0  0  0  0  0  0  0  0  0  0  0  0
  1  2  1  0  0  0  0
  1  8  2  0  0  0  0
  3  2  2  0  0  0  0
  4  1  1  0  0  0  0
  5  4  2  0  0  0  0
  5  6  1  0  0  0  0
  6  7  2  0  0  0  0
  7  8  1  0  0  0  0
  7 12  1  0  0  0  0
  8 13  1  0  0  0  0
  9  4  1  0  0  0  0
 10  5  1  0  0  0  0
 11  6  1  0  0  0  0
 14 20  1  0  0  0  0
 15 14  1  0  0  0  0
 15 21  1  0  0  0  0
 16 15  2  0  0  0  0
 17 18  2  0  0  0  0
 17 16  1  0  0  0  0
 18 19  1  0  0  0  0
 19 24  1  0  0  0  0
 19 14  2  0  0  0  0
 22 17  1  0  0  0  0
 23 18  1  0  0  0  0
 24 25  1  0  0  0  0
 26 24  2  0  0  0  0
 27 24  2  0  0  0  0
 28 16  1  0  0  0  0
 28 30  1  0  0  0  0
 29 28  1  0  0  0  0
 31 28  1  0  0  0  0
M  RAD  2   3   2  25   2
M  END
