Coordinates from ORCA-job PhN2+~TsO-_B3LYPG-6-31G_dp-CH-Scan-d09-49-n800
 OpenBabel11261919273D

 31 31  0  0  0  0  0  0  0  0999 V2000
   -2.0532    0.5133    0.0904 C   0  0  0  0  0  0  0  0  0  0  0  0
   -3.4275    0.4601    0.3175 N   0  0  0  0  0  0  0  0  0  0  0  0
   -4.5316    0.4623    0.4897 N   0  0  0  0  0  0  0  0  0  0  0  0
   -1.5879    1.7926   -0.2570 C   0  0  0  0  0  0  0  0  0  0  0  0
   -0.1820    1.7415   -0.4734 C   0  0  0  0  0  0  0  0  0  0  0  0
    0.5830    0.5853   -0.3515 C   0  0  0  0  0  0  0  0  0  0  0  0
    0.0014   -0.6545    0.0084 C   0  0  0  0  0  0  0  0  0  0  0  0
   -1.3547   -0.7155    0.2409 C   0  0  0  0  0  0  0  0  0  0  0  0
   -3.3896    4.3634   -0.4887 H   0  0  0  0  0  0  0  0  0  0  0  0
    0.3379    2.6584   -0.7537 H   0  0  0  0  0  0  0  0  0  0  0  0
    1.6556    0.6208   -0.5358 H   0  0  0  0  0  0  0  0  0  0  0  0
    0.6150   -1.5450    0.1002 H   0  0  0  0  0  0  0  0  0  0  0  0
   -1.8559   -1.6383    0.5206 H   0  0  0  0  0  0  0  0  0  0  0  0
   -7.1291    5.6544    1.1057 C   0  0  0  0  0  0  0  0  0  0  0  0
   -8.1791    6.5700    1.0843 C   0  0  0  0  0  0  0  0  0  0  0  0
   -8.8660    6.8584   -0.1034 C   0  0  0  0  0  0  0  0  0  0  0  0
   -8.4828    6.1943   -1.2789 C   0  0  0  0  0  0  0  0  0  0  0  0
   -7.4369    5.2756   -1.2786 C   0  0  0  0  0  0  0  0  0  0  0  0
   -6.7655    5.0199   -0.0818 C   0  0  0  0  0  0  0  0  0  0  0  0
   -6.6051    5.4207    2.0257 H   0  0  0  0  0  0  0  0  0  0  0  0
   -8.4731    7.0653    2.0054 H   0  0  0  0  0  0  0  0  0  0  0  0
   -9.0142    6.3965   -2.2051 H   0  0  0  0  0  0  0  0  0  0  0  0
   -7.1490    4.7518   -2.1833 H   0  0  0  0  0  0  0  0  0  0  0  0
   -5.4288    3.8446   -0.0670 S   0  0  0  0  0  0  0  0  0  0  0  0
   -5.2295    3.3423    1.2934 O   0  0  0  0  0  0  0  0  0  0  0  0
   -4.2174    4.8789   -0.4373 O   0  0  0  0  0  0  0  0  0  0  0  0
   -5.5944    2.8927   -1.1663 O   0  0  0  0  0  0  0  0  0  0  0  0
   -9.9815    7.8750   -0.1248 C   0  0  0  0  0  0  0  0  0  0  0  0
  -10.7781    7.5801   -0.8142 H   0  0  0  0  0  0  0  0  0  0  0  0
  -10.4200    8.0108    0.8674 H   0  0  0  0  0  0  0  0  0  0  0  0
   -9.6115    8.8531   -0.4565 H   0  0  0  0  0  0  0  0  0  0  0  0
  1  8  1  0  0  0  0
  1  2  1  0  0  0  0
  2  3  1  0  0  0  0
  4  1  2  0  0  0  0
  5  6  2  0  0  0  0
  5  4  1  0  0  0  0
  6  7  1  0  0  0  0
  7 12  1  0  0  0  0
  7  8  2  0  0  0  0
  8 13  1  0  0  0  0
  9 26  1  0  0  0  0
 10  5  1  0  0  0  0
 11  6  1  0  0  0  0
 14 20  1  0  0  0  0
 15 14  1  0  0  0  0
 15 21  1  0  0  0  0
 16 15  2  0  0  0  0
 17 18  2  0  0  0  0
 17 16  1  0  0  0  0
 18 19  1  0  0  0  0
 19 24  1  0  0  0  0
 19 14  2  0  0  0  0
 22 17  1  0  0  0  0
 23 18  1  0  0  0  0
 24 25  2  0  0  0  0
 26 24  1  0  0  0  0
 27 24  2  0  0  0  0
 28 16  1  0  0  0  0
 28 30  1  0  0  0  0
 29 28  1  0  0  0  0
 31 28  1  0  0  0  0
M  RAD  3   2   2   3   3   4   2
M  END
