Coordinates from ORCA-job PhN2+~TsO-_B3LYPG-6-31G_dp-CH-Scan-d09-49-n800
 OpenBabel11261919283D

 31 31  0  0  0  0  0  0  0  0999 V2000
   -2.2117    0.4582   -0.7987 C   0  0  0  0  0  0  0  0  0  0  0  0
   -3.4150    0.0645   -1.3929 N   0  0  0  0  0  0  0  0  0  0  0  0
   -4.3292   -0.2930   -1.9278 N   0  0  0  0  0  0  0  0  0  0  0  0
   -1.0996   -0.0703   -1.4689 C   0  0  0  0  0  0  0  0  0  0  0  0
    0.0881    0.3892   -0.8233 C   0  0  0  0  0  0  0  0  0  0  0  0
    0.0973    1.2270    0.2865 C   0  0  0  0  0  0  0  0  0  0  0  0
   -1.1052    1.6839    0.8847 C   0  0  0  0  0  0  0  0  0  0  0  0
   -2.3135    1.2980    0.3444 C   0  0  0  0  0  0  0  0  0  0  0  0
   -3.0867    4.1324   -0.0348 H   0  0  0  0  0  0  0  0  0  0  0  0
    1.0541    0.0698   -1.2170 H   0  0  0  0  0  0  0  0  0  0  0  0
    1.0438    1.5419    0.7233 H   0  0  0  0  0  0  0  0  0  0  0  0
   -1.0730    2.3130    1.7693 H   0  0  0  0  0  0  0  0  0  0  0  0
   -3.2720    1.5959    0.7572 H   0  0  0  0  0  0  0  0  0  0  0  0
   -7.2725    4.4308    0.6938 C   0  0  0  0  0  0  0  0  0  0  0  0
   -8.3639    5.2152    1.0545 C   0  0  0  0  0  0  0  0  0  0  0  0
   -8.6611    6.4051    0.3720 C   0  0  0  0  0  0  0  0  0  0  0  0
   -7.8308    6.7960   -0.6881 C   0  0  0  0  0  0  0  0  0  0  0  0
   -6.7313    6.0276   -1.0640 C   0  0  0  0  0  0  0  0  0  0  0  0
   -6.4634    4.8519   -0.3631 C   0  0  0  0  0  0  0  0  0  0  0  0
   -7.0525    3.5044    1.2124 H   0  0  0  0  0  0  0  0  0  0  0  0
   -8.9985    4.8980    1.8779 H   0  0  0  0  0  0  0  0  0  0  0  0
   -8.0480    7.7129   -1.2285 H   0  0  0  0  0  0  0  0  0  0  0  0
   -6.0950    6.3236   -1.8909 H   0  0  0  0  0  0  0  0  0  0  0  0
   -5.0662    3.8639   -0.8379 S   0  0  0  0  0  0  0  0  0  0  0  0
   -5.2943    2.4689   -0.4481 O   0  0  0  0  0  0  0  0  0  0  0  0
   -3.9570    4.5064    0.1955 O   0  0  0  0  0  0  0  0  0  0  0  0
   -4.6568    4.1773   -2.2045 O   0  0  0  0  0  0  0  0  0  0  0  0
   -9.8677    7.2267    0.7543 C   0  0  0  0  0  0  0  0  0  0  0  0
  -10.7790    6.8088    0.3100 H   0  0  0  0  0  0  0  0  0  0  0  0
  -10.0138    7.2417    1.8386 H   0  0  0  0  0  0  0  0  0  0  0  0
   -9.7772    8.2591    0.4066 H   0  0  0  0  0  0  0  0  0  0  0  0
  1  8  2  0  0  0  0
  2  1  1  0  0  0  0
  3  2  1  0  0  0  0
  4  5  2  0  0  0  0
  4  1  1  0  0  0  0
  5  6  1  0  0  0  0
  6 11  1  0  0  0  0
  6  7  2  0  0  0  0
  7 12  1  0  0  0  0
  8 13  1  0  0  0  0
  8  7  1  0  0  0  0
  9 26  1  0  0  0  0
 10  5  1  0  0  0  0
 14 15  1  0  0  0  0
 14 20  1  0  0  0  0
 15 21  1  0  0  0  0
 16 28  1  0  0  0  0
 16 15  2  0  0  0  0
 17 16  1  0  0  0  0
 18 17  2  0  0  0  0
 18 19  1  0  0  0  0
 19 14  2  0  0  0  0
 22 17  1  0  0  0  0
 23 18  1  0  0  0  0
 24 25  2  0  0  0  0
 24 19  1  0  0  0  0
 24 26  1  0  0  0  0
 27 24  2  0  0  0  0
 28 30  1  0  0  0  0
 29 28  1  0  0  0  0
 31 28  1  0  0  0  0
M  RAD  3   2   2   3   3   4   2
M  END
