Coordinates from ORCA-job PhN2+~TsO-_B3LYPG-6-31G_dp-CH-Scan-d09-49-n800
 OpenBabel11261919273D

 31 31  0  0  0  0  0  0  0  0999 V2000
   -2.1717    0.5748    0.1052 C   0  0  0  0  0  0  0  0  0  0  0  0
   -3.5246    0.3727    0.3634 N   0  0  0  0  0  0  0  0  0  0  0  0
   -4.6163    0.2483    0.5633 N   0  0  0  0  0  0  0  0  0  0  0  0
   -1.8357    1.8975   -0.2323 C   0  0  0  0  0  0  0  0  0  0  0  0
   -0.4401    1.9949   -0.4788 C   0  0  0  0  0  0  0  0  0  0  0  0
    0.4391    0.9192   -0.3912 C   0  0  0  0  0  0  0  0  0  0  0  0
   -0.0082   -0.3761   -0.0402 C   0  0  0  0  0  0  0  0  0  0  0  0
   -1.3462   -0.5761    0.2190 C   0  0  0  0  0  0  0  0  0  0  0  0
   -3.4698    3.8395   -0.3745 H   0  0  0  0  0  0  0  0  0  0  0  0
   -0.0241    2.9635   -0.7551 H   0  0  0  0  0  0  0  0  0  0  0  0
    1.4980    1.0656   -0.5967 H   0  0  0  0  0  0  0  0  0  0  0  0
    0.6921   -1.2025    0.0243 H   0  0  0  0  0  0  0  0  0  0  0  0
   -1.7455   -1.5483    0.4937 H   0  0  0  0  0  0  0  0  0  0  0  0
   -7.1021    5.5228    1.1179 C   0  0  0  0  0  0  0  0  0  0  0  0
   -8.0605    6.5333    1.0722 C   0  0  0  0  0  0  0  0  0  0  0  0
   -8.6947    6.8777   -0.1297 C   0  0  0  0  0  0  0  0  0  0  0  0
   -8.3536    6.1729   -1.2944 C   0  0  0  0  0  0  0  0  0  0  0  0
   -7.3995    5.1593   -1.2690 C   0  0  0  0  0  0  0  0  0  0  0  0
   -6.7773    4.8488   -0.0588 C   0  0  0  0  0  0  0  0  0  0  0  0
   -6.6199    5.2465    2.0488 H   0  0  0  0  0  0  0  0  0  0  0  0
   -8.3242    7.0599    1.9853 H   0  0  0  0  0  0  0  0  0  0  0  0
   -8.8461    6.4181   -2.2316 H   0  0  0  0  0  0  0  0  0  0  0  0
   -7.1457    4.6042   -2.1654 H   0  0  0  0  0  0  0  0  0  0  0  0
   -5.5578    3.5516   -0.0126 S   0  0  0  0  0  0  0  0  0  0  0  0
   -5.4346    3.0435    1.3572 O   0  0  0  0  0  0  0  0  0  0  0  0
   -4.2505    4.4427   -0.3742 O   0  0  0  0  0  0  0  0  0  0  0  0
   -5.8111    2.5996   -1.0973 O   0  0  0  0  0  0  0  0  0  0  0  0
   -9.7091    7.9945   -0.1769 C   0  0  0  0  0  0  0  0  0  0  0  0
  -10.5205    7.7693   -0.8754 H   0  0  0  0  0  0  0  0  0  0  0  0
  -10.1470    8.1807    0.8073 H   0  0  0  0  0  0  0  0  0  0  0  0
   -9.2445    8.9303   -0.5113 H   0  0  0  0  0  0  0  0  0  0  0  0
  1  8  1  0  0  0  0
  1  2  1  0  0  0  0
  2  3  1  0  0  0  0
  4  1  2  0  0  0  0
  5  6  2  0  0  0  0
  5  4  1  0  0  0  0
  6  7  1  0  0  0  0
  7 12  1  0  0  0  0
  7  8  2  0  0  0  0
  8 13  1  0  0  0  0
  9 26  1  0  0  0  0
 10  5  1  0  0  0  0
 11  6  1  0  0  0  0
 14 20  1  0  0  0  0
 15 14  1  0  0  0  0
 15 21  1  0  0  0  0
 16 15  2  0  0  0  0
 17 18  2  0  0  0  0
 17 16  1  0  0  0  0
 18 19  1  0  0  0  0
 19 24  1  0  0  0  0
 19 14  2  0  0  0  0
 22 17  1  0  0  0  0
 23 18  1  0  0  0  0
 24 25  2  0  0  0  0
 26 24  1  0  0  0  0
 27 24  2  0  0  0  0
 28 16  1  0  0  0  0
 28 30  1  0  0  0  0
 29 28  1  0  0  0  0
 31 28  1  0  0  0  0
M  RAD  3   2   2   3   3   4   2
M  END
