Coordinates from ORCA-job PhN2+~TsO-_B3LYPG-6-31G_dp-CH-Scan-d09-49-n800
 OpenBabel11261919283D

 31 31  0  0  0  0  0  0  0  0999 V2000
   -1.8942    0.4765    0.0734 C   0  0  0  0  0  0  0  0  0  0  0  0
   -3.2604    0.7012    0.2593 N   0  0  0  0  0  0  0  0  0  0  0  0
   -4.3460    0.9299    0.3988 N   0  0  0  0  0  0  0  0  0  0  0  0
   -1.1902    1.6371   -0.2812 C   0  0  0  0  0  0  0  0  0  0  0  0
    0.1874    1.3089   -0.4506 C   0  0  0  0  0  0  0  0  0  0  0  0
    0.7121    0.0312   -0.2843 C   0  0  0  0  0  0  0  0  0  0  0  0
   -0.1070   -1.0671    0.0778 C   0  0  0  0  0  0  0  0  0  0  0  0
   -1.4551   -0.8618    0.2684 C   0  0  0  0  0  0  0  0  0  0  0  0
   -3.3044    5.2731   -0.7692 H   0  0  0  0  0  0  0  0  0  0  0  0
    0.8835    2.1019   -0.7294 H   0  0  0  0  0  0  0  0  0  0  0  0
    1.7765   -0.1450   -0.4344 H   0  0  0  0  0  0  0  0  0  0  0  0
    0.3223   -2.0560    0.2040 H   0  0  0  0  0  0  0  0  0  0  0  0
   -2.1330   -1.6643    0.5474 H   0  0  0  0  0  0  0  0  0  0  0  0
   -7.1562    5.8253    1.0946 C   0  0  0  0  0  0  0  0  0  0  0  0
   -8.3527    6.5398    1.1167 C   0  0  0  0  0  0  0  0  0  0  0  0
   -9.0924    6.7523   -0.0547 C   0  0  0  0  0  0  0  0  0  0  0  0
   -8.6091    6.2194   -1.2602 C   0  0  0  0  0  0  0  0  0  0  0  0
   -7.4168    5.5030   -1.3039 C   0  0  0  0  0  0  0  0  0  0  0  0
   -6.6985    5.3185   -0.1209 C   0  0  0  0  0  0  0  0  0  0  0  0
   -6.5894    5.6490    2.0021 H   0  0  0  0  0  0  0  0  0  0  0  0
   -8.7197    6.9350    2.0595 H   0  0  0  0  0  0  0  0  0  0  0  0
   -9.1775    6.3639   -2.1751 H   0  0  0  0  0  0  0  0  0  0  0  0
   -7.0507    5.0790   -2.2322 H   0  0  0  0  0  0  0  0  0  0  0  0
   -5.1756    4.3997   -0.1622 S   0  0  0  0  0  0  0  0  0  0  0  0
   -4.8582    3.9154    1.1795 O   0  0  0  0  0  0  0  0  0  0  0  0
   -4.1713    5.6480   -0.5331 O   0  0  0  0  0  0  0  0  0  0  0  0
   -5.1797    3.4689   -1.2911 O   0  0  0  0  0  0  0  0  0  0  0  0
  -10.3739    7.5500   -0.0284 C   0  0  0  0  0  0  0  0  0  0  0  0
  -11.1340    7.1053   -0.6779 H   0  0  0  0  0  0  0  0  0  0  0  0
  -10.7840    7.6167    0.9827 H   0  0  0  0  0  0  0  0  0  0  0  0
  -10.2036    8.5739   -0.3833 H   0  0  0  0  0  0  0  0  0  0  0  0
  1  2  1  0  0  0  0
  1  8  1  0  0  0  0
  2  3  1  0  0  0  0
  4  1  2  0  0  0  0
  5  6  2  0  0  0  0
  5  4  1  0  0  0  0
  6  7  1  0  0  0  0
  7 12  1  0  0  0  0
  7  8  2  0  0  0  0
  8 13  1  0  0  0  0
  9 26  1  0  0  0  0
 10  5  1  0  0  0  0
 11  6  1  0  0  0  0
 14 15  1  0  0  0  0
 14 20  1  0  0  0  0
 15 21  1  0  0  0  0
 16 28  1  0  0  0  0
 16 15  2  0  0  0  0
 17 16  1  0  0  0  0
 18 17  2  0  0  0  0
 18 19  1  0  0  0  0
 19 14  2  0  0  0  0
 22 17  1  0  0  0  0
 23 18  1  0  0  0  0
 24 19  1  0  0  0  0
 24 25  2  0  0  0  0
 26 24  1  0  0  0  0
 27 24  2  0  0  0  0
 28 30  1  0  0  0  0
 29 28  1  0  0  0  0
 31 28  1  0  0  0  0
M  RAD  3   2   2   3   3   4   2
M  END
