Coordinates from ORCA-job PhN2+~TsO-_B3LYPG-6-31G_dp-CH-Scan-d09-49-n800
 OpenBabel11261919283D

 31 31  0  0  0  0  0  0  0  0999 V2000
   -2.2202    0.4629   -0.8028 C   0  0  0  0  0  0  0  0  0  0  0  0
   -3.4168    0.0500   -1.3979 N   0  0  0  0  0  0  0  0  0  0  0  0
   -4.3247   -0.3206   -1.9343 N   0  0  0  0  0  0  0  0  0  0  0  0
   -1.0989   -0.0295   -1.4847 C   0  0  0  0  0  0  0  0  0  0  0  0
    0.0805    0.4503   -0.8382 C   0  0  0  0  0  0  0  0  0  0  0  0
    0.0748    1.2745    0.2816 C   0  0  0  0  0  0  0  0  0  0  0  0
   -1.1357    1.6932    0.8920 C   0  0  0  0  0  0  0  0  0  0  0  0
   -2.3369    1.2839    0.3526 C   0  0  0  0  0  0  0  0  0  0  0  0
   -3.0987    4.0478    0.0064 H   0  0  0  0  0  0  0  0  0  0  0  0
    1.0520    0.1590   -1.2400 H   0  0  0  0  0  0  0  0  0  0  0  0
    1.0154    1.6075    0.7176 H   0  0  0  0  0  0  0  0  0  0  0  0
   -1.1145    2.3096    1.7859 H   0  0  0  0  0  0  0  0  0  0  0  0
   -3.3003    1.5504    0.7755 H   0  0  0  0  0  0  0  0  0  0  0  0
   -7.2665    4.4258    0.6982 C   0  0  0  0  0  0  0  0  0  0  0  0
   -8.3516    5.2192    1.0585 C   0  0  0  0  0  0  0  0  0  0  0  0
   -8.6431    6.4077    0.3711 C   0  0  0  0  0  0  0  0  0  0  0  0
   -7.8136    6.7879   -0.6935 C   0  0  0  0  0  0  0  0  0  0  0  0
   -6.7205    6.0102   -1.0692 C   0  0  0  0  0  0  0  0  0  0  0  0
   -6.4580    4.8363   -0.3634 C   0  0  0  0  0  0  0  0  0  0  0  0
   -7.0510    3.5006    1.2209 H   0  0  0  0  0  0  0  0  0  0  0  0
   -8.9855    4.9104    1.8855 H   0  0  0  0  0  0  0  0  0  0  0  0
   -8.0262    7.7037   -1.2376 H   0  0  0  0  0  0  0  0  0  0  0  0
   -6.0846    6.2979   -1.8994 H   0  0  0  0  0  0  0  0  0  0  0  0
   -5.0689    3.8366   -0.8379 S   0  0  0  0  0  0  0  0  0  0  0  0
   -5.3073    2.4427   -0.4485 O   0  0  0  0  0  0  0  0  0  0  0  0
   -3.9568    4.4697    0.1973 O   0  0  0  0  0  0  0  0  0  0  0  0
   -4.6594    4.1466   -2.2050 O   0  0  0  0  0  0  0  0  0  0  0  0
   -9.8432    7.2391    0.7526 C   0  0  0  0  0  0  0  0  0  0  0  0
  -10.7559    6.8353    0.2983 H   0  0  0  0  0  0  0  0  0  0  0  0
   -9.9966    7.2464    1.8359 H   0  0  0  0  0  0  0  0  0  0  0  0
   -9.7390    8.2735    0.4145 H   0  0  0  0  0  0  0  0  0  0  0  0
  1  8  2  0  0  0  0
  2  1  1  0  0  0  0
  3  2  1  0  0  0  0
  4  5  2  0  0  0  0
  4  1  1  0  0  0  0
  5  6  1  0  0  0  0
  6 11  1  0  0  0  0
  6  7  2  0  0  0  0
  7 12  1  0  0  0  0
  8 13  1  0  0  0  0
  8  7  1  0  0  0  0
  9 26  1  0  0  0  0
 10  5  1  0  0  0  0
 14 15  1  0  0  0  0
 14 20  1  0  0  0  0
 15 21  1  0  0  0  0
 16 28  1  0  0  0  0
 16 15  2  0  0  0  0
 17 16  1  0  0  0  0
 18 17  2  0  0  0  0
 18 19  1  0  0  0  0
 19 14  2  0  0  0  0
 22 17  1  0  0  0  0
 23 18  1  0  0  0  0
 24 25  2  0  0  0  0
 24 19  1  0  0  0  0
 24 26  1  0  0  0  0
 27 24  2  0  0  0  0
 28 30  1  0  0  0  0
 29 28  1  0  0  0  0
 31 28  1  0  0  0  0
M  RAD  3   2   2   3   3   4   2
M  END
