Coordinates from ORCA-job PhN2+~TsO-_B3LYPG-6-31G_dp-CH-Scan-d09-49-n800
 OpenBabel11261919273D

 31 31  0  0  0  0  0  0  0  0999 V2000
   -1.9683    0.4898    0.0975 C   0  0  0  0  0  0  0  0  0  0  0  0
   -3.3405    0.5874    0.3352 N   0  0  0  0  0  0  0  0  0  0  0  0
   -4.4373    0.7125    0.5109 N   0  0  0  0  0  0  0  0  0  0  0  0
   -1.3801    1.7112   -0.2655 C   0  0  0  0  0  0  0  0  0  0  0  0
    0.0124    1.5088   -0.4915 C   0  0  0  0  0  0  0  0  0  0  0  0
    0.6531    0.2803   -0.3647 C   0  0  0  0  0  0  0  0  0  0  0  0
   -0.0519   -0.8894    0.0119 C   0  0  0  0  0  0  0  0  0  0  0  0
   -1.4045   -0.8058    0.2556 C   0  0  0  0  0  0  0  0  0  0  0  0
   -3.3141    4.8728   -0.5678 H   0  0  0  0  0  0  0  0  0  0  0  0
    0.6246    2.3632   -0.7847 H   0  0  0  0  0  0  0  0  0  0  0  0
    1.7220    0.2007   -0.5580 H   0  0  0  0  0  0  0  0  0  0  0  0
    0.4668   -1.8381    0.1076 H   0  0  0  0  0  0  0  0  0  0  0  0
   -1.9979   -1.6681    0.5485 H   0  0  0  0  0  0  0  0  0  0  0  0
   -7.1604    5.7521    1.1122 C   0  0  0  0  0  0  0  0  0  0  0  0
   -8.2956    6.5602    1.0975 C   0  0  0  0  0  0  0  0  0  0  0  0
   -8.9971    6.8038   -0.0915 C   0  0  0  0  0  0  0  0  0  0  0  0
   -8.5396    6.2053   -1.2759 C   0  0  0  0  0  0  0  0  0  0  0  0
   -7.4081    5.3948   -1.2826 C   0  0  0  0  0  0  0  0  0  0  0  0
   -6.7255    5.1818   -0.0836 C   0  0  0  0  0  0  0  0  0  0  0  0
   -6.6239    5.5525    2.0333 H   0  0  0  0  0  0  0  0  0  0  0  0
   -8.6448    7.0052    2.0248 H   0  0  0  0  0  0  0  0  0  0  0  0
   -9.0801    6.3732   -2.2036 H   0  0  0  0  0  0  0  0  0  0  0  0
   -7.0622    4.9212   -2.1945 H   0  0  0  0  0  0  0  0  0  0  0  0
   -5.2791    4.1454   -0.0785 S   0  0  0  0  0  0  0  0  0  0  0  0
   -5.0320    3.6511    1.2754 O   0  0  0  0  0  0  0  0  0  0  0  0
   -4.1754    5.3073   -0.4334 O   0  0  0  0  0  0  0  0  0  0  0  0
   -5.3375    3.2015   -1.1948 O   0  0  0  0  0  0  0  0  0  0  0  0
  -10.2081    7.7050   -0.1058 C   0  0  0  0  0  0  0  0  0  0  0  0
  -10.9811    7.3250   -0.7807 H   0  0  0  0  0  0  0  0  0  0  0  0
  -10.6441    7.8070    0.8915 H   0  0  0  0  0  0  0  0  0  0  0  0
   -9.9414    8.7109   -0.4528 H   0  0  0  0  0  0  0  0  0  0  0  0
  1  8  1  0  0  0  0
  1  2  1  0  0  0  0
  2  3  1  0  0  0  0
  4  1  2  0  0  0  0
  5  6  2  0  0  0  0
  5  4  1  0  0  0  0
  6  7  1  0  0  0  0
  7 12  1  0  0  0  0
  7  8  2  0  0  0  0
  8 13  1  0  0  0  0
  9 26  1  0  0  0  0
 10  5  1  0  0  0  0
 11  6  1  0  0  0  0
 14 20  1  0  0  0  0
 15 14  1  0  0  0  0
 15 21  1  0  0  0  0
 16 15  2  0  0  0  0
 17 16  1  0  0  0  0
 18 17  2  0  0  0  0
 18 19  1  0  0  0  0
 19 24  1  0  0  0  0
 19 14  2  0  0  0  0
 22 17  1  0  0  0  0
 23 18  1  0  0  0  0
 24 25  2  0  0  0  0
 26 24  1  0  0  0  0
 27 24  2  0  0  0  0
 28 16  1  0  0  0  0
 28 30  1  0  0  0  0
 29 28  1  0  0  0  0
 31 28  1  0  0  0  0
M  RAD  3   2   2   3   3   4   2
M  END
