Coordinates from ORCA-job PhN2+~TsO-_B3LYPG-6-31G_dp-CH-Scan-d09-49-n800
 OpenBabel11261919273D

 31 31  0  0  0  0  0  0  0  0999 V2000
   -2.0242    0.5051    0.0910 C   0  0  0  0  0  0  0  0  0  0  0  0
   -3.4002    0.4905    0.3185 N   0  0  0  0  0  0  0  0  0  0  0  0
   -4.5039    0.5218    0.4912 N   0  0  0  0  0  0  0  0  0  0  0  0
   -1.5247    1.7695   -0.2607 C   0  0  0  0  0  0  0  0  0  0  0  0
   -0.1205    1.6771   -0.4783 C   0  0  0  0  0  0  0  0  0  0  0  0
    0.6116    0.5002   -0.3533 C   0  0  0  0  0  0  0  0  0  0  0  0
   -0.0045   -0.7215    0.0117 C   0  0  0  0  0  0  0  0  0  0  0  0
   -1.3614   -0.7431    0.2456 C   0  0  0  0  0  0  0  0  0  0  0  0
   -3.3720    4.4963   -0.5079 H   0  0  0  0  0  0  0  0  0  0  0  0
    0.4253    2.5779   -0.7623 H   0  0  0  0  0  0  0  0  0  0  0  0
    1.6847    0.5046   -0.5389 H   0  0  0  0  0  0  0  0  0  0  0  0
    0.5839   -1.6287    0.1060 H   0  0  0  0  0  0  0  0  0  0  0  0
   -1.8884   -1.6504    0.5290 H   0  0  0  0  0  0  0  0  0  0  0  0
   -7.1413    5.6826    1.1067 C   0  0  0  0  0  0  0  0  0  0  0  0
   -8.2133    6.5725    1.0878 C   0  0  0  0  0  0  0  0  0  0  0  0
   -8.9053    6.8494   -0.0997 C   0  0  0  0  0  0  0  0  0  0  0  0
   -8.5041    6.2004   -1.2777 C   0  0  0  0  0  0  0  0  0  0  0  0
   -7.4360    5.3076   -1.2799 C   0  0  0  0  0  0  0  0  0  0  0  0
   -6.7604    5.0629   -0.0832 C   0  0  0  0  0  0  0  0  0  0  0  0
   -6.6131    5.4576    2.0266 H   0  0  0  0  0  0  0  0  0  0  0  0
   -8.5206    7.0562    2.0106 H   0  0  0  0  0  0  0  0  0  0  0  0
   -9.0388    6.3938   -2.2037 H   0  0  0  0  0  0  0  0  0  0  0  0
   -7.1340    4.7954   -2.1866 H   0  0  0  0  0  0  0  0  0  0  0  0
   -5.3954    3.9209   -0.0718 S   0  0  0  0  0  0  0  0  0  0  0  0
   -5.1834    3.4193    1.2864 O   0  0  0  0  0  0  0  0  0  0  0  0
   -4.2105    4.9898   -0.4377 O   0  0  0  0  0  0  0  0  0  0  0  0
   -5.5342    2.9708   -1.1760 O   0  0  0  0  0  0  0  0  0  0  0  0
  -10.0455    7.8383   -0.1184 C   0  0  0  0  0  0  0  0  0  0  0  0
  -10.8375    7.5222   -0.8039 H   0  0  0  0  0  0  0  0  0  0  0  0
  -10.4831    7.9653    0.8753 H   0  0  0  0  0  0  0  0  0  0  0  0
   -9.7011    8.8243   -0.4540 H   0  0  0  0  0  0  0  0  0  0  0  0
  1  8  1  0  0  0  0
  1  2  1  0  0  0  0
  2  3  1  0  0  0  0
  4  1  2  0  0  0  0
  5  6  2  0  0  0  0
  5  4  1  0  0  0  0
  6  7  1  0  0  0  0
  7 12  1  0  0  0  0
  7  8  2  0  0  0  0
  8 13  1  0  0  0  0
  9 26  1  0  0  0  0
 10  5  1  0  0  0  0
 11  6  1  0  0  0  0
 14 20  1  0  0  0  0
 15 14  1  0  0  0  0
 15 21  1  0  0  0  0
 16 15  2  0  0  0  0
 17 16  1  0  0  0  0
 18 17  2  0  0  0  0
 18 19  1  0  0  0  0
 19 24  1  0  0  0  0
 19 14  2  0  0  0  0
 22 17  1  0  0  0  0
 23 18  1  0  0  0  0
 24 25  2  0  0  0  0
 26 24  1  0  0  0  0
 27 24  2  0  0  0  0
 28 16  1  0  0  0  0
 28 30  1  0  0  0  0
 29 28  1  0  0  0  0
 31 28  1  0  0  0  0
M  RAD  3   2   2   3   3   4   2
M  END
