Coordinates from ORCA-job PhN2+~TsO-_B3LYPG-6-31G_dp-CH-Scan-d09-49-n800
 OpenBabel11261919273D

 31 31  0  0  0  0  0  0  0  0999 V2000
   -2.2111    0.5950    0.1135 C   0  0  0  0  0  0  0  0  0  0  0  0
   -3.5548    0.3547    0.3847 N   0  0  0  0  0  0  0  0  0  0  0  0
   -4.6406    0.2005    0.5946 N   0  0  0  0  0  0  0  0  0  0  0  0
   -1.9107    1.9264   -0.2249 C   0  0  0  0  0  0  0  0  0  0  0  0
   -0.5216    2.0610   -0.4857 C   0  0  0  0  0  0  0  0  0  0  0  0
    0.3861    1.0082   -0.4094 C   0  0  0  0  0  0  0  0  0  0  0  0
   -0.0240   -0.2983   -0.0564 C   0  0  0  0  0  0  0  0  0  0  0  0
   -1.3538   -0.5331    0.2160 C   0  0  0  0  0  0  0  0  0  0  0  0
   -3.4817    3.7127   -0.3433 H   0  0  0  0  0  0  0  0  0  0  0  0
   -0.1346    3.0406   -0.7641 H   0  0  0  0  0  0  0  0  0  0  0  0
    1.4385    1.1826   -0.6256 H   0  0  0  0  0  0  0  0  0  0  0  0
    0.6977   -1.1067   -0.0006 H   0  0  0  0  0  0  0  0  0  0  0  0
   -1.7249   -1.5158    0.4928 H   0  0  0  0  0  0  0  0  0  0  0  0
   -7.0935    5.4844    1.1230 C   0  0  0  0  0  0  0  0  0  0  0  0
   -8.0299    6.5151    1.0699 C   0  0  0  0  0  0  0  0  0  0  0  0
   -8.6449    6.8748   -0.1374 C   0  0  0  0  0  0  0  0  0  0  0  0
   -8.3074    6.1647   -1.2998 C   0  0  0  0  0  0  0  0  0  0  0  0
   -7.3751    5.1311   -1.2669 C   0  0  0  0  0  0  0  0  0  0  0  0
   -6.7713    4.8054   -0.0514 C   0  0  0  0  0  0  0  0  0  0  0  0
   -6.6262    5.1964    2.0580 H   0  0  0  0  0  0  0  0  0  0  0  0
   -8.2913    7.0456    1.9814 H   0  0  0  0  0  0  0  0  0  0  0  0
   -8.7854    6.4216   -2.2414 H   0  0  0  0  0  0  0  0  0  0  0  0
   -7.1245    4.5721   -2.1617 H   0  0  0  0  0  0  0  0  0  0  0  0
   -5.5790    3.4829    0.0042 S   0  0  0  0  0  0  0  0  0  0  0  0
   -5.4793    2.9727    1.3760 O   0  0  0  0  0  0  0  0  0  0  0  0
   -4.2516    4.3383   -0.3492 O   0  0  0  0  0  0  0  0  0  0  0  0
   -5.8493    2.5326   -1.0789 O   0  0  0  0  0  0  0  0  0  0  0  0
   -9.6354    8.0125   -0.1925 C   0  0  0  0  0  0  0  0  0  0  0  0
  -10.4490    7.8017   -0.8931 H   0  0  0  0  0  0  0  0  0  0  0  0
  -10.0729    8.2116    0.7893 H   0  0  0  0  0  0  0  0  0  0  0  0
   -9.1503    8.9372   -0.5288 H   0  0  0  0  0  0  0  0  0  0  0  0
  1  8  1  0  0  0  0
  1  2  1  0  0  0  0
  2  3  1  0  0  0  0
  4  1  2  0  0  0  0
  5  6  2  0  0  0  0
  5  4  1  0  0  0  0
  6  7  1  0  0  0  0
  7 12  1  0  0  0  0
  7  8  2  0  0  0  0
  8 13  1  0  0  0  0
 10  5  1  0  0  0  0
 11  6  1  0  0  0  0
 14 20  1  0  0  0  0
 15 14  1  0  0  0  0
 15 21  1  0  0  0  0
 16 15  2  0  0  0  0
 17 18  2  0  0  0  0
 17 16  1  0  0  0  0
 18 19  1  0  0  0  0
 19 24  1  0  0  0  0
 19 14  2  0  0  0  0
 22 17  1  0  0  0  0
 23 18  1  0  0  0  0
 24 25  2  0  0  0  0
 26  9  1  0  0  0  0
 26 24  1  0  0  0  0
 27 24  2  0  0  0  0
 28 16  1  0  0  0  0
 28 30  1  0  0  0  0
 29 28  1  0  0  0  0
 31 28  1  0  0  0  0
M  RAD  3   2   2   3   3   4   2
M  END
