Coordinates from ORCA-job PhN2+~TsO-_B3LYPG-6-31G_dp-CH-Scan-d09-49-n800
 OpenBabel11261919273D

 31 31  0  0  0  0  0  0  0  0999 V2000
   -2.4624    0.7665    0.0939 C   0  0  0  0  0  0  0  0  0  0  0  0
   -3.8014    0.5181    0.3672 N   0  0  0  0  0  0  0  0  0  0  0  0
   -4.9009    0.4548    0.5535 N   0  0  0  0  0  0  0  0  0  0  0  0
   -2.0995    2.0867   -0.2200 C   0  0  0  0  0  0  0  0  0  0  0  0
   -0.7412    2.2757   -0.4913 C   0  0  0  0  0  0  0  0  0  0  0  0
    0.1677    1.2169   -0.4470 C   0  0  0  0  0  0  0  0  0  0  0  0
   -0.2477   -0.0860   -0.1249 C   0  0  0  0  0  0  0  0  0  0  0  0
   -1.5814   -0.3320    0.1533 C   0  0  0  0  0  0  0  0  0  0  0  0
   -3.0026    3.0634   -0.2467 H   0  0  0  0  0  0  0  0  0  0  0  0
   -0.3926    3.2726   -0.7429 H   0  0  0  0  0  0  0  0  0  0  0  0
    1.2162    1.3991   -0.6657 H   0  0  0  0  0  0  0  0  0  0  0  0
    0.4692   -0.8993   -0.0931 H   0  0  0  0  0  0  0  0  0  0  0  0
   -1.9425   -1.3229    0.4068 H   0  0  0  0  0  0  0  0  0  0  0  0
   -7.0149    5.3896    1.1581 C   0  0  0  0  0  0  0  0  0  0  0  0
   -7.9534    6.4184    1.0733 C   0  0  0  0  0  0  0  0  0  0  0  0
   -8.5167    6.7862   -0.1550 C   0  0  0  0  0  0  0  0  0  0  0  0
   -8.1224    6.0860   -1.3058 C   0  0  0  0  0  0  0  0  0  0  0  0
   -7.1874    5.0567   -1.2371 C   0  0  0  0  0  0  0  0  0  0  0  0
   -6.6336    4.7166   -0.0010 C   0  0  0  0  0  0  0  0  0  0  0  0
   -6.5894    5.0934    2.1105 H   0  0  0  0  0  0  0  0  0  0  0  0
   -8.2573    6.9406    1.9770 H   0  0  0  0  0  0  0  0  0  0  0  0
   -8.5592    6.3478   -2.2666 H   0  0  0  0  0  0  0  0  0  0  0  0
   -6.8970    4.5045   -2.1243 H   0  0  0  0  0  0  0  0  0  0  0  0
   -5.4017    3.4198    0.0908 S   0  0  0  0  0  0  0  0  0  0  0  0
   -5.4097    2.8934    1.4823 O   0  0  0  0  0  0  0  0  0  0  0  0
   -4.0867    4.1041   -0.2452 O   0  0  0  0  0  0  0  0  0  0  0  0
   -5.7548    2.3969   -0.9342 O   0  0  0  0  0  0  0  0  0  0  0  0
   -9.5165    7.9147   -0.2469 C   0  0  0  0  0  0  0  0  0  0  0  0
  -10.3747    7.6401   -0.8693 H   0  0  0  0  0  0  0  0  0  0  0  0
   -9.8915    8.1985    0.7398 H   0  0  0  0  0  0  0  0  0  0  0  0
   -9.0658    8.8076   -0.6976 H   0  0  0  0  0  0  0  0  0  0  0  0
  1  8  1  0  0  0  0
  1  2  1  0  0  0  0
  2  3  1  0  0  0  0
  4  1  2  0  0  0  0
  5  6  2  0  0  0  0
  5  4  1  0  0  0  0
  6  7  1  0  0  0  0
  7 12  1  0  0  0  0
  7  8  2  0  0  0  0
  8 13  1  0  0  0  0
  9  4  1  0  0  0  0
 10  5  1  0  0  0  0
 11  6  1  0  0  0  0
 14 20  1  0  0  0  0
 15 14  1  0  0  0  0
 15 21  1  0  0  0  0
 16 15  2  0  0  0  0
 17 18  2  0  0  0  0
 17 16  1  0  0  0  0
 18 19  1  0  0  0  0
 19 24  1  0  0  0  0
 19 14  2  0  0  0  0
 22 17  1  0  0  0  0
 23 18  1  0  0  0  0
 24 25  1  0  0  0  0
 26 24  2  0  0  0  0
 27 24  2  0  0  0  0
 28 16  1  0  0  0  0
 28 30  1  0  0  0  0
 29 28  1  0  0  0  0
 31 28  1  0  0  0  0
M  RAD  3   2   2   3   3  25   2
M  END
