Coordinates from ORCA-job PhN2+~TsO-_B3LYPG-6-31G_dp-CH-Scan-d09-49-n800
 OpenBabel11261919273D

 31 31  0  0  0  0  0  0  0  0999 V2000
   -2.4585    0.7439    0.1368 C   0  0  0  0  0  0  0  0  0  0  0  0
   -3.7387    0.5554    0.6506 N   0  0  0  0  0  0  0  0  0  0  0  0
   -4.8213    0.6441    0.9408 N   0  0  0  0  0  0  0  0  0  0  0  0
   -2.0984    2.0319   -0.2882 C   0  0  0  0  0  0  0  0  0  0  0  0
   -0.8048    2.1658   -0.7940 C   0  0  0  0  0  0  0  0  0  0  0  0
    0.0611    1.0718   -0.8664 C   0  0  0  0  0  0  0  0  0  0  0  0
   -0.3389   -0.1992   -0.4264 C   0  0  0  0  0  0  0  0  0  0  0  0
   -1.6121   -0.3788    0.0912 C   0  0  0  0  0  0  0  0  0  0  0  0
   -2.9160    3.0252   -0.1860 H   0  0  0  0  0  0  0  0  0  0  0  0
   -0.4732    3.1418   -1.1337 H   0  0  0  0  0  0  0  0  0  0  0  0
    1.0624    1.2047   -1.2652 H   0  0  0  0  0  0  0  0  0  0  0  0
    0.3433   -1.0405   -0.4857 H   0  0  0  0  0  0  0  0  0  0  0  0
   -1.9566   -1.3444    0.4447 H   0  0  0  0  0  0  0  0  0  0  0  0
   -7.3755    5.2693    1.3000 C   0  0  0  0  0  0  0  0  0  0  0  0
   -8.3767    6.2073    1.0380 C   0  0  0  0  0  0  0  0  0  0  0  0
   -8.5502    6.7428   -0.2429 C   0  0  0  0  0  0  0  0  0  0  0  0
   -7.6888    6.3148   -1.2670 C   0  0  0  0  0  0  0  0  0  0  0  0
   -6.6866    5.3821   -1.0213 C   0  0  0  0  0  0  0  0  0  0  0  0
   -6.5355    4.8614    0.2673 C   0  0  0  0  0  0  0  0  0  0  0  0
   -7.2323    4.8570    2.2925 H   0  0  0  0  0  0  0  0  0  0  0  0
   -9.0307    6.5294    1.8446 H   0  0  0  0  0  0  0  0  0  0  0  0
   -7.8052    6.7227   -2.2684 H   0  0  0  0  0  0  0  0  0  0  0  0
   -6.0190    5.0640   -1.8149 H   0  0  0  0  0  0  0  0  0  0  0  0
   -5.2595    3.6457    0.5954 S   0  0  0  0  0  0  0  0  0  0  0  0
   -5.2325    3.3997    2.0526 O   0  0  0  0  0  0  0  0  0  0  0  0
   -3.9922    4.2420    0.0405 O   0  0  0  0  0  0  0  0  0  0  0  0
   -5.6443    2.4183   -0.2012 O   0  0  0  0  0  0  0  0  0  0  0  0
   -9.6301    7.7606   -0.5259 C   0  0  0  0  0  0  0  0  0  0  0  0
  -10.3245    7.4028   -1.2953 H   0  0  0  0  0  0  0  0  0  0  0  0
  -10.2126    7.9852    0.3717 H   0  0  0  0  0  0  0  0  0  0  0  0
   -9.2040    8.7016   -0.8921 H   0  0  0  0  0  0  0  0  0  0  0  0
  1  2  1  0  0  0  0
  2  3  1  0  0  0  0
  4  9  1  0  0  0  0
  4  1  2  0  0  0  0
  5  4  1  0  0  0  0
  6  5  2  0  0  0  0
  6  7  1  0  0  0  0
  7  8  2  0  0  0  0
  8  1  1  0  0  0  0
  8 13  1  0  0  0  0
 10  5  1  0  0  0  0
 11  6  1  0  0  0  0
 12  7  1  0  0  0  0
 14 20  1  0  0  0  0
 15 14  1  0  0  0  0
 15 21  1  0  0  0  0
 16 15  2  0  0  0  0
 17 18  2  0  0  0  0
 17 16  1  0  0  0  0
 18 19  1  0  0  0  0
 19 24  1  0  0  0  0
 19 14  2  0  0  0  0
 22 17  1  0  0  0  0
 23 18  1  0  0  0  0
 24 25  1  0  0  0  0
 26 24  2  0  0  0  0
 27 24  2  0  0  0  0
 28 16  1  0  0  0  0
 28 30  1  0  0  0  0
 29 28  1  0  0  0  0
 31 28  1  0  0  0  0
M  RAD  3   2   2   3   3  25   2
M  END
