Coordinates from ORCA-job PhN2+~TsO-_B3LYPG-6-31G_dp-CH-Scan-d09-49-n800
 OpenBabel11261919273D

 31 31  0  0  0  0  0  0  0  0999 V2000
   -2.0727    0.5220    0.0900 C   0  0  0  0  0  0  0  0  0  0  0  0
   -3.4450    0.4387    0.3183 N   0  0  0  0  0  0  0  0  0  0  0  0
   -4.5487    0.4151    0.4909 N   0  0  0  0  0  0  0  0  0  0  0  0
   -1.6322    1.8108   -0.2550 C   0  0  0  0  0  0  0  0  0  0  0  0
   -0.2259    1.7897   -0.4711 C   0  0  0  0  0  0  0  0  0  0  0  0
    0.5625    0.6491   -0.3513 C   0  0  0  0  0  0  0  0  0  0  0  0
    0.0062   -0.6029    0.0056 C   0  0  0  0  0  0  0  0  0  0  0  0
   -1.3484   -0.6921    0.2375 C   0  0  0  0  0  0  0  0  0  0  0  0
   -3.4076    4.2599   -0.4722 H   0  0  0  0  0  0  0  0  0  0  0  0
    0.2746    2.7178   -0.7495 H   0  0  0  0  0  0  0  0  0  0  0  0
    1.6342    0.7072   -0.5351 H   0  0  0  0  0  0  0  0  0  0  0  0
    0.6377   -1.4809    0.0956 H   0  0  0  0  0  0  0  0  0  0  0  0
   -1.8304   -1.6256    0.5152 H   0  0  0  0  0  0  0  0  0  0  0  0
   -7.1222    5.6315    1.1052 C   0  0  0  0  0  0  0  0  0  0  0  0
   -8.1539    6.5676    1.0817 C   0  0  0  0  0  0  0  0  0  0  0  0
   -8.8357    6.8659   -0.1066 C   0  0  0  0  0  0  0  0  0  0  0  0
   -8.4664    6.1908   -1.2802 C   0  0  0  0  0  0  0  0  0  0  0  0
   -7.4387    5.2515   -1.2775 C   0  0  0  0  0  0  0  0  0  0  0  0
   -6.7718    4.9863   -0.0805 C   0  0  0  0  0  0  0  0  0  0  0  0
   -6.6024    5.3904    2.0257 H   0  0  0  0  0  0  0  0  0  0  0  0
   -8.4377    7.0713    2.0014 H   0  0  0  0  0  0  0  0  0  0  0  0
   -8.9942    6.4005   -2.2067 H   0  0  0  0  0  0  0  0  0  0  0  0
   -7.1618    4.7193   -2.1808 H   0  0  0  0  0  0  0  0  0  0  0  0
   -5.4583    3.7849   -0.0626 S   0  0  0  0  0  0  0  0  0  0  0  0
   -5.2700    3.2813    1.2993 O   0  0  0  0  0  0  0  0  0  0  0  0
   -4.2270    4.7917   -0.4351 O   0  0  0  0  0  0  0  0  0  0  0  0
   -5.6447    2.8325   -1.1585 O   0  0  0  0  0  0  0  0  0  0  0  0
   -9.9307    7.9045   -0.1303 C   0  0  0  0  0  0  0  0  0  0  0  0
  -10.7301    7.6273   -0.8238 H   0  0  0  0  0  0  0  0  0  0  0  0
  -10.3707    8.0467    0.8604 H   0  0  0  0  0  0  0  0  0  0  0  0
   -9.5399    8.8758   -0.4578 H   0  0  0  0  0  0  0  0  0  0  0  0
  1  8  1  0  0  0  0
  1  2  1  0  0  0  0
  2  3  1  0  0  0  0
  4  1  2  0  0  0  0
  5  6  2  0  0  0  0
  5  4  1  0  0  0  0
  6  7  1  0  0  0  0
  7 12  1  0  0  0  0
  7  8  2  0  0  0  0
  8 13  1  0  0  0  0
  9 26  1  0  0  0  0
 10  5  1  0  0  0  0
 11  6  1  0  0  0  0
 14 20  1  0  0  0  0
 15 14  1  0  0  0  0
 15 21  1  0  0  0  0
 16 15  2  0  0  0  0
 17 18  2  0  0  0  0
 17 16  1  0  0  0  0
 18 19  1  0  0  0  0
 19 24  1  0  0  0  0
 19 14  2  0  0  0  0
 22 17  1  0  0  0  0
 23 18  1  0  0  0  0
 24 25  2  0  0  0  0
 26 24  1  0  0  0  0
 27 24  2  0  0  0  0
 28 16  1  0  0  0  0
 28 30  1  0  0  0  0
 29 28  1  0  0  0  0
 31 28  1  0  0  0  0
M  RAD  3   2   2   3   3   4   2
M  END
