Coordinates from ORCA-job PhN2+~TsO-_B3LYPG-6-31G_dp-CH-Scan-d09-49-n800
 OpenBabel11261919273D

 31 31  0  0  0  0  0  0  0  0999 V2000
   -1.9856    0.4936    0.0974 C   0  0  0  0  0  0  0  0  0  0  0  0
   -3.3591    0.5605    0.3353 N   0  0  0  0  0  0  0  0  0  0  0  0
   -4.4582    0.6613    0.5126 N   0  0  0  0  0  0  0  0  0  0  0  0
   -1.4231    1.7282   -0.2632 C   0  0  0  0  0  0  0  0  0  0  0  0
   -0.0271    1.5565   -0.4909 C   0  0  0  0  0  0  0  0  0  0  0  0
    0.6399    0.3416   -0.3672 C   0  0  0  0  0  0  0  0  0  0  0  0
   -0.0395   -0.8436    0.0075 C   0  0  0  0  0  0  0  0  0  0  0  0
   -1.3935   -0.7896    0.2523 C   0  0  0  0  0  0  0  0  0  0  0  0
   -3.3250    4.7701   -0.5426 H   0  0  0  0  0  0  0  0  0  0  0  0
    0.5662    2.4245   -0.7828 H   0  0  0  0  0  0  0  0  0  0  0  0
    1.7101    0.2856   -0.5615 H   0  0  0  0  0  0  0  0  0  0  0  0
    0.4994   -1.7812    0.1008 H   0  0  0  0  0  0  0  0  0  0  0  0
   -1.9678   -1.6651    0.5436 H   0  0  0  0  0  0  0  0  0  0  0  0
   -7.1559    5.7337    1.1123 C   0  0  0  0  0  0  0  0  0  0  0  0
   -8.2747    6.5642    1.0943 C   0  0  0  0  0  0  0  0  0  0  0  0
   -8.9721    6.8160   -0.0954 C   0  0  0  0  0  0  0  0  0  0  0  0
   -8.5275    6.2027   -1.2771 C   0  0  0  0  0  0  0  0  0  0  0  0
   -7.4123    5.3697   -1.2805 C   0  0  0  0  0  0  0  0  0  0  0  0
   -6.7332    5.1489   -0.0810 C   0  0  0  0  0  0  0  0  0  0  0  0
   -6.6229    5.5278    2.0340 H   0  0  0  0  0  0  0  0  0  0  0  0
   -8.6144    7.0206    2.0197 H   0  0  0  0  0  0  0  0  0  0  0  0
   -9.0652    6.3769   -2.2053 H   0  0  0  0  0  0  0  0  0  0  0  0
   -7.0765    4.8848   -2.1903 H   0  0  0  0  0  0  0  0  0  0  0  0
   -5.3080    4.0836   -0.0716 S   0  0  0  0  0  0  0  0  0  0  0  0
   -5.0734    3.5865    1.2838 O   0  0  0  0  0  0  0  0  0  0  0  0
   -4.1807    5.2213   -0.4260 O   0  0  0  0  0  0  0  0  0  0  0  0
   -5.3854    3.1382   -1.1854 O   0  0  0  0  0  0  0  0  0  0  0  0
  -10.1647    7.7411   -0.1133 C   0  0  0  0  0  0  0  0  0  0  0  0
  -10.9427    7.3772   -0.7912 H   0  0  0  0  0  0  0  0  0  0  0  0
  -10.6021    7.8513    0.8825 H   0  0  0  0  0  0  0  0  0  0  0  0
   -9.8767    8.7418   -0.4584 H   0  0  0  0  0  0  0  0  0  0  0  0
  1  8  1  0  0  0  0
  1  2  1  0  0  0  0
  2  3  1  0  0  0  0
  4  1  2  0  0  0  0
  5  6  2  0  0  0  0
  5  4  1  0  0  0  0
  6  7  1  0  0  0  0
  7 12  1  0  0  0  0
  7  8  2  0  0  0  0
  8 13  1  0  0  0  0
  9 26  1  0  0  0  0
 10  5  1  0  0  0  0
 11  6  1  0  0  0  0
 14 20  1  0  0  0  0
 15 14  1  0  0  0  0
 15 21  1  0  0  0  0
 16 15  2  0  0  0  0
 17 16  1  0  0  0  0
 18 17  2  0  0  0  0
 18 19  1  0  0  0  0
 19 24  1  0  0  0  0
 19 14  2  0  0  0  0
 22 17  1  0  0  0  0
 23 18  1  0  0  0  0
 24 25  2  0  0  0  0
 26 24  1  0  0  0  0
 27 24  2  0  0  0  0
 28 16  1  0  0  0  0
 28 30  1  0  0  0  0
 29 28  1  0  0  0  0
 31 28  1  0  0  0  0
M  RAD  3   2   2   3   3   4   2
M  END
