Coordinates from ORCA-job PhN2+~TsO-_B3LYPG-6-31G_dp-CH-Scan-d09-49-n800
 OpenBabel11261919283D

 31 31  0  0  0  0  0  0  0  0999 V2000
   -1.8516    0.4688    0.0374 C   0  0  0  0  0  0  0  0  0  0  0  0
   -3.2126    0.7566    0.1667 N   0  0  0  0  0  0  0  0  0  0  0  0
   -4.2918    1.0342    0.2607 N   0  0  0  0  0  0  0  0  0  0  0  0
   -1.0858    1.5895   -0.3171 C   0  0  0  0  0  0  0  0  0  0  0  0
    0.2819    1.1990   -0.4251 C   0  0  0  0  0  0  0  0  0  0  0  0
    0.7444   -0.0949   -0.2075 C   0  0  0  0  0  0  0  0  0  0  0  0
   -0.1344   -1.1484    0.1479 C   0  0  0  0  0  0  0  0  0  0  0  0
   -1.4787   -0.8820    0.2806 C   0  0  0  0  0  0  0  0  0  0  0  0
   -3.3174    5.4725   -0.8859 H   0  0  0  0  0  0  0  0  0  0  0  0
    1.0215    1.9548   -0.6953 H   0  0  0  0  0  0  0  0  0  0  0  0
    1.8054   -0.3192   -0.3104 H   0  0  0  0  0  0  0  0  0  0  0  0
    0.2470   -2.1508    0.3143 H   0  0  0  0  0  0  0  0  0  0  0  0
   -2.2008   -1.6481    0.5513 H   0  0  0  0  0  0  0  0  0  0  0  0
   -7.1487    5.8569    1.0792 C   0  0  0  0  0  0  0  0  0  0  0  0
   -8.3712    6.5247    1.1310 C   0  0  0  0  0  0  0  0  0  0  0  0
   -9.1366    6.7274   -0.0253 C   0  0  0  0  0  0  0  0  0  0  0  0
   -8.6515    6.2338   -1.2470 C   0  0  0  0  0  0  0  0  0  0  0  0
   -7.4336    5.5648   -1.3205 C   0  0  0  0  0  0  0  0  0  0  0  0
   -6.6908    5.3881   -0.1513 C   0  0  0  0  0  0  0  0  0  0  0  0
   -6.5619    5.6875    1.9752 H   0  0  0  0  0  0  0  0  0  0  0  0
   -8.7384    6.8902    2.0856 H   0  0  0  0  0  0  0  0  0  0  0  0
   -9.2390    6.3715   -2.1508 H   0  0  0  0  0  0  0  0  0  0  0  0
   -7.0658    5.1707   -2.2613 H   0  0  0  0  0  0  0  0  0  0  0  0
   -5.1358    4.5277   -0.2303 S   0  0  0  0  0  0  0  0  0  0  0  0
   -4.7817    4.0338    1.0982 O   0  0  0  0  0  0  0  0  0  0  0  0
   -4.1804    5.8169   -0.5950 O   0  0  0  0  0  0  0  0  0  0  0  0
   -5.1195    3.6182   -1.3764 O   0  0  0  0  0  0  0  0  0  0  0  0
  -10.4493    7.4708    0.0332 C   0  0  0  0  0  0  0  0  0  0  0  0
  -11.2126    6.9798   -0.5783 H   0  0  0  0  0  0  0  0  0  0  0  0
  -10.8250    7.5411    1.0573 H   0  0  0  0  0  0  0  0  0  0  0  0
  -10.3370    8.4927   -0.3487 H   0  0  0  0  0  0  0  0  0  0  0  0
  1  2  1  0  0  0  0
  1  8  2  0  0  0  0
  2  3  1  0  0  0  0
  4  1  1  0  0  0  0
  5  4  2  0  0  0  0
  5  6  1  0  0  0  0
  6  7  2  0  0  0  0
  7  8  1  0  0  0  0
  7 12  1  0  0  0  0
  8 13  1  0  0  0  0
  9 26  1  0  0  0  0
 10  5  1  0  0  0  0
 11  6  1  0  0  0  0
 14 15  1  0  0  0  0
 14 20  1  0  0  0  0
 15 21  1  0  0  0  0
 16 28  1  0  0  0  0
 16 15  2  0  0  0  0
 17 16  1  0  0  0  0
 18 17  2  0  0  0  0
 18 19  1  0  0  0  0
 19 14  2  0  0  0  0
 22 17  1  0  0  0  0
 23 18  1  0  0  0  0
 24 19  1  0  0  0  0
 24 25  2  0  0  0  0
 26 24  1  0  0  0  0
 27 24  2  0  0  0  0
 28 30  1  0  0  0  0
 29 28  1  0  0  0  0
 31 28  1  0  0  0  0
M  RAD  3   2   2   3   3   4   2
M  END
