Coordinates from ORCA-job PhN2+~TsO-_B3LYPG-6-31G_dp-CH-Scan-d09-49-n800
 OpenBabel11261919273D

 31 31  0  0  0  0  0  0  0  0999 V2000
   -2.4782    0.7651    0.1923 C   0  0  0  0  0  0  0  0  0  0  0  0
   -3.6855    0.6168    0.8788 N   0  0  0  0  0  0  0  0  0  0  0  0
   -4.7313    0.8457    1.2453 N   0  0  0  0  0  0  0  0  0  0  0  0
   -2.1107    2.0390   -0.2650 C   0  0  0  0  0  0  0  0  0  0  0  0
   -0.8926    2.1302   -0.9364 C   0  0  0  0  0  0  0  0  0  0  0  0
   -0.0952    1.0000   -1.1370 C   0  0  0  0  0  0  0  0  0  0  0  0
   -0.4926   -0.2570   -0.6613 C   0  0  0  0  0  0  0  0  0  0  0  0
   -1.6930   -0.3869    0.0228 C   0  0  0  0  0  0  0  0  0  0  0  0
   -2.8267    3.0297   -0.0542 H   0  0  0  0  0  0  0  0  0  0  0  0
   -0.5668    3.0978   -1.3035 H   0  0  0  0  0  0  0  0  0  0  0  0
    0.8499    1.0962   -1.6630 H   0  0  0  0  0  0  0  0  0  0  0  0
    0.1352   -1.1273   -0.8200 H   0  0  0  0  0  0  0  0  0  0  0  0
   -2.0303   -1.3416    0.4107 H   0  0  0  0  0  0  0  0  0  0  0  0
   -7.5486    5.1202    1.2752 C   0  0  0  0  0  0  0  0  0  0  0  0
   -8.5795    5.9758    0.8917 C   0  0  0  0  0  0  0  0  0  0  0  0
   -8.5276    6.6749   -0.3232 C   0  0  0  0  0  0  0  0  0  0  0  0
   -7.4038    6.5027   -1.1434 C   0  0  0  0  0  0  0  0  0  0  0  0
   -6.3641    5.6509   -0.7728 C   0  0  0  0  0  0  0  0  0  0  0  0
   -6.4447    4.9595    0.4361 C   0  0  0  0  0  0  0  0  0  0  0  0
   -7.5775    4.5918    2.2217 H   0  0  0  0  0  0  0  0  0  0  0  0
   -9.4357    6.1091    1.5488 H   0  0  0  0  0  0  0  0  0  0  0  0
   -7.3408    7.0470   -2.0823 H   0  0  0  0  0  0  0  0  0  0  0  0
   -5.4871    5.5342   -1.4000 H   0  0  0  0  0  0  0  0  0  0  0  0
   -5.1369    3.8273    0.9103 S   0  0  0  0  0  0  0  0  0  0  0  0
   -5.2063    3.6417    2.3719 O   0  0  0  0  0  0  0  0  0  0  0  0
   -3.8658    4.4212    0.3902 O   0  0  0  0  0  0  0  0  0  0  0  0
   -5.4519    2.5412    0.1469 O   0  0  0  0  0  0  0  0  0  0  0  0
   -9.6631    7.5801   -0.7398 C   0  0  0  0  0  0  0  0  0  0  0  0
  -10.5146    6.9994   -1.1163 H   0  0  0  0  0  0  0  0  0  0  0  0
  -10.0282    8.1770    0.1023 H   0  0  0  0  0  0  0  0  0  0  0  0
   -9.3577    8.2668   -1.5345 H   0  0  0  0  0  0  0  0  0  0  0  0
  1  2  1  0  0  0  0
  2  3  1  0  0  0  0
  4  9  1  0  0  0  0
  4  1  2  0  0  0  0
  5  4  1  0  0  0  0
  6  5  2  0  0  0  0
  6  7  1  0  0  0  0
  7  8  2  0  0  0  0
  8  1  1  0  0  0  0
  8 13  1  0  0  0  0
 10  5  1  0  0  0  0
 11  6  1  0  0  0  0
 12  7  1  0  0  0  0
 14 20  1  0  0  0  0
 15 14  1  0  0  0  0
 15 21  1  0  0  0  0
 16 15  2  0  0  0  0
 17 18  2  0  0  0  0
 17 16  1  0  0  0  0
 18 19  1  0  0  0  0
 19 24  1  0  0  0  0
 19 14  2  0  0  0  0
 22 17  1  0  0  0  0
 23 18  1  0  0  0  0
 24 25  1  0  0  0  0
 26 24  2  0  0  0  0
 27 24  2  0  0  0  0
 28 16  1  0  0  0  0
 28 30  1  0  0  0  0
 29 28  1  0  0  0  0
 31 28  1  0  0  0  0
M  RAD  3   2   2   3   3  25   2
M  END
