Coordinates from ORCA-job PhN2+~TsO-_B3LYPG-6-31G_dp-CH-Scan-d09-49-n800
 OpenBabel11261919273D

 31 31  0  0  0  0  0  0  0  0999 V2000
   -2.1060    0.5385    0.0931 C   0  0  0  0  0  0  0  0  0  0  0  0
   -3.4730    0.4091    0.3284 N   0  0  0  0  0  0  0  0  0  0  0  0
   -4.5737    0.3466    0.5092 N   0  0  0  0  0  0  0  0  0  0  0  0
   -1.7040    1.8414   -0.2467 C   0  0  0  0  0  0  0  0  0  0  0  0
   -0.2997    1.8657   -0.4693 C   0  0  0  0  0  0  0  0  0  0  0  0
    0.5237    0.7489   -0.3595 C   0  0  0  0  0  0  0  0  0  0  0  0
    0.0073   -0.5211   -0.0076 C   0  0  0  0  0  0  0  0  0  0  0  0
   -1.3429   -0.6528    0.2297 C   0  0  0  0  0  0  0  0  0  0  0  0
   -3.4334    4.1014   -0.4414 H   0  0  0  0  0  0  0  0  0  0  0  0
    0.1701    2.8102   -0.7446 H   0  0  0  0  0  0  0  0  0  0  0  0
    1.5922    0.8409   -0.5475 H   0  0  0  0  0  0  0  0  0  0  0  0
    0.6652   -1.3802    0.0745 H   0  0  0  0  0  0  0  0  0  0  0  0
   -1.7948   -1.6021    0.5040 H   0  0  0  0  0  0  0  0  0  0  0  0
   -7.1134    5.5941    1.1077 C   0  0  0  0  0  0  0  0  0  0  0  0
   -8.1173    6.5597    1.0776 C   0  0  0  0  0  0  0  0  0  0  0  0
   -8.7860    6.8741   -0.1140 C   0  0  0  0  0  0  0  0  0  0  0  0
   -8.4323    6.1848   -1.2841 C   0  0  0  0  0  0  0  0  0  0  0  0
   -7.4325    5.2159   -1.2747 C   0  0  0  0  0  0  0  0  0  0  0  0
   -6.7776    4.9351   -0.0746 C   0  0  0  0  0  0  0  0  0  0  0  0
   -6.6041    5.3407    2.0307 H   0  0  0  0  0  0  0  0  0  0  0  0
   -8.3897    7.0743    1.9948 H   0  0  0  0  0  0  0  0  0  0  0  0
   -8.9505    6.4068   -2.2132 H   0  0  0  0  0  0  0  0  0  0  0  0
   -7.1681    4.6727   -2.1753 H   0  0  0  0  0  0  0  0  0  0  0  0
   -5.4999    3.6953   -0.0482 S   0  0  0  0  0  0  0  0  0  0  0  0
   -5.3323    3.1908    1.3166 O   0  0  0  0  0  0  0  0  0  0  0  0
   -4.2391    4.6589   -0.4212 O   0  0  0  0  0  0  0  0  0  0  0  0
   -5.7150    2.7420   -1.1386 O   0  0  0  0  0  0  0  0  0  0  0  0
   -9.8502    7.9440   -0.1445 C   0  0  0  0  0  0  0  0  0  0  0  0
  -10.6544    7.6890   -0.8410 H   0  0  0  0  0  0  0  0  0  0  0  0
  -10.2903    8.1008    0.8439 H   0  0  0  0  0  0  0  0  0  0  0  0
   -9.4300    8.9030   -0.4719 H   0  0  0  0  0  0  0  0  0  0  0  0
  1  8  1  0  0  0  0
  1  2  1  0  0  0  0
  2  3  1  0  0  0  0
  4  1  2  0  0  0  0
  5  6  2  0  0  0  0
  5  4  1  0  0  0  0
  6  7  1  0  0  0  0
  7 12  1  0  0  0  0
  7  8  2  0  0  0  0
  8 13  1  0  0  0  0
  9 26  1  0  0  0  0
 10  5  1  0  0  0  0
 11  6  1  0  0  0  0
 14 20  1  0  0  0  0
 15 14  1  0  0  0  0
 15 21  1  0  0  0  0
 16 15  2  0  0  0  0
 17 18  2  0  0  0  0
 17 16  1  0  0  0  0
 18 19  1  0  0  0  0
 19 24  1  0  0  0  0
 19 14  2  0  0  0  0
 22 17  1  0  0  0  0
 23 18  1  0  0  0  0
 24 25  2  0  0  0  0
 26 24  1  0  0  0  0
 27 24  2  0  0  0  0
 28 16  1  0  0  0  0
 28 30  1  0  0  0  0
 29 28  1  0  0  0  0
 31 28  1  0  0  0  0
M  RAD  3   2   2   3   3   4   2
M  END
