Coordinates from ORCA-job PhN2+~TsO-_B3LYPG-6-31G_dp-CH-Scan-d09-49-n800
 OpenBabel11261919273D

 31 31  0  0  0  0  0  0  0  0999 V2000
   -2.0673    0.5193    0.0899 C   0  0  0  0  0  0  0  0  0  0  0  0
   -3.4401    0.4438    0.3180 N   0  0  0  0  0  0  0  0  0  0  0  0
   -4.5441    0.4267    0.4899 N   0  0  0  0  0  0  0  0  0  0  0  0
   -1.6206    1.8057   -0.2562 C   0  0  0  0  0  0  0  0  0  0  0  0
   -0.2143    1.7770   -0.4721 C   0  0  0  0  0  0  0  0  0  0  0  0
    0.5683    0.6325   -0.3513 C   0  0  0  0  0  0  0  0  0  0  0  0
    0.0056   -0.6164    0.0067 C   0  0  0  0  0  0  0  0  0  0  0  0
   -1.3495   -0.6984    0.2387 C   0  0  0  0  0  0  0  0  0  0  0  0
   -3.4032    4.2864   -0.4761 H   0  0  0  0  0  0  0  0  0  0  0  0
    0.2912    2.7022   -0.7512 H   0  0  0  0  0  0  0  0  0  0  0  0
    1.6403    0.6848   -0.5351 H   0  0  0  0  0  0  0  0  0  0  0  0
    0.6326   -1.4975    0.0976 H   0  0  0  0  0  0  0  0  0  0  0  0
   -1.8363   -1.6292    0.5172 H   0  0  0  0  0  0  0  0  0  0  0  0
   -7.1243    5.6375    1.1053 C   0  0  0  0  0  0  0  0  0  0  0  0
   -8.1606    6.5685    1.0824 C   0  0  0  0  0  0  0  0  0  0  0  0
   -8.8438    6.8643   -0.1058 C   0  0  0  0  0  0  0  0  0  0  0  0
   -8.4709    6.1920   -1.2799 C   0  0  0  0  0  0  0  0  0  0  0  0
   -7.4386    5.2579   -1.2778 C   0  0  0  0  0  0  0  0  0  0  0  0
   -6.7705    4.9950   -0.0809 C   0  0  0  0  0  0  0  0  0  0  0  0
   -6.6034    5.3982    2.0257 H   0  0  0  0  0  0  0  0  0  0  0  0
   -8.4471    7.0700    2.0025 H   0  0  0  0  0  0  0  0  0  0  0  0
   -8.9997    6.3999   -2.2063 H   0  0  0  0  0  0  0  0  0  0  0  0
   -7.1589    4.7278   -2.1815 H   0  0  0  0  0  0  0  0  0  0  0  0
   -5.4511    3.8002   -0.0639 S   0  0  0  0  0  0  0  0  0  0  0  0
   -5.2600    3.2968    1.2976 O   0  0  0  0  0  0  0  0  0  0  0  0
   -4.2248    4.8141   -0.4357 O   0  0  0  0  0  0  0  0  0  0  0  0
   -5.6322    2.8480   -1.1607 O   0  0  0  0  0  0  0  0  0  0  0  0
   -9.9439    7.8974   -0.1288 C   0  0  0  0  0  0  0  0  0  0  0  0
  -10.7426    7.6160   -0.8215 H   0  0  0  0  0  0  0  0  0  0  0  0
  -10.3838    8.0377    0.8622 H   0  0  0  0  0  0  0  0  0  0  0  0
   -9.5583    8.8706   -0.4570 H   0  0  0  0  0  0  0  0  0  0  0  0
  1  8  1  0  0  0  0
  1  2  1  0  0  0  0
  2  3  1  0  0  0  0
  4  1  2  0  0  0  0
  5  6  2  0  0  0  0
  5  4  1  0  0  0  0
  6  7  1  0  0  0  0
  7 12  1  0  0  0  0
  7  8  2  0  0  0  0
  8 13  1  0  0  0  0
  9 26  1  0  0  0  0
 10  5  1  0  0  0  0
 11  6  1  0  0  0  0
 14 20  1  0  0  0  0
 15 14  1  0  0  0  0
 15 21  1  0  0  0  0
 16 15  2  0  0  0  0
 17 18  2  0  0  0  0
 17 16  1  0  0  0  0
 18 19  1  0  0  0  0
 19 24  1  0  0  0  0
 19 14  2  0  0  0  0
 22 17  1  0  0  0  0
 23 18  1  0  0  0  0
 24 25  2  0  0  0  0
 26 24  1  0  0  0  0
 27 24  2  0  0  0  0
 28 16  1  0  0  0  0
 28 30  1  0  0  0  0
 29 28  1  0  0  0  0
 31 28  1  0  0  0  0
M  RAD  3   2   2   3   3   4   2
M  END
