Coordinates from ORCA-job PhN2+~TsO-_B3LYPG-6-31G_dp-CH-Scan-d09-49-n800
 OpenBabel11261919273D

 31 31  0  0  0  0  0  0  0  0999 V2000
   -2.3448    0.6626    0.1333 C   0  0  0  0  0  0  0  0  0  0  0  0
   -3.6568    0.3139    0.4352 N   0  0  0  0  0  0  0  0  0  0  0  0
   -4.7214    0.0757    0.6702 N   0  0  0  0  0  0  0  0  0  0  0  0
   -2.1426    2.0140   -0.2024 C   0  0  0  0  0  0  0  0  0  0  0  0
   -0.7785    2.2570   -0.4957 C   0  0  0  0  0  0  0  0  0  0  0  0
    0.2068    1.2738   -0.4501 C   0  0  0  0  0  0  0  0  0  0  0  0
   -0.0975   -0.0594   -0.0980 C   0  0  0  0  0  0  0  0  0  0  0  0
   -1.4001   -0.3939    0.2043 C   0  0  0  0  0  0  0  0  0  0  0  0
   -3.4780    3.3376   -0.2640 H   0  0  0  0  0  0  0  0  0  0  0  0
   -0.4780    3.2656   -0.7746 H   0  0  0  0  0  0  0  0  0  0  0  0
    1.2369    1.5284   -0.6903 H   0  0  0  0  0  0  0  0  0  0  0  0
    0.6823   -0.8130   -0.0655 H   0  0  0  0  0  0  0  0  0  0  0  0
   -1.6896   -1.4031    0.4822 H   0  0  0  0  0  0  0  0  0  0  0  0
   -7.0476    5.3760    1.1331 C   0  0  0  0  0  0  0  0  0  0  0  0
   -7.9254    6.4566    1.0629 C   0  0  0  0  0  0  0  0  0  0  0  0
   -8.4917    6.8527   -0.1563 C   0  0  0  0  0  0  0  0  0  0  0  0
   -8.1655    6.1284   -1.3132 C   0  0  0  0  0  0  0  0  0  0  0  0
   -7.2918    5.0455   -1.2622 C   0  0  0  0  0  0  0  0  0  0  0  0
   -6.7345    4.6827   -0.0350 C   0  0  0  0  0  0  0  0  0  0  0  0
   -6.6192    5.0594    2.0774 H   0  0  0  0  0  0  0  0  0  0  0  0
   -8.1792    6.9977    1.9704 H   0  0  0  0  0  0  0  0  0  0  0  0
   -8.6072    6.4130   -2.2646 H   0  0  0  0  0  0  0  0  0  0  0  0
   -7.0520    4.4752   -2.1529 H   0  0  0  0  0  0  0  0  0  0  0  0
   -5.6148    3.2972    0.0420 S   0  0  0  0  0  0  0  0  0  0  0  0
   -5.5825    2.7813    1.4193 O   0  0  0  0  0  0  0  0  0  0  0  0
   -4.2404    4.0375   -0.2889 O   0  0  0  0  0  0  0  0  0  0  0  0
   -5.9423    2.3497   -1.0324 O   0  0  0  0  0  0  0  0  0  0  0  0
   -9.4197    8.0413   -0.2304 C   0  0  0  0  0  0  0  0  0  0  0  0
  -10.2442    7.8627   -0.9275 H   0  0  0  0  0  0  0  0  0  0  0  0
   -9.8458    8.2790    0.7478 H   0  0  0  0  0  0  0  0  0  0  0  0
   -8.8869    8.9336   -0.5819 H   0  0  0  0  0  0  0  0  0  0  0  0
  1  8  1  0  0  0  0
  1  2  1  0  0  0  0
  2  3  1  0  0  0  0
  4  1  2  0  0  0  0
  5  6  2  0  0  0  0
  5  4  1  0  0  0  0
  6  7  1  0  0  0  0
  7 12  1  0  0  0  0
  7  8  2  0  0  0  0
  8 13  1  0  0  0  0
 10  5  1  0  0  0  0
 11  6  1  0  0  0  0
 14 20  1  0  0  0  0
 15 14  1  0  0  0  0
 15 21  1  0  0  0  0
 16 15  2  0  0  0  0
 17 18  2  0  0  0  0
 17 16  1  0  0  0  0
 18 19  1  0  0  0  0
 19 24  1  0  0  0  0
 19 14  2  0  0  0  0
 22 17  1  0  0  0  0
 23 18  1  0  0  0  0
 24 25  2  0  0  0  0
 26  9  1  0  0  0  0
 26 24  1  0  0  0  0
 27 24  2  0  0  0  0
 28 16  1  0  0  0  0
 28 30  1  0  0  0  0
 29 28  1  0  0  0  0
 31 28  1  0  0  0  0
M  RAD  3   2   2   3   3   4   2
M  END
