Coordinates from ORCA-job PhN2+~TsO-_B3LYPG-6-31G_dp-CH-Scan-d09-49-n800
 OpenBabel11261919273D

 31 31  0  0  0  0  0  0  0  0999 V2000
   -2.4065    0.6994    0.1330 C   0  0  0  0  0  0  0  0  0  0  0  0
   -3.7089    0.3253    0.4446 N   0  0  0  0  0  0  0  0  0  0  0  0
   -4.7676    0.0717    0.6871 N   0  0  0  0  0  0  0  0  0  0  0  0
   -2.2183    2.0556   -0.1911 C   0  0  0  0  0  0  0  0  0  0  0  0
   -0.8658    2.3280   -0.4951 C   0  0  0  0  0  0  0  0  0  0  0  0
    0.1349    1.3590   -0.4693 C   0  0  0  0  0  0  0  0  0  0  0  0
   -0.1473    0.0192   -0.1292 C   0  0  0  0  0  0  0  0  0  0  0  0
   -1.4424   -0.3388    0.1820 C   0  0  0  0  0  0  0  0  0  0  0  0
   -3.4189    3.1956   -0.2214 H   0  0  0  0  0  0  0  0  0  0  0  0
   -0.5891    3.3452   -0.7650 H   0  0  0  0  0  0  0  0  0  0  0  0
    1.1583    1.6320   -0.7161 H   0  0  0  0  0  0  0  0  0  0  0  0
    0.6432   -0.7235   -0.1120 H   0  0  0  0  0  0  0  0  0  0  0  0
   -1.7131   -1.3552    0.4512 H   0  0  0  0  0  0  0  0  0  0  0  0
   -7.0291    5.3447    1.1441 C   0  0  0  0  0  0  0  0  0  0  0  0
   -7.8945    6.4346    1.0604 C   0  0  0  0  0  0  0  0  0  0  0  0
   -8.4410    6.8338   -0.1665 C   0  0  0  0  0  0  0  0  0  0  0  0
   -8.1077    6.1027   -1.3171 C   0  0  0  0  0  0  0  0  0  0  0  0
   -7.2460    5.0110   -1.2519 C   0  0  0  0  0  0  0  0  0  0  0  0
   -6.7076    4.6443   -0.0174 C   0  0  0  0  0  0  0  0  0  0  0  0
   -6.6165    5.0253    2.0945 H   0  0  0  0  0  0  0  0  0  0  0  0
   -8.1543    6.9806    1.9635 H   0  0  0  0  0  0  0  0  0  0  0  0
   -8.5346    6.3891   -2.2748 H   0  0  0  0  0  0  0  0  0  0  0  0
   -7.0014    4.4353   -2.1378 H   0  0  0  0  0  0  0  0  0  0  0  0
   -5.5960    3.2512    0.0758 S   0  0  0  0  0  0  0  0  0  0  0  0
   -5.5966    2.7361    1.4573 O   0  0  0  0  0  0  0  0  0  0  0  0
   -4.2158    3.9458   -0.2426 O   0  0  0  0  0  0  0  0  0  0  0  0
   -5.9386    2.2940   -0.9901 O   0  0  0  0  0  0  0  0  0  0  0  0
   -9.3557    8.0319   -0.2555 C   0  0  0  0  0  0  0  0  0  0  0  0
  -10.1771    7.8575   -0.9575 H   0  0  0  0  0  0  0  0  0  0  0  0
   -9.7866    8.2806    0.7179 H   0  0  0  0  0  0  0  0  0  0  0  0
   -8.8113    8.9166   -0.6088 H   0  0  0  0  0  0  0  0  0  0  0  0
  1  8  1  0  0  0  0
  1  2  1  0  0  0  0
  2  3  1  0  0  0  0
  4  1  2  0  0  0  0
  5  6  2  0  0  0  0
  5  4  1  0  0  0  0
  6  7  1  0  0  0  0
  7 12  1  0  0  0  0
  7  8  2  0  0  0  0
  8 13  1  0  0  0  0
 10  5  1  0  0  0  0
 11  6  1  0  0  0  0
 14 20  1  0  0  0  0
 15 14  1  0  0  0  0
 15 21  1  0  0  0  0
 16 15  2  0  0  0  0
 17 18  2  0  0  0  0
 17 16  1  0  0  0  0
 18 19  1  0  0  0  0
 19 24  1  0  0  0  0
 19 14  2  0  0  0  0
 22 17  1  0  0  0  0
 23 18  1  0  0  0  0
 24 25  2  0  0  0  0
 26  9  1  0  0  0  0
 26 24  1  0  0  0  0
 27 24  2  0  0  0  0
 28 16  1  0  0  0  0
 28 30  1  0  0  0  0
 29 28  1  0  0  0  0
 31 28  1  0  0  0  0
M  RAD  3   2   2   3   3   4   2
M  END
