Coordinates from ORCA-job PhN2+~TsO-_B3LYPG-6-31G_dp-CH-Scan-d09-49-n800
 OpenBabel11261919273D

 31 31  0  0  0  0  0  0  0  0999 V2000
   -1.9273    0.4805    0.0905 C   0  0  0  0  0  0  0  0  0  0  0  0
   -3.2968    0.6463    0.3086 N   0  0  0  0  0  0  0  0  0  0  0  0
   -4.3876    0.8281    0.4733 N   0  0  0  0  0  0  0  0  0  0  0  0
   -1.2783    1.6717   -0.2681 C   0  0  0  0  0  0  0  0  0  0  0  0
    0.1065    1.4018   -0.4732 C   0  0  0  0  0  0  0  0  0  0  0  0
    0.6862    0.1449   -0.3327 C   0  0  0  0  0  0  0  0  0  0  0  0
   -0.0789   -0.9889    0.0375 C   0  0  0  0  0  0  0  0  0  0  0  0
   -1.4293   -0.8402    0.2615 C   0  0  0  0  0  0  0  0  0  0  0  0
   -3.3040    5.0909   -0.6649 H   0  0  0  0  0  0  0  0  0  0  0  0
    0.7631    2.2248   -0.7603 H   0  0  0  0  0  0  0  0  0  0  0  0
    1.7529    0.0135   -0.5099 H   0  0  0  0  0  0  0  0  0  0  0  0
    0.3927   -1.9607    0.1436 H   0  0  0  0  0  0  0  0  0  0  0  0
   -2.0673   -1.6721    0.5483 H   0  0  0  0  0  0  0  0  0  0  0  0
   -7.1623    5.7930    1.1051 C   0  0  0  0  0  0  0  0  0  0  0  0
   -8.3317    6.5512    1.1065 C   0  0  0  0  0  0  0  0  0  0  0  0
   -9.0510    6.7775   -0.0751 C   0  0  0  0  0  0  0  0  0  0  0  0
   -8.5758    6.2127   -1.2692 C   0  0  0  0  0  0  0  0  0  0  0  0
   -7.4105    5.4522   -1.2922 C   0  0  0  0  0  0  0  0  0  0  0  0
   -6.7113    5.2555   -0.0998 C   0  0  0  0  0  0  0  0  0  0  0  0
   -6.6116    5.6067    2.0204 H   0  0  0  0  0  0  0  0  0  0  0  0
   -8.6935    6.9705    2.0409 H   0  0  0  0  0  0  0  0  0  0  0  0
   -9.1292    6.3674   -2.1915 H   0  0  0  0  0  0  0  0  0  0  0  0
   -7.0507    5.0043   -2.2116 H   0  0  0  0  0  0  0  0  0  0  0  0
   -5.2218    4.2827   -0.1154 S   0  0  0  0  0  0  0  0  0  0  0  0
   -4.9376    3.7966    1.2336 O   0  0  0  0  0  0  0  0  0  0  0  0
   -4.1716    5.4925   -0.4808 O   0  0  0  0  0  0  0  0  0  0  0  0
   -5.2485    3.3427   -1.2360 O   0  0  0  0  0  0  0  0  0  0  0  0
  -10.3007    7.6243   -0.0715 C   0  0  0  0  0  0  0  0  0  0  0  0
  -11.0653    7.2109   -0.7364 H   0  0  0  0  0  0  0  0  0  0  0  0
  -10.7271    7.7059    0.9317 H   0  0  0  0  0  0  0  0  0  0  0  0
  -10.0835    8.6413   -0.4208 H   0  0  0  0  0  0  0  0  0  0  0  0
  1  8  1  0  0  0  0
  1  2  1  0  0  0  0
  2  3  1  0  0  0  0
  4  1  2  0  0  0  0
  5  6  2  0  0  0  0
  5  4  1  0  0  0  0
  6  7  1  0  0  0  0
  7 12  1  0  0  0  0
  7  8  2  0  0  0  0
  8 13  1  0  0  0  0
  9 26  1  0  0  0  0
 10  5  1  0  0  0  0
 11  6  1  0  0  0  0
 14 15  1  0  0  0  0
 14 20  1  0  0  0  0
 15 21  1  0  0  0  0
 16 28  1  0  0  0  0
 16 15  2  0  0  0  0
 17 16  1  0  0  0  0
 18 17  2  0  0  0  0
 18 19  1  0  0  0  0
 19 14  2  0  0  0  0
 22 17  1  0  0  0  0
 23 18  1  0  0  0  0
 24 19  1  0  0  0  0
 24 25  2  0  0  0  0
 26 24  1  0  0  0  0
 27 24  2  0  0  0  0
 28 30  1  0  0  0  0
 29 28  1  0  0  0  0
 31 28  1  0  0  0  0
M  RAD  3   2   2   3   3   4   2
M  END
