Coordinates from ORCA-job PhN2+~TsO-_B3LYPG-6-31G_dp-CH-Scan-d09-49-n800
 OpenBabel11261919273D

 31 31  0  0  0  0  0  0  0  0999 V2000
   -2.1314    0.5530    0.0967 C   0  0  0  0  0  0  0  0  0  0  0  0
   -3.4936    0.3950    0.3403 N   0  0  0  0  0  0  0  0  0  0  0  0
   -4.5912    0.3082    0.5286 N   0  0  0  0  0  0  0  0  0  0  0  0
   -1.7539    1.8637   -0.2412 C   0  0  0  0  0  0  0  0  0  0  0  0
   -0.3522    1.9158   -0.4722 C   0  0  0  0  0  0  0  0  0  0  0  0
    0.4926    0.8142   -0.3708 C   0  0  0  0  0  0  0  0  0  0  0  0
    0.0019   -0.4659   -0.0202 C   0  0  0  0  0  0  0  0  0  0  0  0
   -1.3443   -0.6235    0.2245 C   0  0  0  0  0  0  0  0  0  0  0  0
   -3.4472    4.0009   -0.4165 H   0  0  0  0  0  0  0  0  0  0  0  0
    0.0975    2.8700   -0.7471 H   0  0  0  0  0  0  0  0  0  0  0  0
    1.5579    0.9271   -0.5648 H   0  0  0  0  0  0  0  0  0  0  0  0
    0.6759   -1.3130    0.0551 H   0  0  0  0  0  0  0  0  0  0  0  0
   -1.7767   -1.5820    0.4981 H   0  0  0  0  0  0  0  0  0  0  0  0
   -7.1087    5.5672    1.1118 C   0  0  0  0  0  0  0  0  0  0  0  0
   -8.0953    6.5505    1.0754 C   0  0  0  0  0  0  0  0  0  0  0  0
   -8.7514    6.8759   -0.1201 C   0  0  0  0  0  0  0  0  0  0  0  0
   -8.4031    6.1798   -1.2878 C   0  0  0  0  0  0  0  0  0  0  0  0
   -7.4208    5.1933   -1.2720 C   0  0  0  0  0  0  0  0  0  0  0  0
   -6.7777    4.9016   -0.0681 C   0  0  0  0  0  0  0  0  0  0  0  0
   -6.6092    5.3054    2.0378 H   0  0  0  0  0  0  0  0  0  0  0  0
   -8.3638    7.0703    1.9909 H   0  0  0  0  0  0  0  0  0  0  0  0
   -8.9119    6.4103   -2.2200 H   0  0  0  0  0  0  0  0  0  0  0  0
   -7.1609    4.6448   -2.1707 H   0  0  0  0  0  0  0  0  0  0  0  0
   -5.5223    3.6391   -0.0337 S   0  0  0  0  0  0  0  0  0  0  0  0
   -5.3709    3.1341    1.3334 O   0  0  0  0  0  0  0  0  0  0  0  0
   -4.2435    4.5752   -0.4042 O   0  0  0  0  0  0  0  0  0  0  0  0
   -5.7529    2.6852   -1.1209 O   0  0  0  0  0  0  0  0  0  0  0  0
   -9.7964    7.9643   -0.1573 C   0  0  0  0  0  0  0  0  0  0  0  0
  -10.6032    7.7212   -0.8552 H   0  0  0  0  0  0  0  0  0  0  0  0
  -10.2365    8.1321    0.8292 H   0  0  0  0  0  0  0  0  0  0  0  0
   -9.3587    8.9147   -0.4867 H   0  0  0  0  0  0  0  0  0  0  0  0
  1  8  1  0  0  0  0
  1  2  1  0  0  0  0
  2  3  1  0  0  0  0
  4  1  2  0  0  0  0
  5  6  2  0  0  0  0
  5  4  1  0  0  0  0
  6  7  1  0  0  0  0
  7 12  1  0  0  0  0
  7  8  2  0  0  0  0
  8 13  1  0  0  0  0
  9 26  1  0  0  0  0
 10  5  1  0  0  0  0
 11  6  1  0  0  0  0
 14 20  1  0  0  0  0
 15 14  1  0  0  0  0
 15 21  1  0  0  0  0
 16 15  2  0  0  0  0
 17 18  2  0  0  0  0
 17 16  1  0  0  0  0
 18 19  1  0  0  0  0
 19 24  1  0  0  0  0
 19 14  2  0  0  0  0
 22 17  1  0  0  0  0
 23 18  1  0  0  0  0
 24 25  2  0  0  0  0
 26 24  1  0  0  0  0
 27 24  2  0  0  0  0
 28 16  1  0  0  0  0
 28 30  1  0  0  0  0
 29 28  1  0  0  0  0
 31 28  1  0  0  0  0
M  RAD  3   2   2   3   3   4   2
M  END
