Coordinates from ORCA-job PhN2+~TsO-_B3LYPG-6-31G_dp-CH-Scan-d09-49-n800
 OpenBabel11261919273D

 31 31  0  0  0  0  0  0  0  0999 V2000
   -2.0889    0.5310    0.0910 C   0  0  0  0  0  0  0  0  0  0  0  0
   -3.4587    0.4225    0.3226 N   0  0  0  0  0  0  0  0  0  0  0  0
   -4.5611    0.3766    0.4984 N   0  0  0  0  0  0  0  0  0  0  0  0
   -1.6683    1.8269   -0.2518 C   0  0  0  0  0  0  0  0  0  0  0  0
   -0.2628    1.8299   -0.4703 C   0  0  0  0  0  0  0  0  0  0  0  0
    0.5443    0.7018   -0.3546 C   0  0  0  0  0  0  0  0  0  0  0  0
    0.0087   -0.5596    0.0000 C   0  0  0  0  0  0  0  0  0  0  0  0
   -1.3439   -0.6711    0.2339 C   0  0  0  0  0  0  0  0  0  0  0  0
   -3.4233    4.1738   -0.4558 H   0  0  0  0  0  0  0  0  0  0  0  0
    0.2217    2.7667   -0.7472 H   0  0  0  0  0  0  0  0  0  0  0  0
    1.6145    0.7778   -0.5399 H   0  0  0  0  0  0  0  0  0  0  0  0
    0.6542   -1.4277    0.0868 H   0  0  0  0  0  0  0  0  0  0  0  0
   -1.8102   -1.6130    0.5100 H   0  0  0  0  0  0  0  0  0  0  0  0
   -7.1181    5.6116    1.1061 C   0  0  0  0  0  0  0  0  0  0  0  0
   -8.1344    6.5643    1.0795 C   0  0  0  0  0  0  0  0  0  0  0  0
   -8.8098    6.8715   -0.1102 C   0  0  0  0  0  0  0  0  0  0  0  0
   -8.4500    6.1883   -1.2821 C   0  0  0  0  0  0  0  0  0  0  0  0
   -7.4378    5.2324   -1.2763 C   0  0  0  0  0  0  0  0  0  0  0  0
   -6.7766    4.9586   -0.0779 C   0  0  0  0  0  0  0  0  0  0  0  0
   -6.6035    5.3637    2.0277 H   0  0  0  0  0  0  0  0  0  0  0  0
   -8.4113    7.0742    1.9980 H   0  0  0  0  0  0  0  0  0  0  0  0
   -8.9731    6.4049   -2.2097 H   0  0  0  0  0  0  0  0  0  0  0  0
   -7.1684    4.6939   -2.1781 H   0  0  0  0  0  0  0  0  0  0  0  0
   -5.4829    3.7356   -0.0561 S   0  0  0  0  0  0  0  0  0  0  0  0
   -5.3056    3.2309    1.3071 O   0  0  0  0  0  0  0  0  0  0  0  0
   -4.2355    4.7191   -0.4290 O   0  0  0  0  0  0  0  0  0  0  0  0
   -5.6855    2.7829   -1.1490 O   0  0  0  0  0  0  0  0  0  0  0  0
   -9.8876    7.9277   -0.1370 C   0  0  0  0  0  0  0  0  0  0  0  0
  -10.6897    7.6636   -0.8326 H   0  0  0  0  0  0  0  0  0  0  0  0
  -10.3279    8.0772    0.8524 H   0  0  0  0  0  0  0  0  0  0  0  0
   -9.4803    8.8926   -0.4635 H   0  0  0  0  0  0  0  0  0  0  0  0
  1  8  1  0  0  0  0
  1  2  1  0  0  0  0
  2  3  1  0  0  0  0
  4  1  2  0  0  0  0
  5  6  2  0  0  0  0
  5  4  1  0  0  0  0
  6  7  1  0  0  0  0
  7 12  1  0  0  0  0
  7  8  2  0  0  0  0
  8 13  1  0  0  0  0
  9 26  1  0  0  0  0
 10  5  1  0  0  0  0
 11  6  1  0  0  0  0
 14 20  1  0  0  0  0
 15 14  1  0  0  0  0
 15 21  1  0  0  0  0
 16 15  2  0  0  0  0
 17 18  2  0  0  0  0
 17 16  1  0  0  0  0
 18 19  1  0  0  0  0
 19 24  1  0  0  0  0
 19 14  2  0  0  0  0
 22 17  1  0  0  0  0
 23 18  1  0  0  0  0
 24 25  2  0  0  0  0
 26 24  1  0  0  0  0
 27 24  2  0  0  0  0
 28 16  1  0  0  0  0
 28 30  1  0  0  0  0
 29 28  1  0  0  0  0
 31 28  1  0  0  0  0
M  RAD  3   2   2   3   3   4   2
M  END
