Coordinates from ORCA-job PhN2+~TsO-_B3LYPG-6-31G_dp-CH-Scan-d09-49-n800
 OpenBabel11261919273D

 31 31  0  0  0  0  0  0  0  0999 V2000
   -2.0755    0.5245    0.0897 C   0  0  0  0  0  0  0  0  0  0  0  0
   -3.4477    0.4374    0.3178 N   0  0  0  0  0  0  0  0  0  0  0  0
   -4.5511    0.4105    0.4912 N   0  0  0  0  0  0  0  0  0  0  0  0
   -1.6369    1.8141   -0.2544 C   0  0  0  0  0  0  0  0  0  0  0  0
   -0.2306    1.7960   -0.4702 C   0  0  0  0  0  0  0  0  0  0  0  0
    0.5600    0.6569   -0.3509 C   0  0  0  0  0  0  0  0  0  0  0  0
    0.0059   -0.5963    0.0051 C   0  0  0  0  0  0  0  0  0  0  0  0
   -1.3486   -0.6881    0.2366 C   0  0  0  0  0  0  0  0  0  0  0  0
   -3.4100    4.2463   -0.4707 H   0  0  0  0  0  0  0  0  0  0  0  0
    0.2680    2.7252   -0.7479 H   0  0  0  0  0  0  0  0  0  0  0  0
    1.6316    0.7171   -0.5344 H   0  0  0  0  0  0  0  0  0  0  0  0
    0.6389   -1.4732    0.0948 H   0  0  0  0  0  0  0  0  0  0  0  0
   -1.8289   -1.6227    0.5136 H   0  0  0  0  0  0  0  0  0  0  0  0
   -7.1209    5.6286    1.1051 C   0  0  0  0  0  0  0  0  0  0  0  0
   -8.1503    6.5671    1.0813 C   0  0  0  0  0  0  0  0  0  0  0  0
   -8.8318    6.8665   -0.1070 C   0  0  0  0  0  0  0  0  0  0  0  0
   -8.4643    6.1899   -1.2803 C   0  0  0  0  0  0  0  0  0  0  0  0
   -7.4389    5.2481   -1.2774 C   0  0  0  0  0  0  0  0  0  0  0  0
   -6.7723    4.9819   -0.0803 C   0  0  0  0  0  0  0  0  0  0  0  0
   -6.6014    5.3867    2.0256 H   0  0  0  0  0  0  0  0  0  0  0  0
   -8.4327    7.0720    2.0009 H   0  0  0  0  0  0  0  0  0  0  0  0
   -8.9919    6.4003   -2.2068 H   0  0  0  0  0  0  0  0  0  0  0  0
   -7.1635    4.7147   -2.1804 H   0  0  0  0  0  0  0  0  0  0  0  0
   -5.4616    3.7773   -0.0622 S   0  0  0  0  0  0  0  0  0  0  0  0
   -5.2747    3.2736    1.2998 O   0  0  0  0  0  0  0  0  0  0  0  0
   -4.2281    4.7805   -0.4351 O   0  0  0  0  0  0  0  0  0  0  0  0
   -5.6509    2.8247   -1.1574 O   0  0  0  0  0  0  0  0  0  0  0  0
   -9.9242    7.9077   -0.1308 C   0  0  0  0  0  0  0  0  0  0  0  0
  -10.7242    7.6324   -0.8244 H   0  0  0  0  0  0  0  0  0  0  0  0
  -10.3640    8.0509    0.8597 H   0  0  0  0  0  0  0  0  0  0  0  0
   -9.5311    8.8780   -0.4583 H   0  0  0  0  0  0  0  0  0  0  0  0
  1  8  1  0  0  0  0
  1  2  1  0  0  0  0
  2  3  1  0  0  0  0
  4  1  2  0  0  0  0
  5  6  2  0  0  0  0
  5  4  1  0  0  0  0
  6  7  1  0  0  0  0
  7 12  1  0  0  0  0
  7  8  2  0  0  0  0
  8 13  1  0  0  0  0
  9 26  1  0  0  0  0
 10  5  1  0  0  0  0
 11  6  1  0  0  0  0
 14 20  1  0  0  0  0
 15 14  1  0  0  0  0
 15 21  1  0  0  0  0
 16 15  2  0  0  0  0
 17 18  2  0  0  0  0
 17 16  1  0  0  0  0
 18 19  1  0  0  0  0
 19 24  1  0  0  0  0
 19 14  2  0  0  0  0
 22 17  1  0  0  0  0
 23 18  1  0  0  0  0
 24 25  2  0  0  0  0
 26 24  1  0  0  0  0
 27 24  2  0  0  0  0
 28 16  1  0  0  0  0
 28 30  1  0  0  0  0
 29 28  1  0  0  0  0
 31 28  1  0  0  0  0
M  RAD  3   2   2   3   3   4   2
M  END
