Coordinates from ORCA-job PhN2+~TsO-_B3LYPG-6-31G_dp-CH-Scan-d09-49-n800
 OpenBabel11261919273D

 31 31  0  0  0  0  0  0  0  0999 V2000
   -2.3111    0.6452    0.1283 C   0  0  0  0  0  0  0  0  0  0  0  0
   -3.6317    0.3202    0.4194 N   0  0  0  0  0  0  0  0  0  0  0  0
   -4.7023    0.0998    0.6454 N   0  0  0  0  0  0  0  0  0  0  0  0
   -2.0875    1.9924   -0.2102 C   0  0  0  0  0  0  0  0  0  0  0  0
   -0.7158    2.2109   -0.4925 C   0  0  0  0  0  0  0  0  0  0  0  0
    0.2531    1.2124   -0.4347 C   0  0  0  0  0  0  0  0  0  0  0  0
   -0.0752   -0.1152   -0.0803 C   0  0  0  0  0  0  0  0  0  0  0  0
   -1.3852   -0.4277    0.2119 C   0  0  0  0  0  0  0  0  0  0  0  0
   -3.4889    3.4260   -0.2917 H   0  0  0  0  0  0  0  0  0  0  0  0
   -0.3948    3.2130   -0.7727 H   0  0  0  0  0  0  0  0  0  0  0  0
    1.2894    1.4493   -0.6670 H   0  0  0  0  0  0  0  0  0  0  0  0
    0.6925   -0.8808   -0.0385 H   0  0  0  0  0  0  0  0  0  0  0  0
   -1.6935   -1.4310    0.4908 H   0  0  0  0  0  0  0  0  0  0  0  0
   -7.0557    5.4011    1.1279 C   0  0  0  0  0  0  0  0  0  0  0  0
   -7.9460    6.4716    1.0645 C   0  0  0  0  0  0  0  0  0  0  0  0
   -8.5278    6.8601   -0.1500 C   0  0  0  0  0  0  0  0  0  0  0  0
   -8.2042    6.1384   -1.3093 C   0  0  0  0  0  0  0  0  0  0  0  0
   -7.3182    5.0654   -1.2655 C   0  0  0  0  0  0  0  0  0  0  0  0
   -6.7459    4.7104   -0.0429 C   0  0  0  0  0  0  0  0  0  0  0  0
   -6.6150    5.0905    2.0684 H   0  0  0  0  0  0  0  0  0  0  0  0
   -8.1975    7.0109    1.9738 H   0  0  0  0  0  0  0  0  0  0  0  0
   -8.6575    6.4174   -2.2568 H   0  0  0  0  0  0  0  0  0  0  0  0
   -7.0799    4.4971   -2.1579 H   0  0  0  0  0  0  0  0  0  0  0  0
   -5.6121    3.3367    0.0258 S   0  0  0  0  0  0  0  0  0  0  0  0
   -5.5587    2.8229    1.4018 O   0  0  0  0  0  0  0  0  0  0  0  0
   -4.2472    4.1047   -0.3157 O   0  0  0  0  0  0  0  0  0  0  0  0
   -5.9303    2.3893   -1.0498 O   0  0  0  0  0  0  0  0  0  0  0  0
   -9.4692    8.0385   -0.2165 C   0  0  0  0  0  0  0  0  0  0  0  0
  -10.2944    7.8530   -0.9108 H   0  0  0  0  0  0  0  0  0  0  0  0
   -9.8938    8.2685    0.7642 H   0  0  0  0  0  0  0  0  0  0  0  0
   -8.9475    8.9375   -0.5672 H   0  0  0  0  0  0  0  0  0  0  0  0
  1  8  1  0  0  0  0
  1  2  1  0  0  0  0
  2  3  1  0  0  0  0
  4  1  2  0  0  0  0
  5  6  2  0  0  0  0
  5  4  1  0  0  0  0
  6  7  1  0  0  0  0
  7 12  1  0  0  0  0
  7  8  2  0  0  0  0
  8 13  1  0  0  0  0
 10  5  1  0  0  0  0
 11  6  1  0  0  0  0
 14 20  1  0  0  0  0
 15 14  1  0  0  0  0
 15 21  1  0  0  0  0
 16 15  2  0  0  0  0
 17 18  2  0  0  0  0
 17 16  1  0  0  0  0
 18 19  1  0  0  0  0
 19 24  1  0  0  0  0
 19 14  2  0  0  0  0
 22 17  1  0  0  0  0
 23 18  1  0  0  0  0
 24 25  2  0  0  0  0
 26  9  1  0  0  0  0
 26 24  1  0  0  0  0
 27 24  2  0  0  0  0
 28 16  1  0  0  0  0
 28 30  1  0  0  0  0
 29 28  1  0  0  0  0
 31 28  1  0  0  0  0
M  RAD  3   2   2   3   3   4   2
M  END
