Coordinates from ORCA-job PhN2+~TsO-_B3LYPG-6-31G_dp-CH-Scan-d09-49-n800
 OpenBabel11261919273D

 31 31  0  0  0  0  0  0  0  0999 V2000
   -2.0469    0.5138    0.0901 C   0  0  0  0  0  0  0  0  0  0  0  0
   -3.4219    0.4695    0.3176 N   0  0  0  0  0  0  0  0  0  0  0  0
   -4.5259    0.4775    0.4901 N   0  0  0  0  0  0  0  0  0  0  0  0
   -1.5721    1.7889   -0.2582 C   0  0  0  0  0  0  0  0  0  0  0  0
   -0.1666    1.7269   -0.4748 C   0  0  0  0  0  0  0  0  0  0  0  0
    0.5897    0.5651   -0.3521 C   0  0  0  0  0  0  0  0  0  0  0  0
   -0.0013   -0.6699    0.0089 C   0  0  0  0  0  0  0  0  0  0  0  0
   -1.3577   -0.7202    0.2416 C   0  0  0  0  0  0  0  0  0  0  0  0
   -3.3851    4.3944   -0.4924 H   0  0  0  0  0  0  0  0  0  0  0  0
    0.3602    2.6397   -0.7559 H   0  0  0  0  0  0  0  0  0  0  0  0
    1.6626    0.5924   -0.5366 H   0  0  0  0  0  0  0  0  0  0  0  0
    0.6055   -1.5650    0.1014 H   0  0  0  0  0  0  0  0  0  0  0  0
   -1.8658   -1.6390    0.5221 H   0  0  0  0  0  0  0  0  0  0  0  0
   -7.1318    5.6604    1.1061 C   0  0  0  0  0  0  0  0  0  0  0  0
   -8.1869    6.5702    1.0851 C   0  0  0  0  0  0  0  0  0  0  0  0
   -8.8749    6.8559   -0.1026 C   0  0  0  0  0  0  0  0  0  0  0  0
   -8.4874    6.1951   -1.2786 C   0  0  0  0  0  0  0  0  0  0  0  0
   -7.4363    5.2823   -1.2787 C   0  0  0  0  0  0  0  0  0  0  0  0
   -6.7640    5.0293   -0.0819 C   0  0  0  0  0  0  0  0  0  0  0  0
   -6.6069    5.4289    2.0262 H   0  0  0  0  0  0  0  0  0  0  0  0
   -8.4841    7.0629    2.0066 H   0  0  0  0  0  0  0  0  0  0  0  0
   -9.0195    6.3952   -2.2048 H   0  0  0  0  0  0  0  0  0  0  0  0
   -7.1451    4.7611   -2.1838 H   0  0  0  0  0  0  0  0  0  0  0  0
   -5.4206    3.8616   -0.0677 S   0  0  0  0  0  0  0  0  0  0  0  0
   -5.2186    3.3594    1.2922 O   0  0  0  0  0  0  0  0  0  0  0  0
   -4.2158    4.9043   -0.4369 O   0  0  0  0  0  0  0  0  0  0  0  0
   -5.5800    2.9099   -1.1679 O   0  0  0  0  0  0  0  0  0  0  0  0
   -9.9962    7.8661   -0.1235 C   0  0  0  0  0  0  0  0  0  0  0  0
  -10.7919    7.5660   -0.8119 H   0  0  0  0  0  0  0  0  0  0  0  0
  -10.4344    8.0001    0.8690 H   0  0  0  0  0  0  0  0  0  0  0  0
   -9.6322    8.8459   -0.4564 H   0  0  0  0  0  0  0  0  0  0  0  0
  1  8  1  0  0  0  0
  1  2  1  0  0  0  0
  2  3  1  0  0  0  0
  4  1  2  0  0  0  0
  5  6  2  0  0  0  0
  5  4  1  0  0  0  0
  6  7  1  0  0  0  0
  7 12  1  0  0  0  0
  7  8  2  0  0  0  0
  8 13  1  0  0  0  0
  9 26  1  0  0  0  0
 10  5  1  0  0  0  0
 11  6  1  0  0  0  0
 14 20  1  0  0  0  0
 15 14  1  0  0  0  0
 15 21  1  0  0  0  0
 16 15  2  0  0  0  0
 17 16  1  0  0  0  0
 18 17  2  0  0  0  0
 18 19  1  0  0  0  0
 19 24  1  0  0  0  0
 19 14  2  0  0  0  0
 22 17  1  0  0  0  0
 23 18  1  0  0  0  0
 24 25  2  0  0  0  0
 26 24  1  0  0  0  0
 27 24  2  0  0  0  0
 28 16  1  0  0  0  0
 28 30  1  0  0  0  0
 29 28  1  0  0  0  0
 31 28  1  0  0  0  0
M  RAD  3   2   2   3   3   4   2
M  END
