Coordinates from ORCA-job PhN2+~TsO-_B3LYPG-6-31G_dp-CH-Scan-d09-49-n800
 OpenBabel11261919273D

 31 31  0  0  0  0  0  0  0  0999 V2000
   -1.9400    0.4825    0.0941 C   0  0  0  0  0  0  0  0  0  0  0  0
   -3.3102    0.6277    0.3213 N   0  0  0  0  0  0  0  0  0  0  0  0
   -4.4030    0.7923    0.4903 N   0  0  0  0  0  0  0  0  0  0  0  0
   -1.3106    1.6834   -0.2677 C   0  0  0  0  0  0  0  0  0  0  0  0
    0.0766    1.4344   -0.4819 C   0  0  0  0  0  0  0  0  0  0  0  0
    0.6756    0.1860   -0.3467 C   0  0  0  0  0  0  0  0  0  0  0  0
   -0.0702   -0.9592    0.0274 C   0  0  0  0  0  0  0  0  0  0  0  0
   -1.4212   -0.8307    0.2603 C   0  0  0  0  0  0  0  0  0  0  0  0
   -3.3050    5.0256   -0.6293 H   0  0  0  0  0  0  0  0  0  0  0  0
    0.7190    2.2673   -0.7725 H   0  0  0  0  0  0  0  0  0  0  0  0
    1.7429    0.0706   -0.5311 H   0  0  0  0  0  0  0  0  0  0  0  0
    0.4165   -1.9240    0.1296 H   0  0  0  0  0  0  0  0  0  0  0  0
   -2.0449   -1.6721    0.5507 H   0  0  0  0  0  0  0  0  0  0  0  0
   -7.1631    5.7807    1.1083 C   0  0  0  0  0  0  0  0  0  0  0  0
   -8.3225    6.5540    1.1034 C   0  0  0  0  0  0  0  0  0  0  0  0
   -9.0351    6.7856   -0.0813 C   0  0  0  0  0  0  0  0  0  0  0  0
   -8.5636    6.2105   -1.2719 C   0  0  0  0  0  0  0  0  0  0  0  0
   -7.4081    5.4349   -1.2886 C   0  0  0  0  0  0  0  0  0  0  0  0
   -6.7152    5.2333   -0.0933 C   0  0  0  0  0  0  0  0  0  0  0  0
   -6.6177    5.5904    2.0259 H   0  0  0  0  0  0  0  0  0  0  0  0
   -8.6817    6.9812    2.0353 H   0  0  0  0  0  0  0  0  0  0  0  0
   -9.1120    6.3693   -2.1965 H   0  0  0  0  0  0  0  0  0  0  0  0
   -7.0513    4.9791   -2.2053 H   0  0  0  0  0  0  0  0  0  0  0  0
   -5.2383    4.2413   -0.1010 S   0  0  0  0  0  0  0  0  0  0  0  0
   -4.9665    3.7527    1.2498 O   0  0  0  0  0  0  0  0  0  0  0  0
   -4.1716    5.4371   -0.4622 O   0  0  0  0  0  0  0  0  0  0  0  0
   -5.2732    3.3000   -1.2204 O   0  0  0  0  0  0  0  0  0  0  0  0
  -10.2733    7.6491   -0.0846 C   0  0  0  0  0  0  0  0  0  0  0  0
  -11.0399    7.2457   -0.7533 H   0  0  0  0  0  0  0  0  0  0  0  0
  -10.7038    7.7369    0.9164 H   0  0  0  0  0  0  0  0  0  0  0  0
  -10.0406    8.6629   -0.4331 H   0  0  0  0  0  0  0  0  0  0  0  0
  1  8  1  0  0  0  0
  1  2  1  0  0  0  0
  2  3  1  0  0  0  0
  4  1  2  0  0  0  0
  5  6  2  0  0  0  0
  5  4  1  0  0  0  0
  6  7  1  0  0  0  0
  7 12  1  0  0  0  0
  7  8  2  0  0  0  0
  8 13  1  0  0  0  0
  9 26  1  0  0  0  0
 10  5  1  0  0  0  0
 11  6  1  0  0  0  0
 14 20  1  0  0  0  0
 15 14  1  0  0  0  0
 15 21  1  0  0  0  0
 16 15  2  0  0  0  0
 17 16  1  0  0  0  0
 18 17  2  0  0  0  0
 18 19  1  0  0  0  0
 19 14  2  0  0  0  0
 22 17  1  0  0  0  0
 23 18  1  0  0  0  0
 24 19  1  0  0  0  0
 24 25  2  0  0  0  0
 26 24  1  0  0  0  0
 27 24  2  0  0  0  0
 28 16  1  0  0  0  0
 28 30  1  0  0  0  0
 29 28  1  0  0  0  0
 31 28  1  0  0  0  0
M  RAD  3   2   2   3   3   4   2
M  END
