Coordinates from ORCA-job PhN2+~TsO-_B3LYPG-6-31G_dp-CH-Scan-d09-49-n800
 OpenBabel11261919273D

 31 31  0  0  0  0  0  0  0  0999 V2000
   -2.1171    0.5449    0.0948 C   0  0  0  0  0  0  0  0  0  0  0  0
   -3.4818    0.4021    0.3347 N   0  0  0  0  0  0  0  0  0  0  0  0
   -4.5812    0.3277    0.5181 N   0  0  0  0  0  0  0  0  0  0  0  0
   -1.7266    1.8513   -0.2449 C   0  0  0  0  0  0  0  0  0  0  0  0
   -0.3235    1.8885   -0.4716 C   0  0  0  0  0  0  0  0  0  0  0  0
    0.5100    0.7789   -0.3655 C   0  0  0  0  0  0  0  0  0  0  0  0
    0.0057   -0.4957   -0.0136 C   0  0  0  0  0  0  0  0  0  0  0  0
   -1.3427   -0.6395    0.2276 C   0  0  0  0  0  0  0  0  0  0  0  0
   -3.4403    4.0547   -0.4277 H   0  0  0  0  0  0  0  0  0  0  0  0
    0.1369    2.8375   -0.7473 H   0  0  0  0  0  0  0  0  0  0  0  0
    1.5770    0.8806   -0.5566 H   0  0  0  0  0  0  0  0  0  0  0  0
    0.6712   -1.3493    0.0656 H   0  0  0  0  0  0  0  0  0  0  0  0
   -1.7854   -1.5930    0.5021 H   0  0  0  0  0  0  0  0  0  0  0  0
   -7.1120    5.5817    1.1098 C   0  0  0  0  0  0  0  0  0  0  0  0
   -8.1078    6.5557    1.0766 C   0  0  0  0  0  0  0  0  0  0  0  0
   -8.7703    6.8754   -0.1170 C   0  0  0  0  0  0  0  0  0  0  0  0
   -8.4188    6.1830   -1.2860 C   0  0  0  0  0  0  0  0  0  0  0  0
   -7.4273    5.2057   -1.2734 C   0  0  0  0  0  0  0  0  0  0  0  0
   -6.7782    4.9196   -0.0713 C   0  0  0  0  0  0  0  0  0  0  0  0
   -6.6076    5.3242    2.0344 H   0  0  0  0  0  0  0  0  0  0  0  0
   -8.3786    7.0727    1.9930 H   0  0  0  0  0  0  0  0  0  0  0  0
   -8.9324    6.4092   -2.2166 H   0  0  0  0  0  0  0  0  0  0  0  0
   -7.1648    4.6601   -2.1731 H   0  0  0  0  0  0  0  0  0  0  0  0
   -5.5111    3.6690   -0.0410 S   0  0  0  0  0  0  0  0  0  0  0  0
   -5.3516    3.1639    1.3249 O   0  0  0  0  0  0  0  0  0  0  0  0
   -4.2416    4.6199   -0.4122 O   0  0  0  0  0  0  0  0  0  0  0  0
   -5.7332    2.7157   -1.1301 O   0  0  0  0  0  0  0  0  0  0  0  0
   -9.8254    7.9542   -0.1508 C   0  0  0  0  0  0  0  0  0  0  0  0
  -10.6305    7.7050   -0.8485 H   0  0  0  0  0  0  0  0  0  0  0  0
  -10.2660    8.1158    0.8365 H   0  0  0  0  0  0  0  0  0  0  0  0
   -9.3967    8.9093   -0.4786 H   0  0  0  0  0  0  0  0  0  0  0  0
  1  8  1  0  0  0  0
  1  2  1  0  0  0  0
  2  3  1  0  0  0  0
  4  1  2  0  0  0  0
  5  6  2  0  0  0  0
  5  4  1  0  0  0  0
  6  7  1  0  0  0  0
  7 12  1  0  0  0  0
  7  8  2  0  0  0  0
  8 13  1  0  0  0  0
  9 26  1  0  0  0  0
 10  5  1  0  0  0  0
 11  6  1  0  0  0  0
 14 20  1  0  0  0  0
 15 14  1  0  0  0  0
 15 21  1  0  0  0  0
 16 15  2  0  0  0  0
 17 18  2  0  0  0  0
 17 16  1  0  0  0  0
 18 19  1  0  0  0  0
 19 24  1  0  0  0  0
 19 14  2  0  0  0  0
 22 17  1  0  0  0  0
 23 18  1  0  0  0  0
 24 25  2  0  0  0  0
 26 24  1  0  0  0  0
 27 24  2  0  0  0  0
 28 16  1  0  0  0  0
 28 30  1  0  0  0  0
 29 28  1  0  0  0  0
 31 28  1  0  0  0  0
M  RAD  3   2   2   3   3   4   2
M  END
