Coordinates from ORCA-job PhN2+~TsO-_B3LYPG-6-31G_dp-CH-Scan-d09-49-n800
 OpenBabel11261919283D

 31 31  0  0  0  0  0  0  0  0999 V2000
   -1.8132    0.4568    0.0101 C   0  0  0  0  0  0  0  0  0  0  0  0
   -3.1687    0.7823    0.1022 N   0  0  0  0  0  0  0  0  0  0  0  0
   -4.2423    1.0897    0.1639 N   0  0  0  0  0  0  0  0  0  0  0  0
   -1.0120    1.5495   -0.3534 C   0  0  0  0  0  0  0  0  0  0  0  0
    0.3476    1.1225   -0.4214 C   0  0  0  0  0  0  0  0  0  0  0  0
    0.7721   -0.1766   -0.1622 C   0  0  0  0  0  0  0  0  0  0  0  0
   -0.1406   -1.1994    0.1978 C   0  0  0  0  0  0  0  0  0  0  0  0
   -1.4804   -0.8968    0.2932 C   0  0  0  0  0  0  0  0  0  0  0  0
   -3.3334    5.5885   -0.9346 H   0  0  0  0  0  0  0  0  0  0  0  0
    1.1118    1.8530   -0.6928 H   0  0  0  0  0  0  0  0  0  0  0  0
    1.8293   -0.4293   -0.2348 H   0  0  0  0  0  0  0  0  0  0  0  0
    0.2118   -2.2064    0.3967 H   0  0  0  0  0  0  0  0  0  0  0  0
   -2.2275   -1.6382    0.5651 H   0  0  0  0  0  0  0  0  0  0  0  0
   -7.1546    5.8757    1.0716 C   0  0  0  0  0  0  0  0  0  0  0  0
   -8.3898    6.5182    1.1399 C   0  0  0  0  0  0  0  0  0  0  0  0
   -9.1674    6.7194   -0.0084 C   0  0  0  0  0  0  0  0  0  0  0  0
   -8.6811    6.2507   -1.2396 C   0  0  0  0  0  0  0  0  0  0  0  0
   -7.4506    5.6074   -1.3297 C   0  0  0  0  0  0  0  0  0  0  0  0
   -6.6962    5.4312   -0.1677 C   0  0  0  0  0  0  0  0  0  0  0  0
   -6.5581    5.7075    1.9614 H   0  0  0  0  0  0  0  0  0  0  0  0
   -8.7573    6.8650    2.1013 H   0  0  0  0  0  0  0  0  0  0  0  0
   -9.2775    6.3878   -2.1376 H   0  0  0  0  0  0  0  0  0  0  0  0
   -7.0817    5.2324   -2.2778 H   0  0  0  0  0  0  0  0  0  0  0  0
   -5.1250    4.6034   -0.2682 S   0  0  0  0  0  0  0  0  0  0  0  0
   -4.7520    4.0996    1.0514 O   0  0  0  0  0  0  0  0  0  0  0  0
   -4.1957    5.9152   -0.6221 O   0  0  0  0  0  0  0  0  0  0  0  0
   -5.0970    3.7107   -1.4272 O   0  0  0  0  0  0  0  0  0  0  0  0
  -10.4955    7.4331    0.0679 C   0  0  0  0  0  0  0  0  0  0  0  0
  -11.2618    6.9108   -0.5133 H   0  0  0  0  0  0  0  0  0  0  0  0
  -10.8472    7.5166    1.0994 H   0  0  0  0  0  0  0  0  0  0  0  0
  -10.4178    8.4484   -0.3390 H   0  0  0  0  0  0  0  0  0  0  0  0
  1  2  1  0  0  0  0
  1  8  2  0  0  0  0
  2  3  1  0  0  0  0
  4  1  1  0  0  0  0
  5  4  2  0  0  0  0
  5  6  1  0  0  0  0
  6  7  2  0  0  0  0
  7  8  1  0  0  0  0
  7 12  1  0  0  0  0
  8 13  1  0  0  0  0
  9 26  1  0  0  0  0
 10  5  1  0  0  0  0
 11  6  1  0  0  0  0
 14 15  1  0  0  0  0
 14 20  1  0  0  0  0
 15 21  1  0  0  0  0
 16 28  1  0  0  0  0
 16 15  2  0  0  0  0
 17 16  1  0  0  0  0
 18 17  2  0  0  0  0
 18 19  1  0  0  0  0
 19 14  2  0  0  0  0
 22 17  1  0  0  0  0
 23 18  1  0  0  0  0
 24 19  1  0  0  0  0
 24 25  2  0  0  0  0
 26 24  1  0  0  0  0
 27 24  2  0  0  0  0
 28 30  1  0  0  0  0
 29 28  1  0  0  0  0
 31 28  1  0  0  0  0
M  RAD  3   2   2   3   3   4   2
M  END
