Coordinates from ORCA-job PhN2+~TsO-_B3LYPG-6-31G_dp-CH-Scan-d09-49-n800
 OpenBabel11261919283D

 31 31  0  0  0  0  0  0  0  0999 V2000
   -1.8007    0.4533    0.0028 C   0  0  0  0  0  0  0  0  0  0  0  0
   -3.1546    0.7886    0.0854 N   0  0  0  0  0  0  0  0  0  0  0  0
   -4.2265    1.1032    0.1398 N   0  0  0  0  0  0  0  0  0  0  0  0
   -0.9899    1.5378   -0.3635 C   0  0  0  0  0  0  0  0  0  0  0  0
    0.3669    1.1009   -0.4215 C   0  0  0  0  0  0  0  0  0  0  0  0
    0.7809   -0.1993   -0.1513 C   0  0  0  0  0  0  0  0  0  0  0  0
   -0.1410   -1.2133    0.2106 C   0  0  0  0  0  0  0  0  0  0  0  0
   -1.4790   -0.9007    0.2967 C   0  0  0  0  0  0  0  0  0  0  0  0
   -3.3393    5.6189   -0.9456 H   0  0  0  0  0  0  0  0  0  0  0  0
    1.1376    1.8242   -0.6937 H   0  0  0  0  0  0  0  0  0  0  0  0
    1.8367   -0.4599   -0.2162 H   0  0  0  0  0  0  0  0  0  0  0  0
    0.2033   -2.2213    0.4182 H   0  0  0  0  0  0  0  0  0  0  0  0
   -2.2328   -1.6350    0.5694 H   0  0  0  0  0  0  0  0  0  0  0  0
   -7.1577    5.8809    1.0699 C   0  0  0  0  0  0  0  0  0  0  0  0
   -8.3959    6.5174    1.1421 C   0  0  0  0  0  0  0  0  0  0  0  0
   -9.1762    6.7184   -0.0044 C   0  0  0  0  0  0  0  0  0  0  0  0
   -8.6896    6.2557   -1.2377 C   0  0  0  0  0  0  0  0  0  0  0  0
   -7.4564    5.6186   -1.3318 C   0  0  0  0  0  0  0  0  0  0  0  0
   -6.6992    5.4425   -0.1715 C   0  0  0  0  0  0  0  0  0  0  0  0
   -6.5590    5.7130    1.9582 H   0  0  0  0  0  0  0  0  0  0  0  0
   -8.7635    6.8596    2.1051 H   0  0  0  0  0  0  0  0  0  0  0  0
   -9.2881    6.3928   -2.1344 H   0  0  0  0  0  0  0  0  0  0  0  0
   -7.0871    5.2483   -2.2816 H   0  0  0  0  0  0  0  0  0  0  0  0
   -5.1242    4.6227   -0.2770 S   0  0  0  0  0  0  0  0  0  0  0  0
   -4.7467    4.1163    1.0402 O   0  0  0  0  0  0  0  0  0  0  0  0
   -4.2016    5.9403   -0.6280 O   0  0  0  0  0  0  0  0  0  0  0  0
   -5.0932    3.7341   -1.4392 O   0  0  0  0  0  0  0  0  0  0  0  0
  -10.5079    7.4250    0.0762 C   0  0  0  0  0  0  0  0  0  0  0  0
  -11.2744    6.8959   -0.4985 H   0  0  0  0  0  0  0  0  0  0  0  0
  -10.8545    7.5110    1.1092 H   0  0  0  0  0  0  0  0  0  0  0  0
  -10.4382    8.4388   -0.3357 H   0  0  0  0  0  0  0  0  0  0  0  0
  1  2  1  0  0  0  0
  1  8  2  0  0  0  0
  2  3  1  0  0  0  0
  4  1  1  0  0  0  0
  5  4  2  0  0  0  0
  5  6  1  0  0  0  0
  6  7  2  0  0  0  0
  7  8  1  0  0  0  0
  7 12  1  0  0  0  0
  8 13  1  0  0  0  0
  9 26  1  0  0  0  0
 10  5  1  0  0  0  0
 11  6  1  0  0  0  0
 14 15  1  0  0  0  0
 14 20  1  0  0  0  0
 15 21  1  0  0  0  0
 16 28  1  0  0  0  0
 16 15  2  0  0  0  0
 17 16  1  0  0  0  0
 18 17  2  0  0  0  0
 18 19  1  0  0  0  0
 19 14  2  0  0  0  0
 22 17  1  0  0  0  0
 23 18  1  0  0  0  0
 24 19  1  0  0  0  0
 24 25  2  0  0  0  0
 26 24  1  0  0  0  0
 27 24  2  0  0  0  0
 28 30  1  0  0  0  0
 29 28  1  0  0  0  0
 31 28  1  0  0  0  0
M  RAD  3   2   2   3   3   4   2
M  END
