Coordinates from ORCA-job PhN2+~TsO-_B3LYPG-6-31G_dp-CH-Scan-d09-49-n800
 OpenBabel11261919273D

 31 31  0  0  0  0  0  0  0  0999 V2000
   -2.2073    0.5930    0.1130 C   0  0  0  0  0  0  0  0  0  0  0  0
   -3.5518    0.3564    0.3833 N   0  0  0  0  0  0  0  0  0  0  0  0
   -4.6383    0.2050    0.5924 N   0  0  0  0  0  0  0  0  0  0  0  0
   -1.9036    1.9237   -0.2256 C   0  0  0  0  0  0  0  0  0  0  0  0
   -0.5139    2.0547   -0.4853 C   0  0  0  0  0  0  0  0  0  0  0  0
    0.3912    0.9998   -0.4078 C   0  0  0  0  0  0  0  0  0  0  0  0
   -0.0223   -0.3056   -0.0547 C   0  0  0  0  0  0  0  0  0  0  0  0
   -1.3529   -0.5371    0.2167 C   0  0  0  0  0  0  0  0  0  0  0  0
   -3.4808    3.7245   -0.3464 H   0  0  0  0  0  0  0  0  0  0  0  0
   -0.1243    3.0334   -0.7638 H   0  0  0  0  0  0  0  0  0  0  0  0
    1.4442    1.1716   -0.6233 H   0  0  0  0  0  0  0  0  0  0  0  0
    0.6974   -1.1156    0.0019 H   0  0  0  0  0  0  0  0  0  0  0  0
   -1.7266   -1.5189    0.4936 H   0  0  0  0  0  0  0  0  0  0  0  0
   -7.0944    5.4878    1.1224 C   0  0  0  0  0  0  0  0  0  0  0  0
   -8.0329    6.5166    1.0702 C   0  0  0  0  0  0  0  0  0  0  0  0
   -8.6496    6.8751   -0.1366 C   0  0  0  0  0  0  0  0  0  0  0  0
   -8.3117    6.1658   -1.2994 C   0  0  0  0  0  0  0  0  0  0  0  0
   -7.3775    5.1340   -1.2673 C   0  0  0  0  0  0  0  0  0  0  0  0
   -6.7720    4.8094   -0.0523 C   0  0  0  0  0  0  0  0  0  0  0  0
   -6.6258    5.2006    2.0570 H   0  0  0  0  0  0  0  0  0  0  0  0
   -8.2945    7.0466    1.9819 H   0  0  0  0  0  0  0  0  0  0  0  0
   -8.7910    6.4218   -2.2405 H   0  0  0  0  0  0  0  0  0  0  0  0
   -7.1265    4.5755   -2.1624 H   0  0  0  0  0  0  0  0  0  0  0  0
   -5.5772    3.4892    0.0022 S   0  0  0  0  0  0  0  0  0  0  0  0
   -5.4754    2.9789    1.3737 O   0  0  0  0  0  0  0  0  0  0  0  0
   -4.2516    4.3480   -0.3517 O   0  0  0  0  0  0  0  0  0  0  0  0
   -5.8458    2.5390   -1.0813 O   0  0  0  0  0  0  0  0  0  0  0  0
   -9.6423    8.0110   -0.1908 C   0  0  0  0  0  0  0  0  0  0  0  0
  -10.4557    7.7990   -0.8913 H   0  0  0  0  0  0  0  0  0  0  0  0
  -10.0799    8.2087    0.7912 H   0  0  0  0  0  0  0  0  0  0  0  0
   -9.1590    8.9368   -0.5268 H   0  0  0  0  0  0  0  0  0  0  0  0
  1  8  1  0  0  0  0
  1  2  1  0  0  0  0
  2  3  1  0  0  0  0
  4  1  2  0  0  0  0
  5  6  2  0  0  0  0
  5  4  1  0  0  0  0
  6  7  1  0  0  0  0
  7 12  1  0  0  0  0
  7  8  2  0  0  0  0
  8 13  1  0  0  0  0
 10  5  1  0  0  0  0
 11  6  1  0  0  0  0
 14 20  1  0  0  0  0
 15 14  1  0  0  0  0
 15 21  1  0  0  0  0
 16 15  2  0  0  0  0
 17 18  2  0  0  0  0
 17 16  1  0  0  0  0
 18 19  1  0  0  0  0
 19 24  1  0  0  0  0
 19 14  2  0  0  0  0
 22 17  1  0  0  0  0
 23 18  1  0  0  0  0
 24 25  2  0  0  0  0
 26  9  1  0  0  0  0
 26 24  1  0  0  0  0
 27 24  2  0  0  0  0
 28 16  1  0  0  0  0
 28 30  1  0  0  0  0
 29 28  1  0  0  0  0
 31 28  1  0  0  0  0
M  RAD  3   2   2   3   3   4   2
M  END
