Coordinates from ORCA-job PhN2+~TsO-_B3LYPG-6-31G_dp-CH-Scan-d09-49-n800
 OpenBabel11261919273D

 31 31  0  0  0  0  0  0  0  0999 V2000
   -2.1140    0.5432    0.0941 C   0  0  0  0  0  0  0  0  0  0  0  0
   -3.4795    0.4039    0.3320 N   0  0  0  0  0  0  0  0  0  0  0  0
   -4.5792    0.3327    0.5154 N   0  0  0  0  0  0  0  0  0  0  0  0
   -1.7201    1.8489   -0.2446 C   0  0  0  0  0  0  0  0  0  0  0  0
   -0.3166    1.8826   -0.4698 C   0  0  0  0  0  0  0  0  0  0  0  0
    0.5141    0.7709   -0.3628 C   0  0  0  0  0  0  0  0  0  0  0  0
    0.0062   -0.5026   -0.0117 C   0  0  0  0  0  0  0  0  0  0  0  0
   -1.3428   -0.6431    0.2278 C   0  0  0  0  0  0  0  0  0  0  0  0
   -3.4389    4.0669   -0.4333 H   0  0  0  0  0  0  0  0  0  0  0  0
    0.1465    2.8305   -0.7447 H   0  0  0  0  0  0  0  0  0  0  0  0
    1.5816    0.8700   -0.5526 H   0  0  0  0  0  0  0  0  0  0  0  0
    0.6696   -1.3577    0.0680 H   0  0  0  0  0  0  0  0  0  0  0  0
   -1.7882   -1.5956    0.5015 H   0  0  0  0  0  0  0  0  0  0  0  0
   -7.1119    5.5852    1.1089 C   0  0  0  0  0  0  0  0  0  0  0  0
   -8.1098    6.5571    1.0768 C   0  0  0  0  0  0  0  0  0  0  0  0
   -8.7745    6.8752   -0.1160 C   0  0  0  0  0  0  0  0  0  0  0  0
   -8.4231    6.1833   -1.2853 C   0  0  0  0  0  0  0  0  0  0  0  0
   -7.4295    5.2081   -1.2738 C   0  0  0  0  0  0  0  0  0  0  0  0
   -6.7782    4.9237   -0.0725 C   0  0  0  0  0  0  0  0  0  0  0  0
   -6.6057    5.3291    2.0329 H   0  0  0  0  0  0  0  0  0  0  0  0
   -8.3805    7.0737    1.9934 H   0  0  0  0  0  0  0  0  0  0  0  0
   -8.9384    6.4081   -2.2153 H   0  0  0  0  0  0  0  0  0  0  0  0
   -7.1670    4.6629   -2.1737 H   0  0  0  0  0  0  0  0  0  0  0  0
   -5.5083    3.6759   -0.0436 S   0  0  0  0  0  0  0  0  0  0  0  0
   -5.3461    3.1712    1.3220 O   0  0  0  0  0  0  0  0  0  0  0  0
   -4.2413    4.6300   -0.4161 O   0  0  0  0  0  0  0  0  0  0  0  0
   -5.7292    2.7223   -1.1327 O   0  0  0  0  0  0  0  0  0  0  0  0
   -9.8320    7.9516   -0.1487 C   0  0  0  0  0  0  0  0  0  0  0  0
  -10.6372    7.7008   -0.8456 H   0  0  0  0  0  0  0  0  0  0  0  0
  -10.2720    8.1122    0.8391 H   0  0  0  0  0  0  0  0  0  0  0  0
   -9.4057    8.9077   -0.4768 H   0  0  0  0  0  0  0  0  0  0  0  0
  1  8  1  0  0  0  0
  1  2  1  0  0  0  0
  2  3  1  0  0  0  0
  4  1  2  0  0  0  0
  5  6  2  0  0  0  0
  5  4  1  0  0  0  0
  6  7  1  0  0  0  0
  7 12  1  0  0  0  0
  7  8  2  0  0  0  0
  8 13  1  0  0  0  0
  9 26  1  0  0  0  0
 10  5  1  0  0  0  0
 11  6  1  0  0  0  0
 14 20  1  0  0  0  0
 15 14  1  0  0  0  0
 15 21  1  0  0  0  0
 16 15  2  0  0  0  0
 17 18  2  0  0  0  0
 17 16  1  0  0  0  0
 18 19  1  0  0  0  0
 19 24  1  0  0  0  0
 19 14  2  0  0  0  0
 22 17  1  0  0  0  0
 23 18  1  0  0  0  0
 24 25  2  0  0  0  0
 26 24  1  0  0  0  0
 27 24  2  0  0  0  0
 28 16  1  0  0  0  0
 28 30  1  0  0  0  0
 29 28  1  0  0  0  0
 31 28  1  0  0  0  0
M  RAD  3   2   2   3   3   4   2
M  END
