Coordinates from ORCA-job PhN2+~TsO-_B3LYPG-6-31G_dp-CH-Scan-d09-49-n800
 OpenBabel11261919273D

 31 31  0  0  0  0  0  0  0  0999 V2000
   -2.3628    0.6721    0.1344 C   0  0  0  0  0  0  0  0  0  0  0  0
   -3.6708    0.3127    0.4403 N   0  0  0  0  0  0  0  0  0  0  0  0
   -4.7329    0.0668    0.6784 N   0  0  0  0  0  0  0  0  0  0  0  0
   -2.1688    2.0255   -0.1986 C   0  0  0  0  0  0  0  0  0  0  0  0
   -0.8085    2.2798   -0.4961 C   0  0  0  0  0  0  0  0  0  0  0  0
    0.1838    1.3032   -0.4565 C   0  0  0  0  0  0  0  0  0  0  0  0
   -0.1105   -0.0327   -0.1071 C   0  0  0  0  0  0  0  0  0  0  0  0
   -1.4098   -0.3770    0.1988 C   0  0  0  0  0  0  0  0  0  0  0  0
   -3.4676    3.2940   -0.2506 H   0  0  0  0  0  0  0  0  0  0  0  0
   -0.5172    3.2914   -0.7730 H   0  0  0  0  0  0  0  0  0  0  0  0
    1.2112    1.5655   -0.6995 H   0  0  0  0  0  0  0  0  0  0  0  0
    0.6744   -0.7812   -0.0793 H   0  0  0  0  0  0  0  0  0  0  0  0
   -1.6913   -1.3889    0.4749 H   0  0  0  0  0  0  0  0  0  0  0  0
   -7.0424    5.3650    1.1361 C   0  0  0  0  0  0  0  0  0  0  0  0
   -7.9148    6.4497    1.0620 C   0  0  0  0  0  0  0  0  0  0  0  0
   -8.4744    6.8481   -0.1595 C   0  0  0  0  0  0  0  0  0  0  0  0
   -8.1469    6.1217   -1.3148 C   0  0  0  0  0  0  0  0  0  0  0  0
   -7.2785    5.0349   -1.2598 C   0  0  0  0  0  0  0  0  0  0  0  0
   -6.7277    4.6696   -0.0303 C   0  0  0  0  0  0  0  0  0  0  0  0
   -6.6194    5.0466    2.0822 H   0  0  0  0  0  0  0  0  0  0  0  0
   -8.1698    6.9924    1.9684 H   0  0  0  0  0  0  0  0  0  0  0  0
   -8.5836    6.4079   -2.2680 H   0  0  0  0  0  0  0  0  0  0  0  0
   -7.0379    4.4629   -2.1492 H   0  0  0  0  0  0  0  0  0  0  0  0
   -5.6132    3.2797    0.0513 S   0  0  0  0  0  0  0  0  0  0  0  0
   -5.5910    2.7637    1.4296 O   0  0  0  0  0  0  0  0  0  0  0  0
   -4.2354    4.0060   -0.2754 O   0  0  0  0  0  0  0  0  0  0  0  0
   -5.9455    2.3308   -1.0215 O   0  0  0  0  0  0  0  0  0  0  0  0
   -9.3967    8.0409   -0.2378 C   0  0  0  0  0  0  0  0  0  0  0  0
  -10.2208    7.8647   -0.9361 H   0  0  0  0  0  0  0  0  0  0  0  0
   -9.8236    8.2826    0.7391 H   0  0  0  0  0  0  0  0  0  0  0  0
   -8.8592    8.9301   -0.5901 H   0  0  0  0  0  0  0  0  0  0  0  0
  1  8  1  0  0  0  0
  1  2  1  0  0  0  0
  2  3  1  0  0  0  0
  4  1  2  0  0  0  0
  5  6  2  0  0  0  0
  5  4  1  0  0  0  0
  6  7  1  0  0  0  0
  7 12  1  0  0  0  0
  7  8  2  0  0  0  0
  8 13  1  0  0  0  0
 10  5  1  0  0  0  0
 11  6  1  0  0  0  0
 14 20  1  0  0  0  0
 15 14  1  0  0  0  0
 15 21  1  0  0  0  0
 16 15  2  0  0  0  0
 17 18  2  0  0  0  0
 17 16  1  0  0  0  0
 18 19  1  0  0  0  0
 19 24  1  0  0  0  0
 19 14  2  0  0  0  0
 22 17  1  0  0  0  0
 23 18  1  0  0  0  0
 24 25  2  0  0  0  0
 26  9  1  0  0  0  0
 26 24  1  0  0  0  0
 27 24  2  0  0  0  0
 28 16  1  0  0  0  0
 28 30  1  0  0  0  0
 29 28  1  0  0  0  0
 31 28  1  0  0  0  0
M  RAD  3   2   2   3   3   4   2
M  END
