Coordinates from ORCA-job PhN2+~TsO-_B3LYPG-6-31G_dp-CH-Scan-d09-49-n800
 OpenBabel11261919273D

 31 31  0  0  0  0  0  0  0  0999 V2000
   -2.4348    0.7237    0.1303 C   0  0  0  0  0  0  0  0  0  0  0  0
   -3.7388    0.3577    0.4433 N   0  0  0  0  0  0  0  0  0  0  0  0
   -4.8005    0.1188    0.6860 N   0  0  0  0  0  0  0  0  0  0  0  0
   -2.2275    2.0777   -0.1891 C   0  0  0  0  0  0  0  0  0  0  0  0
   -0.8789    2.3487   -0.4953 C   0  0  0  0  0  0  0  0  0  0  0  0
    0.1149    1.3717   -0.4759 C   0  0  0  0  0  0  0  0  0  0  0  0
   -0.1777    0.0339   -0.1417 C   0  0  0  0  0  0  0  0  0  0  0  0
   -1.4754   -0.3171    0.1707 C   0  0  0  0  0  0  0  0  0  0  0  0
   -3.3451    3.1309   -0.2071 H   0  0  0  0  0  0  0  0  0  0  0  0
   -0.6012    3.3664   -0.7603 H   0  0  0  0  0  0  0  0  0  0  0  0
    1.1395    1.6385   -0.7234 H   0  0  0  0  0  0  0  0  0  0  0  0
    0.6068   -0.7152   -0.1297 H   0  0  0  0  0  0  0  0  0  0  0  0
   -1.7516   -1.3330    0.4353 H   0  0  0  0  0  0  0  0  0  0  0  0
   -7.0217    5.3379    1.1490 C   0  0  0  0  0  0  0  0  0  0  0  0
   -7.8912    6.4243    1.0605 C   0  0  0  0  0  0  0  0  0  0  0  0
   -8.4327    6.8211   -0.1694 C   0  0  0  0  0  0  0  0  0  0  0  0
   -8.0899    6.0907   -1.3175 C   0  0  0  0  0  0  0  0  0  0  0  0
   -7.2239    5.0027   -1.2467 C   0  0  0  0  0  0  0  0  0  0  0  0
   -6.6902    4.6375   -0.0096 C   0  0  0  0  0  0  0  0  0  0  0  0
   -6.6134    5.0200    2.1018 H   0  0  0  0  0  0  0  0  0  0  0  0
   -8.1583    6.9695    1.9621 H   0  0  0  0  0  0  0  0  0  0  0  0
   -8.5128    6.3748   -2.2778 H   0  0  0  0  0  0  0  0  0  0  0  0
   -6.9724    4.4273   -2.1310 H   0  0  0  0  0  0  0  0  0  0  0  0
   -5.5662    3.2528    0.0890 S   0  0  0  0  0  0  0  0  0  0  0  0
   -5.5826    2.7358    1.4731 O   0  0  0  0  0  0  0  0  0  0  0  0
   -4.1918    3.9277   -0.2234 O   0  0  0  0  0  0  0  0  0  0  0  0
   -5.9150    2.2851   -0.9697 O   0  0  0  0  0  0  0  0  0  0  0  0
   -9.3518    8.0156   -0.2639 C   0  0  0  0  0  0  0  0  0  0  0  0
  -10.1712    7.8361   -0.9670 H   0  0  0  0  0  0  0  0  0  0  0  0
   -9.7859    8.2652    0.7079 H   0  0  0  0  0  0  0  0  0  0  0  0
   -8.8106    8.9018   -0.6185 H   0  0  0  0  0  0  0  0  0  0  0  0
  1  8  1  0  0  0  0
  1  2  1  0  0  0  0
  2  3  1  0  0  0  0
  4  1  2  0  0  0  0
  5  6  2  0  0  0  0
  5  4  1  0  0  0  0
  6  7  1  0  0  0  0
  7 12  1  0  0  0  0
  7  8  2  0  0  0  0
  8 13  1  0  0  0  0
 10  5  1  0  0  0  0
 11  6  1  0  0  0  0
 14 20  1  0  0  0  0
 15 14  1  0  0  0  0
 15 21  1  0  0  0  0
 16 15  2  0  0  0  0
 17 18  2  0  0  0  0
 17 16  1  0  0  0  0
 18 19  1  0  0  0  0
 19 24  1  0  0  0  0
 19 14  2  0  0  0  0
 22 17  1  0  0  0  0
 23 18  1  0  0  0  0
 24 25  2  0  0  0  0
 26  9  1  0  0  0  0
 26 24  1  0  0  0  0
 27 24  2  0  0  0  0
 28 16  1  0  0  0  0
 28 30  1  0  0  0  0
 29 28  1  0  0  0  0
 31 28  1  0  0  0  0
M  RAD  3   2   2   3   3   4   2
M  END
