Coordinates from ORCA-job PhN2+~TsO-_B3LYPG-6-31G_dp-CH-Scan-d09-49-n800
 OpenBabel11261919273D

 31 31  0  0  0  0  0  0  0  0999 V2000
   -2.3617    0.6719    0.1343 C   0  0  0  0  0  0  0  0  0  0  0  0
   -3.6702    0.3138    0.4397 N   0  0  0  0  0  0  0  0  0  0  0  0
   -4.7325    0.0689    0.6775 N   0  0  0  0  0  0  0  0  0  0  0  0
   -2.1667    2.0250   -0.1991 C   0  0  0  0  0  0  0  0  0  0  0  0
   -0.8060    2.2780   -0.4961 C   0  0  0  0  0  0  0  0  0  0  0  0
    0.1855    1.3006   -0.4557 C   0  0  0  0  0  0  0  0  0  0  0  0
   -0.1099   -0.0349   -0.1058 C   0  0  0  0  0  0  0  0  0  0  0  0
   -1.4096   -0.3781    0.1997 C   0  0  0  0  0  0  0  0  0  0  0  0
   -3.4681    3.2979   -0.2523 H   0  0  0  0  0  0  0  0  0  0  0  0
   -0.5137    3.2892   -0.7734 H   0  0  0  0  0  0  0  0  0  0  0  0
    1.2132    1.5621   -0.6984 H   0  0  0  0  0  0  0  0  0  0  0  0
    0.6744   -0.7840   -0.0774 H   0  0  0  0  0  0  0  0  0  0  0  0
   -1.6920   -1.3896    0.4761 H   0  0  0  0  0  0  0  0  0  0  0  0
   -7.0424    5.3657    1.1356 C   0  0  0  0  0  0  0  0  0  0  0  0
   -7.9154    6.4500    1.0622 C   0  0  0  0  0  0  0  0  0  0  0  0
   -8.4758    6.8482   -0.1591 C   0  0  0  0  0  0  0  0  0  0  0  0
   -8.1485    6.1221   -1.3146 C   0  0  0  0  0  0  0  0  0  0  0  0
   -7.2796    5.0357   -1.2602 C   0  0  0  0  0  0  0  0  0  0  0  0
   -6.7279    4.6706   -0.0310 C   0  0  0  0  0  0  0  0  0  0  0  0
   -6.6187    5.0474    2.0814 H   0  0  0  0  0  0  0  0  0  0  0  0
   -8.1701    6.9924    1.9687 H   0  0  0  0  0  0  0  0  0  0  0  0
   -8.5858    6.4082   -2.2676 H   0  0  0  0  0  0  0  0  0  0  0  0
   -7.0391    4.4639   -2.1498 H   0  0  0  0  0  0  0  0  0  0  0  0
   -5.6128    3.2811    0.0499 S   0  0  0  0  0  0  0  0  0  0  0  0
   -5.5895    2.7650    1.4280 O   0  0  0  0  0  0  0  0  0  0  0  0
   -4.2354    4.0088   -0.2772 O   0  0  0  0  0  0  0  0  0  0  0  0
   -5.9448    2.3325   -1.0231 O   0  0  0  0  0  0  0  0  0  0  0  0
   -9.3987    8.0405   -0.2368 C   0  0  0  0  0  0  0  0  0  0  0  0
  -10.2230    7.8641   -0.9348 H   0  0  0  0  0  0  0  0  0  0  0  0
   -9.8254    8.2818    0.7403 H   0  0  0  0  0  0  0  0  0  0  0  0
   -8.8618    8.9301   -0.5890 H   0  0  0  0  0  0  0  0  0  0  0  0
  1  8  1  0  0  0  0
  1  2  1  0  0  0  0
  2  3  1  0  0  0  0
  4  1  2  0  0  0  0
  5  6  2  0  0  0  0
  5  4  1  0  0  0  0
  6  7  1  0  0  0  0
  7 12  1  0  0  0  0
  7  8  2  0  0  0  0
  8 13  1  0  0  0  0
 10  5  1  0  0  0  0
 11  6  1  0  0  0  0
 14 20  1  0  0  0  0
 15 14  1  0  0  0  0
 15 21  1  0  0  0  0
 16 15  2  0  0  0  0
 17 18  2  0  0  0  0
 17 16  1  0  0  0  0
 18 19  1  0  0  0  0
 19 24  1  0  0  0  0
 19 14  2  0  0  0  0
 22 17  1  0  0  0  0
 23 18  1  0  0  0  0
 24 25  2  0  0  0  0
 26  9  1  0  0  0  0
 26 24  1  0  0  0  0
 27 24  2  0  0  0  0
 28 16  1  0  0  0  0
 28 30  1  0  0  0  0
 29 28  1  0  0  0  0
 31 28  1  0  0  0  0
M  RAD  3   2   2   3   3   4   2
M  END
