Coordinates from ORCA-job PhN2+~TsO-_B3LYPG-6-31G_dp-CH-Scan-d09-49-n800
 OpenBabel11261919273D

 31 31  0  0  0  0  0  0  0  0999 V2000
   -2.0002    0.4976    0.0946 C   0  0  0  0  0  0  0  0  0  0  0  0
   -3.3755    0.5330    0.3275 N   0  0  0  0  0  0  0  0  0  0  0  0
   -4.4766    0.6078    0.5038 N   0  0  0  0  0  0  0  0  0  0  0  0
   -1.4618    1.7441   -0.2624 C   0  0  0  0  0  0  0  0  0  0  0  0
   -0.0621    1.6029   -0.4863 C   0  0  0  0  0  0  0  0  0  0  0  0
    0.6303    0.4024   -0.3621 C   0  0  0  0  0  0  0  0  0  0  0  0
   -0.0249   -0.7973    0.0091 C   0  0  0  0  0  0  0  0  0  0  0  0
   -1.3805   -0.7725    0.2496 C   0  0  0  0  0  0  0  0  0  0  0  0
   -3.3419    4.6644   -0.5272 H   0  0  0  0  0  0  0  0  0  0  0  0
    0.5130    2.4839   -0.7752 H   0  0  0  0  0  0  0  0  0  0  0  0
    1.7020    0.3697   -0.5530 H   0  0  0  0  0  0  0  0  0  0  0  0
    0.5334   -1.7234    0.1028 H   0  0  0  0  0  0  0  0  0  0  0  0
   -1.9368   -1.6606    0.5378 H   0  0  0  0  0  0  0  0  0  0  0  0
   -7.1504    5.7148    1.1102 C   0  0  0  0  0  0  0  0  0  0  0  0
   -8.2515    6.5687    1.0917 C   0  0  0  0  0  0  0  0  0  0  0  0
   -8.9472    6.8296   -0.0971 C   0  0  0  0  0  0  0  0  0  0  0  0
   -8.5193    6.2016   -1.2772 C   0  0  0  0  0  0  0  0  0  0  0  0
   -7.4221    5.3451   -1.2801 C   0  0  0  0  0  0  0  0  0  0  0  0
   -6.7440    5.1156   -0.0816 C   0  0  0  0  0  0  0  0  0  0  0  0
   -6.6191    5.5020    2.0311 H   0  0  0  0  0  0  0  0  0  0  0  0
   -8.5786    7.0364    2.0159 H   0  0  0  0  0  0  0  0  0  0  0  0
   -9.0563    6.3827   -2.2045 H   0  0  0  0  0  0  0  0  0  0  0  0
   -7.0993    4.8490   -2.1885 H   0  0  0  0  0  0  0  0  0  0  0  0
   -5.3416    4.0201   -0.0714 S   0  0  0  0  0  0  0  0  0  0  0  0
   -5.1168    3.5200    1.2848 O   0  0  0  0  0  0  0  0  0  0  0  0
   -4.1913    5.1320   -0.4284 O   0  0  0  0  0  0  0  0  0  0  0  0
   -5.4420    3.0734   -1.1823 O   0  0  0  0  0  0  0  0  0  0  0  0
  -10.1199    7.7798   -0.1155 C   0  0  0  0  0  0  0  0  0  0  0  0
  -10.9038    7.4340   -0.7960 H   0  0  0  0  0  0  0  0  0  0  0  0
  -10.5572    7.8969    0.8795 H   0  0  0  0  0  0  0  0  0  0  0  0
   -9.8101    8.7750   -0.4575 H   0  0  0  0  0  0  0  0  0  0  0  0
  1  8  1  0  0  0  0
  1  2  1  0  0  0  0
  2  3  1  0  0  0  0
  4  1  2  0  0  0  0
  5  6  2  0  0  0  0
  5  4  1  0  0  0  0
  6  7  1  0  0  0  0
  7 12  1  0  0  0  0
  7  8  2  0  0  0  0
  8 13  1  0  0  0  0
  9 26  1  0  0  0  0
 10  5  1  0  0  0  0
 11  6  1  0  0  0  0
 14 20  1  0  0  0  0
 15 14  1  0  0  0  0
 15 21  1  0  0  0  0
 16 15  2  0  0  0  0
 17 16  1  0  0  0  0
 18 17  2  0  0  0  0
 18 19  1  0  0  0  0
 19 24  1  0  0  0  0
 19 14  2  0  0  0  0
 22 17  1  0  0  0  0
 23 18  1  0  0  0  0
 24 25  2  0  0  0  0
 26 24  1  0  0  0  0
 27 24  2  0  0  0  0
 28 16  1  0  0  0  0
 28 30  1  0  0  0  0
 29 28  1  0  0  0  0
 31 28  1  0  0  0  0
M  RAD  3   2   2   3   3   4   2
M  END
