Coordinates from ORCA-job PhN2+~TsO-_B3LYPG-6-31G_dp-CH-Scan-d09-49-n800
 OpenBabel11261919283D

 31 31  0  0  0  0  0  0  0  0999 V2000
   -1.9159    0.4789    0.0863 C   0  0  0  0  0  0  0  0  0  0  0  0
   -3.2844    0.6646    0.2957 N   0  0  0  0  0  0  0  0  0  0  0  0
   -4.3735    0.8624    0.4536 N   0  0  0  0  0  0  0  0  0  0  0  0
   -1.2487    1.6604   -0.2710 C   0  0  0  0  0  0  0  0  0  0  0  0
    0.1338    1.3707   -0.4664 C   0  0  0  0  0  0  0  0  0  0  0  0
    0.6951    0.1063   -0.3191 C   0  0  0  0  0  0  0  0  0  0  0  0
   -0.0879   -1.0160    0.0486 C   0  0  0  0  0  0  0  0  0  0  0  0
   -1.4375   -0.8483    0.2636 C   0  0  0  0  0  0  0  0  0  0  0  0
   -3.3032    5.1523   -0.6979 H   0  0  0  0  0  0  0  0  0  0  0  0
    0.8035    2.1840   -0.7509 H   0  0  0  0  0  0  0  0  0  0  0  0
    1.7611   -0.0402   -0.4889 H   0  0  0  0  0  0  0  0  0  0  0  0
    0.3696   -1.9940    0.1600 H   0  0  0  0  0  0  0  0  0  0  0  0
   -2.0888   -1.6706    0.5481 H   0  0  0  0  0  0  0  0  0  0  0  0
   -7.1612    5.8042    1.1021 C   0  0  0  0  0  0  0  0  0  0  0  0
   -8.3399    6.5479    1.1097 C   0  0  0  0  0  0  0  0  0  0  0  0
   -9.0655    6.7693   -0.0690 C   0  0  0  0  0  0  0  0  0  0  0  0
   -8.5867    6.2148   -1.2666 C   0  0  0  0  0  0  0  0  0  0  0  0
   -7.4121    5.4690   -1.2957 C   0  0  0  0  0  0  0  0  0  0  0  0
   -6.7070    5.2767   -0.1060 C   0  0  0  0  0  0  0  0  0  0  0  0
   -6.6055    5.6215    2.0151 H   0  0  0  0  0  0  0  0  0  0  0  0
   -8.7041    6.9593    2.0466 H   0  0  0  0  0  0  0  0  0  0  0  0
   -9.1447    6.3659   -2.1868 H   0  0  0  0  0  0  0  0  0  0  0  0
   -7.0496    5.0289   -2.2178 H   0  0  0  0  0  0  0  0  0  0  0  0
   -5.2059    4.3220   -0.1292 S   0  0  0  0  0  0  0  0  0  0  0  0
   -4.9107    3.8375    1.2178 O   0  0  0  0  0  0  0  0  0  0  0  0
   -4.1713    5.5450   -0.4972 O   0  0  0  0  0  0  0  0  0  0  0  0
   -5.2246    3.3842   -1.2519 O   0  0  0  0  0  0  0  0  0  0  0  0
  -10.3260    7.5999   -0.0588 C   0  0  0  0  0  0  0  0  0  0  0  0
  -11.0885    7.1766   -0.7198 H   0  0  0  0  0  0  0  0  0  0  0  0
  -10.7482    7.6755    0.9467 H   0  0  0  0  0  0  0  0  0  0  0  0
  -10.1239    8.6197   -0.4088 H   0  0  0  0  0  0  0  0  0  0  0  0
  1  8  1  0  0  0  0
  1  2  1  0  0  0  0
  2  3  1  0  0  0  0
  4  1  2  0  0  0  0
  5  6  2  0  0  0  0
  5  4  1  0  0  0  0
  6  7  1  0  0  0  0
  7 12  1  0  0  0  0
  7  8  2  0  0  0  0
  8 13  1  0  0  0  0
  9 26  1  0  0  0  0
 10  5  1  0  0  0  0
 11  6  1  0  0  0  0
 14 15  1  0  0  0  0
 14 20  1  0  0  0  0
 15 21  1  0  0  0  0
 16 28  1  0  0  0  0
 16 15  2  0  0  0  0
 17 16  1  0  0  0  0
 18 17  2  0  0  0  0
 18 19  1  0  0  0  0
 19 14  2  0  0  0  0
 22 17  1  0  0  0  0
 23 18  1  0  0  0  0
 24 19  1  0  0  0  0
 24 25  2  0  0  0  0
 26 24  1  0  0  0  0
 27 24  2  0  0  0  0
 28 30  1  0  0  0  0
 29 28  1  0  0  0  0
 31 28  1  0  0  0  0
M  RAD  3   2   2   3   3   4   2
M  END
