Coordinates from ORCA-job PhN2+~TsO-_B3LYPG-6-31G_dp-CH-Scan-d09-49-n800
 OpenBabel11261919273D

 31 31  0  0  0  0  0  0  0  0999 V2000
   -2.4338    0.7225    0.1304 C   0  0  0  0  0  0  0  0  0  0  0  0
   -3.7375    0.3557    0.4433 N   0  0  0  0  0  0  0  0  0  0  0  0
   -4.7990    0.1154    0.6861 N   0  0  0  0  0  0  0  0  0  0  0  0
   -2.2279    2.0768   -0.1891 C   0  0  0  0  0  0  0  0  0  0  0  0
   -0.8792    2.3484   -0.4952 C   0  0  0  0  0  0  0  0  0  0  0  0
    0.1153    1.3720   -0.4758 C   0  0  0  0  0  0  0  0  0  0  0  0
   -0.1764    0.0340   -0.1415 C   0  0  0  0  0  0  0  0  0  0  0  0
   -1.4738   -0.3178    0.1709 C   0  0  0  0  0  0  0  0  0  0  0  0
   -3.3492    3.1334   -0.2074 H   0  0  0  0  0  0  0  0  0  0  0  0
   -0.6019    3.3661   -0.7603 H   0  0  0  0  0  0  0  0  0  0  0  0
    1.1397    1.6396   -0.7232 H   0  0  0  0  0  0  0  0  0  0  0  0
    0.6086   -0.7146   -0.1294 H   0  0  0  0  0  0  0  0  0  0  0  0
   -1.7495   -1.3338    0.4356 H   0  0  0  0  0  0  0  0  0  0  0  0
   -7.0220    5.3380    1.1490 C   0  0  0  0  0  0  0  0  0  0  0  0
   -7.8910    6.4248    1.0605 C   0  0  0  0  0  0  0  0  0  0  0  0
   -8.4325    6.8217   -0.1694 C   0  0  0  0  0  0  0  0  0  0  0  0
   -8.0902    6.0911   -1.3175 C   0  0  0  0  0  0  0  0  0  0  0  0
   -7.2247    5.0026   -1.2468 C   0  0  0  0  0  0  0  0  0  0  0  0
   -6.6910    4.6375   -0.0097 C   0  0  0  0  0  0  0  0  0  0  0  0
   -6.6136    5.0201    2.1017 H   0  0  0  0  0  0  0  0  0  0  0  0
   -8.1578    6.9701    1.9620 H   0  0  0  0  0  0  0  0  0  0  0  0
   -8.5132    6.3752   -2.2778 H   0  0  0  0  0  0  0  0  0  0  0  0
   -6.9736    4.4271   -2.1311 H   0  0  0  0  0  0  0  0  0  0  0  0
   -5.5679    3.2521    0.0889 S   0  0  0  0  0  0  0  0  0  0  0  0
   -5.5837    2.7354    1.4730 O   0  0  0  0  0  0  0  0  0  0  0  0
   -4.1931    3.9276   -0.2238 O   0  0  0  0  0  0  0  0  0  0  0  0
   -5.9165    2.2849   -0.9700 O   0  0  0  0  0  0  0  0  0  0  0  0
   -9.3511    8.0165   -0.2638 C   0  0  0  0  0  0  0  0  0  0  0  0
  -10.1705    7.8374   -0.9671 H   0  0  0  0  0  0  0  0  0  0  0  0
   -9.7853    8.2662    0.7079 H   0  0  0  0  0  0  0  0  0  0  0  0
   -8.8095    8.9025   -0.6182 H   0  0  0  0  0  0  0  0  0  0  0  0
  1  8  1  0  0  0  0
  1  2  1  0  0  0  0
  2  3  1  0  0  0  0
  4  1  2  0  0  0  0
  5  6  2  0  0  0  0
  5  4  1  0  0  0  0
  6  7  1  0  0  0  0
  7 12  1  0  0  0  0
  7  8  2  0  0  0  0
  8 13  1  0  0  0  0
 10  5  1  0  0  0  0
 11  6  1  0  0  0  0
 14 20  1  0  0  0  0
 15 14  1  0  0  0  0
 15 21  1  0  0  0  0
 16 15  2  0  0  0  0
 17 18  2  0  0  0  0
 17 16  1  0  0  0  0
 18 19  1  0  0  0  0
 19 24  1  0  0  0  0
 19 14  2  0  0  0  0
 22 17  1  0  0  0  0
 23 18  1  0  0  0  0
 24 25  2  0  0  0  0
 26  9  1  0  0  0  0
 26 24  1  0  0  0  0
 27 24  2  0  0  0  0
 28 16  1  0  0  0  0
 28 30  1  0  0  0  0
 29 28  1  0  0  0  0
 31 28  1  0  0  0  0
M  RAD  3   2   2   3   3   4   2
M  END
