Coordinates from ORCA-job PhN2+~TsO-_B3LYPG-6-31G_dp-CH-Scan-d09-49-n800
 OpenBabel11261919283D

 31 31  0  0  0  0  0  0  0  0999 V2000
   -2.2102    0.4567   -0.7971 C   0  0  0  0  0  0  0  0  0  0  0  0
   -3.4150    0.0668   -1.3908 N   0  0  0  0  0  0  0  0  0  0  0  0
   -4.3306   -0.2882   -1.9249 N   0  0  0  0  0  0  0  0  0  0  0  0
   -1.1003   -0.0795   -1.4650 C   0  0  0  0  0  0  0  0  0  0  0  0
    0.0892    0.3758   -0.8199 C   0  0  0  0  0  0  0  0  0  0  0  0
    0.1018    1.2166    0.2876 C   0  0  0  0  0  0  0  0  0  0  0  0
   -1.0987    1.6817    0.8834 C   0  0  0  0  0  0  0  0  0  0  0  0
   -2.3086    1.3007    0.3431 C   0  0  0  0  0  0  0  0  0  0  0  0
   -3.0838    4.1530   -0.0456 H   0  0  0  0  0  0  0  0  0  0  0  0
    1.0539    0.0504   -1.2120 H   0  0  0  0  0  0  0  0  0  0  0  0
    1.0496    1.5278    0.7243 H   0  0  0  0  0  0  0  0  0  0  0  0
   -1.0641    2.3137    1.7658 H   0  0  0  0  0  0  0  0  0  0  0  0
   -3.2659    1.6054    0.7539 H   0  0  0  0  0  0  0  0  0  0  0  0
   -7.2735    4.4317    0.6922 C   0  0  0  0  0  0  0  0  0  0  0  0
   -8.3664    5.2138    1.0533 C   0  0  0  0  0  0  0  0  0  0  0  0
   -8.6650    6.4043    0.3723 C   0  0  0  0  0  0  0  0  0  0  0  0
   -7.8345    6.7981   -0.6866 C   0  0  0  0  0  0  0  0  0  0  0  0
   -6.7335    6.0320   -1.0629 C   0  0  0  0  0  0  0  0  0  0  0  0
   -6.4642    4.8557   -0.3635 C   0  0  0  0  0  0  0  0  0  0  0  0
   -7.0524    3.5048    1.2095 H   0  0  0  0  0  0  0  0  0  0  0  0
   -9.0011    4.8944    1.8757 H   0  0  0  0  0  0  0  0  0  0  0  0
   -8.0528    7.7154   -1.2258 H   0  0  0  0  0  0  0  0  0  0  0  0
   -6.0971    6.3303   -1.8889 H   0  0  0  0  0  0  0  0  0  0  0  0
   -5.0651    3.8706   -0.8387 S   0  0  0  0  0  0  0  0  0  0  0  0
   -5.2909    2.4752   -0.4491 O   0  0  0  0  0  0  0  0  0  0  0  0
   -3.9565    4.5150    0.1942 O   0  0  0  0  0  0  0  0  0  0  0  0
   -4.6558    4.1852   -2.2051 O   0  0  0  0  0  0  0  0  0  0  0  0
   -9.8731    7.2234    0.7550 C   0  0  0  0  0  0  0  0  0  0  0  0
  -10.7839    6.8028    0.3123 H   0  0  0  0  0  0  0  0  0  0  0  0
  -10.0179    7.2393    1.8395 H   0  0  0  0  0  0  0  0  0  0  0  0
   -9.7854    8.2557    0.4062 H   0  0  0  0  0  0  0  0  0  0  0  0
  1  8  2  0  0  0  0
  2  1  1  0  0  0  0
  3  2  1  0  0  0  0
  4  5  2  0  0  0  0
  4  1  1  0  0  0  0
  5  6  1  0  0  0  0
  6 11  1  0  0  0  0
  6  7  2  0  0  0  0
  7 12  1  0  0  0  0
  8 13  1  0  0  0  0
  8  7  1  0  0  0  0
  9 26  1  0  0  0  0
 10  5  1  0  0  0  0
 14 15  1  0  0  0  0
 14 20  1  0  0  0  0
 15 21  1  0  0  0  0
 16 28  1  0  0  0  0
 16 15  2  0  0  0  0
 17 16  1  0  0  0  0
 18 17  2  0  0  0  0
 18 19  1  0  0  0  0
 19 14  2  0  0  0  0
 22 17  1  0  0  0  0
 23 18  1  0  0  0  0
 24 25  2  0  0  0  0
 24 19  1  0  0  0  0
 24 26  1  0  0  0  0
 27 24  2  0  0  0  0
 28 30  1  0  0  0  0
 29 28  1  0  0  0  0
 31 28  1  0  0  0  0
M  RAD  3   2   2   3   3   4   2
M  END
