Coordinates from ORCA-job PhN2+~TsO-_B3LYPG-6-31G_dp-CH-Scan-d09-49-n800
 OpenBabel11261919273D

 31 31  0  0  0  0  0  0  0  0999 V2000
   -1.9789    0.4918    0.0978 C   0  0  0  0  0  0  0  0  0  0  0  0
   -3.3519    0.5717    0.3356 N   0  0  0  0  0  0  0  0  0  0  0  0
   -4.4499    0.6833    0.5130 N   0  0  0  0  0  0  0  0  0  0  0  0
   -1.4058    1.7212   -0.2634 C   0  0  0  0  0  0  0  0  0  0  0  0
   -0.0112    1.5367   -0.4908 C   0  0  0  0  0  0  0  0  0  0  0  0
    0.6449    0.3160   -0.3665 C   0  0  0  0  0  0  0  0  0  0  0  0
   -0.0452   -0.8629    0.0088 C   0  0  0  0  0  0  0  0  0  0  0  0
   -1.3986   -0.7967    0.2534 C   0  0  0  0  0  0  0  0  0  0  0  0
   -3.3196    4.8138   -0.5534 H   0  0  0  0  0  0  0  0  0  0  0  0
    0.5899    2.3992   -0.7831 H   0  0  0  0  0  0  0  0  0  0  0  0
    1.7145    0.2503   -0.5606 H   0  0  0  0  0  0  0  0  0  0  0  0
    0.4854   -1.8052    0.1025 H   0  0  0  0  0  0  0  0  0  0  0  0
   -1.9808   -1.6668    0.5451 H   0  0  0  0  0  0  0  0  0  0  0  0
   -7.1574    5.7416    1.1123 C   0  0  0  0  0  0  0  0  0  0  0  0
   -8.2834    6.5624    1.0956 C   0  0  0  0  0  0  0  0  0  0  0  0
   -8.9826    6.8106   -0.0939 C   0  0  0  0  0  0  0  0  0  0  0  0
   -8.5323    6.2034   -1.2766 C   0  0  0  0  0  0  0  0  0  0  0  0
   -7.4100    5.3801   -1.2813 C   0  0  0  0  0  0  0  0  0  0  0  0
   -6.7294    5.1629   -0.0819 C   0  0  0  0  0  0  0  0  0  0  0  0
   -6.6230    5.5386    2.0338 H   0  0  0  0  0  0  0  0  0  0  0  0
   -8.6273    7.0141    2.0217 H   0  0  0  0  0  0  0  0  0  0  0  0
   -9.0712    6.3748   -2.2046 H   0  0  0  0  0  0  0  0  0  0  0  0
   -7.0697    4.9000   -2.1919 H   0  0  0  0  0  0  0  0  0  0  0  0
   -5.2950    4.1100   -0.0743 S   0  0  0  0  0  0  0  0  0  0  0  0
   -5.0550    3.6144    1.2806 O   0  0  0  0  0  0  0  0  0  0  0  0
   -4.1777    5.2581   -0.4289 O   0  0  0  0  0  0  0  0  0  0  0  0
   -5.3640    3.1652   -1.1891 O   0  0  0  0  0  0  0  0  0  0  0  0
  -10.1832    7.7254   -0.1103 C   0  0  0  0  0  0  0  0  0  0  0  0
  -10.9591    7.3543   -0.7868 H   0  0  0  0  0  0  0  0  0  0  0  0
  -10.6199    7.8324    0.8861 H   0  0  0  0  0  0  0  0  0  0  0  0
   -9.9044    8.7282   -0.4567 H   0  0  0  0  0  0  0  0  0  0  0  0
  1  8  1  0  0  0  0
  1  2  1  0  0  0  0
  2  3  1  0  0  0  0
  4  1  2  0  0  0  0
  5  6  2  0  0  0  0
  5  4  1  0  0  0  0
  6  7  1  0  0  0  0
  7 12  1  0  0  0  0
  7  8  2  0  0  0  0
  8 13  1  0  0  0  0
  9 26  1  0  0  0  0
 10  5  1  0  0  0  0
 11  6  1  0  0  0  0
 14 20  1  0  0  0  0
 15 14  1  0  0  0  0
 15 21  1  0  0  0  0
 16 15  2  0  0  0  0
 17 16  1  0  0  0  0
 18 17  2  0  0  0  0
 18 19  1  0  0  0  0
 19 24  1  0  0  0  0
 19 14  2  0  0  0  0
 22 17  1  0  0  0  0
 23 18  1  0  0  0  0
 24 25  2  0  0  0  0
 26 24  1  0  0  0  0
 27 24  2  0  0  0  0
 28 16  1  0  0  0  0
 28 30  1  0  0  0  0
 29 28  1  0  0  0  0
 31 28  1  0  0  0  0
M  RAD  3   2   2   3   3   4   2
M  END
