Coordinates from ORCA-job PhN2+~TsO-_B3LYPG-6-31G_dp-CH-Scan-d09-49-n800
 OpenBabel11261919273D

 31 31  0  0  0  0  0  0  0  0999 V2000
   -2.0191    0.5034    0.0912 C   0  0  0  0  0  0  0  0  0  0  0  0
   -3.3952    0.4965    0.3189 N   0  0  0  0  0  0  0  0  0  0  0  0
   -4.4987    0.5342    0.4919 N   0  0  0  0  0  0  0  0  0  0  0  0
   -1.5132    1.7649   -0.2613 C   0  0  0  0  0  0  0  0  0  0  0  0
   -0.1095    1.6646   -0.4793 C   0  0  0  0  0  0  0  0  0  0  0  0
    0.6163    0.4840   -0.3539 C   0  0  0  0  0  0  0  0  0  0  0  0
   -0.0062   -0.7343    0.0122 C   0  0  0  0  0  0  0  0  0  0  0  0
   -1.3631   -0.7484    0.2466 C   0  0  0  0  0  0  0  0  0  0  0  0
   -3.3683    4.5226   -0.5117 H   0  0  0  0  0  0  0  0  0  0  0  0
    0.4411    2.5623   -0.7641 H   0  0  0  0  0  0  0  0  0  0  0  0
    1.6893    0.4824   -0.5398 H   0  0  0  0  0  0  0  0  0  0  0  0
    0.5774   -1.6445    0.1069 H   0  0  0  0  0  0  0  0  0  0  0  0
   -1.8949   -1.6526    0.5307 H   0  0  0  0  0  0  0  0  0  0  0  0
   -7.1433    5.6880    1.1069 C   0  0  0  0  0  0  0  0  0  0  0  0
   -8.2197    6.5726    1.0885 C   0  0  0  0  0  0  0  0  0  0  0  0
   -8.9126    6.8472   -0.0990 C   0  0  0  0  0  0  0  0  0  0  0  0
   -8.5077    6.2013   -1.2775 C   0  0  0  0  0  0  0  0  0  0  0  0
   -7.4352    5.3139   -1.2801 C   0  0  0  0  0  0  0  0  0  0  0  0
   -6.7590    5.0713   -0.0833 C   0  0  0  0  0  0  0  0  0  0  0  0
   -6.6144    5.4648    2.0269 H   0  0  0  0  0  0  0  0  0  0  0  0
   -8.5298    7.0539    2.0116 H   0  0  0  0  0  0  0  0  0  0  0  0
   -9.0430    6.3930   -2.2036 H   0  0  0  0  0  0  0  0  0  0  0  0
   -7.1304    4.8040   -2.1872 H   0  0  0  0  0  0  0  0  0  0  0  0
   -5.3882    3.9362   -0.0726 S   0  0  0  0  0  0  0  0  0  0  0  0
   -5.1739    3.4346    1.2852 O   0  0  0  0  0  0  0  0  0  0  0  0
   -4.2087    5.0118   -0.4372 O   0  0  0  0  0  0  0  0  0  0  0  0
   -5.5215    2.9867   -1.1780 O   0  0  0  0  0  0  0  0  0  0  0  0
  -10.0578    7.8304   -0.1173 C   0  0  0  0  0  0  0  0  0  0  0  0
  -10.8487    7.5100   -0.8020 H   0  0  0  0  0  0  0  0  0  0  0  0
  -10.4951    7.9558    0.8767 H   0  0  0  0  0  0  0  0  0  0  0  0
   -9.7185    8.8179   -0.4537 H   0  0  0  0  0  0  0  0  0  0  0  0
  1  8  1  0  0  0  0
  1  2  1  0  0  0  0
  2  3  1  0  0  0  0
  4  1  2  0  0  0  0
  5  6  2  0  0  0  0
  5  4  1  0  0  0  0
  6  7  1  0  0  0  0
  7 12  1  0  0  0  0
  7  8  2  0  0  0  0
  8 13  1  0  0  0  0
  9 26  1  0  0  0  0
 10  5  1  0  0  0  0
 11  6  1  0  0  0  0
 14 20  1  0  0  0  0
 15 14  1  0  0  0  0
 15 21  1  0  0  0  0
 16 15  2  0  0  0  0
 17 16  1  0  0  0  0
 18 17  2  0  0  0  0
 18 19  1  0  0  0  0
 19 24  1  0  0  0  0
 19 14  2  0  0  0  0
 22 17  1  0  0  0  0
 23 18  1  0  0  0  0
 24 25  2  0  0  0  0
 26 24  1  0  0  0  0
 27 24  2  0  0  0  0
 28 16  1  0  0  0  0
 28 30  1  0  0  0  0
 29 28  1  0  0  0  0
 31 28  1  0  0  0  0
M  RAD  3   2   2   3   3   4   2
M  END
