Coordinates from ORCA-job PhN2+~TsO-_B3LYPG-6-31G_dp-CH-Scan-d09-49-n800
 OpenBabel11261919273D

 31 31  0  0  0  0  0  0  0  0999 V2000
   -2.0593    0.5186    0.0892 C   0  0  0  0  0  0  0  0  0  0  0  0
   -3.4333    0.4529    0.3154 N   0  0  0  0  0  0  0  0  0  0  0  0
   -4.5372    0.4430    0.4882 N   0  0  0  0  0  0  0  0  0  0  0  0
   -1.6018    1.8008   -0.2566 C   0  0  0  0  0  0  0  0  0  0  0  0
   -0.1956    1.7603   -0.4716 C   0  0  0  0  0  0  0  0  0  0  0  0
    0.5775    0.6095   -0.3497 C   0  0  0  0  0  0  0  0  0  0  0  0
    0.0042   -0.6345    0.0085 C   0  0  0  0  0  0  0  0  0  0  0  0
   -1.3517   -0.7051    0.2393 C   0  0  0  0  0  0  0  0  0  0  0  0
   -3.3992    4.3197   -0.4837 H   0  0  0  0  0  0  0  0  0  0  0  0
    0.3177    2.6812   -0.7507 H   0  0  0  0  0  0  0  0  0  0  0  0
    1.6501    0.6529   -0.5326 H   0  0  0  0  0  0  0  0  0  0  0  0
    0.6238   -1.5208    0.1003 H   0  0  0  0  0  0  0  0  0  0  0  0
   -1.8465   -1.6317    0.5176 H   0  0  0  0  0  0  0  0  0  0  0  0
   -7.1268    5.6454    1.1050 C   0  0  0  0  0  0  0  0  0  0  0  0
   -8.1689    6.5699    1.0833 C   0  0  0  0  0  0  0  0  0  0  0  0
   -8.8546    6.8623   -0.1043 C   0  0  0  0  0  0  0  0  0  0  0  0
   -8.4781    6.1932   -1.2791 C   0  0  0  0  0  0  0  0  0  0  0  0
   -7.4400    5.2655   -1.2783 C   0  0  0  0  0  0  0  0  0  0  0  0
   -6.7696    5.0060   -0.0818 C   0  0  0  0  0  0  0  0  0  0  0  0
   -6.6039    5.4087    2.0250 H   0  0  0  0  0  0  0  0  0  0  0  0
   -8.4580    7.0690    2.0039 H   0  0  0  0  0  0  0  0  0  0  0  0
   -9.0087    6.3984   -2.2050 H   0  0  0  0  0  0  0  0  0  0  0  0
   -7.1575    4.7379   -2.1825 H   0  0  0  0  0  0  0  0  0  0  0  0
   -5.4428    3.8195   -0.0665 S   0  0  0  0  0  0  0  0  0  0  0  0
   -5.2473    3.3167    1.2944 O   0  0  0  0  0  0  0  0  0  0  0  0
   -4.2234    4.8422   -0.4386 O   0  0  0  0  0  0  0  0  0  0  0  0
   -5.6180    2.8671   -1.1639 O   0  0  0  0  0  0  0  0  0  0  0  0
   -9.9613    7.8884   -0.1260 C   0  0  0  0  0  0  0  0  0  0  0  0
  -10.7594    7.6013   -0.8170 H   0  0  0  0  0  0  0  0  0  0  0  0
  -10.4001    8.0267    0.8657 H   0  0  0  0  0  0  0  0  0  0  0  0
   -9.5824    8.8637   -0.4558 H   0  0  0  0  0  0  0  0  0  0  0  0
  1  8  1  0  0  0  0
  1  2  1  0  0  0  0
  2  3  1  0  0  0  0
  4  1  2  0  0  0  0
  5  6  2  0  0  0  0
  5  4  1  0  0  0  0
  6  7  1  0  0  0  0
  7 12  1  0  0  0  0
  7  8  2  0  0  0  0
  8 13  1  0  0  0  0
  9 26  1  0  0  0  0
 10  5  1  0  0  0  0
 11  6  1  0  0  0  0
 14 20  1  0  0  0  0
 15 14  1  0  0  0  0
 15 21  1  0  0  0  0
 16 15  2  0  0  0  0
 17 18  2  0  0  0  0
 17 16  1  0  0  0  0
 18 19  1  0  0  0  0
 19 24  1  0  0  0  0
 19 14  2  0  0  0  0
 22 17  1  0  0  0  0
 23 18  1  0  0  0  0
 24 25  2  0  0  0  0
 26 24  1  0  0  0  0
 27 24  2  0  0  0  0
 28 16  1  0  0  0  0
 28 30  1  0  0  0  0
 29 28  1  0  0  0  0
 31 28  1  0  0  0  0
M  RAD  3   2   2   3   3   4   2
M  END
