Coordinates from ORCA-job PhN2+~TsO-_B3LYPG-6-31G_dp-CH-Scan-d09-49-n800
 OpenBabel11261919273D

 31 31  0  0  0  0  0  0  0  0999 V2000
   -2.1498    0.5633    0.1001 C   0  0  0  0  0  0  0  0  0  0  0  0
   -3.5079    0.3839    0.3499 N   0  0  0  0  0  0  0  0  0  0  0  0
   -4.6029    0.2783    0.5429 N   0  0  0  0  0  0  0  0  0  0  0  0
   -1.7928    1.8803   -0.2372 C   0  0  0  0  0  0  0  0  0  0  0  0
   -0.3938    1.9553   -0.4747 C   0  0  0  0  0  0  0  0  0  0  0  0
    0.4682    0.8664   -0.3796 C   0  0  0  0  0  0  0  0  0  0  0  0
   -0.0011   -0.4215   -0.0295 C   0  0  0  0  0  0  0  0  0  0  0  0
   -1.3436   -0.6005    0.2214 C   0  0  0  0  0  0  0  0  0  0  0  0
   -3.4607    3.9169   -0.3947 H   0  0  0  0  0  0  0  0  0  0  0  0
    0.0393    2.9168   -0.7498 H   0  0  0  0  0  0  0  0  0  0  0  0
    1.5306    0.9961   -0.5785 H   0  0  0  0  0  0  0  0  0  0  0  0
    0.6861   -1.2583    0.0409 H   0  0  0  0  0  0  0  0  0  0  0  0
   -1.7597   -1.5661    0.4951 H   0  0  0  0  0  0  0  0  0  0  0  0
   -7.1058    5.5456    1.1145 C   0  0  0  0  0  0  0  0  0  0  0  0
   -8.0777    6.5432    1.0737 C   0  0  0  0  0  0  0  0  0  0  0  0
   -8.7236    6.8780   -0.1247 C   0  0  0  0  0  0  0  0  0  0  0  0
   -8.3803    6.1768   -1.2908 C   0  0  0  0  0  0  0  0  0  0  0  0
   -7.4126    5.1759   -1.2705 C   0  0  0  0  0  0  0  0  0  0  0  0
   -6.7792    4.8750   -0.0637 C   0  0  0  0  0  0  0  0  0  0  0  0
   -6.6143    5.2766    2.0428 H   0  0  0  0  0  0  0  0  0  0  0  0
   -8.3428    7.0670    1.9879 H   0  0  0  0  0  0  0  0  0  0  0  0
   -8.8815    6.4146   -2.2253 H   0  0  0  0  0  0  0  0  0  0  0  0
   -7.1568    4.6235   -2.1679 H   0  0  0  0  0  0  0  0  0  0  0  0
   -5.5425    3.5941   -0.0236 S   0  0  0  0  0  0  0  0  0  0  0  0
   -5.4046    3.0877    1.3448 O   0  0  0  0  0  0  0  0  0  0  0  0
   -4.2484    4.5067   -0.3905 O   0  0  0  0  0  0  0  0  0  0  0  0
   -5.7856    2.6410   -1.1092 O   0  0  0  0  0  0  0  0  0  0  0  0
   -9.7528    7.9814   -0.1667 C   0  0  0  0  0  0  0  0  0  0  0  0
  -10.5629    7.7471   -0.8638 H   0  0  0  0  0  0  0  0  0  0  0  0
  -10.1907    8.1595    0.8190 H   0  0  0  0  0  0  0  0  0  0  0  0
   -9.3013    8.9240   -0.5000 H   0  0  0  0  0  0  0  0  0  0  0  0
  1  8  1  0  0  0  0
  1  2  1  0  0  0  0
  2  3  1  0  0  0  0
  4  1  2  0  0  0  0
  5  6  2  0  0  0  0
  5  4  1  0  0  0  0
  6  7  1  0  0  0  0
  7 12  1  0  0  0  0
  7  8  2  0  0  0  0
  8 13  1  0  0  0  0
  9 26  1  0  0  0  0
 10  5  1  0  0  0  0
 11  6  1  0  0  0  0
 14 20  1  0  0  0  0
 15 14  1  0  0  0  0
 15 21  1  0  0  0  0
 16 15  2  0  0  0  0
 17 18  2  0  0  0  0
 17 16  1  0  0  0  0
 18 19  1  0  0  0  0
 19 24  1  0  0  0  0
 19 14  2  0  0  0  0
 22 17  1  0  0  0  0
 23 18  1  0  0  0  0
 24 25  2  0  0  0  0
 26 24  1  0  0  0  0
 27 24  2  0  0  0  0
 28 16  1  0  0  0  0
 28 30  1  0  0  0  0
 29 28  1  0  0  0  0
 31 28  1  0  0  0  0
M  RAD  3   2   2   3   3   4   2
M  END
