Coordinates from ORCA-job PhN2+~TsO-_B3LYPG-6-31G_dp-CH-Scan-d09-49-n800
 OpenBabel11261919273D

 31 31  0  0  0  0  0  0  0  0999 V2000
   -2.4582    0.7451    0.1375 C   0  0  0  0  0  0  0  0  0  0  0  0
   -3.7379    0.5592    0.6533 N   0  0  0  0  0  0  0  0  0  0  0  0
   -4.8203    0.6511    0.9444 N   0  0  0  0  0  0  0  0  0  0  0  0
   -2.0959    2.0324   -0.2878 C   0  0  0  0  0  0  0  0  0  0  0  0
   -0.8028    2.1641   -0.7956 C   0  0  0  0  0  0  0  0  0  0  0  0
    0.0607    1.0683   -0.8696 C   0  0  0  0  0  0  0  0  0  0  0  0
   -0.3413   -0.2020   -0.4294 C   0  0  0  0  0  0  0  0  0  0  0  0
   -1.6141   -0.3791    0.0902 C   0  0  0  0  0  0  0  0  0  0  0  0
   -2.9082    3.0233   -0.1840 H   0  0  0  0  0  0  0  0  0  0  0  0
   -0.4700    3.1395   -1.1355 H   0  0  0  0  0  0  0  0  0  0  0  0
    1.0616    1.1993   -1.2701 H   0  0  0  0  0  0  0  0  0  0  0  0
    0.3392   -1.0446   -0.4900 H   0  0  0  0  0  0  0  0  0  0  0  0
   -1.9599   -1.3441    0.4441 H   0  0  0  0  0  0  0  0  0  0  0  0
   -7.3776    5.2689    1.3004 C   0  0  0  0  0  0  0  0  0  0  0  0
   -8.3799    6.2054    1.0371 C   0  0  0  0  0  0  0  0  0  0  0  0
   -8.5516    6.7417   -0.2437 C   0  0  0  0  0  0  0  0  0  0  0  0
   -7.6873    6.3162   -1.2663 C   0  0  0  0  0  0  0  0  0  0  0  0
   -6.6839    5.3849   -1.0193 C   0  0  0  0  0  0  0  0  0  0  0  0
   -6.5347    4.8633    0.2691 C   0  0  0  0  0  0  0  0  0  0  0  0
   -7.2358    4.8559    2.2928 H   0  0  0  0  0  0  0  0  0  0  0  0
   -9.0361    6.5258    1.8426 H   0  0  0  0  0  0  0  0  0  0  0  0
   -7.8022    6.7248   -2.2676 H   0  0  0  0  0  0  0  0  0  0  0  0
   -6.0141    5.0688   -1.8118 H   0  0  0  0  0  0  0  0  0  0  0  0
   -5.2571    3.6499    0.5989 S   0  0  0  0  0  0  0  0  0  0  0  0
   -5.2323    3.4031    2.0560 O   0  0  0  0  0  0  0  0  0  0  0  0
   -3.9899    4.2472    0.0461 O   0  0  0  0  0  0  0  0  0  0  0  0
   -5.6396    2.4218   -0.1986 O   0  0  0  0  0  0  0  0  0  0  0  0
   -9.6328    7.7578   -0.5280 C   0  0  0  0  0  0  0  0  0  0  0  0
  -10.3249    7.3996   -1.2993 H   0  0  0  0  0  0  0  0  0  0  0  0
  -10.2175    7.9806    0.3686 H   0  0  0  0  0  0  0  0  0  0  0  0
   -9.2076    8.7000   -0.8925 H   0  0  0  0  0  0  0  0  0  0  0  0
  1  2  1  0  0  0  0
  2  3  1  0  0  0  0
  4  9  1  0  0  0  0
  4  1  2  0  0  0  0
  5  4  1  0  0  0  0
  6  5  2  0  0  0  0
  6  7  1  0  0  0  0
  7  8  2  0  0  0  0
  8  1  1  0  0  0  0
  8 13  1  0  0  0  0
 10  5  1  0  0  0  0
 11  6  1  0  0  0  0
 12  7  1  0  0  0  0
 14 20  1  0  0  0  0
 15 14  1  0  0  0  0
 15 21  1  0  0  0  0
 16 15  2  0  0  0  0
 17 18  2  0  0  0  0
 17 16  1  0  0  0  0
 18 19  1  0  0  0  0
 19 24  1  0  0  0  0
 19 14  2  0  0  0  0
 22 17  1  0  0  0  0
 23 18  1  0  0  0  0
 24 25  1  0  0  0  0
 26 24  2  0  0  0  0
 27 24  2  0  0  0  0
 28 16  1  0  0  0  0
 28 30  1  0  0  0  0
 29 28  1  0  0  0  0
 31 28  1  0  0  0  0
M  RAD  3   2   2   3   3  25   2
M  END
