Coordinates from ORCA-job PhN2+~TsO-_B3LYPG-6-31G_dp-CH-Scan-d09-49-n800
 OpenBabel11261919273D

 31 31  0  0  0  0  0  0  0  0999 V2000
   -2.4873    0.7747    0.2086 C   0  0  0  0  0  0  0  0  0  0  0  0
   -3.6796    0.6401    0.9265 N   0  0  0  0  0  0  0  0  0  0  0  0
   -4.7171    0.9121    1.2945 N   0  0  0  0  0  0  0  0  0  0  0  0
   -2.1143    2.0396   -0.2683 C   0  0  0  0  0  0  0  0  0  0  0  0
   -0.9114    2.1134   -0.9678 C   0  0  0  0  0  0  0  0  0  0  0  0
   -0.1308    0.9730   -1.1779 C   0  0  0  0  0  0  0  0  0  0  0  0
   -0.5308   -0.2749   -0.6824 C   0  0  0  0  0  0  0  0  0  0  0  0
   -1.7165   -0.3852    0.0308 C   0  0  0  0  0  0  0  0  0  0  0  0
   -2.8035    3.0300   -0.0541 H   0  0  0  0  0  0  0  0  0  0  0  0
   -0.5843    3.0749   -1.3494 H   0  0  0  0  0  0  0  0  0  0  0  0
    0.8030    1.0551   -1.7261 H   0  0  0  0  0  0  0  0  0  0  0  0
    0.0834   -1.1536   -0.8477 H   0  0  0  0  0  0  0  0  0  0  0  0
   -2.0547   -1.3327    0.4352 H   0  0  0  0  0  0  0  0  0  0  0  0
   -7.5615    5.0812    1.2540 C   0  0  0  0  0  0  0  0  0  0  0  0
   -8.6041    5.9151    0.8562 C   0  0  0  0  0  0  0  0  0  0  0  0
   -8.5275    6.6553   -0.3334 C   0  0  0  0  0  0  0  0  0  0  0  0
   -7.3676    6.5462   -1.1123 C   0  0  0  0  0  0  0  0  0  0  0  0
   -6.3153    5.7160   -0.7270 C   0  0  0  0  0  0  0  0  0  0  0  0
   -6.4205    4.9834    0.4550 C   0  0  0  0  0  0  0  0  0  0  0  0
   -7.6109    4.5224    2.1820 H   0  0  0  0  0  0  0  0  0  0  0  0
   -9.4897    5.9991    1.4817 H   0  0  0  0  0  0  0  0  0  0  0  0
   -7.2858    7.1224   -2.0304 H   0  0  0  0  0  0  0  0  0  0  0  0
   -5.4106    5.6469   -1.3209 H   0  0  0  0  0  0  0  0  0  0  0  0
   -5.0963    3.8776    0.9450 S   0  0  0  0  0  0  0  0  0  0  0  0
   -5.1750    3.6937    2.4059 O   0  0  0  0  0  0  0  0  0  0  0  0
   -3.8321    4.4809    0.4269 O   0  0  0  0  0  0  0  0  0  0  0  0
   -5.3934    2.5801    0.1846 O   0  0  0  0  0  0  0  0  0  0  0  0
   -9.6744    7.5390   -0.7645 C   0  0  0  0  0  0  0  0  0  0  0  0
  -10.5121    6.9424   -1.1468 H   0  0  0  0  0  0  0  0  0  0  0  0
  -10.0581    8.1322    0.0721 H   0  0  0  0  0  0  0  0  0  0  0  0
   -9.3728    8.2285   -1.5579 H   0  0  0  0  0  0  0  0  0  0  0  0
  1  2  1  0  0  0  0
  2  3  1  0  0  0  0
  4  9  1  0  0  0  0
  4  1  2  0  0  0  0
  5  4  1  0  0  0  0
  6  5  2  0  0  0  0
  6  7  1  0  0  0  0
  7  8  2  0  0  0  0
  8  1  1  0  0  0  0
  8 13  1  0  0  0  0
 10  5  1  0  0  0  0
 11  6  1  0  0  0  0
 12  7  1  0  0  0  0
 14 20  1  0  0  0  0
 15 14  1  0  0  0  0
 15 21  1  0  0  0  0
 16 15  2  0  0  0  0
 17 18  2  0  0  0  0
 17 16  1  0  0  0  0
 18 19  1  0  0  0  0
 19 24  1  0  0  0  0
 19 14  2  0  0  0  0
 22 17  1  0  0  0  0
 23 18  1  0  0  0  0
 24 25  1  0  0  0  0
 26 24  2  0  0  0  0
 27 24  2  0  0  0  0
 28 16  1  0  0  0  0
 28 30  1  0  0  0  0
 29 28  1  0  0  0  0
 31 28  1  0  0  0  0
M  RAD  3   2   2   3   3  25   2
M  END
