Coordinates from ORCA-job PhN2+~TsO-_B3LYPG-6-31G_dp-CH-Scan-d09-49-n800
 OpenBabel11261919273D

 31 31  0  0  0  0  0  0  0  0999 V2000
   -2.4637    0.7694    0.0869 C   0  0  0  0  0  0  0  0  0  0  0  0
   -3.8070    0.5354    0.3515 N   0  0  0  0  0  0  0  0  0  0  0  0
   -4.9096    0.4940    0.5282 N   0  0  0  0  0  0  0  0  0  0  0  0
   -2.0814    2.0843   -0.2262 C   0  0  0  0  0  0  0  0  0  0  0  0
   -0.7207    2.2613   -0.4884 C   0  0  0  0  0  0  0  0  0  0  0  0
    0.1768    1.1928   -0.4371 C   0  0  0  0  0  0  0  0  0  0  0  0
   -0.2550   -0.1047   -0.1166 C   0  0  0  0  0  0  0  0  0  0  0  0
   -1.5934   -0.3364    0.1530 C   0  0  0  0  0  0  0  0  0  0  0  0
   -2.9626    3.0606   -0.2589 H   0  0  0  0  0  0  0  0  0  0  0  0
   -0.3615    3.2548   -0.7381 H   0  0  0  0  0  0  0  0  0  0  0  0
    1.2285    1.3638   -0.6486 H   0  0  0  0  0  0  0  0  0  0  0  0
    0.4527   -0.9257   -0.0791 H   0  0  0  0  0  0  0  0  0  0  0  0
   -1.9662   -1.3233    0.4050 H   0  0  0  0  0  0  0  0  0  0  0  0
   -7.0109    5.3992    1.1571 C   0  0  0  0  0  0  0  0  0  0  0  0
   -7.9592    6.4194    1.0755 C   0  0  0  0  0  0  0  0  0  0  0  0
   -8.5297    6.7823   -0.1508 C   0  0  0  0  0  0  0  0  0  0  0  0
   -8.1323    6.0863   -1.3031 C   0  0  0  0  0  0  0  0  0  0  0  0
   -7.1876    5.0657   -1.2375 C   0  0  0  0  0  0  0  0  0  0  0  0
   -6.6268    4.7301   -0.0033 C   0  0  0  0  0  0  0  0  0  0  0  0
   -6.5798    5.1068    2.1080 H   0  0  0  0  0  0  0  0  0  0  0  0
   -8.2650    6.9387    1.9803 H   0  0  0  0  0  0  0  0  0  0  0  0
   -8.5742    6.3444   -2.2625 H   0  0  0  0  0  0  0  0  0  0  0  0
   -6.8946    4.5168   -2.1260 H   0  0  0  0  0  0  0  0  0  0  0  0
   -5.3808    3.4460    0.0843 S   0  0  0  0  0  0  0  0  0  0  0  0
   -5.3813    2.9185    1.4762 O   0  0  0  0  0  0  0  0  0  0  0  0
   -4.0748    4.1354   -0.2595 O   0  0  0  0  0  0  0  0  0  0  0  0
   -5.7349    2.4162   -0.9363 O   0  0  0  0  0  0  0  0  0  0  0  0
   -9.5411    7.9008   -0.2395 C   0  0  0  0  0  0  0  0  0  0  0  0
  -10.4052    7.6124   -0.8474 H   0  0  0  0  0  0  0  0  0  0  0  0
   -9.9055    8.1900    0.7496 H   0  0  0  0  0  0  0  0  0  0  0  0
   -9.1051    8.7935   -0.7046 H   0  0  0  0  0  0  0  0  0  0  0  0
  1  8  1  0  0  0  0
  1  2  1  0  0  0  0
  2  3  1  0  0  0  0
  4  1  2  0  0  0  0
  5  6  2  0  0  0  0
  5  4  1  0  0  0  0
  6  7  1  0  0  0  0
  7 12  1  0  0  0  0
  7  8  2  0  0  0  0
  8 13  1  0  0  0  0
  9  4  1  0  0  0  0
 10  5  1  0  0  0  0
 11  6  1  0  0  0  0
 14 20  1  0  0  0  0
 15 14  1  0  0  0  0
 15 21  1  0  0  0  0
 16 15  2  0  0  0  0
 17 18  2  0  0  0  0
 17 16  1  0  0  0  0
 18 19  1  0  0  0  0
 19 24  1  0  0  0  0
 19 14  2  0  0  0  0
 22 17  1  0  0  0  0
 23 18  1  0  0  0  0
 24 25  1  0  0  0  0
 26 24  2  0  0  0  0
 27 24  2  0  0  0  0
 28 16  1  0  0  0  0
 28 30  1  0  0  0  0
 29 28  1  0  0  0  0
 31 28  1  0  0  0  0
M  RAD  3   2   2   3   3  25   2
M  END
