Coordinates from ORCA-job PhN2+~TsO-_B3LYPG-6-31G_dp-CH-Scan-d09-49-n800
 OpenBabel11261919273D

 31 31  0  0  0  0  0  0  0  0999 V2000
   -2.0141    0.5017    0.0915 C   0  0  0  0  0  0  0  0  0  0  0  0
   -3.3903    0.5026    0.3193 N   0  0  0  0  0  0  0  0  0  0  0  0
   -4.4935    0.5467    0.4927 N   0  0  0  0  0  0  0  0  0  0  0  0
   -1.5018    1.7603   -0.2618 C   0  0  0  0  0  0  0  0  0  0  0  0
   -0.0988    1.6522   -0.4804 C   0  0  0  0  0  0  0  0  0  0  0  0
    0.6208    0.4678   -0.3545 C   0  0  0  0  0  0  0  0  0  0  0  0
   -0.0081   -0.7469    0.0125 C   0  0  0  0  0  0  0  0  0  0  0  0
   -1.3650   -0.7536    0.2475 C   0  0  0  0  0  0  0  0  0  0  0  0
   -3.3645    4.5490   -0.5154 H   0  0  0  0  0  0  0  0  0  0  0  0
    0.4566    2.5468   -0.7659 H   0  0  0  0  0  0  0  0  0  0  0  0
    1.6937    0.4603   -0.5409 H   0  0  0  0  0  0  0  0  0  0  0  0
    0.5707   -1.6601    0.1075 H   0  0  0  0  0  0  0  0  0  0  0  0
   -1.9015   -1.6548    0.5323 H   0  0  0  0  0  0  0  0  0  0  0  0
   -7.1453    5.6933    1.1072 C   0  0  0  0  0  0  0  0  0  0  0  0
   -8.2261    6.5726    1.0891 C   0  0  0  0  0  0  0  0  0  0  0  0
   -8.9199    6.8449   -0.0984 C   0  0  0  0  0  0  0  0  0  0  0  0
   -8.5112    6.2022   -1.2773 C   0  0  0  0  0  0  0  0  0  0  0  0
   -7.4343    5.3201   -1.2804 C   0  0  0  0  0  0  0  0  0  0  0  0
   -6.7574    5.0798   -0.0835 C   0  0  0  0  0  0  0  0  0  0  0  0
   -6.6157    5.4719    2.0272 H   0  0  0  0  0  0  0  0  0  0  0  0
   -8.5390    7.0515    2.0126 H   0  0  0  0  0  0  0  0  0  0  0  0
   -9.0471    6.3920   -2.2034 H   0  0  0  0  0  0  0  0  0  0  0  0
   -7.1265    4.8127   -2.1878 H   0  0  0  0  0  0  0  0  0  0  0  0
   -5.3810    3.9516   -0.0733 S   0  0  0  0  0  0  0  0  0  0  0  0
   -5.1644    3.4500    1.2841 O   0  0  0  0  0  0  0  0  0  0  0  0
   -4.2067    5.0340   -0.4366 O   0  0  0  0  0  0  0  0  0  0  0  0
   -5.5086    3.0027   -1.1798 O   0  0  0  0  0  0  0  0  0  0  0  0
  -10.0699    7.8223   -0.1163 C   0  0  0  0  0  0  0  0  0  0  0  0
  -10.8598    7.4975   -0.8002 H   0  0  0  0  0  0  0  0  0  0  0  0
  -10.5071    7.9461    0.8780 H   0  0  0  0  0  0  0  0  0  0  0  0
   -9.7359    8.8113   -0.4536 H   0  0  0  0  0  0  0  0  0  0  0  0
  1  8  1  0  0  0  0
  1  2  1  0  0  0  0
  2  3  1  0  0  0  0
  4  1  2  0  0  0  0
  5  6  2  0  0  0  0
  5  4  1  0  0  0  0
  6  7  1  0  0  0  0
  7 12  1  0  0  0  0
  7  8  2  0  0  0  0
  8 13  1  0  0  0  0
  9 26  1  0  0  0  0
 10  5  1  0  0  0  0
 11  6  1  0  0  0  0
 14 20  1  0  0  0  0
 15 14  1  0  0  0  0
 15 21  1  0  0  0  0
 16 15  2  0  0  0  0
 17 16  1  0  0  0  0
 18 17  2  0  0  0  0
 18 19  1  0  0  0  0
 19 24  1  0  0  0  0
 19 14  2  0  0  0  0
 22 17  1  0  0  0  0
 23 18  1  0  0  0  0
 24 25  2  0  0  0  0
 26 24  1  0  0  0  0
 27 24  2  0  0  0  0
 28 16  1  0  0  0  0
 28 30  1  0  0  0  0
 29 28  1  0  0  0  0
 31 28  1  0  0  0  0
M  RAD  3   2   2   3   3   4   2
M  END
