Coordinates from ORCA-job PhN2+~TsO-_B3LYPG-6-31G_dp-CH-Scan-d09-49-n800
 OpenBabel11261919273D

 31 31  0  0  0  0  0  0  0  0999 V2000
   -1.9838    0.4925    0.0975 C   0  0  0  0  0  0  0  0  0  0  0  0
   -3.3573    0.5632    0.3344 N   0  0  0  0  0  0  0  0  0  0  0  0
   -4.4559    0.6679    0.5125 N   0  0  0  0  0  0  0  0  0  0  0  0
   -1.4182    1.7260   -0.2622 C   0  0  0  0  0  0  0  0  0  0  0  0
   -0.0226    1.5508   -0.4895 C   0  0  0  0  0  0  0  0  0  0  0  0
    0.6413    0.3342   -0.3661 C   0  0  0  0  0  0  0  0  0  0  0  0
   -0.0412   -0.8495    0.0079 C   0  0  0  0  0  0  0  0  0  0  0  0
   -1.3951   -0.7922    0.2522 C   0  0  0  0  0  0  0  0  0  0  0  0
   -3.3233    4.7831   -0.5477 H   0  0  0  0  0  0  0  0  0  0  0  0
    0.5730    2.4174   -0.7808 H   0  0  0  0  0  0  0  0  0  0  0  0
    1.7115    0.2756   -0.5599 H   0  0  0  0  0  0  0  0  0  0  0  0
    0.4953   -1.7885    0.1009 H   0  0  0  0  0  0  0  0  0  0  0  0
   -1.9718   -1.6664    0.5428 H   0  0  0  0  0  0  0  0  0  0  0  0
   -7.1558    5.7364    1.1120 C   0  0  0  0  0  0  0  0  0  0  0  0
   -8.2769    6.5639    1.0947 C   0  0  0  0  0  0  0  0  0  0  0  0
   -8.9753    6.8143   -0.0947 C   0  0  0  0  0  0  0  0  0  0  0  0
   -8.5293    6.2027   -1.2768 C   0  0  0  0  0  0  0  0  0  0  0  0
   -7.4120    5.3727   -1.2809 C   0  0  0  0  0  0  0  0  0  0  0  0
   -6.7319    5.1533   -0.0816 C   0  0  0  0  0  0  0  0  0  0  0  0
   -6.6220    5.5316    2.0334 H   0  0  0  0  0  0  0  0  0  0  0  0
   -8.6174    7.0190    2.0203 H   0  0  0  0  0  0  0  0  0  0  0  0
   -9.0678    6.3758   -2.2047 H   0  0  0  0  0  0  0  0  0  0  0  0
   -7.0751    4.8892   -2.1910 H   0  0  0  0  0  0  0  0  0  0  0  0
   -5.3038    4.0918   -0.0731 S   0  0  0  0  0  0  0  0  0  0  0  0
   -5.0670    3.5955    1.2821 O   0  0  0  0  0  0  0  0  0  0  0  0
   -4.1797    5.2325   -0.4283 O   0  0  0  0  0  0  0  0  0  0  0  0
   -5.3790    3.1464   -1.1871 O   0  0  0  0  0  0  0  0  0  0  0  0
  -10.1704    7.7363   -0.1118 C   0  0  0  0  0  0  0  0  0  0  0  0
  -10.9480    7.3700   -0.7889 H   0  0  0  0  0  0  0  0  0  0  0  0
  -10.6071    7.8457    0.8843 H   0  0  0  0  0  0  0  0  0  0  0  0
   -9.8854    8.7376   -0.4577 H   0  0  0  0  0  0  0  0  0  0  0  0
  1  8  1  0  0  0  0
  1  2  1  0  0  0  0
  2  3  1  0  0  0  0
  4  1  2  0  0  0  0
  5  6  2  0  0  0  0
  5  4  1  0  0  0  0
  6  7  1  0  0  0  0
  7 12  1  0  0  0  0
  7  8  2  0  0  0  0
  8 13  1  0  0  0  0
  9 26  1  0  0  0  0
 10  5  1  0  0  0  0
 11  6  1  0  0  0  0
 14 20  1  0  0  0  0
 15 14  1  0  0  0  0
 15 21  1  0  0  0  0
 16 15  2  0  0  0  0
 17 16  1  0  0  0  0
 18 17  2  0  0  0  0
 18 19  1  0  0  0  0
 19 24  1  0  0  0  0
 19 14  2  0  0  0  0
 22 17  1  0  0  0  0
 23 18  1  0  0  0  0
 24 25  2  0  0  0  0
 26 24  1  0  0  0  0
 27 24  2  0  0  0  0
 28 16  1  0  0  0  0
 28 30  1  0  0  0  0
 29 28  1  0  0  0  0
 31 28  1  0  0  0  0
M  RAD  3   2   2   3   3   4   2
M  END
