Coordinates from ORCA-job PhN2+~TsO-_B3LYPG-6-31G_dp-CH-Scan-d09-49-n800
 OpenBabel11261919283D

 31 31  0  0  0  0  0  0  0  0999 V2000
   -1.8915    0.4762    0.0713 C   0  0  0  0  0  0  0  0  0  0  0  0
   -3.2574    0.7056    0.2538 N   0  0  0  0  0  0  0  0  0  0  0  0
   -4.3426    0.9381    0.3904 N   0  0  0  0  0  0  0  0  0  0  0  0
   -1.1829    1.6341   -0.2830 C   0  0  0  0  0  0  0  0  0  0  0  0
    0.1940    1.3012   -0.4485 C   0  0  0  0  0  0  0  0  0  0  0  0
    0.7142    0.0220   -0.2793 C   0  0  0  0  0  0  0  0  0  0  0  0
   -0.1093   -1.0732    0.0821 C   0  0  0  0  0  0  0  0  0  0  0  0
   -1.4572   -0.8634    0.2691 C   0  0  0  0  0  0  0  0  0  0  0  0
   -3.3049    5.2879   -0.7784 H   0  0  0  0  0  0  0  0  0  0  0  0
    0.8933    2.0916   -0.7266 H   0  0  0  0  0  0  0  0  0  0  0  0
    1.7784   -0.1577   -0.4264 H   0  0  0  0  0  0  0  0  0  0  0  0
    0.3164   -2.0633    0.2106 H   0  0  0  0  0  0  0  0  0  0  0  0
   -2.1384   -1.6633    0.5474 H   0  0  0  0  0  0  0  0  0  0  0  0
   -7.1554    5.8277    1.0936 C   0  0  0  0  0  0  0  0  0  0  0  0
   -8.3540    6.5387    1.1177 C   0  0  0  0  0  0  0  0  0  0  0  0
   -9.0956    6.7503   -0.0527 C   0  0  0  0  0  0  0  0  0  0  0  0
   -8.6119    6.2201   -1.2593 C   0  0  0  0  0  0  0  0  0  0  0  0
   -7.4176    5.5073   -1.3050 C   0  0  0  0  0  0  0  0  0  0  0  0
   -6.6975    5.3236   -0.1229 C   0  0  0  0  0  0  0  0  0  0  0  0
   -6.5872    5.6522    2.0003 H   0  0  0  0  0  0  0  0  0  0  0  0
   -8.7212    6.9318    2.0613 H   0  0  0  0  0  0  0  0  0  0  0  0
   -9.1818    6.3638   -2.1734 H   0  0  0  0  0  0  0  0  0  0  0  0
   -7.0513    5.0854   -2.2342 H   0  0  0  0  0  0  0  0  0  0  0  0
   -5.1720    4.4092   -0.1669 S   0  0  0  0  0  0  0  0  0  0  0  0
   -4.8519    3.9247    1.1741 O   0  0  0  0  0  0  0  0  0  0  0  0
   -4.1715    5.6606   -0.5378 O   0  0  0  0  0  0  0  0  0  0  0  0
   -5.1745    3.4796   -1.2967 O   0  0  0  0  0  0  0  0  0  0  0  0
  -10.3796    7.5439   -0.0242 C   0  0  0  0  0  0  0  0  0  0  0  0
  -11.1397    7.0962   -0.6717 H   0  0  0  0  0  0  0  0  0  0  0  0
  -10.7878    7.6098    0.9877 H   0  0  0  0  0  0  0  0  0  0  0  0
  -10.2134    8.5680   -0.3802 H   0  0  0  0  0  0  0  0  0  0  0  0
  1  2  1  0  0  0  0
  1  8  2  0  0  0  0
  2  3  1  0  0  0  0
  4  1  1  0  0  0  0
  5  4  2  0  0  0  0
  5  6  1  0  0  0  0
  6  7  2  0  0  0  0
  7 12  1  0  0  0  0
  7  8  1  0  0  0  0
  8 13  1  0  0  0  0
  9 26  1  0  0  0  0
 10  5  1  0  0  0  0
 11  6  1  0  0  0  0
 14 15  1  0  0  0  0
 14 20  1  0  0  0  0
 15 21  1  0  0  0  0
 16 28  1  0  0  0  0
 16 15  2  0  0  0  0
 17 16  1  0  0  0  0
 18 17  2  0  0  0  0
 18 19  1  0  0  0  0
 19 14  2  0  0  0  0
 22 17  1  0  0  0  0
 23 18  1  0  0  0  0
 24 19  1  0  0  0  0
 24 25  2  0  0  0  0
 26 24  1  0  0  0  0
 27 24  2  0  0  0  0
 28 30  1  0  0  0  0
 29 28  1  0  0  0  0
 31 28  1  0  0  0  0
M  RAD  3   2   2   3   3   4   2
M  END
