Coordinates from ORCA-job PhN2+~TsO-_B3LYPG-6-31G_dp-CH-Scan-d09-49-n800
 OpenBabel11261919273D

 31 31  0  0  0  0  0  0  0  0999 V2000
   -2.2395    0.6092    0.1155 C   0  0  0  0  0  0  0  0  0  0  0  0
   -3.5772    0.3448    0.3919 N   0  0  0  0  0  0  0  0  0  0  0  0
   -4.6594    0.1720    0.6059 N   0  0  0  0  0  0  0  0  0  0  0  0
   -1.9604    1.9461   -0.2210 C   0  0  0  0  0  0  0  0  0  0  0  0
   -0.5754    2.1040   -0.4875 C   0  0  0  0  0  0  0  0  0  0  0  0
    0.3495    1.0656   -0.4180 C   0  0  0  0  0  0  0  0  0  0  0  0
   -0.0382   -0.2477   -0.0665 C   0  0  0  0  0  0  0  0  0  0  0  0
   -1.3630   -0.5043    0.2112 C   0  0  0  0  0  0  0  0  0  0  0  0
   -3.4853    3.6335   -0.3249 H   0  0  0  0  0  0  0  0  0  0  0  0
   -0.2062    3.0905   -0.7651 H   0  0  0  0  0  0  0  0  0  0  0  0
    1.3978    1.2577   -0.6386 H   0  0  0  0  0  0  0  0  0  0  0  0
    0.6964   -1.0447   -0.0158 H   0  0  0  0  0  0  0  0  0  0  0  0
   -1.7170   -1.4934    0.4873 H   0  0  0  0  0  0  0  0  0  0  0  0
   -7.0842    5.4621    1.1267 C   0  0  0  0  0  0  0  0  0  0  0  0
   -8.0078    6.5041    1.0684 C   0  0  0  0  0  0  0  0  0  0  0  0
   -8.6122    6.8707   -0.1421 C   0  0  0  0  0  0  0  0  0  0  0  0
   -8.2774    6.1558   -1.3024 C   0  0  0  0  0  0  0  0  0  0  0  0
   -7.3581    5.1109   -1.2642 C   0  0  0  0  0  0  0  0  0  0  0  0
   -6.7643    4.7784   -0.0455 C   0  0  0  0  0  0  0  0  0  0  0  0
   -6.6252    5.1688    2.0641 H   0  0  0  0  0  0  0  0  0  0  0  0
   -8.2673    7.0383    1.9783 H   0  0  0  0  0  0  0  0  0  0  0  0
   -8.7475    6.4180   -2.2465 H   0  0  0  0  0  0  0  0  0  0  0  0
   -7.1099    4.5482   -2.1574 H   0  0  0  0  0  0  0  0  0  0  0  0
   -5.5882    3.4414    0.0168 S   0  0  0  0  0  0  0  0  0  0  0  0
   -5.5016    2.9326    1.3906 O   0  0  0  0  0  0  0  0  0  0  0  0
   -4.2498    4.2734   -0.3344 O   0  0  0  0  0  0  0  0  0  0  0  0
   -5.8704    2.4901   -1.0631 O   0  0  0  0  0  0  0  0  0  0  0  0
   -9.5887    8.0201   -0.2029 C   0  0  0  0  0  0  0  0  0  0  0  0
  -10.4045    7.8162   -0.9031 H   0  0  0  0  0  0  0  0  0  0  0  0
  -10.0245    8.2287    0.7777 H   0  0  0  0  0  0  0  0  0  0  0  0
   -9.0924    8.9375   -0.5429 H   0  0  0  0  0  0  0  0  0  0  0  0
  1  8  1  0  0  0  0
  1  2  1  0  0  0  0
  2  3  1  0  0  0  0
  4  1  2  0  0  0  0
  5  6  2  0  0  0  0
  5  4  1  0  0  0  0
  6  7  1  0  0  0  0
  7 12  1  0  0  0  0
  7  8  2  0  0  0  0
  8 13  1  0  0  0  0
 10  5  1  0  0  0  0
 11  6  1  0  0  0  0
 14 20  1  0  0  0  0
 15 14  1  0  0  0  0
 15 21  1  0  0  0  0
 16 15  2  0  0  0  0
 17 18  2  0  0  0  0
 17 16  1  0  0  0  0
 18 19  1  0  0  0  0
 19 24  1  0  0  0  0
 19 14  2  0  0  0  0
 22 17  1  0  0  0  0
 23 18  1  0  0  0  0
 24 25  2  0  0  0  0
 26  9  1  0  0  0  0
 26 24  1  0  0  0  0
 27 24  2  0  0  0  0
 28 16  1  0  0  0  0
 28 30  1  0  0  0  0
 29 28  1  0  0  0  0
 31 28  1  0  0  0  0
M  RAD  3   2   2   3   3   4   2
M  END
