Coordinates from ORCA-job PhN2+~TsO-_B3LYPG-6-31G_dp-CH-Scan-d09-49-n800
 OpenBabel11261919273D

 31 31  0  0  0  0  0  0  0  0999 V2000
   -2.7190    0.8154    0.0123 C   0  0  0  0  0  0  0  0  0  0  0  0
   -4.0841    0.8478    0.3326 N   0  0  0  0  0  0  0  0  0  0  0  0
   -5.0874    1.4028    0.2911 N   0  0  0  0  0  0  0  0  0  0  0  0
   -2.1226    1.8714   -0.6976 C   0  0  0  0  0  0  0  0  0  0  0  0
   -0.7607    1.7653   -0.9681 C   0  0  0  0  0  0  0  0  0  0  0  0
   -0.0285    0.6501   -0.5493 C   0  0  0  0  0  0  0  0  0  0  0  0
   -0.6477   -0.3872    0.1559 C   0  0  0  0  0  0  0  0  0  0  0  0
   -2.0053   -0.3103    0.4442 C   0  0  0  0  0  0  0  0  0  0  0  0
   -2.6525    2.6453   -0.9817 H   0  0  0  0  0  0  0  0  0  0  0  0
   -0.2708    2.5685   -1.5093 H   0  0  0  0  0  0  0  0  0  0  0  0
    1.0322    0.5889   -0.7729 H   0  0  0  0  0  0  0  0  0  0  0  0
   -0.0745   -1.2491    0.4806 H   0  0  0  0  0  0  0  0  0  0  0  0
   -2.5174   -1.0939    0.9917 H   0  0  0  0  0  0  0  0  0  0  0  0
   -7.2137    4.9376    1.0172 C   0  0  0  0  0  0  0  0  0  0  0  0
   -8.4197    5.6303    0.9306 C   0  0  0  0  0  0  0  0  0  0  0  0
   -8.6387    6.5823   -0.0758 C   0  0  0  0  0  0  0  0  0  0  0  0
   -7.6064    6.8333   -0.9903 C   0  0  0  0  0  0  0  0  0  0  0  0
   -6.3939    6.1494   -0.9161 C   0  0  0  0  0  0  0  0  0  0  0  0
   -6.2065    5.1983    0.0871 C   0  0  0  0  0  0  0  0  0  0  0  0
   -7.0380    4.2156    1.8073 H   0  0  0  0  0  0  0  0  0  0  0  0
   -9.2017    5.4336    1.6605 H   0  0  0  0  0  0  0  0  0  0  0  0
   -7.7515    7.5797   -1.7676 H   0  0  0  0  0  0  0  0  0  0  0  0
   -5.5890    6.3595   -1.6123 H   0  0  0  0  0  0  0  0  0  0  0  0
   -4.6645    4.2867    0.1671 S   0  0  0  0  0  0  0  0  0  0  0  0
   -4.4887    3.8230    1.5575 O   0  0  0  0  0  0  0  0  0  0  0  0
   -3.6174    5.1407   -0.4201 O   0  0  0  0  0  0  0  0  0  0  0  0
   -4.8876    3.0621   -0.7731 O   0  0  0  0  0  0  0  0  0  0  0  0
   -9.9605    7.3062   -0.1797 C   0  0  0  0  0  0  0  0  0  0  0  0
  -10.6961    6.7068   -0.7312 H   0  0  0  0  0  0  0  0  0  0  0  0
  -10.3841    7.5096    0.8084 H   0  0  0  0  0  0  0  0  0  0  0  0
   -9.8555    8.2589   -0.7065 H   0  0  0  0  0  0  0  0  0  0  0  0
  1  2  1  0  0  0  0
  1  8  2  0  0  0  0
  3  2  2  0  0  0  0
  4  1  1  0  0  0  0
  5  4  2  0  0  0  0
  5  6  1  0  0  0  0
  6  7  2  0  0  0  0
  7  8  1  0  0  0  0
  7 12  1  0  0  0  0
  8 13  1  0  0  0  0
  9  4  1  0  0  0  0
 10  5  1  0  0  0  0
 11  6  1  0  0  0  0
 14 20  1  0  0  0  0
 15 14  1  0  0  0  0
 15 21  1  0  0  0  0
 16 15  2  0  0  0  0
 17 18  2  0  0  0  0
 17 16  1  0  0  0  0
 18 19  1  0  0  0  0
 19 24  1  0  0  0  0
 19 14  2  0  0  0  0
 22 17  1  0  0  0  0
 23 18  1  0  0  0  0
 24 25  1  0  0  0  0
 26 24  2  0  0  0  0
 27 24  2  0  0  0  0
 28 16  1  0  0  0  0
 28 30  1  0  0  0  0
 29 28  1  0  0  0  0
 31 28  1  0  0  0  0
M  RAD  2   3   2  25   2
M  END
