Coordinates from ORCA-job PhN2+~TsO-_B3LYPG-6-31G_dp-CH-Scan-d09-49-n800
 OpenBabel11261919283D

 31 31  0  0  0  0  0  0  0  0999 V2000
   -1.9206    0.4798    0.0889 C   0  0  0  0  0  0  0  0  0  0  0  0
   -3.2890    0.6573    0.3051 N   0  0  0  0  0  0  0  0  0  0  0  0
   -4.3792    0.8474    0.4645 N   0  0  0  0  0  0  0  0  0  0  0  0
   -1.2617    1.6649   -0.2718 C   0  0  0  0  0  0  0  0  0  0  0  0
    0.1215    1.3836   -0.4730 C   0  0  0  0  0  0  0  0  0  0  0  0
    0.6909    0.1225   -0.3283 C   0  0  0  0  0  0  0  0  0  0  0  0
   -0.0839   -1.0043    0.0430 C   0  0  0  0  0  0  0  0  0  0  0  0
   -1.4335   -0.8445    0.2639 C   0  0  0  0  0  0  0  0  0  0  0  0
   -3.3028    5.1264   -0.6785 H   0  0  0  0  0  0  0  0  0  0  0  0
    0.7852    2.2008   -0.7606 H   0  0  0  0  0  0  0  0  0  0  0  0
    1.7569   -0.0178   -0.5030 H   0  0  0  0  0  0  0  0  0  0  0  0
    0.3799   -1.9796    0.1525 H   0  0  0  0  0  0  0  0  0  0  0  0
   -2.0786   -1.6705    0.5517 H   0  0  0  0  0  0  0  0  0  0  0  0
   -7.1631    5.7990    1.1043 C   0  0  0  0  0  0  0  0  0  0  0  0
   -8.3378    6.5490    1.1081 C   0  0  0  0  0  0  0  0  0  0  0  0
   -9.0594    6.7728   -0.0726 C   0  0  0  0  0  0  0  0  0  0  0  0
   -8.5808    6.2143   -1.2682 C   0  0  0  0  0  0  0  0  0  0  0  0
   -7.4101    5.4621   -1.2936 C   0  0  0  0  0  0  0  0  0  0  0  0
   -6.7089    5.2676   -0.1021 C   0  0  0  0  0  0  0  0  0  0  0  0
   -6.6105    5.6145    2.0189 H   0  0  0  0  0  0  0  0  0  0  0  0
   -8.7020    6.9635    2.0437 H   0  0  0  0  0  0  0  0  0  0  0  0
   -9.1358    6.3672   -2.1899 H   0  0  0  0  0  0  0  0  0  0  0  0
   -7.0478    5.0189   -2.2144 H   0  0  0  0  0  0  0  0  0  0  0  0
   -5.2127    4.3051   -0.1206 S   0  0  0  0  0  0  0  0  0  0  0  0
   -4.9236    3.8195    1.2274 O   0  0  0  0  0  0  0  0  0  0  0  0
   -4.1712    5.5226   -0.4862 O   0  0  0  0  0  0  0  0  0  0  0  0
   -5.2337    3.3665   -1.2427 O   0  0  0  0  0  0  0  0  0  0  0  0
  -10.3152    7.6105   -0.0663 C   0  0  0  0  0  0  0  0  0  0  0  0
  -11.0779    7.1919   -0.7301 H   0  0  0  0  0  0  0  0  0  0  0  0
  -10.7404    7.6883    0.9377 H   0  0  0  0  0  0  0  0  0  0  0  0
  -10.1062    8.6293   -0.4153 H   0  0  0  0  0  0  0  0  0  0  0  0
  1  8  1  0  0  0  0
  1  2  1  0  0  0  0
  2  3  1  0  0  0  0
  4  1  2  0  0  0  0
  5  6  2  0  0  0  0
  5  4  1  0  0  0  0
  6  7  1  0  0  0  0
  7 12  1  0  0  0  0
  7  8  2  0  0  0  0
  8 13  1  0  0  0  0
  9 26  1  0  0  0  0
 10  5  1  0  0  0  0
 11  6  1  0  0  0  0
 14 15  1  0  0  0  0
 14 20  1  0  0  0  0
 15 21  1  0  0  0  0
 16 28  1  0  0  0  0
 16 15  2  0  0  0  0
 17 16  1  0  0  0  0
 18 17  2  0  0  0  0
 18 19  1  0  0  0  0
 19 14  2  0  0  0  0
 22 17  1  0  0  0  0
 23 18  1  0  0  0  0
 24 19  1  0  0  0  0
 24 25  2  0  0  0  0
 26 24  1  0  0  0  0
 27 24  2  0  0  0  0
 28 30  1  0  0  0  0
 29 28  1  0  0  0  0
 31 28  1  0  0  0  0
M  RAD  3   2   2   3   3   4   2
M  END
