Coordinates from ORCA-job PhN2+~TsO-_B3LYPG-6-31G_dp-CH-Scan-d09-49-n800
 OpenBabel11261919273D

 31 31  0  0  0  0  0  0  0  0999 V2000
   -2.1438    0.5584    0.0989 C   0  0  0  0  0  0  0  0  0  0  0  0
   -3.5035    0.3880    0.3464 N   0  0  0  0  0  0  0  0  0  0  0  0
   -4.6001    0.2926    0.5363 N   0  0  0  0  0  0  0  0  0  0  0  0
   -1.7787    1.8729   -0.2395 C   0  0  0  0  0  0  0  0  0  0  0  0
   -0.3785    1.9383   -0.4746 C   0  0  0  0  0  0  0  0  0  0  0  0
    0.4766    0.8443   -0.3764 C   0  0  0  0  0  0  0  0  0  0  0  0
   -0.0013   -0.4403   -0.0253 C   0  0  0  0  0  0  0  0  0  0  0  0
   -1.3453   -0.6104    0.2234 C   0  0  0  0  0  0  0  0  0  0  0  0
   -3.4519    3.9563   -0.4040 H   0  0  0  0  0  0  0  0  0  0  0  0
    0.0614    2.8967   -0.7503 H   0  0  0  0  0  0  0  0  0  0  0  0
    1.5402    0.9671   -0.5735 H   0  0  0  0  0  0  0  0  0  0  0  0
    0.6806   -1.2813    0.0475 H   0  0  0  0  0  0  0  0  0  0  0  0
   -1.7680   -1.5730    0.4977 H   0  0  0  0  0  0  0  0  0  0  0  0
   -7.1060    5.5548    1.1136 C   0  0  0  0  0  0  0  0  0  0  0  0
   -8.0850    6.5454    1.0746 C   0  0  0  0  0  0  0  0  0  0  0  0
   -8.7353    6.8760   -0.1227 C   0  0  0  0  0  0  0  0  0  0  0  0
   -8.3889    6.1775   -1.2896 C   0  0  0  0  0  0  0  0  0  0  0  0
   -7.4141    5.1836   -1.2711 C   0  0  0  0  0  0  0  0  0  0  0  0
   -6.7766    4.8868   -0.0654 C   0  0  0  0  0  0  0  0  0  0  0  0
   -6.6112    5.2890    2.0409 H   0  0  0  0  0  0  0  0  0  0  0  0
   -8.3523    7.0671    1.9893 H   0  0  0  0  0  0  0  0  0  0  0  0
   -8.8933    6.4120   -2.2232 H   0  0  0  0  0  0  0  0  0  0  0  0
   -7.1558    4.6333   -2.1692 H   0  0  0  0  0  0  0  0  0  0  0  0
   -5.5309    3.6148   -0.0277 S   0  0  0  0  0  0  0  0  0  0  0  0
   -5.3874    3.1089    1.3401 O   0  0  0  0  0  0  0  0  0  0  0  0
   -4.2440    4.5386   -0.3957 O   0  0  0  0  0  0  0  0  0  0  0  0
   -5.7676    2.6615   -1.1144 O   0  0  0  0  0  0  0  0  0  0  0  0
   -9.7721    7.9721   -0.1627 C   0  0  0  0  0  0  0  0  0  0  0  0
  -10.5802    7.7338   -0.8607 H   0  0  0  0  0  0  0  0  0  0  0  0
  -10.2117    8.1451    0.8232 H   0  0  0  0  0  0  0  0  0  0  0  0
   -9.3271    8.9187   -0.4937 H   0  0  0  0  0  0  0  0  0  0  0  0
  1  8  1  0  0  0  0
  1  2  1  0  0  0  0
  2  3  1  0  0  0  0
  4  1  2  0  0  0  0
  5  6  2  0  0  0  0
  5  4  1  0  0  0  0
  6  7  1  0  0  0  0
  7 12  1  0  0  0  0
  7  8  2  0  0  0  0
  8 13  1  0  0  0  0
  9 26  1  0  0  0  0
 10  5  1  0  0  0  0
 11  6  1  0  0  0  0
 14 20  1  0  0  0  0
 15 14  1  0  0  0  0
 15 21  1  0  0  0  0
 16 15  2  0  0  0  0
 17 18  2  0  0  0  0
 17 16  1  0  0  0  0
 18 19  1  0  0  0  0
 19 24  1  0  0  0  0
 19 14  2  0  0  0  0
 22 17  1  0  0  0  0
 23 18  1  0  0  0  0
 24 25  2  0  0  0  0
 26 24  1  0  0  0  0
 27 24  2  0  0  0  0
 28 16  1  0  0  0  0
 28 30  1  0  0  0  0
 29 28  1  0  0  0  0
 31 28  1  0  0  0  0
M  RAD  3   2   2   3   3   4   2
M  END
