Coordinates from ORCA-job PhN2+~TsO-_B3LYPG-6-31G_dp-CH-Scan-d09-49-n800
 OpenBabel11261919273D

 31 31  0  0  0  0  0  0  0  0999 V2000
   -2.1705    0.5742    0.1049 C   0  0  0  0  0  0  0  0  0  0  0  0
   -3.5237    0.3733    0.3627 N   0  0  0  0  0  0  0  0  0  0  0  0
   -4.6156    0.2498    0.5623 N   0  0  0  0  0  0  0  0  0  0  0  0
   -1.8334    1.8966   -0.2326 C   0  0  0  0  0  0  0  0  0  0  0  0
   -0.4377    1.9928   -0.4786 C   0  0  0  0  0  0  0  0  0  0  0  0
    0.4407    0.9164   -0.3906 C   0  0  0  0  0  0  0  0  0  0  0  0
   -0.0078   -0.3785   -0.0396 C   0  0  0  0  0  0  0  0  0  0  0  0
   -1.3461   -0.5774    0.2191 C   0  0  0  0  0  0  0  0  0  0  0  0
   -3.4694    3.8436   -0.3755 H   0  0  0  0  0  0  0  0  0  0  0  0
   -0.0207    2.9610   -0.7548 H   0  0  0  0  0  0  0  0  0  0  0  0
    1.4998    1.0619   -0.5958 H   0  0  0  0  0  0  0  0  0  0  0  0
    0.6918   -1.2055    0.0252 H   0  0  0  0  0  0  0  0  0  0  0  0
   -1.7462   -1.5493    0.4938 H   0  0  0  0  0  0  0  0  0  0  0  0
   -7.1023    5.5240    1.1177 C   0  0  0  0  0  0  0  0  0  0  0  0
   -8.0614    6.5339    1.0723 C   0  0  0  0  0  0  0  0  0  0  0  0
   -8.6962    6.8778   -0.1295 C   0  0  0  0  0  0  0  0  0  0  0  0
   -8.3551    6.1731   -1.2942 C   0  0  0  0  0  0  0  0  0  0  0  0
   -7.4002    5.1602   -1.2691 C   0  0  0  0  0  0  0  0  0  0  0  0
   -6.7775    4.8502   -0.0591 C   0  0  0  0  0  0  0  0  0  0  0  0
   -6.6196    5.2481    2.0485 H   0  0  0  0  0  0  0  0  0  0  0  0
   -8.3251    7.0603    1.9854 H   0  0  0  0  0  0  0  0  0  0  0  0
   -8.8480    6.4179   -2.2312 H   0  0  0  0  0  0  0  0  0  0  0  0
   -7.1464    4.6052   -2.1655 H   0  0  0  0  0  0  0  0  0  0  0  0
   -5.5570    3.5538   -0.0131 S   0  0  0  0  0  0  0  0  0  0  0  0
   -5.4330    3.0458    1.3565 O   0  0  0  0  0  0  0  0  0  0  0  0
   -4.2504    4.4460   -0.3751 O   0  0  0  0  0  0  0  0  0  0  0  0
   -5.8098    2.6017   -1.0979 O   0  0  0  0  0  0  0  0  0  0  0  0
   -9.7114    7.9938   -0.1763 C   0  0  0  0  0  0  0  0  0  0  0  0
  -10.5228    7.7682   -0.8748 H   0  0  0  0  0  0  0  0  0  0  0  0
  -10.1493    8.1796    0.8079 H   0  0  0  0  0  0  0  0  0  0  0  0
   -9.2475    8.9300   -0.5107 H   0  0  0  0  0  0  0  0  0  0  0  0
  1  8  1  0  0  0  0
  1  2  1  0  0  0  0
  2  3  1  0  0  0  0
  4  1  2  0  0  0  0
  5  6  2  0  0  0  0
  5  4  1  0  0  0  0
  6  7  1  0  0  0  0
  7 12  1  0  0  0  0
  7  8  2  0  0  0  0
  8 13  1  0  0  0  0
  9 26  1  0  0  0  0
 10  5  1  0  0  0  0
 11  6  1  0  0  0  0
 14 20  1  0  0  0  0
 15 14  1  0  0  0  0
 15 21  1  0  0  0  0
 16 15  2  0  0  0  0
 17 18  2  0  0  0  0
 17 16  1  0  0  0  0
 18 19  1  0  0  0  0
 19 24  1  0  0  0  0
 19 14  2  0  0  0  0
 22 17  1  0  0  0  0
 23 18  1  0  0  0  0
 24 25  2  0  0  0  0
 26 24  1  0  0  0  0
 27 24  2  0  0  0  0
 28 16  1  0  0  0  0
 28 30  1  0  0  0  0
 29 28  1  0  0  0  0
 31 28  1  0  0  0  0
M  RAD  3   2   2   3   3   4   2
M  END
