Coordinates from ORCA-job PhN2+~TsO-_B3LYPG-6-31G_dp-CH-Scan-d09-49-n800
 OpenBabel11261919273D

 31 31  0  0  0  0  0  0  0  0999 V2000
   -2.0726    0.5251    0.0892 C   0  0  0  0  0  0  0  0  0  0  0  0
   -3.4452    0.4402    0.3170 N   0  0  0  0  0  0  0  0  0  0  0  0
   -4.5486    0.4137    0.4904 N   0  0  0  0  0  0  0  0  0  0  0  0
   -1.6308    1.8133   -0.2550 C   0  0  0  0  0  0  0  0  0  0  0  0
   -0.2246    1.7918   -0.4704 C   0  0  0  0  0  0  0  0  0  0  0  0
    0.5633    0.6508   -0.3505 C   0  0  0  0  0  0  0  0  0  0  0  0
    0.0062   -0.6009    0.0058 C   0  0  0  0  0  0  0  0  0  0  0  0
   -1.3486   -0.6893    0.2369 C   0  0  0  0  0  0  0  0  0  0  0  0
   -3.4101    4.2533   -0.4722 H   0  0  0  0  0  0  0  0  0  0  0  0
    0.2763    2.7198   -0.7483 H   0  0  0  0  0  0  0  0  0  0  0  0
    1.6352    0.7085   -0.5336 H   0  0  0  0  0  0  0  0  0  0  0  0
    0.6370   -1.4794    0.0960 H   0  0  0  0  0  0  0  0  0  0  0  0
   -1.8313   -1.6227    0.5140 H   0  0  0  0  0  0  0  0  0  0  0  0
   -7.1221    5.6303    1.1050 C   0  0  0  0  0  0  0  0  0  0  0  0
   -8.1527    6.5677    1.0815 C   0  0  0  0  0  0  0  0  0  0  0  0
   -8.8346    6.8665   -0.1066 C   0  0  0  0  0  0  0  0  0  0  0  0
   -8.4665    6.1905   -1.2801 C   0  0  0  0  0  0  0  0  0  0  0  0
   -7.4401    5.2499   -1.2774 C   0  0  0  0  0  0  0  0  0  0  0  0
   -6.7729    4.9843   -0.0806 C   0  0  0  0  0  0  0  0  0  0  0  0
   -6.6023    5.3889    2.0254 H   0  0  0  0  0  0  0  0  0  0  0  0
   -8.4355    7.0721    2.0012 H   0  0  0  0  0  0  0  0  0  0  0  0
   -8.9945    6.4005   -2.2064 H   0  0  0  0  0  0  0  0  0  0  0  0
   -7.1641    4.7170   -2.1806 H   0  0  0  0  0  0  0  0  0  0  0  0
   -5.4609    3.7813   -0.0629 S   0  0  0  0  0  0  0  0  0  0  0  0
   -5.2729    3.2776    1.2990 O   0  0  0  0  0  0  0  0  0  0  0  0
   -4.2289    4.7862   -0.4359 O   0  0  0  0  0  0  0  0  0  0  0  0
   -5.6490    2.8286   -1.1582 O   0  0  0  0  0  0  0  0  0  0  0  0
   -9.9283    7.9064   -0.1301 C   0  0  0  0  0  0  0  0  0  0  0  0
  -10.7282    7.6302   -0.8235 H   0  0  0  0  0  0  0  0  0  0  0  0
  -10.3680    8.0491    0.8606 H   0  0  0  0  0  0  0  0  0  0  0  0
   -9.5363    8.8772   -0.4576 H   0  0  0  0  0  0  0  0  0  0  0  0
  1  8  1  0  0  0  0
  1  2  1  0  0  0  0
  2  3  1  0  0  0  0
  4  1  2  0  0  0  0
  5  6  2  0  0  0  0
  5  4  1  0  0  0  0
  6  7  1  0  0  0  0
  7 12  1  0  0  0  0
  7  8  2  0  0  0  0
  8 13  1  0  0  0  0
  9 26  1  0  0  0  0
 10  5  1  0  0  0  0
 11  6  1  0  0  0  0
 14 20  1  0  0  0  0
 15 14  1  0  0  0  0
 15 21  1  0  0  0  0
 16 15  2  0  0  0  0
 17 18  2  0  0  0  0
 17 16  1  0  0  0  0
 18 19  1  0  0  0  0
 19 24  1  0  0  0  0
 19 14  2  0  0  0  0
 22 17  1  0  0  0  0
 23 18  1  0  0  0  0
 24 25  2  0  0  0  0
 26 24  1  0  0  0  0
 27 24  2  0  0  0  0
 28 16  1  0  0  0  0
 28 30  1  0  0  0  0
 29 28  1  0  0  0  0
 31 28  1  0  0  0  0
M  RAD  3   2   2   3   3   4   2
M  END
