Coordinates from ORCA-job PhN2+~TsO-_B3LYPG-6-31G_dp-CH-Scan-d09-49-n800
 OpenBabel11261919273D

 31 31  0  0  0  0  0  0  0  0999 V2000
   -2.4142    0.7051    0.1325 C   0  0  0  0  0  0  0  0  0  0  0  0
   -3.7162    0.3308    0.4448 N   0  0  0  0  0  0  0  0  0  0  0  0
   -4.7751    0.0784    0.6877 N   0  0  0  0  0  0  0  0  0  0  0  0
   -2.2237    2.0612   -0.1902 C   0  0  0  0  0  0  0  0  0  0  0  0
   -0.8725    2.3350   -0.4951 C   0  0  0  0  0  0  0  0  0  0  0  0
    0.1280    1.3655   -0.4713 C   0  0  0  0  0  0  0  0  0  0  0  0
   -0.1546    0.0257   -0.1328 C   0  0  0  0  0  0  0  0  0  0  0  0
   -1.4497   -0.3325    0.1790 C   0  0  0  0  0  0  0  0  0  0  0  0
   -3.4047    3.1784   -0.2171 H   0  0  0  0  0  0  0  0  0  0  0  0
   -0.5969    3.3527   -0.7637 H   0  0  0  0  0  0  0  0  0  0  0  0
    1.1512    1.6386   -0.7185 H   0  0  0  0  0  0  0  0  0  0  0  0
    0.6356   -0.7175   -0.1172 H   0  0  0  0  0  0  0  0  0  0  0  0
   -1.7202   -1.3492    0.4470 H   0  0  0  0  0  0  0  0  0  0  0  0
   -7.0270    5.3420    1.1455 C   0  0  0  0  0  0  0  0  0  0  0  0
   -7.8923    6.4319    1.0603 C   0  0  0  0  0  0  0  0  0  0  0  0
   -8.4370    6.8309   -0.1675 C   0  0  0  0  0  0  0  0  0  0  0  0
   -8.1019    6.0994   -1.3173 C   0  0  0  0  0  0  0  0  0  0  0  0
   -7.2403    5.0078   -1.2505 C   0  0  0  0  0  0  0  0  0  0  0  0
   -6.7035    4.6411   -0.0152 C   0  0  0  0  0  0  0  0  0  0  0  0
   -6.6158    5.0228    2.0965 H   0  0  0  0  0  0  0  0  0  0  0  0
   -8.1535    6.9780    1.9629 H   0  0  0  0  0  0  0  0  0  0  0  0
   -8.5274    6.3855   -2.2758 H   0  0  0  0  0  0  0  0  0  0  0  0
   -6.9944    4.4318   -2.1359 H   0  0  0  0  0  0  0  0  0  0  0  0
   -5.5904    3.2489    0.0797 S   0  0  0  0  0  0  0  0  0  0  0  0
   -5.5951    2.7338    1.4619 O   0  0  0  0  0  0  0  0  0  0  0  0
   -4.2109    3.9381   -0.2373 O   0  0  0  0  0  0  0  0  0  0  0  0
   -5.9349    2.2896   -0.9845 O   0  0  0  0  0  0  0  0  0  0  0  0
   -9.3516    8.0290   -0.2582 C   0  0  0  0  0  0  0  0  0  0  0  0
  -10.1724    7.8541   -0.9608 H   0  0  0  0  0  0  0  0  0  0  0  0
   -9.7835    8.2782    0.7146 H   0  0  0  0  0  0  0  0  0  0  0  0
   -8.8070    8.9135   -0.6115 H   0  0  0  0  0  0  0  0  0  0  0  0
  1  8  1  0  0  0  0
  1  2  1  0  0  0  0
  2  3  1  0  0  0  0
  4  1  2  0  0  0  0
  5  6  2  0  0  0  0
  5  4  1  0  0  0  0
  6  7  1  0  0  0  0
  7 12  1  0  0  0  0
  7  8  2  0  0  0  0
  8 13  1  0  0  0  0
 10  5  1  0  0  0  0
 11  6  1  0  0  0  0
 14 20  1  0  0  0  0
 15 14  1  0  0  0  0
 15 21  1  0  0  0  0
 16 15  2  0  0  0  0
 17 18  2  0  0  0  0
 17 16  1  0  0  0  0
 18 19  1  0  0  0  0
 19 24  1  0  0  0  0
 19 14  2  0  0  0  0
 22 17  1  0  0  0  0
 23 18  1  0  0  0  0
 24 25  2  0  0  0  0
 26  9  1  0  0  0  0
 26 24  1  0  0  0  0
 27 24  2  0  0  0  0
 28 16  1  0  0  0  0
 28 30  1  0  0  0  0
 29 28  1  0  0  0  0
 31 28  1  0  0  0  0
M  RAD  3   2   2   3   3   4   2
M  END
