Coordinates from ORCA-job PhN2+~TsO-_B3LYPG-6-31G_dp-CH-Scan-d09-49-n800
 OpenBabel11261919273D

 31 31  0  0  0  0  0  0  0  0999 V2000
   -2.2981    0.6389    0.1291 C   0  0  0  0  0  0  0  0  0  0  0  0
   -3.6210    0.3232    0.4203 N   0  0  0  0  0  0  0  0  0  0  0  0
   -4.6931    0.1098    0.6466 N   0  0  0  0  0  0  0  0  0  0  0  0
   -2.0670    1.9843   -0.2120 C   0  0  0  0  0  0  0  0  0  0  0  0
   -0.6934    2.1931   -0.4940 C   0  0  0  0  0  0  0  0  0  0  0  0
    0.2692    1.1888   -0.4339 C   0  0  0  0  0  0  0  0  0  0  0  0
   -0.0674   -0.1363   -0.0771 C   0  0  0  0  0  0  0  0  0  0  0  0
   -1.3793   -0.4400    0.2152 C   0  0  0  0  0  0  0  0  0  0  0  0
   -3.4908    3.4587   -0.2977 H   0  0  0  0  0  0  0  0  0  0  0  0
   -0.3654    3.1925   -0.7761 H   0  0  0  0  0  0  0  0  0  0  0  0
    1.3071    1.4187   -0.6663 H   0  0  0  0  0  0  0  0  0  0  0  0
    0.6956   -0.9065   -0.0335 H   0  0  0  0  0  0  0  0  0  0  0  0
   -1.6940   -1.4408    0.4961 H   0  0  0  0  0  0  0  0  0  0  0  0
   -7.0621    5.4087    1.1267 C   0  0  0  0  0  0  0  0  0  0  0  0
   -7.9571    6.4754    1.0653 C   0  0  0  0  0  0  0  0  0  0  0  0
   -8.5414    6.8628   -0.1484 C   0  0  0  0  0  0  0  0  0  0  0  0
   -8.2156    6.1439   -1.3088 C   0  0  0  0  0  0  0  0  0  0  0  0
   -7.3250    5.0746   -1.2670 C   0  0  0  0  0  0  0  0  0  0  0  0
   -6.7503    4.7209   -0.0452 C   0  0  0  0  0  0  0  0  0  0  0  0
   -6.6193    5.0990    2.0666 H   0  0  0  0  0  0  0  0  0  0  0  0
   -8.2101    7.0125    1.9754 H   0  0  0  0  0  0  0  0  0  0  0  0
   -8.6708    6.4220   -2.2557 H   0  0  0  0  0  0  0  0  0  0  0  0
   -7.0848    4.5086   -2.1603 H   0  0  0  0  0  0  0  0  0  0  0  0
   -5.6107    3.3520    0.0212 S   0  0  0  0  0  0  0  0  0  0  0  0
   -5.5529    2.8368    1.3960 O   0  0  0  0  0  0  0  0  0  0  0  0
   -4.2490    4.1308   -0.3197 O   0  0  0  0  0  0  0  0  0  0  0  0
   -5.9226    2.4060   -1.0570 O   0  0  0  0  0  0  0  0  0  0  0  0
   -9.4877    8.0373   -0.2127 C   0  0  0  0  0  0  0  0  0  0  0  0
  -10.3111    7.8505   -0.9089 H   0  0  0  0  0  0  0  0  0  0  0  0
   -9.9147    8.2626    0.7680 H   0  0  0  0  0  0  0  0  0  0  0  0
   -8.9691    8.9396   -0.5599 H   0  0  0  0  0  0  0  0  0  0  0  0
  1  8  1  0  0  0  0
  1  2  1  0  0  0  0
  2  3  1  0  0  0  0
  4  1  2  0  0  0  0
  5  6  2  0  0  0  0
  5  4  1  0  0  0  0
  6  7  1  0  0  0  0
  7 12  1  0  0  0  0
  7  8  2  0  0  0  0
  8 13  1  0  0  0  0
 10  5  1  0  0  0  0
 11  6  1  0  0  0  0
 14 20  1  0  0  0  0
 15 14  1  0  0  0  0
 15 21  1  0  0  0  0
 16 15  2  0  0  0  0
 17 18  2  0  0  0  0
 17 16  1  0  0  0  0
 18 19  1  0  0  0  0
 19 24  1  0  0  0  0
 19 14  2  0  0  0  0
 22 17  1  0  0  0  0
 23 18  1  0  0  0  0
 24 25  2  0  0  0  0
 26  9  1  0  0  0  0
 26 24  1  0  0  0  0
 27 24  2  0  0  0  0
 28 16  1  0  0  0  0
 28 30  1  0  0  0  0
 29 28  1  0  0  0  0
 31 28  1  0  0  0  0
M  RAD  3   2   2   3   3   4   2
M  END
