Coordinates from ORCA-job PhN2+~TsO-_B3LYPG-6-31G_dp-CH-Scan-d09-49-n800
 OpenBabel11261919273D

 31 31  0  0  0  0  0  0  0  0999 V2000
   -2.1008    0.5371    0.0924 C   0  0  0  0  0  0  0  0  0  0  0  0
   -3.4685    0.4139    0.3275 N   0  0  0  0  0  0  0  0  0  0  0  0
   -4.5698    0.3554    0.5060 N   0  0  0  0  0  0  0  0  0  0  0  0
   -1.6928    1.8374   -0.2493 C   0  0  0  0  0  0  0  0  0  0  0  0
   -0.2882    1.8550   -0.4710 C   0  0  0  0  0  0  0  0  0  0  0  0
    0.5301    0.7347   -0.3590 C   0  0  0  0  0  0  0  0  0  0  0  0
    0.0077   -0.5324   -0.0054 C   0  0  0  0  0  0  0  0  0  0  0  0
   -1.3432   -0.6576    0.2313 C   0  0  0  0  0  0  0  0  0  0  0  0
   -3.4306    4.1227   -0.4436 H   0  0  0  0  0  0  0  0  0  0  0  0
    0.1861    2.7970   -0.7475 H   0  0  0  0  0  0  0  0  0  0  0  0
    1.5991    0.8215   -0.5466 H   0  0  0  0  0  0  0  0  0  0  0  0
    0.6617   -1.3943    0.0784 H   0  0  0  0  0  0  0  0  0  0  0  0
   -1.7996   -1.6044    0.5069 H   0  0  0  0  0  0  0  0  0  0  0  0
   -7.1155    5.5988    1.1076 C   0  0  0  0  0  0  0  0  0  0  0  0
   -8.1230    6.5608    1.0782 C   0  0  0  0  0  0  0  0  0  0  0  0
   -8.7930    6.8734   -0.1131 C   0  0  0  0  0  0  0  0  0  0  0  0
   -8.4371    6.1861   -1.2837 C   0  0  0  0  0  0  0  0  0  0  0  0
   -7.4338    5.2208   -1.2751 C   0  0  0  0  0  0  0  0  0  0  0  0
   -6.7776    4.9418   -0.0752 C   0  0  0  0  0  0  0  0  0  0  0  0
   -6.6051    5.3468    2.0303 H   0  0  0  0  0  0  0  0  0  0  0  0
   -8.3970    7.0739    1.9958 H   0  0  0  0  0  0  0  0  0  0  0  0
   -8.9563    6.4068   -2.2125 H   0  0  0  0  0  0  0  0  0  0  0  0
   -7.1676    4.6792   -2.1760 H   0  0  0  0  0  0  0  0  0  0  0  0
   -5.4953    3.7067   -0.0499 S   0  0  0  0  0  0  0  0  0  0  0  0
   -5.3256    3.2017    1.3144 O   0  0  0  0  0  0  0  0  0  0  0  0
   -4.2383    4.6763   -0.4221 O   0  0  0  0  0  0  0  0  0  0  0  0
   -5.7065    2.7538   -1.1412 O   0  0  0  0  0  0  0  0  0  0  0  0
   -9.8611    7.9395   -0.1428 C   0  0  0  0  0  0  0  0  0  0  0  0
  -10.6643    7.6821   -0.8395 H   0  0  0  0  0  0  0  0  0  0  0  0
  -10.3018    8.0938    0.8457 H   0  0  0  0  0  0  0  0  0  0  0  0
   -9.4444    8.9002   -0.4694 H   0  0  0  0  0  0  0  0  0  0  0  0
  1  8  1  0  0  0  0
  1  2  1  0  0  0  0
  2  3  1  0  0  0  0
  4  1  2  0  0  0  0
  5  6  2  0  0  0  0
  5  4  1  0  0  0  0
  6  7  1  0  0  0  0
  7 12  1  0  0  0  0
  7  8  2  0  0  0  0
  8 13  1  0  0  0  0
  9 26  1  0  0  0  0
 10  5  1  0  0  0  0
 11  6  1  0  0  0  0
 14 20  1  0  0  0  0
 15 14  1  0  0  0  0
 15 21  1  0  0  0  0
 16 15  2  0  0  0  0
 17 18  2  0  0  0  0
 17 16  1  0  0  0  0
 18 19  1  0  0  0  0
 19 24  1  0  0  0  0
 19 14  2  0  0  0  0
 22 17  1  0  0  0  0
 23 18  1  0  0  0  0
 24 25  2  0  0  0  0
 26 24  1  0  0  0  0
 27 24  2  0  0  0  0
 28 16  1  0  0  0  0
 28 30  1  0  0  0  0
 29 28  1  0  0  0  0
 31 28  1  0  0  0  0
M  RAD  3   2   2   3   3   4   2
M  END
