Coordinates from ORCA-job PhN2+~TsO-_B3LYPG-6-31G_dp-CH-Scan-d09-49-n800
 OpenBabel11261919273D

 31 31  0  0  0  0  0  0  0  0999 V2000
   -2.0434    0.5134    0.0901 C   0  0  0  0  0  0  0  0  0  0  0  0
   -3.4183    0.4728    0.3192 N   0  0  0  0  0  0  0  0  0  0  0  0
   -4.5226    0.4822    0.4903 N   0  0  0  0  0  0  0  0  0  0  0  0
   -1.5653    1.7865   -0.2604 C   0  0  0  0  0  0  0  0  0  0  0  0
   -0.1600    1.7203   -0.4772 C   0  0  0  0  0  0  0  0  0  0  0  0
    0.5931    0.5566   -0.3537 C   0  0  0  0  0  0  0  0  0  0  0  0
   -0.0012   -0.6764    0.0091 C   0  0  0  0  0  0  0  0  0  0  0  0
   -1.3577   -0.7226    0.2426 C   0  0  0  0  0  0  0  0  0  0  0  0
   -3.3838    4.4069   -0.4911 H   0  0  0  0  0  0  0  0  0  0  0  0
    0.3692    2.6313   -0.7598 H   0  0  0  0  0  0  0  0  0  0  0  0
    1.6659    0.5806   -0.5388 H   0  0  0  0  0  0  0  0  0  0  0  0
    0.6031   -1.5730    0.1025 H   0  0  0  0  0  0  0  0  0  0  0  0
   -1.8682   -1.6395    0.5247 H   0  0  0  0  0  0  0  0  0  0  0  0
   -7.1342    5.6627    1.1067 C   0  0  0  0  0  0  0  0  0  0  0  0
   -8.1912    6.5704    1.0855 C   0  0  0  0  0  0  0  0  0  0  0  0
   -8.8789    6.8554   -0.1026 C   0  0  0  0  0  0  0  0  0  0  0  0
   -8.4890    6.1963   -1.2787 C   0  0  0  0  0  0  0  0  0  0  0  0
   -7.4360    5.2857   -1.2786 C   0  0  0  0  0  0  0  0  0  0  0  0
   -6.7642    5.0332   -0.0815 C   0  0  0  0  0  0  0  0  0  0  0  0
   -6.6096    5.4316    2.0270 H   0  0  0  0  0  0  0  0  0  0  0  0
   -8.4901    7.0618    2.0070 H   0  0  0  0  0  0  0  0  0  0  0  0
   -9.0208    6.3960   -2.2052 H   0  0  0  0  0  0  0  0  0  0  0  0
   -7.1431    4.7657   -2.1839 H   0  0  0  0  0  0  0  0  0  0  0  0
   -5.4184    3.8683   -0.0670 S   0  0  0  0  0  0  0  0  0  0  0  0
   -5.2161    3.3658    1.2927 O   0  0  0  0  0  0  0  0  0  0  0  0
   -4.2158    4.9143   -0.4349 O   0  0  0  0  0  0  0  0  0  0  0  0
   -5.5748    2.9170   -1.1681 O   0  0  0  0  0  0  0  0  0  0  0  0
  -10.0022    7.8633   -0.1237 C   0  0  0  0  0  0  0  0  0  0  0  0
  -10.7970    7.5619   -0.8125 H   0  0  0  0  0  0  0  0  0  0  0  0
  -10.4411    7.9962    0.8687 H   0  0  0  0  0  0  0  0  0  0  0  0
   -9.6401    8.8440   -0.4562 H   0  0  0  0  0  0  0  0  0  0  0  0
  1  8  1  0  0  0  0
  1  2  1  0  0  0  0
  2  3  1  0  0  0  0
  4  1  2  0  0  0  0
  5  6  2  0  0  0  0
  5  4  1  0  0  0  0
  6  7  1  0  0  0  0
  7 12  1  0  0  0  0
  7  8  2  0  0  0  0
  8 13  1  0  0  0  0
  9 26  1  0  0  0  0
 10  5  1  0  0  0  0
 11  6  1  0  0  0  0
 14 20  1  0  0  0  0
 15 14  1  0  0  0  0
 15 21  1  0  0  0  0
 16 15  2  0  0  0  0
 17 18  2  0  0  0  0
 17 16  1  0  0  0  0
 18 19  1  0  0  0  0
 19 24  1  0  0  0  0
 19 14  2  0  0  0  0
 22 17  1  0  0  0  0
 23 18  1  0  0  0  0
 24 25  2  0  0  0  0
 26 24  1  0  0  0  0
 27 24  2  0  0  0  0
 28 16  1  0  0  0  0
 28 30  1  0  0  0  0
 29 28  1  0  0  0  0
 31 28  1  0  0  0  0
M  RAD  3   2   2   3   3   4   2
M  END
