Coordinates from ORCA-job PhN2+~TsO-_B3LYPG-6-31G_dp-CH-Scan-d09-49-n800
 OpenBabel11261919273D

 31 31  0  0  0  0  0  0  0  0999 V2000
   -2.6609    0.7884    0.0457 C   0  0  0  0  0  0  0  0  0  0  0  0
   -4.0089    0.8377    0.4228 N   0  0  0  0  0  0  0  0  0  0  0  0
   -5.0231    1.3661    0.4357 N   0  0  0  0  0  0  0  0  0  0  0  0
   -2.0956    1.8308   -0.7048 C   0  0  0  0  0  0  0  0  0  0  0  0
   -0.7494    1.7268   -1.0392 C   0  0  0  0  0  0  0  0  0  0  0  0
   -0.0012    0.6149   -0.6384 C   0  0  0  0  0  0  0  0  0  0  0  0
   -0.5870   -0.4129    0.1096 C   0  0  0  0  0  0  0  0  0  0  0  0
   -1.9291   -0.3329    0.4611 C   0  0  0  0  0  0  0  0  0  0  0  0
   -2.7613    2.7484   -1.0151 H   0  0  0  0  0  0  0  0  0  0  0  0
   -0.2839    2.5213   -1.6130 H   0  0  0  0  0  0  0  0  0  0  0  0
    1.0480    0.5488   -0.9096 H   0  0  0  0  0  0  0  0  0  0  0  0
    0.0018   -1.2700    0.4186 H   0  0  0  0  0  0  0  0  0  0  0  0
   -2.4141   -1.1089    1.0432 H   0  0  0  0  0  0  0  0  0  0  0  0
   -7.2851    4.9355    1.0185 C   0  0  0  0  0  0  0  0  0  0  0  0
   -8.4819    5.6381    0.8973 C   0  0  0  0  0  0  0  0  0  0  0  0
   -8.6560    6.6071   -0.1021 C   0  0  0  0  0  0  0  0  0  0  0  0
   -7.5887    6.8635   -0.9732 C   0  0  0  0  0  0  0  0  0  0  0  0
   -6.3844    6.1690   -0.8641 C   0  0  0  0  0  0  0  0  0  0  0  0
   -6.2414    5.2021    0.1307 C   0  0  0  0  0  0  0  0  0  0  0  0
   -7.1443    4.2006    1.8039 H   0  0  0  0  0  0  0  0  0  0  0  0
   -9.2923    5.4363    1.5941 H   0  0  0  0  0  0  0  0  0  0  0  0
   -7.6991    7.6225   -1.7440 H   0  0  0  0  0  0  0  0  0  0  0  0
   -5.5523    6.3824   -1.5263 H   0  0  0  0  0  0  0  0  0  0  0  0
   -4.7103    4.2763    0.2558 S   0  0  0  0  0  0  0  0  0  0  0  0
   -4.5710    3.8293    1.6565 O   0  0  0  0  0  0  0  0  0  0  0  0
   -3.6407    5.1179   -0.3123 O   0  0  0  0  0  0  0  0  0  0  0  0
   -4.9232    3.0477   -0.6743 O   0  0  0  0  0  0  0  0  0  0  0  0
   -9.9675    7.3436   -0.2421 C   0  0  0  0  0  0  0  0  0  0  0  0
  -10.7064    6.7358   -0.7797 H   0  0  0  0  0  0  0  0  0  0  0  0
  -10.3972    7.5850    0.7350 H   0  0  0  0  0  0  0  0  0  0  0  0
   -9.8453    8.2773   -0.7983 H   0  0  0  0  0  0  0  0  0  0  0  0
  1  2  1  0  0  0  0
  1  8  2  0  0  0  0
  2  3  2  0  0  0  0
  4  1  1  0  0  0  0
  5  4  2  0  0  0  0
  5  6  1  0  0  0  0
  6  7  2  0  0  0  0
  7 12  1  0  0  0  0
  7  8  1  0  0  0  0
  8 13  1  0  0  0  0
  9  4  1  0  0  0  0
 10  5  1  0  0  0  0
 11  6  1  0  0  0  0
 14 20  1  0  0  0  0
 15 14  1  0  0  0  0
 15 21  1  0  0  0  0
 16 15  2  0  0  0  0
 17 18  2  0  0  0  0
 17 16  1  0  0  0  0
 18 19  1  0  0  0  0
 19 24  1  0  0  0  0
 19 14  2  0  0  0  0
 22 17  1  0  0  0  0
 23 18  1  0  0  0  0
 24 25  1  0  0  0  0
 26 24  2  0  0  0  0
 27 24  2  0  0  0  0
 28 16  1  0  0  0  0
 28 30  1  0  0  0  0
 29 28  1  0  0  0  0
 31 28  1  0  0  0  0
M  RAD  2   3   2  25   2
M  END
