Coordinates from ORCA-job PhN2+~TsO-_B3LYPG-6-31G_dp-CH-Scan-d09-49-n800
 OpenBabel11261919273D

 31 31  0  0  0  0  0  0  0  0999 V2000
   -2.2688    0.6236    0.1190 C   0  0  0  0  0  0  0  0  0  0  0  0
   -3.6002    0.3333    0.3989 N   0  0  0  0  0  0  0  0  0  0  0  0
   -4.6781    0.1398    0.6159 N   0  0  0  0  0  0  0  0  0  0  0  0
   -2.0127    1.9654   -0.2171 C   0  0  0  0  0  0  0  0  0  0  0  0
   -0.6323    2.1488   -0.4878 C   0  0  0  0  0  0  0  0  0  0  0  0
    0.3111    1.1269   -0.4223 C   0  0  0  0  0  0  0  0  0  0  0  0
   -0.0522   -0.1930   -0.0710 C   0  0  0  0  0  0  0  0  0  0  0  0
   -1.3715   -0.4733    0.2104 C   0  0  0  0  0  0  0  0  0  0  0  0
   -3.4894    3.5479   -0.3134 H   0  0  0  0  0  0  0  0  0  0  0  0
   -0.2826    3.1422   -0.7654 H   0  0  0  0  0  0  0  0  0  0  0  0
    1.3550    1.3381   -0.6460 H   0  0  0  0  0  0  0  0  0  0  0  0
    0.6964   -0.9770   -0.0233 H   0  0  0  0  0  0  0  0  0  0  0  0
   -1.7069   -1.4688    0.4865 H   0  0  0  0  0  0  0  0  0  0  0  0
   -7.0713    5.4380    1.1271 C   0  0  0  0  0  0  0  0  0  0  0  0
   -7.9808    6.4923    1.0667 C   0  0  0  0  0  0  0  0  0  0  0  0
   -8.5774    6.8669   -0.1451 C   0  0  0  0  0  0  0  0  0  0  0  0
   -8.2491    6.1476   -1.3047 C   0  0  0  0  0  0  0  0  0  0  0  0
   -7.3439    5.0906   -1.2641 C   0  0  0  0  0  0  0  0  0  0  0  0
   -6.7575    4.7499   -0.0441 C   0  0  0  0  0  0  0  0  0  0  0  0
   -6.6186    5.1384    2.0656 H   0  0  0  0  0  0  0  0  0  0  0  0
   -8.2355    7.0298    1.9760 H   0  0  0  0  0  0  0  0  0  0  0  0
   -8.7135    6.4159   -2.2499 H   0  0  0  0  0  0  0  0  0  0  0  0
   -7.1013    4.5244   -2.1566 H   0  0  0  0  0  0  0  0  0  0  0  0
   -5.5994    3.3971    0.0210 S   0  0  0  0  0  0  0  0  0  0  0  0
   -5.5243    2.8880    1.3962 O   0  0  0  0  0  0  0  0  0  0  0  0
   -4.2498    4.2028   -0.3293 O   0  0  0  0  0  0  0  0  0  0  0  0
   -5.8978    2.4461   -1.0556 O   0  0  0  0  0  0  0  0  0  0  0  0
   -9.5390    8.0288   -0.2084 C   0  0  0  0  0  0  0  0  0  0  0  0
  -10.3594    7.8324   -0.9053 H   0  0  0  0  0  0  0  0  0  0  0  0
   -9.9693    8.2473    0.7725 H   0  0  0  0  0  0  0  0  0  0  0  0
   -9.0318    8.9382   -0.5539 H   0  0  0  0  0  0  0  0  0  0  0  0
  1  8  1  0  0  0  0
  1  2  1  0  0  0  0
  2  3  1  0  0  0  0
  4  1  2  0  0  0  0
  5  6  2  0  0  0  0
  5  4  1  0  0  0  0
  6  7  1  0  0  0  0
  7 12  1  0  0  0  0
  7  8  2  0  0  0  0
  8 13  1  0  0  0  0
 10  5  1  0  0  0  0
 11  6  1  0  0  0  0
 14 20  1  0  0  0  0
 15 14  1  0  0  0  0
 15 21  1  0  0  0  0
 16 15  2  0  0  0  0
 17 18  2  0  0  0  0
 17 16  1  0  0  0  0
 18 19  1  0  0  0  0
 19 24  1  0  0  0  0
 19 14  2  0  0  0  0
 22 17  1  0  0  0  0
 23 18  1  0  0  0  0
 24 25  2  0  0  0  0
 26  9  1  0  0  0  0
 26 24  1  0  0  0  0
 27 24  2  0  0  0  0
 28 16  1  0  0  0  0
 28 30  1  0  0  0  0
 29 28  1  0  0  0  0
 31 28  1  0  0  0  0
M  RAD  3   2   2   3   3   4   2
M  END
