Coordinates from ORCA-job PhN2+~TsO-_B3LYPG-6-31G_dp-CH-Scan-d09-49-n800
 OpenBabel11261919273D

 31 31  0  0  0  0  0  0  0  0999 V2000
   -2.6844    0.8014    0.0325 C   0  0  0  0  0  0  0  0  0  0  0  0
   -4.0392    0.8455    0.3890 N   0  0  0  0  0  0  0  0  0  0  0  0
   -5.0481    1.3877    0.3802 N   0  0  0  0  0  0  0  0  0  0  0  0
   -2.1045    1.8475   -0.7036 C   0  0  0  0  0  0  0  0  0  0  0  0
   -0.7520    1.7387   -1.0133 C   0  0  0  0  0  0  0  0  0  0  0  0
   -0.0122    0.6244   -0.6047 C   0  0  0  0  0  0  0  0  0  0  0  0
   -0.6134   -0.4051    0.1278 C   0  0  0  0  0  0  0  0  0  0  0  0
   -1.9617   -0.3227    0.4549 C   0  0  0  0  0  0  0  0  0  0  0  0
   -2.7075    2.7044   -1.0049 H   0  0  0  0  0  0  0  0  0  0  0  0
   -0.2751    2.5350   -1.5754 H   0  0  0  0  0  0  0  0  0  0  0  0
    1.0416    0.5577   -0.8578 H   0  0  0  0  0  0  0  0  0  0  0  0
   -0.0327   -1.2652    0.4436 H   0  0  0  0  0  0  0  0  0  0  0  0
   -2.4592   -1.1001    1.0244 H   0  0  0  0  0  0  0  0  0  0  0  0
   -7.2565    4.9362    1.0179 C   0  0  0  0  0  0  0  0  0  0  0  0
   -8.4582    5.6330    0.9098 C   0  0  0  0  0  0  0  0  0  0  0  0
   -8.6505    6.5960   -0.0918 C   0  0  0  0  0  0  0  0  0  0  0  0
   -7.5964    6.8530   -0.9789 C   0  0  0  0  0  0  0  0  0  0  0  0
   -6.3877    6.1646   -0.8830 C   0  0  0  0  0  0  0  0  0  0  0  0
   -6.2267    5.2031    0.1145 C   0  0  0  0  0  0  0  0  0  0  0  0
   -7.1016    4.2058    1.8048 H   0  0  0  0  0  0  0  0  0  0  0  0
   -9.2579    5.4311    1.6189 H   0  0  0  0  0  0  0  0  0  0  0  0
   -7.7210    7.6077   -1.7518 H   0  0  0  0  0  0  0  0  0  0  0  0
   -5.5659    6.3787   -1.5578 H   0  0  0  0  0  0  0  0  0  0  0  0
   -4.6898    4.2852    0.2224 S   0  0  0  0  0  0  0  0  0  0  0  0
   -4.5352    3.8329    1.6194 O   0  0  0  0  0  0  0  0  0  0  0  0
   -3.6305    5.1323   -0.3546 O   0  0  0  0  0  0  0  0  0  0  0  0
   -4.9056    3.0566   -0.7105 O   0  0  0  0  0  0  0  0  0  0  0  0
   -9.9674    7.3254   -0.2183 C   0  0  0  0  0  0  0  0  0  0  0  0
  -10.7026    6.7207   -0.7644 H   0  0  0  0  0  0  0  0  0  0  0  0
  -10.3972    7.5485    0.7630 H   0  0  0  0  0  0  0  0  0  0  0  0
   -9.8528    8.2684   -0.7604 H   0  0  0  0  0  0  0  0  0  0  0  0
  1  2  1  0  0  0  0
  1  8  2  0  0  0  0
  3  2  2  0  0  0  0
  4  1  1  0  0  0  0
  5  4  2  0  0  0  0
  5  6  1  0  0  0  0
  6  7  2  0  0  0  0
  7 12  1  0  0  0  0
  7  8  1  0  0  0  0
  8 13  1  0  0  0  0
  9  4  1  0  0  0  0
 10  5  1  0  0  0  0
 11  6  1  0  0  0  0
 14 20  1  0  0  0  0
 15 14  1  0  0  0  0
 15 21  1  0  0  0  0
 16 15  2  0  0  0  0
 17 18  2  0  0  0  0
 17 16  1  0  0  0  0
 18 19  1  0  0  0  0
 19 24  1  0  0  0  0
 19 14  2  0  0  0  0
 22 17  1  0  0  0  0
 23 18  1  0  0  0  0
 24 25  1  0  0  0  0
 26 24  2  0  0  0  0
 27 24  2  0  0  0  0
 28 16  1  0  0  0  0
 28 30  1  0  0  0  0
 29 28  1  0  0  0  0
 31 28  1  0  0  0  0
M  RAD  2   3   2  25   2
M  END
