Coordinates from ORCA-job PhN2+~TsO-_B3LYPG-6-31G_dp-CH-Scan-d09-49-n800
 OpenBabel11261919283D

 31 31  0  0  0  0  0  0  0  0999 V2000
   -1.8773    0.4735    0.0591 C   0  0  0  0  0  0  0  0  0  0  0  0
   -3.2410    0.7279    0.2224 N   0  0  0  0  0  0  0  0  0  0  0  0
   -4.3241    0.9798    0.3409 N   0  0  0  0  0  0  0  0  0  0  0  0
   -1.1457    1.6167   -0.2963 C   0  0  0  0  0  0  0  0  0  0  0  0
    0.2279    1.2600   -0.4400 C   0  0  0  0  0  0  0  0  0  0  0  0
    0.7249   -0.0258   -0.2521 C   0  0  0  0  0  0  0  0  0  0  0  0
   -0.1211   -1.1043    0.1077 C   0  0  0  0  0  0  0  0  0  0  0  0
   -1.4678   -0.8712    0.2744 C   0  0  0  0  0  0  0  0  0  0  0  0
   -3.3078    5.3651   -0.8241 H   0  0  0  0  0  0  0  0  0  0  0  0
    0.9437    2.0365   -0.7155 H   0  0  0  0  0  0  0  0  0  0  0  0
    1.7881   -0.2239   -0.3827 H   0  0  0  0  0  0  0  0  0  0  0  0
    0.2869   -2.0999    0.2509 H   0  0  0  0  0  0  0  0  0  0  0  0
   -2.1656   -1.6575    0.5506 H   0  0  0  0  0  0  0  0  0  0  0  0
   -7.1519    5.8398    1.0881 C   0  0  0  0  0  0  0  0  0  0  0  0
   -8.3611    6.5322    1.1231 C   0  0  0  0  0  0  0  0  0  0  0  0
   -9.1122    6.7395   -0.0419 C   0  0  0  0  0  0  0  0  0  0  0  0
   -8.6267    6.2248   -1.2546 C   0  0  0  0  0  0  0  0  0  0  0  0
   -7.4218    5.5309   -1.3112 C   0  0  0  0  0  0  0  0  0  0  0  0
   -6.6927    5.3506   -0.1340 C   0  0  0  0  0  0  0  0  0  0  0  0
   -6.5762    5.6672    1.9907 H   0  0  0  0  0  0  0  0  0  0  0  0
   -8.7292    6.9136    2.0711 H   0  0  0  0  0  0  0  0  0  0  0  0
   -9.2036    6.3656   -2.1647 H   0  0  0  0  0  0  0  0  0  0  0  0
   -7.0540    5.1207   -2.2450 H   0  0  0  0  0  0  0  0  0  0  0  0
   -5.1542    4.4594   -0.1916 S   0  0  0  0  0  0  0  0  0  0  0  0
   -4.8202    3.9718    1.1447 O   0  0  0  0  0  0  0  0  0  0  0  0
   -4.1726    5.7267   -0.5605 O   0  0  0  0  0  0  0  0  0  0  0  0
   -5.1476    3.5376   -1.3279 O   0  0  0  0  0  0  0  0  0  0  0  0
  -10.4089    7.5116   -0.0016 C   0  0  0  0  0  0  0  0  0  0  0  0
  -11.1693    7.0471   -0.6369 H   0  0  0  0  0  0  0  0  0  0  0  0
  -10.8056    7.5764    1.0150 H   0  0  0  0  0  0  0  0  0  0  0  0
  -10.2649    8.5362   -0.3656 H   0  0  0  0  0  0  0  0  0  0  0  0
  1  2  1  0  0  0  0
  1  8  2  0  0  0  0
  2  3  1  0  0  0  0
  4  1  1  0  0  0  0
  5  4  2  0  0  0  0
  5  6  1  0  0  0  0
  6  7  2  0  0  0  0
  7 12  1  0  0  0  0
  7  8  1  0  0  0  0
  8 13  1  0  0  0  0
  9 26  1  0  0  0  0
 10  5  1  0  0  0  0
 11  6  1  0  0  0  0
 14 15  1  0  0  0  0
 14 20  1  0  0  0  0
 15 21  1  0  0  0  0
 16 28  1  0  0  0  0
 16 15  2  0  0  0  0
 17 16  1  0  0  0  0
 18 17  2  0  0  0  0
 18 19  1  0  0  0  0
 19 14  2  0  0  0  0
 22 17  1  0  0  0  0
 23 18  1  0  0  0  0
 24 19  1  0  0  0  0
 24 25  2  0  0  0  0
 26 24  1  0  0  0  0
 27 24  2  0  0  0  0
 28 30  1  0  0  0  0
 29 28  1  0  0  0  0
 31 28  1  0  0  0  0
M  RAD  3   2   2   3   3   4   2
M  END
