Coordinates from ORCA-job PhN2+~TsO-_B3LYPG-6-31G_dp-CH-Scan-d09-49-n800
 OpenBabel11261919273D

 31 31  0  0  0  0  0  0  0  0999 V2000
   -2.4202    0.7101    0.1324 C   0  0  0  0  0  0  0  0  0  0  0  0
   -3.7221    0.3368    0.4461 N   0  0  0  0  0  0  0  0  0  0  0  0
   -4.7811    0.0865    0.6902 N   0  0  0  0  0  0  0  0  0  0  0  0
   -2.2268    2.0660   -0.1891 C   0  0  0  0  0  0  0  0  0  0  0  0
   -0.8767    2.3400   -0.4956 C   0  0  0  0  0  0  0  0  0  0  0  0
    0.1228    1.3692   -0.4746 C   0  0  0  0  0  0  0  0  0  0  0  0
   -0.1611    0.0296   -0.1374 C   0  0  0  0  0  0  0  0  0  0  0  0
   -1.4564   -0.3277    0.1758 C   0  0  0  0  0  0  0  0  0  0  0  0
   -3.3907    3.1650   -0.2119 H   0  0  0  0  0  0  0  0  0  0  0  0
   -0.6015    3.3580   -0.7632 H   0  0  0  0  0  0  0  0  0  0  0  0
    1.1459    1.6415   -0.7228 H   0  0  0  0  0  0  0  0  0  0  0  0
    0.6281   -0.7146   -0.1239 H   0  0  0  0  0  0  0  0  0  0  0  0
   -1.7274   -1.3446    0.4428 H   0  0  0  0  0  0  0  0  0  0  0  0
   -7.0266    5.3400    1.1473 C   0  0  0  0  0  0  0  0  0  0  0  0
   -7.8924    6.4294    1.0603 C   0  0  0  0  0  0  0  0  0  0  0  0
   -8.4346    6.8282   -0.1687 C   0  0  0  0  0  0  0  0  0  0  0  0
   -8.0964    6.0970   -1.3177 C   0  0  0  0  0  0  0  0  0  0  0  0
   -7.2342    5.0059   -1.2489 C   0  0  0  0  0  0  0  0  0  0  0  0
   -6.7000    4.6393   -0.0126 C   0  0  0  0  0  0  0  0  0  0  0  0
   -6.6175    5.0208    2.0992 H   0  0  0  0  0  0  0  0  0  0  0  0
   -8.1560    6.9753    1.9624 H   0  0  0  0  0  0  0  0  0  0  0  0
   -8.5200    6.3829   -2.2772 H   0  0  0  0  0  0  0  0  0  0  0  0
   -6.9861    4.4300   -2.1339 H   0  0  0  0  0  0  0  0  0  0  0  0
   -5.5847    3.2485    0.0845 S   0  0  0  0  0  0  0  0  0  0  0  0
   -5.5939    2.7330    1.4671 O   0  0  0  0  0  0  0  0  0  0  0  0
   -4.2060    3.9336   -0.2301 O   0  0  0  0  0  0  0  0  0  0  0  0
   -5.9294    2.2871   -0.9787 O   0  0  0  0  0  0  0  0  0  0  0  0
   -9.3496    8.0258   -0.2613 C   0  0  0  0  0  0  0  0  0  0  0  0
  -10.1691    7.8504   -0.9653 H   0  0  0  0  0  0  0  0  0  0  0  0
   -9.7834    8.2751    0.7107 H   0  0  0  0  0  0  0  0  0  0  0  0
   -8.8049    8.9106   -0.6138 H   0  0  0  0  0  0  0  0  0  0  0  0
  1  8  1  0  0  0  0
  1  2  1  0  0  0  0
  2  3  1  0  0  0  0
  4  1  2  0  0  0  0
  5  6  2  0  0  0  0
  5  4  1  0  0  0  0
  6  7  1  0  0  0  0
  7 12  1  0  0  0  0
  7  8  2  0  0  0  0
  8 13  1  0  0  0  0
 10  5  1  0  0  0  0
 11  6  1  0  0  0  0
 14 20  1  0  0  0  0
 15 14  1  0  0  0  0
 15 21  1  0  0  0  0
 16 15  2  0  0  0  0
 17 18  2  0  0  0  0
 17 16  1  0  0  0  0
 18 19  1  0  0  0  0
 19 24  1  0  0  0  0
 19 14  2  0  0  0  0
 22 17  1  0  0  0  0
 23 18  1  0  0  0  0
 24 25  2  0  0  0  0
 26  9  1  0  0  0  0
 26 24  1  0  0  0  0
 27 24  2  0  0  0  0
 28 16  1  0  0  0  0
 28 30  1  0  0  0  0
 29 28  1  0  0  0  0
 31 28  1  0  0  0  0
M  RAD  3   2   2   3   3   4   2
M  END
