Coordinates from ORCA-job PhN2+~TsO-_B3LYPG-6-31G_dp-CH-Scan-d09-49-n800
 OpenBabel11261919273D

 31 31  0  0  0  0  0  0  0  0999 V2000
   -2.4240    0.7129    0.1309 C   0  0  0  0  0  0  0  0  0  0  0  0
   -3.7263    0.3404    0.4435 N   0  0  0  0  0  0  0  0  0  0  0  0
   -4.7859    0.0916    0.6866 N   0  0  0  0  0  0  0  0  0  0  0  0
   -2.2281    2.0688   -0.1890 C   0  0  0  0  0  0  0  0  0  0  0  0
   -0.8782    2.3428   -0.4945 C   0  0  0  0  0  0  0  0  0  0  0  0
    0.1204    1.3711   -0.4741 C   0  0  0  0  0  0  0  0  0  0  0  0
   -0.1650    0.0315   -0.1388 C   0  0  0  0  0  0  0  0  0  0  0  0
   -1.4607   -0.3252    0.1733 C   0  0  0  0  0  0  0  0  0  0  0  0
   -3.3816    3.1569   -0.2105 H   0  0  0  0  0  0  0  0  0  0  0  0
   -0.6027    3.3611   -0.7606 H   0  0  0  0  0  0  0  0  0  0  0  0
    1.1439    1.6429   -0.7215 H   0  0  0  0  0  0  0  0  0  0  0  0
    0.6235   -0.7134   -0.1258 H   0  0  0  0  0  0  0  0  0  0  0  0
   -1.7326   -1.3421    0.4389 H   0  0  0  0  0  0  0  0  0  0  0  0
   -7.0248    5.3400    1.1480 C   0  0  0  0  0  0  0  0  0  0  0  0
   -7.8911    6.4289    1.0602 C   0  0  0  0  0  0  0  0  0  0  0  0
   -8.4335    6.8266   -0.1690 C   0  0  0  0  0  0  0  0  0  0  0  0
   -8.0949    6.0947   -1.3175 C   0  0  0  0  0  0  0  0  0  0  0  0
   -7.2321    5.0040   -1.2478 C   0  0  0  0  0  0  0  0  0  0  0  0
   -6.6977    4.6385   -0.0112 C   0  0  0  0  0  0  0  0  0  0  0  0
   -6.6156    5.0217    2.1002 H   0  0  0  0  0  0  0  0  0  0  0  0
   -8.1551    6.9754    1.9619 H   0  0  0  0  0  0  0  0  0  0  0  0
   -8.5186    6.3796   -2.2772 H   0  0  0  0  0  0  0  0  0  0  0  0
   -6.9837    4.4276   -2.1323 H   0  0  0  0  0  0  0  0  0  0  0  0
   -5.5809    3.2488    0.0868 S   0  0  0  0  0  0  0  0  0  0  0  0
   -5.5912    2.7340    1.4702 O   0  0  0  0  0  0  0  0  0  0  0  0
   -4.2030    3.9312   -0.2283 O   0  0  0  0  0  0  0  0  0  0  0  0
   -5.9269    2.2854   -0.9746 O   0  0  0  0  0  0  0  0  0  0  0  0
   -9.3491    8.0237   -0.2626 C   0  0  0  0  0  0  0  0  0  0  0  0
  -10.1687    7.8472   -0.9662 H   0  0  0  0  0  0  0  0  0  0  0  0
   -9.7827    8.2737    0.7093 H   0  0  0  0  0  0  0  0  0  0  0  0
   -8.8050    8.9084   -0.6162 H   0  0  0  0  0  0  0  0  0  0  0  0
  1  8  1  0  0  0  0
  1  2  1  0  0  0  0
  2  3  1  0  0  0  0
  4  1  2  0  0  0  0
  5  6  2  0  0  0  0
  5  4  1  0  0  0  0
  6  7  1  0  0  0  0
  7 12  1  0  0  0  0
  7  8  2  0  0  0  0
  8 13  1  0  0  0  0
 10  5  1  0  0  0  0
 11  6  1  0  0  0  0
 14 20  1  0  0  0  0
 15 14  1  0  0  0  0
 15 21  1  0  0  0  0
 16 15  2  0  0  0  0
 17 18  2  0  0  0  0
 17 16  1  0  0  0  0
 18 19  1  0  0  0  0
 19 24  1  0  0  0  0
 19 14  2  0  0  0  0
 22 17  1  0  0  0  0
 23 18  1  0  0  0  0
 24 25  2  0  0  0  0
 26  9  1  0  0  0  0
 26 24  1  0  0  0  0
 27 24  2  0  0  0  0
 28 16  1  0  0  0  0
 28 30  1  0  0  0  0
 29 28  1  0  0  0  0
 31 28  1  0  0  0  0
M  RAD  3   2   2   3   3   4   2
M  END
