Coordinates from ORCA-job PhN2+~TsO-_B3LYPG-6-31G_dp-CH-Scan-d09-49-n800
 OpenBabel11261919273D

 31 31  0  0  0  0  0  0  0  0999 V2000
   -2.1001    0.5356    0.0922 C   0  0  0  0  0  0  0  0  0  0  0  0
   -3.4681    0.4136    0.3258 N   0  0  0  0  0  0  0  0  0  0  0  0
   -4.5695    0.3573    0.5049 N   0  0  0  0  0  0  0  0  0  0  0  0
   -1.6916    1.8362   -0.2482 C   0  0  0  0  0  0  0  0  0  0  0  0
   -0.2868    1.8531   -0.4690 C   0  0  0  0  0  0  0  0  0  0  0  0
    0.5310    0.7323   -0.3571 C   0  0  0  0  0  0  0  0  0  0  0  0
    0.0078   -0.5348   -0.0046 C   0  0  0  0  0  0  0  0  0  0  0  0
   -1.3434   -0.6596    0.2311 C   0  0  0  0  0  0  0  0  0  0  0  0
   -3.4296    4.1271   -0.4475 H   0  0  0  0  0  0  0  0  0  0  0  0
    0.1882    2.7950   -0.7446 H   0  0  0  0  0  0  0  0  0  0  0  0
    1.6002    0.8188   -0.5439 H   0  0  0  0  0  0  0  0  0  0  0  0
    0.6614   -1.3971    0.0791 H   0  0  0  0  0  0  0  0  0  0  0  0
   -1.8003   -1.6064    0.5057 H   0  0  0  0  0  0  0  0  0  0  0  0
   -7.1146    5.6005    1.1069 C   0  0  0  0  0  0  0  0  0  0  0  0
   -8.1230    6.5615    1.0782 C   0  0  0  0  0  0  0  0  0  0  0  0
   -8.7945    6.8731   -0.1125 C   0  0  0  0  0  0  0  0  0  0  0  0
   -8.4389    6.1859   -1.2833 C   0  0  0  0  0  0  0  0  0  0  0  0
   -7.4347    5.2216   -1.2754 C   0  0  0  0  0  0  0  0  0  0  0  0
   -6.7771    4.9435   -0.0760 C   0  0  0  0  0  0  0  0  0  0  0  0
   -6.6031    5.3492    2.0293 H   0  0  0  0  0  0  0  0  0  0  0  0
   -8.3967    7.0746    1.9959 H   0  0  0  0  0  0  0  0  0  0  0  0
   -8.9593    6.4058   -2.2117 H   0  0  0  0  0  0  0  0  0  0  0  0
   -7.1688    4.6800   -2.1764 H   0  0  0  0  0  0  0  0  0  0  0  0
   -5.4936    3.7097   -0.0515 S   0  0  0  0  0  0  0  0  0  0  0  0
   -5.3222    3.2053    1.3128 O   0  0  0  0  0  0  0  0  0  0  0  0
   -4.2376    4.6804   -0.4249 O   0  0  0  0  0  0  0  0  0  0  0  0
   -5.7046    2.7566   -1.1427 O   0  0  0  0  0  0  0  0  0  0  0  0
   -9.8636    7.9382   -0.1415 C   0  0  0  0  0  0  0  0  0  0  0  0
  -10.6672    7.6799   -0.8375 H   0  0  0  0  0  0  0  0  0  0  0  0
  -10.3036    8.0923    0.8473 H   0  0  0  0  0  0  0  0  0  0  0  0
   -9.4481    8.8993   -0.4687 H   0  0  0  0  0  0  0  0  0  0  0  0
  1  8  1  0  0  0  0
  1  2  1  0  0  0  0
  2  3  1  0  0  0  0
  4  1  2  0  0  0  0
  5  6  2  0  0  0  0
  5  4  1  0  0  0  0
  6  7  1  0  0  0  0
  7 12  1  0  0  0  0
  7  8  2  0  0  0  0
  8 13  1  0  0  0  0
  9 26  1  0  0  0  0
 10  5  1  0  0  0  0
 11  6  1  0  0  0  0
 14 20  1  0  0  0  0
 15 14  1  0  0  0  0
 15 21  1  0  0  0  0
 16 15  2  0  0  0  0
 17 18  2  0  0  0  0
 17 16  1  0  0  0  0
 18 19  1  0  0  0  0
 19 24  1  0  0  0  0
 19 14  2  0  0  0  0
 22 17  1  0  0  0  0
 23 18  1  0  0  0  0
 24 25  2  0  0  0  0
 26 24  1  0  0  0  0
 27 24  2  0  0  0  0
 28 16  1  0  0  0  0
 28 30  1  0  0  0  0
 29 28  1  0  0  0  0
 31 28  1  0  0  0  0
M  RAD  3   2   2   3   3   4   2
M  END
