Coordinates from ORCA-job PhN2+~TsO-_B3LYPG-6-31G_dp-CH-Scan-d09-49-n800
 OpenBabel11261919273D

 31 31  0  0  0  0  0  0  0  0999 V2000
   -2.4166    0.7070    0.1325 C   0  0  0  0  0  0  0  0  0  0  0  0
   -3.7185    0.3330    0.4453 N   0  0  0  0  0  0  0  0  0  0  0  0
   -4.7774    0.0813    0.6886 N   0  0  0  0  0  0  0  0  0  0  0  0
   -2.2252    2.0631   -0.1898 C   0  0  0  0  0  0  0  0  0  0  0  0
   -0.8743    2.3371   -0.4952 C   0  0  0  0  0  0  0  0  0  0  0  0
    0.1259    1.3672   -0.4723 C   0  0  0  0  0  0  0  0  0  0  0  0
   -0.1571    0.0275   -0.1342 C   0  0  0  0  0  0  0  0  0  0  0  0
   -1.4522   -0.3305    0.1780 C   0  0  0  0  0  0  0  0  0  0  0  0
   -3.3994    3.1728   -0.2154 H   0  0  0  0  0  0  0  0  0  0  0  0
   -0.5991    3.3549   -0.7635 H   0  0  0  0  0  0  0  0  0  0  0  0
    1.1491    1.6401   -0.7199 H   0  0  0  0  0  0  0  0  0  0  0  0
    0.6328   -0.7159   -0.1193 H   0  0  0  0  0  0  0  0  0  0  0  0
   -1.7228   -1.3473    0.4458 H   0  0  0  0  0  0  0  0  0  0  0  0
   -7.0265    5.3411    1.1460 C   0  0  0  0  0  0  0  0  0  0  0  0
   -7.8920    6.4309    1.0603 C   0  0  0  0  0  0  0  0  0  0  0  0
   -8.4359    6.8299   -0.1679 C   0  0  0  0  0  0  0  0  0  0  0  0
   -8.1000    6.0985   -1.3175 C   0  0  0  0  0  0  0  0  0  0  0  0
   -7.2382    5.0069   -1.2500 C   0  0  0  0  0  0  0  0  0  0  0  0
   -6.7022    4.6403   -0.0144 C   0  0  0  0  0  0  0  0  0  0  0  0
   -6.6161    5.0218    2.0973 H   0  0  0  0  0  0  0  0  0  0  0  0
   -8.1538    6.9770    1.9627 H   0  0  0  0  0  0  0  0  0  0  0  0
   -8.5248    6.3846   -2.2762 H   0  0  0  0  0  0  0  0  0  0  0  0
   -6.9917    4.4310   -2.1353 H   0  0  0  0  0  0  0  0  0  0  0  0
   -5.5884    3.2485    0.0811 S   0  0  0  0  0  0  0  0  0  0  0  0
   -5.5947    2.7331    1.4634 O   0  0  0  0  0  0  0  0  0  0  0  0
   -4.2091    3.9359   -0.2351 O   0  0  0  0  0  0  0  0  0  0  0  0
   -5.9332    2.2884   -0.9828 O   0  0  0  0  0  0  0  0  0  0  0  0
   -9.3505    8.0279   -0.2591 C   0  0  0  0  0  0  0  0  0  0  0  0
  -10.1710    7.8529   -0.9621 H   0  0  0  0  0  0  0  0  0  0  0  0
   -9.7829    8.2772    0.7135 H   0  0  0  0  0  0  0  0  0  0  0  0
   -8.8059    8.9125   -0.6122 H   0  0  0  0  0  0  0  0  0  0  0  0
  1  8  1  0  0  0  0
  1  2  1  0  0  0  0
  2  3  1  0  0  0  0
  4  1  2  0  0  0  0
  5  6  2  0  0  0  0
  5  4  1  0  0  0  0
  6  7  1  0  0  0  0
  7 12  1  0  0  0  0
  7  8  2  0  0  0  0
  8 13  1  0  0  0  0
 10  5  1  0  0  0  0
 11  6  1  0  0  0  0
 14 20  1  0  0  0  0
 15 14  1  0  0  0  0
 15 21  1  0  0  0  0
 16 15  2  0  0  0  0
 17 18  2  0  0  0  0
 17 16  1  0  0  0  0
 18 19  1  0  0  0  0
 19 24  1  0  0  0  0
 19 14  2  0  0  0  0
 22 17  1  0  0  0  0
 23 18  1  0  0  0  0
 24 25  2  0  0  0  0
 26  9  1  0  0  0  0
 26 24  1  0  0  0  0
 27 24  2  0  0  0  0
 28 16  1  0  0  0  0
 28 30  1  0  0  0  0
 29 28  1  0  0  0  0
 31 28  1  0  0  0  0
M  RAD  3   2   2   3   3   4   2
M  END
