Coordinates from ORCA-job PhN2+~TsO-_B3LYPG-6-31G_dp-CH-Scan-d09-49-n800
 OpenBabel11261919273D

 31 31  0  0  0  0  0  0  0  0999 V2000
   -1.9944    0.4954    0.0963 C   0  0  0  0  0  0  0  0  0  0  0  0
   -3.3688    0.5449    0.3319 N   0  0  0  0  0  0  0  0  0  0  0  0
   -4.4690    0.6319    0.5090 N   0  0  0  0  0  0  0  0  0  0  0  0
   -1.4458    1.7370   -0.2623 C   0  0  0  0  0  0  0  0  0  0  0  0
   -0.0478    1.5826   -0.4887 C   0  0  0  0  0  0  0  0  0  0  0  0
    0.6337    0.3757   -0.3653 C   0  0  0  0  0  0  0  0  0  0  0  0
   -0.0317   -0.8179    0.0075 C   0  0  0  0  0  0  0  0  0  0  0  0
   -1.3866   -0.7805    0.2507 C   0  0  0  0  0  0  0  0  0  0  0  0
   -3.3333    4.7116   -0.5330 H   0  0  0  0  0  0  0  0  0  0  0  0
    0.5351    2.4580   -0.7790 H   0  0  0  0  0  0  0  0  0  0  0  0
    1.7047    0.3330   -0.5582 H   0  0  0  0  0  0  0  0  0  0  0  0
    0.5183   -1.7490    0.1006 H   0  0  0  0  0  0  0  0  0  0  0  0
   -1.9506   -1.6632    0.5404 H   0  0  0  0  0  0  0  0  0  0  0  0
   -7.1527    5.7234    1.1114 C   0  0  0  0  0  0  0  0  0  0  0  0
   -8.2619    6.5666    1.0928 C   0  0  0  0  0  0  0  0  0  0  0  0
   -8.9582    6.8233   -0.0966 C   0  0  0  0  0  0  0  0  0  0  0  0
   -8.5223    6.2018   -1.2773 C   0  0  0  0  0  0  0  0  0  0  0  0
   -7.4168    5.3560   -1.2801 C   0  0  0  0  0  0  0  0  0  0  0  0
   -6.7386    5.1306   -0.0810 C   0  0  0  0  0  0  0  0  0  0  0  0
   -6.6208    5.5139    2.0328 H   0  0  0  0  0  0  0  0  0  0  0  0
   -8.5950    7.0293    2.0174 H   0  0  0  0  0  0  0  0  0  0  0  0
   -9.0594    6.3796   -2.2051 H   0  0  0  0  0  0  0  0  0  0  0  0
   -7.0879    4.8649   -2.1890 H   0  0  0  0  0  0  0  0  0  0  0  0
   -5.3257    4.0489   -0.0707 S   0  0  0  0  0  0  0  0  0  0  0  0
   -5.0968    3.5502    1.2852 O   0  0  0  0  0  0  0  0  0  0  0  0
   -4.1855    5.1723   -0.4261 O   0  0  0  0  0  0  0  0  0  0  0  0
   -5.4152    3.1027   -1.1831 O   0  0  0  0  0  0  0  0  0  0  0  0
  -10.1401    7.7620   -0.1151 C   0  0  0  0  0  0  0  0  0  0  0  0
  -10.9212    7.4078   -0.7945 H   0  0  0  0  0  0  0  0  0  0  0  0
  -10.5776    7.8762    0.8801 H   0  0  0  0  0  0  0  0  0  0  0  0
   -9.8401    8.7597   -0.4588 H   0  0  0  0  0  0  0  0  0  0  0  0
  1  8  1  0  0  0  0
  1  2  1  0  0  0  0
  2  3  1  0  0  0  0
  4  1  2  0  0  0  0
  5  6  2  0  0  0  0
  5  4  1  0  0  0  0
  6  7  1  0  0  0  0
  7 12  1  0  0  0  0
  7  8  2  0  0  0  0
  8 13  1  0  0  0  0
  9 26  1  0  0  0  0
 10  5  1  0  0  0  0
 11  6  1  0  0  0  0
 14 20  1  0  0  0  0
 15 14  1  0  0  0  0
 15 21  1  0  0  0  0
 16 15  2  0  0  0  0
 17 16  1  0  0  0  0
 18 17  2  0  0  0  0
 18 19  1  0  0  0  0
 19 24  1  0  0  0  0
 19 14  2  0  0  0  0
 22 17  1  0  0  0  0
 23 18  1  0  0  0  0
 24 25  2  0  0  0  0
 26 24  1  0  0  0  0
 27 24  2  0  0  0  0
 28 16  1  0  0  0  0
 28 30  1  0  0  0  0
 29 28  1  0  0  0  0
 31 28  1  0  0  0  0
M  RAD  3   2   2   3   3   4   2
M  END
