Coordinates from ORCA-job PhN2+~TsO-_B3LYPG-6-31G_dp-CH-Scan-d09-49-n800
 OpenBabel11261919273D

 31 31  0  0  0  0  0  0  0  0999 V2000
   -2.2766    0.6277    0.1211 C   0  0  0  0  0  0  0  0  0  0  0  0
   -3.6060    0.3307    0.4031 N   0  0  0  0  0  0  0  0  0  0  0  0
   -4.6825    0.1319    0.6219 N   0  0  0  0  0  0  0  0  0  0  0  0
   -2.0269    1.9706   -0.2160 C   0  0  0  0  0  0  0  0  0  0  0  0
   -0.6480    2.1606   -0.4889 C   0  0  0  0  0  0  0  0  0  0  0  0
    0.3004    1.1433   -0.4245 C   0  0  0  0  0  0  0  0  0  0  0  0
   -0.0561   -0.1781   -0.0721 C   0  0  0  0  0  0  0  0  0  0  0  0
   -1.3737   -0.4645    0.2114 C   0  0  0  0  0  0  0  0  0  0  0  0
   -3.4902    3.5245   -0.3100 H   0  0  0  0  0  0  0  0  0  0  0  0
   -0.3038    3.1557   -0.7674 H   0  0  0  0  0  0  0  0  0  0  0  0
    1.3429    1.3593   -0.6499 H   0  0  0  0  0  0  0  0  0  0  0  0
    0.6962   -0.9585   -0.0252 H   0  0  0  0  0  0  0  0  0  0  0  0
   -1.7039   -1.4616    0.4884 H   0  0  0  0  0  0  0  0  0  0  0  0
   -7.0683    5.4306    1.1269 C   0  0  0  0  0  0  0  0  0  0  0  0
   -7.9740    6.4882    1.0663 C   0  0  0  0  0  0  0  0  0  0  0  0
   -8.5679    6.8658   -0.1459 C   0  0  0  0  0  0  0  0  0  0  0  0
   -8.2409    6.1463   -1.3056 C   0  0  0  0  0  0  0  0  0  0  0  0
   -7.3395    5.0860   -1.2647 C   0  0  0  0  0  0  0  0  0  0  0  0
   -6.7556    4.7422   -0.0444 C   0  0  0  0  0  0  0  0  0  0  0  0
   -6.6178    5.1287    2.0657 H   0  0  0  0  0  0  0  0  0  0  0  0
   -8.2279    7.0259    1.9758 H   0  0  0  0  0  0  0  0  0  0  0  0
   -8.7033    6.4169   -2.2511 H   0  0  0  0  0  0  0  0  0  0  0  0
   -7.0979    4.5195   -2.1574 H   0  0  0  0  0  0  0  0  0  0  0  0
   -5.6024    3.3851    0.0210 S   0  0  0  0  0  0  0  0  0  0  0  0
   -5.5312    2.8748    1.3963 O   0  0  0  0  0  0  0  0  0  0  0  0
   -4.2497    4.1838   -0.3277 O   0  0  0  0  0  0  0  0  0  0  0  0
   -5.9048    2.4351   -1.0556 O   0  0  0  0  0  0  0  0  0  0  0  0
   -9.5255    8.0311   -0.2093 C   0  0  0  0  0  0  0  0  0  0  0  0
  -10.3471    7.8369   -0.9056 H   0  0  0  0  0  0  0  0  0  0  0  0
   -9.9544    8.2517    0.7716 H   0  0  0  0  0  0  0  0  0  0  0  0
   -9.0155    8.9384   -0.5560 H   0  0  0  0  0  0  0  0  0  0  0  0
  1  8  1  0  0  0  0
  1  2  1  0  0  0  0
  2  3  1  0  0  0  0
  4  1  2  0  0  0  0
  5  6  2  0  0  0  0
  5  4  1  0  0  0  0
  6  7  1  0  0  0  0
  7 12  1  0  0  0  0
  7  8  2  0  0  0  0
  8 13  1  0  0  0  0
 10  5  1  0  0  0  0
 11  6  1  0  0  0  0
 14 20  1  0  0  0  0
 15 14  1  0  0  0  0
 15 21  1  0  0  0  0
 16 15  2  0  0  0  0
 17 18  2  0  0  0  0
 17 16  1  0  0  0  0
 18 19  1  0  0  0  0
 19 24  1  0  0  0  0
 19 14  2  0  0  0  0
 22 17  1  0  0  0  0
 23 18  1  0  0  0  0
 24 25  2  0  0  0  0
 26  9  1  0  0  0  0
 26 24  1  0  0  0  0
 27 24  2  0  0  0  0
 28 16  1  0  0  0  0
 28 30  1  0  0  0  0
 29 28  1  0  0  0  0
 31 28  1  0  0  0  0
M  RAD  3   2   2   3   3   4   2
M  END
