Coordinates from ORCA-job PhN2+~TsO-_B3LYPG-6-31G_dp-CH-Scan-d09-49-n800
 OpenBabel11261919273D

 31 31  0  0  0  0  0  0  0  0999 V2000
   -2.0959    0.5342    0.0916 C   0  0  0  0  0  0  0  0  0  0  0  0
   -3.4646    0.4170    0.3241 N   0  0  0  0  0  0  0  0  0  0  0  0
   -4.5663    0.3641    0.5023 N   0  0  0  0  0  0  0  0  0  0  0  0
   -1.6827    1.8331   -0.2492 C   0  0  0  0  0  0  0  0  0  0  0  0
   -0.2775    1.8448   -0.4689 C   0  0  0  0  0  0  0  0  0  0  0  0
    0.5362    0.7213   -0.3557 C   0  0  0  0  0  0  0  0  0  0  0  0
    0.0083   -0.5437   -0.0028 C   0  0  0  0  0  0  0  0  0  0  0  0
   -1.3435   -0.6636    0.2319 C   0  0  0  0  0  0  0  0  0  0  0  0
   -3.4277    4.1436   -0.4514 H   0  0  0  0  0  0  0  0  0  0  0  0
    0.2011    2.7849   -0.7447 H   0  0  0  0  0  0  0  0  0  0  0  0
    1.6058    0.8039   -0.5416 H   0  0  0  0  0  0  0  0  0  0  0  0
    0.6587   -1.4083    0.0820 H   0  0  0  0  0  0  0  0  0  0  0  0
   -1.8041   -1.6086    0.5067 H   0  0  0  0  0  0  0  0  0  0  0  0
   -7.1157    5.6045    1.1064 C   0  0  0  0  0  0  0  0  0  0  0  0
   -8.1269    6.5627    1.0786 C   0  0  0  0  0  0  0  0  0  0  0  0
   -8.8000    6.8727   -0.1116 C   0  0  0  0  0  0  0  0  0  0  0  0
   -8.4433    6.1867   -1.2828 C   0  0  0  0  0  0  0  0  0  0  0  0
   -7.4363    5.2253   -1.2757 C   0  0  0  0  0  0  0  0  0  0  0  0
   -6.7772    4.9488   -0.0769 C   0  0  0  0  0  0  0  0  0  0  0  0
   -6.6029    5.3545    2.0285 H   0  0  0  0  0  0  0  0  0  0  0  0
   -8.4014    7.0747    1.9967 H   0  0  0  0  0  0  0  0  0  0  0  0
   -8.9649    6.4054   -2.2108 H   0  0  0  0  0  0  0  0  0  0  0  0
   -7.1695    4.6846   -2.1770 H   0  0  0  0  0  0  0  0  0  0  0  0
   -5.4902    3.7187   -0.0535 S   0  0  0  0  0  0  0  0  0  0  0  0
   -5.3164    3.2143    1.3104 O   0  0  0  0  0  0  0  0  0  0  0  0
   -4.2373    4.6939   -0.4271 O   0  0  0  0  0  0  0  0  0  0  0  0
   -5.6985    2.7656   -1.1451 O   0  0  0  0  0  0  0  0  0  0  0  0
   -9.8721    7.9347   -0.1397 C   0  0  0  0  0  0  0  0  0  0  0  0
  -10.6754    7.6743   -0.8353 H   0  0  0  0  0  0  0  0  0  0  0  0
  -10.3121    8.0873    0.8495 H   0  0  0  0  0  0  0  0  0  0  0  0
   -9.4595    8.8971   -0.4667 H   0  0  0  0  0  0  0  0  0  0  0  0
  1  8  1  0  0  0  0
  1  2  1  0  0  0  0
  2  3  1  0  0  0  0
  4  1  2  0  0  0  0
  5  6  2  0  0  0  0
  5  4  1  0  0  0  0
  6  7  1  0  0  0  0
  7 12  1  0  0  0  0
  7  8  2  0  0  0  0
  8 13  1  0  0  0  0
  9 26  1  0  0  0  0
 10  5  1  0  0  0  0
 11  6  1  0  0  0  0
 14 20  1  0  0  0  0
 15 14  1  0  0  0  0
 15 21  1  0  0  0  0
 16 15  2  0  0  0  0
 17 18  2  0  0  0  0
 17 16  1  0  0  0  0
 18 19  1  0  0  0  0
 19 24  1  0  0  0  0
 19 14  2  0  0  0  0
 22 17  1  0  0  0  0
 23 18  1  0  0  0  0
 24 25  2  0  0  0  0
 26 24  1  0  0  0  0
 27 24  2  0  0  0  0
 28 16  1  0  0  0  0
 28 30  1  0  0  0  0
 29 28  1  0  0  0  0
 31 28  1  0  0  0  0
M  RAD  3   2   2   3   3   4   2
M  END
