Coordinates from ORCA-job PhN2+~TsO-_B3LYPG-6-31G_dp-CH-Scan-d09-49-n800
 OpenBabel11261919273D

 31 31  0  0  0  0  0  0  0  0999 V2000
   -2.2176    0.5982    0.1141 C   0  0  0  0  0  0  0  0  0  0  0  0
   -3.5598    0.3520    0.3869 N   0  0  0  0  0  0  0  0  0  0  0  0
   -4.6448    0.1930    0.5979 N   0  0  0  0  0  0  0  0  0  0  0  0
   -1.9225    1.9310   -0.2238 C   0  0  0  0  0  0  0  0  0  0  0  0
   -0.5344    2.0714   -0.4863 C   0  0  0  0  0  0  0  0  0  0  0  0
    0.3775    1.0220   -0.4119 C   0  0  0  0  0  0  0  0  0  0  0  0
   -0.0270   -0.2862   -0.0593 C   0  0  0  0  0  0  0  0  0  0  0  0
   -1.3556   -0.5263    0.2147 C   0  0  0  0  0  0  0  0  0  0  0  0
   -3.4830    3.6935   -0.3383 H   0  0  0  0  0  0  0  0  0  0  0  0
   -0.1519    3.0528   -0.7646 H   0  0  0  0  0  0  0  0  0  0  0  0
    1.4289    1.2009   -0.6294 H   0  0  0  0  0  0  0  0  0  0  0  0
    0.6979   -1.0917   -0.0050 H   0  0  0  0  0  0  0  0  0  0  0  0
   -1.7224   -1.5107    0.4914 H   0  0  0  0  0  0  0  0  0  0  0  0
   -7.0917    5.4790    1.1241 C   0  0  0  0  0  0  0  0  0  0  0  0
   -8.0249    6.5125    1.0695 C   0  0  0  0  0  0  0  0  0  0  0  0
   -8.6371    6.8740   -0.1387 C   0  0  0  0  0  0  0  0  0  0  0  0
   -8.3000    6.1628   -1.3005 C   0  0  0  0  0  0  0  0  0  0  0  0
   -7.3711    5.1263   -1.2662 C   0  0  0  0  0  0  0  0  0  0  0  0
   -6.7700    4.7988   -0.0497 C   0  0  0  0  0  0  0  0  0  0  0  0
   -6.6267    5.1896    2.0597 H   0  0  0  0  0  0  0  0  0  0  0  0
   -8.2860    7.0440    1.9806 H   0  0  0  0  0  0  0  0  0  0  0  0
   -8.7759    6.4211   -2.2428 H   0  0  0  0  0  0  0  0  0  0  0  0
   -7.1209    4.5663   -2.1605 H   0  0  0  0  0  0  0  0  0  0  0  0
   -5.5817    3.4727    0.0077 S   0  0  0  0  0  0  0  0  0  0  0  0
   -5.4854    2.9628    1.3800 O   0  0  0  0  0  0  0  0  0  0  0  0
   -4.2515    4.3225   -0.3450 O   0  0  0  0  0  0  0  0  0  0  0  0
   -5.8547    2.5221   -1.0746 O   0  0  0  0  0  0  0  0  0  0  0  0
   -9.6240    8.0147   -0.1953 C   0  0  0  0  0  0  0  0  0  0  0  0
  -10.4379    7.8058   -0.8962 H   0  0  0  0  0  0  0  0  0  0  0  0
  -10.0615    8.2160    0.7860 H   0  0  0  0  0  0  0  0  0  0  0  0
   -9.1359    8.9377   -0.5322 H   0  0  0  0  0  0  0  0  0  0  0  0
  1  8  1  0  0  0  0
  1  2  1  0  0  0  0
  2  3  1  0  0  0  0
  4  1  2  0  0  0  0
  5  6  2  0  0  0  0
  5  4  1  0  0  0  0
  6  7  1  0  0  0  0
  7 12  1  0  0  0  0
  7  8  2  0  0  0  0
  8 13  1  0  0  0  0
 10  5  1  0  0  0  0
 11  6  1  0  0  0  0
 14 20  1  0  0  0  0
 15 14  1  0  0  0  0
 15 21  1  0  0  0  0
 16 15  2  0  0  0  0
 17 18  2  0  0  0  0
 17 16  1  0  0  0  0
 18 19  1  0  0  0  0
 19 24  1  0  0  0  0
 19 14  2  0  0  0  0
 22 17  1  0  0  0  0
 23 18  1  0  0  0  0
 24 25  2  0  0  0  0
 26  9  1  0  0  0  0
 26 24  1  0  0  0  0
 27 24  2  0  0  0  0
 28 16  1  0  0  0  0
 28 30  1  0  0  0  0
 29 28  1  0  0  0  0
 31 28  1  0  0  0  0
M  RAD  3   2   2   3   3   4   2
M  END
