Coordinates from ORCA-job PhN2+~TsO-_B3LYPG-6-31G_dp-CH-Scan-d09-49-n800
 OpenBabel11261919273D

 31 31  0  0  0  0  0  0  0  0999 V2000
   -2.1067    0.5400    0.0933 C   0  0  0  0  0  0  0  0  0  0  0  0
   -3.4734    0.4095    0.3303 N   0  0  0  0  0  0  0  0  0  0  0  0
   -4.5740    0.3448    0.5104 N   0  0  0  0  0  0  0  0  0  0  0  0
   -1.7053    1.8426   -0.2478 C   0  0  0  0  0  0  0  0  0  0  0  0
   -0.3012    1.8675   -0.4714 C   0  0  0  0  0  0  0  0  0  0  0  0
    0.5228    0.7512   -0.3614 C   0  0  0  0  0  0  0  0  0  0  0  0
    0.0072   -0.5187   -0.0084 C   0  0  0  0  0  0  0  0  0  0  0  0
   -1.3429   -0.6508    0.2300 C   0  0  0  0  0  0  0  0  0  0  0  0
   -3.4344    4.0970   -0.4373 H   0  0  0  0  0  0  0  0  0  0  0  0
    0.1679    2.8121   -0.7477 H   0  0  0  0  0  0  0  0  0  0  0  0
    1.5911    0.8436   -0.5503 H   0  0  0  0  0  0  0  0  0  0  0  0
    0.6655   -1.3775    0.0738 H   0  0  0  0  0  0  0  0  0  0  0  0
   -1.7941   -1.6001    0.5053 H   0  0  0  0  0  0  0  0  0  0  0  0
   -7.1143    5.5924    1.1084 C   0  0  0  0  0  0  0  0  0  0  0  0
   -8.1173    6.5590    1.0776 C   0  0  0  0  0  0  0  0  0  0  0  0
   -8.7846    6.8743   -0.1146 C   0  0  0  0  0  0  0  0  0  0  0  0
   -8.4303    6.1851   -1.2846 C   0  0  0  0  0  0  0  0  0  0  0  0
   -7.4315    5.2152   -1.2745 C   0  0  0  0  0  0  0  0  0  0  0  0
   -6.7780    4.9334   -0.0738 C   0  0  0  0  0  0  0  0  0  0  0  0
   -6.6062    5.3383    2.0319 H   0  0  0  0  0  0  0  0  0  0  0  0
   -8.3901    7.0735    1.9947 H   0  0  0  0  0  0  0  0  0  0  0  0
   -8.9475    6.4078   -2.2140 H   0  0  0  0  0  0  0  0  0  0  0  0
   -7.1667    4.6720   -2.1749 H   0  0  0  0  0  0  0  0  0  0  0  0
   -5.5015    3.6924   -0.0465 S   0  0  0  0  0  0  0  0  0  0  0  0
   -5.3357    3.1873    1.3184 O   0  0  0  0  0  0  0  0  0  0  0  0
   -4.2397    4.6549   -0.4183 O   0  0  0  0  0  0  0  0  0  0  0  0
   -5.7168    2.7393   -1.1370 O   0  0  0  0  0  0  0  0  0  0  0  0
   -9.8477    7.9452   -0.1458 C   0  0  0  0  0  0  0  0  0  0  0  0
  -10.6516    7.6911   -0.8430 H   0  0  0  0  0  0  0  0  0  0  0  0
  -10.2885    8.1022    0.8422 H   0  0  0  0  0  0  0  0  0  0  0  0
   -9.4264    8.9039   -0.4727 H   0  0  0  0  0  0  0  0  0  0  0  0
  1  8  1  0  0  0  0
  1  2  1  0  0  0  0
  2  3  1  0  0  0  0
  4  1  2  0  0  0  0
  5  6  2  0  0  0  0
  5  4  1  0  0  0  0
  6  7  1  0  0  0  0
  7 12  1  0  0  0  0
  7  8  2  0  0  0  0
  8 13  1  0  0  0  0
  9 26  1  0  0  0  0
 10  5  1  0  0  0  0
 11  6  1  0  0  0  0
 14 20  1  0  0  0  0
 15 14  1  0  0  0  0
 15 21  1  0  0  0  0
 16 15  2  0  0  0  0
 17 18  2  0  0  0  0
 17 16  1  0  0  0  0
 18 19  1  0  0  0  0
 19 24  1  0  0  0  0
 19 14  2  0  0  0  0
 22 17  1  0  0  0  0
 23 18  1  0  0  0  0
 24 25  2  0  0  0  0
 26 24  1  0  0  0  0
 27 24  2  0  0  0  0
 28 16  1  0  0  0  0
 28 30  1  0  0  0  0
 29 28  1  0  0  0  0
 31 28  1  0  0  0  0
M  RAD  3   2   2   3   3   4   2
M  END
