Coordinates from ORCA-job PhN2+~TsO-_B3LYPG-6-31G_dp-CH-Scan-d09-49-n800
 OpenBabel11261919273D

 31 31  0  0  0  0  0  0  0  0999 V2000
   -2.4606    0.7655    0.1010 C   0  0  0  0  0  0  0  0  0  0  0  0
   -3.7962    0.5065    0.3812 N   0  0  0  0  0  0  0  0  0  0  0  0
   -4.8925    0.4248    0.5766 N   0  0  0  0  0  0  0  0  0  0  0  0
   -2.1124    2.0894   -0.2141 C   0  0  0  0  0  0  0  0  0  0  0  0
   -0.7560    2.2868   -0.4923 C   0  0  0  0  0  0  0  0  0  0  0  0
    0.1613    1.2353   -0.4529 C   0  0  0  0  0  0  0  0  0  0  0  0
   -0.2420   -0.0714   -0.1289 C   0  0  0  0  0  0  0  0  0  0  0  0
   -1.5719   -0.3277    0.1558 C   0  0  0  0  0  0  0  0  0  0  0  0
   -3.0318    3.0647   -0.2378 H   0  0  0  0  0  0  0  0  0  0  0  0
   -0.4151    3.2860   -0.7460 H   0  0  0  0  0  0  0  0  0  0  0  0
    1.2072    1.4256   -0.6769 H   0  0  0  0  0  0  0  0  0  0  0  0
    0.4816   -0.8789   -0.1010 H   0  0  0  0  0  0  0  0  0  0  0  0
   -1.9244   -1.3214    0.4107 H   0  0  0  0  0  0  0  0  0  0  0  0
   -7.0158    5.3815    1.1563 C   0  0  0  0  0  0  0  0  0  0  0  0
   -7.9464    6.4174    1.0714 C   0  0  0  0  0  0  0  0  0  0  0  0
   -8.5068    6.7893   -0.1570 C   0  0  0  0  0  0  0  0  0  0  0  0
   -8.1183    6.0859   -1.3077 C   0  0  0  0  0  0  0  0  0  0  0  0
   -7.1913    5.0493   -1.2389 C   0  0  0  0  0  0  0  0  0  0  0  0
   -6.6399    4.7055   -0.0029 C   0  0  0  0  0  0  0  0  0  0  0  0
   -6.5926    5.0822    2.1087 H   0  0  0  0  0  0  0  0  0  0  0  0
   -8.2462    6.9420    1.9750 H   0  0  0  0  0  0  0  0  0  0  0  0
   -8.5533    6.3507   -2.2684 H   0  0  0  0  0  0  0  0  0  0  0  0
   -6.9053    4.4944   -2.1259 H   0  0  0  0  0  0  0  0  0  0  0  0
   -5.4194    3.3983    0.0888 S   0  0  0  0  0  0  0  0  0  0  0  0
   -5.4339    2.8691    1.4788 O   0  0  0  0  0  0  0  0  0  0  0  0
   -4.0970    4.0796   -0.2375 O   0  0  0  0  0  0  0  0  0  0  0  0
   -5.7709    2.3837   -0.9423 O   0  0  0  0  0  0  0  0  0  0  0  0
   -9.4969    7.9263   -0.2490 C   0  0  0  0  0  0  0  0  0  0  0  0
  -10.3501    7.6647   -0.8836 H   0  0  0  0  0  0  0  0  0  0  0  0
   -9.8807    8.2035    0.7363 H   0  0  0  0  0  0  0  0  0  0  0  0
   -9.0342    8.8201   -0.6855 H   0  0  0  0  0  0  0  0  0  0  0  0
  1  8  1  0  0  0  0
  1  2  1  0  0  0  0
  2  3  1  0  0  0  0
  4  1  2  0  0  0  0
  5  6  2  0  0  0  0
  5  4  1  0  0  0  0
  6  7  1  0  0  0  0
  7 12  1  0  0  0  0
  7  8  2  0  0  0  0
  8 13  1  0  0  0  0
  9  4  1  0  0  0  0
 10  5  1  0  0  0  0
 11  6  1  0  0  0  0
 14 20  1  0  0  0  0
 15 14  1  0  0  0  0
 15 21  1  0  0  0  0
 16 15  2  0  0  0  0
 17 18  2  0  0  0  0
 17 16  1  0  0  0  0
 18 19  1  0  0  0  0
 19 24  1  0  0  0  0
 19 14  2  0  0  0  0
 22 17  1  0  0  0  0
 23 18  1  0  0  0  0
 24 25  1  0  0  0  0
 26 24  2  0  0  0  0
 27 24  2  0  0  0  0
 28 16  1  0  0  0  0
 28 30  1  0  0  0  0
 29 28  1  0  0  0  0
 31 28  1  0  0  0  0
M  RAD  3   2   2   3   3  25   2
M  END
