Coordinates from ORCA-job PhN2+~TsO-_B3LYPG-6-31G_dp-CH-Scan-d09-49-n800
 OpenBabel11261919273D

 31 31  0  0  0  0  0  0  0  0999 V2000
   -2.4439    0.7352    0.1297 C   0  0  0  0  0  0  0  0  0  0  0  0
   -3.7514    0.3826    0.4423 N   0  0  0  0  0  0  0  0  0  0  0  0
   -4.8173    0.1622    0.6838 N   0  0  0  0  0  0  0  0  0  0  0  0
   -2.2175    2.0857   -0.1898 C   0  0  0  0  0  0  0  0  0  0  0  0
   -0.8696    2.3488   -0.4962 C   0  0  0  0  0  0  0  0  0  0  0  0
    0.1148    1.3618   -0.4772 C   0  0  0  0  0  0  0  0  0  0  0  0
   -0.1913    0.0276   -0.1439 C   0  0  0  0  0  0  0  0  0  0  0  0
   -1.4928   -0.3118    0.1685 C   0  0  0  0  0  0  0  0  0  0  0  0
   -3.2955    3.1080   -0.2048 H   0  0  0  0  0  0  0  0  0  0  0  0
   -0.5857    3.3646   -0.7602 H   0  0  0  0  0  0  0  0  0  0  0  0
    1.1417    1.6191   -0.7245 H   0  0  0  0  0  0  0  0  0  0  0  0
    0.5855   -0.7294   -0.1323 H   0  0  0  0  0  0  0  0  0  0  0  0
   -1.7779   -1.3254    0.4321 H   0  0  0  0  0  0  0  0  0  0  0  0
   -7.0196    5.3388    1.1498 C   0  0  0  0  0  0  0  0  0  0  0  0
   -7.8957    6.4200    1.0612 C   0  0  0  0  0  0  0  0  0  0  0  0
   -8.4377    6.8150   -0.1690 C   0  0  0  0  0  0  0  0  0  0  0  0
   -8.0884    6.0879   -1.3172 C   0  0  0  0  0  0  0  0  0  0  0  0
   -7.2157    5.0052   -1.2460 C   0  0  0  0  0  0  0  0  0  0  0  0
   -6.6816    4.6413   -0.0087 C   0  0  0  0  0  0  0  0  0  0  0  0
   -6.6112    5.0221    2.1029 H   0  0  0  0  0  0  0  0  0  0  0  0
   -8.1677    6.9624    1.9630 H   0  0  0  0  0  0  0  0  0  0  0  0
   -8.5115    6.3704   -2.2780 H   0  0  0  0  0  0  0  0  0  0  0  0
   -6.9595    4.4322   -2.1305 H   0  0  0  0  0  0  0  0  0  0  0  0
   -5.5455    3.2652    0.0894 S   0  0  0  0  0  0  0  0  0  0  0  0
   -5.5686    2.7441    1.4740 O   0  0  0  0  0  0  0  0  0  0  0  0
   -4.1769    3.9351   -0.2187 O   0  0  0  0  0  0  0  0  0  0  0  0
   -5.8953    2.2926   -0.9669 O   0  0  0  0  0  0  0  0  0  0  0  0
   -9.3642    8.0038   -0.2636 C   0  0  0  0  0  0  0  0  0  0  0  0
  -10.1844    7.8180   -0.9642 H   0  0  0  0  0  0  0  0  0  0  0  0
   -9.7976    8.2526    0.7088 H   0  0  0  0  0  0  0  0  0  0  0  0
   -8.8297    8.8927   -0.6214 H   0  0  0  0  0  0  0  0  0  0  0  0
  1  8  1  0  0  0  0
  1  2  1  0  0  0  0
  2  3  1  0  0  0  0
  4  1  2  0  0  0  0
  5  6  2  0  0  0  0
  5  4  1  0  0  0  0
  6  7  1  0  0  0  0
  7 12  1  0  0  0  0
  7  8  2  0  0  0  0
  8 13  1  0  0  0  0
 10  5  1  0  0  0  0
 11  6  1  0  0  0  0
 14 20  1  0  0  0  0
 15 14  1  0  0  0  0
 15 21  1  0  0  0  0
 16 15  2  0  0  0  0
 17 18  2  0  0  0  0
 17 16  1  0  0  0  0
 18 19  1  0  0  0  0
 19 24  1  0  0  0  0
 19 14  2  0  0  0  0
 22 17  1  0  0  0  0
 23 18  1  0  0  0  0
 24 25  2  0  0  0  0
 26  9  1  0  0  0  0
 26 24  1  0  0  0  0
 27 24  2  0  0  0  0
 28 16  1  0  0  0  0
 28 30  1  0  0  0  0
 29 28  1  0  0  0  0
 31 28  1  0  0  0  0
M  RAD  3   2   2   3   3   4   2
M  END
