Coordinates from ORCA-job PhN2+~TsO-_B3LYPG-6-31G_dp-CH-Scan-d09-49-n800
 OpenBabel11261919273D

 31 31  0  0  0  0  0  0  0  0999 V2000
   -2.4605    0.7651    0.1038 C   0  0  0  0  0  0  0  0  0  0  0  0
   -3.7947    0.5021    0.3864 N   0  0  0  0  0  0  0  0  0  0  0  0
   -4.8897    0.4138    0.5851 N   0  0  0  0  0  0  0  0  0  0  0  0
   -2.1174    2.0903   -0.2118 C   0  0  0  0  0  0  0  0  0  0  0  0
   -0.7616    2.2907   -0.4921 C   0  0  0  0  0  0  0  0  0  0  0  0
    0.1586    1.2419   -0.4541 C   0  0  0  0  0  0  0  0  0  0  0  0
   -0.2403   -0.0661   -0.1295 C   0  0  0  0  0  0  0  0  0  0  0  0
   -1.5689   -0.3261    0.1572 C   0  0  0  0  0  0  0  0  0  0  0  0
   -3.0432    3.0665   -0.2348 H   0  0  0  0  0  0  0  0  0  0  0  0
   -0.4235    3.2908   -0.7465 H   0  0  0  0  0  0  0  0  0  0  0  0
    1.2037    1.4351   -0.6798 H   0  0  0  0  0  0  0  0  0  0  0  0
    0.4857   -0.8715   -0.1028 H   0  0  0  0  0  0  0  0  0  0  0  0
   -1.9183   -1.3208    0.4126 H   0  0  0  0  0  0  0  0  0  0  0  0
   -7.0146    5.3789    1.1549 C   0  0  0  0  0  0  0  0  0  0  0  0
   -7.9426    6.4171    1.0706 C   0  0  0  0  0  0  0  0  0  0  0  0
   -8.5032    6.7902   -0.1575 C   0  0  0  0  0  0  0  0  0  0  0  0
   -8.1176    6.0855   -1.3083 C   0  0  0  0  0  0  0  0  0  0  0  0
   -7.1933    5.0465   -1.2402 C   0  0  0  0  0  0  0  0  0  0  0  0
   -6.6416    4.7017   -0.0046 C   0  0  0  0  0  0  0  0  0  0  0  0
   -6.5915    5.0786    2.1070 H   0  0  0  0  0  0  0  0  0  0  0  0
   -8.2403    6.9426    1.9744 H   0  0  0  0  0  0  0  0  0  0  0  0
   -8.5530    6.3511   -2.2687 H   0  0  0  0  0  0  0  0  0  0  0  0
   -6.9096    4.4904   -2.1272 H   0  0  0  0  0  0  0  0  0  0  0  0
   -5.4251    3.3909    0.0862 S   0  0  0  0  0  0  0  0  0  0  0  0
   -5.4420    2.8596    1.4753 O   0  0  0  0  0  0  0  0  0  0  0  0
   -4.1001    4.0715   -0.2359 O   0  0  0  0  0  0  0  0  0  0  0  0
   -5.7757    2.3799   -0.9479 O   0  0  0  0  0  0  0  0  0  0  0  0
   -9.4901    7.9301   -0.2487 C   0  0  0  0  0  0  0  0  0  0  0  0
  -10.3410    7.6735   -0.8883 H   0  0  0  0  0  0  0  0  0  0  0  0
   -9.8774    8.2039    0.7362 H   0  0  0  0  0  0  0  0  0  0  0  0
   -9.0231    8.8247   -0.6791 H   0  0  0  0  0  0  0  0  0  0  0  0
  1  8  1  0  0  0  0
  1  2  1  0  0  0  0
  2  3  1  0  0  0  0
  4  1  2  0  0  0  0
  5  6  2  0  0  0  0
  5  4  1  0  0  0  0
  6  7  1  0  0  0  0
  7 12  1  0  0  0  0
  7  8  2  0  0  0  0
  8 13  1  0  0  0  0
  9  4  1  0  0  0  0
 10  5  1  0  0  0  0
 11  6  1  0  0  0  0
 14 20  1  0  0  0  0
 15 14  1  0  0  0  0
 15 21  1  0  0  0  0
 16 15  2  0  0  0  0
 17 18  2  0  0  0  0
 17 16  1  0  0  0  0
 18 19  1  0  0  0  0
 19 24  1  0  0  0  0
 19 14  2  0  0  0  0
 22 17  1  0  0  0  0
 23 18  1  0  0  0  0
 24 25  1  0  0  0  0
 26 24  2  0  0  0  0
 27 24  2  0  0  0  0
 28 16  1  0  0  0  0
 28 30  1  0  0  0  0
 29 28  1  0  0  0  0
 31 28  1  0  0  0  0
M  RAD  3   2   2   3   3  25   2
M  END
