Coordinates from ORCA-job PhN2+~TsO-_B3LYPG-6-31G_dp-CH-Scan-d09-49-n800
 OpenBabel11261919283D

 31 31  0  0  0  0  0  0  0  0999 V2000
   -1.8834    0.4753    0.0643 C   0  0  0  0  0  0  0  0  0  0  0  0
   -3.2485    0.7187    0.2349 N   0  0  0  0  0  0  0  0  0  0  0  0
   -4.3324    0.9622    0.3627 N   0  0  0  0  0  0  0  0  0  0  0  0
   -1.1611    1.6249   -0.2890 C   0  0  0  0  0  0  0  0  0  0  0  0
    0.2140    1.2782   -0.4419 C   0  0  0  0  0  0  0  0  0  0  0  0
    0.7205   -0.0051   -0.2629 C   0  0  0  0  0  0  0  0  0  0  0  0
   -0.1164   -1.0909    0.0963 C   0  0  0  0  0  0  0  0  0  0  0  0
   -1.4637   -0.8675    0.2712 C   0  0  0  0  0  0  0  0  0  0  0  0
   -3.3068    5.3318   -0.8065 H   0  0  0  0  0  0  0  0  0  0  0  0
    0.9231    2.0607   -0.7174 H   0  0  0  0  0  0  0  0  0  0  0  0
    1.7842   -0.1956   -0.4002 H   0  0  0  0  0  0  0  0  0  0  0  0
    0.2989   -2.0845    0.2324 H   0  0  0  0  0  0  0  0  0  0  0  0
   -2.1548   -1.6598    0.5471 H   0  0  0  0  0  0  0  0  0  0  0  0
   -7.1529    5.8347    1.0902 C   0  0  0  0  0  0  0  0  0  0  0  0
   -8.3575    6.5352    1.1208 C   0  0  0  0  0  0  0  0  0  0  0  0
   -9.1050    6.7441   -0.0464 C   0  0  0  0  0  0  0  0  0  0  0  0
   -8.6208    6.2223   -1.2564 C   0  0  0  0  0  0  0  0  0  0  0  0
   -7.4205    5.5202   -1.3086 C   0  0  0  0  0  0  0  0  0  0  0  0
   -6.6948    5.3387   -0.1296 C   0  0  0  0  0  0  0  0  0  0  0  0
   -6.5801    5.6610    1.9944 H   0  0  0  0  0  0  0  0  0  0  0  0
   -8.7249    6.9219    2.0669 H   0  0  0  0  0  0  0  0  0  0  0  0
   -9.1950    6.3642   -2.1681 H   0  0  0  0  0  0  0  0  0  0  0  0
   -7.0537    5.1046   -2.2405 H   0  0  0  0  0  0  0  0  0  0  0  0
   -5.1619    4.4373   -0.1816 S   0  0  0  0  0  0  0  0  0  0  0  0
   -4.8333    3.9514    1.1567 O   0  0  0  0  0  0  0  0  0  0  0  0
   -4.1724    5.6979   -0.5523 O   0  0  0  0  0  0  0  0  0  0  0  0
   -5.1597    3.5116   -1.3147 O   0  0  0  0  0  0  0  0  0  0  0  0
  -10.3962    7.5256   -0.0108 C   0  0  0  0  0  0  0  0  0  0  0  0
  -11.1566    7.0687   -0.6515 H   0  0  0  0  0  0  0  0  0  0  0  0
  -10.7978    7.5906    1.0038 H   0  0  0  0  0  0  0  0  0  0  0  0
  -10.2425    8.5502   -0.3710 H   0  0  0  0  0  0  0  0  0  0  0  0
  1  2  1  0  0  0  0
  1  8  2  0  0  0  0
  2  3  1  0  0  0  0
  4  1  1  0  0  0  0
  5  4  2  0  0  0  0
  5  6  1  0  0  0  0
  6  7  2  0  0  0  0
  7 12  1  0  0  0  0
  7  8  1  0  0  0  0
  8 13  1  0  0  0  0
  9 26  1  0  0  0  0
 10  5  1  0  0  0  0
 11  6  1  0  0  0  0
 14 15  1  0  0  0  0
 14 20  1  0  0  0  0
 15 21  1  0  0  0  0
 16 28  1  0  0  0  0
 16 15  2  0  0  0  0
 17 16  1  0  0  0  0
 18 17  2  0  0  0  0
 18 19  1  0  0  0  0
 19 14  2  0  0  0  0
 22 17  1  0  0  0  0
 23 18  1  0  0  0  0
 24 19  1  0  0  0  0
 24 25  2  0  0  0  0
 26 24  1  0  0  0  0
 27 24  2  0  0  0  0
 28 30  1  0  0  0  0
 29 28  1  0  0  0  0
 31 28  1  0  0  0  0
M  RAD  3   2   2   3   3   4   2
M  END
