Coordinates from ORCA-job PhN2+~TsO-_B3LYPG-6-31G_dp-CH-Scan-d09-49-n800
 OpenBabel11261919283D

 31 31  0  0  0  0  0  0  0  0999 V2000
   -1.8694    0.4727    0.0528 C   0  0  0  0  0  0  0  0  0  0  0  0
   -3.2323    0.7381    0.2067 N   0  0  0  0  0  0  0  0  0  0  0  0
   -4.3143    0.9981    0.3170 N   0  0  0  0  0  0  0  0  0  0  0  0
   -1.1266    1.6083   -0.3033 C   0  0  0  0  0  0  0  0  0  0  0  0
    0.2451    1.2403   -0.4363 C   0  0  0  0  0  0  0  0  0  0  0  0
    0.7308   -0.0484   -0.2392 C   0  0  0  0  0  0  0  0  0  0  0  0
   -0.1260   -1.1186    0.1200 C   0  0  0  0  0  0  0  0  0  0  0  0
   -1.4718   -0.8743    0.2768 C   0  0  0  0  0  0  0  0  0  0  0  0
   -3.3103    5.4008   -0.8434 H   0  0  0  0  0  0  0  0  0  0  0  0
    0.9687    2.0099   -0.7108 H   0  0  0  0  0  0  0  0  0  0  0  0
    1.7932   -0.2554   -0.3618 H   0  0  0  0  0  0  0  0  0  0  0  0
    0.2733   -2.1166    0.2705 H   0  0  0  0  0  0  0  0  0  0  0  0
   -2.1776   -1.6538    0.5520 H   0  0  0  0  0  0  0  0  0  0  0  0
   -7.1509    5.8453    1.0856 C   0  0  0  0  0  0  0  0  0  0  0  0
   -8.3647    6.5295    1.1255 C   0  0  0  0  0  0  0  0  0  0  0  0
   -9.1200    6.7352   -0.0370 C   0  0  0  0  0  0  0  0  0  0  0  0
   -8.6341    6.2273   -1.2523 C   0  0  0  0  0  0  0  0  0  0  0  0
   -7.4248    5.5417   -1.3140 C   0  0  0  0  0  0  0  0  0  0  0  0
   -6.6916    5.3627   -0.1391 C   0  0  0  0  0  0  0  0  0  0  0  0
   -6.5720    5.6738    1.9862 H   0  0  0  0  0  0  0  0  0  0  0  0
   -8.7330    6.9057    2.0755 H   0  0  0  0  0  0  0  0  0  0  0  0
   -9.2142    6.3670   -2.1607 H   0  0  0  0  0  0  0  0  0  0  0  0
   -7.0565    5.1367   -2.2499 H   0  0  0  0  0  0  0  0  0  0  0  0
   -5.1475    4.4816   -0.2031 S   0  0  0  0  0  0  0  0  0  0  0  0
   -4.8074    3.9921    1.1309 O   0  0  0  0  0  0  0  0  0  0  0  0
   -4.1745    5.7564   -0.5705 O   0  0  0  0  0  0  0  0  0  0  0  0
   -5.1372    3.5636   -1.3423 O   0  0  0  0  0  0  0  0  0  0  0  0
  -10.4222    7.4978    0.0088 C   0  0  0  0  0  0  0  0  0  0  0  0
  -11.1831    7.0253   -0.6199 H   0  0  0  0  0  0  0  0  0  0  0  0
  -10.8129    7.5633    1.0276 H   0  0  0  0  0  0  0  0  0  0  0  0
  -10.2882    8.5221   -0.3600 H   0  0  0  0  0  0  0  0  0  0  0  0
  1  2  1  0  0  0  0
  1  8  2  0  0  0  0
  2  3  1  0  0  0  0
  4  1  1  0  0  0  0
  5  4  2  0  0  0  0
  5  6  1  0  0  0  0
  6  7  2  0  0  0  0
  7 12  1  0  0  0  0
  7  8  1  0  0  0  0
  8 13  1  0  0  0  0
  9 26  1  0  0  0  0
 10  5  1  0  0  0  0
 11  6  1  0  0  0  0
 14 15  1  0  0  0  0
 14 20  1  0  0  0  0
 15 21  1  0  0  0  0
 16 28  1  0  0  0  0
 16 15  2  0  0  0  0
 17 16  1  0  0  0  0
 18 17  2  0  0  0  0
 18 19  1  0  0  0  0
 19 14  2  0  0  0  0
 22 17  1  0  0  0  0
 23 18  1  0  0  0  0
 24 19  1  0  0  0  0
 24 25  2  0  0  0  0
 26 24  1  0  0  0  0
 27 24  2  0  0  0  0
 28 30  1  0  0  0  0
 29 28  1  0  0  0  0
 31 28  1  0  0  0  0
M  RAD  3   2   2   3   3   4   2
M  END
