Coordinates from ORCA-job PhN2+~TsO-_B3LYPG-6-31G_dp-CH-Scan-d09-49-n800
 OpenBabel11261919273D

 31 31  0  0  0  0  0  0  0  0999 V2000
   -2.0180    0.5020    0.0918 C   0  0  0  0  0  0  0  0  0  0  0  0
   -3.3939    0.4982    0.3203 N   0  0  0  0  0  0  0  0  0  0  0  0
   -4.4973    0.5391    0.4929 N   0  0  0  0  0  0  0  0  0  0  0  0
   -1.5107    1.7627   -0.2618 C   0  0  0  0  0  0  0  0  0  0  0  0
   -0.1072    1.6602   -0.4806 C   0  0  0  0  0  0  0  0  0  0  0  0
    0.6169    0.4785   -0.3551 C   0  0  0  0  0  0  0  0  0  0  0  0
   -0.0072   -0.7387    0.0119 C   0  0  0  0  0  0  0  0  0  0  0  0
   -1.3640   -0.7508    0.2472 C   0  0  0  0  0  0  0  0  0  0  0  0
   -3.3660    4.5325   -0.5117 H   0  0  0  0  0  0  0  0  0  0  0  0
    0.4446    2.5569   -0.7661 H   0  0  0  0  0  0  0  0  0  0  0  0
    1.6897    0.4752   -0.5418 H   0  0  0  0  0  0  0  0  0  0  0  0
    0.5752   -1.6497    0.1066 H   0  0  0  0  0  0  0  0  0  0  0  0
   -1.8969   -1.6540    0.5321 H   0  0  0  0  0  0  0  0  0  0  0  0
   -7.1440    5.6899    1.1073 C   0  0  0  0  0  0  0  0  0  0  0  0
   -8.2223    6.5723    1.0887 C   0  0  0  0  0  0  0  0  0  0  0  0
   -8.9151    6.8460   -0.0990 C   0  0  0  0  0  0  0  0  0  0  0  0
   -8.5081    6.2016   -1.2776 C   0  0  0  0  0  0  0  0  0  0  0  0
   -7.4338    5.3165   -1.2801 C   0  0  0  0  0  0  0  0  0  0  0  0
   -6.7577    5.0747   -0.0831 C   0  0  0  0  0  0  0  0  0  0  0  0
   -6.6152    5.4674    2.0274 H   0  0  0  0  0  0  0  0  0  0  0  0
   -8.5339    7.0524    2.0119 H   0  0  0  0  0  0  0  0  0  0  0  0
   -9.0434    6.3926   -2.2039 H   0  0  0  0  0  0  0  0  0  0  0  0
   -7.1274    4.8078   -2.1873 H   0  0  0  0  0  0  0  0  0  0  0  0
   -5.3846    3.9425   -0.0722 S   0  0  0  0  0  0  0  0  0  0  0  0
   -5.1699    3.4408    1.2855 O   0  0  0  0  0  0  0  0  0  0  0  0
   -4.2068    5.0207   -0.4357 O   0  0  0  0  0  0  0  0  0  0  0  0
   -5.5150    2.9934   -1.1783 O   0  0  0  0  0  0  0  0  0  0  0  0
  -10.0623    7.8268   -0.1175 C   0  0  0  0  0  0  0  0  0  0  0  0
  -10.8526    7.5045   -0.8021 H   0  0  0  0  0  0  0  0  0  0  0  0
  -10.4999    7.9515    0.8765 H   0  0  0  0  0  0  0  0  0  0  0  0
   -9.7252    8.8149   -0.4541 H   0  0  0  0  0  0  0  0  0  0  0  0
  1  8  1  0  0  0  0
  1  2  1  0  0  0  0
  2  3  1  0  0  0  0
  4  1  2  0  0  0  0
  5  6  2  0  0  0  0
  5  4  1  0  0  0  0
  6  7  1  0  0  0  0
  7 12  1  0  0  0  0
  7  8  2  0  0  0  0
  8 13  1  0  0  0  0
  9 26  1  0  0  0  0
 10  5  1  0  0  0  0
 11  6  1  0  0  0  0
 14 20  1  0  0  0  0
 15 14  1  0  0  0  0
 15 21  1  0  0  0  0
 16 15  2  0  0  0  0
 17 16  1  0  0  0  0
 18 17  2  0  0  0  0
 18 19  1  0  0  0  0
 19 24  1  0  0  0  0
 19 14  2  0  0  0  0
 22 17  1  0  0  0  0
 23 18  1  0  0  0  0
 24 25  2  0  0  0  0
 26 24  1  0  0  0  0
 27 24  2  0  0  0  0
 28 16  1  0  0  0  0
 28 30  1  0  0  0  0
 29 28  1  0  0  0  0
 31 28  1  0  0  0  0
M  RAD  3   2   2   3   3   4   2
M  END
