Coordinates from ORCA-job PhN2+~TsO-_B3LYPG-6-31G_dp-CH-Scan-d09-49-n800
 OpenBabel11261919283D

 31 31  0  0  0  0  0  0  0  0999 V2000
   -1.8842    0.4754    0.0655 C   0  0  0  0  0  0  0  0  0  0  0  0
   -3.2488    0.7183    0.2396 N   0  0  0  0  0  0  0  0  0  0  0  0
   -4.3331    0.9607    0.3662 N   0  0  0  0  0  0  0  0  0  0  0  0
   -1.1634    1.6251   -0.2908 C   0  0  0  0  0  0  0  0  0  0  0  0
    0.2116    1.2794   -0.4458 C   0  0  0  0  0  0  0  0  0  0  0  0
    0.7194   -0.0035   -0.2668 C   0  0  0  0  0  0  0  0  0  0  0  0
   -0.1159   -1.0896    0.0949 C   0  0  0  0  0  0  0  0  0  0  0  0
   -1.4630   -0.8670    0.2724 C   0  0  0  0  0  0  0  0  0  0  0  0
   -3.3058    5.3292   -0.8006 H   0  0  0  0  0  0  0  0  0  0  0  0
    0.9196    2.0622   -0.7234 H   0  0  0  0  0  0  0  0  0  0  0  0
    1.7830   -0.1933   -0.4062 H   0  0  0  0  0  0  0  0  0  0  0  0
    0.3004   -2.0826    0.2312 H   0  0  0  0  0  0  0  0  0  0  0  0
   -2.1530   -1.6595    0.5507 H   0  0  0  0  0  0  0  0  0  0  0  0
   -7.1540    5.8339    1.0912 C   0  0  0  0  0  0  0  0  0  0  0  0
   -8.3583    6.5350    1.1204 C   0  0  0  0  0  0  0  0  0  0  0  0
   -9.1043    6.7444   -0.0475 C   0  0  0  0  0  0  0  0  0  0  0  0
   -8.6190    6.2224   -1.2571 C   0  0  0  0  0  0  0  0  0  0  0  0
   -7.4190    5.5197   -1.3080 C   0  0  0  0  0  0  0  0  0  0  0  0
   -6.6947    5.3378   -0.1281 C   0  0  0  0  0  0  0  0  0  0  0  0
   -6.5823    5.6599    1.9960 H   0  0  0  0  0  0  0  0  0  0  0  0
   -8.7266    6.9219    2.0662 H   0  0  0  0  0  0  0  0  0  0  0  0
   -9.1921    6.3646   -2.1694 H   0  0  0  0  0  0  0  0  0  0  0  0
   -7.0513    5.1040   -2.2394 H   0  0  0  0  0  0  0  0  0  0  0  0
   -5.1622    4.4357   -0.1785 S   0  0  0  0  0  0  0  0  0  0  0  0
   -4.8353    3.9496    1.1602 O   0  0  0  0  0  0  0  0  0  0  0  0
   -4.1717    5.6958   -0.5479 O   0  0  0  0  0  0  0  0  0  0  0  0
   -5.1592    3.5101   -1.3116 O   0  0  0  0  0  0  0  0  0  0  0  0
  -10.3952    7.5265   -0.0134 C   0  0  0  0  0  0  0  0  0  0  0  0
  -11.1549    7.0703   -0.6554 H   0  0  0  0  0  0  0  0  0  0  0  0
  -10.7981    7.5912    1.0007 H   0  0  0  0  0  0  0  0  0  0  0  0
  -10.2404    8.5512   -0.3729 H   0  0  0  0  0  0  0  0  0  0  0  0
  1  2  1  0  0  0  0
  1  8  2  0  0  0  0
  2  3  1  0  0  0  0
  4  1  1  0  0  0  0
  5  4  2  0  0  0  0
  5  6  1  0  0  0  0
  6  7  2  0  0  0  0
  7 12  1  0  0  0  0
  7  8  1  0  0  0  0
  8 13  1  0  0  0  0
  9 26  1  0  0  0  0
 10  5  1  0  0  0  0
 11  6  1  0  0  0  0
 14 15  1  0  0  0  0
 14 20  1  0  0  0  0
 15 21  1  0  0  0  0
 16 28  1  0  0  0  0
 16 15  2  0  0  0  0
 17 16  1  0  0  0  0
 18 17  2  0  0  0  0
 18 19  1  0  0  0  0
 19 14  2  0  0  0  0
 22 17  1  0  0  0  0
 23 18  1  0  0  0  0
 24 19  1  0  0  0  0
 24 25  2  0  0  0  0
 26 24  1  0  0  0  0
 27 24  2  0  0  0  0
 28 30  1  0  0  0  0
 29 28  1  0  0  0  0
 31 28  1  0  0  0  0
M  RAD  3   2   2   3   3   4   2
M  END
