Coordinates from ORCA-job PhN2+~TsO-_B3LYPG-6-31G_dp-CH-Scan-d09-49-n800
 OpenBabel11261919273D

 31 31  0  0  0  0  0  0  0  0999 V2000
   -2.0073    0.4981    0.0932 C   0  0  0  0  0  0  0  0  0  0  0  0
   -3.3830    0.5164    0.3238 N   0  0  0  0  0  0  0  0  0  0  0  0
   -4.4854    0.5773    0.4978 N   0  0  0  0  0  0  0  0  0  0  0  0
   -1.4829    1.7511   -0.2627 C   0  0  0  0  0  0  0  0  0  0  0  0
   -0.0814    1.6272   -0.4841 C   0  0  0  0  0  0  0  0  0  0  0  0
    0.6254    0.4351   -0.3587 C   0  0  0  0  0  0  0  0  0  0  0  0
   -0.0158   -0.7724    0.0111 C   0  0  0  0  0  0  0  0  0  0  0  0
   -1.3721   -0.7642    0.2491 C   0  0  0  0  0  0  0  0  0  0  0  0
   -3.3525    4.6070   -0.5204 H   0  0  0  0  0  0  0  0  0  0  0  0
    0.4834    2.5152   -0.7718 H   0  0  0  0  0  0  0  0  0  0  0  0
    1.6977    0.4156   -0.5476 H   0  0  0  0  0  0  0  0  0  0  0  0
    0.5535   -1.6917    0.1058 H   0  0  0  0  0  0  0  0  0  0  0  0
   -1.9179   -1.6591    0.5363 H   0  0  0  0  0  0  0  0  0  0  0  0
   -7.1479    5.7045    1.1087 C   0  0  0  0  0  0  0  0  0  0  0  0
   -8.2391    6.5708    1.0904 C   0  0  0  0  0  0  0  0  0  0  0  0
   -8.9338    6.8374   -0.0978 C   0  0  0  0  0  0  0  0  0  0  0  0
   -8.5153    6.2022   -1.2773 C   0  0  0  0  0  0  0  0  0  0  0  0
   -7.4278    5.3332   -1.2803 C   0  0  0  0  0  0  0  0  0  0  0  0
   -6.7504    5.0983   -0.0826 C   0  0  0  0  0  0  0  0  0  0  0  0
   -6.6175    5.4874    2.0292 H   0  0  0  0  0  0  0  0  0  0  0  0
   -8.5594    7.0440    2.0143 H   0  0  0  0  0  0  0  0  0  0  0  0
   -9.0516    6.3877   -2.2041 H   0  0  0  0  0  0  0  0  0  0  0  0
   -7.1123    4.8315   -2.1883 H   0  0  0  0  0  0  0  0  0  0  0  0
   -5.3607    3.9867   -0.0724 S   0  0  0  0  0  0  0  0  0  0  0  0
   -5.1405    3.4852    1.2843 O   0  0  0  0  0  0  0  0  0  0  0  0
   -4.1980    5.0840   -0.4314 O   0  0  0  0  0  0  0  0  0  0  0  0
   -5.4741    3.0393   -1.1816 O   0  0  0  0  0  0  0  0  0  0  0  0
  -10.0956    7.8010   -0.1159 C   0  0  0  0  0  0  0  0  0  0  0  0
  -10.8824    7.4655   -0.7982 H   0  0  0  0  0  0  0  0  0  0  0  0
  -10.5329    7.9213    0.8787 H   0  0  0  0  0  0  0  0  0  0  0  0
   -9.7739    8.7932   -0.4555 H   0  0  0  0  0  0  0  0  0  0  0  0
  1  8  1  0  0  0  0
  1  2  1  0  0  0  0
  2  3  1  0  0  0  0
  4  1  2  0  0  0  0
  5  6  2  0  0  0  0
  5  4  1  0  0  0  0
  6  7  1  0  0  0  0
  7 12  1  0  0  0  0
  7  8  2  0  0  0  0
  8 13  1  0  0  0  0
  9 26  1  0  0  0  0
 10  5  1  0  0  0  0
 11  6  1  0  0  0  0
 14 20  1  0  0  0  0
 15 14  1  0  0  0  0
 15 21  1  0  0  0  0
 16 15  2  0  0  0  0
 17 16  1  0  0  0  0
 18 17  2  0  0  0  0
 18 19  1  0  0  0  0
 19 24  1  0  0  0  0
 19 14  2  0  0  0  0
 22 17  1  0  0  0  0
 23 18  1  0  0  0  0
 24 25  2  0  0  0  0
 26 24  1  0  0  0  0
 27 24  2  0  0  0  0
 28 16  1  0  0  0  0
 28 30  1  0  0  0  0
 29 28  1  0  0  0  0
 31 28  1  0  0  0  0
M  RAD  3   2   2   3   3   4   2
M  END
