Coordinates from ORCA-job PhN2+~TsO-_B3LYPG-6-31G_dp-CH-Scan-d09-49-n800
 OpenBabel11261919273D

 31 31  0  0  0  0  0  0  0  0999 V2000
   -2.0936    0.5338    0.0912 C   0  0  0  0  0  0  0  0  0  0  0  0
   -3.4629    0.4187    0.3225 N   0  0  0  0  0  0  0  0  0  0  0  0
   -4.5645    0.3673    0.5010 N   0  0  0  0  0  0  0  0  0  0  0  0
   -1.6778    1.8319   -0.2491 C   0  0  0  0  0  0  0  0  0  0  0  0
   -0.2724    1.8410   -0.4680 C   0  0  0  0  0  0  0  0  0  0  0  0
    0.5391    0.7159   -0.3543 C   0  0  0  0  0  0  0  0  0  0  0  0
    0.0086   -0.5481   -0.0018 C   0  0  0  0  0  0  0  0  0  0  0  0
   -1.3436   -0.6654    0.2320 C   0  0  0  0  0  0  0  0  0  0  0  0
   -3.4274    4.1513   -0.4545 H   0  0  0  0  0  0  0  0  0  0  0  0
    0.2081    2.7802   -0.7434 H   0  0  0  0  0  0  0  0  0  0  0  0
    1.6090    0.7965   -0.5395 H   0  0  0  0  0  0  0  0  0  0  0  0
    0.6574   -1.4139    0.0834 H   0  0  0  0  0  0  0  0  0  0  0  0
   -1.8061   -1.6096    0.5063 H   0  0  0  0  0  0  0  0  0  0  0  0
   -7.1161    5.6066    1.1060 C   0  0  0  0  0  0  0  0  0  0  0  0
   -8.1285    6.5635    1.0788 C   0  0  0  0  0  0  0  0  0  0  0  0
   -8.8027    6.8726   -0.1110 C   0  0  0  0  0  0  0  0  0  0  0  0
   -8.4459    6.1870   -1.2824 C   0  0  0  0  0  0  0  0  0  0  0  0
   -7.4377    5.2268   -1.2759 C   0  0  0  0  0  0  0  0  0  0  0  0
   -6.7775    4.9512   -0.0775 C   0  0  0  0  0  0  0  0  0  0  0  0
   -6.6023    5.3573    2.0277 H   0  0  0  0  0  0  0  0  0  0  0  0
   -8.4030    7.0753    1.9970 H   0  0  0  0  0  0  0  0  0  0  0  0
   -8.9683    6.4049   -2.2100 H   0  0  0  0  0  0  0  0  0  0  0  0
   -7.1707    4.6865   -2.1774 H   0  0  0  0  0  0  0  0  0  0  0  0
   -5.4888    3.7228   -0.0549 S   0  0  0  0  0  0  0  0  0  0  0  0
   -5.3135    3.2185    1.3089 O   0  0  0  0  0  0  0  0  0  0  0  0
   -4.2377    4.7001   -0.4292 O   0  0  0  0  0  0  0  0  0  0  0  0
   -5.6964    2.7695   -1.1464 O   0  0  0  0  0  0  0  0  0  0  0  0
   -9.8762    7.9332   -0.1385 C   0  0  0  0  0  0  0  0  0  0  0  0
  -10.6795    7.6719   -0.8336 H   0  0  0  0  0  0  0  0  0  0  0  0
  -10.3157    8.0853    0.8509 H   0  0  0  0  0  0  0  0  0  0  0  0
   -9.4649    8.8961   -0.4658 H   0  0  0  0  0  0  0  0  0  0  0  0
  1  8  1  0  0  0  0
  1  2  1  0  0  0  0
  2  3  1  0  0  0  0
  4  1  2  0  0  0  0
  5  6  2  0  0  0  0
  5  4  1  0  0  0  0
  6  7  1  0  0  0  0
  7 12  1  0  0  0  0
  7  8  2  0  0  0  0
  8 13  1  0  0  0  0
  9 26  1  0  0  0  0
 10  5  1  0  0  0  0
 11  6  1  0  0  0  0
 14 20  1  0  0  0  0
 15 14  1  0  0  0  0
 15 21  1  0  0  0  0
 16 15  2  0  0  0  0
 17 18  2  0  0  0  0
 17 16  1  0  0  0  0
 18 19  1  0  0  0  0
 19 24  1  0  0  0  0
 19 14  2  0  0  0  0
 22 17  1  0  0  0  0
 23 18  1  0  0  0  0
 24 25  2  0  0  0  0
 26 24  1  0  0  0  0
 27 24  2  0  0  0  0
 28 16  1  0  0  0  0
 28 30  1  0  0  0  0
 29 28  1  0  0  0  0
 31 28  1  0  0  0  0
M  RAD  3   2   2   3   3   4   2
M  END
