Coordinates from ORCA-job PhN2+~TsO-_B3LYPG-6-31G_dp-CH-Scan-d09-49-n800
 OpenBabel11261919273D

 31 31  0  0  0  0  0  0  0  0999 V2000
   -2.3785    0.6798    0.1273 C   0  0  0  0  0  0  0  0  0  0  0  0
   -3.6858    0.3136    0.4282 N   0  0  0  0  0  0  0  0  0  0  0  0
   -4.7475    0.0634    0.6624 N   0  0  0  0  0  0  0  0  0  0  0  0
   -2.1865    2.0358   -0.1961 C   0  0  0  0  0  0  0  0  0  0  0  0
   -0.8275    2.2977   -0.4896 C   0  0  0  0  0  0  0  0  0  0  0  0
    0.1680    1.3240   -0.4549 C   0  0  0  0  0  0  0  0  0  0  0  0
   -0.1228   -0.0149   -0.1153 C   0  0  0  0  0  0  0  0  0  0  0  0
   -1.4217   -0.3657    0.1859 C   0  0  0  0  0  0  0  0  0  0  0  0
   -3.4553    3.2635   -0.2406 H   0  0  0  0  0  0  0  0  0  0  0  0
   -0.5403    3.3125   -0.7589 H   0  0  0  0  0  0  0  0  0  0  0  0
    1.1949    1.5915   -0.6942 H   0  0  0  0  0  0  0  0  0  0  0  0
    0.6643   -0.7611   -0.0912 H   0  0  0  0  0  0  0  0  0  0  0  0
   -1.7001   -1.3804    0.4543 H   0  0  0  0  0  0  0  0  0  0  0  0
   -7.0341    5.3632    1.1404 C   0  0  0  0  0  0  0  0  0  0  0  0
   -7.9042    6.4494    1.0610 C   0  0  0  0  0  0  0  0  0  0  0  0
   -8.4626    6.8431   -0.1625 C   0  0  0  0  0  0  0  0  0  0  0  0
   -8.1364    6.1104   -1.3141 C   0  0  0  0  0  0  0  0  0  0  0  0
   -7.2702    5.0220   -1.2536 C   0  0  0  0  0  0  0  0  0  0  0  0
   -6.7203    4.6613   -0.0224 C   0  0  0  0  0  0  0  0  0  0  0  0
   -6.6120    5.0482    2.0881 H   0  0  0  0  0  0  0  0  0  0  0  0
   -8.1582    6.9969    1.9647 H   0  0  0  0  0  0  0  0  0  0  0  0
   -8.5723    6.3928   -2.2689 H   0  0  0  0  0  0  0  0  0  0  0  0
   -7.0307    4.4451   -2.1401 H   0  0  0  0  0  0  0  0  0  0  0  0
   -5.6074    3.2701    0.0659 S   0  0  0  0  0  0  0  0  0  0  0  0
   -5.5889    2.7601    1.4472 O   0  0  0  0  0  0  0  0  0  0  0  0
   -4.2292    3.9856   -0.2643 O   0  0  0  0  0  0  0  0  0  0  0  0
   -5.9452    2.3147   -1.0004 O   0  0  0  0  0  0  0  0  0  0  0  0
   -9.3824    8.0375   -0.2469 C   0  0  0  0  0  0  0  0  0  0  0  0
  -10.2077    7.8590   -0.9432 H   0  0  0  0  0  0  0  0  0  0  0  0
   -9.8078    8.2858    0.7290 H   0  0  0  0  0  0  0  0  0  0  0  0
   -8.8435    8.9235   -0.6050 H   0  0  0  0  0  0  0  0  0  0  0  0
  1  8  1  0  0  0  0
  1  2  1  0  0  0  0
  2  3  1  0  0  0  0
  4  1  2  0  0  0  0
  5  6  2  0  0  0  0
  5  4  1  0  0  0  0
  6  7  1  0  0  0  0
  7 12  1  0  0  0  0
  7  8  2  0  0  0  0
  8 13  1  0  0  0  0
 10  5  1  0  0  0  0
 11  6  1  0  0  0  0
 14 20  1  0  0  0  0
 15 14  1  0  0  0  0
 15 21  1  0  0  0  0
 16 15  2  0  0  0  0
 17 18  2  0  0  0  0
 17 16  1  0  0  0  0
 18 19  1  0  0  0  0
 19 24  1  0  0  0  0
 19 14  2  0  0  0  0
 22 17  1  0  0  0  0
 23 18  1  0  0  0  0
 24 25  2  0  0  0  0
 26  9  1  0  0  0  0
 26 24  1  0  0  0  0
 27 24  2  0  0  0  0
 28 16  1  0  0  0  0
 28 30  1  0  0  0  0
 29 28  1  0  0  0  0
 31 28  1  0  0  0  0
M  RAD  3   2   2   3   3   4   2
M  END
