Coordinates from ORCA-job PhN2+~TsO-_B3LYPG-6-31G_dp-CH-Scan-d09-49-n800
 OpenBabel11261919273D

 31 31  0  0  0  0  0  0  0  0999 V2000
   -1.9281    0.4805    0.0912 C   0  0  0  0  0  0  0  0  0  0  0  0
   -3.2973    0.6456    0.3116 N   0  0  0  0  0  0  0  0  0  0  0  0
   -4.3884    0.8264    0.4753 N   0  0  0  0  0  0  0  0  0  0  0  0
   -1.2807    1.6720   -0.2695 C   0  0  0  0  0  0  0  0  0  0  0  0
    0.1041    1.4032   -0.4760 C   0  0  0  0  0  0  0  0  0  0  0  0
    0.6851    0.1469   -0.3355 C   0  0  0  0  0  0  0  0  0  0  0  0
   -0.0785   -0.9872    0.0366 C   0  0  0  0  0  0  0  0  0  0  0  0
   -1.4287   -0.8397    0.2623 C   0  0  0  0  0  0  0  0  0  0  0  0
   -3.3034    5.0878   -0.6601 H   0  0  0  0  0  0  0  0  0  0  0  0
    0.7596    2.2267   -0.7645 H   0  0  0  0  0  0  0  0  0  0  0  0
    1.7517    0.0164   -0.5140 H   0  0  0  0  0  0  0  0  0  0  0  0
    0.3942   -1.9586    0.1428 H   0  0  0  0  0  0  0  0  0  0  0  0
   -2.0656   -1.6719    0.5508 H   0  0  0  0  0  0  0  0  0  0  0  0
   -7.1630    5.7921    1.1058 C   0  0  0  0  0  0  0  0  0  0  0  0
   -8.3320    6.5510    1.1063 C   0  0  0  0  0  0  0  0  0  0  0  0
   -9.0502    6.7777   -0.0759 C   0  0  0  0  0  0  0  0  0  0  0  0
   -8.5743    6.2128   -1.2696 C   0  0  0  0  0  0  0  0  0  0  0  0
   -7.4093    5.4517   -1.2917 C   0  0  0  0  0  0  0  0  0  0  0  0
   -6.7113    5.2545   -0.0987 C   0  0  0  0  0  0  0  0  0  0  0  0
   -6.6132    5.6055    2.0215 H   0  0  0  0  0  0  0  0  0  0  0  0
   -8.6943    6.9704    2.0404 H   0  0  0  0  0  0  0  0  0  0  0  0
   -9.1268    6.3679   -2.1925 H   0  0  0  0  0  0  0  0  0  0  0  0
   -7.0491    5.0036   -2.2109 H   0  0  0  0  0  0  0  0  0  0  0  0
   -5.2223    4.2808   -0.1131 S   0  0  0  0  0  0  0  0  0  0  0  0
   -4.9396    3.7944    1.2360 O   0  0  0  0  0  0  0  0  0  0  0  0
   -4.1711    5.4901   -0.4774 O   0  0  0  0  0  0  0  0  0  0  0  0
   -5.2486    3.3410   -1.2340 O   0  0  0  0  0  0  0  0  0  0  0  0
  -10.2994    7.6254   -0.0734 C   0  0  0  0  0  0  0  0  0  0  0  0
  -11.0635    7.2125   -0.7390 H   0  0  0  0  0  0  0  0  0  0  0  0
  -10.7266    7.7069    0.9295 H   0  0  0  0  0  0  0  0  0  0  0  0
  -10.0812    8.6423   -0.4222 H   0  0  0  0  0  0  0  0  0  0  0  0
  1  8  1  0  0  0  0
  1  2  1  0  0  0  0
  2  3  1  0  0  0  0
  4  1  2  0  0  0  0
  5  6  2  0  0  0  0
  5  4  1  0  0  0  0
  6  7  1  0  0  0  0
  7 12  1  0  0  0  0
  7  8  2  0  0  0  0
  8 13  1  0  0  0  0
  9 26  1  0  0  0  0
 10  5  1  0  0  0  0
 11  6  1  0  0  0  0
 14 15  1  0  0  0  0
 14 20  1  0  0  0  0
 15 21  1  0  0  0  0
 16 28  1  0  0  0  0
 16 15  2  0  0  0  0
 17 16  1  0  0  0  0
 18 17  2  0  0  0  0
 18 19  1  0  0  0  0
 19 14  2  0  0  0  0
 22 17  1  0  0  0  0
 23 18  1  0  0  0  0
 24 19  1  0  0  0  0
 24 25  2  0  0  0  0
 26 24  1  0  0  0  0
 27 24  2  0  0  0  0
 28 30  1  0  0  0  0
 29 28  1  0  0  0  0
 31 28  1  0  0  0  0
M  RAD  3   2   2   3   3   4   2
M  END
