Coordinates from ORCA-job PhN2+~TsO-_B3LYPG-6-31G_dp-CH-Scan-d09-49-n800
 OpenBabel11261919273D

 31 31  0  0  0  0  0  0  0  0999 V2000
   -2.2714    0.6250    0.1196 C   0  0  0  0  0  0  0  0  0  0  0  0
   -3.6022    0.3325    0.4002 N   0  0  0  0  0  0  0  0  0  0  0  0
   -4.6796    0.1373    0.6177 N   0  0  0  0  0  0  0  0  0  0  0  0
   -2.0174    1.9672   -0.2168 C   0  0  0  0  0  0  0  0  0  0  0  0
   -0.6375    2.1528   -0.4882 C   0  0  0  0  0  0  0  0  0  0  0  0
    0.3076    1.1324   -0.4230 C   0  0  0  0  0  0  0  0  0  0  0  0
   -0.0535   -0.1880   -0.0714 C   0  0  0  0  0  0  0  0  0  0  0  0
   -1.3723   -0.4703    0.2107 C   0  0  0  0  0  0  0  0  0  0  0  0
   -3.4897    3.5401   -0.3122 H   0  0  0  0  0  0  0  0  0  0  0  0
   -0.2896    3.1467   -0.7660 H   0  0  0  0  0  0  0  0  0  0  0  0
    1.3510    1.3451   -0.6473 H   0  0  0  0  0  0  0  0  0  0  0  0
    0.6963   -0.9708   -0.0239 H   0  0  0  0  0  0  0  0  0  0  0  0
   -1.7060   -1.4664    0.4870 H   0  0  0  0  0  0  0  0  0  0  0  0
   -7.0703    5.4356    1.1271 C   0  0  0  0  0  0  0  0  0  0  0  0
   -7.9785    6.4910    1.0666 C   0  0  0  0  0  0  0  0  0  0  0  0
   -8.5742    6.8665   -0.1454 C   0  0  0  0  0  0  0  0  0  0  0  0
   -8.2464    6.1471   -1.3049 C   0  0  0  0  0  0  0  0  0  0  0  0
   -7.3424    5.0890   -1.2642 C   0  0  0  0  0  0  0  0  0  0  0  0
   -6.7568    4.7473   -0.0442 C   0  0  0  0  0  0  0  0  0  0  0  0
   -6.6183    5.1352    2.0656 H   0  0  0  0  0  0  0  0  0  0  0  0
   -8.2329    7.0286    1.9759 H   0  0  0  0  0  0  0  0  0  0  0  0
   -8.7101    6.4162   -2.2503 H   0  0  0  0  0  0  0  0  0  0  0  0
   -7.1001    4.5227   -2.1568 H   0  0  0  0  0  0  0  0  0  0  0  0
   -5.6004    3.3931    0.0210 S   0  0  0  0  0  0  0  0  0  0  0  0
   -5.5265    2.8836    1.3963 O   0  0  0  0  0  0  0  0  0  0  0  0
   -4.2497    4.1965   -0.3288 O   0  0  0  0  0  0  0  0  0  0  0  0
   -5.9001    2.4424   -1.0555 O   0  0  0  0  0  0  0  0  0  0  0  0
   -9.5345    8.0295   -0.2087 C   0  0  0  0  0  0  0  0  0  0  0  0
  -10.3553    7.8338   -0.9054 H   0  0  0  0  0  0  0  0  0  0  0  0
   -9.9643    8.2488    0.7721 H   0  0  0  0  0  0  0  0  0  0  0  0
   -9.0264    8.9383   -0.5547 H   0  0  0  0  0  0  0  0  0  0  0  0
  1  8  1  0  0  0  0
  1  2  1  0  0  0  0
  2  3  1  0  0  0  0
  4  1  2  0  0  0  0
  5  6  2  0  0  0  0
  5  4  1  0  0  0  0
  6  7  1  0  0  0  0
  7 12  1  0  0  0  0
  7  8  2  0  0  0  0
  8 13  1  0  0  0  0
 10  5  1  0  0  0  0
 11  6  1  0  0  0  0
 14 20  1  0  0  0  0
 15 14  1  0  0  0  0
 15 21  1  0  0  0  0
 16 15  2  0  0  0  0
 17 18  2  0  0  0  0
 17 16  1  0  0  0  0
 18 19  1  0  0  0  0
 19 24  1  0  0  0  0
 19 14  2  0  0  0  0
 22 17  1  0  0  0  0
 23 18  1  0  0  0  0
 24 25  2  0  0  0  0
 26  9  1  0  0  0  0
 26 24  1  0  0  0  0
 27 24  2  0  0  0  0
 28 16  1  0  0  0  0
 28 30  1  0  0  0  0
 29 28  1  0  0  0  0
 31 28  1  0  0  0  0
M  RAD  3   2   2   3   3   4   2
M  END
