Coordinates from ORCA-job PhN2+~TsO-_B3LYPG-6-31G_dp-CH-Scan-d09-49-n800
 OpenBabel11261919273D

 31 31  0  0  0  0  0  0  0  0999 V2000
   -1.9350    0.4811    0.0927 C   0  0  0  0  0  0  0  0  0  0  0  0
   -3.3048    0.6349    0.3158 N   0  0  0  0  0  0  0  0  0  0  0  0
   -4.3967    0.8072    0.4834 N   0  0  0  0  0  0  0  0  0  0  0  0
   -1.2977    1.6785   -0.2671 C   0  0  0  0  0  0  0  0  0  0  0  0
    0.0886    1.4211   -0.4776 C   0  0  0  0  0  0  0  0  0  0  0  0
    0.6799    0.1691   -0.3405 C   0  0  0  0  0  0  0  0  0  0  0  0
   -0.0737   -0.9716    0.0315 C   0  0  0  0  0  0  0  0  0  0  0  0
   -1.4245   -0.8352    0.2606 C   0  0  0  0  0  0  0  0  0  0  0  0
   -3.3043    5.0525   -0.6451 H   0  0  0  0  0  0  0  0  0  0  0  0
    0.7368    2.2502   -0.7663 H   0  0  0  0  0  0  0  0  0  0  0  0
    1.7471    0.0475   -0.5218 H   0  0  0  0  0  0  0  0  0  0  0  0
    0.4069   -1.9393    0.1350 H   0  0  0  0  0  0  0  0  0  0  0  0
   -2.0541   -1.6729    0.5491 H   0  0  0  0  0  0  0  0  0  0  0  0
   -7.1625    5.7860    1.1068 C   0  0  0  0  0  0  0  0  0  0  0  0
   -8.3261    6.5530    1.1047 C   0  0  0  0  0  0  0  0  0  0  0  0
   -9.0417    6.7822   -0.0786 C   0  0  0  0  0  0  0  0  0  0  0  0
   -8.5688    6.2114   -1.2707 C   0  0  0  0  0  0  0  0  0  0  0  0
   -7.4092    5.4421   -1.2901 C   0  0  0  0  0  0  0  0  0  0  0  0
   -6.7134    5.2427   -0.0962 C   0  0  0  0  0  0  0  0  0  0  0  0
   -6.6147    5.5974    2.0234 H   0  0  0  0  0  0  0  0  0  0  0  0
   -8.6863    6.9769    2.0377 H   0  0  0  0  0  0  0  0  0  0  0  0
   -9.1195    6.3683   -2.1943 H   0  0  0  0  0  0  0  0  0  0  0  0
   -7.0512    4.9896   -2.2081 H   0  0  0  0  0  0  0  0  0  0  0  0
   -5.2312    4.2588   -0.1074 S   0  0  0  0  0  0  0  0  0  0  0  0
   -4.9538    3.7715    1.2427 O   0  0  0  0  0  0  0  0  0  0  0  0
   -4.1714    5.4603   -0.4707 O   0  0  0  0  0  0  0  0  0  0  0  0
   -5.2628    3.3179   -1.2272 O   0  0  0  0  0  0  0  0  0  0  0  0
  -10.2848    7.6387   -0.0789 C   0  0  0  0  0  0  0  0  0  0  0  0
  -11.0507    7.2311   -0.7459 H   0  0  0  0  0  0  0  0  0  0  0  0
  -10.7134    7.7240    0.9231 H   0  0  0  0  0  0  0  0  0  0  0  0
  -10.0587    8.6539   -0.4279 H   0  0  0  0  0  0  0  0  0  0  0  0
  1  8  1  0  0  0  0
  1  2  1  0  0  0  0
  2  3  1  0  0  0  0
  4  1  2  0  0  0  0
  5  6  2  0  0  0  0
  5  4  1  0  0  0  0
  6  7  1  0  0  0  0
  7 12  1  0  0  0  0
  7  8  2  0  0  0  0
  8 13  1  0  0  0  0
  9 26  1  0  0  0  0
 10  5  1  0  0  0  0
 11  6  1  0  0  0  0
 14 20  1  0  0  0  0
 15 14  1  0  0  0  0
 15 21  1  0  0  0  0
 16 15  2  0  0  0  0
 17 16  1  0  0  0  0
 18 17  2  0  0  0  0
 18 19  1  0  0  0  0
 19 14  2  0  0  0  0
 22 17  1  0  0  0  0
 23 18  1  0  0  0  0
 24 19  1  0  0  0  0
 24 25  2  0  0  0  0
 26 24  1  0  0  0  0
 27 24  2  0  0  0  0
 28 16  1  0  0  0  0
 28 30  1  0  0  0  0
 29 28  1  0  0  0  0
 31 28  1  0  0  0  0
M  RAD  3   2   2   3   3   4   2
M  END
