Coordinates from ORCA-job PhN2+~TsO-_B3LYPG-6-31G_dp-CH-Scan-d09-49-n800
 OpenBabel11261919273D

 31 31  0  0  0  0  0  0  0  0999 V2000
   -2.0684    0.5218    0.0895 C   0  0  0  0  0  0  0  0  0  0  0  0
   -3.4413    0.4433    0.3171 N   0  0  0  0  0  0  0  0  0  0  0  0
   -4.5450    0.4228    0.4897 N   0  0  0  0  0  0  0  0  0  0  0  0
   -1.6223    1.8083   -0.2559 C   0  0  0  0  0  0  0  0  0  0  0  0
   -0.2160    1.7812   -0.4714 C   0  0  0  0  0  0  0  0  0  0  0  0
    0.5676    0.6374   -0.3507 C   0  0  0  0  0  0  0  0  0  0  0  0
    0.0059   -0.6120    0.0067 C   0  0  0  0  0  0  0  0  0  0  0  0
   -1.3492   -0.6953    0.2380 C   0  0  0  0  0  0  0  0  0  0  0  0
   -3.4060    4.2760   -0.4754 H   0  0  0  0  0  0  0  0  0  0  0  0
    0.2885    2.7071   -0.7500 H   0  0  0  0  0  0  0  0  0  0  0  0
    1.6397    0.6909   -0.5340 H   0  0  0  0  0  0  0  0  0  0  0  0
    0.6337   -1.4926    0.0975 H   0  0  0  0  0  0  0  0  0  0  0  0
   -1.8352   -1.6266    0.5160 H   0  0  0  0  0  0  0  0  0  0  0  0
   -7.1238    5.6354    1.1052 C   0  0  0  0  0  0  0  0  0  0  0  0
   -8.1583    6.5684    1.0821 C   0  0  0  0  0  0  0  0  0  0  0  0
   -8.8413    6.8652   -0.1059 C   0  0  0  0  0  0  0  0  0  0  0  0
   -8.4701    6.1916   -1.2798 C   0  0  0  0  0  0  0  0  0  0  0  0
   -7.4397    5.2554   -1.2777 C   0  0  0  0  0  0  0  0  0  0  0  0
   -6.7717    4.9917   -0.0809 C   0  0  0  0  0  0  0  0  0  0  0  0
   -6.6031    5.3954    2.0255 H   0  0  0  0  0  0  0  0  0  0  0  0
   -8.4435    7.0709    2.0021 H   0  0  0  0  0  0  0  0  0  0  0  0
   -8.9987    6.4002   -2.2062 H   0  0  0  0  0  0  0  0  0  0  0  0
   -7.1613    4.7244   -2.1813 H   0  0  0  0  0  0  0  0  0  0  0  0
   -5.4546    3.7942   -0.0638 S   0  0  0  0  0  0  0  0  0  0  0  0
   -5.2643    3.2908    1.2977 O   0  0  0  0  0  0  0  0  0  0  0  0
   -4.2267    4.8053   -0.4363 O   0  0  0  0  0  0  0  0  0  0  0  0
   -5.6382    2.8418   -1.1600 O   0  0  0  0  0  0  0  0  0  0  0  0
   -9.9393    7.9005   -0.1289 C   0  0  0  0  0  0  0  0  0  0  0  0
  -10.7384    7.6207   -0.8218 H   0  0  0  0  0  0  0  0  0  0  0  0
  -10.3790    8.0415    0.8620 H   0  0  0  0  0  0  0  0  0  0  0  0
   -9.5517    8.8729   -0.4569 H   0  0  0  0  0  0  0  0  0  0  0  0
  1  8  1  0  0  0  0
  1  2  1  0  0  0  0
  2  3  1  0  0  0  0
  4  1  2  0  0  0  0
  5  6  2  0  0  0  0
  5  4  1  0  0  0  0
  6  7  1  0  0  0  0
  7 12  1  0  0  0  0
  7  8  2  0  0  0  0
  8 13  1  0  0  0  0
  9 26  1  0  0  0  0
 10  5  1  0  0  0  0
 11  6  1  0  0  0  0
 14 20  1  0  0  0  0
 15 14  1  0  0  0  0
 15 21  1  0  0  0  0
 16 15  2  0  0  0  0
 17 18  2  0  0  0  0
 17 16  1  0  0  0  0
 18 19  1  0  0  0  0
 19 24  1  0  0  0  0
 19 14  2  0  0  0  0
 22 17  1  0  0  0  0
 23 18  1  0  0  0  0
 24 25  2  0  0  0  0
 26 24  1  0  0  0  0
 27 24  2  0  0  0  0
 28 16  1  0  0  0  0
 28 30  1  0  0  0  0
 29 28  1  0  0  0  0
 31 28  1  0  0  0  0
M  RAD  3   2   2   3   3   4   2
M  END
