Coordinates from ORCA-job PhN2+~TsO-_B3LYPG-6-31G_dp-CH-Scan-d09-49-n800
 OpenBabel11261919273D

 31 31  0  0  0  0  0  0  0  0999 V2000
   -2.0316    0.5070    0.0909 C   0  0  0  0  0  0  0  0  0  0  0  0
   -3.4071    0.4825    0.3186 N   0  0  0  0  0  0  0  0  0  0  0  0
   -4.5111    0.5061    0.4908 N   0  0  0  0  0  0  0  0  0  0  0  0
   -1.5409    1.7753   -0.2599 C   0  0  0  0  0  0  0  0  0  0  0  0
   -0.1361    1.6935   -0.4772 C   0  0  0  0  0  0  0  0  0  0  0  0
    0.6045    0.5219   -0.3531 C   0  0  0  0  0  0  0  0  0  0  0  0
   -0.0027   -0.7046    0.0107 C   0  0  0  0  0  0  0  0  0  0  0  0
   -1.3595   -0.7363    0.2444 C   0  0  0  0  0  0  0  0  0  0  0  0
   -3.3764    4.4621   -0.5023 H   0  0  0  0  0  0  0  0  0  0  0  0
    0.4030    2.5986   -0.7603 H   0  0  0  0  0  0  0  0  0  0  0  0
    1.6775    0.5343   -0.5384 H   0  0  0  0  0  0  0  0  0  0  0  0
    0.5923   -1.6075    0.1043 H   0  0  0  0  0  0  0  0  0  0  0  0
   -1.8798   -1.6476    0.5270 H   0  0  0  0  0  0  0  0  0  0  0  0
   -7.1383    5.6755    1.1065 C   0  0  0  0  0  0  0  0  0  0  0  0
   -8.2048    6.5720    1.0869 C   0  0  0  0  0  0  0  0  0  0  0  0
   -8.8954    6.8519   -0.1007 C   0  0  0  0  0  0  0  0  0  0  0  0
   -8.4986    6.1990   -1.2780 C   0  0  0  0  0  0  0  0  0  0  0  0
   -7.4362    5.2995   -1.2795 C   0  0  0  0  0  0  0  0  0  0  0  0
   -6.7618    5.0520   -0.0827 C   0  0  0  0  0  0  0  0  0  0  0  0
   -6.6113    5.4483    2.0265 H   0  0  0  0  0  0  0  0  0  0  0  0
   -8.5088    7.0587    2.0092 H   0  0  0  0  0  0  0  0  0  0  0  0
   -9.0325    6.3947   -2.2042 H   0  0  0  0  0  0  0  0  0  0  0  0
   -7.1378    4.7843   -2.1857 H   0  0  0  0  0  0  0  0  0  0  0  0
   -5.4039    3.9014   -0.0704 S   0  0  0  0  0  0  0  0  0  0  0  0
   -5.1952    3.3997    1.2884 O   0  0  0  0  0  0  0  0  0  0  0  0
   -4.2122    4.9614   -0.4374 O   0  0  0  0  0  0  0  0  0  0  0  0
   -5.5495    2.9507   -1.1733 O   0  0  0  0  0  0  0  0  0  0  0  0
  -10.0294    7.8479   -0.1202 C   0  0  0  0  0  0  0  0  0  0  0  0
  -10.8226    7.5372   -0.8068 H   0  0  0  0  0  0  0  0  0  0  0  0
  -10.4673    7.9772    0.8731 H   0  0  0  0  0  0  0  0  0  0  0  0
   -9.6784    8.8319   -0.4547 H   0  0  0  0  0  0  0  0  0  0  0  0
  1  8  1  0  0  0  0
  1  2  1  0  0  0  0
  2  3  1  0  0  0  0
  4  1  2  0  0  0  0
  5  6  2  0  0  0  0
  5  4  1  0  0  0  0
  6  7  1  0  0  0  0
  7 12  1  0  0  0  0
  7  8  2  0  0  0  0
  8 13  1  0  0  0  0
  9 26  1  0  0  0  0
 10  5  1  0  0  0  0
 11  6  1  0  0  0  0
 14 20  1  0  0  0  0
 15 14  1  0  0  0  0
 15 21  1  0  0  0  0
 16 15  2  0  0  0  0
 17 16  1  0  0  0  0
 18 17  2  0  0  0  0
 18 19  1  0  0  0  0
 19 24  1  0  0  0  0
 19 14  2  0  0  0  0
 22 17  1  0  0  0  0
 23 18  1  0  0  0  0
 24 25  2  0  0  0  0
 26 24  1  0  0  0  0
 27 24  2  0  0  0  0
 28 16  1  0  0  0  0
 28 30  1  0  0  0  0
 29 28  1  0  0  0  0
 31 28  1  0  0  0  0
M  RAD  3   2   2   3   3   4   2
M  END
