Coordinates from ORCA-job PhN2+~TsO-_B3LYPG-6-31G_dp-CH-Scan-d09-49-n800
 OpenBabel11261919283D

 31 31  0  0  0  0  0  0  0  0999 V2000
   -1.8546    0.4686    0.0399 C   0  0  0  0  0  0  0  0  0  0  0  0
   -3.2155    0.7538    0.1737 N   0  0  0  0  0  0  0  0  0  0  0  0
   -4.2951    1.0297    0.2682 N   0  0  0  0  0  0  0  0  0  0  0  0
   -1.0928    1.5914   -0.3169 C   0  0  0  0  0  0  0  0  0  0  0  0
    0.2757    1.2044   -0.4287 C   0  0  0  0  0  0  0  0  0  0  0  0
    0.7419   -0.0885   -0.2131 C   0  0  0  0  0  0  0  0  0  0  0  0
   -0.1332   -1.1444    0.1445 C   0  0  0  0  0  0  0  0  0  0  0  0
   -1.4778   -0.8814    0.2812 C   0  0  0  0  0  0  0  0  0  0  0  0
   -3.3156    5.4630   -0.8785 H   0  0  0  0  0  0  0  0  0  0  0  0
    1.0127    1.9620   -0.7007 H   0  0  0  0  0  0  0  0  0  0  0  0
    1.8032   -0.3102   -0.3193 H   0  0  0  0  0  0  0  0  0  0  0  0
    0.2512   -2.1459    0.3094 H   0  0  0  0  0  0  0  0  0  0  0  0
   -2.1972   -1.6493    0.5540 H   0  0  0  0  0  0  0  0  0  0  0  0
   -7.1493    5.8552    1.0804 C   0  0  0  0  0  0  0  0  0  0  0  0
   -8.3708    6.5249    1.1303 C   0  0  0  0  0  0  0  0  0  0  0  0
   -9.1344    6.7282   -0.0272 C   0  0  0  0  0  0  0  0  0  0  0  0
   -8.6484    6.2332   -1.2480 C   0  0  0  0  0  0  0  0  0  0  0  0
   -7.4314    5.5624   -1.3196 C   0  0  0  0  0  0  0  0  0  0  0  0
   -6.6904    5.3852   -0.1493 C   0  0  0  0  0  0  0  0  0  0  0  0
   -6.5639    5.6855    1.9773 H   0  0  0  0  0  0  0  0  0  0  0  0
   -8.7387    6.8914    2.0842 H   0  0  0  0  0  0  0  0  0  0  0  0
   -9.2346    6.3713   -2.1526 H   0  0  0  0  0  0  0  0  0  0  0  0
   -7.0631    5.1672   -2.2596 H   0  0  0  0  0  0  0  0  0  0  0  0
   -5.1366    4.5224   -0.2258 S   0  0  0  0  0  0  0  0  0  0  0  0
   -4.7848    4.0288    1.1035 O   0  0  0  0  0  0  0  0  0  0  0  0
   -4.1786    5.8096   -0.5900 O   0  0  0  0  0  0  0  0  0  0  0  0
   -5.1203    3.6122   -1.3714 O   0  0  0  0  0  0  0  0  0  0  0  0
  -10.4459    7.4737    0.0293 C   0  0  0  0  0  0  0  0  0  0  0  0
  -11.2086    6.9850   -0.5847 H   0  0  0  0  0  0  0  0  0  0  0  0
  -10.8239    7.5433    1.0525 H   0  0  0  0  0  0  0  0  0  0  0  0
  -10.3310    8.4960   -0.3509 H   0  0  0  0  0  0  0  0  0  0  0  0
  1  2  1  0  0  0  0
  1  8  2  0  0  0  0
  2  3  1  0  0  0  0
  4  1  1  0  0  0  0
  5  4  2  0  0  0  0
  5  6  1  0  0  0  0
  6  7  2  0  0  0  0
  7  8  1  0  0  0  0
  7 12  1  0  0  0  0
  8 13  1  0  0  0  0
  9 26  1  0  0  0  0
 10  5  1  0  0  0  0
 11  6  1  0  0  0  0
 14 15  1  0  0  0  0
 14 20  1  0  0  0  0
 15 21  1  0  0  0  0
 16 28  1  0  0  0  0
 16 15  2  0  0  0  0
 17 16  1  0  0  0  0
 18 17  2  0  0  0  0
 18 19  1  0  0  0  0
 19 14  2  0  0  0  0
 22 17  1  0  0  0  0
 23 18  1  0  0  0  0
 24 19  1  0  0  0  0
 24 25  2  0  0  0  0
 26 24  1  0  0  0  0
 27 24  2  0  0  0  0
 28 30  1  0  0  0  0
 29 28  1  0  0  0  0
 31 28  1  0  0  0  0
M  RAD  3   2   2   3   3   4   2
M  END
