Coordinates from ORCA-job PhN2+~TsO-_B3LYPG-6-31G_dp-CH-Scan-d09-49-n800
 OpenBabel11261919283D

 31 31  0  0  0  0  0  0  0  0999 V2000
   -1.8294    0.4624    0.0209 C   0  0  0  0  0  0  0  0  0  0  0  0
   -3.1873    0.7736    0.1273 N   0  0  0  0  0  0  0  0  0  0  0  0
   -4.2633    1.0695    0.2015 N   0  0  0  0  0  0  0  0  0  0  0  0
   -1.0415    1.5661   -0.3380 C   0  0  0  0  0  0  0  0  0  0  0  0
    0.3214    1.1529   -0.4214 C   0  0  0  0  0  0  0  0  0  0  0  0
    0.7604   -0.1447   -0.1790 C   0  0  0  0  0  0  0  0  0  0  0  0
   -0.1397   -1.1796    0.1781 C   0  0  0  0  0  0  0  0  0  0  0  0
   -1.4814   -0.8907    0.2877 C   0  0  0  0  0  0  0  0  0  0  0  0
   -3.3262    5.5449   -0.9180 H   0  0  0  0  0  0  0  0  0  0  0  0
    1.0765    1.8933   -0.6914 H   0  0  0  0  0  0  0  0  0  0  0  0
    1.8192   -0.3867   -0.2631 H   0  0  0  0  0  0  0  0  0  0  0  0
    0.2237   -2.1852    0.3639 H   0  0  0  0  0  0  0  0  0  0  0  0
   -2.2192   -1.6417    0.5583 H   0  0  0  0  0  0  0  0  0  0  0  0
   -7.1509    5.8685    1.0742 C   0  0  0  0  0  0  0  0  0  0  0  0
   -8.3816    6.5202    1.1365 C   0  0  0  0  0  0  0  0  0  0  0  0
   -9.1550    6.7215   -0.0147 C   0  0  0  0  0  0  0  0  0  0  0  0
   -8.6693    6.2432   -1.2423 C   0  0  0  0  0  0  0  0  0  0  0  0
   -7.4433    5.5906   -1.3264 C   0  0  0  0  0  0  0  0  0  0  0  0
   -6.6929    5.4147   -0.1618 C   0  0  0  0  0  0  0  0  0  0  0  0
   -6.5578    5.7002    1.9662 H   0  0  0  0  0  0  0  0  0  0  0  0
   -8.7489    6.8742    2.0954 H   0  0  0  0  0  0  0  0  0  0  0  0
   -9.2626    6.3802   -2.1424 H   0  0  0  0  0  0  0  0  0  0  0  0
   -7.0749    5.2082   -2.2717 H   0  0  0  0  0  0  0  0  0  0  0  0
   -5.1276    4.5748   -0.2544 S   0  0  0  0  0  0  0  0  0  0  0  0
   -4.7613    4.0750    1.0685 O   0  0  0  0  0  0  0  0  0  0  0  0
   -4.1887    5.8782   -0.6131 O   0  0  0  0  0  0  0  0  0  0  0  0
   -5.1040    3.6754   -1.4084 O   0  0  0  0  0  0  0  0  0  0  0  0
  -10.4776    7.4460    0.0552 C   0  0  0  0  0  0  0  0  0  0  0  0
  -11.2430    6.9353   -0.5374 H   0  0  0  0  0  0  0  0  0  0  0  0
  -10.8382    7.5242    1.0841 H   0  0  0  0  0  0  0  0  0  0  0  0
  -10.3872    8.4640   -0.3423 H   0  0  0  0  0  0  0  0  0  0  0  0
  1  2  1  0  0  0  0
  1  8  2  0  0  0  0
  2  3  1  0  0  0  0
  4  1  1  0  0  0  0
  5  4  2  0  0  0  0
  5  6  1  0  0  0  0
  6  7  2  0  0  0  0
  7  8  1  0  0  0  0
  7 12  1  0  0  0  0
  8 13  1  0  0  0  0
  9 26  1  0  0  0  0
 10  5  1  0  0  0  0
 11  6  1  0  0  0  0
 14 15  1  0  0  0  0
 14 20  1  0  0  0  0
 15 21  1  0  0  0  0
 16 28  1  0  0  0  0
 16 15  2  0  0  0  0
 17 16  1  0  0  0  0
 18 17  2  0  0  0  0
 18 19  1  0  0  0  0
 19 14  2  0  0  0  0
 22 17  1  0  0  0  0
 23 18  1  0  0  0  0
 24 19  1  0  0  0  0
 24 25  2  0  0  0  0
 26 24  1  0  0  0  0
 27 24  2  0  0  0  0
 28 30  1  0  0  0  0
 29 28  1  0  0  0  0
 31 28  1  0  0  0  0
M  RAD  3   2   2   3   3   4   2
M  END
