Coordinates from ORCA-job PhN2+~TsO-_B3LYPG-6-31G_dp-CH-Scan-d09-49-n800
 OpenBabel11261919273D

 31 31  0  0  0  0  0  0  0  0999 V2000
   -2.2792    0.6291    0.1218 C   0  0  0  0  0  0  0  0  0  0  0  0
   -3.6079    0.3299    0.4046 N   0  0  0  0  0  0  0  0  0  0  0  0
   -4.6840    0.1293    0.6240 N   0  0  0  0  0  0  0  0  0  0  0  0
   -2.0316    1.9722   -0.2156 C   0  0  0  0  0  0  0  0  0  0  0  0
   -0.6533    2.1645   -0.4893 C   0  0  0  0  0  0  0  0  0  0  0  0
    0.2968    1.1487   -0.4253 C   0  0  0  0  0  0  0  0  0  0  0  0
   -0.0575   -0.1732   -0.0726 C   0  0  0  0  0  0  0  0  0  0  0  0
   -1.3745   -0.4617    0.2117 C   0  0  0  0  0  0  0  0  0  0  0  0
   -3.4903    3.5167   -0.3088 H   0  0  0  0  0  0  0  0  0  0  0  0
   -0.3109    3.1601   -0.7680 H   0  0  0  0  0  0  0  0  0  0  0  0
    1.3388    1.3664   -0.6513 H   0  0  0  0  0  0  0  0  0  0  0  0
    0.6962   -0.9524   -0.0260 H   0  0  0  0  0  0  0  0  0  0  0  0
   -1.7028   -1.4592    0.4890 H   0  0  0  0  0  0  0  0  0  0  0  0
   -7.0674    5.4282    1.1269 C   0  0  0  0  0  0  0  0  0  0  0  0
   -7.9718    6.4868    1.0662 C   0  0  0  0  0  0  0  0  0  0  0  0
   -8.5648    6.8654   -0.1461 C   0  0  0  0  0  0  0  0  0  0  0  0
   -8.2381    6.1458   -1.3059 C   0  0  0  0  0  0  0  0  0  0  0  0
   -7.3379    5.0845   -1.2649 C   0  0  0  0  0  0  0  0  0  0  0  0
   -6.7550    4.7397   -0.0445 C   0  0  0  0  0  0  0  0  0  0  0  0
   -6.6176    5.1254    2.0657 H   0  0  0  0  0  0  0  0  0  0  0  0
   -8.2254    7.0246    1.9757 H   0  0  0  0  0  0  0  0  0  0  0  0
   -8.6998    6.4172   -2.2515 H   0  0  0  0  0  0  0  0  0  0  0  0
   -7.0967    4.5179   -2.1576 H   0  0  0  0  0  0  0  0  0  0  0  0
   -5.6034    3.3812    0.0210 S   0  0  0  0  0  0  0  0  0  0  0  0
   -5.5335    2.8705    1.3963 O   0  0  0  0  0  0  0  0  0  0  0  0
   -4.2496    4.1774   -0.3271 O   0  0  0  0  0  0  0  0  0  0  0  0
   -5.9071    2.4315   -1.0556 O   0  0  0  0  0  0  0  0  0  0  0  0
   -9.5211    8.0318   -0.2097 C   0  0  0  0  0  0  0  0  0  0  0  0
  -10.3430    7.8384   -0.9058 H   0  0  0  0  0  0  0  0  0  0  0  0
   -9.9495    8.2532    0.7713 H   0  0  0  0  0  0  0  0  0  0  0  0
   -9.0101    8.9385   -0.5567 H   0  0  0  0  0  0  0  0  0  0  0  0
  1  8  1  0  0  0  0
  1  2  1  0  0  0  0
  2  3  1  0  0  0  0
  4  1  2  0  0  0  0
  5  6  2  0  0  0  0
  5  4  1  0  0  0  0
  6  7  1  0  0  0  0
  7 12  1  0  0  0  0
  7  8  2  0  0  0  0
  8 13  1  0  0  0  0
 10  5  1  0  0  0  0
 11  6  1  0  0  0  0
 14 20  1  0  0  0  0
 15 14  1  0  0  0  0
 15 21  1  0  0  0  0
 16 15  2  0  0  0  0
 17 18  2  0  0  0  0
 17 16  1  0  0  0  0
 18 19  1  0  0  0  0
 19 24  1  0  0  0  0
 19 14  2  0  0  0  0
 22 17  1  0  0  0  0
 23 18  1  0  0  0  0
 24 25  2  0  0  0  0
 26  9  1  0  0  0  0
 26 24  1  0  0  0  0
 27 24  2  0  0  0  0
 28 16  1  0  0  0  0
 28 30  1  0  0  0  0
 29 28  1  0  0  0  0
 31 28  1  0  0  0  0
M  RAD  3   2   2   3   3   4   2
M  END
