Coordinates from ORCA-job PhN2+~TsO-_B3LYPG-6-31G_dp-CH-Scan-d09-49-n800
 OpenBabel11261919273D

 31 31  0  0  0  0  0  0  0  0999 V2000
   -2.4629    0.7673    0.0913 C   0  0  0  0  0  0  0  0  0  0  0  0
   -3.8034    0.5238    0.3617 N   0  0  0  0  0  0  0  0  0  0  0  0
   -4.9041    0.4683    0.5445 N   0  0  0  0  0  0  0  0  0  0  0  0
   -2.0934    2.0858   -0.2223 C   0  0  0  0  0  0  0  0  0  0  0  0
   -0.7344    2.2707   -0.4905 C   0  0  0  0  0  0  0  0  0  0  0  0
    0.1707    1.2086   -0.4441 C   0  0  0  0  0  0  0  0  0  0  0  0
   -0.2503   -0.0925   -0.1226 C   0  0  0  0  0  0  0  0  0  0  0  0
   -1.5855   -0.3336    0.1528 C   0  0  0  0  0  0  0  0  0  0  0  0
   -2.9891    3.0625   -0.2506 H   0  0  0  0  0  0  0  0  0  0  0  0
   -0.3822    3.2666   -0.7414 H   0  0  0  0  0  0  0  0  0  0  0  0
    1.2203    1.3871   -0.6605 H   0  0  0  0  0  0  0  0  0  0  0  0
    0.4635   -0.9084   -0.0891 H   0  0  0  0  0  0  0  0  0  0  0  0
   -1.9505   -1.3232    0.4057 H   0  0  0  0  0  0  0  0  0  0  0  0
   -7.0140    5.3930    1.1583 C   0  0  0  0  0  0  0  0  0  0  0  0
   -7.9560    6.4188    1.0741 C   0  0  0  0  0  0  0  0  0  0  0  0
   -8.5212    6.7848   -0.1538 C   0  0  0  0  0  0  0  0  0  0  0  0
   -8.1251    6.0861   -1.3049 C   0  0  0  0  0  0  0  0  0  0  0  0
   -7.1868    5.0599   -1.2368 C   0  0  0  0  0  0  0  0  0  0  0  0
   -6.6311    4.7214   -0.0011 C   0  0  0  0  0  0  0  0  0  0  0  0
   -6.5869    5.0981    2.1103 H   0  0  0  0  0  0  0  0  0  0  0  0
   -8.2609    6.9399    1.9780 H   0  0  0  0  0  0  0  0  0  0  0  0
   -8.5632    6.3465   -2.2654 H   0  0  0  0  0  0  0  0  0  0  0  0
   -6.8950    4.5088   -2.1243 H   0  0  0  0  0  0  0  0  0  0  0  0
   -5.3943    3.4290    0.0900 S   0  0  0  0  0  0  0  0  0  0  0  0
   -5.3996    2.9029    1.4818 O   0  0  0  0  0  0  0  0  0  0  0  0
   -4.0824    4.1149   -0.2493 O   0  0  0  0  0  0  0  0  0  0  0  0
   -5.7478    2.4032   -0.9331 O   0  0  0  0  0  0  0  0  0  0  0  0
   -9.5250    7.9098   -0.2451 C   0  0  0  0  0  0  0  0  0  0  0  0
  -10.3851    7.6303   -0.8627 H   0  0  0  0  0  0  0  0  0  0  0  0
   -9.8967    8.1956    0.7423 H   0  0  0  0  0  0  0  0  0  0  0  0
   -9.0793    8.8026   -0.7008 H   0  0  0  0  0  0  0  0  0  0  0  0
  1  8  1  0  0  0  0
  1  2  1  0  0  0  0
  2  3  1  0  0  0  0
  4  1  2  0  0  0  0
  5  6  2  0  0  0  0
  5  4  1  0  0  0  0
  6  7  1  0  0  0  0
  7 12  1  0  0  0  0
  7  8  2  0  0  0  0
  8 13  1  0  0  0  0
  9  4  1  0  0  0  0
 10  5  1  0  0  0  0
 11  6  1  0  0  0  0
 14 20  1  0  0  0  0
 15 14  1  0  0  0  0
 15 21  1  0  0  0  0
 16 15  2  0  0  0  0
 17 18  2  0  0  0  0
 17 16  1  0  0  0  0
 18 19  1  0  0  0  0
 19 24  1  0  0  0  0
 19 14  2  0  0  0  0
 22 17  1  0  0  0  0
 23 18  1  0  0  0  0
 24 25  1  0  0  0  0
 26 24  2  0  0  0  0
 27 24  2  0  0  0  0
 28 16  1  0  0  0  0
 28 30  1  0  0  0  0
 29 28  1  0  0  0  0
 31 28  1  0  0  0  0
M  RAD  3   2   2   3   3  25   2
M  END
