Coordinates from ORCA-job PhN2+~TsO-_B3LYPG-6-31G_dp-CH-Scan-d09-49-n800
 OpenBabel11261919273D

 31 31  0  0  0  0  0  0  0  0999 V2000
   -2.1202    0.5465    0.0951 C   0  0  0  0  0  0  0  0  0  0  0  0
   -3.4845    0.4000    0.3350 N   0  0  0  0  0  0  0  0  0  0  0  0
   -4.5834    0.3227    0.5203 N   0  0  0  0  0  0  0  0  0  0  0  0
   -1.7327    1.8543   -0.2431 C   0  0  0  0  0  0  0  0  0  0  0  0
   -0.3299    1.8951   -0.4704 C   0  0  0  0  0  0  0  0  0  0  0  0
    0.5063    0.7873   -0.3657 C   0  0  0  0  0  0  0  0  0  0  0  0
    0.0051   -0.4888   -0.0150 C   0  0  0  0  0  0  0  0  0  0  0  0
   -1.3429   -0.6360    0.2264 C   0  0  0  0  0  0  0  0  0  0  0  0
   -3.4424    4.0416   -0.4270 H   0  0  0  0  0  0  0  0  0  0  0  0
    0.1281    2.8455   -0.7452 H   0  0  0  0  0  0  0  0  0  0  0  0
    1.5730    0.8918   -0.5569 H   0  0  0  0  0  0  0  0  0  0  0  0
    0.6726   -1.3409    0.0630 H   0  0  0  0  0  0  0  0  0  0  0  0
   -1.7832   -1.5909    0.4999 H   0  0  0  0  0  0  0  0  0  0  0  0
   -7.1108    5.5786    1.1099 C   0  0  0  0  0  0  0  0  0  0  0  0
   -8.1043    6.5549    1.0762 C   0  0  0  0  0  0  0  0  0  0  0  0
   -8.7659    6.8757   -0.1176 C   0  0  0  0  0  0  0  0  0  0  0  0
   -8.4159    6.1821   -1.2862 C   0  0  0  0  0  0  0  0  0  0  0  0
   -7.4266    5.2025   -1.2732 C   0  0  0  0  0  0  0  0  0  0  0  0
   -6.7784    4.9154   -0.0709 C   0  0  0  0  0  0  0  0  0  0  0  0
   -6.6070    5.3203    2.0346 H   0  0  0  0  0  0  0  0  0  0  0  0
   -8.3740    7.0729    1.9924 H   0  0  0  0  0  0  0  0  0  0  0  0
   -8.9289    6.4091   -2.2170 H   0  0  0  0  0  0  0  0  0  0  0  0
   -7.1653    4.6560   -2.1726 H   0  0  0  0  0  0  0  0  0  0  0  0
   -5.5141    3.6618   -0.0399 S   0  0  0  0  0  0  0  0  0  0  0  0
   -5.3558    3.1571    1.3262 O   0  0  0  0  0  0  0  0  0  0  0  0
   -4.2425    4.6090   -0.4119 O   0  0  0  0  0  0  0  0  0  0  0  0
   -5.7388    2.7081   -1.1283 O   0  0  0  0  0  0  0  0  0  0  0  0
   -9.8186    7.9568   -0.1519 C   0  0  0  0  0  0  0  0  0  0  0  0
  -10.6244    7.7091   -0.8492 H   0  0  0  0  0  0  0  0  0  0  0  0
  -10.2586    8.1202    0.8354 H   0  0  0  0  0  0  0  0  0  0  0  0
   -9.3878    8.9107   -0.4805 H   0  0  0  0  0  0  0  0  0  0  0  0
  1  8  1  0  0  0  0
  1  2  1  0  0  0  0
  2  3  1  0  0  0  0
  4  1  2  0  0  0  0
  5  6  2  0  0  0  0
  5  4  1  0  0  0  0
  6  7  1  0  0  0  0
  7 12  1  0  0  0  0
  7  8  2  0  0  0  0
  8 13  1  0  0  0  0
  9 26  1  0  0  0  0
 10  5  1  0  0  0  0
 11  6  1  0  0  0  0
 14 20  1  0  0  0  0
 15 14  1  0  0  0  0
 15 21  1  0  0  0  0
 16 15  2  0  0  0  0
 17 18  2  0  0  0  0
 17 16  1  0  0  0  0
 18 19  1  0  0  0  0
 19 24  1  0  0  0  0
 19 14  2  0  0  0  0
 22 17  1  0  0  0  0
 23 18  1  0  0  0  0
 24 25  2  0  0  0  0
 26 24  1  0  0  0  0
 27 24  2  0  0  0  0
 28 16  1  0  0  0  0
 28 30  1  0  0  0  0
 29 28  1  0  0  0  0
 31 28  1  0  0  0  0
M  RAD  3   2   2   3   3   4   2
M  END
