Coordinates from ORCA-job PhN2+~TsO-_B3LYPG-6-31G_dp-CH-Scan-d09-49-n800
 OpenBabel11261919273D

 31 31  0  0  0  0  0  0  0  0999 V2000
   -2.0396    0.5114    0.0903 C   0  0  0  0  0  0  0  0  0  0  0  0
   -3.4147    0.4757    0.3191 N   0  0  0  0  0  0  0  0  0  0  0  0
   -4.5189    0.4892    0.4904 N   0  0  0  0  0  0  0  0  0  0  0  0
   -1.5576    1.7831   -0.2603 C   0  0  0  0  0  0  0  0  0  0  0  0
   -0.1524    1.7121   -0.4773 C   0  0  0  0  0  0  0  0  0  0  0  0
    0.5968    0.5459   -0.3535 C   0  0  0  0  0  0  0  0  0  0  0  0
   -0.0015   -0.6851    0.0096 C   0  0  0  0  0  0  0  0  0  0  0  0
   -1.3580   -0.7268    0.2431 C   0  0  0  0  0  0  0  0  0  0  0  0
   -3.3817    4.4236   -0.4943 H   0  0  0  0  0  0  0  0  0  0  0  0
    0.3798    2.6212   -0.7601 H   0  0  0  0  0  0  0  0  0  0  0  0
    1.6697    0.5663   -0.5388 H   0  0  0  0  0  0  0  0  0  0  0  0
    0.6000   -1.5837    0.1031 H   0  0  0  0  0  0  0  0  0  0  0  0
   -1.8716   -1.6420    0.5254 H   0  0  0  0  0  0  0  0  0  0  0  0
   -7.1357    5.6667    1.1066 C   0  0  0  0  0  0  0  0  0  0  0  0
   -8.1955    6.5710    1.0859 C   0  0  0  0  0  0  0  0  0  0  0  0
   -8.8840    6.8545   -0.1020 C   0  0  0  0  0  0  0  0  0  0  0  0
   -8.4921    6.1973   -1.2785 C   0  0  0  0  0  0  0  0  0  0  0  0
   -7.4362    5.2899   -1.2789 C   0  0  0  0  0  0  0  0  0  0  0  0
   -6.7637    5.0389   -0.0818 C   0  0  0  0  0  0  0  0  0  0  0  0
   -6.6103    5.4367    2.0269 H   0  0  0  0  0  0  0  0  0  0  0  0
   -8.4960    7.0610    2.0077 H   0  0  0  0  0  0  0  0  0  0  0  0
   -9.0244    6.3957   -2.2049 H   0  0  0  0  0  0  0  0  0  0  0  0
   -7.1416    4.7714   -2.1845 H   0  0  0  0  0  0  0  0  0  0  0  0
   -5.4142    3.8783   -0.0680 S   0  0  0  0  0  0  0  0  0  0  0  0
   -5.2100    3.3761    1.2915 O   0  0  0  0  0  0  0  0  0  0  0  0
   -4.2149    4.9285   -0.4356 O   0  0  0  0  0  0  0  0  0  0  0  0
   -5.5674    2.9272   -1.1696 O   0  0  0  0  0  0  0  0  0  0  0  0
  -10.0106    7.8589   -0.1227 C   0  0  0  0  0  0  0  0  0  0  0  0
  -10.8048    7.5546   -0.8108 H   0  0  0  0  0  0  0  0  0  0  0  0
  -10.4492    7.9906    0.8700 H   0  0  0  0  0  0  0  0  0  0  0  0
   -9.6517    8.8406   -0.4557 H   0  0  0  0  0  0  0  0  0  0  0  0
  1  8  1  0  0  0  0
  1  2  1  0  0  0  0
  2  3  1  0  0  0  0
  4  1  2  0  0  0  0
  5  6  2  0  0  0  0
  5  4  1  0  0  0  0
  6  7  1  0  0  0  0
  7 12  1  0  0  0  0
  7  8  2  0  0  0  0
  8 13  1  0  0  0  0
  9 26  1  0  0  0  0
 10  5  1  0  0  0  0
 11  6  1  0  0  0  0
 14 20  1  0  0  0  0
 15 14  1  0  0  0  0
 15 21  1  0  0  0  0
 16 15  2  0  0  0  0
 17 16  1  0  0  0  0
 18 17  2  0  0  0  0
 18 19  1  0  0  0  0
 19 24  1  0  0  0  0
 19 14  2  0  0  0  0
 22 17  1  0  0  0  0
 23 18  1  0  0  0  0
 24 25  2  0  0  0  0
 26 24  1  0  0  0  0
 27 24  2  0  0  0  0
 28 16  1  0  0  0  0
 28 30  1  0  0  0  0
 29 28  1  0  0  0  0
 31 28  1  0  0  0  0
M  RAD  3   2   2   3   3   4   2
M  END
