Coordinates from ORCA-job PhN2+~TsO-_B3LYPG-6-31G_dp-CH-Scan-d09-49-n800
 OpenBabel11261919283D

 31 31  0  0  0  0  0  0  0  0999 V2000
   -2.2206    0.4630   -0.8028 C   0  0  0  0  0  0  0  0  0  0  0  0
   -3.4167    0.0486   -1.3980 N   0  0  0  0  0  0  0  0  0  0  0  0
   -4.3242   -0.3230   -1.9345 N   0  0  0  0  0  0  0  0  0  0  0  0
   -1.0987   -0.0274   -1.4850 C   0  0  0  0  0  0  0  0  0  0  0  0
    0.0801    0.4539   -0.8385 C   0  0  0  0  0  0  0  0  0  0  0  0
    0.0733    1.2778    0.2815 C   0  0  0  0  0  0  0  0  0  0  0  0
   -1.1377    1.6943    0.8923 C   0  0  0  0  0  0  0  0  0  0  0  0
   -2.3384    1.2834    0.3530 C   0  0  0  0  0  0  0  0  0  0  0  0
   -3.0995    4.0431    0.0073 H   0  0  0  0  0  0  0  0  0  0  0  0
    1.0520    0.1641   -1.2405 H   0  0  0  0  0  0  0  0  0  0  0  0
    1.0135    1.6121    0.7175 H   0  0  0  0  0  0  0  0  0  0  0  0
   -1.1173    2.3104    1.7864 H   0  0  0  0  0  0  0  0  0  0  0  0
   -3.3021    1.5482    0.7762 H   0  0  0  0  0  0  0  0  0  0  0  0
   -7.2664    4.4252    0.6981 C   0  0  0  0  0  0  0  0  0  0  0  0
   -8.3509    5.2192    1.0586 C   0  0  0  0  0  0  0  0  0  0  0  0
   -8.6418    6.4078    0.3713 C   0  0  0  0  0  0  0  0  0  0  0  0
   -7.8123    6.7876   -0.6934 C   0  0  0  0  0  0  0  0  0  0  0  0
   -6.7198    6.0093   -1.0694 C   0  0  0  0  0  0  0  0  0  0  0  0
   -6.4578    4.8351   -0.3636 C   0  0  0  0  0  0  0  0  0  0  0  0
   -7.0514    3.4998    1.2207 H   0  0  0  0  0  0  0  0  0  0  0  0
   -8.9850    4.9107    1.8856 H   0  0  0  0  0  0  0  0  0  0  0  0
   -8.0244    7.7035   -1.2375 H   0  0  0  0  0  0  0  0  0  0  0  0
   -6.0837    6.2966   -1.8996 H   0  0  0  0  0  0  0  0  0  0  0  0
   -5.0694    3.8346   -0.8383 S   0  0  0  0  0  0  0  0  0  0  0  0
   -5.3086    2.4408   -0.4492 O   0  0  0  0  0  0  0  0  0  0  0  0
   -3.9569    4.4669    0.1970 O   0  0  0  0  0  0  0  0  0  0  0  0
   -4.6599    4.1446   -2.2054 O   0  0  0  0  0  0  0  0  0  0  0  0
   -9.8414    7.2400    0.7529 C   0  0  0  0  0  0  0  0  0  0  0  0
  -10.7543    6.8374    0.2977 H   0  0  0  0  0  0  0  0  0  0  0  0
   -9.9954    7.2463    1.8361 H   0  0  0  0  0  0  0  0  0  0  0  0
   -9.7361    8.2746    0.4158 H   0  0  0  0  0  0  0  0  0  0  0  0
  1  8  2  0  0  0  0
  2  1  1  0  0  0  0
  3  2  1  0  0  0  0
  4  5  2  0  0  0  0
  4  1  1  0  0  0  0
  5  6  1  0  0  0  0
  6 11  1  0  0  0  0
  6  7  2  0  0  0  0
  7 12  1  0  0  0  0
  8 13  1  0  0  0  0
  8  7  1  0  0  0  0
  9 26  1  0  0  0  0
 10  5  1  0  0  0  0
 14 15  1  0  0  0  0
 14 20  1  0  0  0  0
 15 21  1  0  0  0  0
 16 28  1  0  0  0  0
 16 15  2  0  0  0  0
 17 16  1  0  0  0  0
 18 17  2  0  0  0  0
 18 19  1  0  0  0  0
 19 14  2  0  0  0  0
 22 17  1  0  0  0  0
 23 18  1  0  0  0  0
 24 25  2  0  0  0  0
 24 19  1  0  0  0  0
 24 26  1  0  0  0  0
 27 24  2  0  0  0  0
 28 30  1  0  0  0  0
 29 28  1  0  0  0  0
 31 28  1  0  0  0  0
M  RAD  3   2   2   3   3   4   2
M  END
