Coordinates from ORCA-job PhN2+~TsO-_B3LYPG-6-31G_dp-CH-Scan-d09-49-n800
 OpenBabel11261919273D

 31 31  0  0  0  0  0  0  0  0999 V2000
   -2.7407    0.8250   -0.0027 C   0  0  0  0  0  0  0  0  0  0  0  0
   -4.1132    0.8565    0.2858 N   0  0  0  0  0  0  0  0  0  0  0  0
   -5.1115    1.4194    0.2186 N   0  0  0  0  0  0  0  0  0  0  0  0
   -2.1271    1.8839   -0.6935 C   0  0  0  0  0  0  0  0  0  0  0  0
   -0.7593    1.7761   -0.9322 C   0  0  0  0  0  0  0  0  0  0  0  0
   -0.0380    0.6585   -0.5015 C   0  0  0  0  0  0  0  0  0  0  0  0
   -0.6748   -0.3810    0.1842 C   0  0  0  0  0  0  0  0  0  0  0  0
   -2.0388   -0.3033    0.4406 C   0  0  0  0  0  0  0  0  0  0  0  0
   -2.6208    2.6207   -0.9734 H   0  0  0  0  0  0  0  0  0  0  0  0
   -0.2564    2.5813   -1.4583 H   0  0  0  0  0  0  0  0  0  0  0  0
    1.0277    0.5971   -0.7005 H   0  0  0  0  0  0  0  0  0  0  0  0
   -0.1106   -1.2453    0.5184 H   0  0  0  0  0  0  0  0  0  0  0  0
   -2.5648   -1.0886    0.9723 H   0  0  0  0  0  0  0  0  0  0  0  0
   -7.1800    4.9374    1.0107 C   0  0  0  0  0  0  0  0  0  0  0  0
   -8.3909    5.6242    0.9439 C   0  0  0  0  0  0  0  0  0  0  0  0
   -8.6327    6.5714   -0.0616 C   0  0  0  0  0  0  0  0  0  0  0  0
   -7.6185    6.8241   -0.9959 C   0  0  0  0  0  0  0  0  0  0  0  0
   -6.4016    6.1464   -0.9415 C   0  0  0  0  0  0  0  0  0  0  0  0
   -6.1915    5.1995    0.0614 C   0  0  0  0  0  0  0  0  0  0  0  0
   -6.9864    4.2189    1.7999 H   0  0  0  0  0  0  0  0  0  0  0  0
   -9.1585    5.4266    1.6885 H   0  0  0  0  0  0  0  0  0  0  0  0
   -7.7815    7.5671   -1.7729 H   0  0  0  0  0  0  0  0  0  0  0  0
   -5.6107    6.3578   -1.6531 H   0  0  0  0  0  0  0  0  0  0  0  0
   -4.6441    4.2954    0.1157 S   0  0  0  0  0  0  0  0  0  0  0  0
   -4.4490    3.8219    1.5003 O   0  0  0  0  0  0  0  0  0  0  0  0
   -3.6086    5.1578   -0.4789 O   0  0  0  0  0  0  0  0  0  0  0  0
   -4.8719    3.0755   -0.8307 O   0  0  0  0  0  0  0  0  0  0  0  0
   -9.9599    7.2883   -0.1444 C   0  0  0  0  0  0  0  0  0  0  0  0
  -10.6974    6.6902   -0.6947 H   0  0  0  0  0  0  0  0  0  0  0  0
  -10.3744    7.4787    0.8501 H   0  0  0  0  0  0  0  0  0  0  0  0
   -9.8661    8.2470   -0.6624 H   0  0  0  0  0  0  0  0  0  0  0  0
  1  2  1  0  0  0  0
  1  8  2  0  0  0  0
  3  2  2  0  0  0  0
  4  1  1  0  0  0  0
  5  4  2  0  0  0  0
  5  6  1  0  0  0  0
  6  7  2  0  0  0  0
  7  8  1  0  0  0  0
  7 12  1  0  0  0  0
  8 13  1  0  0  0  0
  9  4  1  0  0  0  0
 10  5  1  0  0  0  0
 11  6  1  0  0  0  0
 14 20  1  0  0  0  0
 15 14  1  0  0  0  0
 15 21  1  0  0  0  0
 16 15  2  0  0  0  0
 17 18  2  0  0  0  0
 17 16  1  0  0  0  0
 18 19  1  0  0  0  0
 19 24  1  0  0  0  0
 19 14  2  0  0  0  0
 22 17  1  0  0  0  0
 23 18  1  0  0  0  0
 24 25  1  0  0  0  0
 26 24  2  0  0  0  0
 27 24  2  0  0  0  0
 28 16  1  0  0  0  0
 28 30  1  0  0  0  0
 29 28  1  0  0  0  0
 31 28  1  0  0  0  0
M  RAD  2   3   2  25   2
M  END
