Coordinates from ORCA-job PhN2+~TsO-_B3LYPG-6-31G_dp-CH-Scan-d09-49-n800
 OpenBabel11261919273D

 31 31  0  0  0  0  0  0  0  0999 V2000
   -1.9382    0.4826    0.0938 C   0  0  0  0  0  0  0  0  0  0  0  0
   -3.3081    0.6302    0.3212 N   0  0  0  0  0  0  0  0  0  0  0  0
   -4.4009    0.7962    0.4892 N   0  0  0  0  0  0  0  0  0  0  0  0
   -1.3065    1.6820   -0.2687 C   0  0  0  0  0  0  0  0  0  0  0  0
    0.0803    1.4303   -0.4824 C   0  0  0  0  0  0  0  0  0  0  0  0
    0.6770    0.1808   -0.3463 C   0  0  0  0  0  0  0  0  0  0  0  0
   -0.0711   -0.9627    0.0283 C   0  0  0  0  0  0  0  0  0  0  0  0
   -1.4218   -0.8315    0.2609 C   0  0  0  0  0  0  0  0  0  0  0  0
   -3.3047    5.0335   -0.6311 H   0  0  0  0  0  0  0  0  0  0  0  0
    0.7243    2.2619   -0.7733 H   0  0  0  0  0  0  0  0  0  0  0  0
    1.7441    0.0634   -0.5305 H   0  0  0  0  0  0  0  0  0  0  0  0
    0.4138   -1.9284    0.1311 H   0  0  0  0  0  0  0  0  0  0  0  0
   -2.0471   -1.6716    0.5517 H   0  0  0  0  0  0  0  0  0  0  0  0
   -7.1637    5.7820    1.1083 C   0  0  0  0  0  0  0  0  0  0  0  0
   -8.3242    6.5537    1.1037 C   0  0  0  0  0  0  0  0  0  0  0  0
   -9.0370    6.7848   -0.0809 C   0  0  0  0  0  0  0  0  0  0  0  0
   -8.5646    6.2110   -1.2718 C   0  0  0  0  0  0  0  0  0  0  0  0
   -7.4081    5.4370   -1.2887 C   0  0  0  0  0  0  0  0  0  0  0  0
   -6.7150    5.2358   -0.0936 C   0  0  0  0  0  0  0  0  0  0  0  0
   -6.6181    5.5920    2.0259 H   0  0  0  0  0  0  0  0  0  0  0  0
   -8.6841    6.9798    2.0357 H   0  0  0  0  0  0  0  0  0  0  0  0
   -9.1132    6.3694   -2.1964 H   0  0  0  0  0  0  0  0  0  0  0  0
   -7.0505    4.9822   -2.2057 H   0  0  0  0  0  0  0  0  0  0  0  0
   -5.2367    4.2459   -0.1016 S   0  0  0  0  0  0  0  0  0  0  0  0
   -4.9640    3.7574    1.2490 O   0  0  0  0  0  0  0  0  0  0  0  0
   -4.1718    5.4435   -0.4626 O   0  0  0  0  0  0  0  0  0  0  0  0
   -5.2702    3.3048   -1.2212 O   0  0  0  0  0  0  0  0  0  0  0  0
  -10.2765    7.6465   -0.0839 C   0  0  0  0  0  0  0  0  0  0  0  0
  -11.0426    7.2422   -0.7526 H   0  0  0  0  0  0  0  0  0  0  0  0
  -10.7070    7.7335    0.9171 H   0  0  0  0  0  0  0  0  0  0  0  0
  -10.0453    8.6607   -0.4322 H   0  0  0  0  0  0  0  0  0  0  0  0
  1  8  1  0  0  0  0
  1  2  1  0  0  0  0
  2  3  1  0  0  0  0
  4  1  2  0  0  0  0
  5  6  2  0  0  0  0
  5  4  1  0  0  0  0
  6  7  1  0  0  0  0
  7 12  1  0  0  0  0
  7  8  2  0  0  0  0
  8 13  1  0  0  0  0
  9 26  1  0  0  0  0
 10  5  1  0  0  0  0
 11  6  1  0  0  0  0
 14 20  1  0  0  0  0
 15 14  1  0  0  0  0
 15 21  1  0  0  0  0
 16 15  2  0  0  0  0
 17 16  1  0  0  0  0
 18 17  2  0  0  0  0
 18 19  1  0  0  0  0
 19 14  2  0  0  0  0
 22 17  1  0  0  0  0
 23 18  1  0  0  0  0
 24 19  1  0  0  0  0
 24 25  2  0  0  0  0
 26 24  1  0  0  0  0
 27 24  2  0  0  0  0
 28 16  1  0  0  0  0
 28 30  1  0  0  0  0
 29 28  1  0  0  0  0
 31 28  1  0  0  0  0
M  RAD  3   2   2   3   3   4   2
M  END
