Coordinates from ORCA-job PhN2+~TsO-_B3LYPG-6-31G_dp-CH-Scan-d09-49-n800
 OpenBabel11261919283D

 31 31  0  0  0  0  0  0  0  0999 V2000
   -1.9094    0.4784    0.0839 C   0  0  0  0  0  0  0  0  0  0  0  0
   -3.2767    0.6757    0.2904 N   0  0  0  0  0  0  0  0  0  0  0  0
   -4.3652    0.8817    0.4422 N   0  0  0  0  0  0  0  0  0  0  0  0
   -1.2323    1.6535   -0.2755 C   0  0  0  0  0  0  0  0  0  0  0  0
    0.1486    1.3526   -0.4657 C   0  0  0  0  0  0  0  0  0  0  0  0
    0.6996    0.0842   -0.3134 C   0  0  0  0  0  0  0  0  0  0  0  0
   -0.0932   -1.0309    0.0553 C   0  0  0  0  0  0  0  0  0  0  0  0
   -1.4420   -0.8521    0.2661 C   0  0  0  0  0  0  0  0  0  0  0  0
   -3.3024    5.1876   -0.7127 H   0  0  0  0  0  0  0  0  0  0  0  0
    0.8255    2.1598   -0.7507 H   0  0  0  0  0  0  0  0  0  0  0  0
    1.7649   -0.0711   -0.4798 H   0  0  0  0  0  0  0  0  0  0  0  0
    0.3564   -2.0120    0.1708 H   0  0  0  0  0  0  0  0  0  0  0  0
   -2.1005   -1.6684    0.5514 H   0  0  0  0  0  0  0  0  0  0  0  0
   -7.1613    5.8101    1.1010 C   0  0  0  0  0  0  0  0  0  0  0  0
   -8.3452    6.5454    1.1114 C   0  0  0  0  0  0  0  0  0  0  0  0
   -9.0734    6.7645   -0.0661 C   0  0  0  0  0  0  0  0  0  0  0  0
   -8.5918    6.2163   -1.2654 C   0  0  0  0  0  0  0  0  0  0  0  0
   -7.4120    5.4789   -1.2974 C   0  0  0  0  0  0  0  0  0  0  0  0
   -6.7046    5.2887   -0.1087 C   0  0  0  0  0  0  0  0  0  0  0  0
   -6.6035    5.6291    2.0131 H   0  0  0  0  0  0  0  0  0  0  0  0
   -8.7115    6.9520    2.0496 H   0  0  0  0  0  0  0  0  0  0  0  0
   -9.1517    6.3657   -2.1848 H   0  0  0  0  0  0  0  0  0  0  0  0
   -7.0473    5.0436   -2.2209 H   0  0  0  0  0  0  0  0  0  0  0  0
   -5.1970    4.3443   -0.1354 S   0  0  0  0  0  0  0  0  0  0  0  0
   -4.8968    3.8599    1.2104 O   0  0  0  0  0  0  0  0  0  0  0  0
   -4.1709    5.5748   -0.5032 O   0  0  0  0  0  0  0  0  0  0  0  0
   -5.2102    3.4084   -1.2598 O   0  0  0  0  0  0  0  0  0  0  0  0
  -10.3401    7.5858   -0.0527 C   0  0  0  0  0  0  0  0  0  0  0  0
  -11.1009    7.1570   -0.7120 H   0  0  0  0  0  0  0  0  0  0  0  0
  -10.7605    7.6579    0.9538 H   0  0  0  0  0  0  0  0  0  0  0  0
  -10.1464    8.6071   -0.4029 H   0  0  0  0  0  0  0  0  0  0  0  0
  1  8  1  0  0  0  0
  1  2  1  0  0  0  0
  2  3  1  0  0  0  0
  4  1  2  0  0  0  0
  5  6  2  0  0  0  0
  5  4  1  0  0  0  0
  6  7  1  0  0  0  0
  7 12  1  0  0  0  0
  7  8  2  0  0  0  0
  8 13  1  0  0  0  0
  9 26  1  0  0  0  0
 10  5  1  0  0  0  0
 11  6  1  0  0  0  0
 14 15  1  0  0  0  0
 14 20  1  0  0  0  0
 15 21  1  0  0  0  0
 16 28  1  0  0  0  0
 16 15  2  0  0  0  0
 17 16  1  0  0  0  0
 18 17  2  0  0  0  0
 18 19  1  0  0  0  0
 19 14  2  0  0  0  0
 22 17  1  0  0  0  0
 23 18  1  0  0  0  0
 24 19  1  0  0  0  0
 24 25  2  0  0  0  0
 26 24  1  0  0  0  0
 27 24  2  0  0  0  0
 28 30  1  0  0  0  0
 29 28  1  0  0  0  0
 31 28  1  0  0  0  0
M  RAD  3   2   2   3   3   4   2
M  END
