Coordinates from ORCA-job PhN2+~TsO-_B3LYPG-6-31G_dp-CH-Scan-d09-49-n800
 OpenBabel11261919283D

 31 31  0  0  0  0  0  0  0  0999 V2000
   -1.8368    0.4647    0.0270 C   0  0  0  0  0  0  0  0  0  0  0  0
   -3.1954    0.7690    0.1431 N   0  0  0  0  0  0  0  0  0  0  0  0
   -4.2726    1.0589    0.2223 N   0  0  0  0  0  0  0  0  0  0  0  0
   -1.0562    1.5734   -0.3328 C   0  0  0  0  0  0  0  0  0  0  0  0
    0.3082    1.1671   -0.4251 C   0  0  0  0  0  0  0  0  0  0  0  0
    0.7547   -0.1294   -0.1905 C   0  0  0  0  0  0  0  0  0  0  0  0
   -0.1384   -1.1698    0.1680 C   0  0  0  0  0  0  0  0  0  0  0  0
   -1.4808   -0.8877    0.2865 C   0  0  0  0  0  0  0  0  0  0  0  0
   -3.3225    5.5232   -0.9051 H   0  0  0  0  0  0  0  0  0  0  0  0
    1.0581    1.9121   -0.6967 H   0  0  0  0  0  0  0  0  0  0  0  0
    1.8141   -0.3661   -0.2818 H   0  0  0  0  0  0  0  0  0  0  0  0
    0.2309   -2.1744    0.3479 H   0  0  0  0  0  0  0  0  0  0  0  0
   -2.2134   -1.6432    0.5589 H   0  0  0  0  0  0  0  0  0  0  0  0
   -7.1507    5.8648    1.0764 C   0  0  0  0  0  0  0  0  0  0  0  0
   -8.3790    6.5213    1.1346 C   0  0  0  0  0  0  0  0  0  0  0  0
   -9.1492    6.7229   -0.0187 C   0  0  0  0  0  0  0  0  0  0  0  0
   -8.6627    6.2401   -1.2442 C   0  0  0  0  0  0  0  0  0  0  0  0
   -7.4391    5.5826   -1.3242 C   0  0  0  0  0  0  0  0  0  0  0  0
   -6.6917    5.4066   -0.1577 C   0  0  0  0  0  0  0  0  0  0  0  0
   -6.5601    5.6963    1.9700 H   0  0  0  0  0  0  0  0  0  0  0  0
   -8.7470    6.8788    2.0920 H   0  0  0  0  0  0  0  0  0  0  0  0
   -9.2537    6.3772   -2.1458 H   0  0  0  0  0  0  0  0  0  0  0  0
   -7.0701    5.1968   -2.2679 H   0  0  0  0  0  0  0  0  0  0  0  0
   -5.1294    4.5605   -0.2451 S   0  0  0  0  0  0  0  0  0  0  0  0
   -4.7677    4.0625    1.0798 O   0  0  0  0  0  0  0  0  0  0  0  0
   -4.1853    5.8598   -0.6049 O   0  0  0  0  0  0  0  0  0  0  0  0
   -5.1071    3.6581   -1.3967 O   0  0  0  0  0  0  0  0  0  0  0  0
  -10.4690    7.4531    0.0469 C   0  0  0  0  0  0  0  0  0  0  0  0
  -11.2331    6.9487   -0.5526 H   0  0  0  0  0  0  0  0  0  0  0  0
  -10.8352    7.5282    1.0740 H   0  0  0  0  0  0  0  0  0  0  0  0
  -10.3716    8.4726   -0.3452 H   0  0  0  0  0  0  0  0  0  0  0  0
  1  2  1  0  0  0  0
  1  8  2  0  0  0  0
  2  3  1  0  0  0  0
  4  1  1  0  0  0  0
  5  4  2  0  0  0  0
  5  6  1  0  0  0  0
  6  7  2  0  0  0  0
  7  8  1  0  0  0  0
  7 12  1  0  0  0  0
  8 13  1  0  0  0  0
  9 26  1  0  0  0  0
 10  5  1  0  0  0  0
 11  6  1  0  0  0  0
 14 15  1  0  0  0  0
 14 20  1  0  0  0  0
 15 21  1  0  0  0  0
 16 28  1  0  0  0  0
 16 15  2  0  0  0  0
 17 16  1  0  0  0  0
 18 17  2  0  0  0  0
 18 19  1  0  0  0  0
 19 14  2  0  0  0  0
 22 17  1  0  0  0  0
 23 18  1  0  0  0  0
 24 19  1  0  0  0  0
 24 25  2  0  0  0  0
 26 24  1  0  0  0  0
 27 24  2  0  0  0  0
 28 30  1  0  0  0  0
 29 28  1  0  0  0  0
 31 28  1  0  0  0  0
M  RAD  3   2   2   3   3   4   2
M  END
