Coordinates from ORCA-job PhN2+~TsO-_B3LYPG-6-31G_dp-CH-Scan-d09-49-n800
 OpenBabel11261919273D

 31 31  0  0  0  0  0  0  0  0999 V2000
   -2.0229    0.5031    0.0916 C   0  0  0  0  0  0  0  0  0  0  0  0
   -3.3986    0.4917    0.3198 N   0  0  0  0  0  0  0  0  0  0  0  0
   -4.5023    0.5264    0.4922 N   0  0  0  0  0  0  0  0  0  0  0  0
   -1.5224    1.7670   -0.2610 C   0  0  0  0  0  0  0  0  0  0  0  0
   -0.1184    1.6726   -0.4793 C   0  0  0  0  0  0  0  0  0  0  0  0
    0.6122    0.4948   -0.3544 C   0  0  0  0  0  0  0  0  0  0  0  0
   -0.0051   -0.7262    0.0114 C   0  0  0  0  0  0  0  0  0  0  0  0
   -1.3619   -0.7460    0.2463 C   0  0  0  0  0  0  0  0  0  0  0  0
   -3.3696    4.5061   -0.5082 H   0  0  0  0  0  0  0  0  0  0  0  0
    0.4284    2.5726   -0.7640 H   0  0  0  0  0  0  0  0  0  0  0  0
    1.6852    0.4977   -0.5407 H   0  0  0  0  0  0  0  0  0  0  0  0
    0.5823   -1.6339    0.1057 H   0  0  0  0  0  0  0  0  0  0  0  0
   -1.8899   -1.6524    0.5304 H   0  0  0  0  0  0  0  0  0  0  0  0
   -7.1420    5.6847    1.1070 C   0  0  0  0  0  0  0  0  0  0  0  0
   -8.2159    6.5723    1.0880 C   0  0  0  0  0  0  0  0  0  0  0  0
   -8.9079    6.8484   -0.0997 C   0  0  0  0  0  0  0  0  0  0  0  0
   -8.5047    6.2009   -1.2778 C   0  0  0  0  0  0  0  0  0  0  0  0
   -7.4347    5.3104   -1.2800 C   0  0  0  0  0  0  0  0  0  0  0  0
   -6.7592    5.0665   -0.0830 C   0  0  0  0  0  0  0  0  0  0  0  0
   -6.6138    5.4604    2.0270 H   0  0  0  0  0  0  0  0  0  0  0  0
   -8.5247    7.0549    2.0109 H   0  0  0  0  0  0  0  0  0  0  0  0
   -9.0394    6.3936   -2.2040 H   0  0  0  0  0  0  0  0  0  0  0  0
   -7.1312    4.7993   -2.1868 H   0  0  0  0  0  0  0  0  0  0  0  0
   -5.3917    3.9274   -0.0716 S   0  0  0  0  0  0  0  0  0  0  0  0
   -5.1791    3.4258    1.2865 O   0  0  0  0  0  0  0  0  0  0  0  0
   -4.2086    4.9988   -0.4364 O   0  0  0  0  0  0  0  0  0  0  0  0
   -5.5277    2.9778   -1.1766 O   0  0  0  0  0  0  0  0  0  0  0  0
  -10.0503    7.8348   -0.1185 C   0  0  0  0  0  0  0  0  0  0  0  0
  -10.8416    7.5168   -0.8039 H   0  0  0  0  0  0  0  0  0  0  0  0
  -10.4880    7.9611    0.8752 H   0  0  0  0  0  0  0  0  0  0  0  0
   -9.7080    8.8215   -0.4543 H   0  0  0  0  0  0  0  0  0  0  0  0
  1  8  1  0  0  0  0
  1  2  1  0  0  0  0
  2  3  1  0  0  0  0
  4  1  2  0  0  0  0
  5  6  2  0  0  0  0
  5  4  1  0  0  0  0
  6  7  1  0  0  0  0
  7 12  1  0  0  0  0
  7  8  2  0  0  0  0
  8 13  1  0  0  0  0
  9 26  1  0  0  0  0
 10  5  1  0  0  0  0
 11  6  1  0  0  0  0
 14 20  1  0  0  0  0
 15 14  1  0  0  0  0
 15 21  1  0  0  0  0
 16 15  2  0  0  0  0
 17 16  1  0  0  0  0
 18 17  2  0  0  0  0
 18 19  1  0  0  0  0
 19 24  1  0  0  0  0
 19 14  2  0  0  0  0
 22 17  1  0  0  0  0
 23 18  1  0  0  0  0
 24 25  2  0  0  0  0
 26 24  1  0  0  0  0
 27 24  2  0  0  0  0
 28 16  1  0  0  0  0
 28 30  1  0  0  0  0
 29 28  1  0  0  0  0
 31 28  1  0  0  0  0
M  RAD  3   2   2   3   3   4   2
M  END
