Coordinates from ORCA-job PhN2+~TsO-_B3LYPG-6-31G_dp-CH-Scan-d09-49-n800
 OpenBabel11261919273D

 31 31  0  0  0  0  0  0  0  0999 V2000
   -2.1419    0.5574    0.0984 C   0  0  0  0  0  0  0  0  0  0  0  0
   -3.5022    0.3895    0.3450 N   0  0  0  0  0  0  0  0  0  0  0  0
   -4.5990    0.2961    0.5347 N   0  0  0  0  0  0  0  0  0  0  0  0
   -1.7744    1.8713   -0.2396 C   0  0  0  0  0  0  0  0  0  0  0  0
   -0.3740    1.9342   -0.4736 C   0  0  0  0  0  0  0  0  0  0  0  0
    0.4792    0.8387   -0.3750 C   0  0  0  0  0  0  0  0  0  0  0  0
   -0.0012   -0.4451   -0.0243 C   0  0  0  0  0  0  0  0  0  0  0  0
   -1.3457   -0.6130    0.2233 C   0  0  0  0  0  0  0  0  0  0  0  0
   -3.4505    3.9651   -0.4073 H   0  0  0  0  0  0  0  0  0  0  0  0
    0.0679    2.8918   -0.7489 H   0  0  0  0  0  0  0  0  0  0  0  0
    1.5432    0.9596   -0.5712 H   0  0  0  0  0  0  0  0  0  0  0  0
    0.6792   -1.2873    0.0489 H   0  0  0  0  0  0  0  0  0  0  0  0
   -1.7703   -1.5748    0.4972 H   0  0  0  0  0  0  0  0  0  0  0  0
   -7.1059    5.5573    1.1131 C   0  0  0  0  0  0  0  0  0  0  0  0
   -8.0866    6.5464    1.0747 C   0  0  0  0  0  0  0  0  0  0  0  0
   -8.7383    6.8757   -0.1222 C   0  0  0  0  0  0  0  0  0  0  0  0
   -8.3916    6.1776   -1.2892 C   0  0  0  0  0  0  0  0  0  0  0  0
   -7.4151    5.1853   -1.2713 C   0  0  0  0  0  0  0  0  0  0  0  0
   -6.7763    4.8897   -0.0660 C   0  0  0  0  0  0  0  0  0  0  0  0
   -6.6099    5.2925    2.0402 H   0  0  0  0  0  0  0  0  0  0  0  0
   -8.3541    7.0677    1.9896 H   0  0  0  0  0  0  0  0  0  0  0  0
   -8.8971    6.4111   -2.2224 H   0  0  0  0  0  0  0  0  0  0  0  0
   -7.1566    4.6353   -2.1695 H   0  0  0  0  0  0  0  0  0  0  0  0
   -5.5284    3.6198   -0.0291 S   0  0  0  0  0  0  0  0  0  0  0  0
   -5.3832    3.1142    1.3387 O   0  0  0  0  0  0  0  0  0  0  0  0
   -4.2432    4.5460   -0.3979 O   0  0  0  0  0  0  0  0  0  0  0  0
   -5.7640    2.6663   -1.1157 O   0  0  0  0  0  0  0  0  0  0  0  0
   -9.7770    7.9701   -0.1615 C   0  0  0  0  0  0  0  0  0  0  0  0
  -10.5848    7.7306   -0.8594 H   0  0  0  0  0  0  0  0  0  0  0  0
  -10.2165    8.1420    0.8245 H   0  0  0  0  0  0  0  0  0  0  0  0
   -9.3336    8.9175   -0.4923 H   0  0  0  0  0  0  0  0  0  0  0  0
  1  8  1  0  0  0  0
  1  2  1  0  0  0  0
  2  3  1  0  0  0  0
  4  1  2  0  0  0  0
  5  6  2  0  0  0  0
  5  4  1  0  0  0  0
  6  7  1  0  0  0  0
  7 12  1  0  0  0  0
  7  8  2  0  0  0  0
  8 13  1  0  0  0  0
  9 26  1  0  0  0  0
 10  5  1  0  0  0  0
 11  6  1  0  0  0  0
 14 20  1  0  0  0  0
 15 14  1  0  0  0  0
 15 21  1  0  0  0  0
 16 15  2  0  0  0  0
 17 18  2  0  0  0  0
 17 16  1  0  0  0  0
 18 19  1  0  0  0  0
 19 24  1  0  0  0  0
 19 14  2  0  0  0  0
 22 17  1  0  0  0  0
 23 18  1  0  0  0  0
 24 25  2  0  0  0  0
 26 24  1  0  0  0  0
 27 24  2  0  0  0  0
 28 16  1  0  0  0  0
 28 30  1  0  0  0  0
 29 28  1  0  0  0  0
 31 28  1  0  0  0  0
M  RAD  3   2   2   3   3   4   2
M  END
