Coordinates from ORCA-job PhN2+~TsO-_B3LYPG-6-31G_dp-CH-Scan-d09-49-n800
 OpenBabel11261919273D

 31 31  0  0  0  0  0  0  0  0999 V2000
   -2.4053    0.6984    0.1330 C   0  0  0  0  0  0  0  0  0  0  0  0
   -3.7077    0.3245    0.4445 N   0  0  0  0  0  0  0  0  0  0  0  0
   -4.7665    0.0709    0.6869 N   0  0  0  0  0  0  0  0  0  0  0  0
   -2.2172    2.0546   -0.1912 C   0  0  0  0  0  0  0  0  0  0  0  0
   -0.8645    2.3268   -0.4951 C   0  0  0  0  0  0  0  0  0  0  0  0
    0.1362    1.3577   -0.4690 C   0  0  0  0  0  0  0  0  0  0  0  0
   -0.1461    0.0180   -0.1287 C   0  0  0  0  0  0  0  0  0  0  0  0
   -1.4413   -0.3399    0.1823 C   0  0  0  0  0  0  0  0  0  0  0  0
   -3.4210    3.1986   -0.2221 H   0  0  0  0  0  0  0  0  0  0  0  0
   -0.5875    3.3439   -0.7651 H   0  0  0  0  0  0  0  0  0  0  0  0
    1.1596    1.6306   -0.7157 H   0  0  0  0  0  0  0  0  0  0  0  0
    0.6444   -0.7248   -0.1113 H   0  0  0  0  0  0  0  0  0  0  0  0
   -1.7121   -1.3563    0.4517 H   0  0  0  0  0  0  0  0  0  0  0  0
   -7.0295    5.3453    1.1439 C   0  0  0  0  0  0  0  0  0  0  0  0
   -7.8950    6.4351    1.0605 C   0  0  0  0  0  0  0  0  0  0  0  0
   -8.4418    6.8343   -0.1664 C   0  0  0  0  0  0  0  0  0  0  0  0
   -8.1087    6.1032   -1.3170 C   0  0  0  0  0  0  0  0  0  0  0  0
   -7.2470    5.0115   -1.2520 C   0  0  0  0  0  0  0  0  0  0  0  0
   -6.7082    4.6449   -0.0176 C   0  0  0  0  0  0  0  0  0  0  0  0
   -6.6166    5.0259    2.0942 H   0  0  0  0  0  0  0  0  0  0  0  0
   -8.1546    6.9810    1.9636 H   0  0  0  0  0  0  0  0  0  0  0  0
   -8.5358    6.3896   -2.2747 H   0  0  0  0  0  0  0  0  0  0  0  0
   -7.0025    4.4359   -2.1381 H   0  0  0  0  0  0  0  0  0  0  0  0
   -5.5968    3.2517    0.0753 S   0  0  0  0  0  0  0  0  0  0  0  0
   -5.5967    2.7367    1.4567 O   0  0  0  0  0  0  0  0  0  0  0  0
   -4.2165    3.9473   -0.2434 O   0  0  0  0  0  0  0  0  0  0  0  0
   -5.9390    2.2949   -0.9908 O   0  0  0  0  0  0  0  0  0  0  0  0
   -9.3565    8.0323   -0.2552 C   0  0  0  0  0  0  0  0  0  0  0  0
  -10.1781    7.8579   -0.9570 H   0  0  0  0  0  0  0  0  0  0  0  0
   -9.7873    8.2809    0.7183 H   0  0  0  0  0  0  0  0  0  0  0  0
   -8.8123    8.9171   -0.6085 H   0  0  0  0  0  0  0  0  0  0  0  0
  1  8  1  0  0  0  0
  1  2  1  0  0  0  0
  2  3  1  0  0  0  0
  4  1  2  0  0  0  0
  5  6  2  0  0  0  0
  5  4  1  0  0  0  0
  6  7  1  0  0  0  0
  7 12  1  0  0  0  0
  7  8  2  0  0  0  0
  8 13  1  0  0  0  0
 10  5  1  0  0  0  0
 11  6  1  0  0  0  0
 14 20  1  0  0  0  0
 15 14  1  0  0  0  0
 15 21  1  0  0  0  0
 16 15  2  0  0  0  0
 17 18  2  0  0  0  0
 17 16  1  0  0  0  0
 18 19  1  0  0  0  0
 19 24  1  0  0  0  0
 19 14  2  0  0  0  0
 22 17  1  0  0  0  0
 23 18  1  0  0  0  0
 24 25  2  0  0  0  0
 26  9  1  0  0  0  0
 26 24  1  0  0  0  0
 27 24  2  0  0  0  0
 28 16  1  0  0  0  0
 28 30  1  0  0  0  0
 29 28  1  0  0  0  0
 31 28  1  0  0  0  0
M  RAD  3   2   2   3   3   4   2
M  END
