Coordinates from ORCA-job PhN2+~TsO-_B3LYPG-6-31G_dp-CH-Scan-d09-49-n800
 OpenBabel11261919273D

 31 31  0  0  0  0  0  0  0  0999 V2000
   -2.0878    0.5308    0.0906 C   0  0  0  0  0  0  0  0  0  0  0  0
   -3.4580    0.4232    0.3204 N   0  0  0  0  0  0  0  0  0  0  0  0
   -4.5602    0.3782    0.4974 N   0  0  0  0  0  0  0  0  0  0  0  0
   -1.6657    1.8266   -0.2506 C   0  0  0  0  0  0  0  0  0  0  0  0
   -0.2599    1.8283   -0.4682 C   0  0  0  0  0  0  0  0  0  0  0  0
    0.5459    0.6994   -0.3525 C   0  0  0  0  0  0  0  0  0  0  0  0
    0.0089   -0.5617    0.0007 C   0  0  0  0  0  0  0  0  0  0  0  0
   -1.3441   -0.6721    0.2334 C   0  0  0  0  0  0  0  0  0  0  0  0
   -3.4234    4.1771   -0.4599 H   0  0  0  0  0  0  0  0  0  0  0  0
    0.2257    2.7648   -0.7440 H   0  0  0  0  0  0  0  0  0  0  0  0
    1.6164    0.7745   -0.5369 H   0  0  0  0  0  0  0  0  0  0  0  0
    0.6533   -1.4306    0.0874 H   0  0  0  0  0  0  0  0  0  0  0  0
   -1.8116   -1.6137    0.5083 H   0  0  0  0  0  0  0  0  0  0  0  0
   -7.1176    5.6129    1.1055 C   0  0  0  0  0  0  0  0  0  0  0  0
   -8.1345    6.5650    1.0795 C   0  0  0  0  0  0  0  0  0  0  0  0
   -8.8111    6.8715   -0.1097 C   0  0  0  0  0  0  0  0  0  0  0  0
   -8.4520    6.1881   -1.2817 C   0  0  0  0  0  0  0  0  0  0  0  0
   -7.4392    5.2327   -1.2765 C   0  0  0  0  0  0  0  0  0  0  0  0
   -6.7768    4.9597   -0.0787 C   0  0  0  0  0  0  0  0  0  0  0  0
   -6.6020    5.3656    2.0266 H   0  0  0  0  0  0  0  0  0  0  0  0
   -8.4107    7.0751    1.9981 H   0  0  0  0  0  0  0  0  0  0  0  0
   -8.9761    6.4041   -2.2088 H   0  0  0  0  0  0  0  0  0  0  0  0
   -7.1704    4.6941   -2.1784 H   0  0  0  0  0  0  0  0  0  0  0  0
   -5.4824    3.7375   -0.0577 S   0  0  0  0  0  0  0  0  0  0  0  0
   -5.3035    3.2333    1.3055 O   0  0  0  0  0  0  0  0  0  0  0  0
   -4.2360    4.7218   -0.4320 O   0  0  0  0  0  0  0  0  0  0  0  0
   -5.6854    2.7844   -1.1501 O   0  0  0  0  0  0  0  0  0  0  0  0
   -9.8896    7.9271   -0.1358 C   0  0  0  0  0  0  0  0  0  0  0  0
  -10.6921    7.6623   -0.8306 H   0  0  0  0  0  0  0  0  0  0  0  0
  -10.3290    8.0767    0.8540 H   0  0  0  0  0  0  0  0  0  0  0  0
   -9.4830    8.8921   -0.4630 H   0  0  0  0  0  0  0  0  0  0  0  0
  1  8  1  0  0  0  0
  1  2  1  0  0  0  0
  2  3  1  0  0  0  0
  4  1  2  0  0  0  0
  5  6  2  0  0  0  0
  5  4  1  0  0  0  0
  6  7  1  0  0  0  0
  7 12  1  0  0  0  0
  7  8  2  0  0  0  0
  8 13  1  0  0  0  0
  9 26  1  0  0  0  0
 10  5  1  0  0  0  0
 11  6  1  0  0  0  0
 14 20  1  0  0  0  0
 15 14  1  0  0  0  0
 15 21  1  0  0  0  0
 16 15  2  0  0  0  0
 17 18  2  0  0  0  0
 17 16  1  0  0  0  0
 18 19  1  0  0  0  0
 19 24  1  0  0  0  0
 19 14  2  0  0  0  0
 22 17  1  0  0  0  0
 23 18  1  0  0  0  0
 24 25  2  0  0  0  0
 26 24  1  0  0  0  0
 27 24  2  0  0  0  0
 28 16  1  0  0  0  0
 28 30  1  0  0  0  0
 29 28  1  0  0  0  0
 31 28  1  0  0  0  0
M  RAD  3   2   2   3   3   4   2
M  END
