Coordinates from ORCA-job PhN2+~TsO-_B3LYPG-6-31G_dp-CH-Scan-d09-49-n800
 OpenBabel11261919273D

 31 31  0  0  0  0  0  0  0  0999 V2000
   -2.2463    0.6122    0.1151 C   0  0  0  0  0  0  0  0  0  0  0  0
   -3.5828    0.3414    0.3911 N   0  0  0  0  0  0  0  0  0  0  0  0
   -4.6641    0.1635    0.6048 N   0  0  0  0  0  0  0  0  0  0  0  0
   -1.9723    1.9505   -0.2202 C   0  0  0  0  0  0  0  0  0  0  0  0
   -0.5881    2.1145   -0.4865 C   0  0  0  0  0  0  0  0  0  0  0  0
    0.3411    1.0799   -0.4180 C   0  0  0  0  0  0  0  0  0  0  0  0
   -0.0411   -0.2352   -0.0677 C   0  0  0  0  0  0  0  0  0  0  0  0
   -1.3649   -0.4975    0.2097 C   0  0  0  0  0  0  0  0  0  0  0  0
   -3.4866    3.6138   -0.3224 H   0  0  0  0  0  0  0  0  0  0  0  0
   -0.2233    3.1029   -0.7632 H   0  0  0  0  0  0  0  0  0  0  0  0
    1.3885    1.2767   -0.6384 H   0  0  0  0  0  0  0  0  0  0  0  0
    0.6967   -1.0292   -0.0177 H   0  0  0  0  0  0  0  0  0  0  0  0
   -1.7147   -1.4884    0.4848 H   0  0  0  0  0  0  0  0  0  0  0  0
   -7.0808    5.4575    1.1271 C   0  0  0  0  0  0  0  0  0  0  0  0
   -8.0011    6.5024    1.0679 C   0  0  0  0  0  0  0  0  0  0  0  0
   -8.6043    6.8699   -0.1429 C   0  0  0  0  0  0  0  0  0  0  0  0
   -8.2715    6.1531   -1.3027 C   0  0  0  0  0  0  0  0  0  0  0  0
   -7.3555    5.1054   -1.2634 C   0  0  0  0  0  0  0  0  0  0  0  0
   -6.7629    4.7719   -0.0445 C   0  0  0  0  0  0  0  0  0  0  0  0
   -6.6228    5.1635    2.0648 H   0  0  0  0  0  0  0  0  0  0  0  0
   -8.2591    7.0381    1.9774 H   0  0  0  0  0  0  0  0  0  0  0  0
   -8.7408    6.4160   -2.2470 H   0  0  0  0  0  0  0  0  0  0  0  0
   -7.1090    4.5412   -2.1562 H   0  0  0  0  0  0  0  0  0  0  0  0
   -5.5909    3.4313    0.0190 S   0  0  0  0  0  0  0  0  0  0  0  0
   -5.5063    2.9234    1.3935 O   0  0  0  0  0  0  0  0  0  0  0  0
   -4.2500    4.2571   -0.3333 O   0  0  0  0  0  0  0  0  0  0  0  0
   -5.8773    2.4792   -1.0593 O   0  0  0  0  0  0  0  0  0  0  0  0
   -9.5773    8.0223   -0.2047 C   0  0  0  0  0  0  0  0  0  0  0  0
  -10.3944    7.8197   -0.9038 H   0  0  0  0  0  0  0  0  0  0  0  0
  -10.0115    8.2339    0.7759 H   0  0  0  0  0  0  0  0  0  0  0  0
   -9.0785    8.9376   -0.5468 H   0  0  0  0  0  0  0  0  0  0  0  0
  1  8  1  0  0  0  0
  1  2  1  0  0  0  0
  2  3  1  0  0  0  0
  4  1  2  0  0  0  0
  5  6  2  0  0  0  0
  5  4  1  0  0  0  0
  6  7  1  0  0  0  0
  7 12  1  0  0  0  0
  7  8  2  0  0  0  0
  8 13  1  0  0  0  0
 10  5  1  0  0  0  0
 11  6  1  0  0  0  0
 14 20  1  0  0  0  0
 15 14  1  0  0  0  0
 15 21  1  0  0  0  0
 16 15  2  0  0  0  0
 17 18  2  0  0  0  0
 17 16  1  0  0  0  0
 18 19  1  0  0  0  0
 19 24  1  0  0  0  0
 19 14  2  0  0  0  0
 22 17  1  0  0  0  0
 23 18  1  0  0  0  0
 24 25  2  0  0  0  0
 26  9  1  0  0  0  0
 26 24  1  0  0  0  0
 27 24  2  0  0  0  0
 28 16  1  0  0  0  0
 28 30  1  0  0  0  0
 29 28  1  0  0  0  0
 31 28  1  0  0  0  0
M  RAD  3   2   2   3   3   4   2
M  END
