Coordinates from ORCA-job PhN2+~TsO-_B3LYPG-6-31G_dp-CH-Scan-d09-49-n800
 OpenBabel11261919283D

 31 31  0  0  0  0  0  0  0  0999 V2000
   -1.9040    0.4770    0.0799 C   0  0  0  0  0  0  0  0  0  0  0  0
   -3.2709    0.6851    0.2774 N   0  0  0  0  0  0  0  0  0  0  0  0
   -4.3580    0.9011    0.4251 N   0  0  0  0  0  0  0  0  0  0  0  0
   -1.2164    1.6471   -0.2762 C   0  0  0  0  0  0  0  0  0  0  0  0
    0.1634    1.3358   -0.4581 C   0  0  0  0  0  0  0  0  0  0  0  0
    0.7043    0.0637   -0.3010 C   0  0  0  0  0  0  0  0  0  0  0  0
   -0.0987   -1.0454    0.0641 C   0  0  0  0  0  0  0  0  0  0  0  0
   -1.4475   -0.8567    0.2665 C   0  0  0  0  0  0  0  0  0  0  0  0
   -3.3029    5.2211   -0.7376 H   0  0  0  0  0  0  0  0  0  0  0  0
    0.8478    2.1378   -0.7398 H   0  0  0  0  0  0  0  0  0  0  0  0
    1.7695   -0.0994   -0.4606 H   0  0  0  0  0  0  0  0  0  0  0  0
    0.3431   -2.0296    0.1832 H   0  0  0  0  0  0  0  0  0  0  0  0
   -2.1136   -1.6680    0.5484 H   0  0  0  0  0  0  0  0  0  0  0  0
   -7.1586    5.8164    1.0982 C   0  0  0  0  0  0  0  0  0  0  0  0
   -8.3477    6.5433    1.1135 C   0  0  0  0  0  0  0  0  0  0  0  0
   -9.0809    6.7595   -0.0613 C   0  0  0  0  0  0  0  0  0  0  0  0
   -8.5989    6.2173   -1.2632 C   0  0  0  0  0  0  0  0  0  0  0  0
   -7.4140    5.4884   -1.3001 C   0  0  0  0  0  0  0  0  0  0  0  0
   -6.7017    5.3007   -0.1140 C   0  0  0  0  0  0  0  0  0  0  0  0
   -6.5969    5.6375    2.0083 H   0  0  0  0  0  0  0  0  0  0  0  0
   -8.7140    6.9454    2.0537 H   0  0  0  0  0  0  0  0  0  0  0  0
   -9.1626    6.3645   -2.1806 H   0  0  0  0  0  0  0  0  0  0  0  0
   -7.0490    5.0575   -2.2257 H   0  0  0  0  0  0  0  0  0  0  0  0
   -5.1879    4.3668   -0.1469 S   0  0  0  0  0  0  0  0  0  0  0  0
   -4.8802    3.8829    1.1974 O   0  0  0  0  0  0  0  0  0  0  0  0
   -4.1705    5.6041   -0.5168 O   0  0  0  0  0  0  0  0  0  0  0  0
   -5.1978    3.4326   -1.2729 O   0  0  0  0  0  0  0  0  0  0  0  0
  -10.3537    7.5713   -0.0424 C   0  0  0  0  0  0  0  0  0  0  0  0
  -11.1144    7.1361   -0.6977 H   0  0  0  0  0  0  0  0  0  0  0  0
  -10.7698    7.6410    0.9660 H   0  0  0  0  0  0  0  0  0  0  0  0
  -10.1695    8.5937   -0.3945 H   0  0  0  0  0  0  0  0  0  0  0  0
  1  8  1  0  0  0  0
  1  2  1  0  0  0  0
  2  3  1  0  0  0  0
  4  1  2  0  0  0  0
  5  6  2  0  0  0  0
  5  4  1  0  0  0  0
  6  7  1  0  0  0  0
  7 12  1  0  0  0  0
  7  8  2  0  0  0  0
  8 13  1  0  0  0  0
  9 26  1  0  0  0  0
 10  5  1  0  0  0  0
 11  6  1  0  0  0  0
 14 15  1  0  0  0  0
 14 20  1  0  0  0  0
 15 21  1  0  0  0  0
 16 28  1  0  0  0  0
 16 15  2  0  0  0  0
 17 16  1  0  0  0  0
 18 17  2  0  0  0  0
 18 19  1  0  0  0  0
 19 14  2  0  0  0  0
 22 17  1  0  0  0  0
 23 18  1  0  0  0  0
 24 19  1  0  0  0  0
 24 25  2  0  0  0  0
 26 24  1  0  0  0  0
 27 24  2  0  0  0  0
 28 30  1  0  0  0  0
 29 28  1  0  0  0  0
 31 28  1  0  0  0  0
M  RAD  3   2   2   3   3   4   2
M  END
