Coordinates from ORCA-job PhN2+~TsO-_B3LYPG-6-31G_dp-CH-Scan-d09-49-n800
 OpenBabel11261919273D

 31 31  0  0  0  0  0  0  0  0999 V2000
   -2.1740    0.5760    0.1057 C   0  0  0  0  0  0  0  0  0  0  0  0
   -3.5264    0.3715    0.3648 N   0  0  0  0  0  0  0  0  0  0  0  0
   -4.6177    0.2451    0.5655 N   0  0  0  0  0  0  0  0  0  0  0  0
   -1.8403    1.8993   -0.2318 C   0  0  0  0  0  0  0  0  0  0  0  0
   -0.4451    1.9990   -0.4793 C   0  0  0  0  0  0  0  0  0  0  0  0
    0.4360    0.9247   -0.3924 C   0  0  0  0  0  0  0  0  0  0  0  0
   -0.0090   -0.3713   -0.0413 C   0  0  0  0  0  0  0  0  0  0  0  0
   -1.3465   -0.5734    0.2187 C   0  0  0  0  0  0  0  0  0  0  0  0
   -3.4708    3.8314   -0.3723 H   0  0  0  0  0  0  0  0  0  0  0  0
   -0.0309    2.9684   -0.7556 H   0  0  0  0  0  0  0  0  0  0  0  0
    1.4945    1.0729   -0.5987 H   0  0  0  0  0  0  0  0  0  0  0  0
    0.6926   -1.1966    0.0226 H   0  0  0  0  0  0  0  0  0  0  0  0
   -1.7441   -1.5464    0.4936 H   0  0  0  0  0  0  0  0  0  0  0  0
   -7.1017    5.5204    1.1183 C   0  0  0  0  0  0  0  0  0  0  0  0
   -8.0587    6.5322    1.0720 C   0  0  0  0  0  0  0  0  0  0  0  0
   -8.6916    6.8777   -0.1302 C   0  0  0  0  0  0  0  0  0  0  0  0
   -8.3508    6.1725   -1.2947 C   0  0  0  0  0  0  0  0  0  0  0  0
   -7.3981    5.1575   -1.2689 C   0  0  0  0  0  0  0  0  0  0  0  0
   -6.7771    4.8461   -0.0583 C   0  0  0  0  0  0  0  0  0  0  0  0
   -6.6204    5.2433    2.0494 H   0  0  0  0  0  0  0  0  0  0  0  0
   -8.3222    7.0591    1.9850 H   0  0  0  0  0  0  0  0  0  0  0  0
   -8.8423    6.4185   -2.2322 H   0  0  0  0  0  0  0  0  0  0  0  0
   -7.1445    4.6022   -2.1651 H   0  0  0  0  0  0  0  0  0  0  0  0
   -5.5593    3.5471   -0.0114 S   0  0  0  0  0  0  0  0  0  0  0  0
   -5.4377    3.0388    1.3584 O   0  0  0  0  0  0  0  0  0  0  0  0
   -4.2507    4.4360   -0.3724 O   0  0  0  0  0  0  0  0  0  0  0  0
   -5.8137    2.5953   -1.0960 O   0  0  0  0  0  0  0  0  0  0  0  0
   -9.7044    7.9958   -0.1779 C   0  0  0  0  0  0  0  0  0  0  0  0
  -10.5160    7.7716   -0.8766 H   0  0  0  0  0  0  0  0  0  0  0  0
  -10.1424    8.1829    0.8060 H   0  0  0  0  0  0  0  0  0  0  0  0
   -9.2385    8.9310   -0.5125 H   0  0  0  0  0  0  0  0  0  0  0  0
  1  8  1  0  0  0  0
  1  2  1  0  0  0  0
  2  3  1  0  0  0  0
  4  1  2  0  0  0  0
  5  6  2  0  0  0  0
  5  4  1  0  0  0  0
  6  7  1  0  0  0  0
  7 12  1  0  0  0  0
  7  8  2  0  0  0  0
  8 13  1  0  0  0  0
 10  5  1  0  0  0  0
 11  6  1  0  0  0  0
 14 20  1  0  0  0  0
 15 14  1  0  0  0  0
 15 21  1  0  0  0  0
 16 15  2  0  0  0  0
 17 18  2  0  0  0  0
 17 16  1  0  0  0  0
 18 19  1  0  0  0  0
 19 24  1  0  0  0  0
 19 14  2  0  0  0  0
 22 17  1  0  0  0  0
 23 18  1  0  0  0  0
 24 25  2  0  0  0  0
 26  9  1  0  0  0  0
 26 24  1  0  0  0  0
 27 24  2  0  0  0  0
 28 16  1  0  0  0  0
 28 30  1  0  0  0  0
 29 28  1  0  0  0  0
 31 28  1  0  0  0  0
M  RAD  3   2   2   3   3   4   2
M  END
