Coordinates from ORCA-job PhN2+~TsO-_B3LYPG-6-31G_dp-CH-Scan-d09-49-n800
 OpenBabel11261919273D

 31 31  0  0  0  0  0  0  0  0999 V2000
   -2.7231    0.8172    0.0093 C   0  0  0  0  0  0  0  0  0  0  0  0
   -4.0897    0.8493    0.3237 N   0  0  0  0  0  0  0  0  0  0  0  0
   -5.0921    1.4058    0.2772 N   0  0  0  0  0  0  0  0  0  0  0  0
   -2.1234    1.8739   -0.6968 C   0  0  0  0  0  0  0  0  0  0  0  0
   -0.7603    1.7675   -0.9613 C   0  0  0  0  0  0  0  0  0  0  0  0
   -0.0303    0.6518   -0.5403 C   0  0  0  0  0  0  0  0  0  0  0  0
   -0.6528   -0.3861    0.1610 C   0  0  0  0  0  0  0  0  0  0  0  0
   -2.0117   -0.3090    0.4432 C   0  0  0  0  0  0  0  0  0  0  0  0
   -2.6461    2.6405   -0.9800 H   0  0  0  0  0  0  0  0  0  0  0  0
   -0.2680    2.5712   -1.4995 H   0  0  0  0  0  0  0  0  0  0  0  0
    1.0315    0.5906   -0.7593 H   0  0  0  0  0  0  0  0  0  0  0  0
   -0.0813   -1.2485    0.4874 H   0  0  0  0  0  0  0  0  0  0  0  0
   -2.5264   -1.0930    0.9876 H   0  0  0  0  0  0  0  0  0  0  0  0
   -7.2073    4.9378    1.0163 C   0  0  0  0  0  0  0  0  0  0  0  0
   -8.4143    5.6294    0.9334 C   0  0  0  0  0  0  0  0  0  0  0  0
   -8.6376    6.5803   -0.0731 C   0  0  0  0  0  0  0  0  0  0  0  0
   -7.6087    6.8313   -0.9916 C   0  0  0  0  0  0  0  0  0  0  0  0
   -6.3954    6.1485   -0.9210 C   0  0  0  0  0  0  0  0  0  0  0  0
   -6.2037    5.1985    0.0824 C   0  0  0  0  0  0  0  0  0  0  0  0
   -7.0282    4.2166    1.8065 H   0  0  0  0  0  0  0  0  0  0  0  0
   -9.1935    5.4328    1.6661 H   0  0  0  0  0  0  0  0  0  0  0  0
   -7.7573    7.5768   -1.7690 H   0  0  0  0  0  0  0  0  0  0  0  0
   -5.5932    6.3586   -1.6203 H   0  0  0  0  0  0  0  0  0  0  0  0
   -4.6607    4.2883    0.1577 S   0  0  0  0  0  0  0  0  0  0  0  0
   -4.4814    3.8226    1.5471 O   0  0  0  0  0  0  0  0  0  0  0  0
   -3.6157    5.1439   -0.4307 O   0  0  0  0  0  0  0  0  0  0  0  0
   -4.8845    3.0647   -0.7838 O   0  0  0  0  0  0  0  0  0  0  0  0
   -9.9604    7.3028   -0.1732 C   0  0  0  0  0  0  0  0  0  0  0  0
  -10.6964    6.7036   -0.7244 H   0  0  0  0  0  0  0  0  0  0  0  0
  -10.3823    7.5040    0.8160 H   0  0  0  0  0  0  0  0  0  0  0  0
   -9.8575    8.2567   -0.6985 H   0  0  0  0  0  0  0  0  0  0  0  0
  1  2  1  0  0  0  0
  1  8  2  0  0  0  0
  3  2  2  0  0  0  0
  4  1  1  0  0  0  0
  5  4  2  0  0  0  0
  5  6  1  0  0  0  0
  6  7  2  0  0  0  0
  7  8  1  0  0  0  0
  7 12  1  0  0  0  0
  8 13  1  0  0  0  0
  9  4  1  0  0  0  0
 10  5  1  0  0  0  0
 11  6  1  0  0  0  0
 14 20  1  0  0  0  0
 15 14  1  0  0  0  0
 15 21  1  0  0  0  0
 16 15  2  0  0  0  0
 17 18  2  0  0  0  0
 17 16  1  0  0  0  0
 18 19  1  0  0  0  0
 19 24  1  0  0  0  0
 19 14  2  0  0  0  0
 22 17  1  0  0  0  0
 23 18  1  0  0  0  0
 24 25  1  0  0  0  0
 26 24  2  0  0  0  0
 27 24  2  0  0  0  0
 28 16  1  0  0  0  0
 28 30  1  0  0  0  0
 29 28  1  0  0  0  0
 31 28  1  0  0  0  0
M  RAD  2   3   2  25   2
M  END
