Coordinates from ORCA-job PhN2+~TsO-_B3LYPG-6-31G_dp-CH-Scan-d09-49-n800
 OpenBabel11261919273D

 31 31  0  0  0  0  0  0  0  0999 V2000
   -2.3280    0.6540    0.1330 C   0  0  0  0  0  0  0  0  0  0  0  0
   -3.6436    0.3161    0.4317 N   0  0  0  0  0  0  0  0  0  0  0  0
   -4.7107    0.0858    0.6639 N   0  0  0  0  0  0  0  0  0  0  0  0
   -2.1169    2.0032   -0.2061 C   0  0  0  0  0  0  0  0  0  0  0  0
   -0.7495    2.2349   -0.4959 C   0  0  0  0  0  0  0  0  0  0  0  0
    0.2287    1.2451   -0.4441 C   0  0  0  0  0  0  0  0  0  0  0  0
   -0.0858   -0.0853   -0.0888 C   0  0  0  0  0  0  0  0  0  0  0  0
   -1.3914   -0.4097    0.2105 C   0  0  0  0  0  0  0  0  0  0  0  0
   -3.4849    3.3787   -0.2775 H   0  0  0  0  0  0  0  0  0  0  0  0
   -0.4400    3.2402   -0.7771 H   0  0  0  0  0  0  0  0  0  0  0  0
    1.2614    1.4915   -0.6820 H   0  0  0  0  0  0  0  0  0  0  0  0
    0.6888   -0.8441   -0.0516 H   0  0  0  0  0  0  0  0  0  0  0  0
   -1.6890   -1.4159    0.4906 H   0  0  0  0  0  0  0  0  0  0  0  0
   -7.0525    5.3862    1.1299 C   0  0  0  0  0  0  0  0  0  0  0  0
   -7.9357    6.4626    1.0638 C   0  0  0  0  0  0  0  0  0  0  0  0
   -8.5085    6.8569   -0.1531 C   0  0  0  0  0  0  0  0  0  0  0  0
   -8.1834    6.1350   -1.3118 C   0  0  0  0  0  0  0  0  0  0  0  0
   -7.3044    5.0563   -1.2651 C   0  0  0  0  0  0  0  0  0  0  0  0
   -6.7407    4.6955   -0.0402 C   0  0  0  0  0  0  0  0  0  0  0  0
   -6.6189    5.0711    2.0722 H   0  0  0  0  0  0  0  0  0  0  0  0
   -8.1886    7.0019    1.9727 H   0  0  0  0  0  0  0  0  0  0  0  0
   -8.6300    6.4183   -2.2613 H   0  0  0  0  0  0  0  0  0  0  0  0
   -7.0651    4.4879   -2.1572 H   0  0  0  0  0  0  0  0  0  0  0  0
   -5.6152    3.3147    0.0319 S   0  0  0  0  0  0  0  0  0  0  0  0
   -5.5737    2.7982    1.4080 O   0  0  0  0  0  0  0  0  0  0  0  0
   -4.2445    4.0682   -0.3025 O   0  0  0  0  0  0  0  0  0  0  0  0
   -5.9381    2.3689   -1.0445 O   0  0  0  0  0  0  0  0  0  0  0  0
   -9.4424    8.0411   -0.2226 C   0  0  0  0  0  0  0  0  0  0  0  0
  -10.2671    7.8604   -0.9189 H   0  0  0  0  0  0  0  0  0  0  0  0
   -9.8680    8.2743    0.7569 H   0  0  0  0  0  0  0  0  0  0  0  0
   -8.9143    8.9367   -0.5725 H   0  0  0  0  0  0  0  0  0  0  0  0
  1  8  1  0  0  0  0
  1  2  1  0  0  0  0
  2  3  1  0  0  0  0
  4  1  2  0  0  0  0
  5  6  2  0  0  0  0
  5  4  1  0  0  0  0
  6  7  1  0  0  0  0
  7 12  1  0  0  0  0
  7  8  2  0  0  0  0
  8 13  1  0  0  0  0
 10  5  1  0  0  0  0
 11  6  1  0  0  0  0
 14 20  1  0  0  0  0
 15 14  1  0  0  0  0
 15 21  1  0  0  0  0
 16 15  2  0  0  0  0
 17 18  2  0  0  0  0
 17 16  1  0  0  0  0
 18 19  1  0  0  0  0
 19 24  1  0  0  0  0
 19 14  2  0  0  0  0
 22 17  1  0  0  0  0
 23 18  1  0  0  0  0
 24 25  2  0  0  0  0
 26  9  1  0  0  0  0
 26 24  1  0  0  0  0
 27 24  2  0  0  0  0
 28 16  1  0  0  0  0
 28 30  1  0  0  0  0
 29 28  1  0  0  0  0
 31 28  1  0  0  0  0
M  RAD  3   2   2   3   3   4   2
M  END
