Coordinates from ORCA-job PhN2+~TsO-_B3LYPG-6-31G_dp-CH-Scan-d09-49-n800
 OpenBabel11261919273D

 31 31  0  0  0  0  0  0  0  0999 V2000
   -2.1635    0.5705    0.1033 C   0  0  0  0  0  0  0  0  0  0  0  0
   -3.5184    0.3768    0.3584 N   0  0  0  0  0  0  0  0  0  0  0  0
   -4.6114    0.2593    0.5558 N   0  0  0  0  0  0  0  0  0  0  0  0
   -1.8198    1.8911   -0.2341 C   0  0  0  0  0  0  0  0  0  0  0  0
   -0.4229    1.9803   -0.4773 C   0  0  0  0  0  0  0  0  0  0  0  0
    0.4500    0.8997   -0.3869 C   0  0  0  0  0  0  0  0  0  0  0  0
   -0.0054   -0.3929   -0.0362 C   0  0  0  0  0  0  0  0  0  0  0  0
   -1.3452   -0.5852    0.2198 C   0  0  0  0  0  0  0  0  0  0  0  0
   -3.4665    3.8680   -0.3820 H   0  0  0  0  0  0  0  0  0  0  0  0
   -0.0006    2.9463   -0.7530 H   0  0  0  0  0  0  0  0  0  0  0  0
    1.5103    1.0399   -0.5899 H   0  0  0  0  0  0  0  0  0  0  0  0
    0.6900   -1.2232    0.0304 H   0  0  0  0  0  0  0  0  0  0  0  0
   -1.7507   -1.5550    0.4942 H   0  0  0  0  0  0  0  0  0  0  0  0
   -7.1035    5.5313    1.1167 C   0  0  0  0  0  0  0  0  0  0  0  0
   -8.0669    6.5370    1.0727 C   0  0  0  0  0  0  0  0  0  0  0  0
   -8.7054    6.8779   -0.1279 C   0  0  0  0  0  0  0  0  0  0  0  0
   -8.3636    6.1744   -1.2931 C   0  0  0  0  0  0  0  0  0  0  0  0
   -7.4044    5.1655   -1.2696 C   0  0  0  0  0  0  0  0  0  0  0  0
   -6.7781    4.8585   -0.0606 C   0  0  0  0  0  0  0  0  0  0  0  0
   -6.6178    5.2576    2.0466 H   0  0  0  0  0  0  0  0  0  0  0  0
   -8.3310    7.0626    1.9862 H   0  0  0  0  0  0  0  0  0  0  0  0
   -8.8593    6.4169   -2.2293 H   0  0  0  0  0  0  0  0  0  0  0  0
   -7.1500    4.6113   -2.1663 H   0  0  0  0  0  0  0  0  0  0  0  0
   -5.5522    3.5672   -0.0166 S   0  0  0  0  0  0  0  0  0  0  0  0
   -5.4236    3.0597    1.3526 O   0  0  0  0  0  0  0  0  0  0  0  0
   -4.2497    4.4662   -0.3803 O   0  0  0  0  0  0  0  0  0  0  0  0
   -5.8019    2.6148   -1.1016 O   0  0  0  0  0  0  0  0  0  0  0  0
   -9.7253    7.9898   -0.1731 C   0  0  0  0  0  0  0  0  0  0  0  0
  -10.5362    7.7613   -0.8711 H   0  0  0  0  0  0  0  0  0  0  0  0
  -10.1632    8.1730    0.8116 H   0  0  0  0  0  0  0  0  0  0  0  0
   -9.2655    8.9281   -0.5071 H   0  0  0  0  0  0  0  0  0  0  0  0
  1  8  1  0  0  0  0
  1  2  1  0  0  0  0
  2  3  1  0  0  0  0
  4  1  2  0  0  0  0
  5  6  2  0  0  0  0
  5  4  1  0  0  0  0
  6  7  1  0  0  0  0
  7 12  1  0  0  0  0
  7  8  2  0  0  0  0
  8 13  1  0  0  0  0
  9 26  1  0  0  0  0
 10  5  1  0  0  0  0
 11  6  1  0  0  0  0
 14 20  1  0  0  0  0
 15 14  1  0  0  0  0
 15 21  1  0  0  0  0
 16 15  2  0  0  0  0
 17 18  2  0  0  0  0
 17 16  1  0  0  0  0
 18 19  1  0  0  0  0
 19 24  1  0  0  0  0
 19 14  2  0  0  0  0
 22 17  1  0  0  0  0
 23 18  1  0  0  0  0
 24 25  2  0  0  0  0
 26 24  1  0  0  0  0
 27 24  2  0  0  0  0
 28 16  1  0  0  0  0
 28 30  1  0  0  0  0
 29 28  1  0  0  0  0
 31 28  1  0  0  0  0
M  RAD  3   2   2   3   3   4   2
M  END
