Coordinates from ORCA-job PhN2+~TsO-_B3LYPG-6-31G_dp-CH-Scan-d09-49-n800
 OpenBabel11261919273D

 31 31  0  0  0  0  0  0  0  0999 V2000
   -2.2350    0.6061    0.1117 C   0  0  0  0  0  0  0  0  0  0  0  0
   -3.5744    0.3457    0.3842 N   0  0  0  0  0  0  0  0  0  0  0  0
   -4.6577    0.1762    0.5950 N   0  0  0  0  0  0  0  0  0  0  0  0
   -1.9511    1.9426   -0.2222 C   0  0  0  0  0  0  0  0  0  0  0  0
   -0.5648    2.0963   -0.4848 C   0  0  0  0  0  0  0  0  0  0  0  0
    0.3566    1.0550   -0.4142 C   0  0  0  0  0  0  0  0  0  0  0  0
   -0.0361   -0.2577   -0.0655 C   0  0  0  0  0  0  0  0  0  0  0  0
   -1.3624   -0.5105    0.2083 C   0  0  0  0  0  0  0  0  0  0  0  0
   -3.4840    3.6497   -0.3281 H   0  0  0  0  0  0  0  0  0  0  0  0
   -0.1916    3.0820   -0.7600 H   0  0  0  0  0  0  0  0  0  0  0  0
    1.4061    1.2441   -0.6317 H   0  0  0  0  0  0  0  0  0  0  0  0
    0.6959   -1.0570   -0.0140 H   0  0  0  0  0  0  0  0  0  0  0  0
   -1.7202   -1.4989    0.4820 H   0  0  0  0  0  0  0  0  0  0  0  0
   -7.0846    5.4690    1.1272 C   0  0  0  0  0  0  0  0  0  0  0  0
   -8.0110    6.5085    1.0685 C   0  0  0  0  0  0  0  0  0  0  0  0
   -8.6185    6.8711   -0.1416 C   0  0  0  0  0  0  0  0  0  0  0  0
   -8.2839    6.1549   -1.3012 C   0  0  0  0  0  0  0  0  0  0  0  0
   -7.3618    5.1126   -1.2626 C   0  0  0  0  0  0  0  0  0  0  0  0
   -6.7650    4.7840   -0.0444 C   0  0  0  0  0  0  0  0  0  0  0  0
   -6.6231    5.1788    2.0643 H   0  0  0  0  0  0  0  0  0  0  0  0
   -8.2703    7.0437    1.9778 H   0  0  0  0  0  0  0  0  0  0  0  0
   -8.7564    6.4140   -2.2449 H   0  0  0  0  0  0  0  0  0  0  0  0
   -7.1137    4.5488   -2.1552 H   0  0  0  0  0  0  0  0  0  0  0  0
   -5.5852    3.4503    0.0184 S   0  0  0  0  0  0  0  0  0  0  0  0
   -5.4946    2.9442    1.3927 O   0  0  0  0  0  0  0  0  0  0  0  0
   -4.2495    4.2867   -0.3363 O   0  0  0  0  0  0  0  0  0  0  0  0
   -5.8656    2.4969   -1.0599 O   0  0  0  0  0  0  0  0  0  0  0  0
   -9.5982    8.0179   -0.2028 C   0  0  0  0  0  0  0  0  0  0  0  0
  -10.4139    7.8111   -0.9022 H   0  0  0  0  0  0  0  0  0  0  0  0
  -10.0337    8.2263    0.7779 H   0  0  0  0  0  0  0  0  0  0  0  0
   -9.1044    8.9362   -0.5441 H   0  0  0  0  0  0  0  0  0  0  0  0
  1  8  1  0  0  0  0
  1  2  1  0  0  0  0
  2  3  1  0  0  0  0
  4  1  2  0  0  0  0
  5  6  2  0  0  0  0
  5  4  1  0  0  0  0
  6  7  1  0  0  0  0
  7 12  1  0  0  0  0
  7  8  2  0  0  0  0
  8 13  1  0  0  0  0
 10  5  1  0  0  0  0
 11  6  1  0  0  0  0
 14 20  1  0  0  0  0
 15 14  1  0  0  0  0
 15 21  1  0  0  0  0
 16 15  2  0  0  0  0
 17 18  2  0  0  0  0
 17 16  1  0  0  0  0
 18 19  1  0  0  0  0
 19 24  1  0  0  0  0
 19 14  2  0  0  0  0
 22 17  1  0  0  0  0
 23 18  1  0  0  0  0
 24 25  2  0  0  0  0
 26  9  1  0  0  0  0
 26 24  1  0  0  0  0
 27 24  2  0  0  0  0
 28 16  1  0  0  0  0
 28 30  1  0  0  0  0
 29 28  1  0  0  0  0
 31 28  1  0  0  0  0
M  RAD  3   2   2   3   3   4   2
M  END
