Coordinates from ORCA-job PhN2+~TsO-_B3LYPG-6-31G_dp-CH-Scan-d09-49-n800
 OpenBabel11261919273D

 31 31  0  0  0  0  0  0  0  0999 V2000
   -2.3572    0.6681    0.1287 C   0  0  0  0  0  0  0  0  0  0  0  0
   -3.6680    0.3122    0.4270 N   0  0  0  0  0  0  0  0  0  0  0  0
   -4.7320    0.0689    0.6591 N   0  0  0  0  0  0  0  0  0  0  0  0
   -2.1587    2.0216   -0.2007 C   0  0  0  0  0  0  0  0  0  0  0  0
   -0.7958    2.2722   -0.4911 C   0  0  0  0  0  0  0  0  0  0  0  0
    0.1935    1.2928   -0.4484 C   0  0  0  0  0  0  0  0  0  0  0  0
   -0.1061   -0.0430   -0.1027 C   0  0  0  0  0  0  0  0  0  0  0  0
   -1.4078   -0.3843    0.1962 C   0  0  0  0  0  0  0  0  0  0  0  0
   -3.4716    3.3112   -0.2576 H   0  0  0  0  0  0  0  0  0  0  0  0
   -0.4999    3.2834   -0.7650 H   0  0  0  0  0  0  0  0  0  0  0  0
    1.2228    1.5527   -0.6859 H   0  0  0  0  0  0  0  0  0  0  0  0
    0.6766   -0.7937   -0.0724 H   0  0  0  0  0  0  0  0  0  0  0  0
   -1.6935   -1.3958    0.4690 H   0  0  0  0  0  0  0  0  0  0  0  0
   -7.0405    5.3732    1.1356 C   0  0  0  0  0  0  0  0  0  0  0  0
   -7.9154    6.4559    1.0620 C   0  0  0  0  0  0  0  0  0  0  0  0
   -8.4810    6.8495   -0.1583 C   0  0  0  0  0  0  0  0  0  0  0  0
   -8.1570    6.1203   -1.3128 C   0  0  0  0  0  0  0  0  0  0  0  0
   -7.2862    5.0353   -1.2583 C   0  0  0  0  0  0  0  0  0  0  0  0
   -6.7294    4.6750   -0.0301 C   0  0  0  0  0  0  0  0  0  0  0  0
   -6.6127    5.0585    2.0808 H   0  0  0  0  0  0  0  0  0  0  0  0
   -8.1676    7.0008    1.9678 H   0  0  0  0  0  0  0  0  0  0  0  0
   -8.5983    6.4028   -2.2651 H   0  0  0  0  0  0  0  0  0  0  0  0
   -7.0482    4.4612   -2.1471 H   0  0  0  0  0  0  0  0  0  0  0  0
   -5.6126    3.2871    0.0511 S   0  0  0  0  0  0  0  0  0  0  0  0
   -5.5828    2.7754    1.4305 O   0  0  0  0  0  0  0  0  0  0  0  0
   -4.2370    4.0182   -0.2829 O   0  0  0  0  0  0  0  0  0  0  0  0
   -5.9456    2.3355   -1.0186 O   0  0  0  0  0  0  0  0  0  0  0  0
   -9.4060    8.0401   -0.2362 C   0  0  0  0  0  0  0  0  0  0  0  0
  -10.2322    7.8606   -0.9312 H   0  0  0  0  0  0  0  0  0  0  0  0
   -9.8300    8.2833    0.7415 H   0  0  0  0  0  0  0  0  0  0  0  0
   -8.8716    8.9295   -0.5926 H   0  0  0  0  0  0  0  0  0  0  0  0
  1  8  1  0  0  0  0
  1  2  1  0  0  0  0
  2  3  1  0  0  0  0
  4  1  2  0  0  0  0
  5  6  2  0  0  0  0
  5  4  1  0  0  0  0
  6  7  1  0  0  0  0
  7 12  1  0  0  0  0
  7  8  2  0  0  0  0
  8 13  1  0  0  0  0
 10  5  1  0  0  0  0
 11  6  1  0  0  0  0
 14 20  1  0  0  0  0
 15 14  1  0  0  0  0
 15 21  1  0  0  0  0
 16 15  2  0  0  0  0
 17 18  2  0  0  0  0
 17 16  1  0  0  0  0
 18 19  1  0  0  0  0
 19 24  1  0  0  0  0
 19 14  2  0  0  0  0
 22 17  1  0  0  0  0
 23 18  1  0  0  0  0
 24 25  2  0  0  0  0
 26  9  1  0  0  0  0
 26 24  1  0  0  0  0
 27 24  2  0  0  0  0
 28 16  1  0  0  0  0
 28 30  1  0  0  0  0
 29 28  1  0  0  0  0
 31 28  1  0  0  0  0
M  RAD  3   2   2   3   3   4   2
M  END
