Coordinates from ORCA-job PhN2+~TsO-_B3LYPG-6-31G_dp-CH-Scan-d09-49-n800
 OpenBabel11261919273D

 31 31  0  0  0  0  0  0  0  0999 V2000
   -2.4285    0.7171    0.1306 C   0  0  0  0  0  0  0  0  0  0  0  0
   -3.7313    0.3465    0.4435 N   0  0  0  0  0  0  0  0  0  0  0  0
   -4.7915    0.1009    0.6866 N   0  0  0  0  0  0  0  0  0  0  0  0
   -2.2288    2.0724   -0.1889 C   0  0  0  0  0  0  0  0  0  0  0  0
   -0.8795    2.3458   -0.4948 C   0  0  0  0  0  0  0  0  0  0  0  0
    0.1177    1.3723   -0.4750 C   0  0  0  0  0  0  0  0  0  0  0  0
   -0.1700    0.0333   -0.1402 C   0  0  0  0  0  0  0  0  0  0  0  0
   -1.4663   -0.3217    0.1721 C   0  0  0  0  0  0  0  0  0  0  0  0
   -3.3682    3.1463   -0.2089 H   0  0  0  0  0  0  0  0  0  0  0  0
   -0.6035    3.3639   -0.7604 H   0  0  0  0  0  0  0  0  0  0  0  0
    1.1414    1.6426   -0.7224 H   0  0  0  0  0  0  0  0  0  0  0  0
    0.6172   -0.7130   -0.1277 H   0  0  0  0  0  0  0  0  0  0  0  0
   -1.7395   -1.3383    0.4372 H   0  0  0  0  0  0  0  0  0  0  0  0
   -7.0235    5.3389    1.1485 C   0  0  0  0  0  0  0  0  0  0  0  0
   -7.8908    6.4271    1.0603 C   0  0  0  0  0  0  0  0  0  0  0  0
   -8.4326    6.8244   -0.1693 C   0  0  0  0  0  0  0  0  0  0  0  0
   -8.0925    6.0930   -1.3176 C   0  0  0  0  0  0  0  0  0  0  0  0
   -7.2287    5.0031   -1.2473 C   0  0  0  0  0  0  0  0  0  0  0  0
   -6.6948    4.6377   -0.0104 C   0  0  0  0  0  0  0  0  0  0  0  0
   -6.6148    5.0207    2.1010 H   0  0  0  0  0  0  0  0  0  0  0  0
   -8.1559    6.9731    1.9619 H   0  0  0  0  0  0  0  0  0  0  0  0
   -8.5157    6.3776   -2.2775 H   0  0  0  0  0  0  0  0  0  0  0  0
   -6.9792    4.4269   -2.1316 H   0  0  0  0  0  0  0  0  0  0  0  0
   -5.5756    3.2496    0.0880 S   0  0  0  0  0  0  0  0  0  0  0  0
   -5.5883    2.7342    1.4717 O   0  0  0  0  0  0  0  0  0  0  0  0
   -4.1988    3.9288   -0.2261 O   0  0  0  0  0  0  0  0  0  0  0  0
   -5.9228    2.2846   -0.9723 O   0  0  0  0  0  0  0  0  0  0  0  0
   -9.3492    8.0208   -0.2634 C   0  0  0  0  0  0  0  0  0  0  0  0
  -10.1687    7.8433   -0.9669 H   0  0  0  0  0  0  0  0  0  0  0  0
   -9.7832    8.2707    0.7084 H   0  0  0  0  0  0  0  0  0  0  0  0
   -8.8060    8.9060   -0.6172 H   0  0  0  0  0  0  0  0  0  0  0  0
  1  8  1  0  0  0  0
  1  2  1  0  0  0  0
  2  3  1  0  0  0  0
  4  1  2  0  0  0  0
  5  6  2  0  0  0  0
  5  4  1  0  0  0  0
  6  7  1  0  0  0  0
  7 12  1  0  0  0  0
  7  8  2  0  0  0  0
  8 13  1  0  0  0  0
 10  5  1  0  0  0  0
 11  6  1  0  0  0  0
 14 20  1  0  0  0  0
 15 14  1  0  0  0  0
 15 21  1  0  0  0  0
 16 15  2  0  0  0  0
 17 18  2  0  0  0  0
 17 16  1  0  0  0  0
 18 19  1  0  0  0  0
 19 24  1  0  0  0  0
 19 14  2  0  0  0  0
 22 17  1  0  0  0  0
 23 18  1  0  0  0  0
 24 25  2  0  0  0  0
 26  9  1  0  0  0  0
 26 24  1  0  0  0  0
 27 24  2  0  0  0  0
 28 16  1  0  0  0  0
 28 30  1  0  0  0  0
 29 28  1  0  0  0  0
 31 28  1  0  0  0  0
M  RAD  3   2   2   3   3   4   2
M  END
