Coordinates from ORCA-job PhN2+~TsO-_B3LYPG-6-31G_dp-CH-Scan-d09-49-n800
 OpenBabel11261919273D

 31 31  0  0  0  0  0  0  0  0999 V2000
   -2.0838    0.5292    0.0900 C   0  0  0  0  0  0  0  0  0  0  0  0
   -3.4547    0.4264    0.3185 N   0  0  0  0  0  0  0  0  0  0  0  0
   -4.5572    0.3854    0.4952 N   0  0  0  0  0  0  0  0  0  0  0  0
   -1.6571    1.8235   -0.2511 C   0  0  0  0  0  0  0  0  0  0  0  0
   -0.2512    1.8201   -0.4675 C   0  0  0  0  0  0  0  0  0  0  0  0
    0.5507    0.6884   -0.3509 C   0  0  0  0  0  0  0  0  0  0  0  0
    0.0090   -0.5707    0.0024 C   0  0  0  0  0  0  0  0  0  0  0  0
   -1.3445   -0.6763    0.2340 C   0  0  0  0  0  0  0  0  0  0  0  0
   -3.4213    4.1939   -0.4646 H   0  0  0  0  0  0  0  0  0  0  0  0
    0.2380    2.7548   -0.7433 H   0  0  0  0  0  0  0  0  0  0  0  0
    1.6216    0.7597   -0.5344 H   0  0  0  0  0  0  0  0  0  0  0  0
    0.6504   -1.4417    0.0899 H   0  0  0  0  0  0  0  0  0  0  0  0
   -1.8155   -1.6163    0.5087 H   0  0  0  0  0  0  0  0  0  0  0  0
   -7.1184    5.6171    1.1049 C   0  0  0  0  0  0  0  0  0  0  0  0
   -8.1381    6.5662    1.0799 C   0  0  0  0  0  0  0  0  0  0  0  0
   -8.8166    6.8708   -0.1087 C   0  0  0  0  0  0  0  0  0  0  0  0
   -8.4563    6.1887   -1.2811 C   0  0  0  0  0  0  0  0  0  0  0  0
   -7.4407    5.2364   -1.2768 C   0  0  0  0  0  0  0  0  0  0  0  0
   -6.7766    4.9652   -0.0796 C   0  0  0  0  0  0  0  0  0  0  0  0
   -6.6014    5.3712    2.0257 H   0  0  0  0  0  0  0  0  0  0  0  0
   -8.4153    7.0752    1.9988 H   0  0  0  0  0  0  0  0  0  0  0  0
   -8.9818    6.4033   -2.2078 H   0  0  0  0  0  0  0  0  0  0  0  0
   -7.1709    4.6988   -2.1791 H   0  0  0  0  0  0  0  0  0  0  0  0
   -5.4784    3.7469   -0.0598 S   0  0  0  0  0  0  0  0  0  0  0  0
   -5.2969    3.2429    1.3031 O   0  0  0  0  0  0  0  0  0  0  0  0
   -4.2353    4.7358   -0.4346 O   0  0  0  0  0  0  0  0  0  0  0  0
   -5.6788    2.7937   -1.1526 O   0  0  0  0  0  0  0  0  0  0  0  0
   -9.8982    7.9232   -0.1339 C   0  0  0  0  0  0  0  0  0  0  0  0
  -10.7005    7.6560   -0.8280 H   0  0  0  0  0  0  0  0  0  0  0  0
  -10.3373    8.0714    0.8562 H   0  0  0  0  0  0  0  0  0  0  0  0
   -9.4948    8.8894   -0.4614 H   0  0  0  0  0  0  0  0  0  0  0  0
  1  8  1  0  0  0  0
  1  2  1  0  0  0  0
  2  3  1  0  0  0  0
  4  1  2  0  0  0  0
  5  6  2  0  0  0  0
  5  4  1  0  0  0  0
  6  7  1  0  0  0  0
  7 12  1  0  0  0  0
  7  8  2  0  0  0  0
  8 13  1  0  0  0  0
  9 26  1  0  0  0  0
 10  5  1  0  0  0  0
 11  6  1  0  0  0  0
 14 20  1  0  0  0  0
 15 14  1  0  0  0  0
 15 21  1  0  0  0  0
 16 15  2  0  0  0  0
 17 18  2  0  0  0  0
 17 16  1  0  0  0  0
 18 19  1  0  0  0  0
 19 24  1  0  0  0  0
 19 14  2  0  0  0  0
 22 17  1  0  0  0  0
 23 18  1  0  0  0  0
 24 25  2  0  0  0  0
 26 24  1  0  0  0  0
 27 24  2  0  0  0  0
 28 16  1  0  0  0  0
 28 30  1  0  0  0  0
 29 28  1  0  0  0  0
 31 28  1  0  0  0  0
M  RAD  3   2   2   3   3   4   2
M  END
