Coordinates from ORCA-job PhN2+~TsO-_B3LYPG-6-31G_dp-CH-Scan-d09-49-n800
 OpenBabel11261919273D

 31 31  0  0  0  0  0  0  0  0999 V2000
   -2.2902    0.6349    0.1272 C   0  0  0  0  0  0  0  0  0  0  0  0
   -3.6152    0.3257    0.4163 N   0  0  0  0  0  0  0  0  0  0  0  0
   -4.6886    0.1173    0.6408 N   0  0  0  0  0  0  0  0  0  0  0  0
   -2.0530    1.9793   -0.2132 C   0  0  0  0  0  0  0  0  0  0  0  0
   -0.6776    2.1816   -0.4930 C   0  0  0  0  0  0  0  0  0  0  0  0
    0.2801    1.1727   -0.4317 C   0  0  0  0  0  0  0  0  0  0  0  0
   -0.0631   -0.1509   -0.0757 C   0  0  0  0  0  0  0  0  0  0  0  0
   -1.3768   -0.4486    0.2146 C   0  0  0  0  0  0  0  0  0  0  0  0
   -3.4909    3.4817   -0.3015 H   0  0  0  0  0  0  0  0  0  0  0  0
   -0.3442    3.1794   -0.7745 H   0  0  0  0  0  0  0  0  0  0  0  0
    1.3195    1.3978   -0.6625 H   0  0  0  0  0  0  0  0  0  0  0  0
    0.6963   -0.9247   -0.0312 H   0  0  0  0  0  0  0  0  0  0  0  0
   -1.6967   -1.4480    0.4948 H   0  0  0  0  0  0  0  0  0  0  0  0
   -7.0651    5.4157    1.1268 C   0  0  0  0  0  0  0  0  0  0  0  0
   -7.9637    6.4794    1.0657 C   0  0  0  0  0  0  0  0  0  0  0  0
   -8.5507    6.8641   -0.1476 C   0  0  0  0  0  0  0  0  0  0  0  0
   -8.2239    6.1455   -1.3079 C   0  0  0  0  0  0  0  0  0  0  0  0
   -7.3296    5.0793   -1.2666 C   0  0  0  0  0  0  0  0  0  0  0  0
   -6.7525    4.7283   -0.0451 C   0  0  0  0  0  0  0  0  0  0  0  0
   -6.6202    5.1082    2.0663 H   0  0  0  0  0  0  0  0  0  0  0  0
   -8.2175    7.0162    1.9757 H   0  0  0  0  0  0  0  0  0  0  0  0
   -8.6811    6.4216   -2.2545 H   0  0  0  0  0  0  0  0  0  0  0  0
   -7.0886    4.5135   -2.1598 H   0  0  0  0  0  0  0  0  0  0  0  0
   -5.6083    3.3634    0.0208 S   0  0  0  0  0  0  0  0  0  0  0  0
   -5.5464    2.8492    1.3956 O   0  0  0  0  0  0  0  0  0  0  0  0
   -4.2494    4.1492   -0.3219 O   0  0  0  0  0  0  0  0  0  0  0  0
   -5.9164    2.4165   -1.0574 O   0  0  0  0  0  0  0  0  0  0  0  0
   -9.5008    8.0355   -0.2115 C   0  0  0  0  0  0  0  0  0  0  0  0
  -10.3232    7.8466   -0.9082 H   0  0  0  0  0  0  0  0  0  0  0  0
   -9.9289    8.2587    0.7692 H   0  0  0  0  0  0  0  0  0  0  0  0
   -8.9850    8.9397   -0.5578 H   0  0  0  0  0  0  0  0  0  0  0  0
  1  8  1  0  0  0  0
  1  2  1  0  0  0  0
  2  3  1  0  0  0  0
  4  1  2  0  0  0  0
  5  6  2  0  0  0  0
  5  4  1  0  0  0  0
  6  7  1  0  0  0  0
  7 12  1  0  0  0  0
  7  8  2  0  0  0  0
  8 13  1  0  0  0  0
 10  5  1  0  0  0  0
 11  6  1  0  0  0  0
 14 20  1  0  0  0  0
 15 14  1  0  0  0  0
 15 21  1  0  0  0  0
 16 15  2  0  0  0  0
 17 18  2  0  0  0  0
 17 16  1  0  0  0  0
 18 19  1  0  0  0  0
 19 24  1  0  0  0  0
 19 14  2  0  0  0  0
 22 17  1  0  0  0  0
 23 18  1  0  0  0  0
 24 25  2  0  0  0  0
 26  9  1  0  0  0  0
 26 24  1  0  0  0  0
 27 24  2  0  0  0  0
 28 16  1  0  0  0  0
 28 30  1  0  0  0  0
 29 28  1  0  0  0  0
 31 28  1  0  0  0  0
M  RAD  3   2   2   3   3   4   2
M  END
