Coordinates from ORCA-job PhN2+~TsO-_B3LYPG-6-31G_dp-CH-Scan-d09-49-n800
 OpenBabel11261919273D

 31 31  0  0  0  0  0  0  0  0999 V2000
   -2.4511    0.7469    0.1270 C   0  0  0  0  0  0  0  0  0  0  0  0
   -3.7648    0.4168    0.4368 N   0  0  0  0  0  0  0  0  0  0  0  0
   -4.8380    0.2278    0.6733 N   0  0  0  0  0  0  0  0  0  0  0  0
   -2.1951    2.0919   -0.1916 C   0  0  0  0  0  0  0  0  0  0  0  0
   -0.8467    2.3403   -0.4962 C   0  0  0  0  0  0  0  0  0  0  0  0
    0.1220    1.3372   -0.4766 C   0  0  0  0  0  0  0  0  0  0  0  0
   -0.2067    0.0089   -0.1455 C   0  0  0  0  0  0  0  0  0  0  0  0
   -1.5145   -0.3112    0.1648 C   0  0  0  0  0  0  0  0  0  0  0  0
   -3.2273    3.0896   -0.2043 H   0  0  0  0  0  0  0  0  0  0  0  0
   -0.5508    3.3528   -0.7581 H   0  0  0  0  0  0  0  0  0  0  0  0
    1.1530    1.5786   -0.7219 H   0  0  0  0  0  0  0  0  0  0  0  0
    0.5576   -0.7607   -0.1335 H   0  0  0  0  0  0  0  0  0  0  0  0
   -1.8148   -1.3207    0.4264 H   0  0  0  0  0  0  0  0  0  0  0  0
   -7.0186    5.3453    1.1510 C   0  0  0  0  0  0  0  0  0  0  0  0
   -7.9064    6.4171    1.0626 C   0  0  0  0  0  0  0  0  0  0  0  0
   -8.4511    6.8077   -0.1677 C   0  0  0  0  0  0  0  0  0  0  0  0
   -8.0920    6.0858   -1.3162 C   0  0  0  0  0  0  0  0  0  0  0  0
   -7.2074    5.0127   -1.2448 C   0  0  0  0  0  0  0  0  0  0  0  0
   -6.6708    4.6524   -0.0074 C   0  0  0  0  0  0  0  0  0  0  0  0
   -6.6082    5.0317    2.1043 H   0  0  0  0  0  0  0  0  0  0  0  0
   -8.1857    6.9553    1.9647 H   0  0  0  0  0  0  0  0  0  0  0  0
   -8.5167    6.3647   -2.2773 H   0  0  0  0  0  0  0  0  0  0  0  0
   -6.9438    4.4435   -2.1296 H   0  0  0  0  0  0  0  0  0  0  0  0
   -5.5153    3.2911    0.0898 S   0  0  0  0  0  0  0  0  0  0  0  0
   -5.5445    2.7642    1.4747 O   0  0  0  0  0  0  0  0  0  0  0  0
   -4.1560    3.9598   -0.2138 O   0  0  0  0  0  0  0  0  0  0  0  0
   -5.8638    2.3111   -0.9636 O   0  0  0  0  0  0  0  0  0  0  0  0
   -9.3909    7.9860   -0.2623 C   0  0  0  0  0  0  0  0  0  0  0  0
  -10.2142    7.7876   -0.9559 H   0  0  0  0  0  0  0  0  0  0  0  0
   -9.8201    8.2355    0.7118 H   0  0  0  0  0  0  0  0  0  0  0  0
   -8.8690    8.8788   -0.6290 H   0  0  0  0  0  0  0  0  0  0  0  0
  1  8  1  0  0  0  0
  1  2  1  0  0  0  0
  2  3  1  0  0  0  0
  4  1  2  0  0  0  0
  5  6  2  0  0  0  0
  5  4  1  0  0  0  0
  6  7  1  0  0  0  0
  7 12  1  0  0  0  0
  7  8  2  0  0  0  0
  8 13  1  0  0  0  0
 10  5  1  0  0  0  0
 11  6  1  0  0  0  0
 14 20  1  0  0  0  0
 15 14  1  0  0  0  0
 15 21  1  0  0  0  0
 16 15  2  0  0  0  0
 17 18  2  0  0  0  0
 17 16  1  0  0  0  0
 18 19  1  0  0  0  0
 19 24  1  0  0  0  0
 19 14  2  0  0  0  0
 22 17  1  0  0  0  0
 23 18  1  0  0  0  0
 24 25  2  0  0  0  0
 26  9  1  0  0  0  0
 26 24  1  0  0  0  0
 27 24  2  0  0  0  0
 28 16  1  0  0  0  0
 28 30  1  0  0  0  0
 29 28  1  0  0  0  0
 31 28  1  0  0  0  0
M  RAD  3   2   2   3   3   4   2
M  END
