Coordinates from ORCA-job PhN2+~TsO-_B3LYPG-6-31G_dp-CH-Scan-d09-49-n800
 OpenBabel11261919273D

 31 31  0  0  0  0  0  0  0  0999 V2000
   -2.0698    0.5233    0.0894 C   0  0  0  0  0  0  0  0  0  0  0  0
   -3.4425    0.4423    0.3177 N   0  0  0  0  0  0  0  0  0  0  0  0
   -4.5462    0.4190    0.4901 N   0  0  0  0  0  0  0  0  0  0  0  0
   -1.6254    1.8102   -0.2563 C   0  0  0  0  0  0  0  0  0  0  0  0
   -0.2192    1.7853   -0.4718 C   0  0  0  0  0  0  0  0  0  0  0  0
    0.5661    0.6426   -0.3512 C   0  0  0  0  0  0  0  0  0  0  0  0
    0.0062   -0.6076    0.0063 C   0  0  0  0  0  0  0  0  0  0  0  0
   -1.3488   -0.6927    0.2378 C   0  0  0  0  0  0  0  0  0  0  0  0
   -3.4078    4.2667   -0.4728 H   0  0  0  0  0  0  0  0  0  0  0  0
    0.2839    2.7118   -0.7506 H   0  0  0  0  0  0  0  0  0  0  0  0
    1.6380    0.6976   -0.5347 H   0  0  0  0  0  0  0  0  0  0  0  0
    0.6351   -1.4874    0.0971 H   0  0  0  0  0  0  0  0  0  0  0  0
   -1.8334   -1.6247    0.5159 H   0  0  0  0  0  0  0  0  0  0  0  0
   -7.1237    5.6332    1.1053 C   0  0  0  0  0  0  0  0  0  0  0  0
   -8.1565    6.5680    1.0819 C   0  0  0  0  0  0  0  0  0  0  0  0
   -8.8387    6.8658   -0.1063 C   0  0  0  0  0  0  0  0  0  0  0  0
   -8.4684    6.1914   -1.2801 C   0  0  0  0  0  0  0  0  0  0  0  0
   -7.4397    5.2534   -1.2776 C   0  0  0  0  0  0  0  0  0  0  0  0
   -6.7724    4.9887   -0.0805 C   0  0  0  0  0  0  0  0  0  0  0  0
   -6.6036    5.3924    2.0258 H   0  0  0  0  0  0  0  0  0  0  0  0
   -8.4410    7.0712    2.0018 H   0  0  0  0  0  0  0  0  0  0  0  0
   -8.9965    6.4007   -2.2065 H   0  0  0  0  0  0  0  0  0  0  0  0
   -7.1621    4.7217   -2.1809 H   0  0  0  0  0  0  0  0  0  0  0  0
   -5.4574    3.7889   -0.0630 S   0  0  0  0  0  0  0  0  0  0  0  0
   -5.2685    3.2852    1.2987 O   0  0  0  0  0  0  0  0  0  0  0  0
   -4.2277    4.7975   -0.4352 O   0  0  0  0  0  0  0  0  0  0  0  0
   -5.6425    2.8365   -1.1590 O   0  0  0  0  0  0  0  0  0  0  0  0
   -9.9349    7.9031   -0.1297 C   0  0  0  0  0  0  0  0  0  0  0  0
  -10.7341    7.6250   -0.8232 H   0  0  0  0  0  0  0  0  0  0  0  0
  -10.3749    8.0446    0.8610 H   0  0  0  0  0  0  0  0  0  0  0  0
   -9.5453    8.8749   -0.4572 H   0  0  0  0  0  0  0  0  0  0  0  0
  1  8  1  0  0  0  0
  1  2  1  0  0  0  0
  2  3  1  0  0  0  0
  4  1  2  0  0  0  0
  5  6  2  0  0  0  0
  5  4  1  0  0  0  0
  6  7  1  0  0  0  0
  7 12  1  0  0  0  0
  7  8  2  0  0  0  0
  8 13  1  0  0  0  0
  9 26  1  0  0  0  0
 10  5  1  0  0  0  0
 11  6  1  0  0  0  0
 14 20  1  0  0  0  0
 15 14  1  0  0  0  0
 15 21  1  0  0  0  0
 16 15  2  0  0  0  0
 17 18  2  0  0  0  0
 17 16  1  0  0  0  0
 18 19  1  0  0  0  0
 19 24  1  0  0  0  0
 19 14  2  0  0  0  0
 22 17  1  0  0  0  0
 23 18  1  0  0  0  0
 24 25  2  0  0  0  0
 26 24  1  0  0  0  0
 27 24  2  0  0  0  0
 28 16  1  0  0  0  0
 28 30  1  0  0  0  0
 29 28  1  0  0  0  0
 31 28  1  0  0  0  0
M  RAD  3   2   2   3   3   4   2
M  END
