Coordinates from ORCA-job PhN2+~TsO-_B3LYPG-6-31G_dp-CH-Scan-d09-49-n800
 OpenBabel11261919273D

 31 31  0  0  0  0  0  0  0  0999 V2000
   -1.9926    0.4958    0.0960 C   0  0  0  0  0  0  0  0  0  0  0  0
   -3.3672    0.5475    0.3310 N   0  0  0  0  0  0  0  0  0  0  0  0
   -4.4672    0.6360    0.5088 N   0  0  0  0  0  0  0  0  0  0  0  0
   -1.4413    1.7362   -0.2621 C   0  0  0  0  0  0  0  0  0  0  0  0
   -0.0435    1.5788   -0.4881 C   0  0  0  0  0  0  0  0  0  0  0  0
    0.6355    0.3706   -0.3646 C   0  0  0  0  0  0  0  0  0  0  0  0
   -0.0327   -0.8216    0.0079 C   0  0  0  0  0  0  0  0  0  0  0  0
   -1.3875   -0.7814    0.2505 C   0  0  0  0  0  0  0  0  0  0  0  0
   -3.3329    4.7198   -0.5356 H   0  0  0  0  0  0  0  0  0  0  0  0
    0.5414    2.4531   -0.7780 H   0  0  0  0  0  0  0  0  0  0  0  0
    1.7064    0.3256   -0.5571 H   0  0  0  0  0  0  0  0  0  0  0  0
    0.5153   -1.7540    0.1010 H   0  0  0  0  0  0  0  0  0  0  0  0
   -1.9535   -1.6630    0.5398 H   0  0  0  0  0  0  0  0  0  0  0  0
   -7.1530    5.7249    1.1113 C   0  0  0  0  0  0  0  0  0  0  0  0
   -8.2635    6.5666    1.0930 C   0  0  0  0  0  0  0  0  0  0  0  0
   -8.9603    6.8225   -0.0962 C   0  0  0  0  0  0  0  0  0  0  0  0
   -8.5238    6.2018   -1.2771 C   0  0  0  0  0  0  0  0  0  0  0  0
   -7.4171    5.3576   -1.2802 C   0  0  0  0  0  0  0  0  0  0  0  0
   -6.7383    5.1330   -0.0813 C   0  0  0  0  0  0  0  0  0  0  0  0
   -6.6207    5.5160    2.0326 H   0  0  0  0  0  0  0  0  0  0  0  0
   -8.5970    7.0286    2.0178 H   0  0  0  0  0  0  0  0  0  0  0  0
   -9.0613    6.3791   -2.2048 H   0  0  0  0  0  0  0  0  0  0  0  0
   -7.0876    4.8671   -2.1893 H   0  0  0  0  0  0  0  0  0  0  0  0
   -5.3239    4.0532   -0.0715 S   0  0  0  0  0  0  0  0  0  0  0  0
   -5.0939    3.5547    1.2843 O   0  0  0  0  0  0  0  0  0  0  0  0
   -4.1856    5.1787   -0.4272 O   0  0  0  0  0  0  0  0  0  0  0  0
   -5.4123    3.1069   -1.1838 O   0  0  0  0  0  0  0  0  0  0  0  0
  -10.1435    7.7596   -0.1144 C   0  0  0  0  0  0  0  0  0  0  0  0
  -10.9245    7.4041   -0.7933 H   0  0  0  0  0  0  0  0  0  0  0  0
  -10.5807    7.8734    0.8811 H   0  0  0  0  0  0  0  0  0  0  0  0
   -9.8451    8.7576   -0.4584 H   0  0  0  0  0  0  0  0  0  0  0  0
  1  8  1  0  0  0  0
  1  2  1  0  0  0  0
  2  3  1  0  0  0  0
  4  1  2  0  0  0  0
  5  6  2  0  0  0  0
  5  4  1  0  0  0  0
  6  7  1  0  0  0  0
  7 12  1  0  0  0  0
  7  8  2  0  0  0  0
  8 13  1  0  0  0  0
  9 26  1  0  0  0  0
 10  5  1  0  0  0  0
 11  6  1  0  0  0  0
 14 20  1  0  0  0  0
 15 14  1  0  0  0  0
 15 21  1  0  0  0  0
 16 15  2  0  0  0  0
 17 16  1  0  0  0  0
 18 17  2  0  0  0  0
 18 19  1  0  0  0  0
 19 24  1  0  0  0  0
 19 14  2  0  0  0  0
 22 17  1  0  0  0  0
 23 18  1  0  0  0  0
 24 25  2  0  0  0  0
 26 24  1  0  0  0  0
 27 24  2  0  0  0  0
 28 16  1  0  0  0  0
 28 30  1  0  0  0  0
 29 28  1  0  0  0  0
 31 28  1  0  0  0  0
M  RAD  3   2   2   3   3   4   2
M  END
