Coordinates from ORCA-job PhN2+~TsO-_B3LYPG-6-31G_dp-CH-Scan-d09-49-n800
 OpenBabel11261919273D

 31 31  0  0  0  0  0  0  0  0999 V2000
   -2.3839    0.6846    0.1335 C   0  0  0  0  0  0  0  0  0  0  0  0
   -3.6887    0.3164    0.4425 N   0  0  0  0  0  0  0  0  0  0  0  0
   -4.7487    0.0650    0.6831 N   0  0  0  0  0  0  0  0  0  0  0  0
   -2.1950    2.0399   -0.1943 C   0  0  0  0  0  0  0  0  0  0  0  0
   -0.8386    2.3042   -0.4953 C   0  0  0  0  0  0  0  0  0  0  0  0
    0.1589    1.3324   -0.4635 C   0  0  0  0  0  0  0  0  0  0  0  0
   -0.1278   -0.0060   -0.1193 C   0  0  0  0  0  0  0  0  0  0  0  0
   -1.4245   -0.3585    0.1895 C   0  0  0  0  0  0  0  0  0  0  0  0
   -3.4488    3.2473   -0.2344 H   0  0  0  0  0  0  0  0  0  0  0  0
   -0.5552    3.3190   -0.7684 H   0  0  0  0  0  0  0  0  0  0  0  0
    1.1840    1.6013   -0.7086 H   0  0  0  0  0  0  0  0  0  0  0  0
    0.6607   -0.7508   -0.0974 H   0  0  0  0  0  0  0  0  0  0  0  0
   -1.6996   -1.3731    0.4618 H   0  0  0  0  0  0  0  0  0  0  0  0
   -7.0363    5.3548    1.1406 C   0  0  0  0  0  0  0  0  0  0  0  0
   -7.9045    6.4426    1.0612 C   0  0  0  0  0  0  0  0  0  0  0  0
   -8.4569    6.8415   -0.1634 C   0  0  0  0  0  0  0  0  0  0  0  0
   -8.1266    6.1122   -1.3161 C   0  0  0  0  0  0  0  0  0  0  0  0
   -7.2622    5.0224   -1.2554 C   0  0  0  0  0  0  0  0  0  0  0  0
   -6.7182    4.6565   -0.0231 C   0  0  0  0  0  0  0  0  0  0  0  0
   -6.6190    5.0359    2.0891 H   0  0  0  0  0  0  0  0  0  0  0  0
   -8.1619    6.9874    1.9656 H   0  0  0  0  0  0  0  0  0  0  0  0
   -8.5578    6.3986   -2.2718 H   0  0  0  0  0  0  0  0  0  0  0  0
   -7.0196    4.4482   -2.1429 H   0  0  0  0  0  0  0  0  0  0  0  0
   -5.6067    3.2640    0.0651 S   0  0  0  0  0  0  0  0  0  0  0  0
   -5.5959    2.7490    1.4450 O   0  0  0  0  0  0  0  0  0  0  0  0
   -4.2267    3.9753   -0.2572 O   0  0  0  0  0  0  0  0  0  0  0  0
   -5.9433    2.3115   -1.0047 O   0  0  0  0  0  0  0  0  0  0  0  0
   -9.3747    8.0374   -0.2477 C   0  0  0  0  0  0  0  0  0  0  0  0
  -10.1974    7.8623   -0.9479 H   0  0  0  0  0  0  0  0  0  0  0  0
   -9.8036    8.2833    0.7272 H   0  0  0  0  0  0  0  0  0  0  0  0
   -8.8331    8.9239   -0.6008 H   0  0  0  0  0  0  0  0  0  0  0  0
  1  8  1  0  0  0  0
  1  2  1  0  0  0  0
  2  3  1  0  0  0  0
  4  1  2  0  0  0  0
  5  6  2  0  0  0  0
  5  4  1  0  0  0  0
  6  7  1  0  0  0  0
  7 12  1  0  0  0  0
  7  8  2  0  0  0  0
  8 13  1  0  0  0  0
 10  5  1  0  0  0  0
 11  6  1  0  0  0  0
 14 20  1  0  0  0  0
 15 14  1  0  0  0  0
 15 21  1  0  0  0  0
 16 15  2  0  0  0  0
 17 18  2  0  0  0  0
 17 16  1  0  0  0  0
 18 19  1  0  0  0  0
 19 24  1  0  0  0  0
 19 14  2  0  0  0  0
 22 17  1  0  0  0  0
 23 18  1  0  0  0  0
 24 25  2  0  0  0  0
 26  9  1  0  0  0  0
 26 24  1  0  0  0  0
 27 24  2  0  0  0  0
 28 16  1  0  0  0  0
 28 30  1  0  0  0  0
 29 28  1  0  0  0  0
 31 28  1  0  0  0  0
M  RAD  3   2   2   3   3   4   2
M  END
