Coordinates from ORCA-job PhN2+~TsO-_B3LYPG-6-31G_dp-CH-Scan-d09-49-n800
 OpenBabel11261919273D

 31 31  0  0  0  0  0  0  0  0999 V2000
   -2.0360    0.5089    0.0907 C   0  0  0  0  0  0  0  0  0  0  0  0
   -3.4112    0.4783    0.3194 N   0  0  0  0  0  0  0  0  0  0  0  0
   -4.5153    0.4964    0.4908 N   0  0  0  0  0  0  0  0  0  0  0  0
   -1.5506    1.7792   -0.2604 C   0  0  0  0  0  0  0  0  0  0  0  0
   -0.1455    1.7037   -0.4777 C   0  0  0  0  0  0  0  0  0  0  0  0
    0.6001    0.5353   -0.3537 C   0  0  0  0  0  0  0  0  0  0  0  0
   -0.0018   -0.6938    0.0100 C   0  0  0  0  0  0  0  0  0  0  0  0
   -1.3584   -0.7314    0.2438 C   0  0  0  0  0  0  0  0  0  0  0  0
   -3.3792    4.4408   -0.4972 H   0  0  0  0  0  0  0  0  0  0  0  0
    0.3895    2.6111   -0.7609 H   0  0  0  0  0  0  0  0  0  0  0  0
    1.6730    0.5523   -0.5392 H   0  0  0  0  0  0  0  0  0  0  0  0
    0.5971   -1.5942    0.1036 H   0  0  0  0  0  0  0  0  0  0  0  0
   -1.8747   -1.6449    0.5266 H   0  0  0  0  0  0  0  0  0  0  0  0
   -7.1371    5.6706    1.1067 C   0  0  0  0  0  0  0  0  0  0  0  0
   -8.1999    6.5715    1.0864 C   0  0  0  0  0  0  0  0  0  0  0  0
   -8.8892    6.8534   -0.1015 C   0  0  0  0  0  0  0  0  0  0  0  0
   -8.4948    6.1982   -1.2784 C   0  0  0  0  0  0  0  0  0  0  0  0
   -7.4360    5.2944   -1.2792 C   0  0  0  0  0  0  0  0  0  0  0  0
   -6.7628    5.0449   -0.0821 C   0  0  0  0  0  0  0  0  0  0  0  0
   -6.6111    5.4419    2.0269 H   0  0  0  0  0  0  0  0  0  0  0  0
   -8.5021    7.0599    2.0084 H   0  0  0  0  0  0  0  0  0  0  0  0
   -9.0277    6.3955   -2.2047 H   0  0  0  0  0  0  0  0  0  0  0  0
   -7.1395    4.7774   -2.1850 H   0  0  0  0  0  0  0  0  0  0  0  0
   -5.4096    3.8888   -0.0688 S   0  0  0  0  0  0  0  0  0  0  0  0
   -5.2035    3.3867    1.2904 O   0  0  0  0  0  0  0  0  0  0  0  0
   -4.2135    4.9433   -0.4359 O   0  0  0  0  0  0  0  0  0  0  0  0
   -5.5592    2.9379   -1.1711 O   0  0  0  0  0  0  0  0  0  0  0  0
  -10.0190    7.8540   -0.1218 C   0  0  0  0  0  0  0  0  0  0  0  0
  -10.8127    7.5469   -0.8094 H   0  0  0  0  0  0  0  0  0  0  0  0
  -10.4575    7.9846    0.8711 H   0  0  0  0  0  0  0  0  0  0  0  0
   -9.6637    8.8368   -0.4553 H   0  0  0  0  0  0  0  0  0  0  0  0
  1  8  1  0  0  0  0
  1  2  1  0  0  0  0
  2  3  1  0  0  0  0
  4  1  2  0  0  0  0
  5  6  2  0  0  0  0
  5  4  1  0  0  0  0
  6  7  1  0  0  0  0
  7 12  1  0  0  0  0
  7  8  2  0  0  0  0
  8 13  1  0  0  0  0
  9 26  1  0  0  0  0
 10  5  1  0  0  0  0
 11  6  1  0  0  0  0
 14 20  1  0  0  0  0
 15 14  1  0  0  0  0
 15 21  1  0  0  0  0
 16 15  2  0  0  0  0
 17 16  1  0  0  0  0
 18 17  2  0  0  0  0
 18 19  1  0  0  0  0
 19 24  1  0  0  0  0
 19 14  2  0  0  0  0
 22 17  1  0  0  0  0
 23 18  1  0  0  0  0
 24 25  2  0  0  0  0
 26 24  1  0  0  0  0
 27 24  2  0  0  0  0
 28 16  1  0  0  0  0
 28 30  1  0  0  0  0
 29 28  1  0  0  0  0
 31 28  1  0  0  0  0
M  RAD  3   2   2   3   3   4   2
M  END
