Coordinates from ORCA-job PhN2+~TsO-_B3LYPG-6-31G_dp-CH-Scan-d09-49-n800
 OpenBabel11261919273D

 31 31  0  0  0  0  0  0  0  0999 V2000
   -1.9303    0.4809    0.0913 C   0  0  0  0  0  0  0  0  0  0  0  0
   -3.3000    0.6418    0.3113 N   0  0  0  0  0  0  0  0  0  0  0  0
   -4.3913    0.8196    0.4775 N   0  0  0  0  0  0  0  0  0  0  0  0
   -1.2858    1.6746   -0.2676 C   0  0  0  0  0  0  0  0  0  0  0  0
    0.0997    1.4096   -0.4748 C   0  0  0  0  0  0  0  0  0  0  0  0
    0.6839    0.1546   -0.3358 C   0  0  0  0  0  0  0  0  0  0  0  0
   -0.0768   -0.9819    0.0350 C   0  0  0  0  0  0  0  0  0  0  0  0
   -1.4273   -0.8381    0.2610 C   0  0  0  0  0  0  0  0  0  0  0  0
   -3.3043    5.0754   -0.6569 H   0  0  0  0  0  0  0  0  0  0  0  0
    0.7530    2.2350   -0.7624 H   0  0  0  0  0  0  0  0  0  0  0  0
    1.7508    0.0270   -0.5145 H   0  0  0  0  0  0  0  0  0  0  0  0
    0.3984   -1.9522    0.1400 H   0  0  0  0  0  0  0  0  0  0  0  0
   -2.0621   -1.6723    0.5484 H   0  0  0  0  0  0  0  0  0  0  0  0
   -7.1625    5.7902    1.1058 C   0  0  0  0  0  0  0  0  0  0  0  0
   -8.3294    6.5520    1.1058 C   0  0  0  0  0  0  0  0  0  0  0  0
   -9.0473    6.7794   -0.0765 C   0  0  0  0  0  0  0  0  0  0  0  0
   -8.5731    6.2121   -1.2698 C   0  0  0  0  0  0  0  0  0  0  0  0
   -7.4101    5.4480   -1.2913 C   0  0  0  0  0  0  0  0  0  0  0  0
   -6.7123    5.2502   -0.0983 C   0  0  0  0  0  0  0  0  0  0  0  0
   -6.6128    5.6030    2.0216 H   0  0  0  0  0  0  0  0  0  0  0  0
   -8.6905    6.9733    2.0396 H   0  0  0  0  0  0  0  0  0  0  0  0
   -9.1255    6.3677   -2.1926 H   0  0  0  0  0  0  0  0  0  0  0  0
   -7.0512    4.9981   -2.2102 H   0  0  0  0  0  0  0  0  0  0  0  0
   -5.2258    4.2728   -0.1122 S   0  0  0  0  0  0  0  0  0  0  0  0
   -4.9443    3.7863    1.2373 O   0  0  0  0  0  0  0  0  0  0  0  0
   -4.1717    5.4794   -0.4768 O   0  0  0  0  0  0  0  0  0  0  0  0
   -5.2545    3.3324   -1.2324 O   0  0  0  0  0  0  0  0  0  0  0  0
  -10.2943    7.6303   -0.0745 C   0  0  0  0  0  0  0  0  0  0  0  0
  -11.0594    7.2193   -0.7402 H   0  0  0  0  0  0  0  0  0  0  0  0
  -10.7215    7.7134    0.9283 H   0  0  0  0  0  0  0  0  0  0  0  0
  -10.0734    8.6466   -0.4237 H   0  0  0  0  0  0  0  0  0  0  0  0
  1  8  1  0  0  0  0
  1  2  1  0  0  0  0
  2  3  1  0  0  0  0
  4  1  2  0  0  0  0
  5  6  2  0  0  0  0
  5  4  1  0  0  0  0
  6  7  1  0  0  0  0
  7 12  1  0  0  0  0
  7  8  2  0  0  0  0
  8 13  1  0  0  0  0
  9 26  1  0  0  0  0
 10  5  1  0  0  0  0
 11  6  1  0  0  0  0
 14 15  1  0  0  0  0
 14 20  1  0  0  0  0
 15 21  1  0  0  0  0
 16 28  1  0  0  0  0
 16 15  2  0  0  0  0
 17 16  1  0  0  0  0
 18 17  2  0  0  0  0
 18 19  1  0  0  0  0
 19 14  2  0  0  0  0
 22 17  1  0  0  0  0
 23 18  1  0  0  0  0
 24 19  1  0  0  0  0
 24 25  2  0  0  0  0
 26 24  1  0  0  0  0
 27 24  2  0  0  0  0
 28 30  1  0  0  0  0
 29 28  1  0  0  0  0
 31 28  1  0  0  0  0
M  RAD  3   2   2   3   3   4   2
M  END
