Coordinates from ORCA-job PhN2+~TsO-_B3LYPG-6-31G_dp-CH-Scan-d09-49-n800
 OpenBabel11261919273D

 31 31  0  0  0  0  0  0  0  0999 V2000
   -2.7364    0.8231    0.0002 C   0  0  0  0  0  0  0  0  0  0  0  0
   -4.1075    0.8548    0.2949 N   0  0  0  0  0  0  0  0  0  0  0  0
   -5.1068    1.4162    0.2328 N   0  0  0  0  0  0  0  0  0  0  0  0
   -2.1260    1.8815   -0.6943 C   0  0  0  0  0  0  0  0  0  0  0  0
   -0.7593    1.7739   -0.9393 C   0  0  0  0  0  0  0  0  0  0  0  0
   -0.0360    0.6567   -0.5110 C   0  0  0  0  0  0  0  0  0  0  0  0
   -0.6694   -0.3824    0.1785 C   0  0  0  0  0  0  0  0  0  0  0  0
   -2.0323   -0.3048    0.4411 C   0  0  0  0  0  0  0  0  0  0  0  0
   -2.6267    2.6258   -0.9752 H   0  0  0  0  0  0  0  0  0  0  0  0
   -0.2588    2.5787   -1.4683 H   0  0  0  0  0  0  0  0  0  0  0  0
    1.0288    0.5952   -0.7148 H   0  0  0  0  0  0  0  0  0  0  0  0
   -0.1035   -1.2463    0.5107 H   0  0  0  0  0  0  0  0  0  0  0  0
   -2.5556   -1.0897    0.9758 H   0  0  0  0  0  0  0  0  0  0  0  0
   -7.1867    4.9377    1.0123 C   0  0  0  0  0  0  0  0  0  0  0  0
   -8.3966    5.6256    0.9414 C   0  0  0  0  0  0  0  0  0  0  0  0
   -8.6340    6.5736   -0.0644 C   0  0  0  0  0  0  0  0  0  0  0  0
   -7.6162    6.8258   -0.9949 C   0  0  0  0  0  0  0  0  0  0  0  0
   -6.4002    6.1468   -0.9365 C   0  0  0  0  0  0  0  0  0  0  0  0
   -6.1945    5.1993    0.0667 C   0  0  0  0  0  0  0  0  0  0  0  0
   -6.9966    4.2186    1.8018 H   0  0  0  0  0  0  0  0  0  0  0  0
   -9.1670    5.4283    1.6833 H   0  0  0  0  0  0  0  0  0  0  0  0
   -7.7757    7.5693   -1.7721 H   0  0  0  0  0  0  0  0  0  0  0  0
   -5.6065    6.3579   -1.6452 H   0  0  0  0  0  0  0  0  0  0  0  0
   -4.6481    4.2938    0.1261 S   0  0  0  0  0  0  0  0  0  0  0  0
   -4.4570    3.8221    1.5118 O   0  0  0  0  0  0  0  0  0  0  0  0
   -3.6103    5.1546   -0.4668 O   0  0  0  0  0  0  0  0  0  0  0  0
   -4.8747    3.0731   -0.8192 O   0  0  0  0  0  0  0  0  0  0  0  0
   -9.9602    7.2918   -0.1515 C   0  0  0  0  0  0  0  0  0  0  0  0
  -10.6973    6.6933   -0.7019 H   0  0  0  0  0  0  0  0  0  0  0  0
  -10.3765    7.4850    0.8417 H   0  0  0  0  0  0  0  0  0  0  0  0
   -9.8642    8.2493   -0.6715 H   0  0  0  0  0  0  0  0  0  0  0  0
  1  2  1  0  0  0  0
  1  8  2  0  0  0  0
  3  2  2  0  0  0  0
  4  1  1  0  0  0  0
  5  4  2  0  0  0  0
  5  6  1  0  0  0  0
  6  7  2  0  0  0  0
  7  8  1  0  0  0  0
  7 12  1  0  0  0  0
  8 13  1  0  0  0  0
  9  4  1  0  0  0  0
 10  5  1  0  0  0  0
 11  6  1  0  0  0  0
 14 20  1  0  0  0  0
 15 14  1  0  0  0  0
 15 21  1  0  0  0  0
 16 15  2  0  0  0  0
 17 18  2  0  0  0  0
 17 16  1  0  0  0  0
 18 19  1  0  0  0  0
 19 24  1  0  0  0  0
 19 14  2  0  0  0  0
 22 17  1  0  0  0  0
 23 18  1  0  0  0  0
 24 25  1  0  0  0  0
 26 24  2  0  0  0  0
 27 24  2  0  0  0  0
 28 16  1  0  0  0  0
 28 30  1  0  0  0  0
 29 28  1  0  0  0  0
 31 28  1  0  0  0  0
M  RAD  2   3   2  25   2
M  END
