Coordinates from ORCA-job PhN2+~TsO-_B3LYPG-6-31G_dp-CH-Scan-d09-49-n800
 OpenBabel11261919273D

 31 31  0  0  0  0  0  0  0  0999 V2000
   -2.2419    0.6109    0.1173 C   0  0  0  0  0  0  0  0  0  0  0  0
   -3.5788    0.3446    0.3956 N   0  0  0  0  0  0  0  0  0  0  0  0
   -4.6604    0.1703    0.6111 N   0  0  0  0  0  0  0  0  0  0  0  0
   -1.9650    1.9480   -0.2205 C   0  0  0  0  0  0  0  0  0  0  0  0
   -0.5806    2.1078   -0.4888 C   0  0  0  0  0  0  0  0  0  0  0  0
    0.3458    1.0708   -0.4198 C   0  0  0  0  0  0  0  0  0  0  0  0
   -0.0394   -0.2428   -0.0670 C   0  0  0  0  0  0  0  0  0  0  0  0
   -1.3635   -0.5011    0.2126 C   0  0  0  0  0  0  0  0  0  0  0  0
   -3.4857    3.6257   -0.3234 H   0  0  0  0  0  0  0  0  0  0  0  0
   -0.2134    3.0947   -0.7675 H   0  0  0  0  0  0  0  0  0  0  0  0
    1.3936    1.2643   -0.6419 H   0  0  0  0  0  0  0  0  0  0  0  0
    0.6964   -1.0387   -0.0167 H   0  0  0  0  0  0  0  0  0  0  0  0
   -1.7157   -1.4906    0.4898 H   0  0  0  0  0  0  0  0  0  0  0  0
   -7.0839    5.4587    1.1265 C   0  0  0  0  0  0  0  0  0  0  0  0
   -8.0061    6.5019    1.0683 C   0  0  0  0  0  0  0  0  0  0  0  0
   -8.6091    6.8703   -0.1423 C   0  0  0  0  0  0  0  0  0  0  0  0
   -8.2741    6.1561   -1.3030 C   0  0  0  0  0  0  0  0  0  0  0  0
   -7.3562    5.1100   -1.2649 C   0  0  0  0  0  0  0  0  0  0  0  0
   -6.7639    4.7756   -0.0461 C   0  0  0  0  0  0  0  0  0  0  0  0
   -6.6261    5.1639    2.0640 H   0  0  0  0  0  0  0  0  0  0  0  0
   -8.2658    7.0356    1.9785 H   0  0  0  0  0  0  0  0  0  0  0  0
   -8.7431    6.4197   -2.2473 H   0  0  0  0  0  0  0  0  0  0  0  0
   -7.1079    4.5478   -2.1584 H   0  0  0  0  0  0  0  0  0  0  0  0
   -5.5894    3.4371    0.0161 S   0  0  0  0  0  0  0  0  0  0  0  0
   -5.5048    2.9270    1.3896 O   0  0  0  0  0  0  0  0  0  0  0  0
   -4.2497    4.2670   -0.3335 O   0  0  0  0  0  0  0  0  0  0  0  0
   -5.8724    2.4868   -1.0645 O   0  0  0  0  0  0  0  0  0  0  0  0
   -9.5842    8.0210   -0.2029 C   0  0  0  0  0  0  0  0  0  0  0  0
  -10.3999    7.8184   -0.9035 H   0  0  0  0  0  0  0  0  0  0  0  0
  -10.0200    8.2296    0.7776 H   0  0  0  0  0  0  0  0  0  0  0  0
   -9.0866    8.9380   -0.5423 H   0  0  0  0  0  0  0  0  0  0  0  0
  1  8  1  0  0  0  0
  1  2  1  0  0  0  0
  2  3  1  0  0  0  0
  4  1  2  0  0  0  0
  5  6  2  0  0  0  0
  5  4  1  0  0  0  0
  6  7  1  0  0  0  0
  7 12  1  0  0  0  0
  7  8  2  0  0  0  0
  8 13  1  0  0  0  0
 10  5  1  0  0  0  0
 11  6  1  0  0  0  0
 14 20  1  0  0  0  0
 15 14  1  0  0  0  0
 15 21  1  0  0  0  0
 16 15  2  0  0  0  0
 17 18  2  0  0  0  0
 17 16  1  0  0  0  0
 18 19  1  0  0  0  0
 19 24  1  0  0  0  0
 19 14  2  0  0  0  0
 22 17  1  0  0  0  0
 23 18  1  0  0  0  0
 24 25  2  0  0  0  0
 26  9  1  0  0  0  0
 26 24  1  0  0  0  0
 27 24  2  0  0  0  0
 28 16  1  0  0  0  0
 28 30  1  0  0  0  0
 29 28  1  0  0  0  0
 31 28  1  0  0  0  0
M  RAD  3   2   2   3   3   4   2
M  END
