Coordinates from ORCA-job PhN2+~TsO-_B3LYPG-6-31G_dp-CH-Scan-d09-49-n800
 OpenBabel11261919273D

 31 31  0  0  0  0  0  0  0  0999 V2000
   -2.2163    0.5975    0.1140 C   0  0  0  0  0  0  0  0  0  0  0  0
   -3.5588    0.3525    0.3865 N   0  0  0  0  0  0  0  0  0  0  0  0
   -4.6439    0.1945    0.5973 N   0  0  0  0  0  0  0  0  0  0  0  0
   -1.9201    1.9301   -0.2240 C   0  0  0  0  0  0  0  0  0  0  0  0
   -0.5318    2.0693   -0.4862 C   0  0  0  0  0  0  0  0  0  0  0  0
    0.3792    1.0193   -0.4114 C   0  0  0  0  0  0  0  0  0  0  0  0
   -0.0264   -0.2886   -0.0587 C   0  0  0  0  0  0  0  0  0  0  0  0
   -1.3552   -0.5277    0.2150 C   0  0  0  0  0  0  0  0  0  0  0  0
   -3.4828    3.6973   -0.3393 H   0  0  0  0  0  0  0  0  0  0  0  0
   -0.1485    3.0503   -0.7645 H   0  0  0  0  0  0  0  0  0  0  0  0
    1.4308    1.1972   -0.6287 H   0  0  0  0  0  0  0  0  0  0  0  0
    0.6979   -1.0947   -0.0041 H   0  0  0  0  0  0  0  0  0  0  0  0
   -1.7229   -1.5117    0.4917 H   0  0  0  0  0  0  0  0  0  0  0  0
   -7.0921    5.4801    1.1239 C   0  0  0  0  0  0  0  0  0  0  0  0
   -8.0259    6.5130    1.0696 C   0  0  0  0  0  0  0  0  0  0  0  0
   -8.6386    6.8742   -0.1384 C   0  0  0  0  0  0  0  0  0  0  0  0
   -8.3015    6.1632   -1.3004 C   0  0  0  0  0  0  0  0  0  0  0  0
   -7.3719    5.1273   -1.2663 C   0  0  0  0  0  0  0  0  0  0  0  0
   -6.7703    4.8001   -0.0501 C   0  0  0  0  0  0  0  0  0  0  0  0
   -6.6266    5.1909    2.0594 H   0  0  0  0  0  0  0  0  0  0  0  0
   -8.2871    7.0443    1.9807 H   0  0  0  0  0  0  0  0  0  0  0  0
   -8.7778    6.4212   -2.2425 H   0  0  0  0  0  0  0  0  0  0  0  0
   -7.1216    4.5675   -2.1608 H   0  0  0  0  0  0  0  0  0  0  0  0
   -5.5812    3.4747    0.0070 S   0  0  0  0  0  0  0  0  0  0  0  0
   -5.4843    2.9648    1.3792 O   0  0  0  0  0  0  0  0  0  0  0  0
   -4.2516    4.3256   -0.3459 O   0  0  0  0  0  0  0  0  0  0  0  0
   -5.8536    2.5242   -1.0755 O   0  0  0  0  0  0  0  0  0  0  0  0
   -9.6263    8.0143   -0.1948 C   0  0  0  0  0  0  0  0  0  0  0  0
  -10.4401    7.8050   -0.8955 H   0  0  0  0  0  0  0  0  0  0  0  0
  -10.0637    8.2152    0.7867 H   0  0  0  0  0  0  0  0  0  0  0  0
   -9.1388    8.9376   -0.5316 H   0  0  0  0  0  0  0  0  0  0  0  0
  1  8  1  0  0  0  0
  1  2  1  0  0  0  0
  2  3  1  0  0  0  0
  4  1  2  0  0  0  0
  5  6  2  0  0  0  0
  5  4  1  0  0  0  0
  6  7  1  0  0  0  0
  7 12  1  0  0  0  0
  7  8  2  0  0  0  0
  8 13  1  0  0  0  0
 10  5  1  0  0  0  0
 11  6  1  0  0  0  0
 14 20  1  0  0  0  0
 15 14  1  0  0  0  0
 15 21  1  0  0  0  0
 16 15  2  0  0  0  0
 17 18  2  0  0  0  0
 17 16  1  0  0  0  0
 18 19  1  0  0  0  0
 19 24  1  0  0  0  0
 19 14  2  0  0  0  0
 22 17  1  0  0  0  0
 23 18  1  0  0  0  0
 24 25  2  0  0  0  0
 26  9  1  0  0  0  0
 26 24  1  0  0  0  0
 27 24  2  0  0  0  0
 28 16  1  0  0  0  0
 28 30  1  0  0  0  0
 29 28  1  0  0  0  0
 31 28  1  0  0  0  0
M  RAD  3   2   2   3   3   4   2
M  END
