Coordinates from ORCA-job PhN2+~TsO-_B3LYPG-6-31G_dp-CH-Scan-d09-49-n800
 OpenBabel11261919273D

 31 31  0  0  0  0  0  0  0  0999 V2000
   -2.6724    0.7953    0.0388 C   0  0  0  0  0  0  0  0  0  0  0  0
   -4.0239    0.8433    0.4051 N   0  0  0  0  0  0  0  0  0  0  0  0
   -5.0352    1.3792    0.4070 N   0  0  0  0  0  0  0  0  0  0  0  0
   -2.0984    1.8388   -0.7047 C   0  0  0  0  0  0  0  0  0  0  0  0
   -0.7490    1.7310   -1.0262 C   0  0  0  0  0  0  0  0  0  0  0  0
   -0.0063    0.6172   -0.6209 C   0  0  0  0  0  0  0  0  0  0  0  0
   -0.6012   -0.4106    0.1194 C   0  0  0  0  0  0  0  0  0  0  0  0
   -1.9464   -0.3280    0.4582 C   0  0  0  0  0  0  0  0  0  0  0  0
   -2.7329    2.7286   -1.0121 H   0  0  0  0  0  0  0  0  0  0  0  0
   -0.2768    2.5258   -1.5942 H   0  0  0  0  0  0  0  0  0  0  0  0
    1.0453    0.5497   -0.8827 H   0  0  0  0  0  0  0  0  0  0  0  0
   -0.0173   -1.2697    0.4323 H   0  0  0  0  0  0  0  0  0  0  0  0
   -2.4387   -1.1041    1.0341 H   0  0  0  0  0  0  0  0  0  0  0  0
   -7.2703    4.9361    1.0180 C   0  0  0  0  0  0  0  0  0  0  0  0
   -8.4701    5.6350    0.9036 C   0  0  0  0  0  0  0  0  0  0  0  0
   -8.6540    6.6011   -0.0967 C   0  0  0  0  0  0  0  0  0  0  0  0
   -7.5935    6.8588   -0.9758 C   0  0  0  0  0  0  0  0  0  0  0  0
   -6.3864    6.1682   -0.8735 C   0  0  0  0  0  0  0  0  0  0  0  0
   -6.2337    5.2039    0.1224 C   0  0  0  0  0  0  0  0  0  0  0  0
   -7.1218    4.2034    1.8040 H   0  0  0  0  0  0  0  0  0  0  0  0
   -9.2750    5.4323    1.6065 H   0  0  0  0  0  0  0  0  0  0  0  0
   -7.7116    7.6158   -1.7475 H   0  0  0  0  0  0  0  0  0  0  0  0
   -5.5596    6.3828   -1.5420 H   0  0  0  0  0  0  0  0  0  0  0  0
   -4.6990    4.2830    0.2387 S   0  0  0  0  0  0  0  0  0  0  0  0
   -4.5520    3.8329    1.6374 O   0  0  0  0  0  0  0  0  0  0  0  0
   -3.6351    5.1283   -0.3333 O   0  0  0  0  0  0  0  0  0  0  0  0
   -4.9124    3.0547   -0.6934 O   0  0  0  0  0  0  0  0  0  0  0  0
   -9.9688    7.3331   -0.2297 C   0  0  0  0  0  0  0  0  0  0  0  0
  -10.7057    6.7260   -0.7709 H   0  0  0  0  0  0  0  0  0  0  0  0
  -10.3983    7.5655    0.7496 H   0  0  0  0  0  0  0  0  0  0  0  0
   -9.8513    8.2712   -0.7794 H   0  0  0  0  0  0  0  0  0  0  0  0
  1  2  1  0  0  0  0
  1  8  2  0  0  0  0
  2  3  2  0  0  0  0
  4  1  1  0  0  0  0
  5  4  2  0  0  0  0
  5  6  1  0  0  0  0
  6  7  2  0  0  0  0
  7 12  1  0  0  0  0
  7  8  1  0  0  0  0
  8 13  1  0  0  0  0
  9  4  1  0  0  0  0
 10  5  1  0  0  0  0
 11  6  1  0  0  0  0
 14 20  1  0  0  0  0
 15 14  1  0  0  0  0
 15 21  1  0  0  0  0
 16 15  2  0  0  0  0
 17 18  2  0  0  0  0
 17 16  1  0  0  0  0
 18 19  1  0  0  0  0
 19 24  1  0  0  0  0
 19 14  2  0  0  0  0
 22 17  1  0  0  0  0
 23 18  1  0  0  0  0
 24 25  1  0  0  0  0
 26 24  2  0  0  0  0
 27 24  2  0  0  0  0
 28 16  1  0  0  0  0
 28 30  1  0  0  0  0
 29 28  1  0  0  0  0
 31 28  1  0  0  0  0
M  RAD  2   3   2  25   2
M  END
