Coordinates from ORCA-job PhN2+~TsO-_B3LYPG-6-31G_dp-CH-Scan-d09-49-n800
 OpenBabel11261919273D

 31 31  0  0  0  0  0  0  0  0999 V2000
   -2.3546    0.6680    0.1342 C   0  0  0  0  0  0  0  0  0  0  0  0
   -3.6645    0.3137    0.4384 N   0  0  0  0  0  0  0  0  0  0  0  0
   -4.7277    0.0716    0.6751 N   0  0  0  0  0  0  0  0  0  0  0  0
   -2.1568    2.0204   -0.2005 C   0  0  0  0  0  0  0  0  0  0  0  0
   -0.7947    2.2693   -0.4962 C   0  0  0  0  0  0  0  0  0  0  0  0
    0.1943    1.2897   -0.4536 C   0  0  0  0  0  0  0  0  0  0  0  0
   -0.1046   -0.0449   -0.1025 C   0  0  0  0  0  0  0  0  0  0  0  0
   -1.4055   -0.3846    0.2020 C   0  0  0  0  0  0  0  0  0  0  0  0
   -3.4726    3.3142   -0.2572 H   0  0  0  0  0  0  0  0  0  0  0  0
   -0.4991    3.2794   -0.7744 H   0  0  0  0  0  0  0  0  0  0  0  0
    1.2230    1.5483   -0.6954 H   0  0  0  0  0  0  0  0  0  0  0  0
    0.6779   -0.7958   -0.0723 H   0  0  0  0  0  0  0  0  0  0  0  0
   -1.6907   -1.3951    0.4792 H   0  0  0  0  0  0  0  0  0  0  0  0
   -7.0447    5.3697    1.1345 C   0  0  0  0  0  0  0  0  0  0  0  0
   -7.9195    6.4526    1.0625 C   0  0  0  0  0  0  0  0  0  0  0  0
   -8.4823    6.8502   -0.1579 C   0  0  0  0  0  0  0  0  0  0  0  0
   -8.1555    6.1249   -1.3141 C   0  0  0  0  0  0  0  0  0  0  0  0
   -7.2846    5.0399   -1.2612 C   0  0  0  0  0  0  0  0  0  0  0  0
   -6.7307    4.6755   -0.0329 C   0  0  0  0  0  0  0  0  0  0  0  0
   -6.6191    5.0519    2.0796 H   0  0  0  0  0  0  0  0  0  0  0  0
   -8.1739    6.9943    1.9695 H   0  0  0  0  0  0  0  0  0  0  0  0
   -8.5945    6.4106   -2.2664 H   0  0  0  0  0  0  0  0  0  0  0  0
   -7.0445    4.4688   -2.1513 H   0  0  0  0  0  0  0  0  0  0  0  0
   -5.6139    3.2875    0.0463 S   0  0  0  0  0  0  0  0  0  0  0  0
   -5.5870    2.7713    1.4240 O   0  0  0  0  0  0  0  0  0  0  0  0
   -4.2376    4.0204   -0.2822 O   0  0  0  0  0  0  0  0  0  0  0  0
   -5.9440    2.3396   -1.0275 O   0  0  0  0  0  0  0  0  0  0  0  0
   -9.4072    8.0410   -0.2340 C   0  0  0  0  0  0  0  0  0  0  0  0
  -10.2316    7.8638   -0.9316 H   0  0  0  0  0  0  0  0  0  0  0  0
   -9.8336    8.2807    0.7436 H   0  0  0  0  0  0  0  0  0  0  0  0
   -8.8719    8.9317   -0.5858 H   0  0  0  0  0  0  0  0  0  0  0  0
  1  8  1  0  0  0  0
  1  2  1  0  0  0  0
  2  3  1  0  0  0  0
  4  1  2  0  0  0  0
  5  6  2  0  0  0  0
  5  4  1  0  0  0  0
  6  7  1  0  0  0  0
  7 12  1  0  0  0  0
  7  8  2  0  0  0  0
  8 13  1  0  0  0  0
 10  5  1  0  0  0  0
 11  6  1  0  0  0  0
 14 20  1  0  0  0  0
 15 14  1  0  0  0  0
 15 21  1  0  0  0  0
 16 15  2  0  0  0  0
 17 18  2  0  0  0  0
 17 16  1  0  0  0  0
 18 19  1  0  0  0  0
 19 24  1  0  0  0  0
 19 14  2  0  0  0  0
 22 17  1  0  0  0  0
 23 18  1  0  0  0  0
 24 25  2  0  0  0  0
 26  9  1  0  0  0  0
 26 24  1  0  0  0  0
 27 24  2  0  0  0  0
 28 16  1  0  0  0  0
 28 30  1  0  0  0  0
 29 28  1  0  0  0  0
 31 28  1  0  0  0  0
M  RAD  3   2   2   3   3   4   2
M  END
