Coordinates from ORCA-job PhN2+~TsO-_B3LYPG-6-31G_dp-CH-Scan-d09-49-n800
 OpenBabel11261919273D

 31 31  0  0  0  0  0  0  0  0999 V2000
   -2.5099    0.7721    0.2135 C   0  0  0  0  0  0  0  0  0  0  0  0
   -3.7010    0.6544    0.9406 N   0  0  0  0  0  0  0  0  0  0  0  0
   -4.7298    0.9893    1.2917 N   0  0  0  0  0  0  0  0  0  0  0  0
   -2.1241    2.0276   -0.2779 C   0  0  0  0  0  0  0  0  0  0  0  0
   -0.9227    2.0872   -0.9799 C   0  0  0  0  0  0  0  0  0  0  0  0
   -0.1528    0.9376   -1.1813 C   0  0  0  0  0  0  0  0  0  0  0  0
   -0.5633   -0.3012   -0.6732 C   0  0  0  0  0  0  0  0  0  0  0  0
   -1.7487   -0.3941    0.0445 C   0  0  0  0  0  0  0  0  0  0  0  0
   -2.7854    2.9907   -0.0772 H   0  0  0  0  0  0  0  0  0  0  0  0
   -0.5893    3.0431   -1.3698 H   0  0  0  0  0  0  0  0  0  0  0  0
    0.7804    1.0063   -1.7322 H   0  0  0  0  0  0  0  0  0  0  0  0
    0.0426   -1.1869   -0.8312 H   0  0  0  0  0  0  0  0  0  0  0  0
   -2.0937   -1.3345    0.4595 H   0  0  0  0  0  0  0  0  0  0  0  0
   -7.5553    5.0385    1.2197 C   0  0  0  0  0  0  0  0  0  0  0  0
   -8.6191    5.8436    0.8204 C   0  0  0  0  0  0  0  0  0  0  0  0
   -8.5364    6.6349   -0.3359 C   0  0  0  0  0  0  0  0  0  0  0  0
   -7.3495    6.6052   -1.0794 C   0  0  0  0  0  0  0  0  0  0  0  0
   -6.2750    5.8041   -0.6922 C   0  0  0  0  0  0  0  0  0  0  0  0
   -6.3862    5.0206    0.4556 C   0  0  0  0  0  0  0  0  0  0  0  0
   -7.6116    4.4408    2.1228 H   0  0  0  0  0  0  0  0  0  0  0  0
   -9.5273    5.8638    1.4182 H   0  0  0  0  0  0  0  0  0  0  0  0
   -7.2634    7.2203   -1.9716 H   0  0  0  0  0  0  0  0  0  0  0  0
   -5.3502    5.7950   -1.2583 H   0  0  0  0  0  0  0  0  0  0  0  0
   -5.0315    3.9522    0.9450 S   0  0  0  0  0  0  0  0  0  0  0  0
   -5.1116    3.7536    2.4036 O   0  0  0  0  0  0  0  0  0  0  0  0
   -3.7843    4.5791    0.4264 O   0  0  0  0  0  0  0  0  0  0  0  0
   -5.3029    2.6449    0.1776 O   0  0  0  0  0  0  0  0  0  0  0  0
   -9.7037    7.4930   -0.7637 C   0  0  0  0  0  0  0  0  0  0  0  0
  -10.5504    6.8768   -1.0901 H   0  0  0  0  0  0  0  0  0  0  0  0
  -10.0620    8.1190    0.0608 H   0  0  0  0  0  0  0  0  0  0  0  0
   -9.4339    8.1517   -1.5938 H   0  0  0  0  0  0  0  0  0  0  0  0
  1  2  1  0  0  0  0
  2  3  2  0  0  0  0
  4  9  1  0  0  0  0
  4  1  2  0  0  0  0
  5  4  1  0  0  0  0
  6  5  2  0  0  0  0
  6  7  1  0  0  0  0
  7  8  2  0  0  0  0
  8  1  1  0  0  0  0
  8 13  1  0  0  0  0
 10  5  1  0  0  0  0
 11  6  1  0  0  0  0
 12  7  1  0  0  0  0
 14 20  1  0  0  0  0
 15 14  1  0  0  0  0
 15 21  1  0  0  0  0
 16 15  2  0  0  0  0
 17 18  2  0  0  0  0
 17 16  1  0  0  0  0
 18 19  1  0  0  0  0
 19 24  1  0  0  0  0
 19 14  2  0  0  0  0
 22 17  1  0  0  0  0
 23 18  1  0  0  0  0
 24 25  1  0  0  0  0
 26 24  2  0  0  0  0
 27 24  2  0  0  0  0
 28 16  1  0  0  0  0
 28 30  1  0  0  0  0
 29 28  1  0  0  0  0
 31 28  1  0  0  0  0
M  RAD  2   3   2  25   2
M  END
