Coordinates from ORCA-job PhN2+~TsO-_B3LYPG-6-31G_dp-CH-Scan-d09-49-n800
 OpenBabel11261919273D

 31 31  0  0  0  0  0  0  0  0999 V2000
   -2.0057    0.4986    0.0940 C   0  0  0  0  0  0  0  0  0  0  0  0
   -3.3809    0.5219    0.3277 N   0  0  0  0  0  0  0  0  0  0  0  0
   -4.4833    0.5860    0.5005 N   0  0  0  0  0  0  0  0  0  0  0  0
   -1.4780    1.7493   -0.2647 C   0  0  0  0  0  0  0  0  0  0  0  0
   -0.0771    1.6205   -0.4879 C   0  0  0  0  0  0  0  0  0  0  0  0
    0.6259    0.4262   -0.3623 C   0  0  0  0  0  0  0  0  0  0  0  0
   -0.0187   -0.7788    0.0100 C   0  0  0  0  0  0  0  0  0  0  0  0
   -1.3746   -0.7657    0.2502 C   0  0  0  0  0  0  0  0  0  0  0  0
   -3.3487    4.6228   -0.5175 H   0  0  0  0  0  0  0  0  0  0  0  0
    0.4902    2.5062   -0.7777 H   0  0  0  0  0  0  0  0  0  0  0  0
    1.6979    0.4028   -0.5530 H   0  0  0  0  0  0  0  0  0  0  0  0
    0.5477   -1.6998    0.1050 H   0  0  0  0  0  0  0  0  0  0  0  0
   -1.9229   -1.6583    0.5396 H   0  0  0  0  0  0  0  0  0  0  0  0
   -7.1496    5.7066    1.1100 C   0  0  0  0  0  0  0  0  0  0  0  0
   -8.2435    6.5695    1.0908 C   0  0  0  0  0  0  0  0  0  0  0  0
   -8.9372    6.8350   -0.0983 C   0  0  0  0  0  0  0  0  0  0  0  0
   -8.5148    6.2023   -1.2777 C   0  0  0  0  0  0  0  0  0  0  0  0
   -7.4246    5.3367   -1.2799 C   0  0  0  0  0  0  0  0  0  0  0  0
   -6.7483    5.1028   -0.0813 C   0  0  0  0  0  0  0  0  0  0  0  0
   -6.6200    5.4902    2.0311 H   0  0  0  0  0  0  0  0  0  0  0  0
   -8.5667    7.0407    2.0146 H   0  0  0  0  0  0  0  0  0  0  0  0
   -9.0503    6.3870   -2.2052 H   0  0  0  0  0  0  0  0  0  0  0  0
   -7.1061    4.8369   -2.1878 H   0  0  0  0  0  0  0  0  0  0  0  0
   -5.3552    3.9956   -0.0700 S   0  0  0  0  0  0  0  0  0  0  0  0
   -5.1352    3.4938    1.2865 O   0  0  0  0  0  0  0  0  0  0  0  0
   -4.1955    5.0971   -0.4267 O   0  0  0  0  0  0  0  0  0  0  0  0
   -5.4637    3.0489   -1.1803 O   0  0  0  0  0  0  0  0  0  0  0  0
  -10.1020    7.7949   -0.1173 C   0  0  0  0  0  0  0  0  0  0  0  0
  -10.8872    7.4569   -0.8001 H   0  0  0  0  0  0  0  0  0  0  0  0
  -10.5404    7.9139    0.8770 H   0  0  0  0  0  0  0  0  0  0  0  0
   -9.7831    8.7882   -0.4568 H   0  0  0  0  0  0  0  0  0  0  0  0
  1  8  1  0  0  0  0
  1  2  1  0  0  0  0
  2  3  1  0  0  0  0
  4  1  2  0  0  0  0
  5  6  2  0  0  0  0
  5  4  1  0  0  0  0
  6  7  1  0  0  0  0
  7 12  1  0  0  0  0
  7  8  2  0  0  0  0
  8 13  1  0  0  0  0
  9 26  1  0  0  0  0
 10  5  1  0  0  0  0
 11  6  1  0  0  0  0
 14 20  1  0  0  0  0
 15 14  1  0  0  0  0
 15 21  1  0  0  0  0
 16 15  2  0  0  0  0
 17 16  1  0  0  0  0
 18 17  2  0  0  0  0
 18 19  1  0  0  0  0
 19 24  1  0  0  0  0
 19 14  2  0  0  0  0
 22 17  1  0  0  0  0
 23 18  1  0  0  0  0
 24 25  2  0  0  0  0
 26 24  1  0  0  0  0
 27 24  2  0  0  0  0
 28 16  1  0  0  0  0
 28 30  1  0  0  0  0
 29 28  1  0  0  0  0
 31 28  1  0  0  0  0
M  RAD  3   2   2   3   3   4   2
M  END
