Coordinates from ORCA-job PhN2+~TsO-_B3LYPG-6-31G_dp-CH-Scan-d09-49-n800
 OpenBabel11261919273D

 31 31  0  0  0  0  0  0  0  0999 V2000
   -2.4091    0.7012    0.1330 C   0  0  0  0  0  0  0  0  0  0  0  0
   -3.7112    0.3269    0.4448 N   0  0  0  0  0  0  0  0  0  0  0  0
   -4.7700    0.0736    0.6876 N   0  0  0  0  0  0  0  0  0  0  0  0
   -2.2203    2.0574   -0.1908 C   0  0  0  0  0  0  0  0  0  0  0  0
   -0.8683    2.3304   -0.4951 C   0  0  0  0  0  0  0  0  0  0  0  0
    0.1325    1.3614   -0.4700 C   0  0  0  0  0  0  0  0  0  0  0  0
   -0.1497    0.0216   -0.1302 C   0  0  0  0  0  0  0  0  0  0  0  0
   -1.4447   -0.3366    0.1812 C   0  0  0  0  0  0  0  0  0  0  0  0
   -3.4145    3.1897   -0.2201 H   0  0  0  0  0  0  0  0  0  0  0  0
   -0.5921    3.3478   -0.7647 H   0  0  0  0  0  0  0  0  0  0  0  0
    1.1558    1.6345   -0.7169 H   0  0  0  0  0  0  0  0  0  0  0  0
    0.6409   -0.7212   -0.1135 H   0  0  0  0  0  0  0  0  0  0  0  0
   -1.7152   -1.3531    0.4502 H   0  0  0  0  0  0  0  0  0  0  0  0
   -7.0283    5.3437    1.1445 C   0  0  0  0  0  0  0  0  0  0  0  0
   -7.8936    6.4336    1.0604 C   0  0  0  0  0  0  0  0  0  0  0  0
   -8.4396    6.8329   -0.1668 C   0  0  0  0  0  0  0  0  0  0  0  0
   -8.1058    6.1017   -1.3172 C   0  0  0  0  0  0  0  0  0  0  0  0
   -7.2442    5.0099   -1.2515 C   0  0  0  0  0  0  0  0  0  0  0  0
   -6.7063    4.6431   -0.0168 C   0  0  0  0  0  0  0  0  0  0  0  0
   -6.6162    5.0242    2.0950 H   0  0  0  0  0  0  0  0  0  0  0  0
   -8.1538    6.9796    1.9634 H   0  0  0  0  0  0  0  0  0  0  0  0
   -8.5322    6.3881   -2.2751 H   0  0  0  0  0  0  0  0  0  0  0  0
   -6.9992    4.4341   -2.1374 H   0  0  0  0  0  0  0  0  0  0  0  0
   -5.5943    3.2502    0.0768 S   0  0  0  0  0  0  0  0  0  0  0  0
   -5.5963    2.7351    1.4586 O   0  0  0  0  0  0  0  0  0  0  0  0
   -4.2143    3.9430   -0.2411 O   0  0  0  0  0  0  0  0  0  0  0  0
   -5.9376    2.2924   -0.9885 O   0  0  0  0  0  0  0  0  0  0  0  0
   -9.3541    8.0311   -0.2563 C   0  0  0  0  0  0  0  0  0  0  0  0
  -10.1754    7.8566   -0.9584 H   0  0  0  0  0  0  0  0  0  0  0  0
   -9.7853    8.2799    0.7169 H   0  0  0  0  0  0  0  0  0  0  0  0
   -8.8096    8.9157   -0.6096 H   0  0  0  0  0  0  0  0  0  0  0  0
  1  8  1  0  0  0  0
  1  2  1  0  0  0  0
  2  3  1  0  0  0  0
  4  1  2  0  0  0  0
  5  6  2  0  0  0  0
  5  4  1  0  0  0  0
  6  7  1  0  0  0  0
  7 12  1  0  0  0  0
  7  8  2  0  0  0  0
  8 13  1  0  0  0  0
 10  5  1  0  0  0  0
 11  6  1  0  0  0  0
 14 20  1  0  0  0  0
 15 14  1  0  0  0  0
 15 21  1  0  0  0  0
 16 15  2  0  0  0  0
 17 18  2  0  0  0  0
 17 16  1  0  0  0  0
 18 19  1  0  0  0  0
 19 24  1  0  0  0  0
 19 14  2  0  0  0  0
 22 17  1  0  0  0  0
 23 18  1  0  0  0  0
 24 25  2  0  0  0  0
 26  9  1  0  0  0  0
 26 24  1  0  0  0  0
 27 24  2  0  0  0  0
 28 16  1  0  0  0  0
 28 30  1  0  0  0  0
 29 28  1  0  0  0  0
 31 28  1  0  0  0  0
M  RAD  3   2   2   3   3   4   2
M  END
