Coordinates from ORCA-job PhN2+~TsO-_B3LYPG-6-31G_dp-CH-Scan-d09-49-n800
 OpenBabel11261919273D

 31 31  0  0  0  0  0  0  0  0999 V2000
   -1.9502    0.4851    0.0959 C   0  0  0  0  0  0  0  0  0  0  0  0
   -3.3211    0.6128    0.3286 N   0  0  0  0  0  0  0  0  0  0  0  0
   -4.4156    0.7626    0.5005 N   0  0  0  0  0  0  0  0  0  0  0  0
   -1.3363    1.6936   -0.2675 C   0  0  0  0  0  0  0  0  0  0  0  0
    0.0528    1.4615   -0.4874 C   0  0  0  0  0  0  0  0  0  0  0  0
    0.6673    0.2203   -0.3556 C   0  0  0  0  0  0  0  0  0  0  0  0
   -0.0632   -0.9339    0.0206 C   0  0  0  0  0  0  0  0  0  0  0  0
   -1.4147   -0.8218    0.2589 C   0  0  0  0  0  0  0  0  0  0  0  0
   -3.3073    4.9705   -0.6027 H   0  0  0  0  0  0  0  0  0  0  0  0
    0.6839    2.3024   -0.7799 H   0  0  0  0  0  0  0  0  0  0  0  0
    1.7352    0.1180   -0.5444 H   0  0  0  0  0  0  0  0  0  0  0  0
    0.4353   -1.8929    0.1202 H   0  0  0  0  0  0  0  0  0  0  0  0
   -2.0271   -1.6708    0.5511 H   0  0  0  0  0  0  0  0  0  0  0  0
   -7.1630    5.7703    1.1103 C   0  0  0  0  0  0  0  0  0  0  0  0
   -8.3137    6.5564    1.1011 C   0  0  0  0  0  0  0  0  0  0  0  0
   -9.0214    6.7924   -0.0857 C   0  0  0  0  0  0  0  0  0  0  0  0
   -8.5542    6.2087   -1.2737 C   0  0  0  0  0  0  0  0  0  0  0  0
   -7.4074    5.4201   -1.2859 C   0  0  0  0  0  0  0  0  0  0  0  0
   -6.7190    5.2144   -0.0889 C   0  0  0  0  0  0  0  0  0  0  0  0
   -6.6215    5.5766    2.0296 H   0  0  0  0  0  0  0  0  0  0  0  0
   -8.6699    6.9902    2.0310 H   0  0  0  0  0  0  0  0  0  0  0  0
   -9.0991    6.3707   -2.1998 H   0  0  0  0  0  0  0  0  0  0  0  0
   -7.0538    4.9578   -2.2007 H   0  0  0  0  0  0  0  0  0  0  0  0
   -5.2531    4.2061   -0.0910 S   0  0  0  0  0  0  0  0  0  0  0  0
   -4.9911    3.7152    1.2611 O   0  0  0  0  0  0  0  0  0  0  0  0
   -4.1726    5.3899   -0.4489 O   0  0  0  0  0  0  0  0  0  0  0  0
   -5.2958    3.2639   -1.2093 O   0  0  0  0  0  0  0  0  0  0  0  0
  -10.2498    7.6699   -0.0939 C   0  0  0  0  0  0  0  0  0  0  0  0
  -11.0184    7.2750   -0.7653 H   0  0  0  0  0  0  0  0  0  0  0  0
  -10.6829    7.7631    0.9054 H   0  0  0  0  0  0  0  0  0  0  0  0
  -10.0043    8.6808   -0.4418 H   0  0  0  0  0  0  0  0  0  0  0  0
  1  8  1  0  0  0  0
  1  2  1  0  0  0  0
  2  3  1  0  0  0  0
  4  1  2  0  0  0  0
  5  6  2  0  0  0  0
  5  4  1  0  0  0  0
  6  7  1  0  0  0  0
  7 12  1  0  0  0  0
  7  8  2  0  0  0  0
  8 13  1  0  0  0  0
  9 26  1  0  0  0  0
 10  5  1  0  0  0  0
 11  6  1  0  0  0  0
 14 20  1  0  0  0  0
 15 14  1  0  0  0  0
 15 21  1  0  0  0  0
 16 15  2  0  0  0  0
 17 16  1  0  0  0  0
 18 17  2  0  0  0  0
 18 19  1  0  0  0  0
 19 14  2  0  0  0  0
 22 17  1  0  0  0  0
 23 18  1  0  0  0  0
 24 19  1  0  0  0  0
 24 25  2  0  0  0  0
 26 24  1  0  0  0  0
 27 24  2  0  0  0  0
 28 16  1  0  0  0  0
 28 30  1  0  0  0  0
 29 28  1  0  0  0  0
 31 28  1  0  0  0  0
M  RAD  3   2   2   3   3   4   2
M  END
