Coordinates from ORCA-job PhN2+~TsO-_B3LYPG-6-31G_dp-CH-Scan-d09-49-n800
 OpenBabel11261919273D

 31 31  0  0  0  0  0  0  0  0999 V2000
   -2.3392    0.6597    0.1333 C   0  0  0  0  0  0  0  0  0  0  0  0
   -3.6524    0.3145    0.4340 N   0  0  0  0  0  0  0  0  0  0  0  0
   -4.7178    0.0789    0.6680 N   0  0  0  0  0  0  0  0  0  0  0  0
   -2.1341    2.0104   -0.2037 C   0  0  0  0  0  0  0  0  0  0  0  0
   -0.7689    2.2497   -0.4958 C   0  0  0  0  0  0  0  0  0  0  0  0
    0.2141    1.2644   -0.4479 C   0  0  0  0  0  0  0  0  0  0  0  0
   -0.0935   -0.0679   -0.0947 C   0  0  0  0  0  0  0  0  0  0  0  0
   -1.3971   -0.3991    0.2066 C   0  0  0  0  0  0  0  0  0  0  0  0
   -3.4806    3.3512   -0.2687 H   0  0  0  0  0  0  0  0  0  0  0  0
   -0.4654    3.2572   -0.7755 H   0  0  0  0  0  0  0  0  0  0  0  0
    1.2451    1.5163   -0.6873 H   0  0  0  0  0  0  0  0  0  0  0  0
    0.6846   -0.8232   -0.0605 H   0  0  0  0  0  0  0  0  0  0  0  0
   -1.6893   -1.4073    0.4853 H   0  0  0  0  0  0  0  0  0  0  0  0
   -7.0491    5.3793    1.1319 C   0  0  0  0  0  0  0  0  0  0  0  0
   -7.9286    6.4586    1.0632 C   0  0  0  0  0  0  0  0  0  0  0  0
   -8.4972    6.8541   -0.1552 C   0  0  0  0  0  0  0  0  0  0  0  0
   -8.1715    6.1306   -1.3128 C   0  0  0  0  0  0  0  0  0  0  0  0
   -7.2962    5.0491   -1.2633 C   0  0  0  0  0  0  0  0  0  0  0  0
   -6.7366    4.6869   -0.0369 C   0  0  0  0  0  0  0  0  0  0  0  0
   -6.6189    5.0631    2.0755 H   0  0  0  0  0  0  0  0  0  0  0  0
   -8.1820    6.9991    1.9712 H   0  0  0  0  0  0  0  0  0  0  0  0
   -8.6149    6.4149   -2.2635 H   0  0  0  0  0  0  0  0  0  0  0  0
   -7.0567    4.4794   -2.1545 H   0  0  0  0  0  0  0  0  0  0  0  0
   -5.6151    3.3028    0.0383 S   0  0  0  0  0  0  0  0  0  0  0  0
   -5.5797    2.7867    1.4152 O   0  0  0  0  0  0  0  0  0  0  0  0
   -4.2419    4.0475   -0.2938 O   0  0  0  0  0  0  0  0  0  0  0  0
   -5.9412    2.3560   -1.0368 O   0  0  0  0  0  0  0  0  0  0  0  0
   -9.4271    8.0413   -0.2276 C   0  0  0  0  0  0  0  0  0  0  0  0
  -10.2519    7.8620   -0.9242 H   0  0  0  0  0  0  0  0  0  0  0  0
   -9.8528    8.2776    0.7511 H   0  0  0  0  0  0  0  0  0  0  0  0
   -8.8959    8.9347   -0.5787 H   0  0  0  0  0  0  0  0  0  0  0  0
  1  8  1  0  0  0  0
  1  2  1  0  0  0  0
  2  3  1  0  0  0  0
  4  1  2  0  0  0  0
  5  6  2  0  0  0  0
  5  4  1  0  0  0  0
  6  7  1  0  0  0  0
  7 12  1  0  0  0  0
  7  8  2  0  0  0  0
  8 13  1  0  0  0  0
 10  5  1  0  0  0  0
 11  6  1  0  0  0  0
 14 20  1  0  0  0  0
 15 14  1  0  0  0  0
 15 21  1  0  0  0  0
 16 15  2  0  0  0  0
 17 18  2  0  0  0  0
 17 16  1  0  0  0  0
 18 19  1  0  0  0  0
 19 24  1  0  0  0  0
 19 14  2  0  0  0  0
 22 17  1  0  0  0  0
 23 18  1  0  0  0  0
 24 25  2  0  0  0  0
 26  9  1  0  0  0  0
 26 24  1  0  0  0  0
 27 24  2  0  0  0  0
 28 16  1  0  0  0  0
 28 30  1  0  0  0  0
 29 28  1  0  0  0  0
 31 28  1  0  0  0  0
M  RAD  3   2   2   3   3   4   2
M  END
