Coordinates from ORCA-job PhN2+~TsO-_B3LYPG-6-31G_dp-CH-Scan-d09-49-n800
 OpenBabel11261919273D

 31 31  0  0  0  0  0  0  0  0999 V2000
   -2.7519    0.8292   -0.0109 C   0  0  0  0  0  0  0  0  0  0  0  0
   -4.1279    0.8580    0.2612 N   0  0  0  0  0  0  0  0  0  0  0  0
   -5.1242    1.4238    0.1824 N   0  0  0  0  0  0  0  0  0  0  0  0
   -2.1313    1.8911   -0.6908 C   0  0  0  0  0  0  0  0  0  0  0  0
   -0.7609    1.7844   -0.9138 C   0  0  0  0  0  0  0  0  0  0  0  0
   -0.0435    0.6660   -0.4787 C   0  0  0  0  0  0  0  0  0  0  0  0
   -0.6874   -0.3762    0.1960 C   0  0  0  0  0  0  0  0  0  0  0  0
   -2.0545   -0.3001    0.4366 C   0  0  0  0  0  0  0  0  0  0  0  0
   -2.6053    2.6053   -0.9651 H   0  0  0  0  0  0  0  0  0  0  0  0
   -0.2524    2.5918   -1.4313 H   0  0  0  0  0  0  0  0  0  0  0  0
    1.0244    0.6063   -0.6656 H   0  0  0  0  0  0  0  0  0  0  0  0
   -0.1266   -1.2413    0.5339 H   0  0  0  0  0  0  0  0  0  0  0  0
   -2.5864   -1.0875    0.9592 H   0  0  0  0  0  0  0  0  0  0  0  0
   -7.1637    4.9383    1.0092 C   0  0  0  0  0  0  0  0  0  0  0  0
   -8.3762    5.6229    0.9511 C   0  0  0  0  0  0  0  0  0  0  0  0
   -8.6288    6.5662   -0.0554 C   0  0  0  0  0  0  0  0  0  0  0  0
   -7.6238    6.8172   -1.0001 C   0  0  0  0  0  0  0  0  0  0  0  0
   -6.4055    6.1416   -0.9547 C   0  0  0  0  0  0  0  0  0  0  0  0
   -6.1845    5.1987    0.0498 C   0  0  0  0  0  0  0  0  0  0  0  0
   -6.9612    4.2228    1.7988 H   0  0  0  0  0  0  0  0  0  0  0  0
   -9.1368    5.4270    1.7034 H   0  0  0  0  0  0  0  0  0  0  0  0
   -7.7957    7.5570   -1.7782 H   0  0  0  0  0  0  0  0  0  0  0  0
   -5.6213    6.3514   -1.6742 H   0  0  0  0  0  0  0  0  0  0  0  0
   -4.6350    4.2977    0.0935 S   0  0  0  0  0  0  0  0  0  0  0  0
   -4.4320    3.8208    1.4756 O   0  0  0  0  0  0  0  0  0  0  0  0
   -3.6043    5.1631   -0.5048 O   0  0  0  0  0  0  0  0  0  0  0  0
   -4.8646    3.0798   -0.8557 O   0  0  0  0  0  0  0  0  0  0  0  0
   -9.9578    7.2810   -0.1282 C   0  0  0  0  0  0  0  0  0  0  0  0
  -10.6970    6.6840   -0.6774 H   0  0  0  0  0  0  0  0  0  0  0  0
  -10.3673    7.4665    0.8692 H   0  0  0  0  0  0  0  0  0  0  0  0
   -9.8684    8.2421   -0.6426 H   0  0  0  0  0  0  0  0  0  0  0  0
  1  2  1  0  0  0  0
  1  8  2  0  0  0  0
  3  2  2  0  0  0  0
  4  1  1  0  0  0  0
  5  4  2  0  0  0  0
  5  6  1  0  0  0  0
  6  7  2  0  0  0  0
  7  8  1  0  0  0  0
  7 12  1  0  0  0  0
  8 13  1  0  0  0  0
  9  4  1  0  0  0  0
 10  5  1  0  0  0  0
 11  6  1  0  0  0  0
 14 20  1  0  0  0  0
 15 14  1  0  0  0  0
 15 21  1  0  0  0  0
 16 15  2  0  0  0  0
 17 18  2  0  0  0  0
 17 16  1  0  0  0  0
 18 19  1  0  0  0  0
 19 24  1  0  0  0  0
 19 14  2  0  0  0  0
 22 17  1  0  0  0  0
 23 18  1  0  0  0  0
 24 25  1  0  0  0  0
 26 24  2  0  0  0  0
 27 24  2  0  0  0  0
 28 16  1  0  0  0  0
 28 30  1  0  0  0  0
 29 28  1  0  0  0  0
 31 28  1  0  0  0  0
M  RAD  2   3   2  25   2
M  END
