Coordinates from ORCA-job PhN2+~TsO-_B3LYPG-6-31G_dp-CH-Scan-d09-49-n800
 OpenBabel11261919283D

 31 31  0  0  0  0  0  0  0  0999 V2000
   -1.9067    0.4781    0.0824 C   0  0  0  0  0  0  0  0  0  0  0  0
   -3.2737    0.6803    0.2862 N   0  0  0  0  0  0  0  0  0  0  0  0
   -4.3618    0.8902    0.4358 N   0  0  0  0  0  0  0  0  0  0  0  0
   -1.2249    1.6506   -0.2766 C   0  0  0  0  0  0  0  0  0  0  0  0
    0.1553    1.3448   -0.4638 C   0  0  0  0  0  0  0  0  0  0  0  0
    0.7018    0.0748   -0.3092 C   0  0  0  0  0  0  0  0  0  0  0  0
   -0.0956   -1.0374    0.0588 C   0  0  0  0  0  0  0  0  0  0  0  0
   -1.4442   -0.8538    0.2666 C   0  0  0  0  0  0  0  0  0  0  0  0
   -3.3025    5.2027   -0.7216 H   0  0  0  0  0  0  0  0  0  0  0  0
    0.8355    2.1495   -0.7481 H   0  0  0  0  0  0  0  0  0  0  0  0
    1.7669   -0.0842   -0.4733 H   0  0  0  0  0  0  0  0  0  0  0  0
    0.3505   -2.0199    0.1760 H   0  0  0  0  0  0  0  0  0  0  0  0
   -2.1060   -1.6677    0.5513 H   0  0  0  0  0  0  0  0  0  0  0  0
   -7.1607    5.8128    1.1001 C   0  0  0  0  0  0  0  0  0  0  0  0
   -8.3469    6.5444    1.1122 C   0  0  0  0  0  0  0  0  0  0  0  0
   -9.0768    6.7623   -0.0644 C   0  0  0  0  0  0  0  0  0  0  0  0
   -8.5946    6.2169   -1.2646 C   0  0  0  0  0  0  0  0  0  0  0  0
   -7.4125    5.4832   -1.2984 C   0  0  0  0  0  0  0  0  0  0  0  0
   -6.7035    5.2939   -0.1105 C   0  0  0  0  0  0  0  0  0  0  0  0
   -6.6016    5.6326    2.0116 H   0  0  0  0  0  0  0  0  0  0  0  0
   -8.7136    6.9490    2.0512 H   0  0  0  0  0  0  0  0  0  0  0  0
   -9.1558    6.3654   -2.1833 H   0  0  0  0  0  0  0  0  0  0  0  0
   -7.0473    5.0498   -2.2227 H   0  0  0  0  0  0  0  0  0  0  0  0
   -5.1932    4.3541   -0.1394 S   0  0  0  0  0  0  0  0  0  0  0  0
   -4.8902    3.8698    1.2058 O   0  0  0  0  0  0  0  0  0  0  0  0
   -4.1708    5.5878   -0.5077 O   0  0  0  0  0  0  0  0  0  0  0  0
   -5.2045    3.4190   -1.2645 O   0  0  0  0  0  0  0  0  0  0  0  0
  -10.3461    7.5795   -0.0490 C   0  0  0  0  0  0  0  0  0  0  0  0
  -11.1066    7.1481   -0.7070 H   0  0  0  0  0  0  0  0  0  0  0  0
  -10.7652    7.6505    0.9581 H   0  0  0  0  0  0  0  0  0  0  0  0
  -10.1564    8.6014   -0.3998 H   0  0  0  0  0  0  0  0  0  0  0  0
  1  8  1  0  0  0  0
  1  2  1  0  0  0  0
  2  3  1  0  0  0  0
  4  1  2  0  0  0  0
  5  6  2  0  0  0  0
  5  4  1  0  0  0  0
  6  7  1  0  0  0  0
  7 12  1  0  0  0  0
  7  8  2  0  0  0  0
  8 13  1  0  0  0  0
  9 26  1  0  0  0  0
 10  5  1  0  0  0  0
 11  6  1  0  0  0  0
 14 15  1  0  0  0  0
 14 20  1  0  0  0  0
 15 21  1  0  0  0  0
 16 28  1  0  0  0  0
 16 15  2  0  0  0  0
 17 16  1  0  0  0  0
 18 17  2  0  0  0  0
 18 19  1  0  0  0  0
 19 14  2  0  0  0  0
 22 17  1  0  0  0  0
 23 18  1  0  0  0  0
 24 19  1  0  0  0  0
 24 25  2  0  0  0  0
 26 24  1  0  0  0  0
 27 24  2  0  0  0  0
 28 30  1  0  0  0  0
 29 28  1  0  0  0  0
 31 28  1  0  0  0  0
M  RAD  3   2   2   3   3   4   2
M  END
