Coordinates from ORCA-job PhN2+~TsO-_B3LYPG-6-31G_dp-CH-Scan-d09-49-n800
 OpenBabel11261919273D

 31 31  0  0  0  0  0  0  0  0999 V2000
   -1.9611    0.4873    0.0970 C   0  0  0  0  0  0  0  0  0  0  0  0
   -3.3329    0.5975    0.3322 N   0  0  0  0  0  0  0  0  0  0  0  0
   -4.4286    0.7335    0.5072 N   0  0  0  0  0  0  0  0  0  0  0  0
   -1.3623    1.7038   -0.2655 C   0  0  0  0  0  0  0  0  0  0  0  0
    0.0288    1.4893   -0.4891 C   0  0  0  0  0  0  0  0  0  0  0  0
    0.6588    0.2554   -0.3607 C   0  0  0  0  0  0  0  0  0  0  0  0
   -0.0567   -0.9082    0.0153 C   0  0  0  0  0  0  0  0  0  0  0  0
   -1.4090   -0.8130    0.2567 C   0  0  0  0  0  0  0  0  0  0  0  0
   -3.3107    4.9140   -0.5830 H   0  0  0  0  0  0  0  0  0  0  0  0
    0.6489    2.3382   -0.7816 H   0  0  0  0  0  0  0  0  0  0  0  0
    1.7273    0.1666   -0.5521 H   0  0  0  0  0  0  0  0  0  0  0  0
    0.4537   -1.8612    0.1122 H   0  0  0  0  0  0  0  0  0  0  0  0
   -2.0102   -1.6700    0.5488 H   0  0  0  0  0  0  0  0  0  0  0  0
   -7.1611    5.7600    1.1113 C   0  0  0  0  0  0  0  0  0  0  0  0
   -8.3030    6.5587    1.0990 C   0  0  0  0  0  0  0  0  0  0  0  0
   -9.0073    6.7989   -0.0890 C   0  0  0  0  0  0  0  0  0  0  0  0
   -8.5458    6.2065   -1.2749 C   0  0  0  0  0  0  0  0  0  0  0  0
   -7.4077    5.4053   -1.2840 C   0  0  0  0  0  0  0  0  0  0  0  0
   -6.7224    5.1956   -0.0859 C   0  0  0  0  0  0  0  0  0  0  0  0
   -6.6223    5.5631    2.0316 H   0  0  0  0  0  0  0  0  0  0  0  0
   -8.6551    6.9991    2.0273 H   0  0  0  0  0  0  0  0  0  0  0  0
   -9.0883    6.3718   -2.2019 H   0  0  0  0  0  0  0  0  0  0  0  0
   -7.0586    4.9364   -2.1971 H   0  0  0  0  0  0  0  0  0  0  0  0
   -5.2676    4.1712   -0.0839 S   0  0  0  0  0  0  0  0  0  0  0  0
   -5.0140    3.6785    1.2692 O   0  0  0  0  0  0  0  0  0  0  0  0
   -4.1737    5.3423   -0.4403 O   0  0  0  0  0  0  0  0  0  0  0  0
   -5.3195    3.2279   -1.2010 O   0  0  0  0  0  0  0  0  0  0  0  0
  -10.2258    7.6900   -0.1007 C   0  0  0  0  0  0  0  0  0  0  0  0
  -10.9971    7.3035   -0.7738 H   0  0  0  0  0  0  0  0  0  0  0  0
  -10.6603    7.7886    0.8975 H   0  0  0  0  0  0  0  0  0  0  0  0
   -9.9682    8.6980   -0.4485 H   0  0  0  0  0  0  0  0  0  0  0  0
  1  8  1  0  0  0  0
  1  2  1  0  0  0  0
  2  3  1  0  0  0  0
  4  1  2  0  0  0  0
  5  6  2  0  0  0  0
  5  4  1  0  0  0  0
  6  7  1  0  0  0  0
  7 12  1  0  0  0  0
  7  8  2  0  0  0  0
  8 13  1  0  0  0  0
  9 26  1  0  0  0  0
 10  5  1  0  0  0  0
 11  6  1  0  0  0  0
 14 20  1  0  0  0  0
 15 14  1  0  0  0  0
 15 21  1  0  0  0  0
 16 15  2  0  0  0  0
 17 16  1  0  0  0  0
 18 17  2  0  0  0  0
 18 19  1  0  0  0  0
 19 24  1  0  0  0  0
 19 14  2  0  0  0  0
 22 17  1  0  0  0  0
 23 18  1  0  0  0  0
 24 25  2  0  0  0  0
 26 24  1  0  0  0  0
 27 24  2  0  0  0  0
 28 16  1  0  0  0  0
 28 30  1  0  0  0  0
 29 28  1  0  0  0  0
 31 28  1  0  0  0  0
M  RAD  3   2   2   3   3   4   2
M  END
