Coordinates from ORCA-job PhN2+~TsO-_B3LYPG-6-31G_dp-CH-Scan-d09-49-n800
 OpenBabel11261919273D

 31 31  0  0  0  0  0  0  0  0999 V2000
   -2.2230    0.6008    0.1145 C   0  0  0  0  0  0  0  0  0  0  0  0
   -3.5641    0.3499    0.3884 N   0  0  0  0  0  0  0  0  0  0  0  0
   -4.6483    0.1872    0.6004 N   0  0  0  0  0  0  0  0  0  0  0  0
   -1.9321    1.9347   -0.2228 C   0  0  0  0  0  0  0  0  0  0  0  0
   -0.5448    2.0796   -0.4866 C   0  0  0  0  0  0  0  0  0  0  0  0
    0.3705    1.0331   -0.4138 C   0  0  0  0  0  0  0  0  0  0  0  0
   -0.0297   -0.2765   -0.0617 C   0  0  0  0  0  0  0  0  0  0  0  0
   -1.3572   -0.5209    0.2135 C   0  0  0  0  0  0  0  0  0  0  0  0
   -3.4837    3.6784   -0.3343 H   0  0  0  0  0  0  0  0  0  0  0  0
   -0.1658    3.0624   -0.7647 H   0  0  0  0  0  0  0  0  0  0  0  0
    1.4210    1.2154   -0.6323 H   0  0  0  0  0  0  0  0  0  0  0  0
    0.6978   -1.0799   -0.0085 H   0  0  0  0  0  0  0  0  0  0  0  0
   -1.7207   -1.5066    0.4899 H   0  0  0  0  0  0  0  0  0  0  0  0
   -7.0902    5.4748    1.1250 C   0  0  0  0  0  0  0  0  0  0  0  0
   -8.0209    6.5105    1.0692 C   0  0  0  0  0  0  0  0  0  0  0  0
   -8.6308    6.8733   -0.1397 C   0  0  0  0  0  0  0  0  0  0  0  0
   -8.2941    6.1611   -1.3011 C   0  0  0  0  0  0  0  0  0  0  0  0
   -7.3676    5.1224   -1.2655 C   0  0  0  0  0  0  0  0  0  0  0  0
   -6.7687    4.7937   -0.0484 C   0  0  0  0  0  0  0  0  0  0  0  0
   -6.6268    5.1844    2.0611 H   0  0  0  0  0  0  0  0  0  0  0  0
   -8.2818    7.0427    1.9799 H   0  0  0  0  0  0  0  0  0  0  0  0
   -8.7683    6.4203   -2.2439 H   0  0  0  0  0  0  0  0  0  0  0  0
   -7.1178    4.5617   -2.1595 H   0  0  0  0  0  0  0  0  0  0  0  0
   -5.5835    3.4648    0.0106 S   0  0  0  0  0  0  0  0  0  0  0  0
   -5.4899    2.9552    1.3833 O   0  0  0  0  0  0  0  0  0  0  0  0
   -4.2512    4.3101   -0.3416 O   0  0  0  0  0  0  0  0  0  0  0  0
   -5.8586    2.5139   -1.0711 O   0  0  0  0  0  0  0  0  0  0  0  0
   -9.6151    8.0163   -0.1977 C   0  0  0  0  0  0  0  0  0  0  0  0
  -10.4292    7.8087   -0.8987 H   0  0  0  0  0  0  0  0  0  0  0  0
  -10.0525    8.2193    0.7834 H   0  0  0  0  0  0  0  0  0  0  0  0
   -9.1247    8.9378   -0.5351 H   0  0  0  0  0  0  0  0  0  0  0  0
  1  8  1  0  0  0  0
  1  2  1  0  0  0  0
  2  3  1  0  0  0  0
  4  1  2  0  0  0  0
  5  6  2  0  0  0  0
  5  4  1  0  0  0  0
  6  7  1  0  0  0  0
  7 12  1  0  0  0  0
  7  8  2  0  0  0  0
  8 13  1  0  0  0  0
 10  5  1  0  0  0  0
 11  6  1  0  0  0  0
 14 20  1  0  0  0  0
 15 14  1  0  0  0  0
 15 21  1  0  0  0  0
 16 15  2  0  0  0  0
 17 18  2  0  0  0  0
 17 16  1  0  0  0  0
 18 19  1  0  0  0  0
 19 24  1  0  0  0  0
 19 14  2  0  0  0  0
 22 17  1  0  0  0  0
 23 18  1  0  0  0  0
 24 25  2  0  0  0  0
 26  9  1  0  0  0  0
 26 24  1  0  0  0  0
 27 24  2  0  0  0  0
 28 16  1  0  0  0  0
 28 30  1  0  0  0  0
 29 28  1  0  0  0  0
 31 28  1  0  0  0  0
M  RAD  3   2   2   3   3   4   2
M  END
