Coordinates from ORCA-job PhN2+~TsO-_B3LYPG-6-31G_dp-CH-Scan-d09-49-n800
 OpenBabel11261919273D

 31 31  0  0  0  0  0  0  0  0999 V2000
   -2.7041    0.8092    0.0223 C   0  0  0  0  0  0  0  0  0  0  0  0
   -4.0642    0.8444    0.3619 N   0  0  0  0  0  0  0  0  0  0  0  0
   -5.0704    1.3938    0.3362 N   0  0  0  0  0  0  0  0  0  0  0  0
   -2.1177    1.8618   -0.7004 C   0  0  0  0  0  0  0  0  0  0  0  0
   -0.7601    1.7558   -0.9907 C   0  0  0  0  0  0  0  0  0  0  0  0
   -0.0223    0.6420   -0.5779 C   0  0  0  0  0  0  0  0  0  0  0  0
   -0.6310   -0.3927    0.1405 C   0  0  0  0  0  0  0  0  0  0  0  0
   -1.9842   -0.3149    0.4485 C   0  0  0  0  0  0  0  0  0  0  0  0
   -2.6756    2.6654   -0.9896 H   0  0  0  0  0  0  0  0  0  0  0  0
   -0.2779    2.5566   -1.5421 H   0  0  0  0  0  0  0  0  0  0  0  0
    1.0351    0.5796   -0.8166 H   0  0  0  0  0  0  0  0  0  0  0  0
   -0.0529   -1.2531    0.4603 H   0  0  0  0  0  0  0  0  0  0  0  0
   -2.4879   -1.0963    1.0067 H   0  0  0  0  0  0  0  0  0  0  0  0
   -7.2346    4.9365    1.0185 C   0  0  0  0  0  0  0  0  0  0  0  0
   -8.4380    5.6321    0.9208 C   0  0  0  0  0  0  0  0  0  0  0  0
   -8.6430    6.5890   -0.0840 C   0  0  0  0  0  0  0  0  0  0  0  0
   -7.5996    6.8415   -0.9853 C   0  0  0  0  0  0  0  0  0  0  0  0
   -6.3895    6.1545   -0.8998 C   0  0  0  0  0  0  0  0  0  0  0  0
   -6.2160    5.1988    0.1013 C   0  0  0  0  0  0  0  0  0  0  0  0
   -7.0698    4.2107    1.8077 H   0  0  0  0  0  0  0  0  0  0  0  0
   -9.2290    5.4339    1.6405 H   0  0  0  0  0  0  0  0  0  0  0  0
   -7.7339    7.5915   -1.7610 H   0  0  0  0  0  0  0  0  0  0  0  0
   -5.5760    6.3655   -1.5856 H   0  0  0  0  0  0  0  0  0  0  0  0
   -4.6771    4.2832    0.1960 S   0  0  0  0  0  0  0  0  0  0  0  0
   -4.5118    3.8262    1.5900 O   0  0  0  0  0  0  0  0  0  0  0  0
   -3.6235    5.1323   -0.3876 O   0  0  0  0  0  0  0  0  0  0  0  0
   -4.8977    3.0556   -0.7395 O   0  0  0  0  0  0  0  0  0  0  0  0
   -9.9619    7.3165   -0.1999 C   0  0  0  0  0  0  0  0  0  0  0  0
  -10.6965    6.7159   -0.7514 H   0  0  0  0  0  0  0  0  0  0  0  0
  -10.3902    7.5277    0.7845 H   0  0  0  0  0  0  0  0  0  0  0  0
   -9.8508    8.2655   -0.7321 H   0  0  0  0  0  0  0  0  0  0  0  0
  1  2  1  0  0  0  0
  1  8  2  0  0  0  0
  3  2  2  0  0  0  0
  4  1  1  0  0  0  0
  5  4  2  0  0  0  0
  5  6  1  0  0  0  0
  6  7  2  0  0  0  0
  7  8  1  0  0  0  0
  7 12  1  0  0  0  0
  8 13  1  0  0  0  0
  9  4  1  0  0  0  0
 10  5  1  0  0  0  0
 11  6  1  0  0  0  0
 14 20  1  0  0  0  0
 15 14  1  0  0  0  0
 15 21  1  0  0  0  0
 16 15  2  0  0  0  0
 17 18  2  0  0  0  0
 17 16  1  0  0  0  0
 18 19  1  0  0  0  0
 19 24  1  0  0  0  0
 19 14  2  0  0  0  0
 22 17  1  0  0  0  0
 23 18  1  0  0  0  0
 24 25  1  0  0  0  0
 26 24  2  0  0  0  0
 27 24  2  0  0  0  0
 28 16  1  0  0  0  0
 28 30  1  0  0  0  0
 29 28  1  0  0  0  0
 31 28  1  0  0  0  0
M  RAD  2   3   2  25   2
M  END
