Coordinates from ORCA-job PhN2+~TsO-_B3LYPG-6-31G_dp-CH-Scan-d09-49-n800
 OpenBabel11261919273D

 31 31  0  0  0  0  0  0  0  0999 V2000
   -2.3445    0.6620    0.1298 C   0  0  0  0  0  0  0  0  0  0  0  0
   -3.6577    0.3142    0.4274 N   0  0  0  0  0  0  0  0  0  0  0  0
   -4.7232    0.0768    0.6589 N   0  0  0  0  0  0  0  0  0  0  0  0
   -2.1401    2.0138   -0.2032 C   0  0  0  0  0  0  0  0  0  0  0  0
   -0.7750    2.2559   -0.4926 C   0  0  0  0  0  0  0  0  0  0  0  0
    0.2092    1.2717   -0.4458 C   0  0  0  0  0  0  0  0  0  0  0  0
   -0.0973   -0.0619   -0.0966 C   0  0  0  0  0  0  0  0  0  0  0  0
   -1.4010   -0.3956    0.2017 C   0  0  0  0  0  0  0  0  0  0  0  0
   -3.4781    3.3418   -0.2665 H   0  0  0  0  0  0  0  0  0  0  0  0
   -0.4728    3.2645   -0.7692 H   0  0  0  0  0  0  0  0  0  0  0  0
    1.2402    1.5256   -0.6829 H   0  0  0  0  0  0  0  0  0  0  0  0
    0.6817   -0.8163   -0.0632 H   0  0  0  0  0  0  0  0  0  0  0  0
   -1.6922   -1.4050    0.4772 H   0  0  0  0  0  0  0  0  0  0  0  0
   -7.0453    5.3795    1.1333 C   0  0  0  0  0  0  0  0  0  0  0  0
   -7.9240    6.4593    1.0628 C   0  0  0  0  0  0  0  0  0  0  0  0
   -8.4931    6.8526   -0.1560 C   0  0  0  0  0  0  0  0  0  0  0  0
   -8.1689    6.1262   -1.3122 C   0  0  0  0  0  0  0  0  0  0  0  0
   -7.2944    5.0440   -1.2609 C   0  0  0  0  0  0  0  0  0  0  0  0
   -6.7342    4.6841   -0.0341 C   0  0  0  0  0  0  0  0  0  0  0  0
   -6.6146    5.0650    2.0773 H   0  0  0  0  0  0  0  0  0  0  0  0
   -8.1763    7.0021    1.9698 H   0  0  0  0  0  0  0  0  0  0  0  0
   -8.6128    6.4085   -2.2632 H   0  0  0  0  0  0  0  0  0  0  0  0
   -7.0560    4.4721   -2.1510 H   0  0  0  0  0  0  0  0  0  0  0  0
   -5.6135    3.2994    0.0433 S   0  0  0  0  0  0  0  0  0  0  0  0
   -5.5780    2.7863    1.4215 O   0  0  0  0  0  0  0  0  0  0  0  0
   -4.2402    4.0405   -0.2917 O   0  0  0  0  0  0  0  0  0  0  0  0
   -5.9422    2.3498   -1.0288 O   0  0  0  0  0  0  0  0  0  0  0  0
   -9.4222    8.0403   -0.2305 C   0  0  0  0  0  0  0  0  0  0  0  0
  -10.2480    7.8597   -0.9256 H   0  0  0  0  0  0  0  0  0  0  0  0
   -9.8465    8.2795    0.7481 H   0  0  0  0  0  0  0  0  0  0  0  0
   -8.8908    8.9323   -0.5847 H   0  0  0  0  0  0  0  0  0  0  0  0
  1  8  1  0  0  0  0
  1  2  1  0  0  0  0
  2  3  1  0  0  0  0
  4  1  2  0  0  0  0
  5  6  2  0  0  0  0
  5  4  1  0  0  0  0
  6  7  1  0  0  0  0
  7 12  1  0  0  0  0
  7  8  2  0  0  0  0
  8 13  1  0  0  0  0
 10  5  1  0  0  0  0
 11  6  1  0  0  0  0
 14 20  1  0  0  0  0
 15 14  1  0  0  0  0
 15 21  1  0  0  0  0
 16 15  2  0  0  0  0
 17 18  2  0  0  0  0
 17 16  1  0  0  0  0
 18 19  1  0  0  0  0
 19 24  1  0  0  0  0
 19 14  2  0  0  0  0
 22 17  1  0  0  0  0
 23 18  1  0  0  0  0
 24 25  2  0  0  0  0
 26  9  1  0  0  0  0
 26 24  1  0  0  0  0
 27 24  2  0  0  0  0
 28 16  1  0  0  0  0
 28 30  1  0  0  0  0
 29 28  1  0  0  0  0
 31 28  1  0  0  0  0
M  RAD  3   2   2   3   3   4   2
M  END
