Coordinates from ORCA-job PhN2+~TsO-_B3LYPG-6-31G_dp-CH-Scan-d09-49-n800
 OpenBabel11261919273D

 31 31  0  0  0  0  0  0  0  0999 V2000
   -2.1658    0.5717    0.1038 C   0  0  0  0  0  0  0  0  0  0  0  0
   -3.5202    0.3756    0.3598 N   0  0  0  0  0  0  0  0  0  0  0  0
   -4.6128    0.2561    0.5580 N   0  0  0  0  0  0  0  0  0  0  0  0
   -1.8244    1.8929   -0.2336 C   0  0  0  0  0  0  0  0  0  0  0  0
   -0.4278    1.9844   -0.4777 C   0  0  0  0  0  0  0  0  0  0  0  0
    0.4469    0.9052   -0.3881 C   0  0  0  0  0  0  0  0  0  0  0  0
   -0.0062   -0.3881   -0.0374 C   0  0  0  0  0  0  0  0  0  0  0  0
   -1.3455   -0.5826    0.2196 C   0  0  0  0  0  0  0  0  0  0  0  0
   -3.4675    3.8598   -0.3798 H   0  0  0  0  0  0  0  0  0  0  0  0
   -0.0073    2.9512   -0.7536 H   0  0  0  0  0  0  0  0  0  0  0  0
    1.5068    1.0473   -0.5919 H   0  0  0  0  0  0  0  0  0  0  0  0
    0.6906   -1.2173    0.0287 H   0  0  0  0  0  0  0  0  0  0  0  0
   -1.7492   -1.5531    0.4940 H   0  0  0  0  0  0  0  0  0  0  0  0
   -7.1031    5.5289    1.1170 C   0  0  0  0  0  0  0  0  0  0  0  0
   -8.0651    6.5360    1.0726 C   0  0  0  0  0  0  0  0  0  0  0  0
   -8.7024    6.8779   -0.1284 C   0  0  0  0  0  0  0  0  0  0  0  0
   -8.3607    6.1740   -1.2934 C   0  0  0  0  0  0  0  0  0  0  0  0
   -7.4030    5.1637   -1.2694 C   0  0  0  0  0  0  0  0  0  0  0  0
   -6.7779    4.8557   -0.0601 C   0  0  0  0  0  0  0  0  0  0  0  0
   -6.6184    5.2544    2.0472 H   0  0  0  0  0  0  0  0  0  0  0  0
   -8.3291    7.0618    1.9860 H   0  0  0  0  0  0  0  0  0  0  0  0
   -8.8555    6.4172   -2.2299 H   0  0  0  0  0  0  0  0  0  0  0  0
   -7.1488    4.6093   -2.1661 H   0  0  0  0  0  0  0  0  0  0  0  0
   -5.5538    3.5627   -0.0155 S   0  0  0  0  0  0  0  0  0  0  0  0
   -5.4268    3.0551    1.3539 O   0  0  0  0  0  0  0  0  0  0  0  0
   -4.2499    4.4595   -0.3786 O   0  0  0  0  0  0  0  0  0  0  0  0
   -5.8045    2.6104   -1.1004 O   0  0  0  0  0  0  0  0  0  0  0  0
   -9.7207    7.9911   -0.1742 C   0  0  0  0  0  0  0  0  0  0  0  0
  -10.5318    7.7636   -0.8724 H   0  0  0  0  0  0  0  0  0  0  0  0
  -10.1586    8.1752    0.8103 H   0  0  0  0  0  0  0  0  0  0  0  0
   -9.2595    8.9288   -0.5083 H   0  0  0  0  0  0  0  0  0  0  0  0
  1  8  1  0  0  0  0
  1  2  1  0  0  0  0
  2  3  1  0  0  0  0
  4  1  2  0  0  0  0
  5  6  2  0  0  0  0
  5  4  1  0  0  0  0
  6  7  1  0  0  0  0
  7 12  1  0  0  0  0
  7  8  2  0  0  0  0
  8 13  1  0  0  0  0
  9 26  1  0  0  0  0
 10  5  1  0  0  0  0
 11  6  1  0  0  0  0
 14 20  1  0  0  0  0
 15 14  1  0  0  0  0
 15 21  1  0  0  0  0
 16 15  2  0  0  0  0
 17 18  2  0  0  0  0
 17 16  1  0  0  0  0
 18 19  1  0  0  0  0
 19 24  1  0  0  0  0
 19 14  2  0  0  0  0
 22 17  1  0  0  0  0
 23 18  1  0  0  0  0
 24 25  2  0  0  0  0
 26 24  1  0  0  0  0
 27 24  2  0  0  0  0
 28 16  1  0  0  0  0
 28 30  1  0  0  0  0
 29 28  1  0  0  0  0
 31 28  1  0  0  0  0
M  RAD  3   2   2   3   3   4   2
M  END
