Coordinates from ORCA-job PhN2+~TsO-_B3LYPG-6-31G_dp-CH-Scan-d09-49-n800
 OpenBabel11261919273D

 31 31  0  0  0  0  0  0  0  0999 V2000
   -1.9263    0.4806    0.0908 C   0  0  0  0  0  0  0  0  0  0  0  0
   -3.2952    0.6482    0.3112 N   0  0  0  0  0  0  0  0  0  0  0  0
   -4.3863    0.8303    0.4738 N   0  0  0  0  0  0  0  0  0  0  0  0
   -1.2766    1.6706   -0.2705 C   0  0  0  0  0  0  0  0  0  0  0  0
    0.1078    1.3991   -0.4763 C   0  0  0  0  0  0  0  0  0  0  0  0
    0.6864    0.1418   -0.3349 C   0  0  0  0  0  0  0  0  0  0  0  0
   -0.0795   -0.9907    0.0376 C   0  0  0  0  0  0  0  0  0  0  0  0
   -1.4294   -0.8404    0.2629 C   0  0  0  0  0  0  0  0  0  0  0  0
   -3.3033    5.0956   -0.6622 H   0  0  0  0  0  0  0  0  0  0  0  0
    0.7649    2.2212   -0.7652 H   0  0  0  0  0  0  0  0  0  0  0  0
    1.7528    0.0092   -0.5131 H   0  0  0  0  0  0  0  0  0  0  0  0
    0.3914   -1.9628    0.1446 H   0  0  0  0  0  0  0  0  0  0  0  0
   -2.0679   -1.6712    0.5517 H   0  0  0  0  0  0  0  0  0  0  0  0
   -7.1636    5.7934    1.1057 C   0  0  0  0  0  0  0  0  0  0  0  0
   -8.3336    6.5506    1.1066 C   0  0  0  0  0  0  0  0  0  0  0  0
   -9.0521    6.7769   -0.0755 C   0  0  0  0  0  0  0  0  0  0  0  0
   -8.5754    6.2132   -1.2695 C   0  0  0  0  0  0  0  0  0  0  0  0
   -7.4094    5.4537   -1.2919 C   0  0  0  0  0  0  0  0  0  0  0  0
   -6.7110    5.2570   -0.0991 C   0  0  0  0  0  0  0  0  0  0  0  0
   -6.6134    5.6070    2.0214 H   0  0  0  0  0  0  0  0  0  0  0  0
   -8.6965    6.9691    2.0409 H   0  0  0  0  0  0  0  0  0  0  0  0
   -9.1281    6.3680   -2.1923 H   0  0  0  0  0  0  0  0  0  0  0  0
   -7.0485    5.0066   -2.2114 H   0  0  0  0  0  0  0  0  0  0  0  0
   -5.2207    4.2854   -0.1139 S   0  0  0  0  0  0  0  0  0  0  0  0
   -4.9371    3.7990    1.2351 O   0  0  0  0  0  0  0  0  0  0  0  0
   -4.1713    5.4964   -0.4780 O   0  0  0  0  0  0  0  0  0  0  0  0
   -5.2457    3.3458   -1.2350 O   0  0  0  0  0  0  0  0  0  0  0  0
  -10.3025    7.6227   -0.0725 C   0  0  0  0  0  0  0  0  0  0  0  0
  -11.0662    7.2089   -0.7381 H   0  0  0  0  0  0  0  0  0  0  0  0
  -10.7297    7.7034    0.9304 H   0  0  0  0  0  0  0  0  0  0  0  0
  -10.0859    8.6400   -0.4212 H   0  0  0  0  0  0  0  0  0  0  0  0
  1  8  1  0  0  0  0
  1  2  1  0  0  0  0
  2  3  1  0  0  0  0
  4  1  2  0  0  0  0
  5  6  2  0  0  0  0
  5  4  1  0  0  0  0
  6  7  1  0  0  0  0
  7 12  1  0  0  0  0
  7  8  2  0  0  0  0
  8 13  1  0  0  0  0
  9 26  1  0  0  0  0
 10  5  1  0  0  0  0
 11  6  1  0  0  0  0
 14 15  1  0  0  0  0
 14 20  1  0  0  0  0
 15 21  1  0  0  0  0
 16 28  1  0  0  0  0
 16 15  2  0  0  0  0
 17 16  1  0  0  0  0
 18 17  2  0  0  0  0
 18 19  1  0  0  0  0
 19 14  2  0  0  0  0
 22 17  1  0  0  0  0
 23 18  1  0  0  0  0
 24 19  1  0  0  0  0
 24 25  2  0  0  0  0
 26 24  1  0  0  0  0
 27 24  2  0  0  0  0
 28 30  1  0  0  0  0
 29 28  1  0  0  0  0
 31 28  1  0  0  0  0
M  RAD  3   2   2   3   3   4   2
M  END
