Coordinates from ORCA-job PhN2+~TsO-_B3LYPG-6-31G_dp-CH-Scan-d09-49-n800
 OpenBabel11261919283D

 31 31  0  0  0  0  0  0  0  0999 V2000
   -1.8681    0.4717    0.0512 C   0  0  0  0  0  0  0  0  0  0  0  0
   -3.2308    0.7394    0.2020 N   0  0  0  0  0  0  0  0  0  0  0  0
   -4.3124    1.0018    0.3104 N   0  0  0  0  0  0  0  0  0  0  0  0
   -1.1234    1.6063   -0.3045 C   0  0  0  0  0  0  0  0  0  0  0  0
    0.2481    1.2364   -0.4346 C   0  0  0  0  0  0  0  0  0  0  0  0
    0.7319   -0.0527   -0.2353 C   0  0  0  0  0  0  0  0  0  0  0  0
   -0.1268   -1.1216    0.1232 C   0  0  0  0  0  0  0  0  0  0  0  0
   -1.4727   -0.8756    0.2772 C   0  0  0  0  0  0  0  0  0  0  0  0
   -3.3107    5.4076   -0.8489 H   0  0  0  0  0  0  0  0  0  0  0  0
    0.9731    2.0049   -0.7084 H   0  0  0  0  0  0  0  0  0  0  0  0
    1.7943   -0.2610   -0.3556 H   0  0  0  0  0  0  0  0  0  0  0  0
    0.2710   -2.1199    0.2753 H   0  0  0  0  0  0  0  0  0  0  0  0
   -2.1799   -1.6541    0.5516 H   0  0  0  0  0  0  0  0  0  0  0  0
   -7.1503    5.8465    1.0847 C   0  0  0  0  0  0  0  0  0  0  0  0
   -8.3650    6.5289    1.1262 C   0  0  0  0  0  0  0  0  0  0  0  0
   -9.1216    6.7343   -0.0356 C   0  0  0  0  0  0  0  0  0  0  0  0
   -8.6359    6.2280   -1.2517 C   0  0  0  0  0  0  0  0  0  0  0  0
   -7.4256    5.5443   -1.3148 C   0  0  0  0  0  0  0  0  0  0  0  0
   -6.6912    5.3655   -0.1407 C   0  0  0  0  0  0  0  0  0  0  0  0
   -6.5703    5.6753    1.9848 H   0  0  0  0  0  0  0  0  0  0  0  0
   -8.7331    6.9039    2.0767 H   0  0  0  0  0  0  0  0  0  0  0  0
   -9.2169    6.3675   -2.1595 H   0  0  0  0  0  0  0  0  0  0  0  0
   -7.0575    5.1405   -2.2514 H   0  0  0  0  0  0  0  0  0  0  0  0
   -5.1459    4.4867   -0.2065 S   0  0  0  0  0  0  0  0  0  0  0  0
   -4.8040    3.9968    1.1269 O   0  0  0  0  0  0  0  0  0  0  0  0
   -4.1746    5.7628   -0.5737 O   0  0  0  0  0  0  0  0  0  0  0  0
   -5.1350    3.5697   -1.3466 O   0  0  0  0  0  0  0  0  0  0  0  0
  -10.4249    7.4947    0.0118 C   0  0  0  0  0  0  0  0  0  0  0  0
  -11.1862    7.0201   -0.6149 H   0  0  0  0  0  0  0  0  0  0  0  0
  -10.8139    7.5607    1.0312 H   0  0  0  0  0  0  0  0  0  0  0  0
  -10.2935    8.5187   -0.3585 H   0  0  0  0  0  0  0  0  0  0  0  0
  1  2  1  0  0  0  0
  1  8  2  0  0  0  0
  2  3  1  0  0  0  0
  4  1  1  0  0  0  0
  5  4  2  0  0  0  0
  5  6  1  0  0  0  0
  6  7  2  0  0  0  0
  7 12  1  0  0  0  0
  7  8  1  0  0  0  0
  8 13  1  0  0  0  0
  9 26  1  0  0  0  0
 10  5  1  0  0  0  0
 11  6  1  0  0  0  0
 14 15  1  0  0  0  0
 14 20  1  0  0  0  0
 15 21  1  0  0  0  0
 16 28  1  0  0  0  0
 16 15  2  0  0  0  0
 17 16  1  0  0  0  0
 18 17  2  0  0  0  0
 18 19  1  0  0  0  0
 19 14  2  0  0  0  0
 22 17  1  0  0  0  0
 23 18  1  0  0  0  0
 24 19  1  0  0  0  0
 24 25  2  0  0  0  0
 26 24  1  0  0  0  0
 27 24  2  0  0  0  0
 28 30  1  0  0  0  0
 29 28  1  0  0  0  0
 31 28  1  0  0  0  0
M  RAD  3   2   2   3   3   4   2
M  END
