Coordinates from ORCA-job PhN2+~TsO-_B3LYPG-6-31G_dp-CH-Scan-d09-49-n800
 OpenBabel11261919283D

 31 31  0  0  0  0  0  0  0  0999 V2000
   -2.2137    0.4594   -0.7999 C   0  0  0  0  0  0  0  0  0  0  0  0
   -3.4157    0.0613   -1.3941 N   0  0  0  0  0  0  0  0  0  0  0  0
   -4.3285   -0.2991   -1.9292 N   0  0  0  0  0  0  0  0  0  0  0  0
   -1.0996   -0.0604   -1.4733 C   0  0  0  0  0  0  0  0  0  0  0  0
    0.0864    0.4036   -0.8276 C   0  0  0  0  0  0  0  0  0  0  0  0
    0.0923    1.2380    0.2848 C   0  0  0  0  0  0  0  0  0  0  0  0
   -1.1120    1.6857    0.8863 C   0  0  0  0  0  0  0  0  0  0  0  0
   -2.3188    1.2945    0.3464 C   0  0  0  0  0  0  0  0  0  0  0  0
   -3.0893    4.1124   -0.0236 H   0  0  0  0  0  0  0  0  0  0  0  0
    1.0537    0.0910   -1.2236 H   0  0  0  0  0  0  0  0  0  0  0  0
    1.0376    1.5570    0.7212 H   0  0  0  0  0  0  0  0  0  0  0  0
   -1.0821    2.3116    1.7733 H   0  0  0  0  0  0  0  0  0  0  0  0
   -3.2785    1.5850    0.7620 H   0  0  0  0  0  0  0  0  0  0  0  0
   -7.2714    4.4298    0.6952 C   0  0  0  0  0  0  0  0  0  0  0  0
   -8.3614    5.2163    1.0554 C   0  0  0  0  0  0  0  0  0  0  0  0
   -8.6571    6.4057    0.3715 C   0  0  0  0  0  0  0  0  0  0  0  0
   -7.8267    6.7940   -0.6895 C   0  0  0  0  0  0  0  0  0  0  0  0
   -6.7286    6.0234   -1.0650 C   0  0  0  0  0  0  0  0  0  0  0  0
   -6.4621    4.8482   -0.3627 C   0  0  0  0  0  0  0  0  0  0  0  0
   -7.0525    3.5037    1.2149 H   0  0  0  0  0  0  0  0  0  0  0  0
   -8.9960    4.9012    1.8795 H   0  0  0  0  0  0  0  0  0  0  0  0
   -8.0427    7.7106   -1.2310 H   0  0  0  0  0  0  0  0  0  0  0  0
   -6.0921    6.3174   -1.8926 H   0  0  0  0  0  0  0  0  0  0  0  0
   -5.0667    3.8575   -0.8370 S   0  0  0  0  0  0  0  0  0  0  0  0
   -5.2972    2.4627   -0.4471 O   0  0  0  0  0  0  0  0  0  0  0  0
   -3.9571    4.4979    0.1971 O   0  0  0  0  0  0  0  0  0  0  0  0
   -4.6569    4.1699   -2.2036 O   0  0  0  0  0  0  0  0  0  0  0  0
   -9.8623    7.2297    0.7532 C   0  0  0  0  0  0  0  0  0  0  0  0
  -10.7739    6.8147    0.3068 H   0  0  0  0  0  0  0  0  0  0  0  0
  -10.0100    7.2435    1.8373 H   0  0  0  0  0  0  0  0  0  0  0  0
   -9.7687    8.2624    0.4072 H   0  0  0  0  0  0  0  0  0  0  0  0
  1  8  2  0  0  0  0
  2  1  1  0  0  0  0
  3  2  1  0  0  0  0
  4  5  2  0  0  0  0
  4  1  1  0  0  0  0
  5  6  1  0  0  0  0
  6 11  1  0  0  0  0
  6  7  2  0  0  0  0
  7 12  1  0  0  0  0
  8 13  1  0  0  0  0
  8  7  1  0  0  0  0
  9 26  1  0  0  0  0
 10  5  1  0  0  0  0
 14 15  1  0  0  0  0
 14 20  1  0  0  0  0
 15 21  1  0  0  0  0
 16 28  1  0  0  0  0
 16 15  2  0  0  0  0
 17 16  1  0  0  0  0
 18 17  2  0  0  0  0
 18 19  1  0  0  0  0
 19 14  2  0  0  0  0
 22 17  1  0  0  0  0
 23 18  1  0  0  0  0
 24 25  2  0  0  0  0
 24 19  1  0  0  0  0
 24 26  1  0  0  0  0
 27 24  2  0  0  0  0
 28 30  1  0  0  0  0
 29 28  1  0  0  0  0
 31 28  1  0  0  0  0
M  RAD  3   2   2   3   3   4   2
M  END
