Coordinates from ORCA-job PhN2+~TsO-_B3LYPG-6-31G_dp-CH-Scan-d09-49-n800
 OpenBabel11261919273D

 31 31  0  0  0  0  0  0  0  0999 V2000
   -2.0446    0.5136    0.0899 C   0  0  0  0  0  0  0  0  0  0  0  0
   -3.4198    0.4715    0.3170 N   0  0  0  0  0  0  0  0  0  0  0  0
   -4.5238    0.4806    0.4898 N   0  0  0  0  0  0  0  0  0  0  0  0
   -1.5673    1.7877   -0.2583 C   0  0  0  0  0  0  0  0  0  0  0  0
   -0.1618    1.7229   -0.4746 C   0  0  0  0  0  0  0  0  0  0  0  0
    0.5922    0.5597   -0.3517 C   0  0  0  0  0  0  0  0  0  0  0  0
   -0.0012   -0.6742    0.0094 C   0  0  0  0  0  0  0  0  0  0  0  0
   -1.3578   -0.7218    0.2417 C   0  0  0  0  0  0  0  0  0  0  0  0
   -3.3847    4.4022   -0.4943 H   0  0  0  0  0  0  0  0  0  0  0  0
    0.3668    2.6347   -0.7558 H   0  0  0  0  0  0  0  0  0  0  0  0
    1.6652    0.5848   -0.5360 H   0  0  0  0  0  0  0  0  0  0  0  0
    0.6038   -1.5704    0.1020 H   0  0  0  0  0  0  0  0  0  0  0  0
   -1.8678   -1.6396    0.5222 H   0  0  0  0  0  0  0  0  0  0  0  0
   -7.1327    5.6622    1.1060 C   0  0  0  0  0  0  0  0  0  0  0  0
   -8.1889    6.5707    1.0854 C   0  0  0  0  0  0  0  0  0  0  0  0
   -8.8775    6.8556   -0.1023 C   0  0  0  0  0  0  0  0  0  0  0  0
   -8.4892    6.1956   -1.2784 C   0  0  0  0  0  0  0  0  0  0  0  0
   -7.4370    5.2841   -1.2788 C   0  0  0  0  0  0  0  0  0  0  0  0
   -6.7643    5.0317   -0.0821 C   0  0  0  0  0  0  0  0  0  0  0  0
   -6.6074    5.4312    2.0260 H   0  0  0  0  0  0  0  0  0  0  0  0
   -8.4867    7.0628    2.0069 H   0  0  0  0  0  0  0  0  0  0  0  0
   -9.0217    6.3952   -2.2045 H   0  0  0  0  0  0  0  0  0  0  0  0
   -7.1452    4.7635   -2.1841 H   0  0  0  0  0  0  0  0  0  0  0  0
   -5.4194    3.8658   -0.0683 S   0  0  0  0  0  0  0  0  0  0  0  0
   -5.2163    3.3638    1.2915 O   0  0  0  0  0  0  0  0  0  0  0  0
   -4.2162    4.9105   -0.4377 O   0  0  0  0  0  0  0  0  0  0  0  0
   -5.5775    2.9141   -1.1687 O   0  0  0  0  0  0  0  0  0  0  0  0
  -10.0001    7.8644   -0.1229 C   0  0  0  0  0  0  0  0  0  0  0  0
  -10.7956    7.5633   -0.8109 H   0  0  0  0  0  0  0  0  0  0  0  0
  -10.4381    7.9980    0.8698 H   0  0  0  0  0  0  0  0  0  0  0  0
   -9.6374    8.8447   -0.4560 H   0  0  0  0  0  0  0  0  0  0  0  0
  1  8  1  0  0  0  0
  1  2  1  0  0  0  0
  2  3  1  0  0  0  0
  4  1  2  0  0  0  0
  5  6  2  0  0  0  0
  5  4  1  0  0  0  0
  6  7  1  0  0  0  0
  7 12  1  0  0  0  0
  7  8  2  0  0  0  0
  8 13  1  0  0  0  0
  9 26  1  0  0  0  0
 10  5  1  0  0  0  0
 11  6  1  0  0  0  0
 14 20  1  0  0  0  0
 15 14  1  0  0  0  0
 15 21  1  0  0  0  0
 16 15  2  0  0  0  0
 17 16  1  0  0  0  0
 18 17  2  0  0  0  0
 18 19  1  0  0  0  0
 19 24  1  0  0  0  0
 19 14  2  0  0  0  0
 22 17  1  0  0  0  0
 23 18  1  0  0  0  0
 24 25  2  0  0  0  0
 26 24  1  0  0  0  0
 27 24  2  0  0  0  0
 28 16  1  0  0  0  0
 28 30  1  0  0  0  0
 29 28  1  0  0  0  0
 31 28  1  0  0  0  0
M  RAD  3   2   2   3   3   4   2
M  END
