Coordinates from ORCA-job PhN2+~TsO-_B3LYPG-6-31G_dp-CH-Scan-d09-49-n800
 OpenBabel11261919273D

 31 31  0  0  0  0  0  0  0  0999 V2000
   -1.9261    0.4797    0.0903 C   0  0  0  0  0  0  0  0  0  0  0  0
   -3.2953    0.6484    0.3078 N   0  0  0  0  0  0  0  0  0  0  0  0
   -4.3859    0.8328    0.4712 N   0  0  0  0  0  0  0  0  0  0  0  0
   -1.2753    1.6699   -0.2687 C   0  0  0  0  0  0  0  0  0  0  0  0
    0.1093    1.3977   -0.4729 C   0  0  0  0  0  0  0  0  0  0  0  0
    0.6869    0.1399   -0.3315 C   0  0  0  0  0  0  0  0  0  0  0  0
   -0.0801   -0.9925    0.0388 C   0  0  0  0  0  0  0  0  0  0  0  0
   -1.4304   -0.8417    0.2621 C   0  0  0  0  0  0  0  0  0  0  0  0
   -3.3033    5.0989   -0.6687 H   0  0  0  0  0  0  0  0  0  0  0  0
    0.7673    2.2196   -0.7600 H   0  0  0  0  0  0  0  0  0  0  0  0
    1.7535    0.0069   -0.5081 H   0  0  0  0  0  0  0  0  0  0  0  0
    0.3901   -1.9650    0.1456 H   0  0  0  0  0  0  0  0  0  0  0  0
   -2.0698   -1.6724    0.5490 H   0  0  0  0  0  0  0  0  0  0  0  0
   -7.1622    5.7945    1.1048 C   0  0  0  0  0  0  0  0  0  0  0  0
   -8.3330    6.5506    1.1069 C   0  0  0  0  0  0  0  0  0  0  0  0
   -9.0529    6.7762   -0.0744 C   0  0  0  0  0  0  0  0  0  0  0  0
   -8.5769    6.2131   -1.2689 C   0  0  0  0  0  0  0  0  0  0  0  0
   -7.4102    5.4547   -1.2926 C   0  0  0  0  0  0  0  0  0  0  0  0
   -6.7104    5.2586   -0.1004 C   0  0  0  0  0  0  0  0  0  0  0  0
   -6.6110    5.6087    2.0199 H   0  0  0  0  0  0  0  0  0  0  0  0
   -8.6953    6.9687    2.0416 H   0  0  0  0  0  0  0  0  0  0  0  0
   -9.1308    6.3673   -2.1911 H   0  0  0  0  0  0  0  0  0  0  0  0
   -7.0498    5.0080   -2.2124 H   0  0  0  0  0  0  0  0  0  0  0  0
   -5.2192    4.2884   -0.1168 S   0  0  0  0  0  0  0  0  0  0  0  0
   -4.9336    3.8026    1.2320 O   0  0  0  0  0  0  0  0  0  0  0  0
   -4.1710    5.4999   -0.4824 O   0  0  0  0  0  0  0  0  0  0  0  0
   -5.2445    3.3487   -1.2379 O   0  0  0  0  0  0  0  0  0  0  0  0
  -10.3042    7.6208   -0.0701 C   0  0  0  0  0  0  0  0  0  0  0  0
  -11.0683    7.2060   -0.7347 H   0  0  0  0  0  0  0  0  0  0  0  0
  -10.7302    7.7014    0.9333 H   0  0  0  0  0  0  0  0  0  0  0  0
  -10.0891    8.6382   -0.4194 H   0  0  0  0  0  0  0  0  0  0  0  0
  1  8  1  0  0  0  0
  1  2  1  0  0  0  0
  2  3  1  0  0  0  0
  4  1  2  0  0  0  0
  5  6  2  0  0  0  0
  5  4  1  0  0  0  0
  6  7  1  0  0  0  0
  7 12  1  0  0  0  0
  7  8  2  0  0  0  0
  8 13  1  0  0  0  0
  9 26  1  0  0  0  0
 10  5  1  0  0  0  0
 11  6  1  0  0  0  0
 14 15  1  0  0  0  0
 14 20  1  0  0  0  0
 15 21  1  0  0  0  0
 16 28  1  0  0  0  0
 16 15  2  0  0  0  0
 17 16  1  0  0  0  0
 18 17  2  0  0  0  0
 18 19  1  0  0  0  0
 19 14  2  0  0  0  0
 22 17  1  0  0  0  0
 23 18  1  0  0  0  0
 24 19  1  0  0  0  0
 24 25  2  0  0  0  0
 26 24  1  0  0  0  0
 27 24  2  0  0  0  0
 28 30  1  0  0  0  0
 29 28  1  0  0  0  0
 31 28  1  0  0  0  0
M  RAD  3   2   2   3   3   4   2
M  END
