Coordinates from ORCA-job PhN2+~TsO-_B3LYPG-6-31G_dp-CH-Scan-d09-49-n800
 OpenBabel11261919273D

 31 31  0  0  0  0  0  0  0  0999 V2000
   -2.4368    0.7259    0.1302 C   0  0  0  0  0  0  0  0  0  0  0  0
   -3.7413    0.3620    0.4432 N   0  0  0  0  0  0  0  0  0  0  0  0
   -4.8036    0.1260    0.6858 N   0  0  0  0  0  0  0  0  0  0  0  0
   -2.2263    2.0794   -0.1892 C   0  0  0  0  0  0  0  0  0  0  0  0
   -0.8779    2.3493   -0.4955 C   0  0  0  0  0  0  0  0  0  0  0  0
    0.1144    1.3706   -0.4762 C   0  0  0  0  0  0  0  0  0  0  0  0
   -0.1803    0.0335   -0.1422 C   0  0  0  0  0  0  0  0  0  0  0  0
   -1.4786   -0.3157    0.1703 C   0  0  0  0  0  0  0  0  0  0  0  0
   -3.3364    3.1260   -0.2066 H   0  0  0  0  0  0  0  0  0  0  0  0
   -0.5994    3.3667   -0.7603 H   0  0  0  0  0  0  0  0  0  0  0  0
    1.1393    1.6360   -0.7237 H   0  0  0  0  0  0  0  0  0  0  0  0
    0.6030   -0.7169   -0.1302 H   0  0  0  0  0  0  0  0  0  0  0  0
   -1.7562   -1.3313    0.4347 H   0  0  0  0  0  0  0  0  0  0  0  0
   -7.0212    5.3378    1.1492 C   0  0  0  0  0  0  0  0  0  0  0  0
   -7.8917    6.4234    1.0606 C   0  0  0  0  0  0  0  0  0  0  0  0
   -8.4332    6.8200   -0.1693 C   0  0  0  0  0  0  0  0  0  0  0  0
   -8.0893    6.0901   -1.3175 C   0  0  0  0  0  0  0  0  0  0  0  0
   -7.2223    5.0028   -1.2466 C   0  0  0  0  0  0  0  0  0  0  0  0
   -6.6886    4.6378   -0.0094 C   0  0  0  0  0  0  0  0  0  0  0  0
   -6.6129    5.0201    2.1020 H   0  0  0  0  0  0  0  0  0  0  0  0
   -8.1596    6.9682    1.9622 H   0  0  0  0  0  0  0  0  0  0  0  0
   -8.5122    6.3739   -2.2779 H   0  0  0  0  0  0  0  0  0  0  0  0
   -6.9700    4.4278   -2.1309 H   0  0  0  0  0  0  0  0  0  0  0  0
   -5.5627    3.2544    0.0892 S   0  0  0  0  0  0  0  0  0  0  0  0
   -5.5804    2.7368    1.4734 O   0  0  0  0  0  0  0  0  0  0  0  0
   -4.1892    3.9281   -0.2225 O   0  0  0  0  0  0  0  0  0  0  0  0
   -5.9119    2.2859   -0.9690 O   0  0  0  0  0  0  0  0  0  0  0  0
   -9.3533    8.0136   -0.2639 C   0  0  0  0  0  0  0  0  0  0  0  0
  -10.1728    7.8332   -0.9667 H   0  0  0  0  0  0  0  0  0  0  0  0
   -9.7875    8.2630    0.7079 H   0  0  0  0  0  0  0  0  0  0  0  0
   -8.8132    8.9002   -0.6189 H   0  0  0  0  0  0  0  0  0  0  0  0
  1  8  1  0  0  0  0
  1  2  1  0  0  0  0
  2  3  1  0  0  0  0
  4  1  2  0  0  0  0
  5  6  2  0  0  0  0
  5  4  1  0  0  0  0
  6  7  1  0  0  0  0
  7 12  1  0  0  0  0
  7  8  2  0  0  0  0
  8 13  1  0  0  0  0
 10  5  1  0  0  0  0
 11  6  1  0  0  0  0
 14 20  1  0  0  0  0
 15 14  1  0  0  0  0
 15 21  1  0  0  0  0
 16 15  2  0  0  0  0
 17 18  2  0  0  0  0
 17 16  1  0  0  0  0
 18 19  1  0  0  0  0
 19 24  1  0  0  0  0
 19 14  2  0  0  0  0
 22 17  1  0  0  0  0
 23 18  1  0  0  0  0
 24 25  2  0  0  0  0
 26  9  1  0  0  0  0
 26 24  1  0  0  0  0
 27 24  2  0  0  0  0
 28 16  1  0  0  0  0
 28 30  1  0  0  0  0
 29 28  1  0  0  0  0
 31 28  1  0  0  0  0
M  RAD  3   2   2   3   3   4   2
M  END
