Coordinates from ORCA-job PhN2+~TsO-_B3LYPG-6-31G_dp-CH-Scan-d09-49-n800
 OpenBabel11261919283D

 31 31  0  0  0  0  0  0  0  0999 V2000
   -1.9013    0.4767    0.0782 C   0  0  0  0  0  0  0  0  0  0  0  0
   -3.2680    0.6897    0.2726 N   0  0  0  0  0  0  0  0  0  0  0  0
   -4.3547    0.9096    0.4179 N   0  0  0  0  0  0  0  0  0  0  0  0
   -1.2091    1.6442   -0.2776 C   0  0  0  0  0  0  0  0  0  0  0  0
    0.1700    1.3281   -0.4561 C   0  0  0  0  0  0  0  0  0  0  0  0
    0.7064    0.0543   -0.2964 C   0  0  0  0  0  0  0  0  0  0  0  0
   -0.1012   -1.0517    0.0679 C   0  0  0  0  0  0  0  0  0  0  0  0
   -1.4497   -0.8583    0.2671 C   0  0  0  0  0  0  0  0  0  0  0  0
   -3.3031    5.2361   -0.7467 H   0  0  0  0  0  0  0  0  0  0  0  0
    0.8577    2.1275   -0.7370 H   0  0  0  0  0  0  0  0  0  0  0  0
    1.7714   -0.1125   -0.4534 H   0  0  0  0  0  0  0  0  0  0  0  0
    0.3372   -2.0373    0.1890 H   0  0  0  0  0  0  0  0  0  0  0  0
   -2.1192   -1.6671    0.5483 H   0  0  0  0  0  0  0  0  0  0  0  0
   -7.1579    5.8190    1.0972 C   0  0  0  0  0  0  0  0  0  0  0  0
   -8.3492    6.5423    1.1144 C   0  0  0  0  0  0  0  0  0  0  0  0
   -9.0842    6.7574   -0.0595 C   0  0  0  0  0  0  0  0  0  0  0  0
   -8.6017    6.2179   -1.2624 C   0  0  0  0  0  0  0  0  0  0  0  0
   -7.4146    5.4927   -1.3012 C   0  0  0  0  0  0  0  0  0  0  0  0
   -6.7007    5.3059   -0.1159 C   0  0  0  0  0  0  0  0  0  0  0  0
   -6.5947    5.6409    2.0066 H   0  0  0  0  0  0  0  0  0  0  0  0
   -8.7158    6.9423    2.0553 H   0  0  0  0  0  0  0  0  0  0  0  0
   -9.1667    6.3643   -2.1791 H   0  0  0  0  0  0  0  0  0  0  0  0
   -7.0492    5.0638   -2.2275 H   0  0  0  0  0  0  0  0  0  0  0  0
   -5.1841    4.3765   -0.1512 S   0  0  0  0  0  0  0  0  0  0  0  0
   -4.8736    3.8925    1.1924 O   0  0  0  0  0  0  0  0  0  0  0  0
   -4.1705    5.6170   -0.5213 O   0  0  0  0  0  0  0  0  0  0  0  0
   -5.1922    3.4433   -1.2780 O   0  0  0  0  0  0  0  0  0  0  0  0
  -10.3596    7.5650   -0.0385 C   0  0  0  0  0  0  0  0  0  0  0  0
  -11.1200    7.1271   -0.6923 H   0  0  0  0  0  0  0  0  0  0  0  0
  -10.7741    7.6337    0.9706 H   0  0  0  0  0  0  0  0  0  0  0  0
  -10.1794    8.5879   -0.3913 H   0  0  0  0  0  0  0  0  0  0  0  0
  1  8  1  0  0  0  0
  1  2  1  0  0  0  0
  2  3  1  0  0  0  0
  4  1  2  0  0  0  0
  5  6  2  0  0  0  0
  5  4  1  0  0  0  0
  6  7  1  0  0  0  0
  7 12  1  0  0  0  0
  7  8  2  0  0  0  0
  8 13  1  0  0  0  0
  9 26  1  0  0  0  0
 10  5  1  0  0  0  0
 11  6  1  0  0  0  0
 14 15  1  0  0  0  0
 14 20  1  0  0  0  0
 15 21  1  0  0  0  0
 16 28  1  0  0  0  0
 16 15  2  0  0  0  0
 17 16  1  0  0  0  0
 18 17  2  0  0  0  0
 18 19  1  0  0  0  0
 19 14  2  0  0  0  0
 22 17  1  0  0  0  0
 23 18  1  0  0  0  0
 24 19  1  0  0  0  0
 24 25  2  0  0  0  0
 26 24  1  0  0  0  0
 27 24  2  0  0  0  0
 28 30  1  0  0  0  0
 29 28  1  0  0  0  0
 31 28  1  0  0  0  0
M  RAD  3   2   2   3   3   4   2
M  END
