Coordinates from ORCA-job PhN2+~TsO-_B3LYPG-6-31G_dp-CH-Scan-d09-49-n800
 OpenBabel11261919283D

 31 31  0  0  0  0  0  0  0  0999 V2000
   -1.8959    0.4761    0.0745 C   0  0  0  0  0  0  0  0  0  0  0  0
   -3.2620    0.6987    0.2623 N   0  0  0  0  0  0  0  0  0  0  0  0
   -4.3478    0.9262    0.4024 N   0  0  0  0  0  0  0  0  0  0  0  0
   -1.1945    1.6382   -0.2808 C   0  0  0  0  0  0  0  0  0  0  0  0
    0.1834    1.3126   -0.4520 C   0  0  0  0  0  0  0  0  0  0  0  0
    0.7106    0.0357   -0.2869 C   0  0  0  0  0  0  0  0  0  0  0  0
   -0.1059   -1.0642    0.0760 C   0  0  0  0  0  0  0  0  0  0  0  0
   -1.4541   -0.8615    0.2684 C   0  0  0  0  0  0  0  0  0  0  0  0
   -3.3038    5.2659   -0.7648 H   0  0  0  0  0  0  0  0  0  0  0  0
    0.8777    2.1069   -0.7315 H   0  0  0  0  0  0  0  0  0  0  0  0
    1.7752   -0.1384   -0.4384 H   0  0  0  0  0  0  0  0  0  0  0  0
    0.3254   -2.0523    0.2013 H   0  0  0  0  0  0  0  0  0  0  0  0
   -2.1302   -1.6653    0.5482 H   0  0  0  0  0  0  0  0  0  0  0  0
   -7.1565    5.8241    1.0952 C   0  0  0  0  0  0  0  0  0  0  0  0
   -8.3521    6.5401    1.1163 C   0  0  0  0  0  0  0  0  0  0  0  0
   -9.0908    6.7532   -0.0557 C   0  0  0  0  0  0  0  0  0  0  0  0
   -8.6074    6.2192   -1.2607 C   0  0  0  0  0  0  0  0  0  0  0  0
   -7.4160    5.5013   -1.3034 C   0  0  0  0  0  0  0  0  0  0  0  0
   -6.6986    5.3163   -0.1199 C   0  0  0  0  0  0  0  0  0  0  0  0
   -6.5905    5.6474    2.0031 H   0  0  0  0  0  0  0  0  0  0  0  0
   -8.7192    6.9361    2.0587 H   0  0  0  0  0  0  0  0  0  0  0  0
   -9.1752    6.3640   -2.1759 H   0  0  0  0  0  0  0  0  0  0  0  0
   -7.0499    5.0765   -2.2313 H   0  0  0  0  0  0  0  0  0  0  0  0
   -5.1768    4.3957   -0.1600 S   0  0  0  0  0  0  0  0  0  0  0  0
   -4.8607    3.9115    1.1821 O   0  0  0  0  0  0  0  0  0  0  0  0
   -4.1707    5.6424   -0.5306 O   0  0  0  0  0  0  0  0  0  0  0  0
   -5.1814    3.4646   -1.2886 O   0  0  0  0  0  0  0  0  0  0  0  0
  -10.3712    7.5526   -0.0305 C   0  0  0  0  0  0  0  0  0  0  0  0
  -11.1314    7.1090   -0.6808 H   0  0  0  0  0  0  0  0  0  0  0  0
  -10.7823    7.6195    0.9803 H   0  0  0  0  0  0  0  0  0  0  0  0
  -10.1992    8.5763   -0.3849 H   0  0  0  0  0  0  0  0  0  0  0  0
  1  2  1  0  0  0  0
  1  8  1  0  0  0  0
  2  3  1  0  0  0  0
  4  1  2  0  0  0  0
  5  6  2  0  0  0  0
  5  4  1  0  0  0  0
  6  7  1  0  0  0  0
  7 12  1  0  0  0  0
  7  8  2  0  0  0  0
  8 13  1  0  0  0  0
  9 26  1  0  0  0  0
 10  5  1  0  0  0  0
 11  6  1  0  0  0  0
 14 15  1  0  0  0  0
 14 20  1  0  0  0  0
 15 21  1  0  0  0  0
 16 28  1  0  0  0  0
 16 15  2  0  0  0  0
 17 16  1  0  0  0  0
 18 17  2  0  0  0  0
 18 19  1  0  0  0  0
 19 14  2  0  0  0  0
 22 17  1  0  0  0  0
 23 18  1  0  0  0  0
 24 19  1  0  0  0  0
 24 25  2  0  0  0  0
 26 24  1  0  0  0  0
 27 24  2  0  0  0  0
 28 30  1  0  0  0  0
 29 28  1  0  0  0  0
 31 28  1  0  0  0  0
M  RAD  3   2   2   3   3   4   2
M  END
