Coordinates from ORCA-job PhN2+~TsO-_B3LYPG-6-31G_dp-CH-Scan-d09-49-n800
 OpenBabel11261919273D

 31 31  0  0  0  0  0  0  0  0999 V2000
   -2.1882    0.5835    0.1089 C   0  0  0  0  0  0  0  0  0  0  0  0
   -3.5371    0.3646    0.3732 N   0  0  0  0  0  0  0  0  0  0  0  0
   -4.6262    0.2264    0.5782 N   0  0  0  0  0  0  0  0  0  0  0  0
   -1.8680    1.9102   -0.2289 C   0  0  0  0  0  0  0  0  0  0  0  0
   -0.4752    2.0241   -0.4820 C   0  0  0  0  0  0  0  0  0  0  0  0
    0.4167    0.9583   -0.3997 C   0  0  0  0  0  0  0  0  0  0  0  0
   -0.0142   -0.3421   -0.0479 C   0  0  0  0  0  0  0  0  0  0  0  0
   -1.3487   -0.5575    0.2174 C   0  0  0  0  0  0  0  0  0  0  0  0
   -3.4761    3.7830   -0.3598 H   0  0  0  0  0  0  0  0  0  0  0  0
   -0.0720    2.9977   -0.7592 H   0  0  0  0  0  0  0  0  0  0  0  0
    1.4728    1.1171   -0.6101 H   0  0  0  0  0  0  0  0  0  0  0  0
    0.6956   -1.1606    0.0125 H   0  0  0  0  0  0  0  0  0  0  0  0
   -1.7355   -1.5345    0.4930 H   0  0  0  0  0  0  0  0  0  0  0  0
   -7.0992    5.5058    1.1204 C   0  0  0  0  0  0  0  0  0  0  0  0
   -8.0475    6.5256    1.0711 C   0  0  0  0  0  0  0  0  0  0  0  0
   -8.6730    6.8770   -0.1333 C   0  0  0  0  0  0  0  0  0  0  0  0
   -8.3335    6.1697   -1.2969 C   0  0  0  0  0  0  0  0  0  0  0  0
   -7.3893    5.1469   -1.2680 C   0  0  0  0  0  0  0  0  0  0  0  0
   -6.7756    4.8295   -0.0553 C   0  0  0  0  0  0  0  0  0  0  0  0
   -6.6237    5.2242    2.0531 H   0  0  0  0  0  0  0  0  0  0  0  0
   -8.3102    7.0540    1.9834 H   0  0  0  0  0  0  0  0  0  0  0  0
   -8.8193    6.4203   -2.2361 H   0  0  0  0  0  0  0  0  0  0  0  0
   -7.1370    4.5899   -2.1636 H   0  0  0  0  0  0  0  0  0  0  0  0
   -5.5684    3.5206   -0.0046 S   0  0  0  0  0  0  0  0  0  0  0  0
   -5.4561    3.0113    1.3660 O   0  0  0  0  0  0  0  0  0  0  0  0
   -4.2519    4.3959   -0.3622 O   0  0  0  0  0  0  0  0  0  0  0  0
   -5.8291    2.5695   -1.0888 O   0  0  0  0  0  0  0  0  0  0  0  0
   -9.6764    8.0034   -0.1842 C   0  0  0  0  0  0  0  0  0  0  0  0
  -10.4888    7.7849   -0.8838 H   0  0  0  0  0  0  0  0  0  0  0  0
  -10.1143    8.1956    0.7988 H   0  0  0  0  0  0  0  0  0  0  0  0
   -9.2024    8.9342   -0.5195 H   0  0  0  0  0  0  0  0  0  0  0  0
  1  8  1  0  0  0  0
  1  2  1  0  0  0  0
  2  3  1  0  0  0  0
  4  1  2  0  0  0  0
  5  6  2  0  0  0  0
  5  4  1  0  0  0  0
  6  7  1  0  0  0  0
  7 12  1  0  0  0  0
  7  8  2  0  0  0  0
  8 13  1  0  0  0  0
 10  5  1  0  0  0  0
 11  6  1  0  0  0  0
 14 20  1  0  0  0  0
 15 14  1  0  0  0  0
 15 21  1  0  0  0  0
 16 15  2  0  0  0  0
 17 18  2  0  0  0  0
 17 16  1  0  0  0  0
 18 19  1  0  0  0  0
 19 24  1  0  0  0  0
 19 14  2  0  0  0  0
 22 17  1  0  0  0  0
 23 18  1  0  0  0  0
 24 25  2  0  0  0  0
 26  9  1  0  0  0  0
 26 24  1  0  0  0  0
 27 24  2  0  0  0  0
 28 16  1  0  0  0  0
 28 30  1  0  0  0  0
 29 28  1  0  0  0  0
 31 28  1  0  0  0  0
M  RAD  3   2   2   3   3   4   2
M  END
