Coordinates from ORCA-job PhN2+~TsO-_B3LYPG-6-31G_dp-CH-Scan-d09-49-n800
 OpenBabel11261919273D

 31 31  0  0  0  0  0  0  0  0999 V2000
   -2.4566    0.7581    0.1187 C   0  0  0  0  0  0  0  0  0  0  0  0
   -3.7803    0.4614    0.4183 N   0  0  0  0  0  0  0  0  0  0  0  0
   -4.8646    0.3212    0.6398 N   0  0  0  0  0  0  0  0  0  0  0  0
   -2.1578    2.0939   -0.1988 C   0  0  0  0  0  0  0  0  0  0  0  0
   -0.8066    2.3192   -0.4948 C   0  0  0  0  0  0  0  0  0  0  0  0
    0.1385    1.2932   -0.4688 C   0  0  0  0  0  0  0  0  0  0  0  0
   -0.2243   -0.0257   -0.1404 C   0  0  0  0  0  0  0  0  0  0  0  0
   -1.5420   -0.3165    0.1613 C   0  0  0  0  0  0  0  0  0  0  0  0
   -3.1354    3.0757   -0.2139 H   0  0  0  0  0  0  0  0  0  0  0  0
   -0.4908    3.3259   -0.7535 H   0  0  0  0  0  0  0  0  0  0  0  0
    1.1762    1.5109   -0.7070 H   0  0  0  0  0  0  0  0  0  0  0  0
    0.5214   -0.8132   -0.1234 H   0  0  0  0  0  0  0  0  0  0  0  0
   -1.8659   -1.3192    0.4201 H   0  0  0  0  0  0  0  0  0  0  0  0
   -7.0167    5.3597    1.1523 C   0  0  0  0  0  0  0  0  0  0  0  0
   -7.9234    6.4159    1.0658 C   0  0  0  0  0  0  0  0  0  0  0  0
   -8.4753    6.7986   -0.1636 C   0  0  0  0  0  0  0  0  0  0  0  0
   -8.1034    6.0847   -1.3131 C   0  0  0  0  0  0  0  0  0  0  0  0
   -7.2000    5.0273   -1.2430 C   0  0  0  0  0  0  0  0  0  0  0  0
   -6.6566    4.6740   -0.0064 C   0  0  0  0  0  0  0  0  0  0  0  0
   -6.6008    5.0521    2.1052 H   0  0  0  0  0  0  0  0  0  0  0  0
   -8.2118    6.9482    1.9687 H   0  0  0  0  0  0  0  0  0  0  0  0
   -8.5330    6.3574   -2.2740 H   0  0  0  0  0  0  0  0  0  0  0  0
   -6.9268    4.4641   -2.1287 H   0  0  0  0  0  0  0  0  0  0  0  0
   -5.4717    3.3362    0.0877 S   0  0  0  0  0  0  0  0  0  0  0  0
   -5.4998    2.8046    1.4740 O   0  0  0  0  0  0  0  0  0  0  0  0
   -4.1280    4.0092   -0.2193 O   0  0  0  0  0  0  0  0  0  0  0  0
   -5.8200    2.3432   -0.9585 O   0  0  0  0  0  0  0  0  0  0  0  0
   -9.4368    7.9596   -0.2567 C   0  0  0  0  0  0  0  0  0  0  0  0
  -10.2699    7.7374   -0.9314 H   0  0  0  0  0  0  0  0  0  0  0  0
   -9.8517    8.2154    0.7219 H   0  0  0  0  0  0  0  0  0  0  0  0
   -8.9379    8.8559   -0.6462 H   0  0  0  0  0  0  0  0  0  0  0  0
  1  8  1  0  0  0  0
  1  2  1  0  0  0  0
  2  3  1  0  0  0  0
  4  1  2  0  0  0  0
  5  6  2  0  0  0  0
  5  4  1  0  0  0  0
  6  7  1  0  0  0  0
  7 12  1  0  0  0  0
  7  8  2  0  0  0  0
  8 13  1  0  0  0  0
 10  5  1  0  0  0  0
 11  6  1  0  0  0  0
 14 20  1  0  0  0  0
 15 14  1  0  0  0  0
 15 21  1  0  0  0  0
 16 15  2  0  0  0  0
 17 18  2  0  0  0  0
 17 16  1  0  0  0  0
 18 19  1  0  0  0  0
 19 24  1  0  0  0  0
 19 14  2  0  0  0  0
 22 17  1  0  0  0  0
 23 18  1  0  0  0  0
 24 25  2  0  0  0  0
 26  9  1  0  0  0  0
 26 24  1  0  0  0  0
 27 24  2  0  0  0  0
 28 16  1  0  0  0  0
 28 30  1  0  0  0  0
 29 28  1  0  0  0  0
 31 28  1  0  0  0  0
M  RAD  3   2   2   3   3   4   2
M  END
