Coordinates from ORCA-job PhN2+~TsO-_B3LYPG-6-31G_dp-CH-Scan-d09-49-n800
 OpenBabel11261919273D

 31 31  0  0  0  0  0  0  0  0999 V2000
   -2.2745    0.6269    0.1233 C   0  0  0  0  0  0  0  0  0  0  0  0
   -3.6035    0.3308    0.4082 N   0  0  0  0  0  0  0  0  0  0  0  0
   -4.6797    0.1327    0.6291 N   0  0  0  0  0  0  0  0  0  0  0  0
   -2.0247    1.9692   -0.2157 C   0  0  0  0  0  0  0  0  0  0  0  0
   -0.6462    2.1582   -0.4911 C   0  0  0  0  0  0  0  0  0  0  0  0
    0.3018    1.1404   -0.4271 C   0  0  0  0  0  0  0  0  0  0  0  0
   -0.0548   -0.1804   -0.0727 C   0  0  0  0  0  0  0  0  0  0  0  0
   -1.3721   -0.4658    0.2134 C   0  0  0  0  0  0  0  0  0  0  0  0
   -3.4904    3.5278   -0.3091 H   0  0  0  0  0  0  0  0  0  0  0  0
   -0.3018    3.1527   -0.7712 H   0  0  0  0  0  0  0  0  0  0  0  0
    1.3440    1.3557   -0.6545 H   0  0  0  0  0  0  0  0  0  0  0  0
    0.6972   -0.9611   -0.0262 H   0  0  0  0  0  0  0  0  0  0  0  0
   -1.7022   -1.4623    0.4922 H   0  0  0  0  0  0  0  0  0  0  0  0
   -7.0709    5.4299    1.1267 C   0  0  0  0  0  0  0  0  0  0  0  0
   -7.9769    6.4873    1.0665 C   0  0  0  0  0  0  0  0  0  0  0  0
   -8.5694    6.8664   -0.1459 C   0  0  0  0  0  0  0  0  0  0  0  0
   -8.2408    6.1486   -1.3062 C   0  0  0  0  0  0  0  0  0  0  0  0
   -7.3391    5.0886   -1.2657 C   0  0  0  0  0  0  0  0  0  0  0  0
   -6.7566    4.7433   -0.0452 C   0  0  0  0  0  0  0  0  0  0  0  0
   -6.6215    5.1268    2.0656 H   0  0  0  0  0  0  0  0  0  0  0  0
   -8.2320    7.0237    1.9764 H   0  0  0  0  0  0  0  0  0  0  0  0
   -8.7021    6.4204   -2.2519 H   0  0  0  0  0  0  0  0  0  0  0  0
   -7.0962    4.5235   -2.1589 H   0  0  0  0  0  0  0  0  0  0  0  0
   -5.6030    3.3865    0.0197 S   0  0  0  0  0  0  0  0  0  0  0  0
   -5.5331    2.8744    1.3943 O   0  0  0  0  0  0  0  0  0  0  0  0
   -4.2501    4.1866   -0.3263 O   0  0  0  0  0  0  0  0  0  0  0  0
   -5.9035    2.4381   -1.0588 O   0  0  0  0  0  0  0  0  0  0  0  0
   -9.5273    8.0315   -0.2089 C   0  0  0  0  0  0  0  0  0  0  0  0
  -10.3477    7.8383   -0.9067 H   0  0  0  0  0  0  0  0  0  0  0  0
   -9.9578    8.2504    0.7718 H   0  0  0  0  0  0  0  0  0  0  0  0
   -9.0170    8.9396   -0.5532 H   0  0  0  0  0  0  0  0  0  0  0  0
  1  8  1  0  0  0  0
  1  2  1  0  0  0  0
  2  3  1  0  0  0  0
  4  1  2  0  0  0  0
  5  6  2  0  0  0  0
  5  4  1  0  0  0  0
  6  7  1  0  0  0  0
  7 12  1  0  0  0  0
  7  8  2  0  0  0  0
  8 13  1  0  0  0  0
 10  5  1  0  0  0  0
 11  6  1  0  0  0  0
 14 20  1  0  0  0  0
 15 14  1  0  0  0  0
 15 21  1  0  0  0  0
 16 15  2  0  0  0  0
 17 18  2  0  0  0  0
 17 16  1  0  0  0  0
 18 19  1  0  0  0  0
 19 24  1  0  0  0  0
 19 14  2  0  0  0  0
 22 17  1  0  0  0  0
 23 18  1  0  0  0  0
 24 25  2  0  0  0  0
 26  9  1  0  0  0  0
 26 24  1  0  0  0  0
 27 24  2  0  0  0  0
 28 16  1  0  0  0  0
 28 30  1  0  0  0  0
 29 28  1  0  0  0  0
 31 28  1  0  0  0  0
M  RAD  3   2   2   3   3   4   2
M  END
