Coordinates from ORCA-job PhN2+~TsO-_B3LYPG-6-31G_dp-CH-Scan-d09-49-n800
 OpenBabel11261919273D

 31 31  0  0  0  0  0  0  0  0999 V2000
   -2.4980    0.7849    0.2202 C   0  0  0  0  0  0  0  0  0  0  0  0
   -3.6811    0.6657    0.9585 N   0  0  0  0  0  0  0  0  0  0  0  0
   -4.7119    0.9813    1.3187 N   0  0  0  0  0  0  0  0  0  0  0  0
   -2.1115    2.0410   -0.2697 C   0  0  0  0  0  0  0  0  0  0  0  0
   -0.9180    2.0951   -0.9864 C   0  0  0  0  0  0  0  0  0  0  0  0
   -0.1566    0.9427   -1.2023 C   0  0  0  0  0  0  0  0  0  0  0  0
   -0.5676   -0.2959   -0.6943 C   0  0  0  0  0  0  0  0  0  0  0  0
   -1.7444   -0.3846    0.0373 C   0  0  0  0  0  0  0  0  0  0  0  0
   -2.7645    3.0198   -0.0589 H   0  0  0  0  0  0  0  0  0  0  0  0
   -0.5833    3.0504   -1.3767 H   0  0  0  0  0  0  0  0  0  0  0  0
    0.7701    1.0089   -1.7645 H   0  0  0  0  0  0  0  0  0  0  0  0
    0.0312   -1.1845   -0.8632 H   0  0  0  0  0  0  0  0  0  0  0  0
   -2.0897   -1.3249    0.4524 H   0  0  0  0  0  0  0  0  0  0  0  0
   -7.5628    5.0523    1.2359 C   0  0  0  0  0  0  0  0  0  0  0  0
   -8.6181    5.8658    0.8302 C   0  0  0  0  0  0  0  0  0  0  0  0
   -8.5314    6.6379   -0.3385 C   0  0  0  0  0  0  0  0  0  0  0  0
   -7.3485    6.5817   -1.0875 C   0  0  0  0  0  0  0  0  0  0  0  0
   -6.2829    5.7725   -0.6939 C   0  0  0  0  0  0  0  0  0  0  0  0
   -6.3984    5.0075    0.4663 C   0  0  0  0  0  0  0  0  0  0  0  0
   -7.6214    4.4695    2.1486 H   0  0  0  0  0  0  0  0  0  0  0  0
   -9.5222    5.9084    1.4328 H   0  0  0  0  0  0  0  0  0  0  0  0
   -7.2588    7.1831   -1.9886 H   0  0  0  0  0  0  0  0  0  0  0  0
   -5.3608    5.7438   -1.2638 H   0  0  0  0  0  0  0  0  0  0  0  0
   -5.0545    3.9297    0.9653 S   0  0  0  0  0  0  0  0  0  0  0  0
   -5.1441    3.7353    2.4240 O   0  0  0  0  0  0  0  0  0  0  0  0
   -3.7998    4.5505    0.4553 O   0  0  0  0  0  0  0  0  0  0  0  0
   -5.3277    2.6249    0.1981 O   0  0  0  0  0  0  0  0  0  0  0  0
   -9.6914    7.4994   -0.7790 C   0  0  0  0  0  0  0  0  0  0  0  0
  -10.5026    6.8890   -1.1952 H   0  0  0  0  0  0  0  0  0  0  0  0
  -10.1119    8.0630    0.0604 H   0  0  0  0  0  0  0  0  0  0  0  0
   -9.3893    8.2144   -1.5494 H   0  0  0  0  0  0  0  0  0  0  0  0
  1  2  1  0  0  0  0
  2  3  1  0  0  0  0
  4  9  1  0  0  0  0
  4  1  2  0  0  0  0
  5  4  1  0  0  0  0
  6  5  2  0  0  0  0
  6  7  1  0  0  0  0
  7  8  2  0  0  0  0
  8  1  1  0  0  0  0
  8 13  1  0  0  0  0
 10  5  1  0  0  0  0
 11  6  1  0  0  0  0
 12  7  1  0  0  0  0
 14 20  1  0  0  0  0
 15 14  1  0  0  0  0
 15 21  1  0  0  0  0
 16 15  2  0  0  0  0
 17 18  2  0  0  0  0
 17 16  1  0  0  0  0
 18 19  1  0  0  0  0
 19 24  1  0  0  0  0
 19 14  2  0  0  0  0
 22 17  1  0  0  0  0
 23 18  1  0  0  0  0
 24 25  1  0  0  0  0
 26 24  2  0  0  0  0
 27 24  2  0  0  0  0
 28 16  1  0  0  0  0
 28 30  1  0  0  0  0
 29 28  1  0  0  0  0
 31 28  1  0  0  0  0
M  RAD  3   2   2   3   3  25   2
M  END
