Coordinates from ORCA-job PhN2+~TsO-_B3LYPG-6-31G_dp-CH-Scan-d09-49-n800
 OpenBabel11261919273D

 31 31  0  0  0  0  0  0  0  0999 V2000
   -1.9982    0.4972    0.0955 C   0  0  0  0  0  0  0  0  0  0  0  0
   -3.3729    0.5373    0.3315 N   0  0  0  0  0  0  0  0  0  0  0  0
   -4.4741    0.6151    0.5063 N   0  0  0  0  0  0  0  0  0  0  0  0
   -1.4571    1.7417   -0.2644 C   0  0  0  0  0  0  0  0  0  0  0  0
   -0.0581    1.5962   -0.4900 C   0  0  0  0  0  0  0  0  0  0  0  0
    0.6311    0.3938   -0.3655 C   0  0  0  0  0  0  0  0  0  0  0  0
   -0.0269   -0.8035    0.0081 C   0  0  0  0  0  0  0  0  0  0  0  0
   -1.3821   -0.7745    0.2509 C   0  0  0  0  0  0  0  0  0  0  0  0
   -3.3388    4.6793   -0.5246 H   0  0  0  0  0  0  0  0  0  0  0  0
    0.5192    2.4752   -0.7810 H   0  0  0  0  0  0  0  0  0  0  0  0
    1.7024    0.3578   -0.5582 H   0  0  0  0  0  0  0  0  0  0  0  0
    0.5289   -1.7311    0.1023 H   0  0  0  0  0  0  0  0  0  0  0  0
   -1.9404   -1.6605    0.5414 H   0  0  0  0  0  0  0  0  0  0  0  0
   -7.1523    5.7169    1.1113 C   0  0  0  0  0  0  0  0  0  0  0  0
   -8.2559    6.5676    1.0920 C   0  0  0  0  0  0  0  0  0  0  0  0
   -8.9505    6.8277   -0.0976 C   0  0  0  0  0  0  0  0  0  0  0  0
   -8.5191    6.2021   -1.2777 C   0  0  0  0  0  0  0  0  0  0  0  0
   -7.4193    5.3489   -1.2797 C   0  0  0  0  0  0  0  0  0  0  0  0
   -6.7424    5.1202   -0.0805 C   0  0  0  0  0  0  0  0  0  0  0  0
   -6.6217    5.5048    2.0328 H   0  0  0  0  0  0  0  0  0  0  0  0
   -8.5857    7.0333    2.0162 H   0  0  0  0  0  0  0  0  0  0  0  0
   -9.0552    6.3826   -2.2056 H   0  0  0  0  0  0  0  0  0  0  0  0
   -7.0938    4.8546   -2.1882 H   0  0  0  0  0  0  0  0  0  0  0  0
   -5.3368    4.0289   -0.0693 S   0  0  0  0  0  0  0  0  0  0  0  0
   -5.1121    3.5286    1.2868 O   0  0  0  0  0  0  0  0  0  0  0  0
   -4.1893    5.1445   -0.4242 O   0  0  0  0  0  0  0  0  0  0  0  0
   -5.4328    3.0827   -1.1811 O   0  0  0  0  0  0  0  0  0  0  0  0
  -10.1261    7.7744   -0.1168 C   0  0  0  0  0  0  0  0  0  0  0  0
  -10.9084    7.4263   -0.7979 H   0  0  0  0  0  0  0  0  0  0  0  0
  -10.5645    7.8901    0.8779 H   0  0  0  0  0  0  0  0  0  0  0  0
   -9.8189    8.7705   -0.4584 H   0  0  0  0  0  0  0  0  0  0  0  0
  1  8  1  0  0  0  0
  1  2  1  0  0  0  0
  2  3  1  0  0  0  0
  4  1  2  0  0  0  0
  5  6  2  0  0  0  0
  5  4  1  0  0  0  0
  6  7  1  0  0  0  0
  7 12  1  0  0  0  0
  7  8  2  0  0  0  0
  8 13  1  0  0  0  0
  9 26  1  0  0  0  0
 10  5  1  0  0  0  0
 11  6  1  0  0  0  0
 14 20  1  0  0  0  0
 15 14  1  0  0  0  0
 15 21  1  0  0  0  0
 16 15  2  0  0  0  0
 17 16  1  0  0  0  0
 18 17  2  0  0  0  0
 18 19  1  0  0  0  0
 19 24  1  0  0  0  0
 19 14  2  0  0  0  0
 22 17  1  0  0  0  0
 23 18  1  0  0  0  0
 24 25  2  0  0  0  0
 26 24  1  0  0  0  0
 27 24  2  0  0  0  0
 28 16  1  0  0  0  0
 28 30  1  0  0  0  0
 29 28  1  0  0  0  0
 31 28  1  0  0  0  0
M  RAD  3   2   2   3   3   4   2
M  END
