Coordinates from ORCA-job PhN2+~TsO-_B3LYPG-6-31G_dp-CH-Scan-d09-49-n800
 OpenBabel11261919283D

 31 31  0  0  0  0  0  0  0  0999 V2000
   -1.8712    0.4724    0.0539 C   0  0  0  0  0  0  0  0  0  0  0  0
   -3.2343    0.7356    0.2089 N   0  0  0  0  0  0  0  0  0  0  0  0
   -4.3164    0.9946    0.3207 N   0  0  0  0  0  0  0  0  0  0  0  0
   -1.1309    1.6098   -0.3016 C   0  0  0  0  0  0  0  0  0  0  0  0
    0.2414    1.2443   -0.4363 C   0  0  0  0  0  0  0  0  0  0  0  0
    0.7295   -0.0437   -0.2409 C   0  0  0  0  0  0  0  0  0  0  0  0
   -0.1250   -1.1159    0.1180 C   0  0  0  0  0  0  0  0  0  0  0  0
   -1.4712   -0.8741    0.2762 C   0  0  0  0  0  0  0  0  0  0  0  0
   -3.3097    5.3935   -0.8409 H   0  0  0  0  0  0  0  0  0  0  0  0
    0.9633    2.0155   -0.7106 H   0  0  0  0  0  0  0  0  0  0  0  0
    1.7922   -0.2487   -0.3647 H   0  0  0  0  0  0  0  0  0  0  0  0
    0.2762   -2.1133    0.2671 H   0  0  0  0  0  0  0  0  0  0  0  0
   -2.1753   -1.6552    0.5512 H   0  0  0  0  0  0  0  0  0  0  0  0
   -7.1507    5.8443    1.0859 C   0  0  0  0  0  0  0  0  0  0  0  0
   -8.3637    6.5300    1.1251 C   0  0  0  0  0  0  0  0  0  0  0  0
   -9.1185    6.7360   -0.0377 C   0  0  0  0  0  0  0  0  0  0  0  0
   -8.6328    6.2269   -1.2527 C   0  0  0  0  0  0  0  0  0  0  0  0
   -7.4243    5.5398   -1.3136 C   0  0  0  0  0  0  0  0  0  0  0  0
   -6.6917    5.3606   -0.1385 C   0  0  0  0  0  0  0  0  0  0  0  0
   -6.5722    5.6726    1.9868 H   0  0  0  0  0  0  0  0  0  0  0  0
   -8.7318    6.9071    2.0748 H   0  0  0  0  0  0  0  0  0  0  0  0
   -9.2125    6.3668   -2.1612 H   0  0  0  0  0  0  0  0  0  0  0  0
   -7.0563    5.1339   -2.2493 H   0  0  0  0  0  0  0  0  0  0  0  0
   -5.1485    4.4777   -0.2015 S   0  0  0  0  0  0  0  0  0  0  0  0
   -4.8093    3.9886    1.1328 O   0  0  0  0  0  0  0  0  0  0  0  0
   -4.1738    5.7508   -0.5694 O   0  0  0  0  0  0  0  0  0  0  0  0
   -5.1391    3.5590   -1.3403 O   0  0  0  0  0  0  0  0  0  0  0  0
  -10.4196    7.5003    0.0073 C   0  0  0  0  0  0  0  0  0  0  0  0
  -11.1806    7.0291   -0.6223 H   0  0  0  0  0  0  0  0  0  0  0  0
  -10.8112    7.5657    1.0258 H   0  0  0  0  0  0  0  0  0  0  0  0
  -10.2840    8.5245   -0.3607 H   0  0  0  0  0  0  0  0  0  0  0  0
  1  2  1  0  0  0  0
  1  8  2  0  0  0  0
  2  3  1  0  0  0  0
  4  1  1  0  0  0  0
  5  4  2  0  0  0  0
  5  6  1  0  0  0  0
  6  7  2  0  0  0  0
  7 12  1  0  0  0  0
  7  8  1  0  0  0  0
  8 13  1  0  0  0  0
  9 26  1  0  0  0  0
 10  5  1  0  0  0  0
 11  6  1  0  0  0  0
 14 15  1  0  0  0  0
 14 20  1  0  0  0  0
 15 21  1  0  0  0  0
 16 28  1  0  0  0  0
 16 15  2  0  0  0  0
 17 16  1  0  0  0  0
 18 17  2  0  0  0  0
 18 19  1  0  0  0  0
 19 14  2  0  0  0  0
 22 17  1  0  0  0  0
 23 18  1  0  0  0  0
 24 19  1  0  0  0  0
 24 25  2  0  0  0  0
 26 24  1  0  0  0  0
 27 24  2  0  0  0  0
 28 30  1  0  0  0  0
 29 28  1  0  0  0  0
 31 28  1  0  0  0  0
M  RAD  3   2   2   3   3   4   2
M  END
