Coordinates from ORCA-job PhN2+~TsO-_B3LYPG-6-31G_dp-CH-Scan-d09-49-n800
 OpenBabel11261919273D

 31 31  0  0  0  0  0  0  0  0999 V2000
   -2.2414    0.6099    0.1138 C   0  0  0  0  0  0  0  0  0  0  0  0
   -3.5792    0.3441    0.3884 N   0  0  0  0  0  0  0  0  0  0  0  0
   -4.6615    0.1703    0.6010 N   0  0  0  0  0  0  0  0  0  0  0  0
   -1.9627    1.9473   -0.2211 C   0  0  0  0  0  0  0  0  0  0  0  0
   -0.5776    2.1064   -0.4860 C   0  0  0  0  0  0  0  0  0  0  0  0
    0.3479    1.0686   -0.4164 C   0  0  0  0  0  0  0  0  0  0  0  0
   -0.0392   -0.2453   -0.0666 C   0  0  0  0  0  0  0  0  0  0  0  0
   -1.3641   -0.5030    0.2094 C   0  0  0  0  0  0  0  0  0  0  0  0
   -3.4853    3.6301   -0.3251 H   0  0  0  0  0  0  0  0  0  0  0  0
   -0.2088    3.0935   -0.7622 H   0  0  0  0  0  0  0  0  0  0  0  0
    1.3964    1.2617   -0.6356 H   0  0  0  0  0  0  0  0  0  0  0  0
    0.6959   -1.0418   -0.0158 H   0  0  0  0  0  0  0  0  0  0  0  0
   -1.7177   -1.4927    0.4842 H   0  0  0  0  0  0  0  0  0  0  0  0
   -7.0824    5.4623    1.1270 C   0  0  0  0  0  0  0  0  0  0  0  0
   -8.0055    6.5048    1.0682 C   0  0  0  0  0  0  0  0  0  0  0  0
   -8.6106    6.8703   -0.1422 C   0  0  0  0  0  0  0  0  0  0  0  0
   -8.2770    6.1540   -1.3020 C   0  0  0  0  0  0  0  0  0  0  0  0
   -7.3582    5.1087   -1.2633 C   0  0  0  0  0  0  0  0  0  0  0  0
   -6.7637    4.7772   -0.0447 C   0  0  0  0  0  0  0  0  0  0  0  0
   -6.6229    5.1698    2.0644 H   0  0  0  0  0  0  0  0  0  0  0  0
   -8.2641    7.0401    1.9777 H   0  0  0  0  0  0  0  0  0  0  0  0
   -8.7477    6.4153   -2.2461 H   0  0  0  0  0  0  0  0  0  0  0  0
   -7.1109    4.5448   -2.1560 H   0  0  0  0  0  0  0  0  0  0  0  0
   -5.5882    3.4397    0.0183 S   0  0  0  0  0  0  0  0  0  0  0  0
   -5.5009    2.9324    1.3926 O   0  0  0  0  0  0  0  0  0  0  0  0
   -4.2496    4.2704   -0.3348 O   0  0  0  0  0  0  0  0  0  0  0  0
   -5.8717    2.4872   -1.0602 O   0  0  0  0  0  0  0  0  0  0  0  0
   -9.5867    8.0201   -0.2036 C   0  0  0  0  0  0  0  0  0  0  0  0
  -10.4031    7.8157   -0.9028 H   0  0  0  0  0  0  0  0  0  0  0  0
  -10.0215    8.2301    0.7771 H   0  0  0  0  0  0  0  0  0  0  0  0
   -9.0901    8.9368   -0.5452 H   0  0  0  0  0  0  0  0  0  0  0  0
  1  8  1  0  0  0  0
  1  2  1  0  0  0  0
  2  3  1  0  0  0  0
  4  1  2  0  0  0  0
  5  6  2  0  0  0  0
  5  4  1  0  0  0  0
  6  7  1  0  0  0  0
  7 12  1  0  0  0  0
  7  8  2  0  0  0  0
  8 13  1  0  0  0  0
 10  5  1  0  0  0  0
 11  6  1  0  0  0  0
 14 20  1  0  0  0  0
 15 14  1  0  0  0  0
 15 21  1  0  0  0  0
 16 15  2  0  0  0  0
 17 18  2  0  0  0  0
 17 16  1  0  0  0  0
 18 19  1  0  0  0  0
 19 24  1  0  0  0  0
 19 14  2  0  0  0  0
 22 17  1  0  0  0  0
 23 18  1  0  0  0  0
 24 25  2  0  0  0  0
 26  9  1  0  0  0  0
 26 24  1  0  0  0  0
 27 24  2  0  0  0  0
 28 16  1  0  0  0  0
 28 30  1  0  0  0  0
 29 28  1  0  0  0  0
 31 28  1  0  0  0  0
M  RAD  3   2   2   3   3   4   2
M  END
