Coordinates from ORCA-job PhN2+~TsO-_B3LYPG-6-31G_dp-CH-Scan-d09-49-n800
 OpenBabel11261919273D

 31 31  0  0  0  0  0  0  0  0999 V2000
   -2.7293    0.8198    0.0059 C   0  0  0  0  0  0  0  0  0  0  0  0
   -4.0975    0.8506    0.3131 N   0  0  0  0  0  0  0  0  0  0  0  0
   -5.0988    1.4087    0.2607 N   0  0  0  0  0  0  0  0  0  0  0  0
   -2.1263    1.8777   -0.6957 C   0  0  0  0  0  0  0  0  0  0  0  0
   -0.7618    1.7717   -0.9530 C   0  0  0  0  0  0  0  0  0  0  0  0
   -0.0335    0.6558   -0.5296 C   0  0  0  0  0  0  0  0  0  0  0  0
   -0.6595   -0.3831    0.1671 C   0  0  0  0  0  0  0  0  0  0  0  0
   -2.0199   -0.3067    0.4421 C   0  0  0  0  0  0  0  0  0  0  0  0
   -2.6389    2.6330   -0.9770 H   0  0  0  0  0  0  0  0  0  0  0  0
   -0.2668    2.5762   -1.4876 H   0  0  0  0  0  0  0  0  0  0  0  0
    1.0294    0.5951   -0.7430 H   0  0  0  0  0  0  0  0  0  0  0  0
   -0.0895   -1.2458    0.4955 H   0  0  0  0  0  0  0  0  0  0  0  0
   -2.5374   -1.0916    0.9827 H   0  0  0  0  0  0  0  0  0  0  0  0
   -7.1991    4.9374    1.0151 C   0  0  0  0  0  0  0  0  0  0  0  0
   -8.4070    5.6280    0.9365 C   0  0  0  0  0  0  0  0  0  0  0  0
   -8.6353    6.5775   -0.0700 C   0  0  0  0  0  0  0  0  0  0  0  0
   -7.6106    6.8284   -0.9931 C   0  0  0  0  0  0  0  0  0  0  0  0
   -6.3964    6.1468   -0.9269 C   0  0  0  0  0  0  0  0  0  0  0  0
   -6.1997    5.1979    0.0767 C   0  0  0  0  0  0  0  0  0  0  0  0
   -7.0160    4.2172    1.8053 H   0  0  0  0  0  0  0  0  0  0  0  0
   -9.1830    5.4315    1.6728 H   0  0  0  0  0  0  0  0  0  0  0  0
   -7.7631    7.5730   -1.7707 H   0  0  0  0  0  0  0  0  0  0  0  0
   -5.5974    6.3568   -1.6298 H   0  0  0  0  0  0  0  0  0  0  0  0
   -4.6556    4.2891    0.1463 S   0  0  0  0  0  0  0  0  0  0  0  0
   -4.4723    3.8210    1.5343 O   0  0  0  0  0  0  0  0  0  0  0  0
   -3.6130    5.1464   -0.4436 O   0  0  0  0  0  0  0  0  0  0  0  0
   -4.8806    3.0666   -0.7968 O   0  0  0  0  0  0  0  0  0  0  0  0
   -9.9593    7.2988   -0.1654 C   0  0  0  0  0  0  0  0  0  0  0  0
  -10.6957    6.6999   -0.7164 H   0  0  0  0  0  0  0  0  0  0  0  0
  -10.3791    7.4972    0.8252 H   0  0  0  0  0  0  0  0  0  0  0  0
   -9.8587    8.2539   -0.6889 H   0  0  0  0  0  0  0  0  0  0  0  0
  1  2  1  0  0  0  0
  1  8  2  0  0  0  0
  3  2  2  0  0  0  0
  4  1  1  0  0  0  0
  5  4  2  0  0  0  0
  5  6  1  0  0  0  0
  6  7  2  0  0  0  0
  7  8  1  0  0  0  0
  7 12  1  0  0  0  0
  8 13  1  0  0  0  0
  9  4  1  0  0  0  0
 10  5  1  0  0  0  0
 11  6  1  0  0  0  0
 14 20  1  0  0  0  0
 15 14  1  0  0  0  0
 15 21  1  0  0  0  0
 16 15  2  0  0  0  0
 17 18  2  0  0  0  0
 17 16  1  0  0  0  0
 18 19  1  0  0  0  0
 19 24  1  0  0  0  0
 19 14  2  0  0  0  0
 22 17  1  0  0  0  0
 23 18  1  0  0  0  0
 24 25  1  0  0  0  0
 26 24  2  0  0  0  0
 27 24  2  0  0  0  0
 28 16  1  0  0  0  0
 28 30  1  0  0  0  0
 29 28  1  0  0  0  0
 31 28  1  0  0  0  0
M  RAD  2   3   2  25   2
M  END
