Coordinates from ORCA-job PhN2+~TsO-_B3LYPG-6-31G_dp-CH-Scan-d09-49-n800
 OpenBabel11261919283D

 31 31  0  0  0  0  0  0  0  0999 V2000
   -1.9112    0.4782    0.0845 C   0  0  0  0  0  0  0  0  0  0  0  0
   -3.2787    0.6731    0.2913 N   0  0  0  0  0  0  0  0  0  0  0  0
   -4.3673    0.8778    0.4444 N   0  0  0  0  0  0  0  0  0  0  0  0
   -1.2363    1.6549   -0.2742 C   0  0  0  0  0  0  0  0  0  0  0  0
    0.1449    1.3566   -0.4655 C   0  0  0  0  0  0  0  0  0  0  0  0
    0.6984    0.0892   -0.3143 C   0  0  0  0  0  0  0  0  0  0  0  0
   -0.0922   -1.0276    0.0540 C   0  0  0  0  0  0  0  0  0  0  0  0
   -1.4412   -0.8515    0.2655 C   0  0  0  0  0  0  0  0  0  0  0  0
   -3.3024    5.1799   -0.7103 H   0  0  0  0  0  0  0  0  0  0  0  0
    0.8202    2.1653   -0.7503 H   0  0  0  0  0  0  0  0  0  0  0  0
    1.7639   -0.0639   -0.4813 H   0  0  0  0  0  0  0  0  0  0  0  0
    0.3594   -2.0080    0.1685 H   0  0  0  0  0  0  0  0  0  0  0  0
   -2.0980   -1.6692    0.5505 H   0  0  0  0  0  0  0  0  0  0  0  0
   -7.1610    5.8089    1.1012 C   0  0  0  0  0  0  0  0  0  0  0  0
   -8.3439    6.5458    1.1110 C   0  0  0  0  0  0  0  0  0  0  0  0
   -9.0716    6.7654   -0.0666 C   0  0  0  0  0  0  0  0  0  0  0  0
   -8.5907    6.2160   -1.2656 C   0  0  0  0  0  0  0  0  0  0  0  0
   -7.4119    5.4769   -1.2971 C   0  0  0  0  0  0  0  0  0  0  0  0
   -6.7048    5.2862   -0.1083 C   0  0  0  0  0  0  0  0  0  0  0  0
   -6.6036    5.6275    2.0134 H   0  0  0  0  0  0  0  0  0  0  0  0
   -8.7097    6.9534    2.0490 H   0  0  0  0  0  0  0  0  0  0  0  0
   -9.1502    6.3656   -2.1851 H   0  0  0  0  0  0  0  0  0  0  0  0
   -7.0477    5.0405   -2.2204 H   0  0  0  0  0  0  0  0  0  0  0  0
   -5.1986    4.3398   -0.1344 S   0  0  0  0  0  0  0  0  0  0  0  0
   -4.8993    3.8554    1.2117 O   0  0  0  0  0  0  0  0  0  0  0  0
   -4.1706    5.5686   -0.5024 O   0  0  0  0  0  0  0  0  0  0  0  0
   -5.2130    3.4035   -1.2584 O   0  0  0  0  0  0  0  0  0  0  0  0
  -10.3371    7.5885   -0.0538 C   0  0  0  0  0  0  0  0  0  0  0  0
  -11.0983    7.1608   -0.7133 H   0  0  0  0  0  0  0  0  0  0  0  0
  -10.7578    7.6614    0.9526 H   0  0  0  0  0  0  0  0  0  0  0  0
  -10.1418    8.6095   -0.4040 H   0  0  0  0  0  0  0  0  0  0  0  0
  1  8  1  0  0  0  0
  1  2  1  0  0  0  0
  2  3  1  0  0  0  0
  4  1  2  0  0  0  0
  5  6  2  0  0  0  0
  5  4  1  0  0  0  0
  6  7  1  0  0  0  0
  7 12  1  0  0  0  0
  7  8  2  0  0  0  0
  8 13  1  0  0  0  0
  9 26  1  0  0  0  0
 10  5  1  0  0  0  0
 11  6  1  0  0  0  0
 14 15  1  0  0  0  0
 14 20  1  0  0  0  0
 15 21  1  0  0  0  0
 16 28  1  0  0  0  0
 16 15  2  0  0  0  0
 17 16  1  0  0  0  0
 18 17  2  0  0  0  0
 18 19  1  0  0  0  0
 19 14  2  0  0  0  0
 22 17  1  0  0  0  0
 23 18  1  0  0  0  0
 24 19  1  0  0  0  0
 24 25  2  0  0  0  0
 26 24  1  0  0  0  0
 27 24  2  0  0  0  0
 28 30  1  0  0  0  0
 29 28  1  0  0  0  0
 31 28  1  0  0  0  0
M  RAD  3   2   2   3   3   4   2
M  END
