Coordinates from ORCA-job PhN2+~TsO-_B3LYPG-6-31G_dp-CH-Scan-d09-49-n800
 OpenBabel11261919273D

 31 31  0  0  0  0  0  0  0  0999 V2000
   -2.0262    0.5050    0.0912 C   0  0  0  0  0  0  0  0  0  0  0  0
   -3.4020    0.4882    0.3189 N   0  0  0  0  0  0  0  0  0  0  0  0
   -4.5058    0.5180    0.4913 N   0  0  0  0  0  0  0  0  0  0  0  0
   -1.5293    1.7706   -0.2605 C   0  0  0  0  0  0  0  0  0  0  0  0
   -0.1250    1.6811   -0.4783 C   0  0  0  0  0  0  0  0  0  0  0  0
    0.6095    0.5057   -0.3536 C   0  0  0  0  0  0  0  0  0  0  0  0
   -0.0040   -0.7174    0.0113 C   0  0  0  0  0  0  0  0  0  0  0  0
   -1.3609   -0.7418    0.2454 C   0  0  0  0  0  0  0  0  0  0  0  0
   -3.3728    4.4881   -0.5061 H   0  0  0  0  0  0  0  0  0  0  0  0
    0.4189    2.5830   -0.7622 H   0  0  0  0  0  0  0  0  0  0  0  0
    1.6825    0.5122   -0.5393 H   0  0  0  0  0  0  0  0  0  0  0  0
    0.5863   -1.6233    0.1054 H   0  0  0  0  0  0  0  0  0  0  0  0
   -1.8859   -1.6501    0.5288 H   0  0  0  0  0  0  0  0  0  0  0  0
   -7.1405    5.6809    1.1067 C   0  0  0  0  0  0  0  0  0  0  0  0
   -8.2113    6.5723    1.0876 C   0  0  0  0  0  0  0  0  0  0  0  0
   -8.9029    6.8500   -0.1000 C   0  0  0  0  0  0  0  0  0  0  0  0
   -8.5025    6.2001   -1.2778 C   0  0  0  0  0  0  0  0  0  0  0  0
   -7.4356    5.3058   -1.2798 C   0  0  0  0  0  0  0  0  0  0  0  0
   -6.7605    5.0604   -0.0830 C   0  0  0  0  0  0  0  0  0  0  0  0
   -6.6128    5.4554    2.0267 H   0  0  0  0  0  0  0  0  0  0  0  0
   -8.5181    7.0566    2.0103 H   0  0  0  0  0  0  0  0  0  0  0  0
   -9.0369    6.3941   -2.2040 H   0  0  0  0  0  0  0  0  0  0  0  0
   -7.1344    4.7930   -2.1864 H   0  0  0  0  0  0  0  0  0  0  0  0
   -5.3971    3.9165   -0.0713 S   0  0  0  0  0  0  0  0  0  0  0  0
   -5.1860    3.4148    1.2871 O   0  0  0  0  0  0  0  0  0  0  0  0
   -4.2105    4.9832   -0.4372 O   0  0  0  0  0  0  0  0  0  0  0  0
   -5.5373    2.9663   -1.1753 O   0  0  0  0  0  0  0  0  0  0  0  0
  -10.0417    7.8404   -0.1190 C   0  0  0  0  0  0  0  0  0  0  0  0
  -10.8339    7.5255   -0.8049 H   0  0  0  0  0  0  0  0  0  0  0  0
  -10.4795    7.9680    0.8745 H   0  0  0  0  0  0  0  0  0  0  0  0
   -9.6958    8.8260   -0.4543 H   0  0  0  0  0  0  0  0  0  0  0  0
  1  8  1  0  0  0  0
  1  2  1  0  0  0  0
  2  3  1  0  0  0  0
  4  1  2  0  0  0  0
  5  6  2  0  0  0  0
  5  4  1  0  0  0  0
  6  7  1  0  0  0  0
  7 12  1  0  0  0  0
  7  8  2  0  0  0  0
  8 13  1  0  0  0  0
  9 26  1  0  0  0  0
 10  5  1  0  0  0  0
 11  6  1  0  0  0  0
 14 20  1  0  0  0  0
 15 14  1  0  0  0  0
 15 21  1  0  0  0  0
 16 15  2  0  0  0  0
 17 16  1  0  0  0  0
 18 17  2  0  0  0  0
 18 19  1  0  0  0  0
 19 24  1  0  0  0  0
 19 14  2  0  0  0  0
 22 17  1  0  0  0  0
 23 18  1  0  0  0  0
 24 25  2  0  0  0  0
 26 24  1  0  0  0  0
 27 24  2  0  0  0  0
 28 16  1  0  0  0  0
 28 30  1  0  0  0  0
 29 28  1  0  0  0  0
 31 28  1  0  0  0  0
M  RAD  3   2   2   3   3   4   2
M  END
