Coordinates from ORCA-job PhN2+~TsO-_B3LYPG-6-31G_dp-CH-Scan-d09-49-n800
 OpenBabel11261919273D

 31 31  0  0  0  0  0  0  0  0999 V2000
   -2.6792    0.7990    0.0349 C   0  0  0  0  0  0  0  0  0  0  0  0
   -4.0327    0.8454    0.3952 N   0  0  0  0  0  0  0  0  0  0  0  0
   -5.0425    1.3853    0.3906 N   0  0  0  0  0  0  0  0  0  0  0  0
   -2.1010    1.8436   -0.7043 C   0  0  0  0  0  0  0  0  0  0  0  0
   -0.7497    1.7345   -1.0186 C   0  0  0  0  0  0  0  0  0  0  0  0
   -0.0094    0.6202   -0.6109 C   0  0  0  0  0  0  0  0  0  0  0  0
   -0.6086   -0.4082    0.1249 C   0  0  0  0  0  0  0  0  0  0  0  0
   -1.9557   -0.3250    0.4565 C   0  0  0  0  0  0  0  0  0  0  0  0
   -2.7174    2.7154   -1.0088 H   0  0  0  0  0  0  0  0  0  0  0  0
   -0.2743    2.5299   -1.5832 H   0  0  0  0  0  0  0  0  0  0  0  0
    1.0435    0.5526   -0.8674 H   0  0  0  0  0  0  0  0  0  0  0  0
   -0.0271   -1.2681    0.4398 H   0  0  0  0  0  0  0  0  0  0  0  0
   -2.4515   -1.1015    1.0287 H   0  0  0  0  0  0  0  0  0  0  0  0
   -7.2621    4.9362    1.0177 C   0  0  0  0  0  0  0  0  0  0  0  0
   -8.4632    5.6336    0.9073 C   0  0  0  0  0  0  0  0  0  0  0  0
   -8.6524    6.5980   -0.0936 C   0  0  0  0  0  0  0  0  0  0  0  0
   -7.5957    6.8558   -0.9774 C   0  0  0  0  0  0  0  0  0  0  0  0
   -6.3875    6.1668   -0.8791 C   0  0  0  0  0  0  0  0  0  0  0  0
   -6.2296    5.2040    0.1175 C   0  0  0  0  0  0  0  0  0  0  0  0
   -7.1096    4.2048    1.8041 H   0  0  0  0  0  0  0  0  0  0  0  0
   -9.2649    5.4310    1.6138 H   0  0  0  0  0  0  0  0  0  0  0  0
   -7.7179    7.6116   -1.7496 H   0  0  0  0  0  0  0  0  0  0  0  0
   -5.5638    6.3815   -1.5514 H   0  0  0  0  0  0  0  0  0  0  0  0
   -4.6934    4.2852    0.2286 S   0  0  0  0  0  0  0  0  0  0  0  0
   -4.5416    3.8336    1.6262 O   0  0  0  0  0  0  0  0  0  0  0  0
   -3.6324    5.1320   -0.3464 O   0  0  0  0  0  0  0  0  0  0  0  0
   -4.9079    3.0568   -0.7041 O   0  0  0  0  0  0  0  0  0  0  0  0
   -9.9686    7.3282   -0.2225 C   0  0  0  0  0  0  0  0  0  0  0  0
  -10.7044    6.7223   -0.7666 H   0  0  0  0  0  0  0  0  0  0  0  0
  -10.3982    7.5548    0.7580 H   0  0  0  0  0  0  0  0  0  0  0  0
   -9.8531    8.2692   -0.7677 H   0  0  0  0  0  0  0  0  0  0  0  0
  1  2  1  0  0  0  0
  1  8  2  0  0  0  0
  3  2  2  0  0  0  0
  4  1  1  0  0  0  0
  5  4  2  0  0  0  0
  5  6  1  0  0  0  0
  6  7  2  0  0  0  0
  7 12  1  0  0  0  0
  7  8  1  0  0  0  0
  8 13  1  0  0  0  0
  9  4  1  0  0  0  0
 10  5  1  0  0  0  0
 11  6  1  0  0  0  0
 14 20  1  0  0  0  0
 15 14  1  0  0  0  0
 15 21  1  0  0  0  0
 16 15  2  0  0  0  0
 17 18  2  0  0  0  0
 17 16  1  0  0  0  0
 18 19  1  0  0  0  0
 19 24  1  0  0  0  0
 19 14  2  0  0  0  0
 22 17  1  0  0  0  0
 23 18  1  0  0  0  0
 24 25  1  0  0  0  0
 26 24  2  0  0  0  0
 27 24  2  0  0  0  0
 28 16  1  0  0  0  0
 28 30  1  0  0  0  0
 29 28  1  0  0  0  0
 31 28  1  0  0  0  0
M  RAD  2   3   2  25   2
M  END
