Coordinates from ORCA-job PhN2+~TsO-_B3LYPG-6-31G_dp-CH-Scan-d09-49-n800
 OpenBabel11261919273D

 31 31  0  0  0  0  0  0  0  0999 V2000
   -1.9723    0.4903    0.0972 C   0  0  0  0  0  0  0  0  0  0  0  0
   -3.3452    0.5812    0.3328 N   0  0  0  0  0  0  0  0  0  0  0  0
   -4.4422    0.7021    0.5109 N   0  0  0  0  0  0  0  0  0  0  0  0
   -1.3890    1.7152   -0.2628 C   0  0  0  0  0  0  0  0  0  0  0  0
    0.0044    1.5193   -0.4884 C   0  0  0  0  0  0  0  0  0  0  0  0
    0.6505    0.2935   -0.3631 C   0  0  0  0  0  0  0  0  0  0  0  0
   -0.0495   -0.8799    0.0111 C   0  0  0  0  0  0  0  0  0  0  0  0
   -1.4028   -0.8028    0.2538 C   0  0  0  0  0  0  0  0  0  0  0  0
   -3.3165    4.8512   -0.5664 H   0  0  0  0  0  0  0  0  0  0  0  0
    0.6129    2.3770   -0.7797 H   0  0  0  0  0  0  0  0  0  0  0  0
    1.7199    0.2191   -0.5556 H   0  0  0  0  0  0  0  0  0  0  0  0
    0.4733   -1.8265    0.1055 H   0  0  0  0  0  0  0  0  0  0  0  0
   -1.9925   -1.6683    0.5445 H   0  0  0  0  0  0  0  0  0  0  0  0
   -7.1582    5.7487    1.1116 C   0  0  0  0  0  0  0  0  0  0  0  0
   -8.2902    6.5614    1.0968 C   0  0  0  0  0  0  0  0  0  0  0  0
   -8.9919    6.8063   -0.0918 C   0  0  0  0  0  0  0  0  0  0  0  0
   -8.5380    6.2042   -1.2758 C   0  0  0  0  0  0  0  0  0  0  0  0
   -7.4098    5.3890   -1.2824 C   0  0  0  0  0  0  0  0  0  0  0  0
   -6.7268    5.1749   -0.0838 C   0  0  0  0  0  0  0  0  0  0  0  0
   -6.6217    5.5483    2.0324 H   0  0  0  0  0  0  0  0  0  0  0  0
   -8.6366    7.0092    2.0238 H   0  0  0  0  0  0  0  0  0  0  0  0
   -9.0787    6.3730   -2.2032 H   0  0  0  0  0  0  0  0  0  0  0  0
   -7.0667    4.9128   -2.1940 H   0  0  0  0  0  0  0  0  0  0  0  0
   -5.2848    4.1326   -0.0787 S   0  0  0  0  0  0  0  0  0  0  0  0
   -5.0391    3.6383    1.2755 O   0  0  0  0  0  0  0  0  0  0  0  0
   -4.1764    5.2893   -0.4348 O   0  0  0  0  0  0  0  0  0  0  0  0
   -5.3480    3.1880   -1.1940 O   0  0  0  0  0  0  0  0  0  0  0  0
  -10.1991    7.7123   -0.1061 C   0  0  0  0  0  0  0  0  0  0  0  0
  -10.9738    7.3352   -0.7807 H   0  0  0  0  0  0  0  0  0  0  0  0
  -10.6345    7.8166    0.8911 H   0  0  0  0  0  0  0  0  0  0  0  0
   -9.9284    8.7170   -0.4536 H   0  0  0  0  0  0  0  0  0  0  0  0
  1  8  1  0  0  0  0
  1  2  1  0  0  0  0
  2  3  1  0  0  0  0
  4  1  2  0  0  0  0
  5  6  2  0  0  0  0
  5  4  1  0  0  0  0
  6  7  1  0  0  0  0
  7 12  1  0  0  0  0
  7  8  2  0  0  0  0
  8 13  1  0  0  0  0
  9 26  1  0  0  0  0
 10  5  1  0  0  0  0
 11  6  1  0  0  0  0
 14 20  1  0  0  0  0
 15 14  1  0  0  0  0
 15 21  1  0  0  0  0
 16 15  2  0  0  0  0
 17 16  1  0  0  0  0
 18 17  2  0  0  0  0
 18 19  1  0  0  0  0
 19 24  1  0  0  0  0
 19 14  2  0  0  0  0
 22 17  1  0  0  0  0
 23 18  1  0  0  0  0
 24 25  2  0  0  0  0
 26 24  1  0  0  0  0
 27 24  2  0  0  0  0
 28 16  1  0  0  0  0
 28 30  1  0  0  0  0
 29 28  1  0  0  0  0
 31 28  1  0  0  0  0
M  RAD  3   2   2   3   3   4   2
M  END
