Coordinates from ORCA-job PhN2+~TsO-_B3LYPG-6-31G_dp-CH-Scan-d09-49-n800
 OpenBabel11261919273D

 31 31  0  0  0  0  0  0  0  0999 V2000
   -2.4251    0.7140    0.1308 C   0  0  0  0  0  0  0  0  0  0  0  0
   -3.7276    0.3418    0.4434 N   0  0  0  0  0  0  0  0  0  0  0  0
   -4.7873    0.0938    0.6864 N   0  0  0  0  0  0  0  0  0  0  0  0
   -2.2284    2.0697   -0.1890 C   0  0  0  0  0  0  0  0  0  0  0  0
   -0.8786    2.3436   -0.4946 C   0  0  0  0  0  0  0  0  0  0  0  0
    0.1197    1.3716   -0.4743 C   0  0  0  0  0  0  0  0  0  0  0  0
   -0.1662    0.0321   -0.1391 C   0  0  0  0  0  0  0  0  0  0  0  0
   -1.4621   -0.3243    0.1730 C   0  0  0  0  0  0  0  0  0  0  0  0
   -3.3784    3.1542   -0.2101 H   0  0  0  0  0  0  0  0  0  0  0  0
   -0.6030    3.3619   -0.7605 H   0  0  0  0  0  0  0  0  0  0  0  0
    1.1432    1.6430   -0.7216 H   0  0  0  0  0  0  0  0  0  0  0  0
    0.6220   -0.7132   -0.1262 H   0  0  0  0  0  0  0  0  0  0  0  0
   -1.7343   -1.3412    0.4384 H   0  0  0  0  0  0  0  0  0  0  0  0
   -7.0244    5.3398    1.1481 C   0  0  0  0  0  0  0  0  0  0  0  0
   -7.8910    6.4285    1.0603 C   0  0  0  0  0  0  0  0  0  0  0  0
   -8.4332    6.8260   -0.1691 C   0  0  0  0  0  0  0  0  0  0  0  0
   -8.0943    6.0942   -1.3175 C   0  0  0  0  0  0  0  0  0  0  0  0
   -7.2313    5.0037   -1.2476 C   0  0  0  0  0  0  0  0  0  0  0  0
   -6.6970    4.6382   -0.0110 C   0  0  0  0  0  0  0  0  0  0  0  0
   -6.6153    5.0214    2.1004 H   0  0  0  0  0  0  0  0  0  0  0  0
   -8.1551    6.9749    1.9619 H   0  0  0  0  0  0  0  0  0  0  0  0
   -8.5179    6.3790   -2.2773 H   0  0  0  0  0  0  0  0  0  0  0  0
   -6.9826    4.4273   -2.1321 H   0  0  0  0  0  0  0  0  0  0  0  0
   -5.5796    3.2489    0.0872 S   0  0  0  0  0  0  0  0  0  0  0  0
   -5.5904    2.7340    1.4706 O   0  0  0  0  0  0  0  0  0  0  0  0
   -4.2020    3.9305   -0.2278 O   0  0  0  0  0  0  0  0  0  0  0  0
   -5.9260    2.2851   -0.9740 O   0  0  0  0  0  0  0  0  0  0  0  0
   -9.3490    8.0230   -0.2628 C   0  0  0  0  0  0  0  0  0  0  0  0
  -10.1687    7.8463   -0.9664 H   0  0  0  0  0  0  0  0  0  0  0  0
   -9.7827    8.2730    0.7090 H   0  0  0  0  0  0  0  0  0  0  0  0
   -8.8051    8.9078   -0.6165 H   0  0  0  0  0  0  0  0  0  0  0  0
  1  8  1  0  0  0  0
  1  2  1  0  0  0  0
  2  3  1  0  0  0  0
  4  1  2  0  0  0  0
  5  6  2  0  0  0  0
  5  4  1  0  0  0  0
  6  7  1  0  0  0  0
  7 12  1  0  0  0  0
  7  8  2  0  0  0  0
  8 13  1  0  0  0  0
 10  5  1  0  0  0  0
 11  6  1  0  0  0  0
 14 20  1  0  0  0  0
 15 14  1  0  0  0  0
 15 21  1  0  0  0  0
 16 15  2  0  0  0  0
 17 18  2  0  0  0  0
 17 16  1  0  0  0  0
 18 19  1  0  0  0  0
 19 24  1  0  0  0  0
 19 14  2  0  0  0  0
 22 17  1  0  0  0  0
 23 18  1  0  0  0  0
 24 25  2  0  0  0  0
 26  9  1  0  0  0  0
 26 24  1  0  0  0  0
 27 24  2  0  0  0  0
 28 16  1  0  0  0  0
 28 30  1  0  0  0  0
 29 28  1  0  0  0  0
 31 28  1  0  0  0  0
M  RAD  3   2   2   3   3   4   2
M  END
