Coordinates from ORCA-job PhN2+~TsO-_B3LYPG-6-31G_dp-CH-Scan-d09-49-n800
 OpenBabel11261919273D

 31 31  0  0  0  0  0  0  0  0999 V2000
   -1.9593    0.4873    0.0969 C   0  0  0  0  0  0  0  0  0  0  0  0
   -3.3308    0.6000    0.3325 N   0  0  0  0  0  0  0  0  0  0  0  0
   -4.4265    0.7374    0.5067 N   0  0  0  0  0  0  0  0  0  0  0  0
   -1.3583    1.7024   -0.2665 C   0  0  0  0  0  0  0  0  0  0  0  0
    0.0325    1.4851   -0.4899 C   0  0  0  0  0  0  0  0  0  0  0  0
    0.6602    0.2502   -0.3608 C   0  0  0  0  0  0  0  0  0  0  0  0
   -0.0575   -0.9118    0.0158 C   0  0  0  0  0  0  0  0  0  0  0  0
   -1.4096   -0.8140    0.2573 C   0  0  0  0  0  0  0  0  0  0  0  0
   -3.3102    4.9221   -0.5841 H   0  0  0  0  0  0  0  0  0  0  0  0
    0.6541    2.3328   -0.7830 H   0  0  0  0  0  0  0  0  0  0  0  0
    1.7285    0.1592   -0.5522 H   0  0  0  0  0  0  0  0  0  0  0  0
    0.4512   -1.8658    0.1133 H   0  0  0  0  0  0  0  0  0  0  0  0
   -2.0123   -1.6697    0.5501 H   0  0  0  0  0  0  0  0  0  0  0  0
   -7.1619    5.7613    1.1114 C   0  0  0  0  0  0  0  0  0  0  0  0
   -8.3050    6.5584    1.0992 C   0  0  0  0  0  0  0  0  0  0  0  0
   -9.0094    6.7981   -0.0888 C   0  0  0  0  0  0  0  0  0  0  0  0
   -8.5467    6.2069   -1.2749 C   0  0  0  0  0  0  0  0  0  0  0  0
   -7.4075    5.4075   -1.2841 C   0  0  0  0  0  0  0  0  0  0  0  0
   -6.7221    5.1981   -0.0859 C   0  0  0  0  0  0  0  0  0  0  0  0
   -6.6231    5.5647    2.0317 H   0  0  0  0  0  0  0  0  0  0  0  0
   -8.6579    6.9978    2.0277 H   0  0  0  0  0  0  0  0  0  0  0  0
   -9.0893    6.3719   -2.2019 H   0  0  0  0  0  0  0  0  0  0  0  0
   -7.0575    4.9395   -2.1974 H   0  0  0  0  0  0  0  0  0  0  0  0
   -5.2659    4.1759   -0.0842 S   0  0  0  0  0  0  0  0  0  0  0  0
   -5.0115    3.6832    1.2688 O   0  0  0  0  0  0  0  0  0  0  0  0
   -4.1738    5.3489   -0.4403 O   0  0  0  0  0  0  0  0  0  0  0  0
   -5.3161    3.2329   -1.2015 O   0  0  0  0  0  0  0  0  0  0  0  0
  -10.2292    7.6874   -0.1003 C   0  0  0  0  0  0  0  0  0  0  0  0
  -10.9999    7.2999   -0.7735 H   0  0  0  0  0  0  0  0  0  0  0  0
  -10.6639    7.7851    0.8979 H   0  0  0  0  0  0  0  0  0  0  0  0
   -9.9730    8.6959   -0.4479 H   0  0  0  0  0  0  0  0  0  0  0  0
  1  8  1  0  0  0  0
  1  2  1  0  0  0  0
  2  3  1  0  0  0  0
  4  1  2  0  0  0  0
  5  6  2  0  0  0  0
  5  4  1  0  0  0  0
  6  7  1  0  0  0  0
  7 12  1  0  0  0  0
  7  8  2  0  0  0  0
  8 13  1  0  0  0  0
  9 26  1  0  0  0  0
 10  5  1  0  0  0  0
 11  6  1  0  0  0  0
 14 20  1  0  0  0  0
 15 14  1  0  0  0  0
 15 21  1  0  0  0  0
 16 15  2  0  0  0  0
 17 16  1  0  0  0  0
 18 17  2  0  0  0  0
 18 19  1  0  0  0  0
 19 24  1  0  0  0  0
 19 14  2  0  0  0  0
 22 17  1  0  0  0  0
 23 18  1  0  0  0  0
 24 25  2  0  0  0  0
 26 24  1  0  0  0  0
 27 24  2  0  0  0  0
 28 16  1  0  0  0  0
 28 30  1  0  0  0  0
 29 28  1  0  0  0  0
 31 28  1  0  0  0  0
M  RAD  3   2   2   3   3   4   2
M  END
