Coordinates from ORCA-job PhN2+~TsO-_B3LYPG-6-31G_dp-CH-Scan-d09-49-n800
 OpenBabel11261919283D

 31 31  0  0  0  0  0  0  0  0999 V2000
   -1.9104    0.4783    0.0836 C   0  0  0  0  0  0  0  0  0  0  0  0
   -3.2783    0.6738    0.2880 N   0  0  0  0  0  0  0  0  0  0  0  0
   -4.3665    0.8795    0.4419 N   0  0  0  0  0  0  0  0  0  0  0  0
   -1.2340    1.6546   -0.2729 C   0  0  0  0  0  0  0  0  0  0  0  0
    0.1473    1.3552   -0.4626 C   0  0  0  0  0  0  0  0  0  0  0  0
    0.6995    0.0873   -0.3114 C   0  0  0  0  0  0  0  0  0  0  0  0
   -0.0926   -1.0292    0.0550 C   0  0  0  0  0  0  0  0  0  0  0  0
   -1.4418   -0.8520    0.2647 C   0  0  0  0  0  0  0  0  0  0  0  0
   -3.3031    5.1829   -0.7152 H   0  0  0  0  0  0  0  0  0  0  0  0
    0.8236    2.1635   -0.7458 H   0  0  0  0  0  0  0  0  0  0  0  0
    1.7651   -0.0667   -0.4769 H   0  0  0  0  0  0  0  0  0  0  0  0
    0.3578   -2.0100    0.1695 H   0  0  0  0  0  0  0  0  0  0  0  0
   -2.0998   -1.6694    0.5479 H   0  0  0  0  0  0  0  0  0  0  0  0
   -7.1602    5.8097    1.1004 C   0  0  0  0  0  0  0  0  0  0  0  0
   -8.3435    6.5460    1.1113 C   0  0  0  0  0  0  0  0  0  0  0  0
   -9.0724    6.7650   -0.0657 C   0  0  0  0  0  0  0  0  0  0  0  0
   -8.5922    6.2159   -1.2651 C   0  0  0  0  0  0  0  0  0  0  0  0
   -7.4130    5.4774   -1.2976 C   0  0  0  0  0  0  0  0  0  0  0  0
   -6.7048    5.2872   -0.1094 C   0  0  0  0  0  0  0  0  0  0  0  0
   -6.6019    5.6287    2.0122 H   0  0  0  0  0  0  0  0  0  0  0  0
   -8.7087    6.9535    2.0496 H   0  0  0  0  0  0  0  0  0  0  0  0
   -9.1527    6.3652   -2.1841 H   0  0  0  0  0  0  0  0  0  0  0  0
   -7.0494    5.0412   -2.2212 H   0  0  0  0  0  0  0  0  0  0  0  0
   -5.1981    4.3416   -0.1368 S   0  0  0  0  0  0  0  0  0  0  0  0
   -4.8973    3.8575    1.2091 O   0  0  0  0  0  0  0  0  0  0  0  0
   -4.1711    5.5710   -0.5059 O   0  0  0  0  0  0  0  0  0  0  0  0
   -5.2129    3.4052   -1.2607 O   0  0  0  0  0  0  0  0  0  0  0  0
  -10.3383    7.5875   -0.0518 C   0  0  0  0  0  0  0  0  0  0  0  0
  -11.1000    7.1591   -0.7105 H   0  0  0  0  0  0  0  0  0  0  0  0
  -10.7580    7.6604    0.9550 H   0  0  0  0  0  0  0  0  0  0  0  0
  -10.1440    8.6085   -0.4025 H   0  0  0  0  0  0  0  0  0  0  0  0
  1  8  1  0  0  0  0
  1  2  1  0  0  0  0
  2  3  1  0  0  0  0
  4  1  2  0  0  0  0
  5  6  2  0  0  0  0
  5  4  1  0  0  0  0
  6  7  1  0  0  0  0
  7 12  1  0  0  0  0
  7  8  2  0  0  0  0
  8 13  1  0  0  0  0
  9 26  1  0  0  0  0
 10  5  1  0  0  0  0
 11  6  1  0  0  0  0
 14 15  1  0  0  0  0
 14 20  1  0  0  0  0
 15 21  1  0  0  0  0
 16 28  1  0  0  0  0
 16 15  2  0  0  0  0
 17 16  1  0  0  0  0
 18 17  2  0  0  0  0
 18 19  1  0  0  0  0
 19 14  2  0  0  0  0
 22 17  1  0  0  0  0
 23 18  1  0  0  0  0
 24 19  1  0  0  0  0
 24 25  2  0  0  0  0
 26 24  1  0  0  0  0
 27 24  2  0  0  0  0
 28 30  1  0  0  0  0
 29 28  1  0  0  0  0
 31 28  1  0  0  0  0
M  RAD  3   2   2   3   3   4   2
M  END
