Coordinates from ORCA-job PhN2+~TsO-_B3LYPG-6-31G_dp-CH-Scan-d09-49-n800
 OpenBabel11261919283D

 31 31  0  0  0  0  0  0  0  0999 V2000
   -1.8069    0.4551    0.0070 C   0  0  0  0  0  0  0  0  0  0  0  0
   -3.1614    0.7860    0.0965 N   0  0  0  0  0  0  0  0  0  0  0  0
   -4.2343    1.0968    0.1533 N   0  0  0  0  0  0  0  0  0  0  0  0
   -1.0013    1.5432   -0.3604 C   0  0  0  0  0  0  0  0  0  0  0  0
    0.3569    1.1111   -0.4243 C   0  0  0  0  0  0  0  0  0  0  0  0
    0.7763   -0.1885   -0.1590 C   0  0  0  0  0  0  0  0  0  0  0  0
   -0.1408   -1.2064    0.2040 C   0  0  0  0  0  0  0  0  0  0  0  0
   -1.4795   -0.8985    0.2961 C   0  0  0  0  0  0  0  0  0  0  0  0
   -3.3357    5.6044   -0.9372 H   0  0  0  0  0  0  0  0  0  0  0  0
    1.1241    1.8376   -0.6976 H   0  0  0  0  0  0  0  0  0  0  0  0
    1.8326   -0.4454   -0.2288 H   0  0  0  0  0  0  0  0  0  0  0  0
    0.2077   -2.2137    0.4079 H   0  0  0  0  0  0  0  0  0  0  0  0
   -2.2298   -1.6359    0.5703 H   0  0  0  0  0  0  0  0  0  0  0  0
   -7.1569    5.8782    1.0713 C   0  0  0  0  0  0  0  0  0  0  0  0
   -8.3937    6.5176    1.1409 C   0  0  0  0  0  0  0  0  0  0  0  0
   -9.1719    6.7187   -0.0070 C   0  0  0  0  0  0  0  0  0  0  0  0
   -8.6846    6.2533   -1.2390 C   0  0  0  0  0  0  0  0  0  0  0  0
   -7.4526    5.6133   -1.3304 C   0  0  0  0  0  0  0  0  0  0  0  0
   -6.6976    5.4370   -0.1688 C   0  0  0  0  0  0  0  0  0  0  0  0
   -6.5599    5.7100    1.9607 H   0  0  0  0  0  0  0  0  0  0  0  0
   -8.7619    6.8619    2.1029 H   0  0  0  0  0  0  0  0  0  0  0  0
   -9.2815    6.3906   -2.1368 H   0  0  0  0  0  0  0  0  0  0  0  0
   -7.0828    5.2409   -2.2792 H   0  0  0  0  0  0  0  0  0  0  0  0
   -5.1243    4.6134   -0.2709 S   0  0  0  0  0  0  0  0  0  0  0  0
   -4.7499    4.1081    1.0476 O   0  0  0  0  0  0  0  0  0  0  0  0
   -4.1983    5.9283   -0.6226 O   0  0  0  0  0  0  0  0  0  0  0  0
   -5.0940    3.7229   -1.4317 O   0  0  0  0  0  0  0  0  0  0  0  0
  -10.5019    7.4288    0.0707 C   0  0  0  0  0  0  0  0  0  0  0  0
  -11.2680    6.9030   -0.5078 H   0  0  0  0  0  0  0  0  0  0  0  0
  -10.8518    7.5133    1.1028 H   0  0  0  0  0  0  0  0  0  0  0  0
  -10.4281    8.4434   -0.3386 H   0  0  0  0  0  0  0  0  0  0  0  0
  1  2  1  0  0  0  0
  1  8  2  0  0  0  0
  2  3  1  0  0  0  0
  4  1  1  0  0  0  0
  5  4  2  0  0  0  0
  5  6  1  0  0  0  0
  6  7  2  0  0  0  0
  7  8  1  0  0  0  0
  7 12  1  0  0  0  0
  8 13  1  0  0  0  0
  9 26  1  0  0  0  0
 10  5  1  0  0  0  0
 11  6  1  0  0  0  0
 14 15  1  0  0  0  0
 14 20  1  0  0  0  0
 15 21  1  0  0  0  0
 16 28  1  0  0  0  0
 16 15  2  0  0  0  0
 17 16  1  0  0  0  0
 18 17  2  0  0  0  0
 18 19  1  0  0  0  0
 19 14  2  0  0  0  0
 22 17  1  0  0  0  0
 23 18  1  0  0  0  0
 24 19  1  0  0  0  0
 24 25  2  0  0  0  0
 26 24  1  0  0  0  0
 27 24  2  0  0  0  0
 28 30  1  0  0  0  0
 29 28  1  0  0  0  0
 31 28  1  0  0  0  0
M  RAD  3   2   2   3   3   4   2
M  END
