Coordinates from ORCA-job PhN2+~TsO-_B3LYPG-6-31G_dp-CH-Scan-d09-49-n800
 OpenBabel11261919273D

 31 31  0  0  0  0  0  0  0  0999 V2000
   -2.3197    0.6498    0.1324 C   0  0  0  0  0  0  0  0  0  0  0  0
   -3.6372    0.3177    0.4293 N   0  0  0  0  0  0  0  0  0  0  0  0
   -4.7056    0.0918    0.6600 N   0  0  0  0  0  0  0  0  0  0  0  0
   -2.1036    1.9979   -0.2079 C   0  0  0  0  0  0  0  0  0  0  0  0
   -0.7345    2.2236   -0.4956 C   0  0  0  0  0  0  0  0  0  0  0  0
    0.2398    1.2301   -0.4412 C   0  0  0  0  0  0  0  0  0  0  0  0
   -0.0804   -0.0987   -0.0848 C   0  0  0  0  0  0  0  0  0  0  0  0
   -1.3876   -0.4178    0.2128 C   0  0  0  0  0  0  0  0  0  0  0  0
   -3.4874    3.3999   -0.2838 H   0  0  0  0  0  0  0  0  0  0  0  0
   -0.4202    3.2273   -0.7776 H   0  0  0  0  0  0  0  0  0  0  0  0
    1.2738    1.4723   -0.6777 H   0  0  0  0  0  0  0  0  0  0  0  0
    0.6913   -0.8604   -0.0455 H   0  0  0  0  0  0  0  0  0  0  0  0
   -1.6896   -1.4225    0.4936 H   0  0  0  0  0  0  0  0  0  0  0  0
   -7.0550    5.3918    1.1286 C   0  0  0  0  0  0  0  0  0  0  0  0
   -7.9412    6.4658    1.0642 C   0  0  0  0  0  0  0  0  0  0  0  0
   -8.5173    6.8587   -0.1516 C   0  0  0  0  0  0  0  0  0  0  0  0
   -8.1923    6.1379   -1.3110 C   0  0  0  0  0  0  0  0  0  0  0  0
   -7.3104    5.0615   -1.2661 C   0  0  0  0  0  0  0  0  0  0  0  0
   -6.7436    4.7021   -0.0422 C   0  0  0  0  0  0  0  0  0  0  0  0
   -6.6188    5.0778    2.0701 H   0  0  0  0  0  0  0  0  0  0  0  0
   -8.1938    7.0043    1.9736 H   0  0  0  0  0  0  0  0  0  0  0  0
   -8.6413    6.4202   -2.2597 H   0  0  0  0  0  0  0  0  0  0  0  0
   -7.0711    4.4940   -2.1587 H   0  0  0  0  0  0  0  0  0  0  0  0
   -5.6147    3.3243    0.0277 S   0  0  0  0  0  0  0  0  0  0  0  0
   -5.5685    2.8077    1.4033 O   0  0  0  0  0  0  0  0  0  0  0  0
   -4.2462    4.0845   -0.3084 O   0  0  0  0  0  0  0  0  0  0  0  0
   -5.9349    2.3788   -1.0494 O   0  0  0  0  0  0  0  0  0  0  0  0
   -9.4543    8.0405   -0.2192 C   0  0  0  0  0  0  0  0  0  0  0  0
  -10.2789    7.8584   -0.9152 H   0  0  0  0  0  0  0  0  0  0  0  0
   -9.8799    8.2714    0.7608 H   0  0  0  0  0  0  0  0  0  0  0  0
   -8.9287    8.9379   -0.5684 H   0  0  0  0  0  0  0  0  0  0  0  0
  1  8  1  0  0  0  0
  1  2  1  0  0  0  0
  2  3  1  0  0  0  0
  4  1  2  0  0  0  0
  5  6  2  0  0  0  0
  5  4  1  0  0  0  0
  6  7  1  0  0  0  0
  7 12  1  0  0  0  0
  7  8  2  0  0  0  0
  8 13  1  0  0  0  0
 10  5  1  0  0  0  0
 11  6  1  0  0  0  0
 14 20  1  0  0  0  0
 15 14  1  0  0  0  0
 15 21  1  0  0  0  0
 16 15  2  0  0  0  0
 17 18  2  0  0  0  0
 17 16  1  0  0  0  0
 18 19  1  0  0  0  0
 19 24  1  0  0  0  0
 19 14  2  0  0  0  0
 22 17  1  0  0  0  0
 23 18  1  0  0  0  0
 24 25  2  0  0  0  0
 26  9  1  0  0  0  0
 26 24  1  0  0  0  0
 27 24  2  0  0  0  0
 28 16  1  0  0  0  0
 28 30  1  0  0  0  0
 29 28  1  0  0  0  0
 31 28  1  0  0  0  0
M  RAD  3   2   2   3   3   4   2
M  END
