Coordinates from ORCA-job PhN2+~TsO-_B3LYPG-6-31G_dp-CH-Scan-d09-49-n800
 OpenBabel11261919273D

 31 31  0  0  0  0  0  0  0  0999 V2000
   -2.0481    0.5136    0.0904 C   0  0  0  0  0  0  0  0  0  0  0  0
   -3.4228    0.4684    0.3189 N   0  0  0  0  0  0  0  0  0  0  0  0
   -4.5270    0.4759    0.4906 N   0  0  0  0  0  0  0  0  0  0  0  0
   -1.5749    1.7891   -0.2589 C   0  0  0  0  0  0  0  0  0  0  0  0
   -0.1693    1.7287   -0.4759 C   0  0  0  0  0  0  0  0  0  0  0  0
    0.5882    0.5678   -0.3532 C   0  0  0  0  0  0  0  0  0  0  0  0
   -0.0012   -0.6678    0.0085 C   0  0  0  0  0  0  0  0  0  0  0  0
   -1.3575   -0.7196    0.2418 C   0  0  0  0  0  0  0  0  0  0  0  0
   -3.3850    4.3908   -0.4899 H   0  0  0  0  0  0  0  0  0  0  0  0
    0.3562    2.6419   -0.7577 H   0  0  0  0  0  0  0  0  0  0  0  0
    1.6610    0.5961   -0.5383 H   0  0  0  0  0  0  0  0  0  0  0  0
    0.6067   -1.5621    0.1011 H   0  0  0  0  0  0  0  0  0  0  0  0
   -1.8644   -1.6388    0.5231 H   0  0  0  0  0  0  0  0  0  0  0  0
   -7.1317    5.6594    1.1064 C   0  0  0  0  0  0  0  0  0  0  0  0
   -8.1863    6.5698    1.0851 C   0  0  0  0  0  0  0  0  0  0  0  0
   -8.8737    6.8559   -0.1030 C   0  0  0  0  0  0  0  0  0  0  0  0
   -8.4860    6.1951   -1.2789 C   0  0  0  0  0  0  0  0  0  0  0  0
   -7.4354    5.2817   -1.2785 C   0  0  0  0  0  0  0  0  0  0  0  0
   -6.7638    5.0282   -0.0815 C   0  0  0  0  0  0  0  0  0  0  0  0
   -6.6074    5.4275    2.0267 H   0  0  0  0  0  0  0  0  0  0  0  0
   -8.4837    7.0626    2.0064 H   0  0  0  0  0  0  0  0  0  0  0  0
   -9.0175    6.3956   -2.2053 H   0  0  0  0  0  0  0  0  0  0  0  0
   -7.1440    4.7604   -2.1836 H   0  0  0  0  0  0  0  0  0  0  0  0
   -5.4211    3.8597   -0.0667 S   0  0  0  0  0  0  0  0  0  0  0  0
   -5.2201    3.3573    1.2933 O   0  0  0  0  0  0  0  0  0  0  0  0
   -4.2153    4.9015   -0.4352 O   0  0  0  0  0  0  0  0  0  0  0  0
   -5.5806    2.9082   -1.1671 O   0  0  0  0  0  0  0  0  0  0  0  0
   -9.9944    7.8668   -0.1243 C   0  0  0  0  0  0  0  0  0  0  0  0
  -10.7899    7.5673   -0.8132 H   0  0  0  0  0  0  0  0  0  0  0  0
  -10.4331    8.0009    0.8680 H   0  0  0  0  0  0  0  0  0  0  0  0
   -9.6296    8.8465   -0.4568 H   0  0  0  0  0  0  0  0  0  0  0  0
  1  8  1  0  0  0  0
  1  2  1  0  0  0  0
  2  3  1  0  0  0  0
  4  1  2  0  0  0  0
  5  6  2  0  0  0  0
  5  4  1  0  0  0  0
  6  7  1  0  0  0  0
  7 12  1  0  0  0  0
  7  8  2  0  0  0  0
  8 13  1  0  0  0  0
  9 26  1  0  0  0  0
 10  5  1  0  0  0  0
 11  6  1  0  0  0  0
 14 20  1  0  0  0  0
 15 14  1  0  0  0  0
 15 21  1  0  0  0  0
 16 15  2  0  0  0  0
 17 18  2  0  0  0  0
 17 16  1  0  0  0  0
 18 19  1  0  0  0  0
 19 24  1  0  0  0  0
 19 14  2  0  0  0  0
 22 17  1  0  0  0  0
 23 18  1  0  0  0  0
 24 25  2  0  0  0  0
 26 24  1  0  0  0  0
 27 24  2  0  0  0  0
 28 16  1  0  0  0  0
 28 30  1  0  0  0  0
 29 28  1  0  0  0  0
 31 28  1  0  0  0  0
M  RAD  3   2   2   3   3   4   2
M  END
