Coordinates from ORCA-job PhN2+~TsO-_B3LYPG-6-31G_dp-CH-Scan-d09-49-n800
 OpenBabel11261919273D

 31 31  0  0  0  0  0  0  0  0999 V2000
   -2.1183    0.5447    0.0949 C   0  0  0  0  0  0  0  0  0  0  0  0
   -3.4828    0.4007    0.3343 N   0  0  0  0  0  0  0  0  0  0  0  0
   -4.5821    0.3258    0.5186 N   0  0  0  0  0  0  0  0  0  0  0  0
   -1.7292    1.8519   -0.2437 C   0  0  0  0  0  0  0  0  0  0  0  0
   -0.3261    1.8908   -0.4704 C   0  0  0  0  0  0  0  0  0  0  0  0
    0.5086    0.7819   -0.3649 C   0  0  0  0  0  0  0  0  0  0  0  0
    0.0056   -0.4935   -0.0139 C   0  0  0  0  0  0  0  0  0  0  0  0
   -1.3427   -0.6389    0.2270 C   0  0  0  0  0  0  0  0  0  0  0  0
   -3.4407    4.0505   -0.4288 H   0  0  0  0  0  0  0  0  0  0  0  0
    0.1333    2.8405   -0.7453 H   0  0  0  0  0  0  0  0  0  0  0  0
    1.5755    0.8849   -0.5558 H   0  0  0  0  0  0  0  0  0  0  0  0
    0.6720   -1.3464    0.0647 H   0  0  0  0  0  0  0  0  0  0  0  0
   -1.7844   -1.5931    0.5008 H   0  0  0  0  0  0  0  0  0  0  0  0
   -7.1111    5.5810    1.1096 C   0  0  0  0  0  0  0  0  0  0  0  0
   -8.1062    6.5557    1.0764 C   0  0  0  0  0  0  0  0  0  0  0  0
   -8.7688    6.8755   -0.1171 C   0  0  0  0  0  0  0  0  0  0  0  0
   -8.4182    6.1826   -1.2860 C   0  0  0  0  0  0  0  0  0  0  0  0
   -7.4274    5.2046   -1.2734 C   0  0  0  0  0  0  0  0  0  0  0  0
   -6.7781    4.9184   -0.0714 C   0  0  0  0  0  0  0  0  0  0  0  0
   -6.6066    5.3234    2.0341 H   0  0  0  0  0  0  0  0  0  0  0  0
   -8.3764    7.0731    1.9927 H   0  0  0  0  0  0  0  0  0  0  0  0
   -8.9320    6.4088   -2.2165 H   0  0  0  0  0  0  0  0  0  0  0  0
   -7.1655    4.6586   -2.1730 H   0  0  0  0  0  0  0  0  0  0  0  0
   -5.5118    3.6669   -0.0411 S   0  0  0  0  0  0  0  0  0  0  0  0
   -5.3522    3.1622    1.3249 O   0  0  0  0  0  0  0  0  0  0  0  0
   -4.2417    4.6165   -0.4130 O   0  0  0  0  0  0  0  0  0  0  0  0
   -5.7350    2.7134   -1.1299 O   0  0  0  0  0  0  0  0  0  0  0  0
   -9.8233    7.9550   -0.1509 C   0  0  0  0  0  0  0  0  0  0  0  0
  -10.6288    7.7061   -0.8482 H   0  0  0  0  0  0  0  0  0  0  0  0
  -10.2634    8.1173    0.8366 H   0  0  0  0  0  0  0  0  0  0  0  0
   -9.3940    8.9097   -0.4792 H   0  0  0  0  0  0  0  0  0  0  0  0
  1  8  1  0  0  0  0
  1  2  1  0  0  0  0
  2  3  1  0  0  0  0
  4  1  2  0  0  0  0
  5  6  2  0  0  0  0
  5  4  1  0  0  0  0
  6  7  1  0  0  0  0
  7 12  1  0  0  0  0
  7  8  2  0  0  0  0
  8 13  1  0  0  0  0
  9 26  1  0  0  0  0
 10  5  1  0  0  0  0
 11  6  1  0  0  0  0
 14 20  1  0  0  0  0
 15 14  1  0  0  0  0
 15 21  1  0  0  0  0
 16 15  2  0  0  0  0
 17 18  2  0  0  0  0
 17 16  1  0  0  0  0
 18 19  1  0  0  0  0
 19 24  1  0  0  0  0
 19 14  2  0  0  0  0
 22 17  1  0  0  0  0
 23 18  1  0  0  0  0
 24 25  2  0  0  0  0
 26 24  1  0  0  0  0
 27 24  2  0  0  0  0
 28 16  1  0  0  0  0
 28 30  1  0  0  0  0
 29 28  1  0  0  0  0
 31 28  1  0  0  0  0
M  RAD  3   2   2   3   3   4   2
M  END
