Coordinates from ORCA-job PhN2+~TsO-_B3LYPG-6-31G_dp-CH-Scan-d09-49-n800
 OpenBabel11261919273D

 31 31  0  0  0  0  0  0  0  0999 V2000
   -1.9244    0.4800    0.0895 C   0  0  0  0  0  0  0  0  0  0  0  0
   -3.2937    0.6509    0.3057 N   0  0  0  0  0  0  0  0  0  0  0  0
   -4.3841    0.8367    0.4688 N   0  0  0  0  0  0  0  0  0  0  0  0
   -1.2709    1.6689   -0.2687 C   0  0  0  0  0  0  0  0  0  0  0  0
    0.1134    1.3940   -0.4716 C   0  0  0  0  0  0  0  0  0  0  0  0
    0.6885    0.1352   -0.3296 C   0  0  0  0  0  0  0  0  0  0  0  0
   -0.0811   -0.9957    0.0401 C   0  0  0  0  0  0  0  0  0  0  0  0
   -1.4313   -0.8423    0.2620 C   0  0  0  0  0  0  0  0  0  0  0  0
   -3.3037    5.1063   -0.6729 H   0  0  0  0  0  0  0  0  0  0  0  0
    0.7733    2.2147   -0.7580 H   0  0  0  0  0  0  0  0  0  0  0  0
    1.7550    0.0000   -0.5050 H   0  0  0  0  0  0  0  0  0  0  0  0
    0.3870   -1.9691    0.1474 H   0  0  0  0  0  0  0  0  0  0  0  0
   -2.0726   -1.6718    0.5483 H   0  0  0  0  0  0  0  0  0  0  0  0
   -7.1621    5.7958    1.1044 C   0  0  0  0  0  0  0  0  0  0  0  0
   -8.3339    6.5504    1.1073 C   0  0  0  0  0  0  0  0  0  0  0  0
   -9.0547    6.7754   -0.0737 C   0  0  0  0  0  0  0  0  0  0  0  0
   -8.5785    6.2132   -1.2686 C   0  0  0  0  0  0  0  0  0  0  0  0
   -7.4108    5.4564   -1.2930 C   0  0  0  0  0  0  0  0  0  0  0  0
   -6.7102    5.2608   -0.1012 C   0  0  0  0  0  0  0  0  0  0  0  0
   -6.6102    5.6105    2.0192 H   0  0  0  0  0  0  0  0  0  0  0  0
   -8.6963    6.9678    2.0423 H   0  0  0  0  0  0  0  0  0  0  0  0
   -9.1330    6.3670   -2.1904 H   0  0  0  0  0  0  0  0  0  0  0  0
   -7.0504    5.0104   -2.2131 H   0  0  0  0  0  0  0  0  0  0  0  0
   -5.2178    4.2925   -0.1187 S   0  0  0  0  0  0  0  0  0  0  0  0
   -4.9309    3.8069    1.2299 O   0  0  0  0  0  0  0  0  0  0  0  0
   -4.1715    5.5057   -0.4848 O   0  0  0  0  0  0  0  0  0  0  0  0
   -5.2424    3.3530   -1.2398 O   0  0  0  0  0  0  0  0  0  0  0  0
  -10.3071    7.6183   -0.0685 C   0  0  0  0  0  0  0  0  0  0  0  0
  -11.0711    7.2025   -0.7325 H   0  0  0  0  0  0  0  0  0  0  0  0
  -10.7325    7.6983    0.9353 H   0  0  0  0  0  0  0  0  0  0  0  0
  -10.0936    8.6360   -0.4179 H   0  0  0  0  0  0  0  0  0  0  0  0
  1  8  1  0  0  0  0
  1  2  1  0  0  0  0
  2  3  1  0  0  0  0
  4  1  2  0  0  0  0
  5  6  2  0  0  0  0
  5  4  1  0  0  0  0
  6  7  1  0  0  0  0
  7 12  1  0  0  0  0
  7  8  2  0  0  0  0
  8 13  1  0  0  0  0
  9 26  1  0  0  0  0
 10  5  1  0  0  0  0
 11  6  1  0  0  0  0
 14 15  1  0  0  0  0
 14 20  1  0  0  0  0
 15 21  1  0  0  0  0
 16 28  1  0  0  0  0
 16 15  2  0  0  0  0
 17 16  1  0  0  0  0
 18 17  2  0  0  0  0
 18 19  1  0  0  0  0
 19 14  2  0  0  0  0
 22 17  1  0  0  0  0
 23 18  1  0  0  0  0
 24 19  1  0  0  0  0
 24 25  2  0  0  0  0
 26 24  1  0  0  0  0
 27 24  2  0  0  0  0
 28 30  1  0  0  0  0
 29 28  1  0  0  0  0
 31 28  1  0  0  0  0
M  RAD  3   2   2   3   3   4   2
M  END
