Coordinates from ORCA-job PhN2+~TsO-_B3LYPG-6-31G_dp-CH-Scan-d09-49-n800
 OpenBabel11261919273D

 31 31  0  0  0  0  0  0  0  0999 V2000
   -2.4128    0.7041    0.1329 C   0  0  0  0  0  0  0  0  0  0  0  0
   -3.7148    0.3298    0.4454 N   0  0  0  0  0  0  0  0  0  0  0  0
   -4.7736    0.0772    0.6884 N   0  0  0  0  0  0  0  0  0  0  0  0
   -2.2229    2.0602   -0.1904 C   0  0  0  0  0  0  0  0  0  0  0  0
   -0.8715    2.3338   -0.4953 C   0  0  0  0  0  0  0  0  0  0  0  0
    0.1291    1.3645   -0.4712 C   0  0  0  0  0  0  0  0  0  0  0  0
   -0.1533    0.0248   -0.1320 C   0  0  0  0  0  0  0  0  0  0  0  0
   -1.4484   -0.3334    0.1799 C   0  0  0  0  0  0  0  0  0  0  0  0
   -3.4072    3.1812   -0.2179 H   0  0  0  0  0  0  0  0  0  0  0  0
   -0.5959    3.3514   -0.7645 H   0  0  0  0  0  0  0  0  0  0  0  0
    1.1523    1.6376   -0.7185 H   0  0  0  0  0  0  0  0  0  0  0  0
    0.6370   -0.7182   -0.1161 H   0  0  0  0  0  0  0  0  0  0  0  0
   -1.7188   -1.3501    0.4485 H   0  0  0  0  0  0  0  0  0  0  0  0
   -7.0274    5.3422    1.1451 C   0  0  0  0  0  0  0  0  0  0  0  0
   -7.8927    6.4321    1.0604 C   0  0  0  0  0  0  0  0  0  0  0  0
   -8.4376    6.8314   -0.1673 C   0  0  0  0  0  0  0  0  0  0  0  0
   -8.1028    6.1002   -1.3174 C   0  0  0  0  0  0  0  0  0  0  0  0
   -7.2412    5.0085   -1.2509 C   0  0  0  0  0  0  0  0  0  0  0  0
   -6.7043    4.6416   -0.0158 C   0  0  0  0  0  0  0  0  0  0  0  0
   -6.6161    5.0227    2.0960 H   0  0  0  0  0  0  0  0  0  0  0  0
   -8.1536    6.9781    1.9631 H   0  0  0  0  0  0  0  0  0  0  0  0
   -8.5285    6.3866   -2.2757 H   0  0  0  0  0  0  0  0  0  0  0  0
   -6.9955    4.4326   -2.1365 H   0  0  0  0  0  0  0  0  0  0  0  0
   -5.5915    3.2491    0.0786 S   0  0  0  0  0  0  0  0  0  0  0  0
   -5.5956    2.7337    1.4606 O   0  0  0  0  0  0  0  0  0  0  0  0
   -4.2118    3.9392   -0.2384 O   0  0  0  0  0  0  0  0  0  0  0  0
   -5.9356    2.2903   -0.9861 O   0  0  0  0  0  0  0  0  0  0  0  0
   -9.3521    8.0296   -0.2575 C   0  0  0  0  0  0  0  0  0  0  0  0
  -10.1730    7.8550   -0.9601 H   0  0  0  0  0  0  0  0  0  0  0  0
   -9.7839    8.2786    0.7154 H   0  0  0  0  0  0  0  0  0  0  0  0
   -8.8074    8.9142   -0.6106 H   0  0  0  0  0  0  0  0  0  0  0  0
  1  8  1  0  0  0  0
  1  2  1  0  0  0  0
  2  3  1  0  0  0  0
  4  1  2  0  0  0  0
  5  6  2  0  0  0  0
  5  4  1  0  0  0  0
  6  7  1  0  0  0  0
  7 12  1  0  0  0  0
  7  8  2  0  0  0  0
  8 13  1  0  0  0  0
 10  5  1  0  0  0  0
 11  6  1  0  0  0  0
 14 20  1  0  0  0  0
 15 14  1  0  0  0  0
 15 21  1  0  0  0  0
 16 15  2  0  0  0  0
 17 18  2  0  0  0  0
 17 16  1  0  0  0  0
 18 19  1  0  0  0  0
 19 24  1  0  0  0  0
 19 14  2  0  0  0  0
 22 17  1  0  0  0  0
 23 18  1  0  0  0  0
 24 25  2  0  0  0  0
 26  9  1  0  0  0  0
 26 24  1  0  0  0  0
 27 24  2  0  0  0  0
 28 16  1  0  0  0  0
 28 30  1  0  0  0  0
 29 28  1  0  0  0  0
 31 28  1  0  0  0  0
M  RAD  3   2   2   3   3   4   2
M  END
