Coordinates from ORCA-job PhN2+~TsO-_B3LYPG-6-31G_dp-CH-Scan-d09-49-n800
 OpenBabel11261919273D

 31 31  0  0  0  0  0  0  0  0999 V2000
   -2.2590    0.6189    0.1189 C   0  0  0  0  0  0  0  0  0  0  0  0
   -3.5922    0.3366    0.3987 N   0  0  0  0  0  0  0  0  0  0  0  0
   -4.6713    0.1495    0.6157 N   0  0  0  0  0  0  0  0  0  0  0  0
   -1.9961    1.9591   -0.2182 C   0  0  0  0  0  0  0  0  0  0  0  0
   -0.6144    2.1345   -0.4885 C   0  0  0  0  0  0  0  0  0  0  0  0
    0.3234    1.1076   -0.4219 C   0  0  0  0  0  0  0  0  0  0  0  0
   -0.0471   -0.2102   -0.0697 C   0  0  0  0  0  0  0  0  0  0  0  0
   -1.3680   -0.4831    0.2115 C   0  0  0  0  0  0  0  0  0  0  0  0
   -3.4889    3.5744   -0.3166 H   0  0  0  0  0  0  0  0  0  0  0  0
   -0.2588    3.1257   -0.7668 H   0  0  0  0  0  0  0  0  0  0  0  0
    1.3686    1.3128   -0.6454 H   0  0  0  0  0  0  0  0  0  0  0  0
    0.6973   -0.9982   -0.0212 H   0  0  0  0  0  0  0  0  0  0  0  0
   -1.7089   -1.4766    0.4883 H   0  0  0  0  0  0  0  0  0  0  0  0
   -7.0763    5.4449    1.1268 C   0  0  0  0  0  0  0  0  0  0  0  0
   -7.9899    6.4956    1.0672 C   0  0  0  0  0  0  0  0  0  0  0  0
   -8.5884    6.8684   -0.1442 C   0  0  0  0  0  0  0  0  0  0  0  0
   -8.2578    6.1511   -1.3042 C   0  0  0  0  0  0  0  0  0  0  0  0
   -7.3484    5.0976   -1.2646 C   0  0  0  0  0  0  0  0  0  0  0  0
   -6.7602    4.7587   -0.0450 C   0  0  0  0  0  0  0  0  0  0  0  0
   -6.6220    5.1467    2.0650 H   0  0  0  0  0  0  0  0  0  0  0  0
   -8.2464    7.0316    1.9769 H   0  0  0  0  0  0  0  0  0  0  0  0
   -8.7235    6.4181   -2.2491 H   0  0  0  0  0  0  0  0  0  0  0  0
   -7.1037    4.5330   -2.1575 H   0  0  0  0  0  0  0  0  0  0  0  0
   -5.5967    3.4106    0.0190 S   0  0  0  0  0  0  0  0  0  0  0  0
   -5.5186    2.9008    1.3936 O   0  0  0  0  0  0  0  0  0  0  0  0
   -4.2503    4.2246   -0.3306 O   0  0  0  0  0  0  0  0  0  0  0  0
   -5.8897    2.4601   -1.0593 O   0  0  0  0  0  0  0  0  0  0  0  0
   -9.5544    8.0268   -0.2064 C   0  0  0  0  0  0  0  0  0  0  0  0
  -10.3730    7.8286   -0.9050 H   0  0  0  0  0  0  0  0  0  0  0  0
   -9.9869    8.2416    0.7742 H   0  0  0  0  0  0  0  0  0  0  0  0
   -9.0502    8.9388   -0.5494 H   0  0  0  0  0  0  0  0  0  0  0  0
  1  8  1  0  0  0  0
  1  2  1  0  0  0  0
  2  3  1  0  0  0  0
  4  1  2  0  0  0  0
  5  6  2  0  0  0  0
  5  4  1  0  0  0  0
  6  7  1  0  0  0  0
  7 12  1  0  0  0  0
  7  8  2  0  0  0  0
  8 13  1  0  0  0  0
 10  5  1  0  0  0  0
 11  6  1  0  0  0  0
 14 20  1  0  0  0  0
 15 14  1  0  0  0  0
 15 21  1  0  0  0  0
 16 15  2  0  0  0  0
 17 18  2  0  0  0  0
 17 16  1  0  0  0  0
 18 19  1  0  0  0  0
 19 24  1  0  0  0  0
 19 14  2  0  0  0  0
 22 17  1  0  0  0  0
 23 18  1  0  0  0  0
 24 25  2  0  0  0  0
 26  9  1  0  0  0  0
 26 24  1  0  0  0  0
 27 24  2  0  0  0  0
 28 16  1  0  0  0  0
 28 30  1  0  0  0  0
 29 28  1  0  0  0  0
 31 28  1  0  0  0  0
M  RAD  3   2   2   3   3   4   2
M  END
