Coordinates from ORCA-job PhN2+~TsO-_B3LYPG-6-31G_dp-CH-Scan-d09-49-n800
 OpenBabel11261919273D

 31 31  0  0  0  0  0  0  0  0999 V2000
   -2.0110    0.5002    0.0919 C   0  0  0  0  0  0  0  0  0  0  0  0
   -3.3871    0.5065    0.3205 N   0  0  0  0  0  0  0  0  0  0  0  0
   -4.4901    0.5553    0.4938 N   0  0  0  0  0  0  0  0  0  0  0  0
   -1.4949    1.7570   -0.2625 C   0  0  0  0  0  0  0  0  0  0  0  0
   -0.0922    1.6438   -0.4818 C   0  0  0  0  0  0  0  0  0  0  0  0
    0.6233    0.4570   -0.3556 C   0  0  0  0  0  0  0  0  0  0  0  0
   -0.0096   -0.7554    0.0125 C   0  0  0  0  0  0  0  0  0  0  0  0
   -1.3663   -0.7573    0.2483 C   0  0  0  0  0  0  0  0  0  0  0  0
   -3.3615    4.5670   -0.5170 H   0  0  0  0  0  0  0  0  0  0  0  0
    0.4662    2.5362   -0.7681 H   0  0  0  0  0  0  0  0  0  0  0  0
    1.6960    0.4457   -0.5427 H   0  0  0  0  0  0  0  0  0  0  0  0
    0.5662   -1.6705    0.1078 H   0  0  0  0  0  0  0  0  0  0  0  0
   -1.9058   -1.6564    0.5340 H   0  0  0  0  0  0  0  0  0  0  0  0
   -7.1468    5.6969    1.1076 C   0  0  0  0  0  0  0  0  0  0  0  0
   -8.2306    6.5724    1.0896 C   0  0  0  0  0  0  0  0  0  0  0  0
   -8.9247    6.8432   -0.0981 C   0  0  0  0  0  0  0  0  0  0  0  0
   -8.5131    6.2028   -1.2773 C   0  0  0  0  0  0  0  0  0  0  0  0
   -7.4331    5.3245   -1.2804 C   0  0  0  0  0  0  0  0  0  0  0  0
   -6.7560    5.0857   -0.0833 C   0  0  0  0  0  0  0  0  0  0  0  0
   -6.6169    5.4767    2.0277 H   0  0  0  0  0  0  0  0  0  0  0  0
   -8.5457    7.0495    2.0132 H   0  0  0  0  0  0  0  0  0  0  0  0
   -9.0491    6.3915   -2.2036 H   0  0  0  0  0  0  0  0  0  0  0  0
   -7.1230    4.8189   -2.1881 H   0  0  0  0  0  0  0  0  0  0  0  0
   -5.3757    3.9623   -0.0733 S   0  0  0  0  0  0  0  0  0  0  0  0
   -5.1579    3.4607    1.2838 O   0  0  0  0  0  0  0  0  0  0  0  0
   -4.2049    5.0494   -0.4353 O   0  0  0  0  0  0  0  0  0  0  0  0
   -5.4990    3.0140   -1.1807 O   0  0  0  0  0  0  0  0  0  0  0  0
  -10.0782    7.8165   -0.1160 C   0  0  0  0  0  0  0  0  0  0  0  0
  -10.8672    7.4887   -0.7994 H   0  0  0  0  0  0  0  0  0  0  0  0
  -10.5154    7.9391    0.8784 H   0  0  0  0  0  0  0  0  0  0  0  0
   -9.7478    8.8065   -0.4538 H   0  0  0  0  0  0  0  0  0  0  0  0
  1  8  1  0  0  0  0
  1  2  1  0  0  0  0
  2  3  1  0  0  0  0
  4  1  2  0  0  0  0
  5  6  2  0  0  0  0
  5  4  1  0  0  0  0
  6  7  1  0  0  0  0
  7 12  1  0  0  0  0
  7  8  2  0  0  0  0
  8 13  1  0  0  0  0
  9 26  1  0  0  0  0
 10  5  1  0  0  0  0
 11  6  1  0  0  0  0
 14 20  1  0  0  0  0
 15 14  1  0  0  0  0
 15 21  1  0  0  0  0
 16 15  2  0  0  0  0
 17 16  1  0  0  0  0
 18 17  2  0  0  0  0
 18 19  1  0  0  0  0
 19 24  1  0  0  0  0
 19 14  2  0  0  0  0
 22 17  1  0  0  0  0
 23 18  1  0  0  0  0
 24 25  2  0  0  0  0
 26 24  1  0  0  0  0
 27 24  2  0  0  0  0
 28 16  1  0  0  0  0
 28 30  1  0  0  0  0
 29 28  1  0  0  0  0
 31 28  1  0  0  0  0
M  RAD  3   2   2   3   3   4   2
M  END
