Coordinates from ORCA-job PhN2+~TsO-_B3LYPG-6-31G_dp-CH-Scan-d09-49-n800
 OpenBabel11261919273D

 31 31  0  0  0  0  0  0  0  0999 V2000
   -1.9819    0.4921    0.0979 C   0  0  0  0  0  0  0  0  0  0  0  0
   -3.3550    0.5670    0.3359 N   0  0  0  0  0  0  0  0  0  0  0  0
   -4.4534    0.6749    0.5132 N   0  0  0  0  0  0  0  0  0  0  0  0
   -1.4133    1.7238   -0.2630 C   0  0  0  0  0  0  0  0  0  0  0  0
   -0.0182    1.5446   -0.4908 C   0  0  0  0  0  0  0  0  0  0  0  0
    0.6424    0.3263   -0.3670 C   0  0  0  0  0  0  0  0  0  0  0  0
   -0.0431   -0.8553    0.0080 C   0  0  0  0  0  0  0  0  0  0  0  0
   -1.3968   -0.7942    0.2530 C   0  0  0  0  0  0  0  0  0  0  0  0
   -3.3212    4.7968   -0.5492 H   0  0  0  0  0  0  0  0  0  0  0  0
    0.5796    2.4094   -0.7829 H   0  0  0  0  0  0  0  0  0  0  0  0
    1.7123    0.2646   -0.5613 H   0  0  0  0  0  0  0  0  0  0  0  0
    0.4909   -1.7957    0.1014 H   0  0  0  0  0  0  0  0  0  0  0  0
   -1.9757   -1.6666    0.5445 H   0  0  0  0  0  0  0  0  0  0  0  0
   -7.1566    5.7386    1.1124 C   0  0  0  0  0  0  0  0  0  0  0  0
   -8.2800    6.5630    1.0951 C   0  0  0  0  0  0  0  0  0  0  0  0
   -8.9784    6.8125   -0.0945 C   0  0  0  0  0  0  0  0  0  0  0  0
   -8.5301    6.2030   -1.2769 C   0  0  0  0  0  0  0  0  0  0  0  0
   -7.4105    5.3761   -1.2810 C   0  0  0  0  0  0  0  0  0  0  0  0
   -6.7305    5.1576   -0.0815 C   0  0  0  0  0  0  0  0  0  0  0  0
   -6.6228    5.5345    2.0339 H   0  0  0  0  0  0  0  0  0  0  0  0
   -8.6223    7.0164    2.0209 H   0  0  0  0  0  0  0  0  0  0  0  0
   -9.0686    6.3754   -2.2049 H   0  0  0  0  0  0  0  0  0  0  0  0
   -7.0718    4.8942   -2.1913 H   0  0  0  0  0  0  0  0  0  0  0  0
   -5.2995    4.1001   -0.0731 S   0  0  0  0  0  0  0  0  0  0  0  0
   -5.0616    3.6040    1.2820 O   0  0  0  0  0  0  0  0  0  0  0  0
   -4.1783    5.2441   -0.4276 O   0  0  0  0  0  0  0  0  0  0  0  0
   -5.3716    3.1550   -1.1876 O   0  0  0  0  0  0  0  0  0  0  0  0
  -10.1761    7.7311   -0.1116 C   0  0  0  0  0  0  0  0  0  0  0  0
  -10.9528    7.3626   -0.7886 H   0  0  0  0  0  0  0  0  0  0  0  0
  -10.6130    7.8394    0.8846 H   0  0  0  0  0  0  0  0  0  0  0  0
   -9.8938    8.7332   -0.4576 H   0  0  0  0  0  0  0  0  0  0  0  0
  1  8  1  0  0  0  0
  1  2  1  0  0  0  0
  2  3  1  0  0  0  0
  4  1  2  0  0  0  0
  5  6  2  0  0  0  0
  5  4  1  0  0  0  0
  6  7  1  0  0  0  0
  7 12  1  0  0  0  0
  7  8  2  0  0  0  0
  8 13  1  0  0  0  0
  9 26  1  0  0  0  0
 10  5  1  0  0  0  0
 11  6  1  0  0  0  0
 14 20  1  0  0  0  0
 15 14  1  0  0  0  0
 15 21  1  0  0  0  0
 16 15  2  0  0  0  0
 17 16  1  0  0  0  0
 18 17  2  0  0  0  0
 18 19  1  0  0  0  0
 19 24  1  0  0  0  0
 19 14  2  0  0  0  0
 22 17  1  0  0  0  0
 23 18  1  0  0  0  0
 24 25  2  0  0  0  0
 26 24  1  0  0  0  0
 27 24  2  0  0  0  0
 28 16  1  0  0  0  0
 28 30  1  0  0  0  0
 29 28  1  0  0  0  0
 31 28  1  0  0  0  0
M  RAD  3   2   2   3   3   4   2
M  END
