Coordinates from ORCA-job PhN2+~TsO-_B3LYPG-6-31G_dp-CH-Scan-d09-49-n800
 OpenBabel11261919283D

 31 31  0  0  0  0  0  0  0  0999 V2000
   -2.2197    0.4627   -0.8027 C   0  0  0  0  0  0  0  0  0  0  0  0
   -3.4168    0.0511   -1.3978 N   0  0  0  0  0  0  0  0  0  0  0  0
   -4.3251   -0.3184   -1.9342 N   0  0  0  0  0  0  0  0  0  0  0  0
   -1.0990   -0.0316   -1.4842 C   0  0  0  0  0  0  0  0  0  0  0  0
    0.0810    0.4467   -0.8376 C   0  0  0  0  0  0  0  0  0  0  0  0
    0.0762    1.2714    0.2818 C   0  0  0  0  0  0  0  0  0  0  0  0
   -1.1337    1.6922    0.8917 C   0  0  0  0  0  0  0  0  0  0  0  0
   -2.3354    1.2845    0.3522 C   0  0  0  0  0  0  0  0  0  0  0  0
   -3.0980    4.0527    0.0049 H   0  0  0  0  0  0  0  0  0  0  0  0
    1.0521    0.1538   -1.2391 H   0  0  0  0  0  0  0  0  0  0  0  0
    1.0173    1.6031    0.7179 H   0  0  0  0  0  0  0  0  0  0  0  0
   -1.1118    2.3091    1.7852 H   0  0  0  0  0  0  0  0  0  0  0  0
   -3.2985    1.5528    0.7747 H   0  0  0  0  0  0  0  0  0  0  0  0
   -7.2667    4.4264    0.6982 C   0  0  0  0  0  0  0  0  0  0  0  0
   -8.3522    5.2192    1.0584 C   0  0  0  0  0  0  0  0  0  0  0  0
   -8.6443    6.4075    0.3710 C   0  0  0  0  0  0  0  0  0  0  0  0
   -7.8149    6.7882   -0.6934 C   0  0  0  0  0  0  0  0  0  0  0  0
   -6.7213    6.0112   -1.0690 C   0  0  0  0  0  0  0  0  0  0  0  0
   -6.4583    4.8373   -0.3632 C   0  0  0  0  0  0  0  0  0  0  0  0
   -7.0508    3.5013    1.2209 H   0  0  0  0  0  0  0  0  0  0  0  0
   -8.9862    4.9100    1.8853 H   0  0  0  0  0  0  0  0  0  0  0  0
   -8.0279    7.7039   -1.2376 H   0  0  0  0  0  0  0  0  0  0  0  0
   -6.0854    6.2992   -1.8991 H   0  0  0  0  0  0  0  0  0  0  0  0
   -5.0686    3.8384   -0.8376 S   0  0  0  0  0  0  0  0  0  0  0  0
   -5.3061    2.4445   -0.4480 O   0  0  0  0  0  0  0  0  0  0  0  0
   -3.9568    4.4724    0.1975 O   0  0  0  0  0  0  0  0  0  0  0  0
   -4.6592    4.1485   -2.2047 O   0  0  0  0  0  0  0  0  0  0  0  0
   -9.8449    7.2383    0.7524 C   0  0  0  0  0  0  0  0  0  0  0  0
  -10.7575    6.8333    0.2989 H   0  0  0  0  0  0  0  0  0  0  0  0
   -9.9978    7.2464    1.8358 H   0  0  0  0  0  0  0  0  0  0  0  0
   -9.7417    8.2725    0.4134 H   0  0  0  0  0  0  0  0  0  0  0  0
  1  8  2  0  0  0  0
  2  1  1  0  0  0  0
  3  2  1  0  0  0  0
  4  5  2  0  0  0  0
  4  1  1  0  0  0  0
  5  6  1  0  0  0  0
  6 11  1  0  0  0  0
  6  7  2  0  0  0  0
  7 12  1  0  0  0  0
  8 13  1  0  0  0  0
  8  7  1  0  0  0  0
  9 26  1  0  0  0  0
 10  5  1  0  0  0  0
 14 15  1  0  0  0  0
 14 20  1  0  0  0  0
 15 21  1  0  0  0  0
 16 28  1  0  0  0  0
 16 15  2  0  0  0  0
 17 16  1  0  0  0  0
 18 17  2  0  0  0  0
 18 19  1  0  0  0  0
 19 14  2  0  0  0  0
 22 17  1  0  0  0  0
 23 18  1  0  0  0  0
 24 25  2  0  0  0  0
 24 19  1  0  0  0  0
 24 26  1  0  0  0  0
 27 24  2  0  0  0  0
 28 30  1  0  0  0  0
 29 28  1  0  0  0  0
 31 28  1  0  0  0  0
M  RAD  3   2   2   3   3   4   2
M  END
