Coordinates from ORCA-job PhN2+~TsO-_B3LYPG-6-31G_dp-CH-Scan-d09-49-n800
 OpenBabel11261919273D

 31 31  0  0  0  0  0  0  0  0999 V2000
   -2.0794    0.5269    0.0899 C   0  0  0  0  0  0  0  0  0  0  0  0
   -3.4509    0.4313    0.3188 N   0  0  0  0  0  0  0  0  0  0  0  0
   -4.5539    0.3965    0.4931 N   0  0  0  0  0  0  0  0  0  0  0  0
   -1.6474    1.8188   -0.2536 C   0  0  0  0  0  0  0  0  0  0  0  0
   -0.2413    1.8087   -0.4699 C   0  0  0  0  0  0  0  0  0  0  0  0
    0.5555    0.6737   -0.3515 C   0  0  0  0  0  0  0  0  0  0  0  0
    0.0082   -0.5826    0.0038 C   0  0  0  0  0  0  0  0  0  0  0  0
   -1.3457   -0.6818    0.2357 C   0  0  0  0  0  0  0  0  0  0  0  0
   -3.4165    4.2169   -0.4656 H   0  0  0  0  0  0  0  0  0  0  0  0
    0.2520    2.7408   -0.7472 H   0  0  0  0  0  0  0  0  0  0  0  0
    1.6266    0.7398   -0.5353 H   0  0  0  0  0  0  0  0  0  0  0  0
    0.6459   -1.4562    0.0927 H   0  0  0  0  0  0  0  0  0  0  0  0
   -1.8209   -1.6191    0.5122 H   0  0  0  0  0  0  0  0  0  0  0  0
   -7.1202    5.6223    1.1052 C   0  0  0  0  0  0  0  0  0  0  0  0
   -8.1444    6.5667    1.0806 C   0  0  0  0  0  0  0  0  0  0  0  0
   -8.8238    6.8692   -0.1080 C   0  0  0  0  0  0  0  0  0  0  0  0
   -8.4599    6.1898   -1.2808 C   0  0  0  0  0  0  0  0  0  0  0  0
   -7.4400    5.2422   -1.2771 C   0  0  0  0  0  0  0  0  0  0  0  0
   -6.7750    4.9729   -0.0798 C   0  0  0  0  0  0  0  0  0  0  0  0
   -6.6024    5.3780    2.0259 H   0  0  0  0  0  0  0  0  0  0  0  0
   -8.4241    7.0737    1.9998 H   0  0  0  0  0  0  0  0  0  0  0  0
   -8.9861    6.4027   -2.2076 H   0  0  0  0  0  0  0  0  0  0  0  0
   -7.1674    4.7066   -2.1797 H   0  0  0  0  0  0  0  0  0  0  0  0
   -5.4713    3.7608   -0.0606 S   0  0  0  0  0  0  0  0  0  0  0  0
   -5.2879    3.2565    1.3018 O   0  0  0  0  0  0  0  0  0  0  0  0
   -4.2322    4.7559   -0.4338 O   0  0  0  0  0  0  0  0  0  0  0  0
   -5.6663    2.8082   -1.1549 O   0  0  0  0  0  0  0  0  0  0  0  0
   -9.9102    7.9166   -0.1327 C   0  0  0  0  0  0  0  0  0  0  0  0
  -10.7112    7.6461   -0.8270 H   0  0  0  0  0  0  0  0  0  0  0  0
  -10.3501    8.0622    0.8575 H   0  0  0  0  0  0  0  0  0  0  0  0
   -9.5113    8.8848   -0.4596 H   0  0  0  0  0  0  0  0  0  0  0  0
  1  8  1  0  0  0  0
  1  2  1  0  0  0  0
  2  3  1  0  0  0  0
  4  1  2  0  0  0  0
  5  6  2  0  0  0  0
  5  4  1  0  0  0  0
  6  7  1  0  0  0  0
  7 12  1  0  0  0  0
  7  8  2  0  0  0  0
  8 13  1  0  0  0  0
  9 26  1  0  0  0  0
 10  5  1  0  0  0  0
 11  6  1  0  0  0  0
 14 20  1  0  0  0  0
 15 14  1  0  0  0  0
 15 21  1  0  0  0  0
 16 15  2  0  0  0  0
 17 18  2  0  0  0  0
 17 16  1  0  0  0  0
 18 19  1  0  0  0  0
 19 24  1  0  0  0  0
 19 14  2  0  0  0  0
 22 17  1  0  0  0  0
 23 18  1  0  0  0  0
 24 25  2  0  0  0  0
 26 24  1  0  0  0  0
 27 24  2  0  0  0  0
 28 16  1  0  0  0  0
 28 30  1  0  0  0  0
 29 28  1  0  0  0  0
 31 28  1  0  0  0  0
M  RAD  3   2   2   3   3   4   2
M  END
