Coordinates from ORCA-job PhN2+~TsO-_B3LYPG-6-31G_dp-CH-Scan-d09-49-n800
 OpenBabel11261919273D

 31 31  0  0  0  0  0  0  0  0999 V2000
   -2.4414    0.7317    0.1299 C   0  0  0  0  0  0  0  0  0  0  0  0
   -3.7476    0.3742    0.4428 N   0  0  0  0  0  0  0  0  0  0  0  0
   -4.8120    0.1471    0.6849 N   0  0  0  0  0  0  0  0  0  0  0  0
   -2.2217    2.0835   -0.1896 C   0  0  0  0  0  0  0  0  0  0  0  0
   -0.8736    2.3495   -0.4959 C   0  0  0  0  0  0  0  0  0  0  0  0
    0.1142    1.3661   -0.4769 C   0  0  0  0  0  0  0  0  0  0  0  0
   -0.1871    0.0306   -0.1433 C   0  0  0  0  0  0  0  0  0  0  0  0
   -1.4872   -0.3130    0.1692 C   0  0  0  0  0  0  0  0  0  0  0  0
   -3.3121    3.1145   -0.2054 H   0  0  0  0  0  0  0  0  0  0  0  0
   -0.5921    3.3661   -0.7603 H   0  0  0  0  0  0  0  0  0  0  0  0
    1.1402    1.6268   -0.7243 H   0  0  0  0  0  0  0  0  0  0  0  0
    0.5925   -0.7236   -0.1316 H   0  0  0  0  0  0  0  0  0  0  0  0
   -1.7691   -1.3274    0.4331 H   0  0  0  0  0  0  0  0  0  0  0  0
   -7.0201    5.3381    1.1496 C   0  0  0  0  0  0  0  0  0  0  0  0
   -7.8938    6.4212    1.0609 C   0  0  0  0  0  0  0  0  0  0  0  0
   -8.4355    6.8169   -0.1692 C   0  0  0  0  0  0  0  0  0  0  0  0
   -8.0884    6.0887   -1.3174 C   0  0  0  0  0  0  0  0  0  0  0  0
   -7.2182    5.0040   -1.2462 C   0  0  0  0  0  0  0  0  0  0  0  0
   -6.6844    4.6396   -0.0090 C   0  0  0  0  0  0  0  0  0  0  0  0
   -6.6118    5.0209    2.1026 H   0  0  0  0  0  0  0  0  0  0  0  0
   -8.1641    6.9646    1.9627 H   0  0  0  0  0  0  0  0  0  0  0  0
   -8.5114    6.3717   -2.2780 H   0  0  0  0  0  0  0  0  0  0  0  0
   -6.9636    4.4301   -2.1307 H   0  0  0  0  0  0  0  0  0  0  0  0
   -5.5525    3.2604    0.0894 S   0  0  0  0  0  0  0  0  0  0  0  0
   -5.5735    2.7407    1.4739 O   0  0  0  0  0  0  0  0  0  0  0  0
   -4.1819    3.9314   -0.2202 O   0  0  0  0  0  0  0  0  0  0  0  0
   -5.9023    2.2894   -0.9676 O   0  0  0  0  0  0  0  0  0  0  0  0
   -9.3592    8.0078   -0.2638 C   0  0  0  0  0  0  0  0  0  0  0  0
  -10.1790    7.8244   -0.9655 H   0  0  0  0  0  0  0  0  0  0  0  0
   -9.7930    8.2569    0.7083 H   0  0  0  0  0  0  0  0  0  0  0  0
   -8.8222    8.8958   -0.6202 H   0  0  0  0  0  0  0  0  0  0  0  0
  1  8  1  0  0  0  0
  1  2  1  0  0  0  0
  2  3  1  0  0  0  0
  4  1  2  0  0  0  0
  5  6  2  0  0  0  0
  5  4  1  0  0  0  0
  6  7  1  0  0  0  0
  7 12  1  0  0  0  0
  7  8  2  0  0  0  0
  8 13  1  0  0  0  0
 10  5  1  0  0  0  0
 11  6  1  0  0  0  0
 14 20  1  0  0  0  0
 15 14  1  0  0  0  0
 15 21  1  0  0  0  0
 16 15  2  0  0  0  0
 17 18  2  0  0  0  0
 17 16  1  0  0  0  0
 18 19  1  0  0  0  0
 19 24  1  0  0  0  0
 19 14  2  0  0  0  0
 22 17  1  0  0  0  0
 23 18  1  0  0  0  0
 24 25  2  0  0  0  0
 26  9  1  0  0  0  0
 26 24  1  0  0  0  0
 27 24  2  0  0  0  0
 28 16  1  0  0  0  0
 28 30  1  0  0  0  0
 29 28  1  0  0  0  0
 31 28  1  0  0  0  0
M  RAD  3   2   2   3   3   4   2
M  END
