Coordinates from ORCA-job PhN2+~TsO-_B3LYPG-6-31G_dp-CH-Scan-d09-49-n800
 OpenBabel11261919273D

 31 31  0  0  0  0  0  0  0  0999 V2000
   -2.2437    0.6109    0.1145 C   0  0  0  0  0  0  0  0  0  0  0  0
   -3.5809    0.3426    0.3898 N   0  0  0  0  0  0  0  0  0  0  0  0
   -4.6627    0.1667    0.6030 N   0  0  0  0  0  0  0  0  0  0  0  0
   -1.9675    1.9488   -0.2206 C   0  0  0  0  0  0  0  0  0  0  0  0
   -0.5829    2.1105   -0.4863 C   0  0  0  0  0  0  0  0  0  0  0  0
    0.3446    1.0743   -0.4172 C   0  0  0  0  0  0  0  0  0  0  0  0
   -0.0400   -0.2402   -0.0672 C   0  0  0  0  0  0  0  0  0  0  0  0
   -1.3643   -0.5003    0.2095 C   0  0  0  0  0  0  0  0  0  0  0  0
   -3.4861    3.6217   -0.3237 H   0  0  0  0  0  0  0  0  0  0  0  0
   -0.2161    3.0982   -0.7627 H   0  0  0  0  0  0  0  0  0  0  0  0
    1.3925    1.2693   -0.6371 H   0  0  0  0  0  0  0  0  0  0  0  0
    0.6965   -1.0354   -0.0168 H   0  0  0  0  0  0  0  0  0  0  0  0
   -1.7160   -1.4906    0.4845 H   0  0  0  0  0  0  0  0  0  0  0  0
   -7.0817    5.4599    1.1271 C   0  0  0  0  0  0  0  0  0  0  0  0
   -8.0033    6.5036    1.0680 C   0  0  0  0  0  0  0  0  0  0  0  0
   -8.6074    6.8702   -0.1426 C   0  0  0  0  0  0  0  0  0  0  0  0
   -8.2743    6.1536   -1.3024 C   0  0  0  0  0  0  0  0  0  0  0  0
   -7.3569    5.1071   -1.2634 C   0  0  0  0  0  0  0  0  0  0  0  0
   -6.7634    4.7745   -0.0446 C   0  0  0  0  0  0  0  0  0  0  0  0
   -6.6230    5.1666    2.0646 H   0  0  0  0  0  0  0  0  0  0  0  0
   -8.2616    7.0391    1.9775 H   0  0  0  0  0  0  0  0  0  0  0  0
   -8.7442    6.4158   -2.2466 H   0  0  0  0  0  0  0  0  0  0  0  0
   -7.1100    4.5430   -2.1561 H   0  0  0  0  0  0  0  0  0  0  0  0
   -5.5897    3.4354    0.0187 S   0  0  0  0  0  0  0  0  0  0  0  0
   -5.5038    2.9278    1.3931 O   0  0  0  0  0  0  0  0  0  0  0  0
   -4.2499    4.2636   -0.3340 O   0  0  0  0  0  0  0  0  0  0  0  0
   -5.8747    2.4831   -1.0597 O   0  0  0  0  0  0  0  0  0  0  0  0
   -9.5819    8.0214   -0.2042 C   0  0  0  0  0  0  0  0  0  0  0  0
  -10.3987    7.8178   -0.9033 H   0  0  0  0  0  0  0  0  0  0  0  0
  -10.0164    8.2321    0.7765 H   0  0  0  0  0  0  0  0  0  0  0  0
   -9.0842    8.9373   -0.5461 H   0  0  0  0  0  0  0  0  0  0  0  0
  1  8  1  0  0  0  0
  1  2  1  0  0  0  0
  2  3  1  0  0  0  0
  4  1  2  0  0  0  0
  5  6  2  0  0  0  0
  5  4  1  0  0  0  0
  6  7  1  0  0  0  0
  7 12  1  0  0  0  0
  7  8  2  0  0  0  0
  8 13  1  0  0  0  0
 10  5  1  0  0  0  0
 11  6  1  0  0  0  0
 14 20  1  0  0  0  0
 15 14  1  0  0  0  0
 15 21  1  0  0  0  0
 16 15  2  0  0  0  0
 17 18  2  0  0  0  0
 17 16  1  0  0  0  0
 18 19  1  0  0  0  0
 19 24  1  0  0  0  0
 19 14  2  0  0  0  0
 22 17  1  0  0  0  0
 23 18  1  0  0  0  0
 24 25  2  0  0  0  0
 26  9  1  0  0  0  0
 26 24  1  0  0  0  0
 27 24  2  0  0  0  0
 28 16  1  0  0  0  0
 28 30  1  0  0  0  0
 29 28  1  0  0  0  0
 31 28  1  0  0  0  0
M  RAD  3   2   2   3   3   4   2
M  END
