Coordinates from ORCA-job PhN2+~TsO-_B3LYPG-6-31G_dp-CH-Scan-d09-49-n800
 OpenBabel11261919283D

 31 31  0  0  0  0  0  0  0  0999 V2000
   -1.8045    0.4533    0.0052 C   0  0  0  0  0  0  0  0  0  0  0  0
   -3.1584    0.7863    0.0920 N   0  0  0  0  0  0  0  0  0  0  0  0
   -4.2308    1.0993    0.1467 N   0  0  0  0  0  0  0  0  0  0  0  0
   -0.9974    1.5402   -0.3627 C   0  0  0  0  0  0  0  0  0  0  0  0
    0.3604    1.1066   -0.4241 C   0  0  0  0  0  0  0  0  0  0  0  0
    0.7782   -0.1929   -0.1560 C   0  0  0  0  0  0  0  0  0  0  0  0
   -0.1403   -1.2095    0.2074 C   0  0  0  0  0  0  0  0  0  0  0  0
   -1.4790   -0.9002    0.2971 C   0  0  0  0  0  0  0  0  0  0  0  0
   -3.3369    5.6101   -0.9400 H   0  0  0  0  0  0  0  0  0  0  0  0
    1.1287    1.8319   -0.6976 H   0  0  0  0  0  0  0  0  0  0  0  0
    1.8344   -0.4509   -0.2238 H   0  0  0  0  0  0  0  0  0  0  0  0
    0.2070   -2.2168    0.4135 H   0  0  0  0  0  0  0  0  0  0  0  0
   -2.2303   -1.6365    0.5714 H   0  0  0  0  0  0  0  0  0  0  0  0
   -7.1575    5.8794    1.0708 C   0  0  0  0  0  0  0  0  0  0  0  0
   -8.3950    6.5174    1.1414 C   0  0  0  0  0  0  0  0  0  0  0  0
   -9.1739    6.7187   -0.0059 C   0  0  0  0  0  0  0  0  0  0  0  0
   -8.6866    6.2548   -1.2386 C   0  0  0  0  0  0  0  0  0  0  0  0
   -7.4540    5.6161   -1.3310 C   0  0  0  0  0  0  0  0  0  0  0  0
   -6.6982    5.4398   -0.1699 C   0  0  0  0  0  0  0  0  0  0  0  0
   -6.5599    5.7111    1.9598 H   0  0  0  0  0  0  0  0  0  0  0  0
   -8.7631    6.8605    2.1039 H   0  0  0  0  0  0  0  0  0  0  0  0
   -9.2840    6.3922   -2.1359 H   0  0  0  0  0  0  0  0  0  0  0  0
   -7.0842    5.2450   -2.2803 H   0  0  0  0  0  0  0  0  0  0  0  0
   -5.1241    4.6179   -0.2734 S   0  0  0  0  0  0  0  0  0  0  0  0
   -4.7485    4.1120    1.0446 O   0  0  0  0  0  0  0  0  0  0  0  0
   -4.1993    5.9337   -0.6242 O   0  0  0  0  0  0  0  0  0  0  0  0
   -5.0931    3.7287   -1.4351 O   0  0  0  0  0  0  0  0  0  0  0  0
  -10.5047    7.4271    0.0729 C   0  0  0  0  0  0  0  0  0  0  0  0
  -11.2709    6.8996   -0.5038 H   0  0  0  0  0  0  0  0  0  0  0  0
  -10.8531    7.5124    1.1054 H   0  0  0  0  0  0  0  0  0  0  0  0
  -10.4328    8.4412   -0.3377 H   0  0  0  0  0  0  0  0  0  0  0  0
  1  2  1  0  0  0  0
  1  8  2  0  0  0  0
  2  3  1  0  0  0  0
  4  1  1  0  0  0  0
  5  4  2  0  0  0  0
  5  6  1  0  0  0  0
  6  7  2  0  0  0  0
  7  8  1  0  0  0  0
  7 12  1  0  0  0  0
  8 13  1  0  0  0  0
  9 26  1  0  0  0  0
 10  5  1  0  0  0  0
 11  6  1  0  0  0  0
 14 15  1  0  0  0  0
 14 20  1  0  0  0  0
 15 21  1  0  0  0  0
 16 28  1  0  0  0  0
 16 15  2  0  0  0  0
 17 16  1  0  0  0  0
 18 17  2  0  0  0  0
 18 19  1  0  0  0  0
 19 14  2  0  0  0  0
 22 17  1  0  0  0  0
 23 18  1  0  0  0  0
 24 19  1  0  0  0  0
 24 25  2  0  0  0  0
 26 24  1  0  0  0  0
 27 24  2  0  0  0  0
 28 30  1  0  0  0  0
 29 28  1  0  0  0  0
 31 28  1  0  0  0  0
M  RAD  3   2   2   3   3   4   2
M  END
