Coordinates from ORCA-job PhN2+~TsO-_B3LYPG-6-31G_dp-CH-Scan-d09-49-n800
 OpenBabel11261919273D

 31 31  0  0  0  0  0  0  0  0999 V2000
   -2.2562    0.6173    0.1187 C   0  0  0  0  0  0  0  0  0  0  0  0
   -3.5898    0.3370    0.3986 N   0  0  0  0  0  0  0  0  0  0  0  0
   -4.6692    0.1514    0.6155 N   0  0  0  0  0  0  0  0  0  0  0  0
   -1.9915    1.9572   -0.2184 C   0  0  0  0  0  0  0  0  0  0  0  0
   -0.6095    2.1305   -0.4886 C   0  0  0  0  0  0  0  0  0  0  0  0
    0.3269    1.1022   -0.4220 C   0  0  0  0  0  0  0  0  0  0  0  0
   -0.0456   -0.2151   -0.0698 C   0  0  0  0  0  0  0  0  0  0  0  0
   -1.3668   -0.4860    0.2114 C   0  0  0  0  0  0  0  0  0  0  0  0
   -3.4886    3.5821   -0.3171 H   0  0  0  0  0  0  0  0  0  0  0  0
   -0.2523    3.1212   -0.7669 H   0  0  0  0  0  0  0  0  0  0  0  0
    1.3723    1.3059   -0.6455 H   0  0  0  0  0  0  0  0  0  0  0  0
    0.6977   -1.0041   -0.0213 H   0  0  0  0  0  0  0  0  0  0  0  0
   -1.7092   -1.4790    0.4882 H   0  0  0  0  0  0  0  0  0  0  0  0
   -7.0778    5.4470    1.1270 C   0  0  0  0  0  0  0  0  0  0  0  0
   -7.9926    6.4967    1.0674 C   0  0  0  0  0  0  0  0  0  0  0  0
   -8.5915    6.8689   -0.1441 C   0  0  0  0  0  0  0  0  0  0  0  0
   -8.2601    6.1520   -1.3041 C   0  0  0  0  0  0  0  0  0  0  0  0
   -7.3496    5.0995   -1.2645 C   0  0  0  0  0  0  0  0  0  0  0  0
   -6.7610    4.7613   -0.0449 C   0  0  0  0  0  0  0  0  0  0  0  0
   -6.6233    5.1493    2.0651 H   0  0  0  0  0  0  0  0  0  0  0  0
   -8.2497    7.0325    1.9771 H   0  0  0  0  0  0  0  0  0  0  0  0
   -8.7261    6.4185   -2.2490 H   0  0  0  0  0  0  0  0  0  0  0  0
   -7.1043    4.5352   -2.1574 H   0  0  0  0  0  0  0  0  0  0  0  0
   -5.5960    3.4145    0.0191 S   0  0  0  0  0  0  0  0  0  0  0  0
   -5.5173    2.9046    1.3935 O   0  0  0  0  0  0  0  0  0  0  0  0
   -4.2504    4.2310   -0.3302 O   0  0  0  0  0  0  0  0  0  0  0  0
   -5.8873    2.4641   -1.0596 O   0  0  0  0  0  0  0  0  0  0  0  0
   -9.5587    8.0263   -0.2063 C   0  0  0  0  0  0  0  0  0  0  0  0
  -10.3767    7.8276   -0.9054 H   0  0  0  0  0  0  0  0  0  0  0  0
   -9.9920    8.2402    0.7742 H   0  0  0  0  0  0  0  0  0  0  0  0
   -9.0553    8.9390   -0.5485 H   0  0  0  0  0  0  0  0  0  0  0  0
  1  8  1  0  0  0  0
  1  2  1  0  0  0  0
  2  3  1  0  0  0  0
  4  1  2  0  0  0  0
  5  6  2  0  0  0  0
  5  4  1  0  0  0  0
  6  7  1  0  0  0  0
  7 12  1  0  0  0  0
  7  8  2  0  0  0  0
  8 13  1  0  0  0  0
 10  5  1  0  0  0  0
 11  6  1  0  0  0  0
 14 20  1  0  0  0  0
 15 14  1  0  0  0  0
 15 21  1  0  0  0  0
 16 15  2  0  0  0  0
 17 18  2  0  0  0  0
 17 16  1  0  0  0  0
 18 19  1  0  0  0  0
 19 24  1  0  0  0  0
 19 14  2  0  0  0  0
 22 17  1  0  0  0  0
 23 18  1  0  0  0  0
 24 25  2  0  0  0  0
 26  9  1  0  0  0  0
 26 24  1  0  0  0  0
 27 24  2  0  0  0  0
 28 16  1  0  0  0  0
 28 30  1  0  0  0  0
 29 28  1  0  0  0  0
 31 28  1  0  0  0  0
M  RAD  3   2   2   3   3   4   2
M  END
