Coordinates from ORCA-job PhN2+~TsO-_B3LYPG-6-31G_dp-CH-Scan-d09-49-n800
 OpenBabel11261919273D

 31 31  0  0  0  0  0  0  0  0999 V2000
   -1.9472    0.4845    0.0954 C   0  0  0  0  0  0  0  0  0  0  0  0
   -3.3179    0.6171    0.3270 N   0  0  0  0  0  0  0  0  0  0  0  0
   -4.4119    0.7710    0.4980 N   0  0  0  0  0  0  0  0  0  0  0  0
   -1.3289    1.6907   -0.2678 C   0  0  0  0  0  0  0  0  0  0  0  0
    0.0597    1.4537   -0.4863 C   0  0  0  0  0  0  0  0  0  0  0  0
    0.6698    0.2104   -0.3535 C   0  0  0  0  0  0  0  0  0  0  0  0
   -0.0652   -0.9412    0.0224 C   0  0  0  0  0  0  0  0  0  0  0  0
   -1.4165   -0.8243    0.2594 C   0  0  0  0  0  0  0  0  0  0  0  0
   -3.3065    4.9864   -0.6095 H   0  0  0  0  0  0  0  0  0  0  0  0
    0.6940    2.2922   -0.7784 H   0  0  0  0  0  0  0  0  0  0  0  0
    1.7374    0.1043   -0.5412 H   0  0  0  0  0  0  0  0  0  0  0  0
    0.4300   -1.9019    0.1227 H   0  0  0  0  0  0  0  0  0  0  0  0
   -2.0320   -1.6711    0.5514 H   0  0  0  0  0  0  0  0  0  0  0  0
   -7.1632    5.7732    1.1098 C   0  0  0  0  0  0  0  0  0  0  0  0
   -8.3164    6.5558    1.1017 C   0  0  0  0  0  0  0  0  0  0  0  0
   -9.0254    6.7905   -0.0846 C   0  0  0  0  0  0  0  0  0  0  0  0
   -8.5567    6.2092   -1.2732 C   0  0  0  0  0  0  0  0  0  0  0  0
   -7.4075    5.4243   -1.2866 C   0  0  0  0  0  0  0  0  0  0  0  0
   -6.7180    5.2197   -0.0900 C   0  0  0  0  0  0  0  0  0  0  0  0
   -6.6207    5.5805    2.0287 H   0  0  0  0  0  0  0  0  0  0  0  0
   -8.6736    6.9876    2.0321 H   0  0  0  0  0  0  0  0  0  0  0  0
   -9.1026    6.3704   -2.1990 H   0  0  0  0  0  0  0  0  0  0  0  0
   -7.0529    4.9639   -2.2019 H   0  0  0  0  0  0  0  0  0  0  0  0
   -5.2489    4.2161   -0.0935 S   0  0  0  0  0  0  0  0  0  0  0  0
   -4.9843    3.7258    1.2583 O   0  0  0  0  0  0  0  0  0  0  0  0
   -4.1723    5.4034   -0.4521 O   0  0  0  0  0  0  0  0  0  0  0  0
   -5.2892    3.2741   -1.2121 O   0  0  0  0  0  0  0  0  0  0  0  0
  -10.2566    7.6640   -0.0915 C   0  0  0  0  0  0  0  0  0  0  0  0
  -11.0245    7.2668   -0.7623 H   0  0  0  0  0  0  0  0  0  0  0  0
  -10.6891    7.7557    0.9082 H   0  0  0  0  0  0  0  0  0  0  0  0
  -10.0146    8.6758   -0.4396 H   0  0  0  0  0  0  0  0  0  0  0  0
  1  8  1  0  0  0  0
  1  2  1  0  0  0  0
  2  3  1  0  0  0  0
  4  1  2  0  0  0  0
  5  6  2  0  0  0  0
  5  4  1  0  0  0  0
  6  7  1  0  0  0  0
  7 12  1  0  0  0  0
  7  8  2  0  0  0  0
  8 13  1  0  0  0  0
  9 26  1  0  0  0  0
 10  5  1  0  0  0  0
 11  6  1  0  0  0  0
 14 20  1  0  0  0  0
 15 14  1  0  0  0  0
 15 21  1  0  0  0  0
 16 15  2  0  0  0  0
 17 16  1  0  0  0  0
 18 17  2  0  0  0  0
 18 19  1  0  0  0  0
 19 14  2  0  0  0  0
 22 17  1  0  0  0  0
 23 18  1  0  0  0  0
 24 19  1  0  0  0  0
 24 25  2  0  0  0  0
 26 24  1  0  0  0  0
 27 24  2  0  0  0  0
 28 16  1  0  0  0  0
 28 30  1  0  0  0  0
 29 28  1  0  0  0  0
 31 28  1  0  0  0  0
M  RAD  3   2   2   3   3   4   2
M  END
