Coordinates from ORCA-job PhN2+~TsO-_B3LYPG-6-31G_dp-CH-Scan-d09-49-n800
 OpenBabel11261919273D

 31 31  0  0  0  0  0  0  0  0999 V2000
   -2.4953    0.7819    0.2174 C   0  0  0  0  0  0  0  0  0  0  0  0
   -3.6801    0.6575    0.9516 N   0  0  0  0  0  0  0  0  0  0  0  0
   -4.7124    0.9625    1.3147 N   0  0  0  0  0  0  0  0  0  0  0  0
   -2.1129    2.0409   -0.2678 C   0  0  0  0  0  0  0  0  0  0  0  0
   -0.9176    2.1012   -0.9811 C   0  0  0  0  0  0  0  0  0  0  0  0
   -0.1512    0.9524   -1.1978 C   0  0  0  0  0  0  0  0  0  0  0  0
   -0.5588   -0.2895   -0.6942 C   0  0  0  0  0  0  0  0  0  0  0  0
   -1.7372   -0.3848    0.0337 C   0  0  0  0  0  0  0  0  0  0  0  0
   -2.7764    3.0242   -0.0537 H   0  0  0  0  0  0  0  0  0  0  0  0
   -0.5854    3.0587   -1.3682 H   0  0  0  0  0  0  0  0  0  0  0  0
    0.7768    1.0235   -1.7571 H   0  0  0  0  0  0  0  0  0  0  0  0
    0.0440   -1.1752   -0.8639 H   0  0  0  0  0  0  0  0  0  0  0  0
   -2.0802   -1.3275    0.4451 H   0  0  0  0  0  0  0  0  0  0  0  0
   -7.5630    5.0601    1.2414 C   0  0  0  0  0  0  0  0  0  0  0  0
   -8.6147    5.8788    0.8364 C   0  0  0  0  0  0  0  0  0  0  0  0
   -8.5295    6.6418   -0.3382 C   0  0  0  0  0  0  0  0  0  0  0  0
   -7.3519    6.5711   -1.0943 C   0  0  0  0  0  0  0  0  0  0  0  0
   -6.2901    5.7565   -0.7016 C   0  0  0  0  0  0  0  0  0  0  0  0
   -6.4040    5.0007    0.4648 C   0  0  0  0  0  0  0  0  0  0  0  0
   -7.6201    4.4841    2.1584 H   0  0  0  0  0  0  0  0  0  0  0  0
   -9.5146    5.9327    1.4445 H   0  0  0  0  0  0  0  0  0  0  0  0
   -7.2634    7.1653   -2.0003 H   0  0  0  0  0  0  0  0  0  0  0  0
   -5.3719    5.7167   -1.2774 H   0  0  0  0  0  0  0  0  0  0  0  0
   -5.0658    3.9158    0.9631 S   0  0  0  0  0  0  0  0  0  0  0  0
   -5.1532    3.7253    2.4224 O   0  0  0  0  0  0  0  0  0  0  0  0
   -3.8081    4.5312    0.4510 O   0  0  0  0  0  0  0  0  0  0  0  0
   -5.3453    2.6124    0.1983 O   0  0  0  0  0  0  0  0  0  0  0  0
   -9.6856    7.5093   -0.7773 C   0  0  0  0  0  0  0  0  0  0  0  0
  -10.5061    6.9020   -1.1797 H   0  0  0  0  0  0  0  0  0  0  0  0
  -10.0934    8.0853    0.0600 H   0  0  0  0  0  0  0  0  0  0  0  0
   -9.3842    8.2136   -1.5577 H   0  0  0  0  0  0  0  0  0  0  0  0
  1  2  1  0  0  0  0
  2  3  1  0  0  0  0
  4  9  1  0  0  0  0
  4  1  2  0  0  0  0
  5  4  1  0  0  0  0
  6  5  2  0  0  0  0
  6  7  1  0  0  0  0
  7  8  2  0  0  0  0
  8  1  1  0  0  0  0
  8 13  1  0  0  0  0
 10  5  1  0  0  0  0
 11  6  1  0  0  0  0
 12  7  1  0  0  0  0
 14 20  1  0  0  0  0
 15 14  1  0  0  0  0
 15 21  1  0  0  0  0
 16 15  2  0  0  0  0
 17 18  2  0  0  0  0
 17 16  1  0  0  0  0
 18 19  1  0  0  0  0
 19 24  1  0  0  0  0
 19 14  2  0  0  0  0
 22 17  1  0  0  0  0
 23 18  1  0  0  0  0
 24 25  1  0  0  0  0
 26 24  2  0  0  0  0
 27 24  2  0  0  0  0
 28 16  1  0  0  0  0
 28 30  1  0  0  0  0
 29 28  1  0  0  0  0
 31 28  1  0  0  0  0
M  RAD  3   2   2   3   3  25   2
M  END
