Coordinates from ORCA-job PhN2+~TsO-_B3LYPG-6-31G_dp-CH-Scan-d09-49-n800
 OpenBabel11261919273D

 31 31  0  0  0  0  0  0  0  0999 V2000
   -2.0284    0.5070    0.0909 C   0  0  0  0  0  0  0  0  0  0  0  0
   -3.4039    0.4863    0.3201 N   0  0  0  0  0  0  0  0  0  0  0  0
   -4.5080    0.5117    0.4912 N   0  0  0  0  0  0  0  0  0  0  0  0
   -1.5343    1.7732   -0.2620 C   0  0  0  0  0  0  0  0  0  0  0  0
   -0.1298    1.6870   -0.4797 C   0  0  0  0  0  0  0  0  0  0  0  0
    0.6074    0.5134   -0.3547 C   0  0  0  0  0  0  0  0  0  0  0  0
   -0.0033   -0.7109    0.0109 C   0  0  0  0  0  0  0  0  0  0  0  0
   -1.3600   -0.7383    0.2453 C   0  0  0  0  0  0  0  0  0  0  0  0
   -3.3748    4.4751   -0.5012 H   0  0  0  0  0  0  0  0  0  0  0  0
    0.4118    2.5901   -0.7643 H   0  0  0  0  0  0  0  0  0  0  0  0
    1.6803    0.5223   -0.5407 H   0  0  0  0  0  0  0  0  0  0  0  0
    0.5891   -1.6154    0.1054 H   0  0  0  0  0  0  0  0  0  0  0  0
   -1.8828   -1.6476    0.5295 H   0  0  0  0  0  0  0  0  0  0  0  0
   -7.1405    5.6777    1.1071 C   0  0  0  0  0  0  0  0  0  0  0  0
   -8.2089    6.5719    1.0873 C   0  0  0  0  0  0  0  0  0  0  0  0
   -8.8992    6.8511   -0.1007 C   0  0  0  0  0  0  0  0  0  0  0  0
   -8.5000    6.1999   -1.2782 C   0  0  0  0  0  0  0  0  0  0  0  0
   -7.4356    5.3028   -1.2795 C   0  0  0  0  0  0  0  0  0  0  0  0
   -6.7616    5.0558   -0.0823 C   0  0  0  0  0  0  0  0  0  0  0  0
   -6.6137    5.4510    2.0273 H   0  0  0  0  0  0  0  0  0  0  0  0
   -8.5147    7.0573    2.0097 H   0  0  0  0  0  0  0  0  0  0  0  0
   -9.0335    6.3951   -2.2046 H   0  0  0  0  0  0  0  0  0  0  0  0
   -7.1353    4.7888   -2.1858 H   0  0  0  0  0  0  0  0  0  0  0  0
   -5.4012    3.9082   -0.0697 S   0  0  0  0  0  0  0  0  0  0  0  0
   -5.1923    3.4061    1.2889 O   0  0  0  0  0  0  0  0  0  0  0  0
   -4.2118    4.9717   -0.4352 O   0  0  0  0  0  0  0  0  0  0  0  0
   -5.5437    2.9581   -1.1734 O   0  0  0  0  0  0  0  0  0  0  0  0
  -10.0353    7.8446   -0.1204 C   0  0  0  0  0  0  0  0  0  0  0  0
  -10.8275    7.5323   -0.8073 H   0  0  0  0  0  0  0  0  0  0  0  0
  -10.4738    7.9728    0.8727 H   0  0  0  0  0  0  0  0  0  0  0  0
   -9.6864    8.8295   -0.4546 H   0  0  0  0  0  0  0  0  0  0  0  0
  1  8  1  0  0  0  0
  1  2  1  0  0  0  0
  2  3  1  0  0  0  0
  4  1  2  0  0  0  0
  5  6  2  0  0  0  0
  5  4  1  0  0  0  0
  6  7  1  0  0  0  0
  7 12  1  0  0  0  0
  7  8  2  0  0  0  0
  8 13  1  0  0  0  0
  9 26  1  0  0  0  0
 10  5  1  0  0  0  0
 11  6  1  0  0  0  0
 14 20  1  0  0  0  0
 15 14  1  0  0  0  0
 15 21  1  0  0  0  0
 16 15  2  0  0  0  0
 17 16  1  0  0  0  0
 18 17  2  0  0  0  0
 18 19  1  0  0  0  0
 19 24  1  0  0  0  0
 19 14  2  0  0  0  0
 22 17  1  0  0  0  0
 23 18  1  0  0  0  0
 24 25  2  0  0  0  0
 26 24  1  0  0  0  0
 27 24  2  0  0  0  0
 28 16  1  0  0  0  0
 28 30  1  0  0  0  0
 29 28  1  0  0  0  0
 31 28  1  0  0  0  0
M  RAD  3   2   2   3   3   4   2
M  END
