Coordinates from ORCA-job PhN2+~TsO-_B3LYPG-6-31G_dp-CH-Scan-d09-49-n800
 OpenBabel11261919273D

 31 31  0  0  0  0  0  0  0  0999 V2000
   -2.0630    0.5195    0.0894 C   0  0  0  0  0  0  0  0  0  0  0  0
   -3.4365    0.4488    0.3166 N   0  0  0  0  0  0  0  0  0  0  0  0
   -4.5405    0.4348    0.4888 N   0  0  0  0  0  0  0  0  0  0  0  0
   -1.6105    1.8035   -0.2567 C   0  0  0  0  0  0  0  0  0  0  0  0
   -0.2042    1.7686   -0.4720 C   0  0  0  0  0  0  0  0  0  0  0  0
    0.5733    0.6207   -0.3505 C   0  0  0  0  0  0  0  0  0  0  0  0
    0.0050   -0.6255    0.0077 C   0  0  0  0  0  0  0  0  0  0  0  0
   -1.3506   -0.7014    0.2390 C   0  0  0  0  0  0  0  0  0  0  0  0
   -3.4016    4.3026   -0.4796 H   0  0  0  0  0  0  0  0  0  0  0  0
    0.3054    2.6915   -0.7512 H   0  0  0  0  0  0  0  0  0  0  0  0
    1.6456    0.6683   -0.5338 H   0  0  0  0  0  0  0  0  0  0  0  0
    0.6280   -1.5094    0.0992 H   0  0  0  0  0  0  0  0  0  0  0  0
   -1.8417   -1.6299    0.5175 H   0  0  0  0  0  0  0  0  0  0  0  0
   -7.1257    5.6413    1.1052 C   0  0  0  0  0  0  0  0  0  0  0  0
   -8.1649    6.5692    1.0828 C   0  0  0  0  0  0  0  0  0  0  0  0
   -8.8493    6.8634   -0.1050 C   0  0  0  0  0  0  0  0  0  0  0  0
   -8.4747    6.1927   -1.2795 C   0  0  0  0  0  0  0  0  0  0  0  0
   -7.4395    5.2616   -1.2780 C   0  0  0  0  0  0  0  0  0  0  0  0
   -6.7703    5.0004   -0.0813 C   0  0  0  0  0  0  0  0  0  0  0  0
   -6.6039    5.4033    2.0253 H   0  0  0  0  0  0  0  0  0  0  0  0
   -8.4526    7.0696    2.0032 H   0  0  0  0  0  0  0  0  0  0  0  0
   -9.0043    6.3992   -2.2056 H   0  0  0  0  0  0  0  0  0  0  0  0
   -7.1585    4.7328   -2.1820 H   0  0  0  0  0  0  0  0  0  0  0  0
   -5.4473    3.8096   -0.0651 S   0  0  0  0  0  0  0  0  0  0  0  0
   -5.2541    3.3064    1.2960 O   0  0  0  0  0  0  0  0  0  0  0  0
   -4.2245    4.8277   -0.4371 O   0  0  0  0  0  0  0  0  0  0  0  0
   -5.6256    2.8573   -1.1623 O   0  0  0  0  0  0  0  0  0  0  0  0
   -9.9526    7.8931   -0.1274 C   0  0  0  0  0  0  0  0  0  0  0  0
  -10.7509    7.6090   -0.8193 H   0  0  0  0  0  0  0  0  0  0  0  0
  -10.3920    8.0324    0.8640 H   0  0  0  0  0  0  0  0  0  0  0  0
   -9.5702    8.8673   -0.4562 H   0  0  0  0  0  0  0  0  0  0  0  0
  1  8  1  0  0  0  0
  1  2  1  0  0  0  0
  2  3  1  0  0  0  0
  4  1  2  0  0  0  0
  5  6  2  0  0  0  0
  5  4  1  0  0  0  0
  6  7  1  0  0  0  0
  7 12  1  0  0  0  0
  7  8  2  0  0  0  0
  8 13  1  0  0  0  0
  9 26  1  0  0  0  0
 10  5  1  0  0  0  0
 11  6  1  0  0  0  0
 14 20  1  0  0  0  0
 15 14  1  0  0  0  0
 15 21  1  0  0  0  0
 16 15  2  0  0  0  0
 17 18  2  0  0  0  0
 17 16  1  0  0  0  0
 18 19  1  0  0  0  0
 19 24  1  0  0  0  0
 19 14  2  0  0  0  0
 22 17  1  0  0  0  0
 23 18  1  0  0  0  0
 24 25  2  0  0  0  0
 26 24  1  0  0  0  0
 27 24  2  0  0  0  0
 28 16  1  0  0  0  0
 28 30  1  0  0  0  0
 29 28  1  0  0  0  0
 31 28  1  0  0  0  0
M  RAD  3   2   2   3   3   4   2
M  END
