Coordinates from ORCA-job PhN2+~TsO-_B3LYPG-6-31G_dp-CH-Scan-d09-49-n800
 OpenBabel11261919273D

 31 31  0  0  0  0  0  0  0  0999 V2000
   -2.3473    0.6633    0.1296 C   0  0  0  0  0  0  0  0  0  0  0  0
   -3.6599    0.3136    0.4276 N   0  0  0  0  0  0  0  0  0  0  0  0
   -4.7250    0.0747    0.6593 N   0  0  0  0  0  0  0  0  0  0  0  0
   -2.1444    2.0155   -0.2026 C   0  0  0  0  0  0  0  0  0  0  0  0
   -0.7799    2.2596   -0.4923 C   0  0  0  0  0  0  0  0  0  0  0  0
    0.2056    1.2765   -0.4466 C   0  0  0  0  0  0  0  0  0  0  0  0
   -0.0992   -0.0576   -0.0982 C   0  0  0  0  0  0  0  0  0  0  0  0
   -1.4024   -0.3931    0.2004 C   0  0  0  0  0  0  0  0  0  0  0  0
   -3.4768    3.3350   -0.2642 H   0  0  0  0  0  0  0  0  0  0  0  0
   -0.4791    3.2688   -0.7683 H   0  0  0  0  0  0  0  0  0  0  0  0
    1.2362    1.5318   -0.6839 H   0  0  0  0  0  0  0  0  0  0  0  0
    0.6807   -0.8111   -0.0656 H   0  0  0  0  0  0  0  0  0  0  0  0
   -1.6923   -1.4030    0.4753 H   0  0  0  0  0  0  0  0  0  0  0  0
   -7.0444    5.3780    1.1339 C   0  0  0  0  0  0  0  0  0  0  0  0
   -7.9222    6.4585    1.0626 C   0  0  0  0  0  0  0  0  0  0  0  0
   -8.4904    6.8519   -0.1566 C   0  0  0  0  0  0  0  0  0  0  0  0
   -8.1661    6.1249   -1.3124 C   0  0  0  0  0  0  0  0  0  0  0  0
   -7.2924    5.0421   -1.2603 C   0  0  0  0  0  0  0  0  0  0  0  0
   -6.7332    4.6820   -0.0331 C   0  0  0  0  0  0  0  0  0  0  0  0
   -6.6145    5.0635    2.0782 H   0  0  0  0  0  0  0  0  0  0  0  0
   -8.1746    7.0017    1.9693 H   0  0  0  0  0  0  0  0  0  0  0  0
   -8.6093    6.4074   -2.2637 H   0  0  0  0  0  0  0  0  0  0  0  0
   -7.0541    4.4697   -2.1501 H   0  0  0  0  0  0  0  0  0  0  0  0
   -5.6134    3.2966    0.0453 S   0  0  0  0  0  0  0  0  0  0  0  0
   -5.5793    2.7838    1.4237 O   0  0  0  0  0  0  0  0  0  0  0  0
   -4.2395    4.0355   -0.2894 O   0  0  0  0  0  0  0  0  0  0  0  0
   -5.9430    2.3466   -1.0264 O   0  0  0  0  0  0  0  0  0  0  0  0
   -9.4185    8.0403   -0.2319 C   0  0  0  0  0  0  0  0  0  0  0  0
  -10.2443    7.8601   -0.9271 H   0  0  0  0  0  0  0  0  0  0  0  0
   -9.8428    8.2805    0.7464 H   0  0  0  0  0  0  0  0  0  0  0  0
   -8.8863    8.9318   -0.5865 H   0  0  0  0  0  0  0  0  0  0  0  0
  1  8  1  0  0  0  0
  1  2  1  0  0  0  0
  2  3  1  0  0  0  0
  4  1  2  0  0  0  0
  5  6  2  0  0  0  0
  5  4  1  0  0  0  0
  6  7  1  0  0  0  0
  7 12  1  0  0  0  0
  7  8  2  0  0  0  0
  8 13  1  0  0  0  0
 10  5  1  0  0  0  0
 11  6  1  0  0  0  0
 14 20  1  0  0  0  0
 15 14  1  0  0  0  0
 15 21  1  0  0  0  0
 16 15  2  0  0  0  0
 17 18  2  0  0  0  0
 17 16  1  0  0  0  0
 18 19  1  0  0  0  0
 19 24  1  0  0  0  0
 19 14  2  0  0  0  0
 22 17  1  0  0  0  0
 23 18  1  0  0  0  0
 24 25  2  0  0  0  0
 26  9  1  0  0  0  0
 26 24  1  0  0  0  0
 27 24  2  0  0  0  0
 28 16  1  0  0  0  0
 28 30  1  0  0  0  0
 29 28  1  0  0  0  0
 31 28  1  0  0  0  0
M  RAD  3   2   2   3   3   4   2
M  END
