Coordinates from ORCA-job PhN2+~TsO-_B3LYPG-6-31G_dp-CH-Scan-d09-49-n800
 OpenBabel11261919273D

 31 31  0  0  0  0  0  0  0  0999 V2000
   -1.9320    0.4806    0.0920 C   0  0  0  0  0  0  0  0  0  0  0  0
   -3.3016    0.6393    0.3133 N   0  0  0  0  0  0  0  0  0  0  0  0
   -4.3931    0.8157    0.4796 N   0  0  0  0  0  0  0  0  0  0  0  0
   -1.2902    1.6756   -0.2676 C   0  0  0  0  0  0  0  0  0  0  0  0
    0.0955    1.4133   -0.4761 C   0  0  0  0  0  0  0  0  0  0  0  0
    0.6823    0.1594   -0.3376 C   0  0  0  0  0  0  0  0  0  0  0  0
   -0.0758   -0.9786    0.0338 C   0  0  0  0  0  0  0  0  0  0  0  0
   -1.4264   -0.8374    0.2611 C   0  0  0  0  0  0  0  0  0  0  0  0
   -3.3040    5.0680   -0.6528 H   0  0  0  0  0  0  0  0  0  0  0  0
    0.7470    2.2400   -0.7643 H   0  0  0  0  0  0  0  0  0  0  0  0
    1.7492    0.0339   -0.5175 H   0  0  0  0  0  0  0  0  0  0  0  0
    0.4014   -1.9480    0.1383 H   0  0  0  0  0  0  0  0  0  0  0  0
   -2.0593   -1.6728    0.5491 H   0  0  0  0  0  0  0  0  0  0  0  0
   -7.1625    5.7888    1.1062 C   0  0  0  0  0  0  0  0  0  0  0  0
   -8.3285    6.5522    1.1055 C   0  0  0  0  0  0  0  0  0  0  0  0
   -9.0455    6.7802   -0.0773 C   0  0  0  0  0  0  0  0  0  0  0  0
   -8.5715    6.2119   -1.2701 C   0  0  0  0  0  0  0  0  0  0  0  0
   -7.4095    5.4463   -1.2909 C   0  0  0  0  0  0  0  0  0  0  0  0
   -6.7125    5.2480   -0.0976 C   0  0  0  0  0  0  0  0  0  0  0  0
   -6.6136    5.6012    2.0223 H   0  0  0  0  0  0  0  0  0  0  0  0
   -8.6895    6.9742    2.0390 H   0  0  0  0  0  0  0  0  0  0  0  0
   -9.1232    6.3680   -2.1933 H   0  0  0  0  0  0  0  0  0  0  0  0
   -7.0507    4.9957   -2.2095 H   0  0  0  0  0  0  0  0  0  0  0  0
   -5.2272    4.2686   -0.1104 S   0  0  0  0  0  0  0  0  0  0  0  0
   -4.9471    3.7819    1.2393 O   0  0  0  0  0  0  0  0  0  0  0  0
   -4.1712    5.4735   -0.4745 O   0  0  0  0  0  0  0  0  0  0  0  0
   -5.2566    3.3281   -1.2306 O   0  0  0  0  0  0  0  0  0  0  0  0
  -10.2913    7.6328   -0.0761 C   0  0  0  0  0  0  0  0  0  0  0  0
  -11.0566    7.2228   -0.7423 H   0  0  0  0  0  0  0  0  0  0  0  0
  -10.7191    7.7165    0.9264 H   0  0  0  0  0  0  0  0  0  0  0  0
  -10.0688    8.6487   -0.4251 H   0  0  0  0  0  0  0  0  0  0  0  0
  1  8  1  0  0  0  0
  1  2  1  0  0  0  0
  2  3  1  0  0  0  0
  4  1  2  0  0  0  0
  5  6  2  0  0  0  0
  5  4  1  0  0  0  0
  6  7  1  0  0  0  0
  7 12  1  0  0  0  0
  7  8  2  0  0  0  0
  8 13  1  0  0  0  0
  9 26  1  0  0  0  0
 10  5  1  0  0  0  0
 11  6  1  0  0  0  0
 14 20  1  0  0  0  0
 15 14  1  0  0  0  0
 15 21  1  0  0  0  0
 16 28  1  0  0  0  0
 16 15  2  0  0  0  0
 17 16  1  0  0  0  0
 18 17  2  0  0  0  0
 18 19  1  0  0  0  0
 19 14  2  0  0  0  0
 22 17  1  0  0  0  0
 23 18  1  0  0  0  0
 24 19  1  0  0  0  0
 24 25  2  0  0  0  0
 26 24  1  0  0  0  0
 27 24  2  0  0  0  0
 28 30  1  0  0  0  0
 29 28  1  0  0  0  0
 31 28  1  0  0  0  0
M  RAD  3   2   2   3   3   4   2
M  END
