Coordinates from ORCA-job PhN2+~TsO-_B3LYPG-6-31G_dp-CH-Scan-d09-49-n800
 OpenBabel11261919273D

 31 31  0  0  0  0  0  0  0  0999 V2000
   -2.2217    0.6001    0.1144 C   0  0  0  0  0  0  0  0  0  0  0  0
   -3.5630    0.3504    0.3881 N   0  0  0  0  0  0  0  0  0  0  0  0
   -4.6474    0.1886    0.5998 N   0  0  0  0  0  0  0  0  0  0  0  0
   -1.9297    1.9338   -0.2231 C   0  0  0  0  0  0  0  0  0  0  0  0
   -0.5422    2.0776   -0.4866 C   0  0  0  0  0  0  0  0  0  0  0  0
    0.3722    1.0303   -0.4134 C   0  0  0  0  0  0  0  0  0  0  0  0
   -0.0290   -0.2789   -0.0611 C   0  0  0  0  0  0  0  0  0  0  0  0
   -1.3568   -0.5223    0.2138 C   0  0  0  0  0  0  0  0  0  0  0  0
   -3.4836    3.6821   -0.3353 H   0  0  0  0  0  0  0  0  0  0  0  0
   -0.1623    3.0600   -0.7647 H   0  0  0  0  0  0  0  0  0  0  0  0
    1.4230    1.2118   -0.6316 H   0  0  0  0  0  0  0  0  0  0  0  0
    0.6978   -1.0828   -0.0076 H   0  0  0  0  0  0  0  0  0  0  0  0
   -1.7211   -1.5076    0.4903 H   0  0  0  0  0  0  0  0  0  0  0  0
   -7.0906    5.4758    1.1247 C   0  0  0  0  0  0  0  0  0  0  0  0
   -8.0219    6.5110    1.0693 C   0  0  0  0  0  0  0  0  0  0  0  0
   -8.6324    6.8735   -0.1394 C   0  0  0  0  0  0  0  0  0  0  0  0
   -8.2956    6.1615   -1.3010 C   0  0  0  0  0  0  0  0  0  0  0  0
   -7.3685    5.1234   -1.2657 C   0  0  0  0  0  0  0  0  0  0  0  0
   -6.7690    4.7950   -0.0487 C   0  0  0  0  0  0  0  0  0  0  0  0
   -6.6268    5.1857    2.0608 H   0  0  0  0  0  0  0  0  0  0  0  0
   -8.2828    7.0430    1.9801 H   0  0  0  0  0  0  0  0  0  0  0  0
   -8.7702    6.4205   -2.2436 H   0  0  0  0  0  0  0  0  0  0  0  0
   -7.1186    4.5629   -2.1598 H   0  0  0  0  0  0  0  0  0  0  0  0
   -5.5831    3.4667    0.0098 S   0  0  0  0  0  0  0  0  0  0  0  0
   -5.4888    2.9571    1.3825 O   0  0  0  0  0  0  0  0  0  0  0  0
   -4.2513    4.3132   -0.3425 O   0  0  0  0  0  0  0  0  0  0  0  0
   -5.8577    2.5159   -1.0720 O   0  0  0  0  0  0  0  0  0  0  0  0
   -9.6173    8.0159   -0.1971 C   0  0  0  0  0  0  0  0  0  0  0  0
  -10.4313    7.8080   -0.8980 H   0  0  0  0  0  0  0  0  0  0  0  0
  -10.0547    8.2185    0.7840 H   0  0  0  0  0  0  0  0  0  0  0  0
   -9.1275    8.9378   -0.5344 H   0  0  0  0  0  0  0  0  0  0  0  0
  1  8  1  0  0  0  0
  1  2  1  0  0  0  0
  2  3  1  0  0  0  0
  4  1  2  0  0  0  0
  5  6  2  0  0  0  0
  5  4  1  0  0  0  0
  6  7  1  0  0  0  0
  7 12  1  0  0  0  0
  7  8  2  0  0  0  0
  8 13  1  0  0  0  0
 10  5  1  0  0  0  0
 11  6  1  0  0  0  0
 14 20  1  0  0  0  0
 15 14  1  0  0  0  0
 15 21  1  0  0  0  0
 16 15  2  0  0  0  0
 17 18  2  0  0  0  0
 17 16  1  0  0  0  0
 18 19  1  0  0  0  0
 19 24  1  0  0  0  0
 19 14  2  0  0  0  0
 22 17  1  0  0  0  0
 23 18  1  0  0  0  0
 24 25  2  0  0  0  0
 26  9  1  0  0  0  0
 26 24  1  0  0  0  0
 27 24  2  0  0  0  0
 28 16  1  0  0  0  0
 28 30  1  0  0  0  0
 29 28  1  0  0  0  0
 31 28  1  0  0  0  0
M  RAD  3   2   2   3   3   4   2
M  END
