Coordinates from ORCA-job PhN2+~TsO-_B3LYPG-6-31G_dp-CH-Scan-d09-49-n800
 OpenBabel11261919273D

 31 31  0  0  0  0  0  0  0  0999 V2000
   -2.2897    0.6344    0.1244 C   0  0  0  0  0  0  0  0  0  0  0  0
   -3.6157    0.3265    0.4102 N   0  0  0  0  0  0  0  0  0  0  0  0
   -4.6899    0.1191    0.6320 N   0  0  0  0  0  0  0  0  0  0  0  0
   -2.0504    1.9790   -0.2139 C   0  0  0  0  0  0  0  0  0  0  0  0
   -0.6742    2.1801   -0.4906 C   0  0  0  0  0  0  0  0  0  0  0  0
    0.2823    1.1702   -0.4285 C   0  0  0  0  0  0  0  0  0  0  0  0
   -0.0630   -0.1536   -0.0747 C   0  0  0  0  0  0  0  0  0  0  0  0
   -1.3777   -0.4502    0.2125 C   0  0  0  0  0  0  0  0  0  0  0  0
   -3.4906    3.4860   -0.3035 H   0  0  0  0  0  0  0  0  0  0  0  0
   -0.3391    3.1778   -0.7703 H   0  0  0  0  0  0  0  0  0  0  0  0
    1.3224    1.3944   -0.6568 H   0  0  0  0  0  0  0  0  0  0  0  0
    0.6954   -0.9282   -0.0295 H   0  0  0  0  0  0  0  0  0  0  0  0
   -1.6992   -1.4497    0.4907 H   0  0  0  0  0  0  0  0  0  0  0  0
   -7.0636    5.4187    1.1270 C   0  0  0  0  0  0  0  0  0  0  0  0
   -7.9631    6.4815    1.0656 C   0  0  0  0  0  0  0  0  0  0  0  0
   -8.5523    6.8639   -0.1473 C   0  0  0  0  0  0  0  0  0  0  0  0
   -8.2268    6.1438   -1.3071 C   0  0  0  0  0  0  0  0  0  0  0  0
   -7.3315    5.0783   -1.2654 C   0  0  0  0  0  0  0  0  0  0  0  0
   -6.7522    4.7297   -0.0443 C   0  0  0  0  0  0  0  0  0  0  0  0
   -6.6169    5.1130    2.0663 H   0  0  0  0  0  0  0  0  0  0  0  0
   -8.2159    7.0196    1.9752 H   0  0  0  0  0  0  0  0  0  0  0  0
   -8.6857    6.4180   -2.2533 H   0  0  0  0  0  0  0  0  0  0  0  0
   -7.0914    4.5114   -2.1582 H   0  0  0  0  0  0  0  0  0  0  0  0
   -5.6068    3.3658    0.0219 S   0  0  0  0  0  0  0  0  0  0  0  0
   -5.5424    2.8538    1.3973 O   0  0  0  0  0  0  0  0  0  0  0  0
   -4.2491    4.1526   -0.3239 O   0  0  0  0  0  0  0  0  0  0  0  0
   -5.9155    2.4172   -1.0546 O   0  0  0  0  0  0  0  0  0  0  0  0
   -9.5034    8.0344   -0.2116 C   0  0  0  0  0  0  0  0  0  0  0  0
  -10.3266    7.8439   -0.9069 H   0  0  0  0  0  0  0  0  0  0  0  0
   -9.9304    8.2586    0.7694 H   0  0  0  0  0  0  0  0  0  0  0  0
   -8.9888    8.9385   -0.5598 H   0  0  0  0  0  0  0  0  0  0  0  0
  1  8  1  0  0  0  0
  1  2  1  0  0  0  0
  2  3  1  0  0  0  0
  4  1  2  0  0  0  0
  5  6  2  0  0  0  0
  5  4  1  0  0  0  0
  6  7  1  0  0  0  0
  7 12  1  0  0  0  0
  7  8  2  0  0  0  0
  8 13  1  0  0  0  0
 10  5  1  0  0  0  0
 11  6  1  0  0  0  0
 14 20  1  0  0  0  0
 15 14  1  0  0  0  0
 15 21  1  0  0  0  0
 16 15  2  0  0  0  0
 17 18  2  0  0  0  0
 17 16  1  0  0  0  0
 18 19  1  0  0  0  0
 19 24  1  0  0  0  0
 19 14  2  0  0  0  0
 22 17  1  0  0  0  0
 23 18  1  0  0  0  0
 24 25  2  0  0  0  0
 26  9  1  0  0  0  0
 26 24  1  0  0  0  0
 27 24  2  0  0  0  0
 28 16  1  0  0  0  0
 28 30  1  0  0  0  0
 29 28  1  0  0  0  0
 31 28  1  0  0  0  0
M  RAD  3   2   2   3   3   4   2
M  END
