Coordinates from ORCA-job PhN2+~TsO-_B3LYPG-6-31G_dp-CH-Scan-d09-49-n800
 OpenBabel11261919273D

 31 31  0  0  0  0  0  0  0  0999 V2000
   -2.7485    0.8282   -0.0079 C   0  0  0  0  0  0  0  0  0  0  0  0
   -4.1234    0.8587    0.2698 N   0  0  0  0  0  0  0  0  0  0  0  0
   -5.1200    1.4241    0.1940 N   0  0  0  0  0  0  0  0  0  0  0  0
   -2.1299    1.8884   -0.6920 C   0  0  0  0  0  0  0  0  0  0  0  0
   -0.7602    1.7810   -0.9197 C   0  0  0  0  0  0  0  0  0  0  0  0
   -0.0419    0.6629   -0.4853 C   0  0  0  0  0  0  0  0  0  0  0  0
   -0.6840   -0.3779    0.1933 C   0  0  0  0  0  0  0  0  0  0  0  0
   -2.0501   -0.3008    0.4389 C   0  0  0  0  0  0  0  0  0  0  0  0
   -2.6102    2.6101   -0.9688 H   0  0  0  0  0  0  0  0  0  0  0  0
   -0.2534    2.5874   -1.4404 H   0  0  0  0  0  0  0  0  0  0  0  0
    1.0253    0.6022   -0.6759 H   0  0  0  0  0  0  0  0  0  0  0  0
   -0.1224   -1.2427    0.5305 H   0  0  0  0  0  0  0  0  0  0  0  0
   -2.5802   -1.0870    0.9649 H   0  0  0  0  0  0  0  0  0  0  0  0
   -7.1684    4.9373    1.0088 C   0  0  0  0  0  0  0  0  0  0  0  0
   -8.3806    5.6224    0.9484 C   0  0  0  0  0  0  0  0  0  0  0  0
   -8.6301    6.5677   -0.0569 C   0  0  0  0  0  0  0  0  0  0  0  0
   -7.6221    6.8205   -0.9980 C   0  0  0  0  0  0  0  0  0  0  0  0
   -6.4040    6.1445   -0.9502 C   0  0  0  0  0  0  0  0  0  0  0  0
   -6.1863    5.1993    0.0529 C   0  0  0  0  0  0  0  0  0  0  0  0
   -6.9688    4.2203    1.7977 H   0  0  0  0  0  0  0  0  0  0  0  0
   -9.1432    5.4250    1.6982 H   0  0  0  0  0  0  0  0  0  0  0  0
   -7.7910    7.5621   -1.7750 H   0  0  0  0  0  0  0  0  0  0  0  0
   -5.6179    6.3559   -1.6671 H   0  0  0  0  0  0  0  0  0  0  0  0
   -4.6373    4.2975    0.0985 S   0  0  0  0  0  0  0  0  0  0  0  0
   -4.4358    3.8210    1.4811 O   0  0  0  0  0  0  0  0  0  0  0  0
   -3.6057    5.1623   -0.4988 O   0  0  0  0  0  0  0  0  0  0  0  0
   -4.8671    3.0790   -0.8496 O   0  0  0  0  0  0  0  0  0  0  0  0
   -9.9588    7.2825   -0.1326 C   0  0  0  0  0  0  0  0  0  0  0  0
  -10.6970    6.6851   -0.6829 H   0  0  0  0  0  0  0  0  0  0  0  0
  -10.3704    7.4684    0.8639 H   0  0  0  0  0  0  0  0  0  0  0  0
   -9.8685    8.2433   -0.6475 H   0  0  0  0  0  0  0  0  0  0  0  0
  1  2  1  0  0  0  0
  1  8  2  0  0  0  0
  3  2  2  0  0  0  0
  4  1  1  0  0  0  0
  5  4  2  0  0  0  0
  5  6  1  0  0  0  0
  6  7  2  0  0  0  0
  7  8  1  0  0  0  0
  7 12  1  0  0  0  0
  8 13  1  0  0  0  0
  9  4  1  0  0  0  0
 10  5  1  0  0  0  0
 11  6  1  0  0  0  0
 14 20  1  0  0  0  0
 15 14  1  0  0  0  0
 15 21  1  0  0  0  0
 16 15  2  0  0  0  0
 17 18  2  0  0  0  0
 17 16  1  0  0  0  0
 18 19  1  0  0  0  0
 19 24  1  0  0  0  0
 19 14  2  0  0  0  0
 22 17  1  0  0  0  0
 23 18  1  0  0  0  0
 24 25  1  0  0  0  0
 26 24  2  0  0  0  0
 27 24  2  0  0  0  0
 28 16  1  0  0  0  0
 28 30  1  0  0  0  0
 29 28  1  0  0  0  0
 31 28  1  0  0  0  0
M  RAD  2   3   2  25   2
M  END
