Coordinates from ORCA-job PhN2+~TsO-_B3LYPG-6-31G_dp-CH-Scan-d09-49-n800
 OpenBabel11261919273D

 31 31  0  0  0  0  0  0  0  0999 V2000
   -2.3518    0.6662    0.1334 C   0  0  0  0  0  0  0  0  0  0  0  0
   -3.6622    0.3132    0.4367 N   0  0  0  0  0  0  0  0  0  0  0  0
   -4.7259    0.0719    0.6727 N   0  0  0  0  0  0  0  0  0  0  0  0
   -2.1528    2.0185   -0.2009 C   0  0  0  0  0  0  0  0  0  0  0  0
   -0.7902    2.2660   -0.4956 C   0  0  0  0  0  0  0  0  0  0  0  0
    0.1979    1.2854   -0.4525 C   0  0  0  0  0  0  0  0  0  0  0  0
   -0.1025   -0.0490   -0.1018 C   0  0  0  0  0  0  0  0  0  0  0  0
   -1.4038   -0.3875    0.2017 C   0  0  0  0  0  0  0  0  0  0  0  0
   -3.4744    3.3207   -0.2585 H   0  0  0  0  0  0  0  0  0  0  0  0
   -0.4932    3.2758   -0.7735 H   0  0  0  0  0  0  0  0  0  0  0  0
    1.2270    1.5431   -0.6937 H   0  0  0  0  0  0  0  0  0  0  0  0
    0.6794   -0.8006   -0.0713 H   0  0  0  0  0  0  0  0  0  0  0  0
   -1.6901   -1.3978    0.4786 H   0  0  0  0  0  0  0  0  0  0  0  0
   -7.0456    5.3719    1.1345 C   0  0  0  0  0  0  0  0  0  0  0  0
   -7.9213    6.4542    1.0626 C   0  0  0  0  0  0  0  0  0  0  0  0
   -8.4849    6.8510   -0.1577 C   0  0  0  0  0  0  0  0  0  0  0  0
   -8.1582    6.1256   -1.3138 C   0  0  0  0  0  0  0  0  0  0  0  0
   -7.2867    5.0412   -1.2610 C   0  0  0  0  0  0  0  0  0  0  0  0
   -6.7319    4.6776   -0.0329 C   0  0  0  0  0  0  0  0  0  0  0  0
   -6.6193    5.0547    2.0795 H   0  0  0  0  0  0  0  0  0  0  0  0
   -8.1755    6.9961    1.9695 H   0  0  0  0  0  0  0  0  0  0  0  0
   -8.5979    6.4107   -2.2660 H   0  0  0  0  0  0  0  0  0  0  0  0
   -7.0465    4.4700   -2.1511 H   0  0  0  0  0  0  0  0  0  0  0  0
   -5.6144    3.2903    0.0463 S   0  0  0  0  0  0  0  0  0  0  0  0
   -5.5860    2.7747    1.4241 O   0  0  0  0  0  0  0  0  0  0  0  0
   -4.2386    4.0251   -0.2832 O   0  0  0  0  0  0  0  0  0  0  0  0
   -5.9437    2.3421   -1.0274 O   0  0  0  0  0  0  0  0  0  0  0  0
   -9.4107    8.0412   -0.2336 C   0  0  0  0  0  0  0  0  0  0  0  0
  -10.2351    7.8634   -0.9311 H   0  0  0  0  0  0  0  0  0  0  0  0
   -9.8370    8.2807    0.7440 H   0  0  0  0  0  0  0  0  0  0  0  0
   -8.8760    8.9322   -0.5857 H   0  0  0  0  0  0  0  0  0  0  0  0
  1  8  1  0  0  0  0
  1  2  1  0  0  0  0
  2  3  1  0  0  0  0
  4  1  2  0  0  0  0
  5  6  2  0  0  0  0
  5  4  1  0  0  0  0
  6  7  1  0  0  0  0
  7 12  1  0  0  0  0
  7  8  2  0  0  0  0
  8 13  1  0  0  0  0
 10  5  1  0  0  0  0
 11  6  1  0  0  0  0
 14 20  1  0  0  0  0
 15 14  1  0  0  0  0
 15 21  1  0  0  0  0
 16 15  2  0  0  0  0
 17 18  2  0  0  0  0
 17 16  1  0  0  0  0
 18 19  1  0  0  0  0
 19 24  1  0  0  0  0
 19 14  2  0  0  0  0
 22 17  1  0  0  0  0
 23 18  1  0  0  0  0
 24 25  2  0  0  0  0
 26  9  1  0  0  0  0
 26 24  1  0  0  0  0
 27 24  2  0  0  0  0
 28 16  1  0  0  0  0
 28 30  1  0  0  0  0
 29 28  1  0  0  0  0
 31 28  1  0  0  0  0
M  RAD  3   2   2   3   3   4   2
M  END
