Coordinates from ORCA-job PhN2+~TsO-_B3LYPG-6-31G_dp-CH-Scan-d09-49-n800
 OpenBabel11261919273D

 31 31  0  0  0  0  0  0  0  0999 V2000
   -1.9370    0.4820    0.0935 C   0  0  0  0  0  0  0  0  0  0  0  0
   -3.3069    0.6321    0.3192 N   0  0  0  0  0  0  0  0  0  0  0  0
   -4.3994    0.8008    0.4869 N   0  0  0  0  0  0  0  0  0  0  0  0
   -1.3032    1.6806   -0.2681 C   0  0  0  0  0  0  0  0  0  0  0  0
    0.0835    1.4266   -0.4805 C   0  0  0  0  0  0  0  0  0  0  0  0
    0.6780    0.1762   -0.3441 C   0  0  0  0  0  0  0  0  0  0  0  0
   -0.0722   -0.9663    0.0296 C   0  0  0  0  0  0  0  0  0  0  0  0
   -1.4230   -0.8330    0.2608 C   0  0  0  0  0  0  0  0  0  0  0  0
   -3.3045    5.0412   -0.6367 H   0  0  0  0  0  0  0  0  0  0  0  0
    0.7291    2.2572   -0.7706 H   0  0  0  0  0  0  0  0  0  0  0  0
    1.7451    0.0570   -0.5271 H   0  0  0  0  0  0  0  0  0  0  0  0
    0.4110   -1.9328    0.1326 H   0  0  0  0  0  0  0  0  0  0  0  0
   -2.0500   -1.6722    0.5507 H   0  0  0  0  0  0  0  0  0  0  0  0
   -7.1632    5.7836    1.1077 C   0  0  0  0  0  0  0  0  0  0  0  0
   -8.3250    6.5533    1.1041 C   0  0  0  0  0  0  0  0  0  0  0  0
   -9.0389    6.7836   -0.0800 C   0  0  0  0  0  0  0  0  0  0  0  0
   -8.5662    6.2111   -1.2713 C   0  0  0  0  0  0  0  0  0  0  0  0
   -7.4084    5.4391   -1.2893 C   0  0  0  0  0  0  0  0  0  0  0  0
   -6.7143    5.2386   -0.0946 C   0  0  0  0  0  0  0  0  0  0  0  0
   -6.6167    5.5942    2.0249 H   0  0  0  0  0  0  0  0  0  0  0  0
   -8.6851    6.9785    2.0365 H   0  0  0  0  0  0  0  0  0  0  0  0
   -9.1157    6.3689   -2.1956 H   0  0  0  0  0  0  0  0  0  0  0  0
   -7.0506    4.9852   -2.2067 H   0  0  0  0  0  0  0  0  0  0  0  0
   -5.2343    4.2512   -0.1039 S   0  0  0  0  0  0  0  0  0  0  0  0
   -4.9598    3.7632    1.2465 O   0  0  0  0  0  0  0  0  0  0  0  0
   -4.1714    5.4504   -0.4658 O   0  0  0  0  0  0  0  0  0  0  0  0
   -5.2670    3.3102   -1.2236 O   0  0  0  0  0  0  0  0  0  0  0  0
  -10.2799    7.6432   -0.0819 C   0  0  0  0  0  0  0  0  0  0  0  0
  -11.0458    7.2375   -0.7499 H   0  0  0  0  0  0  0  0  0  0  0  0
  -10.7096    7.7295    0.9195 H   0  0  0  0  0  0  0  0  0  0  0  0
  -10.0508    8.6578   -0.4305 H   0  0  0  0  0  0  0  0  0  0  0  0
  1  8  1  0  0  0  0
  1  2  1  0  0  0  0
  2  3  1  0  0  0  0
  4  1  2  0  0  0  0
  5  6  2  0  0  0  0
  5  4  1  0  0  0  0
  6  7  1  0  0  0  0
  7 12  1  0  0  0  0
  7  8  2  0  0  0  0
  8 13  1  0  0  0  0
  9 26  1  0  0  0  0
 10  5  1  0  0  0  0
 11  6  1  0  0  0  0
 14 20  1  0  0  0  0
 15 14  1  0  0  0  0
 15 21  1  0  0  0  0
 16 15  2  0  0  0  0
 17 16  1  0  0  0  0
 18 17  2  0  0  0  0
 18 19  1  0  0  0  0
 19 14  2  0  0  0  0
 22 17  1  0  0  0  0
 23 18  1  0  0  0  0
 24 19  1  0  0  0  0
 24 25  2  0  0  0  0
 26 24  1  0  0  0  0
 27 24  2  0  0  0  0
 28 16  1  0  0  0  0
 28 30  1  0  0  0  0
 29 28  1  0  0  0  0
 31 28  1  0  0  0  0
M  RAD  3   2   2   3   3   4   2
M  END
