Coordinates from ORCA-job PhN2+~TsO-_B3LYPG-6-31G_dp-CH-Scan-d09-49-n800
 OpenBabel11261919273D

 31 31  0  0  0  0  0  0  0  0999 V2000
   -2.1128    0.5431    0.0942 C   0  0  0  0  0  0  0  0  0  0  0  0
   -3.4783    0.4052    0.3332 N   0  0  0  0  0  0  0  0  0  0  0  0
   -4.5782    0.3344    0.5151 N   0  0  0  0  0  0  0  0  0  0  0  0
   -1.7179    1.8479   -0.2464 C   0  0  0  0  0  0  0  0  0  0  0  0
   -0.3144    1.8801   -0.4719 C   0  0  0  0  0  0  0  0  0  0  0  0
    0.5153    0.7677   -0.3641 C   0  0  0  0  0  0  0  0  0  0  0  0
    0.0064   -0.5049   -0.0115 C   0  0  0  0  0  0  0  0  0  0  0  0
   -1.3427   -0.6439    0.2286 C   0  0  0  0  0  0  0  0  0  0  0  0
   -3.4380    4.0715   -0.4310 H   0  0  0  0  0  0  0  0  0  0  0  0
    0.1495    2.8273   -0.7480 H   0  0  0  0  0  0  0  0  0  0  0  0
    1.5828    0.8656   -0.5545 H   0  0  0  0  0  0  0  0  0  0  0  0
    0.6690   -1.3606    0.0689 H   0  0  0  0  0  0  0  0  0  0  0  0
   -1.7888   -1.5957    0.5037 H   0  0  0  0  0  0  0  0  0  0  0  0
   -7.1132    5.5858    1.1093 C   0  0  0  0  0  0  0  0  0  0  0  0
   -8.1118    6.5570    1.0770 C   0  0  0  0  0  0  0  0  0  0  0  0
   -8.7760    6.8751   -0.1161 C   0  0  0  0  0  0  0  0  0  0  0  0
   -8.4234    6.1840   -1.2855 C   0  0  0  0  0  0  0  0  0  0  0  0
   -7.4290    5.2095   -1.2738 C   0  0  0  0  0  0  0  0  0  0  0  0
   -6.7783    4.9251   -0.0722 C   0  0  0  0  0  0  0  0  0  0  0  0
   -6.6074    5.3296    2.0335 H   0  0  0  0  0  0  0  0  0  0  0  0
   -8.3835    7.0730    1.9937 H   0  0  0  0  0  0  0  0  0  0  0  0
   -8.9382    6.4089   -2.2157 H   0  0  0  0  0  0  0  0  0  0  0  0
   -7.1655    4.6649   -2.1738 H   0  0  0  0  0  0  0  0  0  0  0  0
   -5.5075    3.6782   -0.0430 S   0  0  0  0  0  0  0  0  0  0  0  0
   -5.3457    3.1730    1.3225 O   0  0  0  0  0  0  0  0  0  0  0  0
   -4.2410    4.6337   -0.4142 O   0  0  0  0  0  0  0  0  0  0  0  0
   -5.7268    2.7250   -1.1327 O   0  0  0  0  0  0  0  0  0  0  0  0
   -9.8343    7.9507   -0.1490 C   0  0  0  0  0  0  0  0  0  0  0  0
  -10.6388    7.6997   -0.8466 H   0  0  0  0  0  0  0  0  0  0  0  0
  -10.2751    8.1105    0.8386 H   0  0  0  0  0  0  0  0  0  0  0  0
   -9.4084    8.9073   -0.4763 H   0  0  0  0  0  0  0  0  0  0  0  0
  1  8  1  0  0  0  0
  1  2  1  0  0  0  0
  2  3  1  0  0  0  0
  4  1  2  0  0  0  0
  5  6  2  0  0  0  0
  5  4  1  0  0  0  0
  6  7  1  0  0  0  0
  7 12  1  0  0  0  0
  7  8  2  0  0  0  0
  8 13  1  0  0  0  0
  9 26  1  0  0  0  0
 10  5  1  0  0  0  0
 11  6  1  0  0  0  0
 14 20  1  0  0  0  0
 15 14  1  0  0  0  0
 15 21  1  0  0  0  0
 16 15  2  0  0  0  0
 17 18  2  0  0  0  0
 17 16  1  0  0  0  0
 18 19  1  0  0  0  0
 19 24  1  0  0  0  0
 19 14  2  0  0  0  0
 22 17  1  0  0  0  0
 23 18  1  0  0  0  0
 24 25  2  0  0  0  0
 26 24  1  0  0  0  0
 27 24  2  0  0  0  0
 28 16  1  0  0  0  0
 28 30  1  0  0  0  0
 29 28  1  0  0  0  0
 31 28  1  0  0  0  0
M  RAD  3   2   2   3   3   4   2
M  END
