Coordinates from ORCA-job PhN2+~TsO-_B3LYPG-6-31G_dp-CH-Scan-d09-49-n800
 OpenBabel11261919273D

 31 31  0  0  0  0  0  0  0  0999 V2000
   -2.4307    0.7193    0.1305 C   0  0  0  0  0  0  0  0  0  0  0  0
   -3.7338    0.3500    0.4433 N   0  0  0  0  0  0  0  0  0  0  0  0
   -4.7945    0.1063    0.6863 N   0  0  0  0  0  0  0  0  0  0  0  0
   -2.2287    2.0742   -0.1890 C   0  0  0  0  0  0  0  0  0  0  0  0
   -0.8796    2.3470   -0.4949 C   0  0  0  0  0  0  0  0  0  0  0  0
    0.1166    1.3725   -0.4753 C   0  0  0  0  0  0  0  0  0  0  0  0
   -0.1725    0.0338   -0.1407 C   0  0  0  0  0  0  0  0  0  0  0  0
   -1.4693   -0.3201    0.1716 C   0  0  0  0  0  0  0  0  0  0  0  0
   -3.3610    3.1411   -0.2082 H   0  0  0  0  0  0  0  0  0  0  0  0
   -0.6032    3.3650   -0.7602 H   0  0  0  0  0  0  0  0  0  0  0  0
    1.1406    1.6418   -0.7227 H   0  0  0  0  0  0  0  0  0  0  0  0
    0.6139   -0.7133   -0.1284 H   0  0  0  0  0  0  0  0  0  0  0  0
   -1.7434   -1.3365    0.4364 H   0  0  0  0  0  0  0  0  0  0  0  0
   -7.0228    5.3385    1.1487 C   0  0  0  0  0  0  0  0  0  0  0  0
   -7.8907    6.4262    1.0604 C   0  0  0  0  0  0  0  0  0  0  0  0
   -8.4324    6.8233   -0.1693 C   0  0  0  0  0  0  0  0  0  0  0  0
   -8.0915    6.0921   -1.3175 C   0  0  0  0  0  0  0  0  0  0  0  0
   -7.2271    5.0028   -1.2470 C   0  0  0  0  0  0  0  0  0  0  0  0
   -6.6933    4.6375   -0.0101 C   0  0  0  0  0  0  0  0  0  0  0  0
   -6.6143    5.0204    2.1013 H   0  0  0  0  0  0  0  0  0  0  0  0
   -8.1565    6.9720    1.9619 H   0  0  0  0  0  0  0  0  0  0  0  0
   -8.5146    6.3766   -2.2776 H   0  0  0  0  0  0  0  0  0  0  0  0
   -6.9770    4.4268   -2.1314 H   0  0  0  0  0  0  0  0  0  0  0  0
   -5.5726    3.2504    0.0885 S   0  0  0  0  0  0  0  0  0  0  0  0
   -5.5865    2.7346    1.4724 O   0  0  0  0  0  0  0  0  0  0  0  0
   -4.1966    3.9281   -0.2251 O   0  0  0  0  0  0  0  0  0  0  0  0
   -5.9204    2.2845   -0.9712 O   0  0  0  0  0  0  0  0  0  0  0  0
   -9.3497    8.0191   -0.2636 C   0  0  0  0  0  0  0  0  0  0  0  0
  -10.1692    7.8411   -0.9671 H   0  0  0  0  0  0  0  0  0  0  0  0
   -9.7838    8.2690    0.7081 H   0  0  0  0  0  0  0  0  0  0  0  0
   -8.8071    8.9046   -0.6177 H   0  0  0  0  0  0  0  0  0  0  0  0
  1  8  1  0  0  0  0
  1  2  1  0  0  0  0
  2  3  1  0  0  0  0
  4  1  2  0  0  0  0
  5  6  2  0  0  0  0
  5  4  1  0  0  0  0
  6  7  1  0  0  0  0
  7 12  1  0  0  0  0
  7  8  2  0  0  0  0
  8 13  1  0  0  0  0
 10  5  1  0  0  0  0
 11  6  1  0  0  0  0
 14 20  1  0  0  0  0
 15 14  1  0  0  0  0
 15 21  1  0  0  0  0
 16 15  2  0  0  0  0
 17 18  2  0  0  0  0
 17 16  1  0  0  0  0
 18 19  1  0  0  0  0
 19 24  1  0  0  0  0
 19 14  2  0  0  0  0
 22 17  1  0  0  0  0
 23 18  1  0  0  0  0
 24 25  2  0  0  0  0
 26  9  1  0  0  0  0
 26 24  1  0  0  0  0
 27 24  2  0  0  0  0
 28 16  1  0  0  0  0
 28 30  1  0  0  0  0
 29 28  1  0  0  0  0
 31 28  1  0  0  0  0
M  RAD  3   2   2   3   3   4   2
M  END
