Coordinates from ORCA-job PhN2+~TsO-_B3LYPG-6-31G_dp-CH-Scan-d09-49-n800
 OpenBabel11261919283D

 31 31  0  0  0  0  0  0  0  0999 V2000
   -2.2182    0.4620   -0.8022 C   0  0  0  0  0  0  0  0  0  0  0  0
   -3.4166    0.0541   -1.3972 N   0  0  0  0  0  0  0  0  0  0  0  0
   -4.3261   -0.3129   -1.9334 N   0  0  0  0  0  0  0  0  0  0  0  0
   -1.0992   -0.0386   -1.4820 C   0  0  0  0  0  0  0  0  0  0  0  0
    0.0824    0.4359   -0.8356 C   0  0  0  0  0  0  0  0  0  0  0  0
    0.0804    1.2626    0.2825 C   0  0  0  0  0  0  0  0  0  0  0  0
   -1.1281    1.6900    0.8905 C   0  0  0  0  0  0  0  0  0  0  0  0
   -2.3312    1.2867    0.3509 C   0  0  0  0  0  0  0  0  0  0  0  0
   -3.0958    4.0674   -0.0009 H   0  0  0  0  0  0  0  0  0  0  0  0
    1.0526    0.1381   -1.2358 H   0  0  0  0  0  0  0  0  0  0  0  0
    1.0226    1.5909    0.7187 H   0  0  0  0  0  0  0  0  0  0  0  0
   -1.1040    2.3088    1.7826 H   0  0  0  0  0  0  0  0  0  0  0  0
   -3.2934    1.5605    0.7718 H   0  0  0  0  0  0  0  0  0  0  0  0
   -7.2677    4.4277    0.6979 C   0  0  0  0  0  0  0  0  0  0  0  0
   -8.3544    5.2188    1.0579 C   0  0  0  0  0  0  0  0  0  0  0  0
   -8.6477    6.4071    0.3710 C   0  0  0  0  0  0  0  0  0  0  0  0
   -7.8182    6.7895   -0.6928 C   0  0  0  0  0  0  0  0  0  0  0  0
   -6.7233    6.0142   -1.0682 C   0  0  0  0  0  0  0  0  0  0  0  0
   -6.4592    4.8402   -0.3629 C   0  0  0  0  0  0  0  0  0  0  0  0
   -7.0508    3.5025    1.2201 H   0  0  0  0  0  0  0  0  0  0  0  0
   -8.9884    4.9083    1.8842 H   0  0  0  0  0  0  0  0  0  0  0  0
   -8.0321    7.7052   -1.2366 H   0  0  0  0  0  0  0  0  0  0  0  0
   -6.0874    6.3035   -1.8978 H   0  0  0  0  0  0  0  0  0  0  0  0
   -5.0679    3.8435   -0.8370 S   0  0  0  0  0  0  0  0  0  0  0  0
   -5.3034    2.4493   -0.4471 O   0  0  0  0  0  0  0  0  0  0  0  0
   -3.9569    4.4794    0.1978 O   0  0  0  0  0  0  0  0  0  0  0  0
   -4.6584    4.1539   -2.2040 O   0  0  0  0  0  0  0  0  0  0  0  0
   -9.8495    7.2361    0.7522 C   0  0  0  0  0  0  0  0  0  0  0  0
  -10.7619    6.8281    0.3009 H   0  0  0  0  0  0  0  0  0  0  0  0
  -10.0009    7.2461    1.8358 H   0  0  0  0  0  0  0  0  0  0  0  0
   -9.7491    8.2698    0.4109 H   0  0  0  0  0  0  0  0  0  0  0  0
  1  8  2  0  0  0  0
  2  1  1  0  0  0  0
  3  2  1  0  0  0  0
  4  5  2  0  0  0  0
  4  1  1  0  0  0  0
  5  6  1  0  0  0  0
  6 11  1  0  0  0  0
  6  7  2  0  0  0  0
  7 12  1  0  0  0  0
  8 13  1  0  0  0  0
  8  7  1  0  0  0  0
  9 26  1  0  0  0  0
 10  5  1  0  0  0  0
 14 15  1  0  0  0  0
 14 20  1  0  0  0  0
 15 21  1  0  0  0  0
 16 28  1  0  0  0  0
 16 15  2  0  0  0  0
 17 16  1  0  0  0  0
 18 17  2  0  0  0  0
 18 19  1  0  0  0  0
 19 14  2  0  0  0  0
 22 17  1  0  0  0  0
 23 18  1  0  0  0  0
 24 25  2  0  0  0  0
 24 19  1  0  0  0  0
 24 26  1  0  0  0  0
 27 24  2  0  0  0  0
 28 30  1  0  0  0  0
 29 28  1  0  0  0  0
 31 28  1  0  0  0  0
M  RAD  3   2   2   3   3   4   2
M  END
