Coordinates from ORCA-job PhN2+~TsO-_B3LYPG-6-31G_dp-CH-Scan-d09-49-n800
 OpenBabel11261919273D

 31 31  0  0  0  0  0  0  0  0999 V2000
   -2.4585    0.7622    0.1130 C   0  0  0  0  0  0  0  0  0  0  0  0
   -3.7873    0.4823    0.4055 N   0  0  0  0  0  0  0  0  0  0  0  0
   -4.8768    0.3672    0.6174 N   0  0  0  0  0  0  0  0  0  0  0  0
   -2.1383    2.0929   -0.2043 C   0  0  0  0  0  0  0  0  0  0  0  0
   -0.7851    2.3061   -0.4939 C   0  0  0  0  0  0  0  0  0  0  0  0
    0.1479    1.2688   -0.4626 C   0  0  0  0  0  0  0  0  0  0  0  0
   -0.2322   -0.0448   -0.1353 C   0  0  0  0  0  0  0  0  0  0  0  0
   -1.5552   -0.3205    0.1602 C   0  0  0  0  0  0  0  0  0  0  0  0
   -3.0908    3.0713   -0.2229 H   0  0  0  0  0  0  0  0  0  0  0  0
   -0.4587    3.3095   -0.7512 H   0  0  0  0  0  0  0  0  0  0  0  0
    1.1891    1.4745   -0.6956 H   0  0  0  0  0  0  0  0  0  0  0  0
    0.5039   -0.8411   -0.1141 H   0  0  0  0  0  0  0  0  0  0  0  0
   -1.8913   -1.3193    0.4179 H   0  0  0  0  0  0  0  0  0  0  0  0
   -7.0156    5.3680    1.1530 C   0  0  0  0  0  0  0  0  0  0  0  0
   -7.9324    6.4158    1.0679 C   0  0  0  0  0  0  0  0  0  0  0  0
   -8.4885    6.7944   -0.1607 C   0  0  0  0  0  0  0  0  0  0  0  0
   -8.1102    6.0852   -1.3111 C   0  0  0  0  0  0  0  0  0  0  0  0
   -7.1969    5.0364   -1.2423 C   0  0  0  0  0  0  0  0  0  0  0  0
   -6.6495    4.6866   -0.0064 C   0  0  0  0  0  0  0  0  0  0  0  0
   -6.5963    5.0634    2.1054 H   0  0  0  0  0  0  0  0  0  0  0  0
   -8.2252    6.9445    1.9715 H   0  0  0  0  0  0  0  0  0  0  0  0
   -8.5426    6.3549   -2.2716 H   0  0  0  0  0  0  0  0  0  0  0  0
   -6.9188    4.4768   -2.1288 H   0  0  0  0  0  0  0  0  0  0  0  0
   -5.4495    3.3614    0.0855 S   0  0  0  0  0  0  0  0  0  0  0  0
   -5.4735    2.8285    1.4727 O   0  0  0  0  0  0  0  0  0  0  0  0
   -4.1144    4.0381   -0.2266 O   0  0  0  0  0  0  0  0  0  0  0  0
   -5.7983    2.3609   -0.9560 O   0  0  0  0  0  0  0  0  0  0  0  0
   -9.4619    7.9457   -0.2524 C   0  0  0  0  0  0  0  0  0  0  0  0
  -10.3030    7.7082   -0.9118 H   0  0  0  0  0  0  0  0  0  0  0  0
   -9.8646    8.2087    0.7293 H   0  0  0  0  0  0  0  0  0  0  0  0
   -8.9774    8.8419   -0.6597 H   0  0  0  0  0  0  0  0  0  0  0  0
  1  8  1  0  0  0  0
  1  2  1  0  0  0  0
  2  3  1  0  0  0  0
  4  1  2  0  0  0  0
  5  6  2  0  0  0  0
  5  4  1  0  0  0  0
  6  7  1  0  0  0  0
  7 12  1  0  0  0  0
  7  8  2  0  0  0  0
  8 13  1  0  0  0  0
  9  4  1  0  0  0  0
 10  5  1  0  0  0  0
 11  6  1  0  0  0  0
 14 20  1  0  0  0  0
 15 14  1  0  0  0  0
 15 21  1  0  0  0  0
 16 15  2  0  0  0  0
 17 18  2  0  0  0  0
 17 16  1  0  0  0  0
 18 19  1  0  0  0  0
 19 24  1  0  0  0  0
 19 14  2  0  0  0  0
 22 17  1  0  0  0  0
 23 18  1  0  0  0  0
 24 25  1  0  0  0  0
 26 24  2  0  0  0  0
 27 24  2  0  0  0  0
 28 16  1  0  0  0  0
 28 30  1  0  0  0  0
 29 28  1  0  0  0  0
 31 28  1  0  0  0  0
M  RAD  3   2   2   3   3  25   2
M  END
