Coordinates from ORCA-job PhN2+~TsO-_B3LYPG-6-31G_dp-CH-Scan-d09-49-n800
 OpenBabel11261919273D

 31 31  0  0  0  0  0  0  0  0999 V2000
   -2.0039    0.4984    0.0938 C   0  0  0  0  0  0  0  0  0  0  0  0
   -3.3795    0.5254    0.3255 N   0  0  0  0  0  0  0  0  0  0  0  0
   -4.4812    0.5933    0.5008 N   0  0  0  0  0  0  0  0  0  0  0  0
   -1.4721    1.7480   -0.2625 C   0  0  0  0  0  0  0  0  0  0  0  0
   -0.0715    1.6151   -0.4852 C   0  0  0  0  0  0  0  0  0  0  0  0
    0.6278    0.4186   -0.3604 C   0  0  0  0  0  0  0  0  0  0  0  0
   -0.0208   -0.7849    0.0100 C   0  0  0  0  0  0  0  0  0  0  0  0
   -1.3768   -0.7680    0.2493 C   0  0  0  0  0  0  0  0  0  0  0  0
   -3.3469    4.6361   -0.5238 H   0  0  0  0  0  0  0  0  0  0  0  0
    0.4987    2.4994   -0.7734 H   0  0  0  0  0  0  0  0  0  0  0  0
    1.6998    0.3922   -0.5502 H   0  0  0  0  0  0  0  0  0  0  0  0
    0.5427   -1.7078    0.1042 H   0  0  0  0  0  0  0  0  0  0  0  0
   -1.9281   -1.6594    0.5369 H   0  0  0  0  0  0  0  0  0  0  0  0
   -7.1490    5.7096    1.1095 C   0  0  0  0  0  0  0  0  0  0  0  0
   -8.2452    6.5696    1.0911 C   0  0  0  0  0  0  0  0  0  0  0  0
   -8.9405    6.8333   -0.0975 C   0  0  0  0  0  0  0  0  0  0  0  0
   -8.5172    6.2016   -1.2772 C   0  0  0  0  0  0  0  0  0  0  0  0
   -7.4248    5.3390   -1.2801 C   0  0  0  0  0  0  0  0  0  0  0  0
   -6.7470    5.1069   -0.0821 C   0  0  0  0  0  0  0  0  0  0  0  0
   -6.6181    5.4948    2.0302 H   0  0  0  0  0  0  0  0  0  0  0  0
   -8.5689    7.0401    2.0151 H   0  0  0  0  0  0  0  0  0  0  0  0
   -9.0539    6.3849   -2.2043 H   0  0  0  0  0  0  0  0  0  0  0  0
   -7.1056    4.8400   -2.1883 H   0  0  0  0  0  0  0  0  0  0  0  0
   -5.3509    4.0034   -0.0718 S   0  0  0  0  0  0  0  0  0  0  0  0
   -5.1284    3.5026    1.2846 O   0  0  0  0  0  0  0  0  0  0  0  0
   -4.1945    5.1082   -0.4298 O   0  0  0  0  0  0  0  0  0  0  0  0
   -5.4576    3.0564   -1.1819 O   0  0  0  0  0  0  0  0  0  0  0  0
  -10.1078    7.7901   -0.1157 C   0  0  0  0  0  0  0  0  0  0  0  0
  -10.8932    7.4493   -0.7971 H   0  0  0  0  0  0  0  0  0  0  0  0
  -10.5451    7.9088    0.8791 H   0  0  0  0  0  0  0  0  0  0  0  0
   -9.7921    8.7838   -0.4566 H   0  0  0  0  0  0  0  0  0  0  0  0
  1  8  1  0  0  0  0
  1  2  1  0  0  0  0
  2  3  1  0  0  0  0
  4  1  2  0  0  0  0
  5  6  2  0  0  0  0
  5  4  1  0  0  0  0
  6  7  1  0  0  0  0
  7 12  1  0  0  0  0
  7  8  2  0  0  0  0
  8 13  1  0  0  0  0
  9 26  1  0  0  0  0
 10  5  1  0  0  0  0
 11  6  1  0  0  0  0
 14 20  1  0  0  0  0
 15 14  1  0  0  0  0
 15 21  1  0  0  0  0
 16 15  2  0  0  0  0
 17 16  1  0  0  0  0
 18 17  2  0  0  0  0
 18 19  1  0  0  0  0
 19 24  1  0  0  0  0
 19 14  2  0  0  0  0
 22 17  1  0  0  0  0
 23 18  1  0  0  0  0
 24 25  2  0  0  0  0
 26 24  1  0  0  0  0
 27 24  2  0  0  0  0
 28 16  1  0  0  0  0
 28 30  1  0  0  0  0
 29 28  1  0  0  0  0
 31 28  1  0  0  0  0
M  RAD  3   2   2   3   3   4   2
M  END
