Coordinates from ORCA-job PhN2+~TsO-_B3LYPG-6-31G_dp-CH-Scan-d09-49-n800
 OpenBabel11261919273D

 31 31  0  0  0  0  0  0  0  0999 V2000
   -2.4953    0.7820    0.2176 C   0  0  0  0  0  0  0  0  0  0  0  0
   -3.6798    0.6577    0.9527 N   0  0  0  0  0  0  0  0  0  0  0  0
   -4.7118    0.9639    1.3156 N   0  0  0  0  0  0  0  0  0  0  0  0
   -2.1130    2.0410   -0.2674 C   0  0  0  0  0  0  0  0  0  0  0  0
   -0.9179    2.1011   -0.9812 C   0  0  0  0  0  0  0  0  0  0  0  0
   -0.1518    0.9523   -1.1985 C   0  0  0  0  0  0  0  0  0  0  0  0
   -0.5594   -0.2896   -0.6951 C   0  0  0  0  0  0  0  0  0  0  0  0
   -1.7375   -0.3848    0.0333 C   0  0  0  0  0  0  0  0  0  0  0  0
   -2.7734    3.0204   -0.0539 H   0  0  0  0  0  0  0  0  0  0  0  0
   -0.5857    3.0587   -1.3681 H   0  0  0  0  0  0  0  0  0  0  0  0
    0.7760    1.0234   -1.7582 H   0  0  0  0  0  0  0  0  0  0  0  0
    0.0431   -1.1755   -0.8653 H   0  0  0  0  0  0  0  0  0  0  0  0
   -2.0806   -1.3275    0.4447 H   0  0  0  0  0  0  0  0  0  0  0  0
   -7.5634    5.0600    1.2413 C   0  0  0  0  0  0  0  0  0  0  0  0
   -8.6151    5.8784    0.8360 C   0  0  0  0  0  0  0  0  0  0  0  0
   -8.5297    6.6416   -0.3385 C   0  0  0  0  0  0  0  0  0  0  0  0
   -7.3516    6.5715   -1.0940 C   0  0  0  0  0  0  0  0  0  0  0  0
   -6.2897    5.7572   -0.7010 C   0  0  0  0  0  0  0  0  0  0  0  0
   -6.4039    5.0012    0.4652 C   0  0  0  0  0  0  0  0  0  0  0  0
   -7.6207    4.4839    2.1583 H   0  0  0  0  0  0  0  0  0  0  0  0
   -9.5153    5.9319    1.4437 H   0  0  0  0  0  0  0  0  0  0  0  0
   -7.2629    7.1659   -1.9999 H   0  0  0  0  0  0  0  0  0  0  0  0
   -5.3713    5.7178   -1.2763 H   0  0  0  0  0  0  0  0  0  0  0  0
   -5.0655    3.9167    0.9640 S   0  0  0  0  0  0  0  0  0  0  0  0
   -5.1535    3.7263    2.4233 O   0  0  0  0  0  0  0  0  0  0  0  0
   -3.8078    4.5324    0.4523 O   0  0  0  0  0  0  0  0  0  0  0  0
   -5.3441    2.6132    0.1991 O   0  0  0  0  0  0  0  0  0  0  0  0
   -9.6859    7.5087   -0.7779 C   0  0  0  0  0  0  0  0  0  0  0  0
  -10.5058    6.9012   -1.1810 H   0  0  0  0  0  0  0  0  0  0  0  0
  -10.0944    8.0843    0.0592 H   0  0  0  0  0  0  0  0  0  0  0  0
   -9.3843    8.2134   -1.5580 H   0  0  0  0  0  0  0  0  0  0  0  0
  1  2  1  0  0  0  0
  2  3  1  0  0  0  0
  4  9  1  0  0  0  0
  4  1  2  0  0  0  0
  5  4  1  0  0  0  0
  6  5  2  0  0  0  0
  6  7  1  0  0  0  0
  7  8  2  0  0  0  0
  8  1  1  0  0  0  0
  8 13  1  0  0  0  0
 10  5  1  0  0  0  0
 11  6  1  0  0  0  0
 12  7  1  0  0  0  0
 14 20  1  0  0  0  0
 15 14  1  0  0  0  0
 15 21  1  0  0  0  0
 16 15  2  0  0  0  0
 17 18  2  0  0  0  0
 17 16  1  0  0  0  0
 18 19  1  0  0  0  0
 19 24  1  0  0  0  0
 19 14  2  0  0  0  0
 22 17  1  0  0  0  0
 23 18  1  0  0  0  0
 24 25  1  0  0  0  0
 26 24  2  0  0  0  0
 27 24  2  0  0  0  0
 28 16  1  0  0  0  0
 28 30  1  0  0  0  0
 29 28  1  0  0  0  0
 31 28  1  0  0  0  0
M  RAD  3   2   2   3   3  25   2
M  END
