Coordinates from ORCA-job PhN2+~TsO-_B3LYPG-6-31G_dp-CH-Scan-d09-49-n800
 OpenBabel11261919283D

 31 31  0  0  0  0  0  0  0  0999 V2000
   -1.8536    0.4688    0.0388 C   0  0  0  0  0  0  0  0  0  0  0  0
   -3.2148    0.7547    0.1703 N   0  0  0  0  0  0  0  0  0  0  0  0
   -4.2942    1.0312    0.2652 N   0  0  0  0  0  0  0  0  0  0  0  0
   -1.0903    1.5910   -0.3162 C   0  0  0  0  0  0  0  0  0  0  0  0
    0.2780    1.2028   -0.4264 C   0  0  0  0  0  0  0  0  0  0  0  0
    0.7428   -0.0904   -0.2104 C   0  0  0  0  0  0  0  0  0  0  0  0
   -0.1337   -1.1456    0.1457 C   0  0  0  0  0  0  0  0  0  0  0  0
   -1.4782   -0.8815    0.2806 C   0  0  0  0  0  0  0  0  0  0  0  0
   -3.3165    5.4659   -0.8821 H   0  0  0  0  0  0  0  0  0  0  0  0
    1.0159    1.9600   -0.6972 H   0  0  0  0  0  0  0  0  0  0  0  0
    1.8041   -0.3130   -0.3151 H   0  0  0  0  0  0  0  0  0  0  0  0
    0.2496   -2.1475    0.3109 H   0  0  0  0  0  0  0  0  0  0  0  0
   -2.1986   -1.6490    0.5519 H   0  0  0  0  0  0  0  0  0  0  0  0
   -7.1488    5.8558    1.0798 C   0  0  0  0  0  0  0  0  0  0  0  0
   -8.3705    6.5249    1.1306 C   0  0  0  0  0  0  0  0  0  0  0  0
   -9.1350    6.7279   -0.0264 C   0  0  0  0  0  0  0  0  0  0  0  0
   -8.6497    6.2333   -1.2475 C   0  0  0  0  0  0  0  0  0  0  0  0
   -7.4325    5.5630   -1.3200 C   0  0  0  0  0  0  0  0  0  0  0  0
   -6.6906    5.3860   -0.1502 C   0  0  0  0  0  0  0  0  0  0  0  0
   -6.5627    5.6862    1.9762 H   0  0  0  0  0  0  0  0  0  0  0  0
   -8.7380    6.8912    2.0848 H   0  0  0  0  0  0  0  0  0  0  0  0
   -9.2365    6.3712   -2.1518 H   0  0  0  0  0  0  0  0  0  0  0  0
   -7.0646    5.1681   -2.2603 H   0  0  0  0  0  0  0  0  0  0  0  0
   -5.1365    4.5239   -0.2279 S   0  0  0  0  0  0  0  0  0  0  0  0
   -4.7836    4.0303    1.1011 O   0  0  0  0  0  0  0  0  0  0  0  0
   -4.1793    5.8117   -0.5927 O   0  0  0  0  0  0  0  0  0  0  0  0
   -5.1206    3.6138   -1.3736 O   0  0  0  0  0  0  0  0  0  0  0  0
  -10.4469    7.4729    0.0311 C   0  0  0  0  0  0  0  0  0  0  0  0
  -11.2100    6.9834   -0.5818 H   0  0  0  0  0  0  0  0  0  0  0  0
  -10.8238    7.5428    1.0547 H   0  0  0  0  0  0  0  0  0  0  0  0
  -10.3329    8.4950   -0.3498 H   0  0  0  0  0  0  0  0  0  0  0  0
  1  2  1  0  0  0  0
  1  8  2  0  0  0  0
  2  3  1  0  0  0  0
  4  1  1  0  0  0  0
  5  4  2  0  0  0  0
  5  6  1  0  0  0  0
  6  7  2  0  0  0  0
  7  8  1  0  0  0  0
  7 12  1  0  0  0  0
  8 13  1  0  0  0  0
  9 26  1  0  0  0  0
 10  5  1  0  0  0  0
 11  6  1  0  0  0  0
 14 15  1  0  0  0  0
 14 20  1  0  0  0  0
 15 21  1  0  0  0  0
 16 28  1  0  0  0  0
 16 15  2  0  0  0  0
 17 16  1  0  0  0  0
 18 17  2  0  0  0  0
 18 19  1  0  0  0  0
 19 14  2  0  0  0  0
 22 17  1  0  0  0  0
 23 18  1  0  0  0  0
 24 19  1  0  0  0  0
 24 25  2  0  0  0  0
 26 24  1  0  0  0  0
 27 24  2  0  0  0  0
 28 30  1  0  0  0  0
 29 28  1  0  0  0  0
 31 28  1  0  0  0  0
M  RAD  3   2   2   3   3   4   2
M  END
