Coordinates from ORCA-job PhN2+~TsO-_B3LYPG-6-31G_dp-CH-Scan-d09-49-n800
 OpenBabel11261919283D

 31 31  0  0  0  0  0  0  0  0999 V2000
   -1.8654    0.4720    0.0488 C   0  0  0  0  0  0  0  0  0  0  0  0
   -3.2282    0.7423    0.1949 N   0  0  0  0  0  0  0  0  0  0  0  0
   -4.3095    1.0066    0.3029 N   0  0  0  0  0  0  0  0  0  0  0  0
   -1.1166    1.6046   -0.3045 C   0  0  0  0  0  0  0  0  0  0  0  0
    0.2543    1.2312   -0.4308 C   0  0  0  0  0  0  0  0  0  0  0  0
    0.7342   -0.0590   -0.2296 C   0  0  0  0  0  0  0  0  0  0  0  0
   -0.1282   -1.1257    0.1266 C   0  0  0  0  0  0  0  0  0  0  0  0
   -1.4739   -0.8762    0.2765 C   0  0  0  0  0  0  0  0  0  0  0  0
   -3.3124    5.4173   -0.8570 H   0  0  0  0  0  0  0  0  0  0  0  0
    0.9820    1.9978   -0.7025 H   0  0  0  0  0  0  0  0  0  0  0  0
    1.7965   -0.2700   -0.3465 H   0  0  0  0  0  0  0  0  0  0  0  0
    0.2666   -2.1249    0.2801 H   0  0  0  0  0  0  0  0  0  0  0  0
   -2.1839   -1.6529    0.5487 H   0  0  0  0  0  0  0  0  0  0  0  0
   -7.1495    5.8482    1.0835 C   0  0  0  0  0  0  0  0  0  0  0  0
   -8.3652    6.5286    1.1269 C   0  0  0  0  0  0  0  0  0  0  0  0
   -9.1238    6.7333   -0.0336 C   0  0  0  0  0  0  0  0  0  0  0  0
   -8.6390    6.2285   -1.2507 C   0  0  0  0  0  0  0  0  0  0  0  0
   -7.4276    5.5467   -1.3159 C   0  0  0  0  0  0  0  0  0  0  0  0
   -6.6914    5.3686   -0.1428 C   0  0  0  0  0  0  0  0  0  0  0  0
   -6.5680    5.6775    1.9827 H   0  0  0  0  0  0  0  0  0  0  0  0
   -8.7326    6.9026    2.0782 H   0  0  0  0  0  0  0  0  0  0  0  0
   -9.2214    6.3675   -2.1576 H   0  0  0  0  0  0  0  0  0  0  0  0
   -7.0602    5.1441   -2.2531 H   0  0  0  0  0  0  0  0  0  0  0  0
   -5.1447    4.4922   -0.2112 S   0  0  0  0  0  0  0  0  0  0  0  0
   -4.8004    4.0020    1.1214 O   0  0  0  0  0  0  0  0  0  0  0  0
   -4.1762    5.7703   -0.5791 O   0  0  0  0  0  0  0  0  0  0  0  0
   -5.1338    3.5758   -1.3518 O   0  0  0  0  0  0  0  0  0  0  0  0
  -10.4284    7.4915    0.0159 C   0  0  0  0  0  0  0  0  0  0  0  0
  -11.1903    7.0147   -0.6085 H   0  0  0  0  0  0  0  0  0  0  0  0
  -10.8151    7.5580    1.0362 H   0  0  0  0  0  0  0  0  0  0  0  0
  -10.2997    8.5153   -0.3559 H   0  0  0  0  0  0  0  0  0  0  0  0
  1  2  1  0  0  0  0
  1  8  2  0  0  0  0
  2  3  1  0  0  0  0
  4  1  1  0  0  0  0
  5  4  2  0  0  0  0
  5  6  1  0  0  0  0
  6  7  2  0  0  0  0
  7  8  1  0  0  0  0
  7 12  1  0  0  0  0
  8 13  1  0  0  0  0
  9 26  1  0  0  0  0
 10  5  1  0  0  0  0
 11  6  1  0  0  0  0
 14 15  1  0  0  0  0
 14 20  1  0  0  0  0
 15 21  1  0  0  0  0
 16 28  1  0  0  0  0
 16 15  2  0  0  0  0
 17 16  1  0  0  0  0
 18 17  2  0  0  0  0
 18 19  1  0  0  0  0
 19 14  2  0  0  0  0
 22 17  1  0  0  0  0
 23 18  1  0  0  0  0
 24 19  1  0  0  0  0
 24 25  2  0  0  0  0
 26 24  1  0  0  0  0
 27 24  2  0  0  0  0
 28 30  1  0  0  0  0
 29 28  1  0  0  0  0
 31 28  1  0  0  0  0
M  RAD  3   2   2   3   3   4   2
M  END
