Coordinates from ORCA-job PhN2+~TsO-_B3LYPG-6-31G_dp-CH-Scan-d09-49-n800
 OpenBabel11261919273D

 31 31  0  0  0  0  0  0  0  0999 V2000
   -2.3948    0.6896    0.1271 C   0  0  0  0  0  0  0  0  0  0  0  0
   -3.6996    0.3173    0.4305 N   0  0  0  0  0  0  0  0  0  0  0  0
   -4.7599    0.0636    0.6667 N   0  0  0  0  0  0  0  0  0  0  0  0
   -2.2055    2.0467   -0.1931 C   0  0  0  0  0  0  0  0  0  0  0  0
   -0.8496    2.3159   -0.4894 C   0  0  0  0  0  0  0  0  0  0  0  0
    0.1494    1.3455   -0.4601 C   0  0  0  0  0  0  0  0  0  0  0  0
   -0.1362    0.0051   -0.1238 C   0  0  0  0  0  0  0  0  0  0  0  0
   -1.4333   -0.3513    0.1797 C   0  0  0  0  0  0  0  0  0  0  0  0
   -3.4377    3.2260   -0.2294 H   0  0  0  0  0  0  0  0  0  0  0  0
   -0.5683    3.3329   -0.7562 H   0  0  0  0  0  0  0  0  0  0  0  0
    1.1747    1.6174   -0.7010 H   0  0  0  0  0  0  0  0  0  0  0  0
    0.6534   -0.7386   -0.1038 H   0  0  0  0  0  0  0  0  0  0  0  0
   -1.7072   -1.3678    0.4457 H   0  0  0  0  0  0  0  0  0  0  0  0
   -7.0293    5.3553    1.1434 C   0  0  0  0  0  0  0  0  0  0  0  0
   -7.8966    6.4437    1.0604 C   0  0  0  0  0  0  0  0  0  0  0  0
   -8.4498    6.8380   -0.1653 C   0  0  0  0  0  0  0  0  0  0  0  0
   -8.1214    6.1036   -1.3151 C   0  0  0  0  0  0  0  0  0  0  0  0
   -7.2581    5.0132   -1.2507 C   0  0  0  0  0  0  0  0  0  0  0  0
   -6.7131    4.6516   -0.0175 C   0  0  0  0  0  0  0  0  0  0  0  0
   -6.6114    5.0399    2.0928 H   0  0  0  0  0  0  0  0  0  0  0  0
   -8.1524    6.9925    1.9629 H   0  0  0  0  0  0  0  0  0  0  0  0
   -8.5535    6.3863   -2.2716 H   0  0  0  0  0  0  0  0  0  0  0  0
   -7.0171    4.4349   -2.1360 H   0  0  0  0  0  0  0  0  0  0  0  0
   -5.6015    3.2590    0.0751 S   0  0  0  0  0  0  0  0  0  0  0  0
   -5.5918    2.7493    1.4576 O   0  0  0  0  0  0  0  0  0  0  0  0
   -4.2222    3.9623   -0.2518 O   0  0  0  0  0  0  0  0  0  0  0  0
   -5.9434    2.3007   -0.9887 O   0  0  0  0  0  0  0  0  0  0  0  0
   -9.3665    8.0346   -0.2536 C   0  0  0  0  0  0  0  0  0  0  0  0
  -10.1906    7.8571   -0.9516 H   0  0  0  0  0  0  0  0  0  0  0  0
   -9.7935    8.2854    0.7209 H   0  0  0  0  0  0  0  0  0  0  0  0
   -8.8247    8.9189   -0.6117 H   0  0  0  0  0  0  0  0  0  0  0  0
  1  8  1  0  0  0  0
  1  2  1  0  0  0  0
  2  3  1  0  0  0  0
  4  1  2  0  0  0  0
  5  6  2  0  0  0  0
  5  4  1  0  0  0  0
  6  7  1  0  0  0  0
  7 12  1  0  0  0  0
  7  8  2  0  0  0  0
  8 13  1  0  0  0  0
 10  5  1  0  0  0  0
 11  6  1  0  0  0  0
 14 20  1  0  0  0  0
 15 14  1  0  0  0  0
 15 21  1  0  0  0  0
 16 15  2  0  0  0  0
 17 18  2  0  0  0  0
 17 16  1  0  0  0  0
 18 19  1  0  0  0  0
 19 24  1  0  0  0  0
 19 14  2  0  0  0  0
 22 17  1  0  0  0  0
 23 18  1  0  0  0  0
 24 25  2  0  0  0  0
 26  9  1  0  0  0  0
 26 24  1  0  0  0  0
 27 24  2  0  0  0  0
 28 16  1  0  0  0  0
 28 30  1  0  0  0  0
 29 28  1  0  0  0  0
 31 28  1  0  0  0  0
M  RAD  3   2   2   3   3   4   2
M  END
