Coordinates from ORCA-job PhN2+~TsO-_B3LYPG-6-31G_dp-CH-Scan-d09-49-n800
 OpenBabel11261919273D

 31 31  0  0  0  0  0  0  0  0999 V2000
   -2.3600    0.6706    0.1345 C   0  0  0  0  0  0  0  0  0  0  0  0
   -3.6685    0.3127    0.4399 N   0  0  0  0  0  0  0  0  0  0  0  0
   -4.7309    0.0678    0.6776 N   0  0  0  0  0  0  0  0  0  0  0  0
   -2.1650    2.0237   -0.1993 C   0  0  0  0  0  0  0  0  0  0  0  0
   -0.8041    2.2763   -0.4962 C   0  0  0  0  0  0  0  0  0  0  0  0
    0.1872    1.2989   -0.4555 C   0  0  0  0  0  0  0  0  0  0  0  0
   -0.1084   -0.0366   -0.1053 C   0  0  0  0  0  0  0  0  0  0  0  0
   -1.4081   -0.3795    0.2002 C   0  0  0  0  0  0  0  0  0  0  0  0
   -3.4695    3.3004   -0.2531 H   0  0  0  0  0  0  0  0  0  0  0  0
   -0.5116    3.2875   -0.7738 H   0  0  0  0  0  0  0  0  0  0  0  0
    1.2150    1.5601   -0.6981 H   0  0  0  0  0  0  0  0  0  0  0  0
    0.6759   -0.7857   -0.0765 H   0  0  0  0  0  0  0  0  0  0  0  0
   -1.6906   -1.3909    0.4769 H   0  0  0  0  0  0  0  0  0  0  0  0
   -7.0431    5.3664    1.1354 C   0  0  0  0  0  0  0  0  0  0  0  0
   -7.9163    6.4506    1.0622 C   0  0  0  0  0  0  0  0  0  0  0  0
   -8.4769    6.8489   -0.1589 C   0  0  0  0  0  0  0  0  0  0  0  0
   -8.1498    6.1230   -1.3146 C   0  0  0  0  0  0  0  0  0  0  0  0
   -7.2808    5.0366   -1.2604 C   0  0  0  0  0  0  0  0  0  0  0  0
   -6.7288    4.6715   -0.0314 C   0  0  0  0  0  0  0  0  0  0  0  0
   -6.6192    5.0481    2.0811 H   0  0  0  0  0  0  0  0  0  0  0  0
   -8.1709    6.9929    1.9688 H   0  0  0  0  0  0  0  0  0  0  0  0
   -8.5873    6.4091   -2.2675 H   0  0  0  0  0  0  0  0  0  0  0  0
   -7.0404    4.4650   -2.1502 H   0  0  0  0  0  0  0  0  0  0  0  0
   -5.6137    3.2821    0.0492 S   0  0  0  0  0  0  0  0  0  0  0  0
   -5.5899    2.7659    1.4272 O   0  0  0  0  0  0  0  0  0  0  0  0
   -4.2363    4.0105   -0.2781 O   0  0  0  0  0  0  0  0  0  0  0  0
   -5.9454    2.3337   -1.0240 O   0  0  0  0  0  0  0  0  0  0  0  0
   -9.4000    8.0412   -0.2363 C   0  0  0  0  0  0  0  0  0  0  0  0
  -10.2243    7.8648   -0.9343 H   0  0  0  0  0  0  0  0  0  0  0  0
   -9.8267    8.2821    0.7409 H   0  0  0  0  0  0  0  0  0  0  0  0
   -8.8632    8.9308   -0.5884 H   0  0  0  0  0  0  0  0  0  0  0  0
  1  8  1  0  0  0  0
  1  2  1  0  0  0  0
  2  3  1  0  0  0  0
  4  1  2  0  0  0  0
  5  6  2  0  0  0  0
  5  4  1  0  0  0  0
  6  7  1  0  0  0  0
  7 12  1  0  0  0  0
  7  8  2  0  0  0  0
  8 13  1  0  0  0  0
 10  5  1  0  0  0  0
 11  6  1  0  0  0  0
 14 20  1  0  0  0  0
 15 14  1  0  0  0  0
 15 21  1  0  0  0  0
 16 15  2  0  0  0  0
 17 18  2  0  0  0  0
 17 16  1  0  0  0  0
 18 19  1  0  0  0  0
 19 24  1  0  0  0  0
 19 14  2  0  0  0  0
 22 17  1  0  0  0  0
 23 18  1  0  0  0  0
 24 25  2  0  0  0  0
 26  9  1  0  0  0  0
 26 24  1  0  0  0  0
 27 24  2  0  0  0  0
 28 16  1  0  0  0  0
 28 30  1  0  0  0  0
 29 28  1  0  0  0  0
 31 28  1  0  0  0  0
M  RAD  3   2   2   3   3   4   2
M  END
