Coordinates from ORCA-job PhN2+~TsO-_B3LYPG-6-31G_dp-CH-Scan-d09-49-n800
 OpenBabel11261919283D

 31 31  0  0  0  0  0  0  0  0999 V2000
   -1.8662    0.4721    0.0500 C   0  0  0  0  0  0  0  0  0  0  0  0
   -3.2287    0.7419    0.1998 N   0  0  0  0  0  0  0  0  0  0  0  0
   -4.3103    1.0053    0.3066 N   0  0  0  0  0  0  0  0  0  0  0  0
   -1.1191    1.6048   -0.3062 C   0  0  0  0  0  0  0  0  0  0  0  0
    0.2519    1.2324   -0.4346 C   0  0  0  0  0  0  0  0  0  0  0  0
    0.7332   -0.0573   -0.2336 C   0  0  0  0  0  0  0  0  0  0  0  0
   -0.1278   -1.1244    0.1252 C   0  0  0  0  0  0  0  0  0  0  0  0
   -1.4734   -0.8757    0.2777 C   0  0  0  0  0  0  0  0  0  0  0  0
   -3.3114    5.4148   -0.8513 H   0  0  0  0  0  0  0  0  0  0  0  0
    0.9785    1.9993   -0.7086 H   0  0  0  0  0  0  0  0  0  0  0  0
    1.7954   -0.2677   -0.3527 H   0  0  0  0  0  0  0  0  0  0  0  0
    0.2681   -2.1232    0.2788 H   0  0  0  0  0  0  0  0  0  0  0  0
   -2.1822   -1.6526    0.5524 H   0  0  0  0  0  0  0  0  0  0  0  0
   -7.1505    5.8475    1.0845 C   0  0  0  0  0  0  0  0  0  0  0  0
   -8.3660    6.5285    1.1266 C   0  0  0  0  0  0  0  0  0  0  0  0
   -9.1232    6.7335   -0.0348 C   0  0  0  0  0  0  0  0  0  0  0  0
   -8.6372    6.2285   -1.2514 C   0  0  0  0  0  0  0  0  0  0  0  0
   -7.4261    5.5462   -1.3152 C   0  0  0  0  0  0  0  0  0  0  0  0
   -6.6912    5.3677   -0.1413 C   0  0  0  0  0  0  0  0  0  0  0  0
   -6.5701    5.6765    1.9843 H   0  0  0  0  0  0  0  0  0  0  0  0
   -8.7343    6.9026    2.0774 H   0  0  0  0  0  0  0  0  0  0  0  0
   -9.2186    6.3678   -2.1589 H   0  0  0  0  0  0  0  0  0  0  0  0
   -7.0578    5.1434   -2.2520 H   0  0  0  0  0  0  0  0  0  0  0  0
   -5.1449    4.4907   -0.2080 S   0  0  0  0  0  0  0  0  0  0  0  0
   -4.8022    4.0003    1.1250 O   0  0  0  0  0  0  0  0  0  0  0  0
   -4.1753    5.7683   -0.5748 O   0  0  0  0  0  0  0  0  0  0  0  0
   -5.1332    3.5743   -1.3486 O   0  0  0  0  0  0  0  0  0  0  0  0
  -10.4274    7.4923    0.0132 C   0  0  0  0  0  0  0  0  0  0  0  0
  -11.1887    7.0164   -0.6125 H   0  0  0  0  0  0  0  0  0  0  0  0
  -10.8155    7.5585    1.0330 H   0  0  0  0  0  0  0  0  0  0  0  0
  -10.2976    8.5163   -0.3578 H   0  0  0  0  0  0  0  0  0  0  0  0
  1  2  1  0  0  0  0
  1  8  2  0  0  0  0
  2  3  1  0  0  0  0
  4  1  1  0  0  0  0
  5  4  2  0  0  0  0
  5  6  1  0  0  0  0
  6  7  2  0  0  0  0
  7  8  1  0  0  0  0
  7 12  1  0  0  0  0
  8 13  1  0  0  0  0
  9 26  1  0  0  0  0
 10  5  1  0  0  0  0
 11  6  1  0  0  0  0
 14 15  1  0  0  0  0
 14 20  1  0  0  0  0
 15 21  1  0  0  0  0
 16 28  1  0  0  0  0
 16 15  2  0  0  0  0
 17 16  1  0  0  0  0
 18 17  2  0  0  0  0
 18 19  1  0  0  0  0
 19 14  2  0  0  0  0
 22 17  1  0  0  0  0
 23 18  1  0  0  0  0
 24 19  1  0  0  0  0
 24 25  2  0  0  0  0
 26 24  1  0  0  0  0
 27 24  2  0  0  0  0
 28 30  1  0  0  0  0
 29 28  1  0  0  0  0
 31 28  1  0  0  0  0
M  RAD  3   2   2   3   3   4   2
M  END
