Coordinates from ORCA-job PhN2+~TsO-_B3LYPG-6-31G_dp-CH-Scan-d09-49-n800
 OpenBabel11261919273D

 31 31  0  0  0  0  0  0  0  0999 V2000
   -1.9868    0.4945    0.0973 C   0  0  0  0  0  0  0  0  0  0  0  0
   -3.3605    0.5588    0.3356 N   0  0  0  0  0  0  0  0  0  0  0  0
   -4.4598    0.6569    0.5124 N   0  0  0  0  0  0  0  0  0  0  0  0
   -1.4263    1.7298   -0.2638 C   0  0  0  0  0  0  0  0  0  0  0  0
   -0.0300    1.5603   -0.4917 C   0  0  0  0  0  0  0  0  0  0  0  0
    0.6390    0.3466   -0.3679 C   0  0  0  0  0  0  0  0  0  0  0  0
   -0.0385   -0.8396    0.0073 C   0  0  0  0  0  0  0  0  0  0  0  0
   -1.3925   -0.7877    0.2523 C   0  0  0  0  0  0  0  0  0  0  0  0
   -3.3262    4.7614   -0.5395 H   0  0  0  0  0  0  0  0  0  0  0  0
    0.5617    2.4292   -0.7839 H   0  0  0  0  0  0  0  0  0  0  0  0
    1.7092    0.2923   -0.5623 H   0  0  0  0  0  0  0  0  0  0  0  0
    0.5019   -1.7763    0.1008 H   0  0  0  0  0  0  0  0  0  0  0  0
   -1.9653   -1.6640    0.5440 H   0  0  0  0  0  0  0  0  0  0  0  0
   -7.1558    5.7318    1.1125 C   0  0  0  0  0  0  0  0  0  0  0  0
   -8.2732    6.5643    1.0941 C   0  0  0  0  0  0  0  0  0  0  0  0
   -8.9699    6.8171   -0.0958 C   0  0  0  0  0  0  0  0  0  0  0  0
   -8.5263    6.2026   -1.2773 C   0  0  0  0  0  0  0  0  0  0  0  0
   -7.4127    5.3676   -1.2803 C   0  0  0  0  0  0  0  0  0  0  0  0
   -6.7341    5.1459   -0.0806 C   0  0  0  0  0  0  0  0  0  0  0  0
   -6.6234    5.5253    2.0343 H   0  0  0  0  0  0  0  0  0  0  0  0
   -8.6121    7.0216    2.0192 H   0  0  0  0  0  0  0  0  0  0  0  0
   -9.0636    6.3775   -2.2056 H   0  0  0  0  0  0  0  0  0  0  0  0
   -7.0775    4.8818   -2.1899 H   0  0  0  0  0  0  0  0  0  0  0  0
   -5.3108    4.0780   -0.0707 S   0  0  0  0  0  0  0  0  0  0  0  0
   -5.0776    3.5804    1.2848 O   0  0  0  0  0  0  0  0  0  0  0  0
   -4.1815    5.2137   -0.4247 O   0  0  0  0  0  0  0  0  0  0  0  0
   -5.3897    3.1326   -1.1844 O   0  0  0  0  0  0  0  0  0  0  0  0
  -10.1609    7.7444   -0.1141 C   0  0  0  0  0  0  0  0  0  0  0  0
  -10.9391    7.3820   -0.7926 H   0  0  0  0  0  0  0  0  0  0  0  0
  -10.5987    7.8550    0.8814 H   0  0  0  0  0  0  0  0  0  0  0  0
   -9.8709    8.7446   -0.4588 H   0  0  0  0  0  0  0  0  0  0  0  0
  1  8  1  0  0  0  0
  1  2  1  0  0  0  0
  2  3  1  0  0  0  0
  4  1  2  0  0  0  0
  5  6  2  0  0  0  0
  5  4  1  0  0  0  0
  6  7  1  0  0  0  0
  7 12  1  0  0  0  0
  7  8  2  0  0  0  0
  8 13  1  0  0  0  0
  9 26  1  0  0  0  0
 10  5  1  0  0  0  0
 11  6  1  0  0  0  0
 14 20  1  0  0  0  0
 15 14  1  0  0  0  0
 15 21  1  0  0  0  0
 16 15  2  0  0  0  0
 17 16  1  0  0  0  0
 18 17  2  0  0  0  0
 18 19  1  0  0  0  0
 19 24  1  0  0  0  0
 19 14  2  0  0  0  0
 22 17  1  0  0  0  0
 23 18  1  0  0  0  0
 24 25  2  0  0  0  0
 26 24  1  0  0  0  0
 27 24  2  0  0  0  0
 28 16  1  0  0  0  0
 28 30  1  0  0  0  0
 29 28  1  0  0  0  0
 31 28  1  0  0  0  0
M  RAD  3   2   2   3   3   4   2
M  END
