Coordinates from ORCA-job PhN2+~TsO-_B3LYPG-6-31G_dp-CH-Scan-d09-49-n800
 OpenBabel11261919283D

 31 31  0  0  0  0  0  0  0  0999 V2000
   -2.2091    0.4557   -0.7959 C   0  0  0  0  0  0  0  0  0  0  0  0
   -3.4150    0.0690   -1.3893 N   0  0  0  0  0  0  0  0  0  0  0  0
   -4.3315   -0.2839   -1.9232 N   0  0  0  0  0  0  0  0  0  0  0  0
   -1.1009   -0.0866   -1.4617 C   0  0  0  0  0  0  0  0  0  0  0  0
    0.0900    0.3653   -0.8168 C   0  0  0  0  0  0  0  0  0  0  0  0
    0.1052    1.2085    0.2890 C   0  0  0  0  0  0  0  0  0  0  0  0
   -1.0939    1.6800    0.8826 C   0  0  0  0  0  0  0  0  0  0  0  0
   -2.3048    1.3029    0.3421 C   0  0  0  0  0  0  0  0  0  0  0  0
   -3.0817    4.1685   -0.0544 H   0  0  0  0  0  0  0  0  0  0  0  0
    1.0536    0.0353   -1.2075 H   0  0  0  0  0  0  0  0  0  0  0  0
    1.0539    1.5166    0.7257 H   0  0  0  0  0  0  0  0  0  0  0  0
   -1.0572    2.3142    1.7633 H   0  0  0  0  0  0  0  0  0  0  0  0
   -3.2612    1.6130    0.7512 H   0  0  0  0  0  0  0  0  0  0  0  0
   -7.2740    4.4324    0.6909 C   0  0  0  0  0  0  0  0  0  0  0  0
   -8.3680    5.2128    1.0525 C   0  0  0  0  0  0  0  0  0  0  0  0
   -8.6678    6.4036    0.3726 C   0  0  0  0  0  0  0  0  0  0  0  0
   -7.8376    6.7996   -0.6855 C   0  0  0  0  0  0  0  0  0  0  0  0
   -6.7355    6.0353   -1.0623 C   0  0  0  0  0  0  0  0  0  0  0  0
   -6.4649    4.8586   -0.3640 C   0  0  0  0  0  0  0  0  0  0  0  0
   -7.0518    3.5053    1.2072 H   0  0  0  0  0  0  0  0  0  0  0  0
   -9.0025    4.8916    1.8743 H   0  0  0  0  0  0  0  0  0  0  0  0
   -8.0569    7.7172   -1.2239 H   0  0  0  0  0  0  0  0  0  0  0  0
   -6.0992    6.3354   -1.8878 H   0  0  0  0  0  0  0  0  0  0  0  0
   -5.0644    3.8759   -0.8399 S   0  0  0  0  0  0  0  0  0  0  0  0
   -5.2880    2.4802   -0.4503 O   0  0  0  0  0  0  0  0  0  0  0  0
   -3.9560    4.5218    0.1925 O   0  0  0  0  0  0  0  0  0  0  0  0
   -4.6555    4.1914   -2.2062 O   0  0  0  0  0  0  0  0  0  0  0  0
   -9.8771    7.2208    0.7560 C   0  0  0  0  0  0  0  0  0  0  0  0
  -10.7876    6.7981    0.3144 H   0  0  0  0  0  0  0  0  0  0  0  0
  -10.0209    7.2371    1.8405 H   0  0  0  0  0  0  0  0  0  0  0  0
   -9.7916    8.2529    0.4063 H   0  0  0  0  0  0  0  0  0  0  0  0
  1  8  2  0  0  0  0
  2  1  1  0  0  0  0
  3  2  1  0  0  0  0
  4  5  2  0  0  0  0
  4  1  1  0  0  0  0
  5  6  1  0  0  0  0
  6 11  1  0  0  0  0
  6  7  2  0  0  0  0
  7 12  1  0  0  0  0
  8 13  1  0  0  0  0
  8  7  1  0  0  0  0
  9 26  1  0  0  0  0
 10  5  1  0  0  0  0
 14 15  1  0  0  0  0
 14 20  1  0  0  0  0
 15 21  1  0  0  0  0
 16 28  1  0  0  0  0
 16 15  2  0  0  0  0
 17 16  1  0  0  0  0
 18 17  2  0  0  0  0
 18 19  1  0  0  0  0
 19 14  2  0  0  0  0
 22 17  1  0  0  0  0
 23 18  1  0  0  0  0
 24 25  2  0  0  0  0
 24 19  1  0  0  0  0
 24 26  1  0  0  0  0
 27 24  2  0  0  0  0
 28 30  1  0  0  0  0
 29 28  1  0  0  0  0
 31 28  1  0  0  0  0
M  RAD  3   2   2   3   3   4   2
M  END
