Coordinates from ORCA-job PhN2+~TsO-_B3LYPG-6-31G_dp-CH-Scan-d09-49-n800
 OpenBabel11261919273D

 31 31  0  0  0  0  0  0  0  0999 V2000
   -1.9860    0.4943    0.0966 C   0  0  0  0  0  0  0  0  0  0  0  0
   -3.3602    0.5592    0.3321 N   0  0  0  0  0  0  0  0  0  0  0  0
   -4.4591    0.6586    0.5111 N   0  0  0  0  0  0  0  0  0  0  0  0
   -1.4237    1.7296   -0.2616 C   0  0  0  0  0  0  0  0  0  0  0  0
   -0.0274    1.5590   -0.4881 C   0  0  0  0  0  0  0  0  0  0  0  0
    0.6403    0.3446   -0.3647 C   0  0  0  0  0  0  0  0  0  0  0  0
   -0.0388   -0.8414    0.0080 C   0  0  0  0  0  0  0  0  0  0  0  0
   -1.3931   -0.7885    0.2511 C   0  0  0  0  0  0  0  0  0  0  0  0
   -3.3267    4.7645   -0.5453 H   0  0  0  0  0  0  0  0  0  0  0  0
    0.5655    2.4278   -0.7784 H   0  0  0  0  0  0  0  0  0  0  0  0
    1.7108    0.2895   -0.5577 H   0  0  0  0  0  0  0  0  0  0  0  0
    0.5006   -1.7788    0.1010 H   0  0  0  0  0  0  0  0  0  0  0  0
   -1.9672   -1.6648    0.5407 H   0  0  0  0  0  0  0  0  0  0  0  0
   -7.1548    5.7331    1.1116 C   0  0  0  0  0  0  0  0  0  0  0  0
   -8.2726    6.5649    1.0942 C   0  0  0  0  0  0  0  0  0  0  0  0
   -8.9709    6.8169   -0.0950 C   0  0  0  0  0  0  0  0  0  0  0  0
   -8.5283    6.2022   -1.2767 C   0  0  0  0  0  0  0  0  0  0  0  0
   -7.4142    5.3678   -1.2807 C   0  0  0  0  0  0  0  0  0  0  0  0
   -6.7341    5.1470   -0.0817 C   0  0  0  0  0  0  0  0  0  0  0  0
   -6.6212    5.5272    2.0328 H   0  0  0  0  0  0  0  0  0  0  0  0
   -8.6107    7.0224    2.0196 H   0  0  0  0  0  0  0  0  0  0  0  0
   -9.0668    6.3765   -2.2044 H   0  0  0  0  0  0  0  0  0  0  0  0
   -7.0799    4.8820   -2.1905 H   0  0  0  0  0  0  0  0  0  0  0  0
   -5.3102    4.0799   -0.0731 S   0  0  0  0  0  0  0  0  0  0  0  0
   -5.0751    3.5829    1.2822 O   0  0  0  0  0  0  0  0  0  0  0  0
   -4.1821    5.2162   -0.4290 O   0  0  0  0  0  0  0  0  0  0  0  0
   -5.3898    3.1340   -1.1864 O   0  0  0  0  0  0  0  0  0  0  0  0
  -10.1624    7.7435   -0.1122 C   0  0  0  0  0  0  0  0  0  0  0  0
  -10.9413    7.3803   -0.7895 H   0  0  0  0  0  0  0  0  0  0  0  0
  -10.5990    7.8544    0.8839 H   0  0  0  0  0  0  0  0  0  0  0  0
   -9.8734    8.7437   -0.4578 H   0  0  0  0  0  0  0  0  0  0  0  0
  1  8  1  0  0  0  0
  1  2  1  0  0  0  0
  2  3  1  0  0  0  0
  4  1  2  0  0  0  0
  5  6  2  0  0  0  0
  5  4  1  0  0  0  0
  6  7  1  0  0  0  0
  7 12  1  0  0  0  0
  7  8  2  0  0  0  0
  8 13  1  0  0  0  0
  9 26  1  0  0  0  0
 10  5  1  0  0  0  0
 11  6  1  0  0  0  0
 14 20  1  0  0  0  0
 15 14  1  0  0  0  0
 15 21  1  0  0  0  0
 16 15  2  0  0  0  0
 17 16  1  0  0  0  0
 18 17  2  0  0  0  0
 18 19  1  0  0  0  0
 19 24  1  0  0  0  0
 19 14  2  0  0  0  0
 22 17  1  0  0  0  0
 23 18  1  0  0  0  0
 24 25  2  0  0  0  0
 26 24  1  0  0  0  0
 27 24  2  0  0  0  0
 28 16  1  0  0  0  0
 28 30  1  0  0  0  0
 29 28  1  0  0  0  0
 31 28  1  0  0  0  0
M  RAD  3   2   2   3   3   4   2
M  END
