Coordinates from ORCA-job PhN2+~TsO-_B3LYPG-6-31G_dp-CH-Scan-d09-49-n800
 OpenBabel11261919273D

 31 31  0  0  0  0  0  0  0  0999 V2000
   -2.2693    0.6241    0.1220 C   0  0  0  0  0  0  0  0  0  0  0  0
   -3.5997    0.3325    0.4054 N   0  0  0  0  0  0  0  0  0  0  0  0
   -4.6768    0.1379    0.6252 N   0  0  0  0  0  0  0  0  0  0  0  0
   -2.0153    1.9658   -0.2164 C   0  0  0  0  0  0  0  0  0  0  0  0
   -0.6357    2.1503   -0.4904 C   0  0  0  0  0  0  0  0  0  0  0  0
    0.3090    1.1295   -0.4257 C   0  0  0  0  0  0  0  0  0  0  0  0
   -0.0522   -0.1903   -0.0719 C   0  0  0  0  0  0  0  0  0  0  0  0
   -1.3706   -0.4716    0.2128 C   0  0  0  0  0  0  0  0  0  0  0  0
   -3.4900    3.5434   -0.3113 H   0  0  0  0  0  0  0  0  0  0  0  0
   -0.2877    3.1438   -0.7699 H   0  0  0  0  0  0  0  0  0  0  0  0
    1.3521    1.3415   -0.6520 H   0  0  0  0  0  0  0  0  0  0  0  0
    0.6974   -0.9734   -0.0249 H   0  0  0  0  0  0  0  0  0  0  0  0
   -1.7042   -1.4672    0.4909 H   0  0  0  0  0  0  0  0  0  0  0  0
   -7.0729    5.4348    1.1269 C   0  0  0  0  0  0  0  0  0  0  0  0
   -7.9814    6.4900    1.0667 C   0  0  0  0  0  0  0  0  0  0  0  0
   -8.5757    6.8671   -0.1454 C   0  0  0  0  0  0  0  0  0  0  0  0
   -8.2463    6.1496   -1.3056 C   0  0  0  0  0  0  0  0  0  0  0  0
   -7.3421    5.0916   -1.2653 C   0  0  0  0  0  0  0  0  0  0  0  0
   -6.7578    4.7484   -0.0450 C   0  0  0  0  0  0  0  0  0  0  0  0
   -6.6220    5.1333    2.0655 H   0  0  0  0  0  0  0  0  0  0  0  0
   -8.2371    7.0263    1.9766 H   0  0  0  0  0  0  0  0  0  0  0  0
   -8.7089    6.4198   -2.2511 H   0  0  0  0  0  0  0  0  0  0  0  0
   -7.0985    4.5267   -2.1584 H   0  0  0  0  0  0  0  0  0  0  0  0
   -5.6010    3.3945    0.0197 S   0  0  0  0  0  0  0  0  0  0  0  0
   -5.5285    2.8831    1.3943 O   0  0  0  0  0  0  0  0  0  0  0  0
   -4.2502    4.1993   -0.3273 O   0  0  0  0  0  0  0  0  0  0  0  0
   -5.8988    2.4454   -1.0588 O   0  0  0  0  0  0  0  0  0  0  0  0
   -9.5362    8.0300   -0.2082 C   0  0  0  0  0  0  0  0  0  0  0  0
  -10.3559    7.8353   -0.9066 H   0  0  0  0  0  0  0  0  0  0  0  0
   -9.9677    8.2474    0.7723 H   0  0  0  0  0  0  0  0  0  0  0  0
   -9.0279    8.9395   -0.5518 H   0  0  0  0  0  0  0  0  0  0  0  0
  1  8  1  0  0  0  0
  1  2  1  0  0  0  0
  2  3  1  0  0  0  0
  4  1  2  0  0  0  0
  5  6  2  0  0  0  0
  5  4  1  0  0  0  0
  6  7  1  0  0  0  0
  7 12  1  0  0  0  0
  7  8  2  0  0  0  0
  8 13  1  0  0  0  0
 10  5  1  0  0  0  0
 11  6  1  0  0  0  0
 14 20  1  0  0  0  0
 15 14  1  0  0  0  0
 15 21  1  0  0  0  0
 16 15  2  0  0  0  0
 17 18  2  0  0  0  0
 17 16  1  0  0  0  0
 18 19  1  0  0  0  0
 19 24  1  0  0  0  0
 19 14  2  0  0  0  0
 22 17  1  0  0  0  0
 23 18  1  0  0  0  0
 24 25  2  0  0  0  0
 26  9  1  0  0  0  0
 26 24  1  0  0  0  0
 27 24  2  0  0  0  0
 28 16  1  0  0  0  0
 28 30  1  0  0  0  0
 29 28  1  0  0  0  0
 31 28  1  0  0  0  0
M  RAD  3   2   2   3   3   4   2
M  END
