Coordinates from ORCA-job PhN2+~TsO-_B3LYPG-6-31G_dp-CH-Scan-d09-49-n800
 OpenBabel11261919273D

 31 31  0  0  0  0  0  0  0  0999 V2000
   -2.0740    0.5250    0.0895 C   0  0  0  0  0  0  0  0  0  0  0  0
   -3.4463    0.4391    0.3178 N   0  0  0  0  0  0  0  0  0  0  0  0
   -4.5498    0.4122    0.4909 N   0  0  0  0  0  0  0  0  0  0  0  0
   -1.6337    1.8137   -0.2551 C   0  0  0  0  0  0  0  0  0  0  0  0
   -0.2275    1.7938   -0.4709 C   0  0  0  0  0  0  0  0  0  0  0  0
    0.5617    0.6537   -0.3512 C   0  0  0  0  0  0  0  0  0  0  0  0
    0.0060   -0.5986    0.0054 C   0  0  0  0  0  0  0  0  0  0  0  0
   -1.3487   -0.6886    0.2369 C   0  0  0  0  0  0  0  0  0  0  0  0
   -3.4100    4.2499   -0.4705 H   0  0  0  0  0  0  0  0  0  0  0  0
    0.2723    2.7223   -0.7490 H   0  0  0  0  0  0  0  0  0  0  0  0
    1.6334    0.7124   -0.5346 H   0  0  0  0  0  0  0  0  0  0  0  0
    0.6378   -1.4764    0.0954 H   0  0  0  0  0  0  0  0  0  0  0  0
   -1.8302   -1.6224    0.5142 H   0  0  0  0  0  0  0  0  0  0  0  0
   -7.1218    5.6294    1.1052 C   0  0  0  0  0  0  0  0  0  0  0  0
   -8.1518    6.5673    1.0815 C   0  0  0  0  0  0  0  0  0  0  0  0
   -8.8332    6.8664   -0.1069 C   0  0  0  0  0  0  0  0  0  0  0  0
   -8.4652    6.1903   -1.2803 C   0  0  0  0  0  0  0  0  0  0  0  0
   -7.4393    5.2491   -1.2774 C   0  0  0  0  0  0  0  0  0  0  0  0
   -6.7726    4.9831   -0.0803 C   0  0  0  0  0  0  0  0  0  0  0  0
   -6.6023    5.3876    2.0257 H   0  0  0  0  0  0  0  0  0  0  0  0
   -8.4346    7.0718    2.0011 H   0  0  0  0  0  0  0  0  0  0  0  0
   -8.9928    6.4006   -2.2068 H   0  0  0  0  0  0  0  0  0  0  0  0
   -7.1634    4.7161   -2.1804 H   0  0  0  0  0  0  0  0  0  0  0  0
   -5.4612    3.7793   -0.0622 S   0  0  0  0  0  0  0  0  0  0  0  0
   -5.2741    3.2755    1.2997 O   0  0  0  0  0  0  0  0  0  0  0  0
   -4.2284    4.7835   -0.4348 O   0  0  0  0  0  0  0  0  0  0  0  0
   -5.6497    2.8268   -1.1576 O   0  0  0  0  0  0  0  0  0  0  0  0
   -9.9263    7.9070   -0.1307 C   0  0  0  0  0  0  0  0  0  0  0  0
  -10.7261    7.6313   -0.8244 H   0  0  0  0  0  0  0  0  0  0  0  0
  -10.3663    8.0498    0.8599 H   0  0  0  0  0  0  0  0  0  0  0  0
   -9.5337    8.8776   -0.4580 H   0  0  0  0  0  0  0  0  0  0  0  0
  1  8  1  0  0  0  0
  1  2  1  0  0  0  0
  2  3  1  0  0  0  0
  4  1  2  0  0  0  0
  5  6  2  0  0  0  0
  5  4  1  0  0  0  0
  6  7  1  0  0  0  0
  7 12  1  0  0  0  0
  7  8  2  0  0  0  0
  8 13  1  0  0  0  0
  9 26  1  0  0  0  0
 10  5  1  0  0  0  0
 11  6  1  0  0  0  0
 14 20  1  0  0  0  0
 15 14  1  0  0  0  0
 15 21  1  0  0  0  0
 16 15  2  0  0  0  0
 17 18  2  0  0  0  0
 17 16  1  0  0  0  0
 18 19  1  0  0  0  0
 19 24  1  0  0  0  0
 19 14  2  0  0  0  0
 22 17  1  0  0  0  0
 23 18  1  0  0  0  0
 24 25  2  0  0  0  0
 26 24  1  0  0  0  0
 27 24  2  0  0  0  0
 28 16  1  0  0  0  0
 28 30  1  0  0  0  0
 29 28  1  0  0  0  0
 31 28  1  0  0  0  0
M  RAD  3   2   2   3   3   4   2
M  END
