Coordinates from ORCA-job PhN2+~TsO-_B3LYPG-6-31G_dp-CH-Scan-d09-49-n800
 OpenBabel11261919273D

 31 31  0  0  0  0  0  0  0  0999 V2000
   -2.2301    0.6041    0.1148 C   0  0  0  0  0  0  0  0  0  0  0  0
   -3.5697    0.3473    0.3900 N   0  0  0  0  0  0  0  0  0  0  0  0
   -4.6530    0.1804    0.6030 N   0  0  0  0  0  0  0  0  0  0  0  0
   -1.9442    1.9395   -0.2217 C   0  0  0  0  0  0  0  0  0  0  0  0
   -0.5579    2.0898   -0.4869 C   0  0  0  0  0  0  0  0  0  0  0  0
    0.3614    1.0467   -0.4161 C   0  0  0  0  0  0  0  0  0  0  0  0
   -0.0334   -0.2646   -0.0646 C   0  0  0  0  0  0  0  0  0  0  0  0
   -1.3598   -0.5142    0.2118 C   0  0  0  0  0  0  0  0  0  0  0  0
   -3.4839    3.6605   -0.3294 H   0  0  0  0  0  0  0  0  0  0  0  0
   -0.1831    3.0743   -0.7645 H   0  0  0  0  0  0  0  0  0  0  0  0
    1.4110    1.2332   -0.6355 H   0  0  0  0  0  0  0  0  0  0  0  0
    0.6970   -1.0653   -0.0130 H   0  0  0  0  0  0  0  0  0  0  0  0
   -1.7192   -1.5015    0.4877 H   0  0  0  0  0  0  0  0  0  0  0  0
   -7.0879    5.4698    1.1261 C   0  0  0  0  0  0  0  0  0  0  0  0
   -8.0157    6.5080    1.0688 C   0  0  0  0  0  0  0  0  0  0  0  0
   -8.6231    6.8721   -0.1410 C   0  0  0  0  0  0  0  0  0  0  0  0
   -8.2868    6.1586   -1.3017 C   0  0  0  0  0  0  0  0  0  0  0  0
   -7.3632    5.1174   -1.2646 C   0  0  0  0  0  0  0  0  0  0  0  0
   -6.7667    4.7874   -0.0466 C   0  0  0  0  0  0  0  0  0  0  0  0
   -6.6265    5.1784    2.0629 H   0  0  0  0  0  0  0  0  0  0  0  0
   -8.2763    7.0412    1.9790 H   0  0  0  0  0  0  0  0  0  0  0  0
   -8.7591    6.4188   -2.2452 H   0  0  0  0  0  0  0  0  0  0  0  0
   -7.1137    4.5557   -2.1581 H   0  0  0  0  0  0  0  0  0  0  0  0
   -5.5851    3.4553    0.0143 S   0  0  0  0  0  0  0  0  0  0  0  0
   -5.4947    2.9464    1.3876 O   0  0  0  0  0  0  0  0  0  0  0  0
   -4.2502    4.2954   -0.3373 O   0  0  0  0  0  0  0  0  0  0  0  0
   -5.8626    2.5041   -1.0666 O   0  0  0  0  0  0  0  0  0  0  0  0
   -9.6042    8.0177   -0.2006 C   0  0  0  0  0  0  0  0  0  0  0  0
  -10.4186    7.8116   -0.9017 H   0  0  0  0  0  0  0  0  0  0  0  0
  -10.0415    8.2229    0.7800 H   0  0  0  0  0  0  0  0  0  0  0  0
   -9.1112    8.9376   -0.5388 H   0  0  0  0  0  0  0  0  0  0  0  0
  1  8  1  0  0  0  0
  1  2  1  0  0  0  0
  2  3  1  0  0  0  0
  4  1  2  0  0  0  0
  5  6  2  0  0  0  0
  5  4  1  0  0  0  0
  6  7  1  0  0  0  0
  7 12  1  0  0  0  0
  7  8  2  0  0  0  0
  8 13  1  0  0  0  0
 10  5  1  0  0  0  0
 11  6  1  0  0  0  0
 14 20  1  0  0  0  0
 15 14  1  0  0  0  0
 15 21  1  0  0  0  0
 16 15  2  0  0  0  0
 17 18  2  0  0  0  0
 17 16  1  0  0  0  0
 18 19  1  0  0  0  0
 19 24  1  0  0  0  0
 19 14  2  0  0  0  0
 22 17  1  0  0  0  0
 23 18  1  0  0  0  0
 24 25  2  0  0  0  0
 26  9  1  0  0  0  0
 26 24  1  0  0  0  0
 27 24  2  0  0  0  0
 28 16  1  0  0  0  0
 28 30  1  0  0  0  0
 29 28  1  0  0  0  0
 31 28  1  0  0  0  0
M  RAD  3   2   2   3   3   4   2
M  END
