Coordinates from ORCA-job PhN2+~TsO-_B3LYPG-6-31G_dp-CH-Scan-d09-49-n800
 OpenBabel11261919273D

 31 31  0  0  0  0  0  0  0  0999 V2000
   -2.7250    0.8178    0.0090 C   0  0  0  0  0  0  0  0  0  0  0  0
   -4.0916    0.8489    0.3226 N   0  0  0  0  0  0  0  0  0  0  0  0
   -5.0939    1.4054    0.2753 N   0  0  0  0  0  0  0  0  0  0  0  0
   -2.1255    1.8752   -0.6965 C   0  0  0  0  0  0  0  0  0  0  0  0
   -0.7622    1.7695   -0.9602 C   0  0  0  0  0  0  0  0  0  0  0  0
   -0.0317    0.6541   -0.5392 C   0  0  0  0  0  0  0  0  0  0  0  0
   -0.6540   -0.3843    0.1615 C   0  0  0  0  0  0  0  0  0  0  0  0
   -2.0131   -0.3081    0.4429 C   0  0  0  0  0  0  0  0  0  0  0  0
   -2.6454    2.6378   -0.9786 H   0  0  0  0  0  0  0  0  0  0  0  0
   -0.2699    2.5736   -1.4979 H   0  0  0  0  0  0  0  0  0  0  0  0
    1.0302    0.5936   -0.7575 H   0  0  0  0  0  0  0  0  0  0  0  0
   -0.0822   -1.2465    0.4879 H   0  0  0  0  0  0  0  0  0  0  0  0
   -2.5278   -1.0926    0.9868 H   0  0  0  0  0  0  0  0  0  0  0  0
   -7.2058    4.9374    1.0163 C   0  0  0  0  0  0  0  0  0  0  0  0
   -8.4128    5.6291    0.9338 C   0  0  0  0  0  0  0  0  0  0  0  0
   -8.6365    6.5797   -0.0729 C   0  0  0  0  0  0  0  0  0  0  0  0
   -7.6081    6.8303   -0.9919 C   0  0  0  0  0  0  0  0  0  0  0  0
   -6.3948    6.1475   -0.9218 C   0  0  0  0  0  0  0  0  0  0  0  0
   -6.2027    5.1977    0.0818 C   0  0  0  0  0  0  0  0  0  0  0  0
   -7.0264    4.2164    1.8066 H   0  0  0  0  0  0  0  0  0  0  0  0
   -9.1917    5.4327    1.6670 H   0  0  0  0  0  0  0  0  0  0  0  0
   -7.7570    7.5757   -1.7695 H   0  0  0  0  0  0  0  0  0  0  0  0
   -5.5930    6.3573   -1.6215 H   0  0  0  0  0  0  0  0  0  0  0  0
   -4.6597    4.2873    0.1565 S   0  0  0  0  0  0  0  0  0  0  0  0
   -4.4802    3.8212    1.5457 O   0  0  0  0  0  0  0  0  0  0  0  0
   -3.6148    5.1429   -0.4320 O   0  0  0  0  0  0  0  0  0  0  0  0
   -4.8839    3.0639   -0.7852 O   0  0  0  0  0  0  0  0  0  0  0  0
   -9.9594    7.3023   -0.1725 C   0  0  0  0  0  0  0  0  0  0  0  0
  -10.6954    6.7033   -0.7237 H   0  0  0  0  0  0  0  0  0  0  0  0
  -10.3810    7.5033    0.8169 H   0  0  0  0  0  0  0  0  0  0  0  0
   -9.8565    8.2563   -0.6976 H   0  0  0  0  0  0  0  0  0  0  0  0
  1  2  1  0  0  0  0
  1  8  2  0  0  0  0
  3  2  2  0  0  0  0
  4  1  1  0  0  0  0
  5  4  2  0  0  0  0
  5  6  1  0  0  0  0
  6  7  2  0  0  0  0
  7  8  1  0  0  0  0
  7 12  1  0  0  0  0
  8 13  1  0  0  0  0
  9  4  1  0  0  0  0
 10  5  1  0  0  0  0
 11  6  1  0  0  0  0
 14 20  1  0  0  0  0
 15 14  1  0  0  0  0
 15 21  1  0  0  0  0
 16 15  2  0  0  0  0
 17 18  2  0  0  0  0
 17 16  1  0  0  0  0
 18 19  1  0  0  0  0
 19 24  1  0  0  0  0
 19 14  2  0  0  0  0
 22 17  1  0  0  0  0
 23 18  1  0  0  0  0
 24 25  1  0  0  0  0
 26 24  2  0  0  0  0
 27 24  2  0  0  0  0
 28 16  1  0  0  0  0
 28 30  1  0  0  0  0
 29 28  1  0  0  0  0
 31 28  1  0  0  0  0
M  RAD  2   3   2  25   2
M  END
