Coordinates from ORCA-job PhN2+~TsO-_B3LYPG-6-31G_dp-CH-Scan-d09-49-n800
 OpenBabel11261919283D

 31 31  0  0  0  0  0  0  0  0999 V2000
   -1.9023    0.4774    0.0789 C   0  0  0  0  0  0  0  0  0  0  0  0
   -3.2694    0.6877    0.2746 N   0  0  0  0  0  0  0  0  0  0  0  0
   -4.3563    0.9050    0.4218 N   0  0  0  0  0  0  0  0  0  0  0  0
   -1.2121    1.6460   -0.2765 C   0  0  0  0  0  0  0  0  0  0  0  0
    0.1673    1.3321   -0.4567 C   0  0  0  0  0  0  0  0  0  0  0  0
    0.7058    0.0590   -0.2985 C   0  0  0  0  0  0  0  0  0  0  0  0
   -0.0999   -1.0484    0.0658 C   0  0  0  0  0  0  0  0  0  0  0  0
   -1.4485   -0.8571    0.2664 C   0  0  0  0  0  0  0  0  0  0  0  0
   -3.3034    5.2283   -0.7421 H   0  0  0  0  0  0  0  0  0  0  0  0
    0.8536    2.1328   -0.7377 H   0  0  0  0  0  0  0  0  0  0  0  0
    1.7708   -0.1061   -0.4567 H   0  0  0  0  0  0  0  0  0  0  0  0
    0.3400   -2.0334    0.1856 H   0  0  0  0  0  0  0  0  0  0  0  0
   -2.1165   -1.6671    0.5476 H   0  0  0  0  0  0  0  0  0  0  0  0
   -7.1583    5.8176    1.0977 C   0  0  0  0  0  0  0  0  0  0  0  0
   -8.3483    6.5430    1.1139 C   0  0  0  0  0  0  0  0  0  0  0  0
   -9.0825    6.7587   -0.0604 C   0  0  0  0  0  0  0  0  0  0  0  0
   -8.6005    6.2175   -1.2628 C   0  0  0  0  0  0  0  0  0  0  0  0
   -7.4147    5.4901   -1.3006 C   0  0  0  0  0  0  0  0  0  0  0  0
   -6.7015    5.3029   -0.1149 C   0  0  0  0  0  0  0  0  0  0  0  0
   -6.5959    5.6391    2.0074 H   0  0  0  0  0  0  0  0  0  0  0  0
   -8.7146    6.9444    2.0544 H   0  0  0  0  0  0  0  0  0  0  0  0
   -9.1649    6.3643   -2.1798 H   0  0  0  0  0  0  0  0  0  0  0  0
   -7.0497    5.0600   -2.2265 H   0  0  0  0  0  0  0  0  0  0  0  0
   -5.1866    4.3708   -0.1490 S   0  0  0  0  0  0  0  0  0  0  0  0
   -4.8775    3.8869    1.1949 O   0  0  0  0  0  0  0  0  0  0  0  0
   -4.1711    5.6098   -0.5193 O   0  0  0  0  0  0  0  0  0  0  0  0
   -5.1959    3.4369   -1.2752 O   0  0  0  0  0  0  0  0  0  0  0  0
  -10.3563    7.5687   -0.0405 C   0  0  0  0  0  0  0  0  0  0  0  0
  -11.1170    7.1323   -0.6950 H   0  0  0  0  0  0  0  0  0  0  0  0
  -10.7717    7.6380    0.9683 H   0  0  0  0  0  0  0  0  0  0  0  0
  -10.1739    8.5914   -0.3929 H   0  0  0  0  0  0  0  0  0  0  0  0
  1  8  1  0  0  0  0
  1  2  1  0  0  0  0
  2  3  1  0  0  0  0
  4  1  2  0  0  0  0
  5  6  2  0  0  0  0
  5  4  1  0  0  0  0
  6  7  1  0  0  0  0
  7 12  1  0  0  0  0
  7  8  2  0  0  0  0
  8 13  1  0  0  0  0
  9 26  1  0  0  0  0
 10  5  1  0  0  0  0
 11  6  1  0  0  0  0
 14 15  1  0  0  0  0
 14 20  1  0  0  0  0
 15 21  1  0  0  0  0
 16 28  1  0  0  0  0
 16 15  2  0  0  0  0
 17 16  1  0  0  0  0
 18 17  2  0  0  0  0
 18 19  1  0  0  0  0
 19 14  2  0  0  0  0
 22 17  1  0  0  0  0
 23 18  1  0  0  0  0
 24 19  1  0  0  0  0
 24 25  2  0  0  0  0
 26 24  1  0  0  0  0
 27 24  2  0  0  0  0
 28 30  1  0  0  0  0
 29 28  1  0  0  0  0
 31 28  1  0  0  0  0
M  RAD  3   2   2   3   3   4   2
M  END
