Coordinates from ORCA-job PhN2+~TsO-_B3LYPG-6-31G_dp-CH-Scan-d09-49-n800
 OpenBabel11261919273D

 31 31  0  0  0  0  0  0  0  0999 V2000
   -2.6697    0.7938    0.0403 C   0  0  0  0  0  0  0  0  0  0  0  0
   -4.0204    0.8424    0.4090 N   0  0  0  0  0  0  0  0  0  0  0  0
   -5.0323    1.3767    0.4135 N   0  0  0  0  0  0  0  0  0  0  0  0
   -2.0974    1.8368   -0.7048 C   0  0  0  0  0  0  0  0  0  0  0  0
   -0.7487    1.7296   -1.0293 C   0  0  0  0  0  0  0  0  0  0  0  0
   -0.0050    0.6161   -0.6249 C   0  0  0  0  0  0  0  0  0  0  0  0
   -0.5980   -0.4115    0.1173 C   0  0  0  0  0  0  0  0  0  0  0  0
   -1.9425   -0.3293    0.4589 C   0  0  0  0  0  0  0  0  0  0  0  0
   -2.7392    2.7338   -1.0132 H   0  0  0  0  0  0  0  0  0  0  0  0
   -0.2778    2.5242   -1.5986 H   0  0  0  0  0  0  0  0  0  0  0  0
    1.0461    0.5486   -0.8888 H   0  0  0  0  0  0  0  0  0  0  0  0
   -0.0132   -1.2703    0.4293 H   0  0  0  0  0  0  0  0  0  0  0  0
   -2.4333   -1.1052    1.0362 H   0  0  0  0  0  0  0  0  0  0  0  0
   -7.2736    4.9361    1.0181 C   0  0  0  0  0  0  0  0  0  0  0  0
   -8.4729    5.6356    0.9021 C   0  0  0  0  0  0  0  0  0  0  0  0
   -8.6547    6.6024   -0.0979 C   0  0  0  0  0  0  0  0  0  0  0  0
   -7.5926    6.8600   -0.9751 C   0  0  0  0  0  0  0  0  0  0  0  0
   -6.3861    6.1687   -0.8713 C   0  0  0  0  0  0  0  0  0  0  0  0
   -6.2355    5.2038    0.1244 C   0  0  0  0  0  0  0  0  0  0  0  0
   -7.1269    4.2028    1.8040 H   0  0  0  0  0  0  0  0  0  0  0  0
   -9.2790    5.4330    1.6036 H   0  0  0  0  0  0  0  0  0  0  0  0
   -7.7090    7.6174   -1.7466 H   0  0  0  0  0  0  0  0  0  0  0  0
   -5.5581    6.3832   -1.5383 H   0  0  0  0  0  0  0  0  0  0  0  0
   -4.7015    4.2820    0.2427 S   0  0  0  0  0  0  0  0  0  0  0  0
   -4.5563    3.8324    1.6418 O   0  0  0  0  0  0  0  0  0  0  0  0
   -3.6363    5.1266   -0.3283 O   0  0  0  0  0  0  0  0  0  0  0  0
   -4.9145    3.0536   -0.6891 O   0  0  0  0  0  0  0  0  0  0  0  0
   -9.9688    7.3353   -0.2325 C   0  0  0  0  0  0  0  0  0  0  0  0
  -10.7061    6.7278   -0.7728 H   0  0  0  0  0  0  0  0  0  0  0  0
  -10.3983    7.5698    0.7463 H   0  0  0  0  0  0  0  0  0  0  0  0
   -9.8504    8.2723   -0.7839 H   0  0  0  0  0  0  0  0  0  0  0  0
  1  2  1  0  0  0  0
  1  8  2  0  0  0  0
  2  3  2  0  0  0  0
  4  1  1  0  0  0  0
  5  4  2  0  0  0  0
  5  6  1  0  0  0  0
  6  7  2  0  0  0  0
  7 12  1  0  0  0  0
  7  8  1  0  0  0  0
  8 13  1  0  0  0  0
  9  4  1  0  0  0  0
 10  5  1  0  0  0  0
 11  6  1  0  0  0  0
 14 20  1  0  0  0  0
 15 14  1  0  0  0  0
 15 21  1  0  0  0  0
 16 15  2  0  0  0  0
 17 18  2  0  0  0  0
 17 16  1  0  0  0  0
 18 19  1  0  0  0  0
 19 24  1  0  0  0  0
 19 14  2  0  0  0  0
 22 17  1  0  0  0  0
 23 18  1  0  0  0  0
 24 25  1  0  0  0  0
 26 24  2  0  0  0  0
 27 24  2  0  0  0  0
 28 16  1  0  0  0  0
 28 30  1  0  0  0  0
 29 28  1  0  0  0  0
 31 28  1  0  0  0  0
M  RAD  2   3   2  25   2
M  END
