Coordinates from ORCA-job PhN2+~TsO-_B3LYPG-6-31G_dp-CH-Scan-d09-49-n800
 OpenBabel11261919283D

 31 31  0  0  0  0  0  0  0  0999 V2000
   -1.8986    0.4764    0.0764 C   0  0  0  0  0  0  0  0  0  0  0  0
   -3.2650    0.6943    0.2676 N   0  0  0  0  0  0  0  0  0  0  0  0
   -4.3513    0.9179    0.4103 N   0  0  0  0  0  0  0  0  0  0  0  0
   -1.2018    1.6412   -0.2791 C   0  0  0  0  0  0  0  0  0  0  0  0
    0.1767    1.3203   -0.4540 C   0  0  0  0  0  0  0  0  0  0  0  0
    0.7085    0.0450   -0.2917 C   0  0  0  0  0  0  0  0  0  0  0  0
   -0.1036   -1.0580    0.0719 C   0  0  0  0  0  0  0  0  0  0  0  0
   -1.4519   -0.8599    0.2678 C   0  0  0  0  0  0  0  0  0  0  0  0
   -3.3034    5.2511   -0.7558 H   0  0  0  0  0  0  0  0  0  0  0  0
    0.8677    2.1172   -0.7343 H   0  0  0  0  0  0  0  0  0  0  0  0
    1.7733   -0.1255   -0.4460 H   0  0  0  0  0  0  0  0  0  0  0  0
    0.3312   -2.0448    0.1950 H   0  0  0  0  0  0  0  0  0  0  0  0
   -2.1247   -1.6662    0.5482 H   0  0  0  0  0  0  0  0  0  0  0  0
   -7.1572    5.8216    1.0962 C   0  0  0  0  0  0  0  0  0  0  0  0
   -8.3506    6.5412    1.1154 C   0  0  0  0  0  0  0  0  0  0  0  0
   -9.0875    6.7553   -0.0576 C   0  0  0  0  0  0  0  0  0  0  0  0
   -8.6046    6.2185   -1.2615 C   0  0  0  0  0  0  0  0  0  0  0  0
   -7.4153    5.4970   -1.3023 C   0  0  0  0  0  0  0  0  0  0  0  0
   -6.6996    5.3111   -0.1179 C   0  0  0  0  0  0  0  0  0  0  0  0
   -6.5926    5.6442    2.0048 H   0  0  0  0  0  0  0  0  0  0  0  0
   -8.7175    6.9392    2.0570 H   0  0  0  0  0  0  0  0  0  0  0  0
   -9.1709    6.3641   -2.1775 H   0  0  0  0  0  0  0  0  0  0  0  0
   -7.0495    5.0701   -2.2294 H   0  0  0  0  0  0  0  0  0  0  0  0
   -5.1804    4.3861   -0.1556 S   0  0  0  0  0  0  0  0  0  0  0  0
   -4.8671    3.9021    1.1873 O   0  0  0  0  0  0  0  0  0  0  0  0
   -4.1706    5.6297   -0.5260 O   0  0  0  0  0  0  0  0  0  0  0  0
   -5.1867    3.4539   -1.2832 O   0  0  0  0  0  0  0  0  0  0  0  0
  -10.3654    7.5587   -0.0345 C   0  0  0  0  0  0  0  0  0  0  0  0
  -11.1257    7.1180   -0.6866 H   0  0  0  0  0  0  0  0  0  0  0  0
  -10.7783    7.6265    0.9754 H   0  0  0  0  0  0  0  0  0  0  0  0
  -10.1894    8.5821   -0.3880 H   0  0  0  0  0  0  0  0  0  0  0  0
  1  2  1  0  0  0  0
  1  8  1  0  0  0  0
  2  3  1  0  0  0  0
  4  1  2  0  0  0  0
  5  6  2  0  0  0  0
  5  4  1  0  0  0  0
  6  7  1  0  0  0  0
  7 12  1  0  0  0  0
  7  8  2  0  0  0  0
  8 13  1  0  0  0  0
  9 26  1  0  0  0  0
 10  5  1  0  0  0  0
 11  6  1  0  0  0  0
 14 15  1  0  0  0  0
 14 20  1  0  0  0  0
 15 21  1  0  0  0  0
 16 28  1  0  0  0  0
 16 15  2  0  0  0  0
 17 16  1  0  0  0  0
 18 17  2  0  0  0  0
 18 19  1  0  0  0  0
 19 14  2  0  0  0  0
 22 17  1  0  0  0  0
 23 18  1  0  0  0  0
 24 19  1  0  0  0  0
 24 25  2  0  0  0  0
 26 24  1  0  0  0  0
 27 24  2  0  0  0  0
 28 30  1  0  0  0  0
 29 28  1  0  0  0  0
 31 28  1  0  0  0  0
M  RAD  3   2   2   3   3   4   2
M  END
