Coordinates from ORCA-job PhN2+~TsO-_B3LYPG-6-31G_dp-CH-Scan-d09-49-n800
 OpenBabel11261919283D

 31 31  0  0  0  0  0  0  0  0999 V2000
   -1.8959    0.4770    0.0755 C   0  0  0  0  0  0  0  0  0  0  0  0
   -3.2618    0.6986    0.2669 N   0  0  0  0  0  0  0  0  0  0  0  0
   -4.3481    0.9239    0.4068 N   0  0  0  0  0  0  0  0  0  0  0  0
   -1.1957    1.6389   -0.2822 C   0  0  0  0  0  0  0  0  0  0  0  0
    0.1820    1.3139   -0.4557 C   0  0  0  0  0  0  0  0  0  0  0  0
    0.7101    0.0374   -0.2911 C   0  0  0  0  0  0  0  0  0  0  0  0
   -0.1052   -1.0626    0.0741 C   0  0  0  0  0  0  0  0  0  0  0  0
   -1.4531   -0.8603    0.2692 C   0  0  0  0  0  0  0  0  0  0  0  0
   -3.3034    5.2628   -0.7579 H   0  0  0  0  0  0  0  0  0  0  0  0
    0.8754    2.1084   -0.7371 H   0  0  0  0  0  0  0  0  0  0  0  0
    1.7745   -0.1364   -0.4447 H   0  0  0  0  0  0  0  0  0  0  0  0
    0.3267   -2.0505    0.1993 H   0  0  0  0  0  0  0  0  0  0  0  0
   -2.1282   -1.6642    0.5511 H   0  0  0  0  0  0  0  0  0  0  0  0
   -7.1580    5.8231    1.0962 C   0  0  0  0  0  0  0  0  0  0  0  0
   -8.3529    6.5403    1.1159 C   0  0  0  0  0  0  0  0  0  0  0  0
   -9.0901    6.7538   -0.0570 C   0  0  0  0  0  0  0  0  0  0  0  0
   -8.6059    6.2192   -1.2614 C   0  0  0  0  0  0  0  0  0  0  0  0
   -7.4151    5.5002   -1.3026 C   0  0  0  0  0  0  0  0  0  0  0  0
   -6.6992    5.3147   -0.1182 C   0  0  0  0  0  0  0  0  0  0  0  0
   -6.5932    5.6461    2.0048 H   0  0  0  0  0  0  0  0  0  0  0  0
   -8.7208    6.9367    2.0578 H   0  0  0  0  0  0  0  0  0  0  0  0
   -9.1724    6.3645   -2.1773 H   0  0  0  0  0  0  0  0  0  0  0  0
   -7.0483    5.0749   -2.2300 H   0  0  0  0  0  0  0  0  0  0  0  0
   -5.1781    4.3928   -0.1565 S   0  0  0  0  0  0  0  0  0  0  0  0
   -4.8640    3.9083    1.1860 O   0  0  0  0  0  0  0  0  0  0  0  0
   -4.1710    5.6391   -0.5259 O   0  0  0  0  0  0  0  0  0  0  0  0
   -5.1823    3.4615   -1.2849 O   0  0  0  0  0  0  0  0  0  0  0  0
  -10.3698    7.5545   -0.0334 C   0  0  0  0  0  0  0  0  0  0  0  0
  -11.1293    7.1121   -0.6852 H   0  0  0  0  0  0  0  0  0  0  0  0
  -10.7824    7.6213    0.9767 H   0  0  0  0  0  0  0  0  0  0  0  0
  -10.1961    8.5783   -0.3870 H   0  0  0  0  0  0  0  0  0  0  0  0
  1  2  1  0  0  0  0
  1  8  1  0  0  0  0
  2  3  1  0  0  0  0
  4  1  2  0  0  0  0
  5  6  2  0  0  0  0
  5  4  1  0  0  0  0
  6  7  1  0  0  0  0
  7 12  1  0  0  0  0
  7  8  2  0  0  0  0
  8 13  1  0  0  0  0
  9 26  1  0  0  0  0
 10  5  1  0  0  0  0
 11  6  1  0  0  0  0
 14 15  1  0  0  0  0
 14 20  1  0  0  0  0
 15 21  1  0  0  0  0
 16 28  1  0  0  0  0
 16 15  2  0  0  0  0
 17 16  1  0  0  0  0
 18 17  2  0  0  0  0
 18 19  1  0  0  0  0
 19 14  2  0  0  0  0
 22 17  1  0  0  0  0
 23 18  1  0  0  0  0
 24 19  1  0  0  0  0
 24 25  2  0  0  0  0
 26 24  1  0  0  0  0
 27 24  2  0  0  0  0
 28 30  1  0  0  0  0
 29 28  1  0  0  0  0
 31 28  1  0  0  0  0
M  RAD  3   2   2   3   3   4   2
M  END
