Coordinates from ORCA-job PhN2+~TsO-_B3LYPG-6-31G_dp-CH-Scan-d09-49-n800
 OpenBabel11261919273D

 31 31  0  0  0  0  0  0  0  0999 V2000
   -2.3645    0.6734    0.1342 C   0  0  0  0  0  0  0  0  0  0  0  0
   -3.6725    0.3138    0.4401 N   0  0  0  0  0  0  0  0  0  0  0  0
   -4.7345    0.0680    0.6782 N   0  0  0  0  0  0  0  0  0  0  0  0
   -2.1705    2.0269   -0.1984 C   0  0  0  0  0  0  0  0  0  0  0  0
   -0.8103    2.2814   -0.4960 C   0  0  0  0  0  0  0  0  0  0  0  0
    0.1820    1.3049   -0.4568 C   0  0  0  0  0  0  0  0  0  0  0  0
   -0.1121   -0.0311   -0.1077 C   0  0  0  0  0  0  0  0  0  0  0  0
   -1.4114   -0.3756    0.1983 C   0  0  0  0  0  0  0  0  0  0  0  0
   -3.4661    3.2914   -0.2498 H   0  0  0  0  0  0  0  0  0  0  0  0
   -0.5192    3.2932   -0.7727 H   0  0  0  0  0  0  0  0  0  0  0  0
    1.2094    1.5674   -0.6998 H   0  0  0  0  0  0  0  0  0  0  0  0
    0.6728   -0.7795   -0.0801 H   0  0  0  0  0  0  0  0  0  0  0  0
   -1.6927   -1.3876    0.4742 H   0  0  0  0  0  0  0  0  0  0  0  0
   -7.0416    5.3643    1.1363 C   0  0  0  0  0  0  0  0  0  0  0  0
   -7.9139    6.4491    1.0620 C   0  0  0  0  0  0  0  0  0  0  0  0
   -8.4733    6.8474   -0.1597 C   0  0  0  0  0  0  0  0  0  0  0  0
   -8.1456    6.1208   -1.3148 C   0  0  0  0  0  0  0  0  0  0  0  0
   -7.2773    5.0339   -1.2595 C   0  0  0  0  0  0  0  0  0  0  0  0
   -6.7267    4.6687   -0.0299 C   0  0  0  0  0  0  0  0  0  0  0  0
   -6.6188    5.0459    2.0825 H   0  0  0  0  0  0  0  0  0  0  0  0
   -8.1691    6.9919    1.9683 H   0  0  0  0  0  0  0  0  0  0  0  0
   -8.5821    6.4070   -2.2682 H   0  0  0  0  0  0  0  0  0  0  0  0
   -7.0366    4.4618   -2.1488 H   0  0  0  0  0  0  0  0  0  0  0  0
   -5.6123    3.2788    0.0520 S   0  0  0  0  0  0  0  0  0  0  0  0
   -5.5906    2.7628    1.4304 O   0  0  0  0  0  0  0  0  0  0  0  0
   -4.2344    4.0044   -0.2745 O   0  0  0  0  0  0  0  0  0  0  0  0
   -5.9447    2.3297   -1.0206 O   0  0  0  0  0  0  0  0  0  0  0  0
   -9.3955    8.0402   -0.2383 C   0  0  0  0  0  0  0  0  0  0  0  0
  -10.2196    7.8640   -0.9365 H   0  0  0  0  0  0  0  0  0  0  0  0
   -9.8224    8.2822    0.7385 H   0  0  0  0  0  0  0  0  0  0  0  0
   -8.8579    8.9293   -0.5907 H   0  0  0  0  0  0  0  0  0  0  0  0
  1  8  1  0  0  0  0
  1  2  1  0  0  0  0
  2  3  1  0  0  0  0
  4  1  2  0  0  0  0
  5  6  2  0  0  0  0
  5  4  1  0  0  0  0
  6  7  1  0  0  0  0
  7 12  1  0  0  0  0
  7  8  2  0  0  0  0
  8 13  1  0  0  0  0
 10  5  1  0  0  0  0
 11  6  1  0  0  0  0
 14 20  1  0  0  0  0
 15 14  1  0  0  0  0
 15 21  1  0  0  0  0
 16 15  2  0  0  0  0
 17 18  2  0  0  0  0
 17 16  1  0  0  0  0
 18 19  1  0  0  0  0
 19 24  1  0  0  0  0
 19 14  2  0  0  0  0
 22 17  1  0  0  0  0
 23 18  1  0  0  0  0
 24 25  2  0  0  0  0
 26  9  1  0  0  0  0
 26 24  1  0  0  0  0
 27 24  2  0  0  0  0
 28 16  1  0  0  0  0
 28 30  1  0  0  0  0
 29 28  1  0  0  0  0
 31 28  1  0  0  0  0
M  RAD  3   2   2   3   3   4   2
M  END
