Coordinates from ORCA-job PhN2+~TsO-_B3LYPG-6-31G_dp-CH-Scan-d09-49-n800
 OpenBabel11261919273D

 31 31  0  0  0  0  0  0  0  0999 V2000
   -2.3035    0.6417    0.1301 C   0  0  0  0  0  0  0  0  0  0  0  0
   -3.6250    0.3217    0.4228 N   0  0  0  0  0  0  0  0  0  0  0  0
   -4.6962    0.1051    0.6501 N   0  0  0  0  0  0  0  0  0  0  0  0
   -2.0763    1.9877   -0.2110 C   0  0  0  0  0  0  0  0  0  0  0  0
   -0.7037    2.2008   -0.4945 C   0  0  0  0  0  0  0  0  0  0  0  0
    0.2619    1.1993   -0.4356 C   0  0  0  0  0  0  0  0  0  0  0  0
   -0.0705   -0.1267   -0.0787 C   0  0  0  0  0  0  0  0  0  0  0  0
   -1.3812   -0.4343    0.2150 C   0  0  0  0  0  0  0  0  0  0  0  0
   -3.4903    3.4438   -0.2946 H   0  0  0  0  0  0  0  0  0  0  0  0
   -0.3793    3.2012   -0.7768 H   0  0  0  0  0  0  0  0  0  0  0  0
    1.2988    1.4323   -0.6691 H   0  0  0  0  0  0  0  0  0  0  0  0
    0.6948   -0.8947   -0.0360 H   0  0  0  0  0  0  0  0  0  0  0  0
   -1.6927   -1.4362    0.4960 H   0  0  0  0  0  0  0  0  0  0  0  0
   -7.0603    5.4043    1.1270 C   0  0  0  0  0  0  0  0  0  0  0  0
   -7.9529    6.4729    1.0650 C   0  0  0  0  0  0  0  0  0  0  0  0
   -8.5353    6.8619   -0.1491 C   0  0  0  0  0  0  0  0  0  0  0  0
   -8.2099    6.1426   -1.3094 C   0  0  0  0  0  0  0  0  0  0  0  0
   -7.3215    5.0714   -1.2670 C   0  0  0  0  0  0  0  0  0  0  0  0
   -6.7487    4.7161   -0.0447 C   0  0  0  0  0  0  0  0  0  0  0  0
   -6.6190    5.0934    2.0672 H   0  0  0  0  0  0  0  0  0  0  0  0
   -8.2058    7.0103    1.9750 H   0  0  0  0  0  0  0  0  0  0  0  0
   -8.6636    6.4219   -2.2566 H   0  0  0  0  0  0  0  0  0  0  0  0
   -7.0817    4.5051   -2.1602 H   0  0  0  0  0  0  0  0  0  0  0  0
   -5.6119    3.3448    0.0223 S   0  0  0  0  0  0  0  0  0  0  0  0
   -5.5570    2.8292    1.3973 O   0  0  0  0  0  0  0  0  0  0  0  0
   -4.2484    4.1189   -0.3175 O   0  0  0  0  0  0  0  0  0  0  0  0
   -5.9261    2.3991   -1.0557 O   0  0  0  0  0  0  0  0  0  0  0  0
   -9.4792    8.0382   -0.2140 C   0  0  0  0  0  0  0  0  0  0  0  0
  -10.3030    7.8528   -0.9101 H   0  0  0  0  0  0  0  0  0  0  0  0
   -9.9057    8.2649    0.7666 H   0  0  0  0  0  0  0  0  0  0  0  0
   -8.9588    8.9393   -0.5618 H   0  0  0  0  0  0  0  0  0  0  0  0
  1  8  1  0  0  0  0
  1  2  1  0  0  0  0
  2  3  1  0  0  0  0
  4  1  2  0  0  0  0
  5  6  2  0  0  0  0
  5  4  1  0  0  0  0
  6  7  1  0  0  0  0
  7 12  1  0  0  0  0
  7  8  2  0  0  0  0
  8 13  1  0  0  0  0
 10  5  1  0  0  0  0
 11  6  1  0  0  0  0
 14 20  1  0  0  0  0
 15 14  1  0  0  0  0
 15 21  1  0  0  0  0
 16 15  2  0  0  0  0
 17 18  2  0  0  0  0
 17 16  1  0  0  0  0
 18 19  1  0  0  0  0
 19 24  1  0  0  0  0
 19 14  2  0  0  0  0
 22 17  1  0  0  0  0
 23 18  1  0  0  0  0
 24 25  2  0  0  0  0
 26  9  1  0  0  0  0
 26 24  1  0  0  0  0
 27 24  2  0  0  0  0
 28 16  1  0  0  0  0
 28 30  1  0  0  0  0
 29 28  1  0  0  0  0
 31 28  1  0  0  0  0
M  RAD  3   2   2   3   3   4   2
M  END
