Coordinates from ORCA-job PhN2+~TsO-_B3LYPG-6-31G_dp-CH-Scan-d09-49-n800
 OpenBabel11261919273D

 31 31  0  0  0  0  0  0  0  0999 V2000
   -2.1647    0.5711    0.1036 C   0  0  0  0  0  0  0  0  0  0  0  0
   -3.5193    0.3762    0.3591 N   0  0  0  0  0  0  0  0  0  0  0  0
   -4.6121    0.2577    0.5569 N   0  0  0  0  0  0  0  0  0  0  0  0
   -1.8221    1.8920   -0.2338 C   0  0  0  0  0  0  0  0  0  0  0  0
   -0.4254    1.9824   -0.4775 C   0  0  0  0  0  0  0  0  0  0  0  0
    0.4485    0.9025   -0.3875 C   0  0  0  0  0  0  0  0  0  0  0  0
   -0.0058   -0.3905   -0.0368 C   0  0  0  0  0  0  0  0  0  0  0  0
   -1.3453   -0.5839    0.2197 C   0  0  0  0  0  0  0  0  0  0  0  0
   -3.4670    3.8639   -0.3809 H   0  0  0  0  0  0  0  0  0  0  0  0
   -0.0039    2.9488   -0.7533 H   0  0  0  0  0  0  0  0  0  0  0  0
    1.5085    1.0436   -0.5909 H   0  0  0  0  0  0  0  0  0  0  0  0
    0.6903   -1.2203    0.0296 H   0  0  0  0  0  0  0  0  0  0  0  0
   -1.7499   -1.5541    0.4941 H   0  0  0  0  0  0  0  0  0  0  0  0
   -7.1033    5.5301    1.1168 C   0  0  0  0  0  0  0  0  0  0  0  0
   -8.0660    6.5365    1.0727 C   0  0  0  0  0  0  0  0  0  0  0  0
   -8.7039    6.8779   -0.1282 C   0  0  0  0  0  0  0  0  0  0  0  0
   -8.3622    6.1742   -1.2932 C   0  0  0  0  0  0  0  0  0  0  0  0
   -7.4037    5.1646   -1.2695 C   0  0  0  0  0  0  0  0  0  0  0  0
   -6.7780    4.8571   -0.0603 C   0  0  0  0  0  0  0  0  0  0  0  0
   -6.6181    5.2560    2.0469 H   0  0  0  0  0  0  0  0  0  0  0  0
   -8.3301    7.0622    1.9861 H   0  0  0  0  0  0  0  0  0  0  0  0
   -8.8574    6.4171   -2.2296 H   0  0  0  0  0  0  0  0  0  0  0  0
   -7.1494    4.6103   -2.1662 H   0  0  0  0  0  0  0  0  0  0  0  0
   -5.5530    3.5650   -0.0160 S   0  0  0  0  0  0  0  0  0  0  0  0
   -5.4252    3.0574    1.3533 O   0  0  0  0  0  0  0  0  0  0  0  0
   -4.2498    4.4628   -0.3794 O   0  0  0  0  0  0  0  0  0  0  0  0
   -5.8032    2.6126   -1.1010 O   0  0  0  0  0  0  0  0  0  0  0  0
   -9.7230    7.9904   -0.1737 C   0  0  0  0  0  0  0  0  0  0  0  0
  -10.5340    7.7624   -0.8717 H   0  0  0  0  0  0  0  0  0  0  0  0
  -10.1609    8.1741    0.8110 H   0  0  0  0  0  0  0  0  0  0  0  0
   -9.2625    8.9285   -0.5077 H   0  0  0  0  0  0  0  0  0  0  0  0
  1  8  1  0  0  0  0
  1  2  1  0  0  0  0
  2  3  1  0  0  0  0
  4  1  2  0  0  0  0
  5  6  2  0  0  0  0
  5  4  1  0  0  0  0
  6  7  1  0  0  0  0
  7 12  1  0  0  0  0
  7  8  2  0  0  0  0
  8 13  1  0  0  0  0
  9 26  1  0  0  0  0
 10  5  1  0  0  0  0
 11  6  1  0  0  0  0
 14 20  1  0  0  0  0
 15 14  1  0  0  0  0
 15 21  1  0  0  0  0
 16 15  2  0  0  0  0
 17 18  2  0  0  0  0
 17 16  1  0  0  0  0
 18 19  1  0  0  0  0
 19 24  1  0  0  0  0
 19 14  2  0  0  0  0
 22 17  1  0  0  0  0
 23 18  1  0  0  0  0
 24 25  2  0  0  0  0
 26 24  1  0  0  0  0
 27 24  2  0  0  0  0
 28 16  1  0  0  0  0
 28 30  1  0  0  0  0
 29 28  1  0  0  0  0
 31 28  1  0  0  0  0
M  RAD  3   2   2   3   3   4   2
M  END
