Coordinates from ORCA-job PhN2+~TsO-_B3LYPG-6-31G_dp-CH-Scan-d09-49-n800
 OpenBabel11261919273D

 31 31  0  0  0  0  0  0  0  0999 V2000
   -2.0119    0.5003    0.0922 C   0  0  0  0  0  0  0  0  0  0  0  0
   -3.3876    0.5059    0.3230 N   0  0  0  0  0  0  0  0  0  0  0  0
   -4.4910    0.5535    0.4945 N   0  0  0  0  0  0  0  0  0  0  0  0
   -1.4974    1.7572   -0.2644 C   0  0  0  0  0  0  0  0  0  0  0  0
   -0.0947    1.6453   -0.4843 C   0  0  0  0  0  0  0  0  0  0  0  0
    0.6220    0.4593   -0.3577 C   0  0  0  0  0  0  0  0  0  0  0  0
   -0.0094   -0.7534    0.0120 C   0  0  0  0  0  0  0  0  0  0  0  0
   -1.3659   -0.7564    0.2489 C   0  0  0  0  0  0  0  0  0  0  0  0
   -3.3613    4.5635   -0.5125 H   0  0  0  0  0  0  0  0  0  0  0  0
    0.4625    2.5380   -0.7720 H   0  0  0  0  0  0  0  0  0  0  0  0
    1.6946    0.4488   -0.5457 H   0  0  0  0  0  0  0  0  0  0  0  0
    0.5674   -1.6678    0.1077 H   0  0  0  0  0  0  0  0  0  0  0  0
   -1.9042   -1.6557    0.5362 H   0  0  0  0  0  0  0  0  0  0  0  0
   -7.1474    5.6957    1.1083 C   0  0  0  0  0  0  0  0  0  0  0  0
   -8.2307    6.5719    1.0895 C   0  0  0  0  0  0  0  0  0  0  0  0
   -8.9236    6.8434   -0.0987 C   0  0  0  0  0  0  0  0  0  0  0  0
   -8.5113    6.2030   -1.2777 C   0  0  0  0  0  0  0  0  0  0  0  0
   -7.4318    5.3241   -1.2801 C   0  0  0  0  0  0  0  0  0  0  0  0
   -6.7560    5.0846   -0.0825 C   0  0  0  0  0  0  0  0  0  0  0  0
   -6.6185    5.4749    2.0288 H   0  0  0  0  0  0  0  0  0  0  0  0
   -8.5463    7.0489    2.0130 H   0  0  0  0  0  0  0  0  0  0  0  0
   -9.0464    6.3923   -2.2044 H   0  0  0  0  0  0  0  0  0  0  0  0
   -7.1213    4.8186   -2.1877 H   0  0  0  0  0  0  0  0  0  0  0  0
   -5.3763    3.9603   -0.0715 S   0  0  0  0  0  0  0  0  0  0  0  0
   -5.1601    3.4583    1.2857 O   0  0  0  0  0  0  0  0  0  0  0  0
   -4.2045    5.0466   -0.4322 O   0  0  0  0  0  0  0  0  0  0  0  0
   -5.4993    3.0124   -1.1793 O   0  0  0  0  0  0  0  0  0  0  0  0
  -10.0765    7.8174   -0.1174 C   0  0  0  0  0  0  0  0  0  0  0  0
  -10.8649    7.4904   -0.8018 H   0  0  0  0  0  0  0  0  0  0  0  0
  -10.5147    7.9399    0.8766 H   0  0  0  0  0  0  0  0  0  0  0  0
   -9.7451    8.8074   -0.4544 H   0  0  0  0  0  0  0  0  0  0  0  0
  1  8  1  0  0  0  0
  1  2  1  0  0  0  0
  2  3  1  0  0  0  0
  4  1  2  0  0  0  0
  5  6  2  0  0  0  0
  5  4  1  0  0  0  0
  6  7  1  0  0  0  0
  7 12  1  0  0  0  0
  7  8  2  0  0  0  0
  8 13  1  0  0  0  0
  9 26  1  0  0  0  0
 10  5  1  0  0  0  0
 11  6  1  0  0  0  0
 14 20  1  0  0  0  0
 15 14  1  0  0  0  0
 15 21  1  0  0  0  0
 16 15  2  0  0  0  0
 17 16  1  0  0  0  0
 18 17  2  0  0  0  0
 18 19  1  0  0  0  0
 19 24  1  0  0  0  0
 19 14  2  0  0  0  0
 22 17  1  0  0  0  0
 23 18  1  0  0  0  0
 24 25  2  0  0  0  0
 26 24  1  0  0  0  0
 27 24  2  0  0  0  0
 28 16  1  0  0  0  0
 28 30  1  0  0  0  0
 29 28  1  0  0  0  0
 31 28  1  0  0  0  0
M  RAD  3   2   2   3   3   4   2
M  END
