Coordinates from ORCA-job PhN2+~TsO-_B3LYPG-6-31G_dp-CH-Scan-d09-49-n800
 OpenBabel11261919273D

 31 31  0  0  0  0  0  0  0  0999 V2000
   -2.1858    0.5823    0.1084 C   0  0  0  0  0  0  0  0  0  0  0  0
   -3.5353    0.3657    0.3718 N   0  0  0  0  0  0  0  0  0  0  0  0
   -4.6248    0.2295    0.5761 N   0  0  0  0  0  0  0  0  0  0  0  0
   -1.8633    1.9084   -0.2294 C   0  0  0  0  0  0  0  0  0  0  0  0
   -0.4701    2.0199   -0.4815 C   0  0  0  0  0  0  0  0  0  0  0  0
    0.4200    0.9527   -0.3985 C   0  0  0  0  0  0  0  0  0  0  0  0
   -0.0133   -0.3470   -0.0469 C   0  0  0  0  0  0  0  0  0  0  0  0
   -1.3483   -0.5601    0.2176 C   0  0  0  0  0  0  0  0  0  0  0  0
   -3.4753    3.7910   -0.3618 H   0  0  0  0  0  0  0  0  0  0  0  0
   -0.0651    2.9928   -0.7586 H   0  0  0  0  0  0  0  0  0  0  0  0
    1.4765    1.1097   -0.6083 H   0  0  0  0  0  0  0  0  0  0  0  0
    0.6951   -1.1666    0.0141 H   0  0  0  0  0  0  0  0  0  0  0  0
   -1.7369   -1.5365    0.4930 H   0  0  0  0  0  0  0  0  0  0  0  0
   -7.0996    5.5083    1.1200 C   0  0  0  0  0  0  0  0  0  0  0  0
   -8.0494    6.5267    1.0713 C   0  0  0  0  0  0  0  0  0  0  0  0
   -8.6761    6.8772   -0.1328 C   0  0  0  0  0  0  0  0  0  0  0  0
   -8.3364    6.1702   -1.2965 C   0  0  0  0  0  0  0  0  0  0  0  0
   -7.3908    5.1487   -1.2681 C   0  0  0  0  0  0  0  0  0  0  0  0
   -6.7759    4.8322   -0.0557 C   0  0  0  0  0  0  0  0  0  0  0  0
   -6.6232    5.2273    2.0525 H   0  0  0  0  0  0  0  0  0  0  0  0
   -8.3122    7.0549    1.9837 H   0  0  0  0  0  0  0  0  0  0  0  0
   -8.8231    6.4200   -2.2355 H   0  0  0  0  0  0  0  0  0  0  0  0
   -7.1382    4.5919   -2.1638 H   0  0  0  0  0  0  0  0  0  0  0  0
   -5.5670    3.5249   -0.0057 S   0  0  0  0  0  0  0  0  0  0  0  0
   -5.4531    3.0158    1.3648 O   0  0  0  0  0  0  0  0  0  0  0  0
   -4.2517    4.4026   -0.3638 O   0  0  0  0  0  0  0  0  0  0  0  0
   -5.8266    2.5737   -1.0899 O   0  0  0  0  0  0  0  0  0  0  0  0
   -9.6811    8.0022   -0.1832 C   0  0  0  0  0  0  0  0  0  0  0  0
  -10.4934    7.7827   -0.8826 H   0  0  0  0  0  0  0  0  0  0  0  0
  -10.1190    8.1935    0.8000 H   0  0  0  0  0  0  0  0  0  0  0  0
   -9.2084    8.9337   -0.5184 H   0  0  0  0  0  0  0  0  0  0  0  0
  1  8  1  0  0  0  0
  1  2  1  0  0  0  0
  2  3  1  0  0  0  0
  4  1  2  0  0  0  0
  5  6  2  0  0  0  0
  5  4  1  0  0  0  0
  6  7  1  0  0  0  0
  7 12  1  0  0  0  0
  7  8  2  0  0  0  0
  8 13  1  0  0  0  0
 10  5  1  0  0  0  0
 11  6  1  0  0  0  0
 14 20  1  0  0  0  0
 15 14  1  0  0  0  0
 15 21  1  0  0  0  0
 16 15  2  0  0  0  0
 17 18  2  0  0  0  0
 17 16  1  0  0  0  0
 18 19  1  0  0  0  0
 19 24  1  0  0  0  0
 19 14  2  0  0  0  0
 22 17  1  0  0  0  0
 23 18  1  0  0  0  0
 24 25  2  0  0  0  0
 26  9  1  0  0  0  0
 26 24  1  0  0  0  0
 27 24  2  0  0  0  0
 28 16  1  0  0  0  0
 28 30  1  0  0  0  0
 29 28  1  0  0  0  0
 31 28  1  0  0  0  0
M  RAD  3   2   2   3   3   4   2
M  END
