Coordinates from ORCA-job PhN2+~TsO-_B3LYPG-6-31G_dp-CH-Scan-d09-49-n800
 OpenBabel11261919273D

 31 31  0  0  0  0  0  0  0  0999 V2000
   -2.4671    0.7476    0.1589 C   0  0  0  0  0  0  0  0  0  0  0  0
   -3.7065    0.5667    0.7709 N   0  0  0  0  0  0  0  0  0  0  0  0
   -4.7692    0.7121    1.1178 N   0  0  0  0  0  0  0  0  0  0  0  0
   -2.1132    2.0378   -0.2629 C   0  0  0  0  0  0  0  0  0  0  0  0
   -0.8614    2.1639   -0.8652 C   0  0  0  0  0  0  0  0  0  0  0  0
   -0.0252    1.0568   -1.0317 C   0  0  0  0  0  0  0  0  0  0  0  0
   -0.4149   -0.2168   -0.5919 C   0  0  0  0  0  0  0  0  0  0  0  0
   -1.6471   -0.3860    0.0212 C   0  0  0  0  0  0  0  0  0  0  0  0
   -2.8891    3.0325   -0.0750 H   0  0  0  0  0  0  0  0  0  0  0  0
   -0.5392    3.1426   -1.2055 H   0  0  0  0  0  0  0  0  0  0  0  0
    0.9447    1.1825   -1.5037 H   0  0  0  0  0  0  0  0  0  0  0  0
    0.2437   -1.0685   -0.7248 H   0  0  0  0  0  0  0  0  0  0  0  0
   -1.9813   -1.3538    0.3785 H   0  0  0  0  0  0  0  0  0  0  0  0
   -7.4930    5.1992    1.3078 C   0  0  0  0  0  0  0  0  0  0  0  0
   -8.4998    6.1013    0.9643 C   0  0  0  0  0  0  0  0  0  0  0  0
   -8.5244    6.7150   -0.2953 C   0  0  0  0  0  0  0  0  0  0  0  0
   -7.5011    6.4096   -1.2053 C   0  0  0  0  0  0  0  0  0  0  0  0
   -6.4881    5.5117   -0.8760 C   0  0  0  0  0  0  0  0  0  0  0  0
   -6.4918    4.9068    0.3822 C   0  0  0  0  0  0  0  0  0  0  0  0
   -7.4624    4.7328    2.2861 H   0  0  0  0  0  0  0  0  0  0  0  0
   -9.2755    6.3372    1.6889 H   0  0  0  0  0  0  0  0  0  0  0  0
   -7.4961    6.8864   -2.1823 H   0  0  0  0  0  0  0  0  0  0  0  0
   -5.6898    5.2927   -1.5769 H   0  0  0  0  0  0  0  0  0  0  0  0
   -5.2148    3.7231    0.8109 S   0  0  0  0  0  0  0  0  0  0  0  0
   -5.2568    3.5223    2.2725 O   0  0  0  0  0  0  0  0  0  0  0  0
   -3.9331    4.3052    0.2848 O   0  0  0  0  0  0  0  0  0  0  0  0
   -5.5633    2.4645    0.0339 O   0  0  0  0  0  0  0  0  0  0  0  0
   -9.6359    7.6665   -0.6716 C   0  0  0  0  0  0  0  0  0  0  0  0
  -10.4893    7.1268   -1.1018 H   0  0  0  0  0  0  0  0  0  0  0  0
  -10.0062    8.2144    0.2000 H   0  0  0  0  0  0  0  0  0  0  0  0
   -9.3045    8.3959   -1.4168 H   0  0  0  0  0  0  0  0  0  0  0  0
  1  2  1  0  0  0  0
  2  3  1  0  0  0  0
  4  9  1  0  0  0  0
  4  1  2  0  0  0  0
  5  4  1  0  0  0  0
  6  5  2  0  0  0  0
  6  7  1  0  0  0  0
  7  8  2  0  0  0  0
  8  1  1  0  0  0  0
  8 13  1  0  0  0  0
 10  5  1  0  0  0  0
 11  6  1  0  0  0  0
 12  7  1  0  0  0  0
 14 20  1  0  0  0  0
 15 14  1  0  0  0  0
 15 21  1  0  0  0  0
 16 15  2  0  0  0  0
 17 18  2  0  0  0  0
 17 16  1  0  0  0  0
 18 19  1  0  0  0  0
 19 24  1  0  0  0  0
 19 14  2  0  0  0  0
 22 17  1  0  0  0  0
 23 18  1  0  0  0  0
 24 25  1  0  0  0  0
 26 24  2  0  0  0  0
 27 24  2  0  0  0  0
 28 16  1  0  0  0  0
 28 30  1  0  0  0  0
 29 28  1  0  0  0  0
 31 28  1  0  0  0  0
M  RAD  3   2   2   3   3  25   2
M  END
