Coordinates from ORCA-job PhN2+~TsO-_B3LYPG-6-31G_dp-CH-Scan-d09-49-n800
 OpenBabel11261919283D

 31 31  0  0  0  0  0  0  0  0999 V2000
   -1.8686    0.4727    0.0515 C   0  0  0  0  0  0  0  0  0  0  0  0
   -3.2318    0.7385    0.2019 N   0  0  0  0  0  0  0  0  0  0  0  0
   -4.3136    0.9994    0.3132 N   0  0  0  0  0  0  0  0  0  0  0  0
   -1.1242    1.6081   -0.3016 C   0  0  0  0  0  0  0  0  0  0  0  0
    0.2475    1.2391   -0.4324 C   0  0  0  0  0  0  0  0  0  0  0  0
    0.7318   -0.0500   -0.2352 C   0  0  0  0  0  0  0  0  0  0  0  0
   -0.1264   -1.1200    0.1214 C   0  0  0  0  0  0  0  0  0  0  0  0
   -1.4724   -0.8747    0.2755 C   0  0  0  0  0  0  0  0  0  0  0  0
   -3.3114    5.4033   -0.8491 H   0  0  0  0  0  0  0  0  0  0  0  0
    0.9721    2.0085   -0.7047 H   0  0  0  0  0  0  0  0  0  0  0  0
    1.7944   -0.2577   -0.3556 H   0  0  0  0  0  0  0  0  0  0  0  0
    0.2718   -2.1183    0.2718 H   0  0  0  0  0  0  0  0  0  0  0  0
   -2.1793   -1.6541    0.5483 H   0  0  0  0  0  0  0  0  0  0  0  0
   -7.1499    5.8460    1.0846 C   0  0  0  0  0  0  0  0  0  0  0  0
   -8.3639    6.5297    1.1259 C   0  0  0  0  0  0  0  0  0  0  0  0
   -9.1207    6.7350   -0.0358 C   0  0  0  0  0  0  0  0  0  0  0  0
   -8.6359    6.2273   -1.2517 C   0  0  0  0  0  0  0  0  0  0  0  0
   -7.4263    5.5423   -1.3147 C   0  0  0  0  0  0  0  0  0  0  0  0
   -6.6917    5.3636   -0.1406 C   0  0  0  0  0  0  0  0  0  0  0  0
   -6.5698    5.6748    1.9846 H   0  0  0  0  0  0  0  0  0  0  0  0
   -8.7313    6.9058    2.0763 H   0  0  0  0  0  0  0  0  0  0  0  0
   -9.2170    6.3667   -2.1594 H   0  0  0  0  0  0  0  0  0  0  0  0
   -7.0589    5.1374   -2.2510 H   0  0  0  0  0  0  0  0  0  0  0  0
   -5.1473    4.4832   -0.2063 S   0  0  0  0  0  0  0  0  0  0  0  0
   -4.8055    3.9939    1.1273 O   0  0  0  0  0  0  0  0  0  0  0  0
   -4.1753    5.7584   -0.5748 O   0  0  0  0  0  0  0  0  0  0  0  0
   -5.1378    3.5651   -1.3455 O   0  0  0  0  0  0  0  0  0  0  0  0
  -10.4231    7.4970    0.0114 C   0  0  0  0  0  0  0  0  0  0  0  0
  -11.1847    7.0237   -0.6159 H   0  0  0  0  0  0  0  0  0  0  0  0
  -10.8124    7.5629    1.0308 H   0  0  0  0  0  0  0  0  0  0  0  0
  -10.2902    8.5211   -0.3581 H   0  0  0  0  0  0  0  0  0  0  0  0
  1  2  1  0  0  0  0
  1  8  2  0  0  0  0
  2  3  1  0  0  0  0
  4  1  1  0  0  0  0
  5  4  2  0  0  0  0
  5  6  1  0  0  0  0
  6  7  2  0  0  0  0
  7 12  1  0  0  0  0
  7  8  1  0  0  0  0
  8 13  1  0  0  0  0
  9 26  1  0  0  0  0
 10  5  1  0  0  0  0
 11  6  1  0  0  0  0
 14 15  1  0  0  0  0
 14 20  1  0  0  0  0
 15 21  1  0  0  0  0
 16 28  1  0  0  0  0
 16 15  2  0  0  0  0
 17 16  1  0  0  0  0
 18 17  2  0  0  0  0
 18 19  1  0  0  0  0
 19 14  2  0  0  0  0
 22 17  1  0  0  0  0
 23 18  1  0  0  0  0
 24 19  1  0  0  0  0
 24 25  2  0  0  0  0
 26 24  1  0  0  0  0
 27 24  2  0  0  0  0
 28 30  1  0  0  0  0
 29 28  1  0  0  0  0
 31 28  1  0  0  0  0
M  RAD  3   2   2   3   3   4   2
M  END
