Coordinates from ORCA-job PhN2+~TsO-_B3LYPG-6-31G_dp-CH-Scan-d09-49-n800
 OpenBabel11261919273D

 31 31  0  0  0  0  0  0  0  0999 V2000
   -2.3008    0.6403    0.1296 C   0  0  0  0  0  0  0  0  0  0  0  0
   -3.6230    0.3225    0.4216 N   0  0  0  0  0  0  0  0  0  0  0  0
   -4.6946    0.1074    0.6483 N   0  0  0  0  0  0  0  0  0  0  0  0
   -2.0717    1.9860   -0.2115 C   0  0  0  0  0  0  0  0  0  0  0  0
   -0.6986    2.1970   -0.4942 C   0  0  0  0  0  0  0  0  0  0  0  0
    0.2655    1.1940   -0.4347 C   0  0  0  0  0  0  0  0  0  0  0  0
   -0.0689   -0.1315   -0.0779 C   0  0  0  0  0  0  0  0  0  0  0  0
   -1.3802   -0.4371    0.2152 C   0  0  0  0  0  0  0  0  0  0  0  0
   -3.4905    3.4513   -0.2962 H   0  0  0  0  0  0  0  0  0  0  0  0
   -0.3723    3.1969   -0.7765 H   0  0  0  0  0  0  0  0  0  0  0  0
    1.3029    1.4255   -0.6677 H   0  0  0  0  0  0  0  0  0  0  0  0
    0.6952   -0.9006   -0.0347 H   0  0  0  0  0  0  0  0  0  0  0  0
   -1.6933   -1.4385    0.4961 H   0  0  0  0  0  0  0  0  0  0  0  0
   -7.0612    5.4064    1.1268 C   0  0  0  0  0  0  0  0  0  0  0  0
   -7.9550    6.4741    1.0652 C   0  0  0  0  0  0  0  0  0  0  0  0
   -8.5383    6.8623   -0.1487 C   0  0  0  0  0  0  0  0  0  0  0  0
   -8.2128    6.1433   -1.3091 C   0  0  0  0  0  0  0  0  0  0  0  0
   -7.3232    5.0731   -1.2670 C   0  0  0  0  0  0  0  0  0  0  0  0
   -6.7495    4.7185   -0.0450 C   0  0  0  0  0  0  0  0  0  0  0  0
   -6.6191    5.0962    2.0669 H   0  0  0  0  0  0  0  0  0  0  0  0
   -8.2079    7.0114    1.9752 H   0  0  0  0  0  0  0  0  0  0  0  0
   -8.6672    6.4220   -2.2561 H   0  0  0  0  0  0  0  0  0  0  0  0
   -7.0833    4.5068   -2.1603 H   0  0  0  0  0  0  0  0  0  0  0  0
   -5.6113    3.3484    0.0217 S   0  0  0  0  0  0  0  0  0  0  0  0
   -5.5549    2.8329    1.3966 O   0  0  0  0  0  0  0  0  0  0  0  0
   -4.2487    4.1248   -0.3187 O   0  0  0  0  0  0  0  0  0  0  0  0
   -5.9243    2.4025   -1.0564 O   0  0  0  0  0  0  0  0  0  0  0  0
   -9.4834    8.0378   -0.2133 C   0  0  0  0  0  0  0  0  0  0  0  0
  -10.3070    7.8517   -0.9094 H   0  0  0  0  0  0  0  0  0  0  0  0
   -9.9101    8.2638    0.7674 H   0  0  0  0  0  0  0  0  0  0  0  0
   -8.9640    8.9395   -0.5608 H   0  0  0  0  0  0  0  0  0  0  0  0
  1  8  1  0  0  0  0
  1  2  1  0  0  0  0
  2  3  1  0  0  0  0
  4  1  2  0  0  0  0
  5  6  2  0  0  0  0
  5  4  1  0  0  0  0
  6  7  1  0  0  0  0
  7 12  1  0  0  0  0
  7  8  2  0  0  0  0
  8 13  1  0  0  0  0
 10  5  1  0  0  0  0
 11  6  1  0  0  0  0
 14 20  1  0  0  0  0
 15 14  1  0  0  0  0
 15 21  1  0  0  0  0
 16 15  2  0  0  0  0
 17 18  2  0  0  0  0
 17 16  1  0  0  0  0
 18 19  1  0  0  0  0
 19 24  1  0  0  0  0
 19 14  2  0  0  0  0
 22 17  1  0  0  0  0
 23 18  1  0  0  0  0
 24 25  2  0  0  0  0
 26  9  1  0  0  0  0
 26 24  1  0  0  0  0
 27 24  2  0  0  0  0
 28 16  1  0  0  0  0
 28 30  1  0  0  0  0
 29 28  1  0  0  0  0
 31 28  1  0  0  0  0
M  RAD  3   2   2   3   3   4   2
M  END
