Coordinates from ORCA-job PhN2+~TsO-_B3LYPG-6-31G_dp-CH-Scan-d09-49-n800
 OpenBabel11261919283D

 31 31  0  0  0  0  0  0  0  0999 V2000
   -2.2187    0.4623   -0.8024 C   0  0  0  0  0  0  0  0  0  0  0  0
   -3.4167    0.0532   -1.3974 N   0  0  0  0  0  0  0  0  0  0  0  0
   -4.3258   -0.3147   -1.9337 N   0  0  0  0  0  0  0  0  0  0  0  0
   -1.0992   -0.0362   -1.4828 C   0  0  0  0  0  0  0  0  0  0  0  0
    0.0819    0.4395   -0.8363 C   0  0  0  0  0  0  0  0  0  0  0  0
    0.0791    1.2654    0.2822 C   0  0  0  0  0  0  0  0  0  0  0  0
   -1.1299    1.6906    0.8909 C   0  0  0  0  0  0  0  0  0  0  0  0
   -2.3326    1.2860    0.3513 C   0  0  0  0  0  0  0  0  0  0  0  0
   -3.0965    4.0624    0.0013 H   0  0  0  0  0  0  0  0  0  0  0  0
    1.0524    0.1433   -1.2370 H   0  0  0  0  0  0  0  0  0  0  0  0
    1.0209    1.5949    0.7184 H   0  0  0  0  0  0  0  0  0  0  0  0
   -1.1066    2.3088    1.7835 H   0  0  0  0  0  0  0  0  0  0  0  0
   -3.2950    1.5579    0.7728 H   0  0  0  0  0  0  0  0  0  0  0  0
   -7.2673    4.4273    0.6980 C   0  0  0  0  0  0  0  0  0  0  0  0
   -8.3537    5.2189    1.0581 C   0  0  0  0  0  0  0  0  0  0  0  0
   -8.6466    6.4072    0.3710 C   0  0  0  0  0  0  0  0  0  0  0  0
   -7.8171    6.7890   -0.6930 C   0  0  0  0  0  0  0  0  0  0  0  0
   -6.7227    6.0132   -1.0685 C   0  0  0  0  0  0  0  0  0  0  0  0
   -6.4588    4.8393   -0.3630 C   0  0  0  0  0  0  0  0  0  0  0  0
   -7.0507    3.5022    1.2204 H   0  0  0  0  0  0  0  0  0  0  0  0
   -8.9877    4.9089    1.8846 H   0  0  0  0  0  0  0  0  0  0  0  0
   -8.0308    7.7047   -1.2370 H   0  0  0  0  0  0  0  0  0  0  0  0
   -6.0868    6.3020   -1.8982 H   0  0  0  0  0  0  0  0  0  0  0  0
   -5.0681    3.8418   -0.8371 S   0  0  0  0  0  0  0  0  0  0  0  0
   -5.3043    2.4478   -0.4473 O   0  0  0  0  0  0  0  0  0  0  0  0
   -3.9568    4.4771    0.1978 O   0  0  0  0  0  0  0  0  0  0  0  0
   -4.6586    4.1521   -2.2042 O   0  0  0  0  0  0  0  0  0  0  0  0
   -9.8480    7.2368    0.7523 C   0  0  0  0  0  0  0  0  0  0  0  0
  -10.7605    6.8298    0.3003 H   0  0  0  0  0  0  0  0  0  0  0  0
   -9.9999    7.2462    1.8358 H   0  0  0  0  0  0  0  0  0  0  0  0
   -9.7467    8.2706    0.4116 H   0  0  0  0  0  0  0  0  0  0  0  0
  1  8  2  0  0  0  0
  2  1  1  0  0  0  0
  3  2  1  0  0  0  0
  4  5  2  0  0  0  0
  4  1  1  0  0  0  0
  5  6  1  0  0  0  0
  6 11  1  0  0  0  0
  6  7  2  0  0  0  0
  7 12  1  0  0  0  0
  8 13  1  0  0  0  0
  8  7  1  0  0  0  0
  9 26  1  0  0  0  0
 10  5  1  0  0  0  0
 14 15  1  0  0  0  0
 14 20  1  0  0  0  0
 15 21  1  0  0  0  0
 16 28  1  0  0  0  0
 16 15  2  0  0  0  0
 17 16  1  0  0  0  0
 18 17  2  0  0  0  0
 18 19  1  0  0  0  0
 19 14  2  0  0  0  0
 22 17  1  0  0  0  0
 23 18  1  0  0  0  0
 24 25  2  0  0  0  0
 24 19  1  0  0  0  0
 24 26  1  0  0  0  0
 27 24  2  0  0  0  0
 28 30  1  0  0  0  0
 29 28  1  0  0  0  0
 31 28  1  0  0  0  0
M  RAD  3   2   2   3   3   4   2
M  END
