Coordinates from ORCA-job PhN2+~TsO-_B3LYPG-6-31G_dp-CH-Scan-d09-49-n800
 OpenBabel11261919283D

 31 31  0  0  0  0  0  0  0  0999 V2000
   -1.8932    0.4767    0.0735 C   0  0  0  0  0  0  0  0  0  0  0  0
   -3.2588    0.7030    0.2615 N   0  0  0  0  0  0  0  0  0  0  0  0
   -4.3447    0.9321    0.3987 N   0  0  0  0  0  0  0  0  0  0  0  0
   -1.1885    1.6359   -0.2839 C   0  0  0  0  0  0  0  0  0  0  0  0
    0.1887    1.3062   -0.4537 C   0  0  0  0  0  0  0  0  0  0  0  0
    0.7123    0.0282   -0.2862 C   0  0  0  0  0  0  0  0  0  0  0  0
   -0.1075   -1.0687    0.0783 C   0  0  0  0  0  0  0  0  0  0  0  0
   -1.4552   -0.8619    0.2698 C   0  0  0  0  0  0  0  0  0  0  0  0
   -3.3039    5.2777   -0.7669 H   0  0  0  0  0  0  0  0  0  0  0  0
    0.8853    2.0981   -0.7343 H   0  0  0  0  0  0  0  0  0  0  0  0
    1.7764   -0.1492   -0.4370 H   0  0  0  0  0  0  0  0  0  0  0  0
    0.3209   -2.0578    0.2057 H   0  0  0  0  0  0  0  0  0  0  0  0
   -2.1336   -1.6632    0.5510 H   0  0  0  0  0  0  0  0  0  0  0  0
   -7.1572    5.8257    1.0952 C   0  0  0  0  0  0  0  0  0  0  0  0
   -8.3543    6.5392    1.1168 C   0  0  0  0  0  0  0  0  0  0  0  0
   -9.0934    6.7518   -0.0550 C   0  0  0  0  0  0  0  0  0  0  0  0
   -8.6088    6.2198   -1.2605 C   0  0  0  0  0  0  0  0  0  0  0  0
   -7.4159    5.5044   -1.3037 C   0  0  0  0  0  0  0  0  0  0  0  0
   -6.6982    5.3199   -0.1203 C   0  0  0  0  0  0  0  0  0  0  0  0
   -6.5910    5.6494    2.0030 H   0  0  0  0  0  0  0  0  0  0  0  0
   -8.7224    6.9336    2.0595 H   0  0  0  0  0  0  0  0  0  0  0  0
   -9.1767    6.3644   -2.1757 H   0  0  0  0  0  0  0  0  0  0  0  0
   -7.0488    5.0812   -2.2320 H   0  0  0  0  0  0  0  0  0  0  0  0
   -5.1746    4.4024   -0.1610 S   0  0  0  0  0  0  0  0  0  0  0  0
   -4.8577    3.9177    1.1807 O   0  0  0  0  0  0  0  0  0  0  0  0
   -4.1711    5.6517   -0.5306 O   0  0  0  0  0  0  0  0  0  0  0  0
   -5.1771    3.4721   -1.2903 O   0  0  0  0  0  0  0  0  0  0  0  0
  -10.3755    7.5484   -0.0293 C   0  0  0  0  0  0  0  0  0  0  0  0
  -11.1350    7.1031   -0.6792 H   0  0  0  0  0  0  0  0  0  0  0  0
  -10.7863    7.6144    0.9817 H   0  0  0  0  0  0  0  0  0  0  0  0
  -10.2060    8.5724   -0.3838 H   0  0  0  0  0  0  0  0  0  0  0  0
  1  2  1  0  0  0  0
  1  8  1  0  0  0  0
  2  3  1  0  0  0  0
  4  1  2  0  0  0  0
  5  6  2  0  0  0  0
  5  4  1  0  0  0  0
  6  7  1  0  0  0  0
  7 12  1  0  0  0  0
  7  8  2  0  0  0  0
  8 13  1  0  0  0  0
  9 26  1  0  0  0  0
 10  5  1  0  0  0  0
 11  6  1  0  0  0  0
 14 15  1  0  0  0  0
 14 20  1  0  0  0  0
 15 21  1  0  0  0  0
 16 28  1  0  0  0  0
 16 15  2  0  0  0  0
 17 16  1  0  0  0  0
 18 17  2  0  0  0  0
 18 19  1  0  0  0  0
 19 14  2  0  0  0  0
 22 17  1  0  0  0  0
 23 18  1  0  0  0  0
 24 19  1  0  0  0  0
 24 25  2  0  0  0  0
 26 24  1  0  0  0  0
 27 24  2  0  0  0  0
 28 30  1  0  0  0  0
 29 28  1  0  0  0  0
 31 28  1  0  0  0  0
M  RAD  3   2   2   3   3   4   2
M  END
