Coordinates from ORCA-job PhN2+~TsO-_B3LYPG-6-31G_dp-CH-Scan-d09-49-n800
 OpenBabel11261919273D

 31 31  0  0  0  0  0  0  0  0999 V2000
   -2.4535    0.7514    0.1247 C   0  0  0  0  0  0  0  0  0  0  0  0
   -3.7706    0.4333    0.4321 N   0  0  0  0  0  0  0  0  0  0  0  0
   -4.8477    0.2616    0.6643 N   0  0  0  0  0  0  0  0  0  0  0  0
   -2.1821    2.0933   -0.1935 C   0  0  0  0  0  0  0  0  0  0  0  0
   -0.8330    2.3336   -0.4961 C   0  0  0  0  0  0  0  0  0  0  0  0
    0.1272    1.3221   -0.4753 C   0  0  0  0  0  0  0  0  0  0  0  0
   -0.2135   -0.0029   -0.1452 C   0  0  0  0  0  0  0  0  0  0  0  0
   -1.5247   -0.3126    0.1631 C   0  0  0  0  0  0  0  0  0  0  0  0
   -3.1937    3.0836   -0.2058 H   0  0  0  0  0  0  0  0  0  0  0  0
   -0.5303    3.3442   -0.7569 H   0  0  0  0  0  0  0  0  0  0  0  0
    1.1605    1.5551   -0.7189 H   0  0  0  0  0  0  0  0  0  0  0  0
    0.5442   -0.7790   -0.1323 H   0  0  0  0  0  0  0  0  0  0  0  0
   -1.8333   -1.3197    0.4237 H   0  0  0  0  0  0  0  0  0  0  0  0
   -7.0185    5.3499    1.1518 C   0  0  0  0  0  0  0  0  0  0  0  0
   -7.9130    6.4162    1.0636 C   0  0  0  0  0  0  0  0  0  0  0  0
   -8.4593    6.8043   -0.1667 C   0  0  0  0  0  0  0  0  0  0  0  0
   -8.0949    6.0853   -1.3154 C   0  0  0  0  0  0  0  0  0  0  0  0
   -7.2037    5.0177   -1.2440 C   0  0  0  0  0  0  0  0  0  0  0  0
   -6.6656    4.6597   -0.0066 C   0  0  0  0  0  0  0  0  0  0  0  0
   -6.6069    5.0382    2.1052 H   0  0  0  0  0  0  0  0  0  0  0  0
   -8.1961    6.9522    1.9659 H   0  0  0  0  0  0  0  0  0  0  0  0
   -8.5208    6.3622   -2.2767 H   0  0  0  0  0  0  0  0  0  0  0  0
   -6.9362    4.4507   -2.1290 H   0  0  0  0  0  0  0  0  0  0  0  0
   -5.4996    3.3066    0.0901 S   0  0  0  0  0  0  0  0  0  0  0  0
   -5.5301    2.7774    1.4754 O   0  0  0  0  0  0  0  0  0  0  0  0
   -4.1456    3.9763   -0.2131 O   0  0  0  0  0  0  0  0  0  0  0  0
   -5.8474    2.3223   -0.9613 O   0  0  0  0  0  0  0  0  0  0  0  0
   -9.4067    7.9766   -0.2612 C   0  0  0  0  0  0  0  0  0  0  0  0
  -10.2326    7.7703   -0.9494 H   0  0  0  0  0  0  0  0  0  0  0  0
   -9.8321    8.2276    0.7141 H   0  0  0  0  0  0  0  0  0  0  0  0
   -8.8923    8.8710   -0.6346 H   0  0  0  0  0  0  0  0  0  0  0  0
  1  8  1  0  0  0  0
  1  2  1  0  0  0  0
  2  3  1  0  0  0  0
  4  1  2  0  0  0  0
  5  6  2  0  0  0  0
  5  4  1  0  0  0  0
  6  7  1  0  0  0  0
  7 12  1  0  0  0  0
  7  8  2  0  0  0  0
  8 13  1  0  0  0  0
 10  5  1  0  0  0  0
 11  6  1  0  0  0  0
 14 20  1  0  0  0  0
 15 14  1  0  0  0  0
 15 21  1  0  0  0  0
 16 15  2  0  0  0  0
 17 18  2  0  0  0  0
 17 16  1  0  0  0  0
 18 19  1  0  0  0  0
 19 24  1  0  0  0  0
 19 14  2  0  0  0  0
 22 17  1  0  0  0  0
 23 18  1  0  0  0  0
 24 25  2  0  0  0  0
 26  9  1  0  0  0  0
 26 24  1  0  0  0  0
 27 24  2  0  0  0  0
 28 16  1  0  0  0  0
 28 30  1  0  0  0  0
 29 28  1  0  0  0  0
 31 28  1  0  0  0  0
M  RAD  3   2   2   3   3   4   2
M  END
