Coordinates from ORCA-job PhN2+~TsO-_B3LYPG-6-31G_dp-CH-Scan-d09-49-n800
 OpenBabel11261919273D

 31 31  0  0  0  0  0  0  0  0999 V2000
   -2.0539    0.5157    0.0897 C   0  0  0  0  0  0  0  0  0  0  0  0
   -3.4282    0.4596    0.3170 N   0  0  0  0  0  0  0  0  0  0  0  0
   -4.5323    0.4579    0.4890 N   0  0  0  0  0  0  0  0  0  0  0  0
   -1.5894    1.7949   -0.2579 C   0  0  0  0  0  0  0  0  0  0  0  0
   -0.1834    1.7454   -0.4737 C   0  0  0  0  0  0  0  0  0  0  0  0
    0.5827    0.5900   -0.3513 C   0  0  0  0  0  0  0  0  0  0  0  0
    0.0021   -0.6502    0.0087 C   0  0  0  0  0  0  0  0  0  0  0  0
   -1.3539   -0.7124    0.2406 C   0  0  0  0  0  0  0  0  0  0  0  0
   -3.3926    4.3527   -0.4864 H   0  0  0  0  0  0  0  0  0  0  0  0
    0.3355    2.6628   -0.7542 H   0  0  0  0  0  0  0  0  0  0  0  0
    1.6554    0.6266   -0.5352 H   0  0  0  0  0  0  0  0  0  0  0  0
    0.6165   -1.5401    0.1009 H   0  0  0  0  0  0  0  0  0  0  0  0
   -1.8542   -1.6356    0.5205 H   0  0  0  0  0  0  0  0  0  0  0  0
   -7.1292    5.6521    1.1056 C   0  0  0  0  0  0  0  0  0  0  0  0
   -8.1772    6.5700    1.0841 C   0  0  0  0  0  0  0  0  0  0  0  0
   -8.8637    6.8595   -0.1036 C   0  0  0  0  0  0  0  0  0  0  0  0
   -8.4819    6.1943   -1.2790 C   0  0  0  0  0  0  0  0  0  0  0  0
   -7.4380    5.2733   -1.2784 C   0  0  0  0  0  0  0  0  0  0  0  0
   -6.7671    5.0165   -0.0817 C   0  0  0  0  0  0  0  0  0  0  0  0
   -6.6057    5.4176    2.0258 H   0  0  0  0  0  0  0  0  0  0  0  0
   -8.4701    7.0662    2.0051 H   0  0  0  0  0  0  0  0  0  0  0  0
   -9.0130    6.3973   -2.2051 H   0  0  0  0  0  0  0  0  0  0  0  0
   -7.1513    4.7486   -2.1830 H   0  0  0  0  0  0  0  0  0  0  0  0
   -5.4328    3.8384   -0.0666 S   0  0  0  0  0  0  0  0  0  0  0  0
   -5.2347    3.3358    1.2938 O   0  0  0  0  0  0  0  0  0  0  0  0
   -4.2196    4.8699   -0.4370 O   0  0  0  0  0  0  0  0  0  0  0  0
   -5.6007    2.8865   -1.1656 O   0  0  0  0  0  0  0  0  0  0  0  0
   -9.9769    7.8786   -0.1252 C   0  0  0  0  0  0  0  0  0  0  0  0
  -10.7737    7.5858   -0.8153 H   0  0  0  0  0  0  0  0  0  0  0  0
  -10.4158    8.0148    0.8668 H   0  0  0  0  0  0  0  0  0  0  0  0
   -9.6046    8.8560   -0.4560 H   0  0  0  0  0  0  0  0  0  0  0  0
  1  8  1  0  0  0  0
  1  2  1  0  0  0  0
  2  3  1  0  0  0  0
  4  1  2  0  0  0  0
  5  6  2  0  0  0  0
  5  4  1  0  0  0  0
  6  7  1  0  0  0  0
  7 12  1  0  0  0  0
  7  8  2  0  0  0  0
  8 13  1  0  0  0  0
  9 26  1  0  0  0  0
 10  5  1  0  0  0  0
 11  6  1  0  0  0  0
 14 20  1  0  0  0  0
 15 14  1  0  0  0  0
 15 21  1  0  0  0  0
 16 15  2  0  0  0  0
 17 18  2  0  0  0  0
 17 16  1  0  0  0  0
 18 19  1  0  0  0  0
 19 24  1  0  0  0  0
 19 14  2  0  0  0  0
 22 17  1  0  0  0  0
 23 18  1  0  0  0  0
 24 25  2  0  0  0  0
 26 24  1  0  0  0  0
 27 24  2  0  0  0  0
 28 16  1  0  0  0  0
 28 30  1  0  0  0  0
 29 28  1  0  0  0  0
 31 28  1  0  0  0  0
M  RAD  3   2   2   3   3   4   2
M  END
