Coordinates from ORCA-job PhN2+~TsO-_B3LYPG-6-31G_dp-CH-Scan-d09-49-n800
 OpenBabel11261919283D

 31 31  0  0  0  0  0  0  0  0999 V2000
   -1.8724    0.4733    0.0555 C   0  0  0  0  0  0  0  0  0  0  0  0
   -3.2357    0.7343    0.2136 N   0  0  0  0  0  0  0  0  0  0  0  0
   -4.3183    0.9908    0.3272 N   0  0  0  0  0  0  0  0  0  0  0  0
   -1.1340    1.6118   -0.3006 C   0  0  0  0  0  0  0  0  0  0  0  0
    0.2384    1.2482   -0.4381 C   0  0  0  0  0  0  0  0  0  0  0  0
    0.7284   -0.0394   -0.2448 C   0  0  0  0  0  0  0  0  0  0  0  0
   -0.1241   -1.1129    0.1148 C   0  0  0  0  0  0  0  0  0  0  0  0
   -1.4702   -0.8728    0.2758 C   0  0  0  0  0  0  0  0  0  0  0  0
   -3.3093    5.3866   -0.8352 H   0  0  0  0  0  0  0  0  0  0  0  0
    0.9589    2.0204   -0.7132 H   0  0  0  0  0  0  0  0  0  0  0  0
    1.7912   -0.2430   -0.3708 H   0  0  0  0  0  0  0  0  0  0  0  0
    0.2786   -2.1099    0.2623 H   0  0  0  0  0  0  0  0  0  0  0  0
   -2.1729   -1.6550    0.5516 H   0  0  0  0  0  0  0  0  0  0  0  0
   -7.1515    5.8431    1.0867 C   0  0  0  0  0  0  0  0  0  0  0  0
   -8.3634    6.5306    1.1245 C   0  0  0  0  0  0  0  0  0  0  0  0
   -9.1169    6.7370   -0.0391 C   0  0  0  0  0  0  0  0  0  0  0  0
   -8.6311    6.2262   -1.2533 C   0  0  0  0  0  0  0  0  0  0  0  0
   -7.4235    5.5373   -1.3128 C   0  0  0  0  0  0  0  0  0  0  0  0
   -6.6921    5.3578   -0.1369 C   0  0  0  0  0  0  0  0  0  0  0  0
   -6.5739    5.6711    1.9882 H   0  0  0  0  0  0  0  0  0  0  0  0
   -8.7317    6.9089    2.0737 H   0  0  0  0  0  0  0  0  0  0  0  0
   -9.2097    6.3664   -2.1624 H   0  0  0  0  0  0  0  0  0  0  0  0
   -7.0554    5.1302   -2.2478 H   0  0  0  0  0  0  0  0  0  0  0  0
   -5.1502    4.4725   -0.1981 S   0  0  0  0  0  0  0  0  0  0  0  0
   -4.8127    3.9838    1.1368 O   0  0  0  0  0  0  0  0  0  0  0  0
   -4.1738    5.7444   -0.5661 O   0  0  0  0  0  0  0  0  0  0  0  0
   -5.1413    3.5529   -1.3361 O   0  0  0  0  0  0  0  0  0  0  0  0
  -10.4168    7.5034    0.0043 C   0  0  0  0  0  0  0  0  0  0  0  0
  -11.1774    7.0343   -0.6273 H   0  0  0  0  0  0  0  0  0  0  0  0
  -10.8102    7.5685    1.0222 H   0  0  0  0  0  0  0  0  0  0  0  0
  -10.2787    8.5279   -0.3623 H   0  0  0  0  0  0  0  0  0  0  0  0
  1  2  1  0  0  0  0
  1  8  2  0  0  0  0
  2  3  1  0  0  0  0
  4  1  1  0  0  0  0
  5  4  2  0  0  0  0
  5  6  1  0  0  0  0
  6  7  2  0  0  0  0
  7 12  1  0  0  0  0
  7  8  1  0  0  0  0
  8 13  1  0  0  0  0
  9 26  1  0  0  0  0
 10  5  1  0  0  0  0
 11  6  1  0  0  0  0
 14 15  1  0  0  0  0
 14 20  1  0  0  0  0
 15 21  1  0  0  0  0
 16 28  1  0  0  0  0
 16 15  2  0  0  0  0
 17 16  1  0  0  0  0
 18 17  2  0  0  0  0
 18 19  1  0  0  0  0
 19 14  2  0  0  0  0
 22 17  1  0  0  0  0
 23 18  1  0  0  0  0
 24 19  1  0  0  0  0
 24 25  2  0  0  0  0
 26 24  1  0  0  0  0
 27 24  2  0  0  0  0
 28 30  1  0  0  0  0
 29 28  1  0  0  0  0
 31 28  1  0  0  0  0
M  RAD  3   2   2   3   3   4   2
M  END
