Coordinates from ORCA-job PhN2+~TsO-_B3LYPG-6-31G_dp-CH-Scan-d09-49-n800
 OpenBabel11261919273D

 31 31  0  0  0  0  0  0  0  0999 V2000
   -2.0100    0.4989    0.0925 C   0  0  0  0  0  0  0  0  0  0  0  0
   -3.3859    0.5084    0.3219 N   0  0  0  0  0  0  0  0  0  0  0  0
   -4.4888    0.5604    0.4950 N   0  0  0  0  0  0  0  0  0  0  0  0
   -1.4924    1.7549   -0.2629 C   0  0  0  0  0  0  0  0  0  0  0  0
   -0.0900    1.6395   -0.4829 C   0  0  0  0  0  0  0  0  0  0  0  0
    0.6237    0.4516   -0.3568 C   0  0  0  0  0  0  0  0  0  0  0  0
   -0.0107   -0.7597    0.0122 C   0  0  0  0  0  0  0  0  0  0  0  0
   -1.3673   -0.7595    0.2489 C   0  0  0  0  0  0  0  0  0  0  0  0
   -3.3592    4.5769   -0.5172 H   0  0  0  0  0  0  0  0  0  0  0  0
    0.4696    2.5309   -0.7700 H   0  0  0  0  0  0  0  0  0  0  0  0
    1.6963    0.4385   -0.5446 H   0  0  0  0  0  0  0  0  0  0  0  0
    0.5638   -1.6757    0.1074 H   0  0  0  0  0  0  0  0  0  0  0  0
   -1.9081   -1.6576    0.5354 H   0  0  0  0  0  0  0  0  0  0  0  0
   -7.1473    5.6988    1.1080 C   0  0  0  0  0  0  0  0  0  0  0  0
   -8.2331    6.5720    1.0898 C   0  0  0  0  0  0  0  0  0  0  0  0
   -8.9271    6.8418   -0.0981 C   0  0  0  0  0  0  0  0  0  0  0  0
   -8.5134    6.2030   -1.2774 C   0  0  0  0  0  0  0  0  0  0  0  0
   -7.4315    5.3271   -1.2804 C   0  0  0  0  0  0  0  0  0  0  0  0
   -6.7546    5.0891   -0.0831 C   0  0  0  0  0  0  0  0  0  0  0  0
   -6.6176    5.4792    2.0283 H   0  0  0  0  0  0  0  0  0  0  0  0
   -8.5497    7.0479    2.0135 H   0  0  0  0  0  0  0  0  0  0  0  0
   -9.0493    6.3910   -2.2039 H   0  0  0  0  0  0  0  0  0  0  0  0
   -7.1198    4.8227   -2.1882 H   0  0  0  0  0  0  0  0  0  0  0  0
   -5.3718    3.9687   -0.0729 S   0  0  0  0  0  0  0  0  0  0  0  0
   -5.1537    3.4671    1.2841 O   0  0  0  0  0  0  0  0  0  0  0  0
   -4.2029    5.0583   -0.4338 O   0  0  0  0  0  0  0  0  0  0  0  0
   -5.4923    3.0209   -1.1809 O   0  0  0  0  0  0  0  0  0  0  0  0
  -10.0827    7.8127   -0.1162 C   0  0  0  0  0  0  0  0  0  0  0  0
  -10.8711    7.4829   -0.7994 H   0  0  0  0  0  0  0  0  0  0  0  0
  -10.5201    7.9346    0.8782 H   0  0  0  0  0  0  0  0  0  0  0  0
   -9.7545    8.8033   -0.4543 H   0  0  0  0  0  0  0  0  0  0  0  0
  1  8  1  0  0  0  0
  1  2  1  0  0  0  0
  2  3  1  0  0  0  0
  4  1  2  0  0  0  0
  5  6  2  0  0  0  0
  5  4  1  0  0  0  0
  6  7  1  0  0  0  0
  7 12  1  0  0  0  0
  7  8  2  0  0  0  0
  8 13  1  0  0  0  0
  9 26  1  0  0  0  0
 10  5  1  0  0  0  0
 11  6  1  0  0  0  0
 14 20  1  0  0  0  0
 15 14  1  0  0  0  0
 15 21  1  0  0  0  0
 16 15  2  0  0  0  0
 17 16  1  0  0  0  0
 18 17  2  0  0  0  0
 18 19  1  0  0  0  0
 19 24  1  0  0  0  0
 19 14  2  0  0  0  0
 22 17  1  0  0  0  0
 23 18  1  0  0  0  0
 24 25  2  0  0  0  0
 26 24  1  0  0  0  0
 27 24  2  0  0  0  0
 28 16  1  0  0  0  0
 28 30  1  0  0  0  0
 29 28  1  0  0  0  0
 31 28  1  0  0  0  0
M  RAD  3   2   2   3   3   4   2
M  END
