Coordinates from ORCA-job PhN2+~TsO-_B3LYPG-6-31G_dp-CH-Scan-d09-49-n800
 OpenBabel11261919283D

 31 31  0  0  0  0  0  0  0  0999 V2000
   -1.8488    0.4680    0.0358 C   0  0  0  0  0  0  0  0  0  0  0  0
   -3.2090    0.7595    0.1643 N   0  0  0  0  0  0  0  0  0  0  0  0
   -4.2880    1.0396    0.2538 N   0  0  0  0  0  0  0  0  0  0  0  0
   -1.0804    1.5858   -0.3221 C   0  0  0  0  0  0  0  0  0  0  0  0
    0.2866    1.1921   -0.4277 C   0  0  0  0  0  0  0  0  0  0  0  0
    0.7460   -0.1022   -0.2060 C   0  0  0  0  0  0  0  0  0  0  0  0
   -0.1353   -1.1528    0.1519 C   0  0  0  0  0  0  0  0  0  0  0  0
   -1.4791   -0.8830    0.2829 C   0  0  0  0  0  0  0  0  0  0  0  0
   -3.3178    5.4835   -0.8872 H   0  0  0  0  0  0  0  0  0  0  0  0
    1.0280    1.9454   -0.6997 H   0  0  0  0  0  0  0  0  0  0  0  0
    1.8067   -0.3292   -0.3075 H   0  0  0  0  0  0  0  0  0  0  0  0
    0.2438   -2.1554    0.3217 H   0  0  0  0  0  0  0  0  0  0  0  0
   -2.2030   -1.6467    0.5557 H   0  0  0  0  0  0  0  0  0  0  0  0
   -7.1497    5.8583    1.0792 C   0  0  0  0  0  0  0  0  0  0  0  0
   -8.3735    6.5236    1.1317 C   0  0  0  0  0  0  0  0  0  0  0  0
   -9.1392    6.7263   -0.0245 C   0  0  0  0  0  0  0  0  0  0  0  0
   -8.6530    6.2352   -1.2468 C   0  0  0  0  0  0  0  0  0  0  0  0
   -7.4337    5.5688   -1.3210 C   0  0  0  0  0  0  0  0  0  0  0  0
   -6.6907    5.3921   -0.1519 C   0  0  0  0  0  0  0  0  0  0  0  0
   -6.5626    5.6891    1.9750 H   0  0  0  0  0  0  0  0  0  0  0  0
   -8.7415    6.8872    2.0867 H   0  0  0  0  0  0  0  0  0  0  0  0
   -9.2407    6.3729   -2.1505 H   0  0  0  0  0  0  0  0  0  0  0  0
   -7.0651    5.1767   -2.2622 H   0  0  0  0  0  0  0  0  0  0  0  0
   -5.1340    4.5349   -0.2319 S   0  0  0  0  0  0  0  0  0  0  0  0
   -4.7791    4.0399    1.0960 O   0  0  0  0  0  0  0  0  0  0  0  0
   -4.1808    5.8263   -0.5947 O   0  0  0  0  0  0  0  0  0  0  0  0
   -5.1157    3.6271   -1.3793 O   0  0  0  0  0  0  0  0  0  0  0  0
  -10.4535    7.4667    0.0348 C   0  0  0  0  0  0  0  0  0  0  0  0
  -11.2166    6.9729   -0.5747 H   0  0  0  0  0  0  0  0  0  0  0  0
  -10.8279    7.5378    1.0594 H   0  0  0  0  0  0  0  0  0  0  0  0
  -10.3443    8.4882   -0.3490 H   0  0  0  0  0  0  0  0  0  0  0  0
  1  2  1  0  0  0  0
  1  8  2  0  0  0  0
  2  3  1  0  0  0  0
  4  1  1  0  0  0  0
  5  4  2  0  0  0  0
  5  6  1  0  0  0  0
  6  7  2  0  0  0  0
  7  8  1  0  0  0  0
  7 12  1  0  0  0  0
  8 13  1  0  0  0  0
  9 26  1  0  0  0  0
 10  5  1  0  0  0  0
 11  6  1  0  0  0  0
 14 15  1  0  0  0  0
 14 20  1  0  0  0  0
 15 21  1  0  0  0  0
 16 28  1  0  0  0  0
 16 15  2  0  0  0  0
 17 16  1  0  0  0  0
 18 17  2  0  0  0  0
 18 19  1  0  0  0  0
 19 14  2  0  0  0  0
 22 17  1  0  0  0  0
 23 18  1  0  0  0  0
 24 19  1  0  0  0  0
 24 25  2  0  0  0  0
 26 24  1  0  0  0  0
 27 24  2  0  0  0  0
 28 30  1  0  0  0  0
 29 28  1  0  0  0  0
 31 28  1  0  0  0  0
M  RAD  3   2   2   3   3   4   2
M  END
