Coordinates from ORCA-job PhN2+~TsO-_B3LYPG-6-31G_dp-CH-Scan-d09-49-n800
 OpenBabel11261919273D

 31 31  0  0  0  0  0  0  0  0999 V2000
   -2.0056    0.4979    0.0941 C   0  0  0  0  0  0  0  0  0  0  0  0
   -3.3810    0.5226    0.3263 N   0  0  0  0  0  0  0  0  0  0  0  0
   -4.4829    0.5890    0.5008 N   0  0  0  0  0  0  0  0  0  0  0  0
   -1.4767    1.7488   -0.2628 C   0  0  0  0  0  0  0  0  0  0  0  0
   -0.0759    1.6188   -0.4857 C   0  0  0  0  0  0  0  0  0  0  0  0
    0.6260    0.4238   -0.3609 C   0  0  0  0  0  0  0  0  0  0  0  0
   -0.0198   -0.7810    0.0099 C   0  0  0  0  0  0  0  0  0  0  0  0
   -1.3757   -0.7670    0.2495 C   0  0  0  0  0  0  0  0  0  0  0  0
   -3.3476    4.6277   -0.5215 H   0  0  0  0  0  0  0  0  0  0  0  0
    0.4923    2.5044   -0.7743 H   0  0  0  0  0  0  0  0  0  0  0  0
    1.6981    0.3998   -0.5511 H   0  0  0  0  0  0  0  0  0  0  0  0
    0.5458   -1.7026    0.1041 H   0  0  0  0  0  0  0  0  0  0  0  0
   -1.9250   -1.6595    0.5375 H   0  0  0  0  0  0  0  0  0  0  0  0
   -7.1487    5.7080    1.1095 C   0  0  0  0  0  0  0  0  0  0  0  0
   -8.2436    6.5696    1.0909 C   0  0  0  0  0  0  0  0  0  0  0  0
   -8.9383    6.8341   -0.0978 C   0  0  0  0  0  0  0  0  0  0  0  0
   -8.5158    6.2017   -1.2774 C   0  0  0  0  0  0  0  0  0  0  0  0
   -7.4246    5.3374   -1.2800 C   0  0  0  0  0  0  0  0  0  0  0  0
   -6.7474    5.1045   -0.0819 C   0  0  0  0  0  0  0  0  0  0  0  0
   -6.6182    5.4924    2.0304 H   0  0  0  0  0  0  0  0  0  0  0  0
   -8.5668    7.0406    2.0148 H   0  0  0  0  0  0  0  0  0  0  0  0
   -9.0521    6.3856   -2.2046 H   0  0  0  0  0  0  0  0  0  0  0  0
   -7.1061    4.8379   -2.1881 H   0  0  0  0  0  0  0  0  0  0  0  0
   -5.3529    3.9989   -0.0712 S   0  0  0  0  0  0  0  0  0  0  0  0
   -5.1314    3.4979    1.2853 O   0  0  0  0  0  0  0  0  0  0  0  0
   -4.1945    5.1016   -0.4289 O   0  0  0  0  0  0  0  0  0  0  0  0
   -5.4609    3.0520   -1.1813 O   0  0  0  0  0  0  0  0  0  0  0  0
  -10.1042    7.7926   -0.1164 C   0  0  0  0  0  0  0  0  0  0  0  0
  -10.8897    7.4532   -0.7982 H   0  0  0  0  0  0  0  0  0  0  0  0
  -10.5418    7.9117    0.8783 H   0  0  0  0  0  0  0  0  0  0  0  0
   -9.7869    8.7860   -0.4568 H   0  0  0  0  0  0  0  0  0  0  0  0
  1  8  1  0  0  0  0
  1  2  1  0  0  0  0
  2  3  1  0  0  0  0
  4  1  2  0  0  0  0
  5  6  2  0  0  0  0
  5  4  1  0  0  0  0
  6  7  1  0  0  0  0
  7 12  1  0  0  0  0
  7  8  2  0  0  0  0
  8 13  1  0  0  0  0
  9 26  1  0  0  0  0
 10  5  1  0  0  0  0
 11  6  1  0  0  0  0
 14 20  1  0  0  0  0
 15 14  1  0  0  0  0
 15 21  1  0  0  0  0
 16 15  2  0  0  0  0
 17 16  1  0  0  0  0
 18 17  2  0  0  0  0
 18 19  1  0  0  0  0
 19 24  1  0  0  0  0
 19 14  2  0  0  0  0
 22 17  1  0  0  0  0
 23 18  1  0  0  0  0
 24 25  2  0  0  0  0
 26 24  1  0  0  0  0
 27 24  2  0  0  0  0
 28 16  1  0  0  0  0
 28 30  1  0  0  0  0
 29 28  1  0  0  0  0
 31 28  1  0  0  0  0
M  RAD  3   2   2   3   3   4   2
M  END
