Coordinates from ORCA-job PhN2+~TsO-_B3LYPG-6-31G_dp-CH-Scan-d09-49-n800
 OpenBabel11261919273D

 31 31  0  0  0  0  0  0  0  0999 V2000
   -2.6966    0.8063    0.0271 C   0  0  0  0  0  0  0  0  0  0  0  0
   -4.0542    0.8441    0.3749 N   0  0  0  0  0  0  0  0  0  0  0  0
   -5.0616    1.3905    0.3568 N   0  0  0  0  0  0  0  0  0  0  0  0
   -2.1141    1.8565   -0.7018 C   0  0  0  0  0  0  0  0  0  0  0  0
   -0.7586    1.7499   -1.0011 C   0  0  0  0  0  0  0  0  0  0  0  0
   -0.0191    0.6363   -0.5905 C   0  0  0  0  0  0  0  0  0  0  0  0
   -0.6236   -0.3964    0.1343 C   0  0  0  0  0  0  0  0  0  0  0  0
   -1.9746   -0.3173    0.4512 C   0  0  0  0  0  0  0  0  0  0  0  0
   -2.6885    2.6790   -0.9949 H   0  0  0  0  0  0  0  0  0  0  0  0
   -0.2795    2.5490   -1.5574 H   0  0  0  0  0  0  0  0  0  0  0  0
    1.0366    0.5727   -0.8360 H   0  0  0  0  0  0  0  0  0  0  0  0
   -0.0437   -1.2564    0.4521 H   0  0  0  0  0  0  0  0  0  0  0  0
   -2.4750   -1.0973    1.0146 H   0  0  0  0  0  0  0  0  0  0  0  0
   -7.2441    4.9358    1.0183 C   0  0  0  0  0  0  0  0  0  0  0  0
   -8.4465    5.6322    0.9158 C   0  0  0  0  0  0  0  0  0  0  0  0
   -8.6455    6.5918   -0.0877 C   0  0  0  0  0  0  0  0  0  0  0  0
   -7.5970    6.8461   -0.9825 C   0  0  0  0  0  0  0  0  0  0  0  0
   -6.3877    6.1581   -0.8921 C   0  0  0  0  0  0  0  0  0  0  0  0
   -6.2202    5.1999    0.1075 C   0  0  0  0  0  0  0  0  0  0  0  0
   -7.0840    4.2080    1.8066 H   0  0  0  0  0  0  0  0  0  0  0  0
   -9.2416    5.4326    1.6306 H   0  0  0  0  0  0  0  0  0  0  0  0
   -7.7267    7.5982   -1.7570 H   0  0  0  0  0  0  0  0  0  0  0  0
   -5.5703    6.3703   -1.5729 H   0  0  0  0  0  0  0  0  0  0  0  0
   -4.6824    4.2829    0.2084 S   0  0  0  0  0  0  0  0  0  0  0  0
   -4.5219    3.8285    1.6039 O   0  0  0  0  0  0  0  0  0  0  0  0
   -3.6261    5.1306   -0.3727 O   0  0  0  0  0  0  0  0  0  0  0  0
   -4.9013    3.0544   -0.7255 O   0  0  0  0  0  0  0  0  0  0  0  0
   -9.9632    7.3204   -0.2087 C   0  0  0  0  0  0  0  0  0  0  0  0
  -10.6979    6.7185   -0.7587 H   0  0  0  0  0  0  0  0  0  0  0  0
  -10.3928    7.5363    0.7743 H   0  0  0  0  0  0  0  0  0  0  0  0
   -9.8501    8.2671   -0.7446 H   0  0  0  0  0  0  0  0  0  0  0  0
  1  2  1  0  0  0  0
  1  8  2  0  0  0  0
  3  2  2  0  0  0  0
  4  1  1  0  0  0  0
  5  4  2  0  0  0  0
  5  6  1  0  0  0  0
  6  7  2  0  0  0  0
  7  8  1  0  0  0  0
  7 12  1  0  0  0  0
  8 13  1  0  0  0  0
  9  4  1  0  0  0  0
 10  5  1  0  0  0  0
 11  6  1  0  0  0  0
 14 20  1  0  0  0  0
 15 14  1  0  0  0  0
 15 21  1  0  0  0  0
 16 15  2  0  0  0  0
 17 18  2  0  0  0  0
 17 16  1  0  0  0  0
 18 19  1  0  0  0  0
 19 24  1  0  0  0  0
 19 14  2  0  0  0  0
 22 17  1  0  0  0  0
 23 18  1  0  0  0  0
 24 25  1  0  0  0  0
 26 24  2  0  0  0  0
 27 24  2  0  0  0  0
 28 16  1  0  0  0  0
 28 30  1  0  0  0  0
 29 28  1  0  0  0  0
 31 28  1  0  0  0  0
M  RAD  2   3   2  25   2
M  END
