Coordinates from ORCA-job PhN2+~TsO-_B3LYPG-6-31G_dp-CH-Scan-d09-49-n800
 OpenBabel11261919283D

 31 31  0  0  0  0  0  0  0  0999 V2000
   -1.8409    0.4658    0.0299 C   0  0  0  0  0  0  0  0  0  0  0  0
   -3.2001    0.7659    0.1501 N   0  0  0  0  0  0  0  0  0  0  0  0
   -4.2780    1.0525    0.2328 N   0  0  0  0  0  0  0  0  0  0  0  0
   -1.0644    1.5776   -0.3291 C   0  0  0  0  0  0  0  0  0  0  0  0
    0.3009    1.1755   -0.4258 C   0  0  0  0  0  0  0  0  0  0  0  0
    0.7517   -0.1203   -0.1955 C   0  0  0  0  0  0  0  0  0  0  0  0
   -0.1375   -1.1641    0.1626 C   0  0  0  0  0  0  0  0  0  0  0  0
   -1.4804   -0.8861    0.2852 C   0  0  0  0  0  0  0  0  0  0  0  0
   -3.3209    5.5101   -0.8995 H   0  0  0  0  0  0  0  0  0  0  0  0
    1.0480    1.9233   -0.6974 H   0  0  0  0  0  0  0  0  0  0  0  0
    1.8116   -0.3537   -0.2902 H   0  0  0  0  0  0  0  0  0  0  0  0
    0.2351   -2.1681    0.3391 H   0  0  0  0  0  0  0  0  0  0  0  0
   -2.2101   -1.6444    0.5577 H   0  0  0  0  0  0  0  0  0  0  0  0
   -7.1502    5.8627    1.0773 C   0  0  0  0  0  0  0  0  0  0  0  0
   -8.3771    6.5220    1.1337 C   0  0  0  0  0  0  0  0  0  0  0  0
   -9.1458    6.7240   -0.0206 C   0  0  0  0  0  0  0  0  0  0  0  0
   -8.6595    6.2384   -1.2450 C   0  0  0  0  0  0  0  0  0  0  0  0
   -7.4372    5.5780   -1.3232 C   0  0  0  0  0  0  0  0  0  0  0  0
   -6.6913    5.4018   -0.1558 C   0  0  0  0  0  0  0  0  0  0  0  0
   -6.5607    5.6939    1.9716 H   0  0  0  0  0  0  0  0  0  0  0  0
   -8.7451    6.8815    2.0902 H   0  0  0  0  0  0  0  0  0  0  0  0
   -9.2494    6.3757   -2.1473 H   0  0  0  0  0  0  0  0  0  0  0  0
   -7.0684    5.1901   -2.2661 H   0  0  0  0  0  0  0  0  0  0  0  0
   -5.1308    4.5520   -0.2408 S   0  0  0  0  0  0  0  0  0  0  0  0
   -4.7713    4.0550    1.0851 O   0  0  0  0  0  0  0  0  0  0  0  0
   -4.1837    5.8487   -0.6017 O   0  0  0  0  0  0  0  0  0  0  0  0
   -5.1098    3.6478   -1.3910 O   0  0  0  0  0  0  0  0  0  0  0  0
  -10.4638    7.4575    0.0430 C   0  0  0  0  0  0  0  0  0  0  0  0
  -11.2277    6.9566   -0.5598 H   0  0  0  0  0  0  0  0  0  0  0  0
  -10.8327    7.5312    1.0692 H   0  0  0  0  0  0  0  0  0  0  0  0
  -10.3626    8.4777   -0.3464 H   0  0  0  0  0  0  0  0  0  0  0  0
  1  2  1  0  0  0  0
  1  8  2  0  0  0  0
  2  3  1  0  0  0  0
  4  1  1  0  0  0  0
  5  4  2  0  0  0  0
  5  6  1  0  0  0  0
  6  7  2  0  0  0  0
  7  8  1  0  0  0  0
  7 12  1  0  0  0  0
  8 13  1  0  0  0  0
  9 26  1  0  0  0  0
 10  5  1  0  0  0  0
 11  6  1  0  0  0  0
 14 15  1  0  0  0  0
 14 20  1  0  0  0  0
 15 21  1  0  0  0  0
 16 28  1  0  0  0  0
 16 15  2  0  0  0  0
 17 16  1  0  0  0  0
 18 17  2  0  0  0  0
 18 19  1  0  0  0  0
 19 14  2  0  0  0  0
 22 17  1  0  0  0  0
 23 18  1  0  0  0  0
 24 19  1  0  0  0  0
 24 25  2  0  0  0  0
 26 24  1  0  0  0  0
 27 24  2  0  0  0  0
 28 30  1  0  0  0  0
 29 28  1  0  0  0  0
 31 28  1  0  0  0  0
M  RAD  3   2   2   3   3   4   2
M  END
