Coordinates from ORCA-job PhN2+~TsO-_B3LYPG-6-31G_dp-CH-Scan-d09-49-n800
 OpenBabel11261919273D

 31 31  0  0  0  0  0  0  0  0999 V2000
   -2.4564    0.7377    0.1188 C   0  0  0  0  0  0  0  0  0  0  0  0
   -3.7429    0.5258    0.6052 N   0  0  0  0  0  0  0  0  0  0  0  0
   -4.8277    0.5751    0.8913 N   0  0  0  0  0  0  0  0  0  0  0  0
   -2.1101    2.0397   -0.2745 C   0  0  0  0  0  0  0  0  0  0  0  0
   -0.8091    2.1983   -0.7556 C   0  0  0  0  0  0  0  0  0  0  0  0
    0.0724    1.1175   -0.8333 C   0  0  0  0  0  0  0  0  0  0  0  0
   -0.3170   -0.1677   -0.4246 C   0  0  0  0  0  0  0  0  0  0  0  0
   -1.5960   -0.3747    0.0668 C   0  0  0  0  0  0  0  0  0  0  0  0
   -2.9531    3.0239   -0.1648 H   0  0  0  0  0  0  0  0  0  0  0  0
   -0.4840    3.1843   -1.0719 H   0  0  0  0  0  0  0  0  0  0  0  0
    1.0785    1.2712   -1.2126 H   0  0  0  0  0  0  0  0  0  0  0  0
    0.3779   -0.9981   -0.4885 H   0  0  0  0  0  0  0  0  0  0  0  0
   -1.9337   -1.3515    0.3955 H   0  0  0  0  0  0  0  0  0  0  0  0
   -7.3489    5.2975    1.3089 C   0  0  0  0  0  0  0  0  0  0  0  0
   -8.3308    6.2567    1.0500 C   0  0  0  0  0  0  0  0  0  0  0  0
   -8.5338    6.7549   -0.2414 C   0  0  0  0  0  0  0  0  0  0  0  0
   -7.7231    6.2664   -1.2797 C   0  0  0  0  0  0  0  0  0  0  0  0
   -6.7410    5.3117   -1.0374 C   0  0  0  0  0  0  0  0  0  0  0  0
   -6.5587    4.8302    0.2624 C   0  0  0  0  0  0  0  0  0  0  0  0
   -7.1846    4.9111    2.3086 H   0  0  0  0  0  0  0  0  0  0  0  0
   -8.9465    6.6241    1.8672 H   0  0  0  0  0  0  0  0  0  0  0  0
   -7.8643    6.6431   -2.2901 H   0  0  0  0  0  0  0  0  0  0  0  0
   -6.1158    4.9439   -1.8439 H   0  0  0  0  0  0  0  0  0  0  0  0
   -5.3020    3.5942    0.5884 S   0  0  0  0  0  0  0  0  0  0  0  0
   -5.2922    3.3307    2.0427 O   0  0  0  0  0  0  0  0  0  0  0  0
   -4.0193    4.1913    0.0609 O   0  0  0  0  0  0  0  0  0  0  0  0
   -5.6839    2.3861   -0.2319 O   0  0  0  0  0  0  0  0  0  0  0  0
   -9.5928    7.7951   -0.5218 C   0  0  0  0  0  0  0  0  0  0  0  0
  -10.3226    7.4339   -1.2561 H   0  0  0  0  0  0  0  0  0  0  0  0
  -10.1379    8.0655    0.3864 H   0  0  0  0  0  0  0  0  0  0  0  0
   -9.1523    8.7109   -0.9326 H   0  0  0  0  0  0  0  0  0  0  0  0
  1  2  1  0  0  0  0
  2  3  1  0  0  0  0
  4  9  1  0  0  0  0
  4  1  2  0  0  0  0
  5  4  1  0  0  0  0
  6  5  2  0  0  0  0
  6  7  1  0  0  0  0
  7  8  2  0  0  0  0
  8  1  1  0  0  0  0
  8 13  1  0  0  0  0
 10  5  1  0  0  0  0
 11  6  1  0  0  0  0
 12  7  1  0  0  0  0
 14 20  1  0  0  0  0
 15 14  1  0  0  0  0
 15 21  1  0  0  0  0
 16 15  2  0  0  0  0
 17 18  2  0  0  0  0
 17 16  1  0  0  0  0
 18 19  1  0  0  0  0
 19 24  1  0  0  0  0
 19 14  2  0  0  0  0
 22 17  1  0  0  0  0
 23 18  1  0  0  0  0
 24 25  1  0  0  0  0
 26 24  2  0  0  0  0
 27 24  2  0  0  0  0
 28 16  1  0  0  0  0
 28 30  1  0  0  0  0
 29 28  1  0  0  0  0
 31 28  1  0  0  0  0
M  RAD  3   2   2   3   3  25   2
M  END
