Coordinates from ORCA-job PhN2+~TsO-_B3LYPG-6-31G_dp-CH-Scan-d09-49-n800
 OpenBabel11261919273D

 31 31  0  0  0  0  0  0  0  0999 V2000
   -2.3003    0.6398    0.1266 C   0  0  0  0  0  0  0  0  0  0  0  0
   -3.6236    0.3231    0.4150 N   0  0  0  0  0  0  0  0  0  0  0  0
   -4.6960    0.1091    0.6389 N   0  0  0  0  0  0  0  0  0  0  0  0
   -2.0691    1.9856   -0.2122 C   0  0  0  0  0  0  0  0  0  0  0  0
   -0.6951    2.1956   -0.4917 C   0  0  0  0  0  0  0  0  0  0  0  0
    0.2678    1.1916   -0.4313 C   0  0  0  0  0  0  0  0  0  0  0  0
   -0.0688   -0.1341   -0.0768 C   0  0  0  0  0  0  0  0  0  0  0  0
   -1.3811   -0.4388    0.2129 C   0  0  0  0  0  0  0  0  0  0  0  0
   -3.4903    3.4556   -0.2984 H   0  0  0  0  0  0  0  0  0  0  0  0
   -0.3672    3.1955   -0.7720 H   0  0  0  0  0  0  0  0  0  0  0  0
    1.3060    1.4222   -0.6616 H   0  0  0  0  0  0  0  0  0  0  0  0
    0.6944   -0.9040   -0.0329 H   0  0  0  0  0  0  0  0  0  0  0  0
   -1.6959   -1.4402    0.4918 H   0  0  0  0  0  0  0  0  0  0  0  0
   -7.0594    5.4096    1.1271 C   0  0  0  0  0  0  0  0  0  0  0  0
   -7.9542    6.4764    1.0651 C   0  0  0  0  0  0  0  0  0  0  0  0
   -8.5399    6.8621   -0.1484 C   0  0  0  0  0  0  0  0  0  0  0  0
   -8.2158    6.1414   -1.3082 C   0  0  0  0  0  0  0  0  0  0  0  0
   -7.3253    5.0720   -1.2658 C   0  0  0  0  0  0  0  0  0  0  0  0
   -6.7492    4.7199   -0.0441 C   0  0  0  0  0  0  0  0  0  0  0  0
   -6.6156    5.1012    2.0669 H   0  0  0  0  0  0  0  0  0  0  0  0
   -8.2060    7.0150    1.9746 H   0  0  0  0  0  0  0  0  0  0  0  0
   -8.6721    6.4182   -2.2549 H   0  0  0  0  0  0  0  0  0  0  0  0
   -7.0864    4.5044   -2.1585 H   0  0  0  0  0  0  0  0  0  0  0  0
   -5.6099    3.3508    0.0228 S   0  0  0  0  0  0  0  0  0  0  0  0
   -5.5508    2.8376    1.3985 O   0  0  0  0  0  0  0  0  0  0  0  0
   -4.2484    4.1282   -0.3208 O   0  0  0  0  0  0  0  0  0  0  0  0
   -5.9237    2.4031   -1.0533 O   0  0  0  0  0  0  0  0  0  0  0  0
   -9.4860    8.0367   -0.2134 C   0  0  0  0  0  0  0  0  0  0  0  0
  -10.3105    7.8489   -0.9080 H   0  0  0  0  0  0  0  0  0  0  0  0
   -9.9115    8.2638    0.7675 H   0  0  0  0  0  0  0  0  0  0  0  0
   -8.9678    8.9383   -0.5630 H   0  0  0  0  0  0  0  0  0  0  0  0
  1  8  1  0  0  0  0
  1  2  1  0  0  0  0
  2  3  1  0  0  0  0
  4  1  2  0  0  0  0
  5  6  2  0  0  0  0
  5  4  1  0  0  0  0
  6  7  1  0  0  0  0
  7 12  1  0  0  0  0
  7  8  2  0  0  0  0
  8 13  1  0  0  0  0
 10  5  1  0  0  0  0
 11  6  1  0  0  0  0
 14 20  1  0  0  0  0
 15 14  1  0  0  0  0
 15 21  1  0  0  0  0
 16 15  2  0  0  0  0
 17 18  2  0  0  0  0
 17 16  1  0  0  0  0
 18 19  1  0  0  0  0
 19 24  1  0  0  0  0
 19 14  2  0  0  0  0
 22 17  1  0  0  0  0
 23 18  1  0  0  0  0
 24 25  2  0  0  0  0
 26  9  1  0  0  0  0
 26 24  1  0  0  0  0
 27 24  2  0  0  0  0
 28 16  1  0  0  0  0
 28 30  1  0  0  0  0
 29 28  1  0  0  0  0
 31 28  1  0  0  0  0
M  RAD  3   2   2   3   3   4   2
M  END
