Coordinates from ORCA-job PhN2+~TsO-_B3LYPG-6-31G_dp-CH-Scan-d09-49-n800
 OpenBabel11261919283D

 31 31  0  0  0  0  0  0  0  0999 V2000
   -1.9085    0.4779    0.0830 C   0  0  0  0  0  0  0  0  0  0  0  0
   -3.2757    0.6777    0.2872 N   0  0  0  0  0  0  0  0  0  0  0  0
   -4.3638    0.8863    0.4381 N   0  0  0  0  0  0  0  0  0  0  0  0
   -1.2290    1.6520   -0.2753 C   0  0  0  0  0  0  0  0  0  0  0  0
    0.1516    1.3489   -0.4636 C   0  0  0  0  0  0  0  0  0  0  0  0
    0.7006    0.0798   -0.3102 C   0  0  0  0  0  0  0  0  0  0  0  0
   -0.0945   -1.0341    0.0574 C   0  0  0  0  0  0  0  0  0  0  0  0
   -1.4434   -0.8533    0.2661 C   0  0  0  0  0  0  0  0  0  0  0  0
   -3.3025    5.1950   -0.7191 H   0  0  0  0  0  0  0  0  0  0  0  0
    0.8302    2.1551   -0.7477 H   0  0  0  0  0  0  0  0  0  0  0  0
    1.7658   -0.0771   -0.4750 H   0  0  0  0  0  0  0  0  0  0  0  0
    0.3535   -2.0160    0.1736 H   0  0  0  0  0  0  0  0  0  0  0  0
   -2.1035   -1.6686    0.5504 H   0  0  0  0  0  0  0  0  0  0  0  0
   -7.1604    5.8116    1.1003 C   0  0  0  0  0  0  0  0  0  0  0  0
   -8.3456    6.5449    1.1119 C   0  0  0  0  0  0  0  0  0  0  0  0
   -9.0751    6.7632   -0.0649 C   0  0  0  0  0  0  0  0  0  0  0  0
   -8.5934    6.2165   -1.2649 C   0  0  0  0  0  0  0  0  0  0  0  0
   -7.4124    5.4811   -1.2981 C   0  0  0  0  0  0  0  0  0  0  0  0
   -6.7037    5.2915   -0.1101 C   0  0  0  0  0  0  0  0  0  0  0  0
   -6.6016    5.6311    2.0119 H   0  0  0  0  0  0  0  0  0  0  0  0
   -8.7118    6.9505    2.0506 H   0  0  0  0  0  0  0  0  0  0  0  0
   -9.1543    6.3653   -2.1837 H   0  0  0  0  0  0  0  0  0  0  0  0
   -7.0477    5.0468   -2.2221 H   0  0  0  0  0  0  0  0  0  0  0  0
   -5.1947    4.3496   -0.1383 S   0  0  0  0  0  0  0  0  0  0  0  0
   -4.8926    3.8654    1.2072 O   0  0  0  0  0  0  0  0  0  0  0  0
   -4.1705    5.5816   -0.5068 O   0  0  0  0  0  0  0  0  0  0  0  0
   -5.2072    3.4140   -1.2631 O   0  0  0  0  0  0  0  0  0  0  0  0
  -10.3432    7.5823   -0.0501 C   0  0  0  0  0  0  0  0  0  0  0  0
  -11.1040    7.1519   -0.7084 H   0  0  0  0  0  0  0  0  0  0  0  0
  -10.7625    7.6539    0.9569 H   0  0  0  0  0  0  0  0  0  0  0  0
  -10.1518    8.6039   -0.4009 H   0  0  0  0  0  0  0  0  0  0  0  0
  1  8  1  0  0  0  0
  1  2  1  0  0  0  0
  2  3  1  0  0  0  0
  4  1  2  0  0  0  0
  5  6  2  0  0  0  0
  5  4  1  0  0  0  0
  6  7  1  0  0  0  0
  7 12  1  0  0  0  0
  7  8  2  0  0  0  0
  8 13  1  0  0  0  0
  9 26  1  0  0  0  0
 10  5  1  0  0  0  0
 11  6  1  0  0  0  0
 14 15  1  0  0  0  0
 14 20  1  0  0  0  0
 15 21  1  0  0  0  0
 16 28  1  0  0  0  0
 16 15  2  0  0  0  0
 17 16  1  0  0  0  0
 18 17  2  0  0  0  0
 18 19  1  0  0  0  0
 19 14  2  0  0  0  0
 22 17  1  0  0  0  0
 23 18  1  0  0  0  0
 24 19  1  0  0  0  0
 24 25  2  0  0  0  0
 26 24  1  0  0  0  0
 27 24  2  0  0  0  0
 28 30  1  0  0  0  0
 29 28  1  0  0  0  0
 31 28  1  0  0  0  0
M  RAD  3   2   2   3   3   4   2
M  END
