Coordinates from ORCA-job PhN2+~TsO-_B3LYPG-6-31G_dp-CH-Scan-d09-49-n800
 OpenBabel11261919273D

 31 31  0  0  0  0  0  0  0  0999 V2000
   -2.1787    0.5785    0.1068 C   0  0  0  0  0  0  0  0  0  0  0  0
   -3.5299    0.3692    0.3676 N   0  0  0  0  0  0  0  0  0  0  0  0
   -4.6205    0.2388    0.5698 N   0  0  0  0  0  0  0  0  0  0  0  0
   -1.8495    1.9029   -0.2308 C   0  0  0  0  0  0  0  0  0  0  0  0
   -0.4550    2.0074   -0.4802 C   0  0  0  0  0  0  0  0  0  0  0  0
    0.4296    0.9359   -0.3949 C   0  0  0  0  0  0  0  0  0  0  0  0
   -0.0107   -0.3616   -0.0436 C   0  0  0  0  0  0  0  0  0  0  0  0
   -1.3472   -0.5681    0.2182 C   0  0  0  0  0  0  0  0  0  0  0  0
   -3.4726    3.8152   -0.3681 H   0  0  0  0  0  0  0  0  0  0  0  0
   -0.0445    2.9781   -0.7568 H   0  0  0  0  0  0  0  0  0  0  0  0
    1.4874    1.0876   -0.6026 H   0  0  0  0  0  0  0  0  0  0  0  0
    0.6937   -1.1846    0.0191 H   0  0  0  0  0  0  0  0  0  0  0  0
   -1.7412   -1.5425    0.4933 H   0  0  0  0  0  0  0  0  0  0  0  0
   -7.1009    5.5156    1.1190 C   0  0  0  0  0  0  0  0  0  0  0  0
   -8.0550    6.5301    1.0717 C   0  0  0  0  0  0  0  0  0  0  0  0
   -8.6854    6.8775   -0.1313 C   0  0  0  0  0  0  0  0  0  0  0  0
   -8.3450    6.1716   -1.2955 C   0  0  0  0  0  0  0  0  0  0  0  0
   -7.3952    5.1540   -1.2686 C   0  0  0  0  0  0  0  0  0  0  0  0
   -6.7766    4.8405   -0.0572 C   0  0  0  0  0  0  0  0  0  0  0  0
   -6.6216    5.2369    2.0507 H   0  0  0  0  0  0  0  0  0  0  0  0
   -8.3182    7.0574    1.9845 H   0  0  0  0  0  0  0  0  0  0  0  0
   -8.8346    6.4191   -2.2336 H   0  0  0  0  0  0  0  0  0  0  0  0
   -7.1420    4.5981   -2.1646 H   0  0  0  0  0  0  0  0  0  0  0  0
   -5.5624    3.5382   -0.0091 S   0  0  0  0  0  0  0  0  0  0  0  0
   -5.4440    3.0296    1.3610 O   0  0  0  0  0  0  0  0  0  0  0  0
   -4.2511    4.4226   -0.3689 O   0  0  0  0  0  0  0  0  0  0  0  0
   -5.8189    2.5866   -1.0936 O   0  0  0  0  0  0  0  0  0  0  0  0
   -9.6951    7.9984   -0.1801 C   0  0  0  0  0  0  0  0  0  0  0  0
  -10.5070    7.7761   -0.8791 H   0  0  0  0  0  0  0  0  0  0  0  0
  -10.1330    8.1872    0.8036 H   0  0  0  0  0  0  0  0  0  0  0  0
   -9.2265    8.9321   -0.5149 H   0  0  0  0  0  0  0  0  0  0  0  0
  1  8  1  0  0  0  0
  1  2  1  0  0  0  0
  2  3  1  0  0  0  0
  4  1  2  0  0  0  0
  5  6  2  0  0  0  0
  5  4  1  0  0  0  0
  6  7  1  0  0  0  0
  7 12  1  0  0  0  0
  7  8  2  0  0  0  0
  8 13  1  0  0  0  0
 10  5  1  0  0  0  0
 11  6  1  0  0  0  0
 14 20  1  0  0  0  0
 15 14  1  0  0  0  0
 15 21  1  0  0  0  0
 16 15  2  0  0  0  0
 17 18  2  0  0  0  0
 17 16  1  0  0  0  0
 18 19  1  0  0  0  0
 19 24  1  0  0  0  0
 19 14  2  0  0  0  0
 22 17  1  0  0  0  0
 23 18  1  0  0  0  0
 24 25  2  0  0  0  0
 26  9  1  0  0  0  0
 26 24  1  0  0  0  0
 27 24  2  0  0  0  0
 28 16  1  0  0  0  0
 28 30  1  0  0  0  0
 29 28  1  0  0  0  0
 31 28  1  0  0  0  0
M  RAD  3   2   2   3   3   4   2
M  END
