Coordinates from ORCA-job PhN2+~TsO-_B3LYPG-6-31G_dp-CH-Scan-d09-49-n800
 OpenBabel11261919283D

 31 31  0  0  0  0  0  0  0  0999 V2000
   -1.8932    0.4757    0.0725 C   0  0  0  0  0  0  0  0  0  0  0  0
   -3.2590    0.7031    0.2568 N   0  0  0  0  0  0  0  0  0  0  0  0
   -4.3444    0.9343    0.3941 N   0  0  0  0  0  0  0  0  0  0  0  0
   -1.1873    1.6352   -0.2825 C   0  0  0  0  0  0  0  0  0  0  0  0
    0.1900    1.3049   -0.4500 C   0  0  0  0  0  0  0  0  0  0  0  0
    0.7127    0.0266   -0.2819 C   0  0  0  0  0  0  0  0  0  0  0  0
   -0.1082   -1.0703    0.0803 C   0  0  0  0  0  0  0  0  0  0  0  0
   -1.4562   -0.8631    0.2691 C   0  0  0  0  0  0  0  0  0  0  0  0
   -3.3042    5.2808   -0.7739 H   0  0  0  0  0  0  0  0  0  0  0  0
    0.8876    2.0966   -0.7287 H   0  0  0  0  0  0  0  0  0  0  0  0
    1.7772   -0.1512   -0.4306 H   0  0  0  0  0  0  0  0  0  0  0  0
    0.3196   -2.0597    0.2078 H   0  0  0  0  0  0  0  0  0  0  0  0
   -2.1356   -1.6643    0.5482 H   0  0  0  0  0  0  0  0  0  0  0  0
   -7.1557    5.8266    1.0941 C   0  0  0  0  0  0  0  0  0  0  0  0
   -8.3534    6.5391    1.1173 C   0  0  0  0  0  0  0  0  0  0  0  0
   -9.0941    6.7511   -0.0537 C   0  0  0  0  0  0  0  0  0  0  0  0
   -8.6103    6.2198   -1.2598 C   0  0  0  0  0  0  0  0  0  0  0  0
   -7.4168    5.5055   -1.3045 C   0  0  0  0  0  0  0  0  0  0  0  0
   -6.6976    5.3214   -0.1219 C   0  0  0  0  0  0  0  0  0  0  0  0
   -6.5882    5.6507    2.0012 H   0  0  0  0  0  0  0  0  0  0  0  0
   -8.7207    6.9329    2.0605 H   0  0  0  0  0  0  0  0  0  0  0  0
   -9.1794    6.3640   -2.1743 H   0  0  0  0  0  0  0  0  0  0  0  0
   -7.0504    5.0829   -2.2333 H   0  0  0  0  0  0  0  0  0  0  0  0
   -5.1732    4.4053   -0.1646 S   0  0  0  0  0  0  0  0  0  0  0  0
   -4.8544    3.9208    1.1767 O   0  0  0  0  0  0  0  0  0  0  0  0
   -4.1709    5.6551   -0.5352 O   0  0  0  0  0  0  0  0  0  0  0  0
   -5.1762    3.4753   -1.2941 O   0  0  0  0  0  0  0  0  0  0  0  0
  -10.3770    7.5464   -0.0263 C   0  0  0  0  0  0  0  0  0  0  0  0
  -11.1370    7.0999   -0.6747 H   0  0  0  0  0  0  0  0  0  0  0  0
  -10.7861    7.6126    0.9852 H   0  0  0  0  0  0  0  0  0  0  0  0
  -10.2091    8.5704   -0.3817 H   0  0  0  0  0  0  0  0  0  0  0  0
  1  2  1  0  0  0  0
  1  8  2  0  0  0  0
  2  3  1  0  0  0  0
  4  1  1  0  0  0  0
  5  4  2  0  0  0  0
  5  6  1  0  0  0  0
  6  7  2  0  0  0  0
  7 12  1  0  0  0  0
  7  8  1  0  0  0  0
  8 13  1  0  0  0  0
  9 26  1  0  0  0  0
 10  5  1  0  0  0  0
 11  6  1  0  0  0  0
 14 15  1  0  0  0  0
 14 20  1  0  0  0  0
 15 21  1  0  0  0  0
 16 28  1  0  0  0  0
 16 15  2  0  0  0  0
 17 16  1  0  0  0  0
 18 17  2  0  0  0  0
 18 19  1  0  0  0  0
 19 14  2  0  0  0  0
 22 17  1  0  0  0  0
 23 18  1  0  0  0  0
 24 19  1  0  0  0  0
 24 25  2  0  0  0  0
 26 24  1  0  0  0  0
 27 24  2  0  0  0  0
 28 30  1  0  0  0  0
 29 28  1  0  0  0  0
 31 28  1  0  0  0  0
M  RAD  3   2   2   3   3   4   2
M  END
