Coordinates from ORCA-job PhN2+~TsO-_B3LYPG-6-31G_dp-CH-Scan-d09-49-n800
 OpenBabel11261919283D

 31 31  0  0  0  0  0  0  0  0999 V2000
   -1.8777    0.4744    0.0594 C   0  0  0  0  0  0  0  0  0  0  0  0
   -3.2420    0.7268    0.2221 N   0  0  0  0  0  0  0  0  0  0  0  0
   -4.3251    0.9773    0.3435 N   0  0  0  0  0  0  0  0  0  0  0  0
   -1.1464    1.6184   -0.2936 C   0  0  0  0  0  0  0  0  0  0  0  0
    0.2273    1.2626   -0.4379 C   0  0  0  0  0  0  0  0  0  0  0  0
    0.7250   -0.0231   -0.2519 C   0  0  0  0  0  0  0  0  0  0  0  0
   -0.1206   -1.1027    0.1061 C   0  0  0  0  0  0  0  0  0  0  0  0
   -1.4674   -0.8704    0.2728 C   0  0  0  0  0  0  0  0  0  0  0  0
   -3.3085    5.3606   -0.8241 H   0  0  0  0  0  0  0  0  0  0  0  0
    0.9427    2.0399   -0.7120 H   0  0  0  0  0  0  0  0  0  0  0  0
    1.7883   -0.2205   -0.3826 H   0  0  0  0  0  0  0  0  0  0  0  0
    0.2878   -2.0982    0.2477 H   0  0  0  0  0  0  0  0  0  0  0  0
   -2.1649   -1.6576    0.5474 H   0  0  0  0  0  0  0  0  0  0  0  0
   -7.1516    5.8393    1.0879 C   0  0  0  0  0  0  0  0  0  0  0  0
   -8.3600    6.5330    1.1228 C   0  0  0  0  0  0  0  0  0  0  0  0
   -9.1113    6.7403   -0.0421 C   0  0  0  0  0  0  0  0  0  0  0  0
   -8.6268    6.2242   -1.2545 C   0  0  0  0  0  0  0  0  0  0  0  0
   -7.4227    5.5289   -1.3111 C   0  0  0  0  0  0  0  0  0  0  0  0
   -6.6934    5.3487   -0.1340 C   0  0  0  0  0  0  0  0  0  0  0  0
   -6.5758    5.6667    1.9905 H   0  0  0  0  0  0  0  0  0  0  0  0
   -8.7275    6.9155    2.0706 H   0  0  0  0  0  0  0  0  0  0  0  0
   -9.2038    6.3650   -2.1646 H   0  0  0  0  0  0  0  0  0  0  0  0
   -7.0556    5.1176   -2.2447 H   0  0  0  0  0  0  0  0  0  0  0  0
   -5.1557    4.4558   -0.1914 S   0  0  0  0  0  0  0  0  0  0  0  0
   -4.8218    3.9687    1.1450 O   0  0  0  0  0  0  0  0  0  0  0  0
   -4.1734    5.7223   -0.5615 O   0  0  0  0  0  0  0  0  0  0  0  0
   -5.1506    3.5330   -1.3269 O   0  0  0  0  0  0  0  0  0  0  0  0
  -10.4071    7.5140   -0.0019 C   0  0  0  0  0  0  0  0  0  0  0  0
  -11.1679    7.0507   -0.6376 H   0  0  0  0  0  0  0  0  0  0  0  0
  -10.8040    7.5788    1.0145 H   0  0  0  0  0  0  0  0  0  0  0  0
  -10.2616    8.5385   -0.3655 H   0  0  0  0  0  0  0  0  0  0  0  0
  1  2  1  0  0  0  0
  1  8  2  0  0  0  0
  2  3  1  0  0  0  0
  4  1  1  0  0  0  0
  5  4  2  0  0  0  0
  5  6  1  0  0  0  0
  6  7  2  0  0  0  0
  7 12  1  0  0  0  0
  7  8  1  0  0  0  0
  8 13  1  0  0  0  0
  9 26  1  0  0  0  0
 10  5  1  0  0  0  0
 11  6  1  0  0  0  0
 14 15  1  0  0  0  0
 14 20  1  0  0  0  0
 15 21  1  0  0  0  0
 16 28  1  0  0  0  0
 16 15  2  0  0  0  0
 17 16  1  0  0  0  0
 18 17  2  0  0  0  0
 18 19  1  0  0  0  0
 19 14  2  0  0  0  0
 22 17  1  0  0  0  0
 23 18  1  0  0  0  0
 24 19  1  0  0  0  0
 24 25  2  0  0  0  0
 26 24  1  0  0  0  0
 27 24  2  0  0  0  0
 28 30  1  0  0  0  0
 29 28  1  0  0  0  0
 31 28  1  0  0  0  0
M  RAD  3   2   2   3   3   4   2
M  END
