Coordinates from ORCA-job 4-MeOPhN2+~BF4-_B3LYPG-6-31G_dp-CH-Scan-d09-49-n800
 OpenBabel11261919343D

 22 20  0  0  0  0  0  0  0  0999 V2000
   -1.6983    0.0493    0.0604 C   0  0  0  0  0  0  0  0  0  0  0  0
   -3.0699   -0.0375    0.1481 N   0  0  0  0  0  0  0  0  0  0  0  0
   -4.1897   -0.0460    0.2225 N   0  0  0  0  0  0  0  0  0  0  0  0
   -1.2105    1.3786    0.0661 C   0  0  0  0  0  0  0  0  0  0  0  0
    0.1944    1.3708   -0.0228 C   0  0  0  0  0  0  0  0  0  0  0  0
    0.9753    0.2074   -0.1026 C   0  0  0  0  0  0  0  0  0  0  0  0
    2.3158    0.3879   -0.1791 O   0  0  0  0  0  0  0  0  0  0  0  0
    3.1788   -0.7404   -0.2560 C   0  0  0  0  0  0  0  0  0  0  0  0
    0.3776   -1.0866   -0.1014 C   0  0  0  0  0  0  0  0  0  0  0  0
   -0.9910   -1.1806   -0.0182 C   0  0  0  0  0  0  0  0  0  0  0  0
   -3.8064    4.3034    0.4433 H   0  0  0  0  0  0  0  0  0  0  0  0
    0.7516    2.3086   -0.0316 H   0  0  0  0  0  0  0  0  0  0  0  0
    4.1915   -0.3378   -0.3004 H   0  0  0  0  0  0  0  0  0  0  0  0
    2.9884   -1.3347   -1.1582 H   0  0  0  0  0  0  0  0  0  0  0  0
    3.0848   -1.3819    0.6288 H   0  0  0  0  0  0  0  0  0  0  0  0
    0.9790   -1.9847   -0.1638 H   0  0  0  0  0  0  0  0  0  0  0  0
   -1.4942   -2.1447   -0.0139 H   0  0  0  0  0  0  0  0  0  0  0  0
   -5.9597    2.9851    0.2921 B   0  0  0  0  0  0  0  0  0  0  0  0
   -5.1164    2.5788   -0.6580 F   0  0  0  0  0  0  0  0  0  0  0  0
   -4.5983    4.5712    0.8535 F   0  0  0  0  0  0  0  0  0  0  0  0
   -6.9635    3.7833   -0.0268 F   0  0  0  0  0  0  0  0  0  0  0  0
   -5.9431    2.3703    1.4646 F   0  0  0  0  0  0  0  0  0  0  0  0
  1  4  1  0  0  0  0
  1  2  1  0  0  0  0
  2  3  1  0  0  0  0
  5  4  2  0  0  0  0
  6  9  2  0  0  0  0
  6  5  1  0  0  0  0
  7  6  1  0  0  0  0
  8  7  1  0  0  0  0
  8 15  1  0  0  0  0
  9 10  1  0  0  0  0
 10 17  1  0  0  0  0
 10  1  2  0  0  0  0
 11 20  1  0  0  0  0
 12  5  1  0  0  0  0
 13  8  1  0  0  0  0
 14  8  1  0  0  0  0
 16  9  1  0  0  0  0
 18 22  1  0  0  0  0
 19 18  1  0  0  0  0
 21 18  1  0  0  0  0
M  RAD  3   2   2   3   3   4   2
M  END
