Coordinates from ORCA-job 4-MeOPhN2+~BF4-_B3LYPG-6-31G_dp-CH-Scan-d09-49-n800
 OpenBabel11261919343D

 22 21  0  0  0  0  0  0  0  0999 V2000
   -2.1367    0.2784    0.3702 C   0  0  0  0  0  0  0  0  0  0  0  0
   -3.4873    0.1044    0.5576 N   0  0  0  0  0  0  0  0  0  0  0  0
   -4.5644   -0.1422    0.7183 N   0  0  0  0  0  0  0  0  0  0  0  0
   -1.5657    1.5671    0.4402 C   0  0  0  0  0  0  0  0  0  0  0  0
   -0.2036    1.6652    0.2533 C   0  0  0  0  0  0  0  0  0  0  0  0
    0.5819    0.5223   -0.0084 C   0  0  0  0  0  0  0  0  0  0  0  0
    1.8914    0.7495   -0.1823 O   0  0  0  0  0  0  0  0  0  0  0  0
    2.7700   -0.3445   -0.4563 C   0  0  0  0  0  0  0  0  0  0  0  0
   -0.0146   -0.7559   -0.0691 C   0  0  0  0  0  0  0  0  0  0  0  0
   -1.3780   -0.8805    0.1254 C   0  0  0  0  0  0  0  0  0  0  0  0
   -2.1741    2.3749    0.6368 H   0  0  0  0  0  0  0  0  0  0  0  0
    0.2907    2.6292    0.2967 H   0  0  0  0  0  0  0  0  0  0  0  0
    3.7615    0.0951   -0.5566 H   0  0  0  0  0  0  0  0  0  0  0  0
    2.4966   -0.8459   -1.3911 H   0  0  0  0  0  0  0  0  0  0  0  0
    2.7711   -1.0660    0.3684 H   0  0  0  0  0  0  0  0  0  0  0  0
    0.5752   -1.6414   -0.2664 H   0  0  0  0  0  0  0  0  0  0  0  0
   -1.8591   -1.8515    0.0802 H   0  0  0  0  0  0  0  0  0  0  0  0
   -4.7754    2.7476    0.0338 B   0  0  0  0  0  0  0  0  0  0  0  0
   -3.9129    2.1781   -0.9481 F   0  0  0  0  0  0  0  0  0  0  0  0
   -4.0111    2.8211    1.2382 F   0  0  0  0  0  0  0  0  0  0  0  0
   -5.2297    3.9822   -0.3505 F   0  0  0  0  0  0  0  0  0  0  0  0
   -5.8294    1.8327    0.2562 F   0  0  0  0  0  0  0  0  0  0  0  0
  1  4  1  0  0  0  0
  1  2  1  0  0  0  0
  2  3  1  0  0  0  0
  4 11  1  0  0  0  0
  5 12  1  0  0  0  0
  5  4  2  0  0  0  0
  6  5  1  0  0  0  0
  7  6  1  0  0  0  0
  8  7  1  0  0  0  0
  8 15  1  0  0  0  0
  9  6  2  0  0  0  0
  9 10  1  0  0  0  0
 10  1  2  0  0  0  0
 13  8  1  0  0  0  0
 14  8  1  0  0  0  0
 16  9  1  0  0  0  0
 17 10  1  0  0  0  0
 18 22  1  0  0  0  0
 18 20  1  0  0  0  0
 19 18  1  0  0  0  0
 21 18  1  0  0  0  0
M  RAD  2   2   2   3   3
M  END
