Coordinates from ORCA-job 4-MeOPhN2+~BF4-_B3LYPG-6-31G_dp-CH-Scan-d09-49-n800
 OpenBabel11261919343D

 22 20  0  0  0  0  0  0  0  0999 V2000
   -1.5957    0.1120   -0.0481 C   0  0  0  0  0  0  0  0  0  0  0  0
   -2.9724    0.0925    0.0028 N   0  0  0  0  0  0  0  0  0  0  0  0
   -4.0930    0.1463    0.0427 N   0  0  0  0  0  0  0  0  0  0  0  0
   -1.0554    1.4190   -0.0964 C   0  0  0  0  0  0  0  0  0  0  0  0
    0.3505    1.3500   -0.1452 C   0  0  0  0  0  0  0  0  0  0  0  0
    1.0831    0.1533   -0.1436 C   0  0  0  0  0  0  0  0  0  0  0  0
    2.4322    0.2742   -0.1927 O   0  0  0  0  0  0  0  0  0  0  0  0
    3.2476   -0.8914   -0.1906 C   0  0  0  0  0  0  0  0  0  0  0  0
    0.4320   -1.1143   -0.0924 C   0  0  0  0  0  0  0  0  0  0  0  0
   -0.9410   -1.1492   -0.0433 C   0  0  0  0  0  0  0  0  0  0  0  0
   -4.3029    4.6684    0.4352 H   0  0  0  0  0  0  0  0  0  0  0  0
    0.9465    2.2629   -0.1868 H   0  0  0  0  0  0  0  0  0  0  0  0
    4.2774   -0.5342   -0.2308 H   0  0  0  0  0  0  0  0  0  0  0  0
    3.0517   -1.5235   -1.0655 H   0  0  0  0  0  0  0  0  0  0  0  0
    3.1069   -1.4816    0.7233 H   0  0  0  0  0  0  0  0  0  0  0  0
    0.9977   -2.0376   -0.0916 H   0  0  0  0  0  0  0  0  0  0  0  0
   -1.4842   -2.0905   -0.0028 H   0  0  0  0  0  0  0  0  0  0  0  0
   -6.0940    2.9519    0.3921 B   0  0  0  0  0  0  0  0  0  0  0  0
   -5.1864    2.8015   -0.5750 F   0  0  0  0  0  0  0  0  0  0  0  0
   -5.0271    4.7736    1.0105 F   0  0  0  0  0  0  0  0  0  0  0  0
   -7.2445    3.5380    0.1146 F   0  0  0  0  0  0  0  0  0  0  0  0
   -5.9327    2.2984    1.5299 F   0  0  0  0  0  0  0  0  0  0  0  0
  1 10  1  0  0  0  0
  1  2  1  0  0  0  0
  2  3  1  0  0  0  0
  4  1  2  0  0  0  0
  5  6  2  0  0  0  0
  5  4  1  0  0  0  0
  6  9  1  0  0  0  0
  7  8  1  0  0  0  0
  7  6  1  0  0  0  0
  8 15  1  0  0  0  0
  9 16  1  0  0  0  0
  9 10  2  0  0  0  0
 10 17  1  0  0  0  0
 11 20  1  0  0  0  0
 12  5  1  0  0  0  0
 13  8  1  0  0  0  0
 14  8  1  0  0  0  0
 18 22  1  0  0  0  0
 19 18  1  0  0  0  0
 21 18  1  0  0  0  0
M  RAD  3   2   2   3   3   4   2
M  END
