Coordinates from ORCA-job 4-MeOPhN2+~BF4-_B3LYPG-6-31G_dp-CH-Scan-d09-49-n800
 OpenBabel11261919343D

 22 20  0  0  0  0  0  0  0  0999 V2000
   -2.0222    0.0575    0.0793 C   0  0  0  0  0  0  0  0  0  0  0  0
   -3.3779   -0.1512    0.1382 N   0  0  0  0  0  0  0  0  0  0  0  0
   -4.4871   -0.2923    0.1884 N   0  0  0  0  0  0  0  0  0  0  0  0
   -1.5893    1.4068    0.1321 C   0  0  0  0  0  0  0  0  0  0  0  0
   -0.1965    1.5064    0.0653 C   0  0  0  0  0  0  0  0  0  0  0  0
    0.6607    0.3965   -0.0409 C   0  0  0  0  0  0  0  0  0  0  0  0
    1.9802    0.6700   -0.0940 O   0  0  0  0  0  0  0  0  0  0  0  0
    2.9219   -0.3944   -0.2017 C   0  0  0  0  0  0  0  0  0  0  0  0
    0.1429   -0.9261   -0.0871 C   0  0  0  0  0  0  0  0  0  0  0  0
   -1.2193   -1.1071   -0.0265 C   0  0  0  0  0  0  0  0  0  0  0  0
   -2.8878    3.0140    0.2793 H   0  0  0  0  0  0  0  0  0  0  0  0
    0.2887    2.4802    0.0948 H   0  0  0  0  0  0  0  0  0  0  0  0
    3.9029    0.0802   -0.2246 H   0  0  0  0  0  0  0  0  0  0  0  0
    2.7755   -0.9671   -1.1250 H   0  0  0  0  0  0  0  0  0  0  0  0
    2.8657   -1.0680    0.6617 H   0  0  0  0  0  0  0  0  0  0  0  0
    0.7964   -1.7851   -0.1676 H   0  0  0  0  0  0  0  0  0  0  0  0
   -1.6570   -2.1009   -0.0589 H   0  0  0  0  0  0  0  0  0  0  0  0
   -5.1805    2.9572    0.3017 B   0  0  0  0  0  0  0  0  0  0  0  0
   -5.0915    2.2899   -0.8708 F   0  0  0  0  0  0  0  0  0  0  0  0
   -3.5698    3.7138    0.3473 F   0  0  0  0  0  0  0  0  0  0  0  0
   -5.9484    4.0512    0.3440 F   0  0  0  0  0  0  0  0  0  0  0  0
   -5.1114    2.1883    1.4116 F   0  0  0  0  0  0  0  0  0  0  0  0
  1  4  1  0  0  0  0
  1  2  1  0  0  0  0
  2  3  1  0  0  0  0
  5 12  1  0  0  0  0
  5  4  2  0  0  0  0
  6  5  1  0  0  0  0
  7  6  1  0  0  0  0
  8  7  1  0  0  0  0
  8 15  1  0  0  0  0
  9  6  2  0  0  0  0
  9 10  1  0  0  0  0
 10  1  2  0  0  0  0
 11 20  1  0  0  0  0
 13  8  1  0  0  0  0
 14  8  1  0  0  0  0
 16  9  1  0  0  0  0
 17 10  1  0  0  0  0
 18 21  1  0  0  0  0
 18 22  1  0  0  0  0
 19 18  1  0  0  0  0
M  RAD  3   2   2   3   3   4   2
M  END
