Coordinates from ORCA-job 4-MeOPhN2+~BF4-_B3LYPG-6-31G_dp-CH-Scan-d09-49-n800
 OpenBabel11261919343D

 22 21  0  0  0  0  0  0  0  0999 V2000
   -2.1408    0.2131    0.3625 C   0  0  0  0  0  0  0  0  0  0  0  0
   -3.4886    0.0273    0.5473 N   0  0  0  0  0  0  0  0  0  0  0  0
   -4.5725   -0.1769    0.7241 N   0  0  0  0  0  0  0  0  0  0  0  0
   -1.5859    1.5052    0.4895 C   0  0  0  0  0  0  0  0  0  0  0  0
   -0.2237    1.6258    0.3195 C   0  0  0  0  0  0  0  0  0  0  0  0
    0.5752    0.5021    0.0161 C   0  0  0  0  0  0  0  0  0  0  0  0
    1.8836    0.7491   -0.1369 O   0  0  0  0  0  0  0  0  0  0  0  0
    2.7755   -0.3224   -0.4546 C   0  0  0  0  0  0  0  0  0  0  0  0
   -0.0068   -0.7792   -0.1063 C   0  0  0  0  0  0  0  0  0  0  0  0
   -1.3695   -0.9275    0.0730 C   0  0  0  0  0  0  0  0  0  0  0  0
   -2.2756    2.3835    0.7201 H   0  0  0  0  0  0  0  0  0  0  0  0
    0.2612    2.5917    0.4054 H   0  0  0  0  0  0  0  0  0  0  0  0
    3.7636    0.1307   -0.5237 H   0  0  0  0  0  0  0  0  0  0  0  0
    2.5156   -0.7802   -1.4151 H   0  0  0  0  0  0  0  0  0  0  0  0
    2.7759   -1.0831    0.3341 H   0  0  0  0  0  0  0  0  0  0  0  0
    0.5947   -1.6480   -0.3390 H   0  0  0  0  0  0  0  0  0  0  0  0
   -1.8397   -1.9008   -0.0167 H   0  0  0  0  0  0  0  0  0  0  0  0
   -4.7524    2.8112    0.0144 B   0  0  0  0  0  0  0  0  0  0  0  0
   -3.9574    2.0838   -0.9173 F   0  0  0  0  0  0  0  0  0  0  0  0
   -3.8832    3.2095    1.0745 F   0  0  0  0  0  0  0  0  0  0  0  0
   -5.3486    3.8951   -0.5750 F   0  0  0  0  0  0  0  0  0  0  0  0
   -5.7045    1.9096    0.5507 F   0  0  0  0  0  0  0  0  0  0  0  0
  1  4  1  0  0  0  0
  1  2  1  0  0  0  0
  2  3  1  0  0  0  0
  4 11  1  0  0  0  0
  5 12  1  0  0  0  0
  5  4  2  0  0  0  0
  6  5  1  0  0  0  0
  7  6  1  0  0  0  0
  8  7  1  0  0  0  0
  8 15  1  0  0  0  0
  9  6  2  0  0  0  0
  9 10  1  0  0  0  0
 10  1  2  0  0  0  0
 13  8  1  0  0  0  0
 14  8  1  0  0  0  0
 16  9  1  0  0  0  0
 17 10  1  0  0  0  0
 18 22  1  0  0  0  0
 18 20  1  0  0  0  0
 19 18  1  0  0  0  0
 21 18  1  0  0  0  0
M  RAD  2   2   2   3   3
M  END
