Coordinates from ORCA-job 4-MeOPhN2+~BF4-_B3LYPG-6-31G_dp-CH-Scan-d09-49-n800
 OpenBabel11261919343D

 22 20  0  0  0  0  0  0  0  0999 V2000
   -1.9056    0.0460    0.0812 C   0  0  0  0  0  0  0  0  0  0  0  0
   -3.2675   -0.1241    0.1465 N   0  0  0  0  0  0  0  0  0  0  0  0
   -4.3821   -0.2256    0.2055 N   0  0  0  0  0  0  0  0  0  0  0  0
   -1.4590    1.3897    0.1452 C   0  0  0  0  0  0  0  0  0  0  0  0
   -0.0599    1.4540    0.0739 C   0  0  0  0  0  0  0  0  0  0  0  0
    0.7729    0.3285   -0.0448 C   0  0  0  0  0  0  0  0  0  0  0  0
    2.1009    0.5723   -0.0991 O   0  0  0  0  0  0  0  0  0  0  0  0
    3.0166   -0.5117   -0.2181 C   0  0  0  0  0  0  0  0  0  0  0  0
    0.2299   -0.9858   -0.1024 C   0  0  0  0  0  0  0  0  0  0  0  0
   -1.1346   -1.1407   -0.0387 C   0  0  0  0  0  0  0  0  0  0  0  0
   -3.1322    3.4647    0.3335 H   0  0  0  0  0  0  0  0  0  0  0  0
    0.4511    2.4156    0.1100 H   0  0  0  0  0  0  0  0  0  0  0  0
    4.0090   -0.0606   -0.2374 H   0  0  0  0  0  0  0  0  0  0  0  0
    2.8576   -1.0729   -1.1468 H   0  0  0  0  0  0  0  0  0  0  0  0
    2.9464   -1.1935    0.6380 H   0  0  0  0  0  0  0  0  0  0  0  0
    0.8676   -1.8556   -0.1939 H   0  0  0  0  0  0  0  0  0  0  0  0
   -1.5937   -2.1251   -0.0792 H   0  0  0  0  0  0  0  0  0  0  0  0
   -5.5234    2.9678    0.3002 B   0  0  0  0  0  0  0  0  0  0  0  0
   -5.2375    2.3568   -0.8546 F   0  0  0  0  0  0  0  0  0  0  0  0
   -3.8662    4.0532    0.3968 F   0  0  0  0  0  0  0  0  0  0  0  0
   -6.3699    3.9896    0.3036 F   0  0  0  0  0  0  0  0  0  0  0  0
   -5.3240    2.2772    1.4269 F   0  0  0  0  0  0  0  0  0  0  0  0
  1  4  1  0  0  0  0
  1  2  1  0  0  0  0
  2  3  1  0  0  0  0
  5 12  1  0  0  0  0
  5  4  2  0  0  0  0
  6  5  1  0  0  0  0
  7  6  1  0  0  0  0
  8  7  1  0  0  0  0
  8 15  1  0  0  0  0
  9  6  2  0  0  0  0
  9 10  1  0  0  0  0
 10  1  2  0  0  0  0
 11 20  1  0  0  0  0
 13  8  1  0  0  0  0
 14  8  1  0  0  0  0
 16  9  1  0  0  0  0
 17 10  1  0  0  0  0
 18 21  1  0  0  0  0
 18 22  1  0  0  0  0
 19 18  1  0  0  0  0
M  RAD  3   2   2   3   3   4   2
M  END
