Coordinates from ORCA-job 4-MeOPhN2+~BF4-_B3LYPG-6-31G_dp-CH-Scan-d09-49-n800
 OpenBabel11261919343D

 22 20  0  0  0  0  0  0  0  0999 V2000
   -2.1247    0.0969    0.2086 C   0  0  0  0  0  0  0  0  0  0  0  0
   -3.4725   -0.1321    0.3220 N   0  0  0  0  0  0  0  0  0  0  0  0
   -4.5707   -0.3056    0.4298 N   0  0  0  0  0  0  0  0  0  0  0  0
   -1.6625    1.4310    0.3179 C   0  0  0  0  0  0  0  0  0  0  0  0
   -0.2846    1.5615    0.2060 C   0  0  0  0  0  0  0  0  0  0  0  0
    0.5700    0.4608   -0.0013 C   0  0  0  0  0  0  0  0  0  0  0  0
    1.8806    0.7454   -0.0914 O   0  0  0  0  0  0  0  0  0  0  0  0
    2.8227   -0.3058   -0.3042 C   0  0  0  0  0  0  0  0  0  0  0  0
    0.0478   -0.8532   -0.1043 C   0  0  0  0  0  0  0  0  0  0  0  0
   -1.3126   -1.0427    0.0021 C   0  0  0  0  0  0  0  0  0  0  0  0
   -2.6439    2.6198    0.4872 H   0  0  0  0  0  0  0  0  0  0  0  0
    0.1834    2.5398    0.2724 H   0  0  0  0  0  0  0  0  0  0  0  0
    3.7991    0.1767   -0.3362 H   0  0  0  0  0  0  0  0  0  0  0  0
    2.6391   -0.8180   -1.2555 H   0  0  0  0  0  0  0  0  0  0  0  0
    2.8017   -1.0311    0.5174 H   0  0  0  0  0  0  0  0  0  0  0  0
    0.6955   -1.7053   -0.2638 H   0  0  0  0  0  0  0  0  0  0  0  0
   -1.7470   -2.0349   -0.0714 H   0  0  0  0  0  0  0  0  0  0  0  0
   -4.8247    2.9052    0.1325 B   0  0  0  0  0  0  0  0  0  0  0  0
   -4.5305    2.1372   -0.9807 F   0  0  0  0  0  0  0  0  0  0  0  0
   -3.4394    3.4719    0.5693 F   0  0  0  0  0  0  0  0  0  0  0  0
   -5.6071    3.9851   -0.1058 F   0  0  0  0  0  0  0  0  0  0  0  0
   -5.2238    2.1173    1.1961 F   0  0  0  0  0  0  0  0  0  0  0  0
  1  4  1  0  0  0  0
  1  2  1  0  0  0  0
  2  3  1  0  0  0  0
  5 12  1  0  0  0  0
  5  4  2  0  0  0  0
  6  5  1  0  0  0  0
  7  6  1  0  0  0  0
  8  7  1  0  0  0  0
  8 15  1  0  0  0  0
  9  6  2  0  0  0  0
  9 10  1  0  0  0  0
 10  1  2  0  0  0  0
 11 20  1  0  0  0  0
 13  8  1  0  0  0  0
 14  8  1  0  0  0  0
 16  9  1  0  0  0  0
 17 10  1  0  0  0  0
 18 22  1  0  0  0  0
 19 18  1  0  0  0  0
 21 18  1  0  0  0  0
M  RAD  3   2   2   3   3   4   2
M  END
