Coordinates from ORCA-job 4-MeOPhN2+~BF4-_B3LYPG-6-31G_dp-CH-Scan-d09-49-n800
 OpenBabel11261919343D

 22 20  0  0  0  0  0  0  0  0999 V2000
   -1.6260    0.0838    0.0596 C   0  0  0  0  0  0  0  0  0  0  0  0
   -2.9996    0.0372    0.1543 N   0  0  0  0  0  0  0  0  0  0  0  0
   -4.1191    0.0652    0.2304 N   0  0  0  0  0  0  0  0  0  0  0  0
   -1.1063    1.4002    0.0455 C   0  0  0  0  0  0  0  0  0  0  0  0
    0.2980    1.3554   -0.0506 C   0  0  0  0  0  0  0  0  0  0  0  0
    1.0482    0.1715   -0.1192 C   0  0  0  0  0  0  0  0  0  0  0  0
    2.3929    0.3162   -0.2059 O   0  0  0  0  0  0  0  0  0  0  0  0
    3.2256   -0.8351   -0.2727 C   0  0  0  0  0  0  0  0  0  0  0  0
    0.4179   -1.1072   -0.0975 C   0  0  0  0  0  0  0  0  0  0  0  0
   -0.9521   -1.1656   -0.0061 C   0  0  0  0  0  0  0  0  0  0  0  0
   -4.1151    4.5285    0.5022 H   0  0  0  0  0  0  0  0  0  0  0  0
    0.8789    2.2786   -0.0747 H   0  0  0  0  0  0  0  0  0  0  0  0
    4.2482   -0.4598   -0.3288 H   0  0  0  0  0  0  0  0  0  0  0  0
    3.0142   -1.4365   -1.1655 H   0  0  0  0  0  0  0  0  0  0  0  0
    3.1208   -1.4621    0.6212 H   0  0  0  0  0  0  0  0  0  0  0  0
    0.9964   -2.0208   -0.1509 H   0  0  0  0  0  0  0  0  0  0  0  0
   -1.4798   -2.1164    0.0140 H   0  0  0  0  0  0  0  0  0  0  0  0
   -6.0618    2.9760    0.2832 B   0  0  0  0  0  0  0  0  0  0  0  0
   -5.0856    2.6956   -0.5823 F   0  0  0  0  0  0  0  0  0  0  0  0
   -4.9020    4.7009    0.9688 F   0  0  0  0  0  0  0  0  0  0  0  0
   -7.1121    3.6649   -0.1258 F   0  0  0  0  0  0  0  0  0  0  0  0
   -6.0851    2.3491    1.4473 F   0  0  0  0  0  0  0  0  0  0  0  0
  1  2  1  0  0  0  0
  2  3  1  0  0  0  0
  4  1  1  0  0  0  0
  5  4  2  0  0  0  0
  6  9  2  0  0  0  0
  6  5  1  0  0  0  0
  7  6  1  0  0  0  0
  8  7  1  0  0  0  0
  8 15  1  0  0  0  0
  9 10  1  0  0  0  0
 10 17  1  0  0  0  0
 10  1  2  0  0  0  0
 11 20  1  0  0  0  0
 12  5  1  0  0  0  0
 13  8  1  0  0  0  0
 14  8  1  0  0  0  0
 16  9  1  0  0  0  0
 18 22  1  0  0  0  0
 19 18  1  0  0  0  0
 21 18  1  0  0  0  0
M  RAD  3   2   2   3   3   4   2
M  END
