Coordinates from ORCA-job 4-MeOPhN2+~BF4-_B3LYPG-6-31G_dp-CH-Scan-d09-49-n800
 OpenBabel11261919343D

 22 20  0  0  0  0  0  0  0  0999 V2000
   -1.9662    0.0496    0.1014 C   0  0  0  0  0  0  0  0  0  0  0  0
   -3.3244   -0.1409    0.1716 N   0  0  0  0  0  0  0  0  0  0  0  0
   -4.4359   -0.2650    0.2320 N   0  0  0  0  0  0  0  0  0  0  0  0
   -1.5276    1.3963    0.1647 C   0  0  0  0  0  0  0  0  0  0  0  0
   -0.1323    1.4809    0.0860 C   0  0  0  0  0  0  0  0  0  0  0  0
    0.7132    0.3648   -0.0397 C   0  0  0  0  0  0  0  0  0  0  0  0
    2.0363    0.6255   -0.1020 O   0  0  0  0  0  0  0  0  0  0  0  0
    2.9656   -0.4468   -0.2291 C   0  0  0  0  0  0  0  0  0  0  0  0
    0.1841   -0.9542   -0.0952 C   0  0  0  0  0  0  0  0  0  0  0  0
   -1.1785   -1.1245   -0.0241 C   0  0  0  0  0  0  0  0  0  0  0  0
   -3.0013    3.2133    0.3506 H   0  0  0  0  0  0  0  0  0  0  0  0
    0.3650    2.4490    0.1208 H   0  0  0  0  0  0  0  0  0  0  0  0
    3.9515    0.0177   -0.2553 H   0  0  0  0  0  0  0  0  0  0  0  0
    2.8063   -1.0085   -1.1572 H   0  0  0  0  0  0  0  0  0  0  0  0
    2.9101   -1.1297    0.6272 H   0  0  0  0  0  0  0  0  0  0  0  0
    0.8303   -1.8171   -0.1909 H   0  0  0  0  0  0  0  0  0  0  0  0
   -1.6258   -2.1141   -0.0629 H   0  0  0  0  0  0  0  0  0  0  0  0
   -5.3466    2.9686    0.2699 B   0  0  0  0  0  0  0  0  0  0  0  0
   -5.1105    2.3205   -0.8840 F   0  0  0  0  0  0  0  0  0  0  0  0
   -3.7028    3.8603    0.4167 F   0  0  0  0  0  0  0  0  0  0  0  0
   -6.1392    4.0386    0.2527 F   0  0  0  0  0  0  0  0  0  0  0  0
   -5.2751    2.2354    1.3934 F   0  0  0  0  0  0  0  0  0  0  0  0
  1  4  1  0  0  0  0
  1  2  1  0  0  0  0
  2  3  1  0  0  0  0
  5 12  1  0  0  0  0
  5  4  2  0  0  0  0
  6  5  1  0  0  0  0
  7  6  1  0  0  0  0
  8  7  1  0  0  0  0
  8 15  1  0  0  0  0
  9  6  2  0  0  0  0
  9 10  1  0  0  0  0
 10  1  2  0  0  0  0
 11 20  1  0  0  0  0
 13  8  1  0  0  0  0
 14  8  1  0  0  0  0
 16  9  1  0  0  0  0
 17 10  1  0  0  0  0
 18 22  1  0  0  0  0
 19 18  1  0  0  0  0
 21 18  1  0  0  0  0
M  RAD  3   2   2   3   3   4   2
M  END
