Coordinates from ORCA-job 4-MeOPhN2+~BF4-_B3LYPG-6-31G_dp-CH-Scan-d09-49-n800
 OpenBabel11261919343D

 22 20  0  0  0  0  0  0  0  0999 V2000
   -1.7379    0.0380    0.0781 C   0  0  0  0  0  0  0  0  0  0  0  0
   -3.1074   -0.0684    0.1688 N   0  0  0  0  0  0  0  0  0  0  0  0
   -4.2265   -0.0956    0.2452 N   0  0  0  0  0  0  0  0  0  0  0  0
   -1.2641    1.3727    0.0937 C   0  0  0  0  0  0  0  0  0  0  0  0
    0.1401    1.3825    0.0004 C   0  0  0  0  0  0  0  0  0  0  0  0
    0.9344    0.2290   -0.0925 C   0  0  0  0  0  0  0  0  0  0  0  0
    2.2720    0.4262   -0.1721 O   0  0  0  0  0  0  0  0  0  0  0  0
    3.1483   -0.6909   -0.2632 C   0  0  0  0  0  0  0  0  0  0  0  0
    0.3518   -1.0715   -0.1005 C   0  0  0  0  0  0  0  0  0  0  0  0
   -1.0153   -1.1820   -0.0136 C   0  0  0  0  0  0  0  0  0  0  0  0
   -3.6575    4.1568    0.4475 H   0  0  0  0  0  0  0  0  0  0  0  0
    0.6860    2.3268   -0.0018 H   0  0  0  0  0  0  0  0  0  0  0  0
    4.1557   -0.2757   -0.3081 H   0  0  0  0  0  0  0  0  0  0  0  0
    2.9610   -1.2789   -1.1700 H   0  0  0  0  0  0  0  0  0  0  0  0
    3.0658   -1.3416    0.6161 H   0  0  0  0  0  0  0  0  0  0  0  0
    0.9630   -1.9622   -0.1725 H   0  0  0  0  0  0  0  0  0  0  0  0
   -1.5071   -2.1520   -0.0158 H   0  0  0  0  0  0  0  0  0  0  0  0
   -5.8885    2.9849    0.2727 B   0  0  0  0  0  0  0  0  0  0  0  0
   -5.0854    2.5236   -0.6871 F   0  0  0  0  0  0  0  0  0  0  0  0
   -4.4478    4.4914    0.8099 F   0  0  0  0  0  0  0  0  0  0  0  0
   -6.8550    3.8316   -0.0375 F   0  0  0  0  0  0  0  0  0  0  0  0
   -5.8895    2.3748    1.4487 F   0  0  0  0  0  0  0  0  0  0  0  0
  1  4  1  0  0  0  0
  1  2  1  0  0  0  0
  2  3  1  0  0  0  0
  5  4  2  0  0  0  0
  6  5  1  0  0  0  0
  7  6  1  0  0  0  0
  8  7  1  0  0  0  0
  8 15  1  0  0  0  0
  9  6  2  0  0  0  0
  9 10  1  0  0  0  0
 10  1  2  0  0  0  0
 11 20  1  0  0  0  0
 12  5  1  0  0  0  0
 13  8  1  0  0  0  0
 14  8  1  0  0  0  0
 16  9  1  0  0  0  0
 17 10  1  0  0  0  0
 18 22  1  0  0  0  0
 19 18  1  0  0  0  0
 21 18  1  0  0  0  0
M  RAD  3   2   2   3   3   4   2
M  END
