Coordinates from ORCA-job 4-MeOPhN2+~BF4-_B3LYPG-6-31G_dp-CH-Scan-d09-49-n800
 OpenBabel11261919343D

 22 21  0  0  0  0  0  0  0  0999 V2000
   -2.1360    0.2761    0.3706 C   0  0  0  0  0  0  0  0  0  0  0  0
   -3.4864    0.1019    0.5585 N   0  0  0  0  0  0  0  0  0  0  0  0
   -4.5637   -0.1433    0.7193 N   0  0  0  0  0  0  0  0  0  0  0  0
   -1.5651    1.5648    0.4427 C   0  0  0  0  0  0  0  0  0  0  0  0
   -0.2031    1.6637    0.2562 C   0  0  0  0  0  0  0  0  0  0  0  0
    0.5825    0.5213   -0.0072 C   0  0  0  0  0  0  0  0  0  0  0  0
    1.8920    0.7488   -0.1810 O   0  0  0  0  0  0  0  0  0  0  0  0
    2.7706   -0.3445   -0.4574 C   0  0  0  0  0  0  0  0  0  0  0  0
   -0.0137   -0.7570   -0.0698 C   0  0  0  0  0  0  0  0  0  0  0  0
   -1.3770   -0.8824    0.1245 C   0  0  0  0  0  0  0  0  0  0  0  0
   -2.1839    2.3831    0.6422 H   0  0  0  0  0  0  0  0  0  0  0  0
    0.2912    2.6277    0.3009 H   0  0  0  0  0  0  0  0  0  0  0  0
    3.7620    0.0954   -0.5577 H   0  0  0  0  0  0  0  0  0  0  0  0
    2.4967   -0.8445   -1.3927 H   0  0  0  0  0  0  0  0  0  0  0  0
    2.7725   -1.0673    0.3662 H   0  0  0  0  0  0  0  0  0  0  0  0
    0.5764   -1.6421   -0.2682 H   0  0  0  0  0  0  0  0  0  0  0  0
   -1.8577   -1.8536    0.0781 H   0  0  0  0  0  0  0  0  0  0  0  0
   -4.7760    2.7494    0.0318 B   0  0  0  0  0  0  0  0  0  0  0  0
   -3.9150    2.1758   -0.9487 F   0  0  0  0  0  0  0  0  0  0  0  0
   -4.0093    2.8296    1.2349 F   0  0  0  0  0  0  0  0  0  0  0  0
   -5.2319    3.9818   -0.3573 F   0  0  0  0  0  0  0  0  0  0  0  0
   -5.8291    1.8350    0.2608 F   0  0  0  0  0  0  0  0  0  0  0  0
  1  4  1  0  0  0  0
  1  2  1  0  0  0  0
  2  3  1  0  0  0  0
  4 11  1  0  0  0  0
  5 12  1  0  0  0  0
  5  4  2  0  0  0  0
  6  5  1  0  0  0  0
  7  6  1  0  0  0  0
  8  7  1  0  0  0  0
  8 15  1  0  0  0  0
  9  6  2  0  0  0  0
  9 10  1  0  0  0  0
 10  1  2  0  0  0  0
 13  8  1  0  0  0  0
 14  8  1  0  0  0  0
 16  9  1  0  0  0  0
 17 10  1  0  0  0  0
 18 22  1  0  0  0  0
 18 20  1  0  0  0  0
 19 18  1  0  0  0  0
 21 18  1  0  0  0  0
M  RAD  2   2   2   3   3
M  END
