Coordinates from ORCA-job 4-MeOPhN2+~BF4-_B3LYPG-6-31G_dp-CH-Scan-d09-49-n800
 OpenBabel11261919343D

 22 20  0  0  0  0  0  0  0  0999 V2000
   -1.7838    0.0276    0.0398 C   0  0  0  0  0  0  0  0  0  0  0  0
   -3.1521   -0.0997    0.1069 N   0  0  0  0  0  0  0  0  0  0  0  0
   -4.2714   -0.1482    0.1634 N   0  0  0  0  0  0  0  0  0  0  0  0
   -1.3241    1.3676    0.0640 C   0  0  0  0  0  0  0  0  0  0  0  0
    0.0802    1.3963   -0.0056 C   0  0  0  0  0  0  0  0  0  0  0  0
    0.8907    0.2527   -0.0853 C   0  0  0  0  0  0  0  0  0  0  0  0
    2.2261    0.4673   -0.1421 O   0  0  0  0  0  0  0  0  0  0  0  0
    3.1186   -0.6384   -0.2182 C   0  0  0  0  0  0  0  0  0  0  0  0
    0.3244   -1.0545   -0.1036 C   0  0  0  0  0  0  0  0  0  0  0  0
   -1.0426   -1.1820   -0.0400 C   0  0  0  0  0  0  0  0  0  0  0  0
   -3.4832    3.9796    0.3752 H   0  0  0  0  0  0  0  0  0  0  0  0
    0.6135    2.3475    0.0020 H   0  0  0  0  0  0  0  0  0  0  0  0
    4.1210   -0.2098   -0.2466 H   0  0  0  0  0  0  0  0  0  0  0  0
    2.9538   -1.2286   -1.1279 H   0  0  0  0  0  0  0  0  0  0  0  0
    3.0300   -1.2897    0.6599 H   0  0  0  0  0  0  0  0  0  0  0  0
    0.9474   -1.9376   -0.1656 H   0  0  0  0  0  0  0  0  0  0  0  0
   -1.5217   -2.1581   -0.0512 H   0  0  0  0  0  0  0  0  0  0  0  0
   -5.8158    2.9879    0.3328 B   0  0  0  0  0  0  0  0  0  0  0  0
   -5.1936    2.4574   -0.7204 F   0  0  0  0  0  0  0  0  0  0  0  0
   -4.2630    4.4086    0.6539 F   0  0  0  0  0  0  0  0  0  0  0  0
   -6.7687    3.8853    0.1453 F   0  0  0  0  0  0  0  0  0  0  0  0
   -5.6894    2.3885    1.5097 F   0  0  0  0  0  0  0  0  0  0  0  0
  1  4  1  0  0  0  0
  1  2  1  0  0  0  0
  2  3  1  0  0  0  0
  5 12  1  0  0  0  0
  5  4  2  0  0  0  0
  6  5  1  0  0  0  0
  7  6  1  0  0  0  0
  8  7  1  0  0  0  0
  8 15  1  0  0  0  0
  9  6  2  0  0  0  0
  9 10  1  0  0  0  0
 10  1  2  0  0  0  0
 11 20  1  0  0  0  0
 13  8  1  0  0  0  0
 14  8  1  0  0  0  0
 16  9  1  0  0  0  0
 17 10  1  0  0  0  0
 18 22  1  0  0  0  0
 19 18  1  0  0  0  0
 21 18  1  0  0  0  0
M  RAD  3   2   2   3   3   4   2
M  END
