Coordinates from ORCA-job 4-MeOPhN2+~BF4-_B3LYPG-6-31G_dp-CH-Scan-d09-49-n800
 OpenBabel11261919343D

 22 20  0  0  0  0  0  0  0  0999 V2000
   -1.9701    0.0499    0.1015 C   0  0  0  0  0  0  0  0  0  0  0  0
   -3.3279   -0.1424    0.1715 N   0  0  0  0  0  0  0  0  0  0  0  0
   -4.4394   -0.2669    0.2312 N   0  0  0  0  0  0  0  0  0  0  0  0
   -1.5322    1.3971    0.1647 C   0  0  0  0  0  0  0  0  0  0  0  0
   -0.1370    1.4823    0.0859 C   0  0  0  0  0  0  0  0  0  0  0  0
    0.7094    0.3669   -0.0395 C   0  0  0  0  0  0  0  0  0  0  0  0
    2.0321    0.6288   -0.1019 O   0  0  0  0  0  0  0  0  0  0  0  0
    2.9624   -0.4428   -0.2287 C   0  0  0  0  0  0  0  0  0  0  0  0
    0.1812   -0.9524   -0.0947 C   0  0  0  0  0  0  0  0  0  0  0  0
   -1.1813   -1.1235   -0.0236 C   0  0  0  0  0  0  0  0  0  0  0  0
   -2.9916    3.2000    0.3489 H   0  0  0  0  0  0  0  0  0  0  0  0
    0.3596    2.4508    0.1206 H   0  0  0  0  0  0  0  0  0  0  0  0
    3.9479    0.0225   -0.2551 H   0  0  0  0  0  0  0  0  0  0  0  0
    2.8035   -1.0049   -1.1566 H   0  0  0  0  0  0  0  0  0  0  0  0
    2.9076   -1.1255    0.6277 H   0  0  0  0  0  0  0  0  0  0  0  0
    0.8280   -1.8150   -0.1901 H   0  0  0  0  0  0  0  0  0  0  0  0
   -1.6280   -2.1134   -0.0622 H   0  0  0  0  0  0  0  0  0  0  0  0
   -5.3368    2.9672    0.2697 B   0  0  0  0  0  0  0  0  0  0  0  0
   -5.1052    2.3183   -0.8849 F   0  0  0  0  0  0  0  0  0  0  0  0
   -3.6914    3.8502    0.4153 F   0  0  0  0  0  0  0  0  0  0  0  0
   -6.1264    4.0396    0.2537 F   0  0  0  0  0  0  0  0  0  0  0  0
   -5.2681    2.2328    1.3928 F   0  0  0  0  0  0  0  0  0  0  0  0
  1  4  1  0  0  0  0
  1  2  1  0  0  0  0
  2  3  1  0  0  0  0
  5 12  1  0  0  0  0
  5  4  2  0  0  0  0
  6  5  1  0  0  0  0
  7  6  1  0  0  0  0
  8  7  1  0  0  0  0
  8 15  1  0  0  0  0
  9  6  2  0  0  0  0
  9 10  1  0  0  0  0
 10  1  2  0  0  0  0
 11 20  1  0  0  0  0
 13  8  1  0  0  0  0
 14  8  1  0  0  0  0
 16  9  1  0  0  0  0
 17 10  1  0  0  0  0
 18 22  1  0  0  0  0
 19 18  1  0  0  0  0
 21 18  1  0  0  0  0
M  RAD  3   2   2   3   3   4   2
M  END
