Coordinates from ORCA-job 4-MeOPhN2+~BF4-_B3LYPG-6-31G_dp-CH-Scan-d09-49-n800
 OpenBabel11261919343D

 22 20  0  0  0  0  0  0  0  0999 V2000
   -1.7773    0.0297    0.0371 C   0  0  0  0  0  0  0  0  0  0  0  0
   -3.1460   -0.0945    0.1038 N   0  0  0  0  0  0  0  0  0  0  0  0
   -4.2656   -0.1402    0.1600 N   0  0  0  0  0  0  0  0  0  0  0  0
   -1.3154    1.3690    0.0590 C   0  0  0  0  0  0  0  0  0  0  0  0
    0.0891    1.3946   -0.0099 C   0  0  0  0  0  0  0  0  0  0  0  0
    0.8974    0.2494   -0.0870 C   0  0  0  0  0  0  0  0  0  0  0  0
    2.2334    0.4612   -0.1435 O   0  0  0  0  0  0  0  0  0  0  0  0
    3.1237   -0.6464   -0.2174 C   0  0  0  0  0  0  0  0  0  0  0  0
    0.3286   -1.0568   -0.1030 C   0  0  0  0  0  0  0  0  0  0  0  0
   -1.0386   -1.1816   -0.0399 C   0  0  0  0  0  0  0  0  0  0  0  0
   -3.5033    4.0023    0.3747 H   0  0  0  0  0  0  0  0  0  0  0  0
    0.6243    2.3448   -0.0040 H   0  0  0  0  0  0  0  0  0  0  0  0
    4.1269   -0.2198   -0.2463 H   0  0  0  0  0  0  0  0  0  0  0  0
    2.9579   -1.2380   -1.1260 H   0  0  0  0  0  0  0  0  0  0  0  0
    3.0335   -1.2958    0.6620 H   0  0  0  0  0  0  0  0  0  0  0  0
    0.9500   -1.9412   -0.1629 H   0  0  0  0  0  0  0  0  0  0  0  0
   -1.5197   -2.1567   -0.0493 H   0  0  0  0  0  0  0  0  0  0  0  0
   -5.8294    2.9875    0.3351 B   0  0  0  0  0  0  0  0  0  0  0  0
   -5.2003    2.4657   -0.7181 F   0  0  0  0  0  0  0  0  0  0  0  0
   -4.2850    4.4210    0.6627 F   0  0  0  0  0  0  0  0  0  0  0  0
   -6.7878    3.8790    0.1485 F   0  0  0  0  0  0  0  0  0  0  0  0
   -5.7003    2.3865    1.5107 F   0  0  0  0  0  0  0  0  0  0  0  0
  1  4  1  0  0  0  0
  1  2  1  0  0  0  0
  2  3  1  0  0  0  0
  5 12  1  0  0  0  0
  5  4  2  0  0  0  0
  6  5  1  0  0  0  0
  7  6  1  0  0  0  0
  8  7  1  0  0  0  0
  8 15  1  0  0  0  0
  9  6  2  0  0  0  0
  9 10  1  0  0  0  0
 10  1  2  0  0  0  0
 11 20  1  0  0  0  0
 13  8  1  0  0  0  0
 14  8  1  0  0  0  0
 16  9  1  0  0  0  0
 17 10  1  0  0  0  0
 18 22  1  0  0  0  0
 19 18  1  0  0  0  0
 21 18  1  0  0  0  0
M  RAD  3   2   2   3   3   4   2
M  END
