Coordinates from ORCA-job 4-MeOPhN2+~BF4-_B3LYPG-6-31G_dp-CH-Scan-d09-49-n800
 OpenBabel11261919343D

 22 20  0  0  0  0  0  0  0  0999 V2000
   -1.7597    0.0353    0.0325 C   0  0  0  0  0  0  0  0  0  0  0  0
   -3.1295   -0.0801    0.0989 N   0  0  0  0  0  0  0  0  0  0  0  0
   -4.2496   -0.1176    0.1522 N   0  0  0  0  0  0  0  0  0  0  0  0
   -1.2920    1.3724    0.0459 C   0  0  0  0  0  0  0  0  0  0  0  0
    0.1129    1.3901   -0.0230 C   0  0  0  0  0  0  0  0  0  0  0  0
    0.9153    0.2403   -0.0926 C   0  0  0  0  0  0  0  0  0  0  0  0
    2.2526    0.4447   -0.1506 O   0  0  0  0  0  0  0  0  0  0  0  0
    3.1369   -0.6680   -0.2176 C   0  0  0  0  0  0  0  0  0  0  0  0
    0.3400   -1.0633   -0.1001 C   0  0  0  0  0  0  0  0  0  0  0  0
   -1.0279   -1.1807   -0.0364 C   0  0  0  0  0  0  0  0  0  0  0  0
   -3.5610    4.0664    0.3827 H   0  0  0  0  0  0  0  0  0  0  0  0
    0.6533    2.3375   -0.0232 H   0  0  0  0  0  0  0  0  0  0  0  0
    4.1424   -0.2471   -0.2496 H   0  0  0  0  0  0  0  0  0  0  0  0
    2.9677   -1.2647   -1.1223 H   0  0  0  0  0  0  0  0  0  0  0  0
    3.0436   -1.3114    0.6659 H   0  0  0  0  0  0  0  0  0  0  0  0
    0.9570   -1.9511   -0.1541 H   0  0  0  0  0  0  0  0  0  0  0  0
   -1.5140   -2.1534   -0.0395 H   0  0  0  0  0  0  0  0  0  0  0  0
   -5.8640    2.9862    0.3368 B   0  0  0  0  0  0  0  0  0  0  0  0
   -5.2055    2.4915   -0.7113 F   0  0  0  0  0  0  0  0  0  0  0  0
   -4.3473    4.4541    0.6987 F   0  0  0  0  0  0  0  0  0  0  0  0
   -6.8369    3.8603    0.1445 F   0  0  0  0  0  0  0  0  0  0  0  0
   -5.7381    2.3781    1.5085 F   0  0  0  0  0  0  0  0  0  0  0  0
  1  4  1  0  0  0  0
  1  2  1  0  0  0  0
  2  3  1  0  0  0  0
  5  4  2  0  0  0  0
  6  5  1  0  0  0  0
  7  6  1  0  0  0  0
  8  7  1  0  0  0  0
  8 15  1  0  0  0  0
  9  6  2  0  0  0  0
  9 10  1  0  0  0  0
 10  1  2  0  0  0  0
 11 20  1  0  0  0  0
 12  5  1  0  0  0  0
 13  8  1  0  0  0  0
 14  8  1  0  0  0  0
 16  9  1  0  0  0  0
 17 10  1  0  0  0  0
 18 22  1  0  0  0  0
 19 18  1  0  0  0  0
 21 18  1  0  0  0  0
M  RAD  3   2   2   3   3   4   2
M  END
