Coordinates from ORCA-job 4-MeOPhN2+~BF4-_B3LYPG-6-31G_dp-CH-Scan-d09-49-n800
 OpenBabel11261919343D

 22 20  0  0  0  0  0  0  0  0999 V2000
   -1.9476    0.0491    0.0998 C   0  0  0  0  0  0  0  0  0  0  0  0
   -3.3068   -0.1350    0.1711 N   0  0  0  0  0  0  0  0  0  0  0  0
   -4.4190   -0.2537    0.2329 N   0  0  0  0  0  0  0  0  0  0  0  0
   -1.5062    1.3948    0.1644 C   0  0  0  0  0  0  0  0  0  0  0  0
   -0.1098    1.4733    0.0857 C   0  0  0  0  0  0  0  0  0  0  0  0
    0.7314    0.3543   -0.0407 C   0  0  0  0  0  0  0  0  0  0  0  0
    2.0560    0.6097   -0.1023 O   0  0  0  0  0  0  0  0  0  0  0  0
    2.9807   -0.4663   -0.2298 C   0  0  0  0  0  0  0  0  0  0  0  0
    0.1977   -0.9631   -0.0980 C   0  0  0  0  0  0  0  0  0  0  0  0
   -1.1654   -1.1288   -0.0271 C   0  0  0  0  0  0  0  0  0  0  0  0
   -3.0424    3.2833    0.3555 H   0  0  0  0  0  0  0  0  0  0  0  0
    0.3918    2.4393    0.1215 H   0  0  0  0  0  0  0  0  0  0  0  0
    3.9687   -0.0061   -0.2545 H   0  0  0  0  0  0  0  0  0  0  0  0
    2.8201   -1.0263   -1.1587 H   0  0  0  0  0  0  0  0  0  0  0  0
    2.9217   -1.1502    0.6254 H   0  0  0  0  0  0  0  0  0  0  0  0
    0.8411   -1.8280   -0.1947 H   0  0  0  0  0  0  0  0  0  0  0  0
   -1.6164   -2.1167   -0.0671 H   0  0  0  0  0  0  0  0  0  0  0  0
   -5.3990    2.9704    0.2721 B   0  0  0  0  0  0  0  0  0  0  0  0
   -5.1380    2.3304   -0.8787 F   0  0  0  0  0  0  0  0  0  0  0  0
   -3.7529    3.9133    0.4195 F   0  0  0  0  0  0  0  0  0  0  0  0
   -6.2066    4.0274    0.2517 F   0  0  0  0  0  0  0  0  0  0  0  0
   -5.3030    2.2485    1.3986 F   0  0  0  0  0  0  0  0  0  0  0  0
  1  4  1  0  0  0  0
  1  2  1  0  0  0  0
  2  3  1  0  0  0  0
  5 12  1  0  0  0  0
  5  4  2  0  0  0  0
  6  5  1  0  0  0  0
  7  6  1  0  0  0  0
  8  7  1  0  0  0  0
  8 15  1  0  0  0  0
  9  6  2  0  0  0  0
  9 10  1  0  0  0  0
 10  1  2  0  0  0  0
 11 20  1  0  0  0  0
 13  8  1  0  0  0  0
 14  8  1  0  0  0  0
 16  9  1  0  0  0  0
 17 10  1  0  0  0  0
 18 22  1  0  0  0  0
 19 18  1  0  0  0  0
 21 18  1  0  0  0  0
M  RAD  3   2   2   3   3   4   2
M  END
