Coordinates from ORCA-job 4-MeOPhN2+~BF4-_B3LYPG-6-31G_dp-CH-Scan-d09-49-n800
 OpenBabel11261919343D

 22 20  0  0  0  0  0  0  0  0999 V2000
   -1.6609    0.0640    0.0572 C   0  0  0  0  0  0  0  0  0  0  0  0
   -3.0338   -0.0027    0.1460 N   0  0  0  0  0  0  0  0  0  0  0  0
   -4.1538    0.0083    0.2193 N   0  0  0  0  0  0  0  0  0  0  0  0
   -1.1580    1.3872    0.0515 C   0  0  0  0  0  0  0  0  0  0  0  0
    0.2469    1.3614   -0.0397 C   0  0  0  0  0  0  0  0  0  0  0  0
    1.0131    0.1880   -0.1117 C   0  0  0  0  0  0  0  0  0  0  0  0
    2.3559    0.3511   -0.1929 O   0  0  0  0  0  0  0  0  0  0  0  0
    3.2043   -0.7884   -0.2636 C   0  0  0  0  0  0  0  0  0  0  0  0
    0.3998   -1.0989   -0.0983 C   0  0  0  0  0  0  0  0  0  0  0  0
   -0.9697   -1.1757   -0.0120 C   0  0  0  0  0  0  0  0  0  0  0  0
   -3.9667    4.4257    0.4721 H   0  0  0  0  0  0  0  0  0  0  0  0
    0.8156    2.2923   -0.0571 H   0  0  0  0  0  0  0  0  0  0  0  0
    4.2219   -0.3990   -0.3145 H   0  0  0  0  0  0  0  0  0  0  0  0
    3.0036   -1.3875   -1.1604 H   0  0  0  0  0  0  0  0  0  0  0  0
    3.1053   -1.4218    0.6265 H   0  0  0  0  0  0  0  0  0  0  0  0
    0.9903   -2.0046   -0.1541 H   0  0  0  0  0  0  0  0  0  0  0  0
   -1.4847   -2.1335    0.0016 H   0  0  0  0  0  0  0  0  0  0  0  0
   -6.0151    2.9822    0.2908 B   0  0  0  0  0  0  0  0  0  0  0  0
   -5.0967    2.6385   -0.6137 F   0  0  0  0  0  0  0  0  0  0  0  0
   -4.7545    4.6450    0.9172 F   0  0  0  0  0  0  0  0  0  0  0  0
   -7.0444    3.7235   -0.0787 F   0  0  0  0  0  0  0  0  0  0  0  0
   -6.0223    2.3645    1.4608 F   0  0  0  0  0  0  0  0  0  0  0  0
  1  2  1  0  0  0  0
  2  3  1  0  0  0  0
  4  1  1  0  0  0  0
  5  4  2  0  0  0  0
  6  9  2  0  0  0  0
  6  5  1  0  0  0  0
  7  6  1  0  0  0  0
  8  7  1  0  0  0  0
  8 15  1  0  0  0  0
  9 10  1  0  0  0  0
 10 17  1  0  0  0  0
 10  1  2  0  0  0  0
 11 20  1  0  0  0  0
 12  5  1  0  0  0  0
 13  8  1  0  0  0  0
 14  8  1  0  0  0  0
 16  9  1  0  0  0  0
 18 22  1  0  0  0  0
 19 18  1  0  0  0  0
 21 18  1  0  0  0  0
M  RAD  3   2   2   3   3   4   2
M  END
