Coordinates from ORCA-job 4-MeOPhN2+~BF4-_B3LYPG-6-31G_dp-CH-Scan-d09-49-n800
 OpenBabel11261919343D

 22 20  0  0  0  0  0  0  0  0999 V2000
   -1.7923    0.0415    0.0887 C   0  0  0  0  0  0  0  0  0  0  0  0
   -3.1603   -0.0833    0.1587 N   0  0  0  0  0  0  0  0  0  0  0  0
   -4.2793   -0.1319    0.2199 N   0  0  0  0  0  0  0  0  0  0  0  0
   -1.3256    1.3779    0.1535 C   0  0  0  0  0  0  0  0  0  0  0  0
    0.0777    1.4041    0.0738 C   0  0  0  0  0  0  0  0  0  0  0  0
    0.8828    0.2606   -0.0516 C   0  0  0  0  0  0  0  0  0  0  0  0
    2.2181    0.4722   -0.1145 O   0  0  0  0  0  0  0  0  0  0  0  0
    3.1055   -0.6330   -0.2415 C   0  0  0  0  0  0  0  0  0  0  0  0
    0.3109   -1.0430   -0.1075 C   0  0  0  0  0  0  0  0  0  0  0  0
   -1.0561   -1.1672   -0.0365 C   0  0  0  0  0  0  0  0  0  0  0  0
   -3.4262    3.9275    0.4046 H   0  0  0  0  0  0  0  0  0  0  0  0
    0.6145    2.3526    0.1083 H   0  0  0  0  0  0  0  0  0  0  0  0
    4.1090   -0.2068   -0.2676 H   0  0  0  0  0  0  0  0  0  0  0  0
    2.9270   -1.1898   -1.1695 H   0  0  0  0  0  0  0  0  0  0  0  0
    3.0257   -1.3150    0.6139 H   0  0  0  0  0  0  0  0  0  0  0  0
    0.9296   -1.9261   -0.2033 H   0  0  0  0  0  0  0  0  0  0  0  0
   -1.5392   -2.1406   -0.0754 H   0  0  0  0  0  0  0  0  0  0  0  0
   -5.7936    2.9674    0.2881 B   0  0  0  0  0  0  0  0  0  0  0  0
   -5.3267    2.4526   -0.8469 F   0  0  0  0  0  0  0  0  0  0  0  0
   -4.2341    4.3899    0.4705 F   0  0  0  0  0  0  0  0  0  0  0  0
   -6.7624    3.8670    0.2535 F   0  0  0  0  0  0  0  0  0  0  0  0
   -5.5090    2.3430    1.4273 F   0  0  0  0  0  0  0  0  0  0  0  0
  1  4  1  0  0  0  0
  1  2  1  0  0  0  0
  2  3  1  0  0  0  0
  5 12  1  0  0  0  0
  5  4  2  0  0  0  0
  6  5  1  0  0  0  0
  7  6  1  0  0  0  0
  8  7  1  0  0  0  0
  8 15  1  0  0  0  0
  9  6  2  0  0  0  0
  9 10  1  0  0  0  0
 10  1  2  0  0  0  0
 11 20  1  0  0  0  0
 13  8  1  0  0  0  0
 14  8  1  0  0  0  0
 16  9  1  0  0  0  0
 17 10  1  0  0  0  0
 18 22  1  0  0  0  0
 19 18  1  0  0  0  0
 21 18  1  0  0  0  0
M  RAD  3   2   2   3   3   4   2
M  END
