Coordinates from ORCA-job 4-MeOPhN2+~BF4-_B3LYPG-6-31G_dp-CH-Scan-d09-49-n800
 OpenBabel11261919343D

 22 20  0  0  0  0  0  0  0  0999 V2000
   -1.6641    0.0636    0.0573 C   0  0  0  0  0  0  0  0  0  0  0  0
   -3.0371   -0.0044    0.1460 N   0  0  0  0  0  0  0  0  0  0  0  0
   -4.1572    0.0049    0.2166 N   0  0  0  0  0  0  0  0  0  0  0  0
   -1.1623    1.3873    0.0508 C   0  0  0  0  0  0  0  0  0  0  0  0
    0.2426    1.3627   -0.0402 C   0  0  0  0  0  0  0  0  0  0  0  0
    1.0098    0.1899   -0.1116 C   0  0  0  0  0  0  0  0  0  0  0  0
    2.3524    0.3541   -0.1928 O   0  0  0  0  0  0  0  0  0  0  0  0
    3.2019   -0.7847   -0.2630 C   0  0  0  0  0  0  0  0  0  0  0  0
    0.3976   -1.0975   -0.0977 C   0  0  0  0  0  0  0  0  0  0  0  0
   -0.9718   -1.1754   -0.0114 C   0  0  0  0  0  0  0  0  0  0  0  0
   -3.9536    4.4142    0.4731 H   0  0  0  0  0  0  0  0  0  0  0  0
    0.8105    2.2940   -0.0581 H   0  0  0  0  0  0  0  0  0  0  0  0
    4.2191   -0.3944   -0.3140 H   0  0  0  0  0  0  0  0  0  0  0  0
    3.0017   -1.3844   -1.1594 H   0  0  0  0  0  0  0  0  0  0  0  0
    3.1034   -1.4177    0.6275 H   0  0  0  0  0  0  0  0  0  0  0  0
    0.9889   -2.0027   -0.1529 H   0  0  0  0  0  0  0  0  0  0  0  0
   -1.4860   -2.1337    0.0027 H   0  0  0  0  0  0  0  0  0  0  0  0
   -6.0096    2.9815    0.2905 B   0  0  0  0  0  0  0  0  0  0  0  0
   -5.0945    2.6344   -0.6160 F   0  0  0  0  0  0  0  0  0  0  0  0
   -4.7415    4.6381    0.9157 F   0  0  0  0  0  0  0  0  0  0  0  0
   -7.0368    3.7270   -0.0766 F   0  0  0  0  0  0  0  0  0  0  0  0
   -6.0172    2.3630    1.4601 F   0  0  0  0  0  0  0  0  0  0  0  0
  1  2  1  0  0  0  0
  2  3  1  0  0  0  0
  4  1  1  0  0  0  0
  5  4  2  0  0  0  0
  6  9  2  0  0  0  0
  6  5  1  0  0  0  0
  7  6  1  0  0  0  0
  8  7  1  0  0  0  0
  8 15  1  0  0  0  0
  9 10  1  0  0  0  0
 10 17  1  0  0  0  0
 10  1  2  0  0  0  0
 11 20  1  0  0  0  0
 12  5  1  0  0  0  0
 13  8  1  0  0  0  0
 14  8  1  0  0  0  0
 16  9  1  0  0  0  0
 18 22  1  0  0  0  0
 19 18  1  0  0  0  0
 21 18  1  0  0  0  0
M  RAD  3   2   2   3   3   4   2
M  END
