Coordinates from ORCA-job 4-MeOPhN2+~BF4-_B3LYPG-6-31G_dp-CH-Scan-d09-49-n800
 OpenBabel11261919343D

 22 20  0  0  0  0  0  0  0  0999 V2000
   -1.6733    0.0621    0.0547 C   0  0  0  0  0  0  0  0  0  0  0  0
   -3.0465   -0.0083    0.1423 N   0  0  0  0  0  0  0  0  0  0  0  0
   -4.1665    0.0030    0.2129 N   0  0  0  0  0  0  0  0  0  0  0  0
   -1.1748    1.3868    0.0473 C   0  0  0  0  0  0  0  0  0  0  0  0
    0.2302    1.3658   -0.0422 C   0  0  0  0  0  0  0  0  0  0  0  0
    1.0004    0.1947   -0.1115 C   0  0  0  0  0  0  0  0  0  0  0  0
    2.3426    0.3622   -0.1916 O   0  0  0  0  0  0  0  0  0  0  0  0
    3.1949   -0.7746   -0.2597 C   0  0  0  0  0  0  0  0  0  0  0  0
    0.3913   -1.0940   -0.0967 C   0  0  0  0  0  0  0  0  0  0  0  0
   -0.9781   -1.1752   -0.0117 C   0  0  0  0  0  0  0  0  0  0  0  0
   -3.9198    4.3877    0.4710 H   0  0  0  0  0  0  0  0  0  0  0  0
    0.7958    2.2985   -0.0605 H   0  0  0  0  0  0  0  0  0  0  0  0
    4.2112   -0.3819   -0.3102 H   0  0  0  0  0  0  0  0  0  0  0  0
    2.9969   -1.3757   -1.1557 H   0  0  0  0  0  0  0  0  0  0  0  0
    3.0972   -1.4069    0.6314 H   0  0  0  0  0  0  0  0  0  0  0  0
    0.9848   -1.9979   -0.1503 H   0  0  0  0  0  0  0  0  0  0  0  0
   -1.4899   -2.1347    0.0030 H   0  0  0  0  0  0  0  0  0  0  0  0
   -5.9927    2.9767    0.2917 B   0  0  0  0  0  0  0  0  0  0  0  0
   -5.0852    2.6226   -0.6198 F   0  0  0  0  0  0  0  0  0  0  0  0
   -4.7067    4.6206    0.9109 F   0  0  0  0  0  0  0  0  0  0  0  0
   -7.0159    3.7303   -0.0701 F   0  0  0  0  0  0  0  0  0  0  0  0
   -5.9998    2.3580    1.4613 F   0  0  0  0  0  0  0  0  0  0  0  0
  1  2  1  0  0  0  0
  2  3  1  0  0  0  0
  4  1  1  0  0  0  0
  5  4  2  0  0  0  0
  6  9  2  0  0  0  0
  6  5  1  0  0  0  0
  7  6  1  0  0  0  0
  8  7  1  0  0  0  0
  8 15  1  0  0  0  0
  9 10  1  0  0  0  0
 10 17  1  0  0  0  0
 10  1  2  0  0  0  0
 11 20  1  0  0  0  0
 12  5  1  0  0  0  0
 13  8  1  0  0  0  0
 14  8  1  0  0  0  0
 16  9  1  0  0  0  0
 18 22  1  0  0  0  0
 19 18  1  0  0  0  0
 21 18  1  0  0  0  0
M  RAD  3   2   2   3   3   4   2
M  END
