Coordinates from ORCA-job 4-MeOPhN2+~BF4-_B3LYPG-6-31G_dp-CH-Scan-d09-49-n800
 OpenBabel11261919343D

 22 20  0  0  0  0  0  0  0  0999 V2000
   -1.8155    0.0420    0.0828 C   0  0  0  0  0  0  0  0  0  0  0  0
   -3.1827   -0.0931    0.1478 N   0  0  0  0  0  0  0  0  0  0  0  0
   -4.3011   -0.1541    0.2054 N   0  0  0  0  0  0  0  0  0  0  0  0
   -1.3533    1.3799    0.1473 C   0  0  0  0  0  0  0  0  0  0  0  0
    0.0493    1.4143    0.0719 C   0  0  0  0  0  0  0  0  0  0  0  0
    0.8607    0.2745   -0.0498 C   0  0  0  0  0  0  0  0  0  0  0  0
    2.1946    0.4931   -0.1091 O   0  0  0  0  0  0  0  0  0  0  0  0
    3.0884   -0.6076   -0.2327 C   0  0  0  0  0  0  0  0  0  0  0  0
    0.2951   -1.0315   -0.1055 C   0  0  0  0  0  0  0  0  0  0  0  0
   -1.0715   -1.1623   -0.0385 C   0  0  0  0  0  0  0  0  0  0  0  0
   -3.3577    3.8279    0.3853 H   0  0  0  0  0  0  0  0  0  0  0  0
    0.5806    2.3657    0.1068 H   0  0  0  0  0  0  0  0  0  0  0  0
    4.0894   -0.1758   -0.2570 H   0  0  0  0  0  0  0  0  0  0  0  0
    2.9148   -1.1663   -1.1604 H   0  0  0  0  0  0  0  0  0  0  0  0
    3.0102   -1.2887    0.6235 H   0  0  0  0  0  0  0  0  0  0  0  0
    0.9182   -1.9118   -0.1981 H   0  0  0  0  0  0  0  0  0  0  0  0
   -1.5493   -2.1382   -0.0775 H   0  0  0  0  0  0  0  0  0  0  0  0
   -5.7458    2.9689    0.2976 B   0  0  0  0  0  0  0  0  0  0  0  0
   -5.3340    2.4314   -0.8489 F   0  0  0  0  0  0  0  0  0  0  0  0
   -4.1491    4.3211    0.4389 F   0  0  0  0  0  0  0  0  0  0  0  0
   -6.6854    3.9004    0.2871 F   0  0  0  0  0  0  0  0  0  0  0  0
   -5.4595    2.3299    1.4294 F   0  0  0  0  0  0  0  0  0  0  0  0
  1  4  1  0  0  0  0
  1  2  1  0  0  0  0
  2  3  1  0  0  0  0
  5 12  1  0  0  0  0
  5  4  2  0  0  0  0
  6  5  1  0  0  0  0
  7  6  1  0  0  0  0
  8  7  1  0  0  0  0
  8 15  1  0  0  0  0
  9  6  2  0  0  0  0
  9 10  1  0  0  0  0
 10  1  2  0  0  0  0
 11 20  1  0  0  0  0
 13  8  1  0  0  0  0
 14  8  1  0  0  0  0
 16  9  1  0  0  0  0
 17 10  1  0  0  0  0
 18 22  1  0  0  0  0
 19 18  1  0  0  0  0
 21 18  1  0  0  0  0
M  RAD  3   2   2   3   3   4   2
M  END
