Coordinates from ORCA-job 4-MeOPhN2+~BF4-_B3LYPG-6-31G_dp-CH-Scan-d09-49-n800
 OpenBabel11261919343D

 22 20  0  0  0  0  0  0  0  0999 V2000
   -2.1203    0.0931    0.2040 C   0  0  0  0  0  0  0  0  0  0  0  0
   -3.4683   -0.1367    0.3144 N   0  0  0  0  0  0  0  0  0  0  0  0
   -4.5670   -0.3102    0.4187 N   0  0  0  0  0  0  0  0  0  0  0  0
   -1.6622    1.4292    0.3111 C   0  0  0  0  0  0  0  0  0  0  0  0
   -0.2833    1.5582    0.2007 C   0  0  0  0  0  0  0  0  0  0  0  0
    0.5727    0.4580   -0.0025 C   0  0  0  0  0  0  0  0  0  0  0  0
    1.8836    0.7433   -0.0914 O   0  0  0  0  0  0  0  0  0  0  0  0
    2.8266   -0.3077   -0.3001 C   0  0  0  0  0  0  0  0  0  0  0  0
    0.0523   -0.8571   -0.1030 C   0  0  0  0  0  0  0  0  0  0  0  0
   -1.3080   -1.0474    0.0016 C   0  0  0  0  0  0  0  0  0  0  0  0
   -2.6594    2.6378    0.4788 H   0  0  0  0  0  0  0  0  0  0  0  0
    0.1854    2.5365    0.2653 H   0  0  0  0  0  0  0  0  0  0  0  0
    3.8028    0.1753   -0.3322 H   0  0  0  0  0  0  0  0  0  0  0  0
    2.6448   -0.8228   -1.2501 H   0  0  0  0  0  0  0  0  0  0  0  0
    2.8052   -1.0309    0.5234 H   0  0  0  0  0  0  0  0  0  0  0  0
    0.7012   -1.7090   -0.2591 H   0  0  0  0  0  0  0  0  0  0  0  0
   -1.7417   -2.0401   -0.0699 H   0  0  0  0  0  0  0  0  0  0  0  0
   -4.8394    2.9088    0.1371 B   0  0  0  0  0  0  0  0  0  0  0  0
   -4.5574    2.1455   -0.9794 F   0  0  0  0  0  0  0  0  0  0  0  0
   -3.4365    3.4761    0.5586 F   0  0  0  0  0  0  0  0  0  0  0  0
   -5.6145    3.9956   -0.0863 F   0  0  0  0  0  0  0  0  0  0  0  0
   -5.2203    2.1243    1.2069 F   0  0  0  0  0  0  0  0  0  0  0  0
  1  4  1  0  0  0  0
  1  2  1  0  0  0  0
  2  3  1  0  0  0  0
  5 12  1  0  0  0  0
  5  4  2  0  0  0  0
  6  5  1  0  0  0  0
  7  6  1  0  0  0  0
  8  7  1  0  0  0  0
  8 15  1  0  0  0  0
  9  6  2  0  0  0  0
  9 10  1  0  0  0  0
 10  1  2  0  0  0  0
 11 20  1  0  0  0  0
 13  8  1  0  0  0  0
 14  8  1  0  0  0  0
 16  9  1  0  0  0  0
 17 10  1  0  0  0  0
 18 22  1  0  0  0  0
 19 18  1  0  0  0  0
 21 18  1  0  0  0  0
M  RAD  3   2   2   3   3   4   2
M  END
