Coordinates from ORCA-job 4-MeOPhN2+~BF4-_B3LYPG-6-31G_dp-CH-Scan-d09-49-n800
 OpenBabel11261919343D

 22 20  0  0  0  0  0  0  0  0999 V2000
   -1.7781    0.0301    0.0377 C   0  0  0  0  0  0  0  0  0  0  0  0
   -3.1468   -0.0942    0.1048 N   0  0  0  0  0  0  0  0  0  0  0  0
   -4.2663   -0.1407    0.1596 N   0  0  0  0  0  0  0  0  0  0  0  0
   -1.3161    1.3694    0.0590 C   0  0  0  0  0  0  0  0  0  0  0  0
    0.0883    1.3952   -0.0102 C   0  0  0  0  0  0  0  0  0  0  0  0
    0.8967    0.2500   -0.0871 C   0  0  0  0  0  0  0  0  0  0  0  0
    2.2326    0.4619   -0.1439 O   0  0  0  0  0  0  0  0  0  0  0  0
    3.1230   -0.6457   -0.2177 C   0  0  0  0  0  0  0  0  0  0  0  0
    0.3279   -1.0563   -0.1027 C   0  0  0  0  0  0  0  0  0  0  0  0
   -1.0393   -1.1811   -0.0392 C   0  0  0  0  0  0  0  0  0  0  0  0
   -3.5006    3.9986    0.3779 H   0  0  0  0  0  0  0  0  0  0  0  0
    0.6234    2.3454   -0.0046 H   0  0  0  0  0  0  0  0  0  0  0  0
    4.1261   -0.2190   -0.2470 H   0  0  0  0  0  0  0  0  0  0  0  0
    2.9570   -1.2375   -1.1261 H   0  0  0  0  0  0  0  0  0  0  0  0
    3.0331   -1.2949    0.6618 H   0  0  0  0  0  0  0  0  0  0  0  0
    0.9494   -1.9406   -0.1624 H   0  0  0  0  0  0  0  0  0  0  0  0
   -1.5202   -2.1563   -0.0483 H   0  0  0  0  0  0  0  0  0  0  0  0
   -5.8276    2.9871    0.3340 B   0  0  0  0  0  0  0  0  0  0  0  0
   -5.1982    2.4647   -0.7187 F   0  0  0  0  0  0  0  0  0  0  0  0
   -4.2825    4.4186    0.6635 F   0  0  0  0  0  0  0  0  0  0  0  0
   -6.7851    3.8795    0.1467 F   0  0  0  0  0  0  0  0  0  0  0  0
   -5.7003    2.3856    1.5096 F   0  0  0  0  0  0  0  0  0  0  0  0
  1  4  1  0  0  0  0
  1  2  1  0  0  0  0
  2  3  1  0  0  0  0
  5 12  1  0  0  0  0
  5  4  2  0  0  0  0
  6  5  1  0  0  0  0
  7  6  1  0  0  0  0
  8  7  1  0  0  0  0
  8 15  1  0  0  0  0
  9  6  2  0  0  0  0
  9 10  1  0  0  0  0
 10  1  2  0  0  0  0
 11 20  1  0  0  0  0
 13  8  1  0  0  0  0
 14  8  1  0  0  0  0
 16  9  1  0  0  0  0
 17 10  1  0  0  0  0
 18 22  1  0  0  0  0
 19 18  1  0  0  0  0
 21 18  1  0  0  0  0
M  RAD  3   2   2   3   3   4   2
M  END
