Coordinates from ORCA-job 4-MeOPhN2+~BF4-_B3LYPG-6-31G_dp-CH-Scan-d09-49-n800
 OpenBabel11261919343D

 22 21  0  0  0  0  0  0  0  0999 V2000
   -2.1405    0.2114    0.3620 C   0  0  0  0  0  0  0  0  0  0  0  0
   -3.4882    0.0254    0.5467 N   0  0  0  0  0  0  0  0  0  0  0  0
   -4.5721   -0.1782    0.7233 N   0  0  0  0  0  0  0  0  0  0  0  0
   -1.5859    1.5036    0.4896 C   0  0  0  0  0  0  0  0  0  0  0  0
   -0.2237    1.6248    0.3201 C   0  0  0  0  0  0  0  0  0  0  0  0
    0.5755    0.5014    0.0164 C   0  0  0  0  0  0  0  0  0  0  0  0
    1.8839    0.7487   -0.1363 O   0  0  0  0  0  0  0  0  0  0  0  0
    2.7760   -0.3224   -0.4544 C   0  0  0  0  0  0  0  0  0  0  0  0
   -0.0061   -0.7801   -0.1066 C   0  0  0  0  0  0  0  0  0  0  0  0
   -1.3687   -0.9290    0.0723 C   0  0  0  0  0  0  0  0  0  0  0  0
   -2.2829    2.3888    0.7216 H   0  0  0  0  0  0  0  0  0  0  0  0
    0.2610    2.5908    0.4064 H   0  0  0  0  0  0  0  0  0  0  0  0
    3.7640    0.1311   -0.5234 H   0  0  0  0  0  0  0  0  0  0  0  0
    2.5163   -0.7799   -1.4151 H   0  0  0  0  0  0  0  0  0  0  0  0
    2.7767   -1.0834    0.3340 H   0  0  0  0  0  0  0  0  0  0  0  0
    0.5958   -1.6486   -0.3394 H   0  0  0  0  0  0  0  0  0  0  0  0
   -1.8386   -1.9024   -0.0177 H   0  0  0  0  0  0  0  0  0  0  0  0
   -4.7526    2.8126    0.0142 B   0  0  0  0  0  0  0  0  0  0  0  0
   -3.9598    2.0838   -0.9179 F   0  0  0  0  0  0  0  0  0  0  0  0
   -3.8800    3.2143    1.0709 F   0  0  0  0  0  0  0  0  0  0  0  0
   -5.3510    3.8950   -0.5756 F   0  0  0  0  0  0  0  0  0  0  0  0
   -5.7024    1.9118    0.5556 F   0  0  0  0  0  0  0  0  0  0  0  0
  1  4  1  0  0  0  0
  1  2  1  0  0  0  0
  2  3  1  0  0  0  0
  4 11  1  0  0  0  0
  5 12  1  0  0  0  0
  5  4  2  0  0  0  0
  6  5  1  0  0  0  0
  7  6  1  0  0  0  0
  8  7  1  0  0  0  0
  8 15  1  0  0  0  0
  9  6  2  0  0  0  0
  9 10  1  0  0  0  0
 10  1  2  0  0  0  0
 13  8  1  0  0  0  0
 14  8  1  0  0  0  0
 16  9  1  0  0  0  0
 17 10  1  0  0  0  0
 18 22  1  0  0  0  0
 18 20  1  0  0  0  0
 19 18  1  0  0  0  0
 21 18  1  0  0  0  0
M  RAD  2   2   2   3   3
M  END
