Coordinates from ORCA-job 4-MeOPhN2+~BF4-_B3LYPG-6-31G_dp-CH-Scan-d09-49-n800
 OpenBabel11261919343D

 22 20  0  0  0  0  0  0  0  0999 V2000
   -1.8709    0.0432    0.0731 C   0  0  0  0  0  0  0  0  0  0  0  0
   -3.2353   -0.1112    0.1343 N   0  0  0  0  0  0  0  0  0  0  0  0
   -4.3523   -0.1913    0.1881 N   0  0  0  0  0  0  0  0  0  0  0  0
   -1.4193    1.3854    0.1349 C   0  0  0  0  0  0  0  0  0  0  0  0
   -0.0185    1.4383    0.0663 C   0  0  0  0  0  0  0  0  0  0  0  0
    0.8067    0.3072   -0.0480 C   0  0  0  0  0  0  0  0  0  0  0  0
    2.1372    0.5417   -0.1010 O   0  0  0  0  0  0  0  0  0  0  0  0
    3.0453   -0.5487   -0.2164 C   0  0  0  0  0  0  0  0  0  0  0  0
    0.2557   -1.0044   -0.1028 C   0  0  0  0  0  0  0  0  0  0  0  0
   -1.1098   -1.1505   -0.0417 C   0  0  0  0  0  0  0  0  0  0  0  0
   -3.2152    3.6049    0.3399 H   0  0  0  0  0  0  0  0  0  0  0  0
    0.5000    2.3963    0.1008 H   0  0  0  0  0  0  0  0  0  0  0  0
    4.0409   -0.1047   -0.2363 H   0  0  0  0  0  0  0  0  0  0  0  0
    2.8833   -1.1116   -1.1436 H   0  0  0  0  0  0  0  0  0  0  0  0
    2.9701   -1.2280    0.6414 H   0  0  0  0  0  0  0  0  0  0  0  0
    0.8885   -1.8782   -0.1903 H   0  0  0  0  0  0  0  0  0  0  0  0
   -1.5757   -2.1319   -0.0803 H   0  0  0  0  0  0  0  0  0  0  0  0
   -5.6153    2.9663    0.3118 B   0  0  0  0  0  0  0  0  0  0  0  0
   -5.2925    2.3832   -0.8443 F   0  0  0  0  0  0  0  0  0  0  0  0
   -3.9686    4.1610    0.4007 F   0  0  0  0  0  0  0  0  0  0  0  0
   -6.4980    3.9543    0.3221 F   0  0  0  0  0  0  0  0  0  0  0  0
   -5.3600    2.2984    1.4378 F   0  0  0  0  0  0  0  0  0  0  0  0
  1  2  1  0  0  0  0
  1  4  1  0  0  0  0
  2  3  1  0  0  0  0
  5 12  1  0  0  0  0
  5  4  2  0  0  0  0
  6  5  1  0  0  0  0
  7  6  1  0  0  0  0
  8  7  1  0  0  0  0
  8 15  1  0  0  0  0
  9  6  2  0  0  0  0
  9 10  1  0  0  0  0
 10  1  2  0  0  0  0
 11 20  1  0  0  0  0
 13  8  1  0  0  0  0
 14  8  1  0  0  0  0
 16  9  1  0  0  0  0
 17 10  1  0  0  0  0
 18 21  1  0  0  0  0
 18 22  1  0  0  0  0
 19 18  1  0  0  0  0
M  RAD  3   2   2   3   3   4   2
M  END
