Coordinates from ORCA-job 4-MeOPhN2+~BF4-_B3LYPG-6-31G_dp-CH-Scan-d09-49-n800
 OpenBabel11261919343D

 22 20  0  0  0  0  0  0  0  0999 V2000
   -1.7873    0.0423    0.0896 C   0  0  0  0  0  0  0  0  0  0  0  0
   -3.1556   -0.0806    0.1606 N   0  0  0  0  0  0  0  0  0  0  0  0
   -4.2747   -0.1271    0.2229 N   0  0  0  0  0  0  0  0  0  0  0  0
   -1.3191    1.3781    0.1544 C   0  0  0  0  0  0  0  0  0  0  0  0
    0.0843    1.4023    0.0739 C   0  0  0  0  0  0  0  0  0  0  0  0
    0.8878    0.2577   -0.0522 C   0  0  0  0  0  0  0  0  0  0  0  0
    2.2234    0.4676   -0.1156 O   0  0  0  0  0  0  0  0  0  0  0  0
    3.1092   -0.6389   -0.2430 C   0  0  0  0  0  0  0  0  0  0  0  0
    0.3141   -1.0451   -0.1081 C   0  0  0  0  0  0  0  0  0  0  0  0
   -1.0530   -1.1675   -0.0363 C   0  0  0  0  0  0  0  0  0  0  0  0
   -3.4418    3.9484    0.4065 H   0  0  0  0  0  0  0  0  0  0  0  0
    0.6224    2.3501    0.1082 H   0  0  0  0  0  0  0  0  0  0  0  0
    4.1132   -0.2141   -0.2693 H   0  0  0  0  0  0  0  0  0  0  0  0
    2.9297   -1.1953   -1.1710 H   0  0  0  0  0  0  0  0  0  0  0  0
    3.0287   -1.3209    0.6123 H   0  0  0  0  0  0  0  0  0  0  0  0
    0.9316   -1.9290   -0.2045 H   0  0  0  0  0  0  0  0  0  0  0  0
   -1.5374   -2.1402   -0.0752 H   0  0  0  0  0  0  0  0  0  0  0  0
   -5.8034    2.9668    0.2868 B   0  0  0  0  0  0  0  0  0  0  0  0
   -5.3247    2.4569   -0.8454 F   0  0  0  0  0  0  0  0  0  0  0  0
   -4.2530    4.4037    0.4779 F   0  0  0  0  0  0  0  0  0  0  0  0
   -6.7783    3.8593    0.2465 F   0  0  0  0  0  0  0  0  0  0  0  0
   -5.5199    2.3453    1.4275 F   0  0  0  0  0  0  0  0  0  0  0  0
  1  4  1  0  0  0  0
  1  2  1  0  0  0  0
  2  3  1  0  0  0  0
  5 12  1  0  0  0  0
  5  4  2  0  0  0  0
  6  5  1  0  0  0  0
  7  6  1  0  0  0  0
  8  7  1  0  0  0  0
  8 15  1  0  0  0  0
  9  6  2  0  0  0  0
  9 10  1  0  0  0  0
 10  1  2  0  0  0  0
 11 20  1  0  0  0  0
 13  8  1  0  0  0  0
 14  8  1  0  0  0  0
 16  9  1  0  0  0  0
 17 10  1  0  0  0  0
 18 22  1  0  0  0  0
 19 18  1  0  0  0  0
 21 18  1  0  0  0  0
M  RAD  3   2   2   3   3   4   2
M  END
