Coordinates from ORCA-job 4-MeOPhN2+~BF4-_B3LYPG-6-31G_dp-CH-Scan-d09-49-n800
 OpenBabel11261919343D

 22 20  0  0  0  0  0  0  0  0999 V2000
   -1.9380    0.0488    0.0973 C   0  0  0  0  0  0  0  0  0  0  0  0
   -3.2978   -0.1319    0.1684 N   0  0  0  0  0  0  0  0  0  0  0  0
   -4.4105   -0.2471    0.2304 N   0  0  0  0  0  0  0  0  0  0  0  0
   -1.4952    1.3939    0.1622 C   0  0  0  0  0  0  0  0  0  0  0  0
   -0.0983    1.4693    0.0844 C   0  0  0  0  0  0  0  0  0  0  0  0
    0.7408    0.3487   -0.0415 C   0  0  0  0  0  0  0  0  0  0  0  0
    2.0662    0.6013   -0.1019 O   0  0  0  0  0  0  0  0  0  0  0  0
    2.9887   -0.4765   -0.2286 C   0  0  0  0  0  0  0  0  0  0  0  0
    0.2049   -0.9679   -0.0994 C   0  0  0  0  0  0  0  0  0  0  0  0
   -1.1585   -1.1311   -0.0293 C   0  0  0  0  0  0  0  0  0  0  0  0
   -3.0631    3.3214    0.3542 H   0  0  0  0  0  0  0  0  0  0  0  0
    0.4056    2.4342    0.1205 H   0  0  0  0  0  0  0  0  0  0  0  0
    3.9777   -0.0185   -0.2520 H   0  0  0  0  0  0  0  0  0  0  0  0
    2.8281   -1.0361   -1.1578 H   0  0  0  0  0  0  0  0  0  0  0  0
    2.9273   -1.1606    0.6264 H   0  0  0  0  0  0  0  0  0  0  0  0
    0.8469   -1.8339   -0.1960 H   0  0  0  0  0  0  0  0  0  0  0  0
   -1.6115   -2.1182   -0.0699 H   0  0  0  0  0  0  0  0  0  0  0  0
   -5.4270    2.9704    0.2758 B   0  0  0  0  0  0  0  0  0  0  0  0
   -5.1567    2.3355   -0.8745 F   0  0  0  0  0  0  0  0  0  0  0  0
   -3.7783    3.9428    0.4171 F   0  0  0  0  0  0  0  0  0  0  0  0
   -6.2428    4.0200    0.2570 F   0  0  0  0  0  0  0  0  0  0  0  0
   -5.3125    2.2551    1.4035 F   0  0  0  0  0  0  0  0  0  0  0  0
  1  4  1  0  0  0  0
  1  2  1  0  0  0  0
  2  3  1  0  0  0  0
  5 12  1  0  0  0  0
  5  4  2  0  0  0  0
  6  5  1  0  0  0  0
  7  6  1  0  0  0  0
  8  7  1  0  0  0  0
  8 15  1  0  0  0  0
  9  6  2  0  0  0  0
  9 10  1  0  0  0  0
 10  1  2  0  0  0  0
 11 20  1  0  0  0  0
 13  8  1  0  0  0  0
 14  8  1  0  0  0  0
 16  9  1  0  0  0  0
 17 10  1  0  0  0  0
 18 22  1  0  0  0  0
 19 18  1  0  0  0  0
 21 18  1  0  0  0  0
M  RAD  3   2   2   3   3   4   2
M  END
