Coordinates from ORCA-job 4-MeOPhN2+~BF4-_B3LYPG-6-31G_dp-CH-Scan-d09-49-n800
 OpenBabel11261919343D

 22 20  0  0  0  0  0  0  0  0999 V2000
   -1.9075    0.0451    0.0815 C   0  0  0  0  0  0  0  0  0  0  0  0
   -3.2692   -0.1254    0.1471 N   0  0  0  0  0  0  0  0  0  0  0  0
   -4.3839   -0.2265    0.2053 N   0  0  0  0  0  0  0  0  0  0  0  0
   -1.4617    1.3893    0.1449 C   0  0  0  0  0  0  0  0  0  0  0  0
   -0.0627    1.4545    0.0735 C   0  0  0  0  0  0  0  0  0  0  0  0
    0.7708    0.3294   -0.0449 C   0  0  0  0  0  0  0  0  0  0  0  0
    2.0986    0.5741   -0.0995 O   0  0  0  0  0  0  0  0  0  0  0  0
    3.0151   -0.5093   -0.2182 C   0  0  0  0  0  0  0  0  0  0  0  0
    0.2287   -0.9853   -0.1021 C   0  0  0  0  0  0  0  0  0  0  0  0
   -1.1357   -1.1410   -0.0382 C   0  0  0  0  0  0  0  0  0  0  0  0
   -3.1275    3.4571    0.3364 H   0  0  0  0  0  0  0  0  0  0  0  0
    0.4477    2.4164    0.1091 H   0  0  0  0  0  0  0  0  0  0  0  0
    4.0072   -0.0575   -0.2377 H   0  0  0  0  0  0  0  0  0  0  0  0
    2.8563   -1.0709   -1.1467 H   0  0  0  0  0  0  0  0  0  0  0  0
    2.9454   -1.1909    0.6381 H   0  0  0  0  0  0  0  0  0  0  0  0
    0.8669   -1.8546   -0.1933 H   0  0  0  0  0  0  0  0  0  0  0  0
   -1.5942   -2.1258   -0.0783 H   0  0  0  0  0  0  0  0  0  0  0  0
   -5.5187    2.9682    0.2993 B   0  0  0  0  0  0  0  0  0  0  0  0
   -5.2335    2.3565   -0.8554 F   0  0  0  0  0  0  0  0  0  0  0  0
   -3.8601    4.0480    0.3977 F   0  0  0  0  0  0  0  0  0  0  0  0
   -6.3632    3.9917    0.3019 F   0  0  0  0  0  0  0  0  0  0  0  0
   -5.3226    2.2766    1.4261 F   0  0  0  0  0  0  0  0  0  0  0  0
  1  4  1  0  0  0  0
  1  2  1  0  0  0  0
  2  3  1  0  0  0  0
  5 12  1  0  0  0  0
  5  4  2  0  0  0  0
  6  5  1  0  0  0  0
  7  6  1  0  0  0  0
  8  7  1  0  0  0  0
  8 15  1  0  0  0  0
  9  6  2  0  0  0  0
  9 10  1  0  0  0  0
 10  1  2  0  0  0  0
 11 20  1  0  0  0  0
 13  8  1  0  0  0  0
 14  8  1  0  0  0  0
 16  9  1  0  0  0  0
 17 10  1  0  0  0  0
 18 21  1  0  0  0  0
 18 22  1  0  0  0  0
 19 18  1  0  0  0  0
M  RAD  3   2   2   3   3   4   2
M  END
