Coordinates from ORCA-job 4-MeOPhN2+~BF4-_B3LYPG-6-31G_dp-CH-Scan-d09-49-n800
 OpenBabel11261919343D

 22 20  0  0  0  0  0  0  0  0999 V2000
   -1.7190    0.0432    0.0703 C   0  0  0  0  0  0  0  0  0  0  0  0
   -3.0895   -0.0541    0.1601 N   0  0  0  0  0  0  0  0  0  0  0  0
   -4.2090   -0.0732    0.2343 N   0  0  0  0  0  0  0  0  0  0  0  0
   -1.2386    1.3754    0.0813 C   0  0  0  0  0  0  0  0  0  0  0  0
    0.1659    1.3768   -0.0102 C   0  0  0  0  0  0  0  0  0  0  0  0
    0.9539    0.2187   -0.0972 C   0  0  0  0  0  0  0  0  0  0  0  0
    2.2929    0.4080   -0.1755 O   0  0  0  0  0  0  0  0  0  0  0  0
    3.1629   -0.7145   -0.2602 C   0  0  0  0  0  0  0  0  0  0  0  0
    0.3642   -1.0788   -0.1010 C   0  0  0  0  0  0  0  0  0  0  0  0
   -1.0036   -1.1816   -0.0156 C   0  0  0  0  0  0  0  0  0  0  0  0
   -3.7270    4.2289    0.4464 H   0  0  0  0  0  0  0  0  0  0  0  0
    0.7173    2.3181   -0.0155 H   0  0  0  0  0  0  0  0  0  0  0  0
    4.1729   -0.3052   -0.3049 H   0  0  0  0  0  0  0  0  0  0  0  0
    2.9741   -1.3053   -1.1649 H   0  0  0  0  0  0  0  0  0  0  0  0
    3.0751   -1.3610    0.6216 H   0  0  0  0  0  0  0  0  0  0  0  0
    0.9707   -1.9730   -0.1687 H   0  0  0  0  0  0  0  0  0  0  0  0
   -1.5008   -2.1488   -0.0148 H   0  0  0  0  0  0  0  0  0  0  0  0
   -5.9229    2.9849    0.2814 B   0  0  0  0  0  0  0  0  0  0  0  0
   -5.1003    2.5493   -0.6738 F   0  0  0  0  0  0  0  0  0  0  0  0
   -4.5201    4.5303    0.8305 F   0  0  0  0  0  0  0  0  0  0  0  0
   -6.9073    3.8090   -0.0329 F   0  0  0  0  0  0  0  0  0  0  0  0
   -5.9156    2.3726    1.4557 F   0  0  0  0  0  0  0  0  0  0  0  0
  1  4  1  0  0  0  0
  1  2  1  0  0  0  0
  2  3  1  0  0  0  0
  5  4  2  0  0  0  0
  6  5  1  0  0  0  0
  7  6  1  0  0  0  0
  8  7  1  0  0  0  0
  8 15  1  0  0  0  0
  9  6  2  0  0  0  0
  9 10  1  0  0  0  0
 10 17  1  0  0  0  0
 10  1  2  0  0  0  0
 11 20  1  0  0  0  0
 12  5  1  0  0  0  0
 13  8  1  0  0  0  0
 14  8  1  0  0  0  0
 16  9  1  0  0  0  0
 18 22  1  0  0  0  0
 19 18  1  0  0  0  0
 21 18  1  0  0  0  0
M  RAD  3   2   2   3   3   4   2
M  END
