Coordinates from ORCA-job 4-MeOPhN2+~BF4-_B3LYPG-6-31G_dp-CH-Scan-d09-49-n800
 OpenBabel11261919343D

 22 20  0  0  0  0  0  0  0  0999 V2000
   -1.8377    0.0408    0.0783 C   0  0  0  0  0  0  0  0  0  0  0  0
   -3.2037   -0.1029    0.1416 N   0  0  0  0  0  0  0  0  0  0  0  0
   -4.3216   -0.1727    0.1957 N   0  0  0  0  0  0  0  0  0  0  0  0
   -1.3805    1.3806    0.1410 C   0  0  0  0  0  0  0  0  0  0  0  0
    0.0214    1.4231    0.0688 C   0  0  0  0  0  0  0  0  0  0  0  0
    0.8390    0.2873   -0.0491 C   0  0  0  0  0  0  0  0  0  0  0  0
    2.1715    0.5129   -0.1058 O   0  0  0  0  0  0  0  0  0  0  0  0
    3.0717   -0.5832   -0.2256 C   0  0  0  0  0  0  0  0  0  0  0  0
    0.2800   -1.0214   -0.1040 C   0  0  0  0  0  0  0  0  0  0  0  0
   -1.0861   -1.1591   -0.0396 C   0  0  0  0  0  0  0  0  0  0  0  0
   -3.2976    3.7389    0.3680 H   0  0  0  0  0  0  0  0  0  0  0  0
    0.5471    2.3775    0.1032 H   0  0  0  0  0  0  0  0  0  0  0  0
    4.0704   -0.1458   -0.2483 H   0  0  0  0  0  0  0  0  0  0  0  0
    2.9032   -1.1441   -1.1528 H   0  0  0  0  0  0  0  0  0  0  0  0
    2.9951   -1.2632    0.6316 H   0  0  0  0  0  0  0  0  0  0  0  0
    0.9075   -1.8988   -0.1938 H   0  0  0  0  0  0  0  0  0  0  0  0
   -1.5585   -2.1375   -0.0779 H   0  0  0  0  0  0  0  0  0  0  0  0
   -5.6967    2.9698    0.3040 B   0  0  0  0  0  0  0  0  0  0  0  0
   -5.3241    2.4146   -0.8485 F   0  0  0  0  0  0  0  0  0  0  0  0
   -4.0736    4.2586    0.4218 F   0  0  0  0  0  0  0  0  0  0  0  0
   -6.6112    3.9269    0.3063 F   0  0  0  0  0  0  0  0  0  0  0  0
   -5.4196    2.3173    1.4316 F   0  0  0  0  0  0  0  0  0  0  0  0
  1  4  1  0  0  0  0
  1  2  1  0  0  0  0
  2  3  1  0  0  0  0
  5 12  1  0  0  0  0
  5  4  2  0  0  0  0
  6  5  1  0  0  0  0
  7  6  1  0  0  0  0
  8  7  1  0  0  0  0
  8 15  1  0  0  0  0
  9  6  2  0  0  0  0
  9 10  1  0  0  0  0
 10  1  2  0  0  0  0
 11 20  1  0  0  0  0
 13  8  1  0  0  0  0
 14  8  1  0  0  0  0
 16  9  1  0  0  0  0
 17 10  1  0  0  0  0
 18 21  1  0  0  0  0
 18 22  1  0  0  0  0
 19 18  1  0  0  0  0
M  RAD  3   2   2   3   3   4   2
M  END
