Coordinates from ORCA-job 4-MeOPhN2+~BF4-_B3LYPG-6-31G_dp-CH-Scan-d09-49-n800
 OpenBabel11261919343D

 22 20  0  0  0  0  0  0  0  0999 V2000
   -1.7018    0.0475    0.0620 C   0  0  0  0  0  0  0  0  0  0  0  0
   -3.0732   -0.0411    0.1502 N   0  0  0  0  0  0  0  0  0  0  0  0
   -4.1930   -0.0507    0.2240 N   0  0  0  0  0  0  0  0  0  0  0  0
   -1.2157    1.3774    0.0684 C   0  0  0  0  0  0  0  0  0  0  0  0
    0.1891    1.3715   -0.0210 C   0  0  0  0  0  0  0  0  0  0  0  0
    0.9715    0.2091   -0.1018 C   0  0  0  0  0  0  0  0  0  0  0  0
    2.3118    0.3914   -0.1787 O   0  0  0  0  0  0  0  0  0  0  0  0
    3.1762   -0.7357   -0.2567 C   0  0  0  0  0  0  0  0  0  0  0  0
    0.3755   -1.0856   -0.1013 C   0  0  0  0  0  0  0  0  0  0  0  0
   -0.9929   -1.1815   -0.0177 C   0  0  0  0  0  0  0  0  0  0  0  0
   -3.7930    4.2921    0.4442 H   0  0  0  0  0  0  0  0  0  0  0  0
    0.7452    2.3100   -0.0294 H   0  0  0  0  0  0  0  0  0  0  0  0
    4.1883   -0.3317   -0.3012 H   0  0  0  0  0  0  0  0  0  0  0  0
    2.9862   -1.3296   -1.1592 H   0  0  0  0  0  0  0  0  0  0  0  0
    3.0834   -1.3779    0.6277 H   0  0  0  0  0  0  0  0  0  0  0  0
    0.9780   -1.9829   -0.1644 H   0  0  0  0  0  0  0  0  0  0  0  0
   -1.4949   -2.1462   -0.0138 H   0  0  0  0  0  0  0  0  0  0  0  0
   -5.9534    2.9854    0.2903 B   0  0  0  0  0  0  0  0  0  0  0  0
   -5.1131    2.5745   -0.6605 F   0  0  0  0  0  0  0  0  0  0  0  0
   -4.5853    4.5648    0.8504 F   0  0  0  0  0  0  0  0  0  0  0  0
   -6.9539    3.7881   -0.0281 F   0  0  0  0  0  0  0  0  0  0  0  0
   -5.9387    2.3708    1.4629 F   0  0  0  0  0  0  0  0  0  0  0  0
  1  4  1  0  0  0  0
  1  2  1  0  0  0  0
  2  3  1  0  0  0  0
  5  4  2  0  0  0  0
  6  9  2  0  0  0  0
  6  5  1  0  0  0  0
  7  6  1  0  0  0  0
  8  7  1  0  0  0  0
  8 15  1  0  0  0  0
  9 10  1  0  0  0  0
 10 17  1  0  0  0  0
 10  1  2  0  0  0  0
 11 20  1  0  0  0  0
 12  5  1  0  0  0  0
 13  8  1  0  0  0  0
 14  8  1  0  0  0  0
 16  9  1  0  0  0  0
 18 22  1  0  0  0  0
 19 18  1  0  0  0  0
 21 18  1  0  0  0  0
M  RAD  3   2   2   3   3   4   2
M  END
