Coordinates from ORCA-job 4-MeOPhN2+~BF4-_B3LYPG-6-31G_dp-CH-Scan-d09-49-n800
 OpenBabel11261919343D

 22 21  0  0  0  0  0  0  0  0999 V2000
   -2.1478    0.1780    0.3293 C   0  0  0  0  0  0  0  0  0  0  0  0
   -3.4947   -0.0179    0.5030 N   0  0  0  0  0  0  0  0  0  0  0  0
   -4.5827   -0.2005    0.6774 N   0  0  0  0  0  0  0  0  0  0  0  0
   -1.6060    1.4745    0.4729 C   0  0  0  0  0  0  0  0  0  0  0  0
   -0.2429    1.6069    0.3192 C   0  0  0  0  0  0  0  0  0  0  0  0
    0.5688    0.4917    0.0181 C   0  0  0  0  0  0  0  0  0  0  0  0
    1.8772    0.7498   -0.1150 O   0  0  0  0  0  0  0  0  0  0  0  0
    2.7824   -0.3124   -0.4259 C   0  0  0  0  0  0  0  0  0  0  0  0
   -0.0010   -0.7937   -0.1228 C   0  0  0  0  0  0  0  0  0  0  0  0
   -1.3642   -0.9545    0.0380 C   0  0  0  0  0  0  0  0  0  0  0  0
   -2.3341    2.3875    0.7039 H   0  0  0  0  0  0  0  0  0  0  0  0
    0.2335    2.5759    0.4172 H   0  0  0  0  0  0  0  0  0  0  0  0
    3.7679    0.1490   -0.4760 H   0  0  0  0  0  0  0  0  0  0  0  0
    2.5417   -0.7654   -1.3937 H   0  0  0  0  0  0  0  0  0  0  0  0
    2.7763   -1.0786    0.3574 H   0  0  0  0  0  0  0  0  0  0  0  0
    0.6110   -1.6553   -0.3548 H   0  0  0  0  0  0  0  0  0  0  0  0
   -1.8254   -1.9308   -0.0649 H   0  0  0  0  0  0  0  0  0  0  0  0
   -4.7395    2.8478    0.0362 B   0  0  0  0  0  0  0  0  0  0  0  0
   -4.0230    2.0706   -0.9153 F   0  0  0  0  0  0  0  0  0  0  0  0
   -3.7718    3.3846    0.9443 F   0  0  0  0  0  0  0  0  0  0  0  0
   -5.4557    3.8467   -0.5683 F   0  0  0  0  0  0  0  0  0  0  0  0
   -5.5737    1.9659    0.7663 F   0  0  0  0  0  0  0  0  0  0  0  0
  1  4  1  0  0  0  0
  1  2  1  0  0  0  0
  2  3  1  0  0  0  0
  4 11  1  0  0  0  0
  5 12  1  0  0  0  0
  5  4  2  0  0  0  0
  6  5  1  0  0  0  0
  7  6  1  0  0  0  0
  8  7  1  0  0  0  0
  8 15  1  0  0  0  0
  9  6  2  0  0  0  0
  9 10  1  0  0  0  0
 10  1  2  0  0  0  0
 13  8  1  0  0  0  0
 14  8  1  0  0  0  0
 16  9  1  0  0  0  0
 17 10  1  0  0  0  0
 18 22  1  0  0  0  0
 18 20  1  0  0  0  0
 19 18  1  0  0  0  0
 21 18  1  0  0  0  0
M  RAD  2   2   2   3   3
M  END
