Coordinates from ORCA-job 4-MeOPhN2+~BF4-_B3LYPG-6-31G_dp-CH-Scan-d09-49-n800
 OpenBabel11261919343D

 22 20  0  0  0  0  0  0  0  0999 V2000
   -1.7490    0.0380    0.0339 C   0  0  0  0  0  0  0  0  0  0  0  0
   -3.1194   -0.0720    0.1007 N   0  0  0  0  0  0  0  0  0  0  0  0
   -4.2397   -0.1030    0.1552 N   0  0  0  0  0  0  0  0  0  0  0  0
   -1.2781    1.3739    0.0431 C   0  0  0  0  0  0  0  0  0  0  0  0
    0.1270    1.3869   -0.0277 C   0  0  0  0  0  0  0  0  0  0  0  0
    0.9258    0.2347   -0.0952 C   0  0  0  0  0  0  0  0  0  0  0  0
    2.2637    0.4349   -0.1561 O   0  0  0  0  0  0  0  0  0  0  0  0
    3.1444   -0.6808   -0.2219 C   0  0  0  0  0  0  0  0  0  0  0  0
    0.3467   -1.0674   -0.0978 C   0  0  0  0  0  0  0  0  0  0  0  0
   -1.0214   -1.1807   -0.0320 C   0  0  0  0  0  0  0  0  0  0  0  0
   -3.5987    4.1083    0.3927 H   0  0  0  0  0  0  0  0  0  0  0  0
    0.6702    2.3327   -0.0314 H   0  0  0  0  0  0  0  0  0  0  0  0
    4.1512   -0.2631   -0.2572 H   0  0  0  0  0  0  0  0  0  0  0  0
    2.9715   -1.2794   -1.1246 H   0  0  0  0  0  0  0  0  0  0  0  0
    3.0511   -1.3215    0.6635 H   0  0  0  0  0  0  0  0  0  0  0  0
    0.9613   -1.9571   -0.1498 H   0  0  0  0  0  0  0  0  0  0  0  0
   -1.5104   -2.1520   -0.0314 H   0  0  0  0  0  0  0  0  0  0  0  0
   -5.8829    2.9850    0.3319 B   0  0  0  0  0  0  0  0  0  0  0  0
   -5.1967    2.5082   -0.7066 F   0  0  0  0  0  0  0  0  0  0  0  0
   -4.3875    4.4737    0.7279 F   0  0  0  0  0  0  0  0  0  0  0  0
   -6.8632    3.8479    0.1270 F   0  0  0  0  0  0  0  0  0  0  0  0
   -5.7695    2.3724    1.5022 F   0  0  0  0  0  0  0  0  0  0  0  0
  1  4  1  0  0  0  0
  1  2  1  0  0  0  0
  2  3  1  0  0  0  0
  5  4  2  0  0  0  0
  6  5  1  0  0  0  0
  7  6  1  0  0  0  0
  8  7  1  0  0  0  0
  8 15  1  0  0  0  0
  9  6  2  0  0  0  0
  9 10  1  0  0  0  0
 10 17  1  0  0  0  0
 10  1  2  0  0  0  0
 11 20  1  0  0  0  0
 12  5  1  0  0  0  0
 13  8  1  0  0  0  0
 14  8  1  0  0  0  0
 16  9  1  0  0  0  0
 18 22  1  0  0  0  0
 19 18  1  0  0  0  0
 21 18  1  0  0  0  0
M  RAD  3   2   2   3   3   4   2
M  END
