Coordinates from ORCA-job 4-MeOPhN2+~BF4-_B3LYPG-6-31G_dp-CH-Scan-d09-49-n800
 OpenBabel11261919343D

 22 21  0  0  0  0  0  0  0  0999 V2000
   -2.1449    0.2853    0.3456 C   0  0  0  0  0  0  0  0  0  0  0  0
   -3.4960    0.1081    0.5274 N   0  0  0  0  0  0  0  0  0  0  0  0
   -4.5718   -0.1474    0.6824 N   0  0  0  0  0  0  0  0  0  0  0  0
   -1.5784    1.5771    0.3927 C   0  0  0  0  0  0  0  0  0  0  0  0
   -0.2151    1.6727    0.2110 C   0  0  0  0  0  0  0  0  0  0  0  0
    0.5758    0.5277   -0.0219 C   0  0  0  0  0  0  0  0  0  0  0  0
    1.8859    0.7553   -0.1903 O   0  0  0  0  0  0  0  0  0  0  0  0
    2.7698   -0.3416   -0.4334 C   0  0  0  0  0  0  0  0  0  0  0  0
   -0.0173   -0.7525   -0.0616 C   0  0  0  0  0  0  0  0  0  0  0  0
   -1.3818   -0.8757    0.1272 C   0  0  0  0  0  0  0  0  0  0  0  0
   -2.1228    2.3136    0.5545 H   0  0  0  0  0  0  0  0  0  0  0  0
    0.2756    2.6392    0.2390 H   0  0  0  0  0  0  0  0  0  0  0  0
    3.7614    0.0983   -0.5316 H   0  0  0  0  0  0  0  0  0  0  0  0
    2.5076   -0.8620   -1.3610 H   0  0  0  0  0  0  0  0  0  0  0  0
    2.7637   -1.0469    0.4053 H   0  0  0  0  0  0  0  0  0  0  0  0
    0.5753   -1.6406   -0.2379 H   0  0  0  0  0  0  0  0  0  0  0  0
   -1.8607   -1.8484    0.0978 H   0  0  0  0  0  0  0  0  0  0  0  0
   -4.7692    2.7482    0.0709 B   0  0  0  0  0  0  0  0  0  0  0  0
   -3.9218    2.2066   -0.9411 F   0  0  0  0  0  0  0  0  0  0  0  0
   -3.9931    2.7679    1.2677 F   0  0  0  0  0  0  0  0  0  0  0  0
   -5.2155    3.9999   -0.2642 F   0  0  0  0  0  0  0  0  0  0  0  0
   -5.8307    1.8350    0.2682 F   0  0  0  0  0  0  0  0  0  0  0  0
  1  4  1  0  0  0  0
  1  2  1  0  0  0  0
  2  3  1  0  0  0  0
  4 11  1  0  0  0  0
  5 12  1  0  0  0  0
  5  4  2  0  0  0  0
  6  5  1  0  0  0  0
  7  6  1  0  0  0  0
  8  7  1  0  0  0  0
  8 15  1  0  0  0  0
  9  6  2  0  0  0  0
  9 10  1  0  0  0  0
 10  1  2  0  0  0  0
 13  8  1  0  0  0  0
 14  8  1  0  0  0  0
 16  9  1  0  0  0  0
 17 10  1  0  0  0  0
 18 22  1  0  0  0  0
 18 20  1  0  0  0  0
 19 18  1  0  0  0  0
 21 18  1  0  0  0  0
M  RAD  2   2   2   3   3
M  END
