Coordinates from ORCA-job 4-MeOPhN2+~BF4-_B3LYPG-6-31G_dp-CH-Scan-d09-49-n800
 OpenBabel11261919343D

 22 20  0  0  0  0  0  0  0  0999 V2000
   -1.5472    0.1424   -0.0579 C   0  0  0  0  0  0  0  0  0  0  0  0
   -2.9243    0.1505   -0.0086 N   0  0  0  0  0  0  0  0  0  0  0  0
   -4.0438    0.2257    0.0298 N   0  0  0  0  0  0  0  0  0  0  0  0
   -0.9820    1.4382   -0.1164 C   0  0  0  0  0  0  0  0  0  0  0  0
    0.4224    1.3419   -0.1633 C   0  0  0  0  0  0  0  0  0  0  0  0
    1.1316    0.1313   -0.1516 C   0  0  0  0  0  0  0  0  0  0  0  0
    2.4829    0.2257   -0.2007 O   0  0  0  0  0  0  0  0  0  0  0  0
    3.2756   -0.9553   -0.1906 C   0  0  0  0  0  0  0  0  0  0  0  0
    0.4561   -1.1232   -0.0909 C   0  0  0  0  0  0  0  0  0  0  0  0
   -0.9174   -1.1312   -0.0424 C   0  0  0  0  0  0  0  0  0  0  0  0
   -4.4947    4.7928    0.4491 H   0  0  0  0  0  0  0  0  0  0  0  0
    1.0358    2.2428   -0.2117 H   0  0  0  0  0  0  0  0  0  0  0  0
    4.3122   -0.6183   -0.2337 H   0  0  0  0  0  0  0  0  0  0  0  0
    3.0671   -1.5899   -1.0608 H   0  0  0  0  0  0  0  0  0  0  0  0
    3.1241   -1.5363    0.7276 H   0  0  0  0  0  0  0  0  0  0  0  0
    1.0040   -2.0571   -0.0822 H   0  0  0  0  0  0  0  0  0  0  0  0
   -1.4787   -2.0616    0.0053 H   0  0  0  0  0  0  0  0  0  0  0  0
   -6.1605    2.9472    0.4051 B   0  0  0  0  0  0  0  0  0  0  0  0
   -5.2438    2.8592   -0.5610 F   0  0  0  0  0  0  0  0  0  0  0  0
   -5.2183    4.8331    1.0330 F   0  0  0  0  0  0  0  0  0  0  0  0
   -7.3452    3.4608    0.1278 F   0  0  0  0  0  0  0  0  0  0  0  0
   -5.9600    2.3010    1.5406 F   0  0  0  0  0  0  0  0  0  0  0  0
  1 10  1  0  0  0  0
  1  2  1  0  0  0  0
  2  3  1  0  0  0  0
  4  1  2  0  0  0  0
  5  6  2  0  0  0  0
  5  4  1  0  0  0  0
  6  9  1  0  0  0  0
  7  8  1  0  0  0  0
  7  6  1  0  0  0  0
  8 15  1  0  0  0  0
  9 16  1  0  0  0  0
  9 10  2  0  0  0  0
 10 17  1  0  0  0  0
 11 20  1  0  0  0  0
 12  5  1  0  0  0  0
 13  8  1  0  0  0  0
 14  8  1  0  0  0  0
 18 22  1  0  0  0  0
 19 18  1  0  0  0  0
 21 18  1  0  0  0  0
M  RAD  3   2   2   3   3   4   2
M  END
