Coordinates from ORCA-job 4-MeOPhN2+~BF4-_B3LYPG-6-31G_dp-CH-Scan-d09-49-n800
 OpenBabel11261919343D

 22 20  0  0  0  0  0  0  0  0999 V2000
   -1.8330    0.0416    0.0789 C   0  0  0  0  0  0  0  0  0  0  0  0
   -3.1994   -0.1005    0.1419 N   0  0  0  0  0  0  0  0  0  0  0  0
   -4.3172   -0.1695    0.1983 N   0  0  0  0  0  0  0  0  0  0  0  0
   -1.3744    1.3808    0.1431 C   0  0  0  0  0  0  0  0  0  0  0  0
    0.0276    1.4215    0.0703 C   0  0  0  0  0  0  0  0  0  0  0  0
    0.8437    0.2847   -0.0489 C   0  0  0  0  0  0  0  0  0  0  0  0
    2.1766    0.5087   -0.1057 O   0  0  0  0  0  0  0  0  0  0  0  0
    3.0753   -0.5885   -0.2267 C   0  0  0  0  0  0  0  0  0  0  0  0
    0.2831   -1.0232   -0.1046 C   0  0  0  0  0  0  0  0  0  0  0  0
   -1.0832   -1.1592   -0.0400 C   0  0  0  0  0  0  0  0  0  0  0  0
   -3.3099    3.7567    0.3683 H   0  0  0  0  0  0  0  0  0  0  0  0
    0.5546    2.3751    0.1054 H   0  0  0  0  0  0  0  0  0  0  0  0
    4.0745   -0.1525   -0.2493 H   0  0  0  0  0  0  0  0  0  0  0  0
    2.9057   -1.1485   -1.1543 H   0  0  0  0  0  0  0  0  0  0  0  0
    2.9980   -1.2691    0.6300 H   0  0  0  0  0  0  0  0  0  0  0  0
    0.9095   -1.9014   -0.1955 H   0  0  0  0  0  0  0  0  0  0  0  0
   -1.5569   -2.1370   -0.0792 H   0  0  0  0  0  0  0  0  0  0  0  0
   -5.7072    2.9696    0.3037 B   0  0  0  0  0  0  0  0  0  0  0  0
   -5.3292    2.4169   -0.8480 F   0  0  0  0  0  0  0  0  0  0  0  0
   -4.0891    4.2710    0.4221 F   0  0  0  0  0  0  0  0  0  0  0  0
   -6.6266    3.9218    0.3046 F   0  0  0  0  0  0  0  0  0  0  0  0
   -5.4262    2.3204    1.4320 F   0  0  0  0  0  0  0  0  0  0  0  0
  1  2  1  0  0  0  0
  1  4  1  0  0  0  0
  2  3  1  0  0  0  0
  5 12  1  0  0  0  0
  5  4  2  0  0  0  0
  6  5  1  0  0  0  0
  7  6  1  0  0  0  0
  8  7  1  0  0  0  0
  8 15  1  0  0  0  0
  9  6  2  0  0  0  0
  9 10  1  0  0  0  0
 10  1  2  0  0  0  0
 11 20  1  0  0  0  0
 13  8  1  0  0  0  0
 14  8  1  0  0  0  0
 16  9  1  0  0  0  0
 17 10  1  0  0  0  0
 18 21  1  0  0  0  0
 18 22  1  0  0  0  0
 19 18  1  0  0  0  0
M  RAD  3   2   2   3   3   4   2
M  END
