Coordinates from ORCA-job 4-MeOPhN2+~BF4-_B3LYPG-6-31G_dp-CH-Scan-d09-49-n800
 OpenBabel11261919343D

 22 21  0  0  0  0  0  0  0  0999 V2000
   -2.1427    0.2194    0.3642 C   0  0  0  0  0  0  0  0  0  0  0  0
   -3.4909    0.0343    0.5487 N   0  0  0  0  0  0  0  0  0  0  0  0
   -4.5734   -0.1748    0.7280 N   0  0  0  0  0  0  0  0  0  0  0  0
   -1.5862    1.5111    0.4881 C   0  0  0  0  0  0  0  0  0  0  0  0
   -0.2238    1.6295    0.3169 C   0  0  0  0  0  0  0  0  0  0  0  0
    0.5740    0.5048    0.0147 C   0  0  0  0  0  0  0  0  0  0  0  0
    1.8826    0.7504   -0.1387 O   0  0  0  0  0  0  0  0  0  0  0  0
    2.7733   -0.3224   -0.4550 C   0  0  0  0  0  0  0  0  0  0  0  0
   -0.0096   -0.7758   -0.1054 C   0  0  0  0  0  0  0  0  0  0  0  0
   -1.3725   -0.9219    0.0753 C   0  0  0  0  0  0  0  0  0  0  0  0
   -2.2460    2.3622    0.7136 H   0  0  0  0  0  0  0  0  0  0  0  0
    0.2616    2.5952    0.4016 H   0  0  0  0  0  0  0  0  0  0  0  0
    3.7620    0.1294   -0.5240 H   0  0  0  0  0  0  0  0  0  0  0  0
    2.5133   -0.7807   -1.4153 H   0  0  0  0  0  0  0  0  0  0  0  0
    2.7723   -1.0824    0.3343 H   0  0  0  0  0  0  0  0  0  0  0  0
    0.5904   -1.6457   -0.3375 H   0  0  0  0  0  0  0  0  0  0  0  0
   -1.8441   -1.8946   -0.0132 H   0  0  0  0  0  0  0  0  0  0  0  0
   -4.7508    2.8071    0.0163 B   0  0  0  0  0  0  0  0  0  0  0  0
   -3.9464    2.0845   -0.9132 F   0  0  0  0  0  0  0  0  0  0  0  0
   -3.8956    3.1955    1.0875 F   0  0  0  0  0  0  0  0  0  0  0  0
   -5.3409    3.8936   -0.5749 F   0  0  0  0  0  0  0  0  0  0  0  0
   -5.7103    1.9010    0.5343 F   0  0  0  0  0  0  0  0  0  0  0  0
  1  4  1  0  0  0  0
  1  2  1  0  0  0  0
  2  3  1  0  0  0  0
  4 11  1  0  0  0  0
  5 12  1  0  0  0  0
  5  4  2  0  0  0  0
  6  5  1  0  0  0  0
  7  6  1  0  0  0  0
  8  7  1  0  0  0  0
  8 15  1  0  0  0  0
  9  6  2  0  0  0  0
  9 10  1  0  0  0  0
 10  1  2  0  0  0  0
 13  8  1  0  0  0  0
 14  8  1  0  0  0  0
 16  9  1  0  0  0  0
 17 10  1  0  0  0  0
 18 22  1  0  0  0  0
 18 20  1  0  0  0  0
 19 18  1  0  0  0  0
 21 18  1  0  0  0  0
M  RAD  2   2   2   3   3
M  END
