Coordinates from ORCA-job 4-MeOPhN2+~BF4-_B3LYPG-6-31G_dp-CH-Scan-d09-49-n800
 OpenBabel11261919343D

 22 20  0  0  0  0  0  0  0  0999 V2000
   -1.6624    0.0640    0.0572 C   0  0  0  0  0  0  0  0  0  0  0  0
   -3.0355   -0.0034    0.1458 N   0  0  0  0  0  0  0  0  0  0  0  0
   -4.1555    0.0066    0.2180 N   0  0  0  0  0  0  0  0  0  0  0  0
   -1.1600    1.3874    0.0512 C   0  0  0  0  0  0  0  0  0  0  0  0
    0.2449    1.3621   -0.0399 C   0  0  0  0  0  0  0  0  0  0  0  0
    1.0116    0.1890   -0.1116 C   0  0  0  0  0  0  0  0  0  0  0  0
    2.3542    0.3526   -0.1928 O   0  0  0  0  0  0  0  0  0  0  0  0
    3.2031   -0.7867   -0.2633 C   0  0  0  0  0  0  0  0  0  0  0  0
    0.3987   -1.0981   -0.0980 C   0  0  0  0  0  0  0  0  0  0  0  0
   -0.9708   -1.1754   -0.0117 C   0  0  0  0  0  0  0  0  0  0  0  0
   -3.9603    4.4199    0.4724 H   0  0  0  0  0  0  0  0  0  0  0  0
    0.8133    2.2932   -0.0575 H   0  0  0  0  0  0  0  0  0  0  0  0
    4.2205   -0.3969   -0.3142 H   0  0  0  0  0  0  0  0  0  0  0  0
    3.0026   -1.3860   -1.1599 H   0  0  0  0  0  0  0  0  0  0  0  0
    3.1043   -1.4199    0.6270 H   0  0  0  0  0  0  0  0  0  0  0  0
    0.9895   -2.0036   -0.1535 H   0  0  0  0  0  0  0  0  0  0  0  0
   -1.4854   -2.1334    0.0020 H   0  0  0  0  0  0  0  0  0  0  0  0
   -6.0124    2.9817    0.2908 B   0  0  0  0  0  0  0  0  0  0  0  0
   -5.0958    2.6363   -0.6149 F   0  0  0  0  0  0  0  0  0  0  0  0
   -4.7481    4.6415    0.9162 F   0  0  0  0  0  0  0  0  0  0  0  0
   -7.0408    3.7251   -0.0774 F   0  0  0  0  0  0  0  0  0  0  0  0
   -6.0196    2.3637    1.4606 F   0  0  0  0  0  0  0  0  0  0  0  0
  1  2  1  0  0  0  0
  2  3  1  0  0  0  0
  4  1  1  0  0  0  0
  5  4  2  0  0  0  0
  6  9  2  0  0  0  0
  6  5  1  0  0  0  0
  7  6  1  0  0  0  0
  8  7  1  0  0  0  0
  8 15  1  0  0  0  0
  9 10  1  0  0  0  0
 10 17  1  0  0  0  0
 10  1  2  0  0  0  0
 11 20  1  0  0  0  0
 12  5  1  0  0  0  0
 13  8  1  0  0  0  0
 14  8  1  0  0  0  0
 16  9  1  0  0  0  0
 18 22  1  0  0  0  0
 19 18  1  0  0  0  0
 21 18  1  0  0  0  0
M  RAD  3   2   2   3   3   4   2
M  END
