Coordinates from ORCA-job 4-MeOPhN2+~BF4-_B3LYPG-6-31G_dp-CH-Scan-d09-49-n800
 OpenBabel11261919343D

 22 20  0  0  0  0  0  0  0  0999 V2000
   -1.6313    0.0806    0.0604 C   0  0  0  0  0  0  0  0  0  0  0  0
   -3.0048    0.0314    0.1546 N   0  0  0  0  0  0  0  0  0  0  0  0
   -4.1242    0.0591    0.2326 N   0  0  0  0  0  0  0  0  0  0  0  0
   -1.1143    1.3981    0.0480 C   0  0  0  0  0  0  0  0  0  0  0  0
    0.2901    1.3563   -0.0479 C   0  0  0  0  0  0  0  0  0  0  0  0
    1.0427    0.1740   -0.1180 C   0  0  0  0  0  0  0  0  0  0  0  0
    2.3871    0.3214   -0.2043 O   0  0  0  0  0  0  0  0  0  0  0  0
    3.2222   -0.8280   -0.2726 C   0  0  0  0  0  0  0  0  0  0  0  0
    0.4150   -1.1060   -0.0977 C   0  0  0  0  0  0  0  0  0  0  0  0
   -0.9549   -1.1673   -0.0066 C   0  0  0  0  0  0  0  0  0  0  0  0
   -4.0940    4.5133    0.4987 H   0  0  0  0  0  0  0  0  0  0  0  0
    0.8692    2.2806   -0.0709 H   0  0  0  0  0  0  0  0  0  0  0  0
    4.2440   -0.4505   -0.3283 H   0  0  0  0  0  0  0  0  0  0  0  0
    3.0119   -1.4287   -1.1662 H   0  0  0  0  0  0  0  0  0  0  0  0
    3.1186   -1.4564    0.6205 H   0  0  0  0  0  0  0  0  0  0  0  0
    0.9953   -2.0185   -0.1521 H   0  0  0  0  0  0  0  0  0  0  0  0
   -1.4807   -2.1192    0.0124 H   0  0  0  0  0  0  0  0  0  0  0  0
   -6.0539    2.9760    0.2827 B   0  0  0  0  0  0  0  0  0  0  0  0
   -5.0818    2.6876   -0.5849 F   0  0  0  0  0  0  0  0  0  0  0  0
   -4.8807    4.6936    0.9628 F   0  0  0  0  0  0  0  0  0  0  0  0
   -7.1007    3.6709   -0.1249 F   0  0  0  0  0  0  0  0  0  0  0  0
   -6.0784    2.3513    1.4480 F   0  0  0  0  0  0  0  0  0  0  0  0
  1  2  1  0  0  0  0
  2  3  1  0  0  0  0
  4  1  1  0  0  0  0
  5  4  2  0  0  0  0
  6  9  2  0  0  0  0
  6  5  1  0  0  0  0
  7  6  1  0  0  0  0
  8  7  1  0  0  0  0
  8 15  1  0  0  0  0
  9 10  1  0  0  0  0
 10 17  1  0  0  0  0
 10  1  2  0  0  0  0
 11 20  1  0  0  0  0
 12  5  1  0  0  0  0
 13  8  1  0  0  0  0
 14  8  1  0  0  0  0
 16  9  1  0  0  0  0
 18 22  1  0  0  0  0
 19 18  1  0  0  0  0
 21 18  1  0  0  0  0
M  RAD  3   2   2   3   3   4   2
M  END
