Coordinates from ORCA-job 4-MeOPhN2+~BF4-_B3LYPG-6-31G_dp-CH-Scan-d09-49-n800
 OpenBabel11261919343D

 22 21  0  0  0  0  0  0  0  0999 V2000
   -2.1431    0.2852    0.3497 C   0  0  0  0  0  0  0  0  0  0  0  0
   -3.4942    0.1083    0.5321 N   0  0  0  0  0  0  0  0  0  0  0  0
   -4.5699   -0.1470    0.6878 N   0  0  0  0  0  0  0  0  0  0  0  0
   -1.5753    1.5763    0.4007 C   0  0  0  0  0  0  0  0  0  0  0  0
   -0.2121    1.6717    0.2180 C   0  0  0  0  0  0  0  0  0  0  0  0
    0.5775    0.5267   -0.0198 C   0  0  0  0  0  0  0  0  0  0  0  0
    1.8875    0.7537   -0.1892 O   0  0  0  0  0  0  0  0  0  0  0  0
    2.7702   -0.3431   -0.4373 C   0  0  0  0  0  0  0  0  0  0  0  0
   -0.0166   -0.7529   -0.0629 C   0  0  0  0  0  0  0  0  0  0  0  0
   -1.3810   -0.8757    0.1269 C   0  0  0  0  0  0  0  0  0  0  0  0
   -2.1315    2.3280    0.5690 H   0  0  0  0  0  0  0  0  0  0  0  0
    0.2796    2.6376    0.2486 H   0  0  0  0  0  0  0  0  0  0  0  0
    3.7620    0.0964   -0.5358 H   0  0  0  0  0  0  0  0  0  0  0  0
    2.5060   -0.8603   -1.3661 H   0  0  0  0  0  0  0  0  0  0  0  0
    2.7650   -1.0510    0.3991 H   0  0  0  0  0  0  0  0  0  0  0  0
    0.5751   -1.6409   -0.2426 H   0  0  0  0  0  0  0  0  0  0  0  0
   -1.8606   -1.8480    0.0949 H   0  0  0  0  0  0  0  0  0  0  0  0
   -4.7717    2.7475    0.0649 B   0  0  0  0  0  0  0  0  0  0  0  0
   -3.9215    2.2018   -0.9424 F   0  0  0  0  0  0  0  0  0  0  0  0
   -3.9979    2.7756    1.2631 F   0  0  0  0  0  0  0  0  0  0  0  0
   -5.2196    3.9965   -0.2780 F   0  0  0  0  0  0  0  0  0  0  0  0
   -5.8317    1.8334    0.2656 F   0  0  0  0  0  0  0  0  0  0  0  0
  1  4  1  0  0  0  0
  1  2  1  0  0  0  0
  2  3  1  0  0  0  0
  4 11  1  0  0  0  0
  5 12  1  0  0  0  0
  5  4  2  0  0  0  0
  6  5  1  0  0  0  0
  7  6  1  0  0  0  0
  8  7  1  0  0  0  0
  8 15  1  0  0  0  0
  9  6  2  0  0  0  0
  9 10  1  0  0  0  0
 10  1  2  0  0  0  0
 13  8  1  0  0  0  0
 14  8  1  0  0  0  0
 16  9  1  0  0  0  0
 17 10  1  0  0  0  0
 18 22  1  0  0  0  0
 18 20  1  0  0  0  0
 19 18  1  0  0  0  0
 21 18  1  0  0  0  0
M  RAD  2   2   2   3   3
M  END
