Coordinates from ORCA-job 4-MeOPhN2+~BF4-_B3LYPG-6-31G_dp-CH-Scan-d09-49-n800
 OpenBabel11261919343D

 22 21  0  0  0  0  0  0  0  0999 V2000
   -2.1416    0.1180    0.2364 C   0  0  0  0  0  0  0  0  0  0  0  0
   -3.4885   -0.1021    0.3708 N   0  0  0  0  0  0  0  0  0  0  0  0
   -4.5836   -0.2722    0.5051 N   0  0  0  0  0  0  0  0  0  0  0  0
   -1.6519    1.4390    0.3596 C   0  0  0  0  0  0  0  0  0  0  0  0
   -0.2807    1.5772    0.2384 C   0  0  0  0  0  0  0  0  0  0  0  0
    0.5635    0.4723    0.0037 C   0  0  0  0  0  0  0  0  0  0  0  0
    1.8729    0.7506   -0.0939 O   0  0  0  0  0  0  0  0  0  0  0  0
    2.8078   -0.3030   -0.3322 C   0  0  0  0  0  0  0  0  0  0  0  0
    0.0281   -0.8333   -0.1155 C   0  0  0  0  0  0  0  0  0  0  0  0
   -1.3338   -1.0164    0.0028 C   0  0  0  0  0  0  0  0  0  0  0  0
   -2.5547    2.5326    0.5491 H   0  0  0  0  0  0  0  0  0  0  0  0
    0.1851    2.5545    0.3166 H   0  0  0  0  0  0  0  0  0  0  0  0
    3.7862    0.1751   -0.3635 H   0  0  0  0  0  0  0  0  0  0  0  0
    2.6129   -0.7967   -1.2907 H   0  0  0  0  0  0  0  0  0  0  0  0
    2.7879   -1.0412    0.4775 H   0  0  0  0  0  0  0  0  0  0  0  0
    0.6669   -1.6877   -0.2969 H   0  0  0  0  0  0  0  0  0  0  0  0
   -1.7738   -2.0048   -0.0827 H   0  0  0  0  0  0  0  0  0  0  0  0
   -4.7670    2.8909    0.1068 B   0  0  0  0  0  0  0  0  0  0  0  0
   -4.3684    2.0956   -0.9731 F   0  0  0  0  0  0  0  0  0  0  0  0
   -3.4993    3.4688    0.6557 F   0  0  0  0  0  0  0  0  0  0  0  0
   -5.5838    3.9215   -0.2458 F   0  0  0  0  0  0  0  0  0  0  0  0
   -5.2883    2.0813    1.1182 F   0  0  0  0  0  0  0  0  0  0  0  0
  1  4  2  0  0  0  0
  1  2  1  0  0  0  0
  2  3  1  0  0  0  0
  4 11  1  0  0  0  0
  5 12  1  0  0  0  0
  5  4  1  0  0  0  0
  6  5  2  0  0  0  0
  7  6  1  0  0  0  0
  8  7  1  0  0  0  0
  8 15  1  0  0  0  0
  9 10  2  0  0  0  0
  9  6  1  0  0  0  0
 10  1  1  0  0  0  0
 13  8  1  0  0  0  0
 14  8  1  0  0  0  0
 16  9  1  0  0  0  0
 17 10  1  0  0  0  0
 18 20  1  0  0  0  0
 18 22  1  0  0  0  0
 19 18  1  0  0  0  0
 21 18  1  0  0  0  0
M  RAD  2   2   2   3   3
M  END
