Coordinates from ORCA-job 4-MeOPhN2+~BF4-_B3LYPG-6-31G_dp-CH-Scan-d09-49-n800
 OpenBabel11261919343D

 22 20  0  0  0  0  0  0  0  0999 V2000
   -1.7471    0.0353    0.0783 C   0  0  0  0  0  0  0  0  0  0  0  0
   -3.1163   -0.0758    0.1668 N   0  0  0  0  0  0  0  0  0  0  0  0
   -4.2348   -0.1059    0.2509 N   0  0  0  0  0  0  0  0  0  0  0  0
   -1.2763    1.3711    0.0982 C   0  0  0  0  0  0  0  0  0  0  0  0
    0.1277    1.3850    0.0059 C   0  0  0  0  0  0  0  0  0  0  0  0
    0.9252    0.2338   -0.0897 C   0  0  0  0  0  0  0  0  0  0  0  0
    2.2622    0.4349   -0.1678 O   0  0  0  0  0  0  0  0  0  0  0  0
    3.1416   -0.6796   -0.2616 C   0  0  0  0  0  0  0  0  0  0  0  0
    0.3460   -1.0681   -0.1015 C   0  0  0  0  0  0  0  0  0  0  0  0
   -1.0209   -1.1824   -0.0159 C   0  0  0  0  0  0  0  0  0  0  0  0
   -3.6262    4.1219    0.4332 H   0  0  0  0  0  0  0  0  0  0  0  0
    0.6711    2.3308    0.0068 H   0  0  0  0  0  0  0  0  0  0  0  0
    4.1479   -0.2615   -0.3049 H   0  0  0  0  0  0  0  0  0  0  0  0
    2.9563   -1.2656   -1.1702 H   0  0  0  0  0  0  0  0  0  0  0  0
    3.0605   -1.3330    0.6158 H   0  0  0  0  0  0  0  0  0  0  0  0
    0.9595   -1.9570   -0.1755 H   0  0  0  0  0  0  0  0  0  0  0  0
   -1.5101   -2.1536   -0.0213 H   0  0  0  0  0  0  0  0  0  0  0  0
   -5.8727    2.9854    0.2744 B   0  0  0  0  0  0  0  0  0  0  0  0
   -5.0846    2.5117   -0.6921 F   0  0  0  0  0  0  0  0  0  0  0  0
   -4.4101    4.4732    0.7941 F   0  0  0  0  0  0  0  0  0  0  0  0
   -6.8333    3.8410   -0.0294 F   0  0  0  0  0  0  0  0  0  0  0  0
   -5.8695    2.3782    1.4520 F   0  0  0  0  0  0  0  0  0  0  0  0
  1  4  1  0  0  0  0
  1  2  1  0  0  0  0
  2  3  1  0  0  0  0
  5 12  1  0  0  0  0
  5  4  2  0  0  0  0
  6  5  1  0  0  0  0
  7  6  1  0  0  0  0
  8  7  1  0  0  0  0
  8 15  1  0  0  0  0
  9  6  2  0  0  0  0
  9 10  1  0  0  0  0
 10  1  2  0  0  0  0
 11 20  1  0  0  0  0
 13  8  1  0  0  0  0
 14  8  1  0  0  0  0
 16  9  1  0  0  0  0
 17 10  1  0  0  0  0
 18 22  1  0  0  0  0
 19 18  1  0  0  0  0
 21 18  1  0  0  0  0
M  RAD  3   2   2   3   3   4   2
M  END
