Coordinates from ORCA-job 4-MeOPhN2+~BF4-_B3LYPG-6-31G_dp-CH-Scan-d09-49-n800
 OpenBabel11261919343D

 22 20  0  0  0  0  0  0  0  0999 V2000
   -1.8592    0.0421    0.0758 C   0  0  0  0  0  0  0  0  0  0  0  0
   -3.2244   -0.1083    0.1383 N   0  0  0  0  0  0  0  0  0  0  0  0
   -4.3417   -0.1837    0.1928 N   0  0  0  0  0  0  0  0  0  0  0  0
   -1.4059    1.3835    0.1383 C   0  0  0  0  0  0  0  0  0  0  0  0
   -0.0047    1.4331    0.0680 C   0  0  0  0  0  0  0  0  0  0  0  0
    0.8179    0.3004   -0.0481 C   0  0  0  0  0  0  0  0  0  0  0  0
    2.1491    0.5319   -0.1026 O   0  0  0  0  0  0  0  0  0  0  0  0
    3.0545   -0.5604   -0.2202 C   0  0  0  0  0  0  0  0  0  0  0  0
    0.2642   -1.0102   -0.1032 C   0  0  0  0  0  0  0  0  0  0  0  0
   -1.1015   -1.1536   -0.0406 C   0  0  0  0  0  0  0  0  0  0  0  0
   -3.2431    3.6466    0.3488 H   0  0  0  0  0  0  0  0  0  0  0  0
    0.5163    2.3899    0.1027 H   0  0  0  0  0  0  0  0  0  0  0  0
    4.0512   -0.1185   -0.2412 H   0  0  0  0  0  0  0  0  0  0  0  0
    2.8900   -1.1223   -1.1475 H   0  0  0  0  0  0  0  0  0  0  0  0
    2.9792   -1.2402    0.6372 H   0  0  0  0  0  0  0  0  0  0  0  0
    0.8953   -1.8851   -0.1919 H   0  0  0  0  0  0  0  0  0  0  0  0
   -1.5695   -2.1340   -0.0792 H   0  0  0  0  0  0  0  0  0  0  0  0
   -5.6450    2.9682    0.3080 B   0  0  0  0  0  0  0  0  0  0  0  0
   -5.3050    2.3966   -0.8480 F   0  0  0  0  0  0  0  0  0  0  0  0
   -4.0024    4.1930    0.4084 F   0  0  0  0  0  0  0  0  0  0  0  0
   -6.5374    3.9468    0.3174 F   0  0  0  0  0  0  0  0  0  0  0  0
   -5.3820    2.3038    1.4334 F   0  0  0  0  0  0  0  0  0  0  0  0
  1  4  1  0  0  0  0
  1  2  1  0  0  0  0
  2  3  1  0  0  0  0
  5 12  1  0  0  0  0
  5  4  2  0  0  0  0
  6  5  1  0  0  0  0
  7  6  1  0  0  0  0
  8  7  1  0  0  0  0
  8 15  1  0  0  0  0
  9  6  2  0  0  0  0
  9 10  1  0  0  0  0
 10  1  2  0  0  0  0
 11 20  1  0  0  0  0
 13  8  1  0  0  0  0
 14  8  1  0  0  0  0
 16  9  1  0  0  0  0
 17 10  1  0  0  0  0
 18 21  1  0  0  0  0
 18 22  1  0  0  0  0
 19 18  1  0  0  0  0
M  RAD  3   2   2   3   3   4   2
M  END
