Coordinates from ORCA-job 4-MeOPhN2+~BF4-_B3LYPG-6-31G_dp-CH-Scan-d09-49-n800
 OpenBabel11261919343D

 22 20  0  0  0  0  0  0  0  0999 V2000
   -1.5451    0.1443   -0.0576 C   0  0  0  0  0  0  0  0  0  0  0  0
   -2.9222    0.1535   -0.0080 N   0  0  0  0  0  0  0  0  0  0  0  0
   -4.0417    0.2290    0.0301 N   0  0  0  0  0  0  0  0  0  0  0  0
   -0.9786    1.4395   -0.1163 C   0  0  0  0  0  0  0  0  0  0  0  0
    0.4257    1.3418   -0.1634 C   0  0  0  0  0  0  0  0  0  0  0  0
    1.1337    0.1305   -0.1518 C   0  0  0  0  0  0  0  0  0  0  0  0
    2.4851    0.2236   -0.2012 O   0  0  0  0  0  0  0  0  0  0  0  0
    3.2766   -0.9582   -0.1911 C   0  0  0  0  0  0  0  0  0  0  0  0
    0.4569   -1.1233   -0.0908 C   0  0  0  0  0  0  0  0  0  0  0  0
   -0.9165   -1.1300   -0.0420 C   0  0  0  0  0  0  0  0  0  0  0  0
   -4.5025    4.7968    0.4499 H   0  0  0  0  0  0  0  0  0  0  0  0
    1.0400    2.2421   -0.2121 H   0  0  0  0  0  0  0  0  0  0  0  0
    4.3136   -0.6223   -0.2345 H   0  0  0  0  0  0  0  0  0  0  0  0
    3.0673   -1.5926   -1.0612 H   0  0  0  0  0  0  0  0  0  0  0  0
    3.1248   -1.5390    0.7271 H   0  0  0  0  0  0  0  0  0  0  0  0
    1.0040   -2.0578   -0.0822 H   0  0  0  0  0  0  0  0  0  0  0  0
   -1.4787   -2.0598    0.0058 H   0  0  0  0  0  0  0  0  0  0  0  0
   -6.1632    2.9467    0.4050 B   0  0  0  0  0  0  0  0  0  0  0  0
   -5.2456    2.8614   -0.5605 F   0  0  0  0  0  0  0  0  0  0  0  0
   -5.2264    4.8352    1.0336 F   0  0  0  0  0  0  0  0  0  0  0  0
   -7.3492    3.4571    0.1270 F   0  0  0  0  0  0  0  0  0  0  0  0
   -5.9617    2.3011    1.5406 F   0  0  0  0  0  0  0  0  0  0  0  0
  1 10  1  0  0  0  0
  1  2  1  0  0  0  0
  2  3  1  0  0  0  0
  4  1  2  0  0  0  0
  5  6  2  0  0  0  0
  5  4  1  0  0  0  0
  6  9  1  0  0  0  0
  7  8  1  0  0  0  0
  7  6  1  0  0  0  0
  8 15  1  0  0  0  0
  9 16  1  0  0  0  0
  9 10  2  0  0  0  0
 10 17  1  0  0  0  0
 11 20  1  0  0  0  0
 12  5  1  0  0  0  0
 13  8  1  0  0  0  0
 14  8  1  0  0  0  0
 18 22  1  0  0  0  0
 19 18  1  0  0  0  0
 21 18  1  0  0  0  0
M  RAD  3   2   2   3   3   4   2
M  END
