Coordinates from ORCA-job 4-MeOPhN2+~BF4-_B3LYPG-6-31G_dp-CH-Scan-d09-49-n800
 OpenBabel11261919343D

 22 20  0  0  0  0  0  0  0  0999 V2000
   -1.9209    0.0461    0.0864 C   0  0  0  0  0  0  0  0  0  0  0  0
   -3.2818   -0.1289    0.1543 N   0  0  0  0  0  0  0  0  0  0  0  0
   -4.3959   -0.2340    0.2137 N   0  0  0  0  0  0  0  0  0  0  0  0
   -1.4769    1.3911    0.1499 C   0  0  0  0  0  0  0  0  0  0  0  0
   -0.0787    1.4606    0.0766 C   0  0  0  0  0  0  0  0  0  0  0  0
    0.7576    0.3377   -0.0439 C   0  0  0  0  0  0  0  0  0  0  0  0
    2.0843    0.5861   -0.1002 O   0  0  0  0  0  0  0  0  0  0  0  0
    3.0037   -0.4948   -0.2211 C   0  0  0  0  0  0  0  0  0  0  0  0
    0.2185   -0.9780   -0.1012 C   0  0  0  0  0  0  0  0  0  0  0  0
   -1.1455   -1.1372   -0.0353 C   0  0  0  0  0  0  0  0  0  0  0  0
   -3.0973    3.3989    0.3393 H   0  0  0  0  0  0  0  0  0  0  0  0
    0.4287    2.4240    0.1122 H   0  0  0  0  0  0  0  0  0  0  0  0
    3.9944   -0.0402   -0.2417 H   0  0  0  0  0  0  0  0  0  0  0  0
    2.8451   -1.0560   -1.1497 H   0  0  0  0  0  0  0  0  0  0  0  0
    2.9371   -1.1771    0.6349 H   0  0  0  0  0  0  0  0  0  0  0  0
    0.8586   -1.8458   -0.1939 H   0  0  0  0  0  0  0  0  0  0  0  0
   -1.6014   -2.1230   -0.0753 H   0  0  0  0  0  0  0  0  0  0  0  0
   -5.4813    2.9681    0.2917 B   0  0  0  0  0  0  0  0  0  0  0  0
   -5.2022    2.3468   -0.8609 F   0  0  0  0  0  0  0  0  0  0  0  0
   -3.8211    4.0037    0.4055 F   0  0  0  0  0  0  0  0  0  0  0  0
   -6.3124    4.0036    0.2857 F   0  0  0  0  0  0  0  0  0  0  0  0
   -5.3165    2.2679    1.4196 F   0  0  0  0  0  0  0  0  0  0  0  0
  1  4  1  0  0  0  0
  1  2  1  0  0  0  0
  2  3  1  0  0  0  0
  5 12  1  0  0  0  0
  5  4  2  0  0  0  0
  6  5  1  0  0  0  0
  7  6  1  0  0  0  0
  8  7  1  0  0  0  0
  8 15  1  0  0  0  0
  9  6  2  0  0  0  0
  9 10  1  0  0  0  0
 10  1  2  0  0  0  0
 11 20  1  0  0  0  0
 13  8  1  0  0  0  0
 14  8  1  0  0  0  0
 16  9  1  0  0  0  0
 17 10  1  0  0  0  0
 18 22  1  0  0  0  0
 19 18  1  0  0  0  0
 21 18  1  0  0  0  0
M  RAD  3   2   2   3   3   4   2
M  END
