Coordinates from ORCA-job 4-MeOPhN2+~BF4-_B3LYPG-6-31G_dp-CH-Scan-d09-49-n800
 OpenBabel11261919343D

 22 20  0  0  0  0  0  0  0  0999 V2000
   -1.5655    0.1300   -0.0595 C   0  0  0  0  0  0  0  0  0  0  0  0
   -2.9427    0.1267   -0.0118 N   0  0  0  0  0  0  0  0  0  0  0  0
   -4.0628    0.1918    0.0258 N   0  0  0  0  0  0  0  0  0  0  0  0
   -1.0101    1.4301   -0.1173 C   0  0  0  0  0  0  0  0  0  0  0  0
    0.3951    1.3444   -0.1627 C   0  0  0  0  0  0  0  0  0  0  0  0
    1.1136    0.1394   -0.1502 C   0  0  0  0  0  0  0  0  0  0  0  0
    2.4642    0.2441   -0.1979 O   0  0  0  0  0  0  0  0  0  0  0  0
    3.2659   -0.9308   -0.1868 C   0  0  0  0  0  0  0  0  0  0  0  0
    0.4477   -1.1202   -0.0900 C   0  0  0  0  0  0  0  0  0  0  0  0
   -0.9257   -1.1387   -0.0431 C   0  0  0  0  0  0  0  0  0  0  0  0
   -4.4225    4.7511    0.4457 H   0  0  0  0  0  0  0  0  0  0  0  0
    1.0017    2.2500   -0.2105 H   0  0  0  0  0  0  0  0  0  0  0  0
    4.2999   -0.5859   -0.2289 H   0  0  0  0  0  0  0  0  0  0  0  0
    3.0631   -1.5669   -1.0572 H   0  0  0  0  0  0  0  0  0  0  0  0
    3.1179   -1.5129    0.7312 H   0  0  0  0  0  0  0  0  0  0  0  0
    1.0027   -2.0499   -0.0807 H   0  0  0  0  0  0  0  0  0  0  0  0
   -1.4799   -2.0733    0.0040 H   0  0  0  0  0  0  0  0  0  0  0  0
   -6.1371    2.9503    0.4034 B   0  0  0  0  0  0  0  0  0  0  0  0
   -5.2268    2.8387   -0.5663 F   0  0  0  0  0  0  0  0  0  0  0  0
   -5.1439    4.8090    1.0309 F   0  0  0  0  0  0  0  0  0  0  0  0
   -7.3085    3.4962    0.1314 F   0  0  0  0  0  0  0  0  0  0  0  0
   -5.9500    2.2967    1.5370 F   0  0  0  0  0  0  0  0  0  0  0  0
  1 10  1  0  0  0  0
  1  2  1  0  0  0  0
  2  3  1  0  0  0  0
  4  1  2  0  0  0  0
  5  6  2  0  0  0  0
  5  4  1  0  0  0  0
  6  9  1  0  0  0  0
  7  8  1  0  0  0  0
  7  6  1  0  0  0  0
  8 15  1  0  0  0  0
  9 16  1  0  0  0  0
  9 10  2  0  0  0  0
 10 17  1  0  0  0  0
 11 20  1  0  0  0  0
 12  5  1  0  0  0  0
 13  8  1  0  0  0  0
 14  8  1  0  0  0  0
 18 22  1  0  0  0  0
 19 18  1  0  0  0  0
 21 18  1  0  0  0  0
M  RAD  3   2   2   3   3   4   2
M  END
