Coordinates from ORCA-job 4-MeOPhN2+~BF4-_B3LYPG-6-31G_dp-CH-Scan-d09-49-n800
 OpenBabel11261919343D

 22 21  0  0  0  0  0  0  0  0999 V2000
   -2.1470    0.1623    0.3296 C   0  0  0  0  0  0  0  0  0  0  0  0
   -3.4937   -0.0366    0.4983 N   0  0  0  0  0  0  0  0  0  0  0  0
   -4.5833   -0.2130    0.6680 N   0  0  0  0  0  0  0  0  0  0  0  0
   -1.6129    1.4610    0.4804 C   0  0  0  0  0  0  0  0  0  0  0  0
   -0.2499    1.5986    0.3277 C   0  0  0  0  0  0  0  0  0  0  0  0
    0.5664    0.4879    0.0229 C   0  0  0  0  0  0  0  0  0  0  0  0
    1.8741    0.7513   -0.1092 O   0  0  0  0  0  0  0  0  0  0  0  0
    2.7833   -0.3057   -0.4253 C   0  0  0  0  0  0  0  0  0  0  0  0
    0.0026   -0.8004   -0.1233 C   0  0  0  0  0  0  0  0  0  0  0  0
   -1.3597   -0.9676    0.0343 C   0  0  0  0  0  0  0  0  0  0  0  0
   -2.3939    2.4207    0.7205 H   0  0  0  0  0  0  0  0  0  0  0  0
    0.2241    2.5686    0.4291 H   0  0  0  0  0  0  0  0  0  0  0  0
    3.7667    0.1602   -0.4758 H   0  0  0  0  0  0  0  0  0  0  0  0
    2.5429   -0.7566   -1.3942 H   0  0  0  0  0  0  0  0  0  0  0  0
    2.7823   -1.0747    0.3553 H   0  0  0  0  0  0  0  0  0  0  0  0
    0.6190   -1.6583   -0.3573 H   0  0  0  0  0  0  0  0  0  0  0  0
   -1.8169   -1.9455   -0.0728 H   0  0  0  0  0  0  0  0  0  0  0  0
   -4.7326    2.8538    0.0276 B   0  0  0  0  0  0  0  0  0  0  0  0
   -4.0515    2.0630   -0.9326 F   0  0  0  0  0  0  0  0  0  0  0  0
   -3.7242    3.4035    0.8980 F   0  0  0  0  0  0  0  0  0  0  0  0
   -5.4590    3.8542   -0.5594 F   0  0  0  0  0  0  0  0  0  0  0  0
   -5.5405    1.9928    0.8047 F   0  0  0  0  0  0  0  0  0  0  0  0
  1  4  1  0  0  0  0
  1  2  1  0  0  0  0
  2  3  1  0  0  0  0
  4 11  1  0  0  0  0
  5 12  1  0  0  0  0
  5  4  2  0  0  0  0
  6  5  1  0  0  0  0
  7  6  1  0  0  0  0
  8  7  1  0  0  0  0
  8 15  1  0  0  0  0
  9  6  2  0  0  0  0
  9 10  1  0  0  0  0
 10  1  2  0  0  0  0
 13  8  1  0  0  0  0
 14  8  1  0  0  0  0
 16  9  1  0  0  0  0
 17 10  1  0  0  0  0
 18 22  1  0  0  0  0
 18 20  1  0  0  0  0
 19 18  1  0  0  0  0
 21 18  1  0  0  0  0
M  RAD  2   2   2   3   3
M  END
