Coordinates from ORCA-job 4-MeOPhN2+~BF4-_B3LYPG-6-31G_dp-CH-Scan-d09-49-n800
 OpenBabel11261919343D

 22 20  0  0  0  0  0  0  0  0999 V2000
   -2.1288    0.1009    0.2136 C   0  0  0  0  0  0  0  0  0  0  0  0
   -3.4765   -0.1270    0.3304 N   0  0  0  0  0  0  0  0  0  0  0  0
   -4.5741   -0.3002    0.4424 N   0  0  0  0  0  0  0  0  0  0  0  0
   -1.6619    1.4328    0.3254 C   0  0  0  0  0  0  0  0  0  0  0  0
   -0.2852    1.5649    0.2120 C   0  0  0  0  0  0  0  0  0  0  0  0
    0.5678    0.4635   -0.0001 C   0  0  0  0  0  0  0  0  0  0  0  0
    1.8781    0.7471   -0.0915 O   0  0  0  0  0  0  0  0  0  0  0  0
    2.8190   -0.3044   -0.3090 C   0  0  0  0  0  0  0  0  0  0  0  0
    0.0434   -0.8491   -0.1059 C   0  0  0  0  0  0  0  0  0  0  0  0
   -1.3173   -1.0377    0.0024 C   0  0  0  0  0  0  0  0  0  0  0  0
   -2.6274    2.6016    0.4972 H   0  0  0  0  0  0  0  0  0  0  0  0
    0.1821    2.5431    0.2803 H   0  0  0  0  0  0  0  0  0  0  0  0
    3.7958    0.1775   -0.3410 H   0  0  0  0  0  0  0  0  0  0  0  0
    2.6334   -0.8133   -1.2616 H   0  0  0  0  0  0  0  0  0  0  0  0
    2.7985   -1.0321    0.5105 H   0  0  0  0  0  0  0  0  0  0  0  0
    0.6897   -1.7016   -0.2692 H   0  0  0  0  0  0  0  0  0  0  0  0
   -1.7525   -2.0293   -0.0731 H   0  0  0  0  0  0  0  0  0  0  0  0
   -4.8103    2.9019    0.1277 B   0  0  0  0  0  0  0  0  0  0  0  0
   -4.5007    2.1286   -0.9813 F   0  0  0  0  0  0  0  0  0  0  0  0
   -3.4456    3.4690    0.5825 F   0  0  0  0  0  0  0  0  0  0  0  0
   -5.6009    3.9733   -0.1289 F   0  0  0  0  0  0  0  0  0  0  0  0
   -5.2305    2.1101    1.1836 F   0  0  0  0  0  0  0  0  0  0  0  0
  1  4  1  0  0  0  0
  1  2  1  0  0  0  0
  2  3  1  0  0  0  0
  5 12  1  0  0  0  0
  5  4  2  0  0  0  0
  6  5  1  0  0  0  0
  7  6  1  0  0  0  0
  8  7  1  0  0  0  0
  8 15  1  0  0  0  0
  9  6  2  0  0  0  0
  9 10  1  0  0  0  0
 10  1  2  0  0  0  0
 11 20  1  0  0  0  0
 13  8  1  0  0  0  0
 14  8  1  0  0  0  0
 16  9  1  0  0  0  0
 17 10  1  0  0  0  0
 18 22  1  0  0  0  0
 19 18  1  0  0  0  0
 21 18  1  0  0  0  0
M  RAD  3   2   2   3   3   4   2
M  END
