Coordinates from ORCA-job 4-MeOPhN2+~BF4-_B3LYPG-6-31G_dp-CH-Scan-d09-49-n800
 OpenBabel11261919343D

 22 20  0  0  0  0  0  0  0  0999 V2000
   -2.0095    0.0549    0.0839 C   0  0  0  0  0  0  0  0  0  0  0  0
   -3.3657   -0.1497    0.1451 N   0  0  0  0  0  0  0  0  0  0  0  0
   -4.4757   -0.2863    0.1975 N   0  0  0  0  0  0  0  0  0  0  0  0
   -1.5760    1.4039    0.1384 C   0  0  0  0  0  0  0  0  0  0  0  0
   -0.1825    1.5004    0.0691 C   0  0  0  0  0  0  0  0  0  0  0  0
    0.6725    0.3892   -0.0409 C   0  0  0  0  0  0  0  0  0  0  0  0
    1.9927    0.6602   -0.0961 O   0  0  0  0  0  0  0  0  0  0  0  0
    2.9320   -0.4057   -0.2074 C   0  0  0  0  0  0  0  0  0  0  0  0
    0.1525   -0.9328   -0.0885 C   0  0  0  0  0  0  0  0  0  0  0  0
   -1.2097   -1.1117   -0.0256 C   0  0  0  0  0  0  0  0  0  0  0  0
   -2.9121    3.0574    0.2943 H   0  0  0  0  0  0  0  0  0  0  0  0
    0.3053    2.4730    0.0993 H   0  0  0  0  0  0  0  0  0  0  0  0
    3.9139    0.0669   -0.2314 H   0  0  0  0  0  0  0  0  0  0  0  0
    2.7829   -0.9766   -1.1315 H   0  0  0  0  0  0  0  0  0  0  0  0
    2.8762   -1.0808    0.6548 H   0  0  0  0  0  0  0  0  0  0  0  0
    0.8047   -1.7925   -0.1718 H   0  0  0  0  0  0  0  0  0  0  0  0
   -1.6493   -2.1047   -0.0590 H   0  0  0  0  0  0  0  0  0  0  0  0
   -5.2201    2.9606    0.2953 B   0  0  0  0  0  0  0  0  0  0  0  0
   -5.0992    2.2986   -0.8749 F   0  0  0  0  0  0  0  0  0  0  0  0
   -3.5968    3.7452    0.3624 F   0  0  0  0  0  0  0  0  0  0  0  0
   -5.9906    4.0513    0.3264 F   0  0  0  0  0  0  0  0  0  0  0  0
   -5.1493    2.1989    1.4072 F   0  0  0  0  0  0  0  0  0  0  0  0
  1  4  1  0  0  0  0
  1  2  1  0  0  0  0
  2  3  1  0  0  0  0
  5 12  1  0  0  0  0
  5  4  2  0  0  0  0
  6  5  1  0  0  0  0
  7  6  1  0  0  0  0
  8  7  1  0  0  0  0
  8 15  1  0  0  0  0
  9  6  2  0  0  0  0
  9 10  1  0  0  0  0
 10  1  2  0  0  0  0
 11 20  1  0  0  0  0
 13  8  1  0  0  0  0
 14  8  1  0  0  0  0
 16  9  1  0  0  0  0
 17 10  1  0  0  0  0
 18 21  1  0  0  0  0
 18 22  1  0  0  0  0
 19 18  1  0  0  0  0
M  RAD  3   2   2   3   3   4   2
M  END
