Coordinates from ORCA-job 4-MeOPhN2+~BF4-_B3LYPG-6-31G_dp-CH-Scan-d09-49-n800
 OpenBabel11261919343D

 22 21  0  0  0  0  0  0  0  0999 V2000
   -2.1466    0.1593    0.3266 C   0  0  0  0  0  0  0  0  0  0  0  0
   -3.4933   -0.0406    0.4941 N   0  0  0  0  0  0  0  0  0  0  0  0
   -4.5833   -0.2161    0.6623 N   0  0  0  0  0  0  0  0  0  0  0  0
   -1.6147    1.4589    0.4769 C   0  0  0  0  0  0  0  0  0  0  0  0
   -0.2515    1.5972    0.3252 C   0  0  0  0  0  0  0  0  0  0  0  0
    0.5662    0.4870    0.0226 C   0  0  0  0  0  0  0  0  0  0  0  0
    1.8738    0.7514   -0.1085 O   0  0  0  0  0  0  0  0  0  0  0  0
    2.7844   -0.3051   -0.4225 C   0  0  0  0  0  0  0  0  0  0  0  0
    0.0039   -0.8022   -0.1228 C   0  0  0  0  0  0  0  0  0  0  0  0
   -1.3583   -0.9706    0.0333 C   0  0  0  0  0  0  0  0  0  0  0  0
   -2.4075    2.4289    0.7164 H   0  0  0  0  0  0  0  0  0  0  0  0
    0.2220    2.5676    0.4258 H   0  0  0  0  0  0  0  0  0  0  0  0
    3.7674    0.1617   -0.4727 H   0  0  0  0  0  0  0  0  0  0  0  0
    2.5454   -0.7577   -1.3909 H   0  0  0  0  0  0  0  0  0  0  0  0
    2.7834   -1.0731    0.3591 H   0  0  0  0  0  0  0  0  0  0  0  0
    0.6216   -1.6597   -0.3550 H   0  0  0  0  0  0  0  0  0  0  0  0
   -1.8144   -1.9491   -0.0731 H   0  0  0  0  0  0  0  0  0  0  0  0
   -4.7328    2.8557    0.0291 B   0  0  0  0  0  0  0  0  0  0  0  0
   -4.0628    2.0638   -0.9364 F   0  0  0  0  0  0  0  0  0  0  0  0
   -3.7122    3.4057    0.8894 F   0  0  0  0  0  0  0  0  0  0  0  0
   -5.4619    3.8586   -0.5493 F   0  0  0  0  0  0  0  0  0  0  0  0
   -5.5327    1.9984    0.8169 F   0  0  0  0  0  0  0  0  0  0  0  0
  1  4  1  0  0  0  0
  1  2  1  0  0  0  0
  2  3  1  0  0  0  0
  4 11  1  0  0  0  0
  5 12  1  0  0  0  0
  5  4  2  0  0  0  0
  6  5  1  0  0  0  0
  7  6  1  0  0  0  0
  8  7  1  0  0  0  0
  8 15  1  0  0  0  0
  9  6  2  0  0  0  0
  9 10  1  0  0  0  0
 10  1  2  0  0  0  0
 13  8  1  0  0  0  0
 14  8  1  0  0  0  0
 16  9  1  0  0  0  0
 17 10  1  0  0  0  0
 18 22  1  0  0  0  0
 18 20  1  0  0  0  0
 19 18  1  0  0  0  0
 21 18  1  0  0  0  0
M  RAD  2   2   2   3   3
M  END
