Coordinates from ORCA-job 4-MeOPhN2+~BF4-_B3LYPG-6-31G_dp-CH-Scan-d09-49-n800
 OpenBabel11261919343D

 22 21  0  0  0  0  0  0  0  0999 V2000
   -2.1455    0.1497    0.3117 C   0  0  0  0  0  0  0  0  0  0  0  0
   -3.4918   -0.0543    0.4751 N   0  0  0  0  0  0  0  0  0  0  0  0
   -4.5826   -0.2285    0.6385 N   0  0  0  0  0  0  0  0  0  0  0  0
   -1.6217    1.4533    0.4587 C   0  0  0  0  0  0  0  0  0  0  0  0
   -0.2573    1.5928    0.3120 C   0  0  0  0  0  0  0  0  0  0  0  0
    0.5656    0.4839    0.0200 C   0  0  0  0  0  0  0  0  0  0  0  0
    1.8735    0.7513   -0.1054 O   0  0  0  0  0  0  0  0  0  0  0  0
    2.7889   -0.3041   -0.4080 C   0  0  0  0  0  0  0  0  0  0  0  0
    0.0088   -0.8087   -0.1223 C   0  0  0  0  0  0  0  0  0  0  0  0
   -1.3531   -0.9807    0.0274 C   0  0  0  0  0  0  0  0  0  0  0  0
   -2.4496    2.4554    0.6914 H   0  0  0  0  0  0  0  0  0  0  0  0
    0.2144    2.5646    0.4091 H   0  0  0  0  0  0  0  0  0  0  0  0
    3.7709    0.1652   -0.4547 H   0  0  0  0  0  0  0  0  0  0  0  0
    2.5574   -0.7627   -1.3754 H   0  0  0  0  0  0  0  0  0  0  0  0
    2.7856   -1.0679    0.3777 H   0  0  0  0  0  0  0  0  0  0  0  0
    0.6309   -1.6651   -0.3466 H   0  0  0  0  0  0  0  0  0  0  0  0
   -1.8057   -1.9613   -0.0760 H   0  0  0  0  0  0  0  0  0  0  0  0
   -4.7364    2.8624    0.0395 B   0  0  0  0  0  0  0  0  0  0  0  0
   -4.1126    2.0652   -0.9469 F   0  0  0  0  0  0  0  0  0  0  0  0
   -3.6656    3.4161    0.8527 F   0  0  0  0  0  0  0  0  0  0  0  0
   -5.4789    3.8730   -0.5046 F   0  0  0  0  0  0  0  0  0  0  0  0
   -5.4989    2.0201    0.8726 F   0  0  0  0  0  0  0  0  0  0  0  0
  1  4  1  0  0  0  0
  1  2  1  0  0  0  0
  2  3  1  0  0  0  0
  4 11  1  0  0  0  0
  5 12  1  0  0  0  0
  5  4  2  0  0  0  0
  6  5  1  0  0  0  0
  7  6  1  0  0  0  0
  8  7  1  0  0  0  0
  8 15  1  0  0  0  0
  9  6  2  0  0  0  0
  9 10  1  0  0  0  0
 10  1  2  0  0  0  0
 13  8  1  0  0  0  0
 14  8  1  0  0  0  0
 16  9  1  0  0  0  0
 17 10  1  0  0  0  0
 18 20  1  0  0  0  0
 18 22  1  0  0  0  0
 19 18  1  0  0  0  0
 21 18  1  0  0  0  0
M  RAD  2   2   2   3   3
M  END
