Coordinates from ORCA-job 4-MeOPhN2+~BF4-_B3LYPG-6-31G_dp-CH-Scan-d09-49-n800
 OpenBabel11261919343D

 22 20  0  0  0  0  0  0  0  0999 V2000
   -1.7888    0.0431    0.0893 C   0  0  0  0  0  0  0  0  0  0  0  0
   -3.1572   -0.0806    0.1598 N   0  0  0  0  0  0  0  0  0  0  0  0
   -4.2762   -0.1285    0.2219 N   0  0  0  0  0  0  0  0  0  0  0  0
   -1.3205    1.3787    0.1543 C   0  0  0  0  0  0  0  0  0  0  0  0
    0.0828    1.4032    0.0741 C   0  0  0  0  0  0  0  0  0  0  0  0
    0.8865    0.2588   -0.0519 C   0  0  0  0  0  0  0  0  0  0  0  0
    2.2221    0.4688   -0.1151 O   0  0  0  0  0  0  0  0  0  0  0  0
    3.1081   -0.6375   -0.2425 C   0  0  0  0  0  0  0  0  0  0  0  0
    0.3129   -1.0440   -0.1079 C   0  0  0  0  0  0  0  0  0  0  0  0
   -1.0542   -1.1665   -0.0364 C   0  0  0  0  0  0  0  0  0  0  0  0
   -3.4373    3.9409    0.4057 H   0  0  0  0  0  0  0  0  0  0  0  0
    0.6209    2.3511    0.1085 H   0  0  0  0  0  0  0  0  0  0  0  0
    4.1120   -0.2126   -0.2687 H   0  0  0  0  0  0  0  0  0  0  0  0
    2.9287   -1.1939   -1.1706 H   0  0  0  0  0  0  0  0  0  0  0  0
    3.0276   -1.3195    0.6128 H   0  0  0  0  0  0  0  0  0  0  0  0
    0.9305   -1.9278   -0.2042 H   0  0  0  0  0  0  0  0  0  0  0  0
   -1.5384   -2.1393   -0.0754 H   0  0  0  0  0  0  0  0  0  0  0  0
   -5.8005    2.9665    0.2873 B   0  0  0  0  0  0  0  0  0  0  0  0
   -5.3262    2.4548   -0.8458 F   0  0  0  0  0  0  0  0  0  0  0  0
   -4.2471    4.3986    0.4748 F   0  0  0  0  0  0  0  0  0  0  0  0
   -6.7734    3.8614    0.2493 F   0  0  0  0  0  0  0  0  0  0  0  0
   -5.5161    2.3441    1.4274 F   0  0  0  0  0  0  0  0  0  0  0  0
  1  4  1  0  0  0  0
  1  2  1  0  0  0  0
  2  3  1  0  0  0  0
  5 12  1  0  0  0  0
  5  4  2  0  0  0  0
  6  5  1  0  0  0  0
  7  6  1  0  0  0  0
  8  7  1  0  0  0  0
  8 15  1  0  0  0  0
  9  6  2  0  0  0  0
  9 10  1  0  0  0  0
 10  1  2  0  0  0  0
 11 20  1  0  0  0  0
 13  8  1  0  0  0  0
 14  8  1  0  0  0  0
 16  9  1  0  0  0  0
 17 10  1  0  0  0  0
 18 22  1  0  0  0  0
 19 18  1  0  0  0  0
 21 18  1  0  0  0  0
M  RAD  3   2   2   3   3   4   2
M  END
