Coordinates from ORCA-job 4-MeOPhN2+~BF4-_B3LYPG-6-31G_dp-CH-Scan-d09-49-n800
 OpenBabel11261919343D

 22 20  0  0  0  0  0  0  0  0999 V2000
   -1.9370    0.0487    0.0969 C   0  0  0  0  0  0  0  0  0  0  0  0
   -3.2969   -0.1316    0.1681 N   0  0  0  0  0  0  0  0  0  0  0  0
   -4.4096   -0.2464    0.2300 N   0  0  0  0  0  0  0  0  0  0  0  0
   -1.4941    1.3939    0.1619 C   0  0  0  0  0  0  0  0  0  0  0  0
   -0.0972    1.4689    0.0842 C   0  0  0  0  0  0  0  0  0  0  0  0
    0.7418    0.3482   -0.0415 C   0  0  0  0  0  0  0  0  0  0  0  0
    2.0672    0.6005   -0.1019 O   0  0  0  0  0  0  0  0  0  0  0  0
    2.9895   -0.4775   -0.2284 C   0  0  0  0  0  0  0  0  0  0  0  0
    0.2056   -0.9684   -0.0995 C   0  0  0  0  0  0  0  0  0  0  0  0
   -1.1578   -1.1313   -0.0296 C   0  0  0  0  0  0  0  0  0  0  0  0
   -3.0651    3.3252    0.3539 H   0  0  0  0  0  0  0  0  0  0  0  0
    0.4070    2.4337    0.1204 H   0  0  0  0  0  0  0  0  0  0  0  0
    3.9787   -0.0198   -0.2517 H   0  0  0  0  0  0  0  0  0  0  0  0
    2.8289   -1.0371   -1.1576 H   0  0  0  0  0  0  0  0  0  0  0  0
    2.9279   -1.1616    0.6265 H   0  0  0  0  0  0  0  0  0  0  0  0
    0.8474   -1.8345   -0.1961 H   0  0  0  0  0  0  0  0  0  0  0  0
   -1.6110   -2.1184   -0.0702 H   0  0  0  0  0  0  0  0  0  0  0  0
   -5.4298    2.9703    0.2763 B   0  0  0  0  0  0  0  0  0  0  0  0
   -5.1587    2.3361   -0.8740 F   0  0  0  0  0  0  0  0  0  0  0  0
   -3.7808    3.9457    0.4167 F   0  0  0  0  0  0  0  0  0  0  0  0
   -6.2464    4.0193    0.2578 F   0  0  0  0  0  0  0  0  0  0  0  0
   -5.3132    2.2558    1.4041 F   0  0  0  0  0  0  0  0  0  0  0  0
  1  4  1  0  0  0  0
  1  2  1  0  0  0  0
  2  3  1  0  0  0  0
  5 12  1  0  0  0  0
  5  4  2  0  0  0  0
  6  5  1  0  0  0  0
  7  6  1  0  0  0  0
  8  7  1  0  0  0  0
  8 15  1  0  0  0  0
  9  6  2  0  0  0  0
  9 10  1  0  0  0  0
 10  1  2  0  0  0  0
 11 20  1  0  0  0  0
 13  8  1  0  0  0  0
 14  8  1  0  0  0  0
 16  9  1  0  0  0  0
 17 10  1  0  0  0  0
 18 22  1  0  0  0  0
 19 18  1  0  0  0  0
 21 18  1  0  0  0  0
M  RAD  3   2   2   3   3   4   2
M  END
