Coordinates from ORCA-job 4-MeOPhN2+~BF4-_B3LYPG-6-31G_dp-CH-Scan-d09-49-n800
 OpenBabel11261919343D

 22 20  0  0  0  0  0  0  0  0999 V2000
   -1.7713    0.0304    0.0348 C   0  0  0  0  0  0  0  0  0  0  0  0
   -3.1404   -0.0908    0.1011 N   0  0  0  0  0  0  0  0  0  0  0  0
   -4.2602   -0.1326    0.1563 N   0  0  0  0  0  0  0  0  0  0  0  0
   -1.3080    1.3692    0.0537 C   0  0  0  0  0  0  0  0  0  0  0  0
    0.0966    1.3925   -0.0149 C   0  0  0  0  0  0  0  0  0  0  0  0
    0.9034    0.2460   -0.0891 C   0  0  0  0  0  0  0  0  0  0  0  0
    2.2397    0.4558   -0.1457 O   0  0  0  0  0  0  0  0  0  0  0  0
    3.1284   -0.6533   -0.2167 C   0  0  0  0  0  0  0  0  0  0  0  0
    0.3328   -1.0595   -0.1021 C   0  0  0  0  0  0  0  0  0  0  0  0
   -1.0346   -1.1823   -0.0391 C   0  0  0  0  0  0  0  0  0  0  0  0
   -3.5226    4.0253    0.3758 H   0  0  0  0  0  0  0  0  0  0  0  0
    0.6333    2.3420   -0.0111 H   0  0  0  0  0  0  0  0  0  0  0  0
    4.1322   -0.2283   -0.2465 H   0  0  0  0  0  0  0  0  0  0  0  0
    2.9619   -1.2469   -1.1239 H   0  0  0  0  0  0  0  0  0  0  0  0
    3.0371   -1.3005    0.6641 H   0  0  0  0  0  0  0  0  0  0  0  0
    0.9531   -1.9449   -0.1598 H   0  0  0  0  0  0  0  0  0  0  0  0
   -1.5171   -2.1568   -0.0464 H   0  0  0  0  0  0  0  0  0  0  0  0
   -5.8416    2.9878    0.3367 B   0  0  0  0  0  0  0  0  0  0  0  0
   -5.2036    2.4754   -0.7156 F   0  0  0  0  0  0  0  0  0  0  0  0
   -4.3058    4.4333    0.6746 F   0  0  0  0  0  0  0  0  0  0  0  0
   -6.8051    3.8736    0.1495 F   0  0  0  0  0  0  0  0  0  0  0  0
   -5.7122    2.3843    1.5108 F   0  0  0  0  0  0  0  0  0  0  0  0
  1  4  1  0  0  0  0
  1  2  1  0  0  0  0
  2  3  1  0  0  0  0
  5 12  1  0  0  0  0
  5  4  2  0  0  0  0
  6  5  1  0  0  0  0
  7  6  1  0  0  0  0
  8  7  1  0  0  0  0
  8 15  1  0  0  0  0
  9  6  2  0  0  0  0
  9 10  1  0  0  0  0
 10  1  2  0  0  0  0
 11 20  1  0  0  0  0
 13  8  1  0  0  0  0
 14  8  1  0  0  0  0
 16  9  1  0  0  0  0
 17 10  1  0  0  0  0
 18 22  1  0  0  0  0
 19 18  1  0  0  0  0
 21 18  1  0  0  0  0
M  RAD  3   2   2   3   3   4   2
M  END
