Coordinates from ORCA-job 4-MeOPhN2+~BF4-_B3LYPG-6-31G_dp-CH-Scan-d09-49-n800
 OpenBabel11261919343D

 22 20  0  0  0  0  0  0  0  0999 V2000
   -1.9418    0.0489    0.0984 C   0  0  0  0  0  0  0  0  0  0  0  0
   -3.3014   -0.1331    0.1697 N   0  0  0  0  0  0  0  0  0  0  0  0
   -4.4139   -0.2498    0.2317 N   0  0  0  0  0  0  0  0  0  0  0  0
   -1.4996    1.3943    0.1633 C   0  0  0  0  0  0  0  0  0  0  0  0
   -0.1029    1.4709    0.0851 C   0  0  0  0  0  0  0  0  0  0  0  0
    0.7371    0.3510   -0.0411 C   0  0  0  0  0  0  0  0  0  0  0  0
    2.0621    0.6047   -0.1021 O   0  0  0  0  0  0  0  0  0  0  0  0
    2.9855   -0.4724   -0.2292 C   0  0  0  0  0  0  0  0  0  0  0  0
    0.2020   -0.9660   -0.0989 C   0  0  0  0  0  0  0  0  0  0  0  0
   -1.1613   -1.1302   -0.0284 C   0  0  0  0  0  0  0  0  0  0  0  0
   -3.0549    3.3061    0.3550 H   0  0  0  0  0  0  0  0  0  0  0  0
    0.4001    2.4363    0.1211 H   0  0  0  0  0  0  0  0  0  0  0  0
    3.9741   -0.0135   -0.2532 H   0  0  0  0  0  0  0  0  0  0  0  0
    2.8248   -1.0321   -1.1583 H   0  0  0  0  0  0  0  0  0  0  0  0
    2.9251   -1.1564    0.6258 H   0  0  0  0  0  0  0  0  0  0  0  0
    0.8446   -1.8316   -0.1956 H   0  0  0  0  0  0  0  0  0  0  0  0
   -1.6134   -2.1176   -0.0688 H   0  0  0  0  0  0  0  0  0  0  0  0
   -5.4158    2.9704    0.2741 B   0  0  0  0  0  0  0  0  0  0  0  0
   -5.1488    2.3334   -0.8763 F   0  0  0  0  0  0  0  0  0  0  0  0
   -3.7681    3.9309    0.4184 F   0  0  0  0  0  0  0  0  0  0  0  0
   -6.2283    4.0231    0.2543 F   0  0  0  0  0  0  0  0  0  0  0  0
   -5.3092    2.2525    1.4014 F   0  0  0  0  0  0  0  0  0  0  0  0
  1  4  1  0  0  0  0
  1  2  1  0  0  0  0
  2  3  1  0  0  0  0
  5 12  1  0  0  0  0
  5  4  2  0  0  0  0
  6  5  1  0  0  0  0
  7  6  1  0  0  0  0
  8  7  1  0  0  0  0
  8 15  1  0  0  0  0
  9  6  2  0  0  0  0
  9 10  1  0  0  0  0
 10  1  2  0  0  0  0
 11 20  1  0  0  0  0
 13  8  1  0  0  0  0
 14  8  1  0  0  0  0
 16  9  1  0  0  0  0
 17 10  1  0  0  0  0
 18 22  1  0  0  0  0
 19 18  1  0  0  0  0
 21 18  1  0  0  0  0
M  RAD  3   2   2   3   3   4   2
M  END
