Coordinates from ORCA-job 4-MeOPhN2+~BF4-_B3LYPG-6-31G_dp-CH-Scan-d09-49-n800
 OpenBabel11261919343D

 22 20  0  0  0  0  0  0  0  0999 V2000
   -1.7159    0.0433    0.0684 C   0  0  0  0  0  0  0  0  0  0  0  0
   -3.0866   -0.0525    0.1576 N   0  0  0  0  0  0  0  0  0  0  0  0
   -4.2061   -0.0693    0.2326 N   0  0  0  0  0  0  0  0  0  0  0  0
   -1.2348    1.3752    0.0790 C   0  0  0  0  0  0  0  0  0  0  0  0
    0.1698    1.3755   -0.0119 C   0  0  0  0  0  0  0  0  0  0  0  0
    0.9570    0.2168   -0.0979 C   0  0  0  0  0  0  0  0  0  0  0  0
    2.2962    0.4051   -0.1757 O   0  0  0  0  0  0  0  0  0  0  0  0
    3.1654   -0.7180   -0.2592 C   0  0  0  0  0  0  0  0  0  0  0  0
    0.3664   -1.0803   -0.1013 C   0  0  0  0  0  0  0  0  0  0  0  0
   -1.0016   -1.1821   -0.0165 C   0  0  0  0  0  0  0  0  0  0  0  0
   -3.7390    4.2416    0.4438 H   0  0  0  0  0  0  0  0  0  0  0  0
    0.7219    2.3164   -0.0173 H   0  0  0  0  0  0  0  0  0  0  0  0
    4.1757   -0.3096   -0.3036 H   0  0  0  0  0  0  0  0  0  0  0  0
    2.9767   -1.3093   -1.1637 H   0  0  0  0  0  0  0  0  0  0  0  0
    3.0766   -1.3640    0.6229 H   0  0  0  0  0  0  0  0  0  0  0  0
    0.9724   -1.9750   -0.1684 H   0  0  0  0  0  0  0  0  0  0  0  0
   -1.4995   -2.1489   -0.0155 H   0  0  0  0  0  0  0  0  0  0  0  0
   -5.9285    2.9852    0.2838 B   0  0  0  0  0  0  0  0  0  0  0  0
   -5.1032    2.5539   -0.6711 F   0  0  0  0  0  0  0  0  0  0  0  0
   -4.5317    4.5374    0.8331 F   0  0  0  0  0  0  0  0  0  0  0  0
   -6.9162    3.8052   -0.0308 F   0  0  0  0  0  0  0  0  0  0  0  0
   -5.9188    2.3730    1.4580 F   0  0  0  0  0  0  0  0  0  0  0  0
  1  4  1  0  0  0  0
  1  2  1  0  0  0  0
  2  3  1  0  0  0  0
  5  4  2  0  0  0  0
  6  5  1  0  0  0  0
  7  6  1  0  0  0  0
  8  7  1  0  0  0  0
  8 15  1  0  0  0  0
  9  6  2  0  0  0  0
  9 10  1  0  0  0  0
 10 17  1  0  0  0  0
 10  1  2  0  0  0  0
 11 20  1  0  0  0  0
 12  5  1  0  0  0  0
 13  8  1  0  0  0  0
 14  8  1  0  0  0  0
 16  9  1  0  0  0  0
 18 22  1  0  0  0  0
 19 18  1  0  0  0  0
 21 18  1  0  0  0  0
M  RAD  3   2   2   3   3   4   2
M  END
