Coordinates from ORCA-job 4-MeOPhN2+~BF4-_B3LYPG-6-31G_dp-CH-Scan-d09-49-n800
 OpenBabel11261919343D

 22 20  0  0  0  0  0  0  0  0999 V2000
   -1.7794    0.0286    0.0375 C   0  0  0  0  0  0  0  0  0  0  0  0
   -3.1480   -0.0963    0.1041 N   0  0  0  0  0  0  0  0  0  0  0  0
   -4.2675   -0.1421    0.1606 N   0  0  0  0  0  0  0  0  0  0  0  0
   -1.3183    1.3682    0.0597 C   0  0  0  0  0  0  0  0  0  0  0  0
    0.0861    1.3949   -0.0093 C   0  0  0  0  0  0  0  0  0  0  0  0
    0.8953    0.2503   -0.0867 C   0  0  0  0  0  0  0  0  0  0  0  0
    2.2310    0.4631   -0.1432 O   0  0  0  0  0  0  0  0  0  0  0  0
    3.1222   -0.6438   -0.2173 C   0  0  0  0  0  0  0  0  0  0  0  0
    0.3274   -1.0563   -0.1030 C   0  0  0  0  0  0  0  0  0  0  0  0
   -1.0398   -1.1821   -0.0399 C   0  0  0  0  0  0  0  0  0  0  0  0
   -3.4971    3.9961    0.3752 H   0  0  0  0  0  0  0  0  0  0  0  0
    0.6206    2.3455   -0.0031 H   0  0  0  0  0  0  0  0  0  0  0  0
    4.1251   -0.2164   -0.2462 H   0  0  0  0  0  0  0  0  0  0  0  0
    2.9568   -1.2353   -1.1261 H   0  0  0  0  0  0  0  0  0  0  0  0
    3.0326   -1.2935    0.6618 H   0  0  0  0  0  0  0  0  0  0  0  0
    0.9495   -1.9402   -0.1632 H   0  0  0  0  0  0  0  0  0  0  0  0
   -1.5201   -2.1576   -0.0496 H   0  0  0  0  0  0  0  0  0  0  0  0
   -5.8252    2.9877    0.3346 B   0  0  0  0  0  0  0  0  0  0  0  0
   -5.1979    2.4637   -0.7186 F   0  0  0  0  0  0  0  0  0  0  0  0
   -4.2782    4.4174    0.6609 F   0  0  0  0  0  0  0  0  0  0  0  0
   -6.7819    3.8810    0.1479 F   0  0  0  0  0  0  0  0  0  0  0  0
   -5.6970    2.3869    1.5104 F   0  0  0  0  0  0  0  0  0  0  0  0
  1  4  1  0  0  0  0
  1  2  1  0  0  0  0
  2  3  1  0  0  0  0
  5 12  1  0  0  0  0
  5  4  2  0  0  0  0
  6  5  1  0  0  0  0
  7  6  1  0  0  0  0
  8  7  1  0  0  0  0
  8 15  1  0  0  0  0
  9  6  2  0  0  0  0
  9 10  1  0  0  0  0
 10  1  2  0  0  0  0
 11 20  1  0  0  0  0
 13  8  1  0  0  0  0
 14  8  1  0  0  0  0
 16  9  1  0  0  0  0
 17 10  1  0  0  0  0
 18 22  1  0  0  0  0
 19 18  1  0  0  0  0
 21 18  1  0  0  0  0
M  RAD  3   2   2   3   3   4   2
M  END
