Coordinates from ORCA-job 4-MeOPhN2+~BF4-_B3LYPG-6-31G_dp-CH-Scan-d09-49-n800
 OpenBabel11261919343D

 22 20  0  0  0  0  0  0  0  0999 V2000
   -2.1381    0.1122    0.2291 C   0  0  0  0  0  0  0  0  0  0  0  0
   -3.4853   -0.1106    0.3571 N   0  0  0  0  0  0  0  0  0  0  0  0
   -4.5815   -0.2812    0.4829 N   0  0  0  0  0  0  0  0  0  0  0  0
   -1.6562    1.4370    0.3479 C   0  0  0  0  0  0  0  0  0  0  0  0
   -0.2833    1.5735    0.2292 C   0  0  0  0  0  0  0  0  0  0  0  0
    0.5642    0.4697    0.0027 C   0  0  0  0  0  0  0  0  0  0  0  0
    1.8738    0.7501   -0.0932 O   0  0  0  0  0  0  0  0  0  0  0  0
    2.8109   -0.3027   -0.3244 C   0  0  0  0  0  0  0  0  0  0  0  0
    0.0327   -0.8384   -0.1112 C   0  0  0  0  0  0  0  0  0  0  0  0
   -1.3287   -1.0236    0.0038 C   0  0  0  0  0  0  0  0  0  0  0  0
   -2.5795    2.5540    0.5304 H   0  0  0  0  0  0  0  0  0  0  0  0
    0.1828    2.5512    0.3034 H   0  0  0  0  0  0  0  0  0  0  0  0
    3.7886    0.1769   -0.3567 H   0  0  0  0  0  0  0  0  0  0  0  0
    2.6188   -0.8022   -1.2805 H   0  0  0  0  0  0  0  0  0  0  0  0
    2.7914   -1.0370    0.4891 H   0  0  0  0  0  0  0  0  0  0  0  0
    0.6742   -1.6922   -0.2859 H   0  0  0  0  0  0  0  0  0  0  0  0
   -1.7669   -2.0132   -0.0778 H   0  0  0  0  0  0  0  0  0  0  0  0
   -4.7783    2.8941    0.1133 B   0  0  0  0  0  0  0  0  0  0  0  0
   -4.4124    2.1066   -0.9788 F   0  0  0  0  0  0  0  0  0  0  0  0
   -3.4774    3.4663    0.6298 F   0  0  0  0  0  0  0  0  0  0  0  0
   -5.5880    3.9394   -0.2043 F   0  0  0  0  0  0  0  0  0  0  0  0
   -5.2656    2.0898    1.1404 F   0  0  0  0  0  0  0  0  0  0  0  0
  1  4  1  0  0  0  0
  1  2  1  0  0  0  0
  2  3  1  0  0  0  0
  5 12  1  0  0  0  0
  5  4  2  0  0  0  0
  6  5  1  0  0  0  0
  7  6  1  0  0  0  0
  8  7  1  0  0  0  0
  8 15  1  0  0  0  0
  9  6  2  0  0  0  0
  9 10  1  0  0  0  0
 10  1  2  0  0  0  0
 11 20  1  0  0  0  0
 13  8  1  0  0  0  0
 14  8  1  0  0  0  0
 16  9  1  0  0  0  0
 17 10  1  0  0  0  0
 18 22  1  0  0  0  0
 19 18  1  0  0  0  0
 21 18  1  0  0  0  0
M  RAD  3   2   2   3   3   4   2
M  END
