Coordinates from ORCA-job 4-MeOPhN2+~BF4-_B3LYPG-6-31G_dp-CH-Scan-d09-49-n800
 OpenBabel11261919343D

 22 20  0  0  0  0  0  0  0  0999 V2000
   -1.7660    0.0325    0.0329 C   0  0  0  0  0  0  0  0  0  0  0  0
   -3.1354   -0.0862    0.0985 N   0  0  0  0  0  0  0  0  0  0  0  0
   -4.2552   -0.1262    0.1551 N   0  0  0  0  0  0  0  0  0  0  0  0
   -1.3006    1.3705    0.0503 C   0  0  0  0  0  0  0  0  0  0  0  0
    0.1042    1.3913   -0.0179 C   0  0  0  0  0  0  0  0  0  0  0  0
    0.9090    0.2433   -0.0903 C   0  0  0  0  0  0  0  0  0  0  0  0
    2.2458    0.4507   -0.1469 O   0  0  0  0  0  0  0  0  0  0  0  0
    3.1325   -0.6601   -0.2162 C   0  0  0  0  0  0  0  0  0  0  0  0
    0.3362   -1.0613   -0.1019 C   0  0  0  0  0  0  0  0  0  0  0  0
   -1.0314   -1.1817   -0.0392 C   0  0  0  0  0  0  0  0  0  0  0  0
   -3.5404    4.0446    0.3745 H   0  0  0  0  0  0  0  0  0  0  0  0
    0.6425    2.3398   -0.0152 H   0  0  0  0  0  0  0  0  0  0  0  0
    4.1371   -0.2369   -0.2463 H   0  0  0  0  0  0  0  0  0  0  0  0
    2.9652   -1.2546   -1.1227 H   0  0  0  0  0  0  0  0  0  0  0  0
    3.0398   -1.3060    0.6654 H   0  0  0  0  0  0  0  0  0  0  0  0
    0.9550   -1.9478   -0.1581 H   0  0  0  0  0  0  0  0  0  0  0  0
   -1.5156   -2.1554   -0.0454 H   0  0  0  0  0  0  0  0  0  0  0  0
   -5.8523    2.9873    0.3386 B   0  0  0  0  0  0  0  0  0  0  0  0
   -5.2078    2.4819   -0.7132 F   0  0  0  0  0  0  0  0  0  0  0  0
   -4.3245    4.4437    0.6819 F   0  0  0  0  0  0  0  0  0  0  0  0
   -6.8207    3.8675    0.1508 F   0  0  0  0  0  0  0  0  0  0  0  0
   -5.7212    2.3829    1.5118 F   0  0  0  0  0  0  0  0  0  0  0  0
  1  4  1  0  0  0  0
  1  2  1  0  0  0  0
  2  3  1  0  0  0  0
  5 12  1  0  0  0  0
  5  4  2  0  0  0  0
  6  5  1  0  0  0  0
  7  6  1  0  0  0  0
  8  7  1  0  0  0  0
  8 15  1  0  0  0  0
  9  6  2  0  0  0  0
  9 10  1  0  0  0  0
 10  1  2  0  0  0  0
 11 20  1  0  0  0  0
 13  8  1  0  0  0  0
 14  8  1  0  0  0  0
 16  9  1  0  0  0  0
 17 10  1  0  0  0  0
 18 22  1  0  0  0  0
 19 18  1  0  0  0  0
 21 18  1  0  0  0  0
M  RAD  3   2   2   3   3   4   2
M  END
