Coordinates from ORCA-job 4-MeOPhN2+~BF4-_B3LYPG-6-31G_dp-CH-Scan-d09-49-n800
 OpenBabel11261919343D

 22 20  0  0  0  0  0  0  0  0999 V2000
   -1.6231    0.0842    0.0574 C   0  0  0  0  0  0  0  0  0  0  0  0
   -2.9967    0.0390    0.1514 N   0  0  0  0  0  0  0  0  0  0  0  0
   -4.1161    0.0694    0.2294 N   0  0  0  0  0  0  0  0  0  0  0  0
   -1.1025    1.4003    0.0435 C   0  0  0  0  0  0  0  0  0  0  0  0
    0.3019    1.3543   -0.0519 C   0  0  0  0  0  0  0  0  0  0  0  0
    1.0511    0.1698   -0.1198 C   0  0  0  0  0  0  0  0  0  0  0  0
    2.3960    0.3133   -0.2056 O   0  0  0  0  0  0  0  0  0  0  0  0
    3.2279   -0.8387   -0.2715 C   0  0  0  0  0  0  0  0  0  0  0  0
    0.4198   -1.1085   -0.0982 C   0  0  0  0  0  0  0  0  0  0  0  0
   -0.9503   -1.1658   -0.0076 C   0  0  0  0  0  0  0  0  0  0  0  0
   -4.1284    4.5402    0.4990 H   0  0  0  0  0  0  0  0  0  0  0  0
    0.8835    2.2770   -0.0759 H   0  0  0  0  0  0  0  0  0  0  0  0
    4.2508   -0.4642   -0.3270 H   0  0  0  0  0  0  0  0  0  0  0  0
    3.0166   -1.4402   -1.1642 H   0  0  0  0  0  0  0  0  0  0  0  0
    3.1219   -1.4653    0.6226 H   0  0  0  0  0  0  0  0  0  0  0  0
    0.9977   -2.0226   -0.1511 H   0  0  0  0  0  0  0  0  0  0  0  0
   -1.4788   -2.1162    0.0124 H   0  0  0  0  0  0  0  0  0  0  0  0
   -6.0663    2.9762    0.2859 B   0  0  0  0  0  0  0  0  0  0  0  0
   -5.0894    2.7007   -0.5804 F   0  0  0  0  0  0  0  0  0  0  0  0
   -4.9137    4.7071    0.9703 F   0  0  0  0  0  0  0  0  0  0  0  0
   -7.1200    3.6603   -0.1223 F   0  0  0  0  0  0  0  0  0  0  0  0
   -6.0856    2.3493    1.4500 F   0  0  0  0  0  0  0  0  0  0  0  0
  1  2  1  0  0  0  0
  2  3  1  0  0  0  0
  4  1  1  0  0  0  0
  5  4  2  0  0  0  0
  6  9  2  0  0  0  0
  6  5  1  0  0  0  0
  7  6  1  0  0  0  0
  8  7  1  0  0  0  0
  8 15  1  0  0  0  0
  9 10  1  0  0  0  0
 10 17  1  0  0  0  0
 10  1  2  0  0  0  0
 11 20  1  0  0  0  0
 12  5  1  0  0  0  0
 13  8  1  0  0  0  0
 14  8  1  0  0  0  0
 16  9  1  0  0  0  0
 18 22  1  0  0  0  0
 19 18  1  0  0  0  0
 21 18  1  0  0  0  0
M  RAD  3   2   2   3   3   4   2
M  END
