Coordinates from ORCA-job 4-MeOPhN2+~BF4-_B3LYPG-6-31G_dp-CH-Scan-d09-49-n800
 OpenBabel11261919343D

 22 20  0  0  0  0  0  0  0  0999 V2000
   -1.9979    0.0527    0.0956 C   0  0  0  0  0  0  0  0  0  0  0  0
   -3.3545   -0.1485    0.1620 N   0  0  0  0  0  0  0  0  0  0  0  0
   -4.4648   -0.2812    0.2189 N   0  0  0  0  0  0  0  0  0  0  0  0
   -1.5633    1.4012    0.1550 C   0  0  0  0  0  0  0  0  0  0  0  0
   -0.1695    1.4948    0.0800 C   0  0  0  0  0  0  0  0  0  0  0  0
    0.6829    0.3828   -0.0392 C   0  0  0  0  0  0  0  0  0  0  0  0
    2.0037    0.6515   -0.0990 O   0  0  0  0  0  0  0  0  0  0  0  0
    2.9403   -0.4156   -0.2197 C   0  0  0  0  0  0  0  0  0  0  0  0
    0.1608   -0.9384   -0.0909 C   0  0  0  0  0  0  0  0  0  0  0  0
   -1.2014   -1.1155   -0.0230 C   0  0  0  0  0  0  0  0  0  0  0  0
   -2.9342    3.0964    0.3233 H   0  0  0  0  0  0  0  0  0  0  0  0
    0.3208    2.4662    0.1127 H   0  0  0  0  0  0  0  0  0  0  0  0
    3.9231    0.0552   -0.2457 H   0  0  0  0  0  0  0  0  0  0  0  0
    2.7862   -0.9818   -1.1459 H   0  0  0  0  0  0  0  0  0  0  0  0
    2.8871   -1.0950    0.6394 H   0  0  0  0  0  0  0  0  0  0  0  0
    0.8114   -1.7986   -0.1813 H   0  0  0  0  0  0  0  0  0  0  0  0
   -1.6429   -2.1077   -0.0592 H   0  0  0  0  0  0  0  0  0  0  0  0
   -5.2545    2.9633    0.2784 B   0  0  0  0  0  0  0  0  0  0  0  0
   -5.0843    2.3034   -0.8849 F   0  0  0  0  0  0  0  0  0  0  0  0
   -3.6226    3.7731    0.3918 F   0  0  0  0  0  0  0  0  0  0  0  0
   -6.0279    4.0508    0.2830 F   0  0  0  0  0  0  0  0  0  0  0  0
   -5.2024    2.2106    1.3952 F   0  0  0  0  0  0  0  0  0  0  0  0
  1  4  1  0  0  0  0
  1  2  1  0  0  0  0
  2  3  1  0  0  0  0
  5 12  1  0  0  0  0
  5  4  2  0  0  0  0
  6  5  1  0  0  0  0
  7  6  1  0  0  0  0
  8  7  1  0  0  0  0
  8 15  1  0  0  0  0
  9  6  2  0  0  0  0
  9 10  1  0  0  0  0
 10  1  2  0  0  0  0
 11 20  1  0  0  0  0
 13  8  1  0  0  0  0
 14  8  1  0  0  0  0
 16  9  1  0  0  0  0
 17 10  1  0  0  0  0
 18 21  1  0  0  0  0
 18 22  1  0  0  0  0
 19 18  1  0  0  0  0
M  RAD  3   2   2   3   3   4   2
M  END
