Coordinates from ORCA-job 4-MeOPhN2+~BF4-_B3LYPG-6-31G_dp-CH-Scan-d09-49-n800
 OpenBabel11261919343D

 22 21  0  0  0  0  0  0  0  0999 V2000
   -2.1437    0.1235    0.2445 C   0  0  0  0  0  0  0  0  0  0  0  0
   -3.4903   -0.0947    0.3847 N   0  0  0  0  0  0  0  0  0  0  0  0
   -4.5844   -0.2657    0.5259 N   0  0  0  0  0  0  0  0  0  0  0  0
   -1.6477    1.4413    0.3725 C   0  0  0  0  0  0  0  0  0  0  0  0
   -0.2777    1.5802    0.2487 C   0  0  0  0  0  0  0  0  0  0  0  0
    0.5633    0.4744    0.0054 C   0  0  0  0  0  0  0  0  0  0  0  0
    1.8726    0.7506   -0.0940 O   0  0  0  0  0  0  0  0  0  0  0  0
    2.8049   -0.3036   -0.3406 C   0  0  0  0  0  0  0  0  0  0  0  0
    0.0242   -0.8288   -0.1196 C   0  0  0  0  0  0  0  0  0  0  0  0
   -1.3380   -1.0100    0.0023 C   0  0  0  0  0  0  0  0  0  0  0  0
   -2.5364    2.5192    0.5682 H   0  0  0  0  0  0  0  0  0  0  0  0
    0.1886    2.5567    0.3310 H   0  0  0  0  0  0  0  0  0  0  0  0
    3.7843    0.1727   -0.3709 H   0  0  0  0  0  0  0  0  0  0  0  0
    2.6070   -0.7909   -1.3017 H   0  0  0  0  0  0  0  0  0  0  0  0
    2.7849   -1.0466    0.4648 H   0  0  0  0  0  0  0  0  0  0  0  0
    0.6603   -1.6836   -0.3081 H   0  0  0  0  0  0  0  0  0  0  0  0
   -1.7800   -1.9970   -0.0873 H   0  0  0  0  0  0  0  0  0  0  0  0
   -4.7590    2.8867    0.0993 B   0  0  0  0  0  0  0  0  0  0  0  0
   -4.3287    2.0859   -0.9680 F   0  0  0  0  0  0  0  0  0  0  0  0
   -3.5196    3.4704    0.6794 F   0  0  0  0  0  0  0  0  0  0  0  0
   -5.5778    3.9057   -0.2853 F   0  0  0  0  0  0  0  0  0  0  0  0
   -5.3105    2.0735    1.0953 F   0  0  0  0  0  0  0  0  0  0  0  0
  1  4  2  0  0  0  0
  1  2  1  0  0  0  0
  2  3  1  0  0  0  0
  4 11  1  0  0  0  0
  5 12  1  0  0  0  0
  5  4  1  0  0  0  0
  6  5  2  0  0  0  0
  7  6  1  0  0  0  0
  8  7  1  0  0  0  0
  8 15  1  0  0  0  0
  9 10  2  0  0  0  0
  9  6  1  0  0  0  0
 10  1  1  0  0  0  0
 13  8  1  0  0  0  0
 14  8  1  0  0  0  0
 16  9  1  0  0  0  0
 17 10  1  0  0  0  0
 18 20  1  0  0  0  0
 18 22  1  0  0  0  0
 19 18  1  0  0  0  0
 21 18  1  0  0  0  0
M  RAD  2   2   2   3   3
M  END
