Coordinates from ORCA-job 4-MeOPhN2+~BF4-_B3LYPG-6-31G_dp-CH-Scan-d09-49-n800
 OpenBabel11261919343D

 22 20  0  0  0  0  0  0  0  0999 V2000
   -1.9120    0.0444    0.0824 C   0  0  0  0  0  0  0  0  0  0  0  0
   -3.2735   -0.1273    0.1484 N   0  0  0  0  0  0  0  0  0  0  0  0
   -4.3880   -0.2290    0.2075 N   0  0  0  0  0  0  0  0  0  0  0  0
   -1.4675    1.3892    0.1460 C   0  0  0  0  0  0  0  0  0  0  0  0
   -0.0687    1.4561    0.0742 C   0  0  0  0  0  0  0  0  0  0  0  0
    0.7661    0.3320   -0.0446 C   0  0  0  0  0  0  0  0  0  0  0  0
    2.0935    0.5783   -0.0994 O   0  0  0  0  0  0  0  0  0  0  0  0
    3.0113   -0.5040   -0.2185 C   0  0  0  0  0  0  0  0  0  0  0  0
    0.2254   -0.9832   -0.1019 C   0  0  0  0  0  0  0  0  0  0  0  0
   -1.1388   -1.1406   -0.0377 C   0  0  0  0  0  0  0  0  0  0  0  0
   -3.1167    3.4382    0.3358 H   0  0  0  0  0  0  0  0  0  0  0  0
    0.4405    2.4186    0.1100 H   0  0  0  0  0  0  0  0  0  0  0  0
    4.0028   -0.0510   -0.2381 H   0  0  0  0  0  0  0  0  0  0  0  0
    2.8530   -1.0655   -1.1471 H   0  0  0  0  0  0  0  0  0  0  0  0
    2.9426   -1.1858    0.6377 H   0  0  0  0  0  0  0  0  0  0  0  0
    0.8647   -1.8519   -0.1935 H   0  0  0  0  0  0  0  0  0  0  0  0
   -1.5961   -2.1258   -0.0779 H   0  0  0  0  0  0  0  0  0  0  0  0
   -5.5065    2.9686    0.2978 B   0  0  0  0  0  0  0  0  0  0  0  0
   -5.2250    2.3537   -0.8565 F   0  0  0  0  0  0  0  0  0  0  0  0
   -3.8462    4.0340    0.3981 F   0  0  0  0  0  0  0  0  0  0  0  0
   -6.3464    3.9962    0.2987 F   0  0  0  0  0  0  0  0  0  0  0  0
   -5.3184    2.2747    1.4250 F   0  0  0  0  0  0  0  0  0  0  0  0
  1  4  1  0  0  0  0
  1  2  1  0  0  0  0
  2  3  1  0  0  0  0
  5 12  1  0  0  0  0
  5  4  2  0  0  0  0
  6  5  1  0  0  0  0
  7  6  1  0  0  0  0
  8  7  1  0  0  0  0
  8 15  1  0  0  0  0
  9  6  2  0  0  0  0
  9 10  1  0  0  0  0
 10  1  2  0  0  0  0
 11 20  1  0  0  0  0
 13  8  1  0  0  0  0
 14  8  1  0  0  0  0
 16  9  1  0  0  0  0
 17 10  1  0  0  0  0
 18 21  1  0  0  0  0
 18 22  1  0  0  0  0
 19 18  1  0  0  0  0
M  RAD  3   2   2   3   3   4   2
M  END
