Coordinates from ORCA-job 4-MeOPhN2+~BF4-_B3LYPG-6-31G_dp-CH-Scan-d09-49-n800
 OpenBabel11261919343D

 22 21  0  0  0  0  0  0  0  0999 V2000
   -2.1469    0.1613    0.3286 C   0  0  0  0  0  0  0  0  0  0  0  0
   -3.4936   -0.0380    0.4970 N   0  0  0  0  0  0  0  0  0  0  0  0
   -4.5833   -0.2140    0.6661 N   0  0  0  0  0  0  0  0  0  0  0  0
   -1.6135    1.4602    0.4794 C   0  0  0  0  0  0  0  0  0  0  0  0
   -0.2504    1.5981    0.3270 C   0  0  0  0  0  0  0  0  0  0  0  0
    0.5663    0.4876    0.0229 C   0  0  0  0  0  0  0  0  0  0  0  0
    1.8740    0.7514   -0.1089 O   0  0  0  0  0  0  0  0  0  0  0  0
    2.7837   -0.3055   -0.4244 C   0  0  0  0  0  0  0  0  0  0  0  0
    0.0030   -0.8010   -0.1232 C   0  0  0  0  0  0  0  0  0  0  0  0
   -1.3593   -0.9686    0.0340 C   0  0  0  0  0  0  0  0  0  0  0  0
   -2.3984    2.4234    0.7193 H   0  0  0  0  0  0  0  0  0  0  0  0
    0.2234    2.5683    0.4282 H   0  0  0  0  0  0  0  0  0  0  0  0
    3.7669    0.1607   -0.4748 H   0  0  0  0  0  0  0  0  0  0  0  0
    2.5437   -0.7569   -1.3931 H   0  0  0  0  0  0  0  0  0  0  0  0
    2.7827   -1.0742    0.3565 H   0  0  0  0  0  0  0  0  0  0  0  0
    0.6198   -1.6587   -0.3566 H   0  0  0  0  0  0  0  0  0  0  0  0
   -1.8161   -1.9467   -0.0730 H   0  0  0  0  0  0  0  0  0  0  0  0
   -4.7326    2.8544    0.0280 B   0  0  0  0  0  0  0  0  0  0  0  0
   -4.0550    2.0633   -0.9339 F   0  0  0  0  0  0  0  0  0  0  0  0
   -3.7203    3.4043    0.8951 F   0  0  0  0  0  0  0  0  0  0  0  0
   -5.4600    3.8555   -0.5563 F   0  0  0  0  0  0  0  0  0  0  0  0
   -5.5379    1.9946    0.8087 F   0  0  0  0  0  0  0  0  0  0  0  0
  1  4  1  0  0  0  0
  1  2  1  0  0  0  0
  2  3  1  0  0  0  0
  4 11  1  0  0  0  0
  5 12  1  0  0  0  0
  5  4  2  0  0  0  0
  6  5  1  0  0  0  0
  7  6  1  0  0  0  0
  8  7  1  0  0  0  0
  8 15  1  0  0  0  0
  9  6  2  0  0  0  0
  9 10  1  0  0  0  0
 10  1  2  0  0  0  0
 13  8  1  0  0  0  0
 14  8  1  0  0  0  0
 16  9  1  0  0  0  0
 17 10  1  0  0  0  0
 18 22  1  0  0  0  0
 18 20  1  0  0  0  0
 19 18  1  0  0  0  0
 21 18  1  0  0  0  0
M  RAD  2   2   2   3   3
M  END
