Coordinates from ORCA-job 4-MeOPhN2+~BF4-_B3LYPG-6-31G_dp-CH-Scan-d09-49-n800
 OpenBabel11261919343D

 22 20  0  0  0  0  0  0  0  0999 V2000
   -1.8910    0.0442    0.0740 C   0  0  0  0  0  0  0  0  0  0  0  0
   -3.2541   -0.1184    0.1362 N   0  0  0  0  0  0  0  0  0  0  0  0
   -4.3701   -0.2079    0.1914 N   0  0  0  0  0  0  0  0  0  0  0  0
   -1.4429    1.3877    0.1349 C   0  0  0  0  0  0  0  0  0  0  0  0
   -0.0430    1.4475    0.0663 C   0  0  0  0  0  0  0  0  0  0  0  0
    0.7871    0.3196   -0.0474 C   0  0  0  0  0  0  0  0  0  0  0  0
    2.1161    0.5598   -0.1000 O   0  0  0  0  0  0  0  0  0  0  0  0
    3.0291   -0.5269   -0.2144 C   0  0  0  0  0  0  0  0  0  0  0  0
    0.2411   -0.9939   -0.1020 C   0  0  0  0  0  0  0  0  0  0  0  0
   -1.1238   -1.1454   -0.0407 C   0  0  0  0  0  0  0  0  0  0  0  0
   -3.1662    3.5180    0.3340 H   0  0  0  0  0  0  0  0  0  0  0  0
    0.4709    2.4078    0.1005 H   0  0  0  0  0  0  0  0  0  0  0  0
    4.0227   -0.0785   -0.2337 H   0  0  0  0  0  0  0  0  0  0  0  0
    2.8700   -1.0906   -1.1415 H   0  0  0  0  0  0  0  0  0  0  0  0
    2.9560   -1.2060    0.6437 H   0  0  0  0  0  0  0  0  0  0  0  0
    0.8772   -1.8653   -0.1893 H   0  0  0  0  0  0  0  0  0  0  0  0
   -1.5854   -2.1288   -0.0790 H   0  0  0  0  0  0  0  0  0  0  0  0
   -5.5635    2.9684    0.3097 B   0  0  0  0  0  0  0  0  0  0  0  0
   -5.2680    2.3687   -0.8472 F   0  0  0  0  0  0  0  0  0  0  0  0
   -3.9065    4.0953    0.3961 F   0  0  0  0  0  0  0  0  0  0  0  0
   -6.4233    3.9778    0.3197 F   0  0  0  0  0  0  0  0  0  0  0  0
   -5.3363    2.2866    1.4351 F   0  0  0  0  0  0  0  0  0  0  0  0
  1  4  1  0  0  0  0
  1  2  1  0  0  0  0
  2  3  1  0  0  0  0
  5 12  1  0  0  0  0
  5  4  2  0  0  0  0
  6  5  1  0  0  0  0
  7  6  1  0  0  0  0
  8  7  1  0  0  0  0
  8 15  1  0  0  0  0
  9  6  2  0  0  0  0
  9 10  1  0  0  0  0
 10  1  2  0  0  0  0
 11 20  1  0  0  0  0
 13  8  1  0  0  0  0
 14  8  1  0  0  0  0
 16  9  1  0  0  0  0
 17 10  1  0  0  0  0
 18 21  1  0  0  0  0
 18 22  1  0  0  0  0
 19 18  1  0  0  0  0
M  RAD  3   2   2   3   3   4   2
M  END
