Coordinates from ORCA-job 4-MeOPhN2+~BF4-_B3LYPG-6-31G_dp-CH-Scan-d09-49-n800
 OpenBabel11261919343D

 22 21  0  0  0  0  0  0  0  0999 V2000
   -2.1484    0.1428    0.2684 C   0  0  0  0  0  0  0  0  0  0  0  0
   -3.4944   -0.0689    0.4233 N   0  0  0  0  0  0  0  0  0  0  0  0
   -4.5858   -0.2433    0.5802 N   0  0  0  0  0  0  0  0  0  0  0  0
   -1.6330    1.4511    0.4078 C   0  0  0  0  0  0  0  0  0  0  0  0
   -0.2660    1.5897    0.2770 C   0  0  0  0  0  0  0  0  0  0  0  0
    0.5646    0.4804    0.0104 C   0  0  0  0  0  0  0  0  0  0  0  0
    1.8740    0.7493   -0.0958 O   0  0  0  0  0  0  0  0  0  0  0  0
    2.7969   -0.3079   -0.3668 C   0  0  0  0  0  0  0  0  0  0  0  0
    0.0134   -0.8152   -0.1285 C   0  0  0  0  0  0  0  0  0  0  0  0
   -1.3497   -0.9888    0.0042 C   0  0  0  0  0  0  0  0  0  0  0  0
   -2.4697    2.4772    0.6179 H   0  0  0  0  0  0  0  0  0  0  0  0
    0.2030    2.5634    0.3698 H   0  0  0  0  0  0  0  0  0  0  0  0
    3.7793    0.1619   -0.3962 H   0  0  0  0  0  0  0  0  0  0  0  0
    2.5878   -0.7769   -1.3345 H   0  0  0  0  0  0  0  0  0  0  0  0
    2.7766   -1.0638    0.4263 H   0  0  0  0  0  0  0  0  0  0  0  0
    0.6407   -1.6721   -0.3361 H   0  0  0  0  0  0  0  0  0  0  0  0
   -1.7988   -1.9714   -0.0955 H   0  0  0  0  0  0  0  0  0  0  0  0
   -4.7431    2.8737    0.0811 B   0  0  0  0  0  0  0  0  0  0  0  0
   -4.2084    2.0676   -0.9459 F   0  0  0  0  0  0  0  0  0  0  0  0
   -3.5984    3.4763    0.7594 F   0  0  0  0  0  0  0  0  0  0  0  0
   -5.5635    3.8556   -0.3970 F   0  0  0  0  0  0  0  0  0  0  0  0
   -5.3811    2.0388    1.0169 F   0  0  0  0  0  0  0  0  0  0  0  0
  1  4  2  0  0  0  0
  1  2  1  0  0  0  0
  2  3  1  0  0  0  0
  4 11  1  0  0  0  0
  5 12  1  0  0  0  0
  5  4  1  0  0  0  0
  6  5  2  0  0  0  0
  7  6  1  0  0  0  0
  8  7  1  0  0  0  0
  8 15  1  0  0  0  0
  9 10  2  0  0  0  0
  9  6  1  0  0  0  0
 10  1  1  0  0  0  0
 13  8  1  0  0  0  0
 14  8  1  0  0  0  0
 16  9  1  0  0  0  0
 17 10  1  0  0  0  0
 18 20  1  0  0  0  0
 18 22  1  0  0  0  0
 19 18  1  0  0  0  0
 21 18  1  0  0  0  0
M  RAD  2   2   2   3   3
M  END
