Coordinates from ORCA-job 4-MeOPhN2+~BF4-_B3LYPG-6-31G_dp-CH-Scan-d09-49-n800
 OpenBabel11261919343D

 22 20  0  0  0  0  0  0  0  0999 V2000
   -2.0847    0.0754    0.0231 C   0  0  0  0  0  0  0  0  0  0  0  0
   -3.4386   -0.1487    0.0569 N   0  0  0  0  0  0  0  0  0  0  0  0
   -4.5450   -0.3083    0.0822 N   0  0  0  0  0  0  0  0  0  0  0  0
   -1.6501    1.4246    0.0490 C   0  0  0  0  0  0  0  0  0  0  0  0
   -0.2610    1.5388    0.0075 C   0  0  0  0  0  0  0  0  0  0  0  0
    0.6060    0.4316   -0.0518 C   0  0  0  0  0  0  0  0  0  0  0  0
    1.9223    0.7144   -0.0852 O   0  0  0  0  0  0  0  0  0  0  0  0
    2.8748   -0.3454   -0.1434 C   0  0  0  0  0  0  0  0  0  0  0  0
    0.0956   -0.8927   -0.0732 C   0  0  0  0  0  0  0  0  0  0  0  0
   -1.2673   -1.0805   -0.0357 C   0  0  0  0  0  0  0  0  0  0  0  0
   -2.7714    2.8114    0.1474 H   0  0  0  0  0  0  0  0  0  0  0  0
    0.2117    2.5182    0.0218 H   0  0  0  0  0  0  0  0  0  0  0  0
    3.8519    0.1371   -0.1595 H   0  0  0  0  0  0  0  0  0  0  0  0
    2.7511   -0.9440   -1.0533 H   0  0  0  0  0  0  0  0  0  0  0  0
    2.8050   -0.9939    0.7376 H   0  0  0  0  0  0  0  0  0  0  0  0
    0.7542   -1.7503   -0.1177 H   0  0  0  0  0  0  0  0  0  0  0  0
   -1.6973   -2.0777   -0.0507 H   0  0  0  0  0  0  0  0  0  0  0  0
   -4.9825    2.9334    0.3747 B   0  0  0  0  0  0  0  0  0  0  0  0
   -5.1296    2.2551   -0.8014 F   0  0  0  0  0  0  0  0  0  0  0  0
   -3.4631    3.5794    0.2179 F   0  0  0  0  0  0  0  0  0  0  0  0
   -5.7504    4.0257    0.5413 F   0  0  0  0  0  0  0  0  0  0  0  0
   -4.8356    2.1163    1.4591 F   0  0  0  0  0  0  0  0  0  0  0  0
  1  4  1  0  0  0  0
  1  2  1  0  0  0  0
  2  3  1  0  0  0  0
  5 12  1  0  0  0  0
  5  4  2  0  0  0  0
  6  5  1  0  0  0  0
  7  6  1  0  0  0  0
  8  7  1  0  0  0  0
  8 15  1  0  0  0  0
  9  6  2  0  0  0  0
  9 10  1  0  0  0  0
 10  1  2  0  0  0  0
 11 20  1  0  0  0  0
 13  8  1  0  0  0  0
 14  8  1  0  0  0  0
 16  9  1  0  0  0  0
 17 10  1  0  0  0  0
 18 21  1  0  0  0  0
 18 22  1  0  0  0  0
 19 18  1  0  0  0  0
M  RAD  3   2   2   3   3   4   2
M  END
