Coordinates from ORCA-job 4-MeOPhN2+~BF4-_B3LYPG-6-31G_dp-CH-Scan-d09-49-n800
 OpenBabel11261919343D

 22 20  0  0  0  0  0  0  0  0999 V2000
   -2.1404    0.1158    0.2335 C   0  0  0  0  0  0  0  0  0  0  0  0
   -3.4874   -0.1053    0.3655 N   0  0  0  0  0  0  0  0  0  0  0  0
   -4.5830   -0.2753    0.4965 N   0  0  0  0  0  0  0  0  0  0  0  0
   -1.6535    1.4382    0.3550 C   0  0  0  0  0  0  0  0  0  0  0  0
   -0.2817    1.5759    0.2348 C   0  0  0  0  0  0  0  0  0  0  0  0
    0.5637    0.4714    0.0033 C   0  0  0  0  0  0  0  0  0  0  0  0
    1.8731    0.7505   -0.0937 O   0  0  0  0  0  0  0  0  0  0  0  0
    2.8089   -0.3028   -0.3292 C   0  0  0  0  0  0  0  0  0  0  0  0
    0.0298   -0.8352   -0.1138 C   0  0  0  0  0  0  0  0  0  0  0  0
   -1.3320   -1.0191    0.0032 C   0  0  0  0  0  0  0  0  0  0  0  0
   -2.5633    2.5396    0.5417 H   0  0  0  0  0  0  0  0  0  0  0  0
    0.1841    2.5534    0.3114 H   0  0  0  0  0  0  0  0  0  0  0  0
    3.7871    0.1759   -0.3609 H   0  0  0  0  0  0  0  0  0  0  0  0
    2.6151   -0.7988   -1.2867 H   0  0  0  0  0  0  0  0  0  0  0  0
    2.7893   -1.0394    0.4821 H   0  0  0  0  0  0  0  0  0  0  0  0
    0.6696   -1.6894   -0.2925 H   0  0  0  0  0  0  0  0  0  0  0  0
   -1.7713   -2.0080   -0.0807 H   0  0  0  0  0  0  0  0  0  0  0  0
   -4.7709    2.8922    0.1094 B   0  0  0  0  0  0  0  0  0  0  0  0
   -4.3849    2.0992   -0.9750 F   0  0  0  0  0  0  0  0  0  0  0  0
   -3.4909    3.4678    0.6458 F   0  0  0  0  0  0  0  0  0  0  0  0
   -5.5854    3.9282   -0.2304 F   0  0  0  0  0  0  0  0  0  0  0  0
   -5.2797    2.0849    1.1271 F   0  0  0  0  0  0  0  0  0  0  0  0
  1  4  2  0  0  0  0
  1  2  1  0  0  0  0
  2  3  1  0  0  0  0
  5 12  1  0  0  0  0
  5  4  1  0  0  0  0
  6  5  2  0  0  0  0
  7  6  1  0  0  0  0
  8  7  1  0  0  0  0
  8 15  1  0  0  0  0
  9 10  2  0  0  0  0
  9  6  1  0  0  0  0
 10  1  1  0  0  0  0
 11 20  1  0  0  0  0
 13  8  1  0  0  0  0
 14  8  1  0  0  0  0
 16  9  1  0  0  0  0
 17 10  1  0  0  0  0
 18 22  1  0  0  0  0
 19 18  1  0  0  0  0
 21 18  1  0  0  0  0
M  RAD  3   2   2   3   3   4   2
M  END
