Coordinates from ORCA-job 4-MeOPhN2+~BF4-_B3LYPG-6-31G_dp-CH-Scan-d09-49-n800
 OpenBabel11261919343D

 22 21  0  0  0  0  0  0  0  0999 V2000
   -2.1476    0.1374    0.2645 C   0  0  0  0  0  0  0  0  0  0  0  0
   -3.4937   -0.0764    0.4162 N   0  0  0  0  0  0  0  0  0  0  0  0
   -4.5856   -0.2500    0.5699 N   0  0  0  0  0  0  0  0  0  0  0  0
   -1.6373    1.4480    0.4031 C   0  0  0  0  0  0  0  0  0  0  0  0
   -0.2697    1.5869    0.2736 C   0  0  0  0  0  0  0  0  0  0  0  0
    0.5636    0.4790    0.0106 C   0  0  0  0  0  0  0  0  0  0  0  0
    1.8729    0.7501   -0.0940 O   0  0  0  0  0  0  0  0  0  0  0  0
    2.7981   -0.3058   -0.3618 C   0  0  0  0  0  0  0  0  0  0  0  0
    0.0156   -0.8184   -0.1269 C   0  0  0  0  0  0  0  0  0  0  0  0
   -1.3472   -0.9942    0.0034 C   0  0  0  0  0  0  0  0  0  0  0  0
   -2.4891    2.4885    0.6107 H   0  0  0  0  0  0  0  0  0  0  0  0
    0.1987    2.5612    0.3651 H   0  0  0  0  0  0  0  0  0  0  0  0
    3.7797    0.1657   -0.3911 H   0  0  0  0  0  0  0  0  0  0  0  0
    2.5911   -0.7774   -1.3287 H   0  0  0  0  0  0  0  0  0  0  0  0
    2.7785   -1.0602    0.4327 H   0  0  0  0  0  0  0  0  0  0  0  0
    0.6451   -1.6743   -0.3317 H   0  0  0  0  0  0  0  0  0  0  0  0
   -1.7944   -1.9778   -0.0954 H   0  0  0  0  0  0  0  0  0  0  0  0
   -4.7447    2.8762    0.0822 B   0  0  0  0  0  0  0  0  0  0  0  0
   -4.2366    2.0682   -0.9532 F   0  0  0  0  0  0  0  0  0  0  0  0
   -3.5745    3.4742    0.7361 F   0  0  0  0  0  0  0  0  0  0  0  0
   -5.5639    3.8681   -0.3745 F   0  0  0  0  0  0  0  0  0  0  0  0
   -5.3629    2.0506    1.0361 F   0  0  0  0  0  0  0  0  0  0  0  0
  1  4  2  0  0  0  0
  1  2  1  0  0  0  0
  2  3  1  0  0  0  0
  4 11  1  0  0  0  0
  5 12  1  0  0  0  0
  5  4  1  0  0  0  0
  6  5  2  0  0  0  0
  7  6  1  0  0  0  0
  8  7  1  0  0  0  0
  8 15  1  0  0  0  0
  9 10  2  0  0  0  0
  9  6  1  0  0  0  0
 10  1  1  0  0  0  0
 13  8  1  0  0  0  0
 14  8  1  0  0  0  0
 16  9  1  0  0  0  0
 17 10  1  0  0  0  0
 18 20  1  0  0  0  0
 18 22  1  0  0  0  0
 19 18  1  0  0  0  0
 21 18  1  0  0  0  0
M  RAD  2   2   2   3   3
M  END
