Coordinates from ORCA-job 4-MeOPhN2+~BF4-_B3LYPG-6-31G_dp-CH-Scan-d09-49-n800
 OpenBabel11261919343D

 22 20  0  0  0  0  0  0  0  0999 V2000
   -1.9163    0.0462    0.0837 C   0  0  0  0  0  0  0  0  0  0  0  0
   -3.2775   -0.1271    0.1507 N   0  0  0  0  0  0  0  0  0  0  0  0
   -4.3918   -0.2307    0.2085 N   0  0  0  0  0  0  0  0  0  0  0  0
   -1.4716    1.3908    0.1464 C   0  0  0  0  0  0  0  0  0  0  0  0
   -0.0731    1.4588    0.0741 C   0  0  0  0  0  0  0  0  0  0  0  0
    0.7622    0.3349   -0.0447 C   0  0  0  0  0  0  0  0  0  0  0  0
    2.0894    0.5819   -0.1001 O   0  0  0  0  0  0  0  0  0  0  0  0
    3.0077   -0.5000   -0.2193 C   0  0  0  0  0  0  0  0  0  0  0  0
    0.2220   -0.9804   -0.1012 C   0  0  0  0  0  0  0  0  0  0  0  0
   -1.1422   -1.1382   -0.0363 C   0  0  0  0  0  0  0  0  0  0  0  0
   -3.1077    3.4180    0.3386 H   0  0  0  0  0  0  0  0  0  0  0  0
    0.4354    2.4216    0.1093 H   0  0  0  0  0  0  0  0  0  0  0  0
    3.9989   -0.0464   -0.2395 H   0  0  0  0  0  0  0  0  0  0  0  0
    2.8492   -1.0619   -1.1476 H   0  0  0  0  0  0  0  0  0  0  0  0
    2.9397   -1.1815    0.6372 H   0  0  0  0  0  0  0  0  0  0  0  0
    0.8614   -1.8489   -0.1928 H   0  0  0  0  0  0  0  0  0  0  0  0
   -1.5990   -2.1237   -0.0759 H   0  0  0  0  0  0  0  0  0  0  0  0
   -5.4944    2.9679    0.2954 B   0  0  0  0  0  0  0  0  0  0  0  0
   -5.2145    2.3503   -0.8584 F   0  0  0  0  0  0  0  0  0  0  0  0
   -3.8342    4.0185    0.4023 F   0  0  0  0  0  0  0  0  0  0  0  0
   -6.3301    3.9993    0.2936 F   0  0  0  0  0  0  0  0  0  0  0  0
   -5.3173    2.2704    1.4225 F   0  0  0  0  0  0  0  0  0  0  0  0
  1  4  1  0  0  0  0
  1  2  1  0  0  0  0
  2  3  1  0  0  0  0
  5 12  1  0  0  0  0
  5  4  2  0  0  0  0
  6  5  1  0  0  0  0
  7  6  1  0  0  0  0
  8  7  1  0  0  0  0
  8 15  1  0  0  0  0
  9  6  2  0  0  0  0
  9 10  1  0  0  0  0
 10  1  2  0  0  0  0
 11 20  1  0  0  0  0
 13  8  1  0  0  0  0
 14  8  1  0  0  0  0
 16  9  1  0  0  0  0
 17 10  1  0  0  0  0
 18 22  1  0  0  0  0
 19 18  1  0  0  0  0
 21 18  1  0  0  0  0
M  RAD  3   2   2   3   3   4   2
M  END
