Coordinates from ORCA-job 4-MeOPhN2+~BF4-_B3LYPG-6-31G_dp-CH-Scan-d09-49-n800
 OpenBabel11261919343D

 22 20  0  0  0  0  0  0  0  0999 V2000
   -2.0169    0.0563    0.0806 C   0  0  0  0  0  0  0  0  0  0  0  0
   -3.3728   -0.1507    0.1403 N   0  0  0  0  0  0  0  0  0  0  0  0
   -4.4824   -0.2899    0.1912 N   0  0  0  0  0  0  0  0  0  0  0  0
   -1.5838    1.4056    0.1339 C   0  0  0  0  0  0  0  0  0  0  0  0
   -0.1907    1.5039    0.0663 C   0  0  0  0  0  0  0  0  0  0  0  0
    0.6656    0.3934   -0.0410 C   0  0  0  0  0  0  0  0  0  0  0  0
    1.9855    0.6659   -0.0948 O   0  0  0  0  0  0  0  0  0  0  0  0
    2.9262   -0.3991   -0.2035 C   0  0  0  0  0  0  0  0  0  0  0  0
    0.1470   -0.9289   -0.0876 C   0  0  0  0  0  0  0  0  0  0  0  0
   -1.2153   -1.1091   -0.0263 C   0  0  0  0  0  0  0  0  0  0  0  0
   -2.8979    3.0322    0.2844 H   0  0  0  0  0  0  0  0  0  0  0  0
    0.2955    2.4772    0.0960 H   0  0  0  0  0  0  0  0  0  0  0  0
    3.9076    0.0747   -0.2268 H   0  0  0  0  0  0  0  0  0  0  0  0
    2.7789   -0.9713   -1.1271 H   0  0  0  0  0  0  0  0  0  0  0  0
    2.8700   -1.0731    0.6595 H   0  0  0  0  0  0  0  0  0  0  0  0
    0.8000   -1.7882   -0.1690 H   0  0  0  0  0  0  0  0  0  0  0  0
   -1.6537   -2.1026   -0.0590 H   0  0  0  0  0  0  0  0  0  0  0  0
   -5.1973    2.9587    0.2999 B   0  0  0  0  0  0  0  0  0  0  0  0
   -5.0964    2.2937   -0.8719 F   0  0  0  0  0  0  0  0  0  0  0  0
   -3.5809    3.7269    0.3524 F   0  0  0  0  0  0  0  0  0  0  0  0
   -5.9659    4.0514    0.3386 F   0  0  0  0  0  0  0  0  0  0  0  0
   -5.1260    2.1927    1.4104 F   0  0  0  0  0  0  0  0  0  0  0  0
  1  4  1  0  0  0  0
  1  2  1  0  0  0  0
  2  3  1  0  0  0  0
  5 12  1  0  0  0  0
  5  4  2  0  0  0  0
  6  5  1  0  0  0  0
  7  6  1  0  0  0  0
  8  7  1  0  0  0  0
  8 15  1  0  0  0  0
  9  6  2  0  0  0  0
  9 10  1  0  0  0  0
 10  1  2  0  0  0  0
 11 20  1  0  0  0  0
 13  8  1  0  0  0  0
 14  8  1  0  0  0  0
 16  9  1  0  0  0  0
 17 10  1  0  0  0  0
 18 21  1  0  0  0  0
 18 22  1  0  0  0  0
 19 18  1  0  0  0  0
M  RAD  3   2   2   3   3   4   2
M  END
