Coordinates from ORCA-job 4-MeOPhN2+~BF4-_B3LYPG-6-31G_dp-CH-Scan-d09-49-n800
 OpenBabel11261919343D

 22 20  0  0  0  0  0  0  0  0999 V2000
   -1.6062    0.0973    0.0299 C   0  0  0  0  0  0  0  0  0  0  0  0
   -2.9808    0.0648    0.1152 N   0  0  0  0  0  0  0  0  0  0  0  0
   -4.1004    0.1067    0.1850 N   0  0  0  0  0  0  0  0  0  0  0  0
   -1.0759    1.4093    0.0030 C   0  0  0  0  0  0  0  0  0  0  0  0
    0.3288    1.3516   -0.0820 C   0  0  0  0  0  0  0  0  0  0  0  0
    1.0694    0.1608   -0.1295 C   0  0  0  0  0  0  0  0  0  0  0  0
    2.4160    0.2930   -0.2075 O   0  0  0  0  0  0  0  0  0  0  0  0
    3.2394   -0.8661   -0.2524 C   0  0  0  0  0  0  0  0  0  0  0  0
    0.4284   -1.1125   -0.0962 C   0  0  0  0  0  0  0  0  0  0  0  0
   -0.9427   -1.1585   -0.0146 C   0  0  0  0  0  0  0  0  0  0  0  0
   -4.2175    4.6074    0.4910 H   0  0  0  0  0  0  0  0  0  0  0  0
    0.9175    2.2696   -0.1138 H   0  0  0  0  0  0  0  0  0  0  0  0
    4.2656   -0.5003   -0.3056 H   0  0  0  0  0  0  0  0  0  0  0  0
    3.0294   -1.4777   -1.1386 H   0  0  0  0  0  0  0  0  0  0  0  0
    3.1223   -1.4801    0.6491 H   0  0  0  0  0  0  0  0  0  0  0  0
    0.9998   -2.0314   -0.1336 H   0  0  0  0  0  0  0  0  0  0  0  0
   -1.4785   -2.1046    0.0137 H   0  0  0  0  0  0  0  0  0  0  0  0
   -6.0861    2.9678    0.3115 B   0  0  0  0  0  0  0  0  0  0  0  0
   -5.1083    2.7444   -0.5690 F   0  0  0  0  0  0  0  0  0  0  0  0
   -4.9868    4.7371    0.9990 F   0  0  0  0  0  0  0  0  0  0  0  0
   -7.1714    3.6130   -0.0764 F   0  0  0  0  0  0  0  0  0  0  0  0
   -6.0658    2.3282    1.4683 F   0  0  0  0  0  0  0  0  0  0  0  0
  1  2  1  0  0  0  0
  2  3  1  0  0  0  0
  4  1  1  0  0  0  0
  5  4  2  0  0  0  0
  6  9  2  0  0  0  0
  6  5  1  0  0  0  0
  7  6  1  0  0  0  0
  8  7  1  0  0  0  0
  8 15  1  0  0  0  0
  9 10  1  0  0  0  0
 10 17  1  0  0  0  0
 10  1  2  0  0  0  0
 11 20  1  0  0  0  0
 12  5  1  0  0  0  0
 13  8  1  0  0  0  0
 14  8  1  0  0  0  0
 16  9  1  0  0  0  0
 18 22  1  0  0  0  0
 19 18  1  0  0  0  0
 21 18  1  0  0  0  0
M  RAD  3   2   2   3   3   4   2
M  END
