Coordinates from ORCA-job 4-MeOPhN2+~BF4-_B3LYPG-6-31G_dp-CH-Scan-d09-49-n800
 OpenBabel11261919343D

 22 20  0  0  0  0  0  0  0  0999 V2000
   -1.8786    0.0436    0.0720 C   0  0  0  0  0  0  0  0  0  0  0  0
   -3.2426   -0.1139    0.1330 N   0  0  0  0  0  0  0  0  0  0  0  0
   -4.3592   -0.1977    0.1868 N   0  0  0  0  0  0  0  0  0  0  0  0
   -1.4283    1.3863    0.1333 C   0  0  0  0  0  0  0  0  0  0  0  0
   -0.0279    1.4419    0.0653 C   0  0  0  0  0  0  0  0  0  0  0  0
    0.7993    0.3120   -0.0479 C   0  0  0  0  0  0  0  0  0  0  0  0
    2.1292    0.5486   -0.1003 O   0  0  0  0  0  0  0  0  0  0  0  0
    3.0393   -0.5404   -0.2145 C   0  0  0  0  0  0  0  0  0  0  0  0
    0.2502   -1.0003   -0.1026 C   0  0  0  0  0  0  0  0  0  0  0  0
   -1.1151   -1.1485   -0.0420 C   0  0  0  0  0  0  0  0  0  0  0  0
   -3.1966    3.5703    0.3353 H   0  0  0  0  0  0  0  0  0  0  0  0
    0.4888    2.4008    0.0996 H   0  0  0  0  0  0  0  0  0  0  0  0
    4.0341   -0.0947   -0.2338 H   0  0  0  0  0  0  0  0  0  0  0  0
    2.8788   -1.1039   -1.1416 H   0  0  0  0  0  0  0  0  0  0  0  0
    2.9644   -1.2193    0.6436 H   0  0  0  0  0  0  0  0  0  0  0  0
    0.8843   -1.8733   -0.1894 H   0  0  0  0  0  0  0  0  0  0  0  0
   -1.5793   -2.1307   -0.0804 H   0  0  0  0  0  0  0  0  0  0  0  0
   -5.5955    2.9677    0.3132 B   0  0  0  0  0  0  0  0  0  0  0  0
   -5.2859    2.3765   -0.8432 F   0  0  0  0  0  0  0  0  0  0  0  0
   -3.9447    4.1351    0.3968 F   0  0  0  0  0  0  0  0  0  0  0  0
   -6.4692    3.9644    0.3239 F   0  0  0  0  0  0  0  0  0  0  0  0
   -5.3494    2.2952    1.4391 F   0  0  0  0  0  0  0  0  0  0  0  0
  1  2  1  0  0  0  0
  1  4  1  0  0  0  0
  2  3  1  0  0  0  0
  5 12  1  0  0  0  0
  5  4  2  0  0  0  0
  6  5  1  0  0  0  0
  7  6  1  0  0  0  0
  8  7  1  0  0  0  0
  8 15  1  0  0  0  0
  9  6  2  0  0  0  0
  9 10  1  0  0  0  0
 10  1  2  0  0  0  0
 11 20  1  0  0  0  0
 13  8  1  0  0  0  0
 14  8  1  0  0  0  0
 16  9  1  0  0  0  0
 17 10  1  0  0  0  0
 18 21  1  0  0  0  0
 18 22  1  0  0  0  0
 19 18  1  0  0  0  0
M  RAD  3   2   2   3   3   4   2
M  END
