Coordinates from ORCA-job 4-MeOPhN2+~BF4-_B3LYPG-6-31G_dp-CH-Scan-d09-49-n800
 OpenBabel11261919343D

 22 20  0  0  0  0  0  0  0  0999 V2000
   -2.0920    0.0783    0.0194 C   0  0  0  0  0  0  0  0  0  0  0  0
   -3.4457   -0.1469    0.0506 N   0  0  0  0  0  0  0  0  0  0  0  0
   -4.5517   -0.3083    0.0732 N   0  0  0  0  0  0  0  0  0  0  0  0
   -1.6560    1.4270    0.0427 C   0  0  0  0  0  0  0  0  0  0  0  0
   -0.2676    1.5430    0.0029 C   0  0  0  0  0  0  0  0  0  0  0  0
    0.6000    0.4359   -0.0524 C   0  0  0  0  0  0  0  0  0  0  0  0
    1.9158    0.7193   -0.0848 O   0  0  0  0  0  0  0  0  0  0  0  0
    2.8692   -0.3402   -0.1390 C   0  0  0  0  0  0  0  0  0  0  0  0
    0.0898   -0.8884   -0.0710 C   0  0  0  0  0  0  0  0  0  0  0  0
   -1.2733   -1.0765   -0.0351 C   0  0  0  0  0  0  0  0  0  0  0  0
   -2.7554    2.7867    0.1373 H   0  0  0  0  0  0  0  0  0  0  0  0
    0.2037    2.5230    0.0156 H   0  0  0  0  0  0  0  0  0  0  0  0
    3.8459    0.1429   -0.1555 H   0  0  0  0  0  0  0  0  0  0  0  0
    2.7466   -0.9415   -1.0473 H   0  0  0  0  0  0  0  0  0  0  0  0
    2.7987   -0.9861    0.7439 H   0  0  0  0  0  0  0  0  0  0  0  0
    0.7485   -1.7460   -0.1121 H   0  0  0  0  0  0  0  0  0  0  0  0
   -1.7027   -2.0739   -0.0482 H   0  0  0  0  0  0  0  0  0  0  0  0
   -4.9594    2.9296    0.3784 B   0  0  0  0  0  0  0  0  0  0  0  0
   -5.1275    2.2509   -0.7969 F   0  0  0  0  0  0  0  0  0  0  0  0
   -3.4523    3.5657    0.2081 F   0  0  0  0  0  0  0  0  0  0  0  0
   -5.7298    4.0196    0.5572 F   0  0  0  0  0  0  0  0  0  0  0  0
   -4.8084    2.1056    1.4596 F   0  0  0  0  0  0  0  0  0  0  0  0
  1  4  1  0  0  0  0
  1  2  1  0  0  0  0
  2  3  1  0  0  0  0
  5 12  1  0  0  0  0
  5  4  2  0  0  0  0
  6  5  1  0  0  0  0
  7  6  1  0  0  0  0
  8  7  1  0  0  0  0
  8 15  1  0  0  0  0
  9  6  2  0  0  0  0
  9 10  1  0  0  0  0
 10  1  2  0  0  0  0
 11 20  1  0  0  0  0
 13  8  1  0  0  0  0
 14  8  1  0  0  0  0
 16  9  1  0  0  0  0
 17 10  1  0  0  0  0
 18 21  1  0  0  0  0
 18 22  1  0  0  0  0
 19 18  1  0  0  0  0
M  RAD  3   2   2   3   3   4   2
M  END
