Coordinates from ORCA-job 4-MeOPhN2+~BF4-_B3LYPG-6-31G_dp-CH-Scan-d09-49-n800
 OpenBabel11261919343D

 22 20  0  0  0  0  0  0  0  0999 V2000
   -1.6136    0.0913    0.0532 C   0  0  0  0  0  0  0  0  0  0  0  0
   -2.9875    0.0517    0.1470 N   0  0  0  0  0  0  0  0  0  0  0  0
   -4.1070    0.0851    0.2223 N   0  0  0  0  0  0  0  0  0  0  0  0
   -1.0878    1.4052    0.0354 C   0  0  0  0  0  0  0  0  0  0  0  0
    0.3165    1.3533   -0.0590 C   0  0  0  0  0  0  0  0  0  0  0  0
    1.0610    0.1656   -0.1227 C   0  0  0  0  0  0  0  0  0  0  0  0
    2.4065    0.3033   -0.2081 O   0  0  0  0  0  0  0  0  0  0  0  0
    3.2337   -0.8522   -0.2695 C   0  0  0  0  0  0  0  0  0  0  0  0
    0.4245   -1.1101   -0.0977 C   0  0  0  0  0  0  0  0  0  0  0  0
   -0.9459   -1.1616   -0.0078 C   0  0  0  0  0  0  0  0  0  0  0  0
   -4.1677    4.5681    0.5029 H   0  0  0  0  0  0  0  0  0  0  0  0
    0.9019    2.2735   -0.0855 H   0  0  0  0  0  0  0  0  0  0  0  0
    4.2582   -0.4821   -0.3254 H   0  0  0  0  0  0  0  0  0  0  0  0
    3.0207   -1.4558   -1.1604 H   0  0  0  0  0  0  0  0  0  0  0  0
    3.1244   -1.4755    0.6266 H   0  0  0  0  0  0  0  0  0  0  0  0
    0.9987   -2.0266   -0.1475 H   0  0  0  0  0  0  0  0  0  0  0  0
   -1.4782   -2.1098    0.0148 H   0  0  0  0  0  0  0  0  0  0  0  0
   -6.0796    2.9739    0.2893 B   0  0  0  0  0  0  0  0  0  0  0  0
   -5.0965    2.7160   -0.5754 F   0  0  0  0  0  0  0  0  0  0  0  0
   -4.9514    4.7190    0.9821 F   0  0  0  0  0  0  0  0  0  0  0  0
   -7.1417    3.6448   -0.1191 F   0  0  0  0  0  0  0  0  0  0  0  0
   -6.0931    2.3427    1.4509 F   0  0  0  0  0  0  0  0  0  0  0  0
  1  2  1  0  0  0  0
  2  3  1  0  0  0  0
  4  1  1  0  0  0  0
  5  4  2  0  0  0  0
  6  9  2  0  0  0  0
  6  5  1  0  0  0  0
  7  6  1  0  0  0  0
  8  7  1  0  0  0  0
  8 15  1  0  0  0  0
  9 10  1  0  0  0  0
 10 17  1  0  0  0  0
 10  1  2  0  0  0  0
 11 20  1  0  0  0  0
 12  5  1  0  0  0  0
 13  8  1  0  0  0  0
 14  8  1  0  0  0  0
 16  9  1  0  0  0  0
 18 22  1  0  0  0  0
 19 18  1  0  0  0  0
 21 18  1  0  0  0  0
M  RAD  3   2   2   3   3   4   2
M  END
