Coordinates from ORCA-job 4-MeOPhN2+~BF4-_B3LYPG-6-31G_dp-CH-Scan-d09-49-n800
 OpenBabel11261919343D

 22 21  0  0  0  0  0  0  0  0999 V2000
   -2.1443    0.1250    0.2472 C   0  0  0  0  0  0  0  0  0  0  0  0
   -3.4907   -0.0926    0.3890 N   0  0  0  0  0  0  0  0  0  0  0  0
   -4.5845   -0.2641    0.5320 N   0  0  0  0  0  0  0  0  0  0  0  0
   -1.6466    1.4420    0.3766 C   0  0  0  0  0  0  0  0  0  0  0  0
   -0.2769    1.5809    0.2520 C   0  0  0  0  0  0  0  0  0  0  0  0
    0.5632    0.4749    0.0061 C   0  0  0  0  0  0  0  0  0  0  0  0
    1.8726    0.7506   -0.0940 O   0  0  0  0  0  0  0  0  0  0  0  0
    2.8040   -0.3037   -0.3433 C   0  0  0  0  0  0  0  0  0  0  0  0
    0.0231   -0.8276   -0.1206 C   0  0  0  0  0  0  0  0  0  0  0  0
   -1.3391   -1.0082    0.0024 C   0  0  0  0  0  0  0  0  0  0  0  0
   -2.5317    2.5159    0.5740 H   0  0  0  0  0  0  0  0  0  0  0  0
    0.1897    2.5572    0.3356 H   0  0  0  0  0  0  0  0  0  0  0  0
    3.7836    0.1720   -0.3734 H   0  0  0  0  0  0  0  0  0  0  0  0
    2.6050   -0.7890   -1.3052 H   0  0  0  0  0  0  0  0  0  0  0  0
    2.7841   -1.0483    0.4606 H   0  0  0  0  0  0  0  0  0  0  0  0
    0.6585   -1.6825   -0.3113 H   0  0  0  0  0  0  0  0  0  0  0  0
   -1.7817   -1.9948   -0.0885 H   0  0  0  0  0  0  0  0  0  0  0  0
   -4.7569    2.8853    0.0967 B   0  0  0  0  0  0  0  0  0  0  0  0
   -4.3171    2.0830   -0.9665 F   0  0  0  0  0  0  0  0  0  0  0  0
   -3.5255    3.4706    0.6861 F   0  0  0  0  0  0  0  0  0  0  0  0
   -5.5755    3.9014   -0.2972 F   0  0  0  0  0  0  0  0  0  0  0  0
   -5.3173    2.0715    1.0880 F   0  0  0  0  0  0  0  0  0  0  0  0
  1  4  2  0  0  0  0
  1  2  1  0  0  0  0
  2  3  1  0  0  0  0
  4 11  1  0  0  0  0
  5 12  1  0  0  0  0
  5  4  1  0  0  0  0
  6  5  2  0  0  0  0
  7  6  1  0  0  0  0
  8  7  1  0  0  0  0
  8 15  1  0  0  0  0
  9 10  2  0  0  0  0
  9  6  1  0  0  0  0
 10  1  1  0  0  0  0
 13  8  1  0  0  0  0
 14  8  1  0  0  0  0
 16  9  1  0  0  0  0
 17 10  1  0  0  0  0
 18 20  1  0  0  0  0
 18 22  1  0  0  0  0
 19 18  1  0  0  0  0
 21 18  1  0  0  0  0
M  RAD  2   2   2   3   3
M  END
