Coordinates from ORCA-job 4-MeOPhN2+~BF4-_B3LYPG-6-31G_dp-CH-Scan-d09-49-n800
 OpenBabel11261919343D

 22 20  0  0  0  0  0  0  0  0999 V2000
   -1.5494    0.1401   -0.0579 C   0  0  0  0  0  0  0  0  0  0  0  0
   -2.9263    0.1470   -0.0086 N   0  0  0  0  0  0  0  0  0  0  0  0
   -4.0459    0.2218    0.0289 N   0  0  0  0  0  0  0  0  0  0  0  0
   -0.9857    1.4366   -0.1165 C   0  0  0  0  0  0  0  0  0  0  0  0
    0.4189    1.3418   -0.1634 C   0  0  0  0  0  0  0  0  0  0  0  0
    1.1295    0.1320   -0.1515 C   0  0  0  0  0  0  0  0  0  0  0  0
    2.4806    0.2280   -0.2006 O   0  0  0  0  0  0  0  0  0  0  0  0
    3.2747   -0.9522   -0.1904 C   0  0  0  0  0  0  0  0  0  0  0  0
    0.4554   -1.1232   -0.0906 C   0  0  0  0  0  0  0  0  0  0  0  0
   -0.9181   -1.1329   -0.0421 C   0  0  0  0  0  0  0  0  0  0  0  0
   -4.4865    4.7888    0.4499 H   0  0  0  0  0  0  0  0  0  0  0  0
    1.0313    2.2434   -0.2119 H   0  0  0  0  0  0  0  0  0  0  0  0
    4.3109   -0.6140   -0.2335 H   0  0  0  0  0  0  0  0  0  0  0  0
    3.0669   -1.5870   -1.0605 H   0  0  0  0  0  0  0  0  0  0  0  0
    3.1239   -1.5332    0.7279 H   0  0  0  0  0  0  0  0  0  0  0  0
    1.0044   -2.0565   -0.0818 H   0  0  0  0  0  0  0  0  0  0  0  0
   -1.4783   -2.0638    0.0057 H   0  0  0  0  0  0  0  0  0  0  0  0
   -6.1579    2.9481    0.4044 B   0  0  0  0  0  0  0  0  0  0  0  0
   -5.2413    2.8578   -0.5616 F   0  0  0  0  0  0  0  0  0  0  0  0
   -5.2102    4.8307    1.0336 F   0  0  0  0  0  0  0  0  0  0  0  0
   -7.3409    3.4656    0.1273 F   0  0  0  0  0  0  0  0  0  0  0  0
   -5.9596    2.3007    1.5396 F   0  0  0  0  0  0  0  0  0  0  0  0
  1 10  1  0  0  0  0
  1  2  1  0  0  0  0
  2  3  1  0  0  0  0
  4  1  2  0  0  0  0
  5  6  2  0  0  0  0
  5  4  1  0  0  0  0
  6  9  1  0  0  0  0
  7  8  1  0  0  0  0
  7  6  1  0  0  0  0
  8 15  1  0  0  0  0
  9 16  1  0  0  0  0
  9 10  2  0  0  0  0
 10 17  1  0  0  0  0
 11 20  1  0  0  0  0
 12  5  1  0  0  0  0
 13  8  1  0  0  0  0
 14  8  1  0  0  0  0
 18 22  1  0  0  0  0
 19 18  1  0  0  0  0
 21 18  1  0  0  0  0
M  RAD  3   2   2   3   3   4   2
M  END
