Coordinates from ORCA-job 4-MeOPhN2+~BF4-_B3LYPG-6-31G_dp-CH-Scan-d09-49-n800
 OpenBabel11261919343D

 22 20  0  0  0  0  0  0  0  0999 V2000
   -1.6746    0.0612    0.0540 C   0  0  0  0  0  0  0  0  0  0  0  0
   -3.0477   -0.0096    0.1410 N   0  0  0  0  0  0  0  0  0  0  0  0
   -4.1676    0.0029    0.2132 N   0  0  0  0  0  0  0  0  0  0  0  0
   -1.1767    1.3862    0.0469 C   0  0  0  0  0  0  0  0  0  0  0  0
    0.2283    1.3659   -0.0422 C   0  0  0  0  0  0  0  0  0  0  0  0
    0.9991    0.1952   -0.1114 C   0  0  0  0  0  0  0  0  0  0  0  0
    2.3413    0.3634   -0.1910 O   0  0  0  0  0  0  0  0  0  0  0  0
    3.1941   -0.7731   -0.2590 C   0  0  0  0  0  0  0  0  0  0  0  0
    0.3906   -1.0939   -0.0969 C   0  0  0  0  0  0  0  0  0  0  0  0
   -0.9788   -1.1758   -0.0124 C   0  0  0  0  0  0  0  0  0  0  0  0
   -3.9159    4.3858    0.4690 H   0  0  0  0  0  0  0  0  0  0  0  0
    0.7934    2.2989   -0.0602 H   0  0  0  0  0  0  0  0  0  0  0  0
    4.2102   -0.3800   -0.3092 H   0  0  0  0  0  0  0  0  0  0  0  0
    2.9966   -1.3742   -1.1551 H   0  0  0  0  0  0  0  0  0  0  0  0
    3.0964   -1.4055    0.6320 H   0  0  0  0  0  0  0  0  0  0  0  0
    0.9846   -1.9975   -0.1504 H   0  0  0  0  0  0  0  0  0  0  0  0
   -1.4901   -2.1355    0.0021 H   0  0  0  0  0  0  0  0  0  0  0  0
   -5.9904    2.9762    0.2924 B   0  0  0  0  0  0  0  0  0  0  0  0
   -5.0841    2.6211   -0.6199 F   0  0  0  0  0  0  0  0  0  0  0  0
   -4.7023    4.6194    0.9096 F   0  0  0  0  0  0  0  0  0  0  0  0
   -7.0134    3.7305   -0.0686 F   0  0  0  0  0  0  0  0  0  0  0  0
   -5.9968    2.3581    1.4624 F   0  0  0  0  0  0  0  0  0  0  0  0
  1  2  1  0  0  0  0
  2  3  1  0  0  0  0
  4  1  1  0  0  0  0
  5  4  2  0  0  0  0
  6  9  2  0  0  0  0
  6  5  1  0  0  0  0
  7  6  1  0  0  0  0
  8  7  1  0  0  0  0
  8 15  1  0  0  0  0
  9 10  1  0  0  0  0
 10 17  1  0  0  0  0
 10  1  2  0  0  0  0
 11 20  1  0  0  0  0
 12  5  1  0  0  0  0
 13  8  1  0  0  0  0
 14  8  1  0  0  0  0
 16  9  1  0  0  0  0
 18 22  1  0  0  0  0
 19 18  1  0  0  0  0
 21 18  1  0  0  0  0
M  RAD  3   2   2   3   3   4   2
M  END
