Coordinates from ORCA-job 4-MeOPhN2+~BF4-_B3LYPG-6-31G_dp-CH-Scan-d09-49-n800
 OpenBabel11261919343D

 22 20  0  0  0  0  0  0  0  0999 V2000
   -1.8063    0.0420    0.0854 C   0  0  0  0  0  0  0  0  0  0  0  0
   -3.1739   -0.0890    0.1527 N   0  0  0  0  0  0  0  0  0  0  0  0
   -4.2926   -0.1449    0.2100 N   0  0  0  0  0  0  0  0  0  0  0  0
   -1.3423    1.3793    0.1491 C   0  0  0  0  0  0  0  0  0  0  0  0
    0.0606    1.4104    0.0720 C   0  0  0  0  0  0  0  0  0  0  0  0
    0.8695    0.2691   -0.0507 C   0  0  0  0  0  0  0  0  0  0  0  0
    2.2040    0.4849   -0.1118 O   0  0  0  0  0  0  0  0  0  0  0  0
    3.0952   -0.6177   -0.2365 C   0  0  0  0  0  0  0  0  0  0  0  0
    0.3013   -1.0360   -0.1058 C   0  0  0  0  0  0  0  0  0  0  0  0
   -1.0654   -1.1641   -0.0370 C   0  0  0  0  0  0  0  0  0  0  0  0
   -3.3843    3.8669    0.3968 H   0  0  0  0  0  0  0  0  0  0  0  0
    0.5941    2.3606    0.1062 H   0  0  0  0  0  0  0  0  0  0  0  0
    4.0972   -0.1882   -0.2620 H   0  0  0  0  0  0  0  0  0  0  0  0
    2.9194   -1.1761   -1.1640 H   0  0  0  0  0  0  0  0  0  0  0  0
    3.0165   -1.2988    0.6197 H   0  0  0  0  0  0  0  0  0  0  0  0
    0.9227   -1.9175   -0.1992 H   0  0  0  0  0  0  0  0  0  0  0  0
   -1.5453   -2.1390   -0.0753 H   0  0  0  0  0  0  0  0  0  0  0  0
   -5.7651    2.9681    0.2930 B   0  0  0  0  0  0  0  0  0  0  0  0
   -5.3307    2.4402   -0.8492 F   0  0  0  0  0  0  0  0  0  0  0  0
   -4.1822    4.3482    0.4526 F   0  0  0  0  0  0  0  0  0  0  0  0
   -6.7163    3.8872    0.2732 F   0  0  0  0  0  0  0  0  0  0  0  0
   -5.4798    2.3342    1.4274 F   0  0  0  0  0  0  0  0  0  0  0  0
  1  4  1  0  0  0  0
  1  2  1  0  0  0  0
  2  3  1  0  0  0  0
  5 12  1  0  0  0  0
  5  4  2  0  0  0  0
  6  5  1  0  0  0  0
  7  6  1  0  0  0  0
  8  7  1  0  0  0  0
  8 15  1  0  0  0  0
  9  6  2  0  0  0  0
  9 10  1  0  0  0  0
 10  1  2  0  0  0  0
 11 20  1  0  0  0  0
 13  8  1  0  0  0  0
 14  8  1  0  0  0  0
 16  9  1  0  0  0  0
 17 10  1  0  0  0  0
 18 22  1  0  0  0  0
 19 18  1  0  0  0  0
 21 18  1  0  0  0  0
M  RAD  3   2   2   3   3   4   2
M  END
