Coordinates from ORCA-job 4-MeOPhN2+~BF4-_B3LYPG-6-31G_dp-CH-Scan-d09-49-n800
 OpenBabel11261919343D

 22 20  0  0  0  0  0  0  0  0999 V2000
   -1.6840    0.0530    0.0516 C   0  0  0  0  0  0  0  0  0  0  0  0
   -3.0563   -0.0256    0.1370 N   0  0  0  0  0  0  0  0  0  0  0  0
   -4.1764   -0.0244    0.2075 N   0  0  0  0  0  0  0  0  0  0  0  0
   -1.1914    1.3804    0.0499 C   0  0  0  0  0  0  0  0  0  0  0  0
    0.2137    1.3663   -0.0367 C   0  0  0  0  0  0  0  0  0  0  0  0
    0.9899    0.1992   -0.1082 C   0  0  0  0  0  0  0  0  0  0  0  0
    2.3314    0.3736   -0.1839 O   0  0  0  0  0  0  0  0  0  0  0  0
    3.1896   -0.7588   -0.2529 C   0  0  0  0  0  0  0  0  0  0  0  0
    0.3870   -1.0925   -0.0998 C   0  0  0  0  0  0  0  0  0  0  0  0
   -0.9821   -1.1805   -0.0182 C   0  0  0  0  0  0  0  0  0  0  0  0
   -3.8714    4.3558    0.4464 H   0  0  0  0  0  0  0  0  0  0  0  0
    0.7749    2.3017   -0.0504 H   0  0  0  0  0  0  0  0  0  0  0  0
    4.2041   -0.3608   -0.2986 H   0  0  0  0  0  0  0  0  0  0  0  0
    2.9977   -1.3578   -1.1516 H   0  0  0  0  0  0  0  0  0  0  0  0
    3.0919   -1.3944    0.6358 H   0  0  0  0  0  0  0  0  0  0  0  0
    0.9849   -1.9933   -0.1556 H   0  0  0  0  0  0  0  0  0  0  0  0
   -1.4894   -2.1425   -0.0086 H   0  0  0  0  0  0  0  0  0  0  0  0
   -5.9818    2.9848    0.3003 B   0  0  0  0  0  0  0  0  0  0  0  0
   -5.1127    2.6053   -0.6378 F   0  0  0  0  0  0  0  0  0  0  0  0
   -4.6571    4.6028    0.8808 F   0  0  0  0  0  0  0  0  0  0  0  0
   -6.9994    3.7596   -0.0318 F   0  0  0  0  0  0  0  0  0  0  0  0
   -5.9670    2.3679    1.4712 F   0  0  0  0  0  0  0  0  0  0  0  0
  1  2  1  0  0  0  0
  2  3  1  0  0  0  0
  4  1  1  0  0  0  0
  5  4  2  0  0  0  0
  6  9  2  0  0  0  0
  6  5  1  0  0  0  0
  7  6  1  0  0  0  0
  8  7  1  0  0  0  0
  8 15  1  0  0  0  0
  9 10  1  0  0  0  0
 10 17  1  0  0  0  0
 10  1  2  0  0  0  0
 11 20  1  0  0  0  0
 12  5  1  0  0  0  0
 13  8  1  0  0  0  0
 14  8  1  0  0  0  0
 16  9  1  0  0  0  0
 18 22  1  0  0  0  0
 19 18  1  0  0  0  0
 21 18  1  0  0  0  0
M  RAD  3   2   2   3   3   4   2
M  END
