Coordinates from ORCA-job 4-MeOPhN2+~BF4-_B3LYPG-6-31G_dp-CH-Scan-d09-49-n800
 OpenBabel11261919343D

 22 20  0  0  0  0  0  0  0  0999 V2000
   -2.0476    0.0623    0.0855 C   0  0  0  0  0  0  0  0  0  0  0  0
   -3.4018   -0.1547    0.1455 N   0  0  0  0  0  0  0  0  0  0  0  0
   -4.5093   -0.3053    0.1967 N   0  0  0  0  0  0  0  0  0  0  0  0
   -1.6150    1.4117    0.1405 C   0  0  0  0  0  0  0  0  0  0  0  0
   -0.2240    1.5182    0.0724 C   0  0  0  0  0  0  0  0  0  0  0  0
    0.6371    0.4111   -0.0377 C   0  0  0  0  0  0  0  0  0  0  0  0
    1.9547    0.6897   -0.0920 O   0  0  0  0  0  0  0  0  0  0  0  0
    2.9004   -0.3712   -0.2041 C   0  0  0  0  0  0  0  0  0  0  0  0
    0.1229   -0.9122   -0.0861 C   0  0  0  0  0  0  0  0  0  0  0  0
   -1.2390   -1.0973   -0.0240 C   0  0  0  0  0  0  0  0  0  0  0  0
   -2.8380    2.9257    0.2800 H   0  0  0  0  0  0  0  0  0  0  0  0
    0.2562    2.4941    0.1035 H   0  0  0  0  0  0  0  0  0  0  0  0
    3.8794    0.1073   -0.2275 H   0  0  0  0  0  0  0  0  0  0  0  0
    2.7542   -0.9417   -1.1287 H   0  0  0  0  0  0  0  0  0  0  0  0
    2.8478   -1.0469    0.6578 H   0  0  0  0  0  0  0  0  0  0  0  0
    0.7783   -1.7693   -0.1695 H   0  0  0  0  0  0  0  0  0  0  0  0
   -1.6733   -2.0924   -0.0580 H   0  0  0  0  0  0  0  0  0  0  0  0
   -5.0979    2.9505    0.2926 B   0  0  0  0  0  0  0  0  0  0  0  0
   -5.0332    2.2689   -0.8792 F   0  0  0  0  0  0  0  0  0  0  0  0
   -3.5186    3.6512    0.3483 F   0  0  0  0  0  0  0  0  0  0  0  0
   -5.8648    4.0495    0.3274 F   0  0  0  0  0  0  0  0  0  0  0  0
   -5.0723    2.1702    1.4030 F   0  0  0  0  0  0  0  0  0  0  0  0
  1  4  1  0  0  0  0
  1  2  1  0  0  0  0
  2  3  1  0  0  0  0
  5 12  1  0  0  0  0
  5  4  2  0  0  0  0
  6  5  1  0  0  0  0
  7  6  1  0  0  0  0
  8  7  1  0  0  0  0
  8 15  1  0  0  0  0
  9  6  2  0  0  0  0
  9 10  1  0  0  0  0
 10  1  2  0  0  0  0
 11 20  1  0  0  0  0
 13  8  1  0  0  0  0
 14  8  1  0  0  0  0
 16  9  1  0  0  0  0
 17 10  1  0  0  0  0
 18 21  1  0  0  0  0
 18 22  1  0  0  0  0
 19 18  1  0  0  0  0
M  RAD  3   2   2   3   3   4   2
M  END
