Coordinates from ORCA-job 4-MeOPhN2+~BF4-_B3LYPG-6-31G_dp-CH-Scan-d09-49-n800
 OpenBabel11261919343D

 22 20  0  0  0  0  0  0  0  0999 V2000
   -1.6546    0.0668    0.0590 C   0  0  0  0  0  0  0  0  0  0  0  0
   -3.0277    0.0033    0.1486 N   0  0  0  0  0  0  0  0  0  0  0  0
   -4.1476    0.0170    0.2222 N   0  0  0  0  0  0  0  0  0  0  0  0
   -1.1491    1.3890    0.0521 C   0  0  0  0  0  0  0  0  0  0  0  0
    0.2557    1.3601   -0.0404 C   0  0  0  0  0  0  0  0  0  0  0  0
    1.0194    0.1850   -0.1126 C   0  0  0  0  0  0  0  0  0  0  0  0
    2.3624    0.3452   -0.1953 O   0  0  0  0  0  0  0  0  0  0  0  0
    3.2083   -0.7962   -0.2663 C   0  0  0  0  0  0  0  0  0  0  0  0
    0.4033   -1.1006   -0.0979 C   0  0  0  0  0  0  0  0  0  0  0  0
   -0.9662   -1.1745   -0.0102 C   0  0  0  0  0  0  0  0  0  0  0  0
   -3.9906    4.4441    0.4796 H   0  0  0  0  0  0  0  0  0  0  0  0
    0.8264    2.2898   -0.0589 H   0  0  0  0  0  0  0  0  0  0  0  0
    4.2266   -0.4090   -0.3186 H   0  0  0  0  0  0  0  0  0  0  0  0
    3.0053   -1.3954   -1.1625 H   0  0  0  0  0  0  0  0  0  0  0  0
    3.1089   -1.4289    0.6243 H   0  0  0  0  0  0  0  0  0  0  0  0
    0.9919   -2.0076   -0.1537 H   0  0  0  0  0  0  0  0  0  0  0  0
   -1.4833   -2.1311    0.0044 H   0  0  0  0  0  0  0  0  0  0  0  0
   -6.0245    2.9820    0.2880 B   0  0  0  0  0  0  0  0  0  0  0  0
   -5.0960    2.6471   -0.6095 F   0  0  0  0  0  0  0  0  0  0  0  0
   -4.7801    4.6544    0.9258 F   0  0  0  0  0  0  0  0  0  0  0  0
   -7.0563    3.7161   -0.0886 F   0  0  0  0  0  0  0  0  0  0  0  0
   -6.0361    2.3629    1.4571 F   0  0  0  0  0  0  0  0  0  0  0  0
  1  2  1  0  0  0  0
  2  3  1  0  0  0  0
  4  1  1  0  0  0  0
  5  4  2  0  0  0  0
  6  9  2  0  0  0  0
  6  5  1  0  0  0  0
  7  6  1  0  0  0  0
  8  7  1  0  0  0  0
  8 15  1  0  0  0  0
  9 10  1  0  0  0  0
 10 17  1  0  0  0  0
 10  1  2  0  0  0  0
 11 20  1  0  0  0  0
 12  5  1  0  0  0  0
 13  8  1  0  0  0  0
 14  8  1  0  0  0  0
 16  9  1  0  0  0  0
 18 22  1  0  0  0  0
 19 18  1  0  0  0  0
 21 18  1  0  0  0  0
M  RAD  3   2   2   3   3   4   2
M  END
