Coordinates from ORCA-job 4-MeOPhN2+~BF4-_B3LYPG-6-31G_dp-CH-Scan-d09-49-n800
 OpenBabel11261919343D

 22 20  0  0  0  0  0  0  0  0999 V2000
   -2.0900    0.0774    0.0203 C   0  0  0  0  0  0  0  0  0  0  0  0
   -3.4437   -0.1475    0.0521 N   0  0  0  0  0  0  0  0  0  0  0  0
   -4.5498   -0.3083    0.0755 N   0  0  0  0  0  0  0  0  0  0  0  0
   -1.6544    1.4263    0.0442 C   0  0  0  0  0  0  0  0  0  0  0  0
   -0.2657    1.5418    0.0040 C   0  0  0  0  0  0  0  0  0  0  0  0
    0.6017    0.4347   -0.0523 C   0  0  0  0  0  0  0  0  0  0  0  0
    1.9176    0.7179   -0.0849 O   0  0  0  0  0  0  0  0  0  0  0  0
    2.8708   -0.3416   -0.1401 C   0  0  0  0  0  0  0  0  0  0  0  0
    0.0915   -0.8896   -0.0716 C   0  0  0  0  0  0  0  0  0  0  0  0
   -1.2716   -1.0777   -0.0353 C   0  0  0  0  0  0  0  0  0  0  0  0
   -2.7600    2.7937    0.1398 H   0  0  0  0  0  0  0  0  0  0  0  0
    0.2059    2.5216    0.0171 H   0  0  0  0  0  0  0  0  0  0  0  0
    3.8476    0.1413   -0.1565 H   0  0  0  0  0  0  0  0  0  0  0  0
    2.7480   -0.9423   -1.0488 H   0  0  0  0  0  0  0  0  0  0  0  0
    2.8005   -0.9882    0.7424 H   0  0  0  0  0  0  0  0  0  0  0  0
    0.7502   -1.7472   -0.1135 H   0  0  0  0  0  0  0  0  0  0  0  0
   -1.7012   -2.0750   -0.0489 H   0  0  0  0  0  0  0  0  0  0  0  0
   -4.9660    2.9307    0.3775 B   0  0  0  0  0  0  0  0  0  0  0  0
   -5.1286    2.2524   -0.7980 F   0  0  0  0  0  0  0  0  0  0  0  0
   -3.4553    3.5695    0.2106 F   0  0  0  0  0  0  0  0  0  0  0  0
   -5.7354    4.0214    0.5534 F   0  0  0  0  0  0  0  0  0  0  0  0
   -4.8157    2.1084    1.4595 F   0  0  0  0  0  0  0  0  0  0  0  0
  1  4  1  0  0  0  0
  1  2  1  0  0  0  0
  2  3  1  0  0  0  0
  5 12  1  0  0  0  0
  5  4  2  0  0  0  0
  6  5  1  0  0  0  0
  7  6  1  0  0  0  0
  8  7  1  0  0  0  0
  8 15  1  0  0  0  0
  9  6  2  0  0  0  0
  9 10  1  0  0  0  0
 10  1  2  0  0  0  0
 11 20  1  0  0  0  0
 13  8  1  0  0  0  0
 14  8  1  0  0  0  0
 16  9  1  0  0  0  0
 17 10  1  0  0  0  0
 18 21  1  0  0  0  0
 18 22  1  0  0  0  0
 19 18  1  0  0  0  0
M  RAD  3   2   2   3   3   4   2
M  END
