Coordinates from ORCA-job 4-MeOPhN2+~BF4-_B3LYPG-6-31G_dp-CH-Scan-d09-49-n800
 OpenBabel11261919343D

 22 21  0  0  0  0  0  0  0  0999 V2000
   -2.1405    0.2823    0.3612 C   0  0  0  0  0  0  0  0  0  0  0  0
   -3.4914    0.1070    0.5456 N   0  0  0  0  0  0  0  0  0  0  0  0
   -4.5677   -0.1446    0.7035 N   0  0  0  0  0  0  0  0  0  0  0  0
   -1.5713    1.5724    0.4217 C   0  0  0  0  0  0  0  0  0  0  0  0
   -0.2087    1.6690    0.2362 C   0  0  0  0  0  0  0  0  0  0  0  0
    0.5789    0.5252   -0.0140 C   0  0  0  0  0  0  0  0  0  0  0  0
    1.8885    0.7525   -0.1861 O   0  0  0  0  0  0  0  0  0  0  0  0
    2.7692   -0.3429   -0.4473 C   0  0  0  0  0  0  0  0  0  0  0  0
   -0.0163   -0.7538   -0.0656 C   0  0  0  0  0  0  0  0  0  0  0  0
   -1.3802   -0.8776    0.1270 C   0  0  0  0  0  0  0  0  0  0  0  0
   -2.1469    2.3446    0.6033 H   0  0  0  0  0  0  0  0  0  0  0  0
    0.2842    2.6341    0.2733 H   0  0  0  0  0  0  0  0  0  0  0  0
    3.7608    0.0966   -0.5471 H   0  0  0  0  0  0  0  0  0  0  0  0
    2.5002   -0.8524   -1.3791 H   0  0  0  0  0  0  0  0  0  0  0  0
    2.7675   -1.0576    0.3833 H   0  0  0  0  0  0  0  0  0  0  0  0
    0.5744   -1.6405   -0.2545 H   0  0  0  0  0  0  0  0  0  0  0  0
   -1.8605   -1.8492    0.0882 H   0  0  0  0  0  0  0  0  0  0  0  0
   -4.7723    2.7469    0.0485 B   0  0  0  0  0  0  0  0  0  0  0  0
   -3.9159    2.1887   -0.9461 F   0  0  0  0  0  0  0  0  0  0  0  0
   -4.0037    2.7958    1.2503 F   0  0  0  0  0  0  0  0  0  0  0  0
   -5.2216    3.9896   -0.3148 F   0  0  0  0  0  0  0  0  0  0  0  0
   -5.8306    1.8336    0.2589 F   0  0  0  0  0  0  0  0  0  0  0  0
  1  4  1  0  0  0  0
  1  2  1  0  0  0  0
  2  3  1  0  0  0  0
  4 11  1  0  0  0  0
  5 12  1  0  0  0  0
  5  4  2  0  0  0  0
  6  5  1  0  0  0  0
  7  6  1  0  0  0  0
  8  7  1  0  0  0  0
  8 15  1  0  0  0  0
  9  6  2  0  0  0  0
  9 10  1  0  0  0  0
 10  1  2  0  0  0  0
 13  8  1  0  0  0  0
 14  8  1  0  0  0  0
 16  9  1  0  0  0  0
 17 10  1  0  0  0  0
 18 22  1  0  0  0  0
 18 20  1  0  0  0  0
 19 18  1  0  0  0  0
 21 18  1  0  0  0  0
M  RAD  2   2   2   3   3
M  END
