Coordinates from ORCA-job 4-MeOPhN2+~BF4-_B3LYPG-6-31G_dp-CH-Scan-d09-49-n800
 OpenBabel11261919343D

 22 20  0  0  0  0  0  0  0  0999 V2000
   -1.5647    0.1303   -0.0593 C   0  0  0  0  0  0  0  0  0  0  0  0
   -2.9417    0.1277   -0.0113 N   0  0  0  0  0  0  0  0  0  0  0  0
   -4.0618    0.1938    0.0258 N   0  0  0  0  0  0  0  0  0  0  0  0
   -1.0089    1.4302   -0.1174 C   0  0  0  0  0  0  0  0  0  0  0  0
    0.3963    1.3442   -0.1629 C   0  0  0  0  0  0  0  0  0  0  0  0
    1.1144    0.1389   -0.1503 C   0  0  0  0  0  0  0  0  0  0  0  0
    2.4650    0.2433   -0.1982 O   0  0  0  0  0  0  0  0  0  0  0  0
    3.2664   -0.9319   -0.1871 C   0  0  0  0  0  0  0  0  0  0  0  0
    0.4481   -1.1205   -0.0899 C   0  0  0  0  0  0  0  0  0  0  0  0
   -0.9253   -1.1386   -0.0428 C   0  0  0  0  0  0  0  0  0  0  0  0
   -4.4260    4.7534    0.4468 H   0  0  0  0  0  0  0  0  0  0  0  0
    1.0031    2.2496   -0.2109 H   0  0  0  0  0  0  0  0  0  0  0  0
    4.3005   -0.5873   -0.2293 H   0  0  0  0  0  0  0  0  0  0  0  0
    3.0633   -1.5680   -1.0574 H   0  0  0  0  0  0  0  0  0  0  0  0
    3.1183   -1.5139    0.7310 H   0  0  0  0  0  0  0  0  0  0  0  0
    1.0029   -2.0504   -0.0805 H   0  0  0  0  0  0  0  0  0  0  0  0
   -1.4797   -2.0731    0.0045 H   0  0  0  0  0  0  0  0  0  0  0  0
   -6.1381    2.9502    0.4031 B   0  0  0  0  0  0  0  0  0  0  0  0
   -5.2271    2.8402   -0.5660 F   0  0  0  0  0  0  0  0  0  0  0  0
   -5.1479    4.8103    1.0316 F   0  0  0  0  0  0  0  0  0  0  0  0
   -7.3102    3.4945    0.1305 F   0  0  0  0  0  0  0  0  0  0  0  0
   -5.9509    2.2968    1.5368 F   0  0  0  0  0  0  0  0  0  0  0  0
  1 10  1  0  0  0  0
  1  2  1  0  0  0  0
  2  3  1  0  0  0  0
  4  1  2  0  0  0  0
  5  6  2  0  0  0  0
  5  4  1  0  0  0  0
  6  9  1  0  0  0  0
  7  8  1  0  0  0  0
  7  6  1  0  0  0  0
  8 15  1  0  0  0  0
  9 16  1  0  0  0  0
  9 10  2  0  0  0  0
 10 17  1  0  0  0  0
 11 20  1  0  0  0  0
 12  5  1  0  0  0  0
 13  8  1  0  0  0  0
 14  8  1  0  0  0  0
 18 22  1  0  0  0  0
 19 18  1  0  0  0  0
 21 18  1  0  0  0  0
M  RAD  3   2   2   3   3   4   2
M  END
