Coordinates from ORCA-job 4-MeOPhN2+~BF4-_B3LYPG-6-31G_dp-CH-Scan-d09-49-n800
 OpenBabel11261919343D

 22 20  0  0  0  0  0  0  0  0999 V2000
   -1.8975    0.0445    0.0743 C   0  0  0  0  0  0  0  0  0  0  0  0
   -3.2602   -0.1208    0.1366 N   0  0  0  0  0  0  0  0  0  0  0  0
   -4.3758   -0.2137    0.1921 N   0  0  0  0  0  0  0  0  0  0  0  0
   -1.4504    1.3884    0.1357 C   0  0  0  0  0  0  0  0  0  0  0  0
   -0.0508    1.4503    0.0672 C   0  0  0  0  0  0  0  0  0  0  0  0
    0.7807    0.3235   -0.0468 C   0  0  0  0  0  0  0  0  0  0  0  0
    2.1093    0.5654   -0.0992 O   0  0  0  0  0  0  0  0  0  0  0  0
    3.0238   -0.5200   -0.2139 C   0  0  0  0  0  0  0  0  0  0  0  0
    0.2364   -0.9905   -0.1021 C   0  0  0  0  0  0  0  0  0  0  0  0
   -1.1284   -1.1437   -0.0408 C   0  0  0  0  0  0  0  0  0  0  0  0
   -3.1506    3.4926    0.3311 H   0  0  0  0  0  0  0  0  0  0  0  0
    0.4617    2.4112    0.1019 H   0  0  0  0  0  0  0  0  0  0  0  0
    4.0169   -0.0702   -0.2327 H   0  0  0  0  0  0  0  0  0  0  0  0
    2.8657   -1.0835   -1.1413 H   0  0  0  0  0  0  0  0  0  0  0  0
    2.9514   -1.1995    0.6439 H   0  0  0  0  0  0  0  0  0  0  0  0
    0.8735   -1.8612   -0.1898 H   0  0  0  0  0  0  0  0  0  0  0  0
   -1.5887   -2.1277   -0.0796 H   0  0  0  0  0  0  0  0  0  0  0  0
   -5.5466    2.9683    0.3095 B   0  0  0  0  0  0  0  0  0  0  0  0
   -5.2589    2.3615   -0.8462 F   0  0  0  0  0  0  0  0  0  0  0  0
   -3.8874    4.0759    0.3932 F   0  0  0  0  0  0  0  0  0  0  0  0
   -6.3998    3.9838    0.3171 F   0  0  0  0  0  0  0  0  0  0  0  0
   -5.3281    2.2850    1.4362 F   0  0  0  0  0  0  0  0  0  0  0  0
  1  4  1  0  0  0  0
  1  2  1  0  0  0  0
  2  3  1  0  0  0  0
  5 12  1  0  0  0  0
  5  4  2  0  0  0  0
  6  5  1  0  0  0  0
  7  6  1  0  0  0  0
  8  7  1  0  0  0  0
  8 15  1  0  0  0  0
  9  6  2  0  0  0  0
  9 10  1  0  0  0  0
 10  1  2  0  0  0  0
 11 20  1  0  0  0  0
 13  8  1  0  0  0  0
 14  8  1  0  0  0  0
 16  9  1  0  0  0  0
 17 10  1  0  0  0  0
 18 21  1  0  0  0  0
 18 22  1  0  0  0  0
 19 18  1  0  0  0  0
M  RAD  3   2   2   3   3   4   2
M  END
