Coordinates from ORCA-job 4-MeOPhN2+~BF4-_B3LYPG-6-31G_dp-CH-Scan-d09-49-n800
 OpenBabel11261919343D

 22 21  0  0  0  0  0  0  0  0999 V2000
   -2.1421    0.2193    0.3639 C   0  0  0  0  0  0  0  0  0  0  0  0
   -3.4903    0.0346    0.5488 N   0  0  0  0  0  0  0  0  0  0  0  0
   -4.5729   -0.1740    0.7283 N   0  0  0  0  0  0  0  0  0  0  0  0
   -1.5853    1.5109    0.4880 C   0  0  0  0  0  0  0  0  0  0  0  0
   -0.2229    1.6292    0.3171 C   0  0  0  0  0  0  0  0  0  0  0  0
    0.5746    0.5044    0.0147 C   0  0  0  0  0  0  0  0  0  0  0  0
    1.8832    0.7499   -0.1387 O   0  0  0  0  0  0  0  0  0  0  0  0
    2.7738   -0.3231   -0.4550 C   0  0  0  0  0  0  0  0  0  0  0  0
   -0.0092   -0.7760   -0.1057 C   0  0  0  0  0  0  0  0  0  0  0  0
   -1.3721   -0.9220    0.0749 C   0  0  0  0  0  0  0  0  0  0  0  0
   -2.2488    2.3654    0.7144 H   0  0  0  0  0  0  0  0  0  0  0  0
    0.2626    2.5949    0.4020 H   0  0  0  0  0  0  0  0  0  0  0  0
    3.7626    0.1286   -0.5241 H   0  0  0  0  0  0  0  0  0  0  0  0
    2.5138   -0.7815   -1.4151 H   0  0  0  0  0  0  0  0  0  0  0  0
    2.7728   -1.0830    0.3345 H   0  0  0  0  0  0  0  0  0  0  0  0
    0.5908   -1.6460   -0.3379 H   0  0  0  0  0  0  0  0  0  0  0  0
   -1.8438   -1.8947   -0.0137 H   0  0  0  0  0  0  0  0  0  0  0  0
   -4.7523    2.8072    0.0163 B   0  0  0  0  0  0  0  0  0  0  0  0
   -3.9472    2.0851   -0.9129 F   0  0  0  0  0  0  0  0  0  0  0  0
   -3.8971    3.1966    1.0873 F   0  0  0  0  0  0  0  0  0  0  0  0
   -5.3431    3.8934   -0.5749 F   0  0  0  0  0  0  0  0  0  0  0  0
   -5.7109    1.9004    0.5343 F   0  0  0  0  0  0  0  0  0  0  0  0
  1  4  1  0  0  0  0
  1  2  1  0  0  0  0
  2  3  1  0  0  0  0
  4 11  1  0  0  0  0
  5 12  1  0  0  0  0
  5  4  2  0  0  0  0
  6  5  1  0  0  0  0
  7  6  1  0  0  0  0
  8  7  1  0  0  0  0
  8 15  1  0  0  0  0
  9  6  2  0  0  0  0
  9 10  1  0  0  0  0
 10  1  2  0  0  0  0
 13  8  1  0  0  0  0
 14  8  1  0  0  0  0
 16  9  1  0  0  0  0
 17 10  1  0  0  0  0
 18 22  1  0  0  0  0
 18 20  1  0  0  0  0
 19 18  1  0  0  0  0
 21 18  1  0  0  0  0
M  RAD  2   2   2   3   3
M  END
