Coordinates from ORCA-job 4-MeOPhN2+~BF4-_B3LYPG-6-31G_dp-CH-Scan-d09-49-n800
 OpenBabel11261919343D

 22 21  0  0  0  0  0  0  0  0999 V2000
   -2.1414    0.2180    0.3635 C   0  0  0  0  0  0  0  0  0  0  0  0
   -3.4895    0.0332    0.5490 N   0  0  0  0  0  0  0  0  0  0  0  0
   -4.5725   -0.1735    0.7280 N   0  0  0  0  0  0  0  0  0  0  0  0
   -1.5849    1.5096    0.4883 C   0  0  0  0  0  0  0  0  0  0  0  0
   -0.2226    1.6284    0.3176 C   0  0  0  0  0  0  0  0  0  0  0  0
    0.5751    0.5038    0.0148 C   0  0  0  0  0  0  0  0  0  0  0  0
    1.8837    0.7495   -0.1386 O   0  0  0  0  0  0  0  0  0  0  0  0
    2.7745   -0.3233   -0.4548 C   0  0  0  0  0  0  0  0  0  0  0  0
   -0.0084   -0.7768   -0.1061 C   0  0  0  0  0  0  0  0  0  0  0  0
   -1.3713   -0.9232    0.0743 C   0  0  0  0  0  0  0  0  0  0  0  0
   -2.2560    2.3709    0.7159 H   0  0  0  0  0  0  0  0  0  0  0  0
    0.2629    2.5941    0.4028 H   0  0  0  0  0  0  0  0  0  0  0  0
    3.7632    0.1286   -0.5238 H   0  0  0  0  0  0  0  0  0  0  0  0
    2.5147   -0.7817   -1.4151 H   0  0  0  0  0  0  0  0  0  0  0  0
    2.7736   -1.0833    0.3346 H   0  0  0  0  0  0  0  0  0  0  0  0
    0.5918   -1.6465   -0.3385 H   0  0  0  0  0  0  0  0  0  0  0  0
   -1.8427   -1.8960   -0.0145 H   0  0  0  0  0  0  0  0  0  0  0  0
   -4.7533    2.8079    0.0157 B   0  0  0  0  0  0  0  0  0  0  0  0
   -3.9504    2.0850   -0.9142 F   0  0  0  0  0  0  0  0  0  0  0  0
   -3.8947    3.1986    1.0845 F   0  0  0  0  0  0  0  0  0  0  0  0
   -5.3449    3.8943   -0.5742 F   0  0  0  0  0  0  0  0  0  0  0  0
   -5.7106    1.9021    0.5371 F   0  0  0  0  0  0  0  0  0  0  0  0
  1  4  1  0  0  0  0
  1  2  1  0  0  0  0
  2  3  1  0  0  0  0
  4 11  1  0  0  0  0
  5 12  1  0  0  0  0
  5  4  2  0  0  0  0
  6  5  1  0  0  0  0
  7  6  1  0  0  0  0
  8  7  1  0  0  0  0
  8 15  1  0  0  0  0
  9  6  2  0  0  0  0
  9 10  1  0  0  0  0
 10  1  2  0  0  0  0
 13  8  1  0  0  0  0
 14  8  1  0  0  0  0
 16  9  1  0  0  0  0
 17 10  1  0  0  0  0
 18 22  1  0  0  0  0
 18 20  1  0  0  0  0
 19 18  1  0  0  0  0
 21 18  1  0  0  0  0
M  RAD  2   2   2   3   3
M  END
