Coordinates from ORCA-job 4-MeOPhN2+~BF4-_B3LYPG-6-31G_dp-CH-Scan-d09-49-n800
 OpenBabel11261919343D

 22 20  0  0  0  0  0  0  0  0999 V2000
   -2.0690    0.0692    0.0463 C   0  0  0  0  0  0  0  0  0  0  0  0
   -3.4231   -0.1522    0.0910 N   0  0  0  0  0  0  0  0  0  0  0  0
   -4.5301   -0.3079    0.1268 N   0  0  0  0  0  0  0  0  0  0  0  0
   -1.6361    1.4189    0.0839 C   0  0  0  0  0  0  0  0  0  0  0  0
   -0.2460    1.5298    0.0326 C   0  0  0  0  0  0  0  0  0  0  0  0
    0.6190    0.4228   -0.0465 C   0  0  0  0  0  0  0  0  0  0  0  0
    1.9360    0.7040   -0.0872 O   0  0  0  0  0  0  0  0  0  0  0  0
    2.8861   -0.3562   -0.1665 C   0  0  0  0  0  0  0  0  0  0  0  0
    0.1076   -0.9014   -0.0794 C   0  0  0  0  0  0  0  0  0  0  0  0
   -1.2550   -1.0883   -0.0326 C   0  0  0  0  0  0  0  0  0  0  0  0
   -2.8002    2.8602    0.1972 H   0  0  0  0  0  0  0  0  0  0  0  0
    0.2297    2.5079    0.0538 H   0  0  0  0  0  0  0  0  0  0  0  0
    3.8640    0.1248   -0.1840 H   0  0  0  0  0  0  0  0  0  0  0  0
    2.7546   -0.9431   -1.0830 H   0  0  0  0  0  0  0  0  0  0  0  0
    2.8224   -1.0163    0.7065 H   0  0  0  0  0  0  0  0  0  0  0  0
    0.7653   -1.7588   -0.1395 H   0  0  0  0  0  0  0  0  0  0  0  0
   -1.6865   -2.0848   -0.0557 H   0  0  0  0  0  0  0  0  0  0  0  0
   -5.0319    2.9417    0.3457 B   0  0  0  0  0  0  0  0  0  0  0  0
   -5.0954    2.2593   -0.8312 F   0  0  0  0  0  0  0  0  0  0  0  0
   -3.4842    3.6093    0.2670 F   0  0  0  0  0  0  0  0  0  0  0  0
   -5.8003    4.0380    0.4575 F   0  0  0  0  0  0  0  0  0  0  0  0
   -4.9308    2.1426    1.4439 F   0  0  0  0  0  0  0  0  0  0  0  0
  1  4  1  0  0  0  0
  1  2  1  0  0  0  0
  2  3  1  0  0  0  0
  5 12  1  0  0  0  0
  5  4  2  0  0  0  0
  6  5  1  0  0  0  0
  7  6  1  0  0  0  0
  8  7  1  0  0  0  0
  8 15  1  0  0  0  0
  9  6  2  0  0  0  0
  9 10  1  0  0  0  0
 10  1  2  0  0  0  0
 11 20  1  0  0  0  0
 13  8  1  0  0  0  0
 14  8  1  0  0  0  0
 16  9  1  0  0  0  0
 17 10  1  0  0  0  0
 18 21  1  0  0  0  0
 18 22  1  0  0  0  0
 19 18  1  0  0  0  0
M  RAD  3   2   2   3   3   4   2
M  END
