Coordinates from ORCA-job 4-MeOPhN2+~BF4-_B3LYPG-6-31G_dp-CH-Scan-d09-49-n800
 OpenBabel11261919343D

 22 20  0  0  0  0  0  0  0  0999 V2000
   -1.6193    0.0876    0.0557 C   0  0  0  0  0  0  0  0  0  0  0  0
   -2.9932    0.0442    0.1493 N   0  0  0  0  0  0  0  0  0  0  0  0
   -4.1125    0.0746    0.2280 N   0  0  0  0  0  0  0  0  0  0  0  0
   -1.0963    1.4026    0.0413 C   0  0  0  0  0  0  0  0  0  0  0  0
    0.3080    1.3541   -0.0535 C   0  0  0  0  0  0  0  0  0  0  0  0
    1.0552    0.1683   -0.1205 C   0  0  0  0  0  0  0  0  0  0  0  0
    2.4004    0.3093   -0.2058 O   0  0  0  0  0  0  0  0  0  0  0  0
    3.2302   -0.8441   -0.2707 C   0  0  0  0  0  0  0  0  0  0  0  0
    0.4216   -1.1088   -0.0985 C   0  0  0  0  0  0  0  0  0  0  0  0
   -0.9487   -1.1636   -0.0084 C   0  0  0  0  0  0  0  0  0  0  0  0
   -4.1431    4.5502    0.4981 H   0  0  0  0  0  0  0  0  0  0  0  0
    0.8913    2.2758   -0.0778 H   0  0  0  0  0  0  0  0  0  0  0  0
    4.2538   -0.4716   -0.3259 H   0  0  0  0  0  0  0  0  0  0  0  0
    3.0182   -1.4458   -1.1631 H   0  0  0  0  0  0  0  0  0  0  0  0
    3.1226   -1.4701    0.6238 H   0  0  0  0  0  0  0  0  0  0  0  0
    0.9978   -2.0240   -0.1508 H   0  0  0  0  0  0  0  0  0  0  0  0
   -1.4788   -2.1131    0.0118 H   0  0  0  0  0  0  0  0  0  0  0  0
   -6.0721    2.9752    0.2879 B   0  0  0  0  0  0  0  0  0  0  0  0
   -5.0940    2.7051   -0.5788 F   0  0  0  0  0  0  0  0  0  0  0  0
   -4.9276    4.7119    0.9724 F   0  0  0  0  0  0  0  0  0  0  0  0
   -7.1294    3.6543   -0.1197 F   0  0  0  0  0  0  0  0  0  0  0  0
   -6.0880    2.3478    1.4517 F   0  0  0  0  0  0  0  0  0  0  0  0
  1  2  1  0  0  0  0
  2  3  1  0  0  0  0
  4  1  1  0  0  0  0
  5  4  2  0  0  0  0
  6  9  2  0  0  0  0
  6  5  1  0  0  0  0
  7  6  1  0  0  0  0
  8  7  1  0  0  0  0
  8 15  1  0  0  0  0
  9 10  1  0  0  0  0
 10 17  1  0  0  0  0
 10  1  2  0  0  0  0
 11 20  1  0  0  0  0
 12  5  1  0  0  0  0
 13  8  1  0  0  0  0
 14  8  1  0  0  0  0
 16  9  1  0  0  0  0
 18 22  1  0  0  0  0
 19 18  1  0  0  0  0
 21 18  1  0  0  0  0
M  RAD  3   2   2   3   3   4   2
M  END
