Coordinates from ORCA-job 4-MeOPhN2+~BF4-_B3LYPG-6-31G_dp-CH-Scan-d09-49-n800
 OpenBabel11261919343D

 22 21  0  0  0  0  0  0  0  0999 V2000
   -2.1456    0.1508    0.3142 C   0  0  0  0  0  0  0  0  0  0  0  0
   -3.4920   -0.0526    0.4782 N   0  0  0  0  0  0  0  0  0  0  0  0
   -4.5827   -0.2268    0.6421 N   0  0  0  0  0  0  0  0  0  0  0  0
   -1.6207    1.4538    0.4618 C   0  0  0  0  0  0  0  0  0  0  0  0
   -0.2566    1.5933    0.3141 C   0  0  0  0  0  0  0  0  0  0  0  0
    0.5657    0.4843    0.0205 C   0  0  0  0  0  0  0  0  0  0  0  0
    1.8735    0.7514   -0.1060 O   0  0  0  0  0  0  0  0  0  0  0  0
    2.7883   -0.3041   -0.4105 C   0  0  0  0  0  0  0  0  0  0  0  0
    0.0082   -0.8079   -0.1221 C   0  0  0  0  0  0  0  0  0  0  0  0
   -1.3538   -0.9795    0.0287 C   0  0  0  0  0  0  0  0  0  0  0  0
   -2.4449    2.4521    0.6957 H   0  0  0  0  0  0  0  0  0  0  0  0
    0.2154    2.5649    0.4116 H   0  0  0  0  0  0  0  0  0  0  0  0
    3.7703    0.1650   -0.4580 H   0  0  0  0  0  0  0  0  0  0  0  0
    2.5554   -0.7620   -1.3779 H   0  0  0  0  0  0  0  0  0  0  0  0
    2.7856   -1.0684    0.3747 H   0  0  0  0  0  0  0  0  0  0  0  0
    0.6297   -1.6644   -0.3476 H   0  0  0  0  0  0  0  0  0  0  0  0
   -1.8068   -1.9598   -0.0752 H   0  0  0  0  0  0  0  0  0  0  0  0
   -4.7357    2.8615    0.0375 B   0  0  0  0  0  0  0  0  0  0  0  0
   -4.1049    2.0653   -0.9459 F   0  0  0  0  0  0  0  0  0  0  0  0
   -3.6722    3.4138    0.8588 F   0  0  0  0  0  0  0  0  0  0  0  0
   -5.4753    3.8718   -0.5114 F   0  0  0  0  0  0  0  0  0  0  0  0
   -5.5047    2.0171    0.8633 F   0  0  0  0  0  0  0  0  0  0  0  0
  1  4  1  0  0  0  0
  1  2  1  0  0  0  0
  2  3  1  0  0  0  0
  4 11  1  0  0  0  0
  5 12  1  0  0  0  0
  5  4  2  0  0  0  0
  6  5  1  0  0  0  0
  7  6  1  0  0  0  0
  8  7  1  0  0  0  0
  8 15  1  0  0  0  0
  9  6  2  0  0  0  0
  9 10  1  0  0  0  0
 10  1  2  0  0  0  0
 13  8  1  0  0  0  0
 14  8  1  0  0  0  0
 16  9  1  0  0  0  0
 17 10  1  0  0  0  0
 18 20  1  0  0  0  0
 18 22  1  0  0  0  0
 19 18  1  0  0  0  0
 21 18  1  0  0  0  0
M  RAD  2   2   2   3   3
M  END
