Coordinates from ORCA-job 4-MeOPhN2+~BF4-_B3LYPG-6-31G_dp-CH-Scan-d09-49-n800
 OpenBabel11261919343D

 22 20  0  0  0  0  0  0  0  0999 V2000
   -1.8566    0.0421    0.0759 C   0  0  0  0  0  0  0  0  0  0  0  0
   -3.2220   -0.1073    0.1384 N   0  0  0  0  0  0  0  0  0  0  0  0
   -4.3394   -0.1812    0.1934 N   0  0  0  0  0  0  0  0  0  0  0  0
   -1.4027    1.3830    0.1385 C   0  0  0  0  0  0  0  0  0  0  0  0
   -0.0014    1.4320    0.0682 C   0  0  0  0  0  0  0  0  0  0  0  0
    0.8205    0.2989   -0.0481 C   0  0  0  0  0  0  0  0  0  0  0  0
    2.1519    0.5296   -0.1028 O   0  0  0  0  0  0  0  0  0  0  0  0
    3.0566   -0.5632   -0.2207 C   0  0  0  0  0  0  0  0  0  0  0  0
    0.2661   -1.0115   -0.1033 C   0  0  0  0  0  0  0  0  0  0  0  0
   -1.0997   -1.1541   -0.0406 C   0  0  0  0  0  0  0  0  0  0  0  0
   -3.2498    3.6573    0.3502 H   0  0  0  0  0  0  0  0  0  0  0  0
    0.5200    2.3885    0.1029 H   0  0  0  0  0  0  0  0  0  0  0  0
    4.0535   -0.1220   -0.2418 H   0  0  0  0  0  0  0  0  0  0  0  0
    2.8916   -1.1249   -1.1480 H   0  0  0  0  0  0  0  0  0  0  0  0
    2.9810   -1.2431    0.6366 H   0  0  0  0  0  0  0  0  0  0  0  0
    0.8967   -1.8867   -0.1922 H   0  0  0  0  0  0  0  0  0  0  0  0
   -1.5682   -2.1343   -0.0794 H   0  0  0  0  0  0  0  0  0  0  0  0
   -5.6513    2.9681    0.3077 B   0  0  0  0  0  0  0  0  0  0  0  0
   -5.3074    2.3987   -0.8480 F   0  0  0  0  0  0  0  0  0  0  0  0
   -4.0107    4.2010    0.4095 F   0  0  0  0  0  0  0  0  0  0  0  0
   -6.5467    3.9438    0.3168 F   0  0  0  0  0  0  0  0  0  0  0  0
   -5.3857    2.3052    1.4333 F   0  0  0  0  0  0  0  0  0  0  0  0
  1  2  1  0  0  0  0
  1  4  1  0  0  0  0
  2  3  1  0  0  0  0
  5 12  1  0  0  0  0
  5  4  2  0  0  0  0
  6  5  1  0  0  0  0
  7  6  1  0  0  0  0
  8  7  1  0  0  0  0
  8 15  1  0  0  0  0
  9  6  2  0  0  0  0
  9 10  1  0  0  0  0
 10  1  2  0  0  0  0
 11 20  1  0  0  0  0
 13  8  1  0  0  0  0
 14  8  1  0  0  0  0
 16  9  1  0  0  0  0
 17 10  1  0  0  0  0
 18 21  1  0  0  0  0
 18 22  1  0  0  0  0
 19 18  1  0  0  0  0
M  RAD  3   2   2   3   3   4   2
M  END
