Coordinates from ORCA-job 4-MeOPhN2+~BF4-_B3LYPG-6-31G_dp-CH-Scan-d09-49-n800
 OpenBabel11261919343D

 22 20  0  0  0  0  0  0  0  0999 V2000
   -1.6178    0.0885    0.0558 C   0  0  0  0  0  0  0  0  0  0  0  0
   -2.9916    0.0466    0.1502 N   0  0  0  0  0  0  0  0  0  0  0  0
   -4.1111    0.0783    0.2254 N   0  0  0  0  0  0  0  0  0  0  0  0
   -1.0942    1.4033    0.0391 C   0  0  0  0  0  0  0  0  0  0  0  0
    0.3101    1.3539   -0.0561 C   0  0  0  0  0  0  0  0  0  0  0  0
    1.0566    0.1676   -0.1216 C   0  0  0  0  0  0  0  0  0  0  0  0
    2.4018    0.3077   -0.2076 O   0  0  0  0  0  0  0  0  0  0  0  0
    3.2310   -0.8463   -0.2710 C   0  0  0  0  0  0  0  0  0  0  0  0
    0.4223   -1.1092   -0.0975 C   0  0  0  0  0  0  0  0  0  0  0  0
   -0.9479   -1.1632   -0.0068 C   0  0  0  0  0  0  0  0  0  0  0  0
   -4.1499    4.5550    0.5040 H   0  0  0  0  0  0  0  0  0  0  0  0
    0.8939    2.2752   -0.0820 H   0  0  0  0  0  0  0  0  0  0  0  0
    4.2548   -0.4744   -0.3271 H   0  0  0  0  0  0  0  0  0  0  0  0
    3.0184   -1.4492   -1.1624 H   0  0  0  0  0  0  0  0  0  0  0  0
    3.1234   -1.4708    0.6244 H   0  0  0  0  0  0  0  0  0  0  0  0
    0.9981   -2.0247   -0.1486 H   0  0  0  0  0  0  0  0  0  0  0  0
   -1.4786   -2.1123    0.0151 H   0  0  0  0  0  0  0  0  0  0  0  0
   -6.0735    2.9747    0.2865 B   0  0  0  0  0  0  0  0  0  0  0  0
   -5.0918    2.7093   -0.5775 F   0  0  0  0  0  0  0  0  0  0  0  0
   -4.9352    4.7129    0.9783 F   0  0  0  0  0  0  0  0  0  0  0  0
   -7.1312    3.6519   -0.1229 F   0  0  0  0  0  0  0  0  0  0  0  0
   -6.0915    2.3447    1.4489 F   0  0  0  0  0  0  0  0  0  0  0  0
  1  2  1  0  0  0  0
  2  3  1  0  0  0  0
  4  1  1  0  0  0  0
  5  4  2  0  0  0  0
  6  9  2  0  0  0  0
  6  5  1  0  0  0  0
  7  6  1  0  0  0  0
  8  7  1  0  0  0  0
  8 15  1  0  0  0  0
  9 10  1  0  0  0  0
 10 17  1  0  0  0  0
 10  1  2  0  0  0  0
 11 20  1  0  0  0  0
 12  5  1  0  0  0  0
 13  8  1  0  0  0  0
 14  8  1  0  0  0  0
 16  9  1  0  0  0  0
 18 22  1  0  0  0  0
 19 18  1  0  0  0  0
 21 18  1  0  0  0  0
M  RAD  3   2   2   3   3   4   2
M  END
