Coordinates from ORCA-job 4-MeOPhN2+~BF4-_B3LYPG-6-31G_dp-CH-Scan-d09-49-n800
 OpenBabel11261919343D

 22 20  0  0  0  0  0  0  0  0999 V2000
   -1.9332    0.0486    0.0956 C   0  0  0  0  0  0  0  0  0  0  0  0
   -3.2933   -0.1303    0.1664 N   0  0  0  0  0  0  0  0  0  0  0  0
   -4.4063   -0.2436    0.2283 N   0  0  0  0  0  0  0  0  0  0  0  0
   -1.4898    1.3935    0.1606 C   0  0  0  0  0  0  0  0  0  0  0  0
   -0.0926    1.4672    0.0834 C   0  0  0  0  0  0  0  0  0  0  0  0
    0.7455    0.3459   -0.0419 C   0  0  0  0  0  0  0  0  0  0  0  0
    2.0713    0.5972   -0.1016 O   0  0  0  0  0  0  0  0  0  0  0  0
    2.9927   -0.4816   -0.2276 C   0  0  0  0  0  0  0  0  0  0  0  0
    0.2084   -0.9703   -0.1000 C   0  0  0  0  0  0  0  0  0  0  0  0
   -1.1551   -1.1323   -0.0306 C   0  0  0  0  0  0  0  0  0  0  0  0
   -3.0733    3.3406    0.3526 H   0  0  0  0  0  0  0  0  0  0  0  0
    0.4124    2.4316    0.1196 H   0  0  0  0  0  0  0  0  0  0  0  0
    3.9823   -0.0247   -0.2504 H   0  0  0  0  0  0  0  0  0  0  0  0
    2.8321   -1.0412   -1.1569 H   0  0  0  0  0  0  0  0  0  0  0  0
    2.9301   -1.1656    0.6274 H   0  0  0  0  0  0  0  0  0  0  0  0
    0.8497   -1.8369   -0.1963 H   0  0  0  0  0  0  0  0  0  0  0  0
   -1.6090   -2.1190   -0.0713 H   0  0  0  0  0  0  0  0  0  0  0  0
   -5.4409    2.9702    0.2784 B   0  0  0  0  0  0  0  0  0  0  0  0
   -5.1671    2.3383   -0.8721 F   0  0  0  0  0  0  0  0  0  0  0  0
   -3.7909    3.9577    0.4150 F   0  0  0  0  0  0  0  0  0  0  0  0
   -6.2609    4.0161    0.2614 F   0  0  0  0  0  0  0  0  0  0  0  0
   -5.3159    2.2583    1.4064 F   0  0  0  0  0  0  0  0  0  0  0  0
  1  4  1  0  0  0  0
  1  2  1  0  0  0  0
  2  3  1  0  0  0  0
  5 12  1  0  0  0  0
  5  4  2  0  0  0  0
  6  5  1  0  0  0  0
  7  6  1  0  0  0  0
  8  7  1  0  0  0  0
  8 15  1  0  0  0  0
  9  6  2  0  0  0  0
  9 10  1  0  0  0  0
 10  1  2  0  0  0  0
 11 20  1  0  0  0  0
 13  8  1  0  0  0  0
 14  8  1  0  0  0  0
 16  9  1  0  0  0  0
 17 10  1  0  0  0  0
 18 22  1  0  0  0  0
 19 18  1  0  0  0  0
 21 18  1  0  0  0  0
M  RAD  3   2   2   3   3   4   2
M  END
