Coordinates from ORCA-job 4-MeOPhN2+~BF4-_B3LYPG-6-31G_dp-CH-Scan-d09-49-n800
 OpenBabel11261919343D

 22 21  0  0  0  0  0  0  0  0999 V2000
   -2.1478    0.1733    0.3325 C   0  0  0  0  0  0  0  0  0  0  0  0
   -3.4947   -0.0231    0.5048 N   0  0  0  0  0  0  0  0  0  0  0  0
   -4.5830   -0.2041    0.6784 N   0  0  0  0  0  0  0  0  0  0  0  0
   -1.6079    1.4699    0.4804 C   0  0  0  0  0  0  0  0  0  0  0  0
   -0.2449    1.6041    0.3263 C   0  0  0  0  0  0  0  0  0  0  0  0
    0.5678    0.4907    0.0210 C   0  0  0  0  0  0  0  0  0  0  0  0
    1.8758    0.7505   -0.1125 O   0  0  0  0  0  0  0  0  0  0  0  0
    2.7817   -0.3096   -0.4284 C   0  0  0  0  0  0  0  0  0  0  0  0
   -0.0006   -0.7952   -0.1235 C   0  0  0  0  0  0  0  0  0  0  0  0
   -1.3635   -0.9579    0.0370 C   0  0  0  0  0  0  0  0  0  0  0  0
   -2.3504    2.3962    0.7164 H   0  0  0  0  0  0  0  0  0  0  0  0
    0.2309    2.5732    0.4270 H   0  0  0  0  0  0  0  0  0  0  0  0
    3.7666    0.1531   -0.4789 H   0  0  0  0  0  0  0  0  0  0  0  0
    2.5398   -0.7598   -1.3972 H   0  0  0  0  0  0  0  0  0  0  0  0
    2.7780   -1.0783    0.3524 H   0  0  0  0  0  0  0  0  0  0  0  0
    0.6123   -1.6554   -0.3583 H   0  0  0  0  0  0  0  0  0  0  0  0
   -1.8238   -1.9344   -0.0688 H   0  0  0  0  0  0  0  0  0  0  0  0
   -4.7359    2.8489    0.0302 B   0  0  0  0  0  0  0  0  0  0  0  0
   -4.0262    2.0659   -0.9204 F   0  0  0  0  0  0  0  0  0  0  0  0
   -3.7594    3.3930    0.9279 F   0  0  0  0  0  0  0  0  0  0  0  0
   -5.4554    3.8453   -0.5739 F   0  0  0  0  0  0  0  0  0  0  0  0
   -5.5634    1.9736    0.7741 F   0  0  0  0  0  0  0  0  0  0  0  0
  1  4  1  0  0  0  0
  1  2  1  0  0  0  0
  2  3  1  0  0  0  0
  4 11  1  0  0  0  0
  5 12  1  0  0  0  0
  5  4  2  0  0  0  0
  6  5  1  0  0  0  0
  7  6  1  0  0  0  0
  8  7  1  0  0  0  0
  8 15  1  0  0  0  0
  9  6  2  0  0  0  0
  9 10  1  0  0  0  0
 10  1  2  0  0  0  0
 13  8  1  0  0  0  0
 14  8  1  0  0  0  0
 16  9  1  0  0  0  0
 17 10  1  0  0  0  0
 18 22  1  0  0  0  0
 18 20  1  0  0  0  0
 19 18  1  0  0  0  0
 21 18  1  0  0  0  0
M  RAD  2   2   2   3   3
M  END
