Coordinates from ORCA-job 4-MeOPhN2+~BF4-_B3LYPG-6-31G_dp-CH-Scan-d09-49-n800
 OpenBabel11261919343D

 22 20  0  0  0  0  0  0  0  0999 V2000
   -1.5761    0.1228   -0.0585 C   0  0  0  0  0  0  0  0  0  0  0  0
   -2.9531    0.1130   -0.0108 N   0  0  0  0  0  0  0  0  0  0  0  0
   -4.0735    0.1728    0.0262 N   0  0  0  0  0  0  0  0  0  0  0  0
   -1.0263    1.4254   -0.1151 C   0  0  0  0  0  0  0  0  0  0  0  0
    0.3792    1.3459   -0.1604 C   0  0  0  0  0  0  0  0  0  0  0  0
    1.1031    0.1440   -0.1489 C   0  0  0  0  0  0  0  0  0  0  0  0
    2.4531    0.2548   -0.1963 O   0  0  0  0  0  0  0  0  0  0  0  0
    3.2600   -0.9167   -0.1860 C   0  0  0  0  0  0  0  0  0  0  0  0
    0.4427   -1.1185   -0.0900 C   0  0  0  0  0  0  0  0  0  0  0  0
   -0.9306   -1.1431   -0.0432 C   0  0  0  0  0  0  0  0  0  0  0  0
   -4.3818    4.7261    0.4433 H   0  0  0  0  0  0  0  0  0  0  0  0
    0.9818    2.2542   -0.2073 H   0  0  0  0  0  0  0  0  0  0  0  0
    4.2925   -0.5672   -0.2275 H   0  0  0  0  0  0  0  0  0  0  0  0
    3.0603   -1.5529   -1.0570 H   0  0  0  0  0  0  0  0  0  0  0  0
    3.1143   -1.5002    0.7315 H   0  0  0  0  0  0  0  0  0  0  0  0
    1.0017   -2.0458   -0.0813 H   0  0  0  0  0  0  0  0  0  0  0  0
   -1.4807   -2.0802    0.0030 H   0  0  0  0  0  0  0  0  0  0  0  0
   -6.1227    2.9520    0.4012 B   0  0  0  0  0  0  0  0  0  0  0  0
   -5.2148    2.8275   -0.5693 F   0  0  0  0  0  0  0  0  0  0  0  0
   -5.1024    4.7958    1.0283 F   0  0  0  0  0  0  0  0  0  0  0  0
   -7.2863    3.5149    0.1303 F   0  0  0  0  0  0  0  0  0  0  0  0
   -5.9443    2.2953    1.5344 F   0  0  0  0  0  0  0  0  0  0  0  0
  1 10  1  0  0  0  0
  1  2  1  0  0  0  0
  2  3  1  0  0  0  0
  4  1  2  0  0  0  0
  5  6  2  0  0  0  0
  5  4  1  0  0  0  0
  6  9  1  0  0  0  0
  7  8  1  0  0  0  0
  7  6  1  0  0  0  0
  8 15  1  0  0  0  0
  9 16  1  0  0  0  0
  9 10  2  0  0  0  0
 10 17  1  0  0  0  0
 11 20  1  0  0  0  0
 12  5  1  0  0  0  0
 13  8  1  0  0  0  0
 14  8  1  0  0  0  0
 18 22  1  0  0  0  0
 19 18  1  0  0  0  0
 21 18  1  0  0  0  0
M  RAD  3   2   2   3   3   4   2
M  END
