Coordinates from ORCA-job 4-MeOPhN2+~BF4-_B3LYPG-6-31G_dp-CH-Scan-d09-49-n800
 OpenBabel11261919343D

 22 20  0  0  0  0  0  0  0  0999 V2000
   -1.8418    0.0420    0.0772 C   0  0  0  0  0  0  0  0  0  0  0  0
   -3.2077   -0.1034    0.1395 N   0  0  0  0  0  0  0  0  0  0  0  0
   -4.3254   -0.1757    0.1953 N   0  0  0  0  0  0  0  0  0  0  0  0
   -1.3849    1.3818    0.1407 C   0  0  0  0  0  0  0  0  0  0  0  0
    0.0169    1.4254    0.0690 C   0  0  0  0  0  0  0  0  0  0  0  0
    0.8352    0.2900   -0.0487 C   0  0  0  0  0  0  0  0  0  0  0  0
    2.1675    0.5165   -0.1046 O   0  0  0  0  0  0  0  0  0  0  0  0
    3.0685   -0.5791   -0.2239 C   0  0  0  0  0  0  0  0  0  0  0  0
    0.2768   -1.0189   -0.1040 C   0  0  0  0  0  0  0  0  0  0  0  0
   -1.0892   -1.1572   -0.0404 C   0  0  0  0  0  0  0  0  0  0  0  0
   -3.2871    3.7205    0.3609 H   0  0  0  0  0  0  0  0  0  0  0  0
    0.5418    2.3801    0.1039 H   0  0  0  0  0  0  0  0  0  0  0  0
    4.0668   -0.1412   -0.2459 H   0  0  0  0  0  0  0  0  0  0  0  0
    2.9008   -1.1400   -1.1514 H   0  0  0  0  0  0  0  0  0  0  0  0
    2.9917   -1.2593    0.6331 H   0  0  0  0  0  0  0  0  0  0  0  0
    0.9048   -1.8960   -0.1938 H   0  0  0  0  0  0  0  0  0  0  0  0
   -1.5611   -2.1359   -0.0793 H   0  0  0  0  0  0  0  0  0  0  0  0
   -5.6868    2.9693    0.3060 B   0  0  0  0  0  0  0  0  0  0  0  0
   -5.3232    2.4100   -0.8476 F   0  0  0  0  0  0  0  0  0  0  0  0
   -4.0598    4.2455    0.4166 F   0  0  0  0  0  0  0  0  0  0  0  0
   -6.5969    3.9307    0.3111 F   0  0  0  0  0  0  0  0  0  0  0  0
   -5.4105    2.3147    1.4329 F   0  0  0  0  0  0  0  0  0  0  0  0
  1  2  1  0  0  0  0
  1  4  1  0  0  0  0
  2  3  1  0  0  0  0
  5 12  1  0  0  0  0
  5  4  2  0  0  0  0
  6  5  1  0  0  0  0
  7  6  1  0  0  0  0
  8  7  1  0  0  0  0
  8 15  1  0  0  0  0
  9  6  2  0  0  0  0
  9 10  1  0  0  0  0
 10  1  2  0  0  0  0
 11 20  1  0  0  0  0
 13  8  1  0  0  0  0
 14  8  1  0  0  0  0
 16  9  1  0  0  0  0
 17 10  1  0  0  0  0
 18 21  1  0  0  0  0
 18 22  1  0  0  0  0
 19 18  1  0  0  0  0
M  RAD  3   2   2   3   3   4   2
M  END
