Coordinates from ORCA-job 4-MeOPhN2+~BF4-_B3LYPG-6-31G_dp-CH-Scan-d09-49-n800
 OpenBabel11261919343D

 22 20  0  0  0  0  0  0  0  0999 V2000
   -1.8453    0.0425    0.0767 C   0  0  0  0  0  0  0  0  0  0  0  0
   -3.2111   -0.1041    0.1388 N   0  0  0  0  0  0  0  0  0  0  0  0
   -4.3286   -0.1775    0.1939 N   0  0  0  0  0  0  0  0  0  0  0  0
   -1.3889    1.3825    0.1395 C   0  0  0  0  0  0  0  0  0  0  0  0
    0.0128    1.4271    0.0683 C   0  0  0  0  0  0  0  0  0  0  0  0
    0.8318    0.2921   -0.0487 C   0  0  0  0  0  0  0  0  0  0  0  0
    2.1639    0.5195   -0.1043 O   0  0  0  0  0  0  0  0  0  0  0  0
    3.0657   -0.5756   -0.2230 C   0  0  0  0  0  0  0  0  0  0  0  0
    0.2742   -1.0170   -0.1037 C   0  0  0  0  0  0  0  0  0  0  0  0
   -1.0918   -1.1562   -0.0403 C   0  0  0  0  0  0  0  0  0  0  0  0
   -3.2783    3.7058    0.3588 H   0  0  0  0  0  0  0  0  0  0  0  0
    0.5370    2.3822    0.1029 H   0  0  0  0  0  0  0  0  0  0  0  0
    4.0637   -0.1370   -0.2449 H   0  0  0  0  0  0  0  0  0  0  0  0
    2.8986   -1.1369   -1.1502 H   0  0  0  0  0  0  0  0  0  0  0  0
    2.9891   -1.2554    0.6343 H   0  0  0  0  0  0  0  0  0  0  0  0
    0.9027   -1.8938   -0.1930 H   0  0  0  0  0  0  0  0  0  0  0  0
   -1.5629   -2.1352   -0.0789 H   0  0  0  0  0  0  0  0  0  0  0  0
   -5.6786    2.9688    0.3067 B   0  0  0  0  0  0  0  0  0  0  0  0
   -5.3197    2.4073   -0.8477 F   0  0  0  0  0  0  0  0  0  0  0  0
   -4.0483    4.2352    0.4154 F   0  0  0  0  0  0  0  0  0  0  0  0
   -6.5853    3.9335    0.3130 F   0  0  0  0  0  0  0  0  0  0  0  0
   -5.4046    2.3119    1.4330 F   0  0  0  0  0  0  0  0  0  0  0  0
  1  2  1  0  0  0  0
  1  4  1  0  0  0  0
  2  3  1  0  0  0  0
  5 12  1  0  0  0  0
  5  4  2  0  0  0  0
  6  5  1  0  0  0  0
  7  6  1  0  0  0  0
  8  7  1  0  0  0  0
  8 15  1  0  0  0  0
  9  6  2  0  0  0  0
  9 10  1  0  0  0  0
 10  1  2  0  0  0  0
 11 20  1  0  0  0  0
 13  8  1  0  0  0  0
 14  8  1  0  0  0  0
 16  9  1  0  0  0  0
 17 10  1  0  0  0  0
 18 21  1  0  0  0  0
 18 22  1  0  0  0  0
 19 18  1  0  0  0  0
M  RAD  3   2   2   3   3   4   2
M  END
