Coordinates from ORCA-job 4-MeOPhN2+~BF4-_B3LYPG-6-31G_dp-CH-Scan-d09-49-n800
 OpenBabel11261919343D

 22 20  0  0  0  0  0  0  0  0999 V2000
   -2.1400    0.1149    0.2330 C   0  0  0  0  0  0  0  0  0  0  0  0
   -3.4870   -0.1066    0.3643 N   0  0  0  0  0  0  0  0  0  0  0  0
   -4.5827   -0.2768    0.4944 N   0  0  0  0  0  0  0  0  0  0  0  0
   -1.6542    1.4378    0.3539 C   0  0  0  0  0  0  0  0  0  0  0  0
   -0.2822    1.5753    0.2338 C   0  0  0  0  0  0  0  0  0  0  0  0
    0.5637    0.4710    0.0032 C   0  0  0  0  0  0  0  0  0  0  0  0
    1.8732    0.7504   -0.0937 O   0  0  0  0  0  0  0  0  0  0  0  0
    2.8092   -0.3027   -0.3284 C   0  0  0  0  0  0  0  0  0  0  0  0
    0.0304   -0.8359   -0.1131 C   0  0  0  0  0  0  0  0  0  0  0  0
   -1.3313   -1.0202    0.0037 C   0  0  0  0  0  0  0  0  0  0  0  0
   -2.5673    2.5430    0.5399 H   0  0  0  0  0  0  0  0  0  0  0  0
    0.1836    2.5529    0.3099 H   0  0  0  0  0  0  0  0  0  0  0  0
    3.7873    0.1763   -0.3604 H   0  0  0  0  0  0  0  0  0  0  0  0
    2.6157   -0.7994   -1.2857 H   0  0  0  0  0  0  0  0  0  0  0  0
    2.7898   -1.0388    0.4833 H   0  0  0  0  0  0  0  0  0  0  0  0
    0.6706   -1.6900   -0.2911 H   0  0  0  0  0  0  0  0  0  0  0  0
   -1.7703   -2.0092   -0.0797 H   0  0  0  0  0  0  0  0  0  0  0  0
   -4.7721    2.8927    0.1097 B   0  0  0  0  0  0  0  0  0  0  0  0
   -4.3897    2.1013   -0.9765 F   0  0  0  0  0  0  0  0  0  0  0  0
   -3.4881    3.4674    0.6429 F   0  0  0  0  0  0  0  0  0  0  0  0
   -5.5855    3.9307   -0.2254 F   0  0  0  0  0  0  0  0  0  0  0  0
   -5.2771    2.0855    1.1287 F   0  0  0  0  0  0  0  0  0  0  0  0
  1  4  1  0  0  0  0
  1  2  1  0  0  0  0
  2  3  1  0  0  0  0
  5 12  1  0  0  0  0
  5  4  2  0  0  0  0
  6  5  1  0  0  0  0
  7  6  1  0  0  0  0
  8  7  1  0  0  0  0
  8 15  1  0  0  0  0
  9  6  2  0  0  0  0
  9 10  1  0  0  0  0
 10  1  2  0  0  0  0
 11 20  1  0  0  0  0
 13  8  1  0  0  0  0
 14  8  1  0  0  0  0
 16  9  1  0  0  0  0
 17 10  1  0  0  0  0
 18 22  1  0  0  0  0
 19 18  1  0  0  0  0
 21 18  1  0  0  0  0
M  RAD  3   2   2   3   3   4   2
M  END
