Coordinates from ORCA-job 4-MeOPhN2+~BF4-_B3LYPG-6-31G_dp-CH-Scan-d09-49-n800
 OpenBabel11261919343D

 22 20  0  0  0  0  0  0  0  0999 V2000
   -1.8841    0.0444    0.0684 C   0  0  0  0  0  0  0  0  0  0  0  0
   -3.2478   -0.1150    0.1276 N   0  0  0  0  0  0  0  0  0  0  0  0
   -4.3642   -0.2010    0.1800 N   0  0  0  0  0  0  0  0  0  0  0  0
   -1.4346    1.3874    0.1296 C   0  0  0  0  0  0  0  0  0  0  0  0
   -0.0343    1.4446    0.0634 C   0  0  0  0  0  0  0  0  0  0  0  0
    0.7941    0.3153   -0.0481 C   0  0  0  0  0  0  0  0  0  0  0  0
    2.1238    0.5532   -0.0986 O   0  0  0  0  0  0  0  0  0  0  0  0
    3.0351   -0.5350   -0.2109 C   0  0  0  0  0  0  0  0  0  0  0  0
    0.2463   -0.9975   -0.1028 C   0  0  0  0  0  0  0  0  0  0  0  0
   -1.1190   -1.1468   -0.0440 C   0  0  0  0  0  0  0  0  0  0  0  0
   -3.1838    3.5486    0.3265 H   0  0  0  0  0  0  0  0  0  0  0  0
    0.4814    2.4039    0.0980 H   0  0  0  0  0  0  0  0  0  0  0  0
    4.0296   -0.0883   -0.2288 H   0  0  0  0  0  0  0  0  0  0  0  0
    2.8766   -1.0991   -1.1379 H   0  0  0  0  0  0  0  0  0  0  0  0
    2.9596   -1.2136    0.6474 H   0  0  0  0  0  0  0  0  0  0  0  0
    0.8812   -1.8699   -0.1885 H   0  0  0  0  0  0  0  0  0  0  0  0
   -1.5822   -2.1294   -0.0827 H   0  0  0  0  0  0  0  0  0  0  0  0
   -5.5818    2.9672    0.3191 B   0  0  0  0  0  0  0  0  0  0  0  0
   -5.2838    2.3657   -0.8355 F   0  0  0  0  0  0  0  0  0  0  0  0
   -3.9285    4.1187    0.3887 F   0  0  0  0  0  0  0  0  0  0  0  0
   -6.4501    3.9688    0.3282 F   0  0  0  0  0  0  0  0  0  0  0  0
   -5.3374    2.2974    1.4475 F   0  0  0  0  0  0  0  0  0  0  0  0
  1  2  1  0  0  0  0
  1  4  1  0  0  0  0
  2  3  1  0  0  0  0
  5 12  1  0  0  0  0
  5  4  2  0  0  0  0
  6  5  1  0  0  0  0
  7  6  1  0  0  0  0
  8  7  1  0  0  0  0
  8 15  1  0  0  0  0
  9  6  2  0  0  0  0
  9 10  1  0  0  0  0
 10  1  2  0  0  0  0
 11 20  1  0  0  0  0
 13  8  1  0  0  0  0
 14  8  1  0  0  0  0
 16  9  1  0  0  0  0
 17 10  1  0  0  0  0
 18 21  1  0  0  0  0
 18 22  1  0  0  0  0
 19 18  1  0  0  0  0
M  RAD  3   2   2   3   3   4   2
M  END
