Coordinates from ORCA-job 4-MeOPhN2+~BF4-_B3LYPG-6-31G_dp-CH-Scan-d09-49-n800
 OpenBabel11261919343D

 22 20  0  0  0  0  0  0  0  0999 V2000
   -1.7098    0.0460    0.0658 C   0  0  0  0  0  0  0  0  0  0  0  0
   -3.0809   -0.0469    0.1546 N   0  0  0  0  0  0  0  0  0  0  0  0
   -4.2005   -0.0619    0.2293 N   0  0  0  0  0  0  0  0  0  0  0  0
   -1.2262    1.3769    0.0749 C   0  0  0  0  0  0  0  0  0  0  0  0
    0.1786    1.3742   -0.0154 C   0  0  0  0  0  0  0  0  0  0  0  0
    0.9634    0.2137   -0.0994 C   0  0  0  0  0  0  0  0  0  0  0  0
    2.3031    0.3991   -0.1767 O   0  0  0  0  0  0  0  0  0  0  0  0
    3.1700   -0.7259   -0.2582 C   0  0  0  0  0  0  0  0  0  0  0  0
    0.3701   -1.0822   -0.1014 C   0  0  0  0  0  0  0  0  0  0  0  0
   -0.9981   -1.1811   -0.0172 C   0  0  0  0  0  0  0  0  0  0  0  0
   -3.7616    4.2622    0.4435 H   0  0  0  0  0  0  0  0  0  0  0  0
    0.7326    2.3139   -0.0219 H   0  0  0  0  0  0  0  0  0  0  0  0
    4.1812   -0.3197   -0.3025 H   0  0  0  0  0  0  0  0  0  0  0  0
    2.9806   -1.3181   -1.1619 H   0  0  0  0  0  0  0  0  0  0  0  0
    3.0793   -1.3705    0.6248 H   0  0  0  0  0  0  0  0  0  0  0  0
    0.9743   -1.9782   -0.1670 H   0  0  0  0  0  0  0  0  0  0  0  0
   -1.4979   -2.1469   -0.0151 H   0  0  0  0  0  0  0  0  0  0  0  0
   -5.9394    2.9850    0.2866 B   0  0  0  0  0  0  0  0  0  0  0  0
   -5.1086    2.5618   -0.6671 F   0  0  0  0  0  0  0  0  0  0  0  0
   -4.5544    4.5486    0.8394 F   0  0  0  0  0  0  0  0  0  0  0  0
   -6.9327    3.7978   -0.0291 F   0  0  0  0  0  0  0  0  0  0  0  0
   -5.9270    2.3719    1.4603 F   0  0  0  0  0  0  0  0  0  0  0  0
  1  4  1  0  0  0  0
  1  2  1  0  0  0  0
  2  3  1  0  0  0  0
  5  4  2  0  0  0  0
  6  5  1  0  0  0  0
  7  6  1  0  0  0  0
  8  7  1  0  0  0  0
  8 15  1  0  0  0  0
  9  6  2  0  0  0  0
  9 10  1  0  0  0  0
 10 17  1  0  0  0  0
 10  1  2  0  0  0  0
 11 20  1  0  0  0  0
 12  5  1  0  0  0  0
 13  8  1  0  0  0  0
 14  8  1  0  0  0  0
 16  9  1  0  0  0  0
 18 22  1  0  0  0  0
 19 18  1  0  0  0  0
 21 18  1  0  0  0  0
M  RAD  3   2   2   3   3   4   2
M  END
