Coordinates from ORCA-job 4-MeOPhN2+~BF4-_B3LYPG-6-31G_dp-CH-Scan-d09-49-n800
 OpenBabel11261919343D

 22 20  0  0  0  0  0  0  0  0999 V2000
   -2.0232    0.0576    0.0794 C   0  0  0  0  0  0  0  0  0  0  0  0
   -3.3789   -0.1514    0.1383 N   0  0  0  0  0  0  0  0  0  0  0  0
   -4.4880   -0.2930    0.1885 N   0  0  0  0  0  0  0  0  0  0  0  0
   -1.5904    1.4069    0.1322 C   0  0  0  0  0  0  0  0  0  0  0  0
   -0.1977    1.5069    0.0654 C   0  0  0  0  0  0  0  0  0  0  0  0
    0.6598    0.3971   -0.0408 C   0  0  0  0  0  0  0  0  0  0  0  0
    1.9792    0.6708   -0.0939 O   0  0  0  0  0  0  0  0  0  0  0  0
    2.9211   -0.3934   -0.2016 C   0  0  0  0  0  0  0  0  0  0  0  0
    0.1421   -0.9256   -0.0870 C   0  0  0  0  0  0  0  0  0  0  0  0
   -1.2201   -1.1067   -0.0264 C   0  0  0  0  0  0  0  0  0  0  0  0
   -2.8857    3.0103    0.2790 H   0  0  0  0  0  0  0  0  0  0  0  0
    0.2873    2.4808    0.0949 H   0  0  0  0  0  0  0  0  0  0  0  0
    3.9019    0.0814   -0.2245 H   0  0  0  0  0  0  0  0  0  0  0  0
    2.7747   -0.9661   -1.1249 H   0  0  0  0  0  0  0  0  0  0  0  0
    2.8649   -1.0670    0.6618 H   0  0  0  0  0  0  0  0  0  0  0  0
    0.7957   -1.7845   -0.1675 H   0  0  0  0  0  0  0  0  0  0  0  0
   -1.6576   -2.1006   -0.0588 H   0  0  0  0  0  0  0  0  0  0  0  0
   -5.1772    2.9570    0.3015 B   0  0  0  0  0  0  0  0  0  0  0  0
   -5.0898    2.2895   -0.8712 F   0  0  0  0  0  0  0  0  0  0  0  0
   -3.5675    3.7112    0.3470 F   0  0  0  0  0  0  0  0  0  0  0  0
   -5.9448    4.0513    0.3442 F   0  0  0  0  0  0  0  0  0  0  0  0
   -5.1094    2.1873    1.4111 F   0  0  0  0  0  0  0  0  0  0  0  0
  1  4  1  0  0  0  0
  1  2  1  0  0  0  0
  2  3  1  0  0  0  0
  5 12  1  0  0  0  0
  5  4  2  0  0  0  0
  6  5  1  0  0  0  0
  7  6  1  0  0  0  0
  8  7  1  0  0  0  0
  8 15  1  0  0  0  0
  9  6  2  0  0  0  0
  9 10  1  0  0  0  0
 10  1  2  0  0  0  0
 11 20  1  0  0  0  0
 13  8  1  0  0  0  0
 14  8  1  0  0  0  0
 16  9  1  0  0  0  0
 17 10  1  0  0  0  0
 18 21  1  0  0  0  0
 18 22  1  0  0  0  0
 19 18  1  0  0  0  0
M  RAD  3   2   2   3   3   4   2
M  END
