Coordinates from ORCA-job 4-MeOPhN2+~BF4-_B3LYPG-6-31G_dp-CH-Scan-d09-49-n800
 OpenBabel11261919343D

 22 20  0  0  0  0  0  0  0  0999 V2000
   -1.6072    0.0979    0.0321 C   0  0  0  0  0  0  0  0  0  0  0  0
   -2.9819    0.0645    0.1181 N   0  0  0  0  0  0  0  0  0  0  0  0
   -4.1014    0.1049    0.1890 N   0  0  0  0  0  0  0  0  0  0  0  0
   -1.0770    1.4098    0.0065 C   0  0  0  0  0  0  0  0  0  0  0  0
    0.3277    1.3524   -0.0793 C   0  0  0  0  0  0  0  0  0  0  0  0
    1.0684    0.1617   -0.1286 C   0  0  0  0  0  0  0  0  0  0  0  0
    2.4149    0.2941   -0.2072 O   0  0  0  0  0  0  0  0  0  0  0  0
    3.2383   -0.8649   -0.2539 C   0  0  0  0  0  0  0  0  0  0  0  0
    0.4274   -1.1116   -0.0966 C   0  0  0  0  0  0  0  0  0  0  0  0
   -0.9437   -1.1578   -0.0143 C   0  0  0  0  0  0  0  0  0  0  0  0
   -4.2114    4.6015    0.4905 H   0  0  0  0  0  0  0  0  0  0  0  0
    0.9163    2.2704   -0.1103 H   0  0  0  0  0  0  0  0  0  0  0  0
    4.2645   -0.4990   -0.3071 H   0  0  0  0  0  0  0  0  0  0  0  0
    3.0280   -1.4754   -1.1407 H   0  0  0  0  0  0  0  0  0  0  0  0
    3.1217   -1.4800    0.6469 H   0  0  0  0  0  0  0  0  0  0  0  0
    0.9989   -2.0305   -0.1353 H   0  0  0  0  0  0  0  0  0  0  0  0
   -1.4793   -2.1040    0.0131 H   0  0  0  0  0  0  0  0  0  0  0  0
   -6.0846    2.9673    0.3098 B   0  0  0  0  0  0  0  0  0  0  0  0
   -5.1067    2.7404   -0.5697 F   0  0  0  0  0  0  0  0  0  0  0  0
   -4.9816    4.7346    0.9960 F   0  0  0  0  0  0  0  0  0  0  0  0
   -7.1682    3.6143   -0.0800 F   0  0  0  0  0  0  0  0  0  0  0  0
   -6.0668    2.3291    1.4675 F   0  0  0  0  0  0  0  0  0  0  0  0
  1  2  1  0  0  0  0
  2  3  1  0  0  0  0
  4  1  1  0  0  0  0
  5  4  2  0  0  0  0
  6  9  2  0  0  0  0
  6  5  1  0  0  0  0
  7  6  1  0  0  0  0
  8  7  1  0  0  0  0
  8 15  1  0  0  0  0
  9 10  1  0  0  0  0
 10 17  1  0  0  0  0
 10  1  2  0  0  0  0
 11 20  1  0  0  0  0
 12  5  1  0  0  0  0
 13  8  1  0  0  0  0
 14  8  1  0  0  0  0
 16  9  1  0  0  0  0
 18 22  1  0  0  0  0
 19 18  1  0  0  0  0
 21 18  1  0  0  0  0
M  RAD  3   2   2   3   3   4   2
M  END
