Coordinates from ORCA-job 4-MeOPhN2+~BF4-_B3LYPG-6-31G_dp-CH-Scan-d09-49-n800
 OpenBabel11261919343D

 22 20  0  0  0  0  0  0  0  0999 V2000
   -1.8743    0.0427    0.0744 C   0  0  0  0  0  0  0  0  0  0  0  0
   -3.2384   -0.1136    0.1364 N   0  0  0  0  0  0  0  0  0  0  0  0
   -4.3551   -0.1958    0.1909 N   0  0  0  0  0  0  0  0  0  0  0  0
   -1.4236    1.3853    0.1360 C   0  0  0  0  0  0  0  0  0  0  0  0
   -0.0230    1.4396    0.0668 C   0  0  0  0  0  0  0  0  0  0  0  0
    0.8033    0.3092   -0.0478 C   0  0  0  0  0  0  0  0  0  0  0  0
    2.1335    0.5449   -0.1013 O   0  0  0  0  0  0  0  0  0  0  0  0
    3.0426   -0.5446   -0.2170 C   0  0  0  0  0  0  0  0  0  0  0  0
    0.2534   -1.0028   -0.1025 C   0  0  0  0  0  0  0  0  0  0  0  0
   -1.1120   -1.1501   -0.0407 C   0  0  0  0  0  0  0  0  0  0  0  0
   -3.2063    3.5897    0.3411 H   0  0  0  0  0  0  0  0  0  0  0  0
    0.4947    2.3980    0.1011 H   0  0  0  0  0  0  0  0  0  0  0  0
    4.0378   -0.0996   -0.2372 H   0  0  0  0  0  0  0  0  0  0  0  0
    2.8808   -1.1076   -1.1442 H   0  0  0  0  0  0  0  0  0  0  0  0
    2.9682   -1.2240    0.6408 H   0  0  0  0  0  0  0  0  0  0  0  0
    0.8869   -1.8760   -0.1902 H   0  0  0  0  0  0  0  0  0  0  0  0
   -1.5769   -2.1319   -0.0792 H   0  0  0  0  0  0  0  0  0  0  0  0
   -5.6072    2.9676    0.3094 B   0  0  0  0  0  0  0  0  0  0  0  0
   -5.2879    2.3837   -0.8475 F   0  0  0  0  0  0  0  0  0  0  0  0
   -3.9572    4.1498    0.4020 F   0  0  0  0  0  0  0  0  0  0  0  0
   -6.4851    3.9600    0.3206 F   0  0  0  0  0  0  0  0  0  0  0  0
   -5.3581    2.2952    1.4344 F   0  0  0  0  0  0  0  0  0  0  0  0
  1  4  1  0  0  0  0
  1  2  1  0  0  0  0
  2  3  1  0  0  0  0
  5 12  1  0  0  0  0
  5  4  2  0  0  0  0
  6  5  1  0  0  0  0
  7  6  1  0  0  0  0
  8  7  1  0  0  0  0
  8 15  1  0  0  0  0
  9  6  2  0  0  0  0
  9 10  1  0  0  0  0
 10  1  2  0  0  0  0
 11 20  1  0  0  0  0
 13  8  1  0  0  0  0
 14  8  1  0  0  0  0
 16  9  1  0  0  0  0
 17 10  1  0  0  0  0
 18 21  1  0  0  0  0
 18 22  1  0  0  0  0
 19 18  1  0  0  0  0
M  RAD  3   2   2   3   3   4   2
M  END
