Coordinates from ORCA-job 4-MeOPhN2+~BF4-_B3LYPG-6-31G_dp-CH-Scan-d09-49-n800
 OpenBabel11261919343D

 22 20  0  0  0  0  0  0  0  0999 V2000
   -1.8600    0.0423    0.0758 C   0  0  0  0  0  0  0  0  0  0  0  0
   -3.2252   -0.1084    0.1382 N   0  0  0  0  0  0  0  0  0  0  0  0
   -4.3425   -0.1838    0.1922 N   0  0  0  0  0  0  0  0  0  0  0  0
   -1.4067    1.3835    0.1381 C   0  0  0  0  0  0  0  0  0  0  0  0
   -0.0056    1.4336    0.0679 C   0  0  0  0  0  0  0  0  0  0  0  0
    0.8172    0.3010   -0.0480 C   0  0  0  0  0  0  0  0  0  0  0  0
    2.1483    0.5327   -0.1026 O   0  0  0  0  0  0  0  0  0  0  0  0
    3.0539   -0.5595   -0.2200 C   0  0  0  0  0  0  0  0  0  0  0  0
    0.2636   -1.0096   -0.1031 C   0  0  0  0  0  0  0  0  0  0  0  0
   -1.1021   -1.1533   -0.0405 C   0  0  0  0  0  0  0  0  0  0  0  0
   -3.2411    3.6424    0.3483 H   0  0  0  0  0  0  0  0  0  0  0  0
    0.5151    2.3905    0.1025 H   0  0  0  0  0  0  0  0  0  0  0  0
    4.0505   -0.1176   -0.2410 H   0  0  0  0  0  0  0  0  0  0  0  0
    2.8895   -1.1215   -1.1473 H   0  0  0  0  0  0  0  0  0  0  0  0
    2.9785   -1.2393    0.6375 H   0  0  0  0  0  0  0  0  0  0  0  0
    0.8948   -1.8845   -0.1917 H   0  0  0  0  0  0  0  0  0  0  0  0
   -1.5699   -2.1338   -0.0791 H   0  0  0  0  0  0  0  0  0  0  0  0
   -5.6428    2.9684    0.3081 B   0  0  0  0  0  0  0  0  0  0  0  0
   -5.3045    2.3957   -0.8479 F   0  0  0  0  0  0  0  0  0  0  0  0
   -3.9998    4.1898    0.4080 F   0  0  0  0  0  0  0  0  0  0  0  0
   -6.5342    3.9480    0.3178 F   0  0  0  0  0  0  0  0  0  0  0  0
   -5.3809    2.3032    1.4335 F   0  0  0  0  0  0  0  0  0  0  0  0
  1  4  1  0  0  0  0
  1  2  1  0  0  0  0
  2  3  1  0  0  0  0
  5 12  1  0  0  0  0
  5  4  2  0  0  0  0
  6  5  1  0  0  0  0
  7  6  1  0  0  0  0
  8  7  1  0  0  0  0
  8 15  1  0  0  0  0
  9  6  2  0  0  0  0
  9 10  1  0  0  0  0
 10  1  2  0  0  0  0
 11 20  1  0  0  0  0
 13  8  1  0  0  0  0
 14  8  1  0  0  0  0
 16  9  1  0  0  0  0
 17 10  1  0  0  0  0
 18 21  1  0  0  0  0
 18 22  1  0  0  0  0
 19 18  1  0  0  0  0
M  RAD  3   2   2   3   3   4   2
M  END
