Coordinates from ORCA-job 4-MeOPhN2+~BF4-_B3LYPG-6-31G_dp-CH-Scan-d09-49-n800
 OpenBabel11261919343D

 22 20  0  0  0  0  0  0  0  0999 V2000
   -1.9437    0.0490    0.0989 C   0  0  0  0  0  0  0  0  0  0  0  0
   -3.3032   -0.1337    0.1703 N   0  0  0  0  0  0  0  0  0  0  0  0
   -4.4156   -0.2511    0.2322 N   0  0  0  0  0  0  0  0  0  0  0  0
   -1.5018    1.3944    0.1637 C   0  0  0  0  0  0  0  0  0  0  0  0
   -0.1052    1.4717    0.0853 C   0  0  0  0  0  0  0  0  0  0  0  0
    0.7352    0.3521   -0.0410 C   0  0  0  0  0  0  0  0  0  0  0  0
    2.0600    0.6064   -0.1022 O   0  0  0  0  0  0  0  0  0  0  0  0
    2.9839   -0.4704   -0.2295 C   0  0  0  0  0  0  0  0  0  0  0  0
    0.2006   -0.9650   -0.0986 C   0  0  0  0  0  0  0  0  0  0  0  0
   -1.1626   -1.1297   -0.0279 C   0  0  0  0  0  0  0  0  0  0  0  0
   -3.0507    3.2984    0.3553 H   0  0  0  0  0  0  0  0  0  0  0  0
    0.3974    2.4373    0.1212 H   0  0  0  0  0  0  0  0  0  0  0  0
    3.9723   -0.0110   -0.2537 H   0  0  0  0  0  0  0  0  0  0  0  0
    2.8233   -1.0302   -1.1585 H   0  0  0  0  0  0  0  0  0  0  0  0
    2.9240   -1.1544    0.6256 H   0  0  0  0  0  0  0  0  0  0  0  0
    0.8434   -1.8304   -0.1954 H   0  0  0  0  0  0  0  0  0  0  0  0
   -1.6144   -2.1173   -0.0682 H   0  0  0  0  0  0  0  0  0  0  0  0
   -5.4102    2.9705    0.2734 B   0  0  0  0  0  0  0  0  0  0  0  0
   -5.1451    2.3324   -0.8772 F   0  0  0  0  0  0  0  0  0  0  0  0
   -3.7631    3.9250    0.4189 F   0  0  0  0  0  0  0  0  0  0  0  0
   -6.2210    4.0245    0.2532 F   0  0  0  0  0  0  0  0  0  0  0  0
   -5.3073    2.2512    1.4004 F   0  0  0  0  0  0  0  0  0  0  0  0
  1  4  1  0  0  0  0
  1  2  1  0  0  0  0
  2  3  1  0  0  0  0
  5 12  1  0  0  0  0
  5  4  2  0  0  0  0
  6  5  1  0  0  0  0
  7  6  1  0  0  0  0
  8  7  1  0  0  0  0
  8 15  1  0  0  0  0
  9  6  2  0  0  0  0
  9 10  1  0  0  0  0
 10  1  2  0  0  0  0
 11 20  1  0  0  0  0
 13  8  1  0  0  0  0
 14  8  1  0  0  0  0
 16  9  1  0  0  0  0
 17 10  1  0  0  0  0
 18 22  1  0  0  0  0
 19 18  1  0  0  0  0
 21 18  1  0  0  0  0
M  RAD  3   2   2   3   3   4   2
M  END
