Coordinates from ORCA-job 4-MeOPhN2+~BF4-_B3LYPG-6-31G_dp-CH-Scan-d09-49-n800
 OpenBabel11261919343D

 22 20  0  0  0  0  0  0  0  0999 V2000
   -1.8314    0.0410    0.0794 C   0  0  0  0  0  0  0  0  0  0  0  0
   -3.1978   -0.1003    0.1427 N   0  0  0  0  0  0  0  0  0  0  0  0
   -4.3158   -0.1681    0.1987 N   0  0  0  0  0  0  0  0  0  0  0  0
   -1.3728    1.3803    0.1433 C   0  0  0  0  0  0  0  0  0  0  0  0
    0.0293    1.4205    0.0703 C   0  0  0  0  0  0  0  0  0  0  0  0
    0.8452    0.2836   -0.0491 C   0  0  0  0  0  0  0  0  0  0  0  0
    2.1781    0.5073   -0.1063 O   0  0  0  0  0  0  0  0  0  0  0  0
    3.0765   -0.5900   -0.2273 C   0  0  0  0  0  0  0  0  0  0  0  0
    0.2843   -1.0243   -0.1046 C   0  0  0  0  0  0  0  0  0  0  0  0
   -1.0819   -1.1600   -0.0397 C   0  0  0  0  0  0  0  0  0  0  0  0
   -3.3141    3.7641    0.3711 H   0  0  0  0  0  0  0  0  0  0  0  0
    0.5566    2.3741    0.1052 H   0  0  0  0  0  0  0  0  0  0  0  0
    4.0758   -0.1542   -0.2503 H   0  0  0  0  0  0  0  0  0  0  0  0
    2.9066   -1.1500   -1.1549 H   0  0  0  0  0  0  0  0  0  0  0  0
    2.9994   -1.2706    0.6293 H   0  0  0  0  0  0  0  0  0  0  0  0
    0.9106   -1.9025   -0.1955 H   0  0  0  0  0  0  0  0  0  0  0  0
   -1.5559   -2.1377   -0.0787 H   0  0  0  0  0  0  0  0  0  0  0  0
   -5.7110    2.9698    0.3028 B   0  0  0  0  0  0  0  0  0  0  0  0
   -5.3292    2.4188   -0.8483 F   0  0  0  0  0  0  0  0  0  0  0  0
   -4.0946    4.2763    0.4244 F   0  0  0  0  0  0  0  0  0  0  0  0
   -6.6322    3.9201    0.3025 F   0  0  0  0  0  0  0  0  0  0  0  0
   -5.4298    2.3215    1.4315 F   0  0  0  0  0  0  0  0  0  0  0  0
  1  2  1  0  0  0  0
  1  4  1  0  0  0  0
  2  3  1  0  0  0  0
  5 12  1  0  0  0  0
  5  4  2  0  0  0  0
  6  5  1  0  0  0  0
  7  6  1  0  0  0  0
  8  7  1  0  0  0  0
  8 15  1  0  0  0  0
  9  6  2  0  0  0  0
  9 10  1  0  0  0  0
 10  1  2  0  0  0  0
 11 20  1  0  0  0  0
 13  8  1  0  0  0  0
 14  8  1  0  0  0  0
 16  9  1  0  0  0  0
 17 10  1  0  0  0  0
 18 22  1  0  0  0  0
 19 18  1  0  0  0  0
 21 18  1  0  0  0  0
M  RAD  3   2   2   3   3   4   2
M  END
