Coordinates from ORCA-job 4-MeOPhN2+~BF4-_B3LYPG-6-31G_dp-CH-Scan-d09-49-n800
 OpenBabel11261919343D

 22 21  0  0  0  0  0  0  0  0999 V2000
   -2.1458    0.1465    0.2990 C   0  0  0  0  0  0  0  0  0  0  0  0
   -3.4919   -0.0606    0.4602 N   0  0  0  0  0  0  0  0  0  0  0  0
   -4.5827   -0.2357    0.6215 N   0  0  0  0  0  0  0  0  0  0  0  0
   -1.6258    1.4522    0.4439 C   0  0  0  0  0  0  0  0  0  0  0  0
   -0.2604    1.5912    0.3018 C   0  0  0  0  0  0  0  0  0  0  0  0
    0.5653    0.4825    0.0176 C   0  0  0  0  0  0  0  0  0  0  0  0
    1.8737    0.7508   -0.1019 O   0  0  0  0  0  0  0  0  0  0  0  0
    2.7917   -0.3047   -0.3955 C   0  0  0  0  0  0  0  0  0  0  0  0
    0.0108   -0.8112   -0.1241 C   0  0  0  0  0  0  0  0  0  0  0  0
   -1.3514   -0.9843    0.0204 C   0  0  0  0  0  0  0  0  0  0  0  0
   -2.4638    2.4675    0.6689 H   0  0  0  0  0  0  0  0  0  0  0  0
    0.2107    2.5636    0.3974 H   0  0  0  0  0  0  0  0  0  0  0  0
    3.7737    0.1650   -0.4368 H   0  0  0  0  0  0  0  0  0  0  0  0
    2.5671   -0.7662   -1.3632 H   0  0  0  0  0  0  0  0  0  0  0  0
    2.7836   -1.0666    0.3921 H   0  0  0  0  0  0  0  0  0  0  0  0
    0.6349   -1.6674   -0.3436 H   0  0  0  0  0  0  0  0  0  0  0  0
   -1.8025   -1.9656   -0.0821 H   0  0  0  0  0  0  0  0  0  0  0  0
   -4.7393    2.8656    0.0505 B   0  0  0  0  0  0  0  0  0  0  0  0
   -4.1463    2.0635   -0.9485 F   0  0  0  0  0  0  0  0  0  0  0  0
   -3.6381    3.4307    0.8225 F   0  0  0  0  0  0  0  0  0  0  0  0
   -5.5004    3.8725   -0.4726 F   0  0  0  0  0  0  0  0  0  0  0  0
   -5.4669    2.0306    0.9187 F   0  0  0  0  0  0  0  0  0  0  0  0
  1  4  1  0  0  0  0
  1  2  1  0  0  0  0
  2  3  1  0  0  0  0
  4 11  1  0  0  0  0
  5 12  1  0  0  0  0
  5  4  2  0  0  0  0
  6  5  1  0  0  0  0
  7  6  1  0  0  0  0
  8  7  1  0  0  0  0
  8 15  1  0  0  0  0
  9  6  2  0  0  0  0
  9 10  1  0  0  0  0
 10  1  2  0  0  0  0
 13  8  1  0  0  0  0
 14  8  1  0  0  0  0
 16  9  1  0  0  0  0
 17 10  1  0  0  0  0
 18 20  1  0  0  0  0
 18 22  1  0  0  0  0
 19 18  1  0  0  0  0
 21 18  1  0  0  0  0
M  RAD  2   2   2   3   3
M  END
