Coordinates from ORCA-job 4-MeOPhN2+~BF4-_B3LYPG-6-31G_dp-CH-Scan-d09-49-n800
 OpenBabel11261919343D

 22 21  0  0  0  0  0  0  0  0999 V2000
   -2.1456    0.1298    0.2558 C   0  0  0  0  0  0  0  0  0  0  0  0
   -3.4918   -0.0864    0.4022 N   0  0  0  0  0  0  0  0  0  0  0  0
   -4.5846   -0.2593    0.5502 N   0  0  0  0  0  0  0  0  0  0  0  0
   -1.6429    1.4442    0.3897 C   0  0  0  0  0  0  0  0  0  0  0  0
   -0.2741    1.5832    0.2626 C   0  0  0  0  0  0  0  0  0  0  0  0
    0.5631    0.4766    0.0086 C   0  0  0  0  0  0  0  0  0  0  0  0
    1.8725    0.7505   -0.0937 O   0  0  0  0  0  0  0  0  0  0  0  0
    2.8013   -0.3042   -0.3520 C   0  0  0  0  0  0  0  0  0  0  0  0
    0.0198   -0.8238   -0.1234 C   0  0  0  0  0  0  0  0  0  0  0  0
   -1.3425   -1.0026    0.0030 C   0  0  0  0  0  0  0  0  0  0  0  0
   -2.5172    2.5065    0.5919 H   0  0  0  0  0  0  0  0  0  0  0  0
    0.1932    2.5586    0.3499 H   0  0  0  0  0  0  0  0  0  0  0  0
    3.7817    0.1699   -0.3816 H   0  0  0  0  0  0  0  0  0  0  0  0
    2.5986   -0.7829   -1.3163 H   0  0  0  0  0  0  0  0  0  0  0  0
    2.7818   -1.0536    0.4474 H   0  0  0  0  0  0  0  0  0  0  0  0
    0.6528   -1.6789   -0.3209 H   0  0  0  0  0  0  0  0  0  0  0  0
   -1.7869   -1.9880   -0.0917 H   0  0  0  0  0  0  0  0  0  0  0  0
   -4.7509    2.8811    0.0886 B   0  0  0  0  0  0  0  0  0  0  0  0
   -4.2819    2.0748   -0.9618 F   0  0  0  0  0  0  0  0  0  0  0  0
   -3.5443    3.4711    0.7068 F   0  0  0  0  0  0  0  0  0  0  0  0
   -5.5678    3.8882   -0.3337 F   0  0  0  0  0  0  0  0  0  0  0  0
   -5.3380    2.0648    1.0649 F   0  0  0  0  0  0  0  0  0  0  0  0
  1  4  2  0  0  0  0
  1  2  1  0  0  0  0
  2  3  1  0  0  0  0
  4 11  1  0  0  0  0
  5 12  1  0  0  0  0
  5  4  1  0  0  0  0
  6  5  2  0  0  0  0
  7  6  1  0  0  0  0
  8  7  1  0  0  0  0
  8 15  1  0  0  0  0
  9 10  2  0  0  0  0
  9  6  1  0  0  0  0
 10  1  1  0  0  0  0
 13  8  1  0  0  0  0
 14  8  1  0  0  0  0
 16  9  1  0  0  0  0
 17 10  1  0  0  0  0
 18 20  1  0  0  0  0
 18 22  1  0  0  0  0
 19 18  1  0  0  0  0
 21 18  1  0  0  0  0
M  RAD  2   2   2   3   3
M  END
