Coordinates from ORCA-job 4-MeOPhN2+~BF4-_B3LYPG-6-31G_dp-CH-Scan-d09-49-n800
 OpenBabel11261919343D

 22 20  0  0  0  0  0  0  0  0999 V2000
   -1.7201    0.0419    0.0704 C   0  0  0  0  0  0  0  0  0  0  0  0
   -3.0905   -0.0560    0.1597 N   0  0  0  0  0  0  0  0  0  0  0  0
   -4.2100   -0.0746    0.2352 N   0  0  0  0  0  0  0  0  0  0  0  0
   -1.2405    1.3744    0.0822 C   0  0  0  0  0  0  0  0  0  0  0  0
    0.1640    1.3767   -0.0093 C   0  0  0  0  0  0  0  0  0  0  0  0
    0.9527    0.2190   -0.0968 C   0  0  0  0  0  0  0  0  0  0  0  0
    2.2916    0.4091   -0.1749 O   0  0  0  0  0  0  0  0  0  0  0  0
    3.1622   -0.7128   -0.2600 C   0  0  0  0  0  0  0  0  0  0  0  0
    0.3637   -1.0788   -0.1013 C   0  0  0  0  0  0  0  0  0  0  0  0
   -1.0041   -1.1824   -0.0160 C   0  0  0  0  0  0  0  0  0  0  0  0
   -3.7233    4.2265    0.4441 H   0  0  0  0  0  0  0  0  0  0  0  0
    0.7148    2.3182   -0.0140 H   0  0  0  0  0  0  0  0  0  0  0  0
    4.1719   -0.3029   -0.3044 H   0  0  0  0  0  0  0  0  0  0  0  0
    2.9739   -1.3033   -1.1650 H   0  0  0  0  0  0  0  0  0  0  0  0
    3.0747   -1.3598    0.6215 H   0  0  0  0  0  0  0  0  0  0  0  0
    0.9708   -1.9726   -0.1694 H   0  0  0  0  0  0  0  0  0  0  0  0
   -1.5007   -2.1499   -0.0158 H   0  0  0  0  0  0  0  0  0  0  0  0
   -5.9211    2.9853    0.2817 B   0  0  0  0  0  0  0  0  0  0  0  0
   -5.1001    2.5481   -0.6742 F   0  0  0  0  0  0  0  0  0  0  0  0
   -4.5159    4.5293    0.8283 F   0  0  0  0  0  0  0  0  0  0  0  0
   -6.9048    3.8104   -0.0319 F   0  0  0  0  0  0  0  0  0  0  0  0
   -5.9131    2.3737    1.4564 F   0  0  0  0  0  0  0  0  0  0  0  0
  1  4  1  0  0  0  0
  1  2  1  0  0  0  0
  2  3  1  0  0  0  0
  5  4  2  0  0  0  0
  6  5  1  0  0  0  0
  7  6  1  0  0  0  0
  8  7  1  0  0  0  0
  8 15  1  0  0  0  0
  9  6  2  0  0  0  0
  9 10  1  0  0  0  0
 10 17  1  0  0  0  0
 10  1  2  0  0  0  0
 11 20  1  0  0  0  0
 12  5  1  0  0  0  0
 13  8  1  0  0  0  0
 14  8  1  0  0  0  0
 16  9  1  0  0  0  0
 18 22  1  0  0  0  0
 19 18  1  0  0  0  0
 21 18  1  0  0  0  0
M  RAD  3   2   2   3   3   4   2
M  END
