Coordinates from ORCA-job 4-MeOPhN2+~BF4-_B3LYPG-6-31G_dp-CH-Scan-d09-49-n800
 OpenBabel11261919343D

 22 20  0  0  0  0  0  0  0  0999 V2000
   -2.0180    0.0567    0.0802 C   0  0  0  0  0  0  0  0  0  0  0  0
   -3.3739   -0.1506    0.1396 N   0  0  0  0  0  0  0  0  0  0  0  0
   -4.4834   -0.2902    0.1903 N   0  0  0  0  0  0  0  0  0  0  0  0
   -1.5849    1.4059    0.1333 C   0  0  0  0  0  0  0  0  0  0  0  0
   -0.1919    1.5044    0.0660 C   0  0  0  0  0  0  0  0  0  0  0  0
    0.6647    0.3941   -0.0410 C   0  0  0  0  0  0  0  0  0  0  0  0
    1.9844    0.6667   -0.0946 O   0  0  0  0  0  0  0  0  0  0  0  0
    2.9253   -0.3982   -0.2030 C   0  0  0  0  0  0  0  0  0  0  0  0
    0.1461   -0.9283   -0.0875 C   0  0  0  0  0  0  0  0  0  0  0  0
   -1.2161   -1.1086   -0.0265 C   0  0  0  0  0  0  0  0  0  0  0  0
   -2.8959    3.0286    0.2830 H   0  0  0  0  0  0  0  0  0  0  0  0
    0.2942    2.4779    0.0956 H   0  0  0  0  0  0  0  0  0  0  0  0
    3.9066    0.0757   -0.2261 H   0  0  0  0  0  0  0  0  0  0  0  0
    2.7783   -0.9705   -1.1265 H   0  0  0  0  0  0  0  0  0  0  0  0
    2.8690   -1.0721    0.6602 H   0  0  0  0  0  0  0  0  0  0  0  0
    0.7992   -1.7876   -0.1687 H   0  0  0  0  0  0  0  0  0  0  0  0
   -1.6545   -2.1022   -0.0590 H   0  0  0  0  0  0  0  0  0  0  0  0
   -5.1938    2.9583    0.3005 B   0  0  0  0  0  0  0  0  0  0  0  0
   -5.0957    2.2927   -0.8714 F   0  0  0  0  0  0  0  0  0  0  0  0
   -3.5787    3.7243    0.3510 F   0  0  0  0  0  0  0  0  0  0  0  0
   -5.9625    4.0511    0.3401 F   0  0  0  0  0  0  0  0  0  0  0  0
   -5.1224    2.1917    1.4109 F   0  0  0  0  0  0  0  0  0  0  0  0
  1  4  1  0  0  0  0
  1  2  1  0  0  0  0
  2  3  1  0  0  0  0
  5 12  1  0  0  0  0
  5  4  2  0  0  0  0
  6  5  1  0  0  0  0
  7  6  1  0  0  0  0
  8  7  1  0  0  0  0
  8 15  1  0  0  0  0
  9  6  2  0  0  0  0
  9 10  1  0  0  0  0
 10  1  2  0  0  0  0
 11 20  1  0  0  0  0
 13  8  1  0  0  0  0
 14  8  1  0  0  0  0
 16  9  1  0  0  0  0
 17 10  1  0  0  0  0
 18 21  1  0  0  0  0
 18 22  1  0  0  0  0
 19 18  1  0  0  0  0
M  RAD  3   2   2   3   3   4   2
M  END
