Coordinates from ORCA-job 4-MeOPhN2+~BF4-_B3LYPG-6-31G_dp-CH-Scan-d09-49-n800
 OpenBabel11261919343D

 22 20  0  0  0  0  0  0  0  0999 V2000
   -1.9154    0.0466    0.0836 C   0  0  0  0  0  0  0  0  0  0  0  0
   -3.2767   -0.1266    0.1496 N   0  0  0  0  0  0  0  0  0  0  0  0
   -4.3909   -0.2305    0.2104 N   0  0  0  0  0  0  0  0  0  0  0  0
   -1.4702    1.3909    0.1480 C   0  0  0  0  0  0  0  0  0  0  0  0
   -0.0717    1.4584    0.0759 C   0  0  0  0  0  0  0  0  0  0  0  0
    0.7632    0.3344   -0.0440 C   0  0  0  0  0  0  0  0  0  0  0  0
    2.0905    0.5810   -0.0989 O   0  0  0  0  0  0  0  0  0  0  0  0
    3.0085   -0.5012   -0.2190 C   0  0  0  0  0  0  0  0  0  0  0  0
    0.2225   -0.9806   -0.1019 C   0  0  0  0  0  0  0  0  0  0  0  0
   -1.1417   -1.1381   -0.0374 C   0  0  0  0  0  0  0  0  0  0  0  0
   -3.1100    3.4224    0.3313 H   0  0  0  0  0  0  0  0  0  0  0  0
    0.4372    2.4210    0.1122 H   0  0  0  0  0  0  0  0  0  0  0  0
    3.9999   -0.0480   -0.2385 H   0  0  0  0  0  0  0  0  0  0  0  0
    2.8500   -1.0621   -1.1478 H   0  0  0  0  0  0  0  0  0  0  0  0
    2.9400   -1.1835    0.6369 H   0  0  0  0  0  0  0  0  0  0  0  0
    0.8617   -1.8493   -0.1943 H   0  0  0  0  0  0  0  0  0  0  0  0
   -1.5989   -2.1233   -0.0782 H   0  0  0  0  0  0  0  0  0  0  0  0
   -5.4967    2.9677    0.2968 B   0  0  0  0  0  0  0  0  0  0  0  0
   -5.2186    2.3495   -0.8571 F   0  0  0  0  0  0  0  0  0  0  0  0
   -3.8373    4.0213    0.3989 F   0  0  0  0  0  0  0  0  0  0  0  0
   -6.3335    3.9982    0.2960 F   0  0  0  0  0  0  0  0  0  0  0  0
   -5.3161    2.2715    1.4242 F   0  0  0  0  0  0  0  0  0  0  0  0
  1  4  1  0  0  0  0
  1  2  1  0  0  0  0
  2  3  1  0  0  0  0
  5 12  1  0  0  0  0
  5  4  2  0  0  0  0
  6  5  1  0  0  0  0
  7  6  1  0  0  0  0
  8  7  1  0  0  0  0
  8 15  1  0  0  0  0
  9  6  2  0  0  0  0
  9 10  1  0  0  0  0
 10  1  2  0  0  0  0
 11 20  1  0  0  0  0
 13  8  1  0  0  0  0
 14  8  1  0  0  0  0
 16  9  1  0  0  0  0
 17 10  1  0  0  0  0
 18 22  1  0  0  0  0
 19 18  1  0  0  0  0
 21 18  1  0  0  0  0
M  RAD  3   2   2   3   3   4   2
M  END
