Coordinates from ORCA-job 4-MeOPhN2+~BF4-_B3LYPG-6-31G_dp-CH-Scan-d09-49-n800
 OpenBabel11261919343D

 22 20  0  0  0  0  0  0  0  0999 V2000
   -1.8658    0.0423    0.0755 C   0  0  0  0  0  0  0  0  0  0  0  0
   -3.2306   -0.1108    0.1378 N   0  0  0  0  0  0  0  0  0  0  0  0
   -4.3477   -0.1888    0.1915 N   0  0  0  0  0  0  0  0  0  0  0  0
   -1.4136    1.3839    0.1375 C   0  0  0  0  0  0  0  0  0  0  0  0
   -0.0127    1.4360    0.0676 C   0  0  0  0  0  0  0  0  0  0  0  0
    0.8116    0.3043   -0.0479 C   0  0  0  0  0  0  0  0  0  0  0  0
    2.1423    0.5377   -0.1021 O   0  0  0  0  0  0  0  0  0  0  0  0
    3.0493   -0.5534   -0.2190 C   0  0  0  0  0  0  0  0  0  0  0  0
    0.2595   -1.0069   -0.1027 C   0  0  0  0  0  0  0  0  0  0  0  0
   -1.1060   -1.1521   -0.0404 C   0  0  0  0  0  0  0  0  0  0  0  0
   -3.2265    3.6217    0.3458 H   0  0  0  0  0  0  0  0  0  0  0  0
    0.5067    2.3935    0.1020 H   0  0  0  0  0  0  0  0  0  0  0  0
    4.0453   -0.1103   -0.2397 H   0  0  0  0  0  0  0  0  0  0  0  0
    2.8859   -1.1158   -1.1462 H   0  0  0  0  0  0  0  0  0  0  0  0
    2.9745   -1.2330    0.6386 H   0  0  0  0  0  0  0  0  0  0  0  0
    0.8917   -1.8811   -0.1911 H   0  0  0  0  0  0  0  0  0  0  0  0
   -1.5726   -2.1332   -0.0789 H   0  0  0  0  0  0  0  0  0  0  0  0
   -5.6288    2.9679    0.3084 B   0  0  0  0  0  0  0  0  0  0  0  0
   -5.2977    2.3911   -0.8481 F   0  0  0  0  0  0  0  0  0  0  0  0
   -3.9820    4.1742    0.4059 F   0  0  0  0  0  0  0  0  0  0  0  0
   -6.5146    3.9528    0.3187 F   0  0  0  0  0  0  0  0  0  0  0  0
   -5.3719    2.2997    1.4334 F   0  0  0  0  0  0  0  0  0  0  0  0
  1  4  1  0  0  0  0
  1  2  1  0  0  0  0
  2  3  1  0  0  0  0
  5 12  1  0  0  0  0
  5  4  2  0  0  0  0
  6  5  1  0  0  0  0
  7  6  1  0  0  0  0
  8  7  1  0  0  0  0
  8 15  1  0  0  0  0
  9  6  2  0  0  0  0
  9 10  1  0  0  0  0
 10  1  2  0  0  0  0
 11 20  1  0  0  0  0
 13  8  1  0  0  0  0
 14  8  1  0  0  0  0
 16  9  1  0  0  0  0
 17 10  1  0  0  0  0
 18 21  1  0  0  0  0
 18 22  1  0  0  0  0
 19 18  1  0  0  0  0
M  RAD  3   2   2   3   3   4   2
M  END
