Coordinates from ORCA-job 4-MeOPhN2+~BF4-_B3LYPG-6-31G_dp-CH-Scan-d09-49-n800
 OpenBabel11261919343D

 22 20  0  0  0  0  0  0  0  0999 V2000
   -1.6130    0.0959    0.0368 C   0  0  0  0  0  0  0  0  0  0  0  0
   -2.9877    0.0606    0.1246 N   0  0  0  0  0  0  0  0  0  0  0  0
   -4.1071    0.1021    0.1975 N   0  0  0  0  0  0  0  0  0  0  0  0
   -1.0853    1.4087    0.0127 C   0  0  0  0  0  0  0  0  0  0  0  0
    0.3193    1.3541   -0.0749 C   0  0  0  0  0  0  0  0  0  0  0  0
    1.0621    0.1648   -0.1272 C   0  0  0  0  0  0  0  0  0  0  0  0
    2.4083    0.2998   -0.2072 O   0  0  0  0  0  0  0  0  0  0  0  0
    3.2337   -0.8576   -0.2570 C   0  0  0  0  0  0  0  0  0  0  0  0
    0.4235   -1.1097   -0.0964 C   0  0  0  0  0  0  0  0  0  0  0  0
   -0.9475   -1.1585   -0.0125 C   0  0  0  0  0  0  0  0  0  0  0  0
   -4.1872    4.5834    0.4933 H   0  0  0  0  0  0  0  0  0  0  0  0
    0.9062    2.2733   -0.1051 H   0  0  0  0  0  0  0  0  0  0  0  0
    4.2591   -0.4897   -0.3108 H   0  0  0  0  0  0  0  0  0  0  0  0
    3.0235   -1.4669   -1.1446 H   0  0  0  0  0  0  0  0  0  0  0  0
    3.1193   -1.4745    0.6429 H   0  0  0  0  0  0  0  0  0  0  0  0
    0.9965   -2.0274   -0.1374 H   0  0  0  0  0  0  0  0  0  0  0  0
   -1.4814   -2.1056    0.0141 H   0  0  0  0  0  0  0  0  0  0  0  0
   -6.0741    2.9650    0.3043 B   0  0  0  0  0  0  0  0  0  0  0  0
   -5.0939    2.7301   -0.5705 F   0  0  0  0  0  0  0  0  0  0  0  0
   -4.9602    4.7242    0.9927 F   0  0  0  0  0  0  0  0  0  0  0  0
   -7.1513    3.6189   -0.0917 F   0  0  0  0  0  0  0  0  0  0  0  0
   -6.0665    2.3287    1.4631 F   0  0  0  0  0  0  0  0  0  0  0  0
  1  2  1  0  0  0  0
  2  3  1  0  0  0  0
  4  1  1  0  0  0  0
  5  4  2  0  0  0  0
  6  9  2  0  0  0  0
  6  5  1  0  0  0  0
  7  6  1  0  0  0  0
  8  7  1  0  0  0  0
  8 15  1  0  0  0  0
  9 10  1  0  0  0  0
 10 17  1  0  0  0  0
 10  1  2  0  0  0  0
 11 20  1  0  0  0  0
 12  5  1  0  0  0  0
 13  8  1  0  0  0  0
 14  8  1  0  0  0  0
 16  9  1  0  0  0  0
 18 22  1  0  0  0  0
 19 18  1  0  0  0  0
 21 18  1  0  0  0  0
M  RAD  3   2   2   3   3   4   2
M  END
