Coordinates from ORCA-job 4-MeOPhN2+~BF4-_B3LYPG-6-31G_dp-CH-Scan-d09-49-n800
 OpenBabel11261919343D

 22 20  0  0  0  0  0  0  0  0999 V2000
   -2.0412    0.0610    0.0825 C   0  0  0  0  0  0  0  0  0  0  0  0
   -3.3958   -0.1539    0.1416 N   0  0  0  0  0  0  0  0  0  0  0  0
   -4.5038   -0.3021    0.1921 N   0  0  0  0  0  0  0  0  0  0  0  0
   -1.6087    1.4104    0.1365 C   0  0  0  0  0  0  0  0  0  0  0  0
   -0.2172    1.5152    0.0694 C   0  0  0  0  0  0  0  0  0  0  0  0
    0.6430    0.4074   -0.0387 C   0  0  0  0  0  0  0  0  0  0  0  0
    1.9611    0.6848   -0.0922 O   0  0  0  0  0  0  0  0  0  0  0  0
    2.9059   -0.3770   -0.2022 C   0  0  0  0  0  0  0  0  0  0  0  0
    0.1280   -0.9158   -0.0862 C   0  0  0  0  0  0  0  0  0  0  0  0
   -1.2340   -1.0999   -0.0251 C   0  0  0  0  0  0  0  0  0  0  0  0
   -2.8506    2.9478    0.2770 H   0  0  0  0  0  0  0  0  0  0  0  0
    0.2642    2.4906    0.0998 H   0  0  0  0  0  0  0  0  0  0  0  0
    3.8854    0.1006   -0.2252 H   0  0  0  0  0  0  0  0  0  0  0  0
    2.7602   -0.9485   -1.1263 H   0  0  0  0  0  0  0  0  0  0  0  0
    2.8521   -1.0517    0.6604 H   0  0  0  0  0  0  0  0  0  0  0  0
    0.7831   -1.7733   -0.1681 H   0  0  0  0  0  0  0  0  0  0  0  0
   -1.6691   -2.0947   -0.0584 H   0  0  0  0  0  0  0  0  0  0  0  0
   -5.1191    2.9524    0.2969 B   0  0  0  0  0  0  0  0  0  0  0  0
   -5.0522    2.2743   -0.8752 F   0  0  0  0  0  0  0  0  0  0  0  0
   -3.5310    3.6667    0.3449 F   0  0  0  0  0  0  0  0  0  0  0  0
   -5.8854    4.0505    0.3362 F   0  0  0  0  0  0  0  0  0  0  0  0
   -5.0789    2.1749    1.4071 F   0  0  0  0  0  0  0  0  0  0  0  0
  1  4  1  0  0  0  0
  1  2  1  0  0  0  0
  2  3  1  0  0  0  0
  5 12  1  0  0  0  0
  5  4  2  0  0  0  0
  6  5  1  0  0  0  0
  7  6  1  0  0  0  0
  8  7  1  0  0  0  0
  8 15  1  0  0  0  0
  9  6  2  0  0  0  0
  9 10  1  0  0  0  0
 10  1  2  0  0  0  0
 11 20  1  0  0  0  0
 13  8  1  0  0  0  0
 14  8  1  0  0  0  0
 16  9  1  0  0  0  0
 17 10  1  0  0  0  0
 18 21  1  0  0  0  0
 18 22  1  0  0  0  0
 19 18  1  0  0  0  0
M  RAD  3   2   2   3   3   4   2
M  END
