Coordinates from ORCA-job 4-MeOPhN2+~BF4-_B3LYPG-6-31G_dp-CH-Scan-d09-49-n800
 OpenBabel11261919343D

 22 20  0  0  0  0  0  0  0  0999 V2000
   -1.8298    0.0401    0.0798 C   0  0  0  0  0  0  0  0  0  0  0  0
   -3.1961   -0.1004    0.1434 N   0  0  0  0  0  0  0  0  0  0  0  0
   -4.3142   -0.1668    0.1993 N   0  0  0  0  0  0  0  0  0  0  0  0
   -1.3714    1.3795    0.1436 C   0  0  0  0  0  0  0  0  0  0  0  0
    0.0308    1.4195    0.0703 C   0  0  0  0  0  0  0  0  0  0  0  0
    0.8465    0.2825   -0.0492 C   0  0  0  0  0  0  0  0  0  0  0  0
    2.1795    0.5061   -0.1067 O   0  0  0  0  0  0  0  0  0  0  0  0
    3.0778   -0.5913   -0.2280 C   0  0  0  0  0  0  0  0  0  0  0  0
    0.2856   -1.0255   -0.1046 C   0  0  0  0  0  0  0  0  0  0  0  0
   -1.0806   -1.1612   -0.0395 C   0  0  0  0  0  0  0  0  0  0  0  0
   -3.3181    3.7716    0.3734 H   0  0  0  0  0  0  0  0  0  0  0  0
    0.5582    2.3729    0.1052 H   0  0  0  0  0  0  0  0  0  0  0  0
    4.0771   -0.1557   -0.2512 H   0  0  0  0  0  0  0  0  0  0  0  0
    2.9076   -1.1514   -1.1555 H   0  0  0  0  0  0  0  0  0  0  0  0
    3.0008   -1.2720    0.6287 H   0  0  0  0  0  0  0  0  0  0  0  0
    0.9119   -1.9037   -0.1956 H   0  0  0  0  0  0  0  0  0  0  0  0
   -1.5547   -2.1388   -0.0783 H   0  0  0  0  0  0  0  0  0  0  0  0
   -5.7147    2.9702    0.3020 B   0  0  0  0  0  0  0  0  0  0  0  0
   -5.3292    2.4208   -0.8486 F   0  0  0  0  0  0  0  0  0  0  0  0
   -4.0999    4.2819    0.4264 F   0  0  0  0  0  0  0  0  0  0  0  0
   -6.6378    3.9186    0.3005 F   0  0  0  0  0  0  0  0  0  0  0  0
   -5.4331    2.3229    1.4312 F   0  0  0  0  0  0  0  0  0  0  0  0
  1  2  1  0  0  0  0
  1  4  1  0  0  0  0
  2  3  1  0  0  0  0
  5 12  1  0  0  0  0
  5  4  2  0  0  0  0
  6  5  1  0  0  0  0
  7  6  1  0  0  0  0
  8  7  1  0  0  0  0
  8 15  1  0  0  0  0
  9  6  2  0  0  0  0
  9 10  1  0  0  0  0
 10  1  2  0  0  0  0
 11 20  1  0  0  0  0
 13  8  1  0  0  0  0
 14  8  1  0  0  0  0
 16  9  1  0  0  0  0
 17 10  1  0  0  0  0
 18 22  1  0  0  0  0
 19 18  1  0  0  0  0
 21 18  1  0  0  0  0
M  RAD  3   2   2   3   3   4   2
M  END
