Coordinates from ORCA-job 4-MeOPhN2+~BF4-_B3LYPG-6-31G_dp-CH-Scan-d09-49-n800
 OpenBabel11261919343D

 22 20  0  0  0  0  0  0  0  0999 V2000
   -1.5795    0.1215   -0.0568 C   0  0  0  0  0  0  0  0  0  0  0  0
   -2.9565    0.1098   -0.0085 N   0  0  0  0  0  0  0  0  0  0  0  0
   -4.0771    0.1673    0.0270 N   0  0  0  0  0  0  0  0  0  0  0  0
   -1.0312    1.4247   -0.1135 C   0  0  0  0  0  0  0  0  0  0  0  0
    0.3744    1.3468   -0.1594 C   0  0  0  0  0  0  0  0  0  0  0  0
    1.0997    0.1458   -0.1485 C   0  0  0  0  0  0  0  0  0  0  0  0
    2.4496    0.2581   -0.1965 O   0  0  0  0  0  0  0  0  0  0  0  0
    3.2578   -0.9124   -0.1867 C   0  0  0  0  0  0  0  0  0  0  0  0
    0.4408   -1.1175   -0.0895 C   0  0  0  0  0  0  0  0  0  0  0  0
   -0.9325   -1.1437   -0.0422 C   0  0  0  0  0  0  0  0  0  0  0  0
   -4.3677    4.7159    0.4450 H   0  0  0  0  0  0  0  0  0  0  0  0
    0.9760    2.2558   -0.2065 H   0  0  0  0  0  0  0  0  0  0  0  0
    4.2899   -0.5618   -0.2286 H   0  0  0  0  0  0  0  0  0  0  0  0
    3.0584   -1.5488   -1.0577 H   0  0  0  0  0  0  0  0  0  0  0  0
    3.1131   -1.4962    0.7307 H   0  0  0  0  0  0  0  0  0  0  0  0
    1.0008   -2.0442   -0.0813 H   0  0  0  0  0  0  0  0  0  0  0  0
   -1.4815   -2.0814    0.0041 H   0  0  0  0  0  0  0  0  0  0  0  0
   -6.1177    2.9520    0.3989 B   0  0  0  0  0  0  0  0  0  0  0  0
   -5.2091    2.8236   -0.5703 F   0  0  0  0  0  0  0  0  0  0  0  0
   -5.0892    4.7904    1.0282 F   0  0  0  0  0  0  0  0  0  0  0  0
   -7.2783    3.5204    0.1266 F   0  0  0  0  0  0  0  0  0  0  0  0
   -5.9440    2.2937    1.5320 F   0  0  0  0  0  0  0  0  0  0  0  0
  1 10  1  0  0  0  0
  1  2  1  0  0  0  0
  2  3  1  0  0  0  0
  4  1  2  0  0  0  0
  5  6  2  0  0  0  0
  5  4  1  0  0  0  0
  6  9  1  0  0  0  0
  7  8  1  0  0  0  0
  7  6  1  0  0  0  0
  8 15  1  0  0  0  0
  9 16  1  0  0  0  0
  9 10  2  0  0  0  0
 10 17  1  0  0  0  0
 11 20  1  0  0  0  0
 12  5  1  0  0  0  0
 13  8  1  0  0  0  0
 14  8  1  0  0  0  0
 18 22  1  0  0  0  0
 19 18  1  0  0  0  0
 21 18  1  0  0  0  0
M  RAD  3   2   2   3   3   4   2
M  END
