Coordinates from ORCA-job 4-MeOPhN2+~BF4-_B3LYPG-6-31G_dp-CH-Scan-d09-49-n800
 OpenBabel11261919343D

 22 20  0  0  0  0  0  0  0  0999 V2000
   -1.8094    0.0431    0.0843 C   0  0  0  0  0  0  0  0  0  0  0  0
   -3.1769   -0.0896    0.1513 N   0  0  0  0  0  0  0  0  0  0  0  0
   -4.2955   -0.1482    0.2068 N   0  0  0  0  0  0  0  0  0  0  0  0
   -1.3455    1.3804    0.1473 C   0  0  0  0  0  0  0  0  0  0  0  0
    0.0573    1.4122    0.0710 C   0  0  0  0  0  0  0  0  0  0  0  0
    0.8667    0.2712   -0.0507 C   0  0  0  0  0  0  0  0  0  0  0  0
    2.2011    0.4876   -0.1113 O   0  0  0  0  0  0  0  0  0  0  0  0
    3.0929   -0.6147   -0.2351 C   0  0  0  0  0  0  0  0  0  0  0  0
    0.2991   -1.0341   -0.1053 C   0  0  0  0  0  0  0  0  0  0  0  0
   -1.0676   -1.1627   -0.0371 C   0  0  0  0  0  0  0  0  0  0  0  0
   -3.3752    3.8520    0.3951 H   0  0  0  0  0  0  0  0  0  0  0  0
    0.5902    2.3628    0.1049 H   0  0  0  0  0  0  0  0  0  0  0  0
    4.0946   -0.1847   -0.2605 H   0  0  0  0  0  0  0  0  0  0  0  0
    2.9176   -1.1736   -1.1624 H   0  0  0  0  0  0  0  0  0  0  0  0
    3.0142   -1.2953    0.6215 H   0  0  0  0  0  0  0  0  0  0  0  0
    0.9207   -1.9154   -0.1978 H   0  0  0  0  0  0  0  0  0  0  0  0
   -1.5470   -2.1378   -0.0750 H   0  0  0  0  0  0  0  0  0  0  0  0
   -5.7587    2.9681    0.2943 B   0  0  0  0  0  0  0  0  0  0  0  0
   -5.3322    2.4373   -0.8495 F   0  0  0  0  0  0  0  0  0  0  0  0
   -4.1709    4.3377    0.4490 F   0  0  0  0  0  0  0  0  0  0  0  0
   -6.7055    3.8919    0.2782 F   0  0  0  0  0  0  0  0  0  0  0  0
   -5.4737    2.3315    1.4275 F   0  0  0  0  0  0  0  0  0  0  0  0
  1  4  1  0  0  0  0
  1  2  1  0  0  0  0
  2  3  1  0  0  0  0
  5 12  1  0  0  0  0
  5  4  2  0  0  0  0
  6  5  1  0  0  0  0
  7  6  1  0  0  0  0
  8  7  1  0  0  0  0
  8 15  1  0  0  0  0
  9  6  2  0  0  0  0
  9 10  1  0  0  0  0
 10  1  2  0  0  0  0
 11 20  1  0  0  0  0
 13  8  1  0  0  0  0
 14  8  1  0  0  0  0
 16  9  1  0  0  0  0
 17 10  1  0  0  0  0
 18 22  1  0  0  0  0
 19 18  1  0  0  0  0
 21 18  1  0  0  0  0
M  RAD  3   2   2   3   3   4   2
M  END
