Coordinates from ORCA-job 4-MeOPhN2+~BF4-_B3LYPG-6-31G_dp-CH-Scan-d09-49-n800
 OpenBabel11261919343D

 22 21  0  0  0  0  0  0  0  0999 V2000
   -2.1481    0.1422    0.2680 C   0  0  0  0  0  0  0  0  0  0  0  0
   -3.4941   -0.0701    0.4229 N   0  0  0  0  0  0  0  0  0  0  0  0
   -4.5854   -0.2447    0.5797 N   0  0  0  0  0  0  0  0  0  0  0  0
   -1.6333    1.4507    0.4077 C   0  0  0  0  0  0  0  0  0  0  0  0
   -0.2662    1.5893    0.2771 C   0  0  0  0  0  0  0  0  0  0  0  0
    0.5646    0.4801    0.0107 C   0  0  0  0  0  0  0  0  0  0  0  0
    1.8741    0.7492   -0.0951 O   0  0  0  0  0  0  0  0  0  0  0  0
    2.7972   -0.3078   -0.3663 C   0  0  0  0  0  0  0  0  0  0  0  0
    0.0138   -0.8156   -0.1286 C   0  0  0  0  0  0  0  0  0  0  0  0
   -1.3492   -0.9894    0.0038 C   0  0  0  0  0  0  0  0  0  0  0  0
   -2.4734    2.4805    0.6178 H   0  0  0  0  0  0  0  0  0  0  0  0
    0.2029    2.5630    0.3699 H   0  0  0  0  0  0  0  0  0  0  0  0
    3.7796    0.1621   -0.3954 H   0  0  0  0  0  0  0  0  0  0  0  0
    2.5883   -0.7766   -1.3341 H   0  0  0  0  0  0  0  0  0  0  0  0
    2.7769   -1.0639    0.4266 H   0  0  0  0  0  0  0  0  0  0  0  0
    0.6413   -1.6723   -0.3362 H   0  0  0  0  0  0  0  0  0  0  0  0
   -1.7981   -1.9721   -0.0962 H   0  0  0  0  0  0  0  0  0  0  0  0
   -4.7436    2.8739    0.0809 B   0  0  0  0  0  0  0  0  0  0  0  0
   -4.2130    2.0664   -0.9466 F   0  0  0  0  0  0  0  0  0  0  0  0
   -3.5951    3.4757    0.7553 F   0  0  0  0  0  0  0  0  0  0  0  0
   -5.5633    3.8574   -0.3952 F   0  0  0  0  0  0  0  0  0  0  0  0
   -5.3796    2.0417    1.0199 F   0  0  0  0  0  0  0  0  0  0  0  0
  1  4  2  0  0  0  0
  1  2  1  0  0  0  0
  2  3  1  0  0  0  0
  4 11  1  0  0  0  0
  5 12  1  0  0  0  0
  5  4  1  0  0  0  0
  6  5  2  0  0  0  0
  7  6  1  0  0  0  0
  8  7  1  0  0  0  0
  8 15  1  0  0  0  0
  9 10  2  0  0  0  0
  9  6  1  0  0  0  0
 10  1  1  0  0  0  0
 13  8  1  0  0  0  0
 14  8  1  0  0  0  0
 16  9  1  0  0  0  0
 17 10  1  0  0  0  0
 18 20  1  0  0  0  0
 18 22  1  0  0  0  0
 19 18  1  0  0  0  0
 21 18  1  0  0  0  0
M  RAD  2   2   2   3   3
M  END
