Coordinates from ORCA-job 4-MeOPhN2+~BF4-_B3LYPG-6-31G_dp-CH-Scan-d09-49-n800
 OpenBabel11261919343D

 22 21  0  0  0  0  0  0  0  0999 V2000
   -2.1397    0.2077    0.3590 C   0  0  0  0  0  0  0  0  0  0  0  0
   -3.4877    0.0211    0.5406 N   0  0  0  0  0  0  0  0  0  0  0  0
   -4.5722   -0.1815    0.7150 N   0  0  0  0  0  0  0  0  0  0  0  0
   -1.5862    1.5000    0.4884 C   0  0  0  0  0  0  0  0  0  0  0  0
   -0.2240    1.6224    0.3202 C   0  0  0  0  0  0  0  0  0  0  0  0
    0.5763    0.4996    0.0169 C   0  0  0  0  0  0  0  0  0  0  0  0
    1.8847    0.7478   -0.1344 O   0  0  0  0  0  0  0  0  0  0  0  0
    2.7778   -0.3225   -0.4524 C   0  0  0  0  0  0  0  0  0  0  0  0
   -0.0042   -0.7825   -0.1074 C   0  0  0  0  0  0  0  0  0  0  0  0
   -1.3669   -0.9323    0.0695 C   0  0  0  0  0  0  0  0  0  0  0  0
   -2.2975    2.3994    0.7224 H   0  0  0  0  0  0  0  0  0  0  0  0
    0.2602    2.5886    0.4073 H   0  0  0  0  0  0  0  0  0  0  0  0
    3.7655    0.1317   -0.5207 H   0  0  0  0  0  0  0  0  0  0  0  0
    2.5190   -0.7799   -1.4134 H   0  0  0  0  0  0  0  0  0  0  0  0
    2.7787   -1.0838    0.3357 H   0  0  0  0  0  0  0  0  0  0  0  0
    0.5987   -1.6504   -0.3398 H   0  0  0  0  0  0  0  0  0  0  0  0
   -1.8361   -1.9060   -0.0218 H   0  0  0  0  0  0  0  0  0  0  0  0
   -4.7542    2.8164    0.0165 B   0  0  0  0  0  0  0  0  0  0  0  0
   -3.9688    2.0811   -0.9160 F   0  0  0  0  0  0  0  0  0  0  0  0
   -3.8710    3.2321    1.0605 F   0  0  0  0  0  0  0  0  0  0  0  0
   -5.3612    3.8919   -0.5770 F   0  0  0  0  0  0  0  0  0  0  0  0
   -5.6953    1.9191    0.5772 F   0  0  0  0  0  0  0  0  0  0  0  0
  1  4  1  0  0  0  0
  1  2  1  0  0  0  0
  2  3  1  0  0  0  0
  4 11  1  0  0  0  0
  5 12  1  0  0  0  0
  5  4  2  0  0  0  0
  6  5  1  0  0  0  0
  7  6  1  0  0  0  0
  8  7  1  0  0  0  0
  8 15  1  0  0  0  0
  9  6  2  0  0  0  0
  9 10  1  0  0  0  0
 10  1  2  0  0  0  0
 13  8  1  0  0  0  0
 14  8  1  0  0  0  0
 16  9  1  0  0  0  0
 17 10  1  0  0  0  0
 18 22  1  0  0  0  0
 18 20  1  0  0  0  0
 19 18  1  0  0  0  0
 21 18  1  0  0  0  0
M  RAD  2   2   2   3   3
M  END
