Coordinates from ORCA-job 4-MeOPhN2+~BF4-_B3LYPG-6-31G_dp-CH-Scan-d09-49-n800
 OpenBabel11261919343D

 22 20  0  0  0  0  0  0  0  0999 V2000
   -1.7419    0.0368    0.0795 C   0  0  0  0  0  0  0  0  0  0  0  0
   -3.1111   -0.0717    0.1702 N   0  0  0  0  0  0  0  0  0  0  0  0
   -4.2302   -0.1008    0.2467 N   0  0  0  0  0  0  0  0  0  0  0  0
   -1.2695    1.3720    0.0959 C   0  0  0  0  0  0  0  0  0  0  0  0
    0.1345    1.3837    0.0023 C   0  0  0  0  0  0  0  0  0  0  0  0
    0.9303    0.2312   -0.0915 C   0  0  0  0  0  0  0  0  0  0  0  0
    2.2676    0.4302   -0.1714 O   0  0  0  0  0  0  0  0  0  0  0  0
    3.1452   -0.6858   -0.2636 C   0  0  0  0  0  0  0  0  0  0  0  0
    0.3493   -1.0700   -0.1002 C   0  0  0  0  0  0  0  0  0  0  0  0
   -1.0177   -1.1823   -0.0130 C   0  0  0  0  0  0  0  0  0  0  0  0
   -3.6433    4.1402    0.4470 H   0  0  0  0  0  0  0  0  0  0  0  0
    0.6793    2.3287    0.0006 H   0  0  0  0  0  0  0  0  0  0  0  0
    4.1521   -0.2692   -0.3087 H   0  0  0  0  0  0  0  0  0  0  0  0
    2.9584   -1.2734   -1.1708 H   0  0  0  0  0  0  0  0  0  0  0  0
    3.0640   -1.3372    0.6152 H   0  0  0  0  0  0  0  0  0  0  0  0
    0.9615   -1.9599   -0.1728 H   0  0  0  0  0  0  0  0  0  0  0  0
   -1.5082   -2.1528   -0.0157 H   0  0  0  0  0  0  0  0  0  0  0  0
   -5.8814    2.9856    0.2712 B   0  0  0  0  0  0  0  0  0  0  0  0
   -5.0830    2.5192   -0.6902 F   0  0  0  0  0  0  0  0  0  0  0  0
   -4.4319    4.4825    0.8061 F   0  0  0  0  0  0  0  0  0  0  0  0
   -6.8439    3.8374   -0.0374 F   0  0  0  0  0  0  0  0  0  0  0  0
   -5.8837    2.3754    1.4471 F   0  0  0  0  0  0  0  0  0  0  0  0
  1  4  1  0  0  0  0
  1  2  1  0  0  0  0
  2  3  1  0  0  0  0
  5  4  2  0  0  0  0
  6  5  1  0  0  0  0
  7  6  1  0  0  0  0
  8  7  1  0  0  0  0
  8 15  1  0  0  0  0
  9  6  2  0  0  0  0
  9 10  1  0  0  0  0
 10  1  2  0  0  0  0
 11 20  1  0  0  0  0
 12  5  1  0  0  0  0
 13  8  1  0  0  0  0
 14  8  1  0  0  0  0
 16  9  1  0  0  0  0
 17 10  1  0  0  0  0
 18 22  1  0  0  0  0
 19 18  1  0  0  0  0
 21 18  1  0  0  0  0
M  RAD  3   2   2   3   3   4   2
M  END
