Coordinates from ORCA-job 4-MeOPhN2+~BF4-_B3LYPG-6-31G_dp-CH-Scan-d09-49-n800
 OpenBabel11261919343D

 22 20  0  0  0  0  0  0  0  0999 V2000
   -1.8543    0.0417    0.0757 C   0  0  0  0  0  0  0  0  0  0  0  0
   -3.2197   -0.1067    0.1377 N   0  0  0  0  0  0  0  0  0  0  0  0
   -4.3373   -0.1797    0.1920 N   0  0  0  0  0  0  0  0  0  0  0  0
   -1.4001    1.3827    0.1378 C   0  0  0  0  0  0  0  0  0  0  0  0
    0.0013    1.4308    0.0676 C   0  0  0  0  0  0  0  0  0  0  0  0
    0.8228    0.2973   -0.0484 C   0  0  0  0  0  0  0  0  0  0  0  0
    2.1542    0.5274   -0.1033 O   0  0  0  0  0  0  0  0  0  0  0  0
    3.0585   -0.5658   -0.2209 C   0  0  0  0  0  0  0  0  0  0  0  0
    0.2678   -1.0129   -0.1032 C   0  0  0  0  0  0  0  0  0  0  0  0
   -1.0980   -1.1550   -0.0405 C   0  0  0  0  0  0  0  0  0  0  0  0
   -3.2558    3.6693    0.3517 H   0  0  0  0  0  0  0  0  0  0  0  0
    0.5233    2.3869    0.1021 H   0  0  0  0  0  0  0  0  0  0  0  0
    4.0556   -0.1250   -0.2422 H   0  0  0  0  0  0  0  0  0  0  0  0
    2.8932   -1.1277   -1.1481 H   0  0  0  0  0  0  0  0  0  0  0  0
    2.9827   -1.2454    0.6366 H   0  0  0  0  0  0  0  0  0  0  0  0
    0.8981   -1.8884   -0.1916 H   0  0  0  0  0  0  0  0  0  0  0  0
   -1.5670   -2.1350   -0.0788 H   0  0  0  0  0  0  0  0  0  0  0  0
   -5.6572    2.9676    0.3080 B   0  0  0  0  0  0  0  0  0  0  0  0
   -5.3091    2.4011   -0.8476 F   0  0  0  0  0  0  0  0  0  0  0  0
   -4.0186    4.2100    0.4112 F   0  0  0  0  0  0  0  0  0  0  0  0
   -6.5559    3.9401    0.3170 F   0  0  0  0  0  0  0  0  0  0  0  0
   -5.3884    2.3064    1.4335 F   0  0  0  0  0  0  0  0  0  0  0  0
  1  2  1  0  0  0  0
  1  4  1  0  0  0  0
  2  3  1  0  0  0  0
  5 12  1  0  0  0  0
  5  4  2  0  0  0  0
  6  5  1  0  0  0  0
  7  6  1  0  0  0  0
  8  7  1  0  0  0  0
  8 15  1  0  0  0  0
  9  6  2  0  0  0  0
  9 10  1  0  0  0  0
 10  1  2  0  0  0  0
 11 20  1  0  0  0  0
 13  8  1  0  0  0  0
 14  8  1  0  0  0  0
 16  9  1  0  0  0  0
 17 10  1  0  0  0  0
 18 21  1  0  0  0  0
 18 22  1  0  0  0  0
 19 18  1  0  0  0  0
M  RAD  3   2   2   3   3   4   2
M  END
