Coordinates from ORCA-job 4-MeOPhN2+~BF4-_B3LYPG-6-31G_dp-CH-Scan-d09-49-n800
 OpenBabel11261919343D

 22 20  0  0  0  0  0  0  0  0999 V2000
   -2.0022    0.0537    0.0912 C   0  0  0  0  0  0  0  0  0  0  0  0
   -3.3587   -0.1486    0.1558 N   0  0  0  0  0  0  0  0  0  0  0  0
   -4.4689   -0.2825    0.2111 N   0  0  0  0  0  0  0  0  0  0  0  0
   -1.5679    1.4023    0.1480 C   0  0  0  0  0  0  0  0  0  0  0  0
   -0.1743    1.4970    0.0751 C   0  0  0  0  0  0  0  0  0  0  0  0
    0.6791    0.3852   -0.0400 C   0  0  0  0  0  0  0  0  0  0  0  0
    1.9997    0.6547   -0.0982 O   0  0  0  0  0  0  0  0  0  0  0  0
    2.9373   -0.4121   -0.2148 C   0  0  0  0  0  0  0  0  0  0  0  0
    0.1577   -0.9363   -0.0894 C   0  0  0  0  0  0  0  0  0  0  0  0
   -1.2045   -1.1140   -0.0233 C   0  0  0  0  0  0  0  0  0  0  0  0
   -2.9265    3.0821    0.3117 H   0  0  0  0  0  0  0  0  0  0  0  0
    0.3151    2.4689    0.1063 H   0  0  0  0  0  0  0  0  0  0  0  0
    3.9198    0.0593   -0.2403 H   0  0  0  0  0  0  0  0  0  0  0  0
    2.7850   -0.9806   -1.1398 H   0  0  0  0  0  0  0  0  0  0  0  0
    2.8831   -1.0894    0.6459 H   0  0  0  0  0  0  0  0  0  0  0  0
    0.8089   -1.7965   -0.1767 H   0  0  0  0  0  0  0  0  0  0  0  0
   -1.6453   -2.1065   -0.0579 H   0  0  0  0  0  0  0  0  0  0  0  0
   -5.2413    2.9623    0.2845 B   0  0  0  0  0  0  0  0  0  0  0  0
   -5.0922    2.3062   -0.8846 F   0  0  0  0  0  0  0  0  0  0  0  0
   -3.6136    3.7628    0.3801 F   0  0  0  0  0  0  0  0  0  0  0  0
   -6.0146    4.0503    0.3053 F   0  0  0  0  0  0  0  0  0  0  0  0
   -5.1794    2.2014    1.3963 F   0  0  0  0  0  0  0  0  0  0  0  0
  1  4  1  0  0  0  0
  1  2  1  0  0  0  0
  2  3  1  0  0  0  0
  5 12  1  0  0  0  0
  5  4  2  0  0  0  0
  6  5  1  0  0  0  0
  7  6  1  0  0  0  0
  8  7  1  0  0  0  0
  8 15  1  0  0  0  0
  9  6  2  0  0  0  0
  9 10  1  0  0  0  0
 10  1  2  0  0  0  0
 11 20  1  0  0  0  0
 13  8  1  0  0  0  0
 14  8  1  0  0  0  0
 16  9  1  0  0  0  0
 17 10  1  0  0  0  0
 18 21  1  0  0  0  0
 18 22  1  0  0  0  0
 19 18  1  0  0  0  0
M  RAD  3   2   2   3   3   4   2
M  END
