Coordinates from ORCA-job 4-MeOPhN2+~BF4-_B3LYPG-6-31G_dp-CH-Scan-d09-49-n800
 OpenBabel11261919343D

 22 20  0  0  0  0  0  0  0  0999 V2000
   -2.1065    0.0842    0.1770 C   0  0  0  0  0  0  0  0  0  0  0  0
   -3.4557   -0.1462    0.2756 N   0  0  0  0  0  0  0  0  0  0  0  0
   -4.5562   -0.3178    0.3674 N   0  0  0  0  0  0  0  0  0  0  0  0
   -1.6584    1.4253    0.2725 C   0  0  0  0  0  0  0  0  0  0  0  0
   -0.2760    1.5493    0.1716 C   0  0  0  0  0  0  0  0  0  0  0  0
    0.5835    0.4487   -0.0100 C   0  0  0  0  0  0  0  0  0  0  0  0
    1.8957    0.7345   -0.0904 O   0  0  0  0  0  0  0  0  0  0  0  0
    2.8414   -0.3177   -0.2762 C   0  0  0  0  0  0  0  0  0  0  0  0
    0.0671   -0.8695   -0.0991 C   0  0  0  0  0  0  0  0  0  0  0  0
   -1.2933   -1.0604   -0.0045 C   0  0  0  0  0  0  0  0  0  0  0  0
   -2.7001    2.6963    0.4306 H   0  0  0  0  0  0  0  0  0  0  0  0
    0.1947    2.5275    0.2288 H   0  0  0  0  0  0  0  0  0  0  0  0
    3.8176    0.1656   -0.3053 H   0  0  0  0  0  0  0  0  0  0  0  0
    2.6697   -0.8460   -1.2210 H   0  0  0  0  0  0  0  0  0  0  0  0
    2.8133   -1.0304    0.5563 H   0  0  0  0  0  0  0  0  0  0  0  0
    0.7192   -1.7219   -0.2386 H   0  0  0  0  0  0  0  0  0  0  0  0
   -1.7256   -2.0544   -0.0676 H   0  0  0  0  0  0  0  0  0  0  0  0
   -4.8905    2.9197    0.1686 B   0  0  0  0  0  0  0  0  0  0  0  0
   -4.6679    2.1718   -0.9633 F   0  0  0  0  0  0  0  0  0  0  0  0
   -3.4342    3.5028    0.5042 F   0  0  0  0  0  0  0  0  0  0  0  0
   -5.6597    4.0177    0.0076 F   0  0  0  0  0  0  0  0  0  0  0  0
   -5.1820    2.1408    1.2623 F   0  0  0  0  0  0  0  0  0  0  0  0
  1  4  1  0  0  0  0
  1  2  1  0  0  0  0
  2  3  1  0  0  0  0
  5 12  1  0  0  0  0
  5  4  2  0  0  0  0
  6  5  1  0  0  0  0
  7  6  1  0  0  0  0
  8  7  1  0  0  0  0
  8 15  1  0  0  0  0
  9  6  2  0  0  0  0
  9 10  1  0  0  0  0
 10  1  2  0  0  0  0
 11 20  1  0  0  0  0
 13  8  1  0  0  0  0
 14  8  1  0  0  0  0
 16  9  1  0  0  0  0
 17 10  1  0  0  0  0
 18 22  1  0  0  0  0
 19 18  1  0  0  0  0
 21 18  1  0  0  0  0
M  RAD  3   2   2   3   3   4   2
M  END
