Coordinates from ORCA-job 4-MeOPhN2+~BF4-_B3LYPG-6-31G_dp-CH-Scan-d09-49-n800
 OpenBabel11261919343D

 22 20  0  0  0  0  0  0  0  0999 V2000
   -1.6089    0.0971    0.0333 C   0  0  0  0  0  0  0  0  0  0  0  0
   -2.9836    0.0631    0.1196 N   0  0  0  0  0  0  0  0  0  0  0  0
   -4.1031    0.1034    0.1915 N   0  0  0  0  0  0  0  0  0  0  0  0
   -1.0794    1.4093    0.0085 C   0  0  0  0  0  0  0  0  0  0  0  0
    0.3253    1.3528   -0.0777 C   0  0  0  0  0  0  0  0  0  0  0  0
    1.0666    0.1625   -0.1280 C   0  0  0  0  0  0  0  0  0  0  0  0
    2.4131    0.2957   -0.2069 O   0  0  0  0  0  0  0  0  0  0  0  0
    3.2371   -0.8627   -0.2546 C   0  0  0  0  0  0  0  0  0  0  0  0
    0.4264   -1.1111   -0.0967 C   0  0  0  0  0  0  0  0  0  0  0  0
   -0.9446   -1.1582   -0.0142 C   0  0  0  0  0  0  0  0  0  0  0  0
   -4.2045    4.5964    0.4901 H   0  0  0  0  0  0  0  0  0  0  0  0
    0.9134    2.2712   -0.1081 H   0  0  0  0  0  0  0  0  0  0  0  0
    4.2631   -0.4962   -0.3078 H   0  0  0  0  0  0  0  0  0  0  0  0
    3.0270   -1.4727   -1.1419 H   0  0  0  0  0  0  0  0  0  0  0  0
    3.1211   -1.4786    0.6457 H   0  0  0  0  0  0  0  0  0  0  0  0
    0.9984   -2.0296   -0.1363 H   0  0  0  0  0  0  0  0  0  0  0  0
   -1.4798   -2.1046    0.0127 H   0  0  0  0  0  0  0  0  0  0  0  0
   -6.0819    2.9669    0.3087 B   0  0  0  0  0  0  0  0  0  0  0  0
   -5.1040    2.7373   -0.5701 F   0  0  0  0  0  0  0  0  0  0  0  0
   -4.9753    4.7322    0.9942 F   0  0  0  0  0  0  0  0  0  0  0  0
   -7.1639    3.6159   -0.0823 F   0  0  0  0  0  0  0  0  0  0  0  0
   -6.0662    2.3297    1.4669 F   0  0  0  0  0  0  0  0  0  0  0  0
  1  2  1  0  0  0  0
  2  3  1  0  0  0  0
  4  1  1  0  0  0  0
  5  4  2  0  0  0  0
  6  9  2  0  0  0  0
  6  5  1  0  0  0  0
  7  6  1  0  0  0  0
  8  7  1  0  0  0  0
  8 15  1  0  0  0  0
  9 10  1  0  0  0  0
 10 17  1  0  0  0  0
 10  1  2  0  0  0  0
 11 20  1  0  0  0  0
 12  5  1  0  0  0  0
 13  8  1  0  0  0  0
 14  8  1  0  0  0  0
 16  9  1  0  0  0  0
 18 22  1  0  0  0  0
 19 18  1  0  0  0  0
 21 18  1  0  0  0  0
M  RAD  3   2   2   3   3   4   2
M  END
