Coordinates from ORCA-job 4-MeOPhN2+~BF4-_B3LYPG-6-31G_dp-CH-Scan-d09-49-n800
 OpenBabel11261919343D

 22 20  0  0  0  0  0  0  0  0999 V2000
   -1.6902    0.0532    0.0531 C   0  0  0  0  0  0  0  0  0  0  0  0
   -3.0624   -0.0283    0.1391 N   0  0  0  0  0  0  0  0  0  0  0  0
   -4.1825   -0.0311    0.2093 N   0  0  0  0  0  0  0  0  0  0  0  0
   -1.1990    1.3811    0.0526 C   0  0  0  0  0  0  0  0  0  0  0  0
    0.2061    1.3689   -0.0342 C   0  0  0  0  0  0  0  0  0  0  0  0
    0.9837    0.2030   -0.1069 C   0  0  0  0  0  0  0  0  0  0  0  0
    2.3250    0.3793   -0.1826 O   0  0  0  0  0  0  0  0  0  0  0  0
    3.1847   -0.7519   -0.2527 C   0  0  0  0  0  0  0  0  0  0  0  0
    0.3825   -1.0894   -0.0999 C   0  0  0  0  0  0  0  0  0  0  0  0
   -0.9865   -1.1792   -0.0182 C   0  0  0  0  0  0  0  0  0  0  0  0
   -3.8464    4.3322    0.4449 H   0  0  0  0  0  0  0  0  0  0  0  0
    0.7660    2.3051   -0.0470 H   0  0  0  0  0  0  0  0  0  0  0  0
    4.1986   -0.3525   -0.2980 H   0  0  0  0  0  0  0  0  0  0  0  0
    2.9937   -1.3503   -1.1520 H   0  0  0  0  0  0  0  0  0  0  0  0
    3.0879   -1.3886    0.6353 H   0  0  0  0  0  0  0  0  0  0  0  0
    0.9815   -1.9894   -0.1568 H   0  0  0  0  0  0  0  0  0  0  0  0
   -1.4924   -2.1419   -0.0095 H   0  0  0  0  0  0  0  0  0  0  0  0
   -5.9713    2.9830    0.2989 B   0  0  0  0  0  0  0  0  0  0  0  0
   -5.1096    2.5953   -0.6427 F   0  0  0  0  0  0  0  0  0  0  0  0
   -4.6321    4.5893    0.8733 F   0  0  0  0  0  0  0  0  0  0  0  0
   -6.9844    3.7652   -0.0297 F   0  0  0  0  0  0  0  0  0  0  0  0
   -5.9567    2.3667    1.4702 F   0  0  0  0  0  0  0  0  0  0  0  0
  1  2  1  0  0  0  0
  2  3  1  0  0  0  0
  4  1  1  0  0  0  0
  5  4  2  0  0  0  0
  6  9  2  0  0  0  0
  6  5  1  0  0  0  0
  7  6  1  0  0  0  0
  8  7  1  0  0  0  0
  8 15  1  0  0  0  0
  9 10  1  0  0  0  0
 10 17  1  0  0  0  0
 10  1  2  0  0  0  0
 11 20  1  0  0  0  0
 12  5  1  0  0  0  0
 13  8  1  0  0  0  0
 14  8  1  0  0  0  0
 16  9  1  0  0  0  0
 18 22  1  0  0  0  0
 19 18  1  0  0  0  0
 21 18  1  0  0  0  0
M  RAD  3   2   2   3   3   4   2
M  END
