Coordinates from ORCA-job 4-MeOPhN2+~BF4-_B3LYPG-6-31G_dp-CH-Scan-d09-49-n800
 OpenBabel11261919343D

 22 21  0  0  0  0  0  0  0  0999 V2000
   -2.1468    0.2863    0.3393 C   0  0  0  0  0  0  0  0  0  0  0  0
   -3.4979    0.1077    0.5205 N   0  0  0  0  0  0  0  0  0  0  0  0
   -4.5736   -0.1487    0.6747 N   0  0  0  0  0  0  0  0  0  0  0  0
   -1.5816    1.5788    0.3809 C   0  0  0  0  0  0  0  0  0  0  0  0
   -0.2179    1.6739    0.2008 C   0  0  0  0  0  0  0  0  0  0  0  0
    0.5745    0.5286   -0.0250 C   0  0  0  0  0  0  0  0  0  0  0  0
    1.8847    0.7565   -0.1917 O   0  0  0  0  0  0  0  0  0  0  0  0
    2.7699   -0.3409   -0.4279 C   0  0  0  0  0  0  0  0  0  0  0  0
   -0.0176   -0.7520   -0.0598 C   0  0  0  0  0  0  0  0  0  0  0  0
   -1.3824   -0.8750    0.1275 C   0  0  0  0  0  0  0  0  0  0  0  0
   -2.1132    2.3012    0.5346 H   0  0  0  0  0  0  0  0  0  0  0  0
    0.2717    2.6411    0.2250 H   0  0  0  0  0  0  0  0  0  0  0  0
    3.7614    0.0993   -0.5262 H   0  0  0  0  0  0  0  0  0  0  0  0
    2.5099   -0.8657   -1.3537 H   0  0  0  0  0  0  0  0  0  0  0  0
    2.7626   -1.0423    0.4139 H   0  0  0  0  0  0  0  0  0  0  0  0
    0.5757   -1.6407   -0.2308 H   0  0  0  0  0  0  0  0  0  0  0  0
   -1.8606   -1.8482    0.1020 H   0  0  0  0  0  0  0  0  0  0  0  0
   -4.7675    2.7489    0.0798 B   0  0  0  0  0  0  0  0  0  0  0  0
   -3.9232    2.2151   -0.9393 F   0  0  0  0  0  0  0  0  0  0  0  0
   -3.9894    2.7559    1.2748 F   0  0  0  0  0  0  0  0  0  0  0  0
   -5.2123    4.0044   -0.2430 F   0  0  0  0  0  0  0  0  0  0  0  0
   -5.8303    1.8355    0.2702 F   0  0  0  0  0  0  0  0  0  0  0  0
  1  4  1  0  0  0  0
  1  2  1  0  0  0  0
  2  3  1  0  0  0  0
  4 11  1  0  0  0  0
  5 12  1  0  0  0  0
  5  4  2  0  0  0  0
  6  5  1  0  0  0  0
  7  6  1  0  0  0  0
  8  7  1  0  0  0  0
  8 15  1  0  0  0  0
  9  6  2  0  0  0  0
  9 10  1  0  0  0  0
 10  1  2  0  0  0  0
 13  8  1  0  0  0  0
 14  8  1  0  0  0  0
 16  9  1  0  0  0  0
 17 10  1  0  0  0  0
 18 22  1  0  0  0  0
 18 20  1  0  0  0  0
 19 18  1  0  0  0  0
 21 18  1  0  0  0  0
M  RAD  2   2   2   3   3
M  END
