Coordinates from ORCA-job 4-MeOPhN2+~BF4-_B3LYPG-6-31G_dp-CH-Scan-d09-49-n800
 OpenBabel11261919343D

 22 20  0  0  0  0  0  0  0  0999 V2000
   -1.7215    0.0424    0.0711 C   0  0  0  0  0  0  0  0  0  0  0  0
   -3.0919   -0.0561    0.1608 N   0  0  0  0  0  0  0  0  0  0  0  0
   -4.2114   -0.0762    0.2361 N   0  0  0  0  0  0  0  0  0  0  0  0
   -1.2421    1.3749    0.0831 C   0  0  0  0  0  0  0  0  0  0  0  0
    0.1624    1.3775   -0.0085 C   0  0  0  0  0  0  0  0  0  0  0  0
    0.9513    0.2200   -0.0965 C   0  0  0  0  0  0  0  0  0  0  0  0
    2.2902    0.4104   -0.1748 O   0  0  0  0  0  0  0  0  0  0  0  0
    3.1610   -0.7113   -0.2603 C   0  0  0  0  0  0  0  0  0  0  0  0
    0.3626   -1.0779   -0.1011 C   0  0  0  0  0  0  0  0  0  0  0  0
   -1.0052   -1.1817   -0.0157 C   0  0  0  0  0  0  0  0  0  0  0  0
   -3.7176    4.2200    0.4452 H   0  0  0  0  0  0  0  0  0  0  0  0
    0.7130    2.3192   -0.0131 H   0  0  0  0  0  0  0  0  0  0  0  0
    4.1706   -0.3012   -0.3049 H   0  0  0  0  0  0  0  0  0  0  0  0
    2.9726   -1.3016   -1.1655 H   0  0  0  0  0  0  0  0  0  0  0  0
    3.0738   -1.3586    0.6210 H   0  0  0  0  0  0  0  0  0  0  0  0
    0.9698   -1.9716   -0.1696 H   0  0  0  0  0  0  0  0  0  0  0  0
   -1.5016   -2.1493   -0.0156 H   0  0  0  0  0  0  0  0  0  0  0  0
   -5.9184    2.9848    0.2807 B   0  0  0  0  0  0  0  0  0  0  0  0
   -5.0988    2.5456   -0.6755 F   0  0  0  0  0  0  0  0  0  0  0  0
   -4.5104    4.5255    0.8269 F   0  0  0  0  0  0  0  0  0  0  0  0
   -6.9007    3.8117   -0.0327 F   0  0  0  0  0  0  0  0  0  0  0  0
   -5.9114    2.3732    1.4555 F   0  0  0  0  0  0  0  0  0  0  0  0
  1  4  1  0  0  0  0
  1  2  1  0  0  0  0
  2  3  1  0  0  0  0
  5  4  2  0  0  0  0
  6  5  1  0  0  0  0
  7  6  1  0  0  0  0
  8  7  1  0  0  0  0
  8 15  1  0  0  0  0
  9  6  2  0  0  0  0
  9 10  1  0  0  0  0
 10 17  1  0  0  0  0
 10  1  2  0  0  0  0
 11 20  1  0  0  0  0
 12  5  1  0  0  0  0
 13  8  1  0  0  0  0
 14  8  1  0  0  0  0
 16  9  1  0  0  0  0
 18 22  1  0  0  0  0
 19 18  1  0  0  0  0
 21 18  1  0  0  0  0
M  RAD  3   2   2   3   3   4   2
M  END
