Coordinates from ORCA-job 4-MeOPhN2+~BF4-_B3LYPG-6-31G_dp-CH-Scan-d09-49-n800
 OpenBabel11261919343D

 22 20  0  0  0  0  0  0  0  0999 V2000
   -1.7977    0.0433    0.0874 C   0  0  0  0  0  0  0  0  0  0  0  0
   -3.1657   -0.0844    0.1564 N   0  0  0  0  0  0  0  0  0  0  0  0
   -4.2846   -0.1371    0.2146 N   0  0  0  0  0  0  0  0  0  0  0  0
   -1.3313    1.3796    0.1510 C   0  0  0  0  0  0  0  0  0  0  0  0
    0.0718    1.4072    0.0725 C   0  0  0  0  0  0  0  0  0  0  0  0
    0.8780    0.2642   -0.0514 C   0  0  0  0  0  0  0  0  0  0  0  0
    2.2130    0.4769   -0.1137 O   0  0  0  0  0  0  0  0  0  0  0  0
    3.1015   -0.6276   -0.2395 C   0  0  0  0  0  0  0  0  0  0  0  0
    0.3069   -1.0396   -0.1065 C   0  0  0  0  0  0  0  0  0  0  0  0
   -1.0600   -1.1647   -0.0363 C   0  0  0  0  0  0  0  0  0  0  0  0
   -3.4099    3.9017    0.4036 H   0  0  0  0  0  0  0  0  0  0  0  0
    0.6077    2.3563    0.1065 H   0  0  0  0  0  0  0  0  0  0  0  0
    4.1045   -0.2005   -0.2656 H   0  0  0  0  0  0  0  0  0  0  0  0
    2.9237   -1.1853   -1.1671 H   0  0  0  0  0  0  0  0  0  0  0  0
    3.0219   -1.3089    0.6165 H   0  0  0  0  0  0  0  0  0  0  0  0
    0.9263   -1.9224   -0.2009 H   0  0  0  0  0  0  0  0  0  0  0  0
   -1.5422   -2.1385   -0.0745 H   0  0  0  0  0  0  0  0  0  0  0  0
   -5.7827    2.9672    0.2898 B   0  0  0  0  0  0  0  0  0  0  0  0
   -5.3295    2.4473   -0.8484 F   0  0  0  0  0  0  0  0  0  0  0  0
   -4.2136    4.3720    0.4635 F   0  0  0  0  0  0  0  0  0  0  0  0
   -6.7442    3.8750    0.2620 F   0  0  0  0  0  0  0  0  0  0  0  0
   -5.4978    2.3382    1.4266 F   0  0  0  0  0  0  0  0  0  0  0  0
  1  4  1  0  0  0  0
  1  2  1  0  0  0  0
  2  3  1  0  0  0  0
  5 12  1  0  0  0  0
  5  4  2  0  0  0  0
  6  5  1  0  0  0  0
  7  6  1  0  0  0  0
  8  7  1  0  0  0  0
  8 15  1  0  0  0  0
  9  6  2  0  0  0  0
  9 10  1  0  0  0  0
 10  1  2  0  0  0  0
 11 20  1  0  0  0  0
 13  8  1  0  0  0  0
 14  8  1  0  0  0  0
 16  9  1  0  0  0  0
 17 10  1  0  0  0  0
 18 22  1  0  0  0  0
 19 18  1  0  0  0  0
 21 18  1  0  0  0  0
M  RAD  3   2   2   3   3   4   2
M  END
