Coordinates from ORCA-job 4-MeOPhN2+~BF4-_B3LYPG-6-31G_dp-CH-Scan-d09-49-n800
 OpenBabel11261919343D

 22 20  0  0  0  0  0  0  0  0999 V2000
   -1.7702    0.0316    0.0343 C   0  0  0  0  0  0  0  0  0  0  0  0
   -3.1394   -0.0892    0.1003 N   0  0  0  0  0  0  0  0  0  0  0  0
   -4.2591   -0.1316    0.1568 N   0  0  0  0  0  0  0  0  0  0  0  0
   -1.3061    1.3700    0.0535 C   0  0  0  0  0  0  0  0  0  0  0  0
    0.0986    1.3926   -0.0149 C   0  0  0  0  0  0  0  0  0  0  0  0
    0.9047    0.2456   -0.0891 C   0  0  0  0  0  0  0  0  0  0  0  0
    2.2412    0.4546   -0.1454 O   0  0  0  0  0  0  0  0  0  0  0  0
    3.1292   -0.6550   -0.2164 C   0  0  0  0  0  0  0  0  0  0  0  0
    0.3333   -1.0596   -0.1024 C   0  0  0  0  0  0  0  0  0  0  0  0
   -1.0342   -1.1815   -0.0397 C   0  0  0  0  0  0  0  0  0  0  0  0
   -3.5262    4.0283    0.3739 H   0  0  0  0  0  0  0  0  0  0  0  0
    0.6358    2.3417   -0.0108 H   0  0  0  0  0  0  0  0  0  0  0  0
    4.1333   -0.2306   -0.2459 H   0  0  0  0  0  0  0  0  0  0  0  0
    2.9626   -1.2484   -1.1237 H   0  0  0  0  0  0  0  0  0  0  0  0
    3.0374   -1.3023    0.6643 H   0  0  0  0  0  0  0  0  0  0  0  0
    0.9531   -1.9453   -0.1600 H   0  0  0  0  0  0  0  0  0  0  0  0
   -1.5172   -2.1557   -0.0472 H   0  0  0  0  0  0  0  0  0  0  0  0
   -5.8439    2.9874    0.3377 B   0  0  0  0  0  0  0  0  0  0  0  0
   -5.2059    2.4755   -0.7151 F   0  0  0  0  0  0  0  0  0  0  0  0
   -4.3094    4.4350    0.6739 F   0  0  0  0  0  0  0  0  0  0  0  0
   -6.8086    3.8719    0.1509 F   0  0  0  0  0  0  0  0  0  0  0  0
   -5.7128    2.3844    1.5117 F   0  0  0  0  0  0  0  0  0  0  0  0
  1  4  1  0  0  0  0
  1  2  1  0  0  0  0
  2  3  1  0  0  0  0
  5 12  1  0  0  0  0
  5  4  2  0  0  0  0
  6  5  1  0  0  0  0
  7  6  1  0  0  0  0
  8  7  1  0  0  0  0
  8 15  1  0  0  0  0
  9  6  2  0  0  0  0
  9 10  1  0  0  0  0
 10  1  2  0  0  0  0
 11 20  1  0  0  0  0
 13  8  1  0  0  0  0
 14  8  1  0  0  0  0
 16  9  1  0  0  0  0
 17 10  1  0  0  0  0
 18 22  1  0  0  0  0
 19 18  1  0  0  0  0
 21 18  1  0  0  0  0
M  RAD  3   2   2   3   3   4   2
M  END
