Coordinates from ORCA-job 4-MeOPhN2+~BF4-_B3LYPG-6-31G_dp-CH-Scan-d09-49-n800
 OpenBabel11261919343D

 22 20  0  0  0  0  0  0  0  0999 V2000
   -1.6120    0.0923    0.0515 C   0  0  0  0  0  0  0  0  0  0  0  0
   -2.9860    0.0535    0.1447 N   0  0  0  0  0  0  0  0  0  0  0  0
   -4.1054    0.0877    0.2212 N   0  0  0  0  0  0  0  0  0  0  0  0
   -1.0853    1.4058    0.0339 C   0  0  0  0  0  0  0  0  0  0  0  0
    0.3189    1.3530   -0.0598 C   0  0  0  0  0  0  0  0  0  0  0  0
    1.0627    0.1648   -0.1230 C   0  0  0  0  0  0  0  0  0  0  0  0
    2.4084    0.3016   -0.2077 O   0  0  0  0  0  0  0  0  0  0  0  0
    3.2348   -0.8545   -0.2684 C   0  0  0  0  0  0  0  0  0  0  0  0
    0.4254   -1.1104   -0.0981 C   0  0  0  0  0  0  0  0  0  0  0  0
   -0.9451   -1.1611   -0.0089 C   0  0  0  0  0  0  0  0  0  0  0  0
   -4.1748    4.5737    0.5002 H   0  0  0  0  0  0  0  0  0  0  0  0
    0.9049    2.2729   -0.0863 H   0  0  0  0  0  0  0  0  0  0  0  0
    4.2596   -0.4851   -0.3238 H   0  0  0  0  0  0  0  0  0  0  0  0
    3.0219   -1.4581   -1.1593 H   0  0  0  0  0  0  0  0  0  0  0  0
    3.1246   -1.4775    0.6278 H   0  0  0  0  0  0  0  0  0  0  0  0
    0.9990   -2.0274   -0.1475 H   0  0  0  0  0  0  0  0  0  0  0  0
   -1.4780   -2.1089    0.0135 H   0  0  0  0  0  0  0  0  0  0  0  0
   -6.0821    2.9735    0.2914 B   0  0  0  0  0  0  0  0  0  0  0  0
   -5.0994    2.7183   -0.5746 F   0  0  0  0  0  0  0  0  0  0  0  0
   -4.9572    4.7218    0.9823 F   0  0  0  0  0  0  0  0  0  0  0  0
   -7.1465    3.6415   -0.1156 F   0  0  0  0  0  0  0  0  0  0  0  0
   -6.0923    2.3424    1.4531 F   0  0  0  0  0  0  0  0  0  0  0  0
  1  2  1  0  0  0  0
  2  3  1  0  0  0  0
  4  1  1  0  0  0  0
  5  4  2  0  0  0  0
  6  9  2  0  0  0  0
  6  5  1  0  0  0  0
  7  6  1  0  0  0  0
  8  7  1  0  0  0  0
  8 15  1  0  0  0  0
  9 10  1  0  0  0  0
 10 17  1  0  0  0  0
 10  1  2  0  0  0  0
 11 20  1  0  0  0  0
 12  5  1  0  0  0  0
 13  8  1  0  0  0  0
 14  8  1  0  0  0  0
 16  9  1  0  0  0  0
 18 22  1  0  0  0  0
 19 18  1  0  0  0  0
 21 18  1  0  0  0  0
M  RAD  3   2   2   3   3   4   2
M  END
