Coordinates from ORCA-job 4-MeOPhN2+~BF4-_B3LYPG-6-31G_dp-CH-Scan-d09-49-n800
 OpenBabel11261919343D

 22 20  0  0  0  0  0  0  0  0999 V2000
   -1.6427    0.0736    0.0612 C   0  0  0  0  0  0  0  0  0  0  0  0
   -3.0160    0.0169    0.1536 N   0  0  0  0  0  0  0  0  0  0  0  0
   -4.1360    0.0356    0.2258 N   0  0  0  0  0  0  0  0  0  0  0  0
   -1.1315    1.3936    0.0507 C   0  0  0  0  0  0  0  0  0  0  0  0
    0.2731    1.3583   -0.0441 C   0  0  0  0  0  0  0  0  0  0  0  0
    1.0313    0.1797   -0.1151 C   0  0  0  0  0  0  0  0  0  0  0  0
    2.3749    0.3336   -0.2005 O   0  0  0  0  0  0  0  0  0  0  0  0
    3.2155   -0.8117   -0.2706 C   0  0  0  0  0  0  0  0  0  0  0  0
    0.4096   -1.1032   -0.0968 C   0  0  0  0  0  0  0  0  0  0  0  0
   -0.9601   -1.1709   -0.0067 C   0  0  0  0  0  0  0  0  0  0  0  0
   -4.0362    4.4767    0.4955 H   0  0  0  0  0  0  0  0  0  0  0  0
    0.8478    2.2854   -0.0654 H   0  0  0  0  0  0  0  0  0  0  0  0
    4.2355   -0.4293   -0.3253 H   0  0  0  0  0  0  0  0  0  0  0  0
    3.0083   -1.4119   -1.1651 H   0  0  0  0  0  0  0  0  0  0  0  0
    3.1148   -1.4420    0.6216 H   0  0  0  0  0  0  0  0  0  0  0  0
    0.9941   -2.0129   -0.1518 H   0  0  0  0  0  0  0  0  0  0  0  0
   -1.4814   -2.1252    0.0108 H   0  0  0  0  0  0  0  0  0  0  0  0
   -6.0418    2.9805    0.2831 B   0  0  0  0  0  0  0  0  0  0  0  0
   -5.0944    2.6641   -0.6013 F   0  0  0  0  0  0  0  0  0  0  0  0
   -4.8287    4.6703    0.9440 F   0  0  0  0  0  0  0  0  0  0  0  0
   -7.0785    3.7008   -0.1065 F   0  0  0  0  0  0  0  0  0  0  0  0
   -6.0614    2.3575    1.4497 F   0  0  0  0  0  0  0  0  0  0  0  0
  1  2  1  0  0  0  0
  2  3  1  0  0  0  0
  4  1  1  0  0  0  0
  5  4  2  0  0  0  0
  6  9  2  0  0  0  0
  6  5  1  0  0  0  0
  7  6  1  0  0  0  0
  8  7  1  0  0  0  0
  8 15  1  0  0  0  0
  9 10  1  0  0  0  0
 10 17  1  0  0  0  0
 10  1  2  0  0  0  0
 11 20  1  0  0  0  0
 12  5  1  0  0  0  0
 13  8  1  0  0  0  0
 14  8  1  0  0  0  0
 16  9  1  0  0  0  0
 18 22  1  0  0  0  0
 19 18  1  0  0  0  0
 21 18  1  0  0  0  0
M  RAD  3   2   2   3   3   4   2
M  END
