Coordinates from ORCA-job 4-MeOPhN2+~BF4-_B3LYPG-6-31G_dp-CH-Scan-d09-49-n800
 OpenBabel11261919343D

 22 20  0  0  0  0  0  0  0  0999 V2000
   -1.6596    0.0655    0.0583 C   0  0  0  0  0  0  0  0  0  0  0  0
   -3.0326   -0.0005    0.1477 N   0  0  0  0  0  0  0  0  0  0  0  0
   -4.1528    0.0101    0.2185 N   0  0  0  0  0  0  0  0  0  0  0  0
   -1.1559    1.3884    0.0513 C   0  0  0  0  0  0  0  0  0  0  0  0
    0.2489    1.3617   -0.0406 C   0  0  0  0  0  0  0  0  0  0  0  0
    1.0144    0.1877   -0.1121 C   0  0  0  0  0  0  0  0  0  0  0  0
    2.3572    0.3499   -0.1943 O   0  0  0  0  0  0  0  0  0  0  0  0
    3.2049   -0.7902   -0.2647 C   0  0  0  0  0  0  0  0  0  0  0  0
    0.4002   -1.0988   -0.0975 C   0  0  0  0  0  0  0  0  0  0  0  0
   -0.9692   -1.1747   -0.0104 C   0  0  0  0  0  0  0  0  0  0  0  0
   -3.9705    4.4275    0.4773 H   0  0  0  0  0  0  0  0  0  0  0  0
    0.8182    2.2921   -0.0590 H   0  0  0  0  0  0  0  0  0  0  0  0
    4.2226   -0.4015   -0.3164 H   0  0  0  0  0  0  0  0  0  0  0  0
    3.0032   -1.3898   -1.1609 H   0  0  0  0  0  0  0  0  0  0  0  0
    3.1060   -1.4229    0.6260 H   0  0  0  0  0  0  0  0  0  0  0  0
    0.9902   -2.0049   -0.1530 H   0  0  0  0  0  0  0  0  0  0  0  0
   -1.4848   -2.1322    0.0041 H   0  0  0  0  0  0  0  0  0  0  0  0
   -6.0167    2.9817    0.2890 B   0  0  0  0  0  0  0  0  0  0  0  0
   -5.0953    2.6403   -0.6133 F   0  0  0  0  0  0  0  0  0  0  0  0
   -4.7596    4.6452    0.9209 F   0  0  0  0  0  0  0  0  0  0  0  0
   -7.0458    3.7224   -0.0825 F   0  0  0  0  0  0  0  0  0  0  0  0
   -6.0265    2.3626    1.4581 F   0  0  0  0  0  0  0  0  0  0  0  0
  1  2  1  0  0  0  0
  2  3  1  0  0  0  0
  4  1  1  0  0  0  0
  5  4  2  0  0  0  0
  6  9  2  0  0  0  0
  6  5  1  0  0  0  0
  7  6  1  0  0  0  0
  8  7  1  0  0  0  0
  8 15  1  0  0  0  0
  9 10  1  0  0  0  0
 10 17  1  0  0  0  0
 10  1  2  0  0  0  0
 11 20  1  0  0  0  0
 12  5  1  0  0  0  0
 13  8  1  0  0  0  0
 14  8  1  0  0  0  0
 16  9  1  0  0  0  0
 18 22  1  0  0  0  0
 19 18  1  0  0  0  0
 21 18  1  0  0  0  0
M  RAD  3   2   2   3   3   4   2
M  END
