Coordinates from ORCA-job 4-MeOPhN2+~BF4-_B3LYPG-6-31G_dp-CH-Scan-d09-49-n800
 OpenBabel11261919343D

 22 20  0  0  0  0  0  0  0  0999 V2000
   -1.5539    0.1379   -0.0588 C   0  0  0  0  0  0  0  0  0  0  0  0
   -2.9310    0.1418   -0.0104 N   0  0  0  0  0  0  0  0  0  0  0  0
   -4.0508    0.2128    0.0280 N   0  0  0  0  0  0  0  0  0  0  0  0
   -0.9922    1.4353   -0.1170 C   0  0  0  0  0  0  0  0  0  0  0  0
    0.4126    1.3428   -0.1631 C   0  0  0  0  0  0  0  0  0  0  0  0
    1.1251    0.1343   -0.1510 C   0  0  0  0  0  0  0  0  0  0  0  0
    2.4762    0.2325   -0.1995 O   0  0  0  0  0  0  0  0  0  0  0  0
    3.2722   -0.9464   -0.1889 C   0  0  0  0  0  0  0  0  0  0  0  0
    0.4531   -1.1221   -0.0906 C   0  0  0  0  0  0  0  0  0  0  0  0
   -0.9204   -1.1339   -0.0429 C   0  0  0  0  0  0  0  0  0  0  0  0
   -4.4680    4.7776    0.4472 H   0  0  0  0  0  0  0  0  0  0  0  0
    1.0235    2.2455   -0.2112 H   0  0  0  0  0  0  0  0  0  0  0  0
    4.3078   -0.6065   -0.2315 H   0  0  0  0  0  0  0  0  0  0  0  0
    3.0659   -1.5815   -1.0593 H   0  0  0  0  0  0  0  0  0  0  0  0
    3.1218   -1.5278    0.7291 H   0  0  0  0  0  0  0  0  0  0  0  0
    1.0036   -2.0545   -0.0817 H   0  0  0  0  0  0  0  0  0  0  0  0
   -1.4791   -2.0658    0.0044 H   0  0  0  0  0  0  0  0  0  0  0  0
   -6.1524    2.9484    0.4049 B   0  0  0  0  0  0  0  0  0  0  0  0
   -5.2386    2.8513   -0.5631 F   0  0  0  0  0  0  0  0  0  0  0  0
   -5.1906    4.8243    1.0319 F   0  0  0  0  0  0  0  0  0  0  0  0
   -7.3323    3.4743    0.1303 F   0  0  0  0  0  0  0  0  0  0  0  0
   -5.9563    2.2996    1.5397 F   0  0  0  0  0  0  0  0  0  0  0  0
  1 10  1  0  0  0  0
  1  2  1  0  0  0  0
  2  3  1  0  0  0  0
  4  1  2  0  0  0  0
  5  6  2  0  0  0  0
  5  4  1  0  0  0  0
  6  9  1  0  0  0  0
  7  8  1  0  0  0  0
  7  6  1  0  0  0  0
  8 15  1  0  0  0  0
  9 16  1  0  0  0  0
  9 10  2  0  0  0  0
 10 17  1  0  0  0  0
 11 20  1  0  0  0  0
 12  5  1  0  0  0  0
 13  8  1  0  0  0  0
 14  8  1  0  0  0  0
 18 22  1  0  0  0  0
 19 18  1  0  0  0  0
 21 18  1  0  0  0  0
M  RAD  3   2   2   3   3   4   2
M  END
