Coordinates from ORCA-job 4-MeOPhN2+~BF4-_B3LYPG-6-31G_dp-CH-Scan-d09-49-n800
 OpenBabel11261919343D

 22 20  0  0  0  0  0  0  0  0999 V2000
   -1.7291    0.0391    0.0743 C   0  0  0  0  0  0  0  0  0  0  0  0
   -3.0991   -0.0632    0.1644 N   0  0  0  0  0  0  0  0  0  0  0  0
   -4.2184   -0.0857    0.2407 N   0  0  0  0  0  0  0  0  0  0  0  0
   -1.2529    1.3729    0.0885 C   0  0  0  0  0  0  0  0  0  0  0  0
    0.1515    1.3793   -0.0039 C   0  0  0  0  0  0  0  0  0  0  0  0
    0.9433    0.2239   -0.0944 C   0  0  0  0  0  0  0  0  0  0  0  0
    2.2815    0.4179   -0.1732 O   0  0  0  0  0  0  0  0  0  0  0  0
    3.1553   -0.7013   -0.2616 C   0  0  0  0  0  0  0  0  0  0  0  0
    0.3579   -1.0755   -0.1011 C   0  0  0  0  0  0  0  0  0  0  0  0
   -1.0096   -1.1829   -0.0151 C   0  0  0  0  0  0  0  0  0  0  0  0
   -3.6894    4.1925    0.4450 H   0  0  0  0  0  0  0  0  0  0  0  0
    0.6997    2.3223   -0.0070 H   0  0  0  0  0  0  0  0  0  0  0  0
    4.1637   -0.2885   -0.3061 H   0  0  0  0  0  0  0  0  0  0  0  0
    2.9677   -1.2904   -1.1677 H   0  0  0  0  0  0  0  0  0  0  0  0
    3.0704   -1.3505    0.6186 H   0  0  0  0  0  0  0  0  0  0  0  0
    0.9672   -1.9675   -0.1715 H   0  0  0  0  0  0  0  0  0  0  0  0
   -1.5036   -2.1517   -0.0164 H   0  0  0  0  0  0  0  0  0  0  0  0
   -5.9048    2.9855    0.2773 B   0  0  0  0  0  0  0  0  0  0  0  0
   -5.0933    2.5356   -0.6809 F   0  0  0  0  0  0  0  0  0  0  0  0
   -4.4813    4.5110    0.8181 F   0  0  0  0  0  0  0  0  0  0  0  0
   -6.8798    3.8216   -0.0344 F   0  0  0  0  0  0  0  0  0  0  0  0
   -5.9008    2.3751    1.4528 F   0  0  0  0  0  0  0  0  0  0  0  0
  1  4  1  0  0  0  0
  1  2  1  0  0  0  0
  2  3  1  0  0  0  0
  5  4  2  0  0  0  0
  6  5  1  0  0  0  0
  7  6  1  0  0  0  0
  8  7  1  0  0  0  0
  8 15  1  0  0  0  0
  9  6  2  0  0  0  0
  9 10  1  0  0  0  0
 10  1  2  0  0  0  0
 11 20  1  0  0  0  0
 12  5  1  0  0  0  0
 13  8  1  0  0  0  0
 14  8  1  0  0  0  0
 16  9  1  0  0  0  0
 17 10  1  0  0  0  0
 18 22  1  0  0  0  0
 19 18  1  0  0  0  0
 21 18  1  0  0  0  0
M  RAD  3   2   2   3   3   4   2
M  END
