Coordinates from ORCA-job 4-MeOPhN2+~BF4-_B3LYPG-6-31G_dp-CH-Scan-d09-49-n800
 OpenBabel11261919343D

 22 20  0  0  0  0  0  0  0  0999 V2000
   -1.9969    0.0526    0.0963 C   0  0  0  0  0  0  0  0  0  0  0  0
   -3.3535   -0.1482    0.1630 N   0  0  0  0  0  0  0  0  0  0  0  0
   -4.4639   -0.2805    0.2202 N   0  0  0  0  0  0  0  0  0  0  0  0
   -1.5622    1.4010    0.1561 C   0  0  0  0  0  0  0  0  0  0  0  0
   -0.1683    1.4943    0.0807 C   0  0  0  0  0  0  0  0  0  0  0  0
    0.6839    0.3823   -0.0391 C   0  0  0  0  0  0  0  0  0  0  0  0
    2.0048    0.6507   -0.0991 O   0  0  0  0  0  0  0  0  0  0  0  0
    2.9411   -0.4166   -0.2205 C   0  0  0  0  0  0  0  0  0  0  0  0
    0.1615   -0.9389   -0.0911 C   0  0  0  0  0  0  0  0  0  0  0  0
   -1.2007   -1.1158   -0.0229 C   0  0  0  0  0  0  0  0  0  0  0  0
   -2.9362    3.1000    0.3251 H   0  0  0  0  0  0  0  0  0  0  0  0
    0.3222    2.4657    0.1136 H   0  0  0  0  0  0  0  0  0  0  0  0
    3.9240    0.0540   -0.2465 H   0  0  0  0  0  0  0  0  0  0  0  0
    2.7866   -0.9824   -1.1468 H   0  0  0  0  0  0  0  0  0  0  0  0
    2.8879   -1.0963    0.6384 H   0  0  0  0  0  0  0  0  0  0  0  0
    0.8119   -1.7992   -0.1820 H   0  0  0  0  0  0  0  0  0  0  0  0
   -1.6424   -2.1078   -0.0593 H   0  0  0  0  0  0  0  0  0  0  0  0
   -5.2574    2.9634    0.2774 B   0  0  0  0  0  0  0  0  0  0  0  0
   -5.0838    2.3034   -0.8852 F   0  0  0  0  0  0  0  0  0  0  0  0
   -3.6250    3.7757    0.3935 F   0  0  0  0  0  0  0  0  0  0  0  0
   -6.0313    4.0504    0.2800 F   0  0  0  0  0  0  0  0  0  0  0  0
   -5.2060    2.2117    1.3948 F   0  0  0  0  0  0  0  0  0  0  0  0
  1  4  1  0  0  0  0
  1  2  1  0  0  0  0
  2  3  1  0  0  0  0
  5 12  1  0  0  0  0
  5  4  2  0  0  0  0
  6  5  1  0  0  0  0
  7  6  1  0  0  0  0
  8  7  1  0  0  0  0
  8 15  1  0  0  0  0
  9  6  2  0  0  0  0
  9 10  1  0  0  0  0
 10  1  2  0  0  0  0
 11 20  1  0  0  0  0
 13  8  1  0  0  0  0
 14  8  1  0  0  0  0
 16  9  1  0  0  0  0
 17 10  1  0  0  0  0
 18 21  1  0  0  0  0
 18 22  1  0  0  0  0
 19 18  1  0  0  0  0
M  RAD  3   2   2   3   3   4   2
M  END
