Coordinates from ORCA-job 4-MeOPhN2+~BF4-_B3LYPG-6-31G_dp-CH-Scan-d09-49-n800
 OpenBabel11261919343D

 22 20  0  0  0  0  0  0  0  0999 V2000
   -1.7369    0.0384    0.0776 C   0  0  0  0  0  0  0  0  0  0  0  0
   -3.1065   -0.0679    0.1679 N   0  0  0  0  0  0  0  0  0  0  0  0
   -4.2256   -0.0952    0.2456 N   0  0  0  0  0  0  0  0  0  0  0  0
   -1.2627    1.3729    0.0939 C   0  0  0  0  0  0  0  0  0  0  0  0
    0.1414    1.3822    0.0008 C   0  0  0  0  0  0  0  0  0  0  0  0
    0.9355    0.2285   -0.0923 C   0  0  0  0  0  0  0  0  0  0  0  0
    2.2732    0.4253   -0.1716 O   0  0  0  0  0  0  0  0  0  0  0  0
    3.1491   -0.6921   -0.2628 C   0  0  0  0  0  0  0  0  0  0  0  0
    0.3524   -1.0718   -0.1010 C   0  0  0  0  0  0  0  0  0  0  0  0
   -1.0148   -1.1819   -0.0144 C   0  0  0  0  0  0  0  0  0  0  0  0
   -3.6607    4.1600    0.4448 H   0  0  0  0  0  0  0  0  0  0  0  0
    0.6877    2.3264   -0.0009 H   0  0  0  0  0  0  0  0  0  0  0  0
    4.1567   -0.2772   -0.3073 H   0  0  0  0  0  0  0  0  0  0  0  0
    2.9618   -1.2797   -1.1699 H   0  0  0  0  0  0  0  0  0  0  0  0
    3.0662   -1.3430    0.6162 H   0  0  0  0  0  0  0  0  0  0  0  0
    0.9634   -1.9626   -0.1732 H   0  0  0  0  0  0  0  0  0  0  0  0
   -1.5068   -2.1517   -0.0171 H   0  0  0  0  0  0  0  0  0  0  0  0
   -5.8906    2.9851    0.2739 B   0  0  0  0  0  0  0  0  0  0  0  0
   -5.0880    2.5241   -0.6866 F   0  0  0  0  0  0  0  0  0  0  0  0
   -4.4508    4.4936    0.8086 F   0  0  0  0  0  0  0  0  0  0  0  0
   -6.8582    3.8306   -0.0357 F   0  0  0  0  0  0  0  0  0  0  0  0
   -5.8895    2.3757    1.4501 F   0  0  0  0  0  0  0  0  0  0  0  0
  1  4  1  0  0  0  0
  1  2  1  0  0  0  0
  2  3  1  0  0  0  0
  5  4  2  0  0  0  0
  6  5  1  0  0  0  0
  7  6  1  0  0  0  0
  8  7  1  0  0  0  0
  8 15  1  0  0  0  0
  9  6  2  0  0  0  0
  9 10  1  0  0  0  0
 10  1  2  0  0  0  0
 11 20  1  0  0  0  0
 12  5  1  0  0  0  0
 13  8  1  0  0  0  0
 14  8  1  0  0  0  0
 16  9  1  0  0  0  0
 17 10  1  0  0  0  0
 18 22  1  0  0  0  0
 19 18  1  0  0  0  0
 21 18  1  0  0  0  0
M  RAD  3   2   2   3   3   4   2
M  END
