Coordinates from ORCA-job 4-MeOPhN2+~BF4-_B3LYPG-6-31G_dp-CH-Scan-d09-49-n800
 OpenBabel11261919343D

 22 20  0  0  0  0  0  0  0  0999 V2000
   -1.6118    0.0972    0.0373 C   0  0  0  0  0  0  0  0  0  0  0  0
   -2.9865    0.0624    0.1256 N   0  0  0  0  0  0  0  0  0  0  0  0
   -4.1061    0.1030    0.1961 N   0  0  0  0  0  0  0  0  0  0  0  0
   -1.0834    1.4096    0.0121 C   0  0  0  0  0  0  0  0  0  0  0  0
    0.3212    1.3542   -0.0758 C   0  0  0  0  0  0  0  0  0  0  0  0
    1.0633    0.1644   -0.1276 C   0  0  0  0  0  0  0  0  0  0  0  0
    2.4096    0.2986   -0.2081 O   0  0  0  0  0  0  0  0  0  0  0  0
    3.2343   -0.8593   -0.2575 C   0  0  0  0  0  0  0  0  0  0  0  0
    0.4240   -1.1096   -0.0959 C   0  0  0  0  0  0  0  0  0  0  0  0
   -0.9469   -1.1576   -0.0115 C   0  0  0  0  0  0  0  0  0  0  0  0
   -4.1911    4.5851    0.4966 H   0  0  0  0  0  0  0  0  0  0  0  0
    0.9087    2.2730   -0.1068 H   0  0  0  0  0  0  0  0  0  0  0  0
    4.2600   -0.4920   -0.3118 H   0  0  0  0  0  0  0  0  0  0  0  0
    3.0235   -1.4690   -1.1447 H   0  0  0  0  0  0  0  0  0  0  0  0
    3.1199   -1.4756    0.6428 H   0  0  0  0  0  0  0  0  0  0  0  0
    0.9965   -2.0278   -0.1364 H   0  0  0  0  0  0  0  0  0  0  0  0
   -1.4814   -2.1045    0.0158 H   0  0  0  0  0  0  0  0  0  0  0  0
   -6.0759    2.9651    0.3034 B   0  0  0  0  0  0  0  0  0  0  0  0
   -5.0944    2.7319   -0.5703 F   0  0  0  0  0  0  0  0  0  0  0  0
   -4.9648    4.7247    0.9951 F   0  0  0  0  0  0  0  0  0  0  0  0
   -7.1533    3.6183   -0.0933 F   0  0  0  0  0  0  0  0  0  0  0  0
   -6.0692    2.3275    1.4615 F   0  0  0  0  0  0  0  0  0  0  0  0
  1  2  1  0  0  0  0
  2  3  1  0  0  0  0
  4  1  1  0  0  0  0
  5  4  2  0  0  0  0
  6  9  2  0  0  0  0
  6  5  1  0  0  0  0
  7  6  1  0  0  0  0
  8  7  1  0  0  0  0
  8 15  1  0  0  0  0
  9 10  1  0  0  0  0
 10 17  1  0  0  0  0
 10  1  2  0  0  0  0
 11 20  1  0  0  0  0
 12  5  1  0  0  0  0
 13  8  1  0  0  0  0
 14  8  1  0  0  0  0
 16  9  1  0  0  0  0
 18 22  1  0  0  0  0
 19 18  1  0  0  0  0
 21 18  1  0  0  0  0
M  RAD  3   2   2   3   3   4   2
M  END
