Coordinates from ORCA-job 4-MeOPhN2+~BF4-_B3LYPG-6-31G_dp-CH-Scan-d09-49-n800
 OpenBabel11261919343D

 22 21  0  0  0  0  0  0  0  0999 V2000
   -2.1414    0.2841    0.3561 C   0  0  0  0  0  0  0  0  0  0  0  0
   -3.4924    0.1080    0.5395 N   0  0  0  0  0  0  0  0  0  0  0  0
   -4.5684   -0.1456    0.6964 N   0  0  0  0  0  0  0  0  0  0  0  0
   -1.5725    1.5745    0.4124 C   0  0  0  0  0  0  0  0  0  0  0  0
   -0.2096    1.6702    0.2282 C   0  0  0  0  0  0  0  0  0  0  0  0
    0.5787    0.5258   -0.0166 C   0  0  0  0  0  0  0  0  0  0  0  0
    1.8885    0.7527   -0.1875 O   0  0  0  0  0  0  0  0  0  0  0  0
    2.7699   -0.3435   -0.4429 C   0  0  0  0  0  0  0  0  0  0  0  0
   -0.0163   -0.7533   -0.0645 C   0  0  0  0  0  0  0  0  0  0  0  0
   -1.3805   -0.8764    0.1269 C   0  0  0  0  0  0  0  0  0  0  0  0
   -2.1411    2.3404    0.5887 H   0  0  0  0  0  0  0  0  0  0  0  0
    0.2830    2.6356    0.2625 H   0  0  0  0  0  0  0  0  0  0  0  0
    3.7616    0.0957   -0.5421 H   0  0  0  0  0  0  0  0  0  0  0  0
    2.5029   -0.8563   -1.3734 H   0  0  0  0  0  0  0  0  0  0  0  0
    2.7664   -1.0553    0.3902 H   0  0  0  0  0  0  0  0  0  0  0  0
    0.5746   -1.6408   -0.2493 H   0  0  0  0  0  0  0  0  0  0  0  0
   -1.8607   -1.8482    0.0911 H   0  0  0  0  0  0  0  0  0  0  0  0
   -4.7727    2.7467    0.0558 B   0  0  0  0  0  0  0  0  0  0  0  0
   -3.9186    2.1943   -0.9443 F   0  0  0  0  0  0  0  0  0  0  0  0
   -4.0022    2.7864    1.2563 F   0  0  0  0  0  0  0  0  0  0  0  0
   -5.2216    3.9921   -0.2985 F   0  0  0  0  0  0  0  0  0  0  0  0
   -5.8315    1.8326    0.2615 F   0  0  0  0  0  0  0  0  0  0  0  0
  1  4  1  0  0  0  0
  1  2  1  0  0  0  0
  2  3  1  0  0  0  0
  4 11  1  0  0  0  0
  5 12  1  0  0  0  0
  5  4  2  0  0  0  0
  6  5  1  0  0  0  0
  7  6  1  0  0  0  0
  8  7  1  0  0  0  0
  8 15  1  0  0  0  0
  9  6  2  0  0  0  0
  9 10  1  0  0  0  0
 10  1  2  0  0  0  0
 13  8  1  0  0  0  0
 14  8  1  0  0  0  0
 16  9  1  0  0  0  0
 17 10  1  0  0  0  0
 18 22  1  0  0  0  0
 18 20  1  0  0  0  0
 19 18  1  0  0  0  0
 21 18  1  0  0  0  0
M  RAD  2   2   2   3   3
M  END
