Coordinates from ORCA-job 4-MeOPhN2+~BF4-_B3LYPG-6-31G_dp-CH-Scan-d09-49-n800
 OpenBabel11261919343D

 22 20  0  0  0  0  0  0  0  0999 V2000
   -2.0443    0.0617    0.0841 C   0  0  0  0  0  0  0  0  0  0  0  0
   -3.3987   -0.1543    0.1438 N   0  0  0  0  0  0  0  0  0  0  0  0
   -4.5065   -0.3037    0.1947 N   0  0  0  0  0  0  0  0  0  0  0  0
   -1.6118    1.4111    0.1386 C   0  0  0  0  0  0  0  0  0  0  0  0
   -0.2206    1.5167    0.0710 C   0  0  0  0  0  0  0  0  0  0  0  0
    0.6401    0.4092   -0.0382 C   0  0  0  0  0  0  0  0  0  0  0  0
    1.9579    0.6872   -0.0921 O   0  0  0  0  0  0  0  0  0  0  0  0
    2.9032   -0.3741   -0.2032 C   0  0  0  0  0  0  0  0  0  0  0  0
    0.1254   -0.9139   -0.0861 C   0  0  0  0  0  0  0  0  0  0  0  0
   -1.2365   -1.0985   -0.0245 C   0  0  0  0  0  0  0  0  0  0  0  0
   -2.8443    2.9368    0.2788 H   0  0  0  0  0  0  0  0  0  0  0  0
    0.2602    2.4924    0.1018 H   0  0  0  0  0  0  0  0  0  0  0  0
    3.8824    0.1039   -0.2265 H   0  0  0  0  0  0  0  0  0  0  0  0
    2.7571   -0.9451   -1.1276 H   0  0  0  0  0  0  0  0  0  0  0  0
    2.8500   -1.0494    0.6589 H   0  0  0  0  0  0  0  0  0  0  0  0
    0.7807   -1.7713   -0.1689 H   0  0  0  0  0  0  0  0  0  0  0  0
   -1.6712   -2.0935   -0.0582 H   0  0  0  0  0  0  0  0  0  0  0  0
   -5.1085    2.9515    0.2945 B   0  0  0  0  0  0  0  0  0  0  0  0
   -5.0425    2.2716   -0.8774 F   0  0  0  0  0  0  0  0  0  0  0  0
   -3.5248    3.6588    0.3469 F   0  0  0  0  0  0  0  0  0  0  0  0
   -5.8752    4.0501    0.3314 F   0  0  0  0  0  0  0  0  0  0  0  0
   -5.0760    2.1726    1.4048 F   0  0  0  0  0  0  0  0  0  0  0  0
  1  4  1  0  0  0  0
  1  2  1  0  0  0  0
  2  3  1  0  0  0  0
  5 12  1  0  0  0  0
  5  4  2  0  0  0  0
  6  5  1  0  0  0  0
  7  6  1  0  0  0  0
  8  7  1  0  0  0  0
  8 15  1  0  0  0  0
  9  6  2  0  0  0  0
  9 10  1  0  0  0  0
 10  1  2  0  0  0  0
 11 20  1  0  0  0  0
 13  8  1  0  0  0  0
 14  8  1  0  0  0  0
 16  9  1  0  0  0  0
 17 10  1  0  0  0  0
 18 21  1  0  0  0  0
 18 22  1  0  0  0  0
 19 18  1  0  0  0  0
M  RAD  3   2   2   3   3   4   2
M  END
