Coordinates from ORCA-job 4-MeOPhN2+~BF4-_B3LYPG-6-31G_dp-CH-Scan-d09-49-n800
 OpenBabel11261919343D

 22 20  0  0  0  0  0  0  0  0999 V2000
   -1.7424    0.0378    0.0803 C   0  0  0  0  0  0  0  0  0  0  0  0
   -3.1116   -0.0707    0.1716 N   0  0  0  0  0  0  0  0  0  0  0  0
   -4.2308   -0.1009    0.2457 N   0  0  0  0  0  0  0  0  0  0  0  0
   -1.2698    1.3730    0.0955 C   0  0  0  0  0  0  0  0  0  0  0  0
    0.1342    1.3844    0.0015 C   0  0  0  0  0  0  0  0  0  0  0  0
    0.9298    0.2318   -0.0919 C   0  0  0  0  0  0  0  0  0  0  0  0
    2.2671    0.4306   -0.1723 O   0  0  0  0  0  0  0  0  0  0  0  0
    3.1446   -0.6855   -0.2642 C   0  0  0  0  0  0  0  0  0  0  0  0
    0.3486   -1.0693   -0.0994 C   0  0  0  0  0  0  0  0  0  0  0  0
   -1.0183   -1.1813   -0.0117 C   0  0  0  0  0  0  0  0  0  0  0  0
   -3.6411    4.1360    0.4514 H   0  0  0  0  0  0  0  0  0  0  0  0
    0.6790    2.3294   -0.0010 H   0  0  0  0  0  0  0  0  0  0  0  0
    4.1515   -0.2691   -0.3099 H   0  0  0  0  0  0  0  0  0  0  0  0
    2.9573   -1.2736   -1.1710 H   0  0  0  0  0  0  0  0  0  0  0  0
    3.0636   -1.3364    0.6150 H   0  0  0  0  0  0  0  0  0  0  0  0
    0.9608   -1.9593   -0.1717 H   0  0  0  0  0  0  0  0  0  0  0  0
   -1.5090   -2.1518   -0.0136 H   0  0  0  0  0  0  0  0  0  0  0  0
   -5.8801    2.9850    0.2696 B   0  0  0  0  0  0  0  0  0  0  0  0
   -5.0805    2.5188   -0.6909 F   0  0  0  0  0  0  0  0  0  0  0  0
   -4.4302    4.4796    0.8085 F   0  0  0  0  0  0  0  0  0  0  0  0
   -6.8414    3.8378   -0.0399 F   0  0  0  0  0  0  0  0  0  0  0  0
   -5.8850    2.3735    1.4448 F   0  0  0  0  0  0  0  0  0  0  0  0
  1  4  1  0  0  0  0
  1  2  1  0  0  0  0
  2  3  1  0  0  0  0
  5  4  2  0  0  0  0
  6  5  1  0  0  0  0
  7  6  1  0  0  0  0
  8  7  1  0  0  0  0
  8 15  1  0  0  0  0
  9  6  2  0  0  0  0
  9 10  1  0  0  0  0
 10  1  2  0  0  0  0
 11 20  1  0  0  0  0
 12  5  1  0  0  0  0
 13  8  1  0  0  0  0
 14  8  1  0  0  0  0
 16  9  1  0  0  0  0
 17 10  1  0  0  0  0
 18 22  1  0  0  0  0
 19 18  1  0  0  0  0
 21 18  1  0  0  0  0
M  RAD  3   2   2   3   3   4   2
M  END
