Coordinates from ORCA-job 4-MeOPhN2+~BF4-_B3LYPG-6-31G_dp-CH-Scan-d09-49-n800
 OpenBabel11261919343D

 22 20  0  0  0  0  0  0  0  0999 V2000
   -1.9173    0.0454    0.0839 C   0  0  0  0  0  0  0  0  0  0  0  0
   -3.2785   -0.1283    0.1506 N   0  0  0  0  0  0  0  0  0  0  0  0
   -4.3928   -0.2313    0.2097 N   0  0  0  0  0  0  0  0  0  0  0  0
   -1.4732    1.3902    0.1472 C   0  0  0  0  0  0  0  0  0  0  0  0
   -0.0747    1.4588    0.0748 C   0  0  0  0  0  0  0  0  0  0  0  0
    0.7610    0.3353   -0.0444 C   0  0  0  0  0  0  0  0  0  0  0  0
    2.0881    0.5829   -0.0997 O   0  0  0  0  0  0  0  0  0  0  0  0
    3.0069   -0.4986   -0.2193 C   0  0  0  0  0  0  0  0  0  0  0  0
    0.2214   -0.9802   -0.1014 C   0  0  0  0  0  0  0  0  0  0  0  0
   -1.1427   -1.1386   -0.0366 C   0  0  0  0  0  0  0  0  0  0  0  0
   -3.1051    3.4146    0.3370 H   0  0  0  0  0  0  0  0  0  0  0  0
    0.4334    2.4218    0.1104 H   0  0  0  0  0  0  0  0  0  0  0  0
    3.9979   -0.0445   -0.2393 H   0  0  0  0  0  0  0  0  0  0  0  0
    2.8487   -1.0602   -1.1478 H   0  0  0  0  0  0  0  0  0  0  0  0
    2.9391   -1.1804    0.6370 H   0  0  0  0  0  0  0  0  0  0  0  0
    0.8612   -1.8484   -0.1933 H   0  0  0  0  0  0  0  0  0  0  0  0
   -1.5992   -2.1243   -0.0765 H   0  0  0  0  0  0  0  0  0  0  0  0
   -5.4919    2.9682    0.2954 B   0  0  0  0  0  0  0  0  0  0  0  0
   -5.2133    2.3497   -0.8584 F   0  0  0  0  0  0  0  0  0  0  0  0
   -3.8309    4.0162    0.4010 F   0  0  0  0  0  0  0  0  0  0  0  0
   -6.3265    4.0005    0.2934 F   0  0  0  0  0  0  0  0  0  0  0  0
   -5.3154    2.2708    1.4227 F   0  0  0  0  0  0  0  0  0  0  0  0
  1  4  1  0  0  0  0
  1  2  1  0  0  0  0
  2  3  1  0  0  0  0
  5 12  1  0  0  0  0
  5  4  2  0  0  0  0
  6  5  1  0  0  0  0
  7  6  1  0  0  0  0
  8  7  1  0  0  0  0
  8 15  1  0  0  0  0
  9  6  2  0  0  0  0
  9 10  1  0  0  0  0
 10  1  2  0  0  0  0
 11 20  1  0  0  0  0
 13  8  1  0  0  0  0
 14  8  1  0  0  0  0
 16  9  1  0  0  0  0
 17 10  1  0  0  0  0
 18 22  1  0  0  0  0
 19 18  1  0  0  0  0
 21 18  1  0  0  0  0
M  RAD  3   2   2   3   3   4   2
M  END
