Coordinates from ORCA-job 4-MeOPhN2+~BF4-_B3LYPG-6-31G_dp-CH-Scan-d09-49-n800
 OpenBabel11261919343D

 22 20  0  0  0  0  0  0  0  0999 V2000
   -1.6687    0.0620    0.0562 C   0  0  0  0  0  0  0  0  0  0  0  0
   -3.0416   -0.0077    0.1442 N   0  0  0  0  0  0  0  0  0  0  0  0
   -4.1617    0.0015    0.2150 N   0  0  0  0  0  0  0  0  0  0  0  0
   -1.1687    1.3864    0.0501 C   0  0  0  0  0  0  0  0  0  0  0  0
    0.2362    1.3638   -0.0402 C   0  0  0  0  0  0  0  0  0  0  0  0
    1.0052    0.1921   -0.1111 C   0  0  0  0  0  0  0  0  0  0  0  0
    2.3476    0.3583   -0.1916 O   0  0  0  0  0  0  0  0  0  0  0  0
    3.1987   -0.7793   -0.2613 C   0  0  0  0  0  0  0  0  0  0  0  0
    0.3948   -1.0961   -0.0976 C   0  0  0  0  0  0  0  0  0  0  0  0
   -0.9746   -1.1760   -0.0121 C   0  0  0  0  0  0  0  0  0  0  0  0
   -3.9367    4.4009    0.4696 H   0  0  0  0  0  0  0  0  0  0  0  0
    0.8028    2.2960   -0.0577 H   0  0  0  0  0  0  0  0  0  0  0  0
    4.2154   -0.3875   -0.3117 H   0  0  0  0  0  0  0  0  0  0  0  0
    2.9999   -1.3792   -1.1579 H   0  0  0  0  0  0  0  0  0  0  0  0
    3.1006   -1.4125    0.6291 H   0  0  0  0  0  0  0  0  0  0  0  0
    0.9874   -2.0005   -0.1526 H   0  0  0  0  0  0  0  0  0  0  0  0
   -1.4874   -2.1350    0.0016 H   0  0  0  0  0  0  0  0  0  0  0  0
   -6.0020    2.9805    0.2917 B   0  0  0  0  0  0  0  0  0  0  0  0
   -5.0923    2.6286   -0.6184 F   0  0  0  0  0  0  0  0  0  0  0  0
   -4.7236    4.6305    0.9112 F   0  0  0  0  0  0  0  0  0  0  0  0
   -7.0273    3.7303   -0.0717 F   0  0  0  0  0  0  0  0  0  0  0  0
   -6.0079    2.3626    1.4617 F   0  0  0  0  0  0  0  0  0  0  0  0
  1  2  1  0  0  0  0
  2  3  1  0  0  0  0
  4  1  1  0  0  0  0
  5  4  2  0  0  0  0
  6  9  2  0  0  0  0
  6  5  1  0  0  0  0
  7  6  1  0  0  0  0
  8  7  1  0  0  0  0
  8 15  1  0  0  0  0
  9 10  1  0  0  0  0
 10 17  1  0  0  0  0
 10  1  2  0  0  0  0
 11 20  1  0  0  0  0
 12  5  1  0  0  0  0
 13  8  1  0  0  0  0
 14  8  1  0  0  0  0
 16  9  1  0  0  0  0
 18 22  1  0  0  0  0
 19 18  1  0  0  0  0
 21 18  1  0  0  0  0
M  RAD  3   2   2   3   3   4   2
M  END
