Coordinates from ORCA-job 4-MeOPhN2+~BF4-_B3LYPG-6-31G_dp-CH-Scan-d09-49-n800
 OpenBabel11261919343D

 22 21  0  0  0  0  0  0  0  0999 V2000
   -2.1468    0.1342    0.2626 C   0  0  0  0  0  0  0  0  0  0  0  0
   -3.4927   -0.0806    0.4128 N   0  0  0  0  0  0  0  0  0  0  0  0
   -4.5849   -0.2543    0.5646 N   0  0  0  0  0  0  0  0  0  0  0  0
   -1.6395    1.4462    0.4000 C   0  0  0  0  0  0  0  0  0  0  0  0
   -0.2714    1.5853    0.2710 C   0  0  0  0  0  0  0  0  0  0  0  0
    0.5633    0.4781    0.0104 C   0  0  0  0  0  0  0  0  0  0  0  0
    1.8727    0.7503   -0.0937 O   0  0  0  0  0  0  0  0  0  0  0  0
    2.7991   -0.3050   -0.3591 C   0  0  0  0  0  0  0  0  0  0  0  0
    0.0171   -0.8204   -0.1257 C   0  0  0  0  0  0  0  0  0  0  0  0
   -1.3454   -0.9976    0.0036 C   0  0  0  0  0  0  0  0  0  0  0  0
   -2.5026    2.4973    0.6061 H   0  0  0  0  0  0  0  0  0  0  0  0
    0.1967    2.5600    0.3612 H   0  0  0  0  0  0  0  0  0  0  0  0
    3.7802    0.1675   -0.3886 H   0  0  0  0  0  0  0  0  0  0  0  0
    2.5933   -0.7784   -1.3254 H   0  0  0  0  0  0  0  0  0  0  0  0
    2.7799   -1.0581    0.4366 H   0  0  0  0  0  0  0  0  0  0  0  0
    0.6479   -1.6758   -0.3286 H   0  0  0  0  0  0  0  0  0  0  0  0
   -1.7915   -1.9819   -0.0941 H   0  0  0  0  0  0  0  0  0  0  0  0
   -4.7465    2.8777    0.0828 B   0  0  0  0  0  0  0  0  0  0  0  0
   -4.2520    2.0691   -0.9569 F   0  0  0  0  0  0  0  0  0  0  0  0
   -3.5626    3.4722    0.7252 F   0  0  0  0  0  0  0  0  0  0  0  0
   -5.5626    3.8762   -0.3633 F   0  0  0  0  0  0  0  0  0  0  0  0
   -5.3556    2.0576    1.0449 F   0  0  0  0  0  0  0  0  0  0  0  0
  1  4  2  0  0  0  0
  1  2  1  0  0  0  0
  2  3  1  0  0  0  0
  4 11  1  0  0  0  0
  5 12  1  0  0  0  0
  5  4  1  0  0  0  0
  6  5  2  0  0  0  0
  7  6  1  0  0  0  0
  8  7  1  0  0  0  0
  8 15  1  0  0  0  0
  9 10  2  0  0  0  0
  9  6  1  0  0  0  0
 10  1  1  0  0  0  0
 13  8  1  0  0  0  0
 14  8  1  0  0  0  0
 16  9  1  0  0  0  0
 17 10  1  0  0  0  0
 18 20  1  0  0  0  0
 18 22  1  0  0  0  0
 19 18  1  0  0  0  0
 21 18  1  0  0  0  0
M  RAD  2   2   2   3   3
M  END
