Coordinates from ORCA-job 4-MeOPhN2+~BF4-_B3LYPG-6-31G_dp-CH-Scan-d09-49-n800
 OpenBabel11261919343D

 22 20  0  0  0  0  0  0  0  0999 V2000
   -1.8124    0.0403    0.0838 C   0  0  0  0  0  0  0  0  0  0  0  0
   -3.1796   -0.0930    0.1498 N   0  0  0  0  0  0  0  0  0  0  0  0
   -4.2982   -0.1510    0.2073 N   0  0  0  0  0  0  0  0  0  0  0  0
   -1.3505    1.3784    0.1480 C   0  0  0  0  0  0  0  0  0  0  0  0
    0.0522    1.4122    0.0720 C   0  0  0  0  0  0  0  0  0  0  0  0
    0.8633    0.2723   -0.0501 C   0  0  0  0  0  0  0  0  0  0  0  0
    2.1973    0.4906   -0.1101 O   0  0  0  0  0  0  0  0  0  0  0  0
    3.0907   -0.6103   -0.2341 C   0  0  0  0  0  0  0  0  0  0  0  0
    0.2975   -1.0338   -0.1056 C   0  0  0  0  0  0  0  0  0  0  0  0
   -1.0691   -1.1644   -0.0379 C   0  0  0  0  0  0  0  0  0  0  0  0
   -3.3661    3.8428    0.3899 H   0  0  0  0  0  0  0  0  0  0  0  0
    0.5838    2.3635    0.1066 H   0  0  0  0  0  0  0  0  0  0  0  0
    4.0919   -0.1788   -0.2589 H   0  0  0  0  0  0  0  0  0  0  0  0
    2.9166   -1.1690   -1.1618 H   0  0  0  0  0  0  0  0  0  0  0  0
    3.0127   -1.2914    0.6221 H   0  0  0  0  0  0  0  0  0  0  0  0
    0.9205   -1.9141   -0.1985 H   0  0  0  0  0  0  0  0  0  0  0  0
   -1.5471   -2.1402   -0.0767 H   0  0  0  0  0  0  0  0  0  0  0  0
   -5.7525    2.9693    0.2957 B   0  0  0  0  0  0  0  0  0  0  0  0
   -5.3319    2.4355   -0.8492 F   0  0  0  0  0  0  0  0  0  0  0  0
   -4.1601    4.3319    0.4442 F   0  0  0  0  0  0  0  0  0  0  0  0
   -6.6961    3.8964    0.2816 F   0  0  0  0  0  0  0  0  0  0  0  0
   -5.4667    2.3323    1.4287 F   0  0  0  0  0  0  0  0  0  0  0  0
  1  4  1  0  0  0  0
  1  2  1  0  0  0  0
  2  3  1  0  0  0  0
  5 12  1  0  0  0  0
  5  4  2  0  0  0  0
  6  5  1  0  0  0  0
  7  6  1  0  0  0  0
  8  7  1  0  0  0  0
  8 15  1  0  0  0  0
  9  6  2  0  0  0  0
  9 10  1  0  0  0  0
 10  1  2  0  0  0  0
 11 20  1  0  0  0  0
 13  8  1  0  0  0  0
 14  8  1  0  0  0  0
 16  9  1  0  0  0  0
 17 10  1  0  0  0  0
 18 22  1  0  0  0  0
 19 18  1  0  0  0  0
 21 18  1  0  0  0  0
M  RAD  3   2   2   3   3   4   2
M  END
