Coordinates from ORCA-job 4-MeOPhN2+~BF4-_B3LYPG-6-31G_dp-CH-Scan-d09-49-n800
 OpenBabel11261919343D

 22 20  0  0  0  0  0  0  0  0999 V2000
   -1.8735    0.0432    0.0741 C   0  0  0  0  0  0  0  0  0  0  0  0
   -3.2377   -0.1123    0.1359 N   0  0  0  0  0  0  0  0  0  0  0  0
   -4.3545   -0.1938    0.1903 N   0  0  0  0  0  0  0  0  0  0  0  0
   -1.4223    1.3856    0.1357 C   0  0  0  0  0  0  0  0  0  0  0  0
   -0.0217    1.4395    0.0667 C   0  0  0  0  0  0  0  0  0  0  0  0
    0.8042    0.3088   -0.0478 C   0  0  0  0  0  0  0  0  0  0  0  0
    2.1345    0.5440   -0.1012 O   0  0  0  0  0  0  0  0  0  0  0  0
    3.0432   -0.5458   -0.2169 C   0  0  0  0  0  0  0  0  0  0  0  0
    0.2538   -1.0031   -0.1026 C   0  0  0  0  0  0  0  0  0  0  0  0
   -1.1116   -1.1499   -0.0410 C   0  0  0  0  0  0  0  0  0  0  0  0
   -3.2087    3.5935    0.3408 H   0  0  0  0  0  0  0  0  0  0  0  0
    0.4963    2.3977    0.1010 H   0  0  0  0  0  0  0  0  0  0  0  0
    4.0385   -0.1012   -0.2369 H   0  0  0  0  0  0  0  0  0  0  0  0
    2.8813   -1.1088   -1.1440 H   0  0  0  0  0  0  0  0  0  0  0  0
    2.9686   -1.2252    0.6410 H   0  0  0  0  0  0  0  0  0  0  0  0
    0.8871   -1.8765   -0.1903 H   0  0  0  0  0  0  0  0  0  0  0  0
   -1.5768   -2.1316   -0.0794 H   0  0  0  0  0  0  0  0  0  0  0  0
   -5.6089    2.9668    0.3100 B   0  0  0  0  0  0  0  0  0  0  0  0
   -5.2887    2.3831   -0.8467 F   0  0  0  0  0  0  0  0  0  0  0  0
   -3.9603    4.1524    0.4017 F   0  0  0  0  0  0  0  0  0  0  0  0
   -6.4884    3.9578    0.3210 F   0  0  0  0  0  0  0  0  0  0  0  0
   -5.3581    2.2954    1.4352 F   0  0  0  0  0  0  0  0  0  0  0  0
  1  4  1  0  0  0  0
  1  2  1  0  0  0  0
  2  3  1  0  0  0  0
  5 12  1  0  0  0  0
  5  4  2  0  0  0  0
  6  5  1  0  0  0  0
  7  6  1  0  0  0  0
  8  7  1  0  0  0  0
  8 15  1  0  0  0  0
  9  6  2  0  0  0  0
  9 10  1  0  0  0  0
 10  1  2  0  0  0  0
 11 20  1  0  0  0  0
 13  8  1  0  0  0  0
 14  8  1  0  0  0  0
 16  9  1  0  0  0  0
 17 10  1  0  0  0  0
 18 21  1  0  0  0  0
 18 22  1  0  0  0  0
 19 18  1  0  0  0  0
M  RAD  3   2   2   3   3   4   2
M  END
