Coordinates from ORCA-job 4-MeOPhN2+~BF4-_B3LYPG-6-31G_dp-CH-Scan-d09-49-n800
 OpenBabel11261919343D

 22 20  0  0  0  0  0  0  0  0999 V2000
   -1.9030    0.0448    0.0803 C   0  0  0  0  0  0  0  0  0  0  0  0
   -3.2650   -0.1241    0.1454 N   0  0  0  0  0  0  0  0  0  0  0  0
   -4.3799   -0.2234    0.2033 N   0  0  0  0  0  0  0  0  0  0  0  0
   -1.4565    1.3887    0.1439 C   0  0  0  0  0  0  0  0  0  0  0  0
   -0.0573    1.4524    0.0728 C   0  0  0  0  0  0  0  0  0  0  0  0
    0.7752    0.3266   -0.0452 C   0  0  0  0  0  0  0  0  0  0  0  0
    2.1034    0.5701   -0.0994 O   0  0  0  0  0  0  0  0  0  0  0  0
    3.0189   -0.5142   -0.2178 C   0  0  0  0  0  0  0  0  0  0  0  0
    0.2320   -0.9877   -0.1023 C   0  0  0  0  0  0  0  0  0  0  0  0
   -1.1325   -1.1423   -0.0389 C   0  0  0  0  0  0  0  0  0  0  0  0
   -3.1377    3.4763    0.3360 H   0  0  0  0  0  0  0  0  0  0  0  0
    0.4541    2.4138    0.1086 H   0  0  0  0  0  0  0  0  0  0  0  0
    4.0114   -0.0633   -0.2371 H   0  0  0  0  0  0  0  0  0  0  0  0
    2.8598   -1.0757   -1.1462 H   0  0  0  0  0  0  0  0  0  0  0  0
    2.9484   -1.1956    0.6386 H   0  0  0  0  0  0  0  0  0  0  0  0
    0.8696   -1.8576   -0.1933 H   0  0  0  0  0  0  0  0  0  0  0  0
   -1.5919   -2.1266   -0.0790 H   0  0  0  0  0  0  0  0  0  0  0  0
   -5.5313    2.9680    0.3011 B   0  0  0  0  0  0  0  0  0  0  0  0
   -5.2424    2.3599   -0.8541 F   0  0  0  0  0  0  0  0  0  0  0  0
   -3.8729    4.0629    0.3965 F   0  0  0  0  0  0  0  0  0  0  0  0
   -6.3804    3.9872    0.3057 F   0  0  0  0  0  0  0  0  0  0  0  0
   -5.3258    2.2793    1.4275 F   0  0  0  0  0  0  0  0  0  0  0  0
  1  4  1  0  0  0  0
  1  2  1  0  0  0  0
  2  3  1  0  0  0  0
  5 12  1  0  0  0  0
  5  4  2  0  0  0  0
  6  5  1  0  0  0  0
  7  6  1  0  0  0  0
  8  7  1  0  0  0  0
  8 15  1  0  0  0  0
  9  6  2  0  0  0  0
  9 10  1  0  0  0  0
 10  1  2  0  0  0  0
 11 20  1  0  0  0  0
 13  8  1  0  0  0  0
 14  8  1  0  0  0  0
 16  9  1  0  0  0  0
 17 10  1  0  0  0  0
 18 21  1  0  0  0  0
 18 22  1  0  0  0  0
 19 18  1  0  0  0  0
M  RAD  3   2   2   3   3   4   2
M  END
