Coordinates from ORCA-job 4-MeOPhN2+~BF4-_B3LYPG-6-31G_dp-CH-Scan-d09-49-n800
 OpenBabel11261919343D

 22 20  0  0  0  0  0  0  0  0999 V2000
   -1.6842    0.0547    0.0518 C   0  0  0  0  0  0  0  0  0  0  0  0
   -3.0566   -0.0243    0.1374 N   0  0  0  0  0  0  0  0  0  0  0  0
   -4.1767   -0.0254    0.2077 N   0  0  0  0  0  0  0  0  0  0  0  0
   -1.1910    1.3818    0.0503 C   0  0  0  0  0  0  0  0  0  0  0  0
    0.2142    1.3671   -0.0363 C   0  0  0  0  0  0  0  0  0  0  0  0
    0.9899    0.1998   -0.1079 C   0  0  0  0  0  0  0  0  0  0  0  0
    2.3314    0.3737   -0.1837 O   0  0  0  0  0  0  0  0  0  0  0  0
    3.1892   -0.7590   -0.2528 C   0  0  0  0  0  0  0  0  0  0  0  0
    0.3864   -1.0916   -0.0999 C   0  0  0  0  0  0  0  0  0  0  0  0
   -0.9827   -1.1791   -0.0183 C   0  0  0  0  0  0  0  0  0  0  0  0
   -3.8691    4.3521    0.4460 H   0  0  0  0  0  0  0  0  0  0  0  0
    0.7757    2.3024   -0.0498 H   0  0  0  0  0  0  0  0  0  0  0  0
    4.2038   -0.3615   -0.2984 H   0  0  0  0  0  0  0  0  0  0  0  0
    2.9971   -1.3578   -1.1516 H   0  0  0  0  0  0  0  0  0  0  0  0
    3.0912   -1.3948    0.6357 H   0  0  0  0  0  0  0  0  0  0  0  0
    0.9839   -1.9927   -0.1559 H   0  0  0  0  0  0  0  0  0  0  0  0
   -1.4903   -2.1409   -0.0089 H   0  0  0  0  0  0  0  0  0  0  0  0
   -5.9817    2.9841    0.3003 B   0  0  0  0  0  0  0  0  0  0  0  0
   -5.1144    2.6034   -0.6389 F   0  0  0  0  0  0  0  0  0  0  0  0
   -4.6550    4.6006    0.8790 F   0  0  0  0  0  0  0  0  0  0  0  0
   -6.9990    3.7598   -0.0305 F   0  0  0  0  0  0  0  0  0  0  0  0
   -5.9659    2.3672    1.4712 F   0  0  0  0  0  0  0  0  0  0  0  0
  1  2  1  0  0  0  0
  2  3  1  0  0  0  0
  4  1  1  0  0  0  0
  5  4  2  0  0  0  0
  6  9  2  0  0  0  0
  6  5  1  0  0  0  0
  7  6  1  0  0  0  0
  8  7  1  0  0  0  0
  8 15  1  0  0  0  0
  9 10  1  0  0  0  0
 10 17  1  0  0  0  0
 10  1  2  0  0  0  0
 11 20  1  0  0  0  0
 12  5  1  0  0  0  0
 13  8  1  0  0  0  0
 14  8  1  0  0  0  0
 16  9  1  0  0  0  0
 18 22  1  0  0  0  0
 19 18  1  0  0  0  0
 21 18  1  0  0  0  0
M  RAD  3   2   2   3   3   4   2
M  END
