Coordinates from ORCA-job 4-MeOPhN2+~BF4-_B3LYPG-6-31G_dp-CH-Scan-d09-49-n800
 OpenBabel11261919343D

 22 20  0  0  0  0  0  0  0  0999 V2000
   -1.8893    0.0443    0.0729 C   0  0  0  0  0  0  0  0  0  0  0  0
   -3.2525   -0.1174    0.1347 N   0  0  0  0  0  0  0  0  0  0  0  0
   -4.3686   -0.2061    0.1893 N   0  0  0  0  0  0  0  0  0  0  0  0
   -1.4407    1.3877    0.1339 C   0  0  0  0  0  0  0  0  0  0  0  0
   -0.0408    1.4468    0.0657 C   0  0  0  0  0  0  0  0  0  0  0  0
    0.7888    0.3185   -0.0475 C   0  0  0  0  0  0  0  0  0  0  0  0
    2.1181    0.5581   -0.0998 O   0  0  0  0  0  0  0  0  0  0  0  0
    3.0306   -0.5290   -0.2138 C   0  0  0  0  0  0  0  0  0  0  0  0
    0.2424   -0.9947   -0.1021 C   0  0  0  0  0  0  0  0  0  0  0  0
   -1.1226   -1.1457   -0.0413 C   0  0  0  0  0  0  0  0  0  0  0  0
   -3.1705    3.5257    0.3328 H   0  0  0  0  0  0  0  0  0  0  0  0
    0.4736    2.4068    0.1000 H   0  0  0  0  0  0  0  0  0  0  0  0
    4.0244   -0.0810   -0.2329 H   0  0  0  0  0  0  0  0  0  0  0  0
    2.8715   -1.0927   -1.1409 H   0  0  0  0  0  0  0  0  0  0  0  0
    2.9570   -1.2079    0.6443 H   0  0  0  0  0  0  0  0  0  0  0  0
    0.8782   -1.8664   -0.1891 H   0  0  0  0  0  0  0  0  0  0  0  0
   -1.5847   -2.1289   -0.0796 H   0  0  0  0  0  0  0  0  0  0  0  0
   -5.5681    2.9680    0.3114 B   0  0  0  0  0  0  0  0  0  0  0  0
   -5.2715    2.3686   -0.8452 F   0  0  0  0  0  0  0  0  0  0  0  0
   -3.9120    4.1012    0.3950 F   0  0  0  0  0  0  0  0  0  0  0  0
   -6.4301    3.9754    0.3215 F   0  0  0  0  0  0  0  0  0  0  0  0
   -5.3370    2.2885    1.4372 F   0  0  0  0  0  0  0  0  0  0  0  0
  1  4  1  0  0  0  0
  1  2  1  0  0  0  0
  2  3  1  0  0  0  0
  5 12  1  0  0  0  0
  5  4  2  0  0  0  0
  6  5  1  0  0  0  0
  7  6  1  0  0  0  0
  8  7  1  0  0  0  0
  8 15  1  0  0  0  0
  9  6  2  0  0  0  0
  9 10  1  0  0  0  0
 10  1  2  0  0  0  0
 11 20  1  0  0  0  0
 13  8  1  0  0  0  0
 14  8  1  0  0  0  0
 16  9  1  0  0  0  0
 17 10  1  0  0  0  0
 18 21  1  0  0  0  0
 18 22  1  0  0  0  0
 19 18  1  0  0  0  0
M  RAD  3   2   2   3   3   4   2
M  END
