Coordinates from ORCA-job 4-MeOPhN2+~BF4-_B3LYPG-6-31G_dp-CH-Scan-d09-49-n800
 OpenBabel11261919343D

 22 20  0  0  0  0  0  0  0  0999 V2000
   -2.0772    0.0725    0.0300 C   0  0  0  0  0  0  0  0  0  0  0  0
   -3.4312   -0.1502    0.0675 N   0  0  0  0  0  0  0  0  0  0  0  0
   -4.5379   -0.3079    0.0966 N   0  0  0  0  0  0  0  0  0  0  0  0
   -1.6436    1.4221    0.0598 C   0  0  0  0  0  0  0  0  0  0  0  0
   -0.2538    1.5346    0.0153 C   0  0  0  0  0  0  0  0  0  0  0  0
    0.6123    0.4273   -0.0504 C   0  0  0  0  0  0  0  0  0  0  0  0
    1.9290    0.7093   -0.0858 O   0  0  0  0  0  0  0  0  0  0  0  0
    2.8805   -0.3508   -0.1507 C   0  0  0  0  0  0  0  0  0  0  0  0
    0.1015   -0.8970   -0.0758 C   0  0  0  0  0  0  0  0  0  0  0  0
   -1.2613   -1.0843   -0.0354 C   0  0  0  0  0  0  0  0  0  0  0  0
   -2.7865    2.8361    0.1633 H   0  0  0  0  0  0  0  0  0  0  0  0
    0.2203    2.5134    0.0319 H   0  0  0  0  0  0  0  0  0  0  0  0
    3.8580    0.1309   -0.1667 H   0  0  0  0  0  0  0  0  0  0  0  0
    2.7546   -0.9455   -1.0629 H   0  0  0  0  0  0  0  0  0  0  0  0
    2.8122   -1.0034    0.7276 H   0  0  0  0  0  0  0  0  0  0  0  0
    0.7598   -1.7546   -0.1254 H   0  0  0  0  0  0  0  0  0  0  0  0
   -1.6920   -2.0812   -0.0533 H   0  0  0  0  0  0  0  0  0  0  0  0
   -5.0064    2.9372    0.3667 B   0  0  0  0  0  0  0  0  0  0  0  0
   -5.1242    2.2583   -0.8102 F   0  0  0  0  0  0  0  0  0  0  0  0
   -3.4741    3.5942    0.2332 F   0  0  0  0  0  0  0  0  0  0  0  0
   -5.7735    4.0312    0.5154 F   0  0  0  0  0  0  0  0  0  0  0  0
   -4.8706    2.1277    1.4558 F   0  0  0  0  0  0  0  0  0  0  0  0
  1  4  1  0  0  0  0
  1  2  1  0  0  0  0
  2  3  1  0  0  0  0
  5 12  1  0  0  0  0
  5  4  2  0  0  0  0
  6  5  1  0  0  0  0
  7  6  1  0  0  0  0
  8  7  1  0  0  0  0
  8 15  1  0  0  0  0
  9  6  2  0  0  0  0
  9 10  1  0  0  0  0
 10  1  2  0  0  0  0
 11 20  1  0  0  0  0
 13  8  1  0  0  0  0
 14  8  1  0  0  0  0
 16  9  1  0  0  0  0
 17 10  1  0  0  0  0
 18 21  1  0  0  0  0
 18 22  1  0  0  0  0
 19 18  1  0  0  0  0
M  RAD  3   2   2   3   3   4   2
M  END
