Coordinates from ORCA-job 4-MeOPhN2+~BF4-_B3LYPG-6-31G_dp-CH-Scan-d09-49-n800
 OpenBabel11261919343D

 22 20  0  0  0  0  0  0  0  0999 V2000
   -2.1093    0.0856    0.1878 C   0  0  0  0  0  0  0  0  0  0  0  0
   -3.4580   -0.1449    0.2903 N   0  0  0  0  0  0  0  0  0  0  0  0
   -4.5581   -0.3170    0.3859 N   0  0  0  0  0  0  0  0  0  0  0  0
   -1.6593    1.4255    0.2878 C   0  0  0  0  0  0  0  0  0  0  0  0
   -0.2777    1.5508    0.1829 C   0  0  0  0  0  0  0  0  0  0  0  0
    0.5809    0.4508   -0.0070 C   0  0  0  0  0  0  0  0  0  0  0  0
    1.8927    0.7368   -0.0911 O   0  0  0  0  0  0  0  0  0  0  0  0
    2.8375   -0.3147   -0.2858 C   0  0  0  0  0  0  0  0  0  0  0  0
    0.0637   -0.8668   -0.1001 C   0  0  0  0  0  0  0  0  0  0  0  0
   -1.2964   -1.0578   -0.0015 C   0  0  0  0  0  0  0  0  0  0  0  0
   -2.6930    2.6831    0.4502 H   0  0  0  0  0  0  0  0  0  0  0  0
    0.1926    2.5289    0.2426 H   0  0  0  0  0  0  0  0  0  0  0  0
    3.8136    0.1687   -0.3167 H   0  0  0  0  0  0  0  0  0  0  0  0
    2.6617   -0.8383   -1.2324 H   0  0  0  0  0  0  0  0  0  0  0  0
    2.8127   -1.0313    0.5435 H   0  0  0  0  0  0  0  0  0  0  0  0
    0.7150   -1.7186   -0.2458 H   0  0  0  0  0  0  0  0  0  0  0  0
   -1.7291   -2.0515   -0.0675 H   0  0  0  0  0  0  0  0  0  0  0  0
   -4.8786    2.9173    0.1552 B   0  0  0  0  0  0  0  0  0  0  0  0
   -4.6324    2.1657   -0.9709 F   0  0  0  0  0  0  0  0  0  0  0  0
   -3.4353    3.4942    0.5254 F   0  0  0  0  0  0  0  0  0  0  0  0
   -5.6445    4.0150   -0.0273 F   0  0  0  0  0  0  0  0  0  0  0  0
   -5.2025    2.1384    1.2412 F   0  0  0  0  0  0  0  0  0  0  0  0
  1  4  1  0  0  0  0
  1  2  1  0  0  0  0
  2  3  1  0  0  0  0
  5 12  1  0  0  0  0
  5  4  2  0  0  0  0
  6  5  1  0  0  0  0
  7  6  1  0  0  0  0
  8  7  1  0  0  0  0
  8 15  1  0  0  0  0
  9  6  2  0  0  0  0
  9 10  1  0  0  0  0
 10  1  2  0  0  0  0
 11 20  1  0  0  0  0
 13  8  1  0  0  0  0
 14  8  1  0  0  0  0
 16  9  1  0  0  0  0
 17 10  1  0  0  0  0
 18 22  1  0  0  0  0
 19 18  1  0  0  0  0
 21 18  1  0  0  0  0
M  RAD  3   2   2   3   3   4   2
M  END
