Coordinates from ORCA-job 4-MeOPhN2+~BF4-_B3LYPG-6-31G_dp-CH-Scan-d09-49-n800
 OpenBabel11261919343D

 22 20  0  0  0  0  0  0  0  0999 V2000
   -1.9466    0.0491    0.0996 C   0  0  0  0  0  0  0  0  0  0  0  0
   -3.3059   -0.1347    0.1709 N   0  0  0  0  0  0  0  0  0  0  0  0
   -4.4182   -0.2531    0.2328 N   0  0  0  0  0  0  0  0  0  0  0  0
   -1.5051    1.3947    0.1643 C   0  0  0  0  0  0  0  0  0  0  0  0
   -0.1087    1.4729    0.0856 C   0  0  0  0  0  0  0  0  0  0  0  0
    0.7324    0.3538   -0.0408 C   0  0  0  0  0  0  0  0  0  0  0  0
    2.0570    0.6089   -0.1023 O   0  0  0  0  0  0  0  0  0  0  0  0
    2.9815   -0.4673   -0.2297 C   0  0  0  0  0  0  0  0  0  0  0  0
    0.1985   -0.9636   -0.0982 C   0  0  0  0  0  0  0  0  0  0  0  0
   -1.1647   -1.1290   -0.0273 C   0  0  0  0  0  0  0  0  0  0  0  0
   -3.0445    3.2870    0.3555 H   0  0  0  0  0  0  0  0  0  0  0  0
    0.3932    2.4388    0.1214 H   0  0  0  0  0  0  0  0  0  0  0  0
    3.9696   -0.0073   -0.2543 H   0  0  0  0  0  0  0  0  0  0  0  0
    2.8209   -1.0273   -1.1587 H   0  0  0  0  0  0  0  0  0  0  0  0
    2.9223   -1.1512    0.6255 H   0  0  0  0  0  0  0  0  0  0  0  0
    0.8417   -1.8286   -0.1949 H   0  0  0  0  0  0  0  0  0  0  0  0
   -1.6159   -2.1169   -0.0674 H   0  0  0  0  0  0  0  0  0  0  0  0
   -5.4018    2.9705    0.2724 B   0  0  0  0  0  0  0  0  0  0  0  0
   -5.1397    2.3309   -0.8784 F   0  0  0  0  0  0  0  0  0  0  0  0
   -3.7555    3.9163    0.4194 F   0  0  0  0  0  0  0  0  0  0  0  0
   -6.2102    4.0267    0.2520 F   0  0  0  0  0  0  0  0  0  0  0  0
   -5.3042    2.2491    1.3991 F   0  0  0  0  0  0  0  0  0  0  0  0
  1  4  1  0  0  0  0
  1  2  1  0  0  0  0
  2  3  1  0  0  0  0
  5 12  1  0  0  0  0
  5  4  2  0  0  0  0
  6  5  1  0  0  0  0
  7  6  1  0  0  0  0
  8  7  1  0  0  0  0
  8 15  1  0  0  0  0
  9  6  2  0  0  0  0
  9 10  1  0  0  0  0
 10  1  2  0  0  0  0
 11 20  1  0  0  0  0
 13  8  1  0  0  0  0
 14  8  1  0  0  0  0
 16  9  1  0  0  0  0
 17 10  1  0  0  0  0
 18 22  1  0  0  0  0
 19 18  1  0  0  0  0
 21 18  1  0  0  0  0
M  RAD  3   2   2   3   3   4   2
M  END
