Coordinates from ORCA-job 4-MeOPhN2+~BF4-_B3LYPG-6-31G_dp-CH-Scan-d09-49-n800
 OpenBabel11261919343D

 22 20  0  0  0  0  0  0  0  0999 V2000
   -2.0507    0.0632    0.0865 C   0  0  0  0  0  0  0  0  0  0  0  0
   -3.4048   -0.1547    0.1468 N   0  0  0  0  0  0  0  0  0  0  0  0
   -4.5121   -0.3064    0.1981 N   0  0  0  0  0  0  0  0  0  0  0  0
   -1.6180    1.4124    0.1418 C   0  0  0  0  0  0  0  0  0  0  0  0
   -0.2273    1.5198    0.0735 C   0  0  0  0  0  0  0  0  0  0  0  0
    0.6342    0.4130   -0.0372 C   0  0  0  0  0  0  0  0  0  0  0  0
    1.9516    0.6921   -0.0918 O   0  0  0  0  0  0  0  0  0  0  0  0
    2.8977   -0.3684   -0.2046 C   0  0  0  0  0  0  0  0  0  0  0  0
    0.1203   -0.9103   -0.0860 C   0  0  0  0  0  0  0  0  0  0  0  0
   -1.2416   -1.0958   -0.0236 C   0  0  0  0  0  0  0  0  0  0  0  0
   -2.8317    2.9147    0.2806 H   0  0  0  0  0  0  0  0  0  0  0  0
    0.2523    2.4960    0.1048 H   0  0  0  0  0  0  0  0  0  0  0  0
    3.8765    0.1105   -0.2281 H   0  0  0  0  0  0  0  0  0  0  0  0
    2.7513   -0.9386   -1.1294 H   0  0  0  0  0  0  0  0  0  0  0  0
    2.8456   -1.0444    0.6570 H   0  0  0  0  0  0  0  0  0  0  0  0
    0.7759   -1.7673   -0.1698 H   0  0  0  0  0  0  0  0  0  0  0  0
   -1.6755   -2.0911   -0.0579 H   0  0  0  0  0  0  0  0  0  0  0  0
   -5.0872    2.9494    0.2912 B   0  0  0  0  0  0  0  0  0  0  0  0
   -5.0248    2.2659   -0.8805 F   0  0  0  0  0  0  0  0  0  0  0  0
   -3.5127    3.6436    0.3492 F   0  0  0  0  0  0  0  0  0  0  0  0
   -5.8549    4.0485    0.3245 F   0  0  0  0  0  0  0  0  0  0  0  0
   -5.0677    2.1676    1.4015 F   0  0  0  0  0  0  0  0  0  0  0  0
  1  4  1  0  0  0  0
  1  2  1  0  0  0  0
  2  3  1  0  0  0  0
  5 12  1  0  0  0  0
  5  4  2  0  0  0  0
  6  5  1  0  0  0  0
  7  6  1  0  0  0  0
  8  7  1  0  0  0  0
  8 15  1  0  0  0  0
  9  6  2  0  0  0  0
  9 10  1  0  0  0  0
 10  1  2  0  0  0  0
 11 20  1  0  0  0  0
 13  8  1  0  0  0  0
 14  8  1  0  0  0  0
 16  9  1  0  0  0  0
 17 10  1  0  0  0  0
 18 21  1  0  0  0  0
 18 22  1  0  0  0  0
 19 18  1  0  0  0  0
M  RAD  3   2   2   3   3   4   2
M  END
