Coordinates from ORCA-job 4-MeOPhN2+~BF4-_B3LYPG-6-31G_dp-CH-Scan-d09-49-n800
 OpenBabel11261919343D

 22 20  0  0  0  0  0  0  0  0999 V2000
   -1.5937    0.1066    0.0171 C   0  0  0  0  0  0  0  0  0  0  0  0
   -2.9689    0.0810    0.0984 N   0  0  0  0  0  0  0  0  0  0  0  0
   -4.0886    0.1262    0.1646 N   0  0  0  0  0  0  0  0  0  0  0  0
   -1.0565    1.4154   -0.0165 C   0  0  0  0  0  0  0  0  0  0  0  0
    0.3482    1.3500   -0.0968 C   0  0  0  0  0  0  0  0  0  0  0  0
    1.0827    0.1550   -0.1343 C   0  0  0  0  0  0  0  0  0  0  0  0
    2.4302    0.2796   -0.2090 O   0  0  0  0  0  0  0  0  0  0  0  0
    3.2475   -0.8841   -0.2441 C   0  0  0  0  0  0  0  0  0  0  0  0
    0.4348   -1.1146   -0.0950 C   0  0  0  0  0  0  0  0  0  0  0  0
   -0.9368   -1.1530   -0.0175 C   0  0  0  0  0  0  0  0  0  0  0  0
   -4.2707    4.6450    0.4909 H   0  0  0  0  0  0  0  0  0  0  0  0
    0.9418    2.2647   -0.1327 H   0  0  0  0  0  0  0  0  0  0  0  0
    4.2758   -0.5241   -0.2967 H   0  0  0  0  0  0  0  0  0  0  0  0
    3.0367   -1.5003   -1.1270 H   0  0  0  0  0  0  0  0  0  0  0  0
    3.1246   -1.4917    0.6609 H   0  0  0  0  0  0  0  0  0  0  0  0
    1.0016   -2.0367   -0.1247 H   0  0  0  0  0  0  0  0  0  0  0  0
   -1.4776   -2.0960    0.0153 H   0  0  0  0  0  0  0  0  0  0  0  0
   -6.1044    2.9655    0.3232 B   0  0  0  0  0  0  0  0  0  0  0  0
   -5.1283    2.7663   -0.5650 F   0  0  0  0  0  0  0  0  0  0  0  0
   -5.0337    4.7525    1.0132 F   0  0  0  0  0  0  0  0  0  0  0  0
   -7.2041    3.5928   -0.0537 F   0  0  0  0  0  0  0  0  0  0  0  0
   -6.0645    2.3196    1.4759 F   0  0  0  0  0  0  0  0  0  0  0  0
  1  2  1  0  0  0  0
  2  3  1  0  0  0  0
  4  1  2  0  0  0  0
  5  4  1  0  0  0  0
  6  5  2  0  0  0  0
  6  9  1  0  0  0  0
  7  6  1  0  0  0  0
  8  7  1  0  0  0  0
  8 15  1  0  0  0  0
  9 10  2  0  0  0  0
 10 17  1  0  0  0  0
 10  1  1  0  0  0  0
 11 20  1  0  0  0  0
 12  5  1  0  0  0  0
 13  8  1  0  0  0  0
 14  8  1  0  0  0  0
 16  9  1  0  0  0  0
 18 22  1  0  0  0  0
 19 18  1  0  0  0  0
 21 18  1  0  0  0  0
M  RAD  3   2   2   3   3   4   2
M  END
