Coordinates from ORCA-job 4-MeOPhN2+~BF4-_B3LYPG-6-31G_dp-CH-Scan-d09-49-n800
 OpenBabel11261919343D

 22 20  0  0  0  0  0  0  0  0999 V2000
   -2.0074    0.0546    0.0853 C   0  0  0  0  0  0  0  0  0  0  0  0
   -3.3637   -0.1494    0.1472 N   0  0  0  0  0  0  0  0  0  0  0  0
   -4.4737   -0.2852    0.2001 N   0  0  0  0  0  0  0  0  0  0  0  0
   -1.5737    1.4035    0.1404 C   0  0  0  0  0  0  0  0  0  0  0  0
   -0.1801    1.4994    0.0703 C   0  0  0  0  0  0  0  0  0  0  0  0
    0.6744    0.3881   -0.0407 C   0  0  0  0  0  0  0  0  0  0  0  0
    1.9948    0.6586   -0.0965 O   0  0  0  0  0  0  0  0  0  0  0  0
    2.9336   -0.4076   -0.2090 C   0  0  0  0  0  0  0  0  0  0  0  0
    0.1541   -0.9338   -0.0888 C   0  0  0  0  0  0  0  0  0  0  0  0
   -1.2082   -1.1124   -0.0253 C   0  0  0  0  0  0  0  0  0  0  0  0
   -2.9161    3.0646    0.2980 H   0  0  0  0  0  0  0  0  0  0  0  0
    0.3081    2.4718    0.1008 H   0  0  0  0  0  0  0  0  0  0  0  0
    3.9157    0.0647   -0.2332 H   0  0  0  0  0  0  0  0  0  0  0  0
    2.7838   -0.9779   -1.1333 H   0  0  0  0  0  0  0  0  0  0  0  0
    2.8780   -1.0832    0.6529 H   0  0  0  0  0  0  0  0  0  0  0  0
    0.8060   -1.7937   -0.1730 H   0  0  0  0  0  0  0  0  0  0  0  0
   -1.6482   -2.1053   -0.0590 H   0  0  0  0  0  0  0  0  0  0  0  0
   -5.2265    2.9610    0.2932 B   0  0  0  0  0  0  0  0  0  0  0  0
   -5.0985    2.2996   -0.8762 F   0  0  0  0  0  0  0  0  0  0  0  0
   -3.6015    3.7504    0.3662 F   0  0  0  0  0  0  0  0  0  0  0  0
   -5.9976    4.0510    0.3211 F   0  0  0  0  0  0  0  0  0  0  0  0
   -5.1570    2.2007    1.4058 F   0  0  0  0  0  0  0  0  0  0  0  0
  1  4  1  0  0  0  0
  1  2  1  0  0  0  0
  2  3  1  0  0  0  0
  5 12  1  0  0  0  0
  5  4  2  0  0  0  0
  6  5  1  0  0  0  0
  7  6  1  0  0  0  0
  8  7  1  0  0  0  0
  8 15  1  0  0  0  0
  9  6  2  0  0  0  0
  9 10  1  0  0  0  0
 10  1  2  0  0  0  0
 11 20  1  0  0  0  0
 13  8  1  0  0  0  0
 14  8  1  0  0  0  0
 16  9  1  0  0  0  0
 17 10  1  0  0  0  0
 18 21  1  0  0  0  0
 18 22  1  0  0  0  0
 19 18  1  0  0  0  0
M  RAD  3   2   2   3   3   4   2
M  END
