Coordinates from ORCA-job 4-MeOPhN2+~BF4-_B3LYPG-6-31G_dp-CH-Scan-d09-49-n800
 OpenBabel11261919343D

 22 20  0  0  0  0  0  0  0  0999 V2000
   -1.8630    0.0422    0.0756 C   0  0  0  0  0  0  0  0  0  0  0  0
   -3.2279   -0.1097    0.1379 N   0  0  0  0  0  0  0  0  0  0  0  0
   -4.3450   -0.1868    0.1924 N   0  0  0  0  0  0  0  0  0  0  0  0
   -1.4103    1.3838    0.1378 C   0  0  0  0  0  0  0  0  0  0  0  0
   -0.0093    1.4347    0.0678 C   0  0  0  0  0  0  0  0  0  0  0  0
    0.8143    0.3026   -0.0480 C   0  0  0  0  0  0  0  0  0  0  0  0
    2.1452    0.5352   -0.1023 O   0  0  0  0  0  0  0  0  0  0  0  0
    3.0516   -0.5564   -0.2195 C   0  0  0  0  0  0  0  0  0  0  0  0
    0.2616   -1.0084   -0.1029 C   0  0  0  0  0  0  0  0  0  0  0  0
   -1.1040   -1.1528   -0.0405 C   0  0  0  0  0  0  0  0  0  0  0  0
   -3.2336    3.6324    0.3471 H   0  0  0  0  0  0  0  0  0  0  0  0
    0.5108    2.3919    0.1023 H   0  0  0  0  0  0  0  0  0  0  0  0
    4.0478   -0.1137   -0.2403 H   0  0  0  0  0  0  0  0  0  0  0  0
    2.8877   -1.1186   -1.1468 H   0  0  0  0  0  0  0  0  0  0  0  0
    2.9766   -1.2361    0.6380 H   0  0  0  0  0  0  0  0  0  0  0  0
    0.8933   -1.8829   -0.1914 H   0  0  0  0  0  0  0  0  0  0  0  0
   -1.5712   -2.1337   -0.0791 H   0  0  0  0  0  0  0  0  0  0  0  0
   -5.6359    2.9681    0.3081 B   0  0  0  0  0  0  0  0  0  0  0  0
   -5.3009    2.3936   -0.8481 F   0  0  0  0  0  0  0  0  0  0  0  0
   -3.9907    4.1823    0.4070 F   0  0  0  0  0  0  0  0  0  0  0  0
   -6.5244    3.9504    0.3182 F   0  0  0  0  0  0  0  0  0  0  0  0
   -5.3764    2.3015    1.4333 F   0  0  0  0  0  0  0  0  0  0  0  0
  1  4  1  0  0  0  0
  1  2  1  0  0  0  0
  2  3  1  0  0  0  0
  5 12  1  0  0  0  0
  5  4  2  0  0  0  0
  6  5  1  0  0  0  0
  7  6  1  0  0  0  0
  8  7  1  0  0  0  0
  8 15  1  0  0  0  0
  9  6  2  0  0  0  0
  9 10  1  0  0  0  0
 10  1  2  0  0  0  0
 11 20  1  0  0  0  0
 13  8  1  0  0  0  0
 14  8  1  0  0  0  0
 16  9  1  0  0  0  0
 17 10  1  0  0  0  0
 18 21  1  0  0  0  0
 18 22  1  0  0  0  0
 19 18  1  0  0  0  0
M  RAD  3   2   2   3   3   4   2
M  END
