Coordinates from ORCA-job 4-MeOPhN2+~BF4-_B3LYPG-6-31G_dp-CH-Scan-d09-49-n800
 OpenBabel11261919343D

 22 20  0  0  0  0  0  0  0  0999 V2000
   -1.6871    0.0525    0.0519 C   0  0  0  0  0  0  0  0  0  0  0  0
   -3.0594   -0.0279    0.1373 N   0  0  0  0  0  0  0  0  0  0  0  0
   -4.1794   -0.0289    0.2086 N   0  0  0  0  0  0  0  0  0  0  0  0
   -1.1955    1.3803    0.0515 C   0  0  0  0  0  0  0  0  0  0  0  0
    0.2097    1.3674   -0.0350 C   0  0  0  0  0  0  0  0  0  0  0  0
    0.9868    0.2010   -0.1073 C   0  0  0  0  0  0  0  0  0  0  0  0
    2.3281    0.3766   -0.1827 O   0  0  0  0  0  0  0  0  0  0  0  0
    3.1873   -0.7550   -0.2524 C   0  0  0  0  0  0  0  0  0  0  0  0
    0.3849   -1.0911   -0.1002 C   0  0  0  0  0  0  0  0  0  0  0  0
   -0.9842   -1.1803   -0.0189 C   0  0  0  0  0  0  0  0  0  0  0  0
   -3.8587    4.3443    0.4433 H   0  0  0  0  0  0  0  0  0  0  0  0
    0.7701    2.3033   -0.0478 H   0  0  0  0  0  0  0  0  0  0  0  0
    4.2014   -0.3562   -0.2975 H   0  0  0  0  0  0  0  0  0  0  0  0
    2.9961   -1.3535   -1.1516 H   0  0  0  0  0  0  0  0  0  0  0  0
    3.0899   -1.3915    0.6357 H   0  0  0  0  0  0  0  0  0  0  0  0
    0.9835   -1.9915   -0.1568 H   0  0  0  0  0  0  0  0  0  0  0  0
   -1.4906   -2.1427   -0.0102 H   0  0  0  0  0  0  0  0  0  0  0  0
   -5.9768    2.9845    0.3005 B   0  0  0  0  0  0  0  0  0  0  0  0
   -5.1130    2.6001   -0.6404 F   0  0  0  0  0  0  0  0  0  0  0  0
   -4.6439    4.5967    0.8753 F   0  0  0  0  0  0  0  0  0  0  0  0
   -6.9924    3.7632   -0.0287 F   0  0  0  0  0  0  0  0  0  0  0  0
   -5.9606    2.3684    1.4719 F   0  0  0  0  0  0  0  0  0  0  0  0
  1  2  1  0  0  0  0
  2  3  1  0  0  0  0
  4  1  1  0  0  0  0
  5  4  2  0  0  0  0
  6  9  2  0  0  0  0
  6  5  1  0  0  0  0
  7  6  1  0  0  0  0
  8  7  1  0  0  0  0
  8 15  1  0  0  0  0
  9 10  1  0  0  0  0
 10 17  1  0  0  0  0
 10  1  2  0  0  0  0
 11 20  1  0  0  0  0
 12  5  1  0  0  0  0
 13  8  1  0  0  0  0
 14  8  1  0  0  0  0
 16  9  1  0  0  0  0
 18 22  1  0  0  0  0
 19 18  1  0  0  0  0
 21 18  1  0  0  0  0
M  RAD  3   2   2   3   3   4   2
M  END
