Coordinates from ORCA-job 4-MeOPhN2+~BF4-_B3LYPG-6-31G_dp-CH-Scan-d09-49-n800
 OpenBabel11261919343D

 22 20  0  0  0  0  0  0  0  0999 V2000
   -1.5574    0.1362   -0.0581 C   0  0  0  0  0  0  0  0  0  0  0  0
   -2.9346    0.1379   -0.0089 N   0  0  0  0  0  0  0  0  0  0  0  0
   -4.0546    0.2066    0.0263 N   0  0  0  0  0  0  0  0  0  0  0  0
   -0.9975    1.4342   -0.1177 C   0  0  0  0  0  0  0  0  0  0  0  0
    0.4074    1.3436   -0.1642 C   0  0  0  0  0  0  0  0  0  0  0  0
    1.1216    0.1360   -0.1513 C   0  0  0  0  0  0  0  0  0  0  0  0
    2.4725    0.2360   -0.2003 O   0  0  0  0  0  0  0  0  0  0  0  0
    3.2701   -0.9418   -0.1891 C   0  0  0  0  0  0  0  0  0  0  0  0
    0.4512   -1.1212   -0.0894 C   0  0  0  0  0  0  0  0  0  0  0  0
   -0.9222   -1.1348   -0.0412 C   0  0  0  0  0  0  0  0  0  0  0  0
   -4.4526    4.7679    0.4519 H   0  0  0  0  0  0  0  0  0  0  0  0
    1.0170    2.2470   -0.2134 H   0  0  0  0  0  0  0  0  0  0  0  0
    4.3052   -0.6006   -0.2323 H   0  0  0  0  0  0  0  0  0  0  0  0
    3.0643   -1.5779   -1.0587 H   0  0  0  0  0  0  0  0  0  0  0  0
    3.1209   -1.5226    0.7296 H   0  0  0  0  0  0  0  0  0  0  0  0
    1.0030   -2.0528   -0.0798 H   0  0  0  0  0  0  0  0  0  0  0  0
   -1.4796   -2.0674    0.0073 H   0  0  0  0  0  0  0  0  0  0  0  0
   -6.1477    2.9488    0.4024 B   0  0  0  0  0  0  0  0  0  0  0  0
   -5.2327    2.8480   -0.5641 F   0  0  0  0  0  0  0  0  0  0  0  0
   -5.1765    4.8178    1.0348 F   0  0  0  0  0  0  0  0  0  0  0  0
   -7.3240    3.4821    0.1265 F   0  0  0  0  0  0  0  0  0  0  0  0
   -5.9576    2.2966    1.5362 F   0  0  0  0  0  0  0  0  0  0  0  0
  1 10  1  0  0  0  0
  1  2  1  0  0  0  0
  2  3  1  0  0  0  0
  4  1  2  0  0  0  0
  5  6  2  0  0  0  0
  5  4  1  0  0  0  0
  6  9  1  0  0  0  0
  7  8  1  0  0  0  0
  7  6  1  0  0  0  0
  8 15  1  0  0  0  0
  9 16  1  0  0  0  0
  9 10  2  0  0  0  0
 10 17  1  0  0  0  0
 11 20  1  0  0  0  0
 12  5  1  0  0  0  0
 13  8  1  0  0  0  0
 14  8  1  0  0  0  0
 18 22  1  0  0  0  0
 19 18  1  0  0  0  0
 21 18  1  0  0  0  0
M  RAD  3   2   2   3   3   4   2
M  END
