Coordinates from ORCA-job 4-MeOPhN2+~BF4-_B3LYPG-6-31G_dp-CH-Scan-d09-49-n800
 OpenBabel11261919343D

 22 20  0  0  0  0  0  0  0  0999 V2000
   -1.9190    0.0457    0.0847 C   0  0  0  0  0  0  0  0  0  0  0  0
   -3.2801   -0.1284    0.1518 N   0  0  0  0  0  0  0  0  0  0  0  0
   -4.3943   -0.2321    0.2109 N   0  0  0  0  0  0  0  0  0  0  0  0
   -1.4750    1.3907    0.1479 C   0  0  0  0  0  0  0  0  0  0  0  0
   -0.0767    1.4597    0.0752 C   0  0  0  0  0  0  0  0  0  0  0  0
    0.7594    0.3364   -0.0443 C   0  0  0  0  0  0  0  0  0  0  0  0
    2.0863    0.5844   -0.1000 O   0  0  0  0  0  0  0  0  0  0  0  0
    3.0054   -0.4968   -0.2199 C   0  0  0  0  0  0  0  0  0  0  0  0
    0.2200   -0.9792   -0.1012 C   0  0  0  0  0  0  0  0  0  0  0  0
   -1.1440   -1.1380   -0.0360 C   0  0  0  0  0  0  0  0  0  0  0  0
   -3.1012    3.4068    0.3380 H   0  0  0  0  0  0  0  0  0  0  0  0
    0.4311    2.4228    0.1106 H   0  0  0  0  0  0  0  0  0  0  0  0
    3.9963   -0.0424   -0.2401 H   0  0  0  0  0  0  0  0  0  0  0  0
    2.8471   -1.0584   -1.1483 H   0  0  0  0  0  0  0  0  0  0  0  0
    2.9381   -1.1786    0.6365 H   0  0  0  0  0  0  0  0  0  0  0  0
    0.8600   -1.8472   -0.1933 H   0  0  0  0  0  0  0  0  0  0  0  0
   -1.6002   -2.1237   -0.0759 H   0  0  0  0  0  0  0  0  0  0  0  0
   -5.4873    2.9680    0.2940 B   0  0  0  0  0  0  0  0  0  0  0  0
   -5.2086    2.3485   -0.8593 F   0  0  0  0  0  0  0  0  0  0  0  0
   -3.8256    4.0103    0.4028 F   0  0  0  0  0  0  0  0  0  0  0  0
   -6.3202    4.0018    0.2907 F   0  0  0  0  0  0  0  0  0  0  0  0
   -5.3154    2.2694    1.4216 F   0  0  0  0  0  0  0  0  0  0  0  0
  1  4  1  0  0  0  0
  1  2  1  0  0  0  0
  2  3  1  0  0  0  0
  5 12  1  0  0  0  0
  5  4  2  0  0  0  0
  6  5  1  0  0  0  0
  7  6  1  0  0  0  0
  8  7  1  0  0  0  0
  8 15  1  0  0  0  0
  9  6  2  0  0  0  0
  9 10  1  0  0  0  0
 10  1  2  0  0  0  0
 11 20  1  0  0  0  0
 13  8  1  0  0  0  0
 14  8  1  0  0  0  0
 16  9  1  0  0  0  0
 17 10  1  0  0  0  0
 18 22  1  0  0  0  0
 19 18  1  0  0  0  0
 21 18  1  0  0  0  0
M  RAD  3   2   2   3   3   4   2
M  END
