Coordinates from ORCA-job 4-MeOPhN2+~BF4-_B3LYPG-6-31G_dp-CH-Scan-d09-49-n800
 OpenBabel11261919343D

 22 20  0  0  0  0  0  0  0  0999 V2000
   -1.6750    0.0579    0.0509 C   0  0  0  0  0  0  0  0  0  0  0  0
   -3.0477   -0.0161    0.1364 N   0  0  0  0  0  0  0  0  0  0  0  0
   -4.1678   -0.0118    0.2073 N   0  0  0  0  0  0  0  0  0  0  0  0
   -1.1782    1.3836    0.0474 C   0  0  0  0  0  0  0  0  0  0  0  0
    0.2270    1.3647   -0.0395 C   0  0  0  0  0  0  0  0  0  0  0  0
    0.9992    0.1950   -0.1097 C   0  0  0  0  0  0  0  0  0  0  0  0
    2.3413    0.3648   -0.1863 O   0  0  0  0  0  0  0  0  0  0  0  0
    3.1957   -0.7706   -0.2543 C   0  0  0  0  0  0  0  0  0  0  0  0
    0.3920   -1.0947   -0.0994 C   0  0  0  0  0  0  0  0  0  0  0  0
   -0.9773   -1.1781   -0.0174 C   0  0  0  0  0  0  0  0  0  0  0  0
   -3.9057    4.3827    0.4516 H   0  0  0  0  0  0  0  0  0  0  0  0
    0.7913    2.2983   -0.0546 H   0  0  0  0  0  0  0  0  0  0  0  0
    4.2114   -0.3761   -0.3010 H   0  0  0  0  0  0  0  0  0  0  0  0
    3.0012   -1.3701   -1.1521 H   0  0  0  0  0  0  0  0  0  0  0  0
    3.0963   -1.4048    0.6352 H   0  0  0  0  0  0  0  0  0  0  0  0
    0.9870   -1.9976   -0.1542 H   0  0  0  0  0  0  0  0  0  0  0  0
   -1.4878   -2.1384   -0.0062 H   0  0  0  0  0  0  0  0  0  0  0  0
   -5.9964    2.9837    0.3004 B   0  0  0  0  0  0  0  0  0  0  0  0
   -5.1153    2.6166   -0.6314 F   0  0  0  0  0  0  0  0  0  0  0  0
   -4.6920    4.6176    0.8912 F   0  0  0  0  0  0  0  0  0  0  0  0
   -7.0202    3.7473   -0.0384 F   0  0  0  0  0  0  0  0  0  0  0  0
   -5.9829    2.3660    1.4707 F   0  0  0  0  0  0  0  0  0  0  0  0
  1  2  1  0  0  0  0
  2  3  1  0  0  0  0
  4  1  1  0  0  0  0
  5  4  2  0  0  0  0
  6  9  2  0  0  0  0
  6  5  1  0  0  0  0
  7  6  1  0  0  0  0
  8  7  1  0  0  0  0
  8 15  1  0  0  0  0
  9 10  1  0  0  0  0
 10 17  1  0  0  0  0
 10  1  2  0  0  0  0
 11 20  1  0  0  0  0
 12  5  1  0  0  0  0
 13  8  1  0  0  0  0
 14  8  1  0  0  0  0
 16  9  1  0  0  0  0
 18 22  1  0  0  0  0
 19 18  1  0  0  0  0
 21 18  1  0  0  0  0
M  RAD  3   2   2   3   3   4   2
M  END
