Coordinates from ORCA-job 4-MeOPhN2+~BF4-_B3LYPG-6-31G_dp-CH-Scan-d09-49-n800
 OpenBabel11261919343D

 22 20  0  0  0  0  0  0  0  0999 V2000
   -2.1061    0.0848    0.0161 C   0  0  0  0  0  0  0  0  0  0  0  0
   -3.4595   -0.1421    0.0435 N   0  0  0  0  0  0  0  0  0  0  0  0
   -4.5647   -0.3064    0.0644 N   0  0  0  0  0  0  0  0  0  0  0  0
   -1.6660    1.4319    0.0363 C   0  0  0  0  0  0  0  0  0  0  0  0
   -0.2792    1.5514   -0.0012 C   0  0  0  0  0  0  0  0  0  0  0  0
    0.5888    0.4440   -0.0522 C   0  0  0  0  0  0  0  0  0  0  0  0
    1.9039    0.7282   -0.0836 O   0  0  0  0  0  0  0  0  0  0  0  0
    2.8583   -0.3309   -0.1337 C   0  0  0  0  0  0  0  0  0  0  0  0
    0.0783   -0.8796   -0.0676 C   0  0  0  0  0  0  0  0  0  0  0  0
   -1.2852   -1.0679   -0.0338 C   0  0  0  0  0  0  0  0  0  0  0  0
   -2.7213    2.7374    0.1243 H   0  0  0  0  0  0  0  0  0  0  0  0
    0.1892    2.5324    0.0098 H   0  0  0  0  0  0  0  0  0  0  0  0
    3.8345    0.1531   -0.1511 H   0  0  0  0  0  0  0  0  0  0  0  0
    2.7365   -0.9350   -1.0401 H   0  0  0  0  0  0  0  0  0  0  0  0
    2.7875   -0.9736    0.7514 H   0  0  0  0  0  0  0  0  0  0  0  0
    0.7368   -1.7375   -0.1048 H   0  0  0  0  0  0  0  0  0  0  0  0
   -1.7139   -2.0656   -0.0448 H   0  0  0  0  0  0  0  0  0  0  0  0
   -4.9152    2.9221    0.3799 B   0  0  0  0  0  0  0  0  0  0  0  0
   -5.1146    2.2383   -0.7924 F   0  0  0  0  0  0  0  0  0  0  0  0
   -3.4336    3.5418    0.1931 F   0  0  0  0  0  0  0  0  0  0  0  0
   -5.6959    4.0051    0.5742 F   0  0  0  0  0  0  0  0  0  0  0  0
   -4.7624    2.0876    1.4586 F   0  0  0  0  0  0  0  0  0  0  0  0
  1  4  1  0  0  0  0
  1  2  1  0  0  0  0
  2  3  1  0  0  0  0
  5 12  1  0  0  0  0
  5  4  2  0  0  0  0
  6  5  1  0  0  0  0
  7  6  1  0  0  0  0
  8  7  1  0  0  0  0
  8 15  1  0  0  0  0
  9  6  2  0  0  0  0
  9 10  1  0  0  0  0
 10  1  2  0  0  0  0
 11 20  1  0  0  0  0
 13  8  1  0  0  0  0
 14  8  1  0  0  0  0
 16  9  1  0  0  0  0
 17 10  1  0  0  0  0
 18 21  1  0  0  0  0
 18 22  1  0  0  0  0
 19 18  1  0  0  0  0
M  RAD  3   2   2   3   3   4   2
M  END
