Coordinates from ORCA-job 4-MeOPhN2+~BF4-_B3LYPG-6-31G_dp-CH-Scan-d09-49-n800
 OpenBabel11261919343D

 22 20  0  0  0  0  0  0  0  0999 V2000
   -2.1195    0.0925    0.2031 C   0  0  0  0  0  0  0  0  0  0  0  0
   -3.4675   -0.1375    0.3129 N   0  0  0  0  0  0  0  0  0  0  0  0
   -4.5663   -0.3109    0.4165 N   0  0  0  0  0  0  0  0  0  0  0  0
   -1.6621    1.4289    0.3097 C   0  0  0  0  0  0  0  0  0  0  0  0
   -0.2829    1.5576    0.1996 C   0  0  0  0  0  0  0  0  0  0  0  0
    0.5733    0.4575   -0.0028 C   0  0  0  0  0  0  0  0  0  0  0  0
    1.8842    0.7429   -0.0914 O   0  0  0  0  0  0  0  0  0  0  0  0
    2.8273   -0.3082   -0.2992 C   0  0  0  0  0  0  0  0  0  0  0  0
    0.0532   -0.8579   -0.1027 C   0  0  0  0  0  0  0  0  0  0  0  0
   -1.3071   -1.0483    0.0015 C   0  0  0  0  0  0  0  0  0  0  0  0
   -2.6624    2.6415    0.4771 H   0  0  0  0  0  0  0  0  0  0  0  0
    0.1859    2.5358    0.2638 H   0  0  0  0  0  0  0  0  0  0  0  0
    3.8035    0.1749   -0.3314 H   0  0  0  0  0  0  0  0  0  0  0  0
    2.6459   -0.8239   -1.2490 H   0  0  0  0  0  0  0  0  0  0  0  0
    2.8058   -1.0309    0.5247 H   0  0  0  0  0  0  0  0  0  0  0  0
    0.7023   -1.7097   -0.2582 H   0  0  0  0  0  0  0  0  0  0  0  0
   -1.7407   -2.0411   -0.0696 H   0  0  0  0  0  0  0  0  0  0  0  0
   -4.8423    2.9094    0.1380 B   0  0  0  0  0  0  0  0  0  0  0  0
   -4.5627    2.1471   -0.9792 F   0  0  0  0  0  0  0  0  0  0  0  0
   -3.4362    3.4771    0.5565 F   0  0  0  0  0  0  0  0  0  0  0  0
   -5.6163    3.9974   -0.0824 F   0  0  0  0  0  0  0  0  0  0  0  0
   -5.2195    2.1254    1.2089 F   0  0  0  0  0  0  0  0  0  0  0  0
  1  4  1  0  0  0  0
  1  2  1  0  0  0  0
  2  3  1  0  0  0  0
  5 12  1  0  0  0  0
  5  4  2  0  0  0  0
  6  5  1  0  0  0  0
  7  6  1  0  0  0  0
  8  7  1  0  0  0  0
  8 15  1  0  0  0  0
  9  6  2  0  0  0  0
  9 10  1  0  0  0  0
 10  1  2  0  0  0  0
 11 20  1  0  0  0  0
 13  8  1  0  0  0  0
 14  8  1  0  0  0  0
 16  9  1  0  0  0  0
 17 10  1  0  0  0  0
 18 22  1  0  0  0  0
 19 18  1  0  0  0  0
 21 18  1  0  0  0  0
M  RAD  3   2   2   3   3   4   2
M  END
