Coordinates from ORCA-job 4-MeOPhN2+~BF4-_B3LYPG-6-31G_dp-CH-Scan-d09-49-n800
 OpenBabel11261919343D

 22 20  0  0  0  0  0  0  0  0999 V2000
   -2.0052    0.0522    0.0869 C   0  0  0  0  0  0  0  0  0  0  0  0
   -3.3615   -0.1524    0.1495 N   0  0  0  0  0  0  0  0  0  0  0  0
   -4.4714   -0.2888    0.2030 N   0  0  0  0  0  0  0  0  0  0  0  0
   -1.5721    1.4013    0.1429 C   0  0  0  0  0  0  0  0  0  0  0  0
   -0.1785    1.4974    0.0720 C   0  0  0  0  0  0  0  0  0  0  0  0
    0.6762    0.3865   -0.0405 C   0  0  0  0  0  0  0  0  0  0  0  0
    1.9966    0.6574   -0.0969 O   0  0  0  0  0  0  0  0  0  0  0  0
    2.9355   -0.4085   -0.2109 C   0  0  0  0  0  0  0  0  0  0  0  0
    0.1563   -0.9356   -0.0893 C   0  0  0  0  0  0  0  0  0  0  0  0
   -1.2059   -1.1146   -0.0251 C   0  0  0  0  0  0  0  0  0  0  0  0
   -2.9206    3.0703    0.3027 H   0  0  0  0  0  0  0  0  0  0  0  0
    0.3096    2.4699    0.1029 H   0  0  0  0  0  0  0  0  0  0  0  0
    3.9175    0.0641   -0.2354 H   0  0  0  0  0  0  0  0  0  0  0  0
    2.7853   -0.9781   -1.1355 H   0  0  0  0  0  0  0  0  0  0  0  0
    2.8807   -1.0848    0.6505 H   0  0  0  0  0  0  0  0  0  0  0  0
    0.8084   -1.7951   -0.1746 H   0  0  0  0  0  0  0  0  0  0  0  0
   -1.6455   -2.1076   -0.0593 H   0  0  0  0  0  0  0  0  0  0  0  0
   -5.2335    2.9651    0.2910 B   0  0  0  0  0  0  0  0  0  0  0  0
   -5.0986    2.3023   -0.8765 F   0  0  0  0  0  0  0  0  0  0  0  0
   -3.6055    3.7551    0.3710 F   0  0  0  0  0  0  0  0  0  0  0  0
   -6.0029    4.0561    0.3131 F   0  0  0  0  0  0  0  0  0  0  0  0
   -5.1689    2.2074    1.4054 F   0  0  0  0  0  0  0  0  0  0  0  0
  1  4  1  0  0  0  0
  1  2  1  0  0  0  0
  2  3  1  0  0  0  0
  5 12  1  0  0  0  0
  5  4  2  0  0  0  0
  6  5  1  0  0  0  0
  7  6  1  0  0  0  0
  8  7  1  0  0  0  0
  8 15  1  0  0  0  0
  9  6  2  0  0  0  0
  9 10  1  0  0  0  0
 10  1  2  0  0  0  0
 11 20  1  0  0  0  0
 13  8  1  0  0  0  0
 14  8  1  0  0  0  0
 16  9  1  0  0  0  0
 17 10  1  0  0  0  0
 18 21  1  0  0  0  0
 18 22  1  0  0  0  0
 19 18  1  0  0  0  0
M  RAD  3   2   2   3   3   4   2
M  END
