Coordinates from ORCA-job 4-MeOPhN2+~BF4-_B3LYPG-6-31G_dp-CH-Scan-d09-49-n800
 OpenBabel11261919343D

 22 20  0  0  0  0  0  0  0  0999 V2000
   -1.9524    0.0493    0.1005 C   0  0  0  0  0  0  0  0  0  0  0  0
   -3.3114   -0.1365    0.1717 N   0  0  0  0  0  0  0  0  0  0  0  0
   -4.4234   -0.2569    0.2333 N   0  0  0  0  0  0  0  0  0  0  0  0
   -1.5117    1.3952    0.1649 C   0  0  0  0  0  0  0  0  0  0  0  0
   -0.1157    1.4754    0.0860 C   0  0  0  0  0  0  0  0  0  0  0  0
    0.7267    0.3571   -0.0404 C   0  0  0  0  0  0  0  0  0  0  0  0
    2.0508    0.6139   -0.1023 O   0  0  0  0  0  0  0  0  0  0  0  0
    2.9768   -0.4612   -0.2300 C   0  0  0  0  0  0  0  0  0  0  0  0
    0.1942   -0.9607   -0.0973 C   0  0  0  0  0  0  0  0  0  0  0  0
   -1.1688   -1.1276   -0.0261 C   0  0  0  0  0  0  0  0  0  0  0  0
   -3.0320    3.2644    0.3550 H   0  0  0  0  0  0  0  0  0  0  0  0
    0.3849    2.4419    0.1215 H   0  0  0  0  0  0  0  0  0  0  0  0
    3.9642    0.0001   -0.2551 H   0  0  0  0  0  0  0  0  0  0  0  0
    2.8163   -1.0216   -1.1587 H   0  0  0  0  0  0  0  0  0  0  0  0
    2.9188   -1.1448    0.6255 H   0  0  0  0  0  0  0  0  0  0  0  0
    0.8383   -1.8251   -0.1938 H   0  0  0  0  0  0  0  0  0  0  0  0
   -1.6188   -2.1160   -0.0659 H   0  0  0  0  0  0  0  0  0  0  0  0
   -5.3850    2.9703    0.2710 B   0  0  0  0  0  0  0  0  0  0  0  0
   -5.1300    2.3278   -0.8805 F   0  0  0  0  0  0  0  0  0  0  0  0
   -3.7401    3.8989    0.4197 F   0  0  0  0  0  0  0  0  0  0  0  0
   -6.1887    4.0307    0.2508 F   0  0  0  0  0  0  0  0  0  0  0  0
   -5.2968    2.2450    1.3967 F   0  0  0  0  0  0  0  0  0  0  0  0
  1  4  1  0  0  0  0
  1  2  1  0  0  0  0
  2  3  1  0  0  0  0
  5 12  1  0  0  0  0
  5  4  2  0  0  0  0
  6  5  1  0  0  0  0
  7  6  1  0  0  0  0
  8  7  1  0  0  0  0
  8 15  1  0  0  0  0
  9  6  2  0  0  0  0
  9 10  1  0  0  0  0
 10  1  2  0  0  0  0
 11 20  1  0  0  0  0
 13  8  1  0  0  0  0
 14  8  1  0  0  0  0
 16  9  1  0  0  0  0
 17 10  1  0  0  0  0
 18 22  1  0  0  0  0
 19 18  1  0  0  0  0
 21 18  1  0  0  0  0
M  RAD  3   2   2   3   3   4   2
M  END
