Coordinates from ORCA-job 4-MeOPhN2+~BF4-_B3LYPG-6-31G_dp-CH-Scan-d09-49-n800
 OpenBabel11261919343D

 22 20  0  0  0  0  0  0  0  0999 V2000
   -1.9514    0.0492    0.1004 C   0  0  0  0  0  0  0  0  0  0  0  0
   -3.3105   -0.1362    0.1716 N   0  0  0  0  0  0  0  0  0  0  0  0
   -4.4225   -0.2563    0.2332 N   0  0  0  0  0  0  0  0  0  0  0  0
   -1.5106    1.3951    0.1648 C   0  0  0  0  0  0  0  0  0  0  0  0
   -0.1145    1.4750    0.0860 C   0  0  0  0  0  0  0  0  0  0  0  0
    0.7276    0.3566   -0.0405 C   0  0  0  0  0  0  0  0  0  0  0  0
    2.0519    0.6130   -0.1023 O   0  0  0  0  0  0  0  0  0  0  0  0
    2.9775   -0.4622   -0.2299 C   0  0  0  0  0  0  0  0  0  0  0  0
    0.1949   -0.9612   -0.0974 C   0  0  0  0  0  0  0  0  0  0  0  0
   -1.1681   -1.1278   -0.0263 C   0  0  0  0  0  0  0  0  0  0  0  0
   -3.0341    3.2682    0.3551 H   0  0  0  0  0  0  0  0  0  0  0  0
    0.3863    2.4414    0.1215 H   0  0  0  0  0  0  0  0  0  0  0  0
    3.9651   -0.0011   -0.2550 H   0  0  0  0  0  0  0  0  0  0  0  0
    2.8171   -1.0225   -1.1587 H   0  0  0  0  0  0  0  0  0  0  0  0
    2.9194   -1.1459    0.6255 H   0  0  0  0  0  0  0  0  0  0  0  0
    0.8389   -1.8257   -0.1940 H   0  0  0  0  0  0  0  0  0  0  0  0
   -1.6183   -2.1161   -0.0661 H   0  0  0  0  0  0  0  0  0  0  0  0
   -5.3878    2.9703    0.2712 B   0  0  0  0  0  0  0  0  0  0  0  0
   -5.1315    2.3283   -0.8802 F   0  0  0  0  0  0  0  0  0  0  0  0
   -3.7427    3.9018    0.4197 F   0  0  0  0  0  0  0  0  0  0  0  0
   -6.1923    4.0301    0.2509 F   0  0  0  0  0  0  0  0  0  0  0  0
   -5.2981    2.2457    1.3971 F   0  0  0  0  0  0  0  0  0  0  0  0
  1  4  1  0  0  0  0
  1  2  1  0  0  0  0
  2  3  1  0  0  0  0
  5 12  1  0  0  0  0
  5  4  2  0  0  0  0
  6  5  1  0  0  0  0
  7  6  1  0  0  0  0
  8  7  1  0  0  0  0
  8 15  1  0  0  0  0
  9  6  2  0  0  0  0
  9 10  1  0  0  0  0
 10  1  2  0  0  0  0
 11 20  1  0  0  0  0
 13  8  1  0  0  0  0
 14  8  1  0  0  0  0
 16  9  1  0  0  0  0
 17 10  1  0  0  0  0
 18 22  1  0  0  0  0
 19 18  1  0  0  0  0
 21 18  1  0  0  0  0
M  RAD  3   2   2   3   3   4   2
M  END
