Coordinates from ORCA-job 4-MeOPhN2+~BF4-_B3LYPG-6-31G_dp-CH-Scan-d09-49-n800
 OpenBabel11261919343D

 22 21  0  0  0  0  0  0  0  0999 V2000
   -2.1454    0.1487    0.3086 C   0  0  0  0  0  0  0  0  0  0  0  0
   -3.4917   -0.0561    0.4714 N   0  0  0  0  0  0  0  0  0  0  0  0
   -4.5826   -0.2304    0.6342 N   0  0  0  0  0  0  0  0  0  0  0  0
   -1.6227    1.4528    0.4550 C   0  0  0  0  0  0  0  0  0  0  0  0
   -0.2581    1.5923    0.3094 C   0  0  0  0  0  0  0  0  0  0  0  0
    0.5656    0.4835    0.0194 C   0  0  0  0  0  0  0  0  0  0  0  0
    1.8736    0.7512   -0.1046 O   0  0  0  0  0  0  0  0  0  0  0  0
    2.7897   -0.3042   -0.4049 C   0  0  0  0  0  0  0  0  0  0  0  0
    0.0095   -0.8095   -0.1226 C   0  0  0  0  0  0  0  0  0  0  0  0
   -1.3525   -0.9819    0.0258 C   0  0  0  0  0  0  0  0  0  0  0  0
   -2.4542    2.4589    0.6860 H   0  0  0  0  0  0  0  0  0  0  0  0
    0.2134    2.5642    0.4061 H   0  0  0  0  0  0  0  0  0  0  0  0
    3.7717    0.1653   -0.4504 H   0  0  0  0  0  0  0  0  0  0  0  0
    2.5599   -0.7637   -1.3723 H   0  0  0  0  0  0  0  0  0  0  0  0
    2.7853   -1.0675    0.3813 H   0  0  0  0  0  0  0  0  0  0  0  0
    0.6322   -1.6658   -0.3457 H   0  0  0  0  0  0  0  0  0  0  0  0
   -1.8047   -1.9627   -0.0773 H   0  0  0  0  0  0  0  0  0  0  0  0
   -4.7374    2.8634    0.0421 B   0  0  0  0  0  0  0  0  0  0  0  0
   -4.1217    2.0649   -0.9477 F   0  0  0  0  0  0  0  0  0  0  0  0
   -3.6583    3.4193    0.8453 F   0  0  0  0  0  0  0  0  0  0  0  0
   -5.4838    3.8737   -0.4965 F   0  0  0  0  0  0  0  0  0  0  0  0
   -5.4917    2.0233    0.8840 F   0  0  0  0  0  0  0  0  0  0  0  0
  1  4  1  0  0  0  0
  1  2  1  0  0  0  0
  2  3  1  0  0  0  0
  4 11  1  0  0  0  0
  5 12  1  0  0  0  0
  5  4  2  0  0  0  0
  6  5  1  0  0  0  0
  7  6  1  0  0  0  0
  8  7  1  0  0  0  0
  8 15  1  0  0  0  0
  9  6  2  0  0  0  0
  9 10  1  0  0  0  0
 10  1  2  0  0  0  0
 13  8  1  0  0  0  0
 14  8  1  0  0  0  0
 16  9  1  0  0  0  0
 17 10  1  0  0  0  0
 18 20  1  0  0  0  0
 18 22  1  0  0  0  0
 19 18  1  0  0  0  0
 21 18  1  0  0  0  0
M  RAD  2   2   2   3   3
M  END
