Coordinates from ORCA-job 4-MeOPhN2+~BF4-_B3LYPG-6-31G_dp-CH-Scan-d09-49-n800
 OpenBabel11261919343D

 22 20  0  0  0  0  0  0  0  0999 V2000
   -1.9691    0.0498    0.1015 C   0  0  0  0  0  0  0  0  0  0  0  0
   -3.3271   -0.1420    0.1715 N   0  0  0  0  0  0  0  0  0  0  0  0
   -4.4386   -0.2664    0.2314 N   0  0  0  0  0  0  0  0  0  0  0  0
   -1.5311    1.3968    0.1647 C   0  0  0  0  0  0  0  0  0  0  0  0
   -0.1359    1.4820    0.0859 C   0  0  0  0  0  0  0  0  0  0  0  0
    0.7103    0.3664   -0.0395 C   0  0  0  0  0  0  0  0  0  0  0  0
    2.0332    0.6280   -0.1019 O   0  0  0  0  0  0  0  0  0  0  0  0
    2.9632   -0.4438   -0.2288 C   0  0  0  0  0  0  0  0  0  0  0  0
    0.1820   -0.9528   -0.0948 C   0  0  0  0  0  0  0  0  0  0  0  0
   -1.1806   -1.1238   -0.0237 C   0  0  0  0  0  0  0  0  0  0  0  0
   -2.9941    3.2032    0.3493 H   0  0  0  0  0  0  0  0  0  0  0  0
    0.3609    2.4504    0.1207 H   0  0  0  0  0  0  0  0  0  0  0  0
    3.9488    0.0213   -0.2551 H   0  0  0  0  0  0  0  0  0  0  0  0
    2.8042   -1.0057   -1.1568 H   0  0  0  0  0  0  0  0  0  0  0  0
    2.9082   -1.1265    0.6276 H   0  0  0  0  0  0  0  0  0  0  0  0
    0.8286   -1.8155   -0.1903 H   0  0  0  0  0  0  0  0  0  0  0  0
   -1.6274   -2.1136   -0.0624 H   0  0  0  0  0  0  0  0  0  0  0  0
   -5.3391    2.9676    0.2698 B   0  0  0  0  0  0  0  0  0  0  0  0
   -5.1065    2.3188   -0.8847 F   0  0  0  0  0  0  0  0  0  0  0  0
   -3.6943    3.8527    0.4157 F   0  0  0  0  0  0  0  0  0  0  0  0
   -6.1294    4.0394    0.2535 F   0  0  0  0  0  0  0  0  0  0  0  0
   -5.2699    2.2334    1.3929 F   0  0  0  0  0  0  0  0  0  0  0  0
  1  4  1  0  0  0  0
  1  2  1  0  0  0  0
  2  3  1  0  0  0  0
  5 12  1  0  0  0  0
  5  4  2  0  0  0  0
  6  5  1  0  0  0  0
  7  6  1  0  0  0  0
  8  7  1  0  0  0  0
  8 15  1  0  0  0  0
  9  6  2  0  0  0  0
  9 10  1  0  0  0  0
 10  1  2  0  0  0  0
 11 20  1  0  0  0  0
 13  8  1  0  0  0  0
 14  8  1  0  0  0  0
 16  9  1  0  0  0  0
 17 10  1  0  0  0  0
 18 22  1  0  0  0  0
 19 18  1  0  0  0  0
 21 18  1  0  0  0  0
M  RAD  3   2   2   3   3   4   2
M  END
