Coordinates from ORCA-job 4-MeOPhN2+~BF4-_B3LYPG-6-31G_dp-CH-Scan-d09-49-n800
 OpenBabel11261919343D

 22 20  0  0  0  0  0  0  0  0999 V2000
   -1.6994    0.0481    0.0610 C   0  0  0  0  0  0  0  0  0  0  0  0
   -3.0709   -0.0392    0.1489 N   0  0  0  0  0  0  0  0  0  0  0  0
   -4.1907   -0.0473    0.2225 N   0  0  0  0  0  0  0  0  0  0  0  0
   -1.2125    1.3777    0.0665 C   0  0  0  0  0  0  0  0  0  0  0  0
    0.1925    1.3707   -0.0226 C   0  0  0  0  0  0  0  0  0  0  0  0
    0.9740    0.2078   -0.1025 C   0  0  0  0  0  0  0  0  0  0  0  0
    2.3144    0.3891   -0.1793 O   0  0  0  0  0  0  0  0  0  0  0  0
    3.1781   -0.7387   -0.2563 C   0  0  0  0  0  0  0  0  0  0  0  0
    0.3771   -1.0866   -0.1012 C   0  0  0  0  0  0  0  0  0  0  0  0
   -0.9914   -1.1814   -0.0178 C   0  0  0  0  0  0  0  0  0  0  0  0
   -3.8026    4.3008    0.4444 H   0  0  0  0  0  0  0  0  0  0  0  0
    0.7492    2.3088   -0.0315 H   0  0  0  0  0  0  0  0  0  0  0  0
    4.1905   -0.3355   -0.3009 H   0  0  0  0  0  0  0  0  0  0  0  0
    2.9879   -1.3331   -1.1584 H   0  0  0  0  0  0  0  0  0  0  0  0
    3.0846   -1.3803    0.6285 H   0  0  0  0  0  0  0  0  0  0  0  0
    0.9790   -1.9844   -0.1637 H   0  0  0  0  0  0  0  0  0  0  0  0
   -1.4941   -2.1458   -0.0133 H   0  0  0  0  0  0  0  0  0  0  0  0
   -5.9577    2.9855    0.2913 B   0  0  0  0  0  0  0  0  0  0  0  0
   -5.1145    2.5783   -0.6585 F   0  0  0  0  0  0  0  0  0  0  0  0
   -4.5947    4.5697    0.8536 F   0  0  0  0  0  0  0  0  0  0  0  0
   -6.9604    3.7851   -0.0279 F   0  0  0  0  0  0  0  0  0  0  0  0
   -5.9424    2.3705    1.4637 F   0  0  0  0  0  0  0  0  0  0  0  0
  1  4  1  0  0  0  0
  1  2  1  0  0  0  0
  2  3  1  0  0  0  0
  5  4  2  0  0  0  0
  6  9  2  0  0  0  0
  6  5  1  0  0  0  0
  7  6  1  0  0  0  0
  8  7  1  0  0  0  0
  8 15  1  0  0  0  0
  9 10  1  0  0  0  0
 10 17  1  0  0  0  0
 10  1  2  0  0  0  0
 11 20  1  0  0  0  0
 12  5  1  0  0  0  0
 13  8  1  0  0  0  0
 14  8  1  0  0  0  0
 16  9  1  0  0  0  0
 18 22  1  0  0  0  0
 19 18  1  0  0  0  0
 21 18  1  0  0  0  0
M  RAD  3   2   2   3   3   4   2
M  END
