Coordinates from ORCA-job 4-MeOPhN2+~BF4-_B3LYPG-6-31G_dp-CH-Scan-d09-49-n800
 OpenBabel11261919343D

 22 20  0  0  0  0  0  0  0  0999 V2000
   -1.6102    0.0973    0.0356 C   0  0  0  0  0  0  0  0  0  0  0  0
   -2.9849    0.0628    0.1230 N   0  0  0  0  0  0  0  0  0  0  0  0
   -4.1044    0.1028    0.1943 N   0  0  0  0  0  0  0  0  0  0  0  0
   -1.0811    1.4096    0.0109 C   0  0  0  0  0  0  0  0  0  0  0  0
    0.3235    1.3535   -0.0762 C   0  0  0  0  0  0  0  0  0  0  0  0
    1.0651    0.1634   -0.1277 C   0  0  0  0  0  0  0  0  0  0  0  0
    2.4115    0.2971   -0.2074 O   0  0  0  0  0  0  0  0  0  0  0  0
    3.2358   -0.8611   -0.2563 C   0  0  0  0  0  0  0  0  0  0  0  0
    0.4253   -1.1104   -0.0964 C   0  0  0  0  0  0  0  0  0  0  0  0
   -0.9457   -1.1578   -0.0129 C   0  0  0  0  0  0  0  0  0  0  0  0
   -4.1979    4.5906    0.4930 H   0  0  0  0  0  0  0  0  0  0  0  0
    0.9114    2.2721   -0.1068 H   0  0  0  0  0  0  0  0  0  0  0  0
    4.2616   -0.4943   -0.3101 H   0  0  0  0  0  0  0  0  0  0  0  0
    3.0252   -1.4708   -1.1437 H   0  0  0  0  0  0  0  0  0  0  0  0
    3.1206   -1.4774    0.6438 H   0  0  0  0  0  0  0  0  0  0  0  0
    0.9974   -2.0287   -0.1367 H   0  0  0  0  0  0  0  0  0  0  0  0
   -1.4806   -2.1044    0.0141 H   0  0  0  0  0  0  0  0  0  0  0  0
   -6.0794    2.9662    0.3059 B   0  0  0  0  0  0  0  0  0  0  0  0
   -5.0997    2.7344   -0.5703 F   0  0  0  0  0  0  0  0  0  0  0  0
   -4.9703    4.7287    0.9941 F   0  0  0  0  0  0  0  0  0  0  0  0
   -7.1590    3.6173   -0.0880 F   0  0  0  0  0  0  0  0  0  0  0  0
   -6.0681    2.3290    1.4642 F   0  0  0  0  0  0  0  0  0  0  0  0
  1  2  1  0  0  0  0
  2  3  1  0  0  0  0
  4  1  1  0  0  0  0
  5  4  2  0  0  0  0
  6  9  2  0  0  0  0
  6  5  1  0  0  0  0
  7  6  1  0  0  0  0
  8  7  1  0  0  0  0
  8 15  1  0  0  0  0
  9 10  1  0  0  0  0
 10 17  1  0  0  0  0
 10  1  2  0  0  0  0
 11 20  1  0  0  0  0
 12  5  1  0  0  0  0
 13  8  1  0  0  0  0
 14  8  1  0  0  0  0
 16  9  1  0  0  0  0
 18 22  1  0  0  0  0
 19 18  1  0  0  0  0
 21 18  1  0  0  0  0
M  RAD  3   2   2   3   3   4   2
M  END
