Coordinates from ORCA-job 4-MeOPhN2+~BF4-_B3LYPG-6-31G_dp-CH-Scan-d09-49-n800
 OpenBabel11261919343D

 22 20  0  0  0  0  0  0  0  0999 V2000
   -1.7328    0.0392    0.0758 C   0  0  0  0  0  0  0  0  0  0  0  0
   -3.1026   -0.0655    0.1656 N   0  0  0  0  0  0  0  0  0  0  0  0
   -4.2217   -0.0913    0.2444 N   0  0  0  0  0  0  0  0  0  0  0  0
   -1.2572    1.3731    0.0921 C   0  0  0  0  0  0  0  0  0  0  0  0
    0.1470    1.3808   -0.0004 C   0  0  0  0  0  0  0  0  0  0  0  0
    0.9398    0.2262   -0.0929 C   0  0  0  0  0  0  0  0  0  0  0  0
    2.2778    0.4214   -0.1715 O   0  0  0  0  0  0  0  0  0  0  0  0
    3.1524   -0.6970   -0.2620 C   0  0  0  0  0  0  0  0  0  0  0  0
    0.3553   -1.0735   -0.1016 C   0  0  0  0  0  0  0  0  0  0  0  0
   -1.0121   -1.1821   -0.0156 C   0  0  0  0  0  0  0  0  0  0  0  0
   -3.6754    4.1762    0.4419 H   0  0  0  0  0  0  0  0  0  0  0  0
    0.6944    2.3243   -0.0021 H   0  0  0  0  0  0  0  0  0  0  0  0
    4.1605   -0.2833   -0.3061 H   0  0  0  0  0  0  0  0  0  0  0  0
    2.9650   -1.2847   -1.1691 H   0  0  0  0  0  0  0  0  0  0  0  0
    3.0682   -1.3477    0.6171 H   0  0  0  0  0  0  0  0  0  0  0  0
    0.9652   -1.9650   -0.1734 H   0  0  0  0  0  0  0  0  0  0  0  0
   -1.5053   -2.1513   -0.0184 H   0  0  0  0  0  0  0  0  0  0  0  0
   -5.8985    2.9855    0.2764 B   0  0  0  0  0  0  0  0  0  0  0  0
   -5.0934    2.5290   -0.6840 F   0  0  0  0  0  0  0  0  0  0  0  0
   -4.4661    4.5028    0.8105 F   0  0  0  0  0  0  0  0  0  0  0  0
   -6.8704    3.8262   -0.0331 F   0  0  0  0  0  0  0  0  0  0  0  0
   -5.8939    2.3765    1.4528 F   0  0  0  0  0  0  0  0  0  0  0  0
  1  4  1  0  0  0  0
  1  2  1  0  0  0  0
  2  3  1  0  0  0  0
  5  4  2  0  0  0  0
  6  5  1  0  0  0  0
  7  6  1  0  0  0  0
  8  7  1  0  0  0  0
  8 15  1  0  0  0  0
  9  6  2  0  0  0  0
  9 10  1  0  0  0  0
 10  1  2  0  0  0  0
 11 20  1  0  0  0  0
 12  5  1  0  0  0  0
 13  8  1  0  0  0  0
 14  8  1  0  0  0  0
 16  9  1  0  0  0  0
 17 10  1  0  0  0  0
 18 22  1  0  0  0  0
 19 18  1  0  0  0  0
 21 18  1  0  0  0  0
M  RAD  3   2   2   3   3   4   2
M  END
