Coordinates from ORCA-job 4-MeOPhN2+~BF4-_B3LYPG-6-31G_dp-CH-Scan-d09-49-n800
 OpenBabel11261919343D

 22 20  0  0  0  0  0  0  0  0999 V2000
   -1.9850    0.0516    0.0989 C   0  0  0  0  0  0  0  0  0  0  0  0
   -3.3422   -0.1455    0.1667 N   0  0  0  0  0  0  0  0  0  0  0  0
   -4.4530   -0.2751    0.2244 N   0  0  0  0  0  0  0  0  0  0  0  0
   -1.5488    1.3995    0.1600 C   0  0  0  0  0  0  0  0  0  0  0  0
   -0.1544    1.4891    0.0830 C   0  0  0  0  0  0  0  0  0  0  0  0
    0.6952    0.3754   -0.0392 C   0  0  0  0  0  0  0  0  0  0  0  0
    2.0169    0.6409   -0.1005 O   0  0  0  0  0  0  0  0  0  0  0  0
    2.9505   -0.4282   -0.2244 C   0  0  0  0  0  0  0  0  0  0  0  0
    0.1702   -0.9449   -0.0923 C   0  0  0  0  0  0  0  0  0  0  0  0
   -1.1922   -1.1191   -0.0227 C   0  0  0  0  0  0  0  0  0  0  0  0
   -2.9607    3.1447    0.3362 H   0  0  0  0  0  0  0  0  0  0  0  0
    0.3390    2.4591    0.1166 H   0  0  0  0  0  0  0  0  0  0  0  0
    3.9346    0.0400   -0.2510 H   0  0  0  0  0  0  0  0  0  0  0  0
    2.7938   -0.9925   -1.1513 H   0  0  0  0  0  0  0  0  0  0  0  0
    2.8969   -1.1092    0.6335 H   0  0  0  0  0  0  0  0  0  0  0  0
    0.8190   -1.8062   -0.1850 H   0  0  0  0  0  0  0  0  0  0  0  0
   -1.6361   -2.1102   -0.0600 H   0  0  0  0  0  0  0  0  0  0  0  0
   -5.2929    2.9651    0.2738 B   0  0  0  0  0  0  0  0  0  0  0  0
   -5.0929    2.3106   -0.8858 F   0  0  0  0  0  0  0  0  0  0  0  0
   -3.6543    3.8087    0.4039 F   0  0  0  0  0  0  0  0  0  0  0  0
   -6.0739    4.0456    0.2686 F   0  0  0  0  0  0  0  0  0  0  0  0
   -5.2337    2.2204    1.3932 F   0  0  0  0  0  0  0  0  0  0  0  0
  1  4  1  0  0  0  0
  1  2  1  0  0  0  0
  2  3  1  0  0  0  0
  5 12  1  0  0  0  0
  5  4  2  0  0  0  0
  6  5  1  0  0  0  0
  7  6  1  0  0  0  0
  8  7  1  0  0  0  0
  8 15  1  0  0  0  0
  9  6  2  0  0  0  0
  9 10  1  0  0  0  0
 10  1  2  0  0  0  0
 11 20  1  0  0  0  0
 13  8  1  0  0  0  0
 14  8  1  0  0  0  0
 16  9  1  0  0  0  0
 17 10  1  0  0  0  0
 18 22  1  0  0  0  0
 19 18  1  0  0  0  0
 21 18  1  0  0  0  0
M  RAD  3   2   2   3   3   4   2
M  END
