Coordinates from ORCA-job 4-MeOPhN2+~BF4-_B3LYPG-6-31G_dp-CH-Scan-d09-49-n800
 OpenBabel11261919343D

 22 20  0  0  0  0  0  0  0  0999 V2000
   -2.0401    0.0609    0.0822 C   0  0  0  0  0  0  0  0  0  0  0  0
   -3.3948   -0.1536    0.1413 N   0  0  0  0  0  0  0  0  0  0  0  0
   -4.5029   -0.3014    0.1917 N   0  0  0  0  0  0  0  0  0  0  0  0
   -1.6076    1.4103    0.1360 C   0  0  0  0  0  0  0  0  0  0  0  0
   -0.2161    1.5148    0.0690 C   0  0  0  0  0  0  0  0  0  0  0  0
    0.6440    0.4068   -0.0389 C   0  0  0  0  0  0  0  0  0  0  0  0
    1.9622    0.6839   -0.0923 O   0  0  0  0  0  0  0  0  0  0  0  0
    2.9068   -0.3780   -0.2020 C   0  0  0  0  0  0  0  0  0  0  0  0
    0.1288   -0.9163   -0.0862 C   0  0  0  0  0  0  0  0  0  0  0  0
   -1.2332   -1.1002   -0.0252 C   0  0  0  0  0  0  0  0  0  0  0  0
   -2.8528    2.9515    0.2769 H   0  0  0  0  0  0  0  0  0  0  0  0
    0.2656    2.4901    0.0993 H   0  0  0  0  0  0  0  0  0  0  0  0
    3.8864    0.0994   -0.2250 H   0  0  0  0  0  0  0  0  0  0  0  0
    2.7611   -0.9496   -1.1261 H   0  0  0  0  0  0  0  0  0  0  0  0
    2.8528   -1.0526    0.6606 H   0  0  0  0  0  0  0  0  0  0  0  0
    0.7838   -1.7740   -0.1680 H   0  0  0  0  0  0  0  0  0  0  0  0
   -1.6685   -2.0950   -0.0584 H   0  0  0  0  0  0  0  0  0  0  0  0
   -5.1224    2.9526    0.2973 B   0  0  0  0  0  0  0  0  0  0  0  0
   -5.0547    2.2755   -0.8751 F   0  0  0  0  0  0  0  0  0  0  0  0
   -3.5332    3.6692    0.3448 F   0  0  0  0  0  0  0  0  0  0  0  0
   -5.8889    4.0503    0.3375 F   0  0  0  0  0  0  0  0  0  0  0  0
   -5.0801    2.1751    1.4071 F   0  0  0  0  0  0  0  0  0  0  0  0
  1  4  1  0  0  0  0
  1  2  1  0  0  0  0
  2  3  1  0  0  0  0
  5 12  1  0  0  0  0
  5  4  2  0  0  0  0
  6  5  1  0  0  0  0
  7  6  1  0  0  0  0
  8  7  1  0  0  0  0
  8 15  1  0  0  0  0
  9  6  2  0  0  0  0
  9 10  1  0  0  0  0
 10  1  2  0  0  0  0
 11 20  1  0  0  0  0
 13  8  1  0  0  0  0
 14  8  1  0  0  0  0
 16  9  1  0  0  0  0
 17 10  1  0  0  0  0
 18 21  1  0  0  0  0
 18 22  1  0  0  0  0
 19 18  1  0  0  0  0
M  RAD  3   2   2   3   3   4   2
M  END
