Coordinates from ORCA-job 4-MeOPhN2+~BF4-_B3LYPG-6-31G_dp-CH-Scan-d09-49-n800
 OpenBabel11261919343D

 22 20  0  0  0  0  0  0  0  0999 V2000
   -1.8995    0.0447    0.0751 C   0  0  0  0  0  0  0  0  0  0  0  0
   -3.2620   -0.1213    0.1378 N   0  0  0  0  0  0  0  0  0  0  0  0
   -4.3775   -0.2154    0.1936 N   0  0  0  0  0  0  0  0  0  0  0  0
   -1.4526    1.3887    0.1369 C   0  0  0  0  0  0  0  0  0  0  0  0
   -0.0531    1.4512    0.0682 C   0  0  0  0  0  0  0  0  0  0  0  0
    0.7788    0.3247   -0.0465 C   0  0  0  0  0  0  0  0  0  0  0  0
    2.1073    0.5671   -0.0991 O   0  0  0  0  0  0  0  0  0  0  0  0
    3.0221   -0.5180   -0.2143 C   0  0  0  0  0  0  0  0  0  0  0  0
    0.2348   -0.9894   -0.1021 C   0  0  0  0  0  0  0  0  0  0  0  0
   -1.1299   -1.1431   -0.0406 C   0  0  0  0  0  0  0  0  0  0  0  0
   -3.1459    3.4857    0.3310 H   0  0  0  0  0  0  0  0  0  0  0  0
    0.4590    2.4123    0.1032 H   0  0  0  0  0  0  0  0  0  0  0  0
    4.0150   -0.0679   -0.2330 H   0  0  0  0  0  0  0  0  0  0  0  0
    2.8640   -1.0812   -1.1419 H   0  0  0  0  0  0  0  0  0  0  0  0
    2.9500   -1.1979    0.6433 H   0  0  0  0  0  0  0  0  0  0  0  0
    0.8721   -1.8599   -0.1903 H   0  0  0  0  0  0  0  0  0  0  0  0
   -1.5899   -2.1272   -0.0797 H   0  0  0  0  0  0  0  0  0  0  0  0
   -5.5412    2.9679    0.3084 B   0  0  0  0  0  0  0  0  0  0  0  0
   -5.2548    2.3595   -0.8469 F   0  0  0  0  0  0  0  0  0  0  0  0
   -3.8819    4.0704    0.3929 F   0  0  0  0  0  0  0  0  0  0  0  0
   -6.3928    3.9849    0.3150 F   0  0  0  0  0  0  0  0  0  0  0  0
   -5.3259    2.2838    1.4355 F   0  0  0  0  0  0  0  0  0  0  0  0
  1  4  1  0  0  0  0
  1  2  1  0  0  0  0
  2  3  1  0  0  0  0
  5 12  1  0  0  0  0
  5  4  2  0  0  0  0
  6  5  1  0  0  0  0
  7  6  1  0  0  0  0
  8  7  1  0  0  0  0
  8 15  1  0  0  0  0
  9  6  2  0  0  0  0
  9 10  1  0  0  0  0
 10  1  2  0  0  0  0
 11 20  1  0  0  0  0
 13  8  1  0  0  0  0
 14  8  1  0  0  0  0
 16  9  1  0  0  0  0
 17 10  1  0  0  0  0
 18 21  1  0  0  0  0
 18 22  1  0  0  0  0
 19 18  1  0  0  0  0
M  RAD  3   2   2   3   3   4   2
M  END
