Coordinates from ORCA-job 4-MeOPhN2+~BF4-_B3LYPG-6-31G_dp-CH-Scan-d09-49-n800
 OpenBabel11261919343D

 22 20  0  0  0  0  0  0  0  0999 V2000
   -2.0703    0.0698    0.0424 C   0  0  0  0  0  0  0  0  0  0  0  0
   -3.4243   -0.1518    0.0855 N   0  0  0  0  0  0  0  0  0  0  0  0
   -4.5313   -0.3078    0.1199 N   0  0  0  0  0  0  0  0  0  0  0  0
   -1.6373    1.4195    0.0783 C   0  0  0  0  0  0  0  0  0  0  0  0
   -0.2472    1.5306    0.0286 C   0  0  0  0  0  0  0  0  0  0  0  0
    0.6181    0.4234   -0.0475 C   0  0  0  0  0  0  0  0  0  0  0  0
    1.9350    0.7048   -0.0868 O   0  0  0  0  0  0  0  0  0  0  0  0
    2.8854   -0.3555   -0.1628 C   0  0  0  0  0  0  0  0  0  0  0  0
    0.1067   -0.9008   -0.0787 C   0  0  0  0  0  0  0  0  0  0  0  0
   -1.2559   -1.0877   -0.0335 C   0  0  0  0  0  0  0  0  0  0  0  0
   -2.7984    2.8569    0.1894 H   0  0  0  0  0  0  0  0  0  0  0  0
    0.2283    2.5088    0.0488 H   0  0  0  0  0  0  0  0  0  0  0  0
    3.8632    0.1256   -0.1799 H   0  0  0  0  0  0  0  0  0  0  0  0
    2.7552   -0.9441   -1.0784 H   0  0  0  0  0  0  0  0  0  0  0  0
    2.8205   -1.0139    0.7113 H   0  0  0  0  0  0  0  0  0  0  0  0
    0.7645   -1.7582   -0.1365 H   0  0  0  0  0  0  0  0  0  0  0  0
   -1.6873   -2.0843   -0.0554 H   0  0  0  0  0  0  0  0  0  0  0  0
   -5.0281    2.9410    0.3508 B   0  0  0  0  0  0  0  0  0  0  0  0
   -5.1034    2.2594   -0.8261 F   0  0  0  0  0  0  0  0  0  0  0  0
   -3.4829    3.6072    0.2590 F   0  0  0  0  0  0  0  0  0  0  0  0
   -5.7961    4.0368    0.4709 F   0  0  0  0  0  0  0  0  0  0  0  0
   -4.9181    2.1401    1.4472 F   0  0  0  0  0  0  0  0  0  0  0  0
  1  4  1  0  0  0  0
  1  2  1  0  0  0  0
  2  3  1  0  0  0  0
  5 12  1  0  0  0  0
  5  4  2  0  0  0  0
  6  5  1  0  0  0  0
  7  6  1  0  0  0  0
  8  7  1  0  0  0  0
  8 15  1  0  0  0  0
  9  6  2  0  0  0  0
  9 10  1  0  0  0  0
 10  1  2  0  0  0  0
 11 20  1  0  0  0  0
 13  8  1  0  0  0  0
 14  8  1  0  0  0  0
 16  9  1  0  0  0  0
 17 10  1  0  0  0  0
 18 21  1  0  0  0  0
 18 22  1  0  0  0  0
 19 18  1  0  0  0  0
M  RAD  3   2   2   3   3   4   2
M  END
