Coordinates from ORCA-job 4-MeOPhN2+~BF4-_B3LYPG-6-31G_dp-CH-Scan-d09-49-n800
 OpenBabel11261919343D

 22 20  0  0  0  0  0  0  0  0999 V2000
   -1.9901    0.0522    0.0970 C   0  0  0  0  0  0  0  0  0  0  0  0
   -3.3472   -0.1460    0.1640 N   0  0  0  0  0  0  0  0  0  0  0  0
   -4.4577   -0.2776    0.2215 N   0  0  0  0  0  0  0  0  0  0  0  0
   -1.5542    1.4000    0.1572 C   0  0  0  0  0  0  0  0  0  0  0  0
   -0.1601    1.4916    0.0813 C   0  0  0  0  0  0  0  0  0  0  0  0
    0.6905    0.3785   -0.0393 C   0  0  0  0  0  0  0  0  0  0  0  0
    2.0119    0.6451   -0.0998 O   0  0  0  0  0  0  0  0  0  0  0  0
    2.9466   -0.4234   -0.2220 C   0  0  0  0  0  0  0  0  0  0  0  0
    0.1665   -0.9421   -0.0917 C   0  0  0  0  0  0  0  0  0  0  0  0
   -1.1959   -1.1175   -0.0230 C   0  0  0  0  0  0  0  0  0  0  0  0
   -2.9523    3.1245    0.3298 H   0  0  0  0  0  0  0  0  0  0  0  0
    0.3318    2.4623    0.1144 H   0  0  0  0  0  0  0  0  0  0  0  0
    3.9302    0.0457   -0.2483 H   0  0  0  0  0  0  0  0  0  0  0  0
    2.7910   -0.9887   -1.1485 H   0  0  0  0  0  0  0  0  0  0  0  0
    2.8928   -1.1035    0.6365 H   0  0  0  0  0  0  0  0  0  0  0  0
    0.8159   -1.8031   -0.1831 H   0  0  0  0  0  0  0  0  0  0  0  0
   -1.6388   -2.1090   -0.0597 H   0  0  0  0  0  0  0  0  0  0  0  0
   -5.2755    2.9654    0.2766 B   0  0  0  0  0  0  0  0  0  0  0  0
   -5.0907    2.3077   -0.8850 F   0  0  0  0  0  0  0  0  0  0  0  0
   -3.6440    3.7937    0.3978 F   0  0  0  0  0  0  0  0  0  0  0  0
   -6.0550    4.0479    0.2764 F   0  0  0  0  0  0  0  0  0  0  0  0
   -5.2194    2.2159    1.3945 F   0  0  0  0  0  0  0  0  0  0  0  0
  1  4  1  0  0  0  0
  1  2  1  0  0  0  0
  2  3  1  0  0  0  0
  5 12  1  0  0  0  0
  5  4  2  0  0  0  0
  6  5  1  0  0  0  0
  7  6  1  0  0  0  0
  8  7  1  0  0  0  0
  8 15  1  0  0  0  0
  9  6  2  0  0  0  0
  9 10  1  0  0  0  0
 10  1  2  0  0  0  0
 11 20  1  0  0  0  0
 13  8  1  0  0  0  0
 14  8  1  0  0  0  0
 16  9  1  0  0  0  0
 17 10  1  0  0  0  0
 18 22  1  0  0  0  0
 19 18  1  0  0  0  0
 21 18  1  0  0  0  0
M  RAD  3   2   2   3   3   4   2
M  END
