Coordinates from ORCA-job 4-MeOPhN2+~BF4-_B3LYPG-6-31G_dp-CH-Scan-d09-49-n800
 OpenBabel11261919343D

 22 20  0  0  0  0  0  0  0  0999 V2000
   -1.5962    0.1117   -0.0462 C   0  0  0  0  0  0  0  0  0  0  0  0
   -2.9728    0.0926    0.0057 N   0  0  0  0  0  0  0  0  0  0  0  0
   -4.0935    0.1463    0.0448 N   0  0  0  0  0  0  0  0  0  0  0  0
   -1.0561    1.4190   -0.0941 C   0  0  0  0  0  0  0  0  0  0  0  0
    0.3499    1.3502   -0.1438 C   0  0  0  0  0  0  0  0  0  0  0  0
    1.0826    0.1536   -0.1432 C   0  0  0  0  0  0  0  0  0  0  0  0
    2.4317    0.2747   -0.1929 O   0  0  0  0  0  0  0  0  0  0  0  0
    3.2472   -0.8908   -0.1919 C   0  0  0  0  0  0  0  0  0  0  0  0
    0.4317   -1.1141   -0.0925 C   0  0  0  0  0  0  0  0  0  0  0  0
   -0.9412   -1.1492   -0.0426 C   0  0  0  0  0  0  0  0  0  0  0  0
   -4.2998    4.6651    0.4365 H   0  0  0  0  0  0  0  0  0  0  0  0
    0.9457    2.2632   -0.1852 H   0  0  0  0  0  0  0  0  0  0  0  0
    4.2770   -0.5334   -0.2323 H   0  0  0  0  0  0  0  0  0  0  0  0
    3.0510   -1.5225   -1.0670 H   0  0  0  0  0  0  0  0  0  0  0  0
    3.1070   -1.4816    0.7217 H   0  0  0  0  0  0  0  0  0  0  0  0
    0.9976   -2.0373   -0.0925 H   0  0  0  0  0  0  0  0  0  0  0  0
   -1.4844   -2.0906   -0.0024 H   0  0  0  0  0  0  0  0  0  0  0  0
   -6.0936    2.9519    0.3904 B   0  0  0  0  0  0  0  0  0  0  0  0
   -5.1845    2.8007   -0.5751 F   0  0  0  0  0  0  0  0  0  0  0  0
   -5.0254    4.7729    1.0097 F   0  0  0  0  0  0  0  0  0  0  0  0
   -7.2435    3.5383    0.1108 F   0  0  0  0  0  0  0  0  0  0  0  0
   -5.9342    2.2989    1.5286 F   0  0  0  0  0  0  0  0  0  0  0  0
  1 10  1  0  0  0  0
  1  2  1  0  0  0  0
  2  3  1  0  0  0  0
  4  1  2  0  0  0  0
  5  6  2  0  0  0  0
  5  4  1  0  0  0  0
  6  9  1  0  0  0  0
  7  8  1  0  0  0  0
  7  6  1  0  0  0  0
  8 15  1  0  0  0  0
  9 16  1  0  0  0  0
  9 10  2  0  0  0  0
 10 17  1  0  0  0  0
 11 20  1  0  0  0  0
 12  5  1  0  0  0  0
 13  8  1  0  0  0  0
 14  8  1  0  0  0  0
 18 22  1  0  0  0  0
 19 18  1  0  0  0  0
 21 18  1  0  0  0  0
M  RAD  3   2   2   3   3   4   2
M  END
