Coordinates from ORCA-job 4-MeOPhN2+~BF4-_B3LYPG-6-31G_dp-CH-Scan-d09-49-n800
 OpenBabel11261919343D

 22 20  0  0  0  0  0  0  0  0999 V2000
   -1.6076    0.0987    0.0343 C   0  0  0  0  0  0  0  0  0  0  0  0
   -2.9822    0.0655    0.1217 N   0  0  0  0  0  0  0  0  0  0  0  0
   -4.1020    0.1051    0.1894 N   0  0  0  0  0  0  0  0  0  0  0  0
   -1.0773    1.4106    0.0073 C   0  0  0  0  0  0  0  0  0  0  0  0
    0.3272    1.3530   -0.0796 C   0  0  0  0  0  0  0  0  0  0  0  0
    1.0678    0.1622   -0.1289 C   0  0  0  0  0  0  0  0  0  0  0  0
    2.4143    0.2945   -0.2087 O   0  0  0  0  0  0  0  0  0  0  0  0
    3.2376   -0.8646   -0.2556 C   0  0  0  0  0  0  0  0  0  0  0  0
    0.4268   -1.1110   -0.0955 C   0  0  0  0  0  0  0  0  0  0  0  0
   -0.9442   -1.1570   -0.0121 C   0  0  0  0  0  0  0  0  0  0  0  0
   -4.2083    4.5977    0.4971 H   0  0  0  0  0  0  0  0  0  0  0  0
    0.9159    2.2710   -0.1116 H   0  0  0  0  0  0  0  0  0  0  0  0
    4.2637   -0.4987   -0.3099 H   0  0  0  0  0  0  0  0  0  0  0  0
    3.0265   -1.4755   -1.1419 H   0  0  0  0  0  0  0  0  0  0  0  0
    3.1218   -1.4792    0.6456 H   0  0  0  0  0  0  0  0  0  0  0  0
    0.9982   -2.0299   -0.1342 H   0  0  0  0  0  0  0  0  0  0  0  0
   -1.4799   -2.1031    0.0165 H   0  0  0  0  0  0  0  0  0  0  0  0
   -6.0834    2.9667    0.3064 B   0  0  0  0  0  0  0  0  0  0  0  0
   -5.1024    2.7398   -0.5696 F   0  0  0  0  0  0  0  0  0  0  0  0
   -4.9808    4.7316    0.9991 F   0  0  0  0  0  0  0  0  0  0  0  0
   -7.1648    3.6154   -0.0866 F   0  0  0  0  0  0  0  0  0  0  0  0
   -6.0707    2.3270    1.4633 F   0  0  0  0  0  0  0  0  0  0  0  0
  1  2  1  0  0  0  0
  2  3  1  0  0  0  0
  4  1  1  0  0  0  0
  5  4  2  0  0  0  0
  6  9  2  0  0  0  0
  6  5  1  0  0  0  0
  7  6  1  0  0  0  0
  8  7  1  0  0  0  0
  8 15  1  0  0  0  0
  9 10  1  0  0  0  0
 10 17  1  0  0  0  0
 10  1  2  0  0  0  0
 11 20  1  0  0  0  0
 12  5  1  0  0  0  0
 13  8  1  0  0  0  0
 14  8  1  0  0  0  0
 16  9  1  0  0  0  0
 18 22  1  0  0  0  0
 19 18  1  0  0  0  0
 21 18  1  0  0  0  0
M  RAD  3   2   2   3   3   4   2
M  END
