Coordinates from ORCA-job 4-MeOPhN2+~BF4-_B3LYPG-6-31G_dp-CH-Scan-d09-49-n800
 OpenBabel11261919343D

 22 20  0  0  0  0  0  0  0  0999 V2000
   -1.7364    0.0374    0.0775 C   0  0  0  0  0  0  0  0  0  0  0  0
   -3.1060   -0.0685    0.1680 N   0  0  0  0  0  0  0  0  0  0  0  0
   -4.2251   -0.0945    0.2447 N   0  0  0  0  0  0  0  0  0  0  0  0
   -1.2625    1.3721    0.0932 C   0  0  0  0  0  0  0  0  0  0  0  0
    0.1416    1.3816    0.0001 C   0  0  0  0  0  0  0  0  0  0  0  0
    0.9358    0.2280   -0.0927 C   0  0  0  0  0  0  0  0  0  0  0  0
    2.2735    0.4250   -0.1721 O   0  0  0  0  0  0  0  0  0  0  0  0
    3.1496   -0.6923   -0.2629 C   0  0  0  0  0  0  0  0  0  0  0  0
    0.3530   -1.0725   -0.1008 C   0  0  0  0  0  0  0  0  0  0  0  0
   -1.0141   -1.1828   -0.0140 C   0  0  0  0  0  0  0  0  0  0  0  0
   -3.6629    4.1637    0.4461 H   0  0  0  0  0  0  0  0  0  0  0  0
    0.6878    2.3258   -0.0020 H   0  0  0  0  0  0  0  0  0  0  0  0
    4.1571   -0.2773   -0.3076 H   0  0  0  0  0  0  0  0  0  0  0  0
    2.9624   -1.2803   -1.1698 H   0  0  0  0  0  0  0  0  0  0  0  0
    3.0668   -1.3429    0.6164 H   0  0  0  0  0  0  0  0  0  0  0  0
    0.9641   -1.9632   -0.1727 H   0  0  0  0  0  0  0  0  0  0  0  0
   -1.5061   -2.1527   -0.0164 H   0  0  0  0  0  0  0  0  0  0  0  0
   -5.8914    2.9856    0.2737 B   0  0  0  0  0  0  0  0  0  0  0  0
   -5.0872    2.5259   -0.6860 F   0  0  0  0  0  0  0  0  0  0  0  0
   -4.4534    4.4955    0.8106 F   0  0  0  0  0  0  0  0  0  0  0  0
   -6.8593    3.8305   -0.0366 F   0  0  0  0  0  0  0  0  0  0  0  0
   -5.8910    2.3757    1.4498 F   0  0  0  0  0  0  0  0  0  0  0  0
  1  4  1  0  0  0  0
  1  2  1  0  0  0  0
  2  3  1  0  0  0  0
  5  4  2  0  0  0  0
  6  5  1  0  0  0  0
  7  6  1  0  0  0  0
  8  7  1  0  0  0  0
  8 15  1  0  0  0  0
  9  6  2  0  0  0  0
  9 10  1  0  0  0  0
 10  1  2  0  0  0  0
 11 20  1  0  0  0  0
 12  5  1  0  0  0  0
 13  8  1  0  0  0  0
 14  8  1  0  0  0  0
 16  9  1  0  0  0  0
 17 10  1  0  0  0  0
 18 22  1  0  0  0  0
 19 18  1  0  0  0  0
 21 18  1  0  0  0  0
M  RAD  3   2   2   3   3   4   2
M  END
