Coordinates from ORCA-job 4-MeOPhN2+~BF4-_B3LYPG-6-31G_dp-CH-Scan-d09-49-n800
 OpenBabel11261919343D

 22 20  0  0  0  0  0  0  0  0999 V2000
   -1.8261    0.0411    0.0805 C   0  0  0  0  0  0  0  0  0  0  0  0
   -3.1928   -0.0981    0.1443 N   0  0  0  0  0  0  0  0  0  0  0  0
   -4.3109   -0.1636    0.2007 N   0  0  0  0  0  0  0  0  0  0  0  0
   -1.3664    1.3800    0.1446 C   0  0  0  0  0  0  0  0  0  0  0  0
    0.0359    1.4183    0.0709 C   0  0  0  0  0  0  0  0  0  0  0  0
    0.8503    0.2806   -0.0493 C   0  0  0  0  0  0  0  0  0  0  0  0
    2.1836    0.5027   -0.1072 O   0  0  0  0  0  0  0  0  0  0  0  0
    3.0805   -0.5957   -0.2291 C   0  0  0  0  0  0  0  0  0  0  0  0
    0.2880   -1.0268   -0.1049 C   0  0  0  0  0  0  0  0  0  0  0  0
   -1.0784   -1.1610   -0.0393 C   0  0  0  0  0  0  0  0  0  0  0  0
   -3.3283    3.7855    0.3759 H   0  0  0  0  0  0  0  0  0  0  0  0
    0.5644    2.3712    0.1058 H   0  0  0  0  0  0  0  0  0  0  0  0
    4.0804   -0.1613   -0.2525 H   0  0  0  0  0  0  0  0  0  0  0  0
    2.9094   -1.1554   -1.1567 H   0  0  0  0  0  0  0  0  0  0  0  0
    3.0031   -1.2765    0.6274 H   0  0  0  0  0  0  0  0  0  0  0  0
    0.9132   -1.9056   -0.1963 H   0  0  0  0  0  0  0  0  0  0  0  0
   -1.5535   -2.1381   -0.0783 H   0  0  0  0  0  0  0  0  0  0  0  0
   -5.7228    2.9696    0.3011 B   0  0  0  0  0  0  0  0  0  0  0  0
   -5.3314    2.4230   -0.8486 F   0  0  0  0  0  0  0  0  0  0  0  0
   -4.1125    4.2914    0.4288 F   0  0  0  0  0  0  0  0  0  0  0  0
   -6.6500    3.9139    0.2978 F   0  0  0  0  0  0  0  0  0  0  0  0
   -5.4395    2.3245    1.4308 F   0  0  0  0  0  0  0  0  0  0  0  0
  1  2  1  0  0  0  0
  1  4  1  0  0  0  0
  2  3  1  0  0  0  0
  5 12  1  0  0  0  0
  5  4  2  0  0  0  0
  6  5  1  0  0  0  0
  7  6  1  0  0  0  0
  8  7  1  0  0  0  0
  8 15  1  0  0  0  0
  9  6  2  0  0  0  0
  9 10  1  0  0  0  0
 10  1  2  0  0  0  0
 11 20  1  0  0  0  0
 13  8  1  0  0  0  0
 14  8  1  0  0  0  0
 16  9  1  0  0  0  0
 17 10  1  0  0  0  0
 18 22  1  0  0  0  0
 19 18  1  0  0  0  0
 21 18  1  0  0  0  0
M  RAD  3   2   2   3   3   4   2
M  END
