Coordinates from ORCA-job 4-MeOPhN2+~BF4-_B3LYPG-6-31G_dp-CH-Scan-d09-49-n800
 OpenBabel11261919343D

 22 20  0  0  0  0  0  0  0  0999 V2000
   -1.6551    0.0675    0.0593 C   0  0  0  0  0  0  0  0  0  0  0  0
   -3.0282    0.0038    0.1494 N   0  0  0  0  0  0  0  0  0  0  0  0
   -4.1483    0.0161    0.2207 N   0  0  0  0  0  0  0  0  0  0  0  0
   -1.1495    1.3896    0.0516 C   0  0  0  0  0  0  0  0  0  0  0  0
    0.2553    1.3607   -0.0410 C   0  0  0  0  0  0  0  0  0  0  0  0
    1.0189    0.1856   -0.1127 C   0  0  0  0  0  0  0  0  0  0  0  0
    2.3619    0.3457   -0.1958 O   0  0  0  0  0  0  0  0  0  0  0  0
    3.2077   -0.7958   -0.2664 C   0  0  0  0  0  0  0  0  0  0  0  0
    0.4028   -1.1000   -0.0974 C   0  0  0  0  0  0  0  0  0  0  0  0
   -0.9668   -1.1738   -0.0095 C   0  0  0  0  0  0  0  0  0  0  0  0
   -3.9876    4.4407    0.4818 H   0  0  0  0  0  0  0  0  0  0  0  0
    0.8260    2.2903   -0.0600 H   0  0  0  0  0  0  0  0  0  0  0  0
    4.2261   -0.4087   -0.3189 H   0  0  0  0  0  0  0  0  0  0  0  0
    3.0046   -1.3953   -1.1623 H   0  0  0  0  0  0  0  0  0  0  0  0
    3.1085   -1.4281    0.6245 H   0  0  0  0  0  0  0  0  0  0  0  0
    0.9913   -2.0070   -0.1529 H   0  0  0  0  0  0  0  0  0  0  0  0
   -1.4838   -2.1305    0.0056 H   0  0  0  0  0  0  0  0  0  0  0  0
   -6.0235    2.9816    0.2874 B   0  0  0  0  0  0  0  0  0  0  0  0
   -5.0955    2.6462   -0.6103 F   0  0  0  0  0  0  0  0  0  0  0  0
   -4.7777    4.6521    0.9264 F   0  0  0  0  0  0  0  0  0  0  0  0
   -7.0546    3.7172   -0.0888 F   0  0  0  0  0  0  0  0  0  0  0  0
   -6.0359    2.3618    1.4560 F   0  0  0  0  0  0  0  0  0  0  0  0
  1  2  1  0  0  0  0
  2  3  1  0  0  0  0
  4  1  1  0  0  0  0
  5  4  2  0  0  0  0
  6  9  2  0  0  0  0
  6  5  1  0  0  0  0
  7  6  1  0  0  0  0
  8  7  1  0  0  0  0
  8 15  1  0  0  0  0
  9 10  1  0  0  0  0
 10 17  1  0  0  0  0
 10  1  2  0  0  0  0
 11 20  1  0  0  0  0
 12  5  1  0  0  0  0
 13  8  1  0  0  0  0
 14  8  1  0  0  0  0
 16  9  1  0  0  0  0
 18 22  1  0  0  0  0
 19 18  1  0  0  0  0
 21 18  1  0  0  0  0
M  RAD  3   2   2   3   3   4   2
M  END
