Coordinates from ORCA-job 4-MeOPhN2+~BF4-_B3LYPG-6-31G_dp-CH-Scan-d09-49-n800
 OpenBabel11261919343D

 22 20  0  0  0  0  0  0  0  0999 V2000
   -1.9092    0.0460    0.0819 C   0  0  0  0  0  0  0  0  0  0  0  0
   -3.2708   -0.1252    0.1482 N   0  0  0  0  0  0  0  0  0  0  0  0
   -4.3854   -0.2274    0.2054 N   0  0  0  0  0  0  0  0  0  0  0  0
   -1.4633    1.3901    0.1447 C   0  0  0  0  0  0  0  0  0  0  0  0
   -0.0644    1.4556    0.0731 C   0  0  0  0  0  0  0  0  0  0  0  0
    0.7693    0.3306   -0.0451 C   0  0  0  0  0  0  0  0  0  0  0  0
    2.0970    0.5756   -0.0999 O   0  0  0  0  0  0  0  0  0  0  0  0
    3.0137   -0.5078   -0.2185 C   0  0  0  0  0  0  0  0  0  0  0  0
    0.2273   -0.9841   -0.1018 C   0  0  0  0  0  0  0  0  0  0  0  0
   -1.1371   -1.1399   -0.0376 C   0  0  0  0  0  0  0  0  0  0  0  0
   -3.1239    3.4490    0.3381 H   0  0  0  0  0  0  0  0  0  0  0  0
    0.4458    2.4176    0.1084 H   0  0  0  0  0  0  0  0  0  0  0  0
    4.0056   -0.0558   -0.2383 H   0  0  0  0  0  0  0  0  0  0  0  0
    2.8548   -1.0696   -1.1468 H   0  0  0  0  0  0  0  0  0  0  0  0
    2.9442   -1.1891    0.6380 H   0  0  0  0  0  0  0  0  0  0  0  0
    0.8656   -1.8534   -0.1928 H   0  0  0  0  0  0  0  0  0  0  0  0
   -1.5954   -2.1247   -0.0773 H   0  0  0  0  0  0  0  0  0  0  0  0
   -5.5138    2.9680    0.2983 B   0  0  0  0  0  0  0  0  0  0  0  0
   -5.2292    2.3552   -0.8562 F   0  0  0  0  0  0  0  0  0  0  0  0
   -3.8554    4.0416    0.3998 F   0  0  0  0  0  0  0  0  0  0  0  0
   -6.3566    3.9930    0.2998 F   0  0  0  0  0  0  0  0  0  0  0  0
   -5.3225    2.2746    1.4250 F   0  0  0  0  0  0  0  0  0  0  0  0
  1  4  1  0  0  0  0
  1  2  1  0  0  0  0
  2  3  1  0  0  0  0
  5 12  1  0  0  0  0
  5  4  2  0  0  0  0
  6  5  1  0  0  0  0
  7  6  1  0  0  0  0
  8  7  1  0  0  0  0
  8 15  1  0  0  0  0
  9  6  2  0  0  0  0
  9 10  1  0  0  0  0
 10  1  2  0  0  0  0
 11 20  1  0  0  0  0
 13  8  1  0  0  0  0
 14  8  1  0  0  0  0
 16  9  1  0  0  0  0
 17 10  1  0  0  0  0
 18 21  1  0  0  0  0
 18 22  1  0  0  0  0
 19 18  1  0  0  0  0
M  RAD  3   2   2   3   3   4   2
M  END
