Coordinates from ORCA-job 4-MeOPhN2+~BF4-_B3LYPG-6-31G_dp-CH-Scan-d09-49-n800
 OpenBabel11261919343D

 22 20  0  0  0  0  0  0  0  0999 V2000
   -1.7570    0.0365    0.0327 C   0  0  0  0  0  0  0  0  0  0  0  0
   -3.1269   -0.0776    0.0994 N   0  0  0  0  0  0  0  0  0  0  0  0
   -4.2471   -0.1143    0.1516 N   0  0  0  0  0  0  0  0  0  0  0  0
   -1.2882    1.3733    0.0446 C   0  0  0  0  0  0  0  0  0  0  0  0
    0.1167    1.3896   -0.0247 C   0  0  0  0  0  0  0  0  0  0  0  0
    0.9181    0.2390   -0.0934 C   0  0  0  0  0  0  0  0  0  0  0  0
    2.2556    0.4422   -0.1521 O   0  0  0  0  0  0  0  0  0  0  0  0
    3.1388   -0.6714   -0.2184 C   0  0  0  0  0  0  0  0  0  0  0  0
    0.3416   -1.0641   -0.0995 C   0  0  0  0  0  0  0  0  0  0  0  0
   -1.0263   -1.1803   -0.0353 C   0  0  0  0  0  0  0  0  0  0  0  0
   -3.5700    4.0757    0.3860 H   0  0  0  0  0  0  0  0  0  0  0  0
    0.6579    2.3365   -0.0260 H   0  0  0  0  0  0  0  0  0  0  0  0
    4.1447   -0.2515   -0.2512 H   0  0  0  0  0  0  0  0  0  0  0  0
    2.9687   -1.2688   -1.1224 H   0  0  0  0  0  0  0  0  0  0  0  0
    3.0453   -1.3139    0.6658 H   0  0  0  0  0  0  0  0  0  0  0  0
    0.9579   -1.9525   -0.1527 H   0  0  0  0  0  0  0  0  0  0  0  0
   -1.5133   -2.1525   -0.0372 H   0  0  0  0  0  0  0  0  0  0  0  0
   -5.8690    2.9859    0.3359 B   0  0  0  0  0  0  0  0  0  0  0  0
   -5.2047    2.4954   -0.7105 F   0  0  0  0  0  0  0  0  0  0  0  0
   -4.3572    4.4586    0.7054 F   0  0  0  0  0  0  0  0  0  0  0  0
   -6.8437    3.8575    0.1414 F   0  0  0  0  0  0  0  0  0  0  0  0
   -5.7454    2.3764    1.5070 F   0  0  0  0  0  0  0  0  0  0  0  0
  1  4  1  0  0  0  0
  1  2  1  0  0  0  0
  2  3  1  0  0  0  0
  5  4  2  0  0  0  0
  6  5  1  0  0  0  0
  7  6  1  0  0  0  0
  8  7  1  0  0  0  0
  8 15  1  0  0  0  0
  9  6  2  0  0  0  0
  9 10  1  0  0  0  0
 10  1  2  0  0  0  0
 11 20  1  0  0  0  0
 12  5  1  0  0  0  0
 13  8  1  0  0  0  0
 14  8  1  0  0  0  0
 16  9  1  0  0  0  0
 17 10  1  0  0  0  0
 18 22  1  0  0  0  0
 19 18  1  0  0  0  0
 21 18  1  0  0  0  0
M  RAD  3   2   2   3   3   4   2
M  END
