Coordinates from ORCA-job 4-MeOPhN2+~BF4-_B3LYPG-6-31G_dp-CH-Scan-d09-49-n800
 OpenBabel11261919343D

 22 20  0  0  0  0  0  0  0  0999 V2000
   -1.5588    0.1343   -0.0590 C   0  0  0  0  0  0  0  0  0  0  0  0
   -2.9359    0.1352   -0.0107 N   0  0  0  0  0  0  0  0  0  0  0  0
   -4.0558    0.2043    0.0268 N   0  0  0  0  0  0  0  0  0  0  0  0
   -0.9999    1.4328   -0.1173 C   0  0  0  0  0  0  0  0  0  0  0  0
    0.4050    1.3434   -0.1632 C   0  0  0  0  0  0  0  0  0  0  0  0
    1.1202    0.1364   -0.1508 C   0  0  0  0  0  0  0  0  0  0  0  0
    2.4710    0.2374   -0.1990 O   0  0  0  0  0  0  0  0  0  0  0  0
    3.2696   -0.9397   -0.1882 C   0  0  0  0  0  0  0  0  0  0  0  0
    0.4509   -1.1214   -0.0902 C   0  0  0  0  0  0  0  0  0  0  0  0
   -0.9226   -1.1362   -0.0427 C   0  0  0  0  0  0  0  0  0  0  0  0
   -4.4487    4.7667    0.4476 H   0  0  0  0  0  0  0  0  0  0  0  0
    1.0140    2.2473   -0.2113 H   0  0  0  0  0  0  0  0  0  0  0  0
    4.3045   -0.5976   -0.2306 H   0  0  0  0  0  0  0  0  0  0  0  0
    3.0647   -1.5754   -1.0584 H   0  0  0  0  0  0  0  0  0  0  0  0
    3.1203   -1.5213    0.7300 H   0  0  0  0  0  0  0  0  0  0  0  0
    1.0034   -2.0527   -0.0810 H   0  0  0  0  0  0  0  0  0  0  0  0
   -1.4793   -2.0693    0.0047 H   0  0  0  0  0  0  0  0  0  0  0  0
   -6.1459    2.9493    0.4039 B   0  0  0  0  0  0  0  0  0  0  0  0
   -5.2331    2.8464   -0.5644 F   0  0  0  0  0  0  0  0  0  0  0  0
   -5.1712    4.8179    1.0321 F   0  0  0  0  0  0  0  0  0  0  0  0
   -7.3222    3.4837    0.1300 F   0  0  0  0  0  0  0  0  0  0  0  0
   -5.9540    2.2982    1.5382 F   0  0  0  0  0  0  0  0  0  0  0  0
  1 10  1  0  0  0  0
  1  2  1  0  0  0  0
  2  3  1  0  0  0  0
  4  1  2  0  0  0  0
  5  6  2  0  0  0  0
  5  4  1  0  0  0  0
  6  9  1  0  0  0  0
  7  8  1  0  0  0  0
  7  6  1  0  0  0  0
  8 15  1  0  0  0  0
  9 16  1  0  0  0  0
  9 10  2  0  0  0  0
 10 17  1  0  0  0  0
 11 20  1  0  0  0  0
 12  5  1  0  0  0  0
 13  8  1  0  0  0  0
 14  8  1  0  0  0  0
 18 22  1  0  0  0  0
 19 18  1  0  0  0  0
 21 18  1  0  0  0  0
M  RAD  3   2   2   3   3   4   2
M  END
