Coordinates from ORCA-job 4-MeOPhN2+~BF4-_B3LYPG-6-31G_dp-CH-Scan-d09-49-n800
 OpenBabel11261919343D

 22 20  0  0  0  0  0  0  0  0999 V2000
   -1.5829    0.1201   -0.0550 C   0  0  0  0  0  0  0  0  0  0  0  0
   -2.9599    0.1068   -0.0057 N   0  0  0  0  0  0  0  0  0  0  0  0
   -4.0806    0.1629    0.0280 N   0  0  0  0  0  0  0  0  0  0  0  0
   -1.0361    1.4240   -0.1118 C   0  0  0  0  0  0  0  0  0  0  0  0
    0.3695    1.3477   -0.1585 C   0  0  0  0  0  0  0  0  0  0  0  0
    1.0962    0.1475   -0.1482 C   0  0  0  0  0  0  0  0  0  0  0  0
    2.4459    0.2614   -0.1969 O   0  0  0  0  0  0  0  0  0  0  0  0
    3.2555   -0.9082   -0.1876 C   0  0  0  0  0  0  0  0  0  0  0  0
    0.4388   -1.1165   -0.0890 C   0  0  0  0  0  0  0  0  0  0  0  0
   -0.9344   -1.1442   -0.0410 C   0  0  0  0  0  0  0  0  0  0  0  0
   -4.3536    4.7057    0.4475 H   0  0  0  0  0  0  0  0  0  0  0  0
    0.9700    2.2574   -0.2057 H   0  0  0  0  0  0  0  0  0  0  0  0
    4.2871   -0.5563   -0.2299 H   0  0  0  0  0  0  0  0  0  0  0  0
    3.0565   -1.5447   -1.0586 H   0  0  0  0  0  0  0  0  0  0  0  0
    3.1118   -1.4922    0.7299 H   0  0  0  0  0  0  0  0  0  0  0  0
    0.9999   -2.0426   -0.0813 H   0  0  0  0  0  0  0  0  0  0  0  0
   -1.4823   -2.0826    0.0055 H   0  0  0  0  0  0  0  0  0  0  0  0
   -6.1124    2.9516    0.3963 B   0  0  0  0  0  0  0  0  0  0  0  0
   -5.2024    2.8198   -0.5712 F   0  0  0  0  0  0  0  0  0  0  0  0
   -5.0765    4.7849    1.0284 F   0  0  0  0  0  0  0  0  0  0  0  0
   -7.2701    3.5251    0.1220 F   0  0  0  0  0  0  0  0  0  0  0  0
   -5.9438    2.2921    1.5293 F   0  0  0  0  0  0  0  0  0  0  0  0
  1 10  1  0  0  0  0
  1  2  1  0  0  0  0
  2  3  1  0  0  0  0
  4  1  2  0  0  0  0
  5  6  2  0  0  0  0
  5  4  1  0  0  0  0
  6  9  1  0  0  0  0
  7  8  1  0  0  0  0
  7  6  1  0  0  0  0
  8 15  1  0  0  0  0
  9 16  1  0  0  0  0
  9 10  2  0  0  0  0
 10 17  1  0  0  0  0
 11 20  1  0  0  0  0
 12  5  1  0  0  0  0
 13  8  1  0  0  0  0
 14  8  1  0  0  0  0
 18 22  1  0  0  0  0
 19 18  1  0  0  0  0
 21 18  1  0  0  0  0
M  RAD  3   2   2   3   3   4   2
M  END
