Coordinates from ORCA-job 4-MeOPhN2+~BF4-_B3LYPG-6-31G_dp-CH-Scan-d09-49-n800
 OpenBabel11261919343D

 22 20  0  0  0  0  0  0  0  0999 V2000
   -1.5872    0.1174   -0.0533 C   0  0  0  0  0  0  0  0  0  0  0  0
   -2.9642    0.1015   -0.0037 N   0  0  0  0  0  0  0  0  0  0  0  0
   -4.0849    0.1558    0.0321 N   0  0  0  0  0  0  0  0  0  0  0  0
   -1.0427    1.4223   -0.1073 C   0  0  0  0  0  0  0  0  0  0  0  0
    0.3631    1.3485   -0.1544 C   0  0  0  0  0  0  0  0  0  0  0  0
    1.0918    0.1495   -0.1467 C   0  0  0  0  0  0  0  0  0  0  0  0
    2.4413    0.2658   -0.1953 O   0  0  0  0  0  0  0  0  0  0  0  0
    3.2529   -0.9024   -0.1882 C   0  0  0  0  0  0  0  0  0  0  0  0
    0.4365   -1.1158   -0.0902 C   0  0  0  0  0  0  0  0  0  0  0  0
   -0.9366   -1.1459   -0.0420 C   0  0  0  0  0  0  0  0  0  0  0  0
   -4.3366    4.6935    0.4424 H   0  0  0  0  0  0  0  0  0  0  0  0
    0.9620    2.2593   -0.1998 H   0  0  0  0  0  0  0  0  0  0  0  0
    4.2839   -0.5488   -0.2296 H   0  0  0  0  0  0  0  0  0  0  0  0
    3.0551   -1.5376   -1.0604 H   0  0  0  0  0  0  0  0  0  0  0  0
    3.1101   -1.4884    0.7282 H   0  0  0  0  0  0  0  0  0  0  0  0
    0.9992   -2.0409   -0.0845 H   0  0  0  0  0  0  0  0  0  0  0  0
   -1.4829   -2.0853    0.0025 H   0  0  0  0  0  0  0  0  0  0  0  0
   -6.1064    2.9520    0.3955 B   0  0  0  0  0  0  0  0  0  0  0  0
   -5.1980    2.8134   -0.5726 F   0  0  0  0  0  0  0  0  0  0  0  0
   -5.0592    4.7809    1.0226 F   0  0  0  0  0  0  0  0  0  0  0  0
   -7.2614    3.5306    0.1212 F   0  0  0  0  0  0  0  0  0  0  0  0
   -5.9398    2.2940    1.5299 F   0  0  0  0  0  0  0  0  0  0  0  0
  1 10  1  0  0  0  0
  1  2  1  0  0  0  0
  2  3  1  0  0  0  0
  4  1  2  0  0  0  0
  5  6  2  0  0  0  0
  5  4  1  0  0  0  0
  6  9  1  0  0  0  0
  7  8  1  0  0  0  0
  7  6  1  0  0  0  0
  8 15  1  0  0  0  0
  9 16  1  0  0  0  0
  9 10  2  0  0  0  0
 10 17  1  0  0  0  0
 11 20  1  0  0  0  0
 12  5  1  0  0  0  0
 13  8  1  0  0  0  0
 14  8  1  0  0  0  0
 18 22  1  0  0  0  0
 19 18  1  0  0  0  0
 21 18  1  0  0  0  0
M  RAD  3   2   2   3   3   4   2
M  END
