Coordinates from ORCA-job 4-MeOPhN2+~BF4-_B3LYPG-6-31G_dp-CH-Scan-d09-49-n800
 OpenBabel11261919343D

 22 21  0  0  0  0  0  0  0  0999 V2000
   -2.1454    0.1477    0.3044 C   0  0  0  0  0  0  0  0  0  0  0  0
   -3.4916   -0.0580    0.4666 N   0  0  0  0  0  0  0  0  0  0  0  0
   -4.5825   -0.2325    0.6288 N   0  0  0  0  0  0  0  0  0  0  0  0
   -1.6239    1.4525    0.4501 C   0  0  0  0  0  0  0  0  0  0  0  0
   -0.2589    1.5918    0.3060 C   0  0  0  0  0  0  0  0  0  0  0  0
    0.5656    0.4830    0.0185 C   0  0  0  0  0  0  0  0  0  0  0  0
    1.8738    0.7509   -0.1035 O   0  0  0  0  0  0  0  0  0  0  0  0
    2.7908   -0.3045   -0.4009 C   0  0  0  0  0  0  0  0  0  0  0  0
    0.0102   -0.8103   -0.1233 C   0  0  0  0  0  0  0  0  0  0  0  0
   -1.3519   -0.9830    0.0235 C   0  0  0  0  0  0  0  0  0  0  0  0
   -2.4587    2.4629    0.6790 H   0  0  0  0  0  0  0  0  0  0  0  0
    0.2124    2.5639    0.4023 H   0  0  0  0  0  0  0  0  0  0  0  0
    3.7728    0.1650   -0.4446 H   0  0  0  0  0  0  0  0  0  0  0  0
    2.5632   -0.7649   -1.3684 H   0  0  0  0  0  0  0  0  0  0  0  0
    2.7848   -1.0671    0.3860 H   0  0  0  0  0  0  0  0  0  0  0  0
    0.6335   -1.6666   -0.3447 H   0  0  0  0  0  0  0  0  0  0  0  0
   -1.8036   -1.9640   -0.0793 H   0  0  0  0  0  0  0  0  0  0  0  0
   -4.7386    2.8645    0.0458 B   0  0  0  0  0  0  0  0  0  0  0  0
   -4.1329    2.0643   -0.9482 F   0  0  0  0  0  0  0  0  0  0  0  0
   -3.6499    3.4239    0.8359 F   0  0  0  0  0  0  0  0  0  0  0  0
   -5.4909    3.8736   -0.4864 F   0  0  0  0  0  0  0  0  0  0  0  0
   -5.4821    2.0268    0.8988 F   0  0  0  0  0  0  0  0  0  0  0  0
  1  4  1  0  0  0  0
  1  2  1  0  0  0  0
  2  3  1  0  0  0  0
  4 11  1  0  0  0  0
  5 12  1  0  0  0  0
  5  4  2  0  0  0  0
  6  5  1  0  0  0  0
  7  6  1  0  0  0  0
  8  7  1  0  0  0  0
  8 15  1  0  0  0  0
  9  6  2  0  0  0  0
  9 10  1  0  0  0  0
 10  1  2  0  0  0  0
 13  8  1  0  0  0  0
 14  8  1  0  0  0  0
 16  9  1  0  0  0  0
 17 10  1  0  0  0  0
 18 20  1  0  0  0  0
 18 22  1  0  0  0  0
 19 18  1  0  0  0  0
 21 18  1  0  0  0  0
M  RAD  2   2   2   3   3
M  END
