Coordinates from ORCA-job 4-MeOPhN2+~BF4-_B3LYPG-6-31G_dp-CH-Scan-d09-49-n800
 OpenBabel11261919343D

 22 20  0  0  0  0  0  0  0  0999 V2000
   -1.7688    0.0335    0.0354 C   0  0  0  0  0  0  0  0  0  0  0  0
   -3.1380   -0.0863    0.1031 N   0  0  0  0  0  0  0  0  0  0  0  0
   -4.2580   -0.1293    0.1533 N   0  0  0  0  0  0  0  0  0  0  0  0
   -1.3038    1.3716    0.0514 C   0  0  0  0  0  0  0  0  0  0  0  0
    0.1009    1.3931   -0.0179 C   0  0  0  0  0  0  0  0  0  0  0  0
    0.9061    0.2454   -0.0904 C   0  0  0  0  0  0  0  0  0  0  0  0
    2.2427    0.4533   -0.1482 O   0  0  0  0  0  0  0  0  0  0  0  0
    3.1299   -0.6571   -0.2178 C   0  0  0  0  0  0  0  0  0  0  0  0
    0.3338   -1.0594   -0.1008 C   0  0  0  0  0  0  0  0  0  0  0  0
   -1.0337   -1.1803   -0.0368 C   0  0  0  0  0  0  0  0  0  0  0  0
   -3.5297    4.0300    0.3849 H   0  0  0  0  0  0  0  0  0  0  0  0
    0.6388    2.3418   -0.0161 H   0  0  0  0  0  0  0  0  0  0  0  0
    4.1343   -0.2335   -0.2489 H   0  0  0  0  0  0  0  0  0  0  0  0
    2.9621   -1.2520   -1.1239 H   0  0  0  0  0  0  0  0  0  0  0  0
    3.0382   -1.3026    0.6643 H   0  0  0  0  0  0  0  0  0  0  0  0
    0.9529   -1.9457   -0.1571 H   0  0  0  0  0  0  0  0  0  0  0  0
   -1.5174   -2.1542   -0.0420 H   0  0  0  0  0  0  0  0  0  0  0  0
   -5.8461    2.9866    0.3346 B   0  0  0  0  0  0  0  0  0  0  0  0
   -5.2021    2.4783   -0.7161 F   0  0  0  0  0  0  0  0  0  0  0  0
   -4.3147    4.4350    0.6826 F   0  0  0  0  0  0  0  0  0  0  0  0
   -6.8107    3.8707    0.1451 F   0  0  0  0  0  0  0  0  0  0  0  0
   -5.7205    2.3806    1.5076 F   0  0  0  0  0  0  0  0  0  0  0  0
  1  4  1  0  0  0  0
  1  2  1  0  0  0  0
  2  3  1  0  0  0  0
  5 12  1  0  0  0  0
  5  4  2  0  0  0  0
  6  5  1  0  0  0  0
  7  6  1  0  0  0  0
  8  7  1  0  0  0  0
  8 15  1  0  0  0  0
  9  6  2  0  0  0  0
  9 10  1  0  0  0  0
 10  1  2  0  0  0  0
 11 20  1  0  0  0  0
 13  8  1  0  0  0  0
 14  8  1  0  0  0  0
 16  9  1  0  0  0  0
 17 10  1  0  0  0  0
 18 22  1  0  0  0  0
 19 18  1  0  0  0  0
 21 18  1  0  0  0  0
M  RAD  3   2   2   3   3   4   2
M  END
