Coordinates from ORCA-job 4-MeOPhN2+~BF4-_B3LYPG-6-31G_dp-CH-Scan-d09-49-n800
 OpenBabel11261919343D

 22 20  0  0  0  0  0  0  0  0999 V2000
   -1.6488    0.0704    0.0595 C   0  0  0  0  0  0  0  0  0  0  0  0
   -3.0221    0.0096    0.1499 N   0  0  0  0  0  0  0  0  0  0  0  0
   -4.1420    0.0244    0.2241 N   0  0  0  0  0  0  0  0  0  0  0  0
   -1.1403    1.3914    0.0519 C   0  0  0  0  0  0  0  0  0  0  0  0
    0.2644    1.3594   -0.0413 C   0  0  0  0  0  0  0  0  0  0  0  0
    1.0253    0.1825   -0.1134 C   0  0  0  0  0  0  0  0  0  0  0  0
    2.3687    0.3396   -0.1969 O   0  0  0  0  0  0  0  0  0  0  0  0
    3.2119   -0.8038   -0.2679 C   0  0  0  0  0  0  0  0  0  0  0  0
    0.4063   -1.1016   -0.0979 C   0  0  0  0  0  0  0  0  0  0  0  0
   -0.9633   -1.1724   -0.0095 C   0  0  0  0  0  0  0  0  0  0  0  0
   -4.0118    4.4593    0.4837 H   0  0  0  0  0  0  0  0  0  0  0  0
    0.8372    2.2877   -0.0604 H   0  0  0  0  0  0  0  0  0  0  0  0
    4.2311   -0.4190   -0.3208 H   0  0  0  0  0  0  0  0  0  0  0  0
    3.0070   -1.4028   -1.1637 H   0  0  0  0  0  0  0  0  0  0  0  0
    3.1115   -1.4358    0.6231 H   0  0  0  0  0  0  0  0  0  0  0  0
    0.9928   -2.0100   -0.1537 H   0  0  0  0  0  0  0  0  0  0  0  0
   -1.4825   -2.1279    0.0057 H   0  0  0  0  0  0  0  0  0  0  0  0
   -6.0336    2.9815    0.2870 B   0  0  0  0  0  0  0  0  0  0  0  0
   -5.0985    2.6540   -0.6063 F   0  0  0  0  0  0  0  0  0  0  0  0
   -4.8023    4.6624    0.9315 F   0  0  0  0  0  0  0  0  0  0  0  0
   -7.0684    3.7092   -0.0939 F   0  0  0  0  0  0  0  0  0  0  0  0
   -6.0465    2.3616    1.4556 F   0  0  0  0  0  0  0  0  0  0  0  0
  1  2  1  0  0  0  0
  2  3  1  0  0  0  0
  4  1  1  0  0  0  0
  5  4  2  0  0  0  0
  6  9  2  0  0  0  0
  6  5  1  0  0  0  0
  7  6  1  0  0  0  0
  8  7  1  0  0  0  0
  8 15  1  0  0  0  0
  9 10  1  0  0  0  0
 10 17  1  0  0  0  0
 10  1  2  0  0  0  0
 11 20  1  0  0  0  0
 12  5  1  0  0  0  0
 13  8  1  0  0  0  0
 14  8  1  0  0  0  0
 16  9  1  0  0  0  0
 18 22  1  0  0  0  0
 19 18  1  0  0  0  0
 21 18  1  0  0  0  0
M  RAD  3   2   2   3   3   4   2
M  END
