Coordinates from ORCA-job 4-MeOPhN2+~BF4-_B3LYPG-6-31G_dp-CH-Scan-d09-49-n800
 OpenBabel11261919343D

 22 20  0  0  0  0  0  0  0  0999 V2000
   -1.9204    0.0435    0.0855 C   0  0  0  0  0  0  0  0  0  0  0  0
   -3.2811   -0.1313    0.1535 N   0  0  0  0  0  0  0  0  0  0  0  0
   -4.3957   -0.2337    0.2097 N   0  0  0  0  0  0  0  0  0  0  0  0
   -1.4779    1.3892    0.1466 C   0  0  0  0  0  0  0  0  0  0  0  0
   -0.0797    1.4595    0.0732 C   0  0  0  0  0  0  0  0  0  0  0  0
    0.7574    0.3369   -0.0453 C   0  0  0  0  0  0  0  0  0  0  0  0
    2.0840    0.5861   -0.1020 O   0  0  0  0  0  0  0  0  0  0  0  0
    3.0042   -0.4943   -0.2210 C   0  0  0  0  0  0  0  0  0  0  0  0
    0.2194   -0.9794   -0.1003 C   0  0  0  0  0  0  0  0  0  0  0  0
   -1.1444   -1.1396   -0.0342 C   0  0  0  0  0  0  0  0  0  0  0  0
   -3.0973    3.4026    0.3540 H   0  0  0  0  0  0  0  0  0  0  0  0
    0.4271    2.4232    0.1071 H   0  0  0  0  0  0  0  0  0  0  0  0
    3.9946   -0.0390   -0.2423 H   0  0  0  0  0  0  0  0  0  0  0  0
    2.8459   -1.0572   -1.1486 H   0  0  0  0  0  0  0  0  0  0  0  0
    2.9380   -1.1752    0.6363 H   0  0  0  0  0  0  0  0  0  0  0  0
    0.8603   -1.8469   -0.1916 H   0  0  0  0  0  0  0  0  0  0  0  0
   -1.5996   -2.1259   -0.0726 H   0  0  0  0  0  0  0  0  0  0  0  0
   -5.4833    2.9693    0.2907 B   0  0  0  0  0  0  0  0  0  0  0  0
   -5.2017    2.3501   -0.8621 F   0  0  0  0  0  0  0  0  0  0  0  0
   -3.8216    4.0079    0.4065 F   0  0  0  0  0  0  0  0  0  0  0  0
   -6.3146    4.0045    0.2848 F   0  0  0  0  0  0  0  0  0  0  0  0
   -5.3175    2.2695    1.4184 F   0  0  0  0  0  0  0  0  0  0  0  0
  1  4  1  0  0  0  0
  1  2  1  0  0  0  0
  2  3  1  0  0  0  0
  5 12  1  0  0  0  0
  5  4  2  0  0  0  0
  6  5  1  0  0  0  0
  7  6  1  0  0  0  0
  8  7  1  0  0  0  0
  8 15  1  0  0  0  0
  9  6  2  0  0  0  0
  9 10  1  0  0  0  0
 10  1  2  0  0  0  0
 11 20  1  0  0  0  0
 13  8  1  0  0  0  0
 14  8  1  0  0  0  0
 16  9  1  0  0  0  0
 17 10  1  0  0  0  0
 18 22  1  0  0  0  0
 19 18  1  0  0  0  0
 21 18  1  0  0  0  0
M  RAD  3   2   2   3   3   4   2
M  END
