Coordinates from ORCA-job 4-MeOPhN2+~BF4-_B3LYPG-6-31G_dp-CH-Scan-d09-49-n800
 OpenBabel11261919343D

 22 20  0  0  0  0  0  0  0  0999 V2000
   -1.9632    0.0495    0.1013 C   0  0  0  0  0  0  0  0  0  0  0  0
   -3.3216   -0.1400    0.1718 N   0  0  0  0  0  0  0  0  0  0  0  0
   -4.4332   -0.2635    0.2324 N   0  0  0  0  0  0  0  0  0  0  0  0
   -1.5242    1.3960    0.1648 C   0  0  0  0  0  0  0  0  0  0  0  0
   -0.1287    1.4797    0.0860 C   0  0  0  0  0  0  0  0  0  0  0  0
    0.7161    0.3632   -0.0398 C   0  0  0  0  0  0  0  0  0  0  0  0
    2.0394    0.6230   -0.1021 O   0  0  0  0  0  0  0  0  0  0  0  0
    2.9680   -0.4499   -0.2294 C   0  0  0  0  0  0  0  0  0  0  0  0
    0.1863   -0.9555   -0.0956 C   0  0  0  0  0  0  0  0  0  0  0  0
   -1.1764   -1.1252   -0.0245 C   0  0  0  0  0  0  0  0  0  0  0  0
   -3.0082    3.2239    0.3518 H   0  0  0  0  0  0  0  0  0  0  0  0
    0.3693    2.4475    0.1210 H   0  0  0  0  0  0  0  0  0  0  0  0
    3.9542    0.0139   -0.2554 H   0  0  0  0  0  0  0  0  0  0  0  0
    2.8084   -1.0113   -1.1576 H   0  0  0  0  0  0  0  0  0  0  0  0
    2.9121   -1.1329    0.6267 H   0  0  0  0  0  0  0  0  0  0  0  0
    0.8321   -1.8188   -0.1915 H   0  0  0  0  0  0  0  0  0  0  0  0
   -1.6243   -2.1145   -0.0635 H   0  0  0  0  0  0  0  0  0  0  0  0
   -5.3546    2.9693    0.2700 B   0  0  0  0  0  0  0  0  0  0  0  0
   -5.1145    2.3221   -0.8834 F   0  0  0  0  0  0  0  0  0  0  0  0
   -3.7111    3.8682    0.4177 F   0  0  0  0  0  0  0  0  0  0  0  0
   -6.1496    4.0373    0.2520 F   0  0  0  0  0  0  0  0  0  0  0  0
   -5.2802    2.2375    1.3939 F   0  0  0  0  0  0  0  0  0  0  0  0
  1  4  1  0  0  0  0
  1  2  1  0  0  0  0
  2  3  1  0  0  0  0
  5 12  1  0  0  0  0
  5  4  2  0  0  0  0
  6  5  1  0  0  0  0
  7  6  1  0  0  0  0
  8  7  1  0  0  0  0
  8 15  1  0  0  0  0
  9  6  2  0  0  0  0
  9 10  1  0  0  0  0
 10  1  2  0  0  0  0
 11 20  1  0  0  0  0
 13  8  1  0  0  0  0
 14  8  1  0  0  0  0
 16  9  1  0  0  0  0
 17 10  1  0  0  0  0
 18 22  1  0  0  0  0
 19 18  1  0  0  0  0
 21 18  1  0  0  0  0
M  RAD  3   2   2   3   3   4   2
M  END
