Coordinates from ORCA-job 4-MeOPhN2+~BF4-_B3LYPG-6-31G_dp-CH-Scan-d09-49-n800
 OpenBabel11261919343D

 22 21  0  0  0  0  0  0  0  0999 V2000
   -2.1373    0.2784    0.3703 C   0  0  0  0  0  0  0  0  0  0  0  0
   -3.4878    0.1039    0.5578 N   0  0  0  0  0  0  0  0  0  0  0  0
   -4.5648   -0.1429    0.7186 N   0  0  0  0  0  0  0  0  0  0  0  0
   -1.5666    1.5673    0.4401 C   0  0  0  0  0  0  0  0  0  0  0  0
   -0.2044    1.6654    0.2531 C   0  0  0  0  0  0  0  0  0  0  0  0
    0.5813    0.5226   -0.0084 C   0  0  0  0  0  0  0  0  0  0  0  0
    1.8907    0.7500   -0.1824 O   0  0  0  0  0  0  0  0  0  0  0  0
    2.7695   -0.3438   -0.4562 C   0  0  0  0  0  0  0  0  0  0  0  0
   -0.0150   -0.7556   -0.0690 C   0  0  0  0  0  0  0  0  0  0  0  0
   -1.3784   -0.8804    0.1257 C   0  0  0  0  0  0  0  0  0  0  0  0
   -2.1715    2.3715    0.6357 H   0  0  0  0  0  0  0  0  0  0  0  0
    0.2898    2.6295    0.2964 H   0  0  0  0  0  0  0  0  0  0  0  0
    3.7610    0.0958   -0.5566 H   0  0  0  0  0  0  0  0  0  0  0  0
    2.4962   -0.8454   -1.3909 H   0  0  0  0  0  0  0  0  0  0  0  0
    2.7708   -1.0653    0.3686 H   0  0  0  0  0  0  0  0  0  0  0  0
    0.5749   -1.6411   -0.2662 H   0  0  0  0  0  0  0  0  0  0  0  0
   -1.8593   -1.8515    0.0806 H   0  0  0  0  0  0  0  0  0  0  0  0
   -4.7742    2.7476    0.0338 B   0  0  0  0  0  0  0  0  0  0  0  0
   -3.9125    2.1776   -0.9486 F   0  0  0  0  0  0  0  0  0  0  0  0
   -4.0097    2.8197    1.2382 F   0  0  0  0  0  0  0  0  0  0  0  0
   -5.2274    3.9827   -0.3499 F   0  0  0  0  0  0  0  0  0  0  0  0
   -5.8292    1.8336    0.2558 F   0  0  0  0  0  0  0  0  0  0  0  0
  1  4  1  0  0  0  0
  1  2  1  0  0  0  0
  2  3  1  0  0  0  0
  4 11  1  0  0  0  0
  5 12  1  0  0  0  0
  5  4  2  0  0  0  0
  6  5  1  0  0  0  0
  7  6  1  0  0  0  0
  8  7  1  0  0  0  0
  8 15  1  0  0  0  0
  9  6  2  0  0  0  0
  9 10  1  0  0  0  0
 10  1  2  0  0  0  0
 13  8  1  0  0  0  0
 14  8  1  0  0  0  0
 16  9  1  0  0  0  0
 17 10  1  0  0  0  0
 18 22  1  0  0  0  0
 18 20  1  0  0  0  0
 19 18  1  0  0  0  0
 21 18  1  0  0  0  0
M  RAD  2   2   2   3   3
M  END
