Coordinates from ORCA-job 4-MeOPhN2+~BF4-_B3LYPG-6-31G_dp-CH-Scan-d09-49-n800
 OpenBabel11261919343D

 22 21  0  0  0  0  0  0  0  0999 V2000
   -2.1420    0.2181    0.3636 C   0  0  0  0  0  0  0  0  0  0  0  0
   -3.4899    0.0328    0.5493 N   0  0  0  0  0  0  0  0  0  0  0  0
   -4.5729   -0.1742    0.7284 N   0  0  0  0  0  0  0  0  0  0  0  0
   -1.5857    1.5099    0.4884 C   0  0  0  0  0  0  0  0  0  0  0  0
   -0.2233    1.6287    0.3176 C   0  0  0  0  0  0  0  0  0  0  0  0
    0.5745    0.5041    0.0148 C   0  0  0  0  0  0  0  0  0  0  0  0
    1.8831    0.7500   -0.1386 O   0  0  0  0  0  0  0  0  0  0  0  0
    2.7740   -0.3227   -0.4548 C   0  0  0  0  0  0  0  0  0  0  0  0
   -0.0088   -0.7765   -0.1060 C   0  0  0  0  0  0  0  0  0  0  0  0
   -1.3717   -0.9231    0.0746 C   0  0  0  0  0  0  0  0  0  0  0  0
   -2.2533    2.3676    0.7150 H   0  0  0  0  0  0  0  0  0  0  0  0
    0.2621    2.5944    0.4027 H   0  0  0  0  0  0  0  0  0  0  0  0
    3.7626    0.1294   -0.5238 H   0  0  0  0  0  0  0  0  0  0  0  0
    2.5142   -0.7812   -1.4150 H   0  0  0  0  0  0  0  0  0  0  0  0
    2.7732   -1.0826    0.3347 H   0  0  0  0  0  0  0  0  0  0  0  0
    0.5915   -1.6462   -0.3384 H   0  0  0  0  0  0  0  0  0  0  0  0
   -1.8430   -1.8959   -0.0142 H   0  0  0  0  0  0  0  0  0  0  0  0
   -4.7521    2.8078    0.0156 B   0  0  0  0  0  0  0  0  0  0  0  0
   -3.9499    2.0845   -0.9146 F   0  0  0  0  0  0  0  0  0  0  0  0
   -3.8932    3.1973    1.0845 F   0  0  0  0  0  0  0  0  0  0  0  0
   -5.3429    3.8948   -0.5740 F   0  0  0  0  0  0  0  0  0  0  0  0
   -5.7103    1.9028    0.5367 F   0  0  0  0  0  0  0  0  0  0  0  0
  1  4  1  0  0  0  0
  1  2  1  0  0  0  0
  2  3  1  0  0  0  0
  4 11  1  0  0  0  0
  5 12  1  0  0  0  0
  5  4  2  0  0  0  0
  6  5  1  0  0  0  0
  7  6  1  0  0  0  0
  8  7  1  0  0  0  0
  8 15  1  0  0  0  0
  9  6  2  0  0  0  0
  9 10  1  0  0  0  0
 10  1  2  0  0  0  0
 13  8  1  0  0  0  0
 14  8  1  0  0  0  0
 16  9  1  0  0  0  0
 17 10  1  0  0  0  0
 18 22  1  0  0  0  0
 18 20  1  0  0  0  0
 19 18  1  0  0  0  0
 21 18  1  0  0  0  0
M  RAD  2   2   2   3   3
M  END
