Coordinates from ORCA-job 4-MeOPhN2+~BF4-_B3LYPG-6-31G_dp-CH-Scan-d09-49-n800
 OpenBabel11261919343D

 22 20  0  0  0  0  0  0  0  0999 V2000
   -1.7408    0.0377    0.0794 C   0  0  0  0  0  0  0  0  0  0  0  0
   -3.1101   -0.0704    0.1703 N   0  0  0  0  0  0  0  0  0  0  0  0
   -4.2292   -0.0998    0.2464 N   0  0  0  0  0  0  0  0  0  0  0  0
   -1.2678    1.3727    0.0955 C   0  0  0  0  0  0  0  0  0  0  0  0
    0.1362    1.3836    0.0019 C   0  0  0  0  0  0  0  0  0  0  0  0
    0.9315    0.2308   -0.0918 C   0  0  0  0  0  0  0  0  0  0  0  0
    2.2688    0.4291   -0.1717 O   0  0  0  0  0  0  0  0  0  0  0  0
    3.1459   -0.6873   -0.2637 C   0  0  0  0  0  0  0  0  0  0  0  0
    0.3498   -1.0702   -0.1001 C   0  0  0  0  0  0  0  0  0  0  0  0
   -1.0172   -1.1817   -0.0129 C   0  0  0  0  0  0  0  0  0  0  0  0
   -3.6467    4.1430    0.4479 H   0  0  0  0  0  0  0  0  0  0  0  0
    0.6814    2.3284    0.0000 H   0  0  0  0  0  0  0  0  0  0  0  0
    4.1530   -0.2712   -0.3089 H   0  0  0  0  0  0  0  0  0  0  0  0
    2.9588   -1.2749   -1.1708 H   0  0  0  0  0  0  0  0  0  0  0  0
    3.0644   -1.3385    0.6152 H   0  0  0  0  0  0  0  0  0  0  0  0
    0.9617   -1.9603   -0.1726 H   0  0  0  0  0  0  0  0  0  0  0  0
   -1.5082   -2.1520   -0.0154 H   0  0  0  0  0  0  0  0  0  0  0  0
   -5.8833    2.9854    0.2712 B   0  0  0  0  0  0  0  0  0  0  0  0
   -5.0839    2.5201   -0.6898 F   0  0  0  0  0  0  0  0  0  0  0  0
   -4.4358    4.4840    0.8072 F   0  0  0  0  0  0  0  0  0  0  0  0
   -6.8466    3.8362   -0.0377 F   0  0  0  0  0  0  0  0  0  0  0  0
   -5.8856    2.3749    1.4470 F   0  0  0  0  0  0  0  0  0  0  0  0
  1  4  1  0  0  0  0
  1  2  1  0  0  0  0
  2  3  1  0  0  0  0
  5  4  2  0  0  0  0
  6  5  1  0  0  0  0
  7  6  1  0  0  0  0
  8  7  1  0  0  0  0
  8 15  1  0  0  0  0
  9  6  2  0  0  0  0
  9 10  1  0  0  0  0
 10  1  2  0  0  0  0
 11 20  1  0  0  0  0
 12  5  1  0  0  0  0
 13  8  1  0  0  0  0
 14  8  1  0  0  0  0
 16  9  1  0  0  0  0
 17 10  1  0  0  0  0
 18 22  1  0  0  0  0
 19 18  1  0  0  0  0
 21 18  1  0  0  0  0
M  RAD  3   2   2   3   3   4   2
M  END
