Coordinates from ORCA-job 4-MeOPhN2+~BF4-_B3LYPG-6-31G_dp-CH-Scan-d09-49-n800
 OpenBabel11261919343D

 22 20  0  0  0  0  0  0  0  0999 V2000
   -1.9408    0.0489    0.0981 C   0  0  0  0  0  0  0  0  0  0  0  0
   -3.3005   -0.1328    0.1695 N   0  0  0  0  0  0  0  0  0  0  0  0
   -4.4130   -0.2491    0.2314 N   0  0  0  0  0  0  0  0  0  0  0  0
   -1.4985    1.3942    0.1631 C   0  0  0  0  0  0  0  0  0  0  0  0
   -0.1018    1.4705    0.0849 C   0  0  0  0  0  0  0  0  0  0  0  0
    0.7380    0.3504   -0.0412 C   0  0  0  0  0  0  0  0  0  0  0  0
    2.0631    0.6038   -0.1021 O   0  0  0  0  0  0  0  0  0  0  0  0
    2.9863   -0.4734   -0.2291 C   0  0  0  0  0  0  0  0  0  0  0  0
    0.2027   -0.9664   -0.0990 C   0  0  0  0  0  0  0  0  0  0  0  0
   -1.1606   -1.1304   -0.0286 C   0  0  0  0  0  0  0  0  0  0  0  0
   -3.0569    3.3099    0.3549 H   0  0  0  0  0  0  0  0  0  0  0  0
    0.4015    2.4357    0.1209 H   0  0  0  0  0  0  0  0  0  0  0  0
    3.9750   -0.0148   -0.2529 H   0  0  0  0  0  0  0  0  0  0  0  0
    2.8256   -1.0331   -1.1582 H   0  0  0  0  0  0  0  0  0  0  0  0
    2.9257   -1.1575    0.6259 H   0  0  0  0  0  0  0  0  0  0  0  0
    0.8451   -1.8322   -0.1957 H   0  0  0  0  0  0  0  0  0  0  0  0
   -1.6129   -2.1178   -0.0691 H   0  0  0  0  0  0  0  0  0  0  0  0
   -5.4186    2.9704    0.2745 B   0  0  0  0  0  0  0  0  0  0  0  0
   -5.1507    2.3339   -0.8759 F   0  0  0  0  0  0  0  0  0  0  0  0
   -3.7707    3.9339    0.4181 F   0  0  0  0  0  0  0  0  0  0  0  0
   -6.2319    4.0223    0.2549 F   0  0  0  0  0  0  0  0  0  0  0  0
   -5.3100    2.2532    1.4019 F   0  0  0  0  0  0  0  0  0  0  0  0
  1  4  1  0  0  0  0
  1  2  1  0  0  0  0
  2  3  1  0  0  0  0
  5 12  1  0  0  0  0
  5  4  2  0  0  0  0
  6  5  1  0  0  0  0
  7  6  1  0  0  0  0
  8  7  1  0  0  0  0
  8 15  1  0  0  0  0
  9  6  2  0  0  0  0
  9 10  1  0  0  0  0
 10  1  2  0  0  0  0
 11 20  1  0  0  0  0
 13  8  1  0  0  0  0
 14  8  1  0  0  0  0
 16  9  1  0  0  0  0
 17 10  1  0  0  0  0
 18 22  1  0  0  0  0
 19 18  1  0  0  0  0
 21 18  1  0  0  0  0
M  RAD  3   2   2   3   3   4   2
M  END
