Coordinates from ORCA-job 4-MeOPhN2+~BF4-_B3LYPG-6-31G_dp-CH-Scan-d09-49-n800
 OpenBabel11261919343D

 22 20  0  0  0  0  0  0  0  0999 V2000
   -1.8866    0.0437    0.0731 C   0  0  0  0  0  0  0  0  0  0  0  0
   -3.2500   -0.1173    0.1349 N   0  0  0  0  0  0  0  0  0  0  0  0
   -4.3661   -0.2050    0.1895 N   0  0  0  0  0  0  0  0  0  0  0  0
   -1.4378    1.3870    0.1341 C   0  0  0  0  0  0  0  0  0  0  0  0
   -0.0377    1.4454    0.0658 C   0  0  0  0  0  0  0  0  0  0  0  0
    0.7914    0.3168   -0.0476 C   0  0  0  0  0  0  0  0  0  0  0  0
    2.1208    0.5558   -0.1001 O   0  0  0  0  0  0  0  0  0  0  0  0
    3.0328   -0.5316   -0.2143 C   0  0  0  0  0  0  0  0  0  0  0  0
    0.2445   -0.9963   -0.1022 C   0  0  0  0  0  0  0  0  0  0  0  0
   -1.1206   -1.1467   -0.0412 C   0  0  0  0  0  0  0  0  0  0  0  0
   -3.1770    3.5367    0.3343 H   0  0  0  0  0  0  0  0  0  0  0  0
    0.4772    2.4052    0.1000 H   0  0  0  0  0  0  0  0  0  0  0  0
    4.0269   -0.0841   -0.2335 H   0  0  0  0  0  0  0  0  0  0  0  0
    2.8733   -1.0953   -1.1414 H   0  0  0  0  0  0  0  0  0  0  0  0
    2.9591   -1.2106    0.6438 H   0  0  0  0  0  0  0  0  0  0  0  0
    0.8800   -1.8682   -0.1892 H   0  0  0  0  0  0  0  0  0  0  0  0
   -1.5830   -2.1297   -0.0795 H   0  0  0  0  0  0  0  0  0  0  0  0
   -5.5754    2.9686    0.3111 B   0  0  0  0  0  0  0  0  0  0  0  0
   -5.2751    2.3719   -0.8456 F   0  0  0  0  0  0  0  0  0  0  0  0
   -3.9199    4.1097    0.3962 F   0  0  0  0  0  0  0  0  0  0  0  0
   -6.4398    3.9737    0.3218 F   0  0  0  0  0  0  0  0  0  0  0  0
   -5.3410    2.2900    1.4366 F   0  0  0  0  0  0  0  0  0  0  0  0
  1  4  1  0  0  0  0
  1  2  1  0  0  0  0
  2  3  1  0  0  0  0
  5 12  1  0  0  0  0
  5  4  2  0  0  0  0
  6  5  1  0  0  0  0
  7  6  1  0  0  0  0
  8  7  1  0  0  0  0
  8 15  1  0  0  0  0
  9  6  2  0  0  0  0
  9 10  1  0  0  0  0
 10  1  2  0  0  0  0
 11 20  1  0  0  0  0
 13  8  1  0  0  0  0
 14  8  1  0  0  0  0
 16  9  1  0  0  0  0
 17 10  1  0  0  0  0
 18 21  1  0  0  0  0
 18 22  1  0  0  0  0
 19 18  1  0  0  0  0
M  RAD  3   2   2   3   3   4   2
M  END
