Coordinates from ORCA-job 4-MeOPhN2+~BF4-_B3LYPG-6-31G_dp-CH-Scan-d09-49-n800
 OpenBabel11261919343D

 22 20  0  0  0  0  0  0  0  0999 V2000
   -1.5924    0.1067    0.0148 C   0  0  0  0  0  0  0  0  0  0  0  0
   -2.9675    0.0819    0.0954 N   0  0  0  0  0  0  0  0  0  0  0  0
   -4.0872    0.1284    0.1619 N   0  0  0  0  0  0  0  0  0  0  0  0
   -1.0547    1.4153   -0.0192 C   0  0  0  0  0  0  0  0  0  0  0  0
    0.3500    1.3493   -0.0985 C   0  0  0  0  0  0  0  0  0  0  0  0
    1.0841    0.1541   -0.1349 C   0  0  0  0  0  0  0  0  0  0  0  0
    2.4317    0.2782   -0.2087 O   0  0  0  0  0  0  0  0  0  0  0  0
    3.2486   -0.8858   -0.2426 C   0  0  0  0  0  0  0  0  0  0  0  0
    0.4358   -1.1153   -0.0952 C   0  0  0  0  0  0  0  0  0  0  0  0
   -0.9359   -1.1532   -0.0185 C   0  0  0  0  0  0  0  0  0  0  0  0
   -4.2774    4.6505    0.4891 H   0  0  0  0  0  0  0  0  0  0  0  0
    0.9439    2.2638   -0.1346 H   0  0  0  0  0  0  0  0  0  0  0  0
    4.2771   -0.5262   -0.2947 H   0  0  0  0  0  0  0  0  0  0  0  0
    3.0382   -1.5024   -1.1252 H   0  0  0  0  0  0  0  0  0  0  0  0
    3.1250   -1.4928    0.6627 H   0  0  0  0  0  0  0  0  0  0  0  0
    1.0023   -2.0376   -0.1239 H   0  0  0  0  0  0  0  0  0  0  0  0
   -1.4770   -2.0960    0.0145 H   0  0  0  0  0  0  0  0  0  0  0  0
   -6.1066    2.9658    0.3255 B   0  0  0  0  0  0  0  0  0  0  0  0
   -5.1316    2.7694   -0.5645 F   0  0  0  0  0  0  0  0  0  0  0  0
   -5.0389    4.7554    1.0142 F   0  0  0  0  0  0  0  0  0  0  0  0
   -7.2084    3.5906   -0.0491 F   0  0  0  0  0  0  0  0  0  0  0  0
   -6.0630    2.3196    1.4779 F   0  0  0  0  0  0  0  0  0  0  0  0
  1  2  1  0  0  0  0
  2  3  1  0  0  0  0
  4  1  2  0  0  0  0
  5  4  1  0  0  0  0
  6  5  2  0  0  0  0
  6  9  1  0  0  0  0
  7  6  1  0  0  0  0
  8  7  1  0  0  0  0
  8 15  1  0  0  0  0
  9 10  2  0  0  0  0
 10 17  1  0  0  0  0
 10  1  1  0  0  0  0
 11 20  1  0  0  0  0
 12  5  1  0  0  0  0
 13  8  1  0  0  0  0
 14  8  1  0  0  0  0
 16  9  1  0  0  0  0
 18 22  1  0  0  0  0
 19 18  1  0  0  0  0
 21 18  1  0  0  0  0
M  RAD  3   2   2   3   3   4   2
M  END
