Coordinates from ORCA-job 4-MeOPhN2+~BF4-_B3LYPG-6-31G_dp-CH-Scan-d09-49-n800
 OpenBabel11261919343D

 22 20  0  0  0  0  0  0  0  0999 V2000
   -1.8053    0.0428    0.0854 C   0  0  0  0  0  0  0  0  0  0  0  0
   -3.1730   -0.0879    0.1522 N   0  0  0  0  0  0  0  0  0  0  0  0
   -4.2916   -0.1440    0.2114 N   0  0  0  0  0  0  0  0  0  0  0  0
   -1.3405    1.3798    0.1502 C   0  0  0  0  0  0  0  0  0  0  0  0
    0.0624    1.4102    0.0730 C   0  0  0  0  0  0  0  0  0  0  0  0
    0.8707    0.2686   -0.0504 C   0  0  0  0  0  0  0  0  0  0  0  0
    2.2053    0.4838   -0.1113 O   0  0  0  0  0  0  0  0  0  0  0  0
    3.0959   -0.6192   -0.2365 C   0  0  0  0  0  0  0  0  0  0  0  0
    0.3019   -1.0361   -0.1062 C   0  0  0  0  0  0  0  0  0  0  0  0
   -1.0649   -1.1636   -0.0375 C   0  0  0  0  0  0  0  0  0  0  0  0
   -3.3873    3.8703    0.3944 H   0  0  0  0  0  0  0  0  0  0  0  0
    0.5963    2.3602    0.1078 H   0  0  0  0  0  0  0  0  0  0  0  0
    4.0981   -0.1901   -0.2618 H   0  0  0  0  0  0  0  0  0  0  0  0
    2.9199   -1.1770   -1.1644 H   0  0  0  0  0  0  0  0  0  0  0  0
    3.0169   -1.3007    0.6193 H   0  0  0  0  0  0  0  0  0  0  0  0
    0.9228   -1.9179   -0.2002 H   0  0  0  0  0  0  0  0  0  0  0  0
   -1.5453   -2.1382   -0.0765 H   0  0  0  0  0  0  0  0  0  0  0  0
   -5.7673    2.9677    0.2934 B   0  0  0  0  0  0  0  0  0  0  0  0
   -5.3328    2.4398   -0.8486 F   0  0  0  0  0  0  0  0  0  0  0  0
   -4.1858    4.3505    0.4512 F   0  0  0  0  0  0  0  0  0  0  0  0
   -6.7197    3.8856    0.2737 F   0  0  0  0  0  0  0  0  0  0  0  0
   -5.4803    2.3350    1.4281 F   0  0  0  0  0  0  0  0  0  0  0  0
  1  4  1  0  0  0  0
  1  2  1  0  0  0  0
  2  3  1  0  0  0  0
  5 12  1  0  0  0  0
  5  4  2  0  0  0  0
  6  5  1  0  0  0  0
  7  6  1  0  0  0  0
  8  7  1  0  0  0  0
  8 15  1  0  0  0  0
  9  6  2  0  0  0  0
  9 10  1  0  0  0  0
 10  1  2  0  0  0  0
 11 20  1  0  0  0  0
 13  8  1  0  0  0  0
 14  8  1  0  0  0  0
 16  9  1  0  0  0  0
 17 10  1  0  0  0  0
 18 22  1  0  0  0  0
 19 18  1  0  0  0  0
 21 18  1  0  0  0  0
M  RAD  3   2   2   3   3   4   2
M  END
