Coordinates from ORCA-job 4-MeOPhN2+~BF4-_B3LYPG-6-31G_dp-CH-Scan-d09-49-n800
 OpenBabel11261919343D

 22 21  0  0  0  0  0  0  0  0999 V2000
   -2.1479    0.1708    0.3326 C   0  0  0  0  0  0  0  0  0  0  0  0
   -3.4948   -0.0263    0.5034 N   0  0  0  0  0  0  0  0  0  0  0  0
   -4.5834   -0.2065    0.6759 N   0  0  0  0  0  0  0  0  0  0  0  0
   -1.6090    1.4675    0.4827 C   0  0  0  0  0  0  0  0  0  0  0  0
   -0.2461    1.6026    0.3288 C   0  0  0  0  0  0  0  0  0  0  0  0
    0.5673    0.4901    0.0222 C   0  0  0  0  0  0  0  0  0  0  0  0
    1.8752    0.7508   -0.1110 O   0  0  0  0  0  0  0  0  0  0  0  0
    2.7818   -0.3082   -0.4285 C   0  0  0  0  0  0  0  0  0  0  0  0
   -0.0002   -0.7961   -0.1240 C   0  0  0  0  0  0  0  0  0  0  0  0
   -1.3630   -0.9598    0.0359 C   0  0  0  0  0  0  0  0  0  0  0  0
   -2.3586    2.4007    0.7205 H   0  0  0  0  0  0  0  0  0  0  0  0
    0.2293    2.5718    0.4306 H   0  0  0  0  0  0  0  0  0  0  0  0
    3.7662    0.1553   -0.4788 H   0  0  0  0  0  0  0  0  0  0  0  0
    2.5398   -0.7575   -1.3977 H   0  0  0  0  0  0  0  0  0  0  0  0
    2.7789   -1.0779    0.3514 H   0  0  0  0  0  0  0  0  0  0  0  0
    0.6133   -1.6556   -0.3598 H   0  0  0  0  0  0  0  0  0  0  0  0
   -1.8228   -1.9364   -0.0715 H   0  0  0  0  0  0  0  0  0  0  0  0
   -4.7342    2.8499    0.0291 B   0  0  0  0  0  0  0  0  0  0  0  0
   -4.0311    2.0627   -0.9224 F   0  0  0  0  0  0  0  0  0  0  0  0
   -3.7508    3.3993    0.9176 F   0  0  0  0  0  0  0  0  0  0  0  0
   -5.4576    3.8439   -0.5742 F   0  0  0  0  0  0  0  0  0  0  0  0
   -5.5559    1.9788    0.7836 F   0  0  0  0  0  0  0  0  0  0  0  0
  1  4  1  0  0  0  0
  1  2  1  0  0  0  0
  2  3  1  0  0  0  0
  4 11  1  0  0  0  0
  5 12  1  0  0  0  0
  5  4  2  0  0  0  0
  6  5  1  0  0  0  0
  7  6  1  0  0  0  0
  8  7  1  0  0  0  0
  8 15  1  0  0  0  0
  9  6  2  0  0  0  0
  9 10  1  0  0  0  0
 10  1  2  0  0  0  0
 13  8  1  0  0  0  0
 14  8  1  0  0  0  0
 16  9  1  0  0  0  0
 17 10  1  0  0  0  0
 18 22  1  0  0  0  0
 18 20  1  0  0  0  0
 19 18  1  0  0  0  0
 21 18  1  0  0  0  0
M  RAD  2   2   2   3   3
M  END
