Coordinates from ORCA-job 4-MeOPhN2+~BF4-_B3LYPG-6-31G_dp-CH-Scan-d09-49-n800
 OpenBabel11261919343D

 22 21  0  0  0  0  0  0  0  0999 V2000
   -2.1464    0.1572    0.3242 C   0  0  0  0  0  0  0  0  0  0  0  0
   -3.4929   -0.0434    0.4909 N   0  0  0  0  0  0  0  0  0  0  0  0
   -4.5831   -0.2184    0.6581 N   0  0  0  0  0  0  0  0  0  0  0  0
   -1.6160    1.4575    0.4740 C   0  0  0  0  0  0  0  0  0  0  0  0
   -0.2526    1.5963    0.3230 C   0  0  0  0  0  0  0  0  0  0  0  0
    0.5661    0.4864    0.0222 C   0  0  0  0  0  0  0  0  0  0  0  0
    1.8737    0.7514   -0.1081 O   0  0  0  0  0  0  0  0  0  0  0  0
    2.7852   -0.3048   -0.4202 C   0  0  0  0  0  0  0  0  0  0  0  0
    0.0049   -0.8036   -0.1225 C   0  0  0  0  0  0  0  0  0  0  0  0
   -1.3572   -0.9728    0.0326 C   0  0  0  0  0  0  0  0  0  0  0  0
   -2.4167    2.4345    0.7126 H   0  0  0  0  0  0  0  0  0  0  0  0
    0.2205    2.5670    0.4229 H   0  0  0  0  0  0  0  0  0  0  0  0
    3.7679    0.1626   -0.4701 H   0  0  0  0  0  0  0  0  0  0  0  0
    2.5473   -0.7586   -1.3883 H   0  0  0  0  0  0  0  0  0  0  0  0
    2.7842   -1.0720    0.3622 H   0  0  0  0  0  0  0  0  0  0  0  0
    0.6235   -1.6608   -0.3533 H   0  0  0  0  0  0  0  0  0  0  0  0
   -1.8126   -1.9517   -0.0733 H   0  0  0  0  0  0  0  0  0  0  0  0
   -4.7333    2.8570    0.0305 B   0  0  0  0  0  0  0  0  0  0  0  0
   -4.0714    2.0644   -0.9389 F   0  0  0  0  0  0  0  0  0  0  0  0
   -3.7035    3.4070    0.8834 F   0  0  0  0  0  0  0  0  0  0  0  0
   -5.4641    3.8619   -0.5415 F   0  0  0  0  0  0  0  0  0  0  0  0
   -5.5272    2.0025    0.8260 F   0  0  0  0  0  0  0  0  0  0  0  0
  1  4  1  0  0  0  0
  1  2  1  0  0  0  0
  2  3  1  0  0  0  0
  4 11  1  0  0  0  0
  5 12  1  0  0  0  0
  5  4  2  0  0  0  0
  6  5  1  0  0  0  0
  7  6  1  0  0  0  0
  8  7  1  0  0  0  0
  8 15  1  0  0  0  0
  9  6  2  0  0  0  0
  9 10  1  0  0  0  0
 10  1  2  0  0  0  0
 13  8  1  0  0  0  0
 14  8  1  0  0  0  0
 16  9  1  0  0  0  0
 17 10  1  0  0  0  0
 18 22  1  0  0  0  0
 18 20  1  0  0  0  0
 19 18  1  0  0  0  0
 21 18  1  0  0  0  0
M  RAD  2   2   2   3   3
M  END
