Coordinates from ORCA-job 4-MeOPhN2+~BF4-_B3LYPG-6-31G_dp-CH-Scan-d09-49-n800
 OpenBabel11261919343D

 22 20  0  0  0  0  0  0  0  0999 V2000
   -1.5625    0.1321   -0.0591 C   0  0  0  0  0  0  0  0  0  0  0  0
   -2.9397    0.1305   -0.0110 N   0  0  0  0  0  0  0  0  0  0  0  0
   -4.0597    0.1971    0.0260 N   0  0  0  0  0  0  0  0  0  0  0  0
   -1.0055    1.4314   -0.1174 C   0  0  0  0  0  0  0  0  0  0  0  0
    0.3996    1.3440   -0.1631 C   0  0  0  0  0  0  0  0  0  0  0  0
    1.1166    0.1381   -0.1505 C   0  0  0  0  0  0  0  0  0  0  0  0
    2.4672    0.2412   -0.1986 O   0  0  0  0  0  0  0  0  0  0  0  0
    3.2675   -0.9348   -0.1876 C   0  0  0  0  0  0  0  0  0  0  0  0
    0.4491   -1.1207   -0.0899 C   0  0  0  0  0  0  0  0  0  0  0  0
   -0.9244   -1.1375   -0.0426 C   0  0  0  0  0  0  0  0  0  0  0  0
   -4.4337    4.7576    0.4475 H   0  0  0  0  0  0  0  0  0  0  0  0
    1.0072    2.2489   -0.2113 H   0  0  0  0  0  0  0  0  0  0  0  0
    4.3019   -0.5912   -0.2300 H   0  0  0  0  0  0  0  0  0  0  0  0
    3.0637   -1.5708   -1.0578 H   0  0  0  0  0  0  0  0  0  0  0  0
    3.1190   -1.5165    0.7306 H   0  0  0  0  0  0  0  0  0  0  0  0
    1.0029   -2.0511   -0.0805 H   0  0  0  0  0  0  0  0  0  0  0  0
   -1.4797   -2.0714    0.0049 H   0  0  0  0  0  0  0  0  0  0  0  0
   -6.1411    2.9499    0.4032 B   0  0  0  0  0  0  0  0  0  0  0  0
   -5.2293    2.8422   -0.5656 F   0  0  0  0  0  0  0  0  0  0  0  0
   -5.1559    4.8125    1.0320 F   0  0  0  0  0  0  0  0  0  0  0  0
   -7.3144    3.4911    0.1301 F   0  0  0  0  0  0  0  0  0  0  0  0
   -5.9526    2.2970    1.5370 F   0  0  0  0  0  0  0  0  0  0  0  0
  1 10  1  0  0  0  0
  1  2  1  0  0  0  0
  2  3  1  0  0  0  0
  4  1  2  0  0  0  0
  5  6  2  0  0  0  0
  5  4  1  0  0  0  0
  6  9  1  0  0  0  0
  7  8  1  0  0  0  0
  7  6  1  0  0  0  0
  8 15  1  0  0  0  0
  9 16  1  0  0  0  0
  9 10  2  0  0  0  0
 10 17  1  0  0  0  0
 11 20  1  0  0  0  0
 12  5  1  0  0  0  0
 13  8  1  0  0  0  0
 14  8  1  0  0  0  0
 18 22  1  0  0  0  0
 19 18  1  0  0  0  0
 21 18  1  0  0  0  0
M  RAD  3   2   2   3   3   4   2
M  END
