Coordinates from ORCA-job 4-MeOPhN2+~BF4-_B3LYPG-6-31G_dp-CH-Scan-d09-49-n800
 OpenBabel11261919343D

 22 20  0  0  0  0  0  0  0  0999 V2000
   -1.6535    0.0679    0.0590 C   0  0  0  0  0  0  0  0  0  0  0  0
   -3.0267    0.0049    0.1488 N   0  0  0  0  0  0  0  0  0  0  0  0
   -4.1466    0.0184    0.2224 N   0  0  0  0  0  0  0  0  0  0  0  0
   -1.1472    1.3898    0.0519 C   0  0  0  0  0  0  0  0  0  0  0  0
    0.2576    1.3602   -0.0407 C   0  0  0  0  0  0  0  0  0  0  0  0
    1.0205    0.1847   -0.1127 C   0  0  0  0  0  0  0  0  0  0  0  0
    2.3637    0.3441   -0.1956 O   0  0  0  0  0  0  0  0  0  0  0  0
    3.2089   -0.7978   -0.2666 C   0  0  0  0  0  0  0  0  0  0  0  0
    0.4038   -1.1006   -0.0979 C   0  0  0  0  0  0  0  0  0  0  0  0
   -0.9658   -1.1737   -0.0101 C   0  0  0  0  0  0  0  0  0  0  0  0
   -3.9944    4.4464    0.4803 H   0  0  0  0  0  0  0  0  0  0  0  0
    0.8288    2.2895   -0.0593 H   0  0  0  0  0  0  0  0  0  0  0  0
    4.2275   -0.4112   -0.3189 H   0  0  0  0  0  0  0  0  0  0  0  0
    3.0055   -1.3970   -1.1627 H   0  0  0  0  0  0  0  0  0  0  0  0
    3.1092   -1.4303    0.6241 H   0  0  0  0  0  0  0  0  0  0  0  0
    0.9919   -2.0079   -0.1537 H   0  0  0  0  0  0  0  0  0  0  0  0
   -1.4834   -2.1301    0.0046 H   0  0  0  0  0  0  0  0  0  0  0  0
   -6.0262    2.9816    0.2879 B   0  0  0  0  0  0  0  0  0  0  0  0
   -5.0968    2.6481   -0.6090 F   0  0  0  0  0  0  0  0  0  0  0  0
   -4.7841    4.6556    0.9267 F   0  0  0  0  0  0  0  0  0  0  0  0
   -7.0587    3.7146   -0.0893 F   0  0  0  0  0  0  0  0  0  0  0  0
   -6.0378    2.3624    1.4569 F   0  0  0  0  0  0  0  0  0  0  0  0
  1  2  1  0  0  0  0
  2  3  1  0  0  0  0
  4  1  1  0  0  0  0
  5  4  2  0  0  0  0
  6  9  2  0  0  0  0
  6  5  1  0  0  0  0
  7  6  1  0  0  0  0
  8  7  1  0  0  0  0
  8 15  1  0  0  0  0
  9 10  1  0  0  0  0
 10 17  1  0  0  0  0
 10  1  2  0  0  0  0
 11 20  1  0  0  0  0
 12  5  1  0  0  0  0
 13  8  1  0  0  0  0
 14  8  1  0  0  0  0
 16  9  1  0  0  0  0
 18 22  1  0  0  0  0
 19 18  1  0  0  0  0
 21 18  1  0  0  0  0
M  RAD  3   2   2   3   3   4   2
M  END
