Coordinates from ORCA-job 4-MeOPhN2+~BF4-_B3LYPG-6-31G_dp-CH-Scan-d09-49-n800
 OpenBabel11261919343D

 22 20  0  0  0  0  0  0  0  0999 V2000
   -1.5481    0.1420   -0.0583 C   0  0  0  0  0  0  0  0  0  0  0  0
   -2.9252    0.1494   -0.0093 N   0  0  0  0  0  0  0  0  0  0  0  0
   -4.0448    0.2236    0.0295 N   0  0  0  0  0  0  0  0  0  0  0  0
   -0.9832    1.4379   -0.1165 C   0  0  0  0  0  0  0  0  0  0  0  0
    0.4213    1.3421   -0.1631 C   0  0  0  0  0  0  0  0  0  0  0  0
    1.1308    0.1318   -0.1514 C   0  0  0  0  0  0  0  0  0  0  0  0
    2.4821    0.2266   -0.2003 O   0  0  0  0  0  0  0  0  0  0  0  0
    3.2752   -0.9542   -0.1902 C   0  0  0  0  0  0  0  0  0  0  0  0
    0.4557   -1.1229   -0.0909 C   0  0  0  0  0  0  0  0  0  0  0  0
   -0.9178   -1.1314   -0.0427 C   0  0  0  0  0  0  0  0  0  0  0  0
   -4.4910    4.7906    0.4480 H   0  0  0  0  0  0  0  0  0  0  0  0
    1.0344    2.2432   -0.2114 H   0  0  0  0  0  0  0  0  0  0  0  0
    4.3117   -0.6169   -0.2331 H   0  0  0  0  0  0  0  0  0  0  0  0
    3.0670   -1.5887   -1.0605 H   0  0  0  0  0  0  0  0  0  0  0  0
    3.1237   -1.5353    0.7279 H   0  0  0  0  0  0  0  0  0  0  0  0
    1.0039   -2.0567   -0.0823 H   0  0  0  0  0  0  0  0  0  0  0  0
   -1.4788   -2.0620    0.0047 H   0  0  0  0  0  0  0  0  0  0  0  0
   -6.1596    2.9473    0.4054 B   0  0  0  0  0  0  0  0  0  0  0  0
   -5.2438    2.8577   -0.5614 F   0  0  0  0  0  0  0  0  0  0  0  0
   -5.2142    4.8318    1.0324 F   0  0  0  0  0  0  0  0  0  0  0  0
   -7.3437    3.4628    0.1290 F   0  0  0  0  0  0  0  0  0  0  0  0
   -5.9593    2.3010    1.5409 F   0  0  0  0  0  0  0  0  0  0  0  0
  1 10  1  0  0  0  0
  1  2  1  0  0  0  0
  2  3  1  0  0  0  0
  4  1  2  0  0  0  0
  5  6  2  0  0  0  0
  5  4  1  0  0  0  0
  6  9  1  0  0  0  0
  7  8  1  0  0  0  0
  7  6  1  0  0  0  0
  8 15  1  0  0  0  0
  9 16  1  0  0  0  0
  9 10  2  0  0  0  0
 10 17  1  0  0  0  0
 11 20  1  0  0  0  0
 12  5  1  0  0  0  0
 13  8  1  0  0  0  0
 14  8  1  0  0  0  0
 18 22  1  0  0  0  0
 19 18  1  0  0  0  0
 21 18  1  0  0  0  0
M  RAD  3   2   2   3   3   4   2
M  END
