Coordinates from ORCA-job 4-MeOPhN2+~BF4-_B3LYPG-6-31G_dp-CH-Scan-d09-49-n800
 OpenBabel11261919343D

 22 20  0  0  0  0  0  0  0  0999 V2000
   -1.7034    0.0471    0.0628 C   0  0  0  0  0  0  0  0  0  0  0  0
   -3.0747   -0.0424    0.1510 N   0  0  0  0  0  0  0  0  0  0  0  0
   -4.1944   -0.0533    0.2253 N   0  0  0  0  0  0  0  0  0  0  0  0
   -1.2178    1.3773    0.0699 C   0  0  0  0  0  0  0  0  0  0  0  0
    0.1870    1.3720   -0.0196 C   0  0  0  0  0  0  0  0  0  0  0  0
    0.9699    0.2100   -0.1012 C   0  0  0  0  0  0  0  0  0  0  0  0
    2.3101    0.3930   -0.1781 O   0  0  0  0  0  0  0  0  0  0  0  0
    3.1750   -0.7337   -0.2570 C   0  0  0  0  0  0  0  0  0  0  0  0
    0.3745   -1.0850   -0.1014 C   0  0  0  0  0  0  0  0  0  0  0  0
   -0.9939   -1.1814   -0.0177 C   0  0  0  0  0  0  0  0  0  0  0  0
   -3.7866    4.2862    0.4435 H   0  0  0  0  0  0  0  0  0  0  0  0
    0.7427    2.3107   -0.0274 H   0  0  0  0  0  0  0  0  0  0  0  0
    4.1869   -0.3293   -0.3014 H   0  0  0  0  0  0  0  0  0  0  0  0
    2.9852   -1.3271   -1.1598 H   0  0  0  0  0  0  0  0  0  0  0  0
    3.0826   -1.3765    0.6271 H   0  0  0  0  0  0  0  0  0  0  0  0
    0.9773   -1.9820   -0.1652 H   0  0  0  0  0  0  0  0  0  0  0  0
   -1.4955   -2.1464   -0.0143 H   0  0  0  0  0  0  0  0  0  0  0  0
   -5.9508    2.9855    0.2897 B   0  0  0  0  0  0  0  0  0  0  0  0
   -5.1128    2.5718   -0.6620 F   0  0  0  0  0  0  0  0  0  0  0  0
   -4.5790    4.5617    0.8476 F   0  0  0  0  0  0  0  0  0  0  0  0
   -6.9499    3.7903   -0.0278 F   0  0  0  0  0  0  0  0  0  0  0  0
   -5.9361    2.3713    1.4626 F   0  0  0  0  0  0  0  0  0  0  0  0
  1  4  1  0  0  0  0
  1  2  1  0  0  0  0
  2  3  1  0  0  0  0
  5  4  2  0  0  0  0
  6  5  1  0  0  0  0
  7  6  1  0  0  0  0
  8  7  1  0  0  0  0
  8 15  1  0  0  0  0
  9  6  2  0  0  0  0
  9 10  1  0  0  0  0
 10 17  1  0  0  0  0
 10  1  2  0  0  0  0
 11 20  1  0  0  0  0
 12  5  1  0  0  0  0
 13  8  1  0  0  0  0
 14  8  1  0  0  0  0
 16  9  1  0  0  0  0
 18 22  1  0  0  0  0
 19 18  1  0  0  0  0
 21 18  1  0  0  0  0
M  RAD  3   2   2   3   3   4   2
M  END
