Coordinates from ORCA-job 4-MeOPhN2+~BF4-_B3LYPG-6-31G_dp-CH-Scan-d09-49-n800
 OpenBabel11261919343D

 22 20  0  0  0  0  0  0  0  0999 V2000
   -1.8182    0.0417    0.0823 C   0  0  0  0  0  0  0  0  0  0  0  0
   -3.1852   -0.0944    0.1477 N   0  0  0  0  0  0  0  0  0  0  0  0
   -4.3036   -0.1564    0.2029 N   0  0  0  0  0  0  0  0  0  0  0  0
   -1.3567    1.3800    0.1455 C   0  0  0  0  0  0  0  0  0  0  0  0
    0.0459    1.4153    0.0706 C   0  0  0  0  0  0  0  0  0  0  0  0
    0.8581    0.2761   -0.0501 C   0  0  0  0  0  0  0  0  0  0  0  0
    2.1918    0.4956   -0.1093 O   0  0  0  0  0  0  0  0  0  0  0  0
    3.0864   -0.6046   -0.2320 C   0  0  0  0  0  0  0  0  0  0  0  0
    0.2933   -1.0304   -0.1049 C   0  0  0  0  0  0  0  0  0  0  0  0
   -1.0732   -1.1620   -0.0380 C   0  0  0  0  0  0  0  0  0  0  0  0
   -3.3502    3.8171    0.3864 H   0  0  0  0  0  0  0  0  0  0  0  0
    0.5764    2.3672    0.1048 H   0  0  0  0  0  0  0  0  0  0  0  0
    4.0871   -0.1721   -0.2565 H   0  0  0  0  0  0  0  0  0  0  0  0
    2.9134   -1.1641   -1.1593 H   0  0  0  0  0  0  0  0  0  0  0  0
    3.0085   -1.2851    0.6247 H   0  0  0  0  0  0  0  0  0  0  0  0
    0.9170   -1.9104   -0.1966 H   0  0  0  0  0  0  0  0  0  0  0  0
   -1.5503   -2.1383   -0.0762 H   0  0  0  0  0  0  0  0  0  0  0  0
   -5.7401    2.9691    0.2977 B   0  0  0  0  0  0  0  0  0  0  0  0
   -5.3319    2.4302   -0.8494 F   0  0  0  0  0  0  0  0  0  0  0  0
   -4.1399    4.3135    0.4388 F   0  0  0  0  0  0  0  0  0  0  0  0
   -6.6764    3.9040    0.2886 F   0  0  0  0  0  0  0  0  0  0  0  0
   -5.4560    2.3278    1.4289 F   0  0  0  0  0  0  0  0  0  0  0  0
  1  4  1  0  0  0  0
  1  2  1  0  0  0  0
  2  3  1  0  0  0  0
  5 12  1  0  0  0  0
  5  4  2  0  0  0  0
  6  5  1  0  0  0  0
  7  6  1  0  0  0  0
  8  7  1  0  0  0  0
  8 15  1  0  0  0  0
  9  6  2  0  0  0  0
  9 10  1  0  0  0  0
 10  1  2  0  0  0  0
 11 20  1  0  0  0  0
 13  8  1  0  0  0  0
 14  8  1  0  0  0  0
 16  9  1  0  0  0  0
 17 10  1  0  0  0  0
 18 22  1  0  0  0  0
 19 18  1  0  0  0  0
 21 18  1  0  0  0  0
M  RAD  3   2   2   3   3   4   2
M  END
