Coordinates from ORCA-job 4-MeOPhN2+~BF4-_B3LYPG-6-31G_dp-CH-Scan-d09-49-n800
 OpenBabel11261919343D

 22 20  0  0  0  0  0  0  0  0999 V2000
   -1.7243    0.0405    0.0719 C   0  0  0  0  0  0  0  0  0  0  0  0
   -3.0946   -0.0593    0.1616 N   0  0  0  0  0  0  0  0  0  0  0  0
   -4.2139   -0.0793    0.2376 N   0  0  0  0  0  0  0  0  0  0  0  0
   -1.2464    1.3736    0.0847 C   0  0  0  0  0  0  0  0  0  0  0  0
    0.1581    1.3778   -0.0071 C   0  0  0  0  0  0  0  0  0  0  0  0
    0.9483    0.2212   -0.0958 C   0  0  0  0  0  0  0  0  0  0  0  0
    2.2869    0.4132   -0.1741 O   0  0  0  0  0  0  0  0  0  0  0  0
    3.1590   -0.7074   -0.2606 C   0  0  0  0  0  0  0  0  0  0  0  0
    0.3610   -1.0773   -0.1012 C   0  0  0  0  0  0  0  0  0  0  0  0
   -1.0066   -1.1827   -0.0157 C   0  0  0  0  0  0  0  0  0  0  0  0
   -3.7076    4.2114    0.4444 H   0  0  0  0  0  0  0  0  0  0  0  0
    0.7076    2.3201   -0.0111 H   0  0  0  0  0  0  0  0  0  0  0  0
    4.1681   -0.2962   -0.3050 H   0  0  0  0  0  0  0  0  0  0  0  0
    2.9711   -1.2974   -1.1660 H   0  0  0  0  0  0  0  0  0  0  0  0
    3.0726   -1.3553    0.6204 H   0  0  0  0  0  0  0  0  0  0  0  0
    0.9692   -1.9703   -0.1702 H   0  0  0  0  0  0  0  0  0  0  0  0
   -1.5020   -2.1509   -0.0161 H   0  0  0  0  0  0  0  0  0  0  0  0
   -5.9133    2.9852    0.2799 B   0  0  0  0  0  0  0  0  0  0  0  0
   -5.0964    2.5424   -0.6770 F   0  0  0  0  0  0  0  0  0  0  0  0
   -4.4999    4.5210    0.8240 F   0  0  0  0  0  0  0  0  0  0  0  0
   -6.8932    3.8152   -0.0330 F   0  0  0  0  0  0  0  0  0  0  0  0
   -5.9072    2.3741    1.4549 F   0  0  0  0  0  0  0  0  0  0  0  0
  1  4  1  0  0  0  0
  1  2  1  0  0  0  0
  2  3  1  0  0  0  0
  5  4  2  0  0  0  0
  6  5  1  0  0  0  0
  7  6  1  0  0  0  0
  8  7  1  0  0  0  0
  8 15  1  0  0  0  0
  9  6  2  0  0  0  0
  9 10  1  0  0  0  0
 10  1  2  0  0  0  0
 11 20  1  0  0  0  0
 12  5  1  0  0  0  0
 13  8  1  0  0  0  0
 14  8  1  0  0  0  0
 16  9  1  0  0  0  0
 17 10  1  0  0  0  0
 18 22  1  0  0  0  0
 19 18  1  0  0  0  0
 21 18  1  0  0  0  0
M  RAD  3   2   2   3   3   4   2
M  END
