Coordinates from ORCA-job 4-MeOPhN2+~BF4-_B3LYPG-6-31G_dp-CH-Scan-d09-49-n800
 OpenBabel11261919343D

 22 20  0  0  0  0  0  0  0  0999 V2000
   -1.5808    0.1196   -0.0572 C   0  0  0  0  0  0  0  0  0  0  0  0
   -2.9576    0.1070   -0.0094 N   0  0  0  0  0  0  0  0  0  0  0  0
   -4.0781    0.1651    0.0275 N   0  0  0  0  0  0  0  0  0  0  0  0
   -1.0336    1.4233   -0.1127 C   0  0  0  0  0  0  0  0  0  0  0  0
    0.3721    1.3466   -0.1583 C   0  0  0  0  0  0  0  0  0  0  0  0
    1.0983    0.1461   -0.1480 C   0  0  0  0  0  0  0  0  0  0  0  0
    2.4481    0.2595   -0.1956 O   0  0  0  0  0  0  0  0  0  0  0  0
    3.2573   -0.9104   -0.1863 C   0  0  0  0  0  0  0  0  0  0  0  0
    0.4404   -1.1178   -0.0901 C   0  0  0  0  0  0  0  0  0  0  0  0
   -0.9328   -1.1451   -0.0432 C   0  0  0  0  0  0  0  0  0  0  0  0
   -4.3637    4.7145    0.4418 H   0  0  0  0  0  0  0  0  0  0  0  0
    0.9729    2.2560   -0.2046 H   0  0  0  0  0  0  0  0  0  0  0  0
    4.2891   -0.5589   -0.2276 H   0  0  0  0  0  0  0  0  0  0  0  0
    3.0587   -1.5464   -1.0577 H   0  0  0  0  0  0  0  0  0  0  0  0
    3.1127   -1.4948    0.7308 H   0  0  0  0  0  0  0  0  0  0  0  0
    1.0012   -2.0441   -0.0824 H   0  0  0  0  0  0  0  0  0  0  0  0
   -1.4811   -2.0833    0.0023 H   0  0  0  0  0  0  0  0  0  0  0  0
   -6.1160    2.9527    0.3997 B   0  0  0  0  0  0  0  0  0  0  0  0
   -5.2088    2.8224   -0.5707 F   0  0  0  0  0  0  0  0  0  0  0  0
   -5.0844    4.7904    1.0261 F   0  0  0  0  0  0  0  0  0  0  0  0
   -7.2763    3.5222    0.1286 F   0  0  0  0  0  0  0  0  0  0  0  0
   -5.9415    2.2952    1.5332 F   0  0  0  0  0  0  0  0  0  0  0  0
  1 10  1  0  0  0  0
  1  2  1  0  0  0  0
  2  3  1  0  0  0  0
  4  1  2  0  0  0  0
  5  6  2  0  0  0  0
  5  4  1  0  0  0  0
  6  9  1  0  0  0  0
  7  8  1  0  0  0  0
  7  6  1  0  0  0  0
  8 15  1  0  0  0  0
  9 16  1  0  0  0  0
  9 10  2  0  0  0  0
 10 17  1  0  0  0  0
 11 20  1  0  0  0  0
 12  5  1  0  0  0  0
 13  8  1  0  0  0  0
 14  8  1  0  0  0  0
 18 22  1  0  0  0  0
 19 18  1  0  0  0  0
 21 18  1  0  0  0  0
M  RAD  3   2   2   3   3   4   2
M  END
