Coordinates from ORCA-job 4-MeOPhN2+~BF4-_B3LYPG-6-31G_dp-CH-Scan-d09-49-n800
 OpenBabel11261919343D

 22 20  0  0  0  0  0  0  0  0999 V2000
   -1.6285    0.0824    0.0599 C   0  0  0  0  0  0  0  0  0  0  0  0
   -3.0022    0.0344    0.1542 N   0  0  0  0  0  0  0  0  0  0  0  0
   -4.1216    0.0619    0.2318 N   0  0  0  0  0  0  0  0  0  0  0  0
   -1.1101    1.3993    0.0470 C   0  0  0  0  0  0  0  0  0  0  0  0
    0.2943    1.3559   -0.0490 C   0  0  0  0  0  0  0  0  0  0  0  0
    1.0456    0.1728   -0.1185 C   0  0  0  0  0  0  0  0  0  0  0  0
    2.3901    0.3187   -0.2049 O   0  0  0  0  0  0  0  0  0  0  0  0
    3.2240   -0.8317   -0.2726 C   0  0  0  0  0  0  0  0  0  0  0  0
    0.4165   -1.1065   -0.0978 C   0  0  0  0  0  0  0  0  0  0  0  0
   -0.9535   -1.1663   -0.0066 C   0  0  0  0  0  0  0  0  0  0  0  0
   -4.1047    4.5209    0.4998 H   0  0  0  0  0  0  0  0  0  0  0  0
    0.8744    2.2796   -0.0724 H   0  0  0  0  0  0  0  0  0  0  0  0
    4.2462   -0.4554   -0.3284 H   0  0  0  0  0  0  0  0  0  0  0  0
    3.0131   -1.4326   -1.1659 H   0  0  0  0  0  0  0  0  0  0  0  0
    3.1197   -1.4596    0.6208 H   0  0  0  0  0  0  0  0  0  0  0  0
    0.9958   -2.0196   -0.1518 H   0  0  0  0  0  0  0  0  0  0  0  0
   -1.4803   -2.1176    0.0128 H   0  0  0  0  0  0  0  0  0  0  0  0
   -6.0581    2.9760    0.2832 B   0  0  0  0  0  0  0  0  0  0  0  0
   -5.0844    2.6913   -0.5837 F   0  0  0  0  0  0  0  0  0  0  0  0
   -4.8914    4.6974    0.9652 F   0  0  0  0  0  0  0  0  0  0  0  0
   -7.1068    3.6678   -0.1248 F   0  0  0  0  0  0  0  0  0  0  0  0
   -6.0815    2.3505    1.4480 F   0  0  0  0  0  0  0  0  0  0  0  0
  1  2  1  0  0  0  0
  2  3  1  0  0  0  0
  4  1  1  0  0  0  0
  5  4  2  0  0  0  0
  6  9  2  0  0  0  0
  6  5  1  0  0  0  0
  7  6  1  0  0  0  0
  8  7  1  0  0  0  0
  8 15  1  0  0  0  0
  9 10  1  0  0  0  0
 10 17  1  0  0  0  0
 10  1  2  0  0  0  0
 11 20  1  0  0  0  0
 12  5  1  0  0  0  0
 13  8  1  0  0  0  0
 14  8  1  0  0  0  0
 16  9  1  0  0  0  0
 18 22  1  0  0  0  0
 19 18  1  0  0  0  0
 21 18  1  0  0  0  0
M  RAD  3   2   2   3   3   4   2
M  END
