Coordinates from ORCA-job 4-MeOPhN2+~BF4-_B3LYPG-6-31G_dp-CH-Scan-d09-49-n800
 OpenBabel11261919343D

 22 20  0  0  0  0  0  0  0  0999 V2000
   -1.7175    0.0432    0.0690 C   0  0  0  0  0  0  0  0  0  0  0  0
   -3.0881   -0.0534    0.1582 N   0  0  0  0  0  0  0  0  0  0  0  0
   -4.2076   -0.0712    0.2338 N   0  0  0  0  0  0  0  0  0  0  0  0
   -1.2368    1.3752    0.0802 C   0  0  0  0  0  0  0  0  0  0  0  0
    0.1678    1.3761   -0.0108 C   0  0  0  0  0  0  0  0  0  0  0  0
    0.9554    0.2177   -0.0974 C   0  0  0  0  0  0  0  0  0  0  0  0
    2.2946    0.4066   -0.1752 O   0  0  0  0  0  0  0  0  0  0  0  0
    3.1642   -0.7162   -0.2594 C   0  0  0  0  0  0  0  0  0  0  0  0
    0.3653   -1.0796   -0.1014 C   0  0  0  0  0  0  0  0  0  0  0  0
   -1.0026   -1.1819   -0.0165 C   0  0  0  0  0  0  0  0  0  0  0  0
   -3.7329    4.2355    0.4435 H   0  0  0  0  0  0  0  0  0  0  0  0
    0.7195    2.3172   -0.0159 H   0  0  0  0  0  0  0  0  0  0  0  0
    4.1743   -0.3073   -0.3036 H   0  0  0  0  0  0  0  0  0  0  0  0
    2.9756   -1.3071   -1.1641 H   0  0  0  0  0  0  0  0  0  0  0  0
    3.0757   -1.3626    0.6225 H   0  0  0  0  0  0  0  0  0  0  0  0
    0.9716   -1.9740   -0.1689 H   0  0  0  0  0  0  0  0  0  0  0  0
   -1.5002   -2.1489   -0.0159 H   0  0  0  0  0  0  0  0  0  0  0  0
   -5.9257    2.9850    0.2832 B   0  0  0  0  0  0  0  0  0  0  0  0
   -5.1024    2.5513   -0.6723 F   0  0  0  0  0  0  0  0  0  0  0  0
   -4.5255    4.5341    0.8308 F   0  0  0  0  0  0  0  0  0  0  0  0
   -6.9120    3.8068   -0.0308 F   0  0  0  0  0  0  0  0  0  0  0  0
   -5.9162    2.3731    1.4577 F   0  0  0  0  0  0  0  0  0  0  0  0
  1  4  1  0  0  0  0
  1  2  1  0  0  0  0
  2  3  1  0  0  0  0
  5  4  2  0  0  0  0
  6  5  1  0  0  0  0
  7  6  1  0  0  0  0
  8  7  1  0  0  0  0
  8 15  1  0  0  0  0
  9  6  2  0  0  0  0
  9 10  1  0  0  0  0
 10 17  1  0  0  0  0
 10  1  2  0  0  0  0
 11 20  1  0  0  0  0
 12  5  1  0  0  0  0
 13  8  1  0  0  0  0
 14  8  1  0  0  0  0
 16  9  1  0  0  0  0
 18 22  1  0  0  0  0
 19 18  1  0  0  0  0
 21 18  1  0  0  0  0
M  RAD  3   2   2   3   3   4   2
M  END
