Coordinates from ORCA-job 4-MeOPhN2+~BF4-_B3LYPG-6-31G_dp-CH-Scan-d09-49-n800
 OpenBabel11261919343D

 22 20  0  0  0  0  0  0  0  0999 V2000
   -1.7446    0.0355    0.0800 C   0  0  0  0  0  0  0  0  0  0  0  0
   -3.1137   -0.0740    0.1707 N   0  0  0  0  0  0  0  0  0  0  0  0
   -4.2328   -0.1031    0.2470 N   0  0  0  0  0  0  0  0  0  0  0  0
   -1.2735    1.3712    0.0964 C   0  0  0  0  0  0  0  0  0  0  0  0
    0.1304    1.3842    0.0027 C   0  0  0  0  0  0  0  0  0  0  0  0
    0.9273    0.2325   -0.0913 C   0  0  0  0  0  0  0  0  0  0  0  0
    2.2644    0.4328   -0.1713 O   0  0  0  0  0  0  0  0  0  0  0  0
    3.1432   -0.6822   -0.2637 C   0  0  0  0  0  0  0  0  0  0  0  0
    0.3476   -1.0693   -0.0998 C   0  0  0  0  0  0  0  0  0  0  0  0
   -1.0193   -1.1828   -0.0125 C   0  0  0  0  0  0  0  0  0  0  0  0
   -3.6342    4.1308    0.4475 H   0  0  0  0  0  0  0  0  0  0  0  0
    0.6743    2.3298    0.0009 H   0  0  0  0  0  0  0  0  0  0  0  0
    4.1496   -0.2647   -0.3089 H   0  0  0  0  0  0  0  0  0  0  0  0
    2.9567   -1.2700   -1.1709 H   0  0  0  0  0  0  0  0  0  0  0  0
    3.0627   -1.3337    0.6152 H   0  0  0  0  0  0  0  0  0  0  0  0
    0.9607   -1.9585   -0.1725 H   0  0  0  0  0  0  0  0  0  0  0  0
   -1.5089   -2.1538   -0.0152 H   0  0  0  0  0  0  0  0  0  0  0  0
   -5.8761    2.9857    0.2703 B   0  0  0  0  0  0  0  0  0  0  0  0
   -5.0795    2.5169   -0.6914 F   0  0  0  0  0  0  0  0  0  0  0  0
   -4.4218    4.4771    0.8052 F   0  0  0  0  0  0  0  0  0  0  0  0
   -6.8362    3.8402   -0.0381 F   0  0  0  0  0  0  0  0  0  0  0  0
   -5.8801    2.3752    1.4461 F   0  0  0  0  0  0  0  0  0  0  0  0
  1  4  1  0  0  0  0
  1  2  1  0  0  0  0
  2  3  1  0  0  0  0
  5  4  2  0  0  0  0
  6  5  1  0  0  0  0
  7  6  1  0  0  0  0
  8  7  1  0  0  0  0
  8 15  1  0  0  0  0
  9  6  2  0  0  0  0
  9 10  1  0  0  0  0
 10  1  2  0  0  0  0
 11 20  1  0  0  0  0
 12  5  1  0  0  0  0
 13  8  1  0  0  0  0
 14  8  1  0  0  0  0
 16  9  1  0  0  0  0
 17 10  1  0  0  0  0
 18 22  1  0  0  0  0
 19 18  1  0  0  0  0
 21 18  1  0  0  0  0
M  RAD  3   2   2   3   3   4   2
M  END
