Coordinates from ORCA-job 4-MeOPhN2+~BF4-_B3LYPG-6-31G_dp-CH-Scan-d09-49-n800
 OpenBabel11261919343D

 22 20  0  0  0  0  0  0  0  0999 V2000
   -1.7993    0.0437    0.0870 C   0  0  0  0  0  0  0  0  0  0  0  0
   -3.1672   -0.0847    0.1559 N   0  0  0  0  0  0  0  0  0  0  0  0
   -4.2861   -0.1385    0.2130 N   0  0  0  0  0  0  0  0  0  0  0  0
   -1.3330    1.3801    0.1501 C   0  0  0  0  0  0  0  0  0  0  0  0
    0.0701    1.4081    0.0719 C   0  0  0  0  0  0  0  0  0  0  0  0
    0.8766    0.2653   -0.0514 C   0  0  0  0  0  0  0  0  0  0  0  0
    2.2115    0.4783   -0.1136 O   0  0  0  0  0  0  0  0  0  0  0  0
    3.1003   -0.6261   -0.2389 C   0  0  0  0  0  0  0  0  0  0  0  0
    0.3058   -1.0387   -0.1061 C   0  0  0  0  0  0  0  0  0  0  0  0
   -1.0611   -1.1641   -0.0362 C   0  0  0  0  0  0  0  0  0  0  0  0
   -3.4051    3.8944    0.4036 H   0  0  0  0  0  0  0  0  0  0  0  0
    0.6056    2.3573    0.1057 H   0  0  0  0  0  0  0  0  0  0  0  0
    4.1032   -0.1987   -0.2651 H   0  0  0  0  0  0  0  0  0  0  0  0
    2.9227   -1.1841   -1.1664 H   0  0  0  0  0  0  0  0  0  0  0  0
    3.0208   -1.3071    0.6173 H   0  0  0  0  0  0  0  0  0  0  0  0
    0.9253   -1.9214   -0.2001 H   0  0  0  0  0  0  0  0  0  0  0  0
   -1.5430   -2.1380   -0.0741 H   0  0  0  0  0  0  0  0  0  0  0  0
   -5.7795    2.9671    0.2902 B   0  0  0  0  0  0  0  0  0  0  0  0
   -5.3297    2.4459   -0.8488 F   0  0  0  0  0  0  0  0  0  0  0  0
   -4.2078    4.3669    0.4621 F   0  0  0  0  0  0  0  0  0  0  0  0
   -6.7390    3.8772    0.2640 F   0  0  0  0  0  0  0  0  0  0  0  0
   -5.4949    2.3368    1.4264 F   0  0  0  0  0  0  0  0  0  0  0  0
  1  4  1  0  0  0  0
  1  2  1  0  0  0  0
  2  3  1  0  0  0  0
  5 12  1  0  0  0  0
  5  4  2  0  0  0  0
  6  5  1  0  0  0  0
  7  6  1  0  0  0  0
  8  7  1  0  0  0  0
  8 15  1  0  0  0  0
  9  6  2  0  0  0  0
  9 10  1  0  0  0  0
 10  1  2  0  0  0  0
 11 20  1  0  0  0  0
 13  8  1  0  0  0  0
 14  8  1  0  0  0  0
 16  9  1  0  0  0  0
 17 10  1  0  0  0  0
 18 22  1  0  0  0  0
 19 18  1  0  0  0  0
 21 18  1  0  0  0  0
M  RAD  3   2   2   3   3   4   2
M  END
