Coordinates from ORCA-job 4-MeOPhN2+~BF4-_B3LYPG-6-31G_dp-CH-Scan-d09-49-n800
 OpenBabel11261919343D

 22 20  0  0  0  0  0  0  0  0999 V2000
   -1.9246    0.0460    0.0888 C   0  0  0  0  0  0  0  0  0  0  0  0
   -3.2852   -0.1304    0.1575 N   0  0  0  0  0  0  0  0  0  0  0  0
   -4.3991   -0.2368    0.2182 N   0  0  0  0  0  0  0  0  0  0  0  0
   -1.4813    1.3912    0.1527 C   0  0  0  0  0  0  0  0  0  0  0  0
   -0.0834    1.4621    0.0781 C   0  0  0  0  0  0  0  0  0  0  0  0
    0.7538    0.3399   -0.0435 C   0  0  0  0  0  0  0  0  0  0  0  0
    2.0802    0.5895   -0.1008 O   0  0  0  0  0  0  0  0  0  0  0  0
    3.0005   -0.4906   -0.2229 C   0  0  0  0  0  0  0  0  0  0  0  0
    0.2157   -0.9761   -0.1009 C   0  0  0  0  0  0  0  0  0  0  0  0
   -1.1482   -1.1364   -0.0339 C   0  0  0  0  0  0  0  0  0  0  0  0
   -3.0890    3.3834    0.3444 H   0  0  0  0  0  0  0  0  0  0  0  0
    0.4232    2.4259    0.1138 H   0  0  0  0  0  0  0  0  0  0  0  0
    3.9907   -0.0350   -0.2441 H   0  0  0  0  0  0  0  0  0  0  0  0
    2.8415   -1.0515   -1.1517 H   0  0  0  0  0  0  0  0  0  0  0  0
    2.9351   -1.1732    0.6329 H   0  0  0  0  0  0  0  0  0  0  0  0
    0.8564   -1.8434   -0.1946 H   0  0  0  0  0  0  0  0  0  0  0  0
   -1.6032   -2.1226   -0.0741 H   0  0  0  0  0  0  0  0  0  0  0  0
   -5.4703    2.9685    0.2877 B   0  0  0  0  0  0  0  0  0  0  0  0
   -5.1909    2.3446   -0.8639 F   0  0  0  0  0  0  0  0  0  0  0  0
   -3.8110    3.9915    0.4090 F   0  0  0  0  0  0  0  0  0  0  0  0
   -6.2978    4.0072    0.2777 F   0  0  0  0  0  0  0  0  0  0  0  0
   -5.3167    2.2659    1.4161 F   0  0  0  0  0  0  0  0  0  0  0  0
  1  4  1  0  0  0  0
  1  2  1  0  0  0  0
  2  3  1  0  0  0  0
  5 12  1  0  0  0  0
  5  4  2  0  0  0  0
  6  5  1  0  0  0  0
  7  6  1  0  0  0  0
  8  7  1  0  0  0  0
  8 15  1  0  0  0  0
  9  6  2  0  0  0  0
  9 10  1  0  0  0  0
 10  1  2  0  0  0  0
 11 20  1  0  0  0  0
 13  8  1  0  0  0  0
 14  8  1  0  0  0  0
 16  9  1  0  0  0  0
 17 10  1  0  0  0  0
 18 22  1  0  0  0  0
 19 18  1  0  0  0  0
 21 18  1  0  0  0  0
M  RAD  3   2   2   3   3   4   2
M  END
