Coordinates from ORCA-job 4-MeOPhN2+~BF4-_B3LYPG-6-31G_dp-CH-Scan-d09-49-n800
 OpenBabel11261919343D

 22 20  0  0  0  0  0  0  0  0999 V2000
   -1.6441    0.0714    0.0601 C   0  0  0  0  0  0  0  0  0  0  0  0
   -3.0173    0.0137    0.1514 N   0  0  0  0  0  0  0  0  0  0  0  0
   -4.1370    0.0332    0.2269 N   0  0  0  0  0  0  0  0  0  0  0  0
   -1.1341    1.3918    0.0515 C   0  0  0  0  0  0  0  0  0  0  0  0
    0.2706    1.3578   -0.0426 C   0  0  0  0  0  0  0  0  0  0  0  0
    1.0299    0.1799   -0.1144 C   0  0  0  0  0  0  0  0  0  0  0  0
    2.3734    0.3351   -0.1988 O   0  0  0  0  0  0  0  0  0  0  0  0
    3.2151   -0.8095   -0.2695 C   0  0  0  0  0  0  0  0  0  0  0  0
    0.4093   -1.1035   -0.0978 C   0  0  0  0  0  0  0  0  0  0  0  0
   -0.9604   -1.1725   -0.0086 C   0  0  0  0  0  0  0  0  0  0  0  0
   -4.0320    4.4755    0.4887 H   0  0  0  0  0  0  0  0  0  0  0  0
    0.8446    2.2854   -0.0626 H   0  0  0  0  0  0  0  0  0  0  0  0
    4.2348   -0.4261   -0.3232 H   0  0  0  0  0  0  0  0  0  0  0  0
    3.0089   -1.4089   -1.1648 H   0  0  0  0  0  0  0  0  0  0  0  0
    3.1144   -1.4408    0.6219 H   0  0  0  0  0  0  0  0  0  0  0  0
    0.9946   -2.0127   -0.1534 H   0  0  0  0  0  0  0  0  0  0  0  0
   -1.4810   -2.1273    0.0075 H   0  0  0  0  0  0  0  0  0  0  0  0
   -6.0402    2.9814    0.2853 B   0  0  0  0  0  0  0  0  0  0  0  0
   -5.0964    2.6623   -0.6019 F   0  0  0  0  0  0  0  0  0  0  0  0
   -4.8230    4.6707    0.9392 F   0  0  0  0  0  0  0  0  0  0  0  0
   -7.0774    3.7024   -0.1018 F   0  0  0  0  0  0  0  0  0  0  0  0
   -6.0565    2.3604    1.4532 F   0  0  0  0  0  0  0  0  0  0  0  0
  1  2  1  0  0  0  0
  2  3  1  0  0  0  0
  4  1  1  0  0  0  0
  5  4  2  0  0  0  0
  6  9  2  0  0  0  0
  6  5  1  0  0  0  0
  7  6  1  0  0  0  0
  8  7  1  0  0  0  0
  8 15  1  0  0  0  0
  9 10  1  0  0  0  0
 10 17  1  0  0  0  0
 10  1  2  0  0  0  0
 11 20  1  0  0  0  0
 12  5  1  0  0  0  0
 13  8  1  0  0  0  0
 14  8  1  0  0  0  0
 16  9  1  0  0  0  0
 18 22  1  0  0  0  0
 19 18  1  0  0  0  0
 21 18  1  0  0  0  0
M  RAD  3   2   2   3   3   4   2
M  END
