Coordinates from ORCA-job 4-MeOPhN2+~BF4-_B3LYPG-6-31G_dp-CH-Scan-d09-49-n800
 OpenBabel11261919343D

 22 20  0  0  0  0  0  0  0  0999 V2000
   -1.8848    0.0440    0.0743 C   0  0  0  0  0  0  0  0  0  0  0  0
   -3.2483   -0.1160    0.1366 N   0  0  0  0  0  0  0  0  0  0  0  0
   -4.3645   -0.2027    0.1917 N   0  0  0  0  0  0  0  0  0  0  0  0
   -1.4355    1.3871    0.1353 C   0  0  0  0  0  0  0  0  0  0  0  0
   -0.0354    1.4448    0.0664 C   0  0  0  0  0  0  0  0  0  0  0  0
    0.7932    0.3158   -0.0476 C   0  0  0  0  0  0  0  0  0  0  0  0
    2.1227    0.5542   -0.1007 O   0  0  0  0  0  0  0  0  0  0  0  0
    3.0341   -0.5337   -0.2155 C   0  0  0  0  0  0  0  0  0  0  0  0
    0.2456   -0.9970   -0.1020 C   0  0  0  0  0  0  0  0  0  0  0  0
   -1.1195   -1.1469   -0.0405 C   0  0  0  0  0  0  0  0  0  0  0  0
   -3.1813    3.5442    0.3371 H   0  0  0  0  0  0  0  0  0  0  0  0
    0.4800    2.4043    0.1005 H   0  0  0  0  0  0  0  0  0  0  0  0
    4.0283   -0.0866   -0.2352 H   0  0  0  0  0  0  0  0  0  0  0  0
    2.8738   -1.0972   -1.1425 H   0  0  0  0  0  0  0  0  0  0  0  0
    2.9605   -1.2128    0.6426 H   0  0  0  0  0  0  0  0  0  0  0  0
    0.8807   -1.8692   -0.1895 H   0  0  0  0  0  0  0  0  0  0  0  0
   -1.5824   -2.1296   -0.0787 H   0  0  0  0  0  0  0  0  0  0  0  0
   -5.5797    2.9678    0.3092 B   0  0  0  0  0  0  0  0  0  0  0  0
   -5.2752    2.3747   -0.8482 F   0  0  0  0  0  0  0  0  0  0  0  0
   -3.9255    4.1151    0.3988 F   0  0  0  0  0  0  0  0  0  0  0  0
   -6.4464    3.9708    0.3204 F   0  0  0  0  0  0  0  0  0  0  0  0
   -5.3443    2.2885    1.4339 F   0  0  0  0  0  0  0  0  0  0  0  0
  1  4  1  0  0  0  0
  1  2  1  0  0  0  0
  2  3  1  0  0  0  0
  5 12  1  0  0  0  0
  5  4  2  0  0  0  0
  6  5  1  0  0  0  0
  7  6  1  0  0  0  0
  8  7  1  0  0  0  0
  8 15  1  0  0  0  0
  9  6  2  0  0  0  0
  9 10  1  0  0  0  0
 10  1  2  0  0  0  0
 11 20  1  0  0  0  0
 13  8  1  0  0  0  0
 14  8  1  0  0  0  0
 16  9  1  0  0  0  0
 17 10  1  0  0  0  0
 18 21  1  0  0  0  0
 18 22  1  0  0  0  0
 19 18  1  0  0  0  0
M  RAD  3   2   2   3   3   4   2
M  END
