Coordinates from ORCA-job 4-MeOPhN2+~BF4-_B3LYPG-6-31G_dp-CH-Scan-d09-49-n800
 OpenBabel11261919343D

 22 20  0  0  0  0  0  0  0  0999 V2000
   -1.7250    0.0408    0.0722 C   0  0  0  0  0  0  0  0  0  0  0  0
   -3.0952   -0.0594    0.1618 N   0  0  0  0  0  0  0  0  0  0  0  0
   -4.2145   -0.0805    0.2386 N   0  0  0  0  0  0  0  0  0  0  0  0
   -1.2469    1.3739    0.0856 C   0  0  0  0  0  0  0  0  0  0  0  0
    0.1575    1.3782   -0.0062 C   0  0  0  0  0  0  0  0  0  0  0  0
    0.9477    0.2217   -0.0954 C   0  0  0  0  0  0  0  0  0  0  0  0
    2.2863    0.4138   -0.1736 O   0  0  0  0  0  0  0  0  0  0  0  0
    3.1585   -0.7068   -0.2606 C   0  0  0  0  0  0  0  0  0  0  0  0
    0.3605   -1.0769   -0.1014 C   0  0  0  0  0  0  0  0  0  0  0  0
   -1.0071   -1.1823   -0.0160 C   0  0  0  0  0  0  0  0  0  0  0  0
   -3.7049    4.2081    0.4433 H   0  0  0  0  0  0  0  0  0  0  0  0
    0.7070    2.3205   -0.0098 H   0  0  0  0  0  0  0  0  0  0  0  0
    4.1676   -0.2955   -0.3048 H   0  0  0  0  0  0  0  0  0  0  0  0
    2.9706   -1.2963   -1.1664 H   0  0  0  0  0  0  0  0  0  0  0  0
    3.0721   -1.3551    0.6200 H   0  0  0  0  0  0  0  0  0  0  0  0
    0.9687   -1.9698   -0.1708 H   0  0  0  0  0  0  0  0  0  0  0  0
   -1.5025   -2.1504   -0.0168 H   0  0  0  0  0  0  0  0  0  0  0  0
   -5.9124    2.9851    0.2798 B   0  0  0  0  0  0  0  0  0  0  0  0
   -5.0972    2.5407   -0.6778 F   0  0  0  0  0  0  0  0  0  0  0  0
   -4.4971    4.5193    0.8218 F   0  0  0  0  0  0  0  0  0  0  0  0
   -6.8917    3.8160   -0.0323 F   0  0  0  0  0  0  0  0  0  0  0  0
   -5.9057    2.3745    1.4552 F   0  0  0  0  0  0  0  0  0  0  0  0
  1  4  1  0  0  0  0
  1  2  1  0  0  0  0
  2  3  1  0  0  0  0
  5  4  2  0  0  0  0
  6  5  1  0  0  0  0
  7  6  1  0  0  0  0
  8  7  1  0  0  0  0
  8 15  1  0  0  0  0
  9  6  2  0  0  0  0
  9 10  1  0  0  0  0
 10  1  2  0  0  0  0
 11 20  1  0  0  0  0
 12  5  1  0  0  0  0
 13  8  1  0  0  0  0
 14  8  1  0  0  0  0
 16  9  1  0  0  0  0
 17 10  1  0  0  0  0
 18 22  1  0  0  0  0
 19 18  1  0  0  0  0
 21 18  1  0  0  0  0
M  RAD  3   2   2   3   3   4   2
M  END
