Coordinates from ORCA-job 4-MeOPhN2+~BF4-_B3LYPG-6-31G_dp-CH-Scan-d09-49-n800
 OpenBabel11261919343D

 22 21  0  0  0  0  0  0  0  0999 V2000
   -2.1474    0.1666    0.3323 C   0  0  0  0  0  0  0  0  0  0  0  0
   -3.4941   -0.0312    0.5028 N   0  0  0  0  0  0  0  0  0  0  0  0
   -4.5832   -0.2090    0.6744 N   0  0  0  0  0  0  0  0  0  0  0  0
   -1.6107    1.4642    0.4830 C   0  0  0  0  0  0  0  0  0  0  0  0
   -0.2477    1.6007    0.3293 C   0  0  0  0  0  0  0  0  0  0  0  0
    0.5668    0.4891    0.0228 C   0  0  0  0  0  0  0  0  0  0  0  0
    1.8746    0.7511   -0.1102 O   0  0  0  0  0  0  0  0  0  0  0  0
    2.7823   -0.3068   -0.4280 C   0  0  0  0  0  0  0  0  0  0  0  0
    0.0010   -0.7980   -0.1237 C   0  0  0  0  0  0  0  0  0  0  0  0
   -1.3615   -0.9635    0.0356 C   0  0  0  0  0  0  0  0  0  0  0  0
   -2.3761    2.4104    0.7228 H   0  0  0  0  0  0  0  0  0  0  0  0
    0.2271    2.5702    0.4311 H   0  0  0  0  0  0  0  0  0  0  0  0
    3.7662    0.1578   -0.4785 H   0  0  0  0  0  0  0  0  0  0  0  0
    2.5407   -0.7564   -1.3971 H   0  0  0  0  0  0  0  0  0  0  0  0
    2.7806   -1.0766    0.3519 H   0  0  0  0  0  0  0  0  0  0  0  0
    0.6158   -1.6567   -0.3592 H   0  0  0  0  0  0  0  0  0  0  0  0
   -1.8200   -1.9407   -0.0718 H   0  0  0  0  0  0  0  0  0  0  0  0
   -4.7332    2.8514    0.0267 B   0  0  0  0  0  0  0  0  0  0  0  0
   -4.0390    2.0627   -0.9277 F   0  0  0  0  0  0  0  0  0  0  0  0
   -3.7394    3.3992    0.9098 F   0  0  0  0  0  0  0  0  0  0  0  0
   -5.4556    3.8498   -0.5695 F   0  0  0  0  0  0  0  0  0  0  0  0
   -5.5510    1.9855    0.7898 F   0  0  0  0  0  0  0  0  0  0  0  0
  1  4  1  0  0  0  0
  1  2  1  0  0  0  0
  2  3  1  0  0  0  0
  4 11  1  0  0  0  0
  5 12  1  0  0  0  0
  5  4  2  0  0  0  0
  6  5  1  0  0  0  0
  7  6  1  0  0  0  0
  8  7  1  0  0  0  0
  8 15  1  0  0  0  0
  9  6  2  0  0  0  0
  9 10  1  0  0  0  0
 10  1  2  0  0  0  0
 13  8  1  0  0  0  0
 14  8  1  0  0  0  0
 16  9  1  0  0  0  0
 17 10  1  0  0  0  0
 18 22  1  0  0  0  0
 18 20  1  0  0  0  0
 19 18  1  0  0  0  0
 21 18  1  0  0  0  0
M  RAD  2   2   2   3   3
M  END
