Coordinates from ORCA-job 4-MeOPhN2+~BF4-_B3LYPG-6-31G_dp-CH-Scan-d09-49-n800
 OpenBabel11261919343D

 22 20  0  0  0  0  0  0  0  0999 V2000
   -1.8288    0.0410    0.0800 C   0  0  0  0  0  0  0  0  0  0  0  0
   -3.1953   -0.0993    0.1442 N   0  0  0  0  0  0  0  0  0  0  0  0
   -4.3134   -0.1658    0.1986 N   0  0  0  0  0  0  0  0  0  0  0  0
   -1.3697    1.3802    0.1430 C   0  0  0  0  0  0  0  0  0  0  0  0
    0.0325    1.4195    0.0696 C   0  0  0  0  0  0  0  0  0  0  0  0
    0.8477    0.2821   -0.0495 C   0  0  0  0  0  0  0  0  0  0  0  0
    2.1808    0.5051   -0.1073 O   0  0  0  0  0  0  0  0  0  0  0  0
    3.0785   -0.5928   -0.2284 C   0  0  0  0  0  0  0  0  0  0  0  0
    0.2862   -1.0256   -0.1044 C   0  0  0  0  0  0  0  0  0  0  0  0
   -1.0801   -1.1606   -0.0390 C   0  0  0  0  0  0  0  0  0  0  0  0
   -3.3211    3.7746    0.3764 H   0  0  0  0  0  0  0  0  0  0  0  0
    0.5604    2.3727    0.1039 H   0  0  0  0  0  0  0  0  0  0  0  0
    4.0781   -0.1577   -0.2519 H   0  0  0  0  0  0  0  0  0  0  0  0
    2.9080   -1.1531   -1.1556 H   0  0  0  0  0  0  0  0  0  0  0  0
    3.0014   -1.2731    0.6286 H   0  0  0  0  0  0  0  0  0  0  0  0
    0.9120   -1.9041   -0.1950 H   0  0  0  0  0  0  0  0  0  0  0  0
   -1.5546   -2.1380   -0.0772 H   0  0  0  0  0  0  0  0  0  0  0  0
   -5.7169    2.9698    0.3014 B   0  0  0  0  0  0  0  0  0  0  0  0
   -5.3290    2.4217   -0.8490 F   0  0  0  0  0  0  0  0  0  0  0  0
   -4.1035    4.2837    0.4287 F   0  0  0  0  0  0  0  0  0  0  0  0
   -6.6410    3.9172    0.2991 F   0  0  0  0  0  0  0  0  0  0  0  0
   -5.4360    2.3223    1.4304 F   0  0  0  0  0  0  0  0  0  0  0  0
  1  4  1  0  0  0  0
  1  2  1  0  0  0  0
  2  3  1  0  0  0  0
  5 12  1  0  0  0  0
  5  4  2  0  0  0  0
  6  5  1  0  0  0  0
  7  6  1  0  0  0  0
  8  7  1  0  0  0  0
  8 15  1  0  0  0  0
  9  6  2  0  0  0  0
  9 10  1  0  0  0  0
 10  1  2  0  0  0  0
 11 20  1  0  0  0  0
 13  8  1  0  0  0  0
 14  8  1  0  0  0  0
 16  9  1  0  0  0  0
 17 10  1  0  0  0  0
 18 22  1  0  0  0  0
 19 18  1  0  0  0  0
 21 18  1  0  0  0  0
M  RAD  3   2   2   3   3   4   2
M  END
