Coordinates from ORCA-job 4-MeOPhN2+~BF4-_B3LYPG-6-31G_dp-CH-Scan-d09-49-n800
 OpenBabel11261919343D

 22 20  0  0  0  0  0  0  0  0999 V2000
   -1.7592    0.0343    0.0323 C   0  0  0  0  0  0  0  0  0  0  0  0
   -3.1290   -0.0809    0.0983 N   0  0  0  0  0  0  0  0  0  0  0  0
   -4.2491   -0.1169    0.1528 N   0  0  0  0  0  0  0  0  0  0  0  0
   -1.2919    1.3716    0.0458 C   0  0  0  0  0  0  0  0  0  0  0  0
    0.1131    1.3894   -0.0230 C   0  0  0  0  0  0  0  0  0  0  0  0
    0.9157    0.2398   -0.0927 C   0  0  0  0  0  0  0  0  0  0  0  0
    2.2529    0.4444   -0.1506 O   0  0  0  0  0  0  0  0  0  0  0  0
    3.1374   -0.6682   -0.2176 C   0  0  0  0  0  0  0  0  0  0  0  0
    0.3405   -1.0639   -0.1002 C   0  0  0  0  0  0  0  0  0  0  0  0
   -1.0273   -1.1816   -0.0366 C   0  0  0  0  0  0  0  0  0  0  0  0
   -3.5632    4.0704    0.3812 H   0  0  0  0  0  0  0  0  0  0  0  0
    0.6533    2.3369   -0.0232 H   0  0  0  0  0  0  0  0  0  0  0  0
    4.1428   -0.2471   -0.2496 H   0  0  0  0  0  0  0  0  0  0  0  0
    2.9683   -1.2649   -1.1223 H   0  0  0  0  0  0  0  0  0  0  0  0
    3.0442   -1.3116    0.6659 H   0  0  0  0  0  0  0  0  0  0  0  0
    0.9578   -1.9516   -0.1541 H   0  0  0  0  0  0  0  0  0  0  0  0
   -1.5133   -2.1544   -0.0397 H   0  0  0  0  0  0  0  0  0  0  0  0
   -5.8649    2.9866    0.3371 B   0  0  0  0  0  0  0  0  0  0  0  0
   -5.2050    2.4931   -0.7107 F   0  0  0  0  0  0  0  0  0  0  0  0
   -4.3493    4.4562    0.7002 F   0  0  0  0  0  0  0  0  0  0  0  0
   -6.8384    3.8600    0.1442 F   0  0  0  0  0  0  0  0  0  0  0  0
   -5.7393    2.3785    1.5088 F   0  0  0  0  0  0  0  0  0  0  0  0
  1  4  1  0  0  0  0
  1  2  1  0  0  0  0
  2  3  1  0  0  0  0
  5  4  2  0  0  0  0
  6  5  1  0  0  0  0
  7  6  1  0  0  0  0
  8  7  1  0  0  0  0
  8 15  1  0  0  0  0
  9  6  2  0  0  0  0
  9 10  1  0  0  0  0
 10  1  2  0  0  0  0
 11 20  1  0  0  0  0
 12  5  1  0  0  0  0
 13  8  1  0  0  0  0
 14  8  1  0  0  0  0
 16  9  1  0  0  0  0
 17 10  1  0  0  0  0
 18 22  1  0  0  0  0
 19 18  1  0  0  0  0
 21 18  1  0  0  0  0
M  RAD  3   2   2   3   3   4   2
M  END
