Coordinates from ORCA-job 4-MeOPhN2+~BF4-_B3LYPG-6-31G_dp-CH-Scan-d09-49-n800
 OpenBabel11261919343D

 22 20  0  0  0  0  0  0  0  0999 V2000
   -1.7081    0.0466    0.0650 C   0  0  0  0  0  0  0  0  0  0  0  0
   -3.0792   -0.0459    0.1532 N   0  0  0  0  0  0  0  0  0  0  0  0
   -4.1987   -0.0605    0.2293 N   0  0  0  0  0  0  0  0  0  0  0  0
   -1.2236    1.3771    0.0745 C   0  0  0  0  0  0  0  0  0  0  0  0
    0.1811    1.3737   -0.0154 C   0  0  0  0  0  0  0  0  0  0  0  0
    0.9653    0.2128   -0.0995 C   0  0  0  0  0  0  0  0  0  0  0  0
    2.3052    0.3974   -0.1763 O   0  0  0  0  0  0  0  0  0  0  0  0
    3.1714   -0.7281   -0.2577 C   0  0  0  0  0  0  0  0  0  0  0  0
    0.3713   -1.0828   -0.1019 C   0  0  0  0  0  0  0  0  0  0  0  0
   -0.9969   -1.1809   -0.0181 C   0  0  0  0  0  0  0  0  0  0  0  0
   -3.7681    4.2682    0.4407 H   0  0  0  0  0  0  0  0  0  0  0  0
    0.7356    2.3131   -0.0216 H   0  0  0  0  0  0  0  0  0  0  0  0
    4.1828   -0.3225   -0.3016 H   0  0  0  0  0  0  0  0  0  0  0  0
    2.9820   -1.3200   -1.1616 H   0  0  0  0  0  0  0  0  0  0  0  0
    3.0801   -1.3728    0.6252 H   0  0  0  0  0  0  0  0  0  0  0  0
    0.9750   -1.9791   -0.1675 H   0  0  0  0  0  0  0  0  0  0  0  0
   -1.4974   -2.1465   -0.0164 H   0  0  0  0  0  0  0  0  0  0  0  0
   -5.9430    2.9853    0.2882 B   0  0  0  0  0  0  0  0  0  0  0  0
   -5.1120    2.5636   -0.6661 F   0  0  0  0  0  0  0  0  0  0  0  0
   -4.5604    4.5524    0.8390 F   0  0  0  0  0  0  0  0  0  0  0  0
   -6.9381    3.7960   -0.0269 F   0  0  0  0  0  0  0  0  0  0  0  0
   -5.9282    2.3728    1.4621 F   0  0  0  0  0  0  0  0  0  0  0  0
  1  4  1  0  0  0  0
  1  2  1  0  0  0  0
  2  3  1  0  0  0  0
  5  4  2  0  0  0  0
  6  5  1  0  0  0  0
  7  6  1  0  0  0  0
  8  7  1  0  0  0  0
  8 15  1  0  0  0  0
  9  6  2  0  0  0  0
  9 10  1  0  0  0  0
 10 17  1  0  0  0  0
 10  1  2  0  0  0  0
 11 20  1  0  0  0  0
 12  5  1  0  0  0  0
 13  8  1  0  0  0  0
 14  8  1  0  0  0  0
 16  9  1  0  0  0  0
 18 22  1  0  0  0  0
 19 18  1  0  0  0  0
 21 18  1  0  0  0  0
M  RAD  3   2   2   3   3   4   2
M  END
