Coordinates from ORCA-job 4-MeOPhN2+~BF4-_B3LYPG-6-31G_dp-CH-Scan-d09-49-n800
 OpenBabel11261919343D

 22 20  0  0  0  0  0  0  0  0999 V2000
   -1.6244    0.0845    0.0584 C   0  0  0  0  0  0  0  0  0  0  0  0
   -2.9981    0.0386    0.1526 N   0  0  0  0  0  0  0  0  0  0  0  0
   -4.1175    0.0674    0.2302 N   0  0  0  0  0  0  0  0  0  0  0  0
   -1.1040    1.4007    0.0446 C   0  0  0  0  0  0  0  0  0  0  0  0
    0.3004    1.3550   -0.0510 C   0  0  0  0  0  0  0  0  0  0  0  0
    1.0499    0.1707   -0.1195 C   0  0  0  0  0  0  0  0  0  0  0  0
    2.3947    0.3145   -0.2056 O   0  0  0  0  0  0  0  0  0  0  0  0
    3.2268   -0.8372   -0.2720 C   0  0  0  0  0  0  0  0  0  0  0  0
    0.4188   -1.1076   -0.0980 C   0  0  0  0  0  0  0  0  0  0  0  0
   -0.9513   -1.1652   -0.0071 C   0  0  0  0  0  0  0  0  0  0  0  0
   -4.1220    4.5342    0.5000 H   0  0  0  0  0  0  0  0  0  0  0  0
    0.8818    2.2778   -0.0750 H   0  0  0  0  0  0  0  0  0  0  0  0
    4.2496   -0.4625   -0.3277 H   0  0  0  0  0  0  0  0  0  0  0  0
    3.0153   -1.4385   -1.1649 H   0  0  0  0  0  0  0  0  0  0  0  0
    3.1212   -1.4642    0.6219 H   0  0  0  0  0  0  0  0  0  0  0  0
    0.9968   -2.0216   -0.1512 H   0  0  0  0  0  0  0  0  0  0  0  0
   -1.4795   -2.1157    0.0128 H   0  0  0  0  0  0  0  0  0  0  0  0
   -6.0644    2.9758    0.2848 B   0  0  0  0  0  0  0  0  0  0  0  0
   -5.0882    2.6977   -0.5814 F   0  0  0  0  0  0  0  0  0  0  0  0
   -4.9081    4.7040    0.9690 F   0  0  0  0  0  0  0  0  0  0  0  0
   -7.1166    3.6622   -0.1235 F   0  0  0  0  0  0  0  0  0  0  0  0
   -6.0852    2.3492    1.4490 F   0  0  0  0  0  0  0  0  0  0  0  0
  1  2  1  0  0  0  0
  2  3  1  0  0  0  0
  4  1  1  0  0  0  0
  5  4  2  0  0  0  0
  6  9  2  0  0  0  0
  6  5  1  0  0  0  0
  7  6  1  0  0  0  0
  8  7  1  0  0  0  0
  8 15  1  0  0  0  0
  9 10  1  0  0  0  0
 10 17  1  0  0  0  0
 10  1  2  0  0  0  0
 11 20  1  0  0  0  0
 12  5  1  0  0  0  0
 13  8  1  0  0  0  0
 14  8  1  0  0  0  0
 16  9  1  0  0  0  0
 18 22  1  0  0  0  0
 19 18  1  0  0  0  0
 21 18  1  0  0  0  0
M  RAD  3   2   2   3   3   4   2
M  END
