Coordinates from ORCA-job 4-MeOPhN2+~BF4-_B3LYPG-6-31G_dp-CH-Scan-d09-49-n800
 OpenBabel11261919343D

 22 20  0  0  0  0  0  0  0  0999 V2000
   -1.5917    0.1144   -0.0515 C   0  0  0  0  0  0  0  0  0  0  0  0
   -2.9685    0.0964   -0.0018 N   0  0  0  0  0  0  0  0  0  0  0  0
   -4.0892    0.1503    0.0369 N   0  0  0  0  0  0  0  0  0  0  0  0
   -1.0494    1.4204   -0.1024 C   0  0  0  0  0  0  0  0  0  0  0  0
    0.3564    1.3492   -0.1500 C   0  0  0  0  0  0  0  0  0  0  0  0
    1.0872    0.1515   -0.1451 C   0  0  0  0  0  0  0  0  0  0  0  0
    2.4366    0.2702   -0.1935 O   0  0  0  0  0  0  0  0  0  0  0  0
    3.2502   -0.8966   -0.1887 C   0  0  0  0  0  0  0  0  0  0  0  0
    0.4342   -1.1151   -0.0915 C   0  0  0  0  0  0  0  0  0  0  0  0
   -0.9389   -1.1477   -0.0433 C   0  0  0  0  0  0  0  0  0  0  0  0
   -4.3196    4.6815    0.4369 H   0  0  0  0  0  0  0  0  0  0  0  0
    0.9538    2.2611   -0.1932 H   0  0  0  0  0  0  0  0  0  0  0  0
    4.2806   -0.5410   -0.2292 H   0  0  0  0  0  0  0  0  0  0  0  0
    3.0537   -1.5302   -1.0623 H   0  0  0  0  0  0  0  0  0  0  0  0
    3.1082   -1.4848    0.7264 H   0  0  0  0  0  0  0  0  0  0  0  0
    0.9985   -2.0392   -0.0881 H   0  0  0  0  0  0  0  0  0  0  0  0
   -1.4835   -2.0882   -0.0011 H   0  0  0  0  0  0  0  0  0  0  0  0
   -6.0998    2.9520    0.3949 B   0  0  0  0  0  0  0  0  0  0  0  0
   -5.1930    2.8070   -0.5738 F   0  0  0  0  0  0  0  0  0  0  0  0
   -5.0421    4.7773    1.0160 F   0  0  0  0  0  0  0  0  0  0  0  0
   -7.2527    3.5347    0.1203 F   0  0  0  0  0  0  0  0  0  0  0  0
   -5.9347    2.2964    1.5308 F   0  0  0  0  0  0  0  0  0  0  0  0
  1 10  1  0  0  0  0
  1  2  1  0  0  0  0
  2  3  1  0  0  0  0
  4  1  2  0  0  0  0
  5  6  2  0  0  0  0
  5  4  1  0  0  0  0
  6  9  1  0  0  0  0
  7  8  1  0  0  0  0
  7  6  1  0  0  0  0
  8 15  1  0  0  0  0
  9 16  1  0  0  0  0
  9 10  2  0  0  0  0
 10 17  1  0  0  0  0
 11 20  1  0  0  0  0
 12  5  1  0  0  0  0
 13  8  1  0  0  0  0
 14  8  1  0  0  0  0
 18 22  1  0  0  0  0
 19 18  1  0  0  0  0
 21 18  1  0  0  0  0
M  RAD  3   2   2   3   3   4   2
M  END
