Coordinates from ORCA-job 4-MeOPhN2+~BF4-_B3LYPG-6-31G_dp-CH-Scan-d09-49-n800
 OpenBabel11261919343D

 22 20  0  0  0  0  0  0  0  0999 V2000
   -2.0285    0.0586    0.0796 C   0  0  0  0  0  0  0  0  0  0  0  0
   -3.3839   -0.1521    0.1383 N   0  0  0  0  0  0  0  0  0  0  0  0
   -4.4927   -0.2956    0.1883 N   0  0  0  0  0  0  0  0  0  0  0  0
   -1.5959    1.4080    0.1325 C   0  0  0  0  0  0  0  0  0  0  0  0
   -0.2035    1.5094    0.0659 C   0  0  0  0  0  0  0  0  0  0  0  0
    0.6548    0.4001   -0.0404 C   0  0  0  0  0  0  0  0  0  0  0  0
    1.9739    0.6749   -0.0933 O   0  0  0  0  0  0  0  0  0  0  0  0
    2.9167   -0.3886   -0.2012 C   0  0  0  0  0  0  0  0  0  0  0  0
    0.1380   -0.9227   -0.0867 C   0  0  0  0  0  0  0  0  0  0  0  0
   -1.2242   -1.1047   -0.0262 C   0  0  0  0  0  0  0  0  0  0  0  0
   -2.8755    2.9920    0.2770 H   0  0  0  0  0  0  0  0  0  0  0  0
    0.2805    2.4837    0.0955 H   0  0  0  0  0  0  0  0  0  0  0  0
    3.8971    0.0870   -0.2240 H   0  0  0  0  0  0  0  0  0  0  0  0
    2.7707   -0.9612   -1.1246 H   0  0  0  0  0  0  0  0  0  0  0  0
    2.8610   -1.0623    0.6622 H   0  0  0  0  0  0  0  0  0  0  0  0
    0.7920   -1.7812   -0.1672 H   0  0  0  0  0  0  0  0  0  0  0  0
   -1.6610   -2.0989   -0.0587 H   0  0  0  0  0  0  0  0  0  0  0  0
   -5.1602    2.9556    0.3011 B   0  0  0  0  0  0  0  0  0  0  0  0
   -5.0805    2.2851   -0.8716 F   0  0  0  0  0  0  0  0  0  0  0  0
   -3.5566    3.6980    0.3451 F   0  0  0  0  0  0  0  0  0  0  0  0
   -5.9272    4.0511    0.3441 F   0  0  0  0  0  0  0  0  0  0  0  0
   -5.0988    2.1834    1.4107 F   0  0  0  0  0  0  0  0  0  0  0  0
  1  4  1  0  0  0  0
  1  2  1  0  0  0  0
  2  3  1  0  0  0  0
  5 12  1  0  0  0  0
  5  4  2  0  0  0  0
  6  5  1  0  0  0  0
  7  6  1  0  0  0  0
  8  7  1  0  0  0  0
  8 15  1  0  0  0  0
  9  6  2  0  0  0  0
  9 10  1  0  0  0  0
 10  1  2  0  0  0  0
 11 20  1  0  0  0  0
 13  8  1  0  0  0  0
 14  8  1  0  0  0  0
 16  9  1  0  0  0  0
 17 10  1  0  0  0  0
 18 21  1  0  0  0  0
 18 22  1  0  0  0  0
 19 18  1  0  0  0  0
M  RAD  3   2   2   3   3   4   2
M  END
