Coordinates from ORCA-job 4-MeOPhN2+~BF4-_B3LYPG-6-31G_dp-CH-Scan-d09-49-n800
 OpenBabel11261919343D

 22 20  0  0  0  0  0  0  0  0999 V2000
   -1.7644    0.0350    0.0347 C   0  0  0  0  0  0  0  0  0  0  0  0
   -3.1339   -0.0824    0.1028 N   0  0  0  0  0  0  0  0  0  0  0  0
   -4.2541   -0.1232    0.1502 N   0  0  0  0  0  0  0  0  0  0  0  0
   -1.2979    1.3726    0.0474 C   0  0  0  0  0  0  0  0  0  0  0  0
    0.1068    1.3920   -0.0222 C   0  0  0  0  0  0  0  0  0  0  0  0
    0.9105    0.2432   -0.0923 C   0  0  0  0  0  0  0  0  0  0  0  0
    2.2474    0.4492   -0.1510 O   0  0  0  0  0  0  0  0  0  0  0  0
    3.1331   -0.6625   -0.2183 C   0  0  0  0  0  0  0  0  0  0  0  0
    0.3366   -1.0610   -0.0995 C   0  0  0  0  0  0  0  0  0  0  0  0
   -1.0311   -1.1800   -0.0350 C   0  0  0  0  0  0  0  0  0  0  0  0
   -3.5439    4.0457    0.3910 H   0  0  0  0  0  0  0  0  0  0  0  0
    0.6460    2.3401   -0.0227 H   0  0  0  0  0  0  0  0  0  0  0  0
    4.1380   -0.2403   -0.2507 H   0  0  0  0  0  0  0  0  0  0  0  0
    2.9642   -1.2593   -1.1229 H   0  0  0  0  0  0  0  0  0  0  0  0
    3.0409   -1.3059    0.6653 H   0  0  0  0  0  0  0  0  0  0  0  0
    0.9546   -1.9482   -0.1538 H   0  0  0  0  0  0  0  0  0  0  0  0
   -1.5160   -2.1533   -0.0376 H   0  0  0  0  0  0  0  0  0  0  0  0
   -5.8545    2.9862    0.3338 B   0  0  0  0  0  0  0  0  0  0  0  0
   -5.2013    2.4856   -0.7148 F   0  0  0  0  0  0  0  0  0  0  0  0
   -4.3307    4.4428    0.6945 F   0  0  0  0  0  0  0  0  0  0  0  0
   -6.8223    3.8662    0.1420 F   0  0  0  0  0  0  0  0  0  0  0  0
   -5.7319    2.3773    1.5055 F   0  0  0  0  0  0  0  0  0  0  0  0
  1  4  1  0  0  0  0
  1  2  1  0  0  0  0
  2  3  1  0  0  0  0
  5  4  2  0  0  0  0
  6  5  1  0  0  0  0
  7  6  1  0  0  0  0
  8  7  1  0  0  0  0
  8 15  1  0  0  0  0
  9  6  2  0  0  0  0
  9 10  1  0  0  0  0
 10  1  2  0  0  0  0
 11 20  1  0  0  0  0
 12  5  1  0  0  0  0
 13  8  1  0  0  0  0
 14  8  1  0  0  0  0
 16  9  1  0  0  0  0
 17 10  1  0  0  0  0
 18 22  1  0  0  0  0
 19 18  1  0  0  0  0
 21 18  1  0  0  0  0
M  RAD  3   2   2   3   3   4   2
M  END
