Coordinates from ORCA-job 4-MeOPhN2+~BF4-_B3LYPG-6-31G_dp-CH-Scan-d09-49-n800
 OpenBabel11261919343D

 22 20  0  0  0  0  0  0  0  0999 V2000
   -1.6564    0.0659    0.0582 C   0  0  0  0  0  0  0  0  0  0  0  0
   -3.0294    0.0014    0.1476 N   0  0  0  0  0  0  0  0  0  0  0  0
   -4.1494    0.0142    0.2215 N   0  0  0  0  0  0  0  0  0  0  0  0
   -1.1516    1.3885    0.0518 C   0  0  0  0  0  0  0  0  0  0  0  0
    0.2532    1.3605   -0.0401 C   0  0  0  0  0  0  0  0  0  0  0  0
    1.0176    0.1859   -0.1123 C   0  0  0  0  0  0  0  0  0  0  0  0
    2.3606    0.3469   -0.1944 O   0  0  0  0  0  0  0  0  0  0  0  0
    3.2072   -0.7940   -0.2653 C   0  0  0  0  0  0  0  0  0  0  0  0
    0.4023   -1.1001   -0.0982 C   0  0  0  0  0  0  0  0  0  0  0  0
   -0.9672   -1.1748   -0.0111 C   0  0  0  0  0  0  0  0  0  0  0  0
   -3.9837    4.4390    0.4764 H   0  0  0  0  0  0  0  0  0  0  0  0
    0.8234    2.2904   -0.0581 H   0  0  0  0  0  0  0  0  0  0  0  0
    4.2253   -0.4062   -0.3170 H   0  0  0  0  0  0  0  0  0  0  0  0
    3.0050   -1.3930   -1.1618 H   0  0  0  0  0  0  0  0  0  0  0  0
    3.1078   -1.4270    0.6250 H   0  0  0  0  0  0  0  0  0  0  0  0
    0.9915   -2.0067   -0.1541 H   0  0  0  0  0  0  0  0  0  0  0  0
   -1.4837   -2.1319    0.0031 H   0  0  0  0  0  0  0  0  0  0  0  0
   -6.0220    2.9821    0.2893 B   0  0  0  0  0  0  0  0  0  0  0  0
   -5.0970    2.6444   -0.6108 F   0  0  0  0  0  0  0  0  0  0  0  0
   -4.7726    4.6520    0.9226 F   0  0  0  0  0  0  0  0  0  0  0  0
   -7.0533    3.7183   -0.0848 F   0  0  0  0  0  0  0  0  0  0  0  0
   -6.0316    2.3638    1.4588 F   0  0  0  0  0  0  0  0  0  0  0  0
  1  2  1  0  0  0  0
  2  3  1  0  0  0  0
  4  1  1  0  0  0  0
  5  4  2  0  0  0  0
  6  9  2  0  0  0  0
  6  5  1  0  0  0  0
  7  6  1  0  0  0  0
  8  7  1  0  0  0  0
  8 15  1  0  0  0  0
  9 10  1  0  0  0  0
 10 17  1  0  0  0  0
 10  1  2  0  0  0  0
 11 20  1  0  0  0  0
 12  5  1  0  0  0  0
 13  8  1  0  0  0  0
 14  8  1  0  0  0  0
 16  9  1  0  0  0  0
 18 22  1  0  0  0  0
 19 18  1  0  0  0  0
 21 18  1  0  0  0  0
M  RAD  3   2   2   3   3   4   2
M  END
