Coordinates from ORCA-job 4-MeOPhN2+~BF4-_B3LYPG-6-31G_dp-CH-Scan-d09-49-n800
 OpenBabel11261919343D

 22 20  0  0  0  0  0  0  0  0999 V2000
   -1.8814    0.0441    0.0699 C   0  0  0  0  0  0  0  0  0  0  0  0
   -3.2452   -0.1143    0.1298 N   0  0  0  0  0  0  0  0  0  0  0  0
   -4.3617   -0.1991    0.1828 N   0  0  0  0  0  0  0  0  0  0  0  0
   -1.4314    1.3869    0.1311 C   0  0  0  0  0  0  0  0  0  0  0  0
   -0.0310    1.4433    0.0642 C   0  0  0  0  0  0  0  0  0  0  0  0
    0.7967    0.3137   -0.0480 C   0  0  0  0  0  0  0  0  0  0  0  0
    2.1266    0.5509   -0.0993 O   0  0  0  0  0  0  0  0  0  0  0  0
    3.0372   -0.5378   -0.2125 C   0  0  0  0  0  0  0  0  0  0  0  0
    0.2482   -0.9989   -0.1027 C   0  0  0  0  0  0  0  0  0  0  0  0
   -1.1171   -1.1476   -0.0432 C   0  0  0  0  0  0  0  0  0  0  0  0
   -3.1903    3.5595    0.3303 H   0  0  0  0  0  0  0  0  0  0  0  0
    0.4852    2.4024    0.0986 H   0  0  0  0  0  0  0  0  0  0  0  0
    4.0319   -0.0916   -0.2310 H   0  0  0  0  0  0  0  0  0  0  0  0
    2.8778   -1.1016   -1.1395 H   0  0  0  0  0  0  0  0  0  0  0  0
    2.9619   -1.2165    0.6458 H   0  0  0  0  0  0  0  0  0  0  0  0
    0.8827   -1.8716   -0.1889 H   0  0  0  0  0  0  0  0  0  0  0  0
   -1.5808   -2.1300   -0.0817 H   0  0  0  0  0  0  0  0  0  0  0  0
   -5.5886    2.9673    0.3166 B   0  0  0  0  0  0  0  0  0  0  0  0
   -5.2851    2.3705   -0.8388 F   0  0  0  0  0  0  0  0  0  0  0  0
   -3.9367    4.1269    0.3922 F   0  0  0  0  0  0  0  0  0  0  0  0
   -6.4597    3.9664    0.3266 F   0  0  0  0  0  0  0  0  0  0  0  0
   -5.3429    2.2966    1.4440 F   0  0  0  0  0  0  0  0  0  0  0  0
  1  2  1  0  0  0  0
  1  4  1  0  0  0  0
  2  3  1  0  0  0  0
  5 12  1  0  0  0  0
  5  4  2  0  0  0  0
  6  5  1  0  0  0  0
  7  6  1  0  0  0  0
  8  7  1  0  0  0  0
  8 15  1  0  0  0  0
  9  6  2  0  0  0  0
  9 10  1  0  0  0  0
 10  1  2  0  0  0  0
 11 20  1  0  0  0  0
 13  8  1  0  0  0  0
 14  8  1  0  0  0  0
 16  9  1  0  0  0  0
 17 10  1  0  0  0  0
 18 21  1  0  0  0  0
 18 22  1  0  0  0  0
 19 18  1  0  0  0  0
M  RAD  3   2   2   3   3   4   2
M  END
