Coordinates from ORCA-job 4-MeOPhN2+~BF4-_B3LYPG-6-31G_dp-CH-Scan-d09-49-n800
 OpenBabel11261919343D

 22 20  0  0  0  0  0  0  0  0999 V2000
   -2.1071    0.0853    0.0159 C   0  0  0  0  0  0  0  0  0  0  0  0
   -3.4605   -0.1417    0.0430 N   0  0  0  0  0  0  0  0  0  0  0  0
   -4.5657   -0.3062    0.0641 N   0  0  0  0  0  0  0  0  0  0  0  0
   -1.6667    1.4322    0.0360 C   0  0  0  0  0  0  0  0  0  0  0  0
   -0.2800    1.5520   -0.0014 C   0  0  0  0  0  0  0  0  0  0  0  0
    0.5881    0.4446   -0.0521 C   0  0  0  0  0  0  0  0  0  0  0  0
    1.9030    0.7288   -0.0834 O   0  0  0  0  0  0  0  0  0  0  0  0
    2.8575   -0.3302   -0.1333 C   0  0  0  0  0  0  0  0  0  0  0  0
    0.0775   -0.8789   -0.0673 C   0  0  0  0  0  0  0  0  0  0  0  0
   -1.2860   -1.0673   -0.0337 C   0  0  0  0  0  0  0  0  0  0  0  0
   -2.7188    2.7339    0.1233 H   0  0  0  0  0  0  0  0  0  0  0  0
    0.1882    2.5331    0.0095 H   0  0  0  0  0  0  0  0  0  0  0  0
    3.8337    0.1538   -0.1507 H   0  0  0  0  0  0  0  0  0  0  0  0
    2.7358   -0.9345   -1.0396 H   0  0  0  0  0  0  0  0  0  0  0  0
    2.7867   -0.9728    0.7519 H   0  0  0  0  0  0  0  0  0  0  0  0
    0.7360   -1.7369   -0.1043 H   0  0  0  0  0  0  0  0  0  0  0  0
   -1.7147   -2.0649   -0.0447 H   0  0  0  0  0  0  0  0  0  0  0  0
   -4.9120    2.9216    0.3800 B   0  0  0  0  0  0  0  0  0  0  0  0
   -5.1140    2.2374   -0.7921 F   0  0  0  0  0  0  0  0  0  0  0  0
   -3.4326    3.5404    0.1915 F   0  0  0  0  0  0  0  0  0  0  0  0
   -5.6937    4.0039    0.5758 F   0  0  0  0  0  0  0  0  0  0  0  0
   -4.7586    2.0862    1.4583 F   0  0  0  0  0  0  0  0  0  0  0  0
  1  4  1  0  0  0  0
  1  2  1  0  0  0  0
  2  3  1  0  0  0  0
  5 12  1  0  0  0  0
  5  4  2  0  0  0  0
  6  5  1  0  0  0  0
  7  6  1  0  0  0  0
  8  7  1  0  0  0  0
  8 15  1  0  0  0  0
  9  6  2  0  0  0  0
  9 10  1  0  0  0  0
 10  1  2  0  0  0  0
 11 20  1  0  0  0  0
 13  8  1  0  0  0  0
 14  8  1  0  0  0  0
 16  9  1  0  0  0  0
 17 10  1  0  0  0  0
 18 21  1  0  0  0  0
 18 22  1  0  0  0  0
 19 18  1  0  0  0  0
M  RAD  3   2   2   3   3   4   2
M  END
