Coordinates from ORCA-job 4-MeOPhN2+~BF4-_B3LYPG-6-31G_dp-CH-Scan-d09-49-n800
 OpenBabel11261919343D

 22 20  0  0  0  0  0  0  0  0999 V2000
   -1.8929    0.0449    0.0723 C   0  0  0  0  0  0  0  0  0  0  0  0
   -3.2560   -0.1180    0.1337 N   0  0  0  0  0  0  0  0  0  0  0  0
   -4.3719   -0.2080    0.1883 N   0  0  0  0  0  0  0  0  0  0  0  0
   -1.4448    1.3885    0.1333 C   0  0  0  0  0  0  0  0  0  0  0  0
   -0.0450    1.4486    0.0656 C   0  0  0  0  0  0  0  0  0  0  0  0
    0.7853    0.3208   -0.0474 C   0  0  0  0  0  0  0  0  0  0  0  0
    2.1143    0.5612   -0.0992 O   0  0  0  0  0  0  0  0  0  0  0  0
    3.0276   -0.5253   -0.2129 C   0  0  0  0  0  0  0  0  0  0  0  0
    0.2396   -0.9927   -0.1022 C   0  0  0  0  0  0  0  0  0  0  0  0
   -1.1253   -1.1444   -0.0417 C   0  0  0  0  0  0  0  0  0  0  0  0
   -3.1618    3.5112    0.3301 H   0  0  0  0  0  0  0  0  0  0  0  0
    0.4687    2.4090    0.1000 H   0  0  0  0  0  0  0  0  0  0  0  0
    4.0212   -0.0767   -0.2315 H   0  0  0  0  0  0  0  0  0  0  0  0
    2.8692   -1.0892   -1.1400 H   0  0  0  0  0  0  0  0  0  0  0  0
    2.9541   -1.2043    0.6453 H   0  0  0  0  0  0  0  0  0  0  0  0
    0.8759   -1.8641   -0.1890 H   0  0  0  0  0  0  0  0  0  0  0  0
   -1.5868   -2.1279   -0.0802 H   0  0  0  0  0  0  0  0  0  0  0  0
   -5.5585    2.9673    0.3124 B   0  0  0  0  0  0  0  0  0  0  0  0
   -5.2671    2.3633   -0.8434 F   0  0  0  0  0  0  0  0  0  0  0  0
   -3.9013    4.0899    0.3924 F   0  0  0  0  0  0  0  0  0  0  0  0
   -6.4170    3.9780    0.3213 F   0  0  0  0  0  0  0  0  0  0  0  0
   -5.3311    2.2877    1.4392 F   0  0  0  0  0  0  0  0  0  0  0  0
  1  4  1  0  0  0  0
  1  2  1  0  0  0  0
  2  3  1  0  0  0  0
  5 12  1  0  0  0  0
  5  4  2  0  0  0  0
  6  5  1  0  0  0  0
  7  6  1  0  0  0  0
  8  7  1  0  0  0  0
  8 15  1  0  0  0  0
  9  6  2  0  0  0  0
  9 10  1  0  0  0  0
 10  1  2  0  0  0  0
 11 20  1  0  0  0  0
 13  8  1  0  0  0  0
 14  8  1  0  0  0  0
 16  9  1  0  0  0  0
 17 10  1  0  0  0  0
 18 21  1  0  0  0  0
 18 22  1  0  0  0  0
 19 18  1  0  0  0  0
M  RAD  3   2   2   3   3   4   2
M  END
