Coordinates from ORCA-job 4-MeOPhN2+~BF4-_B3LYPG-6-31G_dp-CH-Scan-d09-49-n800
 OpenBabel11261919343D

 22 20  0  0  0  0  0  0  0  0999 V2000
   -1.6457    0.0706    0.0601 C   0  0  0  0  0  0  0  0  0  0  0  0
   -3.0188    0.0117    0.1512 N   0  0  0  0  0  0  0  0  0  0  0  0
   -4.1387    0.0295    0.2255 N   0  0  0  0  0  0  0  0  0  0  0  0
   -1.1364    1.3914    0.0518 C   0  0  0  0  0  0  0  0  0  0  0  0
    0.2683    1.3582   -0.0420 C   0  0  0  0  0  0  0  0  0  0  0  0
    1.0283    0.1807   -0.1140 C   0  0  0  0  0  0  0  0  0  0  0  0
    2.3718    0.3367   -0.1982 O   0  0  0  0  0  0  0  0  0  0  0  0
    3.2141   -0.8073   -0.2691 C   0  0  0  0  0  0  0  0  0  0  0  0
    0.4084   -1.1031   -0.0978 C   0  0  0  0  0  0  0  0  0  0  0  0
   -0.9612   -1.1728   -0.0087 C   0  0  0  0  0  0  0  0  0  0  0  0
   -4.0250    4.4702    0.4874 H   0  0  0  0  0  0  0  0  0  0  0  0
    0.8418    2.2860   -0.0618 H   0  0  0  0  0  0  0  0  0  0  0  0
    4.2336   -0.4233   -0.3226 H   0  0  0  0  0  0  0  0  0  0  0  0
    3.0084   -1.4067   -1.1645 H   0  0  0  0  0  0  0  0  0  0  0  0
    3.1137   -1.4389    0.6222 H   0  0  0  0  0  0  0  0  0  0  0  0
    0.9943   -2.0119   -0.1535 H   0  0  0  0  0  0  0  0  0  0  0  0
   -1.4812   -2.1280    0.0071 H   0  0  0  0  0  0  0  0  0  0  0  0
   -6.0383    2.9820    0.2857 B   0  0  0  0  0  0  0  0  0  0  0  0
   -5.0976    2.6598   -0.6037 F   0  0  0  0  0  0  0  0  0  0  0  0
   -4.8160    4.6681    0.9367 F   0  0  0  0  0  0  0  0  0  0  0  0
   -7.0744    3.7057   -0.0991 F   0  0  0  0  0  0  0  0  0  0  0  0
   -6.0535    2.3612    1.4537 F   0  0  0  0  0  0  0  0  0  0  0  0
  1  2  1  0  0  0  0
  2  3  1  0  0  0  0
  4  1  1  0  0  0  0
  5  4  2  0  0  0  0
  6  9  2  0  0  0  0
  6  5  1  0  0  0  0
  7  6  1  0  0  0  0
  8  7  1  0  0  0  0
  8 15  1  0  0  0  0
  9 10  1  0  0  0  0
 10 17  1  0  0  0  0
 10  1  2  0  0  0  0
 11 20  1  0  0  0  0
 12  5  1  0  0  0  0
 13  8  1  0  0  0  0
 14  8  1  0  0  0  0
 16  9  1  0  0  0  0
 18 22  1  0  0  0  0
 19 18  1  0  0  0  0
 21 18  1  0  0  0  0
M  RAD  3   2   2   3   3   4   2
M  END
