Coordinates from ORCA-job 4-MeOPhN2+~BF4-_B3LYPG-6-31G_dp-CH-Scan-d09-49-n800
 OpenBabel11261919343D

 22 20  0  0  0  0  0  0  0  0999 V2000
   -2.1084    0.0851    0.1849 C   0  0  0  0  0  0  0  0  0  0  0  0
   -3.4572   -0.1454    0.2863 N   0  0  0  0  0  0  0  0  0  0  0  0
   -4.5574   -0.3173    0.3808 N   0  0  0  0  0  0  0  0  0  0  0  0
   -1.6590    1.4254    0.2837 C   0  0  0  0  0  0  0  0  0  0  0  0
   -0.2772    1.5502    0.1798 C   0  0  0  0  0  0  0  0  0  0  0  0
    0.5817    0.4501   -0.0079 C   0  0  0  0  0  0  0  0  0  0  0  0
    1.8936    0.7361   -0.0910 O   0  0  0  0  0  0  0  0  0  0  0  0
    2.8387   -0.3156   -0.2832 C   0  0  0  0  0  0  0  0  0  0  0  0
    0.0648   -0.8677   -0.0998 C   0  0  0  0  0  0  0  0  0  0  0  0
   -1.2954   -1.0587   -0.0023 C   0  0  0  0  0  0  0  0  0  0  0  0
   -2.6954    2.6873    0.4449 H   0  0  0  0  0  0  0  0  0  0  0  0
    0.1933    2.5284    0.2388 H   0  0  0  0  0  0  0  0  0  0  0  0
    3.8148    0.1678   -0.3137 H   0  0  0  0  0  0  0  0  0  0  0  0
    2.6640   -0.8405   -1.2293 H   0  0  0  0  0  0  0  0  0  0  0  0
    2.8131   -1.0311    0.5470 H   0  0  0  0  0  0  0  0  0  0  0  0
    0.7164   -1.7196   -0.2438 H   0  0  0  0  0  0  0  0  0  0  0  0
   -1.7279   -2.0525   -0.0675 H   0  0  0  0  0  0  0  0  0  0  0  0
   -4.8824    2.9181    0.1588 B   0  0  0  0  0  0  0  0  0  0  0  0
   -4.6425    2.1676   -0.9690 F   0  0  0  0  0  0  0  0  0  0  0  0
   -3.4351    3.4967    0.5197 F   0  0  0  0  0  0  0  0  0  0  0  0
   -5.6489    4.0161   -0.0178 F   0  0  0  0  0  0  0  0  0  0  0  0
   -5.1974    2.1393    1.2470 F   0  0  0  0  0  0  0  0  0  0  0  0
  1  4  1  0  0  0  0
  1  2  1  0  0  0  0
  2  3  1  0  0  0  0
  5 12  1  0  0  0  0
  5  4  2  0  0  0  0
  6  5  1  0  0  0  0
  7  6  1  0  0  0  0
  8  7  1  0  0  0  0
  8 15  1  0  0  0  0
  9  6  2  0  0  0  0
  9 10  1  0  0  0  0
 10  1  2  0  0  0  0
 11 20  1  0  0  0  0
 13  8  1  0  0  0  0
 14  8  1  0  0  0  0
 16  9  1  0  0  0  0
 17 10  1  0  0  0  0
 18 22  1  0  0  0  0
 19 18  1  0  0  0  0
 21 18  1  0  0  0  0
M  RAD  3   2   2   3   3   4   2
M  END
