Coordinates from ORCA-job 4-MeOPhN2+~BF4-_B3LYPG-6-31G_dp-CH-Scan-d09-49-n800
 OpenBabel11261919343D

 22 20  0  0  0  0  0  0  0  0999 V2000
   -1.6808    0.0562    0.0517 C   0  0  0  0  0  0  0  0  0  0  0  0
   -3.0533   -0.0208    0.1376 N   0  0  0  0  0  0  0  0  0  0  0  0
   -4.1735   -0.0201    0.2066 N   0  0  0  0  0  0  0  0  0  0  0  0
   -1.1862    1.3827    0.0487 C   0  0  0  0  0  0  0  0  0  0  0  0
    0.2190    1.3664   -0.0382 C   0  0  0  0  0  0  0  0  0  0  0  0
    0.9933    0.1981   -0.1089 C   0  0  0  0  0  0  0  0  0  0  0  0
    2.3350    0.3704   -0.1852 O   0  0  0  0  0  0  0  0  0  0  0  0
    3.1915   -0.7634   -0.2536 C   0  0  0  0  0  0  0  0  0  0  0  0
    0.3884   -1.0926   -0.0993 C   0  0  0  0  0  0  0  0  0  0  0  0
   -0.9808   -1.1785   -0.0173 C   0  0  0  0  0  0  0  0  0  0  0  0
   -3.8824    4.3630    0.4505 H   0  0  0  0  0  0  0  0  0  0  0  0
    0.7815    2.3010   -0.0529 H   0  0  0  0  0  0  0  0  0  0  0  0
    4.2065   -0.3670   -0.2999 H   0  0  0  0  0  0  0  0  0  0  0  0
    2.9984   -1.3629   -1.1517 H   0  0  0  0  0  0  0  0  0  0  0  0
    3.0931   -1.3982    0.6356 H   0  0  0  0  0  0  0  0  0  0  0  0
    0.9849   -1.9944   -0.1545 H   0  0  0  0  0  0  0  0  0  0  0  0
   -1.4895   -2.1397   -0.0067 H   0  0  0  0  0  0  0  0  0  0  0  0
   -5.9869    2.9837    0.2997 B   0  0  0  0  0  0  0  0  0  0  0  0
   -5.1136    2.6085   -0.6362 F   0  0  0  0  0  0  0  0  0  0  0  0
   -4.6690    4.6062    0.8852 F   0  0  0  0  0  0  0  0  0  0  0  0
   -7.0062    3.7553   -0.0347 F   0  0  0  0  0  0  0  0  0  0  0  0
   -5.9732    2.3658    1.4700 F   0  0  0  0  0  0  0  0  0  0  0  0
  1  2  1  0  0  0  0
  2  3  1  0  0  0  0
  4  1  1  0  0  0  0
  5  4  2  0  0  0  0
  6  9  2  0  0  0  0
  6  5  1  0  0  0  0
  7  6  1  0  0  0  0
  8  7  1  0  0  0  0
  8 15  1  0  0  0  0
  9 10  1  0  0  0  0
 10 17  1  0  0  0  0
 10  1  2  0  0  0  0
 11 20  1  0  0  0  0
 12  5  1  0  0  0  0
 13  8  1  0  0  0  0
 14  8  1  0  0  0  0
 16  9  1  0  0  0  0
 18 22  1  0  0  0  0
 19 18  1  0  0  0  0
 21 18  1  0  0  0  0
M  RAD  3   2   2   3   3   4   2
M  END
