Coordinates from ORCA-job 4-MeOPhN2+~BF4-_B3LYPG-6-31G_dp-CH-Scan-d09-49-n800
 OpenBabel11261919343D

 22 20  0  0  0  0  0  0  0  0999 V2000
   -1.9399    0.0488    0.0979 C   0  0  0  0  0  0  0  0  0  0  0  0
   -3.2996   -0.1325    0.1691 N   0  0  0  0  0  0  0  0  0  0  0  0
   -4.4122   -0.2484    0.2311 N   0  0  0  0  0  0  0  0  0  0  0  0
   -1.4974    1.3941    0.1628 C   0  0  0  0  0  0  0  0  0  0  0  0
   -0.1006    1.4701    0.0848 C   0  0  0  0  0  0  0  0  0  0  0  0
    0.7390    0.3499   -0.0413 C   0  0  0  0  0  0  0  0  0  0  0  0
    2.0641    0.6030   -0.1020 O   0  0  0  0  0  0  0  0  0  0  0  0
    2.9871   -0.4745   -0.2289 C   0  0  0  0  0  0  0  0  0  0  0  0
    0.2034   -0.9669   -0.0991 C   0  0  0  0  0  0  0  0  0  0  0  0
   -1.1599   -1.1306   -0.0289 C   0  0  0  0  0  0  0  0  0  0  0  0
   -3.0590    3.3137    0.3547 H   0  0  0  0  0  0  0  0  0  0  0  0
    0.4029    2.4352    0.1208 H   0  0  0  0  0  0  0  0  0  0  0  0
    3.9759   -0.0160   -0.2526 H   0  0  0  0  0  0  0  0  0  0  0  0
    2.8264   -1.0341   -1.1581 H   0  0  0  0  0  0  0  0  0  0  0  0
    2.9262   -1.1585    0.6261 H   0  0  0  0  0  0  0  0  0  0  0  0
    0.8457   -1.8327   -0.1958 H   0  0  0  0  0  0  0  0  0  0  0  0
   -1.6124   -2.1179   -0.0693 H   0  0  0  0  0  0  0  0  0  0  0  0
   -5.4214    2.9704    0.2749 B   0  0  0  0  0  0  0  0  0  0  0  0
   -5.1527    2.3344   -0.8754 F   0  0  0  0  0  0  0  0  0  0  0  0
   -3.7732    3.9368    0.4178 F   0  0  0  0  0  0  0  0  0  0  0  0
   -6.2355    4.0216    0.2556 F   0  0  0  0  0  0  0  0  0  0  0  0
   -5.3109    2.2538    1.4025 F   0  0  0  0  0  0  0  0  0  0  0  0
  1  4  1  0  0  0  0
  1  2  1  0  0  0  0
  2  3  1  0  0  0  0
  5 12  1  0  0  0  0
  5  4  2  0  0  0  0
  6  5  1  0  0  0  0
  7  6  1  0  0  0  0
  8  7  1  0  0  0  0
  8 15  1  0  0  0  0
  9  6  2  0  0  0  0
  9 10  1  0  0  0  0
 10  1  2  0  0  0  0
 11 20  1  0  0  0  0
 13  8  1  0  0  0  0
 14  8  1  0  0  0  0
 16  9  1  0  0  0  0
 17 10  1  0  0  0  0
 18 22  1  0  0  0  0
 19 18  1  0  0  0  0
 21 18  1  0  0  0  0
M  RAD  3   2   2   3   3   4   2
M  END
