Coordinates from ORCA-job 4-MeOPhN2+~BF4-_B3LYPG-6-31G_dp-CH-Scan-d09-49-n800
 OpenBabel11261919343D

 22 20  0  0  0  0  0  0  0  0999 V2000
   -2.1297    0.1017    0.2148 C   0  0  0  0  0  0  0  0  0  0  0  0
   -3.4773   -0.1259    0.3324 N   0  0  0  0  0  0  0  0  0  0  0  0
   -4.5748   -0.2990    0.4454 N   0  0  0  0  0  0  0  0  0  0  0  0
   -1.6615    1.4330    0.3271 C   0  0  0  0  0  0  0  0  0  0  0  0
   -0.2853    1.5656    0.2133 C   0  0  0  0  0  0  0  0  0  0  0  0
    0.5674    0.4640    0.0002 C   0  0  0  0  0  0  0  0  0  0  0  0
    1.8776    0.7474   -0.0915 O   0  0  0  0  0  0  0  0  0  0  0  0
    2.8183   -0.3041   -0.3102 C   0  0  0  0  0  0  0  0  0  0  0  0
    0.0425   -0.8483   -0.1063 C   0  0  0  0  0  0  0  0  0  0  0  0
   -1.3182   -1.0366    0.0025 C   0  0  0  0  0  0  0  0  0  0  0  0
   -2.6238    2.5979    0.4997 H   0  0  0  0  0  0  0  0  0  0  0  0
    0.1819    2.5437    0.2821 H   0  0  0  0  0  0  0  0  0  0  0  0
    3.7951    0.1776   -0.3421 H   0  0  0  0  0  0  0  0  0  0  0  0
    2.6322   -0.8122   -1.2631 H   0  0  0  0  0  0  0  0  0  0  0  0
    2.7978   -1.0324    0.5088 H   0  0  0  0  0  0  0  0  0  0  0  0
    0.6884   -1.7008   -0.2705 H   0  0  0  0  0  0  0  0  0  0  0  0
   -1.7536   -2.0281   -0.0736 H   0  0  0  0  0  0  0  0  0  0  0  0
   -4.8073    2.9014    0.1266 B   0  0  0  0  0  0  0  0  0  0  0  0
   -4.4936    2.1267   -0.9811 F   0  0  0  0  0  0  0  0  0  0  0  0
   -3.4477    3.4687    0.5860 F   0  0  0  0  0  0  0  0  0  0  0  0
   -5.5997    3.9707   -0.1347 F   0  0  0  0  0  0  0  0  0  0  0  0
   -5.2327    2.1088    1.1807 F   0  0  0  0  0  0  0  0  0  0  0  0
  1  4  1  0  0  0  0
  1  2  1  0  0  0  0
  2  3  1  0  0  0  0
  5 12  1  0  0  0  0
  5  4  2  0  0  0  0
  6  5  1  0  0  0  0
  7  6  1  0  0  0  0
  8  7  1  0  0  0  0
  8 15  1  0  0  0  0
  9  6  2  0  0  0  0
  9 10  1  0  0  0  0
 10  1  2  0  0  0  0
 11 20  1  0  0  0  0
 13  8  1  0  0  0  0
 14  8  1  0  0  0  0
 16  9  1  0  0  0  0
 17 10  1  0  0  0  0
 18 22  1  0  0  0  0
 19 18  1  0  0  0  0
 21 18  1  0  0  0  0
M  RAD  3   2   2   3   3   4   2
M  END
