Coordinates from ORCA-job 4-MeOPhN2+~BF4-_B3LYPG-6-31G_dp-CH-Scan-d09-49-n800
 OpenBabel11261919343D

 22 20  0  0  0  0  0  0  0  0999 V2000
   -2.0826    0.0745    0.0247 C   0  0  0  0  0  0  0  0  0  0  0  0
   -3.4365   -0.1492    0.0594 N   0  0  0  0  0  0  0  0  0  0  0  0
   -4.5430   -0.3082    0.0856 N   0  0  0  0  0  0  0  0  0  0  0  0
   -1.6483    1.4239    0.0516 C   0  0  0  0  0  0  0  0  0  0  0  0
   -0.2590    1.5376    0.0093 C   0  0  0  0  0  0  0  0  0  0  0  0
    0.6078    0.4304   -0.0515 C   0  0  0  0  0  0  0  0  0  0  0  0
    1.9242    0.7130   -0.0853 O   0  0  0  0  0  0  0  0  0  0  0  0
    2.8764   -0.3469   -0.1452 C   0  0  0  0  0  0  0  0  0  0  0  0
    0.0973   -0.8940   -0.0739 C   0  0  0  0  0  0  0  0  0  0  0  0
   -1.2656   -1.0816   -0.0357 C   0  0  0  0  0  0  0  0  0  0  0  0
   -2.7758    2.8185    0.1513 H   0  0  0  0  0  0  0  0  0  0  0  0
    0.2141    2.5169    0.0242 H   0  0  0  0  0  0  0  0  0  0  0  0
    3.8536    0.1354   -0.1611 H   0  0  0  0  0  0  0  0  0  0  0  0
    2.7523   -0.9446   -1.0556 H   0  0  0  0  0  0  0  0  0  0  0  0
    2.8069   -0.9965    0.7352 H   0  0  0  0  0  0  0  0  0  0  0  0
    0.7558   -1.7516   -0.1197 H   0  0  0  0  0  0  0  0  0  0  0  0
   -1.6958   -2.0787   -0.0515 H   0  0  0  0  0  0  0  0  0  0  0  0
   -4.9892    2.9344    0.3729 B   0  0  0  0  0  0  0  0  0  0  0  0
   -5.1289    2.2560   -0.8033 F   0  0  0  0  0  0  0  0  0  0  0  0
   -3.4662    3.5836    0.2215 F   0  0  0  0  0  0  0  0  0  0  0  0
   -5.7567    4.0273    0.5351 F   0  0  0  0  0  0  0  0  0  0  0  0
   -4.8447    2.1195    1.4586 F   0  0  0  0  0  0  0  0  0  0  0  0
  1  4  1  0  0  0  0
  1  2  1  0  0  0  0
  2  3  1  0  0  0  0
  5 12  1  0  0  0  0
  5  4  2  0  0  0  0
  6  5  1  0  0  0  0
  7  6  1  0  0  0  0
  8  7  1  0  0  0  0
  8 15  1  0  0  0  0
  9  6  2  0  0  0  0
  9 10  1  0  0  0  0
 10  1  2  0  0  0  0
 11 20  1  0  0  0  0
 13  8  1  0  0  0  0
 14  8  1  0  0  0  0
 16  9  1  0  0  0  0
 17 10  1  0  0  0  0
 18 21  1  0  0  0  0
 18 22  1  0  0  0  0
 19 18  1  0  0  0  0
M  RAD  3   2   2   3   3   4   2
M  END
