Coordinates from ORCA-job 4-MeOPhN2+~BF4-_B3LYPG-6-31G_dp-CH-Scan-d09-49-n800
 OpenBabel11261919343D

 22 20  0  0  0  0  0  0  0  0999 V2000
   -2.0264    0.0582    0.0794 C   0  0  0  0  0  0  0  0  0  0  0  0
   -3.3819   -0.1518    0.1381 N   0  0  0  0  0  0  0  0  0  0  0  0
   -4.4909   -0.2945    0.1881 N   0  0  0  0  0  0  0  0  0  0  0  0
   -1.5937    1.4076    0.1322 C   0  0  0  0  0  0  0  0  0  0  0  0
   -0.2012    1.5084    0.0656 C   0  0  0  0  0  0  0  0  0  0  0  0
    0.6568    0.3989   -0.0406 C   0  0  0  0  0  0  0  0  0  0  0  0
    1.9760    0.6733   -0.0935 O   0  0  0  0  0  0  0  0  0  0  0  0
    2.9184   -0.3906   -0.2012 C   0  0  0  0  0  0  0  0  0  0  0  0
    0.1396   -0.9239   -0.0868 C   0  0  0  0  0  0  0  0  0  0  0  0
   -1.2225   -1.1055   -0.0264 C   0  0  0  0  0  0  0  0  0  0  0  0
   -2.8796    2.9994    0.2775 H   0  0  0  0  0  0  0  0  0  0  0  0
    0.2832    2.4825    0.0951 H   0  0  0  0  0  0  0  0  0  0  0  0
    3.8991    0.0847   -0.2241 H   0  0  0  0  0  0  0  0  0  0  0  0
    2.7724   -0.9632   -1.1246 H   0  0  0  0  0  0  0  0  0  0  0  0
    2.8625   -1.0642    0.6622 H   0  0  0  0  0  0  0  0  0  0  0  0
    0.7935   -1.7825   -0.1673 H   0  0  0  0  0  0  0  0  0  0  0  0
   -1.6597   -2.0996   -0.0588 H   0  0  0  0  0  0  0  0  0  0  0  0
   -5.1670    2.9562    0.3015 B   0  0  0  0  0  0  0  0  0  0  0  0
   -5.0845    2.2868   -0.8712 F   0  0  0  0  0  0  0  0  0  0  0  0
   -3.5610    3.7033    0.3456 F   0  0  0  0  0  0  0  0  0  0  0  0
   -5.9342    4.0512    0.3445 F   0  0  0  0  0  0  0  0  0  0  0  0
   -5.1028    2.1850    1.4111 F   0  0  0  0  0  0  0  0  0  0  0  0
  1  4  1  0  0  0  0
  1  2  1  0  0  0  0
  2  3  1  0  0  0  0
  5 12  1  0  0  0  0
  5  4  2  0  0  0  0
  6  5  1  0  0  0  0
  7  6  1  0  0  0  0
  8  7  1  0  0  0  0
  8 15  1  0  0  0  0
  9  6  2  0  0  0  0
  9 10  1  0  0  0  0
 10  1  2  0  0  0  0
 11 20  1  0  0  0  0
 13  8  1  0  0  0  0
 14  8  1  0  0  0  0
 16  9  1  0  0  0  0
 17 10  1  0  0  0  0
 18 21  1  0  0  0  0
 18 22  1  0  0  0  0
 19 18  1  0  0  0  0
M  RAD  3   2   2   3   3   4   2
M  END
