Coordinates from ORCA-job 4-MeOPhN2+~BF4-_B3LYPG-6-31G_dp-CH-Scan-d09-49-n800
 OpenBabel11261919343D

 22 20  0  0  0  0  0  0  0  0999 V2000
   -1.8324    0.0401    0.0793 C   0  0  0  0  0  0  0  0  0  0  0  0
   -3.1986   -0.1015    0.1430 N   0  0  0  0  0  0  0  0  0  0  0  0
   -4.3167   -0.1689    0.1976 N   0  0  0  0  0  0  0  0  0  0  0  0
   -1.3746    1.3797    0.1424 C   0  0  0  0  0  0  0  0  0  0  0  0
    0.0275    1.4206    0.0695 C   0  0  0  0  0  0  0  0  0  0  0  0
    0.8440    0.2840   -0.0493 C   0  0  0  0  0  0  0  0  0  0  0  0
    2.1767    0.5084   -0.1066 O   0  0  0  0  0  0  0  0  0  0  0  0
    3.0758   -0.5885   -0.2272 C   0  0  0  0  0  0  0  0  0  0  0  0
    0.2838   -1.0242   -0.1043 C   0  0  0  0  0  0  0  0  0  0  0  0
   -1.0824   -1.1607   -0.0393 C   0  0  0  0  0  0  0  0  0  0  0  0
   -3.3111    3.7608    0.3727 H   0  0  0  0  0  0  0  0  0  0  0  0
    0.5543    2.3744    0.1039 H   0  0  0  0  0  0  0  0  0  0  0  0
    4.0748   -0.1522   -0.2504 H   0  0  0  0  0  0  0  0  0  0  0  0
    2.9061   -1.1490   -1.1545 H   0  0  0  0  0  0  0  0  0  0  0  0
    2.9990   -1.2688    0.6297 H   0  0  0  0  0  0  0  0  0  0  0  0
    0.9105   -1.9021   -0.1947 H   0  0  0  0  0  0  0  0  0  0  0  0
   -1.5558   -2.1386   -0.0777 H   0  0  0  0  0  0  0  0  0  0  0  0
   -5.7087    2.9702    0.3025 B   0  0  0  0  0  0  0  0  0  0  0  0
   -5.3271    2.4192   -0.8488 F   0  0  0  0  0  0  0  0  0  0  0  0
   -4.0910    4.2742    0.4256 F   0  0  0  0  0  0  0  0  0  0  0  0
   -6.6288    3.9216    0.3021 F   0  0  0  0  0  0  0  0  0  0  0  0
   -5.4291    2.3209    1.4311 F   0  0  0  0  0  0  0  0  0  0  0  0
  1  4  1  0  0  0  0
  1  2  1  0  0  0  0
  2  3  1  0  0  0  0
  5 12  1  0  0  0  0
  5  4  2  0  0  0  0
  6  5  1  0  0  0  0
  7  6  1  0  0  0  0
  8  7  1  0  0  0  0
  8 15  1  0  0  0  0
  9  6  2  0  0  0  0
  9 10  1  0  0  0  0
 10  1  2  0  0  0  0
 11 20  1  0  0  0  0
 13  8  1  0  0  0  0
 14  8  1  0  0  0  0
 16  9  1  0  0  0  0
 17 10  1  0  0  0  0
 18 22  1  0  0  0  0
 19 18  1  0  0  0  0
 21 18  1  0  0  0  0
M  RAD  3   2   2   3   3   4   2
M  END
