Coordinates from ORCA-job 4-MeOPhN2+~BF4-_B3LYPG-6-31G_dp-CH-Scan-d09-49-n800
 OpenBabel11261919343D

 22 20  0  0  0  0  0  0  0  0999 V2000
   -2.0677    0.0686    0.0519 C   0  0  0  0  0  0  0  0  0  0  0  0
   -3.4217   -0.1527    0.0987 N   0  0  0  0  0  0  0  0  0  0  0  0
   -4.5287   -0.3082    0.1365 N   0  0  0  0  0  0  0  0  0  0  0  0
   -1.6348    1.4182    0.0920 C   0  0  0  0  0  0  0  0  0  0  0  0
   -0.2447    1.5290    0.0383 C   0  0  0  0  0  0  0  0  0  0  0  0
    0.6201    0.4220   -0.0452 C   0  0  0  0  0  0  0  0  0  0  0  0
    1.9370    0.7033   -0.0877 O   0  0  0  0  0  0  0  0  0  0  0  0
    2.8868   -0.3568   -0.1718 C   0  0  0  0  0  0  0  0  0  0  0  0
    0.1085   -0.9021   -0.0803 C   0  0  0  0  0  0  0  0  0  0  0  0
   -1.2540   -1.0889   -0.0313 C   0  0  0  0  0  0  0  0  0  0  0  0
   -2.8019    2.8634    0.2085 H   0  0  0  0  0  0  0  0  0  0  0  0
    0.2313    2.5069    0.0610 H   0  0  0  0  0  0  0  0  0  0  0  0
    3.8647    0.1241   -0.1900 H   0  0  0  0  0  0  0  0  0  0  0  0
    2.7534   -0.9414   -1.0895 H   0  0  0  0  0  0  0  0  0  0  0  0
    2.8248   -1.0192    0.6996 H   0  0  0  0  0  0  0  0  0  0  0  0
    0.7660   -1.7593   -0.1437 H   0  0  0  0  0  0  0  0  0  0  0  0
   -1.6857   -2.0854   -0.0560 H   0  0  0  0  0  0  0  0  0  0  0  0
   -5.0360    2.9426    0.3382 B   0  0  0  0  0  0  0  0  0  0  0  0
   -5.0831    2.2591   -0.8385 F   0  0  0  0  0  0  0  0  0  0  0  0
   -3.4852    3.6112    0.2786 F   0  0  0  0  0  0  0  0  0  0  0  0
   -5.8047    4.0396    0.4384 F   0  0  0  0  0  0  0  0  0  0  0  0
   -4.9482    2.1456    1.4387 F   0  0  0  0  0  0  0  0  0  0  0  0
  1  4  1  0  0  0  0
  1  2  1  0  0  0  0
  2  3  1  0  0  0  0
  5 12  1  0  0  0  0
  5  4  2  0  0  0  0
  6  5  1  0  0  0  0
  7  6  1  0  0  0  0
  8  7  1  0  0  0  0
  8 15  1  0  0  0  0
  9  6  2  0  0  0  0
  9 10  1  0  0  0  0
 10  1  2  0  0  0  0
 11 20  1  0  0  0  0
 13  8  1  0  0  0  0
 14  8  1  0  0  0  0
 16  9  1  0  0  0  0
 17 10  1  0  0  0  0
 18 21  1  0  0  0  0
 18 22  1  0  0  0  0
 19 18  1  0  0  0  0
M  RAD  3   2   2   3   3   4   2
M  END
