Coordinates from ORCA-job 4-MeOPhN2+~BF4-_B3LYPG-6-31G_dp-CH-Scan-d09-49-n800
 OpenBabel11261919343D

 22 20  0  0  0  0  0  0  0  0999 V2000
   -1.7863    0.0435    0.0898 C   0  0  0  0  0  0  0  0  0  0  0  0
   -3.1548   -0.0793    0.1614 N   0  0  0  0  0  0  0  0  0  0  0  0
   -4.2739   -0.1262    0.2221 N   0  0  0  0  0  0  0  0  0  0  0  0
   -1.3174    1.3789    0.1536 C   0  0  0  0  0  0  0  0  0  0  0  0
    0.0860    1.4024    0.0730 C   0  0  0  0  0  0  0  0  0  0  0  0
    0.8890    0.2574   -0.0526 C   0  0  0  0  0  0  0  0  0  0  0  0
    2.2247    0.4665   -0.1163 O   0  0  0  0  0  0  0  0  0  0  0  0
    3.1099   -0.6404   -0.2434 C   0  0  0  0  0  0  0  0  0  0  0  0
    0.3146   -1.0451   -0.1078 C   0  0  0  0  0  0  0  0  0  0  0  0
   -1.0526   -1.1667   -0.0358 C   0  0  0  0  0  0  0  0  0  0  0  0
   -3.4452    3.9511    0.4095 H   0  0  0  0  0  0  0  0  0  0  0  0
    0.6247    2.3499    0.1068 H   0  0  0  0  0  0  0  0  0  0  0  0
    4.1141   -0.2162   -0.2700 H   0  0  0  0  0  0  0  0  0  0  0  0
    2.9300   -1.1972   -1.1711 H   0  0  0  0  0  0  0  0  0  0  0  0
    3.0291   -1.3220    0.6122 H   0  0  0  0  0  0  0  0  0  0  0  0
    0.9316   -1.9293   -0.2037 H   0  0  0  0  0  0  0  0  0  0  0  0
   -1.5375   -2.1392   -0.0740 H   0  0  0  0  0  0  0  0  0  0  0  0
   -5.8053    2.9663    0.2861 B   0  0  0  0  0  0  0  0  0  0  0  0
   -5.3239    2.4579   -0.8455 F   0  0  0  0  0  0  0  0  0  0  0  0
   -4.2567    4.4052    0.4808 F   0  0  0  0  0  0  0  0  0  0  0  0
   -6.7811    3.8578    0.2447 F   0  0  0  0  0  0  0  0  0  0  0  0
   -5.5230    2.3444    1.4268 F   0  0  0  0  0  0  0  0  0  0  0  0
  1  4  1  0  0  0  0
  1  2  1  0  0  0  0
  2  3  1  0  0  0  0
  5 12  1  0  0  0  0
  5  4  2  0  0  0  0
  6  5  1  0  0  0  0
  7  6  1  0  0  0  0
  8  7  1  0  0  0  0
  8 15  1  0  0  0  0
  9  6  2  0  0  0  0
  9 10  1  0  0  0  0
 10  1  2  0  0  0  0
 11 20  1  0  0  0  0
 13  8  1  0  0  0  0
 14  8  1  0  0  0  0
 16  9  1  0  0  0  0
 17 10  1  0  0  0  0
 18 22  1  0  0  0  0
 19 18  1  0  0  0  0
 21 18  1  0  0  0  0
M  RAD  3   2   2   3   3   4   2
M  END
