Coordinates from ORCA-job 4-MeOPhN2+~BF4-_B3LYPG-6-31G_dp-CH-Scan-d09-49-n800
 OpenBabel11261919343D

 22 21  0  0  0  0  0  0  0  0999 V2000
   -2.1411    0.2150    0.3631 C   0  0  0  0  0  0  0  0  0  0  0  0
   -3.4890    0.0294    0.5482 N   0  0  0  0  0  0  0  0  0  0  0  0
   -4.5726   -0.1756    0.7257 N   0  0  0  0  0  0  0  0  0  0  0  0
   -1.5856    1.5069    0.4891 C   0  0  0  0  0  0  0  0  0  0  0  0
   -0.2234    1.6269    0.3187 C   0  0  0  0  0  0  0  0  0  0  0  0
    0.5751    0.5028    0.0156 C   0  0  0  0  0  0  0  0  0  0  0  0
    1.8835    0.7493   -0.1377 O   0  0  0  0  0  0  0  0  0  0  0  0
    2.7750   -0.3226   -0.4548 C   0  0  0  0  0  0  0  0  0  0  0  0
   -0.0074   -0.7782   -0.1061 C   0  0  0  0  0  0  0  0  0  0  0  0
   -1.3702   -0.9259    0.0737 C   0  0  0  0  0  0  0  0  0  0  0  0
   -2.2679    2.3784    0.7184 H   0  0  0  0  0  0  0  0  0  0  0  0
    0.2617    2.5927    0.4043 H   0  0  0  0  0  0  0  0  0  0  0  0
    3.7633    0.1301   -0.5239 H   0  0  0  0  0  0  0  0  0  0  0  0
    2.5152   -0.7807   -1.4152 H   0  0  0  0  0  0  0  0  0  0  0  0
    2.7750   -1.0830    0.3342 H   0  0  0  0  0  0  0  0  0  0  0  0
    0.5936   -1.6474   -0.3387 H   0  0  0  0  0  0  0  0  0  0  0  0
   -1.8408   -1.8990   -0.0155 H   0  0  0  0  0  0  0  0  0  0  0  0
   -4.7525    2.8099    0.0148 B   0  0  0  0  0  0  0  0  0  0  0  0
   -3.9547    2.0843   -0.9164 F   0  0  0  0  0  0  0  0  0  0  0  0
   -3.8874    3.2043    1.0786 F   0  0  0  0  0  0  0  0  0  0  0  0
   -5.3464    3.8953   -0.5744 F   0  0  0  0  0  0  0  0  0  0  0  0
   -5.7072    1.9069    0.5448 F   0  0  0  0  0  0  0  0  0  0  0  0
  1  4  1  0  0  0  0
  1  2  1  0  0  0  0
  2  3  1  0  0  0  0
  4 11  1  0  0  0  0
  5 12  1  0  0  0  0
  5  4  2  0  0  0  0
  6  5  1  0  0  0  0
  7  6  1  0  0  0  0
  8  7  1  0  0  0  0
  8 15  1  0  0  0  0
  9  6  2  0  0  0  0
  9 10  1  0  0  0  0
 10  1  2  0  0  0  0
 13  8  1  0  0  0  0
 14  8  1  0  0  0  0
 16  9  1  0  0  0  0
 17 10  1  0  0  0  0
 18 22  1  0  0  0  0
 18 20  1  0  0  0  0
 19 18  1  0  0  0  0
 21 18  1  0  0  0  0
M  RAD  2   2   2   3   3
M  END
