Coordinates from ORCA-job 4-MeOPhN2+~BF4-_B3LYPG-6-31G_dp-CH-Scan-d09-49-n800
 OpenBabel11261919343D

 22 20  0  0  0  0  0  0  0  0999 V2000
   -2.0642    0.0663    0.0845 C   0  0  0  0  0  0  0  0  0  0  0  0
   -3.4176   -0.1552    0.1436 N   0  0  0  0  0  0  0  0  0  0  0  0
   -4.5242   -0.3107    0.1925 N   0  0  0  0  0  0  0  0  0  0  0  0
   -1.6311    1.4155    0.1383 C   0  0  0  0  0  0  0  0  0  0  0  0
   -0.2414    1.5264    0.0711 C   0  0  0  0  0  0  0  0  0  0  0  0
    0.6221    0.4206   -0.0373 C   0  0  0  0  0  0  0  0  0  0  0  0
    1.9386    0.7021   -0.0910 O   0  0  0  0  0  0  0  0  0  0  0  0
    2.8869   -0.3569   -0.2016 C   0  0  0  0  0  0  0  0  0  0  0  0
    0.1099   -0.9030   -0.0845 C   0  0  0  0  0  0  0  0  0  0  0  0
   -1.2520   -1.0904   -0.0231 C   0  0  0  0  0  0  0  0  0  0  0  0
   -2.8037    2.8675    0.2722 H   0  0  0  0  0  0  0  0  0  0  0  0
    0.2353    2.5038    0.1015 H   0  0  0  0  0  0  0  0  0  0  0  0
    3.8647    0.1239   -0.2249 H   0  0  0  0  0  0  0  0  0  0  0  0
    2.7421   -0.9284   -1.1258 H   0  0  0  0  0  0  0  0  0  0  0  0
    2.8351   -1.0317    0.6610 H   0  0  0  0  0  0  0  0  0  0  0  0
    0.7665   -1.7593   -0.1665 H   0  0  0  0  0  0  0  0  0  0  0  0
   -1.6842   -2.0863   -0.0563 H   0  0  0  0  0  0  0  0  0  0  0  0
   -5.0448    2.9451    0.2936 B   0  0  0  0  0  0  0  0  0  0  0  0
   -5.0045    2.2561   -0.8793 F   0  0  0  0  0  0  0  0  0  0  0  0
   -3.4863    3.6124    0.3446 F   0  0  0  0  0  0  0  0  0  0  0  0
   -5.8132    4.0458    0.3311 F   0  0  0  0  0  0  0  0  0  0  0  0
   -5.0377    2.1559    1.4026 F   0  0  0  0  0  0  0  0  0  0  0  0
  1  4  1  0  0  0  0
  1  2  1  0  0  0  0
  2  3  1  0  0  0  0
  5 12  1  0  0  0  0
  5  4  2  0  0  0  0
  6  5  1  0  0  0  0
  7  6  1  0  0  0  0
  8  7  1  0  0  0  0
  8 15  1  0  0  0  0
  9  6  2  0  0  0  0
  9 10  1  0  0  0  0
 10  1  2  0  0  0  0
 11 20  1  0  0  0  0
 13  8  1  0  0  0  0
 14  8  1  0  0  0  0
 16  9  1  0  0  0  0
 17 10  1  0  0  0  0
 18 21  1  0  0  0  0
 18 22  1  0  0  0  0
 19 18  1  0  0  0  0
M  RAD  3   2   2   3   3   4   2
M  END
