Coordinates from ORCA-job 4-MeOPhN2+~BF4-_B3LYPG-6-31G_dp-CH-Scan-d09-49-n800
 OpenBabel11261919343D

 22 20  0  0  0  0  0  0  0  0999 V2000
   -1.9305    0.0483    0.0924 C   0  0  0  0  0  0  0  0  0  0  0  0
   -3.2908   -0.1298    0.1632 N   0  0  0  0  0  0  0  0  0  0  0  0
   -4.4045   -0.2396    0.2189 N   0  0  0  0  0  0  0  0  0  0  0  0
   -1.4874    1.3936    0.1537 C   0  0  0  0  0  0  0  0  0  0  0  0
   -0.0899    1.4659    0.0775 C   0  0  0  0  0  0  0  0  0  0  0  0
    0.7480    0.3441   -0.0440 C   0  0  0  0  0  0  0  0  0  0  0  0
    2.0740    0.5948   -0.1035 O   0  0  0  0  0  0  0  0  0  0  0  0
    2.9951   -0.4847   -0.2257 C   0  0  0  0  0  0  0  0  0  0  0  0
    0.2107   -0.9723   -0.0990 C   0  0  0  0  0  0  0  0  0  0  0  0
   -1.1529   -1.1334   -0.0301 C   0  0  0  0  0  0  0  0  0  0  0  0
   -3.0755    3.3552    0.3562 H   0  0  0  0  0  0  0  0  0  0  0  0
    0.4157    2.4301    0.1113 H   0  0  0  0  0  0  0  0  0  0  0  0
    3.9849   -0.0282   -0.2489 H   0  0  0  0  0  0  0  0  0  0  0  0
    2.8352   -1.0467   -1.1535 H   0  0  0  0  0  0  0  0  0  0  0  0
    2.9315   -1.1663    0.6311 H   0  0  0  0  0  0  0  0  0  0  0  0
    0.8518   -1.8393   -0.1924 H   0  0  0  0  0  0  0  0  0  0  0  0
   -1.6073   -2.1200   -0.0683 H   0  0  0  0  0  0  0  0  0  0  0  0
   -5.4529    2.9673    0.2814 B   0  0  0  0  0  0  0  0  0  0  0  0
   -5.1711    2.3420   -0.8696 F   0  0  0  0  0  0  0  0  0  0  0  0
   -3.7942    3.9695    0.4207 F   0  0  0  0  0  0  0  0  0  0  0  0
   -6.2740    4.0115    0.2662 F   0  0  0  0  0  0  0  0  0  0  0  0
   -5.3200    2.2578    1.4089 F   0  0  0  0  0  0  0  0  0  0  0  0
  1  4  1  0  0  0  0
  1  2  1  0  0  0  0
  2  3  1  0  0  0  0
  5 12  1  0  0  0  0
  5  4  2  0  0  0  0
  6  5  1  0  0  0  0
  7  6  1  0  0  0  0
  8  7  1  0  0  0  0
  8 15  1  0  0  0  0
  9  6  2  0  0  0  0
  9 10  1  0  0  0  0
 10  1  2  0  0  0  0
 11 20  1  0  0  0  0
 13  8  1  0  0  0  0
 14  8  1  0  0  0  0
 16  9  1  0  0  0  0
 17 10  1  0  0  0  0
 18 22  1  0  0  0  0
 19 18  1  0  0  0  0
 21 18  1  0  0  0  0
M  RAD  3   2   2   3   3   4   2
M  END
