Coordinates from ORCA-job 4-MeOPhN2+~BF4-_B3LYPG-6-31G_dp-CH-Scan-d09-49-n800
 OpenBabel11261919343D

 22 20  0  0  0  0  0  0  0  0999 V2000
   -2.1139    0.0885    0.1967 C   0  0  0  0  0  0  0  0  0  0  0  0
   -3.4623   -0.1419    0.3030 N   0  0  0  0  0  0  0  0  0  0  0  0
   -4.5617   -0.3148    0.4026 N   0  0  0  0  0  0  0  0  0  0  0  0
   -1.6608    1.4269    0.3004 C   0  0  0  0  0  0  0  0  0  0  0  0
   -0.2803    1.5538    0.1924 C   0  0  0  0  0  0  0  0  0  0  0  0
    0.5771    0.4539   -0.0045 C   0  0  0  0  0  0  0  0  0  0  0  0
    1.8885    0.7398   -0.0915 O   0  0  0  0  0  0  0  0  0  0  0  0
    2.8325   -0.3112   -0.2936 C   0  0  0  0  0  0  0  0  0  0  0  0
    0.0588   -0.8627   -0.1013 C   0  0  0  0  0  0  0  0  0  0  0  0
   -1.3014   -1.0536    0.0006 C   0  0  0  0  0  0  0  0  0  0  0  0
   -2.6797    2.6636    0.4658 H   0  0  0  0  0  0  0  0  0  0  0  0
    0.1893    2.5319    0.2545 H   0  0  0  0  0  0  0  0  0  0  0  0
    3.8085    0.1722   -0.3255 H   0  0  0  0  0  0  0  0  0  0  0  0
    2.6534   -0.8306   -1.2419 H   0  0  0  0  0  0  0  0  0  0  0  0
    2.8099   -1.0312    0.5328 H   0  0  0  0  0  0  0  0  0  0  0  0
    0.7091   -1.7143   -0.2524 H   0  0  0  0  0  0  0  0  0  0  0  0
   -1.7344   -2.0469   -0.0682 H   0  0  0  0  0  0  0  0  0  0  0  0
   -4.8614    2.9137    0.1448 B   0  0  0  0  0  0  0  0  0  0  0  0
   -4.5963    2.1570   -0.9763 F   0  0  0  0  0  0  0  0  0  0  0  0
   -3.4354    3.4847    0.5430 F   0  0  0  0  0  0  0  0  0  0  0  0
   -5.6287    4.0081   -0.0577 F   0  0  0  0  0  0  0  0  0  0  0  0
   -5.2146    2.1329    1.2230 F   0  0  0  0  0  0  0  0  0  0  0  0
  1  4  1  0  0  0  0
  1  2  1  0  0  0  0
  2  3  1  0  0  0  0
  5 12  1  0  0  0  0
  5  4  2  0  0  0  0
  6  5  1  0  0  0  0
  7  6  1  0  0  0  0
  8  7  1  0  0  0  0
  8 15  1  0  0  0  0
  9  6  2  0  0  0  0
  9 10  1  0  0  0  0
 10  1  2  0  0  0  0
 11 20  1  0  0  0  0
 13  8  1  0  0  0  0
 14  8  1  0  0  0  0
 16  9  1  0  0  0  0
 17 10  1  0  0  0  0
 18 22  1  0  0  0  0
 19 18  1  0  0  0  0
 21 18  1  0  0  0  0
M  RAD  3   2   2   3   3   4   2
M  END
