Coordinates from ORCA-job 4-MeOPhN2+~BF4-_B3LYPG-6-31G_dp-CH-Scan-d09-49-n800
 OpenBabel11261919343D

 22 20  0  0  0  0  0  0  0  0999 V2000
   -1.6218    0.0861    0.0579 C   0  0  0  0  0  0  0  0  0  0  0  0
   -2.9956    0.0417    0.1525 N   0  0  0  0  0  0  0  0  0  0  0  0
   -4.1151    0.0714    0.2283 N   0  0  0  0  0  0  0  0  0  0  0  0
   -1.1003    1.4017    0.0426 C   0  0  0  0  0  0  0  0  0  0  0  0
    0.3040    1.3546   -0.0531 C   0  0  0  0  0  0  0  0  0  0  0  0
    1.0524    0.1695   -0.1204 C   0  0  0  0  0  0  0  0  0  0  0  0
    2.3974    0.3120   -0.2068 O   0  0  0  0  0  0  0  0  0  0  0  0
    3.2284   -0.8406   -0.2720 C   0  0  0  0  0  0  0  0  0  0  0  0
    0.4202   -1.1082   -0.0975 C   0  0  0  0  0  0  0  0  0  0  0  0
   -0.9500   -1.1644   -0.0064 C   0  0  0  0  0  0  0  0  0  0  0  0
   -4.1325    4.5418    0.5033 H   0  0  0  0  0  0  0  0  0  0  0  0
    0.8864    2.2769   -0.0781 H   0  0  0  0  0  0  0  0  0  0  0  0
    4.2516   -0.4670   -0.3282 H   0  0  0  0  0  0  0  0  0  0  0  0
    3.0163   -1.4427   -1.1642 H   0  0  0  0  0  0  0  0  0  0  0  0
    3.1222   -1.4665    0.6226 H   0  0  0  0  0  0  0  0  0  0  0  0
    0.9973   -2.0228   -0.1499 H   0  0  0  0  0  0  0  0  0  0  0  0
   -1.4791   -2.1144    0.0145 H   0  0  0  0  0  0  0  0  0  0  0  0
   -6.0678    2.9755    0.2847 B   0  0  0  0  0  0  0  0  0  0  0  0
   -5.0887    2.7023   -0.5799 F   0  0  0  0  0  0  0  0  0  0  0  0
   -4.9187    4.7071    0.9734 F   0  0  0  0  0  0  0  0  0  0  0  0
   -7.1216    3.6588   -0.1248 F   0  0  0  0  0  0  0  0  0  0  0  0
   -6.0887    2.3472    1.4479 F   0  0  0  0  0  0  0  0  0  0  0  0
  1  2  1  0  0  0  0
  2  3  1  0  0  0  0
  4  1  1  0  0  0  0
  5  4  2  0  0  0  0
  6  9  2  0  0  0  0
  6  5  1  0  0  0  0
  7  6  1  0  0  0  0
  8  7  1  0  0  0  0
  8 15  1  0  0  0  0
  9 10  1  0  0  0  0
 10 17  1  0  0  0  0
 10  1  2  0  0  0  0
 11 20  1  0  0  0  0
 12  5  1  0  0  0  0
 13  8  1  0  0  0  0
 14  8  1  0  0  0  0
 16  9  1  0  0  0  0
 18 22  1  0  0  0  0
 19 18  1  0  0  0  0
 21 18  1  0  0  0  0
M  RAD  3   2   2   3   3   4   2
M  END
