Coordinates from ORCA-job 4-MeOPhN2+~BF4-_B3LYPG-6-31G_dp-CH-Scan-d09-49-n800
 OpenBabel11261919343D

 22 20  0  0  0  0  0  0  0  0999 V2000
   -2.0623    0.0660    0.0864 C   0  0  0  0  0  0  0  0  0  0  0  0
   -3.4158   -0.1551    0.1459 N   0  0  0  0  0  0  0  0  0  0  0  0
   -4.5225   -0.3102    0.1954 N   0  0  0  0  0  0  0  0  0  0  0  0
   -1.6291    1.4150    0.1410 C   0  0  0  0  0  0  0  0  0  0  0  0
   -0.2393    1.5255    0.0730 C   0  0  0  0  0  0  0  0  0  0  0  0
    0.6238    0.4196   -0.0367 C   0  0  0  0  0  0  0  0  0  0  0  0
    1.9404    0.7007   -0.0912 O   0  0  0  0  0  0  0  0  0  0  0  0
    2.8882   -0.3585   -0.2032 C   0  0  0  0  0  0  0  0  0  0  0  0
    0.1112   -0.9039   -0.0847 C   0  0  0  0  0  0  0  0  0  0  0  0
   -1.2506   -1.0910   -0.0226 C   0  0  0  0  0  0  0  0  0  0  0  0
   -2.8083    2.8746    0.2755 H   0  0  0  0  0  0  0  0  0  0  0  0
    0.2379    2.5027    0.1038 H   0  0  0  0  0  0  0  0  0  0  0  0
    3.8662    0.1220   -0.2269 H   0  0  0  0  0  0  0  0  0  0  0  0
    2.7427   -0.9293   -1.1277 H   0  0  0  0  0  0  0  0  0  0  0  0
    2.8369   -1.0340    0.6589 H   0  0  0  0  0  0  0  0  0  0  0  0
    0.7676   -1.7603   -0.1679 H   0  0  0  0  0  0  0  0  0  0  0  0
   -1.6832   -2.0868   -0.0564 H   0  0  0  0  0  0  0  0  0  0  0  0
   -5.0496    2.9458    0.2914 B   0  0  0  0  0  0  0  0  0  0  0  0
   -5.0041    2.2578   -0.8816 F   0  0  0  0  0  0  0  0  0  0  0  0
   -3.4910    3.6169    0.3468 F   0  0  0  0  0  0  0  0  0  0  0  0
   -5.8194    4.0455    0.3272 F   0  0  0  0  0  0  0  0  0  0  0  0
   -5.0434    2.1568    1.4002 F   0  0  0  0  0  0  0  0  0  0  0  0
  1  4  1  0  0  0  0
  1  2  1  0  0  0  0
  2  3  1  0  0  0  0
  5 12  1  0  0  0  0
  5  4  2  0  0  0  0
  6  5  1  0  0  0  0
  7  6  1  0  0  0  0
  8  7  1  0  0  0  0
  8 15  1  0  0  0  0
  9  6  2  0  0  0  0
  9 10  1  0  0  0  0
 10  1  2  0  0  0  0
 11 20  1  0  0  0  0
 13  8  1  0  0  0  0
 14  8  1  0  0  0  0
 16  9  1  0  0  0  0
 17 10  1  0  0  0  0
 18 21  1  0  0  0  0
 18 22  1  0  0  0  0
 19 18  1  0  0  0  0
M  RAD  3   2   2   3   3   4   2
M  END
