Coordinates from ORCA-job 4-MeOPhN2+~BF4-_B3LYPG-6-31G_dp-CH-Scan-d09-49-n800
 OpenBabel11261919343D

 22 20  0  0  0  0  0  0  0  0999 V2000
   -2.1347    0.1077    0.2222 C   0  0  0  0  0  0  0  0  0  0  0  0
   -3.4821   -0.1174    0.3453 N   0  0  0  0  0  0  0  0  0  0  0  0
   -4.5789   -0.2892    0.4649 N   0  0  0  0  0  0  0  0  0  0  0  0
   -1.6591    1.4355    0.3379 C   0  0  0  0  0  0  0  0  0  0  0  0
   -0.2846    1.5702    0.2216 C   0  0  0  0  0  0  0  0  0  0  0  0
    0.5653    0.4674    0.0016 C   0  0  0  0  0  0  0  0  0  0  0  0
    1.8751    0.7492   -0.0924 O   0  0  0  0  0  0  0  0  0  0  0  0
    2.8139   -0.3031   -0.3177 C   0  0  0  0  0  0  0  0  0  0  0  0
    0.0369   -0.8427   -0.1087 C   0  0  0  0  0  0  0  0  0  0  0  0
   -1.3243   -1.0293    0.0033 C   0  0  0  0  0  0  0  0  0  0  0  0
   -2.5988    2.5725    0.5151 H   0  0  0  0  0  0  0  0  0  0  0  0
    0.1819    2.5482    0.2931 H   0  0  0  0  0  0  0  0  0  0  0  0
    3.7912    0.1775   -0.3499 H   0  0  0  0  0  0  0  0  0  0  0  0
    2.6246   -0.8066   -1.2722 H   0  0  0  0  0  0  0  0  0  0  0  0
    2.7940   -1.0345    0.4984 H   0  0  0  0  0  0  0  0  0  0  0  0
    0.6804   -1.6959   -0.2783 H   0  0  0  0  0  0  0  0  0  0  0  0
   -1.7612   -2.0198   -0.0756 H   0  0  0  0  0  0  0  0  0  0  0  0
   -4.7902    2.8970    0.1197 B   0  0  0  0  0  0  0  0  0  0  0  0
   -4.4493    2.1157   -0.9805 F   0  0  0  0  0  0  0  0  0  0  0  0
   -3.4622    3.4658    0.6100 F   0  0  0  0  0  0  0  0  0  0  0  0
   -5.5926    3.9537   -0.1708 F   0  0  0  0  0  0  0  0  0  0  0  0
   -5.2492    2.0976    1.1594 F   0  0  0  0  0  0  0  0  0  0  0  0
  1  4  1  0  0  0  0
  1  2  1  0  0  0  0
  2  3  1  0  0  0  0
  5 12  1  0  0  0  0
  5  4  2  0  0  0  0
  6  5  1  0  0  0  0
  7  6  1  0  0  0  0
  8  7  1  0  0  0  0
  8 15  1  0  0  0  0
  9  6  2  0  0  0  0
  9 10  1  0  0  0  0
 10  1  2  0  0  0  0
 11 20  1  0  0  0  0
 13  8  1  0  0  0  0
 14  8  1  0  0  0  0
 16  9  1  0  0  0  0
 17 10  1  0  0  0  0
 18 22  1  0  0  0  0
 19 18  1  0  0  0  0
 21 18  1  0  0  0  0
M  RAD  3   2   2   3   3   4   2
M  END
