Coordinates from ORCA-job 4-MeOPhN2+~BF4-_B3LYPG-6-31G_dp-CH-Scan-d09-49-n800
 OpenBabel11261919343D

 22 20  0  0  0  0  0  0  0  0999 V2000
   -2.1031    0.0833    0.0166 C   0  0  0  0  0  0  0  0  0  0  0  0
   -3.4566   -0.1433    0.0447 N   0  0  0  0  0  0  0  0  0  0  0  0
   -4.5620   -0.3071    0.0655 N   0  0  0  0  0  0  0  0  0  0  0  0
   -1.6641    1.4308    0.0372 C   0  0  0  0  0  0  0  0  0  0  0  0
   -0.2769    1.5495   -0.0008 C   0  0  0  0  0  0  0  0  0  0  0  0
    0.5911    0.4423   -0.0524 C   0  0  0  0  0  0  0  0  0  0  0  0
    1.9063    0.7264   -0.0840 O   0  0  0  0  0  0  0  0  0  0  0  0
    2.8606   -0.3327   -0.1347 C   0  0  0  0  0  0  0  0  0  0  0  0
    0.0807   -0.8814   -0.0681 C   0  0  0  0  0  0  0  0  0  0  0  0
   -1.2826   -1.0698   -0.0339 C   0  0  0  0  0  0  0  0  0  0  0  0
   -2.7288    2.7479    0.1266 H   0  0  0  0  0  0  0  0  0  0  0  0
    0.1921    2.5304    0.0103 H   0  0  0  0  0  0  0  0  0  0  0  0
    3.8369    0.1511   -0.1520 H   0  0  0  0  0  0  0  0  0  0  0  0
    2.7387   -0.9365   -1.0413 H   0  0  0  0  0  0  0  0  0  0  0  0
    2.7898   -0.9759    0.7502 H   0  0  0  0  0  0  0  0  0  0  0  0
    0.7394   -1.7393   -0.1059 H   0  0  0  0  0  0  0  0  0  0  0  0
   -1.7114   -2.0675   -0.0451 H   0  0  0  0  0  0  0  0  0  0  0  0
   -4.9245    2.9238    0.3800 B   0  0  0  0  0  0  0  0  0  0  0  0
   -5.1177    2.2418   -0.7934 F   0  0  0  0  0  0  0  0  0  0  0  0
   -3.4372    3.5465    0.1966 F   0  0  0  0  0  0  0  0  0  0  0  0
   -5.7023    4.0086    0.5717 F   0  0  0  0  0  0  0  0  0  0  0  0
   -4.7722    2.0908    1.4587 F   0  0  0  0  0  0  0  0  0  0  0  0
  1  4  1  0  0  0  0
  1  2  1  0  0  0  0
  2  3  1  0  0  0  0
  5 12  1  0  0  0  0
  5  4  2  0  0  0  0
  6  5  1  0  0  0  0
  7  6  1  0  0  0  0
  8  7  1  0  0  0  0
  8 15  1  0  0  0  0
  9  6  2  0  0  0  0
  9 10  1  0  0  0  0
 10  1  2  0  0  0  0
 11 20  1  0  0  0  0
 13  8  1  0  0  0  0
 14  8  1  0  0  0  0
 16  9  1  0  0  0  0
 17 10  1  0  0  0  0
 18 21  1  0  0  0  0
 18 22  1  0  0  0  0
 19 18  1  0  0  0  0
M  RAD  3   2   2   3   3   4   2
M  END
