Coordinates from ORCA-job 4-MeOPhN2+~BF4-_B3LYPG-6-31G_dp-CH-Scan-d09-49-n800
 OpenBabel11261919343D

 22 20  0  0  0  0  0  0  0  0999 V2000
   -1.5567    0.1361   -0.0587 C   0  0  0  0  0  0  0  0  0  0  0  0
   -2.9338    0.1381   -0.0102 N   0  0  0  0  0  0  0  0  0  0  0  0
   -4.0537    0.2076    0.0271 N   0  0  0  0  0  0  0  0  0  0  0  0
   -0.9965    1.4341   -0.1172 C   0  0  0  0  0  0  0  0  0  0  0  0
    0.4083    1.3433   -0.1633 C   0  0  0  0  0  0  0  0  0  0  0  0
    1.1223    0.1355   -0.1509 C   0  0  0  0  0  0  0  0  0  0  0  0
    2.4733    0.2353   -0.1994 O   0  0  0  0  0  0  0  0  0  0  0  0
    3.2706   -0.9426   -0.1886 C   0  0  0  0  0  0  0  0  0  0  0  0
    0.4518   -1.1216   -0.0902 C   0  0  0  0  0  0  0  0  0  0  0  0
   -0.9217   -1.1350   -0.0425 C   0  0  0  0  0  0  0  0  0  0  0  0
   -4.4565    4.7708    0.4482 H   0  0  0  0  0  0  0  0  0  0  0  0
    1.0182    2.2466   -0.2116 H   0  0  0  0  0  0  0  0  0  0  0  0
    4.3059   -0.6015   -0.2313 H   0  0  0  0  0  0  0  0  0  0  0  0
    3.0651   -1.5781   -1.0588 H   0  0  0  0  0  0  0  0  0  0  0  0
    3.1210   -1.5240    0.7296 H   0  0  0  0  0  0  0  0  0  0  0  0
    1.0033   -2.0533   -0.0810 H   0  0  0  0  0  0  0  0  0  0  0  0
   -1.4793   -2.0676    0.0051 H   0  0  0  0  0  0  0  0  0  0  0  0
   -6.1488    2.9489    0.4040 B   0  0  0  0  0  0  0  0  0  0  0  0
   -5.2353    2.8484   -0.5639 F   0  0  0  0  0  0  0  0  0  0  0  0
   -5.1792    4.8202    1.0325 F   0  0  0  0  0  0  0  0  0  0  0  0
   -7.3264    3.4801    0.1295 F   0  0  0  0  0  0  0  0  0  0  0  0
   -5.9557    2.2984    1.5384 F   0  0  0  0  0  0  0  0  0  0  0  0
  1 10  1  0  0  0  0
  1  2  1  0  0  0  0
  2  3  1  0  0  0  0
  4  1  2  0  0  0  0
  5  6  2  0  0  0  0
  5  4  1  0  0  0  0
  6  9  1  0  0  0  0
  7  8  1  0  0  0  0
  7  6  1  0  0  0  0
  8 15  1  0  0  0  0
  9 16  1  0  0  0  0
  9 10  2  0  0  0  0
 10 17  1  0  0  0  0
 11 20  1  0  0  0  0
 12  5  1  0  0  0  0
 13  8  1  0  0  0  0
 14  8  1  0  0  0  0
 18 22  1  0  0  0  0
 19 18  1  0  0  0  0
 21 18  1  0  0  0  0
M  RAD  3   2   2   3   3   4   2
M  END
