Coordinates from ORCA-job 4-MeOPhN2+~BF4-_B3LYPG-6-31G_dp-CH-Scan-d09-49-n800
 OpenBabel11261919343D

 22 20  0  0  0  0  0  0  0  0999 V2000
   -1.8769    0.0434    0.0710 C   0  0  0  0  0  0  0  0  0  0  0  0
   -3.2410   -0.1135    0.1313 N   0  0  0  0  0  0  0  0  0  0  0  0
   -4.3577   -0.1966    0.1845 N   0  0  0  0  0  0  0  0  0  0  0  0
   -1.4264    1.3860    0.1324 C   0  0  0  0  0  0  0  0  0  0  0  0
   -0.0258    1.4411    0.0649 C   0  0  0  0  0  0  0  0  0  0  0  0
    0.8010    0.3109   -0.0481 C   0  0  0  0  0  0  0  0  0  0  0  0
    2.1311    0.5471   -0.1000 O   0  0  0  0  0  0  0  0  0  0  0  0
    3.0408   -0.5423   -0.2139 C   0  0  0  0  0  0  0  0  0  0  0  0
    0.2515   -1.0013   -0.1028 C   0  0  0  0  0  0  0  0  0  0  0  0
   -1.1138   -1.1490   -0.0427 C   0  0  0  0  0  0  0  0  0  0  0  0
   -3.2009    3.5780    0.3339 H   0  0  0  0  0  0  0  0  0  0  0  0
    0.4913    2.3997    0.0993 H   0  0  0  0  0  0  0  0  0  0  0  0
    4.0358   -0.0969   -0.2329 H   0  0  0  0  0  0  0  0  0  0  0  0
    2.8804   -1.1057   -1.1410 H   0  0  0  0  0  0  0  0  0  0  0  0
    2.9655   -1.2211    0.6442 H   0  0  0  0  0  0  0  0  0  0  0  0
    0.8854   -1.8744   -0.1894 H   0  0  0  0  0  0  0  0  0  0  0  0
   -1.5783   -2.1311   -0.0812 H   0  0  0  0  0  0  0  0  0  0  0  0
   -5.6002    2.9677    0.3150 B   0  0  0  0  0  0  0  0  0  0  0  0
   -5.2894    2.3762   -0.8407 F   0  0  0  0  0  0  0  0  0  0  0  0
   -3.9500    4.1410    0.3954 F   0  0  0  0  0  0  0  0  0  0  0  0
   -6.4757    3.9625    0.3254 F   0  0  0  0  0  0  0  0  0  0  0  0
   -5.3503    2.2980    1.4418 F   0  0  0  0  0  0  0  0  0  0  0  0
  1  2  1  0  0  0  0
  1  4  1  0  0  0  0
  2  3  1  0  0  0  0
  5 12  1  0  0  0  0
  5  4  2  0  0  0  0
  6  5  1  0  0  0  0
  7  6  1  0  0  0  0
  8  7  1  0  0  0  0
  8 15  1  0  0  0  0
  9  6  2  0  0  0  0
  9 10  1  0  0  0  0
 10  1  2  0  0  0  0
 11 20  1  0  0  0  0
 13  8  1  0  0  0  0
 14  8  1  0  0  0  0
 16  9  1  0  0  0  0
 17 10  1  0  0  0  0
 18 21  1  0  0  0  0
 18 22  1  0  0  0  0
 19 18  1  0  0  0  0
M  RAD  3   2   2   3   3   4   2
M  END
