Coordinates from ORCA-job 4-MeOPhN2+~BF4-_B3LYPG-6-31G_dp-CH-Scan-d09-49-n800
 OpenBabel11261919343D

 22 21  0  0  0  0  0  0  0  0999 V2000
   -2.1349    0.2732    0.3717 C   0  0  0  0  0  0  0  0  0  0  0  0
   -3.4851    0.0993    0.5600 N   0  0  0  0  0  0  0  0  0  0  0  0
   -4.5629   -0.1440    0.7210 N   0  0  0  0  0  0  0  0  0  0  0  0
   -1.5640    1.5616    0.4470 C   0  0  0  0  0  0  0  0  0  0  0  0
   -0.2022    1.6618    0.2609 C   0  0  0  0  0  0  0  0  0  0  0  0
    0.5834    0.5199   -0.0054 C   0  0  0  0  0  0  0  0  0  0  0  0
    1.8928    0.7479   -0.1792 O   0  0  0  0  0  0  0  0  0  0  0  0
    2.7714   -0.3445   -0.4592 C   0  0  0  0  0  0  0  0  0  0  0  0
   -0.0125   -0.7585   -0.0710 C   0  0  0  0  0  0  0  0  0  0  0  0
   -1.3758   -0.8848    0.1231 C   0  0  0  0  0  0  0  0  0  0  0  0
   -2.1971    2.3936    0.6511 H   0  0  0  0  0  0  0  0  0  0  0  0
    0.2922    2.6256    0.3076 H   0  0  0  0  0  0  0  0  0  0  0  0
    3.7626    0.0959   -0.5595 H   0  0  0  0  0  0  0  0  0  0  0  0
    2.4966   -0.8423   -1.3955 H   0  0  0  0  0  0  0  0  0  0  0  0
    2.7743   -1.0694    0.3626 H   0  0  0  0  0  0  0  0  0  0  0  0
    0.5778   -1.6429   -0.2714 H   0  0  0  0  0  0  0  0  0  0  0  0
   -1.8563   -1.8560    0.0746 H   0  0  0  0  0  0  0  0  0  0  0  0
   -4.7766    2.7513    0.0286 B   0  0  0  0  0  0  0  0  0  0  0  0
   -3.9173    2.1715   -0.9491 F   0  0  0  0  0  0  0  0  0  0  0  0
   -4.0071    2.8429    1.2297 F   0  0  0  0  0  0  0  0  0  0  0  0
   -5.2352    3.9801   -0.3689 F   0  0  0  0  0  0  0  0  0  0  0  0
   -5.8278    1.8376    0.2678 F   0  0  0  0  0  0  0  0  0  0  0  0
  1  4  1  0  0  0  0
  1  2  1  0  0  0  0
  2  3  1  0  0  0  0
  4 11  1  0  0  0  0
  5 12  1  0  0  0  0
  5  4  2  0  0  0  0
  6  5  1  0  0  0  0
  7  6  1  0  0  0  0
  8  7  1  0  0  0  0
  8 15  1  0  0  0  0
  9  6  2  0  0  0  0
  9 10  1  0  0  0  0
 10  1  2  0  0  0  0
 13  8  1  0  0  0  0
 14  8  1  0  0  0  0
 16  9  1  0  0  0  0
 17 10  1  0  0  0  0
 18 22  1  0  0  0  0
 18 20  1  0  0  0  0
 19 18  1  0  0  0  0
 21 18  1  0  0  0  0
M  RAD  2   2   2   3   3
M  END
