Coordinates from ORCA-job 4-MeOPhN2+~BF4-_B3LYPG-6-31G_dp-CH-Scan-d09-49-n800
 OpenBabel11261919343D

 22 20  0  0  0  0  0  0  0  0999 V2000
   -1.8552    0.0417    0.0759 C   0  0  0  0  0  0  0  0  0  0  0  0
   -3.2206   -0.1071    0.1382 N   0  0  0  0  0  0  0  0  0  0  0  0
   -4.3379   -0.1805    0.1965 N   0  0  0  0  0  0  0  0  0  0  0  0
   -1.4011    1.3828    0.1389 C   0  0  0  0  0  0  0  0  0  0  0  0
    0.0002    1.4311    0.0685 C   0  0  0  0  0  0  0  0  0  0  0  0
    0.8219    0.2978   -0.0481 C   0  0  0  0  0  0  0  0  0  0  0  0
    2.1533    0.5282   -0.1028 O   0  0  0  0  0  0  0  0  0  0  0  0
    3.0577   -0.5648   -0.2211 C   0  0  0  0  0  0  0  0  0  0  0  0
    0.2671   -1.0124   -0.1037 C   0  0  0  0  0  0  0  0  0  0  0  0
   -1.0987   -1.1547   -0.0410 C   0  0  0  0  0  0  0  0  0  0  0  0
   -3.2535    3.6658    0.3513 H   0  0  0  0  0  0  0  0  0  0  0  0
    0.5221    2.3873    0.1035 H   0  0  0  0  0  0  0  0  0  0  0  0
    4.0548   -0.1238   -0.2421 H   0  0  0  0  0  0  0  0  0  0  0  0
    2.8925   -1.1262   -1.1485 H   0  0  0  0  0  0  0  0  0  0  0  0
    2.9820   -1.2449    0.6361 H   0  0  0  0  0  0  0  0  0  0  0  0
    0.8976   -1.8878   -0.1927 H   0  0  0  0  0  0  0  0  0  0  0  0
   -1.5675   -2.1348   -0.0799 H   0  0  0  0  0  0  0  0  0  0  0  0
   -5.6550    2.9675    0.3071 B   0  0  0  0  0  0  0  0  0  0  0  0
   -5.3076    2.4002   -0.8484 F   0  0  0  0  0  0  0  0  0  0  0  0
   -4.0157    4.2073    0.4104 F   0  0  0  0  0  0  0  0  0  0  0  0
   -6.5527    3.9410    0.3156 F   0  0  0  0  0  0  0  0  0  0  0  0
   -5.3875    2.3060    1.4327 F   0  0  0  0  0  0  0  0  0  0  0  0
  1  2  1  0  0  0  0
  1  4  1  0  0  0  0
  2  3  1  0  0  0  0
  5 12  1  0  0  0  0
  5  4  2  0  0  0  0
  6  5  1  0  0  0  0
  7  6  1  0  0  0  0
  8  7  1  0  0  0  0
  8 15  1  0  0  0  0
  9  6  2  0  0  0  0
  9 10  1  0  0  0  0
 10  1  2  0  0  0  0
 11 20  1  0  0  0  0
 13  8  1  0  0  0  0
 14  8  1  0  0  0  0
 16  9  1  0  0  0  0
 17 10  1  0  0  0  0
 18 21  1  0  0  0  0
 18 22  1  0  0  0  0
 19 18  1  0  0  0  0
M  RAD  3   2   2   3   3   4   2
M  END
