Coordinates from ORCA-job 4-MeOPhN2+~BF4-_B3LYPG-6-31G_dp-CH-Scan-d09-49-n800
 OpenBabel11261919343D

 22 20  0  0  0  0  0  0  0  0999 V2000
   -1.6009    0.1020    0.0245 C   0  0  0  0  0  0  0  0  0  0  0  0
   -2.9758    0.0718    0.1078 N   0  0  0  0  0  0  0  0  0  0  0  0
   -4.0954    0.1136    0.1785 N   0  0  0  0  0  0  0  0  0  0  0  0
   -1.0673    1.4124   -0.0037 C   0  0  0  0  0  0  0  0  0  0  0  0
    0.3374    1.3512   -0.0865 C   0  0  0  0  0  0  0  0  0  0  0  0
    1.0752    0.1585   -0.1309 C   0  0  0  0  0  0  0  0  0  0  0  0
    2.4223    0.2873   -0.2071 O   0  0  0  0  0  0  0  0  0  0  0  0
    3.2428   -0.8739   -0.2488 C   0  0  0  0  0  0  0  0  0  0  0  0
    0.4310   -1.1130   -0.0965 C   0  0  0  0  0  0  0  0  0  0  0  0
   -0.9404   -1.1556   -0.0170 C   0  0  0  0  0  0  0  0  0  0  0  0
   -4.2393    4.6225    0.4870 H   0  0  0  0  0  0  0  0  0  0  0  0
    0.9284    2.2677   -0.1190 H   0  0  0  0  0  0  0  0  0  0  0  0
    4.2700   -0.5108   -0.3012 H   0  0  0  0  0  0  0  0  0  0  0  0
    3.0326   -1.4865   -1.1343 H   0  0  0  0  0  0  0  0  0  0  0  0
    3.1229   -1.4861    0.6535 H   0  0  0  0  0  0  0  0  0  0  0  0
    1.0002   -2.0334   -0.1315 H   0  0  0  0  0  0  0  0  0  0  0  0
   -1.4785   -2.1003    0.0121 H   0  0  0  0  0  0  0  0  0  0  0  0
   -6.0944    2.9666    0.3174 B   0  0  0  0  0  0  0  0  0  0  0  0
   -5.1188    2.7516   -0.5677 F   0  0  0  0  0  0  0  0  0  0  0  0
   -5.0054    4.7441    1.0016 F   0  0  0  0  0  0  0  0  0  0  0  0
   -7.1861    3.6042   -0.0650 F   0  0  0  0  0  0  0  0  0  0  0  0
   -6.0643    2.3260    1.4734 F   0  0  0  0  0  0  0  0  0  0  0  0
  1  2  1  0  0  0  0
  2  3  1  0  0  0  0
  4  1  1  0  0  0  0
  5  4  2  0  0  0  0
  6  9  2  0  0  0  0
  6  5  1  0  0  0  0
  7  6  1  0  0  0  0
  8  7  1  0  0  0  0
  8 15  1  0  0  0  0
  9 10  1  0  0  0  0
 10 17  1  0  0  0  0
 10  1  2  0  0  0  0
 11 20  1  0  0  0  0
 12  5  1  0  0  0  0
 13  8  1  0  0  0  0
 14  8  1  0  0  0  0
 16  9  1  0  0  0  0
 18 22  1  0  0  0  0
 19 18  1  0  0  0  0
 21 18  1  0  0  0  0
M  RAD  3   2   2   3   3   4   2
M  END
