Coordinates from ORCA-job 4-MeOPhN2+~BF4-_B3LYPG-6-31G_dp-CH-Scan-d09-49-n800
 OpenBabel11261919343D

 22 20  0  0  0  0  0  0  0  0999 V2000
   -1.6366    0.0813    0.0607 C   0  0  0  0  0  0  0  0  0  0  0  0
   -3.0104    0.0314    0.1554 N   0  0  0  0  0  0  0  0  0  0  0  0
   -4.1297    0.0616    0.2330 N   0  0  0  0  0  0  0  0  0  0  0  0
   -1.1210    1.3990    0.0461 C   0  0  0  0  0  0  0  0  0  0  0  0
    0.2833    1.3589   -0.0500 C   0  0  0  0  0  0  0  0  0  0  0  0
    1.0371    0.1772   -0.1185 C   0  0  0  0  0  0  0  0  0  0  0  0
    2.3814    0.3259   -0.2055 O   0  0  0  0  0  0  0  0  0  0  0  0
    3.2176   -0.8228   -0.2726 C   0  0  0  0  0  0  0  0  0  0  0  0
    0.4108   -1.1034   -0.0961 C   0  0  0  0  0  0  0  0  0  0  0  0
   -0.9591   -1.1659   -0.0044 C   0  0  0  0  0  0  0  0  0  0  0  0
   -4.0734    4.4972    0.5062 H   0  0  0  0  0  0  0  0  0  0  0  0
    0.8614    2.2838   -0.0745 H   0  0  0  0  0  0  0  0  0  0  0  0
    4.2390   -0.4444   -0.3293 H   0  0  0  0  0  0  0  0  0  0  0  0
    3.0074   -1.4250   -1.1651 H   0  0  0  0  0  0  0  0  0  0  0  0
    3.1151   -1.4500    0.6215 H   0  0  0  0  0  0  0  0  0  0  0  0
    0.9920   -2.0153   -0.1491 H   0  0  0  0  0  0  0  0  0  0  0  0
   -1.4839   -2.1184    0.0163 H   0  0  0  0  0  0  0  0  0  0  0  0
   -6.0429    2.9713    0.2794 B   0  0  0  0  0  0  0  0  0  0  0  0
   -5.0696    2.6797   -0.5857 F   0  0  0  0  0  0  0  0  0  0  0  0
   -4.8623    4.6808    0.9654 F   0  0  0  0  0  0  0  0  0  0  0  0
   -7.0853    3.6716   -0.1306 F   0  0  0  0  0  0  0  0  0  0  0  0
   -6.0746    2.3452    1.4439 F   0  0  0  0  0  0  0  0  0  0  0  0
  1  2  1  0  0  0  0
  2  3  1  0  0  0  0
  4  1  1  0  0  0  0
  5  4  2  0  0  0  0
  6  9  2  0  0  0  0
  6  5  1  0  0  0  0
  7  6  1  0  0  0  0
  8  7  1  0  0  0  0
  8 15  1  0  0  0  0
  9 10  1  0  0  0  0
 10 17  1  0  0  0  0
 10  1  2  0  0  0  0
 11 20  1  0  0  0  0
 12  5  1  0  0  0  0
 13  8  1  0  0  0  0
 14  8  1  0  0  0  0
 16  9  1  0  0  0  0
 18 22  1  0  0  0  0
 19 18  1  0  0  0  0
 21 18  1  0  0  0  0
M  RAD  3   2   2   3   3   4   2
M  END
