Coordinates from ORCA-job 4-MeOPhN2+~BF4-_B3LYPG-6-31G_dp-CH-Scan-d09-49-n800
 OpenBabel11261919343D

 22 20  0  0  0  0  0  0  0  0999 V2000
   -1.9255    0.0465    0.0897 C   0  0  0  0  0  0  0  0  0  0  0  0
   -3.2861   -0.1305    0.1589 N   0  0  0  0  0  0  0  0  0  0  0  0
   -4.3998   -0.2381    0.2190 N   0  0  0  0  0  0  0  0  0  0  0  0
   -1.4821    1.3916    0.1532 C   0  0  0  0  0  0  0  0  0  0  0  0
   -0.0843    1.4628    0.0783 C   0  0  0  0  0  0  0  0  0  0  0  0
    0.7529    0.3406   -0.0435 C   0  0  0  0  0  0  0  0  0  0  0  0
    2.0793    0.5903   -0.1012 O   0  0  0  0  0  0  0  0  0  0  0  0
    2.9996   -0.4897   -0.2236 C   0  0  0  0  0  0  0  0  0  0  0  0
    0.2149   -0.9755   -0.1006 C   0  0  0  0  0  0  0  0  0  0  0  0
   -1.1489   -1.1358   -0.0333 C   0  0  0  0  0  0  0  0  0  0  0  0
   -3.0873    3.3791    0.3472 H   0  0  0  0  0  0  0  0  0  0  0  0
    0.4221    2.4266    0.1138 H   0  0  0  0  0  0  0  0  0  0  0  0
    3.9898   -0.0340   -0.2452 H   0  0  0  0  0  0  0  0  0  0  0  0
    2.8404   -1.0506   -1.1523 H   0  0  0  0  0  0  0  0  0  0  0  0
    2.9346   -1.1723    0.6322 H   0  0  0  0  0  0  0  0  0  0  0  0
    0.8556   -1.8428   -0.1945 H   0  0  0  0  0  0  0  0  0  0  0  0
   -1.6039   -2.1221   -0.0732 H   0  0  0  0  0  0  0  0  0  0  0  0
   -5.4670    2.9687    0.2863 B   0  0  0  0  0  0  0  0  0  0  0  0
   -5.1874    2.3440   -0.8651 F   0  0  0  0  0  0  0  0  0  0  0  0
   -3.8091    3.9879    0.4110 F   0  0  0  0  0  0  0  0  0  0  0  0
   -6.2936    4.0083    0.2749 F   0  0  0  0  0  0  0  0  0  0  0  0
   -5.3179    2.2647    1.4146 F   0  0  0  0  0  0  0  0  0  0  0  0
  1  4  1  0  0  0  0
  1  2  1  0  0  0  0
  2  3  1  0  0  0  0
  5 12  1  0  0  0  0
  5  4  2  0  0  0  0
  6  5  1  0  0  0  0
  7  6  1  0  0  0  0
  8  7  1  0  0  0  0
  8 15  1  0  0  0  0
  9  6  2  0  0  0  0
  9 10  1  0  0  0  0
 10  1  2  0  0  0  0
 11 20  1  0  0  0  0
 13  8  1  0  0  0  0
 14  8  1  0  0  0  0
 16  9  1  0  0  0  0
 17 10  1  0  0  0  0
 18 22  1  0  0  0  0
 19 18  1  0  0  0  0
 21 18  1  0  0  0  0
M  RAD  3   2   2   3   3   4   2
M  END
