Coordinates from ORCA-job 4-MeOPhN2+~BF4-_B3LYPG-6-31G_dp-CH-Scan-d09-49-n800
 OpenBabel11261919343D

 22 20  0  0  0  0  0  0  0  0999 V2000
   -1.8412    0.0401    0.0776 C   0  0  0  0  0  0  0  0  0  0  0  0
   -3.2070   -0.1047    0.1405 N   0  0  0  0  0  0  0  0  0  0  0  0
   -4.3248   -0.1754    0.1947 N   0  0  0  0  0  0  0  0  0  0  0  0
   -1.3852    1.3805    0.1401 C   0  0  0  0  0  0  0  0  0  0  0  0
    0.0166    1.4244    0.0684 C   0  0  0  0  0  0  0  0  0  0  0  0
    0.8354    0.2892   -0.0490 C   0  0  0  0  0  0  0  0  0  0  0  0
    2.1676    0.5162   -0.1053 O   0  0  0  0  0  0  0  0  0  0  0  0
    3.0689   -0.5790   -0.2245 C   0  0  0  0  0  0  0  0  0  0  0  0
    0.2776   -1.0200   -0.1038 C   0  0  0  0  0  0  0  0  0  0  0  0
   -1.0884   -1.1589   -0.0398 C   0  0  0  0  0  0  0  0  0  0  0  0
   -3.2880    3.7247    0.3648 H   0  0  0  0  0  0  0  0  0  0  0  0
    0.5413    2.3793    0.1027 H   0  0  0  0  0  0  0  0  0  0  0  0
    4.0671   -0.1407   -0.2469 H   0  0  0  0  0  0  0  0  0  0  0  0
    2.9012   -1.1403   -1.1516 H   0  0  0  0  0  0  0  0  0  0  0  0
    2.9926   -1.2589    0.6328 H   0  0  0  0  0  0  0  0  0  0  0  0
    0.9059   -1.8968   -0.1932 H   0  0  0  0  0  0  0  0  0  0  0  0
   -1.5599   -2.1378   -0.0781 H   0  0  0  0  0  0  0  0  0  0  0  0
   -5.6884    2.9701    0.3050 B   0  0  0  0  0  0  0  0  0  0  0  0
   -5.3215    2.4123   -0.8484 F   0  0  0  0  0  0  0  0  0  0  0  0
   -4.0615    4.2488    0.4195 F   0  0  0  0  0  0  0  0  0  0  0  0
   -6.5991    3.9309    0.3089 F   0  0  0  0  0  0  0  0  0  0  0  0
   -5.4131    2.3155    1.4321 F   0  0  0  0  0  0  0  0  0  0  0  0
  1  4  1  0  0  0  0
  1  2  1  0  0  0  0
  2  3  1  0  0  0  0
  5 12  1  0  0  0  0
  5  4  2  0  0  0  0
  6  5  1  0  0  0  0
  7  6  1  0  0  0  0
  8  7  1  0  0  0  0
  8 15  1  0  0  0  0
  9  6  2  0  0  0  0
  9 10  1  0  0  0  0
 10  1  2  0  0  0  0
 11 20  1  0  0  0  0
 13  8  1  0  0  0  0
 14  8  1  0  0  0  0
 16  9  1  0  0  0  0
 17 10  1  0  0  0  0
 18 21  1  0  0  0  0
 18 22  1  0  0  0  0
 19 18  1  0  0  0  0
M  RAD  3   2   2   3   3   4   2
M  END
