Coordinates from ORCA-job 4-MeOPhN2+~BF4-_B3LYPG-6-31G_dp-CH-Scan-d09-49-n800
 OpenBabel11261919343D

 22 20  0  0  0  0  0  0  0  0999 V2000
   -1.7059    0.0464    0.0639 C   0  0  0  0  0  0  0  0  0  0  0  0
   -3.0771   -0.0444    0.1523 N   0  0  0  0  0  0  0  0  0  0  0  0
   -4.1968   -0.0565    0.2267 N   0  0  0  0  0  0  0  0  0  0  0  0
   -1.2212    1.3769    0.0716 C   0  0  0  0  0  0  0  0  0  0  0  0
    0.1836    1.3727   -0.0182 C   0  0  0  0  0  0  0  0  0  0  0  0
    0.9673    0.2114   -0.1006 C   0  0  0  0  0  0  0  0  0  0  0  0
    2.3073    0.3954   -0.1777 O   0  0  0  0  0  0  0  0  0  0  0  0
    3.1731   -0.7306   -0.2574 C   0  0  0  0  0  0  0  0  0  0  0  0
    0.3729   -1.0840   -0.1014 C   0  0  0  0  0  0  0  0  0  0  0  0
   -0.9955   -1.1815   -0.0174 C   0  0  0  0  0  0  0  0  0  0  0  0
   -3.7770    4.2774    0.4438 H   0  0  0  0  0  0  0  0  0  0  0  0
    0.7385    2.3119   -0.0256 H   0  0  0  0  0  0  0  0  0  0  0  0
    4.1847   -0.3254   -0.3018 H   0  0  0  0  0  0  0  0  0  0  0  0
    2.9835   -1.3236   -1.1605 H   0  0  0  0  0  0  0  0  0  0  0  0
    3.0814   -1.3740    0.6263 H   0  0  0  0  0  0  0  0  0  0  0  0
    0.9763   -1.9806   -0.1657 H   0  0  0  0  0  0  0  0  0  0  0  0
   -1.4963   -2.1469   -0.0145 H   0  0  0  0  0  0  0  0  0  0  0  0
   -5.9463    2.9853    0.2884 B   0  0  0  0  0  0  0  0  0  0  0  0
   -5.1107    2.5682   -0.6638 F   0  0  0  0  0  0  0  0  0  0  0  0
   -4.5696    4.5568    0.8450 F   0  0  0  0  0  0  0  0  0  0  0  0
   -6.9431    3.7932   -0.0285 F   0  0  0  0  0  0  0  0  0  0  0  0
   -5.9327    2.3715    1.4616 F   0  0  0  0  0  0  0  0  0  0  0  0
  1  4  1  0  0  0  0
  1  2  1  0  0  0  0
  2  3  1  0  0  0  0
  5  4  2  0  0  0  0
  6  5  1  0  0  0  0
  7  6  1  0  0  0  0
  8  7  1  0  0  0  0
  8 15  1  0  0  0  0
  9  6  2  0  0  0  0
  9 10  1  0  0  0  0
 10 17  1  0  0  0  0
 10  1  2  0  0  0  0
 11 20  1  0  0  0  0
 12  5  1  0  0  0  0
 13  8  1  0  0  0  0
 14  8  1  0  0  0  0
 16  9  1  0  0  0  0
 18 22  1  0  0  0  0
 19 18  1  0  0  0  0
 21 18  1  0  0  0  0
M  RAD  3   2   2   3   3   4   2
M  END
