Coordinates from ORCA-job 4-MeOPhN2+~BF4-_B3LYPG-6-31G_dp-CH-Scan-d09-49-n800
 OpenBabel11261919343D

 22 20  0  0  0  0  0  0  0  0999 V2000
   -1.9319    0.0466    0.0918 C   0  0  0  0  0  0  0  0  0  0  0  0
   -3.2921   -0.1324    0.1613 N   0  0  0  0  0  0  0  0  0  0  0  0
   -4.4056   -0.2410    0.2236 N   0  0  0  0  0  0  0  0  0  0  0  0
   -1.4896    1.3921    0.1560 C   0  0  0  0  0  0  0  0  0  0  0  0
   -0.0921    1.4654    0.0804 C   0  0  0  0  0  0  0  0  0  0  0  0
    0.7466    0.3443   -0.0427 C   0  0  0  0  0  0  0  0  0  0  0  0
    2.0724    0.5959   -0.1011 O   0  0  0  0  0  0  0  0  0  0  0  0
    2.9943   -0.4827   -0.2247 C   0  0  0  0  0  0  0  0  0  0  0  0
    0.2101   -0.9722   -0.1002 C   0  0  0  0  0  0  0  0  0  0  0  0
   -1.1535   -1.1343   -0.0322 C   0  0  0  0  0  0  0  0  0  0  0  0
   -3.0722    3.3531    0.3453 H   0  0  0  0  0  0  0  0  0  0  0  0
    0.4129    2.4299    0.1162 H   0  0  0  0  0  0  0  0  0  0  0  0
    3.9838   -0.0256   -0.2466 H   0  0  0  0  0  0  0  0  0  0  0  0
    2.8352   -1.0433   -1.1536 H   0  0  0  0  0  0  0  0  0  0  0  0
    2.9307   -1.1658    0.6309 H   0  0  0  0  0  0  0  0  0  0  0  0
    0.8517   -1.8387   -0.1949 H   0  0  0  0  0  0  0  0  0  0  0  0
   -1.6073   -2.1211   -0.0725 H   0  0  0  0  0  0  0  0  0  0  0  0
   -5.4500    2.9679    0.2833 B   0  0  0  0  0  0  0  0  0  0  0  0
   -5.1741    2.3399   -0.8678 F   0  0  0  0  0  0  0  0  0  0  0  0
   -3.7898    3.9682    0.4130 F   0  0  0  0  0  0  0  0  0  0  0  0
   -6.2703    4.0128    0.2696 F   0  0  0  0  0  0  0  0  0  0  0  0
   -5.3130    2.2606    1.4116 F   0  0  0  0  0  0  0  0  0  0  0  0
  1  4  1  0  0  0  0
  1  2  1  0  0  0  0
  2  3  1  0  0  0  0
  5 12  1  0  0  0  0
  5  4  2  0  0  0  0
  6  5  1  0  0  0  0
  7  6  1  0  0  0  0
  8  7  1  0  0  0  0
  8 15  1  0  0  0  0
  9  6  2  0  0  0  0
  9 10  1  0  0  0  0
 10  1  2  0  0  0  0
 11 20  1  0  0  0  0
 13  8  1  0  0  0  0
 14  8  1  0  0  0  0
 16  9  1  0  0  0  0
 17 10  1  0  0  0  0
 18 22  1  0  0  0  0
 19 18  1  0  0  0  0
 21 18  1  0  0  0  0
M  RAD  3   2   2   3   3   4   2
M  END
