Coordinates from ORCA-job 4-MeOPhN2+~BF4-_B3LYPG-6-31G_dp-CH-Scan-d09-49-n800
 OpenBabel11261919343D

 22 20  0  0  0  0  0  0  0  0999 V2000
   -2.1354    0.1085    0.2236 C   0  0  0  0  0  0  0  0  0  0  0  0
   -3.4827   -0.1161    0.3476 N   0  0  0  0  0  0  0  0  0  0  0  0
   -4.5794   -0.2877    0.4685 N   0  0  0  0  0  0  0  0  0  0  0  0
   -1.6586    1.4358    0.3399 C   0  0  0  0  0  0  0  0  0  0  0  0
   -0.2844    1.5708    0.2231 C   0  0  0  0  0  0  0  0  0  0  0  0
    0.5650    0.4679    0.0018 C   0  0  0  0  0  0  0  0  0  0  0  0
    1.8748    0.7494   -0.0925 O   0  0  0  0  0  0  0  0  0  0  0  0
    2.8133   -0.3030   -0.3190 C   0  0  0  0  0  0  0  0  0  0  0  0
    0.0361   -0.8418   -0.1092 C   0  0  0  0  0  0  0  0  0  0  0  0
   -1.3252   -1.0282    0.0034 C   0  0  0  0  0  0  0  0  0  0  0  0
   -2.5951    2.5688    0.5182 H   0  0  0  0  0  0  0  0  0  0  0  0
    0.1820    2.5488    0.2951 H   0  0  0  0  0  0  0  0  0  0  0  0
    3.7907    0.1775   -0.3513 H   0  0  0  0  0  0  0  0  0  0  0  0
    2.6234   -0.8057   -1.2739 H   0  0  0  0  0  0  0  0  0  0  0  0
    2.7935   -1.0349    0.4966 H   0  0  0  0  0  0  0  0  0  0  0  0
    0.6792   -1.6952   -0.2797 H   0  0  0  0  0  0  0  0  0  0  0  0
   -1.7623   -2.0185   -0.0759 H   0  0  0  0  0  0  0  0  0  0  0  0
   -4.7877    2.8965    0.1184 B   0  0  0  0  0  0  0  0  0  0  0  0
   -4.4420    2.1141   -0.9804 F   0  0  0  0  0  0  0  0  0  0  0  0
   -3.4650    3.4657    0.6139 F   0  0  0  0  0  0  0  0  0  0  0  0
   -5.5916    3.9511   -0.1772 F   0  0  0  0  0  0  0  0  0  0  0  0
   -5.2524    2.0960    1.1555 F   0  0  0  0  0  0  0  0  0  0  0  0
  1  4  1  0  0  0  0
  1  2  1  0  0  0  0
  2  3  1  0  0  0  0
  5 12  1  0  0  0  0
  5  4  2  0  0  0  0
  6  5  1  0  0  0  0
  7  6  1  0  0  0  0
  8  7  1  0  0  0  0
  8 15  1  0  0  0  0
  9  6  2  0  0  0  0
  9 10  1  0  0  0  0
 10  1  2  0  0  0  0
 11 20  1  0  0  0  0
 13  8  1  0  0  0  0
 14  8  1  0  0  0  0
 16  9  1  0  0  0  0
 17 10  1  0  0  0  0
 18 22  1  0  0  0  0
 19 18  1  0  0  0  0
 21 18  1  0  0  0  0
M  RAD  3   2   2   3   3   4   2
M  END
