Coordinates from ORCA-job 4-MeOPhN2+~BF4-_B3LYPG-6-31G_dp-CH-Scan-d09-49-n800
 OpenBabel11261919343D

 22 20  0  0  0  0  0  0  0  0999 V2000
   -1.7617    0.0336    0.0319 C   0  0  0  0  0  0  0  0  0  0  0  0
   -3.1314   -0.0830    0.0974 N   0  0  0  0  0  0  0  0  0  0  0  0
   -4.2513   -0.1206    0.1540 N   0  0  0  0  0  0  0  0  0  0  0  0
   -1.2951    1.3711    0.0475 C   0  0  0  0  0  0  0  0  0  0  0  0
    0.1098    1.3900   -0.0208 C   0  0  0  0  0  0  0  0  0  0  0  0
    0.9132    0.2410   -0.0916 C   0  0  0  0  0  0  0  0  0  0  0  0
    2.2503    0.4467   -0.1486 O   0  0  0  0  0  0  0  0  0  0  0  0
    3.1356   -0.6652   -0.2165 C   0  0  0  0  0  0  0  0  0  0  0  0
    0.3390   -1.0630   -0.1012 C   0  0  0  0  0  0  0  0  0  0  0  0
   -1.0288   -1.1817   -0.0383 C   0  0  0  0  0  0  0  0  0  0  0  0
   -3.5547    4.0609    0.3762 H   0  0  0  0  0  0  0  0  0  0  0  0
    0.6494    2.3379   -0.0194 H   0  0  0  0  0  0  0  0  0  0  0  0
    4.1408   -0.2433   -0.2474 H   0  0  0  0  0  0  0  0  0  0  0  0
    2.9675   -1.2608   -1.1221 H   0  0  0  0  0  0  0  0  0  0  0  0
    3.0424   -1.3098    0.6661 H   0  0  0  0  0  0  0  0  0  0  0  0
    0.9568   -1.9502   -0.1561 H   0  0  0  0  0  0  0  0  0  0  0  0
   -1.5141   -2.1548   -0.0430 H   0  0  0  0  0  0  0  0  0  0  0  0
   -5.8604    2.9869    0.3387 B   0  0  0  0  0  0  0  0  0  0  0  0
   -5.2080    2.4883   -0.7113 F   0  0  0  0  0  0  0  0  0  0  0  0
   -4.3398    4.4519    0.6911 F   0  0  0  0  0  0  0  0  0  0  0  0
   -6.8323    3.8627    0.1489 F   0  0  0  0  0  0  0  0  0  0  0  0
   -5.7307    2.3809    1.5111 F   0  0  0  0  0  0  0  0  0  0  0  0
  1  4  1  0  0  0  0
  1  2  1  0  0  0  0
  2  3  1  0  0  0  0
  5 12  1  0  0  0  0
  5  4  2  0  0  0  0
  6  5  1  0  0  0  0
  7  6  1  0  0  0  0
  8  7  1  0  0  0  0
  8 15  1  0  0  0  0
  9  6  2  0  0  0  0
  9 10  1  0  0  0  0
 10  1  2  0  0  0  0
 11 20  1  0  0  0  0
 13  8  1  0  0  0  0
 14  8  1  0  0  0  0
 16  9  1  0  0  0  0
 17 10  1  0  0  0  0
 18 22  1  0  0  0  0
 19 18  1  0  0  0  0
 21 18  1  0  0  0  0
M  RAD  3   2   2   3   3   4   2
M  END
