Coordinates from ORCA-job 4-MeOPhN2+~BF4-_B3LYPG-6-31G_dp-CH-Scan-d09-49-n800
 OpenBabel11261919343D

 22 20  0  0  0  0  0  0  0  0999 V2000
   -1.5705    0.1264   -0.0592 C   0  0  0  0  0  0  0  0  0  0  0  0
   -2.9475    0.1203   -0.0115 N   0  0  0  0  0  0  0  0  0  0  0  0
   -4.0678    0.1834    0.0254 N   0  0  0  0  0  0  0  0  0  0  0  0
   -1.0178    1.4277   -0.1169 C   0  0  0  0  0  0  0  0  0  0  0  0
    0.3876    1.3450   -0.1622 C   0  0  0  0  0  0  0  0  0  0  0  0
    1.1087    0.1415   -0.1497 C   0  0  0  0  0  0  0  0  0  0  0  0
    2.4590    0.2491   -0.1974 O   0  0  0  0  0  0  0  0  0  0  0  0
    3.2632   -0.9242   -0.1864 C   0  0  0  0  0  0  0  0  0  0  0  0
    0.4454   -1.1195   -0.0898 C   0  0  0  0  0  0  0  0  0  0  0  0
   -0.9280   -1.1410   -0.0429 C   0  0  0  0  0  0  0  0  0  0  0  0
   -4.4036    4.7399    0.4457 H   0  0  0  0  0  0  0  0  0  0  0  0
    0.9922    2.2519   -0.2099 H   0  0  0  0  0  0  0  0  0  0  0  0
    4.2964   -0.5771   -0.2283 H   0  0  0  0  0  0  0  0  0  0  0  0
    3.0618   -1.5606   -1.0568 H   0  0  0  0  0  0  0  0  0  0  0  0
    3.1163   -1.5066    0.7316 H   0  0  0  0  0  0  0  0  0  0  0  0
    1.0023   -2.0481   -0.0804 H   0  0  0  0  0  0  0  0  0  0  0  0
   -1.4802   -2.0767    0.0041 H   0  0  0  0  0  0  0  0  0  0  0  0
   -6.1302    2.9511    0.4022 B   0  0  0  0  0  0  0  0  0  0  0  0
   -5.2207    2.8340   -0.5676 F   0  0  0  0  0  0  0  0  0  0  0  0
   -5.1249    4.8028    1.0306 F   0  0  0  0  0  0  0  0  0  0  0  0
   -7.2980    3.5050    0.1305 F   0  0  0  0  0  0  0  0  0  0  0  0
   -5.9476    2.2956    1.5354 F   0  0  0  0  0  0  0  0  0  0  0  0
  1 10  1  0  0  0  0
  1  2  1  0  0  0  0
  2  3  1  0  0  0  0
  4  1  2  0  0  0  0
  5  6  2  0  0  0  0
  5  4  1  0  0  0  0
  6  9  1  0  0  0  0
  7  8  1  0  0  0  0
  7  6  1  0  0  0  0
  8 15  1  0  0  0  0
  9 16  1  0  0  0  0
  9 10  2  0  0  0  0
 10 17  1  0  0  0  0
 11 20  1  0  0  0  0
 12  5  1  0  0  0  0
 13  8  1  0  0  0  0
 14  8  1  0  0  0  0
 18 22  1  0  0  0  0
 19 18  1  0  0  0  0
 21 18  1  0  0  0  0
M  RAD  3   2   2   3   3   4   2
M  END
