Coordinates from ORCA-job 4-MeOPhN2+~BF4-_B3LYPG-6-31G_dp-CH-Scan-d09-49-n800
 OpenBabel11261919343D

 22 20  0  0  0  0  0  0  0  0999 V2000
   -1.7023    0.0485    0.0630 C   0  0  0  0  0  0  0  0  0  0  0  0
   -3.0736   -0.0404    0.1516 N   0  0  0  0  0  0  0  0  0  0  0  0
   -4.1935   -0.0517    0.2242 N   0  0  0  0  0  0  0  0  0  0  0  0
   -1.2158    1.3783    0.0691 C   0  0  0  0  0  0  0  0  0  0  0  0
    0.1890    1.3721   -0.0207 C   0  0  0  0  0  0  0  0  0  0  0  0
    0.9712    0.2097   -0.1017 C   0  0  0  0  0  0  0  0  0  0  0  0
    2.3114    0.3918   -0.1790 O   0  0  0  0  0  0  0  0  0  0  0  0
    3.1756   -0.7355   -0.2573 C   0  0  0  0  0  0  0  0  0  0  0  0
    0.3750   -1.0849   -0.1010 C   0  0  0  0  0  0  0  0  0  0  0  0
   -0.9935   -1.1805   -0.0170 C   0  0  0  0  0  0  0  0  0  0  0  0
   -3.7904    4.2884    0.4466 H   0  0  0  0  0  0  0  0  0  0  0  0
    0.7452    2.3106   -0.0292 H   0  0  0  0  0  0  0  0  0  0  0  0
    4.1878   -0.3317   -0.3021 H   0  0  0  0  0  0  0  0  0  0  0  0
    2.9853   -1.3293   -1.1597 H   0  0  0  0  0  0  0  0  0  0  0  0
    3.0830   -1.3777    0.6272 H   0  0  0  0  0  0  0  0  0  0  0  0
    0.9772   -1.9824   -0.1643 H   0  0  0  0  0  0  0  0  0  0  0  0
   -1.4956   -2.1452   -0.0129 H   0  0  0  0  0  0  0  0  0  0  0  0
   -5.9526    2.9850    0.2890 B   0  0  0  0  0  0  0  0  0  0  0  0
   -5.1126    2.5732   -0.6616 F   0  0  0  0  0  0  0  0  0  0  0  0
   -4.5834    4.5625    0.8504 F   0  0  0  0  0  0  0  0  0  0  0  0
   -6.9521    3.7889   -0.0294 F   0  0  0  0  0  0  0  0  0  0  0  0
   -5.9391    2.3699    1.4614 F   0  0  0  0  0  0  0  0  0  0  0  0
  1  4  1  0  0  0  0
  1  2  1  0  0  0  0
  2  3  1  0  0  0  0
  5  4  2  0  0  0  0
  6  9  2  0  0  0  0
  6  5  1  0  0  0  0
  7  6  1  0  0  0  0
  8  7  1  0  0  0  0
  8 15  1  0  0  0  0
  9 10  1  0  0  0  0
 10 17  1  0  0  0  0
 10  1  2  0  0  0  0
 11 20  1  0  0  0  0
 12  5  1  0  0  0  0
 13  8  1  0  0  0  0
 14  8  1  0  0  0  0
 16  9  1  0  0  0  0
 18 22  1  0  0  0  0
 19 18  1  0  0  0  0
 21 18  1  0  0  0  0
M  RAD  3   2   2   3   3   4   2
M  END
