Coordinates from ORCA-job 4-MeOPhN2+~BF4-_B3LYPG-6-31G_dp-CH-Scan-d09-49-n800
 OpenBabel11261919343D

 22 21  0  0  0  0  0  0  0  0999 V2000
   -2.1473    0.1657    0.3319 C   0  0  0  0  0  0  0  0  0  0  0  0
   -3.4941   -0.0323    0.5017 N   0  0  0  0  0  0  0  0  0  0  0  0
   -4.5834   -0.2096    0.6726 N   0  0  0  0  0  0  0  0  0  0  0  0
   -1.6112    1.4634    0.4828 C   0  0  0  0  0  0  0  0  0  0  0  0
   -0.2482    1.6002    0.3293 C   0  0  0  0  0  0  0  0  0  0  0  0
    0.5667    0.4888    0.0230 C   0  0  0  0  0  0  0  0  0  0  0  0
    1.8744    0.7511   -0.1099 O   0  0  0  0  0  0  0  0  0  0  0  0
    2.7824   -0.3066   -0.4275 C   0  0  0  0  0  0  0  0  0  0  0  0
    0.0013   -0.7986   -0.1236 C   0  0  0  0  0  0  0  0  0  0  0  0
   -1.3612   -0.9644    0.0353 C   0  0  0  0  0  0  0  0  0  0  0  0
   -2.3804    2.4130    0.7228 H   0  0  0  0  0  0  0  0  0  0  0  0
    0.2264    2.5697    0.4312 H   0  0  0  0  0  0  0  0  0  0  0  0
    3.7662    0.1583   -0.4781 H   0  0  0  0  0  0  0  0  0  0  0  0
    2.5410   -0.7564   -1.3966 H   0  0  0  0  0  0  0  0  0  0  0  0
    2.7810   -1.0762    0.3524 H   0  0  0  0  0  0  0  0  0  0  0  0
    0.6164   -1.6570   -0.3588 H   0  0  0  0  0  0  0  0  0  0  0  0
   -1.8194   -1.9417   -0.0722 H   0  0  0  0  0  0  0  0  0  0  0  0
   -4.7328    2.8518    0.0268 B   0  0  0  0  0  0  0  0  0  0  0  0
   -4.0414    2.0631   -0.9294 F   0  0  0  0  0  0  0  0  0  0  0  0
   -3.7358    3.4011    0.9063 F   0  0  0  0  0  0  0  0  0  0  0  0
   -5.4574    3.8499   -0.5671 F   0  0  0  0  0  0  0  0  0  0  0  0
   -5.5472    1.9863    0.7935 F   0  0  0  0  0  0  0  0  0  0  0  0
  1  4  1  0  0  0  0
  1  2  1  0  0  0  0
  2  3  1  0  0  0  0
  4 11  1  0  0  0  0
  5 12  1  0  0  0  0
  5  4  2  0  0  0  0
  6  5  1  0  0  0  0
  7  6  1  0  0  0  0
  8  7  1  0  0  0  0
  8 15  1  0  0  0  0
  9  6  2  0  0  0  0
  9 10  1  0  0  0  0
 10  1  2  0  0  0  0
 13  8  1  0  0  0  0
 14  8  1  0  0  0  0
 16  9  1  0  0  0  0
 17 10  1  0  0  0  0
 18 22  1  0  0  0  0
 18 20  1  0  0  0  0
 19 18  1  0  0  0  0
 21 18  1  0  0  0  0
M  RAD  2   2   2   3   3
M  END
