Coordinates from ORCA-job 4-MeOPhN2+~BF4-_B3LYPG-6-31G_dp-CH-Scan-d09-49-n800
 OpenBabel11261919343D

 22 20  0  0  0  0  0  0  0  0999 V2000
   -1.9959    0.0529    0.0964 C   0  0  0  0  0  0  0  0  0  0  0  0
   -3.3526   -0.1474    0.1630 N   0  0  0  0  0  0  0  0  0  0  0  0
   -4.4631   -0.2791    0.2202 N   0  0  0  0  0  0  0  0  0  0  0  0
   -1.5609    1.4011    0.1564 C   0  0  0  0  0  0  0  0  0  0  0  0
   -0.1670    1.4941    0.0810 C   0  0  0  0  0  0  0  0  0  0  0  0
    0.6849    0.3818   -0.0391 C   0  0  0  0  0  0  0  0  0  0  0  0
    2.0058    0.6499   -0.0991 O   0  0  0  0  0  0  0  0  0  0  0  0
    2.9418   -0.4177   -0.2207 C   0  0  0  0  0  0  0  0  0  0  0  0
    0.1621   -0.9393   -0.0914 C   0  0  0  0  0  0  0  0  0  0  0  0
   -1.2001   -1.1158   -0.0232 C   0  0  0  0  0  0  0  0  0  0  0  0
   -2.9383    3.1038    0.3259 H   0  0  0  0  0  0  0  0  0  0  0  0
    0.3238    2.4652    0.1141 H   0  0  0  0  0  0  0  0  0  0  0  0
    3.9249    0.0526   -0.2467 H   0  0  0  0  0  0  0  0  0  0  0  0
    2.7872   -0.9832   -1.1472 H   0  0  0  0  0  0  0  0  0  0  0  0
    2.8885   -1.0976    0.6379 H   0  0  0  0  0  0  0  0  0  0  0  0
    0.8123   -1.7997   -0.1825 H   0  0  0  0  0  0  0  0  0  0  0  0
   -1.6421   -2.1077   -0.0598 H   0  0  0  0  0  0  0  0  0  0  0  0
   -5.2602    2.9630    0.2775 B   0  0  0  0  0  0  0  0  0  0  0  0
   -5.0838    2.3018   -0.8839 F   0  0  0  0  0  0  0  0  0  0  0  0
   -3.6277    3.7784    0.3941 F   0  0  0  0  0  0  0  0  0  0  0  0
   -6.0350    4.0492    0.2776 F   0  0  0  0  0  0  0  0  0  0  0  0
   -5.2084    2.2134    1.3960 F   0  0  0  0  0  0  0  0  0  0  0  0
  1  4  1  0  0  0  0
  1  2  1  0  0  0  0
  2  3  1  0  0  0  0
  5 12  1  0  0  0  0
  5  4  2  0  0  0  0
  6  5  1  0  0  0  0
  7  6  1  0  0  0  0
  8  7  1  0  0  0  0
  8 15  1  0  0  0  0
  9  6  2  0  0  0  0
  9 10  1  0  0  0  0
 10  1  2  0  0  0  0
 11 20  1  0  0  0  0
 13  8  1  0  0  0  0
 14  8  1  0  0  0  0
 16  9  1  0  0  0  0
 17 10  1  0  0  0  0
 18 21  1  0  0  0  0
 18 22  1  0  0  0  0
 19 18  1  0  0  0  0
M  RAD  3   2   2   3   3   4   2
M  END
