Coordinates from ORCA-job 4-MeOPhN2+~BF4-_B3LYPG-6-31G_dp-CH-Scan-d09-49-n800
 OpenBabel11261919343D

 22 20  0  0  0  0  0  0  0  0999 V2000
   -1.8875    0.0445    0.0705 C   0  0  0  0  0  0  0  0  0  0  0  0
   -3.2510   -0.1163    0.1310 N   0  0  0  0  0  0  0  0  0  0  0  0
   -4.3672   -0.2040    0.1845 N   0  0  0  0  0  0  0  0  0  0  0  0
   -1.4386    1.3877    0.1315 C   0  0  0  0  0  0  0  0  0  0  0  0
   -0.0385    1.4461    0.0645 C   0  0  0  0  0  0  0  0  0  0  0  0
    0.7907    0.3175   -0.0478 C   0  0  0  0  0  0  0  0  0  0  0  0
    2.1201    0.5564   -0.0991 O   0  0  0  0  0  0  0  0  0  0  0  0
    3.0322   -0.5311   -0.2121 C   0  0  0  0  0  0  0  0  0  0  0  0
    0.2437   -0.9956   -0.1025 C   0  0  0  0  0  0  0  0  0  0  0  0
   -1.1214   -1.1460   -0.0427 C   0  0  0  0  0  0  0  0  0  0  0  0
   -3.1753    3.5331    0.3291 H   0  0  0  0  0  0  0  0  0  0  0  0
    0.4763    2.4059    0.0989 H   0  0  0  0  0  0  0  0  0  0  0  0
    4.0262   -0.0836   -0.2305 H   0  0  0  0  0  0  0  0  0  0  0  0
    2.8735   -1.0951   -1.1392 H   0  0  0  0  0  0  0  0  0  0  0  0
    2.9576   -1.2098    0.6461 H   0  0  0  0  0  0  0  0  0  0  0  0
    0.8792   -1.8676   -0.1887 H   0  0  0  0  0  0  0  0  0  0  0  0
   -1.5839   -2.1290   -0.0812 H   0  0  0  0  0  0  0  0  0  0  0  0
   -5.5724    2.9677    0.3154 B   0  0  0  0  0  0  0  0  0  0  0  0
   -5.2766    2.3661   -0.8401 F   0  0  0  0  0  0  0  0  0  0  0  0
   -3.9179    4.1068    0.3913 F   0  0  0  0  0  0  0  0  0  0  0  0
   -6.4368    3.9731    0.3248 F   0  0  0  0  0  0  0  0  0  0  0  0
   -5.3359    2.2927    1.4427 F   0  0  0  0  0  0  0  0  0  0  0  0
  1  2  1  0  0  0  0
  1  4  1  0  0  0  0
  2  3  1  0  0  0  0
  5 12  1  0  0  0  0
  5  4  2  0  0  0  0
  6  5  1  0  0  0  0
  7  6  1  0  0  0  0
  8  7  1  0  0  0  0
  8 15  1  0  0  0  0
  9  6  2  0  0  0  0
  9 10  1  0  0  0  0
 10  1  2  0  0  0  0
 11 20  1  0  0  0  0
 13  8  1  0  0  0  0
 14  8  1  0  0  0  0
 16  9  1  0  0  0  0
 17 10  1  0  0  0  0
 18 21  1  0  0  0  0
 18 22  1  0  0  0  0
 19 18  1  0  0  0  0
M  RAD  3   2   2   3   3   4   2
M  END
