Coordinates from ORCA-job 4-MeOPhN2+~BF4-_B3LYPG-6-31G_dp-CH-Scan-d09-49-n800
 OpenBabel11261919343D

 22 20  0  0  0  0  0  0  0  0999 V2000
   -2.0486    0.0627    0.0857 C   0  0  0  0  0  0  0  0  0  0  0  0
   -3.4028   -0.1545    0.1458 N   0  0  0  0  0  0  0  0  0  0  0  0
   -4.5102   -0.3054    0.1970 N   0  0  0  0  0  0  0  0  0  0  0  0
   -1.6160    1.4120    0.1408 C   0  0  0  0  0  0  0  0  0  0  0  0
   -0.2251    1.5188    0.0727 C   0  0  0  0  0  0  0  0  0  0  0  0
    0.6361    0.4117   -0.0375 C   0  0  0  0  0  0  0  0  0  0  0  0
    1.9537    0.6905   -0.0919 O   0  0  0  0  0  0  0  0  0  0  0  0
    2.8995   -0.3703   -0.2041 C   0  0  0  0  0  0  0  0  0  0  0  0
    0.1220   -0.9115   -0.0860 C   0  0  0  0  0  0  0  0  0  0  0  0
   -1.2399   -1.0967   -0.0239 C   0  0  0  0  0  0  0  0  0  0  0  0
   -2.8359    2.9221    0.2800 H   0  0  0  0  0  0  0  0  0  0  0  0
    0.2549    2.4948    0.1038 H   0  0  0  0  0  0  0  0  0  0  0  0
    3.8784    0.1083   -0.2275 H   0  0  0  0  0  0  0  0  0  0  0  0
    2.7532   -0.9407   -1.1288 H   0  0  0  0  0  0  0  0  0  0  0  0
    2.8470   -1.0461    0.6577 H   0  0  0  0  0  0  0  0  0  0  0  0
    0.7775   -1.7686   -0.1695 H   0  0  0  0  0  0  0  0  0  0  0  0
   -1.6741   -2.0919   -0.0580 H   0  0  0  0  0  0  0  0  0  0  0  0
   -5.0942    2.9500    0.2923 B   0  0  0  0  0  0  0  0  0  0  0  0
   -5.0306    2.2676   -0.8794 F   0  0  0  0  0  0  0  0  0  0  0  0
   -3.5167    3.6487    0.3483 F   0  0  0  0  0  0  0  0  0  0  0  0
   -5.8616    4.0489    0.3267 F   0  0  0  0  0  0  0  0  0  0  0  0
   -5.0702    2.1693    1.4027 F   0  0  0  0  0  0  0  0  0  0  0  0
  1  4  1  0  0  0  0
  1  2  1  0  0  0  0
  2  3  1  0  0  0  0
  5 12  1  0  0  0  0
  5  4  2  0  0  0  0
  6  5  1  0  0  0  0
  7  6  1  0  0  0  0
  8  7  1  0  0  0  0
  8 15  1  0  0  0  0
  9  6  2  0  0  0  0
  9 10  1  0  0  0  0
 10  1  2  0  0  0  0
 11 20  1  0  0  0  0
 13  8  1  0  0  0  0
 14  8  1  0  0  0  0
 16  9  1  0  0  0  0
 17 10  1  0  0  0  0
 18 21  1  0  0  0  0
 18 22  1  0  0  0  0
 19 18  1  0  0  0  0
M  RAD  3   2   2   3   3   4   2
M  END
