Coordinates from ORCA-job 4-MeOPhN2+~BF4-_B3LYPG-6-31G_dp-CH-Scan-d09-49-n800
 OpenBabel11261919343D

 22 20  0  0  0  0  0  0  0  0999 V2000
   -1.8938    0.0442    0.0734 C   0  0  0  0  0  0  0  0  0  0  0  0
   -3.2567   -0.1196    0.1353 N   0  0  0  0  0  0  0  0  0  0  0  0
   -4.3725   -0.2106    0.1903 N   0  0  0  0  0  0  0  0  0  0  0  0
   -1.4462    1.3880    0.1344 C   0  0  0  0  0  0  0  0  0  0  0  0
   -0.0464    1.4487    0.0662 C   0  0  0  0  0  0  0  0  0  0  0  0
    0.7844    0.3212   -0.0472 C   0  0  0  0  0  0  0  0  0  0  0  0
    2.1133    0.5622   -0.0995 O   0  0  0  0  0  0  0  0  0  0  0  0
    3.0270   -0.5240   -0.2136 C   0  0  0  0  0  0  0  0  0  0  0  0
    0.2392   -0.9925   -0.1020 C   0  0  0  0  0  0  0  0  0  0  0  0
   -1.1257   -1.1448   -0.0411 C   0  0  0  0  0  0  0  0  0  0  0  0
   -3.1594    3.5072    0.3317 H   0  0  0  0  0  0  0  0  0  0  0  0
    0.4669    2.4092    0.1006 H   0  0  0  0  0  0  0  0  0  0  0  0
    4.0203   -0.0749   -0.2325 H   0  0  0  0  0  0  0  0  0  0  0  0
    2.8685   -1.0877   -1.1408 H   0  0  0  0  0  0  0  0  0  0  0  0
    2.9540   -1.2031    0.6444 H   0  0  0  0  0  0  0  0  0  0  0  0
    0.8758   -1.8636   -0.1892 H   0  0  0  0  0  0  0  0  0  0  0  0
   -1.5867   -2.1284   -0.0796 H   0  0  0  0  0  0  0  0  0  0  0  0
   -5.5567    2.9684    0.3107 B   0  0  0  0  0  0  0  0  0  0  0  0
   -5.2653    2.3651   -0.8455 F   0  0  0  0  0  0  0  0  0  0  0  0
   -3.8980    4.0873    0.3939 F   0  0  0  0  0  0  0  0  0  0  0  0
   -6.4135    3.9806    0.3198 F   0  0  0  0  0  0  0  0  0  0  0  0
   -5.3321    2.2868    1.4369 F   0  0  0  0  0  0  0  0  0  0  0  0
  1  4  1  0  0  0  0
  1  2  1  0  0  0  0
  2  3  1  0  0  0  0
  5 12  1  0  0  0  0
  5  4  2  0  0  0  0
  6  5  1  0  0  0  0
  7  6  1  0  0  0  0
  8  7  1  0  0  0  0
  8 15  1  0  0  0  0
  9  6  2  0  0  0  0
  9 10  1  0  0  0  0
 10  1  2  0  0  0  0
 11 20  1  0  0  0  0
 13  8  1  0  0  0  0
 14  8  1  0  0  0  0
 16  9  1  0  0  0  0
 17 10  1  0  0  0  0
 18 21  1  0  0  0  0
 18 22  1  0  0  0  0
 19 18  1  0  0  0  0
M  RAD  3   2   2   3   3   4   2
M  END
