Coordinates from ORCA-job 4-MeOPhN2+~BF4-_B3LYPG-6-31G_dp-CH-Scan-d09-49-n800
 OpenBabel11261919343D

 22 20  0  0  0  0  0  0  0  0999 V2000
   -2.0116    0.0555    0.0825 C   0  0  0  0  0  0  0  0  0  0  0  0
   -3.3678   -0.1498    0.1431 N   0  0  0  0  0  0  0  0  0  0  0  0
   -4.4776   -0.2871    0.1949 N   0  0  0  0  0  0  0  0  0  0  0  0
   -1.5782    1.4045    0.1365 C   0  0  0  0  0  0  0  0  0  0  0  0
   -0.1848    1.5014    0.0678 C   0  0  0  0  0  0  0  0  0  0  0  0
    0.6706    0.3904   -0.0410 C   0  0  0  0  0  0  0  0  0  0  0  0
    1.9907    0.6618   -0.0956 O   0  0  0  0  0  0  0  0  0  0  0  0
    2.9304   -0.4039   -0.2059 C   0  0  0  0  0  0  0  0  0  0  0  0
    0.1510   -0.9317   -0.0882 C   0  0  0  0  0  0  0  0  0  0  0  0
   -1.2114   -1.1109   -0.0260 C   0  0  0  0  0  0  0  0  0  0  0  0
   -2.9081    3.0503    0.2905 H   0  0  0  0  0  0  0  0  0  0  0  0
    0.3026    2.4743    0.0978 H   0  0  0  0  0  0  0  0  0  0  0  0
    3.9122    0.0690   -0.2295 H   0  0  0  0  0  0  0  0  0  0  0  0
    2.7820   -0.9753   -1.1297 H   0  0  0  0  0  0  0  0  0  0  0  0
    2.8743   -1.0786    0.6567 H   0  0  0  0  0  0  0  0  0  0  0  0
    0.8033   -1.7913   -0.1707 H   0  0  0  0  0  0  0  0  0  0  0  0
   -1.6506   -2.1040   -0.0590 H   0  0  0  0  0  0  0  0  0  0  0  0
   -5.2136    2.9600    0.2973 B   0  0  0  0  0  0  0  0  0  0  0  0
   -5.0997    2.2972   -0.8736 F   0  0  0  0  0  0  0  0  0  0  0  0
   -3.5923    3.7400    0.3585 F   0  0  0  0  0  0  0  0  0  0  0  0
   -5.9836    4.0511    0.3315 F   0  0  0  0  0  0  0  0  0  0  0  0
   -5.1413    2.1968    1.4086 F   0  0  0  0  0  0  0  0  0  0  0  0
  1  4  1  0  0  0  0
  1  2  1  0  0  0  0
  2  3  1  0  0  0  0
  5 12  1  0  0  0  0
  5  4  2  0  0  0  0
  6  5  1  0  0  0  0
  7  6  1  0  0  0  0
  8  7  1  0  0  0  0
  8 15  1  0  0  0  0
  9  6  2  0  0  0  0
  9 10  1  0  0  0  0
 10  1  2  0  0  0  0
 11 20  1  0  0  0  0
 13  8  1  0  0  0  0
 14  8  1  0  0  0  0
 16  9  1  0  0  0  0
 17 10  1  0  0  0  0
 18 21  1  0  0  0  0
 18 22  1  0  0  0  0
 19 18  1  0  0  0  0
M  RAD  3   2   2   3   3   4   2
M  END
