Coordinates from ORCA-job 4-MeOPhN2+~BF4-_B3LYPG-6-31G_dp-CH-Scan-d09-49-n800
 OpenBabel11261919343D

 22 20  0  0  0  0  0  0  0  0999 V2000
   -1.7943    0.0441    0.0882 C   0  0  0  0  0  0  0  0  0  0  0  0
   -3.1624   -0.0824    0.1582 N   0  0  0  0  0  0  0  0  0  0  0  0
   -4.2814   -0.1339    0.2162 N   0  0  0  0  0  0  0  0  0  0  0  0
   -1.3268    1.3800    0.1514 C   0  0  0  0  0  0  0  0  0  0  0  0
    0.0764    1.4061    0.0723 C   0  0  0  0  0  0  0  0  0  0  0  0
    0.8814    0.2624   -0.0519 C   0  0  0  0  0  0  0  0  0  0  0  0
    2.2167    0.4737   -0.1147 O   0  0  0  0  0  0  0  0  0  0  0  0
    3.1040   -0.6317   -0.2407 C   0  0  0  0  0  0  0  0  0  0  0  0
    0.3091   -1.0410   -0.1066 C   0  0  0  0  0  0  0  0  0  0  0  0
   -1.0579   -1.1648   -0.0359 C   0  0  0  0  0  0  0  0  0  0  0  0
   -3.4203    3.9154    0.4071 H   0  0  0  0  0  0  0  0  0  0  0  0
    0.6132    2.3546    0.1059 H   0  0  0  0  0  0  0  0  0  0  0  0
    4.1074   -0.2057   -0.2672 H   0  0  0  0  0  0  0  0  0  0  0  0
    2.9254   -1.1893   -1.1682 H   0  0  0  0  0  0  0  0  0  0  0  0
    3.0240   -1.3129    0.6153 H   0  0  0  0  0  0  0  0  0  0  0  0
    0.9276   -1.9244   -0.2013 H   0  0  0  0  0  0  0  0  0  0  0  0
   -1.5411   -2.1381   -0.0737 H   0  0  0  0  0  0  0  0  0  0  0  0
   -5.7896    2.9667    0.2884 B   0  0  0  0  0  0  0  0  0  0  0  0
   -5.3281    2.4503   -0.8480 F   0  0  0  0  0  0  0  0  0  0  0  0
   -4.2263    4.3812    0.4690 F   0  0  0  0  0  0  0  0  0  0  0  0
   -6.7553    3.8698    0.2568 F   0  0  0  0  0  0  0  0  0  0  0  0
   -5.5056    2.3394    1.4261 F   0  0  0  0  0  0  0  0  0  0  0  0
  1  4  1  0  0  0  0
  1  2  1  0  0  0  0
  2  3  1  0  0  0  0
  5 12  1  0  0  0  0
  5  4  2  0  0  0  0
  6  5  1  0  0  0  0
  7  6  1  0  0  0  0
  8  7  1  0  0  0  0
  8 15  1  0  0  0  0
  9  6  2  0  0  0  0
  9 10  1  0  0  0  0
 10  1  2  0  0  0  0
 11 20  1  0  0  0  0
 13  8  1  0  0  0  0
 14  8  1  0  0  0  0
 16  9  1  0  0  0  0
 17 10  1  0  0  0  0
 18 22  1  0  0  0  0
 19 18  1  0  0  0  0
 21 18  1  0  0  0  0
M  RAD  3   2   2   3   3   4   2
M  END
