Coordinates from ORCA-job 4-MeOPhN2+~BF4-_B3LYPG-6-31G_dp-CH-Scan-d09-49-n800
 OpenBabel11261919343D

 22 21  0  0  0  0  0  0  0  0999 V2000
   -2.1474    0.1365    0.2650 C   0  0  0  0  0  0  0  0  0  0  0  0
   -3.4933   -0.0774    0.4168 N   0  0  0  0  0  0  0  0  0  0  0  0
   -4.5853   -0.2510    0.5703 N   0  0  0  0  0  0  0  0  0  0  0  0
   -1.6377    1.4474    0.4037 C   0  0  0  0  0  0  0  0  0  0  0  0
   -0.2699    1.5865    0.2740 C   0  0  0  0  0  0  0  0  0  0  0  0
    0.5635    0.4788    0.0108 C   0  0  0  0  0  0  0  0  0  0  0  0
    1.8728    0.7501   -0.0939 O   0  0  0  0  0  0  0  0  0  0  0  0
    2.7982   -0.3055   -0.3620 C   0  0  0  0  0  0  0  0  0  0  0  0
    0.0159   -0.8188   -0.1268 C   0  0  0  0  0  0  0  0  0  0  0  0
   -1.3468   -0.9950    0.0037 C   0  0  0  0  0  0  0  0  0  0  0  0
   -2.4933    2.4912    0.6115 H   0  0  0  0  0  0  0  0  0  0  0  0
    0.1984    2.5608    0.3655 H   0  0  0  0  0  0  0  0  0  0  0  0
    3.7797    0.1662   -0.3914 H   0  0  0  0  0  0  0  0  0  0  0  0
    2.5912   -0.7769   -1.3290 H   0  0  0  0  0  0  0  0  0  0  0  0
    2.7789   -1.0601    0.4324 H   0  0  0  0  0  0  0  0  0  0  0  0
    0.6456   -1.6745   -0.3318 H   0  0  0  0  0  0  0  0  0  0  0  0
   -1.7938   -1.9788   -0.0952 H   0  0  0  0  0  0  0  0  0  0  0  0
   -4.7448    2.8764    0.0813 B   0  0  0  0  0  0  0  0  0  0  0  0
   -4.2379    2.0675   -0.9538 F   0  0  0  0  0  0  0  0  0  0  0  0
   -3.5726    3.4736    0.7347 F   0  0  0  0  0  0  0  0  0  0  0  0
   -5.5618    3.8698   -0.3754 F   0  0  0  0  0  0  0  0  0  0  0  0
   -5.3632    2.0528    1.0361 F   0  0  0  0  0  0  0  0  0  0  0  0
  1  4  2  0  0  0  0
  1  2  1  0  0  0  0
  2  3  1  0  0  0  0
  4 11  1  0  0  0  0
  5 12  1  0  0  0  0
  5  4  1  0  0  0  0
  6  5  2  0  0  0  0
  7  6  1  0  0  0  0
  8  7  1  0  0  0  0
  8 15  1  0  0  0  0
  9 10  2  0  0  0  0
  9  6  1  0  0  0  0
 10  1  1  0  0  0  0
 13  8  1  0  0  0  0
 14  8  1  0  0  0  0
 16  9  1  0  0  0  0
 17 10  1  0  0  0  0
 18 20  1  0  0  0  0
 18 22  1  0  0  0  0
 19 18  1  0  0  0  0
 21 18  1  0  0  0  0
M  RAD  2   2   2   3   3
M  END
