Coordinates from ORCA-job 4-MeOPhN2+~BF4-_B3LYPG-6-31G_dp-CH-Scan-d09-49-n800
 OpenBabel11261919343D

 22 20  0  0  0  0  0  0  0  0999 V2000
   -2.1391    0.1136    0.2308 C   0  0  0  0  0  0  0  0  0  0  0  0
   -3.4863   -0.1085    0.3603 N   0  0  0  0  0  0  0  0  0  0  0  0
   -4.5823   -0.2787    0.4881 N   0  0  0  0  0  0  0  0  0  0  0  0
   -1.6553    1.4375    0.3506 C   0  0  0  0  0  0  0  0  0  0  0  0
   -0.2828    1.5744    0.2314 C   0  0  0  0  0  0  0  0  0  0  0  0
    0.5638    0.4704    0.0030 C   0  0  0  0  0  0  0  0  0  0  0  0
    1.8734    0.7504   -0.0934 O   0  0  0  0  0  0  0  0  0  0  0  0
    2.8100   -0.3025   -0.3263 C   0  0  0  0  0  0  0  0  0  0  0  0
    0.0315   -0.8371   -0.1121 C   0  0  0  0  0  0  0  0  0  0  0  0
   -1.3301   -1.0218    0.0036 C   0  0  0  0  0  0  0  0  0  0  0  0
   -2.5720    2.5467    0.5347 H   0  0  0  0  0  0  0  0  0  0  0  0
    0.1830    2.5522    0.3065 H   0  0  0  0  0  0  0  0  0  0  0  0
    3.7879    0.1768   -0.3584 H   0  0  0  0  0  0  0  0  0  0  0  0
    2.6172   -0.8007   -1.2829 H   0  0  0  0  0  0  0  0  0  0  0  0
    2.7906   -1.0377    0.4864 H   0  0  0  0  0  0  0  0  0  0  0  0
    0.6724   -1.6910   -0.2883 H   0  0  0  0  0  0  0  0  0  0  0  0
   -1.7687   -2.0111   -0.0788 H   0  0  0  0  0  0  0  0  0  0  0  0
   -4.7752    2.8935    0.1118 B   0  0  0  0  0  0  0  0  0  0  0  0
   -4.4015    2.1038   -0.9774 F   0  0  0  0  0  0  0  0  0  0  0  0
   -3.4823    3.4665    0.6362 F   0  0  0  0  0  0  0  0  0  0  0  0
   -5.5867    3.9353   -0.2144 F   0  0  0  0  0  0  0  0  0  0  0  0
   -5.2712    2.0879    1.1351 F   0  0  0  0  0  0  0  0  0  0  0  0
  1  4  1  0  0  0  0
  1  2  1  0  0  0  0
  2  3  1  0  0  0  0
  5 12  1  0  0  0  0
  5  4  2  0  0  0  0
  6  5  1  0  0  0  0
  7  6  1  0  0  0  0
  8  7  1  0  0  0  0
  8 15  1  0  0  0  0
  9  6  2  0  0  0  0
  9 10  1  0  0  0  0
 10  1  2  0  0  0  0
 11 20  1  0  0  0  0
 13  8  1  0  0  0  0
 14  8  1  0  0  0  0
 16  9  1  0  0  0  0
 17 10  1  0  0  0  0
 18 22  1  0  0  0  0
 19 18  1  0  0  0  0
 21 18  1  0  0  0  0
M  RAD  3   2   2   3   3   4   2
M  END
