Coordinates from ORCA-job 4-MeOPhN2+~BF4-_B3LYPG-6-31G_dp-CH-Scan-d09-49-n800
 OpenBabel11261919343D

 22 20  0  0  0  0  0  0  0  0999 V2000
   -1.5551    0.1361   -0.0585 C   0  0  0  0  0  0  0  0  0  0  0  0
   -2.9321    0.1394   -0.0097 N   0  0  0  0  0  0  0  0  0  0  0  0
   -4.0519    0.2112    0.0274 N   0  0  0  0  0  0  0  0  0  0  0  0
   -0.9946    1.4339   -0.1170 C   0  0  0  0  0  0  0  0  0  0  0  0
    0.4103    1.3426   -0.1633 C   0  0  0  0  0  0  0  0  0  0  0  0
    1.1238    0.1346   -0.1511 C   0  0  0  0  0  0  0  0  0  0  0  0
    2.4747    0.2338   -0.1998 O   0  0  0  0  0  0  0  0  0  0  0  0
    3.2717   -0.9444   -0.1891 C   0  0  0  0  0  0  0  0  0  0  0  0
    0.4527   -1.1223   -0.0903 C   0  0  0  0  0  0  0  0  0  0  0  0
   -0.9207   -1.1353   -0.0423 C   0  0  0  0  0  0  0  0  0  0  0  0
   -4.4635    4.7757    0.4491 H   0  0  0  0  0  0  0  0  0  0  0  0
    1.0205    2.2457   -0.2118 H   0  0  0  0  0  0  0  0  0  0  0  0
    4.3070   -0.6037   -0.2319 H   0  0  0  0  0  0  0  0  0  0  0  0
    3.0657   -1.5798   -1.0593 H   0  0  0  0  0  0  0  0  0  0  0  0
    3.1220   -1.5257    0.7291 H   0  0  0  0  0  0  0  0  0  0  0  0
    1.0040   -2.0543   -0.0812 H   0  0  0  0  0  0  0  0  0  0  0  0
   -1.4787   -2.0676    0.0054 H   0  0  0  0  0  0  0  0  0  0  0  0
   -6.1507    2.9492    0.4039 B   0  0  0  0  0  0  0  0  0  0  0  0
   -5.2361    2.8513   -0.5633 F   0  0  0  0  0  0  0  0  0  0  0  0
   -5.1867    4.8231    1.0331 F   0  0  0  0  0  0  0  0  0  0  0  0
   -7.3295    3.4770    0.1285 F   0  0  0  0  0  0  0  0  0  0  0  0
   -5.9567    2.2993    1.5385 F   0  0  0  0  0  0  0  0  0  0  0  0
  1 10  1  0  0  0  0
  1  2  1  0  0  0  0
  2  3  1  0  0  0  0
  4  1  2  0  0  0  0
  5  6  2  0  0  0  0
  5  4  1  0  0  0  0
  6  9  1  0  0  0  0
  7  8  1  0  0  0  0
  7  6  1  0  0  0  0
  8 15  1  0  0  0  0
  9 16  1  0  0  0  0
  9 10  2  0  0  0  0
 10 17  1  0  0  0  0
 11 20  1  0  0  0  0
 12  5  1  0  0  0  0
 13  8  1  0  0  0  0
 14  8  1  0  0  0  0
 18 22  1  0  0  0  0
 19 18  1  0  0  0  0
 21 18  1  0  0  0  0
M  RAD  3   2   2   3   3   4   2
M  END
