Coordinates from ORCA-job 4-MeOPhN2+~BF4-_B3LYPG-6-31G_dp-CH-Scan-d09-49-n800
 OpenBabel11261919343D

 22 20  0  0  0  0  0  0  0  0999 V2000
   -1.9263    0.0466    0.0906 C   0  0  0  0  0  0  0  0  0  0  0  0
   -3.2868   -0.1306    0.1601 N   0  0  0  0  0  0  0  0  0  0  0  0
   -4.4006   -0.2385    0.2194 N   0  0  0  0  0  0  0  0  0  0  0  0
   -1.4830    1.3917    0.1548 C   0  0  0  0  0  0  0  0  0  0  0  0
   -0.0852    1.4631    0.0797 C   0  0  0  0  0  0  0  0  0  0  0  0
    0.7521    0.3411   -0.0430 C   0  0  0  0  0  0  0  0  0  0  0  0
    2.0784    0.5910   -0.1008 O   0  0  0  0  0  0  0  0  0  0  0  0
    2.9989   -0.4888   -0.2240 C   0  0  0  0  0  0  0  0  0  0  0  0
    0.2142   -0.9749   -0.1007 C   0  0  0  0  0  0  0  0  0  0  0  0
   -1.1496   -1.1355   -0.0332 C   0  0  0  0  0  0  0  0  0  0  0  0
   -3.0853    3.3758    0.3411 H   0  0  0  0  0  0  0  0  0  0  0  0
    0.4211    2.4270    0.1156 H   0  0  0  0  0  0  0  0  0  0  0  0
    3.9890   -0.0330   -0.2455 H   0  0  0  0  0  0  0  0  0  0  0  0
    2.8395   -1.0492   -1.1530 H   0  0  0  0  0  0  0  0  0  0  0  0
    2.9341   -1.1719    0.6315 H   0  0  0  0  0  0  0  0  0  0  0  0
    0.8550   -1.8421   -0.1950 H   0  0  0  0  0  0  0  0  0  0  0  0
   -1.6045   -2.1218   -0.0735 H   0  0  0  0  0  0  0  0  0  0  0  0
   -5.4647    2.9685    0.2862 B   0  0  0  0  0  0  0  0  0  0  0  0
   -5.1854    2.3436   -0.8651 F   0  0  0  0  0  0  0  0  0  0  0  0
   -3.8066    3.9848    0.4123 F   0  0  0  0  0  0  0  0  0  0  0  0
   -6.2904    4.0089    0.2746 F   0  0  0  0  0  0  0  0  0  0  0  0
   -5.3177    2.2637    1.4144 F   0  0  0  0  0  0  0  0  0  0  0  0
  1  4  1  0  0  0  0
  1  2  1  0  0  0  0
  2  3  1  0  0  0  0
  5 12  1  0  0  0  0
  5  4  2  0  0  0  0
  6  5  1  0  0  0  0
  7  6  1  0  0  0  0
  8  7  1  0  0  0  0
  8 15  1  0  0  0  0
  9  6  2  0  0  0  0
  9 10  1  0  0  0  0
 10  1  2  0  0  0  0
 11 20  1  0  0  0  0
 13  8  1  0  0  0  0
 14  8  1  0  0  0  0
 16  9  1  0  0  0  0
 17 10  1  0  0  0  0
 18 22  1  0  0  0  0
 19 18  1  0  0  0  0
 21 18  1  0  0  0  0
M  RAD  3   2   2   3   3   4   2
M  END
