Coordinates from ORCA-job 4-MeOPhN2+~BF4-_B3LYPG-6-31G_dp-CH-Scan-d09-49-n800
 OpenBabel11261919343D

 22 20  0  0  0  0  0  0  0  0999 V2000
   -1.7396    0.0375    0.0786 C   0  0  0  0  0  0  0  0  0  0  0  0
   -3.1091   -0.0693    0.1697 N   0  0  0  0  0  0  0  0  0  0  0  0
   -4.2282   -0.0968    0.2454 N   0  0  0  0  0  0  0  0  0  0  0  0
   -1.2665    1.3725    0.0939 C   0  0  0  0  0  0  0  0  0  0  0  0
    0.1376    1.3830    0.0003 C   0  0  0  0  0  0  0  0  0  0  0  0
    0.9326    0.2300   -0.0925 C   0  0  0  0  0  0  0  0  0  0  0  0
    2.2700    0.4279   -0.1724 O   0  0  0  0  0  0  0  0  0  0  0  0
    3.1469   -0.6888   -0.2634 C   0  0  0  0  0  0  0  0  0  0  0  0
    0.3507   -1.0709   -0.1001 C   0  0  0  0  0  0  0  0  0  0  0  0
   -1.0164   -1.1821   -0.0129 C   0  0  0  0  0  0  0  0  0  0  0  0
   -3.6516    4.1503    0.4495 H   0  0  0  0  0  0  0  0  0  0  0  0
    0.6831    2.3276   -0.0021 H   0  0  0  0  0  0  0  0  0  0  0  0
    4.1541   -0.2730   -0.3086 H   0  0  0  0  0  0  0  0  0  0  0  0
    2.9598   -1.2770   -1.1702 H   0  0  0  0  0  0  0  0  0  0  0  0
    3.0650   -1.3394    0.6160 H   0  0  0  0  0  0  0  0  0  0  0  0
    0.9623   -1.9612   -0.1720 H   0  0  0  0  0  0  0  0  0  0  0  0
   -1.5077   -2.1523   -0.0149 H   0  0  0  0  0  0  0  0  0  0  0  0
   -5.8851    2.9847    0.2716 B   0  0  0  0  0  0  0  0  0  0  0  0
   -5.0826    2.5220   -0.6880 F   0  0  0  0  0  0  0  0  0  0  0  0
   -4.4417    4.4875    0.8102 F   0  0  0  0  0  0  0  0  0  0  0  0
   -6.8497    3.8335   -0.0388 F   0  0  0  0  0  0  0  0  0  0  0  0
   -5.8879    2.3741    1.4472 F   0  0  0  0  0  0  0  0  0  0  0  0
  1  4  1  0  0  0  0
  1  2  1  0  0  0  0
  2  3  1  0  0  0  0
  5  4  2  0  0  0  0
  6  5  1  0  0  0  0
  7  6  1  0  0  0  0
  8  7  1  0  0  0  0
  8 15  1  0  0  0  0
  9  6  2  0  0  0  0
  9 10  1  0  0  0  0
 10  1  2  0  0  0  0
 11 20  1  0  0  0  0
 12  5  1  0  0  0  0
 13  8  1  0  0  0  0
 14  8  1  0  0  0  0
 16  9  1  0  0  0  0
 17 10  1  0  0  0  0
 18 22  1  0  0  0  0
 19 18  1  0  0  0  0
 21 18  1  0  0  0  0
M  RAD  3   2   2   3   3   4   2
M  END
