Coordinates from ORCA-job 4-MeOPhN2+~BF4-_B3LYPG-6-31G_dp-CH-Scan-d09-49-n800
 OpenBabel11261919343D

 22 20  0  0  0  0  0  0  0  0999 V2000
   -1.6877    0.0535    0.0519 C   0  0  0  0  0  0  0  0  0  0  0  0
   -3.0600   -0.0273    0.1370 N   0  0  0  0  0  0  0  0  0  0  0  0
   -4.1800   -0.0296    0.2094 N   0  0  0  0  0  0  0  0  0  0  0  0
   -1.1957    1.3811    0.0521 C   0  0  0  0  0  0  0  0  0  0  0  0
    0.2095    1.3680   -0.0342 C   0  0  0  0  0  0  0  0  0  0  0  0
    0.9864    0.2016   -0.1070 C   0  0  0  0  0  0  0  0  0  0  0  0
    2.3278    0.3769   -0.1821 O   0  0  0  0  0  0  0  0  0  0  0  0
    3.1868   -0.7548   -0.2521 C   0  0  0  0  0  0  0  0  0  0  0  0
    0.3843   -1.0904   -0.1005 C   0  0  0  0  0  0  0  0  0  0  0  0
   -0.9848   -1.1794   -0.0194 C   0  0  0  0  0  0  0  0  0  0  0  0
   -3.8561    4.3411    0.4413 H   0  0  0  0  0  0  0  0  0  0  0  0
    0.7700    2.3038   -0.0465 H   0  0  0  0  0  0  0  0  0  0  0  0
    4.2010   -0.3561   -0.2969 H   0  0  0  0  0  0  0  0  0  0  0  0
    2.9957   -1.3528   -1.1517 H   0  0  0  0  0  0  0  0  0  0  0  0
    3.0892   -1.3917    0.6356 H   0  0  0  0  0  0  0  0  0  0  0  0
    0.9827   -1.9909   -0.1574 H   0  0  0  0  0  0  0  0  0  0  0  0
   -1.4914   -2.1417   -0.0112 H   0  0  0  0  0  0  0  0  0  0  0  0
   -5.9761    2.9839    0.3010 B   0  0  0  0  0  0  0  0  0  0  0  0
   -5.1142    2.5981   -0.6412 F   0  0  0  0  0  0  0  0  0  0  0  0
   -4.6411    4.5950    0.8728 F   0  0  0  0  0  0  0  0  0  0  0  0
   -6.9917    3.7631   -0.0271 F   0  0  0  0  0  0  0  0  0  0  0  0
   -5.9585    2.3684    1.4727 F   0  0  0  0  0  0  0  0  0  0  0  0
  1  4  1  0  0  0  0
  1  2  1  0  0  0  0
  2  3  1  0  0  0  0
  5  4  2  0  0  0  0
  6  9  2  0  0  0  0
  6  5  1  0  0  0  0
  7  6  1  0  0  0  0
  8  7  1  0  0  0  0
  8 15  1  0  0  0  0
  9 10  1  0  0  0  0
 10 17  1  0  0  0  0
 10  1  2  0  0  0  0
 11 20  1  0  0  0  0
 12  5  1  0  0  0  0
 13  8  1  0  0  0  0
 14  8  1  0  0  0  0
 16  9  1  0  0  0  0
 18 22  1  0  0  0  0
 19 18  1  0  0  0  0
 21 18  1  0  0  0  0
M  RAD  3   2   2   3   3   4   2
M  END
