Coordinates from ORCA-job 4-MeOPhN2+~BF4-_B3LYPG-6-31G_dp-CH-Scan-d09-49-n800
 OpenBabel11261919343D

 22 20  0  0  0  0  0  0  0  0999 V2000
   -2.0539    0.0639    0.0875 C   0  0  0  0  0  0  0  0  0  0  0  0
   -3.4077   -0.1550    0.1480 N   0  0  0  0  0  0  0  0  0  0  0  0
   -4.5148   -0.3077    0.1995 N   0  0  0  0  0  0  0  0  0  0  0  0
   -1.6210    1.4131    0.1432 C   0  0  0  0  0  0  0  0  0  0  0  0
   -0.2306    1.5213    0.0745 C   0  0  0  0  0  0  0  0  0  0  0  0
    0.6313    0.4148   -0.0368 C   0  0  0  0  0  0  0  0  0  0  0  0
    1.9485    0.6945   -0.0916 O   0  0  0  0  0  0  0  0  0  0  0  0
    2.8950   -0.3656   -0.2052 C   0  0  0  0  0  0  0  0  0  0  0  0
    0.1178   -0.9085   -0.0858 C   0  0  0  0  0  0  0  0  0  0  0  0
   -1.2441   -1.0945   -0.0232 C   0  0  0  0  0  0  0  0  0  0  0  0
   -2.8253    2.9036    0.2813 H   0  0  0  0  0  0  0  0  0  0  0  0
    0.2484    2.4977    0.1061 H   0  0  0  0  0  0  0  0  0  0  0  0
    3.8736    0.1137   -0.2288 H   0  0  0  0  0  0  0  0  0  0  0  0
    2.7486   -0.9354   -1.1302 H   0  0  0  0  0  0  0  0  0  0  0  0
    2.8434   -1.0419    0.6562 H   0  0  0  0  0  0  0  0  0  0  0  0
    0.7736   -1.7653   -0.1702 H   0  0  0  0  0  0  0  0  0  0  0  0
   -1.6776   -2.0899   -0.0577 H   0  0  0  0  0  0  0  0  0  0  0  0
   -5.0769    2.9485    0.2897 B   0  0  0  0  0  0  0  0  0  0  0  0
   -5.0166    2.2633   -0.8819 F   0  0  0  0  0  0  0  0  0  0  0  0
   -3.5067    3.6360    0.3503 F   0  0  0  0  0  0  0  0  0  0  0  0
   -5.8449    4.0480    0.3215 F   0  0  0  0  0  0  0  0  0  0  0  0
   -5.0636    2.1652    1.4000 F   0  0  0  0  0  0  0  0  0  0  0  0
  1  4  1  0  0  0  0
  1  2  1  0  0  0  0
  2  3  1  0  0  0  0
  5 12  1  0  0  0  0
  5  4  2  0  0  0  0
  6  5  1  0  0  0  0
  7  6  1  0  0  0  0
  8  7  1  0  0  0  0
  8 15  1  0  0  0  0
  9  6  2  0  0  0  0
  9 10  1  0  0  0  0
 10  1  2  0  0  0  0
 11 20  1  0  0  0  0
 13  8  1  0  0  0  0
 14  8  1  0  0  0  0
 16  9  1  0  0  0  0
 17 10  1  0  0  0  0
 18 21  1  0  0  0  0
 18 22  1  0  0  0  0
 19 18  1  0  0  0  0
M  RAD  3   2   2   3   3   4   2
M  END
