Coordinates from ORCA-job 4-MeOPhN2+~BF4-_B3LYPG-6-31G_dp-CH-Scan-d09-49-n800
 OpenBabel11261919343D

 22 20  0  0  0  0  0  0  0  0999 V2000
   -1.6802    0.0556    0.0511 C   0  0  0  0  0  0  0  0  0  0  0  0
   -3.0527   -0.0212    0.1364 N   0  0  0  0  0  0  0  0  0  0  0  0
   -4.1728   -0.0194    0.2074 N   0  0  0  0  0  0  0  0  0  0  0  0
   -1.1856    1.3822    0.0489 C   0  0  0  0  0  0  0  0  0  0  0  0
    0.2196    1.3658   -0.0378 C   0  0  0  0  0  0  0  0  0  0  0  0
    0.9939    0.1976   -0.1087 C   0  0  0  0  0  0  0  0  0  0  0  0
    2.3357    0.3698   -0.1846 O   0  0  0  0  0  0  0  0  0  0  0  0
    3.1921   -0.7639   -0.2532 C   0  0  0  0  0  0  0  0  0  0  0  0
    0.3890   -1.0932   -0.0998 C   0  0  0  0  0  0  0  0  0  0  0  0
   -0.9803   -1.1791   -0.0182 C   0  0  0  0  0  0  0  0  0  0  0  0
   -3.8854    4.3665    0.4476 H   0  0  0  0  0  0  0  0  0  0  0  0
    0.7822    2.3004   -0.0519 H   0  0  0  0  0  0  0  0  0  0  0  0
    4.2072   -0.3676   -0.2992 H   0  0  0  0  0  0  0  0  0  0  0  0
    2.9992   -1.3630   -1.1516 H   0  0  0  0  0  0  0  0  0  0  0  0
    3.0935   -1.3991    0.6357 H   0  0  0  0  0  0  0  0  0  0  0  0
    0.9855   -1.9950   -0.1553 H   0  0  0  0  0  0  0  0  0  0  0  0
   -1.4890   -2.1403   -0.0081 H   0  0  0  0  0  0  0  0  0  0  0  0
   -5.9881    2.9841    0.3009 B   0  0  0  0  0  0  0  0  0  0  0  0
   -5.1150    2.6093   -0.6354 F   0  0  0  0  0  0  0  0  0  0  0  0
   -4.6713    4.6086    0.8841 F   0  0  0  0  0  0  0  0  0  0  0  0
   -7.0084    3.7544   -0.0333 F   0  0  0  0  0  0  0  0  0  0  0  0
   -5.9729    2.3671    1.4716 F   0  0  0  0  0  0  0  0  0  0  0  0
  1  2  1  0  0  0  0
  2  3  1  0  0  0  0
  4  1  1  0  0  0  0
  5  4  2  0  0  0  0
  6  9  2  0  0  0  0
  6  5  1  0  0  0  0
  7  6  1  0  0  0  0
  8  7  1  0  0  0  0
  8 15  1  0  0  0  0
  9 10  1  0  0  0  0
 10 17  1  0  0  0  0
 10  1  2  0  0  0  0
 11 20  1  0  0  0  0
 12  5  1  0  0  0  0
 13  8  1  0  0  0  0
 14  8  1  0  0  0  0
 16  9  1  0  0  0  0
 18 22  1  0  0  0  0
 19 18  1  0  0  0  0
 21 18  1  0  0  0  0
M  RAD  3   2   2   3   3   4   2
M  END
