Coordinates from ORCA-job 4-MeOPhN2+~BF4-_B3LYPG-6-31G_dp-CH-Scan-d09-49-n800
 OpenBabel11261919343D

 22 20  0  0  0  0  0  0  0  0999 V2000
   -1.5868    0.1169   -0.0547 C   0  0  0  0  0  0  0  0  0  0  0  0
   -2.9637    0.1012   -0.0060 N   0  0  0  0  0  0  0  0  0  0  0  0
   -4.0843    0.1565    0.0316 N   0  0  0  0  0  0  0  0  0  0  0  0
   -1.0422    1.4218   -0.1081 C   0  0  0  0  0  0  0  0  0  0  0  0
    0.3636    1.3480   -0.1546 C   0  0  0  0  0  0  0  0  0  0  0  0
    1.0923    0.1490   -0.1466 C   0  0  0  0  0  0  0  0  0  0  0  0
    2.4419    0.2653   -0.1946 O   0  0  0  0  0  0  0  0  0  0  0  0
    3.2534   -0.9029   -0.1872 C   0  0  0  0  0  0  0  0  0  0  0  0
    0.4370   -1.1163   -0.0906 C   0  0  0  0  0  0  0  0  0  0  0  0
   -0.9361   -1.1464   -0.0432 C   0  0  0  0  0  0  0  0  0  0  0  0
   -4.3398    4.6969    0.4395 H   0  0  0  0  0  0  0  0  0  0  0  0
    0.9626    2.2588   -0.1995 H   0  0  0  0  0  0  0  0  0  0  0  0
    4.2845   -0.5492   -0.2281 H   0  0  0  0  0  0  0  0  0  0  0  0
    3.0560   -1.5379   -1.0596 H   0  0  0  0  0  0  0  0  0  0  0  0
    3.1102   -1.4890    0.7290 H   0  0  0  0  0  0  0  0  0  0  0  0
    0.9997   -2.0413   -0.0848 H   0  0  0  0  0  0  0  0  0  0  0  0
   -1.4825   -2.0858    0.0009 H   0  0  0  0  0  0  0  0  0  0  0  0
   -6.1071    2.9523    0.3974 B   0  0  0  0  0  0  0  0  0  0  0  0
   -5.2004    2.8141   -0.5724 F   0  0  0  0  0  0  0  0  0  0  0  0
   -5.0611    4.7828    1.0215 F   0  0  0  0  0  0  0  0  0  0  0  0
   -7.2633    3.5297    0.1249 F   0  0  0  0  0  0  0  0  0  0  0  0
   -5.9378    2.2951    1.5318 F   0  0  0  0  0  0  0  0  0  0  0  0
  1 10  1  0  0  0  0
  1  2  1  0  0  0  0
  2  3  1  0  0  0  0
  4  1  2  0  0  0  0
  5  6  2  0  0  0  0
  5  4  1  0  0  0  0
  6  9  1  0  0  0  0
  7  8  1  0  0  0  0
  7  6  1  0  0  0  0
  8 15  1  0  0  0  0
  9 16  1  0  0  0  0
  9 10  2  0  0  0  0
 10 17  1  0  0  0  0
 11 20  1  0  0  0  0
 12  5  1  0  0  0  0
 13  8  1  0  0  0  0
 14  8  1  0  0  0  0
 18 22  1  0  0  0  0
 19 18  1  0  0  0  0
 21 18  1  0  0  0  0
M  RAD  3   2   2   3   3   4   2
M  END
