Coordinates from ORCA-job 4-MeOPhN2+~BF4-_B3LYPG-6-31G_dp-CH-Scan-d09-49-n800
 OpenBabel11261919343D

 22 20  0  0  0  0  0  0  0  0999 V2000
   -1.7898    0.0419    0.0893 C   0  0  0  0  0  0  0  0  0  0  0  0
   -3.1580   -0.0820    0.1601 N   0  0  0  0  0  0  0  0  0  0  0  0
   -4.2770   -0.1295    0.2208 N   0  0  0  0  0  0  0  0  0  0  0  0
   -1.3224    1.3779    0.1534 C   0  0  0  0  0  0  0  0  0  0  0  0
    0.0809    1.4032    0.0733 C   0  0  0  0  0  0  0  0  0  0  0  0
    0.8852    0.2592   -0.0521 C   0  0  0  0  0  0  0  0  0  0  0  0
    2.2207    0.4699   -0.1154 O   0  0  0  0  0  0  0  0  0  0  0  0
    3.1073   -0.6359   -0.2424 C   0  0  0  0  0  0  0  0  0  0  0  0
    0.3125   -1.0441   -0.1076 C   0  0  0  0  0  0  0  0  0  0  0  0
   -1.0545   -1.1674   -0.0360 C   0  0  0  0  0  0  0  0  0  0  0  0
   -3.4339    3.9378    0.4075 H   0  0  0  0  0  0  0  0  0  0  0  0
    0.6183    2.3514    0.1073 H   0  0  0  0  0  0  0  0  0  0  0  0
    4.1110   -0.2103   -0.2689 H   0  0  0  0  0  0  0  0  0  0  0  0
    2.9282   -1.1928   -1.1702 H   0  0  0  0  0  0  0  0  0  0  0  0
    3.0273   -1.3176    0.6132 H   0  0  0  0  0  0  0  0  0  0  0  0
    0.9306   -1.9276   -0.2033 H   0  0  0  0  0  0  0  0  0  0  0  0
   -1.5382   -2.1405   -0.0745 H   0  0  0  0  0  0  0  0  0  0  0  0
   -5.7984    2.9671    0.2869 B   0  0  0  0  0  0  0  0  0  0  0  0
   -5.3247    2.4552   -0.8464 F   0  0  0  0  0  0  0  0  0  0  0  0
   -4.2435    4.3968    0.4756 F   0  0  0  0  0  0  0  0  0  0  0  0
   -6.7702    3.8632    0.2491 F   0  0  0  0  0  0  0  0  0  0  0  0
   -5.5153    2.3437    1.4269 F   0  0  0  0  0  0  0  0  0  0  0  0
  1  4  1  0  0  0  0
  1  2  1  0  0  0  0
  2  3  1  0  0  0  0
  5 12  1  0  0  0  0
  5  4  2  0  0  0  0
  6  5  1  0  0  0  0
  7  6  1  0  0  0  0
  8  7  1  0  0  0  0
  8 15  1  0  0  0  0
  9  6  2  0  0  0  0
  9 10  1  0  0  0  0
 10  1  2  0  0  0  0
 11 20  1  0  0  0  0
 13  8  1  0  0  0  0
 14  8  1  0  0  0  0
 16  9  1  0  0  0  0
 17 10  1  0  0  0  0
 18 22  1  0  0  0  0
 19 18  1  0  0  0  0
 21 18  1  0  0  0  0
M  RAD  3   2   2   3   3   4   2
M  END
