Coordinates from ORCA-job 4-MeOPhN2+~BF4-_B3LYPG-6-31G_dp-CH-Scan-d09-49-n800
 OpenBabel11261919343D

 22 20  0  0  0  0  0  0  0  0999 V2000
   -1.9327    0.0466    0.0920 C   0  0  0  0  0  0  0  0  0  0  0  0
   -3.2929   -0.1324    0.1618 N   0  0  0  0  0  0  0  0  0  0  0  0
   -4.4064   -0.2407    0.2230 N   0  0  0  0  0  0  0  0  0  0  0  0
   -1.4907    1.3923    0.1556 C   0  0  0  0  0  0  0  0  0  0  0  0
   -0.0932    1.4657    0.0799 C   0  0  0  0  0  0  0  0  0  0  0  0
    0.7457    0.3448   -0.0429 C   0  0  0  0  0  0  0  0  0  0  0  0
    2.0714    0.5967   -0.1015 O   0  0  0  0  0  0  0  0  0  0  0  0
    2.9935   -0.4817   -0.2248 C   0  0  0  0  0  0  0  0  0  0  0  0
    0.2094   -0.9719   -0.0999 C   0  0  0  0  0  0  0  0  0  0  0  0
   -1.1541   -1.1342   -0.0318 C   0  0  0  0  0  0  0  0  0  0  0  0
   -3.0698    3.3495    0.3459 H   0  0  0  0  0  0  0  0  0  0  0  0
    0.4117    2.4303    0.1154 H   0  0  0  0  0  0  0  0  0  0  0  0
    3.9829   -0.0244   -0.2470 H   0  0  0  0  0  0  0  0  0  0  0  0
    2.8344   -1.0427   -1.1535 H   0  0  0  0  0  0  0  0  0  0  0  0
    2.9302   -1.1646    0.6310 H   0  0  0  0  0  0  0  0  0  0  0  0
    0.8513   -1.8383   -0.1943 H   0  0  0  0  0  0  0  0  0  0  0  0
   -1.6077   -2.1210   -0.0716 H   0  0  0  0  0  0  0  0  0  0  0  0
   -5.4481    2.9675    0.2829 B   0  0  0  0  0  0  0  0  0  0  0  0
   -5.1713    2.3401   -0.8683 F   0  0  0  0  0  0  0  0  0  0  0  0
   -3.7869    3.9655    0.4149 F   0  0  0  0  0  0  0  0  0  0  0  0
   -6.2675    4.0131    0.2688 F   0  0  0  0  0  0  0  0  0  0  0  0
   -5.3131    2.2594    1.4109 F   0  0  0  0  0  0  0  0  0  0  0  0
  1  4  1  0  0  0  0
  1  2  1  0  0  0  0
  2  3  1  0  0  0  0
  5 12  1  0  0  0  0
  5  4  2  0  0  0  0
  6  5  1  0  0  0  0
  7  6  1  0  0  0  0
  8  7  1  0  0  0  0
  8 15  1  0  0  0  0
  9  6  2  0  0  0  0
  9 10  1  0  0  0  0
 10  1  2  0  0  0  0
 11 20  1  0  0  0  0
 13  8  1  0  0  0  0
 14  8  1  0  0  0  0
 16  9  1  0  0  0  0
 17 10  1  0  0  0  0
 18 22  1  0  0  0  0
 19 18  1  0  0  0  0
 21 18  1  0  0  0  0
M  RAD  3   2   2   3   3   4   2
M  END
