Coordinates from ORCA-job 4-MeOPhN2+~BF4-_B3LYPG-6-31G_dp-CH-Scan-d09-49-n800
 OpenBabel11261919343D

 22 20  0  0  0  0  0  0  0  0999 V2000
   -2.1100    0.0862    0.0163 C   0  0  0  0  0  0  0  0  0  0  0  0
   -3.4634   -0.1411    0.0434 N   0  0  0  0  0  0  0  0  0  0  0  0
   -4.5685   -0.3053    0.0661 N   0  0  0  0  0  0  0  0  0  0  0  0
   -1.6688    1.4327    0.0365 C   0  0  0  0  0  0  0  0  0  0  0  0
   -0.2825    1.5535   -0.0007 C   0  0  0  0  0  0  0  0  0  0  0  0
    0.5857    0.4462   -0.0517 C   0  0  0  0  0  0  0  0  0  0  0  0
    1.9005    0.7307   -0.0829 O   0  0  0  0  0  0  0  0  0  0  0  0
    2.8553   -0.3282   -0.1329 C   0  0  0  0  0  0  0  0  0  0  0  0
    0.0751   -0.8772   -0.0673 C   0  0  0  0  0  0  0  0  0  0  0  0
   -1.2884   -1.0658   -0.0338 C   0  0  0  0  0  0  0  0  0  0  0  0
   -2.7110    2.7231    0.1228 H   0  0  0  0  0  0  0  0  0  0  0  0
    0.1850    2.5349    0.0104 H   0  0  0  0  0  0  0  0  0  0  0  0
    3.8313    0.1561   -0.1500 H   0  0  0  0  0  0  0  0  0  0  0  0
    2.7339   -0.9321   -1.0395 H   0  0  0  0  0  0  0  0  0  0  0  0
    2.7843   -0.9710    0.7522 H   0  0  0  0  0  0  0  0  0  0  0  0
    0.7337   -1.7352   -0.1046 H   0  0  0  0  0  0  0  0  0  0  0  0
   -1.7169   -2.0635   -0.0451 H   0  0  0  0  0  0  0  0  0  0  0  0
   -4.9032    2.9203    0.3787 B   0  0  0  0  0  0  0  0  0  0  0  0
   -5.1094    2.2339   -0.7924 F   0  0  0  0  0  0  0  0  0  0  0  0
   -3.4285    3.5366    0.1879 F   0  0  0  0  0  0  0  0  0  0  0  0
   -5.6877    4.0009    0.5756 F   0  0  0  0  0  0  0  0  0  0  0  0
   -4.7503    2.0840    1.4575 F   0  0  0  0  0  0  0  0  0  0  0  0
  1  4  1  0  0  0  0
  1  2  1  0  0  0  0
  2  3  1  0  0  0  0
  5 12  1  0  0  0  0
  5  4  2  0  0  0  0
  6  5  1  0  0  0  0
  7  6  1  0  0  0  0
  8  7  1  0  0  0  0
  8 15  1  0  0  0  0
  9  6  2  0  0  0  0
  9 10  1  0  0  0  0
 10  1  2  0  0  0  0
 11 20  1  0  0  0  0
 13  8  1  0  0  0  0
 14  8  1  0  0  0  0
 16  9  1  0  0  0  0
 17 10  1  0  0  0  0
 18 21  1  0  0  0  0
 18 22  1  0  0  0  0
 19 18  1  0  0  0  0
M  RAD  3   2   2   3   3   4   2
M  END
