Coordinates from ORCA-job 4-MeOPhN2+~BF4-_B3LYPG-6-31G_dp-CH-Scan-d09-49-n800
 OpenBabel11261919343D

 22 21  0  0  0  0  0  0  0  0999 V2000
   -2.1478    0.1770    0.3295 C   0  0  0  0  0  0  0  0  0  0  0  0
   -3.4948   -0.0191    0.5022 N   0  0  0  0  0  0  0  0  0  0  0  0
   -4.5828   -0.2019    0.6759 N   0  0  0  0  0  0  0  0  0  0  0  0
   -1.6065    1.4734    0.4744 C   0  0  0  0  0  0  0  0  0  0  0  0
   -0.2433    1.6060    0.3207 C   0  0  0  0  0  0  0  0  0  0  0  0
    0.5687    0.4913    0.0188 C   0  0  0  0  0  0  0  0  0  0  0  0
    1.8770    0.7498   -0.1142 O   0  0  0  0  0  0  0  0  0  0  0  0
    2.7825   -0.3119   -0.4260 C   0  0  0  0  0  0  0  0  0  0  0  0
   -0.0008   -0.7943   -0.1230 C   0  0  0  0  0  0  0  0  0  0  0  0
   -1.3640   -0.9552    0.0373 C   0  0  0  0  0  0  0  0  0  0  0  0
   -2.3375    2.3903    0.7063 H   0  0  0  0  0  0  0  0  0  0  0  0
    0.2329    2.5751    0.4195 H   0  0  0  0  0  0  0  0  0  0  0  0
    3.7678    0.1498   -0.4761 H   0  0  0  0  0  0  0  0  0  0  0  0
    2.5416   -0.7644   -1.3940 H   0  0  0  0  0  0  0  0  0  0  0  0
    2.7768   -1.0786    0.3567 H   0  0  0  0  0  0  0  0  0  0  0  0
    0.6113   -1.6557   -0.3555 H   0  0  0  0  0  0  0  0  0  0  0  0
   -1.8251   -1.9316   -0.0664 H   0  0  0  0  0  0  0  0  0  0  0  0
   -4.7390    2.8484    0.0356 B   0  0  0  0  0  0  0  0  0  0  0  0
   -4.0251    2.0690   -0.9162 F   0  0  0  0  0  0  0  0  0  0  0  0
   -3.7680    3.3888    0.9385 F   0  0  0  0  0  0  0  0  0  0  0  0
   -5.4581    3.8451   -0.5689 F   0  0  0  0  0  0  0  0  0  0  0  0
   -5.5697    1.9681    0.7714 F   0  0  0  0  0  0  0  0  0  0  0  0
  1  4  1  0  0  0  0
  1  2  1  0  0  0  0
  2  3  1  0  0  0  0
  4 11  1  0  0  0  0
  5 12  1  0  0  0  0
  5  4  2  0  0  0  0
  6  5  1  0  0  0  0
  7  6  1  0  0  0  0
  8  7  1  0  0  0  0
  8 15  1  0  0  0  0
  9  6  2  0  0  0  0
  9 10  1  0  0  0  0
 10  1  2  0  0  0  0
 13  8  1  0  0  0  0
 14  8  1  0  0  0  0
 16  9  1  0  0  0  0
 17 10  1  0  0  0  0
 18 22  1  0  0  0  0
 18 20  1  0  0  0  0
 19 18  1  0  0  0  0
 21 18  1  0  0  0  0
M  RAD  2   2   2   3   3
M  END
