Coordinates from ORCA-job 4-MeOPhN2+~BF4-_B3LYPG-6-31G_dp-CH-Scan-d09-49-n800
 OpenBabel11261919343D

 22 21  0  0  0  0  0  0  0  0999 V2000
   -2.1477    0.1399    0.2670 C   0  0  0  0  0  0  0  0  0  0  0  0
   -3.4936   -0.0732    0.4207 N   0  0  0  0  0  0  0  0  0  0  0  0
   -4.5851   -0.2479    0.5763 N   0  0  0  0  0  0  0  0  0  0  0  0
   -1.6350    1.4494    0.4065 C   0  0  0  0  0  0  0  0  0  0  0  0
   -0.2676    1.5881    0.2762 C   0  0  0  0  0  0  0  0  0  0  0  0
    0.5642    0.4796    0.0109 C   0  0  0  0  0  0  0  0  0  0  0  0
    1.8737    0.7496   -0.0945 O   0  0  0  0  0  0  0  0  0  0  0  0
    2.7976   -0.3069   -0.3647 C   0  0  0  0  0  0  0  0  0  0  0  0
    0.0147   -0.8169   -0.1279 C   0  0  0  0  0  0  0  0  0  0  0  0
   -1.3482   -0.9917    0.0037 C   0  0  0  0  0  0  0  0  0  0  0  0
   -2.4828    2.4862    0.6158 H   0  0  0  0  0  0  0  0  0  0  0  0
    0.2012    2.5620    0.3686 H   0  0  0  0  0  0  0  0  0  0  0  0
    3.7796    0.1637   -0.3938 H   0  0  0  0  0  0  0  0  0  0  0  0
    2.5894   -0.7765   -1.3322 H   0  0  0  0  0  0  0  0  0  0  0  0
    2.7777   -1.0625    0.4287 H   0  0  0  0  0  0  0  0  0  0  0  0
    0.6431   -1.6731   -0.3347 H   0  0  0  0  0  0  0  0  0  0  0  0
   -1.7963   -1.9748   -0.0960 H   0  0  0  0  0  0  0  0  0  0  0  0
   -4.7442    2.8747    0.0806 B   0  0  0  0  0  0  0  0  0  0  0  0
   -4.2238    2.0663   -0.9500 F   0  0  0  0  0  0  0  0  0  0  0  0
   -3.5852    3.4740    0.7464 F   0  0  0  0  0  0  0  0  0  0  0  0
   -5.5620    3.8630   -0.3874 F   0  0  0  0  0  0  0  0  0  0  0  0
   -5.3733    2.0468    1.0264 F   0  0  0  0  0  0  0  0  0  0  0  0
  1  4  2  0  0  0  0
  1  2  1  0  0  0  0
  2  3  1  0  0  0  0
  4 11  1  0  0  0  0
  5 12  1  0  0  0  0
  5  4  1  0  0  0  0
  6  5  2  0  0  0  0
  7  6  1  0  0  0  0
  8  7  1  0  0  0  0
  8 15  1  0  0  0  0
  9 10  2  0  0  0  0
  9  6  1  0  0  0  0
 10  1  1  0  0  0  0
 13  8  1  0  0  0  0
 14  8  1  0  0  0  0
 16  9  1  0  0  0  0
 17 10  1  0  0  0  0
 18 20  1  0  0  0  0
 18 22  1  0  0  0  0
 19 18  1  0  0  0  0
 21 18  1  0  0  0  0
M  RAD  2   2   2   3   3
M  END
