Coordinates from ORCA-job 4-MeOPhN2+~BF4-_B3LYPG-6-31G_dp-CH-Scan-d09-49-n800
 OpenBabel11261919343D

 22 20  0  0  0  0  0  0  0  0999 V2000
   -1.8463    0.0421    0.0766 C   0  0  0  0  0  0  0  0  0  0  0  0
   -3.2120   -0.1047    0.1392 N   0  0  0  0  0  0  0  0  0  0  0  0
   -4.3296   -0.1779    0.1929 N   0  0  0  0  0  0  0  0  0  0  0  0
   -1.3903    1.3824    0.1386 C   0  0  0  0  0  0  0  0  0  0  0  0
    0.0114    1.4274    0.0675 C   0  0  0  0  0  0  0  0  0  0  0  0
    0.8308    0.2926   -0.0490 C   0  0  0  0  0  0  0  0  0  0  0  0
    2.1628    0.5204   -0.1047 O   0  0  0  0  0  0  0  0  0  0  0  0
    3.0649   -0.5744   -0.2229 C   0  0  0  0  0  0  0  0  0  0  0  0
    0.2736   -1.0167   -0.1034 C   0  0  0  0  0  0  0  0  0  0  0  0
   -1.0924   -1.1563   -0.0399 C   0  0  0  0  0  0  0  0  0  0  0  0
   -3.2757    3.7022    0.3605 H   0  0  0  0  0  0  0  0  0  0  0  0
    0.5353    2.3827    0.1016 H   0  0  0  0  0  0  0  0  0  0  0  0
    4.0628   -0.1355   -0.2450 H   0  0  0  0  0  0  0  0  0  0  0  0
    2.8980   -1.1362   -1.1499 H   0  0  0  0  0  0  0  0  0  0  0  0
    2.9885   -1.2539    0.6347 H   0  0  0  0  0  0  0  0  0  0  0  0
    0.9024   -1.8934   -0.1921 H   0  0  0  0  0  0  0  0  0  0  0  0
   -1.5632   -2.1355   -0.0779 H   0  0  0  0  0  0  0  0  0  0  0  0
   -5.6763    2.9688    0.3063 B   0  0  0  0  0  0  0  0  0  0  0  0
   -5.3175    2.4074   -0.8481 F   0  0  0  0  0  0  0  0  0  0  0  0
   -4.0450    4.2327    0.4167 F   0  0  0  0  0  0  0  0  0  0  0  0
   -6.5821    3.9345    0.3125 F   0  0  0  0  0  0  0  0  0  0  0  0
   -5.4041    2.3110    1.4325 F   0  0  0  0  0  0  0  0  0  0  0  0
  1  4  1  0  0  0  0
  1  2  1  0  0  0  0
  2  3  1  0  0  0  0
  5 12  1  0  0  0  0
  5  4  2  0  0  0  0
  6  5  1  0  0  0  0
  7  6  1  0  0  0  0
  8  7  1  0  0  0  0
  8 15  1  0  0  0  0
  9  6  2  0  0  0  0
  9 10  1  0  0  0  0
 10  1  2  0  0  0  0
 11 20  1  0  0  0  0
 13  8  1  0  0  0  0
 14  8  1  0  0  0  0
 16  9  1  0  0  0  0
 17 10  1  0  0  0  0
 18 21  1  0  0  0  0
 18 22  1  0  0  0  0
 19 18  1  0  0  0  0
M  RAD  3   2   2   3   3   4   2
M  END
