Coordinates from ORCA-job 4-MeOPhN2+~BF4-_B3LYPG-6-31G_dp-CH-Scan-d09-49-n800
 OpenBabel11261919343D

 22 20  0  0  0  0  0  0  0  0999 V2000
   -1.5788    0.1213   -0.0577 C   0  0  0  0  0  0  0  0  0  0  0  0
   -2.9558    0.1100   -0.0099 N   0  0  0  0  0  0  0  0  0  0  0  0
   -4.0763    0.1687    0.0268 N   0  0  0  0  0  0  0  0  0  0  0  0
   -1.0304    1.4245   -0.1140 C   0  0  0  0  0  0  0  0  0  0  0  0
    0.3752    1.3464   -0.1595 C   0  0  0  0  0  0  0  0  0  0  0  0
    1.1003    0.1453   -0.1485 C   0  0  0  0  0  0  0  0  0  0  0  0
    2.4502    0.2575   -0.1961 O   0  0  0  0  0  0  0  0  0  0  0  0
    3.2583   -0.9131   -0.1862 C   0  0  0  0  0  0  0  0  0  0  0  0
    0.4412   -1.1179   -0.0898 C   0  0  0  0  0  0  0  0  0  0  0  0
   -0.9320   -1.1440   -0.0429 C   0  0  0  0  0  0  0  0  0  0  0  0
   -4.3710    4.7189    0.4433 H   0  0  0  0  0  0  0  0  0  0  0  0
    0.9768    2.2553   -0.2063 H   0  0  0  0  0  0  0  0  0  0  0  0
    4.2904   -0.5626   -0.2277 H   0  0  0  0  0  0  0  0  0  0  0  0
    3.0591   -1.5494   -1.0573 H   0  0  0  0  0  0  0  0  0  0  0  0
    3.1133   -1.4970    0.7312 H   0  0  0  0  0  0  0  0  0  0  0  0
    1.0012   -2.0447   -0.0816 H   0  0  0  0  0  0  0  0  0  0  0  0
   -1.4811   -2.0816    0.0031 H   0  0  0  0  0  0  0  0  0  0  0  0
   -6.1186    2.9521    0.4001 B   0  0  0  0  0  0  0  0  0  0  0  0
   -5.2108    2.8244   -0.5701 F   0  0  0  0  0  0  0  0  0  0  0  0
   -5.0919    4.7921    1.0275 F   0  0  0  0  0  0  0  0  0  0  0  0
   -7.2802    3.5189    0.1288 F   0  0  0  0  0  0  0  0  0  0  0  0
   -5.9428    2.2946    1.5333 F   0  0  0  0  0  0  0  0  0  0  0  0
  1 10  1  0  0  0  0
  1  2  1  0  0  0  0
  2  3  1  0  0  0  0
  4  1  2  0  0  0  0
  5  6  2  0  0  0  0
  5  4  1  0  0  0  0
  6  9  1  0  0  0  0
  7  8  1  0  0  0  0
  7  6  1  0  0  0  0
  8 15  1  0  0  0  0
  9 16  1  0  0  0  0
  9 10  2  0  0  0  0
 10 17  1  0  0  0  0
 11 20  1  0  0  0  0
 12  5  1  0  0  0  0
 13  8  1  0  0  0  0
 14  8  1  0  0  0  0
 18 22  1  0  0  0  0
 19 18  1  0  0  0  0
 21 18  1  0  0  0  0
M  RAD  3   2   2   3   3   4   2
M  END
