Coordinates from ORCA-job 4-MeOPhN2+~BF4-_B3LYPG-6-31G_dp-CH-Scan-d09-49-n800
 OpenBabel11261919343D

 22 20  0  0  0  0  0  0  0  0999 V2000
   -1.9447    0.0490    0.0992 C   0  0  0  0  0  0  0  0  0  0  0  0
   -3.3041   -0.1341    0.1705 N   0  0  0  0  0  0  0  0  0  0  0  0
   -4.4165   -0.2518    0.2325 N   0  0  0  0  0  0  0  0  0  0  0  0
   -1.5029    1.3945    0.1639 C   0  0  0  0  0  0  0  0  0  0  0  0
   -0.1064    1.4721    0.0855 C   0  0  0  0  0  0  0  0  0  0  0  0
    0.7343    0.3527   -0.0409 C   0  0  0  0  0  0  0  0  0  0  0  0
    2.0590    0.6072   -0.1022 O   0  0  0  0  0  0  0  0  0  0  0  0
    2.9831   -0.4693   -0.2296 C   0  0  0  0  0  0  0  0  0  0  0  0
    0.1999   -0.9645   -0.0984 C   0  0  0  0  0  0  0  0  0  0  0  0
   -1.1633   -1.1295   -0.0277 C   0  0  0  0  0  0  0  0  0  0  0  0
   -3.0487    3.2946    0.3554 H   0  0  0  0  0  0  0  0  0  0  0  0
    0.3960    2.4378    0.1213 H   0  0  0  0  0  0  0  0  0  0  0  0
    3.9714   -0.0098   -0.2539 H   0  0  0  0  0  0  0  0  0  0  0  0
    2.8225   -1.0292   -1.1586 H   0  0  0  0  0  0  0  0  0  0  0  0
    2.9235   -1.1533    0.6256 H   0  0  0  0  0  0  0  0  0  0  0  0
    0.8429   -1.8298   -0.1952 H   0  0  0  0  0  0  0  0  0  0  0  0
   -1.6149   -2.1172   -0.0679 H   0  0  0  0  0  0  0  0  0  0  0  0
   -5.4074    2.9705    0.2730 B   0  0  0  0  0  0  0  0  0  0  0  0
   -5.1432    2.3319   -0.8776 F   0  0  0  0  0  0  0  0  0  0  0  0
   -3.7605    3.9221    0.4192 F   0  0  0  0  0  0  0  0  0  0  0  0
   -6.2174    4.0253    0.2527 F   0  0  0  0  0  0  0  0  0  0  0  0
   -5.3064    2.2505    1.4000 F   0  0  0  0  0  0  0  0  0  0  0  0
  1  4  1  0  0  0  0
  1  2  1  0  0  0  0
  2  3  1  0  0  0  0
  5 12  1  0  0  0  0
  5  4  2  0  0  0  0
  6  5  1  0  0  0  0
  7  6  1  0  0  0  0
  8  7  1  0  0  0  0
  8 15  1  0  0  0  0
  9  6  2  0  0  0  0
  9 10  1  0  0  0  0
 10  1  2  0  0  0  0
 11 20  1  0  0  0  0
 13  8  1  0  0  0  0
 14  8  1  0  0  0  0
 16  9  1  0  0  0  0
 17 10  1  0  0  0  0
 18 22  1  0  0  0  0
 19 18  1  0  0  0  0
 21 18  1  0  0  0  0
M  RAD  3   2   2   3   3   4   2
M  END
