Coordinates from ORCA-job 4-MeOPhN2+~BF4-_B3LYPG-6-31G_dp-CH-Scan-d09-49-n800
 OpenBabel11261919343D

 22 20  0  0  0  0  0  0  0  0999 V2000
   -1.8387    0.0396    0.0781 C   0  0  0  0  0  0  0  0  0  0  0  0
   -3.2045   -0.1041    0.1411 N   0  0  0  0  0  0  0  0  0  0  0  0
   -4.3224   -0.1737    0.1961 N   0  0  0  0  0  0  0  0  0  0  0  0
   -1.3823    1.3799    0.1413 C   0  0  0  0  0  0  0  0  0  0  0  0
    0.0196    1.4231    0.0692 C   0  0  0  0  0  0  0  0  0  0  0  0
    0.8378    0.2876   -0.0489 C   0  0  0  0  0  0  0  0  0  0  0  0
    2.1701    0.5140   -0.1054 O   0  0  0  0  0  0  0  0  0  0  0  0
    3.0710   -0.5816   -0.2253 C   0  0  0  0  0  0  0  0  0  0  0  0
    0.2795   -1.0214   -0.1041 C   0  0  0  0  0  0  0  0  0  0  0  0
   -1.0865   -1.1598   -0.0399 C   0  0  0  0  0  0  0  0  0  0  0  0
   -3.2945    3.7359    0.3659 H   0  0  0  0  0  0  0  0  0  0  0  0
    0.5448    2.3777    0.1039 H   0  0  0  0  0  0  0  0  0  0  0  0
    4.0693   -0.1437   -0.2477 H   0  0  0  0  0  0  0  0  0  0  0  0
    2.9028   -1.1424   -1.1526 H   0  0  0  0  0  0  0  0  0  0  0  0
    2.9946   -1.2618    0.6318 H   0  0  0  0  0  0  0  0  0  0  0  0
    0.9075   -1.8984   -0.1941 H   0  0  0  0  0  0  0  0  0  0  0  0
   -1.5585   -2.1385   -0.0786 H   0  0  0  0  0  0  0  0  0  0  0  0
   -5.6945    2.9703    0.3045 B   0  0  0  0  0  0  0  0  0  0  0  0
   -5.3237    2.4142   -0.8483 F   0  0  0  0  0  0  0  0  0  0  0  0
   -4.0700    4.2568    0.4202 F   0  0  0  0  0  0  0  0  0  0  0  0
   -6.6079    3.9284    0.3073 F   0  0  0  0  0  0  0  0  0  0  0  0
   -5.4172    2.3178    1.4321 F   0  0  0  0  0  0  0  0  0  0  0  0
  1  2  1  0  0  0  0
  1  4  1  0  0  0  0
  2  3  1  0  0  0  0
  5 12  1  0  0  0  0
  5  4  2  0  0  0  0
  6  5  1  0  0  0  0
  7  6  1  0  0  0  0
  8  7  1  0  0  0  0
  8 15  1  0  0  0  0
  9  6  2  0  0  0  0
  9 10  1  0  0  0  0
 10  1  2  0  0  0  0
 11 20  1  0  0  0  0
 13  8  1  0  0  0  0
 14  8  1  0  0  0  0
 16  9  1  0  0  0  0
 17 10  1  0  0  0  0
 18 21  1  0  0  0  0
 18 22  1  0  0  0  0
 19 18  1  0  0  0  0
M  RAD  3   2   2   3   3   4   2
M  END
