Coordinates from ORCA-job 4-MeOPhN2+~BF4-_B3LYPG-6-31G_dp-CH-Scan-d09-49-n800
 OpenBabel11261919343D

 22 20  0  0  0  0  0  0  0  0999 V2000
   -2.1333    0.1059    0.2202 C   0  0  0  0  0  0  0  0  0  0  0  0
   -3.4808   -0.1198    0.3417 N   0  0  0  0  0  0  0  0  0  0  0  0
   -4.5778   -0.2921    0.4595 N   0  0  0  0  0  0  0  0  0  0  0  0
   -1.6598    1.4348    0.3349 C   0  0  0  0  0  0  0  0  0  0  0  0
   -0.2849    1.5689    0.2193 C   0  0  0  0  0  0  0  0  0  0  0  0
    0.5658    0.4665    0.0012 C   0  0  0  0  0  0  0  0  0  0  0  0
    1.8758    0.7487   -0.0921 O   0  0  0  0  0  0  0  0  0  0  0  0
    2.8151   -0.3033   -0.3156 C   0  0  0  0  0  0  0  0  0  0  0  0
    0.0385   -0.8442   -0.1080 C   0  0  0  0  0  0  0  0  0  0  0  0
   -1.3226   -1.0314    0.0031 C   0  0  0  0  0  0  0  0  0  0  0  0
   -2.6062    2.5796    0.5108 H   0  0  0  0  0  0  0  0  0  0  0  0
    0.1818    2.5470    0.2900 H   0  0  0  0  0  0  0  0  0  0  0  0
    3.7923    0.1776   -0.3477 H   0  0  0  0  0  0  0  0  0  0  0  0
    2.6267   -0.8082   -1.2697 H   0  0  0  0  0  0  0  0  0  0  0  0
    2.7951   -1.0338    0.5013 H   0  0  0  0  0  0  0  0  0  0  0  0
    0.6827   -1.6973   -0.2761 H   0  0  0  0  0  0  0  0  0  0  0  0
   -1.7590   -2.0221   -0.0750 H   0  0  0  0  0  0  0  0  0  0  0  0
   -4.7947    2.8983    0.1216 B   0  0  0  0  0  0  0  0  0  0  0  0
   -4.4615    2.1186   -0.9807 F   0  0  0  0  0  0  0  0  0  0  0  0
   -3.4579    3.4664    0.6035 F   0  0  0  0  0  0  0  0  0  0  0  0
   -5.5943    3.9587   -0.1610 F   0  0  0  0  0  0  0  0  0  0  0  0
   -5.2448    2.1010    1.1654 F   0  0  0  0  0  0  0  0  0  0  0  0
  1  4  1  0  0  0  0
  1  2  1  0  0  0  0
  2  3  1  0  0  0  0
  5 12  1  0  0  0  0
  5  4  2  0  0  0  0
  6  5  1  0  0  0  0
  7  6  1  0  0  0  0
  8  7  1  0  0  0  0
  8 15  1  0  0  0  0
  9  6  2  0  0  0  0
  9 10  1  0  0  0  0
 10  1  2  0  0  0  0
 11 20  1  0  0  0  0
 13  8  1  0  0  0  0
 14  8  1  0  0  0  0
 16  9  1  0  0  0  0
 17 10  1  0  0  0  0
 18 22  1  0  0  0  0
 19 18  1  0  0  0  0
 21 18  1  0  0  0  0
M  RAD  3   2   2   3   3   4   2
M  END
