Coordinates from ORCA-job 4-MeOPhN2+~BF4-_B3LYPG-6-31G_dp-CH-Scan-d09-49-n800
 OpenBabel11261919343D

 22 20  0  0  0  0  0  0  0  0999 V2000
   -2.0106    0.0553    0.0829 C   0  0  0  0  0  0  0  0  0  0  0  0
   -3.3668   -0.1496    0.1437 N   0  0  0  0  0  0  0  0  0  0  0  0
   -4.4767   -0.2865    0.1956 N   0  0  0  0  0  0  0  0  0  0  0  0
   -1.5771    1.4043    0.1371 C   0  0  0  0  0  0  0  0  0  0  0  0
   -0.1836    1.5010    0.0682 C   0  0  0  0  0  0  0  0  0  0  0  0
    0.6715    0.3899   -0.0410 C   0  0  0  0  0  0  0  0  0  0  0  0
    1.9917    0.6610   -0.0958 O   0  0  0  0  0  0  0  0  0  0  0  0
    2.9312   -0.4049   -0.2064 C   0  0  0  0  0  0  0  0  0  0  0  0
    0.1517   -0.9322   -0.0883 C   0  0  0  0  0  0  0  0  0  0  0  0
   -1.2106   -1.1112   -0.0259 C   0  0  0  0  0  0  0  0  0  0  0  0
   -2.9101    3.0539    0.2918 H   0  0  0  0  0  0  0  0  0  0  0  0
    0.3040    2.4737    0.0983 H   0  0  0  0  0  0  0  0  0  0  0  0
    3.9131    0.0679   -0.2301 H   0  0  0  0  0  0  0  0  0  0  0  0
    2.7825   -0.9761   -1.1303 H   0  0  0  0  0  0  0  0  0  0  0  0
    2.8751   -1.0797    0.6561 H   0  0  0  0  0  0  0  0  0  0  0  0
    0.8040   -1.7919   -0.1711 H   0  0  0  0  0  0  0  0  0  0  0  0
   -1.6500   -2.1043   -0.0591 H   0  0  0  0  0  0  0  0  0  0  0  0
   -5.2168    2.9602    0.2967 B   0  0  0  0  0  0  0  0  0  0  0  0
   -5.1000    2.2975   -0.8737 F   0  0  0  0  0  0  0  0  0  0  0  0
   -3.5946    3.7426    0.3598 F   0  0  0  0  0  0  0  0  0  0  0  0
   -5.9872    4.0510    0.3296 F   0  0  0  0  0  0  0  0  0  0  0  0
   -5.1445    2.1979    1.4085 F   0  0  0  0  0  0  0  0  0  0  0  0
  1  4  1  0  0  0  0
  1  2  1  0  0  0  0
  2  3  1  0  0  0  0
  5 12  1  0  0  0  0
  5  4  2  0  0  0  0
  6  5  1  0  0  0  0
  7  6  1  0  0  0  0
  8  7  1  0  0  0  0
  8 15  1  0  0  0  0
  9  6  2  0  0  0  0
  9 10  1  0  0  0  0
 10  1  2  0  0  0  0
 11 20  1  0  0  0  0
 13  8  1  0  0  0  0
 14  8  1  0  0  0  0
 16  9  1  0  0  0  0
 17 10  1  0  0  0  0
 18 21  1  0  0  0  0
 18 22  1  0  0  0  0
 19 18  1  0  0  0  0
M  RAD  3   2   2   3   3   4   2
M  END
