Coordinates from ORCA-job 4-MeOPhN2+~BF4-_B3LYPG-6-31G_dp-CH-Scan-d09-49-n800
 OpenBabel11261919343D

 22 20  0  0  0  0  0  0  0  0999 V2000
   -2.0662    0.0677    0.0615 C   0  0  0  0  0  0  0  0  0  0  0  0
   -3.4201   -0.1536    0.1119 N   0  0  0  0  0  0  0  0  0  0  0  0
   -4.5270   -0.3089    0.1529 N   0  0  0  0  0  0  0  0  0  0  0  0
   -1.6333    1.4172    0.1056 C   0  0  0  0  0  0  0  0  0  0  0  0
   -0.2433    1.5279    0.0480 C   0  0  0  0  0  0  0  0  0  0  0  0
    0.6211    0.4213   -0.0428 C   0  0  0  0  0  0  0  0  0  0  0  0
    1.9379    0.7026   -0.0887 O   0  0  0  0  0  0  0  0  0  0  0  0
    2.8874   -0.3572   -0.1807 C   0  0  0  0  0  0  0  0  0  0  0  0
    0.1093   -0.9027   -0.0816 C   0  0  0  0  0  0  0  0  0  0  0  0
   -1.2529   -1.0897   -0.0290 C   0  0  0  0  0  0  0  0  0  0  0  0
   -2.8032    2.8661    0.2275 H   0  0  0  0  0  0  0  0  0  0  0  0
    0.2330    2.5057    0.0730 H   0  0  0  0  0  0  0  0  0  0  0  0
    3.8652    0.1236   -0.2003 H   0  0  0  0  0  0  0  0  0  0  0  0
    2.7506   -0.9378   -1.1004 H   0  0  0  0  0  0  0  0  0  0  0  0
    2.8284   -1.0234    0.6881 H   0  0  0  0  0  0  0  0  0  0  0  0
    0.7666   -1.7597   -0.1506 H   0  0  0  0  0  0  0  0  0  0  0  0
   -1.6848   -2.0860   -0.0562 H   0  0  0  0  0  0  0  0  0  0  0  0
   -5.0404    2.9438    0.3253 B   0  0  0  0  0  0  0  0  0  0  0  0
   -5.0607    2.2583   -0.8507 F   0  0  0  0  0  0  0  0  0  0  0  0
   -3.4859    3.6127    0.2984 F   0  0  0  0  0  0  0  0  0  0  0  0
   -5.8093    4.0420    0.4060 F   0  0  0  0  0  0  0  0  0  0  0  0
   -4.9764    2.1498    1.4293 F   0  0  0  0  0  0  0  0  0  0  0  0
  1  4  1  0  0  0  0
  1  2  1  0  0  0  0
  2  3  1  0  0  0  0
  5 12  1  0  0  0  0
  5  4  2  0  0  0  0
  6  5  1  0  0  0  0
  7  6  1  0  0  0  0
  8  7  1  0  0  0  0
  8 15  1  0  0  0  0
  9  6  2  0  0  0  0
  9 10  1  0  0  0  0
 10  1  2  0  0  0  0
 11 20  1  0  0  0  0
 13  8  1  0  0  0  0
 14  8  1  0  0  0  0
 16  9  1  0  0  0  0
 17 10  1  0  0  0  0
 18 21  1  0  0  0  0
 18 22  1  0  0  0  0
 19 18  1  0  0  0  0
M  RAD  3   2   2   3   3   4   2
M  END
