Coordinates from ORCA-job 4-MeOPhN2+~BF4-_B3LYPG-6-31G_dp-CH-Scan-d09-49-n800
 OpenBabel11261919343D

 22 20  0  0  0  0  0  0  0  0999 V2000
   -1.8218    0.0405    0.0815 C   0  0  0  0  0  0  0  0  0  0  0  0
   -3.1886   -0.0969    0.1464 N   0  0  0  0  0  0  0  0  0  0  0  0
   -4.3069   -0.1598    0.2018 N   0  0  0  0  0  0  0  0  0  0  0  0
   -1.3617    1.3793    0.1450 C   0  0  0  0  0  0  0  0  0  0  0  0
    0.0407    1.4164    0.0705 C   0  0  0  0  0  0  0  0  0  0  0  0
    0.8543    0.2779   -0.0498 C   0  0  0  0  0  0  0  0  0  0  0  0
    2.1877    0.4990   -0.1085 O   0  0  0  0  0  0  0  0  0  0  0  0
    3.0837   -0.6001   -0.2308 C   0  0  0  0  0  0  0  0  0  0  0  0
    0.2910   -1.0291   -0.1048 C   0  0  0  0  0  0  0  0  0  0  0  0
   -1.0754   -1.1624   -0.0385 C   0  0  0  0  0  0  0  0  0  0  0  0
   -3.3397    3.8035    0.3826 H   0  0  0  0  0  0  0  0  0  0  0  0
    0.5701    2.3688    0.1049 H   0  0  0  0  0  0  0  0  0  0  0  0
    4.0839   -0.1664   -0.2549 H   0  0  0  0  0  0  0  0  0  0  0  0
    2.9117   -1.1598   -1.1581 H   0  0  0  0  0  0  0  0  0  0  0  0
    3.0063   -1.2807    0.6259 H   0  0  0  0  0  0  0  0  0  0  0  0
    0.9157   -1.9084   -0.1963 H   0  0  0  0  0  0  0  0  0  0  0  0
   -1.5513   -2.1392   -0.0769 H   0  0  0  0  0  0  0  0  0  0  0  0
   -5.7322    2.9698    0.2990 B   0  0  0  0  0  0  0  0  0  0  0  0
   -5.3310    2.4277   -0.8493 F   0  0  0  0  0  0  0  0  0  0  0  0
   -4.1271    4.3042    0.4349 F   0  0  0  0  0  0  0  0  0  0  0  0
   -6.6644    3.9089    0.2922 F   0  0  0  0  0  0  0  0  0  0  0  0
   -5.4488    2.3267    1.4296 F   0  0  0  0  0  0  0  0  0  0  0  0
  1  4  1  0  0  0  0
  1  2  1  0  0  0  0
  2  3  1  0  0  0  0
  5 12  1  0  0  0  0
  5  4  2  0  0  0  0
  6  5  1  0  0  0  0
  7  6  1  0  0  0  0
  8  7  1  0  0  0  0
  8 15  1  0  0  0  0
  9  6  2  0  0  0  0
  9 10  1  0  0  0  0
 10  1  2  0  0  0  0
 11 20  1  0  0  0  0
 13  8  1  0  0  0  0
 14  8  1  0  0  0  0
 16  9  1  0  0  0  0
 17 10  1  0  0  0  0
 18 22  1  0  0  0  0
 19 18  1  0  0  0  0
 21 18  1  0  0  0  0
M  RAD  3   2   2   3   3   4   2
M  END
