Coordinates from ORCA-job 4-MeOPhN2+~BF4-_B3LYPG-6-31G_dp-CH-Scan-d09-49-n800
 OpenBabel11261919343D

 22 20  0  0  0  0  0  0  0  0999 V2000
   -2.1264    0.0984    0.2105 C   0  0  0  0  0  0  0  0  0  0  0  0
   -3.4741   -0.1302    0.3252 N   0  0  0  0  0  0  0  0  0  0  0  0
   -4.5721   -0.3036    0.4347 N   0  0  0  0  0  0  0  0  0  0  0  0
   -1.6623    1.4317    0.3208 C   0  0  0  0  0  0  0  0  0  0  0  0
   -0.2850    1.5629    0.2084 C   0  0  0  0  0  0  0  0  0  0  0  0
    0.5691    0.4619   -0.0008 C   0  0  0  0  0  0  0  0  0  0  0  0
    1.8796    0.7461   -0.0914 O   0  0  0  0  0  0  0  0  0  0  0  0
    2.8212   -0.3052   -0.3061 C   0  0  0  0  0  0  0  0  0  0  0  0
    0.0461   -0.8516   -0.1049 C   0  0  0  0  0  0  0  0  0  0  0  0
   -1.3145   -1.0407    0.0022 C   0  0  0  0  0  0  0  0  0  0  0  0
   -2.6374    2.6126    0.4911 H   0  0  0  0  0  0  0  0  0  0  0  0
    0.1828    2.5411    0.2755 H   0  0  0  0  0  0  0  0  0  0  0  0
    3.7977    0.1771   -0.3381 H   0  0  0  0  0  0  0  0  0  0  0  0
    2.6369   -0.8161   -1.2578 H   0  0  0  0  0  0  0  0  0  0  0  0
    2.8004   -1.0314    0.5147 H   0  0  0  0  0  0  0  0  0  0  0  0
    0.6932   -1.7038   -0.2659 H   0  0  0  0  0  0  0  0  0  0  0  0
   -1.7492   -2.0327   -0.0721 H   0  0  0  0  0  0  0  0  0  0  0  0
   -4.8188    2.9039    0.1306 B   0  0  0  0  0  0  0  0  0  0  0  0
   -4.5188    2.1337   -0.9810 F   0  0  0  0  0  0  0  0  0  0  0  0
   -3.4415    3.4706    0.5743 F   0  0  0  0  0  0  0  0  0  0  0  0
   -5.6045    3.9805   -0.1147 F   0  0  0  0  0  0  0  0  0  0  0  0
   -5.2261    2.1145    1.1913 F   0  0  0  0  0  0  0  0  0  0  0  0
  1  4  1  0  0  0  0
  1  2  1  0  0  0  0
  2  3  1  0  0  0  0
  5 12  1  0  0  0  0
  5  4  2  0  0  0  0
  6  5  1  0  0  0  0
  7  6  1  0  0  0  0
  8  7  1  0  0  0  0
  8 15  1  0  0  0  0
  9  6  2  0  0  0  0
  9 10  1  0  0  0  0
 10  1  2  0  0  0  0
 11 20  1  0  0  0  0
 13  8  1  0  0  0  0
 14  8  1  0  0  0  0
 16  9  1  0  0  0  0
 17 10  1  0  0  0  0
 18 22  1  0  0  0  0
 19 18  1  0  0  0  0
 21 18  1  0  0  0  0
M  RAD  3   2   2   3   3   4   2
M  END
