Coordinates from ORCA-job 4-MeOPhN2+~BF4-_B3LYPG-6-31G_dp-CH-Scan-d09-49-n800
 OpenBabel11261919343D

 22 20  0  0  0  0  0  0  0  0999 V2000
   -1.5777    0.1226   -0.0577 C   0  0  0  0  0  0  0  0  0  0  0  0
   -2.9547    0.1119   -0.0098 N   0  0  0  0  0  0  0  0  0  0  0  0
   -4.0753    0.1703    0.0266 N   0  0  0  0  0  0  0  0  0  0  0  0
   -1.0284    1.4254   -0.1144 C   0  0  0  0  0  0  0  0  0  0  0  0
    0.3772    1.3465   -0.1600 C   0  0  0  0  0  0  0  0  0  0  0  0
    1.1015    0.1449   -0.1487 C   0  0  0  0  0  0  0  0  0  0  0  0
    2.4515    0.2563   -0.1964 O   0  0  0  0  0  0  0  0  0  0  0  0
    3.2589   -0.9148   -0.1863 C   0  0  0  0  0  0  0  0  0  0  0  0
    0.4417   -1.1179   -0.0897 C   0  0  0  0  0  0  0  0  0  0  0  0
   -0.9316   -1.1430   -0.0427 C   0  0  0  0  0  0  0  0  0  0  0  0
   -4.3749    4.7208    0.4440 H   0  0  0  0  0  0  0  0  0  0  0  0
    0.9794    2.2550   -0.2070 H   0  0  0  0  0  0  0  0  0  0  0  0
    4.2912   -0.5650   -0.2280 H   0  0  0  0  0  0  0  0  0  0  0  0
    3.0592   -1.5512   -1.0573 H   0  0  0  0  0  0  0  0  0  0  0  0
    3.1135   -1.4984    0.7312 H   0  0  0  0  0  0  0  0  0  0  0  0
    1.0011   -2.0449   -0.0813 H   0  0  0  0  0  0  0  0  0  0  0  0
   -1.4813   -2.0803    0.0036 H   0  0  0  0  0  0  0  0  0  0  0  0
   -6.1203    2.9517    0.4001 B   0  0  0  0  0  0  0  0  0  0  0  0
   -5.2122    2.8252   -0.5698 F   0  0  0  0  0  0  0  0  0  0  0  0
   -5.0960    4.7929    1.0282 F   0  0  0  0  0  0  0  0  0  0  0  0
   -7.2825    3.5172    0.1287 F   0  0  0  0  0  0  0  0  0  0  0  0
   -5.9440    2.2942    1.5333 F   0  0  0  0  0  0  0  0  0  0  0  0
  1 10  1  0  0  0  0
  1  2  1  0  0  0  0
  2  3  1  0  0  0  0
  4  1  2  0  0  0  0
  5  6  2  0  0  0  0
  5  4  1  0  0  0  0
  6  9  1  0  0  0  0
  7  8  1  0  0  0  0
  7  6  1  0  0  0  0
  8 15  1  0  0  0  0
  9 16  1  0  0  0  0
  9 10  2  0  0  0  0
 10 17  1  0  0  0  0
 11 20  1  0  0  0  0
 12  5  1  0  0  0  0
 13  8  1  0  0  0  0
 14  8  1  0  0  0  0
 18 22  1  0  0  0  0
 19 18  1  0  0  0  0
 21 18  1  0  0  0  0
M  RAD  3   2   2   3   3   4   2
M  END
