Coordinates from ORCA-job 4-MeOPhN2+~BF4-_B3LYPG-6-31G_dp-CH-Scan-d09-49-n800
 OpenBabel11261919343D

 22 20  0  0  0  0  0  0  0  0999 V2000
   -1.7628    0.0323    0.0326 C   0  0  0  0  0  0  0  0  0  0  0  0
   -3.1323   -0.0846    0.0986 N   0  0  0  0  0  0  0  0  0  0  0  0
   -4.2524   -0.1217    0.1529 N   0  0  0  0  0  0  0  0  0  0  0  0
   -1.2971    1.3702    0.0475 C   0  0  0  0  0  0  0  0  0  0  0  0
    0.1078    1.3900   -0.0212 C   0  0  0  0  0  0  0  0  0  0  0  0
    0.9119    0.2414   -0.0918 C   0  0  0  0  0  0  0  0  0  0  0  0
    2.2488    0.4479   -0.1492 O   0  0  0  0  0  0  0  0  0  0  0  0
    3.1348   -0.6635   -0.2169 C   0  0  0  0  0  0  0  0  0  0  0  0
    0.3385   -1.0630   -0.1007 C   0  0  0  0  0  0  0  0  0  0  0  0
   -1.0292   -1.1826   -0.0374 C   0  0  0  0  0  0  0  0  0  0  0  0
   -3.5510    4.0578    0.3795 H   0  0  0  0  0  0  0  0  0  0  0  0
    0.6468    2.3382   -0.0203 H   0  0  0  0  0  0  0  0  0  0  0  0
    4.1397   -0.2410   -0.2482 H   0  0  0  0  0  0  0  0  0  0  0  0
    2.9668   -1.2595   -1.1223 H   0  0  0  0  0  0  0  0  0  0  0  0
    3.0422   -1.3078    0.6659 H   0  0  0  0  0  0  0  0  0  0  0  0
    0.9569   -1.9498   -0.1555 H   0  0  0  0  0  0  0  0  0  0  0  0
   -1.5139   -2.1560   -0.0416 H   0  0  0  0  0  0  0  0  0  0  0  0
   -5.8582    2.9875    0.3374 B   0  0  0  0  0  0  0  0  0  0  0  0
   -5.2052    2.4885   -0.7121 F   0  0  0  0  0  0  0  0  0  0  0  0
   -4.3363    4.4501    0.6927 F   0  0  0  0  0  0  0  0  0  0  0  0
   -6.8287    3.8647    0.1469 F   0  0  0  0  0  0  0  0  0  0  0  0
   -5.7308    2.3806    1.5097 F   0  0  0  0  0  0  0  0  0  0  0  0
  1  4  1  0  0  0  0
  1  2  1  0  0  0  0
  2  3  1  0  0  0  0
  5 12  1  0  0  0  0
  5  4  2  0  0  0  0
  6  5  1  0  0  0  0
  7  6  1  0  0  0  0
  8  7  1  0  0  0  0
  8 15  1  0  0  0  0
  9  6  2  0  0  0  0
  9 10  1  0  0  0  0
 10  1  2  0  0  0  0
 11 20  1  0  0  0  0
 13  8  1  0  0  0  0
 14  8  1  0  0  0  0
 16  9  1  0  0  0  0
 17 10  1  0  0  0  0
 18 22  1  0  0  0  0
 19 18  1  0  0  0  0
 21 18  1  0  0  0  0
M  RAD  3   2   2   3   3   4   2
M  END
