Coordinates from ORCA-job 4-MeOPhN2+~BF4-_B3LYPG-6-31G_dp-CH-Scan-d09-49-n800
 OpenBabel11261919343D

 22 21  0  0  0  0  0  0  0  0999 V2000
   -2.1464    0.1328    0.2607 C   0  0  0  0  0  0  0  0  0  0  0  0
   -3.4924   -0.0825    0.4097 N   0  0  0  0  0  0  0  0  0  0  0  0
   -4.5848   -0.2560    0.5604 N   0  0  0  0  0  0  0  0  0  0  0  0
   -1.6406    1.4456    0.3970 C   0  0  0  0  0  0  0  0  0  0  0  0
   -0.2723    1.5847    0.2686 C   0  0  0  0  0  0  0  0  0  0  0  0
    0.5632    0.4776    0.0099 C   0  0  0  0  0  0  0  0  0  0  0  0
    1.8725    0.7504   -0.0937 O   0  0  0  0  0  0  0  0  0  0  0  0
    2.7997   -0.3047   -0.3570 C   0  0  0  0  0  0  0  0  0  0  0  0
    0.0179   -0.8215   -0.1250 C   0  0  0  0  0  0  0  0  0  0  0  0
   -1.3445   -0.9992    0.0035 C   0  0  0  0  0  0  0  0  0  0  0  0
   -2.5075    2.5003    0.6020 H   0  0  0  0  0  0  0  0  0  0  0  0
    0.1956    2.5595    0.3580 H   0  0  0  0  0  0  0  0  0  0  0  0
    3.7806    0.1683   -0.3865 H   0  0  0  0  0  0  0  0  0  0  0  0
    2.5949   -0.7797   -1.3227 H   0  0  0  0  0  0  0  0  0  0  0  0
    2.7805   -1.0567    0.4398 H   0  0  0  0  0  0  0  0  0  0  0  0
    0.6494   -1.6767   -0.3263 H   0  0  0  0  0  0  0  0  0  0  0  0
   -1.7901   -1.9838   -0.0934 H   0  0  0  0  0  0  0  0  0  0  0  0
   -4.7478    2.8787    0.0843 B   0  0  0  0  0  0  0  0  0  0  0  0
   -4.2610    2.0706   -0.9586 F   0  0  0  0  0  0  0  0  0  0  0  0
   -3.5566    3.4717    0.7195 F   0  0  0  0  0  0  0  0  0  0  0  0
   -5.5639    3.8800   -0.3545 F   0  0  0  0  0  0  0  0  0  0  0  0
   -5.3503    2.0600    1.0510 F   0  0  0  0  0  0  0  0  0  0  0  0
  1  4  2  0  0  0  0
  1  2  1  0  0  0  0
  2  3  1  0  0  0  0
  4 11  1  0  0  0  0
  5 12  1  0  0  0  0
  5  4  1  0  0  0  0
  6  5  2  0  0  0  0
  7  6  1  0  0  0  0
  8  7  1  0  0  0  0
  8 15  1  0  0  0  0
  9 10  2  0  0  0  0
  9  6  1  0  0  0  0
 10  1  1  0  0  0  0
 13  8  1  0  0  0  0
 14  8  1  0  0  0  0
 16  9  1  0  0  0  0
 17 10  1  0  0  0  0
 18 20  1  0  0  0  0
 18 22  1  0  0  0  0
 19 18  1  0  0  0  0
 21 18  1  0  0  0  0
M  RAD  2   2   2   3   3
M  END
