Coordinates from ORCA-job 4-MeOPhN2+~BF4-_B3LYPG-6-31G_dp-CH-Scan-d09-49-n800
 OpenBabel11261919343D

 22 20  0  0  0  0  0  0  0  0999 V2000
   -2.0359    0.0600    0.0813 C   0  0  0  0  0  0  0  0  0  0  0  0
   -3.3908   -0.1532    0.1402 N   0  0  0  0  0  0  0  0  0  0  0  0
   -4.4992   -0.2994    0.1905 N   0  0  0  0  0  0  0  0  0  0  0  0
   -1.6034    1.4094    0.1347 C   0  0  0  0  0  0  0  0  0  0  0  0
   -0.2115    1.5128    0.0678 C   0  0  0  0  0  0  0  0  0  0  0  0
    0.6479    0.4043   -0.0394 C   0  0  0  0  0  0  0  0  0  0  0  0
    1.9664    0.6807   -0.0927 O   0  0  0  0  0  0  0  0  0  0  0  0
    2.9104   -0.3818   -0.2017 C   0  0  0  0  0  0  0  0  0  0  0  0
    0.1322   -0.9187   -0.0863 C   0  0  0  0  0  0  0  0  0  0  0  0
   -1.2299   -1.1019   -0.0255 C   0  0  0  0  0  0  0  0  0  0  0  0
   -2.8610    2.9663    0.2768 H   0  0  0  0  0  0  0  0  0  0  0  0
    0.2710    2.4877    0.0978 H   0  0  0  0  0  0  0  0  0  0  0  0
    3.8903    0.0949   -0.2247 H   0  0  0  0  0  0  0  0  0  0  0  0
    2.7646   -0.9539   -1.1255 H   0  0  0  0  0  0  0  0  0  0  0  0
    2.8558   -1.0561    0.6612 H   0  0  0  0  0  0  0  0  0  0  0  0
    0.7869   -1.7766   -0.1676 H   0  0  0  0  0  0  0  0  0  0  0  0
   -1.6657   -2.0965   -0.0584 H   0  0  0  0  0  0  0  0  0  0  0  0
   -5.1363    2.9538    0.2987 B   0  0  0  0  0  0  0  0  0  0  0  0
   -5.0645    2.2797   -0.8742 F   0  0  0  0  0  0  0  0  0  0  0  0
   -3.5415    3.6796    0.3448 F   0  0  0  0  0  0  0  0  0  0  0  0
   -5.9027    4.0508    0.3406 F   0  0  0  0  0  0  0  0  0  0  0  0
   -5.0868    2.1778    1.4081 F   0  0  0  0  0  0  0  0  0  0  0  0
  1  4  1  0  0  0  0
  1  2  1  0  0  0  0
  2  3  1  0  0  0  0
  5 12  1  0  0  0  0
  5  4  2  0  0  0  0
  6  5  1  0  0  0  0
  7  6  1  0  0  0  0
  8  7  1  0  0  0  0
  8 15  1  0  0  0  0
  9  6  2  0  0  0  0
  9 10  1  0  0  0  0
 10  1  2  0  0  0  0
 11 20  1  0  0  0  0
 13  8  1  0  0  0  0
 14  8  1  0  0  0  0
 16  9  1  0  0  0  0
 17 10  1  0  0  0  0
 18 21  1  0  0  0  0
 18 22  1  0  0  0  0
 19 18  1  0  0  0  0
M  RAD  3   2   2   3   3   4   2
M  END
