Coordinates from ORCA-job 4-MeOPhN2+~BF4-_B3LYPG-6-31G_dp-CH-Scan-d09-49-n800
 OpenBabel11261919343D

 22 20  0  0  0  0  0  0  0  0999 V2000
   -1.9859    0.0517    0.0988 C   0  0  0  0  0  0  0  0  0  0  0  0
   -3.3429   -0.1461    0.1665 N   0  0  0  0  0  0  0  0  0  0  0  0
   -4.4537   -0.2758    0.2241 N   0  0  0  0  0  0  0  0  0  0  0  0
   -1.5500    1.3998    0.1599 C   0  0  0  0  0  0  0  0  0  0  0  0
   -0.1555    1.4894    0.0829 C   0  0  0  0  0  0  0  0  0  0  0  0
    0.6943    0.3759   -0.0391 C   0  0  0  0  0  0  0  0  0  0  0  0
    2.0159    0.6417   -0.1004 O   0  0  0  0  0  0  0  0  0  0  0  0
    2.9497   -0.4273   -0.2242 C   0  0  0  0  0  0  0  0  0  0  0  0
    0.1695   -0.9445   -0.0922 C   0  0  0  0  0  0  0  0  0  0  0  0
   -1.1928   -1.1189   -0.0227 C   0  0  0  0  0  0  0  0  0  0  0  0
   -2.9582    3.1416    0.3355 H   0  0  0  0  0  0  0  0  0  0  0  0
    0.3377    2.4595    0.1164 H   0  0  0  0  0  0  0  0  0  0  0  0
    3.9337    0.0411   -0.2508 H   0  0  0  0  0  0  0  0  0  0  0  0
    2.7932   -0.9917   -1.1511 H   0  0  0  0  0  0  0  0  0  0  0  0
    2.8963   -1.1082    0.6337 H   0  0  0  0  0  0  0  0  0  0  0  0
    0.8185   -1.8057   -0.1848 H   0  0  0  0  0  0  0  0  0  0  0  0
   -1.6365   -2.1101   -0.0598 H   0  0  0  0  0  0  0  0  0  0  0  0
   -5.2907    2.9648    0.2739 B   0  0  0  0  0  0  0  0  0  0  0  0
   -5.0919    2.3103   -0.8858 F   0  0  0  0  0  0  0  0  0  0  0  0
   -3.6515    3.8064    0.4033 F   0  0  0  0  0  0  0  0  0  0  0  0
   -6.0711    4.0458    0.2692 F   0  0  0  0  0  0  0  0  0  0  0  0
   -5.2318    2.2200    1.3933 F   0  0  0  0  0  0  0  0  0  0  0  0
  1  4  1  0  0  0  0
  1  2  1  0  0  0  0
  2  3  1  0  0  0  0
  5 12  1  0  0  0  0
  5  4  2  0  0  0  0
  6  5  1  0  0  0  0
  7  6  1  0  0  0  0
  8  7  1  0  0  0  0
  8 15  1  0  0  0  0
  9  6  2  0  0  0  0
  9 10  1  0  0  0  0
 10  1  2  0  0  0  0
 11 20  1  0  0  0  0
 13  8  1  0  0  0  0
 14  8  1  0  0  0  0
 16  9  1  0  0  0  0
 17 10  1  0  0  0  0
 18 22  1  0  0  0  0
 19 18  1  0  0  0  0
 21 18  1  0  0  0  0
M  RAD  3   2   2   3   3   4   2
M  END
