Coordinates from ORCA-job 4-MeOPhN2+~BF4-_B3LYPG-6-31G_dp-CH-Scan-d09-49-n800
 OpenBabel11261919343D

 22 20  0  0  0  0  0  0  0  0999 V2000
   -1.6148    0.0895    0.0528 C   0  0  0  0  0  0  0  0  0  0  0  0
   -2.9887    0.0491    0.1460 N   0  0  0  0  0  0  0  0  0  0  0  0
   -4.1080    0.0830    0.2235 N   0  0  0  0  0  0  0  0  0  0  0  0
   -1.0900    1.4038    0.0364 C   0  0  0  0  0  0  0  0  0  0  0  0
    0.3143    1.3529   -0.0577 C   0  0  0  0  0  0  0  0  0  0  0  0
    1.0597    0.1658   -0.1222 C   0  0  0  0  0  0  0  0  0  0  0  0
    2.4052    0.3046   -0.2069 O   0  0  0  0  0  0  0  0  0  0  0  0
    3.2333   -0.8502   -0.2690 C   0  0  0  0  0  0  0  0  0  0  0  0
    0.4242   -1.1103   -0.0984 C   0  0  0  0  0  0  0  0  0  0  0  0
   -0.9462   -1.1629   -0.0089 C   0  0  0  0  0  0  0  0  0  0  0  0
   -4.1636    4.5665    0.4988 H   0  0  0  0  0  0  0  0  0  0  0  0
    0.8991    2.2737   -0.0833 H   0  0  0  0  0  0  0  0  0  0  0  0
    4.2575   -0.4794   -0.3242 H   0  0  0  0  0  0  0  0  0  0  0  0
    3.0209   -1.4533   -1.1604 H   0  0  0  0  0  0  0  0  0  0  0  0
    3.1241   -1.4743    0.6265 H   0  0  0  0  0  0  0  0  0  0  0  0
    0.9991   -2.0264   -0.1488 H   0  0  0  0  0  0  0  0  0  0  0  0
   -1.4778   -2.1115    0.0126 H   0  0  0  0  0  0  0  0  0  0  0  0
   -6.0781    2.9746    0.2904 B   0  0  0  0  0  0  0  0  0  0  0  0
   -5.0970    2.7143   -0.5759 F   0  0  0  0  0  0  0  0  0  0  0  0
   -4.9465    4.7191    0.9789 F   0  0  0  0  0  0  0  0  0  0  0  0
   -7.1402    3.6463   -0.1167 F   0  0  0  0  0  0  0  0  0  0  0  0
   -6.0902    2.3448    1.4530 F   0  0  0  0  0  0  0  0  0  0  0  0
  1  2  1  0  0  0  0
  2  3  1  0  0  0  0
  4  1  1  0  0  0  0
  5  4  2  0  0  0  0
  6  9  2  0  0  0  0
  6  5  1  0  0  0  0
  7  6  1  0  0  0  0
  8  7  1  0  0  0  0
  8 15  1  0  0  0  0
  9 10  1  0  0  0  0
 10 17  1  0  0  0  0
 10  1  2  0  0  0  0
 11 20  1  0  0  0  0
 12  5  1  0  0  0  0
 13  8  1  0  0  0  0
 14  8  1  0  0  0  0
 16  9  1  0  0  0  0
 18 22  1  0  0  0  0
 19 18  1  0  0  0  0
 21 18  1  0  0  0  0
M  RAD  3   2   2   3   3   4   2
M  END
