13
Coordinates from ORCA-job PhN2+_B3LYPG-6-31G_dp-d09-49-n800
  C   -1.25338712294089     -0.40463356176494     -0.06060314307282
  N   -2.62652264522067     -0.52509636222634     -0.10651533191167
  N   -3.73713269227846     -0.61685362921849     -0.14282209485887
  C   -0.69517142871758      0.86935076992278     -0.04094708278953
  C   0.66184949668711      1.04324424616859      0.00507311673911
  C   1.46780214923463     -0.11531927218447      0.03189789605992
  C   0.90974212467701     -1.40600293501538      0.01205663828097
  C   -0.46162941278914     -1.58378388798124     -0.03459592360276
  H   -2.72375326643763      5.32938710824378     -0.09509430096620
  H   1.12365548019392      2.02746171045290      0.02118504056808
  H   2.54839695788969      0.00094012125544      0.06906607317833
  H   1.55968257123529     -2.27407982010896      0.03371901304418
  H   -0.92203221153328     -2.56750448754364     -0.05073990066876
