20
Coordinates from ORCA-job PhN2+~CF3COO-_B3LYPG-6-31G_dp-CH-Scan-d09-49-n800
  C   -1.29243675427698      0.73035501761756     -1.21987291066677
  N   -2.16069210982060      0.87401669456959     -2.30138563458132
  N   -2.79158204788991      1.00096771777005     -3.21682393191067
  C   0.03957032087896      0.96431874920775     -1.59186574568698
  C   0.87625797282604      0.79214822128711     -0.44981584496305
  C   0.40597380263927      0.43705651727155      0.81045553747992
  C   -0.97440434796644      0.22751734613068      1.06002043980786
  C   -1.87352943176721      0.37549897270697      0.02788057347693
  H   -2.91860365108297      4.77026108861748     -0.71208746309119
  H   1.95154035307256      0.94325166130421     -0.56001018723754
  H   1.10411933038218      0.31421194025640      1.63751233105143
  H   -1.31696192996594     -0.04581932257690      2.05298740870559
  H   -2.94394715646618      0.24178872326557      0.15494294737343
  O   -4.05283799021897      2.71805197133602     -0.85926636877299
  C   -4.36931871855111      3.68564597203476     -0.21417339182733
  O   -3.70989805203318      4.84450186278183     -0.15066352411279
  C   -5.63534612995981      3.74471430261247      0.66824577431205
  F   -6.47122621268472      4.69170960870687      0.21121599523990
  F   -6.26236224996529      2.56743770703815      0.64858837705467
  F   -5.30581499714958      4.04126524806190      1.93591561834886
