20
Coordinates from ORCA-job PhN2+~CF3COO-_B3LYPG-6-31G_dp-CH-Scan-d09-49-n800
  C   -2.03080035038510      0.56566855585206     -0.34498964621748
  N   -3.36441696765805      0.35195576678275     -0.70432605614572
  N   -4.34296489272140     -0.05948391981467     -1.04702014280644
  C   -1.50653059114044      1.86456446577050     -0.31030626292261
  C   -0.14111737751671      1.91509192038193      0.01045939400890
  C   0.60755492278968      0.76987608390579      0.28004852179659
  C   0.02053860442400     -0.50779684392297      0.23285303655653
  C   -1.31753489777541     -0.63175243054240     -0.08807105975082
  H   -2.29811064337279      2.98762848724375     -0.48928953998151
  H   0.34485143130282      2.88611143051972      0.06027475883027
  H   1.66016044836083      0.85850574169524      0.53524818294735
  H   0.60868007257163     -1.39399574637251      0.44577757019376
  H   -1.80719814515345     -1.59900122692411     -0.14107935955696
  O   -4.57204929908163      2.42224538049704      0.09640512643452
  C   -4.24527122921872      3.58669146349023     -0.16789838205738
  O   -3.10536036958397      4.01677507837567     -0.54290477160011
  C   -5.30925997754271      4.70441590148516     -0.01421140438939
  F   -5.32493448517581      5.51679258133734     -1.08962286395300
  F   -6.54553749522419      4.20244561040081      0.14064263658449
  F   -5.03219875789849      5.46216169983866      1.06981026202903
