20
Coordinates from ORCA-job PhN2+~CF3COO-_B3LYPG-6-31G_dp-CH-Scan-d09-49-n800
  C   -1.32157876581002      0.71221647989170     -1.21823308791311
  N   -2.20232750973352      0.81876871379695     -2.29419004972097
  N   -2.84083743131912      0.92240022259845     -3.20700159782121
  C   -0.00142474270349      0.99348867312757     -1.59978367916027
  C   0.84816808885003      0.85722595747844     -0.46237593303490
  C   0.39932649768082      0.49091060553577      0.80250830700362
  C   -0.97065536506656      0.23126875413459      1.06173640951481
  C   -1.88103820889013      0.34125837716393      0.03462193213655
  H   -2.81510210285174      4.69411137543401     -0.60132958290583
  H   1.91639244420378      1.04724143818491     -0.58013599598950
  H   1.10669396961843      0.39779770262586      1.62559546928971
  H   -1.29663398263730     -0.05081266141443      2.05782252626580
  H   -2.94462416926290      0.16636428300637      0.16906232519853
  O   -4.05170246933784      2.71192270453832     -0.88015109731437
  C   -4.33952102743648      3.66856547312259     -0.20567971110808
  O   -3.62301267267296      4.78635417575614     -0.06731214298952
  C   -5.63199429633798      3.75924155062497      0.63495484554974
  F   -6.38810384448898      4.78537160433977      0.21149793171500
  F   -6.33238815002769      2.62961685520701      0.52098834944925
  F   -5.33113626177624      3.95558771484708      1.92920478183477
