20
Coordinates from ORCA-job PhN2+~CF3COO-_B3LYPG-6-31G_dp-CH-Scan-d09-49-n800
  C   -1.95291364178517      0.36671441225012     -0.20453804788473
  N   -3.32098506550403      0.16927803442982     -0.39103923426706
  N   -4.43171421649267      0.25320410839580     -0.51396215623394
  C   -1.55951325776829      1.70170120490934     -0.05622096363344
  C   -0.17878013962333      1.86394742851801      0.13214952375150
  C   0.69477867063992      0.77555078914274      0.16368543304729
  C   0.22894138560562     -0.54360287846433      0.00647564922362
  C   -1.12214870444742     -0.77196523696545     -0.18371905048109
  H   -2.46850755446679      2.75337364500384     -0.09520431277502
  H   0.21996143864458      2.86721774237656      0.25789987728131
  H   1.75834328865221      0.94330582284567      0.31342589034788
  H   0.92200190106462     -1.37752979183033      0.03456530027209
  H   -1.52854772769882     -1.77027940369816     -0.30951256939080
  O   -5.12184795894040      2.50918673445246     -0.28032751703034
  C   -4.50151859409312      3.57749878138210     -0.19248565791397
  O   -3.24997502378561      3.79974894107669     -0.11932114035398
  C   -5.33568487952695      4.88846356870253     -0.16439224960059
  F   -5.00599587531764      5.67986415011867     -1.20725766696846
  F   -6.65476715549894      4.65300925908966     -0.22747208348263
  F   -5.09262688965764      5.58021268826425      0.96905097609237
