20
Coordinates from ORCA-job PhN2+~CF3COO-_B3LYPG-6-31G_dp-CH-Scan-d09-49-n800
  C   -1.32687616476672      0.71349565312799     -1.21786606552392
  N   -2.20882882295144      0.81691521525393     -2.29329861332126
  N   -2.85112409715098      0.91798633925248     -3.20362876920888
  C   -0.00849891553298      1.00192202218044     -1.59905711928663
  C   0.84176221830999      0.86927376684938     -0.46165200058916
  C   0.39464816738038      0.49973439761884      0.80294583190488
  C   -0.97412618325255      0.23339189579856      1.06199724066616
  C   -1.88478043694586      0.33947687084524      0.03471812033134
  H   -2.79989346017500      4.67321137931651     -0.59604945152445
  H   1.90899060268677      1.06485421542937     -0.57911400511978
  H   1.10247672027217      0.40959407610505      1.62596600730909
  H   -1.29897752483017     -0.05003606782233      2.05806219963439
  H   -2.94759000144353      0.15994626118846      0.16897240667618
  O   -4.04900958110039      2.70617060286105     -0.88476995092010
  C   -4.33310191972907      3.66145942466556     -0.20682316895944
  O   -3.60800898702844      4.77327224221898     -0.06359158309645
  C   -5.62579727688194      3.75759211837096      0.63227996438775
  F   -6.37095977020438      4.79500259669876      0.21689438679742
  F   -6.33713861009144      2.63611770988370      0.50731405349909
  F   -5.32466595656431      3.93951928015711      1.92850051634380
