Coordinates from ORCA-job 4-MeOPhN2+~HSO4-_B3LYPG-6-31G_dp-CH-Scan-d09-49-n800
 OpenBabel11261919063D

 23 22  0  0  0  0  0  0  0  0999 V2000
   -1.5309   -0.1236   -0.1425 C   0  0  0  0  0  0  0  0  0  0  0  0
   -2.9019   -0.2400   -0.0502 N   0  0  0  0  0  0  0  0  0  0  0  0
   -4.0213   -0.2885    0.0027 N   0  0  0  0  0  0  0  0  0  0  0  0
   -1.0912    1.1318   -0.6264 C   0  0  0  0  0  0  0  0  0  0  0  0
    0.3155    1.1505   -0.6915 C   0  0  0  0  0  0  0  0  0  0  0  0
    1.1394    0.0752   -0.3248 C   0  0  0  0  0  0  0  0  0  0  0  0
    2.4750    0.2709   -0.4517 O   0  0  0  0  0  0  0  0  0  0  0  0
    3.3776   -0.7718   -0.1031 C   0  0  0  0  0  0  0  0  0  0  0  0
    0.5885   -1.1489    0.1532 C   0  0  0  0  0  0  0  0  0  0  0  0
   -0.7782   -1.2628    0.2502 C   0  0  0  0  0  0  0  0  0  0  0  0
   -3.8001    4.0771   -1.0496 H   0  0  0  0  0  0  0  0  0  0  0  0
    0.8386    2.0405   -1.0443 H   0  0  0  0  0  0  0  0  0  0  0  0
    4.3765   -0.3761   -0.2922 H   0  0  0  0  0  0  0  0  0  0  0  0
    3.2225   -1.6645   -0.7206 H   0  0  0  0  0  0  0  0  0  0  0  0
    3.2931   -1.0428    0.9564 H   0  0  0  0  0  0  0  0  0  0  0  0
    1.2218   -1.9794    0.4378 H   0  0  0  0  0  0  0  0  0  0  0  0
   -1.2464   -2.1764    0.6091 H   0  0  0  0  0  0  0  0  0  0  0  0
   -5.3888    3.8876    0.3749 S   0  0  0  0  0  0  0  0  0  0  0  0
   -4.5824    4.6124   -0.8294 O   0  0  0  0  0  0  0  0  0  0  0  0
   -6.6810    4.5371    0.4182 O   0  0  0  0  0  0  0  0  0  0  0  0
   -5.2029    2.4558    0.2827 O   0  0  0  0  0  0  0  0  0  0  0  0
   -4.5310    4.3536    1.6762 O   0  0  0  0  0  0  0  0  0  0  0  0
   -4.8349    5.2421    1.9290 H   0  0  0  0  0  0  0  0  0  0  0  0
  1  2  1  0  0  0  0
  1 10  2  0  0  0  0
  2  3  1  0  0  0  0
  4  1  1  0  0  0  0
  5  4  2  0  0  0  0
  5  6  1  0  0  0  0
  6  9  2  0  0  0  0
  7  6  1  0  0  0  0
  7  8  1  0  0  0  0
  8 15  1  0  0  0  0
  9 10  1  0  0  0  0
  9 16  1  0  0  0  0
 10 17  1  0  0  0  0
 11 19  1  0  0  0  0
 12  5  1  0  0  0  0
 13  8  1  0  0  0  0
 14  8  1  0  0  0  0
 18 20  2  0  0  0  0
 18 22  1  0  0  0  0
 19 18  1  0  0  0  0
 21 18  2  0  0  0  0
 22 23  1  0  0  0  0
M  RAD  3   2   2   3   3   4   2
M  END
