Coordinates from ORCA-job 4-MeOPhN2+~HSO4-_B3LYPG-6-31G_dp-CH-Scan-d09-49-n800
 OpenBabel11261919063D

 23 22  0  0  0  0  0  0  0  0999 V2000
   -1.5020   -0.1245   -0.1572 C   0  0  0  0  0  0  0  0  0  0  0  0
   -2.8744   -0.2279   -0.0659 N   0  0  0  0  0  0  0  0  0  0  0  0
   -3.9944   -0.2641   -0.0155 N   0  0  0  0  0  0  0  0  0  0  0  0
   -1.0532    1.1194   -0.6613 C   0  0  0  0  0  0  0  0  0  0  0  0
    0.3538    1.1272   -0.7241 C   0  0  0  0  0  0  0  0  0  0  0  0
    1.1694    0.0525   -0.3377 C   0  0  0  0  0  0  0  0  0  0  0  0
    2.5067    0.2367   -0.4648 O   0  0  0  0  0  0  0  0  0  0  0  0
    3.4014   -0.8059   -0.0962 C   0  0  0  0  0  0  0  0  0  0  0  0
    0.6091   -1.1597    0.1596 C   0  0  0  0  0  0  0  0  0  0  0  0
   -0.7586   -1.2625    0.2561 C   0  0  0  0  0  0  0  0  0  0  0  0
   -3.8715    4.1465   -1.0489 H   0  0  0  0  0  0  0  0  0  0  0  0
    0.8838    2.0074   -1.0909 H   0  0  0  0  0  0  0  0  0  0  0  0
    4.4034   -0.4198   -0.2887 H   0  0  0  0  0  0  0  0  0  0  0  0
    3.2425   -1.7077   -0.6994 H   0  0  0  0  0  0  0  0  0  0  0  0
    3.3119   -1.0589    0.9673 H   0  0  0  0  0  0  0  0  0  0  0  0
    1.2361   -1.9897    0.4592 H   0  0  0  0  0  0  0  0  0  0  0  0
   -1.2338   -2.1669    0.6290 H   0  0  0  0  0  0  0  0  0  0  0  0
   -5.4423    3.9142    0.3885 S   0  0  0  0  0  0  0  0  0  0  0  0
   -4.6586    4.6682   -0.8136 O   0  0  0  0  0  0  0  0  0  0  0  0
   -6.7486    4.5337    0.4453 O   0  0  0  0  0  0  0  0  0  0  0  0
   -5.2231    2.4883    0.2805 O   0  0  0  0  0  0  0  0  0  0  0  0
   -4.5879    4.3876    1.6892 O   0  0  0  0  0  0  0  0  0  0  0  0
   -4.9120    5.2656    1.9536 H   0  0  0  0  0  0  0  0  0  0  0  0
  1  2  1  0  0  0  0
  1 10  2  0  0  0  0
  2  3  1  0  0  0  0
  4  1  1  0  0  0  0
  5  4  2  0  0  0  0
  5  6  1  0  0  0  0
  6  9  2  0  0  0  0
  7  6  1  0  0  0  0
  7  8  1  0  0  0  0
  8 15  1  0  0  0  0
  9 10  1  0  0  0  0
  9 16  1  0  0  0  0
 10 17  1  0  0  0  0
 11 19  1  0  0  0  0
 12  5  1  0  0  0  0
 13  8  1  0  0  0  0
 14  8  1  0  0  0  0
 18 20  2  0  0  0  0
 18 22  1  0  0  0  0
 19 18  1  0  0  0  0
 21 18  2  0  0  0  0
 22 23  1  0  0  0  0
M  RAD  3   2   2   3   3   4   2
M  END
