Coordinates from ORCA-job 4-MeOPhN2+~HSO4-_B3LYPG-6-31G_dp-CH-Scan-d09-49-n800
 OpenBabel11261919063D

 23 22  0  0  0  0  0  0  0  0999 V2000
   -1.9402    0.3626   -0.2099 C   0  0  0  0  0  0  0  0  0  0  0  0
   -3.3123    0.3065   -0.1939 N   0  0  0  0  0  0  0  0  0  0  0  0
   -4.4307    0.2461   -0.2213 N   0  0  0  0  0  0  0  0  0  0  0  0
   -1.2908    1.5964   -0.4393 C   0  0  0  0  0  0  0  0  0  0  0  0
    0.0877    1.5847   -0.4707 C   0  0  0  0  0  0  0  0  0  0  0  0
    0.8120    0.3910   -0.2661 C   0  0  0  0  0  0  0  0  0  0  0  0
    2.1476    0.5104   -0.3104 O   0  0  0  0  0  0  0  0  0  0  0  0
    2.9691   -0.6391   -0.0989 C   0  0  0  0  0  0  0  0  0  0  0  0
    0.1364   -0.8286   -0.0350 C   0  0  0  0  0  0  0  0  0  0  0  0
   -1.2453   -0.8459   -0.0106 C   0  0  0  0  0  0  0  0  0  0  0  0
   -1.9658    2.6263   -0.5886 H   0  0  0  0  0  0  0  0  0  0  0  0
    0.6446    2.4990   -0.6423 H   0  0  0  0  0  0  0  0  0  0  0  0
    3.9961   -0.2828   -0.1743 H   0  0  0  0  0  0  0  0  0  0  0  0
    2.7892   -1.4007   -0.8657 H   0  0  0  0  0  0  0  0  0  0  0  0
    2.8034   -1.0659    0.8965 H   0  0  0  0  0  0  0  0  0  0  0  0
    0.6814   -1.7501    0.1236 H   0  0  0  0  0  0  0  0  0  0  0  0
   -1.7873   -1.7689    0.1648 H   0  0  0  0  0  0  0  0  0  0  0  0
   -4.1940    3.2893    0.4764 S   0  0  0  0  0  0  0  0  0  0  0  0
   -3.2903    3.8427   -0.5663 O   0  0  0  0  0  0  0  0  0  0  0  0
   -5.3755    2.5493   -0.0530 O   0  0  0  0  0  0  0  0  0  0  0  0
   -3.4703    2.5280    1.5207 O   0  0  0  0  0  0  0  0  0  0  0  0
   -4.8243    4.6404    1.1839 O   0  0  0  0  0  0  0  0  0  0  0  0
   -5.6831    4.3688    1.5443 H   0  0  0  0  0  0  0  0  0  0  0  0
  1  2  1  0  0  0  0
  1 10  2  0  0  0  0
  3  2  1  0  0  0  0
  4  1  1  0  0  0  0
  5  4  2  0  0  0  0
  5  6  1  0  0  0  0
  6  9  2  0  0  0  0
  7  6  1  0  0  0  0
  7  8  1  0  0  0  0
  8 15  1  0  0  0  0
  9 10  1  0  0  0  0
  9 16  1  0  0  0  0
 10 17  1  0  0  0  0
 11  4  1  0  0  0  0
 12  5  1  0  0  0  0
 13  8  1  0  0  0  0
 14  8  1  0  0  0  0
 18 22  1  0  0  0  0
 18 21  1  0  0  0  0
 19 18  2  0  0  0  0
 20 18  2  0  0  0  0
 22 23  1  0  0  0  0
M  RAD  3   2   2   3   3  21   2
M  END
