Coordinates from ORCA-job 4-MeOPhN2+~HSO4-_B3LYPG-6-31G_dp-CH-Scan-d09-49-n800
 OpenBabel11261919063D

 23 22  0  0  0  0  0  0  0  0999 V2000
   -1.9404    0.3733   -0.2081 C   0  0  0  0  0  0  0  0  0  0  0  0
   -3.3128    0.3201   -0.1929 N   0  0  0  0  0  0  0  0  0  0  0  0
   -4.4314    0.2578   -0.2226 N   0  0  0  0  0  0  0  0  0  0  0  0
   -1.2846    1.6028   -0.4415 C   0  0  0  0  0  0  0  0  0  0  0  0
    0.0937    1.5868   -0.4742 C   0  0  0  0  0  0  0  0  0  0  0  0
    0.8139    0.3913   -0.2658 C   0  0  0  0  0  0  0  0  0  0  0  0
    2.1498    0.5063   -0.3115 O   0  0  0  0  0  0  0  0  0  0  0  0
    2.9672   -0.6457   -0.0971 C   0  0  0  0  0  0  0  0  0  0  0  0
    0.1336   -0.8243   -0.0302 C   0  0  0  0  0  0  0  0  0  0  0  0
   -1.2486   -0.8359   -0.0058 C   0  0  0  0  0  0  0  0  0  0  0  0
   -1.9335    2.6131   -0.5938 H   0  0  0  0  0  0  0  0  0  0  0  0
    0.6526    2.4991   -0.6496 H   0  0  0  0  0  0  0  0  0  0  0  0
    3.9955   -0.2935   -0.1750 H   0  0  0  0  0  0  0  0  0  0  0  0
    2.7835   -1.4091   -0.8611 H   0  0  0  0  0  0  0  0  0  0  0  0
    2.8010   -1.0684    0.8999 H   0  0  0  0  0  0  0  0  0  0  0  0
    0.6748   -1.7474    0.1317 H   0  0  0  0  0  0  0  0  0  0  0  0
   -1.7938   -1.7563    0.1727 H   0  0  0  0  0  0  0  0  0  0  0  0
   -4.1954    3.2951    0.4627 S   0  0  0  0  0  0  0  0  0  0  0  0
   -3.3180    3.8740   -0.5838 O   0  0  0  0  0  0  0  0  0  0  0  0
   -5.3702    2.5333   -0.0552 O   0  0  0  0  0  0  0  0  0  0  0  0
   -3.4474    2.5368    1.4937 O   0  0  0  0  0  0  0  0  0  0  0  0
   -4.8464    4.6243    1.1935 O   0  0  0  0  0  0  0  0  0  0  0  0
   -5.6857    4.3261    1.5779 H   0  0  0  0  0  0  0  0  0  0  0  0
  1  2  1  0  0  0  0
  1 10  2  0  0  0  0
  3  2  1  0  0  0  0
  4  1  1  0  0  0  0
  5  4  2  0  0  0  0
  5  6  1  0  0  0  0
  6  9  2  0  0  0  0
  7  6  1  0  0  0  0
  7  8  1  0  0  0  0
  8 15  1  0  0  0  0
  9 10  1  0  0  0  0
  9 16  1  0  0  0  0
 10 17  1  0  0  0  0
 11  4  1  0  0  0  0
 12  5  1  0  0  0  0
 13  8  1  0  0  0  0
 14  8  1  0  0  0  0
 18 22  1  0  0  0  0
 18 21  1  0  0  0  0
 19 18  2  0  0  0  0
 20 18  2  0  0  0  0
 22 23  1  0  0  0  0
M  RAD  3   2   2   3   3  21   2
M  END
