Coordinates from ORCA-job 4-MeOPhN2+~HSO4-_B3LYPG-6-31G_dp-CH-Scan-d09-49-n800
 OpenBabel11261919063D

 23 22  0  0  0  0  0  0  0  0999 V2000
   -1.7815   -0.1023   -0.0916 C   0  0  0  0  0  0  0  0  0  0  0  0
   -3.1373   -0.3192   -0.0066 N   0  0  0  0  0  0  0  0  0  0  0  0
   -4.2469   -0.4643    0.0509 N   0  0  0  0  0  0  0  0  0  0  0  0
   -1.4006    1.2139   -0.4520 C   0  0  0  0  0  0  0  0  0  0  0  0
   -0.0032    1.3259   -0.5167 C   0  0  0  0  0  0  0  0  0  0  0  0
    0.8833    0.2675   -0.2569 C   0  0  0  0  0  0  0  0  0  0  0  0
    2.2009    0.5517   -0.3672 O   0  0  0  0  0  0  0  0  0  0  0  0
    3.1670   -0.4666   -0.1278 C   0  0  0  0  0  0  0  0  0  0  0  0
    0.4031   -1.0237    0.1004 C   0  0  0  0  0  0  0  0  0  0  0  0
   -0.9548   -1.2229    0.1865 C   0  0  0  0  0  0  0  0  0  0  0  0
   -3.1484    3.2399   -0.8298 H   0  0  0  0  0  0  0  0  0  0  0  0
    0.4624    2.2744   -0.7827 H   0  0  0  0  0  0  0  0  0  0  0  0
    4.1383    0.0032   -0.2862 H   0  0  0  0  0  0  0  0  0  0  0  0
    3.0522   -1.3029   -0.8274 H   0  0  0  0  0  0  0  0  0  0  0  0
    3.1114   -0.8405    0.9014 H   0  0  0  0  0  0  0  0  0  0  0  0
    1.0821   -1.8419    0.3036 H   0  0  0  0  0  0  0  0  0  0  0  0
   -1.3671   -2.1916    0.4570 H   0  0  0  0  0  0  0  0  0  0  0  0
   -4.9211    3.6636    0.2959 S   0  0  0  0  0  0  0  0  0  0  0  0
   -3.8301    3.9477   -0.8473 O   0  0  0  0  0  0  0  0  0  0  0  0
   -5.9985    4.6020    0.0570 O   0  0  0  0  0  0  0  0  0  0  0  0
   -5.1275    2.2369    0.4462 O   0  0  0  0  0  0  0  0  0  0  0  0
   -4.1322    4.1204    1.6478 O   0  0  0  0  0  0  0  0  0  0  0  0
   -4.1940    5.0886    1.7095 H   0  0  0  0  0  0  0  0  0  0  0  0
  1  2  1  0  0  0  0
  1 10  2  0  0  0  0
  2  3  1  0  0  0  0
  4  1  1  0  0  0  0
  5  4  2  0  0  0  0
  5  6  1  0  0  0  0
  6  9  2  0  0  0  0
  7  6  1  0  0  0  0
  7  8  1  0  0  0  0
  8 15  1  0  0  0  0
  9 10  1  0  0  0  0
  9 16  1  0  0  0  0
 10 17  1  0  0  0  0
 12  5  1  0  0  0  0
 13  8  1  0  0  0  0
 14  8  1  0  0  0  0
 18 21  2  0  0  0  0
 18 22  1  0  0  0  0
 19 11  1  0  0  0  0
 19 18  1  0  0  0  0
 20 18  2  0  0  0  0
 22 23  1  0  0  0  0
M  RAD  3   2   2   3   3   4   2
M  END
