Coordinates from ORCA-job 4-MeOPhN2+~HSO4-_B3LYPG-6-31G_dp-CH-Scan-d09-49-n800
 OpenBabel11261919063D

 23 22  0  0  0  0  0  0  0  0999 V2000
   -1.6984   -0.1129   -0.0978 C   0  0  0  0  0  0  0  0  0  0  0  0
   -3.0597   -0.2988   -0.0069 N   0  0  0  0  0  0  0  0  0  0  0  0
   -4.1733   -0.4137    0.0507 N   0  0  0  0  0  0  0  0  0  0  0  0
   -1.3021    1.1877   -0.4948 C   0  0  0  0  0  0  0  0  0  0  0  0
    0.0992    1.2706   -0.5632 C   0  0  0  0  0  0  0  0  0  0  0  0
    0.9674    0.2050   -0.2754 C   0  0  0  0  0  0  0  0  0  0  0  0
    2.2911    0.4625   -0.3943 O   0  0  0  0  0  0  0  0  0  0  0  0
    3.2381   -0.5659   -0.1268 C   0  0  0  0  0  0  0  0  0  0  0  0
    0.4666   -1.0686    0.1180 C   0  0  0  0  0  0  0  0  0  0  0  0
   -0.8942   -1.2423    0.2112 C   0  0  0  0  0  0  0  0  0  0  0  0
   -3.3500    3.5196   -0.9224 H   0  0  0  0  0  0  0  0  0  0  0  0
    0.5827    2.2030   -0.8552 H   0  0  0  0  0  0  0  0  0  0  0  0
    4.2182   -0.1188   -0.2977 H   0  0  0  0  0  0  0  0  0  0  0  0
    3.1087   -1.4192   -0.8030 H   0  0  0  0  0  0  0  0  0  0  0  0
    3.1763   -0.9110    0.9122 H   0  0  0  0  0  0  0  0  0  0  0  0
    1.1326   -1.8919    0.3426 H   0  0  0  0  0  0  0  0  0  0  0  0
   -1.3233   -2.1960    0.5083 H   0  0  0  0  0  0  0  0  0  0  0  0
   -5.0824    3.7435    0.3159 S   0  0  0  0  0  0  0  0  0  0  0  0
   -4.0645    4.1818   -0.8555 O   0  0  0  0  0  0  0  0  0  0  0  0
   -6.2327    4.6113    0.1757 O   0  0  0  0  0  0  0  0  0  0  0  0
   -5.1694    2.2994    0.3780 O   0  0  0  0  0  0  0  0  0  0  0  0
   -4.2664    4.1808    1.6558 O   0  0  0  0  0  0  0  0  0  0  0  0
   -4.4072    5.1337    1.7884 H   0  0  0  0  0  0  0  0  0  0  0  0
  1  2  1  0  0  0  0
  1 10  2  0  0  0  0
  2  3  1  0  0  0  0
  4  1  1  0  0  0  0
  5  4  2  0  0  0  0
  5  6  1  0  0  0  0
  6  9  2  0  0  0  0
  7  6  1  0  0  0  0
  7  8  1  0  0  0  0
  8 15  1  0  0  0  0
  9 10  1  0  0  0  0
  9 16  1  0  0  0  0
 10 17  1  0  0  0  0
 11 19  1  0  0  0  0
 12  5  1  0  0  0  0
 13  8  1  0  0  0  0
 14  8  1  0  0  0  0
 18 21  2  0  0  0  0
 18 22  1  0  0  0  0
 19 18  1  0  0  0  0
 20 18  2  0  0  0  0
 22 23  1  0  0  0  0
M  RAD  3   2   2   3   3   4   2
M  END
