Coordinates from ORCA-job 4-MeOPhN2+~HSO4-_B3LYPG-6-31G_dp-CH-Scan-d09-49-n800
 OpenBabel11261919063D

 23 22  0  0  0  0  0  0  0  0999 V2000
   -1.9504    0.3893   -0.2241 C   0  0  0  0  0  0  0  0  0  0  0  0
   -3.3235    0.3378   -0.2176 N   0  0  0  0  0  0  0  0  0  0  0  0
   -4.4429    0.2728   -0.2566 N   0  0  0  0  0  0  0  0  0  0  0  0
   -1.2866    1.6152   -0.4559 C   0  0  0  0  0  0  0  0  0  0  0  0
    0.0921    1.5953   -0.4791 C   0  0  0  0  0  0  0  0  0  0  0  0
    0.8078    0.3994   -0.2594 C   0  0  0  0  0  0  0  0  0  0  0  0
    2.1444    0.5119   -0.2938 O   0  0  0  0  0  0  0  0  0  0  0  0
    2.9567   -0.6412   -0.0672 C   0  0  0  0  0  0  0  0  0  0  0  0
    0.1217   -0.8121   -0.0262 C   0  0  0  0  0  0  0  0  0  0  0  0
   -1.2615   -0.8188   -0.0144 C   0  0  0  0  0  0  0  0  0  0  0  0
   -1.8634    2.5390   -0.6120 H   0  0  0  0  0  0  0  0  0  0  0  0
    0.6528    2.5062   -0.6553 H   0  0  0  0  0  0  0  0  0  0  0  0
    3.9866   -0.2920   -0.1361 H   0  0  0  0  0  0  0  0  0  0  0  0
    2.7785   -1.4070   -0.8302 H   0  0  0  0  0  0  0  0  0  0  0  0
    2.7794   -1.0599    0.9297 H   0  0  0  0  0  0  0  0  0  0  0  0
    0.6578   -1.7368    0.1432 H   0  0  0  0  0  0  0  0  0  0  0  0
   -1.8108   -1.7372    0.1616 H   0  0  0  0  0  0  0  0  0  0  0  0
   -4.2199    3.2969    0.3959 S   0  0  0  0  0  0  0  0  0  0  0  0
   -3.4300    3.9055   -0.6918 O   0  0  0  0  0  0  0  0  0  0  0  0
   -5.3880    2.4792   -0.0544 O   0  0  0  0  0  0  0  0  0  0  0  0
   -3.4010    2.5655    1.3973 O   0  0  0  0  0  0  0  0  0  0  0  0
   -4.8693    4.6026    1.1691 O   0  0  0  0  0  0  0  0  0  0  0  0
   -5.4731    4.2482    1.8411 H   0  0  0  0  0  0  0  0  0  0  0  0
  1  2  1  0  0  0  0
  1 10  2  0  0  0  0
  3  2  1  0  0  0  0
  4  1  1  0  0  0  0
  5  4  2  0  0  0  0
  5  6  1  0  0  0  0
  6  9  2  0  0  0  0
  7  6  1  0  0  0  0
  7  8  1  0  0  0  0
  8 15  1  0  0  0  0
  9 10  1  0  0  0  0
  9 16  1  0  0  0  0
 10 17  1  0  0  0  0
 11  4  1  0  0  0  0
 12  5  1  0  0  0  0
 13  8  1  0  0  0  0
 14  8  1  0  0  0  0
 18 22  1  0  0  0  0
 18 21  1  0  0  0  0
 19 18  2  0  0  0  0
 20 18  2  0  0  0  0
 22 23  1  0  0  0  0
M  RAD  3   2   2   3   3  21   2
M  END
