Coordinates from ORCA-job 4-MeOPhN2+~HSO4-_B3LYPG-6-31G_dp-CH-Scan-d09-49-n800
 OpenBabel11261919063D

 23 22  0  0  0  0  0  0  0  0999 V2000
   -1.7861   -0.1011   -0.0904 C   0  0  0  0  0  0  0  0  0  0  0  0
   -3.1416   -0.3196   -0.0056 N   0  0  0  0  0  0  0  0  0  0  0  0
   -4.2509   -0.4665    0.0511 N   0  0  0  0  0  0  0  0  0  0  0  0
   -1.4057    1.2160   -0.4484 C   0  0  0  0  0  0  0  0  0  0  0  0
   -0.0086    1.3294   -0.5133 C   0  0  0  0  0  0  0  0  0  0  0  0
    0.8787    0.2711   -0.2557 C   0  0  0  0  0  0  0  0  0  0  0  0
    2.1960    0.5565   -0.3658 O   0  0  0  0  0  0  0  0  0  0  0  0
    3.1629   -0.4615   -0.1286 C   0  0  0  0  0  0  0  0  0  0  0  0
    0.3995   -1.0210    0.0994 C   0  0  0  0  0  0  0  0  0  0  0  0
   -0.9583   -1.2214    0.1854 C   0  0  0  0  0  0  0  0  0  0  0  0
   -3.1363    3.2240   -0.8231 H   0  0  0  0  0  0  0  0  0  0  0  0
    0.4560    2.2787   -0.7776 H   0  0  0  0  0  0  0  0  0  0  0  0
    4.1339    0.0094   -0.2865 H   0  0  0  0  0  0  0  0  0  0  0  0
    3.0486   -1.2965   -0.8297 H   0  0  0  0  0  0  0  0  0  0  0  0
    3.1080   -0.8373    0.8999 H   0  0  0  0  0  0  0  0  0  0  0  0
    1.0791   -1.8391    0.3009 H   0  0  0  0  0  0  0  0  0  0  0  0
   -1.3697   -2.1908    0.4542 H   0  0  0  0  0  0  0  0  0  0  0  0
   -4.9118    3.6587    0.2940 S   0  0  0  0  0  0  0  0  0  0  0  0
   -3.8162    3.9342   -0.8460 O   0  0  0  0  0  0  0  0  0  0  0  0
   -5.9851    4.6000    0.0483 O   0  0  0  0  0  0  0  0  0  0  0  0
   -5.1246    2.2333    0.4493 O   0  0  0  0  0  0  0  0  0  0  0  0
   -4.1261    4.1172    1.6474 O   0  0  0  0  0  0  0  0  0  0  0  0
   -4.1836    5.0860    1.7047 H   0  0  0  0  0  0  0  0  0  0  0  0
  1  2  1  0  0  0  0
  1 10  2  0  0  0  0
  2  3  1  0  0  0  0
  4  1  1  0  0  0  0
  5  4  2  0  0  0  0
  5  6  1  0  0  0  0
  6  9  2  0  0  0  0
  7  6  1  0  0  0  0
  7  8  1  0  0  0  0
  8 15  1  0  0  0  0
  9 10  1  0  0  0  0
  9 16  1  0  0  0  0
 10 17  1  0  0  0  0
 12  5  1  0  0  0  0
 13  8  1  0  0  0  0
 14  8  1  0  0  0  0
 18 21  2  0  0  0  0
 18 22  1  0  0  0  0
 19 11  1  0  0  0  0
 19 18  1  0  0  0  0
 20 18  2  0  0  0  0
 22 23  1  0  0  0  0
M  RAD  3   2   2   3   3   4   2
M  END
