Coordinates from ORCA-job 4-MeOPhN2+~HSO4-_B3LYPG-6-31G_dp-CH-Scan-d09-49-n800
 OpenBabel11261919063D

 23 22  0  0  0  0  0  0  0  0999 V2000
   -1.6924   -0.1136   -0.0979 C   0  0  0  0  0  0  0  0  0  0  0  0
   -3.0540   -0.2973   -0.0066 N   0  0  0  0  0  0  0  0  0  0  0  0
   -4.1678   -0.4097    0.0531 N   0  0  0  0  0  0  0  0  0  0  0  0
   -1.2950    1.1861   -0.4971 C   0  0  0  0  0  0  0  0  0  0  0  0
    0.1065    1.2667   -0.5658 C   0  0  0  0  0  0  0  0  0  0  0  0
    0.9734    0.2005   -0.2765 C   0  0  0  0  0  0  0  0  0  0  0  0
    2.2976    0.4560   -0.3962 O   0  0  0  0  0  0  0  0  0  0  0  0
    3.2432   -0.5732   -0.1273 C   0  0  0  0  0  0  0  0  0  0  0  0
    0.4711   -1.0719    0.1190 C   0  0  0  0  0  0  0  0  0  0  0  0
   -0.8898   -1.2437    0.2128 C   0  0  0  0  0  0  0  0  0  0  0  0
   -3.3634    3.5398   -0.9275 H   0  0  0  0  0  0  0  0  0  0  0  0
    0.5913    2.1980   -0.8593 H   0  0  0  0  0  0  0  0  0  0  0  0
    4.2239   -0.1277   -0.2991 H   0  0  0  0  0  0  0  0  0  0  0  0
    3.1125   -1.4274   -0.8022 H   0  0  0  0  0  0  0  0  0  0  0  0
    3.1812   -0.9167    0.9122 H   0  0  0  0  0  0  0  0  0  0  0  0
    1.1362   -1.8957    0.3447 H   0  0  0  0  0  0  0  0  0  0  0  0
   -1.3201   -2.1964    0.5115 H   0  0  0  0  0  0  0  0  0  0  0  0
   -5.0936    3.7491    0.3167 S   0  0  0  0  0  0  0  0  0  0  0  0
   -4.0803    4.1985   -0.8551 O   0  0  0  0  0  0  0  0  0  0  0  0
   -6.2494    4.6105    0.1820 O   0  0  0  0  0  0  0  0  0  0  0  0
   -5.1712    2.3044    0.3723 O   0  0  0  0  0  0  0  0  0  0  0  0
   -4.2776    4.1862    1.6564 O   0  0  0  0  0  0  0  0  0  0  0  0
   -4.4247    5.1374    1.7938 H   0  0  0  0  0  0  0  0  0  0  0  0
  1  2  1  0  0  0  0
  1 10  2  0  0  0  0
  2  3  1  0  0  0  0
  4  1  1  0  0  0  0
  5  4  2  0  0  0  0
  5  6  1  0  0  0  0
  6  9  2  0  0  0  0
  7  6  1  0  0  0  0
  7  8  1  0  0  0  0
  8 15  1  0  0  0  0
  9 10  1  0  0  0  0
  9 16  1  0  0  0  0
 10 17  1  0  0  0  0
 11 19  1  0  0  0  0
 12  5  1  0  0  0  0
 13  8  1  0  0  0  0
 14  8  1  0  0  0  0
 18 21  2  0  0  0  0
 18 22  1  0  0  0  0
 19 18  1  0  0  0  0
 20 18  2  0  0  0  0
 22 23  1  0  0  0  0
M  RAD  3   2   2   3   3   4   2
M  END
