Coordinates from ORCA-job 4-MeOPhN2+~HSO4-_B3LYPG-6-31G_dp-CH-Scan-d09-49-n800
 OpenBabel11261919063D

 23 22  0  0  0  0  0  0  0  0999 V2000
   -1.6545   -0.1172   -0.0963 C   0  0  0  0  0  0  0  0  0  0  0  0
   -3.0185   -0.2864   -0.0017 N   0  0  0  0  0  0  0  0  0  0  0  0
   -4.1337   -0.3848    0.0592 N   0  0  0  0  0  0  0  0  0  0  0  0
   -1.2494    1.1761   -0.5067 C   0  0  0  0  0  0  0  0  0  0  0  0
    0.1534    1.2435   -0.5789 C   0  0  0  0  0  0  0  0  0  0  0  0
    1.0117    0.1725   -0.2831 C   0  0  0  0  0  0  0  0  0  0  0  0
    2.3383    0.4154   -0.4077 O   0  0  0  0  0  0  0  0  0  0  0  0
    3.2752   -0.6197   -0.1325 C   0  0  0  0  0  0  0  0  0  0  0  0
    0.4999   -1.0928    0.1241 C   0  0  0  0  0  0  0  0  0  0  0  0
   -0.8622   -1.2524    0.2223 C   0  0  0  0  0  0  0  0  0  0  0  0
   -3.4464    3.6565   -0.9506 H   0  0  0  0  0  0  0  0  0  0  0  0
    0.6460    2.1682   -0.8809 H   0  0  0  0  0  0  0  0  0  0  0  0
    4.2595   -0.1844   -0.3095 H   0  0  0  0  0  0  0  0  0  0  0  0
    3.1360   -1.4782   -0.8002 H   0  0  0  0  0  0  0  0  0  0  0  0
    3.2124   -0.9547    0.9099 H   0  0  0  0  0  0  0  0  0  0  0  0
    1.1587   -1.9201    0.3549 H   0  0  0  0  0  0  0  0  0  0  0  0
   -1.3000   -2.1990    0.5296 H   0  0  0  0  0  0  0  0  0  0  0  0
   -5.1644    3.7848    0.3211 S   0  0  0  0  0  0  0  0  0  0  0  0
   -4.1765    4.2948   -0.8506 O   0  0  0  0  0  0  0  0  0  0  0  0
   -6.3513    4.6061    0.2112 O   0  0  0  0  0  0  0  0  0  0  0  0
   -5.1856    2.3375    0.3468 O   0  0  0  0  0  0  0  0  0  0  0  0
   -4.3531    4.2265    1.6616 O   0  0  0  0  0  0  0  0  0  0  0  0
   -4.5380    5.1676    1.8218 H   0  0  0  0  0  0  0  0  0  0  0  0
  1  2  1  0  0  0  0
  1 10  2  0  0  0  0
  2  3  1  0  0  0  0
  4  1  1  0  0  0  0
  5  4  2  0  0  0  0
  5  6  1  0  0  0  0
  6  9  2  0  0  0  0
  7  6  1  0  0  0  0
  7  8  1  0  0  0  0
  8 15  1  0  0  0  0
  9 10  1  0  0  0  0
  9 16  1  0  0  0  0
 10 17  1  0  0  0  0
 11 19  1  0  0  0  0
 12  5  1  0  0  0  0
 13  8  1  0  0  0  0
 14  8  1  0  0  0  0
 18 21  2  0  0  0  0
 18 22  1  0  0  0  0
 19 18  1  0  0  0  0
 20 18  2  0  0  0  0
 22 23  1  0  0  0  0
M  RAD  3   2   2   3   3   4   2
M  END
