Coordinates from ORCA-job 4-MeOPhN2+~HSO4-_B3LYPG-6-31G_dp-CH-Scan-d09-49-n800
 OpenBabel11261919063D

 23 22  0  0  0  0  0  0  0  0999 V2000
   -1.9475   -0.0662   -0.1208 C   0  0  0  0  0  0  0  0  0  0  0  0
   -3.2923   -0.3373   -0.0702 N   0  0  0  0  0  0  0  0  0  0  0  0
   -4.3932   -0.5346   -0.0370 N   0  0  0  0  0  0  0  0  0  0  0  0
   -1.5801    1.2750   -0.3989 C   0  0  0  0  0  0  0  0  0  0  0  0
   -0.1921    1.4350   -0.4382 C   0  0  0  0  0  0  0  0  0  0  0  0
    0.7210    0.3864   -0.2260 C   0  0  0  0  0  0  0  0  0  0  0  0
    2.0269    0.7133   -0.3024 O   0  0  0  0  0  0  0  0  0  0  0  0
    3.0214   -0.2895   -0.1086 C   0  0  0  0  0  0  0  0  0  0  0  0
    0.2682   -0.9319    0.0498 C   0  0  0  0  0  0  0  0  0  0  0  0
   -1.0857   -1.1700    0.1033 C   0  0  0  0  0  0  0  0  0  0  0  0
   -2.7567    2.6458   -0.6288 H   0  0  0  0  0  0  0  0  0  0  0  0
    0.2417    2.4117   -0.6430 H   0  0  0  0  0  0  0  0  0  0  0  0
    3.9790    0.2174   -0.2282 H   0  0  0  0  0  0  0  0  0  0  0  0
    2.9374   -1.0866   -0.8566 H   0  0  0  0  0  0  0  0  0  0  0  0
    2.9642   -0.7211    0.8973 H   0  0  0  0  0  0  0  0  0  0  0  0
    0.9639   -1.7440    0.2173 H   0  0  0  0  0  0  0  0  0  0  0  0
   -1.4743   -2.1626    0.3125 H   0  0  0  0  0  0  0  0  0  0  0  0
   -4.5487    3.4638    0.3193 S   0  0  0  0  0  0  0  0  0  0  0  0
   -3.4171    3.4483   -0.7740 O   0  0  0  0  0  0  0  0  0  0  0  0
   -5.6079    4.3462   -0.1405 O   0  0  0  0  0  0  0  0  0  0  0  0
   -4.8243    2.1116    0.7852 O   0  0  0  0  0  0  0  0  0  0  0  0
   -3.8235    4.1962    1.5942 O   0  0  0  0  0  0  0  0  0  0  0  0
   -3.9226    5.1528    1.4579 H   0  0  0  0  0  0  0  0  0  0  0  0
  1  2  1  0  0  0  0
  1 10  2  0  0  0  0
  2  3  1  0  0  0  0
  4  1  1  0  0  0  0
  5  4  2  0  0  0  0
  5  6  1  0  0  0  0
  6  9  2  0  0  0  0
  7  6  1  0  0  0  0
  7  8  1  0  0  0  0
  8 15  1  0  0  0  0
  9 10  1  0  0  0  0
  9 16  1  0  0  0  0
 10 17  1  0  0  0  0
 12  5  1  0  0  0  0
 13  8  1  0  0  0  0
 14  8  1  0  0  0  0
 18 21  2  0  0  0  0
 18 22  1  0  0  0  0
 19 11  1  0  0  0  0
 19 18  1  0  0  0  0
 20 18  2  0  0  0  0
 23 22  1  0  0  0  0
M  RAD  3   2   2   3   3   4   2
M  END
