Coordinates from ORCA-job 4-MeOPhN2+~HSO4-_B3LYPG-6-31G_dp-CH-Scan-d09-49-n800
 OpenBabel11261919063D

 23 22  0  0  0  0  0  0  0  0999 V2000
   -1.4703   -0.1239   -0.1693 C   0  0  0  0  0  0  0  0  0  0  0  0
   -2.8438   -0.2137   -0.0779 N   0  0  0  0  0  0  0  0  0  0  0  0
   -3.9643   -0.2382   -0.0288 N   0  0  0  0  0  0  0  0  0  0  0  0
   -1.0115    1.1086   -0.6917 C   0  0  0  0  0  0  0  0  0  0  0  0
    0.3958    1.1040   -0.7536 C   0  0  0  0  0  0  0  0  0  0  0  0
    1.2022    0.0288   -0.3501 C   0  0  0  0  0  0  0  0  0  0  0  0
    2.5411    0.2003   -0.4783 O   0  0  0  0  0  0  0  0  0  0  0  0
    3.4271   -0.8434   -0.0922 C   0  0  0  0  0  0  0  0  0  0  0  0
    0.6317   -1.1713    0.1649 C   0  0  0  0  0  0  0  0  0  0  0  0
   -0.7369   -1.2618    0.2617 C   0  0  0  0  0  0  0  0  0  0  0  0
   -3.9431    4.2130   -1.0427 H   0  0  0  0  0  0  0  0  0  0  0  0
    0.9331    1.9743   -1.1331 H   0  0  0  0  0  0  0  0  0  0  0  0
    4.4324   -0.4679   -0.2886 H   0  0  0  0  0  0  0  0  0  0  0  0
    3.2626   -1.7530   -0.6821 H   0  0  0  0  0  0  0  0  0  0  0  0
    3.3338   -1.0797    0.9748 H   0  0  0  0  0  0  0  0  0  0  0  0
    1.2518   -2.0018    0.4774 H   0  0  0  0  0  0  0  0  0  0  0  0
   -1.2197   -2.1567    0.6475 H   0  0  0  0  0  0  0  0  0  0  0  0
   -5.5026    3.9437    0.4003 S   0  0  0  0  0  0  0  0  0  0  0  0
   -4.7353    4.7221   -0.7975 O   0  0  0  0  0  0  0  0  0  0  0  0
   -6.8203    4.5378    0.4644 O   0  0  0  0  0  0  0  0  0  0  0  0
   -5.2555    2.5233    0.2798 O   0  0  0  0  0  0  0  0  0  0  0  0
   -4.6547    4.4233    1.7029 O   0  0  0  0  0  0  0  0  0  0  0  0
   -4.9959    5.2920    1.9760 H   0  0  0  0  0  0  0  0  0  0  0  0
  1  2  1  0  0  0  0
  1 10  2  0  0  0  0
  2  3  1  0  0  0  0
  4  1  1  0  0  0  0
  5  4  2  0  0  0  0
  5  6  1  0  0  0  0
  6  9  2  0  0  0  0
  7  6  1  0  0  0  0
  7  8  1  0  0  0  0
  8 15  1  0  0  0  0
  9 10  1  0  0  0  0
  9 16  1  0  0  0  0
 10 17  1  0  0  0  0
 11 19  1  0  0  0  0
 12  5  1  0  0  0  0
 13  8  1  0  0  0  0
 14  8  1  0  0  0  0
 18 20  2  0  0  0  0
 18 22  1  0  0  0  0
 19 18  1  0  0  0  0
 21 18  2  0  0  0  0
 22 23  1  0  0  0  0
M  RAD  3   2   2   3   3   4   2
M  END
