Coordinates from ORCA-job 4-MeOPhN2+~HSO4-_B3LYPG-6-31G_dp-CH-Scan-d09-49-n800
 OpenBabel11261919063D

 23 22  0  0  0  0  0  0  0  0999 V2000
   -1.7034   -0.1126   -0.0982 C   0  0  0  0  0  0  0  0  0  0  0  0
   -3.0645   -0.3005   -0.0080 N   0  0  0  0  0  0  0  0  0  0  0  0
   -4.1777   -0.4175    0.0507 N   0  0  0  0  0  0  0  0  0  0  0  0
   -1.3081    1.1890   -0.4928 C   0  0  0  0  0  0  0  0  0  0  0  0
    0.0930    1.2739   -0.5606 C   0  0  0  0  0  0  0  0  0  0  0  0
    0.9623    0.2089   -0.2743 C   0  0  0  0  0  0  0  0  0  0  0  0
    2.2857    0.4680   -0.3923 O   0  0  0  0  0  0  0  0  0  0  0  0
    3.2339   -0.5596   -0.1261 C   0  0  0  0  0  0  0  0  0  0  0  0
    0.4628   -1.0660    0.1168 C   0  0  0  0  0  0  0  0  0  0  0  0
   -0.8978   -1.2414    0.2092 C   0  0  0  0  0  0  0  0  0  0  0  0
   -3.3392    3.5023   -0.9184 H   0  0  0  0  0  0  0  0  0  0  0  0
    0.5753    2.2074   -0.8509 H   0  0  0  0  0  0  0  0  0  0  0  0
    4.2135   -0.1111   -0.2959 H   0  0  0  0  0  0  0  0  0  0  0  0
    3.1057   -1.4120   -0.8038 H   0  0  0  0  0  0  0  0  0  0  0  0
    3.1722   -0.9065    0.9123 H   0  0  0  0  0  0  0  0  0  0  0  0
    1.1296   -1.8889    0.3402 H   0  0  0  0  0  0  0  0  0  0  0  0
   -1.3258   -2.1961    0.5045 H   0  0  0  0  0  0  0  0  0  0  0  0
   -5.0730    3.7390    0.3155 S   0  0  0  0  0  0  0  0  0  0  0  0
   -4.0518    4.1675   -0.8562 O   0  0  0  0  0  0  0  0  0  0  0  0
   -6.2189    4.6119    0.1707 O   0  0  0  0  0  0  0  0  0  0  0  0
   -5.1678    2.2955    0.3835 O   0  0  0  0  0  0  0  0  0  0  0  0
   -4.2564    4.1771    1.6549 O   0  0  0  0  0  0  0  0  0  0  0  0
   -4.3918    5.1313    1.7832 H   0  0  0  0  0  0  0  0  0  0  0  0
  1  2  1  0  0  0  0
  1 10  2  0  0  0  0
  2  3  1  0  0  0  0
  4  1  1  0  0  0  0
  5  4  2  0  0  0  0
  5  6  1  0  0  0  0
  6  9  2  0  0  0  0
  7  6  1  0  0  0  0
  7  8  1  0  0  0  0
  8 15  1  0  0  0  0
  9 10  1  0  0  0  0
  9 16  1  0  0  0  0
 10 17  1  0  0  0  0
 11 19  1  0  0  0  0
 12  5  1  0  0  0  0
 13  8  1  0  0  0  0
 14  8  1  0  0  0  0
 18 21  2  0  0  0  0
 18 22  1  0  0  0  0
 19 18  1  0  0  0  0
 20 18  2  0  0  0  0
 22 23  1  0  0  0  0
M  RAD  3   2   2   3   3   4   2
M  END
