Coordinates from ORCA-job 4-MeOPhN2+~HSO4-_B3LYPG-6-31G_dp-CH-Scan-d09-49-n800
 OpenBabel11261919063D

 23 22  0  0  0  0  0  0  0  0999 V2000
   -1.7796   -0.1029   -0.0919 C   0  0  0  0  0  0  0  0  0  0  0  0
   -3.1355   -0.3193   -0.0069 N   0  0  0  0  0  0  0  0  0  0  0  0
   -4.2452   -0.4633    0.0504 N   0  0  0  0  0  0  0  0  0  0  0  0
   -1.3985    1.2130   -0.4534 C   0  0  0  0  0  0  0  0  0  0  0  0
   -0.0010    1.3244   -0.5180 C   0  0  0  0  0  0  0  0  0  0  0  0
    0.8852    0.2660   -0.2574 C   0  0  0  0  0  0  0  0  0  0  0  0
    2.2029    0.5497   -0.3679 O   0  0  0  0  0  0  0  0  0  0  0  0
    3.1686   -0.4686   -0.1276 C   0  0  0  0  0  0  0  0  0  0  0  0
    0.4046   -1.0249    0.1009 C   0  0  0  0  0  0  0  0  0  0  0  0
   -0.9534   -1.2236    0.1871 C   0  0  0  0  0  0  0  0  0  0  0  0
   -3.1531    3.2463   -0.8323 H   0  0  0  0  0  0  0  0  0  0  0  0
    0.4649    2.2726   -0.7847 H   0  0  0  0  0  0  0  0  0  0  0  0
    4.1401    0.0007   -0.2863 H   0  0  0  0  0  0  0  0  0  0  0  0
    3.0537   -1.3055   -0.8266 H   0  0  0  0  0  0  0  0  0  0  0  0
    3.1129   -0.8418    0.9019 H   0  0  0  0  0  0  0  0  0  0  0  0
    1.0834   -1.8430    0.3047 H   0  0  0  0  0  0  0  0  0  0  0  0
   -1.3659   -2.1920    0.4583 H   0  0  0  0  0  0  0  0  0  0  0  0
   -4.9249    3.6657    0.2966 S   0  0  0  0  0  0  0  0  0  0  0  0
   -3.8356    3.9532   -0.8476 O   0  0  0  0  0  0  0  0  0  0  0  0
   -6.0039    4.6029    0.0604 O   0  0  0  0  0  0  0  0  0  0  0  0
   -5.1288    2.2386    0.4447 O   0  0  0  0  0  0  0  0  0  0  0  0
   -4.1349    4.1217    1.6481 O   0  0  0  0  0  0  0  0  0  0  0  0
   -4.1984    5.0898    1.7115 H   0  0  0  0  0  0  0  0  0  0  0  0
  1  2  1  0  0  0  0
  1 10  2  0  0  0  0
  2  3  1  0  0  0  0
  4  1  1  0  0  0  0
  5  4  2  0  0  0  0
  5  6  1  0  0  0  0
  6  9  2  0  0  0  0
  7  6  1  0  0  0  0
  7  8  1  0  0  0  0
  8 15  1  0  0  0  0
  9 10  1  0  0  0  0
  9 16  1  0  0  0  0
 10 17  1  0  0  0  0
 12  5  1  0  0  0  0
 13  8  1  0  0  0  0
 14  8  1  0  0  0  0
 18 21  2  0  0  0  0
 18 22  1  0  0  0  0
 19 11  1  0  0  0  0
 19 18  1  0  0  0  0
 20 18  2  0  0  0  0
 22 23  1  0  0  0  0
M  RAD  3   2   2   3   3   4   2
M  END
