Coordinates from ORCA-job 4-MeOPhN2+~HSO4-_B3LYPG-6-31G_dp-CH-Scan-d09-49-n800
 OpenBabel11261919063D

 23 22  0  0  0  0  0  0  0  0999 V2000
   -1.4325   -0.1214   -0.1873 C   0  0  0  0  0  0  0  0  0  0  0  0
   -2.8073   -0.1940   -0.0975 N   0  0  0  0  0  0  0  0  0  0  0  0
   -3.9281   -0.2034   -0.0467 N   0  0  0  0  0  0  0  0  0  0  0  0
   -0.9607    1.0966   -0.7310 C   0  0  0  0  0  0  0  0  0  0  0  0
    0.4467    1.0766   -0.7899 C   0  0  0  0  0  0  0  0  0  0  0  0
    1.2413    0.0010   -0.3649 C   0  0  0  0  0  0  0  0  0  0  0  0
    2.5822    0.1566   -0.4929 O   0  0  0  0  0  0  0  0  0  0  0  0
    3.4569   -0.8881   -0.0848 C   0  0  0  0  0  0  0  0  0  0  0  0
    0.6576   -1.1838    0.1708 C   0  0  0  0  0  0  0  0  0  0  0  0
   -0.7120   -1.2588    0.2663 C   0  0  0  0  0  0  0  0  0  0  0  0
   -4.0334    4.2861   -1.0377 H   0  0  0  0  0  0  0  0  0  0  0  0
    0.9936    1.9344   -1.1841 H   0  0  0  0  0  0  0  0  0  0  0  0
    4.4664   -0.5263   -0.2855 H   0  0  0  0  0  0  0  0  0  0  0  0
    3.2851   -1.8071   -0.6580 H   0  0  0  0  0  0  0  0  0  0  0  0
    3.3585   -1.1034    0.9862 H   0  0  0  0  0  0  0  0  0  0  0  0
    1.2687   -2.0145    0.4997 H   0  0  0  0  0  0  0  0  0  0  0  0
   -1.2047   -2.1417    0.6670 H   0  0  0  0  0  0  0  0  0  0  0  0
   -5.5737    3.9767    0.4172 S   0  0  0  0  0  0  0  0  0  0  0  0
   -4.8306    4.7807   -0.7795 O   0  0  0  0  0  0  0  0  0  0  0  0
   -6.9040    4.5405    0.4935 O   0  0  0  0  0  0  0  0  0  0  0  0
   -5.2944    2.5634    0.2839 O   0  0  0  0  0  0  0  0  0  0  0  0
   -4.7289    4.4660    1.7181 O   0  0  0  0  0  0  0  0  0  0  0  0
   -5.0892    5.3238    2.0011 H   0  0  0  0  0  0  0  0  0  0  0  0
  1  2  1  0  0  0  0
  1 10  2  0  0  0  0
  2  3  1  0  0  0  0
  4  1  1  0  0  0  0
  5  4  2  0  0  0  0
  5  6  1  0  0  0  0
  6  9  2  0  0  0  0
  7  6  1  0  0  0  0
  7  8  1  0  0  0  0
  8 15  1  0  0  0  0
  9 10  1  0  0  0  0
  9 16  1  0  0  0  0
 10 17  1  0  0  0  0
 11 19  1  0  0  0  0
 12  5  1  0  0  0  0
 13  8  1  0  0  0  0
 14  8  1  0  0  0  0
 18 20  2  0  0  0  0
 18 22  1  0  0  0  0
 19 18  1  0  0  0  0
 21 18  2  0  0  0  0
 22 23  1  0  0  0  0
M  RAD  3   2   2   3   3   4   2
M  END
