Coordinates from ORCA-job 4-MeOPhN2+~HSO4-_B3LYPG-6-31G_dp-CH-Scan-d09-49-n800
 OpenBabel11261919063D

 23 22  0  0  0  0  0  0  0  0999 V2000
   -1.6850   -0.1140   -0.0975 C   0  0  0  0  0  0  0  0  0  0  0  0
   -3.0472   -0.2951   -0.0057 N   0  0  0  0  0  0  0  0  0  0  0  0
   -4.1612   -0.4055    0.0525 N   0  0  0  0  0  0  0  0  0  0  0  0
   -1.2860    1.1843   -0.4987 C   0  0  0  0  0  0  0  0  0  0  0  0
    0.1158    1.2625   -0.5680 C   0  0  0  0  0  0  0  0  0  0  0  0
    0.9809    0.1952   -0.2777 C   0  0  0  0  0  0  0  0  0  0  0  0
    2.3056    0.4481   -0.3982 O   0  0  0  0  0  0  0  0  0  0  0  0
    3.2494   -0.5823   -0.1282 C   0  0  0  0  0  0  0  0  0  0  0  0
    0.4767   -1.0759    0.1200 C   0  0  0  0  0  0  0  0  0  0  0  0
   -0.8845   -1.2452    0.2146 C   0  0  0  0  0  0  0  0  0  0  0  0
   -3.3803    3.5617   -0.9323 H   0  0  0  0  0  0  0  0  0  0  0  0
    0.6021    2.1925   -0.8631 H   0  0  0  0  0  0  0  0  0  0  0  0
    4.2309   -0.1389   -0.3009 H   0  0  0  0  0  0  0  0  0  0  0  0
    3.1170   -1.4373   -0.8018 H   0  0  0  0  0  0  0  0  0  0  0  0
    3.1872   -0.9243    0.9118 H   0  0  0  0  0  0  0  0  0  0  0  0
    1.1405   -1.9003    0.3466 H   0  0  0  0  0  0  0  0  0  0  0  0
   -1.3163   -2.1968    0.5148 H   0  0  0  0  0  0  0  0  0  0  0  0
   -5.1076    3.7560    0.3179 S   0  0  0  0  0  0  0  0  0  0  0  0
   -4.0997    4.2166   -0.8548 O   0  0  0  0  0  0  0  0  0  0  0  0
   -6.2694    4.6099    0.1883 O   0  0  0  0  0  0  0  0  0  0  0  0
   -5.1746    2.3105    0.3687 O   0  0  0  0  0  0  0  0  0  0  0  0
   -4.2916    4.1942    1.6572 O   0  0  0  0  0  0  0  0  0  0  0  0
   -4.4452    5.1439    1.7984 H   0  0  0  0  0  0  0  0  0  0  0  0
  1  2  1  0  0  0  0
  1 10  2  0  0  0  0
  2  3  1  0  0  0  0
  4  1  1  0  0  0  0
  5  4  2  0  0  0  0
  5  6  1  0  0  0  0
  6  9  2  0  0  0  0
  7  6  1  0  0  0  0
  7  8  1  0  0  0  0
  8 15  1  0  0  0  0
  9 10  1  0  0  0  0
  9 16  1  0  0  0  0
 10 17  1  0  0  0  0
 11 19  1  0  0  0  0
 12  5  1  0  0  0  0
 13  8  1  0  0  0  0
 14  8  1  0  0  0  0
 18 21  2  0  0  0  0
 18 22  1  0  0  0  0
 19 18  1  0  0  0  0
 20 18  2  0  0  0  0
 22 23  1  0  0  0  0
M  RAD  3   2   2   3   3   4   2
M  END
