Coordinates from ORCA-job 4-MeOPhN2+~HSO4-_B3LYPG-6-31G_dp-CH-Scan-d09-49-n800
 OpenBabel11261919063D

 23 22  0  0  0  0  0  0  0  0999 V2000
   -1.8600   -0.0803   -0.0572 C   0  0  0  0  0  0  0  0  0  0  0  0
   -3.2094   -0.3249    0.0316 N   0  0  0  0  0  0  0  0  0  0  0  0
   -4.3138   -0.4982    0.0965 N   0  0  0  0  0  0  0  0  0  0  0  0
   -1.4902    1.2523   -0.3690 C   0  0  0  0  0  0  0  0  0  0  0  0
   -0.0975    1.3864   -0.4417 C   0  0  0  0  0  0  0  0  0  0  0  0
    0.8046    0.3291   -0.2318 C   0  0  0  0  0  0  0  0  0  0  0  0
    2.1154    0.6343   -0.3441 O   0  0  0  0  0  0  0  0  0  0  0  0
    3.0976   -0.3805   -0.1578 C   0  0  0  0  0  0  0  0  0  0  0  0
    0.3416   -0.9791    0.0791 C   0  0  0  0  0  0  0  0  0  0  0  0
   -1.0133   -1.1969    0.1691 C   0  0  0  0  0  0  0  0  0  0  0  0
   -2.9173    2.9520   -0.6841 H   0  0  0  0  0  0  0  0  0  0  0  0
    0.3512    2.3507   -0.6751 H   0  0  0  0  0  0  0  0  0  0  0  0
    4.0605    0.1084   -0.3084 H   0  0  0  0  0  0  0  0  0  0  0  0
    2.9841   -1.1885   -0.8901 H   0  0  0  0  0  0  0  0  0  0  0  0
    3.0588   -0.7961    0.8559 H   0  0  0  0  0  0  0  0  0  0  0  0
    1.0307   -1.7972    0.2445 H   0  0  0  0  0  0  0  0  0  0  0  0
   -1.4114   -2.1800    0.4056 H   0  0  0  0  0  0  0  0  0  0  0  0
   -4.7547    3.5824    0.2413 S   0  0  0  0  0  0  0  0  0  0  0  0
   -3.5540    3.7151   -0.7970 O   0  0  0  0  0  0  0  0  0  0  0  0
   -5.7452    4.5688   -0.1437 O   0  0  0  0  0  0  0  0  0  0  0  0
   -5.0830    2.1853    0.4613 O   0  0  0  0  0  0  0  0  0  0  0  0
   -4.0701    4.0723    1.6419 O   0  0  0  0  0  0  0  0  0  0  0  0
   -4.0672    5.0442    1.6368 H   0  0  0  0  0  0  0  0  0  0  0  0
  1  2  1  0  0  0  0
  1 10  2  0  0  0  0
  2  3  1  0  0  0  0
  4  1  1  0  0  0  0
  5  4  2  0  0  0  0
  5  6  1  0  0  0  0
  6  9  2  0  0  0  0
  7  6  1  0  0  0  0
  7  8  1  0  0  0  0
  8 15  1  0  0  0  0
  9 10  1  0  0  0  0
  9 16  1  0  0  0  0
 10 17  1  0  0  0  0
 12  5  1  0  0  0  0
 13  8  1  0  0  0  0
 14  8  1  0  0  0  0
 18 21  2  0  0  0  0
 18 22  1  0  0  0  0
 19 11  1  0  0  0  0
 19 18  1  0  0  0  0
 20 18  2  0  0  0  0
 23 22  1  0  0  0  0
M  RAD  3   2   2   3   3   4   2
M  END
