Coordinates from ORCA-job 4-MeOPhN2+~HSO4-_B3LYPG-6-31G_dp-CH-Scan-d09-49-n800
 OpenBabel11261919063D

 23 22  0  0  0  0  0  0  0  0999 V2000
   -1.6735   -0.1154   -0.0972 C   0  0  0  0  0  0  0  0  0  0  0  0
   -3.0363   -0.2919   -0.0044 N   0  0  0  0  0  0  0  0  0  0  0  0
   -4.1508   -0.3971    0.0559 N   0  0  0  0  0  0  0  0  0  0  0  0
   -1.2724    1.1812   -0.5023 C   0  0  0  0  0  0  0  0  0  0  0  0
    0.1299    1.2550   -0.5726 C   0  0  0  0  0  0  0  0  0  0  0  0
    0.9925    0.1865   -0.2798 C   0  0  0  0  0  0  0  0  0  0  0  0
    2.3179    0.4357   -0.4020 O   0  0  0  0  0  0  0  0  0  0  0  0
    3.2592   -0.5964   -0.1299 C   0  0  0  0  0  0  0  0  0  0  0  0
    0.4855   -1.0823    0.1218 C   0  0  0  0  0  0  0  0  0  0  0  0
   -0.8761   -1.2480    0.2177 C   0  0  0  0  0  0  0  0  0  0  0  0
   -3.4046    3.5985   -0.9396 H   0  0  0  0  0  0  0  0  0  0  0  0
    0.6186    2.1829   -0.8705 H   0  0  0  0  0  0  0  0  0  0  0  0
    4.2417   -0.1560   -0.3044 H   0  0  0  0  0  0  0  0  0  0  0  0
    3.1242   -1.4529   -0.8010 H   0  0  0  0  0  0  0  0  0  0  0  0
    3.1969   -0.9355    0.9111 H   0  0  0  0  0  0  0  0  0  0  0  0
    1.1474   -1.9078    0.3503 H   0  0  0  0  0  0  0  0  0  0  0  0
   -1.3102   -2.1975    0.5210 H   0  0  0  0  0  0  0  0  0  0  0  0
   -5.1289    3.7668    0.3190 S   0  0  0  0  0  0  0  0  0  0  0  0
   -4.1281    4.2470   -0.8529 O   0  0  0  0  0  0  0  0  0  0  0  0
   -6.3005    4.6083    0.1972 O   0  0  0  0  0  0  0  0  0  0  0  0
   -5.1782    2.3205    0.3591 O   0  0  0  0  0  0  0  0  0  0  0  0
   -4.3152    4.2059    1.6591 O   0  0  0  0  0  0  0  0  0  0  0  0
   -4.4814    5.1522    1.8082 H   0  0  0  0  0  0  0  0  0  0  0  0
  1  2  1  0  0  0  0
  1 10  2  0  0  0  0
  2  3  1  0  0  0  0
  4  1  1  0  0  0  0
  5  4  2  0  0  0  0
  5  6  1  0  0  0  0
  6  9  2  0  0  0  0
  7  6  1  0  0  0  0
  7  8  1  0  0  0  0
  8 15  1  0  0  0  0
  9 10  1  0  0  0  0
  9 16  1  0  0  0  0
 10 17  1  0  0  0  0
 11 19  1  0  0  0  0
 12  5  1  0  0  0  0
 13  8  1  0  0  0  0
 14  8  1  0  0  0  0
 18 21  2  0  0  0  0
 18 22  1  0  0  0  0
 19 18  1  0  0  0  0
 20 18  2  0  0  0  0
 22 23  1  0  0  0  0
M  RAD  3   2   2   3   3   4   2
M  END
