Coordinates from ORCA-job 4-MeOPhN2+~HSO4-_B3LYPG-6-31G_dp-CH-Scan-d09-49-n800
 OpenBabel11261919063D

 23 22  0  0  0  0  0  0  0  0999 V2000
   -1.5328   -0.1232   -0.1411 C   0  0  0  0  0  0  0  0  0  0  0  0
   -2.9038   -0.2406   -0.0485 N   0  0  0  0  0  0  0  0  0  0  0  0
   -4.0231   -0.2902    0.0045 N   0  0  0  0  0  0  0  0  0  0  0  0
   -1.0937    1.1329   -0.6235 C   0  0  0  0  0  0  0  0  0  0  0  0
    0.3129    1.1523   -0.6889 C   0  0  0  0  0  0  0  0  0  0  0  0
    1.1374    0.0769   -0.3239 C   0  0  0  0  0  0  0  0  0  0  0  0
    2.4728    0.2732   -0.4509 O   0  0  0  0  0  0  0  0  0  0  0  0
    3.3760   -0.7696   -0.1039 C   0  0  0  0  0  0  0  0  0  0  0  0
    0.5871   -1.1481    0.1527 C   0  0  0  0  0  0  0  0  0  0  0  0
   -0.7796   -1.2626    0.2499 C   0  0  0  0  0  0  0  0  0  0  0  0
   -3.7943    4.0718   -1.0490 H   0  0  0  0  0  0  0  0  0  0  0  0
    0.8356    2.0429   -1.0408 H   0  0  0  0  0  0  0  0  0  0  0  0
    4.3747   -0.3733   -0.2929 H   0  0  0  0  0  0  0  0  0  0  0  0
    3.2209   -1.6616   -0.7225 H   0  0  0  0  0  0  0  0  0  0  0  0
    3.2920   -1.0420    0.9552 H   0  0  0  0  0  0  0  0  0  0  0  0
    1.2207   -1.9787    0.4360 H   0  0  0  0  0  0  0  0  0  0  0  0
   -1.2473   -2.1769    0.6078 H   0  0  0  0  0  0  0  0  0  0  0  0
   -5.3852    3.8857    0.3736 S   0  0  0  0  0  0  0  0  0  0  0  0
   -4.5764    4.6082   -0.8304 O   0  0  0  0  0  0  0  0  0  0  0  0
   -6.6762    4.5377    0.4151 O   0  0  0  0  0  0  0  0  0  0  0  0
   -5.2022    2.4534    0.2828 O   0  0  0  0  0  0  0  0  0  0  0  0
   -4.5278    4.3510    1.6754 O   0  0  0  0  0  0  0  0  0  0  0  0
   -4.8302    5.2403    1.9272 H   0  0  0  0  0  0  0  0  0  0  0  0
  1  2  1  0  0  0  0
  1 10  2  0  0  0  0
  2  3  1  0  0  0  0
  4  1  1  0  0  0  0
  5  4  2  0  0  0  0
  5  6  1  0  0  0  0
  6  9  2  0  0  0  0
  7  6  1  0  0  0  0
  7  8  1  0  0  0  0
  8 15  1  0  0  0  0
  9 10  1  0  0  0  0
  9 16  1  0  0  0  0
 10 17  1  0  0  0  0
 11 19  1  0  0  0  0
 12  5  1  0  0  0  0
 13  8  1  0  0  0  0
 14  8  1  0  0  0  0
 18 20  2  0  0  0  0
 18 22  1  0  0  0  0
 19 18  1  0  0  0  0
 21 18  2  0  0  0  0
 22 23  1  0  0  0  0
M  RAD  3   2   2   3   3   4   2
M  END
