Coordinates from ORCA-job 4-MeOPhN2+~HSO4-_B3LYPG-6-31G_dp-CH-Scan-d09-49-n800
 OpenBabel11261919063D

 23 22  0  0  0  0  0  0  0  0999 V2000
   -1.3805   -0.1126   -0.2176 C   0  0  0  0  0  0  0  0  0  0  0  0
   -2.7566   -0.1579   -0.1303 N   0  0  0  0  0  0  0  0  0  0  0  0
   -3.8780   -0.1429   -0.0919 N   0  0  0  0  0  0  0  0  0  0  0  0
   -0.8887    1.0771   -0.8043 C   0  0  0  0  0  0  0  0  0  0  0  0
    0.5184    1.0332   -0.8582 C   0  0  0  0  0  0  0  0  0  0  0  0
    1.2948   -0.0384   -0.3914 C   0  0  0  0  0  0  0  0  0  0  0  0
    2.6384    0.0912   -0.5212 O   0  0  0  0  0  0  0  0  0  0  0  0
    3.4956   -0.9505   -0.0709 C   0  0  0  0  0  0  0  0  0  0  0  0
    0.6913   -1.1934    0.1859 C   0  0  0  0  0  0  0  0  0  0  0  0
   -0.6796   -1.2437    0.2799 C   0  0  0  0  0  0  0  0  0  0  0  0
   -4.1470    4.3874   -1.0162 H   0  0  0  0  0  0  0  0  0  0  0  0
    1.0796    1.8673   -1.2820 H   0  0  0  0  0  0  0  0  0  0  0  0
    4.5110   -0.6130   -0.2838 H   0  0  0  0  0  0  0  0  0  0  0  0
    3.3099   -1.8885   -0.6079 H   0  0  0  0  0  0  0  0  0  0  0  0
    3.3924   -1.1222    1.0075 H   0  0  0  0  0  0  0  0  0  0  0  0
    1.2885   -2.0208    0.5471 H   0  0  0  0  0  0  0  0  0  0  0  0
   -1.1872   -2.1036    0.7111 H   0  0  0  0  0  0  0  0  0  0  0  0
   -5.6702    4.0170    0.4413 S   0  0  0  0  0  0  0  0  0  0  0  0
   -4.9513    4.8617   -0.7428 O   0  0  0  0  0  0  0  0  0  0  0  0
   -7.0152    4.5426    0.5304 O   0  0  0  0  0  0  0  0  0  0  0  0
   -5.3513    2.6150    0.2815 O   0  0  0  0  0  0  0  0  0  0  0  0
   -4.8360    4.5068    1.7488 O   0  0  0  0  0  0  0  0  0  0  0  0
   -5.2206    5.3480    2.0492 H   0  0  0  0  0  0  0  0  0  0  0  0
  1  2  1  0  0  0  0
  1 10  2  0  0  0  0
  2  3  1  0  0  0  0
  4  1  1  0  0  0  0
  5  4  2  0  0  0  0
  5  6  1  0  0  0  0
  6  9  2  0  0  0  0
  7  6  1  0  0  0  0
  7  8  1  0  0  0  0
  8 15  1  0  0  0  0
  9 10  1  0  0  0  0
  9 16  1  0  0  0  0
 10 17  1  0  0  0  0
 11 19  1  0  0  0  0
 12  5  1  0  0  0  0
 13  8  1  0  0  0  0
 14  8  1  0  0  0  0
 18 20  2  0  0  0  0
 18 22  1  0  0  0  0
 19 18  1  0  0  0  0
 21 18  2  0  0  0  0
 22 23  1  0  0  0  0
M  RAD  3   2   2   3   3   4   2
M  END
