Coordinates from ORCA-job 4-MeOPhN2+~HSO4-_B3LYPG-6-31G_dp-CH-Scan-d09-49-n800
 OpenBabel11261919063D

 23 22  0  0  0  0  0  0  0  0999 V2000
   -1.5486   -0.1223   -0.1315 C   0  0  0  0  0  0  0  0  0  0  0  0
   -2.9188   -0.2465   -0.0379 N   0  0  0  0  0  0  0  0  0  0  0  0
   -4.0376   -0.3021    0.0179 N   0  0  0  0  0  0  0  0  0  0  0  0
   -1.1145    1.1404   -0.6015 C   0  0  0  0  0  0  0  0  0  0  0  0
    0.2918    1.1659   -0.6687 C   0  0  0  0  0  0  0  0  0  0  0  0
    1.1209    0.0898   -0.3163 C   0  0  0  0  0  0  0  0  0  0  0  0
    2.4552    0.2925   -0.4435 O   0  0  0  0  0  0  0  0  0  0  0  0
    3.3629   -0.7507   -0.1094 C   0  0  0  0  0  0  0  0  0  0  0  0
    0.5759   -1.1420    0.1484 C   0  0  0  0  0  0  0  0  0  0  0  0
   -0.7902   -1.2626    0.2465 C   0  0  0  0  0  0  0  0  0  0  0  0
   -3.7506    4.0264   -1.0449 H   0  0  0  0  0  0  0  0  0  0  0  0
    0.8105    2.0620   -1.0121 H   0  0  0  0  0  0  0  0  0  0  0  0
    4.3597   -0.3489   -0.2967 H   0  0  0  0  0  0  0  0  0  0  0  0
    3.2094   -1.6368   -0.7368 H   0  0  0  0  0  0  0  0  0  0  0  0
    3.2824   -1.0342    0.9470 H   0  0  0  0  0  0  0  0  0  0  0  0
    1.2131   -1.9732    0.4222 H   0  0  0  0  0  0  0  0  0  0  0  0
   -1.2539   -2.1823    0.5957 H   0  0  0  0  0  0  0  0  0  0  0  0
   -5.3567    3.8717    0.3645 S   0  0  0  0  0  0  0  0  0  0  0  0
   -4.5290    4.5730   -0.8386 O   0  0  0  0  0  0  0  0  0  0  0  0
   -6.6373    4.5448    0.3934 O   0  0  0  0  0  0  0  0  0  0  0  0
   -5.1973    2.4359    0.2848 O   0  0  0  0  0  0  0  0  0  0  0  0
   -4.5003    4.3315    1.6690 O   0  0  0  0  0  0  0  0  0  0  0  0
   -4.7893    5.2275    1.9124 H   0  0  0  0  0  0  0  0  0  0  0  0
  1  2  1  0  0  0  0
  1 10  2  0  0  0  0
  2  3  1  0  0  0  0
  4  1  1  0  0  0  0
  5  4  2  0  0  0  0
  5  6  1  0  0  0  0
  6  9  2  0  0  0  0
  7  6  1  0  0  0  0
  7  8  1  0  0  0  0
  8 15  1  0  0  0  0
  9 10  1  0  0  0  0
  9 16  1  0  0  0  0
 10 17  1  0  0  0  0
 11 19  1  0  0  0  0
 12  5  1  0  0  0  0
 13  8  1  0  0  0  0
 14  8  1  0  0  0  0
 18 20  2  0  0  0  0
 18 22  1  0  0  0  0
 19 18  1  0  0  0  0
 21 18  2  0  0  0  0
 22 23  1  0  0  0  0
M  RAD  3   2   2   3   3   4   2
M  END
