Coordinates from ORCA-job 4-MeOPhN2+~HSO4-_B3LYPG-6-31G_dp-CH-Scan-d09-49-n800
 OpenBabel11261919063D

 23 22  0  0  0  0  0  0  0  0999 V2000
   -1.7336   -0.1102   -0.0970 C   0  0  0  0  0  0  0  0  0  0  0  0
   -3.0927   -0.3097   -0.0094 N   0  0  0  0  0  0  0  0  0  0  0  0
   -4.2047   -0.4371    0.0486 N   0  0  0  0  0  0  0  0  0  0  0  0
   -1.3445    1.1972   -0.4791 C   0  0  0  0  0  0  0  0  0  0  0  0
    0.0552    1.2933   -0.5449 C   0  0  0  0  0  0  0  0  0  0  0  0
    0.9316    0.2313   -0.2677 C   0  0  0  0  0  0  0  0  0  0  0  0
    2.2528    0.5009   -0.3821 O   0  0  0  0  0  0  0  0  0  0  0  0
    3.2083   -0.5226   -0.1253 C   0  0  0  0  0  0  0  0  0  0  0  0
    0.4400   -1.0502    0.1105 C   0  0  0  0  0  0  0  0  0  0  0  0
   -0.9195   -1.2355    0.1999 C   0  0  0  0  0  0  0  0  0  0  0  0
   -3.2674    3.4001   -0.8877 H   0  0  0  0  0  0  0  0  0  0  0  0
    0.5309    2.2328   -0.8260 H   0  0  0  0  0  0  0  0  0  0  0  0
    4.1846   -0.0653   -0.2903 H   0  0  0  0  0  0  0  0  0  0  0  0
    3.0863   -1.3692   -0.8112 H   0  0  0  0  0  0  0  0  0  0  0  0
    3.1485   -0.8796    0.9097 H   0  0  0  0  0  0  0  0  0  0  0  0
    1.1119   -1.8708    0.3268 H   0  0  0  0  0  0  0  0  0  0  0  0
   -1.3411   -2.1959    0.4859 H   0  0  0  0  0  0  0  0  0  0  0  0
   -5.0153    3.7113    0.3098 S   0  0  0  0  0  0  0  0  0  0  0  0
   -3.9679    4.0827   -0.8552 O   0  0  0  0  0  0  0  0  0  0  0  0
   -6.1342    4.6129    0.1312 O   0  0  0  0  0  0  0  0  0  0  0  0
   -5.1554    2.2730    0.4103 O   0  0  0  0  0  0  0  0  0  0  0  0
   -4.2051    4.1547    1.6520 O   0  0  0  0  0  0  0  0  0  0  0  0
   -4.3112    5.1156    1.7552 H   0  0  0  0  0  0  0  0  0  0  0  0
  1  2  1  0  0  0  0
  1 10  2  0  0  0  0
  2  3  1  0  0  0  0
  4  1  1  0  0  0  0
  5  4  2  0  0  0  0
  5  6  1  0  0  0  0
  6  9  2  0  0  0  0
  7  6  1  0  0  0  0
  7  8  1  0  0  0  0
  8 15  1  0  0  0  0
  9 10  1  0  0  0  0
  9 16  1  0  0  0  0
 10 17  1  0  0  0  0
 11 19  1  0  0  0  0
 12  5  1  0  0  0  0
 13  8  1  0  0  0  0
 14  8  1  0  0  0  0
 18 21  2  0  0  0  0
 18 22  1  0  0  0  0
 19 18  1  0  0  0  0
 20 18  2  0  0  0  0
 22 23  1  0  0  0  0
M  RAD  3   2   2   3   3   4   2
M  END
