Coordinates from ORCA-job 4-MeOPhN2+~HSO4-_B3LYPG-6-31G_dp-CH-Scan-d09-49-n800
 OpenBabel11261919063D

 23 22  0  0  0  0  0  0  0  0999 V2000
   -1.9429    0.3906   -0.2096 C   0  0  0  0  0  0  0  0  0  0  0  0
   -3.3158    0.3422   -0.1964 N   0  0  0  0  0  0  0  0  0  0  0  0
   -4.4351    0.2791   -0.2305 N   0  0  0  0  0  0  0  0  0  0  0  0
   -1.2779    1.6149   -0.4466 C   0  0  0  0  0  0  0  0  0  0  0  0
    0.1004    1.5918   -0.4788 C   0  0  0  0  0  0  0  0  0  0  0  0
    0.8145    0.3939   -0.2637 C   0  0  0  0  0  0  0  0  0  0  0  0
    2.1509    0.5027   -0.3088 O   0  0  0  0  0  0  0  0  0  0  0  0
    2.9621   -0.6527   -0.0896 C   0  0  0  0  0  0  0  0  0  0  0  0
    0.1271   -0.8158   -0.0240 C   0  0  0  0  0  0  0  0  0  0  0  0
   -1.2558   -0.8193   -0.0025 C   0  0  0  0  0  0  0  0  0  0  0  0
   -1.8647    2.5567   -0.6007 H   0  0  0  0  0  0  0  0  0  0  0  0
    0.6624    2.5010   -0.6591 H   0  0  0  0  0  0  0  0  0  0  0  0
    3.9923   -0.3065   -0.1688 H   0  0  0  0  0  0  0  0  0  0  0  0
    2.7742   -1.4182   -0.8506 H   0  0  0  0  0  0  0  0  0  0  0  0
    2.7933   -1.0705    0.9091 H   0  0  0  0  0  0  0  0  0  0  0  0
    0.6624   -1.7414    0.1430 H   0  0  0  0  0  0  0  0  0  0  0  0
   -1.8061   -1.7361    0.1787 H   0  0  0  0  0  0  0  0  0  0  0  0
   -4.1985    3.3067    0.4363 S   0  0  0  0  0  0  0  0  0  0  0  0
   -3.3820    3.9262   -0.6277 O   0  0  0  0  0  0  0  0  0  0  0  0
   -5.3674    2.5071   -0.0460 O   0  0  0  0  0  0  0  0  0  0  0  0
   -3.3957    2.5553    1.4338 O   0  0  0  0  0  0  0  0  0  0  0  0
   -4.8720    4.5974    1.2153 O   0  0  0  0  0  0  0  0  0  0  0  0
   -5.6681    4.2545    1.6509 H   0  0  0  0  0  0  0  0  0  0  0  0
  1  2  1  0  0  0  0
  1 10  2  0  0  0  0
  3  2  1  0  0  0  0
  4  1  1  0  0  0  0
  5  4  2  0  0  0  0
  5  6  1  0  0  0  0
  6  9  2  0  0  0  0
  7  6  1  0  0  0  0
  7  8  1  0  0  0  0
  8 15  1  0  0  0  0
  9 10  1  0  0  0  0
  9 16  1  0  0  0  0
 10 17  1  0  0  0  0
 11  4  1  0  0  0  0
 12  5  1  0  0  0  0
 13  8  1  0  0  0  0
 14  8  1  0  0  0  0
 18 22  1  0  0  0  0
 18 21  1  0  0  0  0
 19 18  2  0  0  0  0
 20 18  2  0  0  0  0
 22 23  1  0  0  0  0
M  RAD  3   2   2   3   3  21   2
M  END
