Coordinates from ORCA-job 4-MeOPhN2+~HSO4-_B3LYPG-6-31G_dp-CH-Scan-d09-49-n800
 OpenBabel11261919063D

 23 22  0  0  0  0  0  0  0  0999 V2000
   -1.6913   -0.1134   -0.0975 C   0  0  0  0  0  0  0  0  0  0  0  0
   -3.0530   -0.2967   -0.0059 N   0  0  0  0  0  0  0  0  0  0  0  0
   -4.1669   -0.4090    0.0522 N   0  0  0  0  0  0  0  0  0  0  0  0
   -1.2935    1.1859   -0.4971 C   0  0  0  0  0  0  0  0  0  0  0  0
    0.1080    1.2662   -0.5661 C   0  0  0  0  0  0  0  0  0  0  0  0
    0.9746    0.1998   -0.2767 C   0  0  0  0  0  0  0  0  0  0  0  0
    2.2988    0.4547   -0.3967 O   0  0  0  0  0  0  0  0  0  0  0  0
    3.2441   -0.5747   -0.1277 C   0  0  0  0  0  0  0  0  0  0  0  0
    0.4720   -1.0724    0.1193 C   0  0  0  0  0  0  0  0  0  0  0  0
   -0.8891   -1.2437    0.2134 C   0  0  0  0  0  0  0  0  0  0  0  0
   -3.3656    3.5430   -0.9278 H   0  0  0  0  0  0  0  0  0  0  0  0
    0.5931    2.1972   -0.8600 H   0  0  0  0  0  0  0  0  0  0  0  0
    4.2249   -0.1297   -0.2998 H   0  0  0  0  0  0  0  0  0  0  0  0
    3.1130   -1.4291   -0.8023 H   0  0  0  0  0  0  0  0  0  0  0  0
    3.1822   -0.9179    0.9120 H   0  0  0  0  0  0  0  0  0  0  0  0
    1.1368   -1.8963    0.3451 H   0  0  0  0  0  0  0  0  0  0  0  0
   -1.3196   -2.1961    0.5125 H   0  0  0  0  0  0  0  0  0  0  0  0
   -5.0957    3.7501    0.3166 S   0  0  0  0  0  0  0  0  0  0  0  0
   -4.0828    4.2013   -0.8549 O   0  0  0  0  0  0  0  0  0  0  0  0
   -6.2523    4.6105    0.1823 O   0  0  0  0  0  0  0  0  0  0  0  0
   -5.1719    2.3051    0.3715 O   0  0  0  0  0  0  0  0  0  0  0  0
   -4.2802    4.1870    1.6567 O   0  0  0  0  0  0  0  0  0  0  0  0
   -4.4282    5.1380    1.7947 H   0  0  0  0  0  0  0  0  0  0  0  0
  1  2  1  0  0  0  0
  1 10  2  0  0  0  0
  2  3  1  0  0  0  0
  4  1  1  0  0  0  0
  5  4  2  0  0  0  0
  5  6  1  0  0  0  0
  6  9  2  0  0  0  0
  7  6  1  0  0  0  0
  7  8  1  0  0  0  0
  8 15  1  0  0  0  0
  9 10  1  0  0  0  0
  9 16  1  0  0  0  0
 10 17  1  0  0  0  0
 11 19  1  0  0  0  0
 12  5  1  0  0  0  0
 13  8  1  0  0  0  0
 14  8  1  0  0  0  0
 18 21  2  0  0  0  0
 18 22  1  0  0  0  0
 19 18  1  0  0  0  0
 20 18  2  0  0  0  0
 22 23  1  0  0  0  0
M  RAD  3   2   2   3   3   4   2
M  END
