Coordinates from ORCA-job 4-MeOPhN2+~HSO4-_B3LYPG-6-31G_dp-CH-Scan-d09-49-n800
 OpenBabel11261919063D

 23 22  0  0  0  0  0  0  0  0999 V2000
   -1.9643   -0.0316   -0.1013 C   0  0  0  0  0  0  0  0  0  0  0  0
   -3.3107   -0.2897   -0.0505 N   0  0  0  0  0  0  0  0  0  0  0  0
   -4.4116   -0.4819   -0.0150 N   0  0  0  0  0  0  0  0  0  0  0  0
   -1.5670    1.3081   -0.3358 C   0  0  0  0  0  0  0  0  0  0  0  0
   -0.1834    1.4616   -0.3847 C   0  0  0  0  0  0  0  0  0  0  0  0
    0.7178    0.3932   -0.2176 C   0  0  0  0  0  0  0  0  0  0  0  0
    2.0243    0.7062   -0.2967 O   0  0  0  0  0  0  0  0  0  0  0  0
    3.0096   -0.3144   -0.1463 C   0  0  0  0  0  0  0  0  0  0  0  0
    0.2472   -0.9254    0.0171 C   0  0  0  0  0  0  0  0  0  0  0  0
   -1.1101   -1.1477    0.0752 C   0  0  0  0  0  0  0  0  0  0  0  0
   -2.5594    2.5088   -0.4947 H   0  0  0  0  0  0  0  0  0  0  0  0
    0.2521    2.4424   -0.5593 H   0  0  0  0  0  0  0  0  0  0  0  0
    3.9713    0.1861   -0.2584 H   0  0  0  0  0  0  0  0  0  0  0  0
    2.9083   -1.0840   -0.9202 H   0  0  0  0  0  0  0  0  0  0  0  0
    2.9560   -0.7778    0.8454 H   0  0  0  0  0  0  0  0  0  0  0  0
    0.9318   -1.7529    0.1501 H   0  0  0  0  0  0  0  0  0  0  0  0
   -1.5088   -2.1419    0.2538 H   0  0  0  0  0  0  0  0  0  0  0  0
   -4.4607    3.4247    0.3148 S   0  0  0  0  0  0  0  0  0  0  0  0
   -3.2433    3.4160   -0.6454 O   0  0  0  0  0  0  0  0  0  0  0  0
   -5.5823    4.1247   -0.2999 O   0  0  0  0  0  0  0  0  0  0  0  0
   -4.6488    2.1008    0.9087 O   0  0  0  0  0  0  0  0  0  0  0  0
   -3.9575    4.3670    1.5670 O   0  0  0  0  0  0  0  0  0  0  0  0
   -4.2531    5.2674    1.3574 H   0  0  0  0  0  0  0  0  0  0  0  0
  1  2  1  0  0  0  0
  1 10  2  0  0  0  0
  2  3  1  0  0  0  0
  4  1  1  0  0  0  0
  5  4  2  0  0  0  0
  5  6  1  0  0  0  0
  6  9  2  0  0  0  0
  7  6  1  0  0  0  0
  7  8  1  0  0  0  0
  8 15  1  0  0  0  0
  9 10  1  0  0  0  0
  9 16  1  0  0  0  0
 10 17  1  0  0  0  0
 12  5  1  0  0  0  0
 13  8  1  0  0  0  0
 14  8  1  0  0  0  0
 18 21  2  0  0  0  0
 18 22  1  0  0  0  0
 19 11  1  0  0  0  0
 19 18  1  0  0  0  0
 20 18  2  0  0  0  0
 23 22  1  0  0  0  0
M  RAD  3   2   2   3   3   4   2
M  END
