Coordinates from ORCA-job 4-MeOPhN2+~HSO4-_B3LYPG-6-31G_dp-CH-Scan-d09-49-n800
 OpenBabel11261919063D

 23 22  0  0  0  0  0  0  0  0999 V2000
   -1.8916   -0.0756   -0.0573 C   0  0  0  0  0  0  0  0  0  0  0  0
   -3.2385   -0.3323    0.0269 N   0  0  0  0  0  0  0  0  0  0  0  0
   -4.3412   -0.5159    0.0878 N   0  0  0  0  0  0  0  0  0  0  0  0
   -1.5258    1.2622   -0.3525 C   0  0  0  0  0  0  0  0  0  0  0  0
   -0.1349    1.4059   -0.4228 C   0  0  0  0  0  0  0  0  0  0  0  0
    0.7733    0.3511   -0.2252 C   0  0  0  0  0  0  0  0  0  0  0  0
    2.0814    0.6654   -0.3337 O   0  0  0  0  0  0  0  0  0  0  0  0
    3.0701   -0.3458   -0.1601 C   0  0  0  0  0  0  0  0  0  0  0  0
    0.3169   -0.9625    0.0696 C   0  0  0  0  0  0  0  0  0  0  0  0
   -1.0372   -1.1884    0.1559 C   0  0  0  0  0  0  0  0  0  0  0  0
   -2.8362    2.8354   -0.6326 H   0  0  0  0  0  0  0  0  0  0  0  0
    0.3068    2.3760   -0.6444 H   0  0  0  0  0  0  0  0  0  0  0  0
    4.0297    0.1509   -0.3050 H   0  0  0  0  0  0  0  0  0  0  0  0
    2.9608   -1.1453   -0.9024 H   0  0  0  0  0  0  0  0  0  0  0  0
    3.0339   -0.7737    0.8485 H   0  0  0  0  0  0  0  0  0  0  0  0
    1.0098   -1.7792    0.2258 H   0  0  0  0  0  0  0  0  0  0  0  0
   -1.4299   -2.1762    0.3803 H   0  0  0  0  0  0  0  0  0  0  0  0
   -4.6820    3.5480    0.2377 S   0  0  0  0  0  0  0  0  0  0  0  0
   -3.4601    3.6219   -0.7712 O   0  0  0  0  0  0  0  0  0  0  0  0
   -5.6570    4.5279   -0.2031 O   0  0  0  0  0  0  0  0  0  0  0  0
   -5.0354    2.1647    0.5087 O   0  0  0  0  0  0  0  0  0  0  0  0
   -4.0283    4.0871    1.6371 O   0  0  0  0  0  0  0  0  0  0  0  0
   -4.0271    5.0580    1.5960 H   0  0  0  0  0  0  0  0  0  0  0  0
  1  2  1  0  0  0  0
  1 10  2  0  0  0  0
  2  3  1  0  0  0  0
  4  1  1  0  0  0  0
  5  4  2  0  0  0  0
  5  6  1  0  0  0  0
  6  9  2  0  0  0  0
  7  6  1  0  0  0  0
  7  8  1  0  0  0  0
  8 15  1  0  0  0  0
  9 10  1  0  0  0  0
  9 16  1  0  0  0  0
 10 17  1  0  0  0  0
 12  5  1  0  0  0  0
 13  8  1  0  0  0  0
 14  8  1  0  0  0  0
 18 21  2  0  0  0  0
 18 22  1  0  0  0  0
 19 11  1  0  0  0  0
 19 18  1  0  0  0  0
 20 18  2  0  0  0  0
 23 22  1  0  0  0  0
M  RAD  3   2   2   3   3   4   2
M  END
