Coordinates from ORCA-job 4-MeOPhN2+~HSO4-_B3LYPG-6-31G_dp-CH-Scan-d09-49-n800
 OpenBabel11261919063D

 23 22  0  0  0  0  0  0  0  0999 V2000
   -1.5440   -0.1232   -0.1351 C   0  0  0  0  0  0  0  0  0  0  0  0
   -2.9144   -0.2451   -0.0418 N   0  0  0  0  0  0  0  0  0  0  0  0
   -4.0335   -0.2982    0.0126 N   0  0  0  0  0  0  0  0  0  0  0  0
   -1.1086    1.1374   -0.6097 C   0  0  0  0  0  0  0  0  0  0  0  0
    0.2978    1.1613   -0.6760 C   0  0  0  0  0  0  0  0  0  0  0  0
    1.1256    0.0857   -0.3189 C   0  0  0  0  0  0  0  0  0  0  0  0
    2.4603    0.2867   -0.4459 O   0  0  0  0  0  0  0  0  0  0  0  0
    3.3668   -0.7560   -0.1071 C   0  0  0  0  0  0  0  0  0  0  0  0
    0.5792   -1.1439    0.1500 C   0  0  0  0  0  0  0  0  0  0  0  0
   -0.7870   -1.2629    0.2477 C   0  0  0  0  0  0  0  0  0  0  0  0
   -3.7642    4.0407   -1.0465 H   0  0  0  0  0  0  0  0  0  0  0  0
    0.8176    2.0556   -1.0224 H   0  0  0  0  0  0  0  0  0  0  0  0
    4.3641   -0.3557   -0.2949 H   0  0  0  0  0  0  0  0  0  0  0  0
    3.2131   -1.6443   -0.7314 H   0  0  0  0  0  0  0  0  0  0  0  0
    3.2850   -1.0355    0.9503 H   0  0  0  0  0  0  0  0  0  0  0  0
    1.2155   -1.9746    0.4273 H   0  0  0  0  0  0  0  0  0  0  0  0
   -1.2518   -2.1807    0.6000 H   0  0  0  0  0  0  0  0  0  0  0  0
   -5.3649    3.8760    0.3676 S   0  0  0  0  0  0  0  0  0  0  0  0
   -4.5434    4.5844   -0.8358 O   0  0  0  0  0  0  0  0  0  0  0  0
   -6.6489    4.5424    0.4013 O   0  0  0  0  0  0  0  0  0  0  0  0
   -5.1977    2.4414    0.2837 O   0  0  0  0  0  0  0  0  0  0  0  0
   -4.5078    4.3371    1.6712 O   0  0  0  0  0  0  0  0  0  0  0  0
   -4.8011    5.2309    1.9178 H   0  0  0  0  0  0  0  0  0  0  0  0
  1  2  1  0  0  0  0
  1 10  2  0  0  0  0
  2  3  1  0  0  0  0
  4  1  1  0  0  0  0
  5  4  2  0  0  0  0
  5  6  1  0  0  0  0
  6  9  2  0  0  0  0
  7  6  1  0  0  0  0
  7  8  1  0  0  0  0
  8 15  1  0  0  0  0
  9 10  1  0  0  0  0
  9 16  1  0  0  0  0
 10 17  1  0  0  0  0
 11 19  1  0  0  0  0
 12  5  1  0  0  0  0
 13  8  1  0  0  0  0
 14  8  1  0  0  0  0
 18 20  2  0  0  0  0
 18 22  1  0  0  0  0
 19 18  1  0  0  0  0
 21 18  2  0  0  0  0
 22 23  1  0  0  0  0
M  RAD  3   2   2   3   3   4   2
M  END
