Coordinates from ORCA-job 4-MeOPhN2+~HSO4-_B3LYPG-6-31G_dp-CH-Scan-d09-49-n800
 OpenBabel11261919063D

 23 22  0  0  0  0  0  0  0  0999 V2000
   -1.7834   -0.1020   -0.0914 C   0  0  0  0  0  0  0  0  0  0  0  0
   -3.1391   -0.3197   -0.0065 N   0  0  0  0  0  0  0  0  0  0  0  0
   -4.2485   -0.4652    0.0512 N   0  0  0  0  0  0  0  0  0  0  0  0
   -1.4029    1.2146   -0.4510 C   0  0  0  0  0  0  0  0  0  0  0  0
   -0.0056    1.3271   -0.5156 C   0  0  0  0  0  0  0  0  0  0  0  0
    0.8813    0.2689   -0.2565 C   0  0  0  0  0  0  0  0  0  0  0  0
    2.1988    0.5537   -0.3666 O   0  0  0  0  0  0  0  0  0  0  0  0
    3.1653   -0.4643   -0.1279 C   0  0  0  0  0  0  0  0  0  0  0  0
    0.4016   -1.0227    0.1000 C   0  0  0  0  0  0  0  0  0  0  0  0
   -0.9562   -1.2224    0.1860 C   0  0  0  0  0  0  0  0  0  0  0  0
   -3.1436    3.2336   -0.8276 H   0  0  0  0  0  0  0  0  0  0  0  0
    0.4596    2.2760   -0.7810 H   0  0  0  0  0  0  0  0  0  0  0  0
    4.1364    0.0060   -0.2861 H   0  0  0  0  0  0  0  0  0  0  0  0
    3.0509   -1.3002   -0.8280 H   0  0  0  0  0  0  0  0  0  0  0  0
    3.1099   -0.8389    0.9011 H   0  0  0  0  0  0  0  0  0  0  0  0
    1.0809   -1.8407    0.3027 H   0  0  0  0  0  0  0  0  0  0  0  0
   -1.3681   -2.1914    0.4559 H   0  0  0  0  0  0  0  0  0  0  0  0
   -4.9173    3.6617    0.2953 S   0  0  0  0  0  0  0  0  0  0  0  0
   -3.8246    3.9423   -0.8469 O   0  0  0  0  0  0  0  0  0  0  0  0
   -5.9930    4.6014    0.0542 O   0  0  0  0  0  0  0  0  0  0  0  0
   -5.1263    2.2356    0.4472 O   0  0  0  0  0  0  0  0  0  0  0  0
   -4.1292    4.1189    1.6476 O   0  0  0  0  0  0  0  0  0  0  0  0
   -4.1893    5.0874    1.7078 H   0  0  0  0  0  0  0  0  0  0  0  0
  1  2  1  0  0  0  0
  1 10  2  0  0  0  0
  2  3  1  0  0  0  0
  4  1  1  0  0  0  0
  5  4  2  0  0  0  0
  5  6  1  0  0  0  0
  6  9  2  0  0  0  0
  7  6  1  0  0  0  0
  7  8  1  0  0  0  0
  8 15  1  0  0  0  0
  9 10  1  0  0  0  0
  9 16  1  0  0  0  0
 10 17  1  0  0  0  0
 12  5  1  0  0  0  0
 13  8  1  0  0  0  0
 14  8  1  0  0  0  0
 18 21  2  0  0  0  0
 18 22  1  0  0  0  0
 19 11  1  0  0  0  0
 19 18  1  0  0  0  0
 20 18  2  0  0  0  0
 22 23  1  0  0  0  0
M  RAD  3   2   2   3   3   4   2
M  END
