Coordinates from ORCA-job 4-MeOPhN2+~HSO4-_B3LYPG-6-31G_dp-CH-Scan-d09-49-n800
 OpenBabel11261919063D

 23 22  0  0  0  0  0  0  0  0999 V2000
   -1.6027   -0.1202   -0.0975 C   0  0  0  0  0  0  0  0  0  0  0  0
   -2.9692   -0.2684    0.0021 N   0  0  0  0  0  0  0  0  0  0  0  0
   -4.0865   -0.3449    0.0609 N   0  0  0  0  0  0  0  0  0  0  0  0
   -1.1859    1.1633   -0.5265 C   0  0  0  0  0  0  0  0  0  0  0  0
    0.2185    1.2110   -0.6021 C   0  0  0  0  0  0  0  0  0  0  0  0
    1.0642    0.1340   -0.2933 C   0  0  0  0  0  0  0  0  0  0  0  0
    2.3941    0.3588   -0.4233 O   0  0  0  0  0  0  0  0  0  0  0  0
    3.3184   -0.6837   -0.1346 C   0  0  0  0  0  0  0  0  0  0  0  0
    0.5384   -1.1199    0.1319 C   0  0  0  0  0  0  0  0  0  0  0  0
   -0.8252   -1.2617    0.2351 C   0  0  0  0  0  0  0  0  0  0  0  0
   -3.5728    3.8228   -0.9888 H   0  0  0  0  0  0  0  0  0  0  0  0
    0.7225    2.1253   -0.9174 H   0  0  0  0  0  0  0  0  0  0  0  0
    4.3080   -0.2627   -0.3174 H   0  0  0  0  0  0  0  0  0  0  0  0
    3.1691   -1.5493   -0.7908 H   0  0  0  0  0  0  0  0  0  0  0  0
    3.2520   -1.0043    0.9121 H   0  0  0  0  0  0  0  0  0  0  0  0
    1.1881   -1.9517    0.3724 H   0  0  0  0  0  0  0  0  0  0  0  0
   -1.2741   -2.1988    0.5559 H   0  0  0  0  0  0  0  0  0  0  0  0
   -5.2609    3.8310    0.3299 S   0  0  0  0  0  0  0  0  0  0  0  0
   -4.3242    4.4263   -0.8471 O   0  0  0  0  0  0  0  0  0  0  0  0
   -6.4898    4.5931    0.2684 O   0  0  0  0  0  0  0  0  0  0  0  0
   -5.2043    2.3853    0.3081 O   0  0  0  0  0  0  0  0  0  0  0  0
   -4.4433    4.2756    1.6648 O   0  0  0  0  0  0  0  0  0  0  0  0
   -4.6770    5.1989    1.8610 H   0  0  0  0  0  0  0  0  0  0  0  0
  1  2  1  0  0  0  0
  1 10  2  0  0  0  0
  2  3  1  0  0  0  0
  4  1  1  0  0  0  0
  5  4  2  0  0  0  0
  5  6  1  0  0  0  0
  6  9  2  0  0  0  0
  7  6  1  0  0  0  0
  7  8  1  0  0  0  0
  8 15  1  0  0  0  0
  9 10  1  0  0  0  0
  9 16  1  0  0  0  0
 10 17  1  0  0  0  0
 11 19  1  0  0  0  0
 12  5  1  0  0  0  0
 13  8  1  0  0  0  0
 14  8  1  0  0  0  0
 18 22  1  0  0  0  0
 19 18  1  0  0  0  0
 20 18  2  0  0  0  0
 21 18  2  0  0  0  0
 22 23  1  0  0  0  0
M  RAD  3   2   2   3   3   4   2
M  END
