Coordinates from ORCA-job 4-MeOPhN2+~HSO4-_B3LYPG-6-31G_dp-CH-Scan-d09-49-n800
 OpenBabel11261919063D

 23 22  0  0  0  0  0  0  0  0999 V2000
   -1.9406    0.3815   -0.2064 C   0  0  0  0  0  0  0  0  0  0  0  0
   -3.3133    0.3301   -0.1919 N   0  0  0  0  0  0  0  0  0  0  0  0
   -4.4322    0.2675   -0.2238 N   0  0  0  0  0  0  0  0  0  0  0  0
   -1.2801    1.6087   -0.4396 C   0  0  0  0  0  0  0  0  0  0  0  0
    0.0981    1.5892   -0.4730 C   0  0  0  0  0  0  0  0  0  0  0  0
    0.8152    0.3920   -0.2642 C   0  0  0  0  0  0  0  0  0  0  0  0
    2.1514    0.5038   -0.3102 O   0  0  0  0  0  0  0  0  0  0  0  0
    2.9657   -0.6504   -0.0962 C   0  0  0  0  0  0  0  0  0  0  0  0
    0.1315   -0.8211   -0.0285 C   0  0  0  0  0  0  0  0  0  0  0  0
   -1.2510   -0.8286   -0.0046 C   0  0  0  0  0  0  0  0  0  0  0  0
   -1.9033    2.5936   -0.5917 H   0  0  0  0  0  0  0  0  0  0  0  0
    0.6587    2.5002   -0.6493 H   0  0  0  0  0  0  0  0  0  0  0  0
    3.9949   -0.3011   -0.1745 H   0  0  0  0  0  0  0  0  0  0  0  0
    2.7794   -1.4134   -0.8601 H   0  0  0  0  0  0  0  0  0  0  0  0
    2.7988   -1.0727    0.9010 H   0  0  0  0  0  0  0  0  0  0  0  0
    0.6697   -1.7459    0.1336 H   0  0  0  0  0  0  0  0  0  0  0  0
   -1.7988   -1.7476    0.1736 H   0  0  0  0  0  0  0  0  0  0  0  0
   -4.1984    3.3001    0.4511 S   0  0  0  0  0  0  0  0  0  0  0  0
   -3.3459    3.8937   -0.6040 O   0  0  0  0  0  0  0  0  0  0  0  0
   -5.3699    2.5199   -0.0510 O   0  0  0  0  0  0  0  0  0  0  0  0
   -3.4279    2.5478    1.4711 O   0  0  0  0  0  0  0  0  0  0  0  0
   -4.8615    4.6147    1.1977 O   0  0  0  0  0  0  0  0  0  0  0  0
   -5.6830    4.2979    1.6049 H   0  0  0  0  0  0  0  0  0  0  0  0
  1  2  1  0  0  0  0
  1 10  2  0  0  0  0
  3  2  1  0  0  0  0
  4  1  1  0  0  0  0
  5  4  2  0  0  0  0
  5  6  1  0  0  0  0
  6  9  2  0  0  0  0
  7  6  1  0  0  0  0
  7  8  1  0  0  0  0
  8 15  1  0  0  0  0
  9 10  1  0  0  0  0
  9 16  1  0  0  0  0
 10 17  1  0  0  0  0
 11  4  1  0  0  0  0
 12  5  1  0  0  0  0
 13  8  1  0  0  0  0
 14  8  1  0  0  0  0
 18 22  1  0  0  0  0
 18 21  1  0  0  0  0
 19 18  2  0  0  0  0
 20 18  2  0  0  0  0
 22 23  1  0  0  0  0
M  RAD  3   2   2   3   3  21   2
M  END
