Coordinates from ORCA-job 4-MeOPhN2+~HSO4-_B3LYPG-6-31G_dp-CH-Scan-d09-49-n800
 OpenBabel11261919063D

 23 22  0  0  0  0  0  0  0  0999 V2000
   -1.5156   -0.1241   -0.1503 C   0  0  0  0  0  0  0  0  0  0  0  0
   -2.8874   -0.2338   -0.0585 N   0  0  0  0  0  0  0  0  0  0  0  0
   -4.0073   -0.2762   -0.0085 N   0  0  0  0  0  0  0  0  0  0  0  0
   -1.0711    1.1249   -0.6458 C   0  0  0  0  0  0  0  0  0  0  0  0
    0.3357    1.1378   -0.7098 C   0  0  0  0  0  0  0  0  0  0  0  0
    1.1553    0.0630   -0.3320 C   0  0  0  0  0  0  0  0  0  0  0  0
    2.4917    0.2525   -0.4592 O   0  0  0  0  0  0  0  0  0  0  0  0
    3.3902   -0.7899   -0.0994 C   0  0  0  0  0  0  0  0  0  0  0  0
    0.5994   -1.1545    0.1571 C   0  0  0  0  0  0  0  0  0  0  0  0
   -0.7679   -1.2625    0.2540 C   0  0  0  0  0  0  0  0  0  0  0  0
   -3.8372    4.1161   -1.0488 H   0  0  0  0  0  0  0  0  0  0  0  0
    0.8625    2.0224   -1.0706 H   0  0  0  0  0  0  0  0  0  0  0  0
    4.3908   -0.3995   -0.2906 H   0  0  0  0  0  0  0  0  0  0  0  0
    3.2330   -1.6879   -0.7088 H   0  0  0  0  0  0  0  0  0  0  0  0
    3.3031   -1.0507    0.9624 H   0  0  0  0  0  0  0  0  0  0  0  0
    1.2294   -1.9846    0.4502 H   0  0  0  0  0  0  0  0  0  0  0  0
   -1.2397   -2.1710    0.6210 H   0  0  0  0  0  0  0  0  0  0  0  0
   -5.4168    3.9016    0.3821 S   0  0  0  0  0  0  0  0  0  0  0  0
   -4.6226    4.6434   -0.8204 O   0  0  0  0  0  0  0  0  0  0  0  0
   -6.7172    4.5341    0.4324 O   0  0  0  0  0  0  0  0  0  0  0  0
   -5.2120    2.4729    0.2809 O   0  0  0  0  0  0  0  0  0  0  0  0
   -4.5617    4.3715    1.6836 O   0  0  0  0  0  0  0  0  0  0  0  0
   -4.8771    5.2541    1.9430 H   0  0  0  0  0  0  0  0  0  0  0  0
  1  2  1  0  0  0  0
  1 10  2  0  0  0  0
  2  3  1  0  0  0  0
  4  1  1  0  0  0  0
  5  4  2  0  0  0  0
  5  6  1  0  0  0  0
  6  9  2  0  0  0  0
  7  6  1  0  0  0  0
  7  8  1  0  0  0  0
  8 15  1  0  0  0  0
  9 10  1  0  0  0  0
  9 16  1  0  0  0  0
 10 17  1  0  0  0  0
 11 19  1  0  0  0  0
 12  5  1  0  0  0  0
 13  8  1  0  0  0  0
 14  8  1  0  0  0  0
 18 20  2  0  0  0  0
 18 22  1  0  0  0  0
 19 18  1  0  0  0  0
 21 18  2  0  0  0  0
 22 23  1  0  0  0  0
M  RAD  3   2   2   3   3   4   2
M  END
