Coordinates from ORCA-job 4-MeOPhN2+~HSO4-_B3LYPG-6-31G_dp-CH-Scan-d09-49-n800
 OpenBabel11261919063D

 23 22  0  0  0  0  0  0  0  0999 V2000
   -1.6713   -0.1156   -0.0970 C   0  0  0  0  0  0  0  0  0  0  0  0
   -3.0343   -0.2915   -0.0041 N   0  0  0  0  0  0  0  0  0  0  0  0
   -4.1488   -0.3963    0.0560 N   0  0  0  0  0  0  0  0  0  0  0  0
   -1.2697    1.1806   -0.5024 C   0  0  0  0  0  0  0  0  0  0  0  0
    0.1326    1.2538   -0.5731 C   0  0  0  0  0  0  0  0  0  0  0  0
    0.9947    0.1850   -0.2801 C   0  0  0  0  0  0  0  0  0  0  0  0
    2.3202    0.4334   -0.4026 O   0  0  0  0  0  0  0  0  0  0  0  0
    3.2610   -0.5991   -0.1302 C   0  0  0  0  0  0  0  0  0  0  0  0
    0.4872   -1.0835    0.1220 C   0  0  0  0  0  0  0  0  0  0  0  0
   -0.8745   -1.2485    0.2182 C   0  0  0  0  0  0  0  0  0  0  0  0
   -3.4094    3.6047   -0.9408 H   0  0  0  0  0  0  0  0  0  0  0  0
    0.6217    2.1814   -0.8714 H   0  0  0  0  0  0  0  0  0  0  0  0
    4.2437   -0.1593   -0.3050 H   0  0  0  0  0  0  0  0  0  0  0  0
    3.1255   -1.4557   -0.8010 H   0  0  0  0  0  0  0  0  0  0  0  0
    3.1986   -0.9378    0.9110 H   0  0  0  0  0  0  0  0  0  0  0  0
    1.1488   -1.9092    0.3506 H   0  0  0  0  0  0  0  0  0  0  0  0
   -1.3089   -2.1978    0.5218 H   0  0  0  0  0  0  0  0  0  0  0  0
   -5.1331    3.7691    0.3193 S   0  0  0  0  0  0  0  0  0  0  0  0
   -4.1338    4.2523   -0.8527 O   0  0  0  0  0  0  0  0  0  0  0  0
   -6.3064    4.6085    0.1987 O   0  0  0  0  0  0  0  0  0  0  0  0
   -5.1795    2.3226    0.3581 O   0  0  0  0  0  0  0  0  0  0  0  0
   -4.3195    4.2084    1.6594 O   0  0  0  0  0  0  0  0  0  0  0  0
   -4.4874    5.1543    1.8094 H   0  0  0  0  0  0  0  0  0  0  0  0
  1  2  1  0  0  0  0
  1 10  2  0  0  0  0
  2  3  1  0  0  0  0
  4  1  1  0  0  0  0
  5  4  2  0  0  0  0
  5  6  1  0  0  0  0
  6  9  2  0  0  0  0
  7  6  1  0  0  0  0
  7  8  1  0  0  0  0
  8 15  1  0  0  0  0
  9 10  1  0  0  0  0
  9 16  1  0  0  0  0
 10 17  1  0  0  0  0
 11 19  1  0  0  0  0
 12  5  1  0  0  0  0
 13  8  1  0  0  0  0
 14  8  1  0  0  0  0
 18 21  2  0  0  0  0
 18 22  1  0  0  0  0
 19 18  1  0  0  0  0
 20 18  2  0  0  0  0
 22 23  1  0  0  0  0
M  RAD  3   2   2   3   3   4   2
M  END
