Coordinates from ORCA-job 4-MeOPhN2+~HSO4-_B3LYPG-6-31G_dp-CH-Scan-d09-49-n800
 OpenBabel11261919063D

 23 22  0  0  0  0  0  0  0  0999 V2000
   -1.6555   -0.1172   -0.0962 C   0  0  0  0  0  0  0  0  0  0  0  0
   -3.0193   -0.2869   -0.0017 N   0  0  0  0  0  0  0  0  0  0  0  0
   -4.1345   -0.3854    0.0589 N   0  0  0  0  0  0  0  0  0  0  0  0
   -1.2507    1.1764   -0.5065 C   0  0  0  0  0  0  0  0  0  0  0  0
    0.1521    1.2440   -0.5787 C   0  0  0  0  0  0  0  0  0  0  0  0
    1.0107    0.1732   -0.2829 C   0  0  0  0  0  0  0  0  0  0  0  0
    2.3372    0.4164   -0.4075 O   0  0  0  0  0  0  0  0  0  0  0  0
    3.2744   -0.6185   -0.1324 C   0  0  0  0  0  0  0  0  0  0  0  0
    0.4992   -1.0923    0.1241 C   0  0  0  0  0  0  0  0  0  0  0  0
   -0.8629   -1.2522    0.2222 C   0  0  0  0  0  0  0  0  0  0  0  0
   -3.4438    3.6535   -0.9499 H   0  0  0  0  0  0  0  0  0  0  0  0
    0.6444    2.1688   -0.8806 H   0  0  0  0  0  0  0  0  0  0  0  0
    4.2586   -0.1828   -0.3094 H   0  0  0  0  0  0  0  0  0  0  0  0
    3.1354   -1.4769   -0.8003 H   0  0  0  0  0  0  0  0  0  0  0  0
    3.2116   -0.9536    0.9099 H   0  0  0  0  0  0  0  0  0  0  0  0
    1.1582   -1.9194    0.3548 H   0  0  0  0  0  0  0  0  0  0  0  0
   -1.3005   -2.1990    0.5294 H   0  0  0  0  0  0  0  0  0  0  0  0
   -5.1625    3.7840    0.3209 S   0  0  0  0  0  0  0  0  0  0  0  0
   -4.1736    4.2925   -0.8504 O   0  0  0  0  0  0  0  0  0  0  0  0
   -6.3487    4.6063    0.2103 O   0  0  0  0  0  0  0  0  0  0  0  0
   -5.1853    2.3368    0.3470 O   0  0  0  0  0  0  0  0  0  0  0  0
   -4.3515    4.2253    1.6617 O   0  0  0  0  0  0  0  0  0  0  0  0
   -4.5355    5.1666    1.8214 H   0  0  0  0  0  0  0  0  0  0  0  0
  1  2  1  0  0  0  0
  1 10  2  0  0  0  0
  2  3  1  0  0  0  0
  4  1  1  0  0  0  0
  5  4  2  0  0  0  0
  5  6  1  0  0  0  0
  6  9  2  0  0  0  0
  7  6  1  0  0  0  0
  7  8  1  0  0  0  0
  8 15  1  0  0  0  0
  9 10  1  0  0  0  0
  9 16  1  0  0  0  0
 10 17  1  0  0  0  0
 11 19  1  0  0  0  0
 12  5  1  0  0  0  0
 13  8  1  0  0  0  0
 14  8  1  0  0  0  0
 18 21  2  0  0  0  0
 18 22  1  0  0  0  0
 19 18  1  0  0  0  0
 20 18  2  0  0  0  0
 22 23  1  0  0  0  0
M  RAD  3   2   2   3   3   4   2
M  END
