Coordinates from ORCA-job 4-MeOPhN2+~HSO4-_B3LYPG-6-31G_dp-CH-Scan-d09-49-n800
 OpenBabel11261919063D

 23 22  0  0  0  0  0  0  0  0999 V2000
   -1.9700   -0.0176   -0.1050 C   0  0  0  0  0  0  0  0  0  0  0  0
   -3.3175   -0.2680   -0.0552 N   0  0  0  0  0  0  0  0  0  0  0  0
   -4.4189   -0.4542   -0.0195 N   0  0  0  0  0  0  0  0  0  0  0  0
   -1.5586    1.3172   -0.3378 C   0  0  0  0  0  0  0  0  0  0  0  0
   -0.1772    1.4698   -0.3873 C   0  0  0  0  0  0  0  0  0  0  0  0
    0.7184    0.3961   -0.2204 C   0  0  0  0  0  0  0  0  0  0  0  0
    2.0254    0.7031   -0.2984 O   0  0  0  0  0  0  0  0  0  0  0  0
    3.0067   -0.3217   -0.1461 C   0  0  0  0  0  0  0  0  0  0  0  0
    0.2398   -0.9193    0.0126 C   0  0  0  0  0  0  0  0  0  0  0  0
   -1.1190   -1.1355    0.0698 C   0  0  0  0  0  0  0  0  0  0  0  0
   -2.5057    2.4654   -0.4854 H   0  0  0  0  0  0  0  0  0  0  0  0
    0.2587    2.4502   -0.5604 H   0  0  0  0  0  0  0  0  0  0  0  0
    3.9702    0.1753   -0.2569 H   0  0  0  0  0  0  0  0  0  0  0  0
    2.9032   -1.0907   -0.9202 H   0  0  0  0  0  0  0  0  0  0  0  0
    2.9491   -0.7842    0.8456 H   0  0  0  0  0  0  0  0  0  0  0  0
    0.9197   -1.7507    0.1453 H   0  0  0  0  0  0  0  0  0  0  0  0
   -1.5220   -2.1278    0.2474 H   0  0  0  0  0  0  0  0  0  0  0  0
   -4.4391    3.4118    0.3200 S   0  0  0  0  0  0  0  0  0  0  0  0
   -3.2255    3.4162   -0.6301 O   0  0  0  0  0  0  0  0  0  0  0  0
   -5.5909    4.0617   -0.2983 O   0  0  0  0  0  0  0  0  0  0  0  0
   -4.5932    2.0940    0.9444 O   0  0  0  0  0  0  0  0  0  0  0  0
   -3.9709    4.3956    1.5576 O   0  0  0  0  0  0  0  0  0  0  0  0
   -4.3251    5.2730    1.3423 H   0  0  0  0  0  0  0  0  0  0  0  0
  1  2  1  0  0  0  0
  1 10  2  0  0  0  0
  2  3  1  0  0  0  0
  4  1  1  0  0  0  0
  5  4  2  0  0  0  0
  5  6  1  0  0  0  0
  6  9  2  0  0  0  0
  7  6  1  0  0  0  0
  7  8  1  0  0  0  0
  8 15  1  0  0  0  0
  9 10  1  0  0  0  0
  9 16  1  0  0  0  0
 10 17  1  0  0  0  0
 12  5  1  0  0  0  0
 13  8  1  0  0  0  0
 14  8  1  0  0  0  0
 18 21  2  0  0  0  0
 18 22  1  0  0  0  0
 19 11  1  0  0  0  0
 19 18  1  0  0  0  0
 20 18  2  0  0  0  0
 23 22  1  0  0  0  0
M  RAD  3   2   2   3   3   4   2
M  END
