Coordinates from ORCA-job 4-MeOPhN2+~HSO4-_B3LYPG-6-31G_dp-CH-Scan-d09-49-n800
 OpenBabel11261919063D

 23 22  0  0  0  0  0  0  0  0999 V2000
   -1.7576   -0.1069   -0.0946 C   0  0  0  0  0  0  0  0  0  0  0  0
   -3.1151   -0.3152   -0.0083 N   0  0  0  0  0  0  0  0  0  0  0  0
   -4.2259   -0.4517    0.0485 N   0  0  0  0  0  0  0  0  0  0  0  0
   -1.3727    1.2049   -0.4658 C   0  0  0  0  0  0  0  0  0  0  0  0
    0.0258    1.3094   -0.5309 C   0  0  0  0  0  0  0  0  0  0  0  0
    0.9075    0.2493   -0.2624 C   0  0  0  0  0  0  0  0  0  0  0  0
    2.2268    0.5265   -0.3745 O   0  0  0  0  0  0  0  0  0  0  0  0
    3.1878   -0.4942   -0.1263 C   0  0  0  0  0  0  0  0  0  0  0  0
    0.4217   -1.0372    0.1054 C   0  0  0  0  0  0  0  0  0  0  0  0
   -0.9370   -1.2298    0.1930 C   0  0  0  0  0  0  0  0  0  0  0  0
   -3.2082    3.3192   -0.8590 H   0  0  0  0  0  0  0  0  0  0  0  0
    0.4963    2.2535   -0.8045 H   0  0  0  0  0  0  0  0  0  0  0  0
    4.1616   -0.0305   -0.2879 H   0  0  0  0  0  0  0  0  0  0  0  0
    3.0697   -1.3358   -0.8191 H   0  0  0  0  0  0  0  0  0  0  0  0
    3.1300   -0.8597    0.9058 H   0  0  0  0  0  0  0  0  0  0  0  0
    1.0974   -1.8565    0.3151 H   0  0  0  0  0  0  0  0  0  0  0  0
   -1.3537   -2.1944    0.4712 H   0  0  0  0  0  0  0  0  0  0  0  0
   -4.9686    3.6882    0.3033 S   0  0  0  0  0  0  0  0  0  0  0  0
   -3.8990    4.0149   -0.8519 O   0  0  0  0  0  0  0  0  0  0  0  0
   -6.0664    4.6094    0.0944 O   0  0  0  0  0  0  0  0  0  0  0  0
   -5.1427    2.2552    0.4298 O   0  0  0  0  0  0  0  0  0  0  0  0
   -4.1683    4.1380    1.6501 O   0  0  0  0  0  0  0  0  0  0  0  0
   -4.2518    5.1032    1.7322 H   0  0  0  0  0  0  0  0  0  0  0  0
  1  2  1  0  0  0  0
  1 10  2  0  0  0  0
  2  3  1  0  0  0  0
  4  1  1  0  0  0  0
  5  4  2  0  0  0  0
  5  6  1  0  0  0  0
  6  9  2  0  0  0  0
  7  6  1  0  0  0  0
  7  8  1  0  0  0  0
  8 15  1  0  0  0  0
  9 10  1  0  0  0  0
  9 16  1  0  0  0  0
 10 17  1  0  0  0  0
 11 19  1  0  0  0  0
 12  5  1  0  0  0  0
 13  8  1  0  0  0  0
 14  8  1  0  0  0  0
 18 21  2  0  0  0  0
 18 22  1  0  0  0  0
 19 18  1  0  0  0  0
 20 18  2  0  0  0  0
 22 23  1  0  0  0  0
M  RAD  3   2   2   3   3   4   2
M  END
