Coordinates from ORCA-job 4-MeOPhN2+~HSO4-_B3LYPG-6-31G_dp-CH-Scan-d09-49-n800
 OpenBabel11261919063D

 23 22  0  0  0  0  0  0  0  0999 V2000
   -1.9718   -0.0107   -0.1076 C   0  0  0  0  0  0  0  0  0  0  0  0
   -3.3200   -0.2564   -0.0583 N   0  0  0  0  0  0  0  0  0  0  0  0
   -4.4220   -0.4383   -0.0222 N   0  0  0  0  0  0  0  0  0  0  0  0
   -1.5529    1.3214   -0.3407 C   0  0  0  0  0  0  0  0  0  0  0  0
   -0.1727    1.4733   -0.3902 C   0  0  0  0  0  0  0  0  0  0  0  0
    0.7198    0.3969   -0.2223 C   0  0  0  0  0  0  0  0  0  0  0  0
    2.0270    0.7005   -0.2996 O   0  0  0  0  0  0  0  0  0  0  0  0
    3.0061   -0.3264   -0.1450 C   0  0  0  0  0  0  0  0  0  0  0  0
    0.2368   -0.9166    0.0109 C   0  0  0  0  0  0  0  0  0  0  0  0
   -1.1228   -1.1293    0.0675 C   0  0  0  0  0  0  0  0  0  0  0  0
   -2.4812    2.4465   -0.4849 H   0  0  0  0  0  0  0  0  0  0  0  0
    0.2636    2.4533   -0.5633 H   0  0  0  0  0  0  0  0  0  0  0  0
    3.9707    0.1686   -0.2551 H   0  0  0  0  0  0  0  0  0  0  0  0
    2.9017   -1.0957   -0.9186 H   0  0  0  0  0  0  0  0  0  0  0  0
    2.9461   -0.7875    0.8472 H   0  0  0  0  0  0  0  0  0  0  0  0
    0.9142   -1.7499    0.1445 H   0  0  0  0  0  0  0  0  0  0  0  0
   -1.5282   -2.1206    0.2454 H   0  0  0  0  0  0  0  0  0  0  0  0
   -4.4314    3.4065    0.3230 S   0  0  0  0  0  0  0  0  0  0  0  0
   -3.2235    3.4195   -0.6272 O   0  0  0  0  0  0  0  0  0  0  0  0
   -5.5998    4.0319   -0.2914 O   0  0  0  0  0  0  0  0  0  0  0  0
   -4.5659    2.0912    0.9608 O   0  0  0  0  0  0  0  0  0  0  0  0
   -3.9765    4.4083    1.5530 O   0  0  0  0  0  0  0  0  0  0  0  0
   -4.3598    5.2733    1.3380 H   0  0  0  0  0  0  0  0  0  0  0  0
  1  2  1  0  0  0  0
  1 10  2  0  0  0  0
  2  3  1  0  0  0  0
  4  1  1  0  0  0  0
  5  4  2  0  0  0  0
  5  6  1  0  0  0  0
  6  9  2  0  0  0  0
  7  6  1  0  0  0  0
  7  8  1  0  0  0  0
  8 15  1  0  0  0  0
  9 10  1  0  0  0  0
  9 16  1  0  0  0  0
 10 17  1  0  0  0  0
 12  5  1  0  0  0  0
 13  8  1  0  0  0  0
 14  8  1  0  0  0  0
 18 21  2  0  0  0  0
 18 22  1  0  0  0  0
 19 11  1  0  0  0  0
 19 18  1  0  0  0  0
 20 18  2  0  0  0  0
 23 22  1  0  0  0  0
M  RAD  3   2   2   3   3   4   2
M  END
