Coordinates from ORCA-job 4-MeOPhN2+~HSO4-_B3LYPG-6-31G_dp-CH-Scan-d09-49-n800
 OpenBabel11261919063D

 23 22  0  0  0  0  0  0  0  0999 V2000
   -1.7364   -0.1098   -0.0967 C   0  0  0  0  0  0  0  0  0  0  0  0
   -3.0954   -0.3102   -0.0092 N   0  0  0  0  0  0  0  0  0  0  0  0
   -4.2072   -0.4390    0.0482 N   0  0  0  0  0  0  0  0  0  0  0  0
   -1.3477    1.1981   -0.4773 C   0  0  0  0  0  0  0  0  0  0  0  0
    0.0519    1.2953   -0.5430 C   0  0  0  0  0  0  0  0  0  0  0  0
    0.9288    0.2335   -0.2671 C   0  0  0  0  0  0  0  0  0  0  0  0
    2.2498    0.5039   -0.3811 O   0  0  0  0  0  0  0  0  0  0  0  0
    3.2060   -0.5193   -0.1255 C   0  0  0  0  0  0  0  0  0  0  0  0
    0.4379   -1.0486    0.1098 C   0  0  0  0  0  0  0  0  0  0  0  0
   -0.9216   -1.2348    0.1990 C   0  0  0  0  0  0  0  0  0  0  0  0
   -3.2605    3.3901   -0.8840 H   0  0  0  0  0  0  0  0  0  0  0  0
    0.5269    2.2353   -0.8232 H   0  0  0  0  0  0  0  0  0  0  0  0
    4.1820   -0.0613   -0.2900 H   0  0  0  0  0  0  0  0  0  0  0  0
    3.0844   -1.3652   -0.8123 H   0  0  0  0  0  0  0  0  0  0  0  0
    3.1463   -0.8774    0.9092 H   0  0  0  0  0  0  0  0  0  0  0  0
    1.1102   -1.8692    0.3252 H   0  0  0  0  0  0  0  0  0  0  0  0
   -1.3426   -2.1957    0.4839 H   0  0  0  0  0  0  0  0  0  0  0  0
   -5.0098    3.7086    0.3091 S   0  0  0  0  0  0  0  0  0  0  0  0
   -3.9598    4.0743   -0.8549 O   0  0  0  0  0  0  0  0  0  0  0  0
   -6.1263    4.6126    0.1265 O   0  0  0  0  0  0  0  0  0  0  0  0
   -5.1540    2.2709    0.4134 O   0  0  0  0  0  0  0  0  0  0  0  0
   -4.2009    4.1531    1.6518 O   0  0  0  0  0  0  0  0  0  0  0  0
   -4.3043    5.1147    1.7521 H   0  0  0  0  0  0  0  0  0  0  0  0
  1  2  1  0  0  0  0
  1 10  2  0  0  0  0
  2  3  1  0  0  0  0
  4  1  1  0  0  0  0
  5  4  2  0  0  0  0
  5  6  1  0  0  0  0
  6  9  2  0  0  0  0
  7  6  1  0  0  0  0
  7  8  1  0  0  0  0
  8 15  1  0  0  0  0
  9 10  1  0  0  0  0
  9 16  1  0  0  0  0
 10 17  1  0  0  0  0
 11 19  1  0  0  0  0
 12  5  1  0  0  0  0
 13  8  1  0  0  0  0
 14  8  1  0  0  0  0
 18 21  2  0  0  0  0
 18 22  1  0  0  0  0
 19 18  1  0  0  0  0
 20 18  2  0  0  0  0
 22 23  1  0  0  0  0
M  RAD  3   2   2   3   3   4   2
M  END
