Coordinates from ORCA-job 4-MeOPhN2+~HSO4-_B3LYPG-6-31G_dp-CH-Scan-d09-49-n800
 OpenBabel11261919063D

 23 22  0  0  0  0  0  0  0  0999 V2000
   -1.6819   -0.1147   -0.0978 C   0  0  0  0  0  0  0  0  0  0  0  0
   -3.0442   -0.2949   -0.0061 N   0  0  0  0  0  0  0  0  0  0  0  0
   -4.1583   -0.4037    0.0533 N   0  0  0  0  0  0  0  0  0  0  0  0
   -1.2824    1.1833   -0.4997 C   0  0  0  0  0  0  0  0  0  0  0  0
    0.1195    1.2604   -0.5692 C   0  0  0  0  0  0  0  0  0  0  0  0
    0.9840    0.1929   -0.2781 C   0  0  0  0  0  0  0  0  0  0  0  0
    2.3089    0.4449   -0.3989 O   0  0  0  0  0  0  0  0  0  0  0  0
    3.2521   -0.5860   -0.1283 C   0  0  0  0  0  0  0  0  0  0  0  0
    0.4791   -1.0777    0.1203 C   0  0  0  0  0  0  0  0  0  0  0  0
   -0.8822   -1.2463    0.2150 C   0  0  0  0  0  0  0  0  0  0  0  0
   -3.3876    3.5711   -0.9348 H   0  0  0  0  0  0  0  0  0  0  0  0
    0.6065    2.1900   -0.8648 H   0  0  0  0  0  0  0  0  0  0  0  0
    4.2338   -0.1433   -0.3013 H   0  0  0  0  0  0  0  0  0  0  0  0
    3.1191   -1.4413   -0.8014 H   0  0  0  0  0  0  0  0  0  0  0  0
    3.1897   -0.9273    0.9119 H   0  0  0  0  0  0  0  0  0  0  0  0
    1.1425   -1.9024    0.3474 H   0  0  0  0  0  0  0  0  0  0  0  0
   -1.3145   -2.1974    0.5158 H   0  0  0  0  0  0  0  0  0  0  0  0
   -5.1136    3.7592    0.3187 S   0  0  0  0  0  0  0  0  0  0  0  0
   -4.1082    4.2244   -0.8546 O   0  0  0  0  0  0  0  0  0  0  0  0
   -6.2782    4.6098    0.1916 O   0  0  0  0  0  0  0  0  0  0  0  0
   -5.1758    2.3135    0.3671 O   0  0  0  0  0  0  0  0  0  0  0  0
   -4.2972    4.1981    1.6575 O   0  0  0  0  0  0  0  0  0  0  0  0
   -4.4539    5.1471    1.8004 H   0  0  0  0  0  0  0  0  0  0  0  0
  1  2  1  0  0  0  0
  1 10  2  0  0  0  0
  2  3  1  0  0  0  0
  4  1  1  0  0  0  0
  5  4  2  0  0  0  0
  5  6  1  0  0  0  0
  6  9  2  0  0  0  0
  7  6  1  0  0  0  0
  7  8  1  0  0  0  0
  8 15  1  0  0  0  0
  9 10  1  0  0  0  0
  9 16  1  0  0  0  0
 10 17  1  0  0  0  0
 11 19  1  0  0  0  0
 12  5  1  0  0  0  0
 13  8  1  0  0  0  0
 14  8  1  0  0  0  0
 18 21  2  0  0  0  0
 18 22  1  0  0  0  0
 19 18  1  0  0  0  0
 20 18  2  0  0  0  0
 22 23  1  0  0  0  0
M  RAD  3   2   2   3   3   4   2
M  END
