Coordinates from ORCA-job 4-MeOPhN2+~HSO4-_B3LYPG-6-31G_dp-CH-Scan-d09-49-n800
 OpenBabel11261919063D

 23 22  0  0  0  0  0  0  0  0999 V2000
   -1.7014   -0.1129   -0.0983 C   0  0  0  0  0  0  0  0  0  0  0  0
   -3.0626   -0.3001   -0.0079 N   0  0  0  0  0  0  0  0  0  0  0  0
   -4.1760   -0.4160    0.0511 N   0  0  0  0  0  0  0  0  0  0  0  0
   -1.3059    1.1884   -0.4939 C   0  0  0  0  0  0  0  0  0  0  0  0
    0.0953    1.2725   -0.5618 C   0  0  0  0  0  0  0  0  0  0  0  0
    0.9642    0.2073   -0.2747 C   0  0  0  0  0  0  0  0  0  0  0  0
    2.2878    0.4659   -0.3930 O   0  0  0  0  0  0  0  0  0  0  0  0
    3.2355   -0.5619   -0.1262 C   0  0  0  0  0  0  0  0  0  0  0  0
    0.4643   -1.0671    0.1172 C   0  0  0  0  0  0  0  0  0  0  0  0
   -0.8964   -1.2419    0.2098 C   0  0  0  0  0  0  0  0  0  0  0  0
   -3.3436    3.5092   -0.9203 H   0  0  0  0  0  0  0  0  0  0  0  0
    0.5781    2.2056   -0.8527 H   0  0  0  0  0  0  0  0  0  0  0  0
    4.2153   -0.1139   -0.2963 H   0  0  0  0  0  0  0  0  0  0  0  0
    3.1070   -1.4147   -0.8032 H   0  0  0  0  0  0  0  0  0  0  0  0
    3.1737   -0.9081    0.9125 H   0  0  0  0  0  0  0  0  0  0  0  0
    1.1308   -1.8900    0.3412 H   0  0  0  0  0  0  0  0  0  0  0  0
   -1.3248   -2.1962    0.5059 H   0  0  0  0  0  0  0  0  0  0  0  0
   -5.0766    3.7408    0.3158 S   0  0  0  0  0  0  0  0  0  0  0  0
   -4.0570    4.1732   -0.8561 O   0  0  0  0  0  0  0  0  0  0  0  0
   -6.2244    4.6117    0.1732 O   0  0  0  0  0  0  0  0  0  0  0  0
   -5.1683    2.2971    0.3813 O   0  0  0  0  0  0  0  0  0  0  0  0
   -4.2599    4.1786    1.6551 O   0  0  0  0  0  0  0  0  0  0  0  0
   -4.3975    5.1323    1.7853 H   0  0  0  0  0  0  0  0  0  0  0  0
  1  2  1  0  0  0  0
  1 10  2  0  0  0  0
  2  3  1  0  0  0  0
  4  1  1  0  0  0  0
  5  4  2  0  0  0  0
  5  6  1  0  0  0  0
  6  9  2  0  0  0  0
  7  6  1  0  0  0  0
  7  8  1  0  0  0  0
  8 15  1  0  0  0  0
  9 10  1  0  0  0  0
  9 16  1  0  0  0  0
 10 17  1  0  0  0  0
 11 19  1  0  0  0  0
 12  5  1  0  0  0  0
 13  8  1  0  0  0  0
 14  8  1  0  0  0  0
 18 21  2  0  0  0  0
 18 22  1  0  0  0  0
 19 18  1  0  0  0  0
 20 18  2  0  0  0  0
 22 23  1  0  0  0  0
M  RAD  3   2   2   3   3   4   2
M  END
