Coordinates from ORCA-job 4-MeOPhN2+~HSO4-_B3LYPG-6-31G_dp-CH-Scan-d09-49-n800
 OpenBabel11261919063D

 23 22  0  0  0  0  0  0  0  0999 V2000
   -1.3864   -0.1132   -0.2141 C   0  0  0  0  0  0  0  0  0  0  0  0
   -2.7625   -0.1615   -0.1268 N   0  0  0  0  0  0  0  0  0  0  0  0
   -3.8838   -0.1493   -0.0851 N   0  0  0  0  0  0  0  0  0  0  0  0
   -0.8968    1.0804   -0.7947 C   0  0  0  0  0  0  0  0  0  0  0  0
    0.5104    1.0391   -0.8490 C   0  0  0  0  0  0  0  0  0  0  0  0
    1.2887   -0.0335   -0.3878 C   0  0  0  0  0  0  0  0  0  0  0  0
    2.6321    0.0992   -0.5171 O   0  0  0  0  0  0  0  0  0  0  0  0
    3.4912   -0.9435   -0.0724 C   0  0  0  0  0  0  0  0  0  0  0  0
    0.6873   -1.1925    0.1835 C   0  0  0  0  0  0  0  0  0  0  0  0
   -0.6835   -1.2457    0.2775 C   0  0  0  0  0  0  0  0  0  0  0  0
   -4.1359    4.3734   -1.0209 H   0  0  0  0  0  0  0  0  0  0  0  0
    1.0701    1.8764   -1.2685 H   0  0  0  0  0  0  0  0  0  0  0  0
    4.5060   -0.6030   -0.2833 H   0  0  0  0  0  0  0  0  0  0  0  0
    3.3072   -1.8788   -0.6146 H   0  0  0  0  0  0  0  0  0  0  0  0
    3.3881   -1.1214    1.0050 H   0  0  0  0  0  0  0  0  0  0  0  0
    1.2860   -2.0207    0.5404 H   0  0  0  0  0  0  0  0  0  0  0  0
   -1.1895   -2.1087    0.7042 H   0  0  0  0  0  0  0  0  0  0  0  0
   -5.6593    4.0121    0.4389 S   0  0  0  0  0  0  0  0  0  0  0  0
   -4.9387    4.8509   -0.7484 O   0  0  0  0  0  0  0  0  0  0  0  0
   -7.0023    4.5428    0.5278 O   0  0  0  0  0  0  0  0  0  0  0  0
   -5.3457    2.6085    0.2828 O   0  0  0  0  0  0  0  0  0  0  0  0
   -4.8220    4.5026    1.7441 O   0  0  0  0  0  0  0  0  0  0  0  0
   -5.2032    5.3461    2.0424 H   0  0  0  0  0  0  0  0  0  0  0  0
  1  2  1  0  0  0  0
  1 10  2  0  0  0  0
  2  3  1  0  0  0  0
  4  1  1  0  0  0  0
  5  4  2  0  0  0  0
  5  6  1  0  0  0  0
  6  9  2  0  0  0  0
  7  6  1  0  0  0  0
  7  8  1  0  0  0  0
  8 15  1  0  0  0  0
  9 10  1  0  0  0  0
  9 16  1  0  0  0  0
 10 17  1  0  0  0  0
 11 19  1  0  0  0  0
 12  5  1  0  0  0  0
 13  8  1  0  0  0  0
 14  8  1  0  0  0  0
 18 20  2  0  0  0  0
 18 22  1  0  0  0  0
 19 18  1  0  0  0  0
 21 18  2  0  0  0  0
 22 23  1  0  0  0  0
M  RAD  3   2   2   3   3   4   2
M  END
