Coordinates from ORCA-job 4-MeOPhN2+~HSO4-_B3LYPG-6-31G_dp-CH-Scan-d09-49-n800
 OpenBabel11261919063D

 23 22  0  0  0  0  0  0  0  0999 V2000
   -1.9289   -0.0693   -0.0938 C   0  0  0  0  0  0  0  0  0  0  0  0
   -3.2742   -0.3375   -0.0314 N   0  0  0  0  0  0  0  0  0  0  0  0
   -4.3754   -0.5322    0.0115 N   0  0  0  0  0  0  0  0  0  0  0  0
   -1.5630    1.2715   -0.3757 C   0  0  0  0  0  0  0  0  0  0  0  0
   -0.1739    1.4260   -0.4272 C   0  0  0  0  0  0  0  0  0  0  0  0
    0.7382    0.3752   -0.2237 C   0  0  0  0  0  0  0  0  0  0  0  0
    2.0447    0.6983   -0.3134 O   0  0  0  0  0  0  0  0  0  0  0  0
    3.0378   -0.3078   -0.1317 C   0  0  0  0  0  0  0  0  0  0  0  0
    0.2850   -0.9420    0.0574 C   0  0  0  0  0  0  0  0  0  0  0  0
   -1.0689   -1.1762    0.1237 C   0  0  0  0  0  0  0  0  0  0  0  0
   -2.7774    2.7071   -0.6207 H   0  0  0  0  0  0  0  0  0  0  0  0
    0.2622    2.4009   -0.6369 H   0  0  0  0  0  0  0  0  0  0  0  0
    3.9958    0.1959   -0.2620 H   0  0  0  0  0  0  0  0  0  0  0  0
    2.9428   -1.1042   -0.8792 H   0  0  0  0  0  0  0  0  0  0  0  0
    2.9910   -0.7402    0.8744 H   0  0  0  0  0  0  0  0  0  0  0  0
    0.9802   -1.7558    0.2188 H   0  0  0  0  0  0  0  0  0  0  0  0
   -1.4584   -2.1677    0.3371 H   0  0  0  0  0  0  0  0  0  0  0  0
   -4.5944    3.4936    0.2845 S   0  0  0  0  0  0  0  0  0  0  0  0
   -3.4196    3.5053   -0.7690 O   0  0  0  0  0  0  0  0  0  0  0  0
   -5.6142    4.4170   -0.1815 O   0  0  0  0  0  0  0  0  0  0  0  0
   -4.9110    2.1290    0.6790 O   0  0  0  0  0  0  0  0  0  0  0  0
   -3.9031    4.1543    1.6145 O   0  0  0  0  0  0  0  0  0  0  0  0
   -3.9576    5.1185    1.5091 H   0  0  0  0  0  0  0  0  0  0  0  0
  1  2  1  0  0  0  0
  1 10  2  0  0  0  0
  2  3  1  0  0  0  0
  4  1  1  0  0  0  0
  5  4  2  0  0  0  0
  5  6  1  0  0  0  0
  6  9  2  0  0  0  0
  7  6  1  0  0  0  0
  7  8  1  0  0  0  0
  8 15  1  0  0  0  0
  9 10  1  0  0  0  0
  9 16  1  0  0  0  0
 10 17  1  0  0  0  0
 12  5  1  0  0  0  0
 13  8  1  0  0  0  0
 14  8  1  0  0  0  0
 18 21  2  0  0  0  0
 18 22  1  0  0  0  0
 19 11  1  0  0  0  0
 19 18  1  0  0  0  0
 20 18  2  0  0  0  0
 23 22  1  0  0  0  0
M  RAD  3   2   2   3   3   4   2
M  END
