Coordinates from ORCA-job 4-MeOPhN2+~HSO4-_B3LYPG-6-31G_dp-CH-Scan-d09-49-n800
 OpenBabel11261919063D

 23 22  0  0  0  0  0  0  0  0999 V2000
   -1.8742   -0.0773   -0.0515 C   0  0  0  0  0  0  0  0  0  0  0  0
   -3.2222   -0.3274    0.0388 N   0  0  0  0  0  0  0  0  0  0  0  0
   -4.3258   -0.5047    0.1047 N   0  0  0  0  0  0  0  0  0  0  0  0
   -1.5069    1.2574   -0.3580 C   0  0  0  0  0  0  0  0  0  0  0  0
   -0.1150    1.3954   -0.4326 C   0  0  0  0  0  0  0  0  0  0  0  0
    0.7902    0.3394   -0.2290 C   0  0  0  0  0  0  0  0  0  0  0  0
    2.0996    0.6487   -0.3424 O   0  0  0  0  0  0  0  0  0  0  0  0
    3.0851   -0.3643   -0.1627 C   0  0  0  0  0  0  0  0  0  0  0  0
    0.3308   -0.9710    0.0768 C   0  0  0  0  0  0  0  0  0  0  0  0
   -1.0236   -1.1921    0.1681 C   0  0  0  0  0  0  0  0  0  0  0  0
   -2.8765    2.9024   -0.6589 H   0  0  0  0  0  0  0  0  0  0  0  0
    0.3303    2.3620   -0.6626 H   0  0  0  0  0  0  0  0  0  0  0  0
    4.0463    0.1281   -0.3128 H   0  0  0  0  0  0  0  0  0  0  0  0
    2.9723   -1.1691   -0.8986 H   0  0  0  0  0  0  0  0  0  0  0  0
    3.0492   -0.7846    0.8491 H   0  0  0  0  0  0  0  0  0  0  0  0
    1.0218   -1.7884    0.2373 H   0  0  0  0  0  0  0  0  0  0  0  0
   -1.4189   -2.1771    0.4009 H   0  0  0  0  0  0  0  0  0  0  0  0
   -4.7233    3.5693    0.2304 S   0  0  0  0  0  0  0  0  0  0  0  0
   -3.5037    3.6782   -0.7840 O   0  0  0  0  0  0  0  0  0  0  0  0
   -5.6959    4.5651   -0.1766 O   0  0  0  0  0  0  0  0  0  0  0  0
   -5.0753    2.1782    0.4548 O   0  0  0  0  0  0  0  0  0  0  0  0
   -4.0599    4.0599    1.6419 O   0  0  0  0  0  0  0  0  0  0  0  0
   -4.0470    5.0315    1.6308 H   0  0  0  0  0  0  0  0  0  0  0  0
  1  2  1  0  0  0  0
  1 10  2  0  0  0  0
  2  3  1  0  0  0  0
  4  1  1  0  0  0  0
  5  4  2  0  0  0  0
  5  6  1  0  0  0  0
  6  9  2  0  0  0  0
  7  6  1  0  0  0  0
  7  8  1  0  0  0  0
  8 15  1  0  0  0  0
  9 10  1  0  0  0  0
  9 16  1  0  0  0  0
 10 17  1  0  0  0  0
 12  5  1  0  0  0  0
 13  8  1  0  0  0  0
 14  8  1  0  0  0  0
 18 21  2  0  0  0  0
 18 22  1  0  0  0  0
 19 11  1  0  0  0  0
 19 18  1  0  0  0  0
 20 18  2  0  0  0  0
 23 22  1  0  0  0  0
M  RAD  3   2   2   3   3   4   2
M  END
