Coordinates from ORCA-job 4-MeOPhN2+~HSO4-_B3LYPG-6-31G_dp-CH-Scan-d09-49-n800
 OpenBabel11261919063D

 23 22  0  0  0  0  0  0  0  0999 V2000
   -1.6021   -0.1200   -0.0987 C   0  0  0  0  0  0  0  0  0  0  0  0
   -2.9689   -0.2676    0.0003 N   0  0  0  0  0  0  0  0  0  0  0  0
   -4.0859   -0.3442    0.0632 N   0  0  0  0  0  0  0  0  0  0  0  0
   -1.1848    1.1633   -0.5275 C   0  0  0  0  0  0  0  0  0  0  0  0
    0.2196    1.2107   -0.6026 C   0  0  0  0  0  0  0  0  0  0  0  0
    1.0650    0.1336   -0.2934 C   0  0  0  0  0  0  0  0  0  0  0  0
    2.3950    0.3581   -0.4229 O   0  0  0  0  0  0  0  0  0  0  0  0
    3.3189   -0.6845   -0.1337 C   0  0  0  0  0  0  0  0  0  0  0  0
    0.5387   -1.1202    0.1316 C   0  0  0  0  0  0  0  0  0  0  0  0
   -0.8250   -1.2617    0.2343 C   0  0  0  0  0  0  0  0  0  0  0  0
   -3.5764    3.8252   -0.9908 H   0  0  0  0  0  0  0  0  0  0  0  0
    0.7239    2.1249   -0.9179 H   0  0  0  0  0  0  0  0  0  0  0  0
    4.3086   -0.2637   -0.3161 H   0  0  0  0  0  0  0  0  0  0  0  0
    3.1697   -1.5501   -0.7899 H   0  0  0  0  0  0  0  0  0  0  0  0
    3.2520   -1.0051    0.9130 H   0  0  0  0  0  0  0  0  0  0  0  0
    1.1881   -1.9521    0.3724 H   0  0  0  0  0  0  0  0  0  0  0  0
   -1.2743   -2.1986    0.5549 H   0  0  0  0  0  0  0  0  0  0  0  0
   -5.2618    3.8311    0.3305 S   0  0  0  0  0  0  0  0  0  0  0  0
   -4.3280    4.4277   -0.8480 O   0  0  0  0  0  0  0  0  0  0  0  0
   -6.4915    4.5919    0.2712 O   0  0  0  0  0  0  0  0  0  0  0  0
   -5.2038    2.3852    0.3089 O   0  0  0  0  0  0  0  0  0  0  0  0
   -4.4424    4.2765    1.6641 O   0  0  0  0  0  0  0  0  0  0  0  0
   -4.6770    5.1994    1.8609 H   0  0  0  0  0  0  0  0  0  0  0  0
  1  2  1  0  0  0  0
  1 10  2  0  0  0  0
  2  3  1  0  0  0  0
  4  1  1  0  0  0  0
  5  4  2  0  0  0  0
  5  6  1  0  0  0  0
  6  9  2  0  0  0  0
  7  6  1  0  0  0  0
  7  8  1  0  0  0  0
  8 15  1  0  0  0  0
  9 10  1  0  0  0  0
  9 16  1  0  0  0  0
 10 17  1  0  0  0  0
 11 19  1  0  0  0  0
 12  5  1  0  0  0  0
 13  8  1  0  0  0  0
 14  8  1  0  0  0  0
 18 22  1  0  0  0  0
 19 18  1  0  0  0  0
 20 18  2  0  0  0  0
 21 18  2  0  0  0  0
 22 23  1  0  0  0  0
M  RAD  3   2   2   3   3   4   2
M  END
