Coordinates from ORCA-job 4-MeOPhN2+~HSO4-_B3LYPG-6-31G_dp-CH-Scan-d09-49-n800
 OpenBabel11261919063D

 23 22  0  0  0  0  0  0  0  0999 V2000
   -1.7318   -0.1105   -0.0973 C   0  0  0  0  0  0  0  0  0  0  0  0
   -3.0909   -0.3093   -0.0094 N   0  0  0  0  0  0  0  0  0  0  0  0
   -4.2030   -0.4358    0.0488 N   0  0  0  0  0  0  0  0  0  0  0  0
   -1.3424    1.1966   -0.4803 C   0  0  0  0  0  0  0  0  0  0  0  0
    0.0575    1.2919   -0.5461 C   0  0  0  0  0  0  0  0  0  0  0  0
    0.9334    0.2298   -0.2682 C   0  0  0  0  0  0  0  0  0  0  0  0
    2.2548    0.4988   -0.3828 O   0  0  0  0  0  0  0  0  0  0  0  0
    3.2099   -0.5248   -0.1252 C   0  0  0  0  0  0  0  0  0  0  0  0
    0.4414   -1.0512    0.1110 C   0  0  0  0  0  0  0  0  0  0  0  0
   -0.9182   -1.2360    0.2005 C   0  0  0  0  0  0  0  0  0  0  0  0
   -3.2719    3.4070   -0.8902 H   0  0  0  0  0  0  0  0  0  0  0  0
    0.5336    2.2310   -0.8280 H   0  0  0  0  0  0  0  0  0  0  0  0
    4.1864   -0.0680   -0.2905 H   0  0  0  0  0  0  0  0  0  0  0  0
    3.0876   -1.3719   -0.8105 H   0  0  0  0  0  0  0  0  0  0  0  0
    3.1499   -0.8810    0.9101 H   0  0  0  0  0  0  0  0  0  0  0  0
    1.1131   -1.8719    0.3279 H   0  0  0  0  0  0  0  0  0  0  0  0
   -1.3401   -2.1959    0.4872 H   0  0  0  0  0  0  0  0  0  0  0  0
   -5.0189    3.7130    0.3102 S   0  0  0  0  0  0  0  0  0  0  0  0
   -3.9732    4.0884   -0.8554 O   0  0  0  0  0  0  0  0  0  0  0  0
   -6.1395    4.6131    0.1345 O   0  0  0  0  0  0  0  0  0  0  0  0
   -5.1562    2.2745    0.4080 O   0  0  0  0  0  0  0  0  0  0  0  0
   -4.2079    4.1556    1.6522 O   0  0  0  0  0  0  0  0  0  0  0  0
   -4.3159    5.1162    1.7573 H   0  0  0  0  0  0  0  0  0  0  0  0
  1  2  1  0  0  0  0
  1 10  2  0  0  0  0
  2  3  1  0  0  0  0
  4  1  1  0  0  0  0
  5  4  2  0  0  0  0
  5  6  1  0  0  0  0
  6  9  2  0  0  0  0
  7  6  1  0  0  0  0
  7  8  1  0  0  0  0
  8 15  1  0  0  0  0
  9 10  1  0  0  0  0
  9 16  1  0  0  0  0
 10 17  1  0  0  0  0
 11 19  1  0  0  0  0
 12  5  1  0  0  0  0
 13  8  1  0  0  0  0
 14  8  1  0  0  0  0
 18 21  2  0  0  0  0
 18 22  1  0  0  0  0
 19 18  1  0  0  0  0
 20 18  2  0  0  0  0
 22 23  1  0  0  0  0
M  RAD  3   2   2   3   3   4   2
M  END
