Coordinates from ORCA-job 4-MeOPhN2+~HSO4-_B3LYPG-6-31G_dp-CH-Scan-d09-49-n800
 OpenBabel11261919063D

 23 22  0  0  0  0  0  0  0  0999 V2000
   -1.9706   -0.0538   -0.1323 C   0  0  0  0  0  0  0  0  0  0  0  0
   -3.3150   -0.3254   -0.0878 N   0  0  0  0  0  0  0  0  0  0  0  0
   -4.4151   -0.5253   -0.0589 N   0  0  0  0  0  0  0  0  0  0  0  0
   -1.5953    1.2865   -0.4014 C   0  0  0  0  0  0  0  0  0  0  0  0
   -0.2100    1.4510   -0.4367 C   0  0  0  0  0  0  0  0  0  0  0  0
    0.7023    0.4005   -0.2269 C   0  0  0  0  0  0  0  0  0  0  0  0
    2.0072    0.7281   -0.2969 O   0  0  0  0  0  0  0  0  0  0  0  0
    3.0021   -0.2749   -0.1020 C   0  0  0  0  0  0  0  0  0  0  0  0
    0.2471   -0.9181    0.0400 C   0  0  0  0  0  0  0  0  0  0  0  0
   -1.1075   -1.1563    0.0876 C   0  0  0  0  0  0  0  0  0  0  0  0
   -2.6782    2.5498   -0.6019 H   0  0  0  0  0  0  0  0  0  0  0  0
    0.2203    2.4303   -0.6341 H   0  0  0  0  0  0  0  0  0  0  0  0
    3.9594    0.2338   -0.2151 H   0  0  0  0  0  0  0  0  0  0  0  0
    2.9220   -1.0688   -0.8536 H   0  0  0  0  0  0  0  0  0  0  0  0
    2.9399   -0.7097    0.9021 H   0  0  0  0  0  0  0  0  0  0  0  0
    0.9413   -1.7316    0.2056 H   0  0  0  0  0  0  0  0  0  0  0  0
   -1.4963   -2.1500    0.2901 H   0  0  0  0  0  0  0  0  0  0  0  0
   -4.4858    3.4297    0.3311 S   0  0  0  0  0  0  0  0  0  0  0  0
   -3.3590    3.3896   -0.7504 O   0  0  0  0  0  0  0  0  0  0  0  0
   -5.5785    4.2608   -0.1517 O   0  0  0  0  0  0  0  0  0  0  0  0
   -4.7297    2.0917    0.8608 O   0  0  0  0  0  0  0  0  0  0  0  0
   -3.7859    4.2396    1.5774 O   0  0  0  0  0  0  0  0  0  0  0  0
   -3.9572    5.1822    1.4193 H   0  0  0  0  0  0  0  0  0  0  0  0
  1  2  1  0  0  0  0
  1 10  2  0  0  0  0
  2  3  1  0  0  0  0
  4  1  1  0  0  0  0
  5  4  2  0  0  0  0
  5  6  1  0  0  0  0
  6  9  2  0  0  0  0
  7  6  1  0  0  0  0
  7  8  1  0  0  0  0
  8 15  1  0  0  0  0
  9 10  1  0  0  0  0
  9 16  1  0  0  0  0
 10 17  1  0  0  0  0
 12  5  1  0  0  0  0
 13  8  1  0  0  0  0
 14  8  1  0  0  0  0
 18 21  2  0  0  0  0
 18 22  1  0  0  0  0
 19 11  1  0  0  0  0
 19 18  1  0  0  0  0
 20 18  2  0  0  0  0
 23 22  1  0  0  0  0
M  RAD  3   2   2   3   3   4   2
M  END
