Coordinates from ORCA-job 4-MeOPhN2+~HSO4-_B3LYPG-6-31G_dp-CH-Scan-d09-49-n800
 OpenBabel11261919063D

 23 22  0  0  0  0  0  0  0  0999 V2000
   -1.3571   -0.1048   -0.2395 C   0  0  0  0  0  0  0  0  0  0  0  0
   -2.7341   -0.1366   -0.1571 N   0  0  0  0  0  0  0  0  0  0  0  0
   -3.8554   -0.1106   -0.1219 N   0  0  0  0  0  0  0  0  0  0  0  0
   -0.8537    1.0687   -0.8481 C   0  0  0  0  0  0  0  0  0  0  0  0
    0.5533    1.0121   -0.8961 C   0  0  0  0  0  0  0  0  0  0  0  0
    1.3190   -0.0562   -0.4049 C   0  0  0  0  0  0  0  0  0  0  0  0
    2.6641    0.0595   -0.5328 O   0  0  0  0  0  0  0  0  0  0  0  0
    3.5111   -0.9795   -0.0573 C   0  0  0  0  0  0  0  0  0  0  0  0
    0.7039   -1.1942    0.1936 C   0  0  0  0  0  0  0  0  0  0  0  0
   -0.6676   -1.2314    0.2836 C   0  0  0  0  0  0  0  0  0  0  0  0
   -4.2123    4.4373   -1.0150 H   0  0  0  0  0  0  0  0  0  0  0  0
    1.1229    1.8329   -1.3346 H   0  0  0  0  0  0  0  0  0  0  0  0
    4.5299   -0.6559   -0.2756 H   0  0  0  0  0  0  0  0  0  0  0  0
    3.3181   -1.9277   -0.5734 H   0  0  0  0  0  0  0  0  0  0  0  0
    3.4041   -1.1260    1.0244 H   0  0  0  0  0  0  0  0  0  0  0  0
    1.2931   -2.0190    0.5737 H   0  0  0  0  0  0  0  0  0  0  0  0
   -1.1839   -2.0782    0.7300 H   0  0  0  0  0  0  0  0  0  0  0  0
   -5.7099    4.0292    0.4586 S   0  0  0  0  0  0  0  0  0  0  0  0
   -5.0202    4.8966   -0.7268 O   0  0  0  0  0  0  0  0  0  0  0  0
   -7.0635    4.5284    0.5667 O   0  0  0  0  0  0  0  0  0  0  0  0
   -5.3662    2.6348    0.2838 O   0  0  0  0  0  0  0  0  0  0  0  0
   -4.8704    4.5247    1.7604 O   0  0  0  0  0  0  0  0  0  0  0  0
   -5.2678    5.3557    2.0722 H   0  0  0  0  0  0  0  0  0  0  0  0
  1  2  1  0  0  0  0
  1 10  2  0  0  0  0
  2  3  1  0  0  0  0
  4  1  1  0  0  0  0
  5  4  2  0  0  0  0
  5  6  1  0  0  0  0
  6  9  2  0  0  0  0
  7  6  1  0  0  0  0
  7  8  1  0  0  0  0
  8 15  1  0  0  0  0
  9 10  1  0  0  0  0
  9 16  1  0  0  0  0
 10 17  1  0  0  0  0
 11 19  1  0  0  0  0
 12  5  1  0  0  0  0
 13  8  1  0  0  0  0
 14  8  1  0  0  0  0
 18 20  2  0  0  0  0
 18 22  1  0  0  0  0
 19 18  1  0  0  0  0
 21 18  2  0  0  0  0
 22 23  1  0  0  0  0
M  RAD  3   2   2   3   3   4   2
M  END
