Coordinates from ORCA-job 4-MeOPhN2+~HSO4-_B3LYPG-6-31G_dp-CH-Scan-d09-49-n800
 OpenBabel11261919063D

 23 22  0  0  0  0  0  0  0  0999 V2000
   -1.5615   -0.1218   -0.1232 C   0  0  0  0  0  0  0  0  0  0  0  0
   -2.9311   -0.2515   -0.0292 N   0  0  0  0  0  0  0  0  0  0  0  0
   -4.0497   -0.3117    0.0269 N   0  0  0  0  0  0  0  0  0  0  0  0
   -1.1317    1.1465   -0.5819 C   0  0  0  0  0  0  0  0  0  0  0  0
    0.2743    1.1776   -0.6505 C   0  0  0  0  0  0  0  0  0  0  0  0
    1.1073    0.1008   -0.3093 C   0  0  0  0  0  0  0  0  0  0  0  0
    2.4407    0.3089   -0.4366 O   0  0  0  0  0  0  0  0  0  0  0  0
    3.3522   -0.7347   -0.1143 C   0  0  0  0  0  0  0  0  0  0  0  0
    0.5668   -1.1370    0.1446 C   0  0  0  0  0  0  0  0  0  0  0  0
   -0.7987   -1.2629    0.2433 C   0  0  0  0  0  0  0  0  0  0  0  0
   -3.7178    3.9797   -1.0439 H   0  0  0  0  0  0  0  0  0  0  0  0
    0.7895    2.0786   -0.9860 H   0  0  0  0  0  0  0  0  0  0  0  0
    4.3474   -0.3282   -0.3000 H   0  0  0  0  0  0  0  0  0  0  0  0
    3.1997   -1.6153   -0.7496 H   0  0  0  0  0  0  0  0  0  0  0  0
    3.2748   -1.0283    0.9396 H   0  0  0  0  0  0  0  0  0  0  0  0
    1.2070   -1.9686    0.4099 H   0  0  0  0  0  0  0  0  0  0  0  0
   -1.2590   -2.1872    0.5847 H   0  0  0  0  0  0  0  0  0  0  0  0
   -5.3334    3.8616    0.3573 S   0  0  0  0  0  0  0  0  0  0  0  0
   -4.4873    4.5415   -0.8448 O   0  0  0  0  0  0  0  0  0  0  0  0
   -6.6033    4.5551    0.3743 O   0  0  0  0  0  0  0  0  0  0  0  0
   -5.1968    2.4228    0.2880 O   0  0  0  0  0  0  0  0  0  0  0  0
   -4.4781    4.3158    1.6645 O   0  0  0  0  0  0  0  0  0  0  0  0
   -4.7539    5.2180    1.9000 H   0  0  0  0  0  0  0  0  0  0  0  0
  1  2  1  0  0  0  0
  1 10  2  0  0  0  0
  2  3  1  0  0  0  0
  4  1  1  0  0  0  0
  5  4  2  0  0  0  0
  5  6  1  0  0  0  0
  6  9  2  0  0  0  0
  7  6  1  0  0  0  0
  7  8  1  0  0  0  0
  8 15  1  0  0  0  0
  9 10  1  0  0  0  0
  9 16  1  0  0  0  0
 10 17  1  0  0  0  0
 11 19  1  0  0  0  0
 12  5  1  0  0  0  0
 13  8  1  0  0  0  0
 14  8  1  0  0  0  0
 18 20  2  0  0  0  0
 18 22  1  0  0  0  0
 19 18  1  0  0  0  0
 21 18  2  0  0  0  0
 22 23  1  0  0  0  0
M  RAD  3   2   2   3   3   4   2
M  END
