Coordinates from ORCA-job 4-MeOPhN2+~HSO4-_B3LYPG-6-31G_dp-CH-Scan-d09-49-n800
 OpenBabel11261919063D

 23 22  0  0  0  0  0  0  0  0999 V2000
   -1.7663   -0.1057   -0.0939 C   0  0  0  0  0  0  0  0  0  0  0  0
   -3.1232   -0.3172   -0.0082 N   0  0  0  0  0  0  0  0  0  0  0  0
   -4.2335   -0.4564    0.0496 N   0  0  0  0  0  0  0  0  0  0  0  0
   -1.3831    1.2078   -0.4615 C   0  0  0  0  0  0  0  0  0  0  0  0
    0.0150    1.3151   -0.5262 C   0  0  0  0  0  0  0  0  0  0  0  0
    0.8986    0.2558   -0.2605 C   0  0  0  0  0  0  0  0  0  0  0  0
    2.2172    0.5357   -0.3719 O   0  0  0  0  0  0  0  0  0  0  0  0
    3.1802   -0.4839   -0.1265 C   0  0  0  0  0  0  0  0  0  0  0  0
    0.4150   -1.0325    0.1036 C   0  0  0  0  0  0  0  0  0  0  0  0
   -0.9434   -1.2276    0.1905 C   0  0  0  0  0  0  0  0  0  0  0  0
   -3.1867    3.2907   -0.8491 H   0  0  0  0  0  0  0  0  0  0  0  0
    0.4837    2.2608   -0.7971 H   0  0  0  0  0  0  0  0  0  0  0  0
    4.1531   -0.0178   -0.2868 H   0  0  0  0  0  0  0  0  0  0  0  0
    3.0637   -1.3237   -0.8216 H   0  0  0  0  0  0  0  0  0  0  0  0
    3.1231   -0.8523    0.9047 H   0  0  0  0  0  0  0  0  0  0  0  0
    1.0920   -1.8512    0.3112 H   0  0  0  0  0  0  0  0  0  0  0  0
   -1.3584   -2.1938    0.4661 H   0  0  0  0  0  0  0  0  0  0  0  0
   -4.9514    3.6795    0.3009 S   0  0  0  0  0  0  0  0  0  0  0  0
   -3.8742    3.9908   -0.8504 O   0  0  0  0  0  0  0  0  0  0  0  0
   -6.0417    4.6074    0.0818 O   0  0  0  0  0  0  0  0  0  0  0  0
   -5.1374    2.2488    0.4356 O   0  0  0  0  0  0  0  0  0  0  0  0
   -4.1546    4.1314    1.6493 O   0  0  0  0  0  0  0  0  0  0  0  0
   -4.2302    5.0978    1.7243 H   0  0  0  0  0  0  0  0  0  0  0  0
  1  2  1  0  0  0  0
  1 10  2  0  0  0  0
  2  3  1  0  0  0  0
  4  1  1  0  0  0  0
  5  4  2  0  0  0  0
  5  6  1  0  0  0  0
  6  9  2  0  0  0  0
  7  6  1  0  0  0  0
  7  8  1  0  0  0  0
  8 15  1  0  0  0  0
  9 10  1  0  0  0  0
  9 16  1  0  0  0  0
 10 17  1  0  0  0  0
 12  5  1  0  0  0  0
 13  8  1  0  0  0  0
 14  8  1  0  0  0  0
 18 21  2  0  0  0  0
 18 22  1  0  0  0  0
 19 11  1  0  0  0  0
 19 18  1  0  0  0  0
 20 18  2  0  0  0  0
 22 23  1  0  0  0  0
M  RAD  3   2   2   3   3   4   2
M  END
