Coordinates from ORCA-job 4-MeOPhN2+~HSO4-_B3LYPG-6-31G_dp-CH-Scan-d09-49-n800
 OpenBabel11261919063D

 23 22  0  0  0  0  0  0  0  0999 V2000
   -1.7720   -0.1046   -0.0932 C   0  0  0  0  0  0  0  0  0  0  0  0
   -3.1285   -0.3182   -0.0077 N   0  0  0  0  0  0  0  0  0  0  0  0
   -4.2386   -0.4595    0.0500 N   0  0  0  0  0  0  0  0  0  0  0  0
   -1.3898    1.2099   -0.4581 C   0  0  0  0  0  0  0  0  0  0  0  0
    0.0081    1.3190   -0.5228 C   0  0  0  0  0  0  0  0  0  0  0  0
    0.8928    0.2602   -0.2592 C   0  0  0  0  0  0  0  0  0  0  0  0
    2.2110    0.5418   -0.3701 O   0  0  0  0  0  0  0  0  0  0  0  0
    3.1753   -0.4773   -0.1269 C   0  0  0  0  0  0  0  0  0  0  0  0
    0.4105   -1.0292    0.1024 C   0  0  0  0  0  0  0  0  0  0  0  0
   -0.9477   -1.2260    0.1890 C   0  0  0  0  0  0  0  0  0  0  0  0
   -3.1723    3.2716   -0.8420 H   0  0  0  0  0  0  0  0  0  0  0  0
    0.4755    2.2658   -0.7919 H   0  0  0  0  0  0  0  0  0  0  0  0
    4.1475   -0.0097   -0.2865 H   0  0  0  0  0  0  0  0  0  0  0  0
    3.0595   -1.3158   -0.8237 H   0  0  0  0  0  0  0  0  0  0  0  0
    3.1187   -0.8477    0.9036 H   0  0  0  0  0  0  0  0  0  0  0  0
    1.0883   -1.8477    0.3084 H   0  0  0  0  0  0  0  0  0  0  0  0
   -1.3616   -2.1931    0.4627 H   0  0  0  0  0  0  0  0  0  0  0  0
   -4.9400    3.6737    0.2991 S   0  0  0  0  0  0  0  0  0  0  0  0
   -3.8576    3.9747   -0.8493 O   0  0  0  0  0  0  0  0  0  0  0  0
   -6.0255    4.6057    0.0728 O   0  0  0  0  0  0  0  0  0  0  0  0
   -5.1338    2.2445    0.4396 O   0  0  0  0  0  0  0  0  0  0  0  0
   -4.1460    4.1273    1.6488 O   0  0  0  0  0  0  0  0  0  0  0  0
   -4.2164    5.0944    1.7188 H   0  0  0  0  0  0  0  0  0  0  0  0
  1  2  1  0  0  0  0
  1 10  2  0  0  0  0
  2  3  1  0  0  0  0
  4  1  1  0  0  0  0
  5  4  2  0  0  0  0
  5  6  1  0  0  0  0
  6  9  2  0  0  0  0
  7  6  1  0  0  0  0
  7  8  1  0  0  0  0
  8 15  1  0  0  0  0
  9 10  1  0  0  0  0
  9 16  1  0  0  0  0
 10 17  1  0  0  0  0
 12  5  1  0  0  0  0
 13  8  1  0  0  0  0
 14  8  1  0  0  0  0
 18 21  2  0  0  0  0
 18 22  1  0  0  0  0
 19 11  1  0  0  0  0
 19 18  1  0  0  0  0
 20 18  2  0  0  0  0
 22 23  1  0  0  0  0
M  RAD  3   2   2   3   3   4   2
M  END
