Coordinates from ORCA-job 4-MeOPhN2+~HSO4-_B3LYPG-6-31G_dp-CH-Scan-d09-49-n800
 OpenBabel11261919063D

 23 22  0  0  0  0  0  0  0  0999 V2000
   -1.4398   -0.1222   -0.1835 C   0  0  0  0  0  0  0  0  0  0  0  0
   -2.8143   -0.1981   -0.0931 N   0  0  0  0  0  0  0  0  0  0  0  0
   -3.9351   -0.2105   -0.0432 N   0  0  0  0  0  0  0  0  0  0  0  0
   -0.9706    1.0987   -0.7233 C   0  0  0  0  0  0  0  0  0  0  0  0
    0.4367    1.0817   -0.7829 C   0  0  0  0  0  0  0  0  0  0  0  0
    1.2338    0.0062   -0.3621 C   0  0  0  0  0  0  0  0  0  0  0  0
    2.5743    0.1650   -0.4903 O   0  0  0  0  0  0  0  0  0  0  0  0
    3.4513   -0.8795   -0.0865 C   0  0  0  0  0  0  0  0  0  0  0  0
    0.6527   -1.1815    0.1698 C   0  0  0  0  0  0  0  0  0  0  0  0
   -0.7166   -1.2596    0.2657 C   0  0  0  0  0  0  0  0  0  0  0  0
   -4.0152    4.2727   -1.0381 H   0  0  0  0  0  0  0  0  0  0  0  0
    0.9817    1.9420   -1.1744 H   0  0  0  0  0  0  0  0  0  0  0  0
    4.4599   -0.5149   -0.2865 H   0  0  0  0  0  0  0  0  0  0  0  0
    3.2809   -1.7967   -0.6629 H   0  0  0  0  0  0  0  0  0  0  0  0
    3.3539   -1.0989    0.9837 H   0  0  0  0  0  0  0  0  0  0  0  0
    1.2657   -2.0122    0.4955 H   0  0  0  0  0  0  0  0  0  0  0  0
   -1.2073   -2.1449    0.6637 H   0  0  0  0  0  0  0  0  0  0  0  0
   -5.5601    3.9706    0.4136 S   0  0  0  0  0  0  0  0  0  0  0  0
   -4.8116    4.7700   -0.7827 O   0  0  0  0  0  0  0  0  0  0  0  0
   -6.8881    4.5403    0.4869 O   0  0  0  0  0  0  0  0  0  0  0  0
   -5.2869    2.5560    0.2826 O   0  0  0  0  0  0  0  0  0  0  0  0
   -4.7155    4.4578    1.7154 O   0  0  0  0  0  0  0  0  0  0  0  0
   -5.0723    5.3177    1.9965 H   0  0  0  0  0  0  0  0  0  0  0  0
  1  2  1  0  0  0  0
  1 10  2  0  0  0  0
  2  3  1  0  0  0  0
  4  1  1  0  0  0  0
  5  4  2  0  0  0  0
  5  6  1  0  0  0  0
  6  9  2  0  0  0  0
  7  6  1  0  0  0  0
  7  8  1  0  0  0  0
  8 15  1  0  0  0  0
  9 10  1  0  0  0  0
  9 16  1  0  0  0  0
 10 17  1  0  0  0  0
 11 19  1  0  0  0  0
 12  5  1  0  0  0  0
 13  8  1  0  0  0  0
 14  8  1  0  0  0  0
 18 20  2  0  0  0  0
 18 22  1  0  0  0  0
 19 18  1  0  0  0  0
 21 18  2  0  0  0  0
 22 23  1  0  0  0  0
M  RAD  3   2   2   3   3   4   2
M  END
