Coordinates from ORCA-job 4-MeOPhN2+~HSO4-_B3LYPG-6-31G_dp-CH-Scan-d09-49-n800
 OpenBabel11261919063D

 23 22  0  0  0  0  0  0  0  0999 V2000
   -1.9155   -0.0715   -0.0714 C   0  0  0  0  0  0  0  0  0  0  0  0
   -3.2611   -0.3363    0.0026 N   0  0  0  0  0  0  0  0  0  0  0  0
   -4.3626   -0.5279    0.0550 N   0  0  0  0  0  0  0  0  0  0  0  0
   -1.5505    1.2689   -0.3561 C   0  0  0  0  0  0  0  0  0  0  0  0
   -0.1609    1.4196   -0.4185 C   0  0  0  0  0  0  0  0  0  0  0  0
    0.7506    0.3669   -0.2226 C   0  0  0  0  0  0  0  0  0  0  0  0
    2.0573    0.6871   -0.3229 O   0  0  0  0  0  0  0  0  0  0  0  0
    3.0495   -0.3213   -0.1504 C   0  0  0  0  0  0  0  0  0  0  0  0
    0.2971   -0.9496    0.0621 C   0  0  0  0  0  0  0  0  0  0  0  0
   -1.0567   -1.1809    0.1394 C   0  0  0  0  0  0  0  0  0  0  0  0
   -2.7873    2.7499   -0.6109 H   0  0  0  0  0  0  0  0  0  0  0  0
    0.2765    2.3932   -0.6318 H   0  0  0  0  0  0  0  0  0  0  0  0
    4.0076    0.1803   -0.2883 H   0  0  0  0  0  0  0  0  0  0  0  0
    2.9465   -1.1169   -0.8976 H   0  0  0  0  0  0  0  0  0  0  0  0
    3.0103   -0.7546    0.8557 H   0  0  0  0  0  0  0  0  0  0  0  0
    0.9919   -1.7648    0.2175 H   0  0  0  0  0  0  0  0  0  0  0  0
   -1.4467   -2.1715    0.3559 H   0  0  0  0  0  0  0  0  0  0  0  0
   -4.6259    3.5165    0.2545 S   0  0  0  0  0  0  0  0  0  0  0  0
   -3.4149    3.5496   -0.7607 O   0  0  0  0  0  0  0  0  0  0  0  0
   -5.6144    4.4706   -0.2151 O   0  0  0  0  0  0  0  0  0  0  0  0
   -4.9724    2.1442    0.5897 O   0  0  0  0  0  0  0  0  0  0  0  0
   -3.9689    4.1199    1.6277 O   0  0  0  0  0  0  0  0  0  0  0  0
   -3.9921    5.0880    1.5500 H   0  0  0  0  0  0  0  0  0  0  0  0
  1  2  1  0  0  0  0
  1 10  2  0  0  0  0
  2  3  1  0  0  0  0
  4  1  1  0  0  0  0
  5  4  2  0  0  0  0
  5  6  1  0  0  0  0
  6  9  2  0  0  0  0
  7  6  1  0  0  0  0
  7  8  1  0  0  0  0
  8 15  1  0  0  0  0
  9 10  1  0  0  0  0
  9 16  1  0  0  0  0
 10 17  1  0  0  0  0
 12  5  1  0  0  0  0
 13  8  1  0  0  0  0
 14  8  1  0  0  0  0
 18 21  2  0  0  0  0
 18 22  1  0  0  0  0
 19 11  1  0  0  0  0
 19 18  1  0  0  0  0
 20 18  2  0  0  0  0
 23 22  1  0  0  0  0
M  RAD  3   2   2   3   3   4   2
M  END
