Coordinates from ORCA-job 4-MeOPhN2+~HSO4-_B3LYPG-6-31G_dp-CH-Scan-d09-49-n800
 OpenBabel11261919063D

 23 22  0  0  0  0  0  0  0  0999 V2000
   -1.5649   -0.1216   -0.1211 C   0  0  0  0  0  0  0  0  0  0  0  0
   -2.9342   -0.2527   -0.0269 N   0  0  0  0  0  0  0  0  0  0  0  0
   -4.0527   -0.3142    0.0302 N   0  0  0  0  0  0  0  0  0  0  0  0
   -1.1360    1.1482   -0.5770 C   0  0  0  0  0  0  0  0  0  0  0  0
    0.2698    1.1805   -0.6460 C   0  0  0  0  0  0  0  0  0  0  0  0
    1.1038    0.1036   -0.3078 C   0  0  0  0  0  0  0  0  0  0  0  0
    2.4370    0.3130   -0.4351 O   0  0  0  0  0  0  0  0  0  0  0  0
    3.3495   -0.7306   -0.1158 C   0  0  0  0  0  0  0  0  0  0  0  0
    0.5645   -1.1357    0.1434 C   0  0  0  0  0  0  0  0  0  0  0  0
   -0.8010   -1.2629    0.2423 C   0  0  0  0  0  0  0  0  0  0  0  0
   -3.7070    3.9675   -1.0410 H   0  0  0  0  0  0  0  0  0  0  0  0
    0.7842    2.0827   -0.9796 H   0  0  0  0  0  0  0  0  0  0  0  0
    4.3442   -0.3230   -0.3010 H   0  0  0  0  0  0  0  0  0  0  0  0
    3.1973   -1.6099   -0.7530 H   0  0  0  0  0  0  0  0  0  0  0  0
    3.2728   -1.0267    0.9375 H   0  0  0  0  0  0  0  0  0  0  0  0
    1.2054   -1.9674    0.4065 H   0  0  0  0  0  0  0  0  0  0  0  0
   -1.2603   -2.1883    0.5817 H   0  0  0  0  0  0  0  0  0  0  0  0
   -5.3276    3.8588    0.3553 S   0  0  0  0  0  0  0  0  0  0  0  0
   -4.4755    4.5323   -0.8461 O   0  0  0  0  0  0  0  0  0  0  0  0
   -6.5946    4.5578    0.3673 O   0  0  0  0  0  0  0  0  0  0  0  0
   -5.1971    2.4193    0.2899 O   0  0  0  0  0  0  0  0  0  0  0  0
   -4.4739    4.3124    1.6638 O   0  0  0  0  0  0  0  0  0  0  0  0
   -4.7464    5.2164    1.8964 H   0  0  0  0  0  0  0  0  0  0  0  0
  1  2  1  0  0  0  0
  1 10  2  0  0  0  0
  2  3  1  0  0  0  0
  4  1  1  0  0  0  0
  5  4  2  0  0  0  0
  5  6  1  0  0  0  0
  6  9  2  0  0  0  0
  7  6  1  0  0  0  0
  7  8  1  0  0  0  0
  8 15  1  0  0  0  0
  9 10  1  0  0  0  0
  9 16  1  0  0  0  0
 10 17  1  0  0  0  0
 11 19  1  0  0  0  0
 12  5  1  0  0  0  0
 13  8  1  0  0  0  0
 14  8  1  0  0  0  0
 18 20  2  0  0  0  0
 18 22  1  0  0  0  0
 19 18  1  0  0  0  0
 21 18  2  0  0  0  0
 22 23  1  0  0  0  0
M  RAD  3   2   2   3   3   4   2
M  END
