Coordinates from ORCA-job 4-MeOPhN2+~HSO4-_B3LYPG-6-31G_dp-CH-Scan-d09-49-n800
 OpenBabel11261919063D

 23 22  0  0  0  0  0  0  0  0999 V2000
   -1.9602   -0.0412   -0.1019 C   0  0  0  0  0  0  0  0  0  0  0  0
   -3.3060   -0.3037   -0.0506 N   0  0  0  0  0  0  0  0  0  0  0  0
   -4.4066   -0.4985   -0.0152 N   0  0  0  0  0  0  0  0  0  0  0  0
   -1.5714    1.3004   -0.3421 C   0  0  0  0  0  0  0  0  0  0  0  0
   -0.1866    1.4552   -0.3899 C   0  0  0  0  0  0  0  0  0  0  0  0
    0.7181    0.3911   -0.2175 C   0  0  0  0  0  0  0  0  0  0  0  0
    2.0244    0.7080   -0.2968 O   0  0  0  0  0  0  0  0  0  0  0  0
    3.0123   -0.3090   -0.1420 C   0  0  0  0  0  0  0  0  0  0  0  0
    0.2526   -0.9287    0.0225 C   0  0  0  0  0  0  0  0  0  0  0  0
   -1.1037   -1.1553    0.0805 C   0  0  0  0  0  0  0  0  0  0  0  0
   -2.6014    2.5402   -0.5135 H   0  0  0  0  0  0  0  0  0  0  0  0
    0.2484    2.4359   -0.5686 H   0  0  0  0  0  0  0  0  0  0  0  0
    3.9727    0.1937   -0.2556 H   0  0  0  0  0  0  0  0  0  0  0  0
    2.9139   -1.0821   -0.9129 H   0  0  0  0  0  0  0  0  0  0  0  0
    2.9598   -0.7690    0.8513 H   0  0  0  0  0  0  0  0  0  0  0  0
    0.9403   -1.7530    0.1595 H   0  0  0  0  0  0  0  0  0  0  0  0
   -1.4995   -2.1500    0.2631 H   0  0  0  0  0  0  0  0  0  0  0  0
   -4.4793    3.4348    0.3121 S   0  0  0  0  0  0  0  0  0  0  0  0
   -3.2700    3.4195   -0.6675 O   0  0  0  0  0  0  0  0  0  0  0  0
   -5.5834    4.1759   -0.2829 O   0  0  0  0  0  0  0  0  0  0  0  0
   -4.6901    2.1045    0.8790 O   0  0  0  0  0  0  0  0  0  0  0  0
   -3.9367    4.3373    1.5747 O   0  0  0  0  0  0  0  0  0  0  0  0
   -4.1899    5.2537    1.3781 H   0  0  0  0  0  0  0  0  0  0  0  0
  1  2  1  0  0  0  0
  1 10  2  0  0  0  0
  2  3  1  0  0  0  0
  4  1  1  0  0  0  0
  5  4  2  0  0  0  0
  5  6  1  0  0  0  0
  6  9  2  0  0  0  0
  7  6  1  0  0  0  0
  7  8  1  0  0  0  0
  8 15  1  0  0  0  0
  9 10  1  0  0  0  0
  9 16  1  0  0  0  0
 10 17  1  0  0  0  0
 12  5  1  0  0  0  0
 13  8  1  0  0  0  0
 14  8  1  0  0  0  0
 18 21  2  0  0  0  0
 18 22  1  0  0  0  0
 19 11  1  0  0  0  0
 19 18  1  0  0  0  0
 20 18  2  0  0  0  0
 23 22  1  0  0  0  0
M  RAD  3   2   2   3   3   4   2
M  END
