Coordinates from ORCA-job 4-MeOPhN2+~HSO4-_B3LYPG-6-31G_dp-CH-Scan-d09-49-n800
 OpenBabel11261919063D

 23 22  0  0  0  0  0  0  0  0999 V2000
   -1.3522   -0.1036   -0.2451 C   0  0  0  0  0  0  0  0  0  0  0  0
   -2.7293   -0.1324   -0.1639 N   0  0  0  0  0  0  0  0  0  0  0  0
   -3.8507   -0.1038   -0.1314 N   0  0  0  0  0  0  0  0  0  0  0  0
   -0.8464    1.0655   -0.8601 C   0  0  0  0  0  0  0  0  0  0  0  0
    0.5605    1.0063   -0.9066 C   0  0  0  0  0  0  0  0  0  0  0  0
    1.3241   -0.0604   -0.4086 C   0  0  0  0  0  0  0  0  0  0  0  0
    2.6695    0.0522   -0.5361 O   0  0  0  0  0  0  0  0  0  0  0  0
    3.5143   -0.9852   -0.0537 C   0  0  0  0  0  0  0  0  0  0  0  0
    0.7066   -1.1938    0.1961 C   0  0  0  0  0  0  0  0  0  0  0  0
   -0.6651   -1.2283    0.2851 C   0  0  0  0  0  0  0  0  0  0  0  0
   -4.2254    4.4498   -1.0132 H   0  0  0  0  0  0  0  0  0  0  0  0
    1.1319    1.8236   -1.3493 H   0  0  0  0  0  0  0  0  0  0  0  0
    4.5338   -0.6650   -0.2735 H   0  0  0  0  0  0  0  0  0  0  0  0
    3.3197   -1.9365   -0.5637 H   0  0  0  0  0  0  0  0  0  0  0  0
    3.4065   -1.1247    1.0289 H   0  0  0  0  0  0  0  0  0  0  0  0
    1.2940   -2.0174    0.5814 H   0  0  0  0  0  0  0  0  0  0  0  0
   -1.1832   -2.0716    0.7360 H   0  0  0  0  0  0  0  0  0  0  0  0
   -5.7180    4.0318    0.4626 S   0  0  0  0  0  0  0  0  0  0  0  0
   -5.0343    4.9053   -0.7218 O   0  0  0  0  0  0  0  0  0  0  0  0
   -7.0736    4.5248    0.5746 O   0  0  0  0  0  0  0  0  0  0  0  0
   -5.3684    2.6395    0.2834 O   0  0  0  0  0  0  0  0  0  0  0  0
   -4.8782    4.5276    1.7641 O   0  0  0  0  0  0  0  0  0  0  0  0
   -5.2787    5.3560    2.0789 H   0  0  0  0  0  0  0  0  0  0  0  0
  1  2  1  0  0  0  0
  1 10  2  0  0  0  0
  2  3  1  0  0  0  0
  4  1  1  0  0  0  0
  5  4  2  0  0  0  0
  5  6  1  0  0  0  0
  6  9  2  0  0  0  0
  7  6  1  0  0  0  0
  7  8  1  0  0  0  0
  8 15  1  0  0  0  0
  9 10  1  0  0  0  0
  9 16  1  0  0  0  0
 10 17  1  0  0  0  0
 11 19  1  0  0  0  0
 12  5  1  0  0  0  0
 13  8  1  0  0  0  0
 14  8  1  0  0  0  0
 18 20  2  0  0  0  0
 18 22  1  0  0  0  0
 19 18  1  0  0  0  0
 21 18  2  0  0  0  0
 22 23  1  0  0  0  0
M  RAD  3   2   2   3   3   4   2
M  END
