Coordinates from ORCA-job 4-MeOPhN2+~HSO4-_B3LYPG-6-31G_dp-CH-Scan-d09-49-n800
 OpenBabel11261919063D

 23 22  0  0  0  0  0  0  0  0999 V2000
   -1.9734    0.0025   -0.1120 C   0  0  0  0  0  0  0  0  0  0  0  0
   -3.3231   -0.2331   -0.0631 N   0  0  0  0  0  0  0  0  0  0  0  0
   -4.4263   -0.4044   -0.0259 N   0  0  0  0  0  0  0  0  0  0  0  0
   -1.5398    1.3289   -0.3459 C   0  0  0  0  0  0  0  0  0  0  0  0
   -0.1616    1.4791   -0.3957 C   0  0  0  0  0  0  0  0  0  0  0  0
    0.7245    0.3971   -0.2256 C   0  0  0  0  0  0  0  0  0  0  0  0
    2.0324    0.6939   -0.3016 O   0  0  0  0  0  0  0  0  0  0  0  0
    3.0067   -0.3376   -0.1429 C   0  0  0  0  0  0  0  0  0  0  0  0
    0.2327   -0.9125    0.0079 C   0  0  0  0  0  0  0  0  0  0  0  0
   -1.1286   -1.1181    0.0635 C   0  0  0  0  0  0  0  0  0  0  0  0
   -2.4365    2.4154   -0.4863 H   0  0  0  0  0  0  0  0  0  0  0  0
    0.2761    2.4580   -0.5690 H   0  0  0  0  0  0  0  0  0  0  0  0
    3.9736    0.1531   -0.2516 H   0  0  0  0  0  0  0  0  0  0  0  0
    2.9002   -1.1074   -0.9156 H   0  0  0  0  0  0  0  0  0  0  0  0
    2.9418   -0.7963    0.8500 H   0  0  0  0  0  0  0  0  0  0  0  0
    0.9049   -1.7498    0.1428 H   0  0  0  0  0  0  0  0  0  0  0  0
   -1.5389   -2.1070    0.2420 H   0  0  0  0  0  0  0  0  0  0  0  0
   -4.4221    3.3985    0.3282 S   0  0  0  0  0  0  0  0  0  0  0  0
   -3.2278    3.4320   -0.6258 O   0  0  0  0  0  0  0  0  0  0  0  0
   -5.6231    3.9757   -0.2743 O   0  0  0  0  0  0  0  0  0  0  0  0
   -4.5157    2.0876    0.9891 O   0  0  0  0  0  0  0  0  0  0  0  0
   -3.9921    4.4316    1.5447 O   0  0  0  0  0  0  0  0  0  0  0  0
   -4.4263    5.2723    1.3312 H   0  0  0  0  0  0  0  0  0  0  0  0
  1  2  1  0  0  0  0
  1 10  2  0  0  0  0
  2  3  1  0  0  0  0
  4  1  1  0  0  0  0
  5  4  2  0  0  0  0
  5  6  1  0  0  0  0
  6  9  2  0  0  0  0
  7  6  1  0  0  0  0
  7  8  1  0  0  0  0
  8 15  1  0  0  0  0
  9 10  1  0  0  0  0
  9 16  1  0  0  0  0
 10 17  1  0  0  0  0
 12  5  1  0  0  0  0
 13  8  1  0  0  0  0
 14  8  1  0  0  0  0
 18 21  2  0  0  0  0
 18 22  1  0  0  0  0
 19 11  1  0  0  0  0
 19 18  1  0  0  0  0
 20 18  2  0  0  0  0
 23 22  1  0  0  0  0
M  RAD  3   2   2   3   3   4   2
M  END
