Coordinates from ORCA-job 4-MeOPhN2+~HSO4-_B3LYPG-6-31G_dp-CH-Scan-d09-49-n800
 OpenBabel11261919063D

 23 22  0  0  0  0  0  0  0  0999 V2000
   -1.9602   -0.0444   -0.1040 C   0  0  0  0  0  0  0  0  0  0  0  0
   -3.3057   -0.3085   -0.0527 N   0  0  0  0  0  0  0  0  0  0  0  0
   -4.4063   -0.5043   -0.0175 N   0  0  0  0  0  0  0  0  0  0  0  0
   -1.5743    1.2974   -0.3479 C   0  0  0  0  0  0  0  0  0  0  0  0
   -0.1893    1.4535   -0.3947 C   0  0  0  0  0  0  0  0  0  0  0  0
    0.7169    0.3914   -0.2183 C   0  0  0  0  0  0  0  0  0  0  0  0
    2.0230    0.7100   -0.2971 O   0  0  0  0  0  0  0  0  0  0  0  0
    3.0122   -0.3049   -0.1382 C   0  0  0  0  0  0  0  0  0  0  0  0
    0.2534   -0.9286    0.0252 C   0  0  0  0  0  0  0  0  0  0  0  0
   -1.1026   -1.1571    0.0827 C   0  0  0  0  0  0  0  0  0  0  0  0
   -2.6156    2.5468   -0.5244 H   0  0  0  0  0  0  0  0  0  0  0  0
    0.2450    2.4340   -0.5760 H   0  0  0  0  0  0  0  0  0  0  0  0
    3.9720    0.1987   -0.2523 H   0  0  0  0  0  0  0  0  0  0  0  0
    2.9158   -1.0807   -0.9068 H   0  0  0  0  0  0  0  0  0  0  0  0
    2.9594   -0.7621    0.8565 H   0  0  0  0  0  0  0  0  0  0  0  0
    0.9424   -1.7514    0.1654 H   0  0  0  0  0  0  0  0  0  0  0  0
   -1.4971   -2.1518    0.2679 H   0  0  0  0  0  0  0  0  0  0  0  0
   -4.4842    3.4371    0.3117 S   0  0  0  0  0  0  0  0  0  0  0  0
   -3.2821    3.4183   -0.6792 O   0  0  0  0  0  0  0  0  0  0  0  0
   -5.5827    4.1962   -0.2698 O   0  0  0  0  0  0  0  0  0  0  0  0
   -4.7044    2.1044    0.8680 O   0  0  0  0  0  0  0  0  0  0  0  0
   -3.9206    4.3216    1.5774 O   0  0  0  0  0  0  0  0  0  0  0  0
   -4.1575    5.2439    1.3881 H   0  0  0  0  0  0  0  0  0  0  0  0
  1  2  1  0  0  0  0
  1 10  2  0  0  0  0
  2  3  1  0  0  0  0
  4  1  1  0  0  0  0
  5  4  2  0  0  0  0
  5  6  1  0  0  0  0
  6  9  2  0  0  0  0
  7  6  1  0  0  0  0
  7  8  1  0  0  0  0
  8 15  1  0  0  0  0
  9 10  1  0  0  0  0
  9 16  1  0  0  0  0
 10 17  1  0  0  0  0
 12  5  1  0  0  0  0
 13  8  1  0  0  0  0
 14  8  1  0  0  0  0
 18 21  2  0  0  0  0
 18 22  1  0  0  0  0
 19 11  1  0  0  0  0
 19 18  1  0  0  0  0
 20 18  2  0  0  0  0
 23 22  1  0  0  0  0
M  RAD  3   2   2   3   3   4   2
M  END
