Coordinates from ORCA-job 4-MeOPhN2+~HSO4-_B3LYPG-6-31G_dp-CH-Scan-d09-49-n800
 OpenBabel11261919063D

 23 22  0  0  0  0  0  0  0  0999 V2000
   -1.5722   -0.1211   -0.1165 C   0  0  0  0  0  0  0  0  0  0  0  0
   -2.9411   -0.2555   -0.0211 N   0  0  0  0  0  0  0  0  0  0  0  0
   -4.0593   -0.3199    0.0369 N   0  0  0  0  0  0  0  0  0  0  0  0
   -1.1457    1.1514   -0.5669 C   0  0  0  0  0  0  0  0  0  0  0  0
    0.2599    1.1867   -0.6372 C   0  0  0  0  0  0  0  0  0  0  0  0
    1.0961    0.1096   -0.3048 C   0  0  0  0  0  0  0  0  0  0  0  0
    2.4287    0.3220   -0.4325 O   0  0  0  0  0  0  0  0  0  0  0  0
    3.3434   -0.7215   -0.1192 C   0  0  0  0  0  0  0  0  0  0  0  0
    0.5594   -1.1326    0.1410 C   0  0  0  0  0  0  0  0  0  0  0  0
   -0.8057   -1.2627    0.2407 C   0  0  0  0  0  0  0  0  0  0  0  0
   -3.6819    3.9407   -1.0328 H   0  0  0  0  0  0  0  0  0  0  0  0
    0.7723    2.0914   -0.9670 H   0  0  0  0  0  0  0  0  0  0  0  0
    4.3372   -0.3113   -0.3037 H   0  0  0  0  0  0  0  0  0  0  0  0
    3.1919   -1.5981   -0.7603 H   0  0  0  0  0  0  0  0  0  0  0  0
    3.2686   -1.0226    0.9328 H   0  0  0  0  0  0  0  0  0  0  0  0
    1.2019   -1.9646    0.3996 H   0  0  0  0  0  0  0  0  0  0  0  0
   -1.2631   -2.1905    0.5763 H   0  0  0  0  0  0  0  0  0  0  0  0
   -5.3148    3.8531    0.3504 S   0  0  0  0  0  0  0  0  0  0  0  0
   -4.4476    4.5125   -0.8476 O   0  0  0  0  0  0  0  0  0  0  0  0
   -6.5750    4.5645    0.3501 O   0  0  0  0  0  0  0  0  0  0  0  0
   -5.1983    2.4120    0.2929 O   0  0  0  0  0  0  0  0  0  0  0  0
   -4.4662    4.3043    1.6632 O   0  0  0  0  0  0  0  0  0  0  0  0
   -4.7312    5.2121    1.8894 H   0  0  0  0  0  0  0  0  0  0  0  0
  1  2  1  0  0  0  0
  1 10  2  0  0  0  0
  2  3  1  0  0  0  0
  4  1  1  0  0  0  0
  5  4  2  0  0  0  0
  5  6  1  0  0  0  0
  6  9  2  0  0  0  0
  7  6  1  0  0  0  0
  7  8  1  0  0  0  0
  8 15  1  0  0  0  0
  9 10  1  0  0  0  0
  9 16  1  0  0  0  0
 10 17  1  0  0  0  0
 11 19  1  0  0  0  0
 12  5  1  0  0  0  0
 13  8  1  0  0  0  0
 14  8  1  0  0  0  0
 18 22  1  0  0  0  0
 19 18  1  0  0  0  0
 20 18  2  0  0  0  0
 21 18  2  0  0  0  0
 22 23  1  0  0  0  0
M  RAD  3   2   2   3   3   4   2
M  END
