Coordinates from ORCA-job 4-MeOPhN2+~HSO4-_B3LYPG-6-31G_dp-CH-Scan-d09-49-n800
 OpenBabel11261919063D

 23 22  0  0  0  0  0  0  0  0999 V2000
   -1.5359   -0.1231   -0.1394 C   0  0  0  0  0  0  0  0  0  0  0  0
   -2.9067   -0.2418   -0.0466 N   0  0  0  0  0  0  0  0  0  0  0  0
   -4.0260   -0.2925    0.0068 N   0  0  0  0  0  0  0  0  0  0  0  0
   -1.0977    1.1342   -0.6198 C   0  0  0  0  0  0  0  0  0  0  0  0
    0.3089    1.1548   -0.6855 C   0  0  0  0  0  0  0  0  0  0  0  0
    1.1342    0.0793   -0.3226 C   0  0  0  0  0  0  0  0  0  0  0  0
    2.4694    0.2768   -0.4496 O   0  0  0  0  0  0  0  0  0  0  0  0
    3.3735   -0.7659   -0.1048 C   0  0  0  0  0  0  0  0  0  0  0  0
    0.5849   -1.1469    0.1520 C   0  0  0  0  0  0  0  0  0  0  0  0
   -0.7816   -1.2625    0.2494 C   0  0  0  0  0  0  0  0  0  0  0  0
   -3.7858    4.0636   -1.0482 H   0  0  0  0  0  0  0  0  0  0  0  0
    0.8307    2.0464   -1.0360 H   0  0  0  0  0  0  0  0  0  0  0  0
    4.3718   -0.3686   -0.2935 H   0  0  0  0  0  0  0  0  0  0  0  0
    3.2187   -1.6570   -0.7249 H   0  0  0  0  0  0  0  0  0  0  0  0
    3.2901   -1.0402    0.9538 H   0  0  0  0  0  0  0  0  0  0  0  0
    1.2193   -1.9775    0.4337 H   0  0  0  0  0  0  0  0  0  0  0  0
   -1.2486   -2.1778    0.6058 H   0  0  0  0  0  0  0  0  0  0  0  0
   -5.3796    3.8830    0.3719 S   0  0  0  0  0  0  0  0  0  0  0  0
   -4.5672    4.6019   -0.8317 O   0  0  0  0  0  0  0  0  0  0  0  0
   -6.6688    4.5389    0.4112 O   0  0  0  0  0  0  0  0  0  0  0  0
   -5.2009    2.4500    0.2829 O   0  0  0  0  0  0  0  0  0  0  0  0
   -4.5225    4.3471    1.6744 O   0  0  0  0  0  0  0  0  0  0  0  0
   -4.8225    5.2376    1.9248 H   0  0  0  0  0  0  0  0  0  0  0  0
  1  2  1  0  0  0  0
  1 10  2  0  0  0  0
  2  3  1  0  0  0  0
  4  1  1  0  0  0  0
  5  4  2  0  0  0  0
  5  6  1  0  0  0  0
  6  9  2  0  0  0  0
  7  6  1  0  0  0  0
  7  8  1  0  0  0  0
  8 15  1  0  0  0  0
  9 10  1  0  0  0  0
  9 16  1  0  0  0  0
 10 17  1  0  0  0  0
 11 19  1  0  0  0  0
 12  5  1  0  0  0  0
 13  8  1  0  0  0  0
 14  8  1  0  0  0  0
 18 20  2  0  0  0  0
 18 22  1  0  0  0  0
 19 18  1  0  0  0  0
 21 18  2  0  0  0  0
 22 23  1  0  0  0  0
M  RAD  3   2   2   3   3   4   2
M  END
