Coordinates from ORCA-job 4-MeOPhN2+~HSO4-_B3LYPG-6-31G_dp-CH-Scan-d09-49-n800
 OpenBabel11261919063D

 23 22  0  0  0  0  0  0  0  0999 V2000
   -1.4873   -0.1246   -0.1632 C   0  0  0  0  0  0  0  0  0  0  0  0
   -2.8603   -0.2212   -0.0721 N   0  0  0  0  0  0  0  0  0  0  0  0
   -3.9806   -0.2510   -0.0224 N   0  0  0  0  0  0  0  0  0  0  0  0
   -1.0341    1.1139   -0.6765 C   0  0  0  0  0  0  0  0  0  0  0  0
    0.3731    1.1160   -0.7388 C   0  0  0  0  0  0  0  0  0  0  0  0
    1.1845    0.0414   -0.3438 C   0  0  0  0  0  0  0  0  0  0  0  0
    2.5225    0.2198   -0.4714 O   0  0  0  0  0  0  0  0  0  0  0  0
    3.4133   -0.8230   -0.0940 C   0  0  0  0  0  0  0  0  0  0  0  0
    0.6195   -1.1651    0.1624 C   0  0  0  0  0  0  0  0  0  0  0  0
   -0.7486   -1.2623    0.2589 C   0  0  0  0  0  0  0  0  0  0  0  0
   -3.9048    4.1769   -1.0460 H   0  0  0  0  0  0  0  0  0  0  0  0
    0.9064    1.9916   -1.1119 H   0  0  0  0  0  0  0  0  0  0  0  0
    4.4168   -0.4418   -0.2883 H   0  0  0  0  0  0  0  0  0  0  0  0
    3.2520   -1.7288   -0.6906 H   0  0  0  0  0  0  0  0  0  0  0  0
    3.3219   -1.0677    0.9713 H   0  0  0  0  0  0  0  0  0  0  0  0
    1.2434   -1.9950    0.4684 H   0  0  0  0  0  0  0  0  0  0  0  0
   -1.2273   -2.1622    0.6383 H   0  0  0  0  0  0  0  0  0  0  0  0
   -5.4701    3.9280    0.3941 S   0  0  0  0  0  0  0  0  0  0  0  0
   -4.6937    4.6936   -0.8057 O   0  0  0  0  0  0  0  0  0  0  0  0
   -6.7817    4.5360    0.4547 O   0  0  0  0  0  0  0  0  0  0  0  0
   -5.2380    2.5047    0.2793 O   0  0  0  0  0  0  0  0  0  0  0  0
   -4.6187    4.4035    1.6960 O   0  0  0  0  0  0  0  0  0  0  0  0
   -4.9508    5.2770    1.9651 H   0  0  0  0  0  0  0  0  0  0  0  0
  1  2  1  0  0  0  0
  1 10  2  0  0  0  0
  2  3  1  0  0  0  0
  4  1  1  0  0  0  0
  5  4  2  0  0  0  0
  5  6  1  0  0  0  0
  6  9  2  0  0  0  0
  7  6  1  0  0  0  0
  7  8  1  0  0  0  0
  8 15  1  0  0  0  0
  9 10  1  0  0  0  0
  9 16  1  0  0  0  0
 10 17  1  0  0  0  0
 11 19  1  0  0  0  0
 12  5  1  0  0  0  0
 13  8  1  0  0  0  0
 14  8  1  0  0  0  0
 18 20  2  0  0  0  0
 18 22  1  0  0  0  0
 19 18  1  0  0  0  0
 21 18  2  0  0  0  0
 22 23  1  0  0  0  0
M  RAD  3   2   2   3   3   4   2
M  END
