Coordinates from ORCA-job 4-MeOPhN2+~HSO4-_B3LYPG-6-31G_dp-CH-Scan-d09-49-n800
 OpenBabel11261919063D

 23 22  0  0  0  0  0  0  0  0999 V2000
   -1.4033   -0.1180   -0.2035 C   0  0  0  0  0  0  0  0  0  0  0  0
   -2.7788   -0.1752   -0.1149 N   0  0  0  0  0  0  0  0  0  0  0  0
   -3.9000   -0.1702   -0.0711 N   0  0  0  0  0  0  0  0  0  0  0  0
   -0.9210    1.0848   -0.7712 C   0  0  0  0  0  0  0  0  0  0  0  0
    0.4863    1.0521   -0.8277 C   0  0  0  0  0  0  0  0  0  0  0  0
    1.2713   -0.0213   -0.3797 C   0  0  0  0  0  0  0  0  0  0  0  0
    2.6136    0.1205   -0.5090 O   0  0  0  0  0  0  0  0  0  0  0  0
    3.4792   -0.9226   -0.0778 C   0  0  0  0  0  0  0  0  0  0  0  0
    0.6771   -1.1901    0.1791 C   0  0  0  0  0  0  0  0  0  0  0  0
   -0.6932   -1.2520    0.2742 C   0  0  0  0  0  0  0  0  0  0  0  0
   -4.0955    4.3410   -1.0244 H   0  0  0  0  0  0  0  0  0  0  0  0
    1.0408    1.8972   -1.2384 H   0  0  0  0  0  0  0  0  0  0  0  0
    4.4918   -0.5735   -0.2851 H   0  0  0  0  0  0  0  0  0  0  0  0
    3.3003   -1.8521   -0.6314 H   0  0  0  0  0  0  0  0  0  0  0  0
    3.3780   -1.1142    0.9975 H   0  0  0  0  0  0  0  0  0  0  0  0
    1.2809   -2.0190    0.5258 H   0  0  0  0  0  0  0  0  0  0  0  0
   -1.1938   -2.1226    0.6918 H   0  0  0  0  0  0  0  0  0  0  0  0
   -5.6288    4.0011    0.4301 S   0  0  0  0  0  0  0  0  0  0  0  0
   -4.8956    4.8266   -0.7586 O   0  0  0  0  0  0  0  0  0  0  0  0
   -6.9667    4.5457    0.5117 O   0  0  0  0  0  0  0  0  0  0  0  0
   -5.3289    2.5937    0.2820 O   0  0  0  0  0  0  0  0  0  0  0  0
   -4.7913    4.4894    1.7360 O   0  0  0  0  0  0  0  0  0  0  0  0
   -5.1648    5.3384    2.0285 H   0  0  0  0  0  0  0  0  0  0  0  0
  1  2  1  0  0  0  0
  1 10  2  0  0  0  0
  2  3  1  0  0  0  0
  4  1  1  0  0  0  0
  5  4  2  0  0  0  0
  5  6  1  0  0  0  0
  6  9  2  0  0  0  0
  7  6  1  0  0  0  0
  7  8  1  0  0  0  0
  8 15  1  0  0  0  0
  9 10  1  0  0  0  0
  9 16  1  0  0  0  0
 10 17  1  0  0  0  0
 11 19  1  0  0  0  0
 12  5  1  0  0  0  0
 13  8  1  0  0  0  0
 14  8  1  0  0  0  0
 18 20  2  0  0  0  0
 18 22  1  0  0  0  0
 19 18  1  0  0  0  0
 21 18  2  0  0  0  0
 22 23  1  0  0  0  0
M  RAD  3   2   2   3   3   4   2
M  END
