Coordinates from ORCA-job 4-MeOPhN2+~HSO4-_B3LYPG-6-31G_dp-CH-Scan-d09-49-n800
 OpenBabel11261919063D

 23 22  0  0  0  0  0  0  0  0999 V2000
   -1.9384    0.3409   -0.1994 C   0  0  0  0  0  0  0  0  0  0  0  0
   -3.3096    0.2767   -0.1807 N   0  0  0  0  0  0  0  0  0  0  0  0
   -4.4272    0.2134   -0.2007 N   0  0  0  0  0  0  0  0  0  0  0  0
   -1.3036    1.5851   -0.4151 C   0  0  0  0  0  0  0  0  0  0  0  0
    0.0758    1.5806   -0.4476 C   0  0  0  0  0  0  0  0  0  0  0  0
    0.8091    0.3897   -0.2613 C   0  0  0  0  0  0  0  0  0  0  0  0
    2.1439    0.5184   -0.3073 O   0  0  0  0  0  0  0  0  0  0  0  0
    2.9742   -0.6280   -0.1150 C   0  0  0  0  0  0  0  0  0  0  0  0
    0.1438   -0.8393   -0.0444 C   0  0  0  0  0  0  0  0  0  0  0  0
   -1.2368   -0.8676   -0.0160 C   0  0  0  0  0  0  0  0  0  0  0  0
   -2.0232    2.6482   -0.5467 H   0  0  0  0  0  0  0  0  0  0  0  0
    0.6281    2.5001   -0.6075 H   0  0  0  0  0  0  0  0  0  0  0  0
    3.9984   -0.2634   -0.1889 H   0  0  0  0  0  0  0  0  0  0  0  0
    2.7971   -1.3800   -0.8919 H   0  0  0  0  0  0  0  0  0  0  0  0
    2.8153   -1.0703    0.8748 H   0  0  0  0  0  0  0  0  0  0  0  0
    0.6969   -1.7582    0.1005 H   0  0  0  0  0  0  0  0  0  0  0  0
   -1.7719   -1.7967    0.1491 H   0  0  0  0  0  0  0  0  0  0  0  0
   -4.1962    3.2849    0.4911 S   0  0  0  0  0  0  0  0  0  0  0  0
   -3.2329    3.7928   -0.5312 O   0  0  0  0  0  0  0  0  0  0  0  0
   -5.3828    2.5888   -0.0743 O   0  0  0  0  0  0  0  0  0  0  0  0
   -3.5292    2.5161    1.5643 O   0  0  0  0  0  0  0  0  0  0  0  0
   -4.7895    4.6740    1.1539 O   0  0  0  0  0  0  0  0  0  0  0  0
   -5.6839    4.4534    1.4585 H   0  0  0  0  0  0  0  0  0  0  0  0
  1  2  1  0  0  0  0
  1 10  2  0  0  0  0
  3  2  1  0  0  0  0
  4  1  1  0  0  0  0
  5  4  2  0  0  0  0
  5  6  1  0  0  0  0
  6  9  2  0  0  0  0
  7  6  1  0  0  0  0
  7  8  1  0  0  0  0
  8 15  1  0  0  0  0
  9 10  1  0  0  0  0
  9 16  1  0  0  0  0
 10 17  1  0  0  0  0
 11  4  1  0  0  0  0
 12  5  1  0  0  0  0
 13  8  1  0  0  0  0
 14  8  1  0  0  0  0
 18 22  1  0  0  0  0
 18 21  1  0  0  0  0
 19 18  2  0  0  0  0
 20 18  2  0  0  0  0
 22 23  1  0  0  0  0
M  RAD  3   2   2   3   3  21   2
M  END
