Coordinates from ORCA-job 4-MeOPhN2+~HSO4-_B3LYPG-6-31G_dp-CH-Scan-d09-49-n800
 OpenBabel11261919063D

 23 22  0  0  0  0  0  0  0  0999 V2000
   -1.7460   -0.1086   -0.0958 C   0  0  0  0  0  0  0  0  0  0  0  0
   -3.1043   -0.3126   -0.0088 N   0  0  0  0  0  0  0  0  0  0  0  0
   -4.2157   -0.4448    0.0481 N   0  0  0  0  0  0  0  0  0  0  0  0
   -1.3590    1.2011   -0.4720 C   0  0  0  0  0  0  0  0  0  0  0  0
    0.0401    1.3016   -0.5375 C   0  0  0  0  0  0  0  0  0  0  0  0
    0.9192    0.2406   -0.2649 C   0  0  0  0  0  0  0  0  0  0  0  0
    2.2394    0.5141   -0.3781 O   0  0  0  0  0  0  0  0  0  0  0  0
    3.1978   -0.5079   -0.1259 C   0  0  0  0  0  0  0  0  0  0  0  0
    0.4306   -1.0435    0.1078 C   0  0  0  0  0  0  0  0  0  0  0  0
   -0.9285   -1.2327    0.1962 C   0  0  0  0  0  0  0  0  0  0  0  0
   -3.2368    3.3576   -0.8726 H   0  0  0  0  0  0  0  0  0  0  0  0
    0.5130    2.2436   -0.8146 H   0  0  0  0  0  0  0  0  0  0  0  0
    4.1728   -0.0472   -0.2890 H   0  0  0  0  0  0  0  0  0  0  0  0
    3.0778   -1.3518   -0.8155 H   0  0  0  0  0  0  0  0  0  0  0  0
    3.1390   -0.8695    0.9077 H   0  0  0  0  0  0  0  0  0  0  0  0
    1.1045   -1.8635    0.3206 H   0  0  0  0  0  0  0  0  0  0  0  0
   -1.3476   -2.1953    0.4780 H   0  0  0  0  0  0  0  0  0  0  0  0
   -4.9913    3.6995    0.3066 S   0  0  0  0  0  0  0  0  0  0  0  0
   -3.9322    4.0473   -0.8536 O   0  0  0  0  0  0  0  0  0  0  0  0
   -6.0992    4.6115    0.1118 O   0  0  0  0  0  0  0  0  0  0  0  0
   -5.1492    2.2639    0.4213 O   0  0  0  0  0  0  0  0  0  0  0  0
   -4.1863    4.1466    1.6511 O   0  0  0  0  0  0  0  0  0  0  0  0
   -4.2806    5.1099    1.7429 H   0  0  0  0  0  0  0  0  0  0  0  0
  1  2  1  0  0  0  0
  1 10  2  0  0  0  0
  2  3  1  0  0  0  0
  4  1  1  0  0  0  0
  5  4  2  0  0  0  0
  5  6  1  0  0  0  0
  6  9  2  0  0  0  0
  7  6  1  0  0  0  0
  7  8  1  0  0  0  0
  8 15  1  0  0  0  0
  9 10  1  0  0  0  0
  9 16  1  0  0  0  0
 10 17  1  0  0  0  0
 11 19  1  0  0  0  0
 12  5  1  0  0  0  0
 13  8  1  0  0  0  0
 14  8  1  0  0  0  0
 18 21  2  0  0  0  0
 18 22  1  0  0  0  0
 19 18  1  0  0  0  0
 20 18  2  0  0  0  0
 22 23  1  0  0  0  0
M  RAD  3   2   2   3   3   4   2
M  END
