Coordinates from ORCA-job 4-MeOPhN2+~HSO4-_B3LYPG-6-31G_dp-CH-Scan-d09-49-n800
 OpenBabel11261919063D

 23 22  0  0  0  0  0  0  0  0999 V2000
   -1.4824   -0.1238   -0.1645 C   0  0  0  0  0  0  0  0  0  0  0  0
   -2.8555   -0.2185   -0.0728 N   0  0  0  0  0  0  0  0  0  0  0  0
   -3.9759   -0.2474   -0.0239 N   0  0  0  0  0  0  0  0  0  0  0  0
   -1.0274    1.1129   -0.6803 C   0  0  0  0  0  0  0  0  0  0  0  0
    0.3798    1.1128   -0.7427 C   0  0  0  0  0  0  0  0  0  0  0  0
    1.1897    0.0379   -0.3456 C   0  0  0  0  0  0  0  0  0  0  0  0
    2.5280    0.2140   -0.4736 O   0  0  0  0  0  0  0  0  0  0  0  0
    3.4172   -0.8292   -0.0939 C   0  0  0  0  0  0  0  0  0  0  0  0
    0.6229   -1.1667    0.1632 C   0  0  0  0  0  0  0  0  0  0  0  0
   -0.7453   -1.2617    0.2600 C   0  0  0  0  0  0  0  0  0  0  0  0
   -3.9150    4.1882   -1.0447 H   0  0  0  0  0  0  0  0  0  0  0  0
    0.9144    1.9868   -1.1177 H   0  0  0  0  0  0  0  0  0  0  0  0
    4.4213   -0.4499   -0.2890 H   0  0  0  0  0  0  0  0  0  0  0  0
    3.2547   -1.7360   -0.6887 H   0  0  0  0  0  0  0  0  0  0  0  0
    3.3254   -1.0716    0.9719 H   0  0  0  0  0  0  0  0  0  0  0  0
    1.2456   -1.9970    0.4709 H   0  0  0  0  0  0  0  0  0  0  0  0
   -1.2253   -2.1601    0.6412 H   0  0  0  0  0  0  0  0  0  0  0  0
   -5.4794    3.9321    0.3955 S   0  0  0  0  0  0  0  0  0  0  0  0
   -4.7054    4.7019   -0.8033 O   0  0  0  0  0  0  0  0  0  0  0  0
   -6.7930    4.5357    0.4566 O   0  0  0  0  0  0  0  0  0  0  0  0
   -5.2427    2.5096    0.2792 O   0  0  0  0  0  0  0  0  0  0  0  0
   -4.6296    4.4088    1.6979 O   0  0  0  0  0  0  0  0  0  0  0  0
   -4.9645    5.2809    1.9681 H   0  0  0  0  0  0  0  0  0  0  0  0
  1  2  1  0  0  0  0
  1 10  2  0  0  0  0
  2  3  1  0  0  0  0
  4  1  1  0  0  0  0
  5  4  2  0  0  0  0
  5  6  1  0  0  0  0
  6  9  2  0  0  0  0
  7  6  1  0  0  0  0
  7  8  1  0  0  0  0
  8 15  1  0  0  0  0
  9 10  1  0  0  0  0
  9 16  1  0  0  0  0
 10 17  1  0  0  0  0
 11 19  1  0  0  0  0
 12  5  1  0  0  0  0
 13  8  1  0  0  0  0
 14  8  1  0  0  0  0
 18 20  2  0  0  0  0
 18 22  1  0  0  0  0
 19 18  1  0  0  0  0
 21 18  2  0  0  0  0
 22 23  1  0  0  0  0
M  RAD  3   2   2   3   3   4   2
M  END
