Coordinates from ORCA-job 4-MeOPhN2+~HSO4-_B3LYPG-6-31G_dp-CH-Scan-d09-49-n800
 OpenBabel11261919063D

 23 22  0  0  0  0  0  0  0  0999 V2000
   -1.5560   -0.1220   -0.1270 C   0  0  0  0  0  0  0  0  0  0  0  0
   -2.9257   -0.2494   -0.0325 N   0  0  0  0  0  0  0  0  0  0  0  0
   -4.0444   -0.3079    0.0228 N   0  0  0  0  0  0  0  0  0  0  0  0
   -1.1243    1.1433   -0.5923 C   0  0  0  0  0  0  0  0  0  0  0  0
    0.2818    1.1717   -0.6607 C   0  0  0  0  0  0  0  0  0  0  0  0
    1.1132    0.0957   -0.3133 C   0  0  0  0  0  0  0  0  0  0  0  0
    2.4470    0.3012   -0.4410 O   0  0  0  0  0  0  0  0  0  0  0  0
    3.3569   -0.7417   -0.1124 C   0  0  0  0  0  0  0  0  0  0  0  0
    0.5708   -1.1389    0.1470 C   0  0  0  0  0  0  0  0  0  0  0  0
   -0.7950   -1.2623    0.2458 C   0  0  0  0  0  0  0  0  0  0  0  0
   -3.7275    4.0041   -1.0398 H   0  0  0  0  0  0  0  0  0  0  0  0
    0.7985    2.0702   -1.0009 H   0  0  0  0  0  0  0  0  0  0  0  0
    4.3527   -0.3376   -0.2993 H   0  0  0  0  0  0  0  0  0  0  0  0
    3.2039   -1.6256   -0.7431 H   0  0  0  0  0  0  0  0  0  0  0  0
    3.2782   -1.0296    0.9430 H   0  0  0  0  0  0  0  0  0  0  0  0
    1.2097   -1.9700    0.4169 H   0  0  0  0  0  0  0  0  0  0  0  0
   -1.2567   -2.1841    0.5919 H   0  0  0  0  0  0  0  0  0  0  0  0
   -5.3438    3.8657    0.3597 S   0  0  0  0  0  0  0  0  0  0  0  0
   -4.5039    4.5564   -0.8408 O   0  0  0  0  0  0  0  0  0  0  0  0
   -6.6185    4.5502    0.3802 O   0  0  0  0  0  0  0  0  0  0  0  0
   -5.1970    2.4283    0.2850 O   0  0  0  0  0  0  0  0  0  0  0  0
   -4.4902    4.3214    1.6676 O   0  0  0  0  0  0  0  0  0  0  0  0
   -4.7724    5.2207    1.9069 H   0  0  0  0  0  0  0  0  0  0  0  0
  1  2  1  0  0  0  0
  1 10  2  0  0  0  0
  2  3  1  0  0  0  0
  4  1  1  0  0  0  0
  5  4  2  0  0  0  0
  5  6  1  0  0  0  0
  6  9  2  0  0  0  0
  7  6  1  0  0  0  0
  7  8  1  0  0  0  0
  8 15  1  0  0  0  0
  9 10  1  0  0  0  0
  9 16  1  0  0  0  0
 10 17  1  0  0  0  0
 11 19  1  0  0  0  0
 12  5  1  0  0  0  0
 13  8  1  0  0  0  0
 14  8  1  0  0  0  0
 18 20  2  0  0  0  0
 18 22  1  0  0  0  0
 19 18  1  0  0  0  0
 21 18  2  0  0  0  0
 22 23  1  0  0  0  0
M  RAD  3   2   2   3   3   4   2
M  END
