Coordinates from ORCA-job 4-MeOPhN2+~HSO4-_B3LYPG-6-31G_dp-CH-Scan-d09-49-n800
 OpenBabel11261919063D

 23 22  0  0  0  0  0  0  0  0999 V2000
   -1.8038   -0.0969   -0.0865 C   0  0  0  0  0  0  0  0  0  0  0  0
   -3.1579   -0.3219   -0.0023 N   0  0  0  0  0  0  0  0  0  0  0  0
   -4.2662   -0.4750    0.0554 N   0  0  0  0  0  0  0  0  0  0  0  0
   -1.4262    1.2236   -0.4351 C   0  0  0  0  0  0  0  0  0  0  0  0
   -0.0300    1.3423   -0.5000 C   0  0  0  0  0  0  0  0  0  0  0  0
    0.8609    0.2848   -0.2507 C   0  0  0  0  0  0  0  0  0  0  0  0
    2.1768    0.5752   -0.3599 O   0  0  0  0  0  0  0  0  0  0  0  0
    3.1474   -0.4415   -0.1313 C   0  0  0  0  0  0  0  0  0  0  0  0
    0.3856   -1.0110    0.0952 C   0  0  0  0  0  0  0  0  0  0  0  0
   -0.9715   -1.2159    0.1805 C   0  0  0  0  0  0  0  0  0  0  0  0
   -3.0903    3.1642   -0.7988 H   0  0  0  0  0  0  0  0  0  0  0  0
    0.4311    2.2950   -0.7578 H   0  0  0  0  0  0  0  0  0  0  0  0
    4.1166    0.0337   -0.2869 H   0  0  0  0  0  0  0  0  0  0  0  0
    3.0347   -1.2716   -0.8386 H   0  0  0  0  0  0  0  0  0  0  0  0
    3.0948   -0.8249    0.8945 H   0  0  0  0  0  0  0  0  0  0  0  0
    1.0676   -1.8286    0.2906 H   0  0  0  0  0  0  0  0  0  0  0  0
   -1.3798   -2.1885    0.4427 H   0  0  0  0  0  0  0  0  0  0  0  0
   -4.8763    3.6400    0.2866 S   0  0  0  0  0  0  0  0  0  0  0  0
   -3.7636    3.8831   -0.8413 O   0  0  0  0  0  0  0  0  0  0  0  0
   -5.9337    4.5928    0.0163 O   0  0  0  0  0  0  0  0  0  0  0  0
   -5.1135    2.2202    0.4599 O   0  0  0  0  0  0  0  0  0  0  0  0
   -4.1019    4.1051    1.6450 O   0  0  0  0  0  0  0  0  0  0  0  0
   -4.1432    5.0755    1.6866 H   0  0  0  0  0  0  0  0  0  0  0  0
  1  2  1  0  0  0  0
  1 10  2  0  0  0  0
  2  3  1  0  0  0  0
  4  1  1  0  0  0  0
  5  4  2  0  0  0  0
  5  6  1  0  0  0  0
  6  9  2  0  0  0  0
  7  6  1  0  0  0  0
  7  8  1  0  0  0  0
  8 15  1  0  0  0  0
  9 10  1  0  0  0  0
  9 16  1  0  0  0  0
 10 17  1  0  0  0  0
 12  5  1  0  0  0  0
 13  8  1  0  0  0  0
 14  8  1  0  0  0  0
 18 21  2  0  0  0  0
 18 22  1  0  0  0  0
 19 11  1  0  0  0  0
 19 18  1  0  0  0  0
 20 18  2  0  0  0  0
 22 23  1  0  0  0  0
M  RAD  3   2   2   3   3   4   2
M  END
