Coordinates from ORCA-job 4-MeOPhN2+~HSO4-_B3LYPG-6-31G_dp-CH-Scan-d09-49-n800
 OpenBabel11261919063D

 23 22  0  0  0  0  0  0  0  0999 V2000
   -1.3515   -0.1031   -0.2469 C   0  0  0  0  0  0  0  0  0  0  0  0
   -2.7287   -0.1312   -0.1663 N   0  0  0  0  0  0  0  0  0  0  0  0
   -3.8499   -0.1021   -0.1327 N   0  0  0  0  0  0  0  0  0  0  0  0
   -0.8449    1.0656   -0.8621 C   0  0  0  0  0  0  0  0  0  0  0  0
    0.5620    1.0059   -0.9078 C   0  0  0  0  0  0  0  0  0  0  0  0
    1.3249   -0.0608   -0.4088 C   0  0  0  0  0  0  0  0  0  0  0  0
    2.6704    0.0513   -0.5357 O   0  0  0  0  0  0  0  0  0  0  0  0
    3.5146   -0.9862   -0.0523 C   0  0  0  0  0  0  0  0  0  0  0  0
    0.7067   -1.1938    0.1960 C   0  0  0  0  0  0  0  0  0  0  0  0
   -0.6651   -1.2277    0.2843 C   0  0  0  0  0  0  0  0  0  0  0  0
   -4.2303    4.4506   -1.0153 H   0  0  0  0  0  0  0  0  0  0  0  0
    1.1339    1.8228   -1.3506 H   0  0  0  0  0  0  0  0  0  0  0  0
    4.5343   -0.6665   -0.2719 H   0  0  0  0  0  0  0  0  0  0  0  0
    3.3199   -1.9376   -0.5618 H   0  0  0  0  0  0  0  0  0  0  0  0
    3.4062   -1.1250    1.0304 H   0  0  0  0  0  0  0  0  0  0  0  0
    1.2937   -2.0173    0.5820 H   0  0  0  0  0  0  0  0  0  0  0  0
   -1.1837   -2.0707    0.7353 H   0  0  0  0  0  0  0  0  0  0  0  0
   -5.7190    4.0316    0.4641 S   0  0  0  0  0  0  0  0  0  0  0  0
   -5.0389    4.9055   -0.7222 O   0  0  0  0  0  0  0  0  0  0  0  0
   -7.0748    4.5231    0.5792 O   0  0  0  0  0  0  0  0  0  0  0  0
   -5.3682    2.6396    0.2845 O   0  0  0  0  0  0  0  0  0  0  0  0
   -4.8766    4.5288    1.7635 O   0  0  0  0  0  0  0  0  0  0  0  0
   -5.2773    5.3568    2.0790 H   0  0  0  0  0  0  0  0  0  0  0  0
  1  2  1  0  0  0  0
  1 10  2  0  0  0  0
  2  3  1  0  0  0  0
  4  1  1  0  0  0  0
  5  4  2  0  0  0  0
  5  6  1  0  0  0  0
  6  9  2  0  0  0  0
  7  6  1  0  0  0  0
  7  8  1  0  0  0  0
  8 15  1  0  0  0  0
  9 10  1  0  0  0  0
  9 16  1  0  0  0  0
 10 17  1  0  0  0  0
 11 19  1  0  0  0  0
 12  5  1  0  0  0  0
 13  8  1  0  0  0  0
 14  8  1  0  0  0  0
 18 20  2  0  0  0  0
 18 22  1  0  0  0  0
 19 18  1  0  0  0  0
 21 18  2  0  0  0  0
 22 23  1  0  0  0  0
M  RAD  3   2   2   3   3   4   2
M  END
