Coordinates from ORCA-job 4-MeOPhN2+~HSO4-_B3LYPG-6-31G_dp-CH-Scan-d09-49-n800
 OpenBabel11261919063D

 23 22  0  0  0  0  0  0  0  0999 V2000
   -1.9229   -0.0699   -0.0818 C   0  0  0  0  0  0  0  0  0  0  0  0
   -3.2682   -0.3368   -0.0136 N   0  0  0  0  0  0  0  0  0  0  0  0
   -4.3695   -0.5304    0.0340 N   0  0  0  0  0  0  0  0  0  0  0  0
   -1.5573    1.2707   -0.3648 C   0  0  0  0  0  0  0  0  0  0  0  0
   -0.1680    1.4234   -0.4220 C   0  0  0  0  0  0  0  0  0  0  0  0
    0.7438    0.3716   -0.2229 C   0  0  0  0  0  0  0  0  0  0  0  0
    2.0504    0.6933   -0.3182 O   0  0  0  0  0  0  0  0  0  0  0  0
    3.0431   -0.3140   -0.1419 C   0  0  0  0  0  0  0  0  0  0  0  0
    0.2906   -0.9453    0.0598 C   0  0  0  0  0  0  0  0  0  0  0  0
   -1.0633   -1.1780    0.1319 C   0  0  0  0  0  0  0  0  0  0  0  0
   -2.7793    2.7257   -0.6135 H   0  0  0  0  0  0  0  0  0  0  0  0
    0.2686    2.3977   -0.6334 H   0  0  0  0  0  0  0  0  0  0  0  0
    4.0011    0.1886   -0.2764 H   0  0  0  0  0  0  0  0  0  0  0  0
    2.9437   -1.1098   -0.8895 H   0  0  0  0  0  0  0  0  0  0  0  0
    3.0007   -0.7471    0.8641 H   0  0  0  0  0  0  0  0  0  0  0  0
    0.9856   -1.7598    0.2179 H   0  0  0  0  0  0  0  0  0  0  0  0
   -1.4530   -2.1691    0.3467 H   0  0  0  0  0  0  0  0  0  0  0  0
   -4.6088    3.5044    0.2682 S   0  0  0  0  0  0  0  0  0  0  0  0
   -3.4137    3.5258   -0.7636 O   0  0  0  0  0  0  0  0  0  0  0  0
   -5.6114    4.4440   -0.2018 O   0  0  0  0  0  0  0  0  0  0  0  0
   -4.9427    2.1360    0.6329 O   0  0  0  0  0  0  0  0  0  0  0  0
   -3.9369    4.1361    1.6218 O   0  0  0  0  0  0  0  0  0  0  0  0
   -3.9752    5.1025    1.5300 H   0  0  0  0  0  0  0  0  0  0  0  0
  1  2  1  0  0  0  0
  1 10  2  0  0  0  0
  2  3  1  0  0  0  0
  4  1  1  0  0  0  0
  5  4  2  0  0  0  0
  5  6  1  0  0  0  0
  6  9  2  0  0  0  0
  7  6  1  0  0  0  0
  7  8  1  0  0  0  0
  8 15  1  0  0  0  0
  9 10  1  0  0  0  0
  9 16  1  0  0  0  0
 10 17  1  0  0  0  0
 12  5  1  0  0  0  0
 13  8  1  0  0  0  0
 14  8  1  0  0  0  0
 18 21  2  0  0  0  0
 18 22  1  0  0  0  0
 19 11  1  0  0  0  0
 19 18  1  0  0  0  0
 20 18  2  0  0  0  0
 23 22  1  0  0  0  0
M  RAD  3   2   2   3   3   4   2
M  END
