Coordinates from ORCA-job 4-MeOPhN2+~HSO4-_B3LYPG-6-31G_dp-CH-Scan-d09-49-n800
 OpenBabel11261919063D

 23 22  0  0  0  0  0  0  0  0999 V2000
   -1.4850   -0.1236   -0.1638 C   0  0  0  0  0  0  0  0  0  0  0  0
   -2.8581   -0.2193   -0.0726 N   0  0  0  0  0  0  0  0  0  0  0  0
   -3.9784   -0.2492   -0.0218 N   0  0  0  0  0  0  0  0  0  0  0  0
   -1.0306    1.1144   -0.6774 C   0  0  0  0  0  0  0  0  0  0  0  0
    0.3766    1.1152   -0.7396 C   0  0  0  0  0  0  0  0  0  0  0  0
    1.1870    0.0400   -0.3442 C   0  0  0  0  0  0  0  0  0  0  0  0
    2.5252    0.2172   -0.4717 O   0  0  0  0  0  0  0  0  0  0  0  0
    3.4151   -0.8262   -0.0938 C   0  0  0  0  0  0  0  0  0  0  0  0
    0.6209   -1.1658    0.1623 C   0  0  0  0  0  0  0  0  0  0  0  0
   -0.7473   -1.2618    0.2588 C   0  0  0  0  0  0  0  0  0  0  0  0
   -3.9112    4.1818   -1.0471 H   0  0  0  0  0  0  0  0  0  0  0  0
    0.9107    1.9902   -1.1130 H   0  0  0  0  0  0  0  0  0  0  0  0
    4.4190   -0.4460   -0.2882 H   0  0  0  0  0  0  0  0  0  0  0  0
    3.2531   -1.7321   -0.6902 H   0  0  0  0  0  0  0  0  0  0  0  0
    3.3233   -1.0706    0.9715 H   0  0  0  0  0  0  0  0  0  0  0  0
    1.2441   -1.9962    0.4686 H   0  0  0  0  0  0  0  0  0  0  0  0
   -1.2268   -2.1611    0.6384 H   0  0  0  0  0  0  0  0  0  0  0  0
   -5.4744    3.9293    0.3950 S   0  0  0  0  0  0  0  0  0  0  0  0
   -4.7008    4.6966   -0.8056 O   0  0  0  0  0  0  0  0  0  0  0  0
   -6.7870    4.5348    0.4570 O   0  0  0  0  0  0  0  0  0  0  0  0
   -5.2398    2.5063    0.2802 O   0  0  0  0  0  0  0  0  0  0  0  0
   -4.6224    4.4064    1.6959 O   0  0  0  0  0  0  0  0  0  0  0  0
   -4.9558    5.2793    1.9653 H   0  0  0  0  0  0  0  0  0  0  0  0
  1  2  1  0  0  0  0
  1 10  2  0  0  0  0
  2  3  1  0  0  0  0
  4  1  1  0  0  0  0
  5  4  2  0  0  0  0
  5  6  1  0  0  0  0
  6  9  2  0  0  0  0
  7  6  1  0  0  0  0
  7  8  1  0  0  0  0
  8 15  1  0  0  0  0
  9 10  1  0  0  0  0
  9 16  1  0  0  0  0
 10 17  1  0  0  0  0
 11 19  1  0  0  0  0
 12  5  1  0  0  0  0
 13  8  1  0  0  0  0
 14  8  1  0  0  0  0
 18 20  2  0  0  0  0
 18 22  1  0  0  0  0
 19 18  1  0  0  0  0
 21 18  2  0  0  0  0
 22 23  1  0  0  0  0
M  RAD  3   2   2   3   3   4   2
M  END
