Coordinates from ORCA-job 4-MeOPhN2+~HSO4-_B3LYPG-6-31G_dp-CH-Scan-d09-49-n800
 OpenBabel11261919063D

 23 22  0  0  0  0  0  0  0  0999 V2000
   -1.7567   -0.1074   -0.0949 C   0  0  0  0  0  0  0  0  0  0  0  0
   -3.1142   -0.3155   -0.0087 N   0  0  0  0  0  0  0  0  0  0  0  0
   -4.2251   -0.4511    0.0487 N   0  0  0  0  0  0  0  0  0  0  0  0
   -1.3719    1.2044   -0.4668 C   0  0  0  0  0  0  0  0  0  0  0  0
    0.0267    1.3085   -0.5317 C   0  0  0  0  0  0  0  0  0  0  0  0
    0.9083    0.2485   -0.2626 C   0  0  0  0  0  0  0  0  0  0  0  0
    2.2277    0.5255   -0.3748 O   0  0  0  0  0  0  0  0  0  0  0  0
    3.1886   -0.4951   -0.1261 C   0  0  0  0  0  0  0  0  0  0  0  0
    0.4225   -1.0378    0.1056 C   0  0  0  0  0  0  0  0  0  0  0  0
   -0.9363   -1.2303    0.1932 C   0  0  0  0  0  0  0  0  0  0  0  0
   -3.2106    3.3226   -0.8606 H   0  0  0  0  0  0  0  0  0  0  0  0
    0.4974    2.2525   -0.8056 H   0  0  0  0  0  0  0  0  0  0  0  0
    4.1624   -0.0314   -0.2877 H   0  0  0  0  0  0  0  0  0  0  0  0
    3.0706   -1.3369   -0.8185 H   0  0  0  0  0  0  0  0  0  0  0  0
    3.1307   -0.8602    0.9062 H   0  0  0  0  0  0  0  0  0  0  0  0
    1.0980   -1.8570    0.3158 H   0  0  0  0  0  0  0  0  0  0  0  0
   -1.3531   -2.1948    0.4718 H   0  0  0  0  0  0  0  0  0  0  0  0
   -4.9704    3.6892    0.3038 S   0  0  0  0  0  0  0  0  0  0  0  0
   -3.9018    4.0178   -0.8520 O   0  0  0  0  0  0  0  0  0  0  0  0
   -6.0690    4.6099    0.0966 O   0  0  0  0  0  0  0  0  0  0  0  0
   -5.1433    2.2562    0.4287 O   0  0  0  0  0  0  0  0  0  0  0  0
   -4.1693    4.1386    1.6502 O   0  0  0  0  0  0  0  0  0  0  0  0
   -4.2537    5.1036    1.7333 H   0  0  0  0  0  0  0  0  0  0  0  0
  1  2  1  0  0  0  0
  1 10  2  0  0  0  0
  2  3  1  0  0  0  0
  4  1  1  0  0  0  0
  5  4  2  0  0  0  0
  5  6  1  0  0  0  0
  6  9  2  0  0  0  0
  7  6  1  0  0  0  0
  7  8  1  0  0  0  0
  8 15  1  0  0  0  0
  9 10  1  0  0  0  0
  9 16  1  0  0  0  0
 10 17  1  0  0  0  0
 11 19  1  0  0  0  0
 12  5  1  0  0  0  0
 13  8  1  0  0  0  0
 14  8  1  0  0  0  0
 18 21  2  0  0  0  0
 18 22  1  0  0  0  0
 19 18  1  0  0  0  0
 20 18  2  0  0  0  0
 22 23  1  0  0  0  0
M  RAD  3   2   2   3   3   4   2
M  END
