Coordinates from ORCA-job 4-MeOPhN2+~HSO4-_B3LYPG-6-31G_dp-CH-Scan-d09-49-n800
 OpenBabel11261919063D

 23 22  0  0  0  0  0  0  0  0999 V2000
   -1.9637   -0.0322   -0.1010 C   0  0  0  0  0  0  0  0  0  0  0  0
   -3.3102   -0.2906   -0.0501 N   0  0  0  0  0  0  0  0  0  0  0  0
   -4.4110   -0.4828   -0.0145 N   0  0  0  0  0  0  0  0  0  0  0  0
   -1.5668    1.3075   -0.3358 C   0  0  0  0  0  0  0  0  0  0  0  0
   -0.1831    1.4610   -0.3847 C   0  0  0  0  0  0  0  0  0  0  0  0
    0.7182    0.3928   -0.2175 C   0  0  0  0  0  0  0  0  0  0  0  0
    2.0247    0.7059   -0.2967 O   0  0  0  0  0  0  0  0  0  0  0  0
    3.0101   -0.3145   -0.1463 C   0  0  0  0  0  0  0  0  0  0  0  0
    0.2478   -0.9258    0.0173 C   0  0  0  0  0  0  0  0  0  0  0  0
   -1.1094   -1.1483    0.0755 C   0  0  0  0  0  0  0  0  0  0  0  0
   -2.5624    2.5119   -0.4955 H   0  0  0  0  0  0  0  0  0  0  0  0
    0.2524    2.4419   -0.5595 H   0  0  0  0  0  0  0  0  0  0  0  0
    3.9717    0.1860   -0.2586 H   0  0  0  0  0  0  0  0  0  0  0  0
    2.9088   -1.0842   -0.9202 H   0  0  0  0  0  0  0  0  0  0  0  0
    2.9566   -0.7779    0.8453 H   0  0  0  0  0  0  0  0  0  0  0  0
    0.9326   -1.7532    0.1504 H   0  0  0  0  0  0  0  0  0  0  0  0
   -1.5080   -2.1425    0.2543 H   0  0  0  0  0  0  0  0  0  0  0  0
   -4.4624    3.4257    0.3144 S   0  0  0  0  0  0  0  0  0  0  0  0
   -3.2449    3.4171   -0.6462 O   0  0  0  0  0  0  0  0  0  0  0  0
   -5.5829    4.1277   -0.2996 O   0  0  0  0  0  0  0  0  0  0  0  0
   -4.6517    2.1013    0.9067 O   0  0  0  0  0  0  0  0  0  0  0  0
   -3.9578    4.3658    1.5676 O   0  0  0  0  0  0  0  0  0  0  0  0
   -4.2511    5.2672    1.3586 H   0  0  0  0  0  0  0  0  0  0  0  0
  1  2  1  0  0  0  0
  1 10  2  0  0  0  0
  2  3  1  0  0  0  0
  4  1  1  0  0  0  0
  5  4  2  0  0  0  0
  5  6  1  0  0  0  0
  6  9  2  0  0  0  0
  7  6  1  0  0  0  0
  7  8  1  0  0  0  0
  8 15  1  0  0  0  0
  9 10  1  0  0  0  0
  9 16  1  0  0  0  0
 10 17  1  0  0  0  0
 12  5  1  0  0  0  0
 13  8  1  0  0  0  0
 14  8  1  0  0  0  0
 18 21  2  0  0  0  0
 18 22  1  0  0  0  0
 19 11  1  0  0  0  0
 19 18  1  0  0  0  0
 20 18  2  0  0  0  0
 23 22  1  0  0  0  0
M  RAD  3   2   2   3   3   4   2
M  END
