Coordinates from ORCA-job 4-MeOPhN2+~HSO4-_B3LYPG-6-31G_dp-CH-Scan-d09-49-n800
 OpenBabel11261919063D

 23 22  0  0  0  0  0  0  0  0999 V2000
   -1.5339   -0.1235   -0.1408 C   0  0  0  0  0  0  0  0  0  0  0  0
   -2.9048   -0.2413   -0.0482 N   0  0  0  0  0  0  0  0  0  0  0  0
   -4.0242   -0.2910    0.0051 N   0  0  0  0  0  0  0  0  0  0  0  0
   -1.0952    1.1331   -0.6226 C   0  0  0  0  0  0  0  0  0  0  0  0
    0.3114    1.1530   -0.6880 C   0  0  0  0  0  0  0  0  0  0  0  0
    1.1362    0.0776   -0.3235 C   0  0  0  0  0  0  0  0  0  0  0  0
    2.4716    0.2745   -0.4504 O   0  0  0  0  0  0  0  0  0  0  0  0
    3.3751   -0.7681   -0.1040 C   0  0  0  0  0  0  0  0  0  0  0  0
    0.5864   -1.1477    0.1525 C   0  0  0  0  0  0  0  0  0  0  0  0
   -0.7803   -1.2628    0.2497 C   0  0  0  0  0  0  0  0  0  0  0  0
   -3.7916    4.0689   -1.0489 H   0  0  0  0  0  0  0  0  0  0  0  0
    0.8337    2.0439   -1.0394 H   0  0  0  0  0  0  0  0  0  0  0  0
    4.3737   -0.3714   -0.2929 H   0  0  0  0  0  0  0  0  0  0  0  0
    3.2203   -1.6599   -0.7231 H   0  0  0  0  0  0  0  0  0  0  0  0
    3.2913   -1.0411    0.9550 H   0  0  0  0  0  0  0  0  0  0  0  0
    1.2203   -1.9783    0.4354 H   0  0  0  0  0  0  0  0  0  0  0  0
   -1.2476   -2.1774    0.6071 H   0  0  0  0  0  0  0  0  0  0  0  0
   -5.3832    3.8849    0.3732 S   0  0  0  0  0  0  0  0  0  0  0  0
   -4.5733    4.6061   -0.8308 O   0  0  0  0  0  0  0  0  0  0  0  0
   -6.6736    4.5384    0.4142 O   0  0  0  0  0  0  0  0  0  0  0  0
   -5.2017    2.4524    0.2828 O   0  0  0  0  0  0  0  0  0  0  0  0
   -4.5257    4.3498    1.6751 O   0  0  0  0  0  0  0  0  0  0  0  0
   -4.8272    5.2395    1.9265 H   0  0  0  0  0  0  0  0  0  0  0  0
  1  2  1  0  0  0  0
  1 10  2  0  0  0  0
  2  3  1  0  0  0  0
  4  1  1  0  0  0  0
  5  4  2  0  0  0  0
  5  6  1  0  0  0  0
  6  9  2  0  0  0  0
  7  6  1  0  0  0  0
  7  8  1  0  0  0  0
  8 15  1  0  0  0  0
  9 10  1  0  0  0  0
  9 16  1  0  0  0  0
 10 17  1  0  0  0  0
 11 19  1  0  0  0  0
 12  5  1  0  0  0  0
 13  8  1  0  0  0  0
 14  8  1  0  0  0  0
 18 20  2  0  0  0  0
 18 22  1  0  0  0  0
 19 18  1  0  0  0  0
 21 18  2  0  0  0  0
 22 23  1  0  0  0  0
M  RAD  3   2   2   3   3   4   2
M  END
