Coordinates from ORCA-job 4-MeOPhN2+~HSO4-_B3LYPG-6-31G_dp-CH-Scan-d09-49-n800
 OpenBabel11261919063D

 23 22  0  0  0  0  0  0  0  0999 V2000
   -1.9722    0.0136   -0.1130 C   0  0  0  0  0  0  0  0  0  0  0  0
   -3.3232   -0.2125   -0.0629 N   0  0  0  0  0  0  0  0  0  0  0  0
   -4.4279   -0.3727   -0.0248 N   0  0  0  0  0  0  0  0  0  0  0  0
   -1.5262    1.3355   -0.3456 C   0  0  0  0  0  0  0  0  0  0  0  0
   -0.1493    1.4831   -0.3967 C   0  0  0  0  0  0  0  0  0  0  0  0
    0.7308    0.3956   -0.2275 C   0  0  0  0  0  0  0  0  0  0  0  0
    2.0395    0.6858   -0.3031 O   0  0  0  0  0  0  0  0  0  0  0  0
    3.0092   -0.3504   -0.1439 C   0  0  0  0  0  0  0  0  0  0  0  0
    0.2311   -0.9108    0.0044 C   0  0  0  0  0  0  0  0  0  0  0  0
   -1.1317   -1.1096    0.0602 C   0  0  0  0  0  0  0  0  0  0  0  0
   -2.3994    2.3959   -0.4834 H   0  0  0  0  0  0  0  0  0  0  0  0
    0.2903    2.4609   -0.5693 H   0  0  0  0  0  0  0  0  0  0  0  0
    3.9782    0.1362   -0.2512 H   0  0  0  0  0  0  0  0  0  0  0  0
    2.8997   -1.1189   -0.9174 H   0  0  0  0  0  0  0  0  0  0  0  0
    2.9406   -0.8090    0.8487 H   0  0  0  0  0  0  0  0  0  0  0  0
    0.8985   -1.7521    0.1382 H   0  0  0  0  0  0  0  0  0  0  0  0
   -1.5466   -2.0966    0.2378 H   0  0  0  0  0  0  0  0  0  0  0  0
   -4.4190    3.3945    0.3314 S   0  0  0  0  0  0  0  0  0  0  0  0
   -3.2331    3.4491   -0.6226 O   0  0  0  0  0  0  0  0  0  0  0  0
   -5.6449    3.9265   -0.2658 O   0  0  0  0  0  0  0  0  0  0  0  0
   -4.4763    2.0883    1.0111 O   0  0  0  0  0  0  0  0  0  0  0  0
   -4.0185    4.4544    1.5374 O   0  0  0  0  0  0  0  0  0  0  0  0
   -4.4921    5.2729    1.3220 H   0  0  0  0  0  0  0  0  0  0  0  0
  1  2  1  0  0  0  0
  1 10  2  0  0  0  0
  2  3  1  0  0  0  0
  4  1  1  0  0  0  0
  5  4  2  0  0  0  0
  5  6  1  0  0  0  0
  6  9  2  0  0  0  0
  7  6  1  0  0  0  0
  7  8  1  0  0  0  0
  8 15  1  0  0  0  0
  9 10  1  0  0  0  0
  9 16  1  0  0  0  0
 10 17  1  0  0  0  0
 12  5  1  0  0  0  0
 13  8  1  0  0  0  0
 14  8  1  0  0  0  0
 18 21  2  0  0  0  0
 18 22  1  0  0  0  0
 19 11  1  0  0  0  0
 19 18  1  0  0  0  0
 20 18  2  0  0  0  0
 23 22  1  0  0  0  0
M  RAD  3   2   2   3   3   4   2
M  END
