Coordinates from ORCA-job 4-MeOPhN2+~HSO4-_B3LYPG-6-31G_dp-CH-Scan-d09-49-n800
 OpenBabel11261919063D

 23 22  0  0  0  0  0  0  0  0999 V2000
   -1.7682   -0.1054   -0.0936 C   0  0  0  0  0  0  0  0  0  0  0  0
   -3.1249   -0.3176   -0.0079 N   0  0  0  0  0  0  0  0  0  0  0  0
   -4.2352   -0.4574    0.0493 N   0  0  0  0  0  0  0  0  0  0  0  0
   -1.3853    1.2085   -0.4603 C   0  0  0  0  0  0  0  0  0  0  0  0
    0.0128    1.3164   -0.5250 C   0  0  0  0  0  0  0  0  0  0  0  0
    0.8967    0.2572   -0.2601 C   0  0  0  0  0  0  0  0  0  0  0  0
    2.2152    0.5377   -0.3714 O   0  0  0  0  0  0  0  0  0  0  0  0
    3.1786   -0.4817   -0.1267 C   0  0  0  0  0  0  0  0  0  0  0  0
    0.4136   -1.0314    0.1032 C   0  0  0  0  0  0  0  0  0  0  0  0
   -0.9448   -1.2271    0.1901 C   0  0  0  0  0  0  0  0  0  0  0  0
   -3.1819    3.2843   -0.8466 H   0  0  0  0  0  0  0  0  0  0  0  0
    0.4810    2.2624   -0.7954 H   0  0  0  0  0  0  0  0  0  0  0  0
    4.1512   -0.0152   -0.2869 H   0  0  0  0  0  0  0  0  0  0  0  0
    3.0623   -1.3211   -0.8224 H   0  0  0  0  0  0  0  0  0  0  0  0
    3.1217   -0.8508    0.9042 H   0  0  0  0  0  0  0  0  0  0  0  0
    1.0908   -1.8500    0.3104 H   0  0  0  0  0  0  0  0  0  0  0  0
   -1.3594   -2.1935    0.4651 H   0  0  0  0  0  0  0  0  0  0  0  0
   -4.9477    3.6776    0.3003 S   0  0  0  0  0  0  0  0  0  0  0  0
   -3.8686    3.9855   -0.8499 O   0  0  0  0  0  0  0  0  0  0  0  0
   -6.0364    4.6069    0.0787 O   0  0  0  0  0  0  0  0  0  0  0  0
   -5.1363    2.2475    0.4369 O   0  0  0  0  0  0  0  0  0  0  0  0
   -4.1520    4.1302    1.6492 O   0  0  0  0  0  0  0  0  0  0  0  0
   -4.2258    5.0968    1.7225 H   0  0  0  0  0  0  0  0  0  0  0  0
  1  2  1  0  0  0  0
  1 10  2  0  0  0  0
  2  3  1  0  0  0  0
  4  1  1  0  0  0  0
  5  4  2  0  0  0  0
  5  6  1  0  0  0  0
  6  9  2  0  0  0  0
  7  6  1  0  0  0  0
  7  8  1  0  0  0  0
  8 15  1  0  0  0  0
  9 10  1  0  0  0  0
  9 16  1  0  0  0  0
 10 17  1  0  0  0  0
 12  5  1  0  0  0  0
 13  8  1  0  0  0  0
 14  8  1  0  0  0  0
 18 21  2  0  0  0  0
 18 22  1  0  0  0  0
 19 11  1  0  0  0  0
 19 18  1  0  0  0  0
 20 18  2  0  0  0  0
 22 23  1  0  0  0  0
M  RAD  3   2   2   3   3   4   2
M  END
