Coordinates from ORCA-job 4-MeOPhN2+~HSO4-_B3LYPG-6-31G_dp-CH-Scan-d09-49-n800
 OpenBabel11261919063D

 23 22  0  0  0  0  0  0  0  0999 V2000
   -1.5632   -0.1216   -0.1221 C   0  0  0  0  0  0  0  0  0  0  0  0
   -2.9327   -0.2519   -0.0280 N   0  0  0  0  0  0  0  0  0  0  0  0
   -4.0512   -0.3128    0.0284 N   0  0  0  0  0  0  0  0  0  0  0  0
   -1.1338    1.1473   -0.5796 C   0  0  0  0  0  0  0  0  0  0  0  0
    0.2721    1.1790   -0.6485 C   0  0  0  0  0  0  0  0  0  0  0  0
    1.1055    0.1022   -0.3086 C   0  0  0  0  0  0  0  0  0  0  0  0
    2.4388    0.3109   -0.4360 O   0  0  0  0  0  0  0  0  0  0  0  0
    3.3508   -0.7327   -0.1151 C   0  0  0  0  0  0  0  0  0  0  0  0
    0.5656   -1.1362    0.1441 C   0  0  0  0  0  0  0  0  0  0  0  0
   -0.7999   -1.2628    0.2430 C   0  0  0  0  0  0  0  0  0  0  0  0
   -3.7122    3.9738   -1.0424 H   0  0  0  0  0  0  0  0  0  0  0  0
    0.7869    2.0806   -0.9832 H   0  0  0  0  0  0  0  0  0  0  0  0
    4.3458   -0.3257   -0.3006 H   0  0  0  0  0  0  0  0  0  0  0  0
    3.1984   -1.6127   -0.7512 H   0  0  0  0  0  0  0  0  0  0  0  0
    3.2738   -1.0273    0.9386 H   0  0  0  0  0  0  0  0  0  0  0  0
    1.2061   -1.9679    0.4084 H   0  0  0  0  0  0  0  0  0  0  0  0
   -1.2597   -2.1875    0.5835 H   0  0  0  0  0  0  0  0  0  0  0  0
   -5.3304    3.8601    0.3562 S   0  0  0  0  0  0  0  0  0  0  0  0
   -4.4812    4.5371   -0.8453 O   0  0  0  0  0  0  0  0  0  0  0  0
   -6.5989    4.5563    0.3707 O   0  0  0  0  0  0  0  0  0  0  0  0
   -5.1967    2.4209    0.2887 O   0  0  0  0  0  0  0  0  0  0  0  0
   -4.4761    4.3138    1.6643 O   0  0  0  0  0  0  0  0  0  0  0  0
   -4.7504    5.2168    1.8985 H   0  0  0  0  0  0  0  0  0  0  0  0
  1  2  1  0  0  0  0
  1 10  2  0  0  0  0
  2  3  1  0  0  0  0
  4  1  1  0  0  0  0
  5  4  2  0  0  0  0
  5  6  1  0  0  0  0
  6  9  2  0  0  0  0
  7  6  1  0  0  0  0
  7  8  1  0  0  0  0
  8 15  1  0  0  0  0
  9 10  1  0  0  0  0
  9 16  1  0  0  0  0
 10 17  1  0  0  0  0
 11 19  1  0  0  0  0
 12  5  1  0  0  0  0
 13  8  1  0  0  0  0
 14  8  1  0  0  0  0
 18 20  2  0  0  0  0
 18 22  1  0  0  0  0
 19 18  1  0  0  0  0
 21 18  2  0  0  0  0
 22 23  1  0  0  0  0
M  RAD  3   2   2   3   3   4   2
M  END
