Coordinates from ORCA-job 4-MeOPhN2+~HSO4-_B3LYPG-6-31G_dp-CH-Scan-d09-49-n800
 OpenBabel11261919063D

 23 22  0  0  0  0  0  0  0  0999 V2000
   -1.9710   -0.0142   -0.1062 C   0  0  0  0  0  0  0  0  0  0  0  0
   -3.3188   -0.2624   -0.0567 N   0  0  0  0  0  0  0  0  0  0  0  0
   -4.4205   -0.4467   -0.0208 N   0  0  0  0  0  0  0  0  0  0  0  0
   -1.5559    1.3193   -0.3392 C   0  0  0  0  0  0  0  0  0  0  0  0
   -0.1751    1.4715   -0.3886 C   0  0  0  0  0  0  0  0  0  0  0  0
    0.7190    0.3966   -0.2213 C   0  0  0  0  0  0  0  0  0  0  0  0
    2.0261    0.7019   -0.2990 O   0  0  0  0  0  0  0  0  0  0  0  0
    3.0063   -0.3239   -0.1456 C   0  0  0  0  0  0  0  0  0  0  0  0
    0.2383   -0.9179    0.0118 C   0  0  0  0  0  0  0  0  0  0  0  0
   -1.1209   -1.1325    0.0686 C   0  0  0  0  0  0  0  0  0  0  0  0
   -2.4936    2.4559   -0.4849 H   0  0  0  0  0  0  0  0  0  0  0  0
    0.2609    2.4518   -0.5617 H   0  0  0  0  0  0  0  0  0  0  0  0
    3.9704    0.1722   -0.2561 H   0  0  0  0  0  0  0  0  0  0  0  0
    2.9024   -1.0930   -0.9195 H   0  0  0  0  0  0  0  0  0  0  0  0
    2.9476   -0.7857    0.8463 H   0  0  0  0  0  0  0  0  0  0  0  0
    0.9170   -1.7503    0.1449 H   0  0  0  0  0  0  0  0  0  0  0  0
   -1.5250   -2.1243    0.2464 H   0  0  0  0  0  0  0  0  0  0  0  0
   -4.4351    3.4091    0.3215 S   0  0  0  0  0  0  0  0  0  0  0  0
   -3.2241    3.4176   -0.6284 O   0  0  0  0  0  0  0  0  0  0  0  0
   -5.5949    4.0471   -0.2953 O   0  0  0  0  0  0  0  0  0  0  0  0
   -4.5799    2.0926    0.9524 O   0  0  0  0  0  0  0  0  0  0  0  0
   -3.9736    4.4018    1.5554 O   0  0  0  0  0  0  0  0  0  0  0  0
   -4.3420    5.2733    1.3400 H   0  0  0  0  0  0  0  0  0  0  0  0
  1  2  1  0  0  0  0
  1 10  2  0  0  0  0
  2  3  1  0  0  0  0
  4  1  1  0  0  0  0
  5  4  2  0  0  0  0
  5  6  1  0  0  0  0
  6  9  2  0  0  0  0
  7  6  1  0  0  0  0
  7  8  1  0  0  0  0
  8 15  1  0  0  0  0
  9 10  1  0  0  0  0
  9 16  1  0  0  0  0
 10 17  1  0  0  0  0
 12  5  1  0  0  0  0
 13  8  1  0  0  0  0
 14  8  1  0  0  0  0
 18 21  2  0  0  0  0
 18 22  1  0  0  0  0
 19 11  1  0  0  0  0
 19 18  1  0  0  0  0
 20 18  2  0  0  0  0
 23 22  1  0  0  0  0
M  RAD  3   2   2   3   3   4   2
M  END
