Coordinates from ORCA-job 4-MeOPhN2+~HSO4-_B3LYPG-6-31G_dp-CH-Scan-d09-49-n800
 OpenBabel11261919063D

 23 22  0  0  0  0  0  0  0  0999 V2000
   -1.4995   -0.1246   -0.1583 C   0  0  0  0  0  0  0  0  0  0  0  0
   -2.8720   -0.2265   -0.0671 N   0  0  0  0  0  0  0  0  0  0  0  0
   -3.9921   -0.2614   -0.0169 N   0  0  0  0  0  0  0  0  0  0  0  0
   -1.0500    1.1184   -0.6642 C   0  0  0  0  0  0  0  0  0  0  0  0
    0.3571    1.1252   -0.7269 C   0  0  0  0  0  0  0  0  0  0  0  0
    1.1719    0.0506   -0.3389 C   0  0  0  0  0  0  0  0  0  0  0  0
    2.5093    0.2338   -0.4661 O   0  0  0  0  0  0  0  0  0  0  0  0
    3.4034   -0.8087   -0.0957 C   0  0  0  0  0  0  0  0  0  0  0  0
    0.6108   -1.1605    0.1602 C   0  0  0  0  0  0  0  0  0  0  0  0
   -0.7570   -1.2624    0.2567 C   0  0  0  0  0  0  0  0  0  0  0  0
   -3.8772    4.1514   -1.0484 H   0  0  0  0  0  0  0  0  0  0  0  0
    0.8876    2.0046   -1.0949 H   0  0  0  0  0  0  0  0  0  0  0  0
    4.4057   -0.4235   -0.2886 H   0  0  0  0  0  0  0  0  0  0  0  0
    3.2441   -1.7113   -0.6977 H   0  0  0  0  0  0  0  0  0  0  0  0
    3.3135   -1.0602    0.9681 H   0  0  0  0  0  0  0  0  0  0  0  0
    1.2373   -1.9905    0.4610 H   0  0  0  0  0  0  0  0  0  0  0  0
   -1.2328   -2.1660    0.6308 H   0  0  0  0  0  0  0  0  0  0  0  0
   -5.4470    3.9165    0.3895 S   0  0  0  0  0  0  0  0  0  0  0  0
   -4.6643    4.6725   -0.8121 O   0  0  0  0  0  0  0  0  0  0  0  0
   -6.7541    4.5342    0.4470 O   0  0  0  0  0  0  0  0  0  0  0  0
   -5.2256    2.4910    0.2800 O   0  0  0  0  0  0  0  0  0  0  0  0
   -4.5931    4.3900    1.6905 O   0  0  0  0  0  0  0  0  0  0  0  0
   -4.9185    5.2671    1.9559 H   0  0  0  0  0  0  0  0  0  0  0  0
  1  2  1  0  0  0  0
  1 10  2  0  0  0  0
  2  3  1  0  0  0  0
  4  1  1  0  0  0  0
  5  4  2  0  0  0  0
  5  6  1  0  0  0  0
  6  9  2  0  0  0  0
  7  6  1  0  0  0  0
  7  8  1  0  0  0  0
  8 15  1  0  0  0  0
  9 10  1  0  0  0  0
  9 16  1  0  0  0  0
 10 17  1  0  0  0  0
 11 19  1  0  0  0  0
 12  5  1  0  0  0  0
 13  8  1  0  0  0  0
 14  8  1  0  0  0  0
 18 20  2  0  0  0  0
 18 22  1  0  0  0  0
 19 18  1  0  0  0  0
 21 18  2  0  0  0  0
 22 23  1  0  0  0  0
M  RAD  3   2   2   3   3   4   2
M  END
