Coordinates from ORCA-job 4-MeOPhN2+~HSO4-_B3LYPG-6-31G_dp-CH-Scan-d09-49-n800
 OpenBabel11261919063D

 23 22  0  0  0  0  0  0  0  0999 V2000
   -1.8750   -0.0772   -0.0517 C   0  0  0  0  0  0  0  0  0  0  0  0
   -3.2230   -0.3276    0.0383 N   0  0  0  0  0  0  0  0  0  0  0  0
   -4.3266   -0.5053    0.1040 N   0  0  0  0  0  0  0  0  0  0  0  0
   -1.5078    1.2577   -0.3575 C   0  0  0  0  0  0  0  0  0  0  0  0
   -0.1160    1.3960   -0.4318 C   0  0  0  0  0  0  0  0  0  0  0  0
    0.7894    0.3400   -0.2288 C   0  0  0  0  0  0  0  0  0  0  0  0
    2.0987    0.6495   -0.3420 O   0  0  0  0  0  0  0  0  0  0  0  0
    3.0844   -0.3634   -0.1627 C   0  0  0  0  0  0  0  0  0  0  0  0
    0.3301   -0.9706    0.0763 C   0  0  0  0  0  0  0  0  0  0  0  0
   -1.0243   -1.1920    0.1674 C   0  0  0  0  0  0  0  0  0  0  0  0
   -2.8743    2.8989   -0.6572 H   0  0  0  0  0  0  0  0  0  0  0  0
    0.3291    2.3628   -0.6614 H   0  0  0  0  0  0  0  0  0  0  0  0
    4.0454    0.1292   -0.3125 H   0  0  0  0  0  0  0  0  0  0  0  0
    2.9717   -1.1679   -0.8990 H   0  0  0  0  0  0  0  0  0  0  0  0
    3.0485   -0.7842    0.8489 H   0  0  0  0  0  0  0  0  0  0  0  0
    1.0213   -1.7880    0.2365 H   0  0  0  0  0  0  0  0  0  0  0  0
   -1.4194   -2.1771    0.3997 H   0  0  0  0  0  0  0  0  0  0  0  0
   -4.7212    3.5682    0.2307 S   0  0  0  0  0  0  0  0  0  0  0  0
   -3.5013    3.6752   -0.7832 O   0  0  0  0  0  0  0  0  0  0  0  0
   -5.6939    4.5632   -0.1784 O   0  0  0  0  0  0  0  0  0  0  0  0
   -5.0732    2.1775    0.4577 O   0  0  0  0  0  0  0  0  0  0  0  0
   -4.0587    4.0616    1.6417 O   0  0  0  0  0  0  0  0  0  0  0  0
   -4.0463    5.0332    1.6288 H   0  0  0  0  0  0  0  0  0  0  0  0
  1  2  1  0  0  0  0
  1 10  2  0  0  0  0
  2  3  1  0  0  0  0
  4  1  1  0  0  0  0
  5  4  2  0  0  0  0
  5  6  1  0  0  0  0
  6  9  2  0  0  0  0
  7  6  1  0  0  0  0
  7  8  1  0  0  0  0
  8 15  1  0  0  0  0
  9 10  1  0  0  0  0
  9 16  1  0  0  0  0
 10 17  1  0  0  0  0
 12  5  1  0  0  0  0
 13  8  1  0  0  0  0
 14  8  1  0  0  0  0
 18 21  2  0  0  0  0
 18 22  1  0  0  0  0
 19 11  1  0  0  0  0
 19 18  1  0  0  0  0
 20 18  2  0  0  0  0
 23 22  1  0  0  0  0
M  RAD  3   2   2   3   3   4   2
M  END
