Coordinates from ORCA-job 4-MeOPhN2+~HSO4-_B3LYPG-6-31G_dp-CH-Scan-d09-49-n800
 OpenBabel11261919063D

 23 22  0  0  0  0  0  0  0  0999 V2000
   -1.6047   -0.1200   -0.0977 C   0  0  0  0  0  0  0  0  0  0  0  0
   -2.9713   -0.2690    0.0014 N   0  0  0  0  0  0  0  0  0  0  0  0
   -4.0882   -0.3469    0.0642 N   0  0  0  0  0  0  0  0  0  0  0  0
   -1.1882    1.1640   -0.5249 C   0  0  0  0  0  0  0  0  0  0  0  0
    0.2162    1.2126   -0.6004 C   0  0  0  0  0  0  0  0  0  0  0  0
    1.0623    0.1356   -0.2926 C   0  0  0  0  0  0  0  0  0  0  0  0
    2.3921    0.3611   -0.4221 O   0  0  0  0  0  0  0  0  0  0  0  0
    3.3167   -0.6812   -0.1344 C   0  0  0  0  0  0  0  0  0  0  0  0
    0.5369   -1.1189    0.1311 C   0  0  0  0  0  0  0  0  0  0  0  0
   -0.8267   -1.2615    0.2339 C   0  0  0  0  0  0  0  0  0  0  0  0
   -3.5682    3.8160   -0.9876 H   0  0  0  0  0  0  0  0  0  0  0  0
    0.7197    2.1275   -0.9147 H   0  0  0  0  0  0  0  0  0  0  0  0
    4.3062   -0.2597   -0.3167 H   0  0  0  0  0  0  0  0  0  0  0  0
    3.1678   -1.5462   -0.7916 H   0  0  0  0  0  0  0  0  0  0  0  0
    3.2504   -1.0030    0.9119 H   0  0  0  0  0  0  0  0  0  0  0  0
    1.1868   -1.9508    0.3707 H   0  0  0  0  0  0  0  0  0  0  0  0
   -1.2752   -2.1991    0.5534 H   0  0  0  0  0  0  0  0  0  0  0  0
   -5.2572    3.8292    0.3293 S   0  0  0  0  0  0  0  0  0  0  0  0
   -4.3187    4.4210   -0.8479 O   0  0  0  0  0  0  0  0  0  0  0  0
   -6.4844    4.5938    0.2658 O   0  0  0  0  0  0  0  0  0  0  0  0
   -5.2039    2.3831    0.3102 O   0  0  0  0  0  0  0  0  0  0  0  0
   -4.4395    4.2740    1.6642 O   0  0  0  0  0  0  0  0  0  0  0  0
   -4.6713    5.1981    1.8586 H   0  0  0  0  0  0  0  0  0  0  0  0
  1  2  1  0  0  0  0
  1 10  2  0  0  0  0
  2  3  1  0  0  0  0
  4  1  1  0  0  0  0
  5  4  2  0  0  0  0
  5  6  1  0  0  0  0
  6  9  2  0  0  0  0
  7  6  1  0  0  0  0
  7  8  1  0  0  0  0
  8 15  1  0  0  0  0
  9 10  1  0  0  0  0
  9 16  1  0  0  0  0
 10 17  1  0  0  0  0
 11 19  1  0  0  0  0
 12  5  1  0  0  0  0
 13  8  1  0  0  0  0
 14  8  1  0  0  0  0
 18 22  1  0  0  0  0
 19 18  1  0  0  0  0
 20 18  2  0  0  0  0
 21 18  2  0  0  0  0
 22 23  1  0  0  0  0
M  RAD  3   2   2   3   3   4   2
M  END
