Coordinates from ORCA-job 4-MeOPhN2+~HSO4-_B3LYPG-6-31G_dp-CH-Scan-d09-49-n800
 OpenBabel11261919063D

 23 22  0  0  0  0  0  0  0  0999 V2000
   -1.3694   -0.1085   -0.2272 C   0  0  0  0  0  0  0  0  0  0  0  0
   -2.7460   -0.1472   -0.1422 N   0  0  0  0  0  0  0  0  0  0  0  0
   -3.8673   -0.1268   -0.1040 N   0  0  0  0  0  0  0  0  0  0  0  0
   -0.8721    1.0742   -0.8232 C   0  0  0  0  0  0  0  0  0  0  0  0
    0.5350    1.0241   -0.8746 C   0  0  0  0  0  0  0  0  0  0  0  0
    1.3062   -0.0464   -0.3973 C   0  0  0  0  0  0  0  0  0  0  0  0
    2.6506    0.0766   -0.5263 O   0  0  0  0  0  0  0  0  0  0  0  0
    3.5029   -0.9645   -0.0651 C   0  0  0  0  0  0  0  0  0  0  0  0
    0.6972   -1.1939    0.1891 C   0  0  0  0  0  0  0  0  0  0  0  0
   -0.6740   -1.2380    0.2814 C   0  0  0  0  0  0  0  0  0  0  0  0
   -4.1780    4.4090   -1.0166 H   0  0  0  0  0  0  0  0  0  0  0  0
    1.1002    1.8524   -1.3046 H   0  0  0  0  0  0  0  0  0  0  0  0
    4.5199   -0.6334   -0.2804 H   0  0  0  0  0  0  0  0  0  0  0  0
    3.3136   -1.9069   -0.5932 H   0  0  0  0  0  0  0  0  0  0  0  0
    3.3979   -1.1254    1.0148 H   0  0  0  0  0  0  0  0  0  0  0  0
    1.2906   -2.0206    0.5584 H   0  0  0  0  0  0  0  0  0  0  0  0
   -1.1858   -2.0921    0.7190 H   0  0  0  0  0  0  0  0  0  0  0  0
   -5.6890    4.0225    0.4491 S   0  0  0  0  0  0  0  0  0  0  0  0
   -4.9836    4.8771   -0.7362 O   0  0  0  0  0  0  0  0  0  0  0  0
   -7.0380    4.5362    0.5471 O   0  0  0  0  0  0  0  0  0  0  0  0
   -5.3588    2.6238    0.2830 O   0  0  0  0  0  0  0  0  0  0  0  0
   -4.8520    4.5154    1.7536 O   0  0  0  0  0  0  0  0  0  0  0  0
   -5.2426    5.3520    2.0591 H   0  0  0  0  0  0  0  0  0  0  0  0
  1  2  1  0  0  0  0
  1 10  2  0  0  0  0
  2  3  1  0  0  0  0
  4  1  1  0  0  0  0
  5  4  2  0  0  0  0
  5  6  1  0  0  0  0
  6  9  2  0  0  0  0
  7  6  1  0  0  0  0
  7  8  1  0  0  0  0
  8 15  1  0  0  0  0
  9 10  1  0  0  0  0
  9 16  1  0  0  0  0
 10 17  1  0  0  0  0
 11 19  1  0  0  0  0
 12  5  1  0  0  0  0
 13  8  1  0  0  0  0
 14  8  1  0  0  0  0
 18 20  2  0  0  0  0
 18 22  1  0  0  0  0
 19 18  1  0  0  0  0
 21 18  2  0  0  0  0
 22 23  1  0  0  0  0
M  RAD  3   2   2   3   3   4   2
M  END
