Coordinates from ORCA-job 4-MeOPhN2+~HSO4-_B3LYPG-6-31G_dp-CH-Scan-d09-49-n800
 OpenBabel11261919063D

 23 22  0  0  0  0  0  0  0  0999 V2000
   -1.7917   -0.0998   -0.0893 C   0  0  0  0  0  0  0  0  0  0  0  0
   -3.1468   -0.3204   -0.0046 N   0  0  0  0  0  0  0  0  0  0  0  0
   -4.2558   -0.4694    0.0520 N   0  0  0  0  0  0  0  0  0  0  0  0
   -1.4122    1.2183   -0.4444 C   0  0  0  0  0  0  0  0  0  0  0  0
   -0.0154    1.3334   -0.5092 C   0  0  0  0  0  0  0  0  0  0  0  0
    0.8731    0.2755   -0.2542 C   0  0  0  0  0  0  0  0  0  0  0  0
    2.1899    0.5625   -0.3640 O   0  0  0  0  0  0  0  0  0  0  0  0
    3.1580   -0.4551   -0.1294 C   0  0  0  0  0  0  0  0  0  0  0  0
    0.3951   -1.0179    0.0981 C   0  0  0  0  0  0  0  0  0  0  0  0
   -0.9625   -1.2197    0.1839 C   0  0  0  0  0  0  0  0  0  0  0  0
   -3.1218    3.2050   -0.8155 H   0  0  0  0  0  0  0  0  0  0  0  0
    0.4480    2.2839   -0.7716 H   0  0  0  0  0  0  0  0  0  0  0  0
    4.1284    0.0171   -0.2866 H   0  0  0  0  0  0  0  0  0  0  0  0
    3.0442   -1.2887   -0.8324 H   0  0  0  0  0  0  0  0  0  0  0  0
    3.1038   -0.8332    0.8983 H   0  0  0  0  0  0  0  0  0  0  0  0
    1.0754   -1.8357    0.2978 H   0  0  0  0  0  0  0  0  0  0  0  0
   -1.3729   -2.1901    0.4507 H   0  0  0  0  0  0  0  0  0  0  0  0
   -4.9006    3.6528    0.2918 S   0  0  0  0  0  0  0  0  0  0  0  0
   -3.7996    3.9180   -0.8446 O   0  0  0  0  0  0  0  0  0  0  0  0
   -5.9689    4.5979    0.0384 O   0  0  0  0  0  0  0  0  0  0  0  0
   -5.1211    2.2291    0.4529 O   0  0  0  0  0  0  0  0  0  0  0  0
   -4.1183    4.1134    1.6467 O   0  0  0  0  0  0  0  0  0  0  0  0
   -4.1706    5.0827    1.6990 H   0  0  0  0  0  0  0  0  0  0  0  0
  1  2  1  0  0  0  0
  1 10  2  0  0  0  0
  2  3  1  0  0  0  0
  4  1  1  0  0  0  0
  5  4  2  0  0  0  0
  5  6  1  0  0  0  0
  6  9  2  0  0  0  0
  7  6  1  0  0  0  0
  7  8  1  0  0  0  0
  8 15  1  0  0  0  0
  9 10  1  0  0  0  0
  9 16  1  0  0  0  0
 10 17  1  0  0  0  0
 12  5  1  0  0  0  0
 13  8  1  0  0  0  0
 14  8  1  0  0  0  0
 18 21  2  0  0  0  0
 18 22  1  0  0  0  0
 19 11  1  0  0  0  0
 19 18  1  0  0  0  0
 20 18  2  0  0  0  0
 22 23  1  0  0  0  0
M  RAD  3   2   2   3   3   4   2
M  END
