Coordinates from ORCA-job 4-MeOPhN2+~HSO4-_B3LYPG-6-31G_dp-CH-Scan-d09-49-n800
 OpenBabel11261919063D

 23 22  0  0  0  0  0  0  0  0999 V2000
   -1.5147   -0.1242   -0.1511 C   0  0  0  0  0  0  0  0  0  0  0  0
   -2.8865   -0.2334   -0.0596 N   0  0  0  0  0  0  0  0  0  0  0  0
   -4.0063   -0.2752   -0.0083 N   0  0  0  0  0  0  0  0  0  0  0  0
   -1.0698    1.1247   -0.6466 C   0  0  0  0  0  0  0  0  0  0  0  0
    0.3371    1.1373   -0.7102 C   0  0  0  0  0  0  0  0  0  0  0  0
    1.1563    0.0624   -0.3322 C   0  0  0  0  0  0  0  0  0  0  0  0
    2.4928    0.2516   -0.4590 O   0  0  0  0  0  0  0  0  0  0  0  0
    3.3910   -0.7910   -0.0988 C   0  0  0  0  0  0  0  0  0  0  0  0
    0.6000   -1.1550    0.1569 C   0  0  0  0  0  0  0  0  0  0  0  0
   -0.7673   -1.2627    0.2535 C   0  0  0  0  0  0  0  0  0  0  0  0
   -3.8413    4.1177   -1.0503 H   0  0  0  0  0  0  0  0  0  0  0  0
    0.8641    2.0217   -1.0710 H   0  0  0  0  0  0  0  0  0  0  0  0
    4.3917   -0.4007   -0.2898 H   0  0  0  0  0  0  0  0  0  0  0  0
    3.2338   -1.6890   -0.7082 H   0  0  0  0  0  0  0  0  0  0  0  0
    3.3035   -1.0517    0.9630 H   0  0  0  0  0  0  0  0  0  0  0  0
    1.2297   -1.9852    0.4502 H   0  0  0  0  0  0  0  0  0  0  0  0
   -1.2394   -2.1711    0.6204 H   0  0  0  0  0  0  0  0  0  0  0  0
   -5.4185    3.9023    0.3830 S   0  0  0  0  0  0  0  0  0  0  0  0
   -4.6266    4.6446   -0.8207 O   0  0  0  0  0  0  0  0  0  0  0  0
   -6.7194    4.5338    0.4350 O   0  0  0  0  0  0  0  0  0  0  0  0
   -5.2125    2.4739    0.2816 O   0  0  0  0  0  0  0  0  0  0  0  0
   -4.5620    4.3733    1.6832 O   0  0  0  0  0  0  0  0  0  0  0  0
   -4.8780    5.2555    1.9430 H   0  0  0  0  0  0  0  0  0  0  0  0
  1  2  1  0  0  0  0
  1 10  2  0  0  0  0
  2  3  1  0  0  0  0
  4  1  1  0  0  0  0
  5  4  2  0  0  0  0
  5  6  1  0  0  0  0
  6  9  2  0  0  0  0
  7  6  1  0  0  0  0
  7  8  1  0  0  0  0
  8 15  1  0  0  0  0
  9 10  1  0  0  0  0
  9 16  1  0  0  0  0
 10 17  1  0  0  0  0
 11 19  1  0  0  0  0
 12  5  1  0  0  0  0
 13  8  1  0  0  0  0
 14  8  1  0  0  0  0
 18 20  2  0  0  0  0
 18 22  1  0  0  0  0
 19 18  1  0  0  0  0
 21 18  2  0  0  0  0
 22 23  1  0  0  0  0
M  RAD  3   2   2   3   3   4   2
M  END
