Coordinates from ORCA-job 4-MeOPhN2+~HSO4-_B3LYPG-6-31G_dp-CH-Scan-d09-49-n800
 OpenBabel11261919063D

 23 22  0  0  0  0  0  0  0  0999 V2000
   -1.3631   -0.1073   -0.2332 C   0  0  0  0  0  0  0  0  0  0  0  0
   -2.7398   -0.1424   -0.1489 N   0  0  0  0  0  0  0  0  0  0  0  0
   -3.8612   -0.1189   -0.1140 N   0  0  0  0  0  0  0  0  0  0  0  0
   -0.8630    1.0703   -0.8368 C   0  0  0  0  0  0  0  0  0  0  0  0
    0.5440    1.0171   -0.8867 C   0  0  0  0  0  0  0  0  0  0  0  0
    1.3128   -0.0518   -0.4017 C   0  0  0  0  0  0  0  0  0  0  0  0
    2.6575    0.0676   -0.5305 O   0  0  0  0  0  0  0  0  0  0  0  0
    3.5074   -0.9719   -0.0616 C   0  0  0  0  0  0  0  0  0  0  0  0
    0.7010   -1.1941    0.1919 C   0  0  0  0  0  0  0  0  0  0  0  0
   -0.6704   -1.2349    0.2833 C   0  0  0  0  0  0  0  0  0  0  0  0
   -4.1929    4.4246   -1.0133 H   0  0  0  0  0  0  0  0  0  0  0  0
    1.1113    1.8414   -1.3218 H   0  0  0  0  0  0  0  0  0  0  0  0
    4.5252   -0.6447   -0.2788 H   0  0  0  0  0  0  0  0  0  0  0  0
    3.3162   -1.9177   -0.5828 H   0  0  0  0  0  0  0  0  0  0  0  0
    3.4016   -1.1248    1.0195 H   0  0  0  0  0  0  0  0  0  0  0  0
    1.2924   -2.0194    0.5672 H   0  0  0  0  0  0  0  0  0  0  0  0
   -1.1842   -2.0850    0.7264 H   0  0  0  0  0  0  0  0  0  0  0  0
   -5.7002    4.0268    0.4533 S   0  0  0  0  0  0  0  0  0  0  0  0
   -4.9999    4.8884   -0.7300 O   0  0  0  0  0  0  0  0  0  0  0  0
   -7.0514    4.5338    0.5544 O   0  0  0  0  0  0  0  0  0  0  0  0
   -5.3635    2.6302    0.2822 O   0  0  0  0  0  0  0  0  0  0  0  0
   -4.8641    4.5194    1.7585 O   0  0  0  0  0  0  0  0  0  0  0  0
   -5.2583    5.3532    2.0671 H   0  0  0  0  0  0  0  0  0  0  0  0
  1  2  1  0  0  0  0
  1 10  2  0  0  0  0
  2  3  1  0  0  0  0
  4  1  1  0  0  0  0
  5  4  2  0  0  0  0
  5  6  1  0  0  0  0
  6  9  2  0  0  0  0
  7  6  1  0  0  0  0
  7  8  1  0  0  0  0
  8 15  1  0  0  0  0
  9 10  1  0  0  0  0
  9 16  1  0  0  0  0
 10 17  1  0  0  0  0
 11 19  1  0  0  0  0
 12  5  1  0  0  0  0
 13  8  1  0  0  0  0
 14  8  1  0  0  0  0
 18 20  2  0  0  0  0
 18 22  1  0  0  0  0
 19 18  1  0  0  0  0
 21 18  2  0  0  0  0
 22 23  1  0  0  0  0
M  RAD  3   2   2   3   3   4   2
M  END
