Coordinates from ORCA-job 4-MeOPhN2+~HSO4-_B3LYPG-6-31G_dp-CH-Scan-d09-49-n800
 OpenBabel11261919063D

 23 22  0  0  0  0  0  0  0  0999 V2000
   -1.9403    0.3796   -0.2064 C   0  0  0  0  0  0  0  0  0  0  0  0
   -3.3129    0.3277   -0.1918 N   0  0  0  0  0  0  0  0  0  0  0  0
   -4.4317    0.2651   -0.2230 N   0  0  0  0  0  0  0  0  0  0  0  0
   -1.2808    1.6075   -0.4388 C   0  0  0  0  0  0  0  0  0  0  0  0
    0.0974    1.5888   -0.4722 C   0  0  0  0  0  0  0  0  0  0  0  0
    0.8152    0.3917   -0.2643 C   0  0  0  0  0  0  0  0  0  0  0  0
    2.1513    0.5042   -0.3102 O   0  0  0  0  0  0  0  0  0  0  0  0
    2.9663   -0.6496   -0.0970 C   0  0  0  0  0  0  0  0  0  0  0  0
    0.1322   -0.8221   -0.0295 C   0  0  0  0  0  0  0  0  0  0  0  0
   -1.2502   -0.8305   -0.0053 C   0  0  0  0  0  0  0  0  0  0  0  0
   -1.9110    2.5999   -0.5906 H   0  0  0  0  0  0  0  0  0  0  0  0
    0.6577    2.5001   -0.6477 H   0  0  0  0  0  0  0  0  0  0  0  0
    3.9953   -0.2997   -0.1750 H   0  0  0  0  0  0  0  0  0  0  0  0
    2.7805   -1.4121   -0.8614 H   0  0  0  0  0  0  0  0  0  0  0  0
    2.7995   -1.0727    0.8999 H   0  0  0  0  0  0  0  0  0  0  0  0
    0.6711   -1.7466    0.1319 H   0  0  0  0  0  0  0  0  0  0  0  0
   -1.7974   -1.7499    0.1723 H   0  0  0  0  0  0  0  0  0  0  0  0
   -4.1984    3.2985    0.4542 S   0  0  0  0  0  0  0  0  0  0  0  0
   -3.3390    3.8864   -0.5995 O   0  0  0  0  0  0  0  0  0  0  0  0
   -5.3709    2.5226   -0.0512 O   0  0  0  0  0  0  0  0  0  0  0  0
   -3.4341    2.5459    1.4783 O   0  0  0  0  0  0  0  0  0  0  0  0
   -4.8581    4.6182    1.1946 O   0  0  0  0  0  0  0  0  0  0  0  0
   -5.6843    4.3070    1.5966 H   0  0  0  0  0  0  0  0  0  0  0  0
  1  2  1  0  0  0  0
  1 10  2  0  0  0  0
  3  2  1  0  0  0  0
  4  1  1  0  0  0  0
  5  4  2  0  0  0  0
  5  6  1  0  0  0  0
  6  9  2  0  0  0  0
  7  6  1  0  0  0  0
  7  8  1  0  0  0  0
  8 15  1  0  0  0  0
  9 10  1  0  0  0  0
  9 16  1  0  0  0  0
 10 17  1  0  0  0  0
 11  4  1  0  0  0  0
 12  5  1  0  0  0  0
 13  8  1  0  0  0  0
 14  8  1  0  0  0  0
 18 22  1  0  0  0  0
 18 21  1  0  0  0  0
 19 18  2  0  0  0  0
 20 18  2  0  0  0  0
 22 23  1  0  0  0  0
M  RAD  3   2   2   3   3  21   2
M  END
