Coordinates from ORCA-job 4-MeOPhN2+~HSO4-_B3LYPG-6-31G_dp-CH-Scan-d09-49-n800
 OpenBabel11261919063D

 23 22  0  0  0  0  0  0  0  0999 V2000
   -1.8935   -0.0753   -0.0581 C   0  0  0  0  0  0  0  0  0  0  0  0
   -3.2403   -0.3328    0.0253 N   0  0  0  0  0  0  0  0  0  0  0  0
   -4.3429   -0.5170    0.0857 N   0  0  0  0  0  0  0  0  0  0  0  0
   -1.5279    1.2627   -0.3524 C   0  0  0  0  0  0  0  0  0  0  0  0
   -0.1371    1.4070   -0.4221 C   0  0  0  0  0  0  0  0  0  0  0  0
    0.7714    0.3524   -0.2249 C   0  0  0  0  0  0  0  0  0  0  0  0
    2.0795    0.6673   -0.3329 O   0  0  0  0  0  0  0  0  0  0  0  0
    3.0684   -0.3438   -0.1596 C   0  0  0  0  0  0  0  0  0  0  0  0
    0.3153   -0.9616    0.0690 C   0  0  0  0  0  0  0  0  0  0  0  0
   -1.0387   -1.1878    0.1546 C   0  0  0  0  0  0  0  0  0  0  0  0
   -2.8320    2.8283   -0.6303 H   0  0  0  0  0  0  0  0  0  0  0  0
    0.3042    2.3774   -0.6430 H   0  0  0  0  0  0  0  0  0  0  0  0
    4.0279    0.1534   -0.3040 H   0  0  0  0  0  0  0  0  0  0  0  0
    2.9596   -1.1428   -0.9024 H   0  0  0  0  0  0  0  0  0  0  0  0
    3.0321   -0.7723    0.8487 H   0  0  0  0  0  0  0  0  0  0  0  0
    1.0084   -1.7781    0.2249 H   0  0  0  0  0  0  0  0  0  0  0  0
   -1.4311   -2.1760    0.3783 H   0  0  0  0  0  0  0  0  0  0  0  0
   -4.6774    3.5456    0.2386 S   0  0  0  0  0  0  0  0  0  0  0  0
   -3.4558    3.6160   -0.7701 O   0  0  0  0  0  0  0  0  0  0  0  0
   -5.6530    4.5238   -0.2050 O   0  0  0  0  0  0  0  0  0  0  0  0
   -5.0309    2.1631    0.5145 O   0  0  0  0  0  0  0  0  0  0  0  0
   -4.0242    4.0896    1.6365 O   0  0  0  0  0  0  0  0  0  0  0  0
   -4.0245    5.0603    1.5925 H   0  0  0  0  0  0  0  0  0  0  0  0
  1  2  1  0  0  0  0
  1 10  2  0  0  0  0
  2  3  1  0  0  0  0
  4  1  1  0  0  0  0
  5  4  2  0  0  0  0
  5  6  1  0  0  0  0
  6  9  2  0  0  0  0
  7  6  1  0  0  0  0
  7  8  1  0  0  0  0
  8 15  1  0  0  0  0
  9 10  1  0  0  0  0
  9 16  1  0  0  0  0
 10 17  1  0  0  0  0
 12  5  1  0  0  0  0
 13  8  1  0  0  0  0
 14  8  1  0  0  0  0
 18 21  2  0  0  0  0
 18 22  1  0  0  0  0
 19 11  1  0  0  0  0
 19 18  1  0  0  0  0
 20 18  2  0  0  0  0
 23 22  1  0  0  0  0
M  RAD  3   2   2   3   3   4   2
M  END
