Coordinates from ORCA-job 4-MeOPhN2+~HSO4-_B3LYPG-6-31G_dp-CH-Scan-d09-49-n800
 OpenBabel11261919063D

 23 22  0  0  0  0  0  0  0  0999 V2000
   -1.3912   -0.1151   -0.2115 C   0  0  0  0  0  0  0  0  0  0  0  0
   -2.7671   -0.1657   -0.1241 N   0  0  0  0  0  0  0  0  0  0  0  0
   -3.8883   -0.1550   -0.0820 N   0  0  0  0  0  0  0  0  0  0  0  0
   -0.9037    1.0809   -0.7892 C   0  0  0  0  0  0  0  0  0  0  0  0
    0.5035    1.0422   -0.8440 C   0  0  0  0  0  0  0  0  0  0  0  0
    1.2838   -0.0302   -0.3859 C   0  0  0  0  0  0  0  0  0  0  0  0
    2.6268    0.1051   -0.5151 O   0  0  0  0  0  0  0  0  0  0  0  0
    3.4879   -0.9373   -0.0737 C   0  0  0  0  0  0  0  0  0  0  0  0
    0.6845   -1.1918    0.1826 C   0  0  0  0  0  0  0  0  0  0  0  0
   -0.6861   -1.2476    0.2768 C   0  0  0  0  0  0  0  0  0  0  0  0
   -4.1240    4.3640   -1.0211 H   0  0  0  0  0  0  0  0  0  0  0  0
    1.0617    1.8816   -1.2614 H   0  0  0  0  0  0  0  0  0  0  0  0
    4.5021   -0.5944   -0.2837 H   0  0  0  0  0  0  0  0  0  0  0  0
    3.3055   -1.8714   -0.6186 H   0  0  0  0  0  0  0  0  0  0  0  0
    3.3853   -1.1185    1.0033 H   0  0  0  0  0  0  0  0  0  0  0  0
    1.2848   -2.0200    0.5370 H   0  0  0  0  0  0  0  0  0  0  0  0
   -1.1905   -2.1126    0.7014 H   0  0  0  0  0  0  0  0  0  0  0  0
   -5.6510    4.0095    0.4365 S   0  0  0  0  0  0  0  0  0  0  0  0
   -4.9258    4.8444   -0.7506 O   0  0  0  0  0  0  0  0  0  0  0  0
   -6.9923    4.5447    0.5231 O   0  0  0  0  0  0  0  0  0  0  0  0
   -5.3417    2.6048    0.2822 O   0  0  0  0  0  0  0  0  0  0  0  0
   -4.8139    4.4985    1.7425 O   0  0  0  0  0  0  0  0  0  0  0  0
   -5.1928    5.3436    2.0393 H   0  0  0  0  0  0  0  0  0  0  0  0
  1  2  1  0  0  0  0
  1 10  2  0  0  0  0
  2  3  1  0  0  0  0
  4  1  1  0  0  0  0
  5  4  2  0  0  0  0
  5  6  1  0  0  0  0
  6  9  2  0  0  0  0
  7  6  1  0  0  0  0
  7  8  1  0  0  0  0
  8 15  1  0  0  0  0
  9 10  1  0  0  0  0
  9 16  1  0  0  0  0
 10 17  1  0  0  0  0
 11 19  1  0  0  0  0
 12  5  1  0  0  0  0
 13  8  1  0  0  0  0
 14  8  1  0  0  0  0
 18 20  2  0  0  0  0
 18 22  1  0  0  0  0
 19 18  1  0  0  0  0
 21 18  2  0  0  0  0
 22 23  1  0  0  0  0
M  RAD  3   2   2   3   3   4   2
M  END
