Coordinates from ORCA-job 4-MeOPhN2+~HSO4-_B3LYPG-6-31G_dp-CH-Scan-d09-49-n800
 OpenBabel11261919063D

 23 22  0  0  0  0  0  0  0  0999 V2000
   -1.5101   -0.1243   -0.1532 C   0  0  0  0  0  0  0  0  0  0  0  0
   -2.8822   -0.2315   -0.0617 N   0  0  0  0  0  0  0  0  0  0  0  0
   -4.0021   -0.2715   -0.0107 N   0  0  0  0  0  0  0  0  0  0  0  0
   -1.0639    1.1229   -0.6516 C   0  0  0  0  0  0  0  0  0  0  0  0
    0.3431    1.1337   -0.7150 C   0  0  0  0  0  0  0  0  0  0  0  0
    1.1610    0.0588   -0.3341 C   0  0  0  0  0  0  0  0  0  0  0  0
    2.4978    0.2463   -0.4611 O   0  0  0  0  0  0  0  0  0  0  0  0
    3.3947   -0.7964   -0.0980 C   0  0  0  0  0  0  0  0  0  0  0  0
    0.6033   -1.1567    0.1579 C   0  0  0  0  0  0  0  0  0  0  0  0
   -0.7642   -1.2627    0.2544 C   0  0  0  0  0  0  0  0  0  0  0  0
   -3.8521    4.1285   -1.0499 H   0  0  0  0  0  0  0  0  0  0  0  0
    0.8711    2.0167   -1.0779 H   0  0  0  0  0  0  0  0  0  0  0  0
    4.3959   -0.4076   -0.2895 H   0  0  0  0  0  0  0  0  0  0  0  0
    3.2369   -1.6957   -0.7052 H   0  0  0  0  0  0  0  0  0  0  0  0
    3.3066   -1.0544    0.9644 H   0  0  0  0  0  0  0  0  0  0  0  0
    1.2320   -1.9869    0.4533 H   0  0  0  0  0  0  0  0  0  0  0  0
   -1.2374   -2.1697    0.6234 H   0  0  0  0  0  0  0  0  0  0  0  0
   -5.4270    3.9066    0.3849 S   0  0  0  0  0  0  0  0  0  0  0  0
   -4.6382    4.6532   -0.8183 O   0  0  0  0  0  0  0  0  0  0  0  0
   -6.7300    4.5335    0.4386 O   0  0  0  0  0  0  0  0  0  0  0  0
   -5.2160    2.4791    0.2812 O   0  0  0  0  0  0  0  0  0  0  0  0
   -4.5714    4.3787    1.6853 O   0  0  0  0  0  0  0  0  0  0  0  0
   -4.8904    5.2594    1.9466 H   0  0  0  0  0  0  0  0  0  0  0  0
  1  2  1  0  0  0  0
  1 10  2  0  0  0  0
  2  3  1  0  0  0  0
  4  1  1  0  0  0  0
  5  4  2  0  0  0  0
  5  6  1  0  0  0  0
  6  9  2  0  0  0  0
  7  6  1  0  0  0  0
  7  8  1  0  0  0  0
  8 15  1  0  0  0  0
  9 10  1  0  0  0  0
  9 16  1  0  0  0  0
 10 17  1  0  0  0  0
 11 19  1  0  0  0  0
 12  5  1  0  0  0  0
 13  8  1  0  0  0  0
 14  8  1  0  0  0  0
 18 20  2  0  0  0  0
 18 22  1  0  0  0  0
 19 18  1  0  0  0  0
 21 18  2  0  0  0  0
 22 23  1  0  0  0  0
M  RAD  3   2   2   3   3   4   2
M  END
