Coordinates from ORCA-job 4-MeOPhN2+~HSO4-_B3LYPG-6-31G_dp-CH-Scan-d09-49-n800
 OpenBabel11261919063D

 23 22  0  0  0  0  0  0  0  0999 V2000
   -1.5664   -0.1215   -0.1198 C   0  0  0  0  0  0  0  0  0  0  0  0
   -2.9357   -0.2534   -0.0252 N   0  0  0  0  0  0  0  0  0  0  0  0
   -4.0541   -0.3157    0.0318 N   0  0  0  0  0  0  0  0  0  0  0  0
   -1.1381    1.1489   -0.5741 C   0  0  0  0  0  0  0  0  0  0  0  0
    0.2677    1.1820   -0.6435 C   0  0  0  0  0  0  0  0  0  0  0  0
    1.1022    0.1049   -0.3069 C   0  0  0  0  0  0  0  0  0  0  0  0
    2.4352    0.3150   -0.4344 O   0  0  0  0  0  0  0  0  0  0  0  0
    3.3482   -0.7287   -0.1167 C   0  0  0  0  0  0  0  0  0  0  0  0
    0.5634   -1.1351    0.1427 C   0  0  0  0  0  0  0  0  0  0  0  0
   -0.8019   -1.2630    0.2418 C   0  0  0  0  0  0  0  0  0  0  0  0
   -3.7016    3.9613   -1.0392 H   0  0  0  0  0  0  0  0  0  0  0  0
    0.7816    2.0849   -0.9760 H   0  0  0  0  0  0  0  0  0  0  0  0
    4.3428   -0.3204   -0.3017 H   0  0  0  0  0  0  0  0  0  0  0  0
    3.1961   -1.6071   -0.7551 H   0  0  0  0  0  0  0  0  0  0  0  0
    3.2720   -1.0262    0.9362 H   0  0  0  0  0  0  0  0  0  0  0  0
    1.2047   -1.9670    0.4045 H   0  0  0  0  0  0  0  0  0  0  0  0
   -1.2608   -2.1890    0.5802 H   0  0  0  0  0  0  0  0  0  0  0  0
   -5.3250    3.8577    0.3541 S   0  0  0  0  0  0  0  0  0  0  0  0
   -4.4694    4.5277   -0.8466 O   0  0  0  0  0  0  0  0  0  0  0  0
   -6.5904    4.5596    0.3631 O   0  0  0  0  0  0  0  0  0  0  0  0
   -5.1977    2.4177    0.2909 O   0  0  0  0  0  0  0  0  0  0  0  0
   -4.4724    4.3109    1.6635 O   0  0  0  0  0  0  0  0  0  0  0  0
   -4.7429    5.2160    1.8944 H   0  0  0  0  0  0  0  0  0  0  0  0
  1  2  1  0  0  0  0
  1 10  2  0  0  0  0
  2  3  1  0  0  0  0
  4  1  1  0  0  0  0
  5  4  2  0  0  0  0
  5  6  1  0  0  0  0
  6  9  2  0  0  0  0
  7  6  1  0  0  0  0
  7  8  1  0  0  0  0
  8 15  1  0  0  0  0
  9 10  1  0  0  0  0
  9 16  1  0  0  0  0
 10 17  1  0  0  0  0
 11 19  1  0  0  0  0
 12  5  1  0  0  0  0
 13  8  1  0  0  0  0
 14  8  1  0  0  0  0
 18 20  2  0  0  0  0
 18 22  1  0  0  0  0
 19 18  1  0  0  0  0
 21 18  2  0  0  0  0
 22 23  1  0  0  0  0
M  RAD  3   2   2   3   3   4   2
M  END
