Coordinates from ORCA-job 4-MeOPhN2+~HSO4-_B3LYPG-6-31G_dp-CH-Scan-d09-49-n800
 OpenBabel11261919063D

 23 22  0  0  0  0  0  0  0  0999 V2000
   -1.9601   -0.0422   -0.1025 C   0  0  0  0  0  0  0  0  0  0  0  0
   -3.3058   -0.3052   -0.0511 N   0  0  0  0  0  0  0  0  0  0  0  0
   -4.4064   -0.5003   -0.0158 N   0  0  0  0  0  0  0  0  0  0  0  0
   -1.5722    1.2995   -0.3437 C   0  0  0  0  0  0  0  0  0  0  0  0
   -0.1873    1.4547   -0.3912 C   0  0  0  0  0  0  0  0  0  0  0  0
    0.7178    0.3911   -0.2177 C   0  0  0  0  0  0  0  0  0  0  0  0
    2.0240    0.7085   -0.2969 O   0  0  0  0  0  0  0  0  0  0  0  0
    3.0123   -0.3079   -0.1410 C   0  0  0  0  0  0  0  0  0  0  0  0
    0.2529   -0.9287    0.0233 C   0  0  0  0  0  0  0  0  0  0  0  0
   -1.1033   -1.1559    0.0812 C   0  0  0  0  0  0  0  0  0  0  0  0
   -2.6059    2.5426   -0.5166 H   0  0  0  0  0  0  0  0  0  0  0  0
    0.2475    2.4353   -0.5706 H   0  0  0  0  0  0  0  0  0  0  0  0
    3.9726    0.1951   -0.2547 H   0  0  0  0  0  0  0  0  0  0  0  0
    2.9145   -1.0817   -0.9112 H   0  0  0  0  0  0  0  0  0  0  0  0
    2.9598   -0.7671    0.8527 H   0  0  0  0  0  0  0  0  0  0  0  0
    0.9410   -1.7526    0.1612 H   0  0  0  0  0  0  0  0  0  0  0  0
   -1.4987   -2.1506    0.2645 H   0  0  0  0  0  0  0  0  0  0  0  0
   -4.4810    3.4356    0.3120 S   0  0  0  0  0  0  0  0  0  0  0  0
   -3.2736    3.4193   -0.6709 O   0  0  0  0  0  0  0  0  0  0  0  0
   -5.5833    4.1820   -0.2792 O   0  0  0  0  0  0  0  0  0  0  0  0
   -4.6945    2.1045    0.8757 O   0  0  0  0  0  0  0  0  0  0  0  0
   -3.9322    4.3328    1.5755 O   0  0  0  0  0  0  0  0  0  0  0  0
   -4.1805    5.2510    1.3810 H   0  0  0  0  0  0  0  0  0  0  0  0
  1  2  1  0  0  0  0
  1 10  2  0  0  0  0
  2  3  1  0  0  0  0
  4  1  1  0  0  0  0
  5  4  2  0  0  0  0
  5  6  1  0  0  0  0
  6  9  2  0  0  0  0
  7  6  1  0  0  0  0
  7  8  1  0  0  0  0
  8 15  1  0  0  0  0
  9 10  1  0  0  0  0
  9 16  1  0  0  0  0
 10 17  1  0  0  0  0
 12  5  1  0  0  0  0
 13  8  1  0  0  0  0
 14  8  1  0  0  0  0
 18 21  2  0  0  0  0
 18 22  1  0  0  0  0
 19 11  1  0  0  0  0
 19 18  1  0  0  0  0
 20 18  2  0  0  0  0
 23 22  1  0  0  0  0
M  RAD  3   2   2   3   3   4   2
M  END
