Coordinates from ORCA-job 4-MeOPhN2+~HSO4-_B3LYPG-6-31G_dp-CH-Scan-d09-49-n800
 OpenBabel11261919063D

 23 22  0  0  0  0  0  0  0  0999 V2000
   -1.7805   -0.1023   -0.0915 C   0  0  0  0  0  0  0  0  0  0  0  0
   -3.1364   -0.3189   -0.0064 N   0  0  0  0  0  0  0  0  0  0  0  0
   -4.2460   -0.4637    0.0502 N   0  0  0  0  0  0  0  0  0  0  0  0
   -1.3992    1.2136   -0.4523 C   0  0  0  0  0  0  0  0  0  0  0  0
   -0.0019    1.3253   -0.5171 C   0  0  0  0  0  0  0  0  0  0  0  0
    0.8844    0.2668   -0.2571 C   0  0  0  0  0  0  0  0  0  0  0  0
    2.2021    0.5506   -0.3676 O   0  0  0  0  0  0  0  0  0  0  0  0
    3.1679   -0.4679   -0.1279 C   0  0  0  0  0  0  0  0  0  0  0  0
    0.4039   -1.0243    0.1006 C   0  0  0  0  0  0  0  0  0  0  0  0
   -0.9541   -1.2231    0.1869 C   0  0  0  0  0  0  0  0  0  0  0  0
   -3.1508    3.2430   -0.8306 H   0  0  0  0  0  0  0  0  0  0  0  0
    0.4639    2.2736   -0.7834 H   0  0  0  0  0  0  0  0  0  0  0  0
    4.1393    0.0016   -0.2866 H   0  0  0  0  0  0  0  0  0  0  0  0
    3.0529   -1.3044   -0.8273 H   0  0  0  0  0  0  0  0  0  0  0  0
    3.1123   -0.8415    0.9014 H   0  0  0  0  0  0  0  0  0  0  0  0
    1.0827   -1.8425    0.3040 H   0  0  0  0  0  0  0  0  0  0  0  0
   -1.3665   -2.1916    0.4577 H   0  0  0  0  0  0  0  0  0  0  0  0
   -4.9231    3.6646    0.2961 S   0  0  0  0  0  0  0  0  0  0  0  0
   -3.8328    3.9503   -0.8474 O   0  0  0  0  0  0  0  0  0  0  0  0
   -6.0014    4.6021    0.0580 O   0  0  0  0  0  0  0  0  0  0  0  0
   -5.1282    2.2376    0.4457 O   0  0  0  0  0  0  0  0  0  0  0  0
   -4.1341    4.1212    1.6480 O   0  0  0  0  0  0  0  0  0  0  0  0
   -4.1968    5.0894    1.7103 H   0  0  0  0  0  0  0  0  0  0  0  0
  1  2  1  0  0  0  0
  1 10  2  0  0  0  0
  2  3  1  0  0  0  0
  4  1  1  0  0  0  0
  5  4  2  0  0  0  0
  5  6  1  0  0  0  0
  6  9  2  0  0  0  0
  7  6  1  0  0  0  0
  7  8  1  0  0  0  0
  8 15  1  0  0  0  0
  9 10  1  0  0  0  0
  9 16  1  0  0  0  0
 10 17  1  0  0  0  0
 12  5  1  0  0  0  0
 13  8  1  0  0  0  0
 14  8  1  0  0  0  0
 18 21  2  0  0  0  0
 18 22  1  0  0  0  0
 19 11  1  0  0  0  0
 19 18  1  0  0  0  0
 20 18  2  0  0  0  0
 22 23  1  0  0  0  0
M  RAD  3   2   2   3   3   4   2
M  END
