Coordinates from ORCA-job 4-MeOPhN2+~HSO4-_B3LYPG-6-31G_dp-CH-Scan-d09-49-n800
 OpenBabel11261919063D

 23 22  0  0  0  0  0  0  0  0999 V2000
   -1.6122   -0.1197   -0.0960 C   0  0  0  0  0  0  0  0  0  0  0  0
   -2.9784   -0.2718    0.0030 N   0  0  0  0  0  0  0  0  0  0  0  0
   -4.0951   -0.3528    0.0663 N   0  0  0  0  0  0  0  0  0  0  0  0
   -1.1977    1.1660   -0.5205 C   0  0  0  0  0  0  0  0  0  0  0  0
    0.2064    1.2174   -0.5961 C   0  0  0  0  0  0  0  0  0  0  0  0
    1.0545    0.1412   -0.2910 C   0  0  0  0  0  0  0  0  0  0  0  0
    2.3838    0.3695   -0.4204 O   0  0  0  0  0  0  0  0  0  0  0  0
    3.3105   -0.6719   -0.1355 C   0  0  0  0  0  0  0  0  0  0  0  0
    0.5314   -1.1151    0.1300 C   0  0  0  0  0  0  0  0  0  0  0  0
   -0.8319   -1.2604    0.2327 C   0  0  0  0  0  0  0  0  0  0  0  0
   -3.5466    3.7922   -0.9804 H   0  0  0  0  0  0  0  0  0  0  0  0
    0.7081    2.1339   -0.9085 H   0  0  0  0  0  0  0  0  0  0  0  0
    4.2990   -0.2482   -0.3173 H   0  0  0  0  0  0  0  0  0  0  0  0
    3.1627   -1.5357   -0.7945 H   0  0  0  0  0  0  0  0  0  0  0  0
    3.2452   -0.9962    0.9102 H   0  0  0  0  0  0  0  0  0  0  0  0
    1.1828   -1.9464    0.3677 H   0  0  0  0  0  0  0  0  0  0  0  0
   -1.2787   -2.1995    0.5503 H   0  0  0  0  0  0  0  0  0  0  0  0
   -5.2432    3.8229    0.3264 S   0  0  0  0  0  0  0  0  0  0  0  0
   -4.2940    4.4027   -0.8476 O   0  0  0  0  0  0  0  0  0  0  0  0
   -6.4640    4.5970    0.2539 O   0  0  0  0  0  0  0  0  0  0  0  0
   -5.2018    2.3763    0.3130 O   0  0  0  0  0  0  0  0  0  0  0  0
   -4.4291    4.2656    1.6643 O   0  0  0  0  0  0  0  0  0  0  0  0
   -4.6541    5.1924    1.8539 H   0  0  0  0  0  0  0  0  0  0  0  0
  1  2  1  0  0  0  0
  1 10  2  0  0  0  0
  2  3  1  0  0  0  0
  4  1  1  0  0  0  0
  5  4  2  0  0  0  0
  5  6  1  0  0  0  0
  6  9  2  0  0  0  0
  7  6  1  0  0  0  0
  7  8  1  0  0  0  0
  8 15  1  0  0  0  0
  9 10  1  0  0  0  0
  9 16  1  0  0  0  0
 10 17  1  0  0  0  0
 11 19  1  0  0  0  0
 12  5  1  0  0  0  0
 13  8  1  0  0  0  0
 14  8  1  0  0  0  0
 18 22  1  0  0  0  0
 19 18  1  0  0  0  0
 20 18  2  0  0  0  0
 21 18  2  0  0  0  0
 22 23  1  0  0  0  0
M  RAD  3   2   2   3   3   4   2
M  END
