Coordinates from ORCA-job 4-MeOPhN2+~HSO4-_B3LYPG-6-31G_dp-CH-Scan-d09-49-n800
 OpenBabel11261919063D

 23 22  0  0  0  0  0  0  0  0999 V2000
   -1.8557   -0.0813   -0.0593 C   0  0  0  0  0  0  0  0  0  0  0  0
   -3.2055   -0.3244    0.0289 N   0  0  0  0  0  0  0  0  0  0  0  0
   -4.3102   -0.4963    0.0933 N   0  0  0  0  0  0  0  0  0  0  0  0
   -1.4853    1.2505   -0.3733 C   0  0  0  0  0  0  0  0  0  0  0  0
   -0.0923    1.3835   -0.4452 C   0  0  0  0  0  0  0  0  0  0  0  0
    0.8089    0.3260   -0.2328 C   0  0  0  0  0  0  0  0  0  0  0  0
    2.1201    0.6300   -0.3448 O   0  0  0  0  0  0  0  0  0  0  0  0
    3.1014   -0.3852   -0.1559 C   0  0  0  0  0  0  0  0  0  0  0  0
    0.3449   -0.9815    0.0801 C   0  0  0  0  0  0  0  0  0  0  0  0
   -1.0103   -1.1983    0.1695 C   0  0  0  0  0  0  0  0  0  0  0  0
   -2.9303    2.9675   -0.6927 H   0  0  0  0  0  0  0  0  0  0  0  0
    0.3574    2.3470   -0.6800 H   0  0  0  0  0  0  0  0  0  0  0  0
    4.0647    0.1027   -0.3066 H   0  0  0  0  0  0  0  0  0  0  0  0
    2.9878   -1.1945   -0.8866 H   0  0  0  0  0  0  0  0  0  0  0  0
    3.0615   -0.7989    0.8586 H   0  0  0  0  0  0  0  0  0  0  0  0
    1.0334   -1.7997    0.2474 H   0  0  0  0  0  0  0  0  0  0  0  0
   -1.4091   -2.1807    0.4075 H   0  0  0  0  0  0  0  0  0  0  0  0
   -4.7641    3.5864    0.2450 S   0  0  0  0  0  0  0  0  0  0  0  0
   -3.5701    3.7267   -0.8013 O   0  0  0  0  0  0  0  0  0  0  0  0
   -5.7602    4.5702   -0.1320 O   0  0  0  0  0  0  0  0  0  0  0  0
   -5.0853    2.1875    0.4631 O   0  0  0  0  0  0  0  0  0  0  0  0
   -4.0720    4.0753    1.6419 O   0  0  0  0  0  0  0  0  0  0  0  0
   -4.0721    5.0473    1.6392 H   0  0  0  0  0  0  0  0  0  0  0  0
  1  2  1  0  0  0  0
  1 10  2  0  0  0  0
  2  3  1  0  0  0  0
  4  1  1  0  0  0  0
  5  4  2  0  0  0  0
  5  6  1  0  0  0  0
  6  9  2  0  0  0  0
  7  6  1  0  0  0  0
  7  8  1  0  0  0  0
  8 15  1  0  0  0  0
  9 10  1  0  0  0  0
  9 16  1  0  0  0  0
 10 17  1  0  0  0  0
 12  5  1  0  0  0  0
 13  8  1  0  0  0  0
 14  8  1  0  0  0  0
 18 21  2  0  0  0  0
 18 22  1  0  0  0  0
 19 11  1  0  0  0  0
 19 18  1  0  0  0  0
 20 18  2  0  0  0  0
 23 22  1  0  0  0  0
M  RAD  3   2   2   3   3   4   2
M  END
