Coordinates from ORCA-job 4-MeOPhN2+~HSO4-_B3LYPG-6-31G_dp-CH-Scan-d09-49-n800
 OpenBabel11261919063D

 23 22  0  0  0  0  0  0  0  0999 V2000
   -1.3654   -0.1080   -0.2315 C   0  0  0  0  0  0  0  0  0  0  0  0
   -2.7420   -0.1446   -0.1473 N   0  0  0  0  0  0  0  0  0  0  0  0
   -3.8633   -0.1223   -0.1092 N   0  0  0  0  0  0  0  0  0  0  0  0
   -0.8663    1.0720   -0.8312 C   0  0  0  0  0  0  0  0  0  0  0  0
    0.5408    1.0202   -0.8811 C   0  0  0  0  0  0  0  0  0  0  0  0
    1.3104   -0.0497   -0.3996 C   0  0  0  0  0  0  0  0  0  0  0  0
    2.6550    0.0713   -0.5278 O   0  0  0  0  0  0  0  0  0  0  0  0
    3.5058   -0.9690   -0.0623 C   0  0  0  0  0  0  0  0  0  0  0  0
    0.6996   -1.1945    0.1901 C   0  0  0  0  0  0  0  0  0  0  0  0
   -0.6717   -1.2367    0.2813 C   0  0  0  0  0  0  0  0  0  0  0  0
   -4.1903    4.4176   -1.0169 H   0  0  0  0  0  0  0  0  0  0  0  0
    1.1074    1.8464   -1.3134 H   0  0  0  0  0  0  0  0  0  0  0  0
    4.5234   -0.6400   -0.2781 H   0  0  0  0  0  0  0  0  0  0  0  0
    3.3157   -1.9131   -0.5869 H   0  0  0  0  0  0  0  0  0  0  0  0
    3.3999   -1.1258    1.0181 H   0  0  0  0  0  0  0  0  0  0  0  0
    1.2917   -2.0206    0.5627 H   0  0  0  0  0  0  0  0  0  0  0  0
   -1.1849   -2.0888    0.7215 H   0  0  0  0  0  0  0  0  0  0  0  0
   -5.6962    4.0254    0.4525 S   0  0  0  0  0  0  0  0  0  0  0  0
   -4.9962    4.8833   -0.7336 O   0  0  0  0  0  0  0  0  0  0  0  0
   -7.0465    4.5348    0.5544 O   0  0  0  0  0  0  0  0  0  0  0  0
   -5.3620    2.6280    0.2839 O   0  0  0  0  0  0  0  0  0  0  0  0
   -4.8575    4.5194    1.7554 O   0  0  0  0  0  0  0  0  0  0  0  0
   -5.2498    5.3545    2.0628 H   0  0  0  0  0  0  0  0  0  0  0  0
  1  2  1  0  0  0  0
  1 10  2  0  0  0  0
  2  3  1  0  0  0  0
  4  1  1  0  0  0  0
  5  4  2  0  0  0  0
  5  6  1  0  0  0  0
  6  9  2  0  0  0  0
  7  6  1  0  0  0  0
  7  8  1  0  0  0  0
  8 15  1  0  0  0  0
  9 10  1  0  0  0  0
  9 16  1  0  0  0  0
 10 17  1  0  0  0  0
 11 19  1  0  0  0  0
 12  5  1  0  0  0  0
 13  8  1  0  0  0  0
 14  8  1  0  0  0  0
 18 20  2  0  0  0  0
 18 22  1  0  0  0  0
 19 18  1  0  0  0  0
 21 18  2  0  0  0  0
 22 23  1  0  0  0  0
M  RAD  3   2   2   3   3   4   2
M  END
