Coordinates from ORCA-job 4-MeOPhN2+~HSO4-_B3LYPG-6-31G_dp-CH-Scan-d09-49-n800
 OpenBabel11261919063D

 23 22  0  0  0  0  0  0  0  0999 V2000
   -1.6461   -0.1175   -0.0943 C   0  0  0  0  0  0  0  0  0  0  0  0
   -3.0104   -0.2832    0.0022 N   0  0  0  0  0  0  0  0  0  0  0  0
   -4.1260   -0.3781    0.0629 N   0  0  0  0  0  0  0  0  0  0  0  0
   -1.2393    1.1743   -0.5079 C   0  0  0  0  0  0  0  0  0  0  0  0
    0.1638    1.2383   -0.5817 C   0  0  0  0  0  0  0  0  0  0  0  0
    1.0202    0.1662   -0.2847 C   0  0  0  0  0  0  0  0  0  0  0  0
    2.3472    0.4061   -0.4112 O   0  0  0  0  0  0  0  0  0  0  0  0
    3.2822   -0.6304   -0.1348 C   0  0  0  0  0  0  0  0  0  0  0  0
    0.5063   -1.0973    0.1257 C   0  0  0  0  0  0  0  0  0  0  0  0
   -0.8560   -1.2539    0.2258 C   0  0  0  0  0  0  0  0  0  0  0  0
   -3.4624    3.6850   -0.9544 H   0  0  0  0  0  0  0  0  0  0  0  0
    0.6581    2.1613   -0.8862 H   0  0  0  0  0  0  0  0  0  0  0  0
    4.2673   -0.1975   -0.3136 H   0  0  0  0  0  0  0  0  0  0  0  0
    3.1408   -1.4899   -0.8008 H   0  0  0  0  0  0  0  0  0  0  0  0
    3.2197   -0.9633    0.9082 H   0  0  0  0  0  0  0  0  0  0  0  0
    1.1638   -1.9254    0.3575 H   0  0  0  0  0  0  0  0  0  0  0  0
   -1.2955   -2.1989    0.5355 H   0  0  0  0  0  0  0  0  0  0  0  0
   -5.1800    3.7926    0.3200 S   0  0  0  0  0  0  0  0  0  0  0  0
   -4.1958    4.3182   -0.8485 O   0  0  0  0  0  0  0  0  0  0  0  0
   -6.3733    4.6051    0.2152 O   0  0  0  0  0  0  0  0  0  0  0  0
   -5.1891    2.3451    0.3356 O   0  0  0  0  0  0  0  0  0  0  0  0
   -4.3722    4.2323    1.6631 O   0  0  0  0  0  0  0  0  0  0  0  0
   -4.5658    5.1704    1.8302 H   0  0  0  0  0  0  0  0  0  0  0  0
  1  2  1  0  0  0  0
  1 10  2  0  0  0  0
  2  3  1  0  0  0  0
  4  1  1  0  0  0  0
  5  4  2  0  0  0  0
  5  6  1  0  0  0  0
  6  9  2  0  0  0  0
  7  6  1  0  0  0  0
  7  8  1  0  0  0  0
  8 15  1  0  0  0  0
  9 10  1  0  0  0  0
  9 16  1  0  0  0  0
 10 17  1  0  0  0  0
 11 19  1  0  0  0  0
 12  5  1  0  0  0  0
 13  8  1  0  0  0  0
 14  8  1  0  0  0  0
 18 21  2  0  0  0  0
 18 22  1  0  0  0  0
 19 18  1  0  0  0  0
 20 18  2  0  0  0  0
 22 23  1  0  0  0  0
M  RAD  3   2   2   3   3   4   2
M  END
