Coordinates from ORCA-job 4-MeOPhN2+~HSO4-_B3LYPG-6-31G_dp-CH-Scan-d09-49-n800
 OpenBabel11261919063D

 23 22  0  0  0  0  0  0  0  0999 V2000
   -1.9368    0.3215   -0.1908 C   0  0  0  0  0  0  0  0  0  0  0  0
   -3.3072    0.2495   -0.1697 N   0  0  0  0  0  0  0  0  0  0  0  0
   -4.4240    0.1816   -0.1842 N   0  0  0  0  0  0  0  0  0  0  0  0
   -1.3159    1.5753   -0.3947 C   0  0  0  0  0  0  0  0  0  0  0  0
    0.0644    1.5765   -0.4283 C   0  0  0  0  0  0  0  0  0  0  0  0
    0.8062    0.3889   -0.2572 C   0  0  0  0  0  0  0  0  0  0  0  0
    2.1402    0.5262   -0.3046 O   0  0  0  0  0  0  0  0  0  0  0  0
    2.9785   -0.6168   -0.1280 C   0  0  0  0  0  0  0  0  0  0  0  0
    0.1503   -0.8483   -0.0520 C   0  0  0  0  0  0  0  0  0  0  0  0
   -1.2292   -0.8866   -0.0205 C   0  0  0  0  0  0  0  0  0  0  0  0
   -2.0662    2.6559   -0.5090 H   0  0  0  0  0  0  0  0  0  0  0  0
    0.6126    2.5004   -0.5784 H   0  0  0  0  0  0  0  0  0  0  0  0
    4.0001   -0.2447   -0.2008 H   0  0  0  0  0  0  0  0  0  0  0  0
    2.8041   -1.3610   -0.9130 H   0  0  0  0  0  0  0  0  0  0  0  0
    2.8258   -1.0717    0.8570 H   0  0  0  0  0  0  0  0  0  0  0  0
    0.7107   -1.7645    0.0815 H   0  0  0  0  0  0  0  0  0  0  0  0
   -1.7581   -1.8208    0.1359 H   0  0  0  0  0  0  0  0  0  0  0  0
   -4.2012    3.2828    0.5026 S   0  0  0  0  0  0  0  0  0  0  0  0
   -3.1908    3.7525   -0.5015 O   0  0  0  0  0  0  0  0  0  0  0  0
   -5.3948    2.6326   -0.0928 O   0  0  0  0  0  0  0  0  0  0  0  0
   -3.5809    2.5001    1.5914 O   0  0  0  0  0  0  0  0  0  0  0  0
   -4.7526    4.6996    1.1408 O   0  0  0  0  0  0  0  0  0  0  0  0
   -5.6776    4.5306    1.3800 H   0  0  0  0  0  0  0  0  0  0  0  0
  1  2  1  0  0  0  0
  1 10  2  0  0  0  0
  3  2  1  0  0  0  0
  4  1  1  0  0  0  0
  5  4  2  0  0  0  0
  5  6  1  0  0  0  0
  6  9  2  0  0  0  0
  7  6  1  0  0  0  0
  7  8  1  0  0  0  0
  8 15  1  0  0  0  0
  9 10  1  0  0  0  0
  9 16  1  0  0  0  0
 10 17  1  0  0  0  0
 11  4  1  0  0  0  0
 12  5  1  0  0  0  0
 13  8  1  0  0  0  0
 14  8  1  0  0  0  0
 18 22  1  0  0  0  0
 18 21  1  0  0  0  0
 19 18  2  0  0  0  0
 20 18  2  0  0  0  0
 22 23  1  0  0  0  0
M  RAD  3   2   2   3   3  21   2
M  END
