Coordinates from ORCA-job 4-MeOPhN2+~HSO4-_B3LYPG-6-31G_dp-CH-Scan-d09-49-n800
 OpenBabel11261919053D

 23 22  0  0  0  0  0  0  0  0999 V2000
   -1.9555    0.3941   -0.1943 C   0  0  0  0  0  0  0  0  0  0  0  0
   -3.3288    0.3424   -0.1844 N   0  0  0  0  0  0  0  0  0  0  0  0
   -4.4488    0.2760   -0.2269 N   0  0  0  0  0  0  0  0  0  0  0  0
   -1.2931    1.6252   -0.4039 C   0  0  0  0  0  0  0  0  0  0  0  0
    0.0860    1.6037   -0.4324 C   0  0  0  0  0  0  0  0  0  0  0  0
    0.8034    0.4046   -0.2402 C   0  0  0  0  0  0  0  0  0  0  0  0
    2.1398    0.5187   -0.2783 O   0  0  0  0  0  0  0  0  0  0  0  0
    2.9530   -0.6397   -0.0842 C   0  0  0  0  0  0  0  0  0  0  0  0
    0.1181   -0.8107   -0.0292 C   0  0  0  0  0  0  0  0  0  0  0  0
   -1.2655   -0.8169   -0.0124 C   0  0  0  0  0  0  0  0  0  0  0  0
   -1.7815    2.4195   -0.5230 H   0  0  0  0  0  0  0  0  0  0  0  0
    0.6440    2.5191   -0.5935 H   0  0  0  0  0  0  0  0  0  0  0  0
    3.9826   -0.2895   -0.1524 H   0  0  0  0  0  0  0  0  0  0  0  0
    2.7686   -1.3875   -0.8635 H   0  0  0  0  0  0  0  0  0  0  0  0
    2.7826   -1.0814    0.9040 H   0  0  0  0  0  0  0  0  0  0  0  0
    0.6545   -1.7389    0.1189 H   0  0  0  0  0  0  0  0  0  0  0  0
   -1.8145   -1.7384    0.1467 H   0  0  0  0  0  0  0  0  0  0  0  0
   -4.2328    3.3212    0.3311 S   0  0  0  0  0  0  0  0  0  0  0  0
   -3.5064    3.9620   -0.7751 O   0  0  0  0  0  0  0  0  0  0  0  0
   -5.3830    2.4549   -0.0793 O   0  0  0  0  0  0  0  0  0  0  0  0
   -3.3604    2.6158    1.3098 O   0  0  0  0  0  0  0  0  0  0  0  0
   -4.9054    4.5931    1.1415 O   0  0  0  0  0  0  0  0  0  0  0  0
   -5.3994    4.2124    1.8847 H   0  0  0  0  0  0  0  0  0  0  0  0
  1  2  1  0  0  0  0
  1 10  2  0  0  0  0
  3  2  1  0  0  0  0
  4  1  1  0  0  0  0
  5  4  2  0  0  0  0
  5  6  1  0  0  0  0
  6  9  2  0  0  0  0
  7  6  1  0  0  0  0
  7  8  1  0  0  0  0
  8 15  1  0  0  0  0
  9 10  1  0  0  0  0
  9 16  1  0  0  0  0
 10 17  1  0  0  0  0
 11  4  1  0  0  0  0
 12  5  1  0  0  0  0
 13  8  1  0  0  0  0
 14  8  1  0  0  0  0
 18 22  1  0  0  0  0
 18 21  1  0  0  0  0
 19 18  2  0  0  0  0
 20 18  2  0  0  0  0
 22 23  1  0  0  0  0
M  RAD  3   2   2   3   3  21   2
M  END
