Coordinates from ORCA-job 4-MeOPhN2+~HSO4-_B3LYPG-6-31G_dp-CH-Scan-d09-49-n800
 OpenBabel11261919063D

 23 22  0  0  0  0  0  0  0  0999 V2000
   -1.4445   -0.1230   -0.1809 C   0  0  0  0  0  0  0  0  0  0  0  0
   -2.8188   -0.2010   -0.0899 N   0  0  0  0  0  0  0  0  0  0  0  0
   -3.9397   -0.2151   -0.0423 N   0  0  0  0  0  0  0  0  0  0  0  0
   -0.9772    1.0993   -0.7193 C   0  0  0  0  0  0  0  0  0  0  0  0
    0.4301    1.0844   -0.7797 C   0  0  0  0  0  0  0  0  0  0  0  0
    1.2289    0.0094   -0.3608 C   0  0  0  0  0  0  0  0  0  0  0  0
    2.5691    0.1702   -0.4896 O   0  0  0  0  0  0  0  0  0  0  0  0
    3.4477   -0.8738   -0.0879 C   0  0  0  0  0  0  0  0  0  0  0  0
    0.6498   -1.1800    0.1697 C   0  0  0  0  0  0  0  0  0  0  0  0
   -0.7194   -1.2600    0.2662 C   0  0  0  0  0  0  0  0  0  0  0  0
   -4.0014    4.2648   -1.0361 H   0  0  0  0  0  0  0  0  0  0  0  0
    0.9737    1.9459   -1.1703 H   0  0  0  0  0  0  0  0  0  0  0  0
    4.4558   -0.5075   -0.2879 H   0  0  0  0  0  0  0  0  0  0  0  0
    3.2783   -1.7903   -0.6655 H   0  0  0  0  0  0  0  0  0  0  0  0
    3.3513   -1.0949    0.9821 H   0  0  0  0  0  0  0  0  0  0  0  0
    1.2640   -2.0102    0.4939 H   0  0  0  0  0  0  0  0  0  0  0  0
   -1.2087   -2.1465    0.6633 H   0  0  0  0  0  0  0  0  0  0  0  0
   -5.5515    3.9671    0.4109 S   0  0  0  0  0  0  0  0  0  0  0  0
   -4.7974    4.7641   -0.7834 O   0  0  0  0  0  0  0  0  0  0  0  0
   -6.8779    4.5409    0.4807 O   0  0  0  0  0  0  0  0  0  0  0  0
   -5.2824    2.5516    0.2808 O   0  0  0  0  0  0  0  0  0  0  0  0
   -4.7088    4.4516    1.7150 O   0  0  0  0  0  0  0  0  0  0  0  0
   -5.0635    5.3128    1.9949 H   0  0  0  0  0  0  0  0  0  0  0  0
  1  2  1  0  0  0  0
  1 10  2  0  0  0  0
  2  3  1  0  0  0  0
  4  1  1  0  0  0  0
  5  4  2  0  0  0  0
  5  6  1  0  0  0  0
  6  9  2  0  0  0  0
  7  6  1  0  0  0  0
  7  8  1  0  0  0  0
  8 15  1  0  0  0  0
  9 10  1  0  0  0  0
  9 16  1  0  0  0  0
 10 17  1  0  0  0  0
 11 19  1  0  0  0  0
 12  5  1  0  0  0  0
 13  8  1  0  0  0  0
 14  8  1  0  0  0  0
 18 20  2  0  0  0  0
 18 22  1  0  0  0  0
 19 18  1  0  0  0  0
 21 18  2  0  0  0  0
 22 23  1  0  0  0  0
M  RAD  3   2   2   3   3   4   2
M  END
