Coordinates from ORCA-job 4-MeOPhN2+~HSO4-_B3LYPG-6-31G_dp-CH-Scan-d09-49-n800
 OpenBabel11261919063D

 23 22  0  0  0  0  0  0  0  0999 V2000
   -1.4472   -0.1227   -0.1799 C   0  0  0  0  0  0  0  0  0  0  0  0
   -2.8215   -0.2021   -0.0894 N   0  0  0  0  0  0  0  0  0  0  0  0
   -3.9422   -0.2176   -0.0389 N   0  0  0  0  0  0  0  0  0  0  0  0
   -0.9806    1.1013   -0.7149 C   0  0  0  0  0  0  0  0  0  0  0  0
    0.4268    1.0874   -0.7750 C   0  0  0  0  0  0  0  0  0  0  0  0
    1.2261    0.0118   -0.3589 C   0  0  0  0  0  0  0  0  0  0  0  0
    2.5663    0.1738   -0.4870 O   0  0  0  0  0  0  0  0  0  0  0  0
    3.4455   -0.8707   -0.0879 C   0  0  0  0  0  0  0  0  0  0  0  0
    0.6477   -1.1793    0.1683 C   0  0  0  0  0  0  0  0  0  0  0  0
   -0.7215   -1.2605    0.2643 C   0  0  0  0  0  0  0  0  0  0  0  0
   -3.9985    4.2580   -1.0401 H   0  0  0  0  0  0  0  0  0  0  0  0
    0.9699    1.9504   -1.1632 H   0  0  0  0  0  0  0  0  0  0  0  0
    4.4533   -0.5033   -0.2867 H   0  0  0  0  0  0  0  0  0  0  0  0
    3.2767   -1.7858   -0.6681 H   0  0  0  0  0  0  0  0  0  0  0  0
    3.3490   -1.0947    0.9814 H   0  0  0  0  0  0  0  0  0  0  0  0
    1.2624   -2.0100    0.4904 H   0  0  0  0  0  0  0  0  0  0  0  0
   -1.2103   -2.1484    0.6589 H   0  0  0  0  0  0  0  0  0  0  0  0
   -5.5462    3.9641    0.4105 S   0  0  0  0  0  0  0  0  0  0  0  0
   -4.7938    4.7582   -0.7869 O   0  0  0  0  0  0  0  0  0  0  0  0
   -6.8718    4.5396    0.4820 O   0  0  0  0  0  0  0  0  0  0  0  0
   -5.2791    2.5481    0.2823 O   0  0  0  0  0  0  0  0  0  0  0  0
   -4.7001    4.4500    1.7119 O   0  0  0  0  0  0  0  0  0  0  0  0
   -5.0531    5.3122    1.9909 H   0  0  0  0  0  0  0  0  0  0  0  0
  1  2  1  0  0  0  0
  1 10  2  0  0  0  0
  2  3  1  0  0  0  0
  4  1  1  0  0  0  0
  5  4  2  0  0  0  0
  5  6  1  0  0  0  0
  6  9  2  0  0  0  0
  7  6  1  0  0  0  0
  7  8  1  0  0  0  0
  8 15  1  0  0  0  0
  9 10  1  0  0  0  0
  9 16  1  0  0  0  0
 10 17  1  0  0  0  0
 11 19  1  0  0  0  0
 12  5  1  0  0  0  0
 13  8  1  0  0  0  0
 14  8  1  0  0  0  0
 18 20  2  0  0  0  0
 18 22  1  0  0  0  0
 19 18  1  0  0  0  0
 21 18  2  0  0  0  0
 22 23  1  0  0  0  0
M  RAD  3   2   2   3   3   4   2
M  END
