Coordinates from ORCA-job 4-MeOPhN2+~HSO4-_B3LYPG-6-31G_dp-CH-Scan-d09-49-n800
 OpenBabel11261919063D

 23 22  0  0  0  0  0  0  0  0999 V2000
   -1.5697   -0.1212   -0.1177 C   0  0  0  0  0  0  0  0  0  0  0  0
   -2.9388   -0.2544   -0.0226 N   0  0  0  0  0  0  0  0  0  0  0  0
   -4.0570   -0.3180    0.0346 N   0  0  0  0  0  0  0  0  0  0  0  0
   -1.1424    1.1504   -0.5699 C   0  0  0  0  0  0  0  0  0  0  0  0
    0.2633    1.1847   -0.6399 C   0  0  0  0  0  0  0  0  0  0  0  0
    1.0988    0.1076   -0.3057 C   0  0  0  0  0  0  0  0  0  0  0  0
    2.4315    0.3189   -0.4334 O   0  0  0  0  0  0  0  0  0  0  0  0
    3.3455   -0.7247   -0.1183 C   0  0  0  0  0  0  0  0  0  0  0  0
    0.5611   -1.1337    0.1418 C   0  0  0  0  0  0  0  0  0  0  0  0
   -0.8041   -1.2627    0.2414 C   0  0  0  0  0  0  0  0  0  0  0  0
   -3.6901    3.9497   -1.0354 H   0  0  0  0  0  0  0  0  0  0  0  0
    0.7764    2.0886   -0.9709 H   0  0  0  0  0  0  0  0  0  0  0  0
    4.3396   -0.3154   -0.3031 H   0  0  0  0  0  0  0  0  0  0  0  0
    3.1936   -1.6021   -0.7581 H   0  0  0  0  0  0  0  0  0  0  0  0
    3.2701   -1.0242    0.9341 H   0  0  0  0  0  0  0  0  0  0  0  0
    1.2031   -1.9656    0.4017 H   0  0  0  0  0  0  0  0  0  0  0  0
   -1.2621   -2.1897    0.5782 H   0  0  0  0  0  0  0  0  0  0  0  0
   -5.3192    3.8551    0.3518 S   0  0  0  0  0  0  0  0  0  0  0  0
   -4.4568    4.5192   -0.8471 O   0  0  0  0  0  0  0  0  0  0  0  0
   -6.5816    4.5624    0.3553 O   0  0  0  0  0  0  0  0  0  0  0  0
   -5.1980    2.4144    0.2919 O   0  0  0  0  0  0  0  0  0  0  0  0
   -4.4691    4.3069    1.6634 O   0  0  0  0  0  0  0  0  0  0  0  0
   -4.7366    5.2135    1.8917 H   0  0  0  0  0  0  0  0  0  0  0  0
  1  2  1  0  0  0  0
  1 10  2  0  0  0  0
  2  3  1  0  0  0  0
  4  1  1  0  0  0  0
  5  4  2  0  0  0  0
  5  6  1  0  0  0  0
  6  9  2  0  0  0  0
  7  6  1  0  0  0  0
  7  8  1  0  0  0  0
  8 15  1  0  0  0  0
  9 10  1  0  0  0  0
  9 16  1  0  0  0  0
 10 17  1  0  0  0  0
 11 19  1  0  0  0  0
 12  5  1  0  0  0  0
 13  8  1  0  0  0  0
 14  8  1  0  0  0  0
 18 20  2  0  0  0  0
 18 22  1  0  0  0  0
 19 18  1  0  0  0  0
 21 18  2  0  0  0  0
 22 23  1  0  0  0  0
M  RAD  3   2   2   3   3   4   2
M  END
