Coordinates from ORCA-job 4-MeOPhN2+~HSO4-_B3LYPG-6-31G_dp-CH-Scan-d09-49-n800
 OpenBabel11261919063D

 23 22  0  0  0  0  0  0  0  0999 V2000
   -1.6259   -0.1189   -0.0945 C   0  0  0  0  0  0  0  0  0  0  0  0
   -2.9912   -0.2765    0.0039 N   0  0  0  0  0  0  0  0  0  0  0  0
   -4.1074   -0.3629    0.0674 N   0  0  0  0  0  0  0  0  0  0  0  0
   -1.2146    1.1695   -0.5143 C   0  0  0  0  0  0  0  0  0  0  0  0
    0.1890    1.2259   -0.5895 C   0  0  0  0  0  0  0  0  0  0  0  0
    1.0406    0.1513   -0.2883 C   0  0  0  0  0  0  0  0  0  0  0  0
    2.3690    0.3843   -0.4168 O   0  0  0  0  0  0  0  0  0  0  0  0
    3.2991   -0.6552   -0.1361 C   0  0  0  0  0  0  0  0  0  0  0  0
    0.5214   -1.1081    0.1281 C   0  0  0  0  0  0  0  0  0  0  0  0
   -0.8415   -1.2580    0.2301 C   0  0  0  0  0  0  0  0  0  0  0  0
   -3.5107    3.7490   -0.9689 H   0  0  0  0  0  0  0  0  0  0  0  0
    0.6877    2.1452   -0.8985 H   0  0  0  0  0  0  0  0  0  0  0  0
    4.2862   -0.2277   -0.3168 H   0  0  0  0  0  0  0  0  0  0  0  0
    3.1537   -1.5170   -0.7982 H   0  0  0  0  0  0  0  0  0  0  0  0
    3.2353   -0.9834    0.9084 H   0  0  0  0  0  0  0  0  0  0  0  0
    1.1753   -1.9382    0.3629 H   0  0  0  0  0  0  0  0  0  0  0  0
   -1.2853   -2.1996    0.5443 H   0  0  0  0  0  0  0  0  0  0  0  0
   -5.2178    3.8109    0.3228 S   0  0  0  0  0  0  0  0  0  0  0  0
   -4.2523    4.3691   -0.8476 O   0  0  0  0  0  0  0  0  0  0  0  0
   -6.4274    4.6011    0.2359 O   0  0  0  0  0  0  0  0  0  0  0  0
   -5.1970    2.3637    0.3207 O   0  0  0  0  0  0  0  0  0  0  0  0
   -4.4081    4.2519    1.6641 O   0  0  0  0  0  0  0  0  0  0  0  0
   -4.6207    5.1834    1.8447 H   0  0  0  0  0  0  0  0  0  0  0  0
  1  2  1  0  0  0  0
  1 10  2  0  0  0  0
  2  3  1  0  0  0  0
  4  1  1  0  0  0  0
  5  4  2  0  0  0  0
  5  6  1  0  0  0  0
  6  9  2  0  0  0  0
  7  6  1  0  0  0  0
  7  8  1  0  0  0  0
  8 15  1  0  0  0  0
  9 10  1  0  0  0  0
  9 16  1  0  0  0  0
 10 17  1  0  0  0  0
 11 19  1  0  0  0  0
 12  5  1  0  0  0  0
 13  8  1  0  0  0  0
 14  8  1  0  0  0  0
 18 22  1  0  0  0  0
 19 18  1  0  0  0  0
 20 18  2  0  0  0  0
 21 18  2  0  0  0  0
 22 23  1  0  0  0  0
M  RAD  3   2   2   3   3   4   2
M  END
