Coordinates from ORCA-job 4-MeOPhN2+~HSO4-_B3LYPG-6-31G_dp-CH-Scan-d09-49-n800
 OpenBabel11261919063D

 23 22  0  0  0  0  0  0  0  0999 V2000
   -1.4657   -0.1234   -0.1716 C   0  0  0  0  0  0  0  0  0  0  0  0
   -2.8394   -0.2112   -0.0808 N   0  0  0  0  0  0  0  0  0  0  0  0
   -3.9599   -0.2342   -0.0291 N   0  0  0  0  0  0  0  0  0  0  0  0
   -1.0051    1.1080   -0.6950 C   0  0  0  0  0  0  0  0  0  0  0  0
    0.4022    1.1014   -0.7562 C   0  0  0  0  0  0  0  0  0  0  0  0
    1.2070    0.0257   -0.3512 C   0  0  0  0  0  0  0  0  0  0  0  0
    2.5462    0.1954   -0.4788 O   0  0  0  0  0  0  0  0  0  0  0  0
    3.4307   -0.8489   -0.0910 C   0  0  0  0  0  0  0  0  0  0  0  0
    0.6347   -1.1732    0.1648 C   0  0  0  0  0  0  0  0  0  0  0  0
   -0.7340   -1.2618    0.2610 C   0  0  0  0  0  0  0  0  0  0  0  0
   -3.9570    4.2209   -1.0450 H   0  0  0  0  0  0  0  0  0  0  0  0
    0.9408    1.9707   -1.1364 H   0  0  0  0  0  0  0  0  0  0  0  0
    4.4366   -0.4749   -0.2872 H   0  0  0  0  0  0  0  0  0  0  0  0
    3.2655   -1.7590   -0.6801 H   0  0  0  0  0  0  0  0  0  0  0  0
    3.3364   -1.0840    0.9762 H   0  0  0  0  0  0  0  0  0  0  0  0
    1.2536   -2.0041    0.4785 H   0  0  0  0  0  0  0  0  0  0  0  0
   -1.2181   -2.1558    0.6474 H   0  0  0  0  0  0  0  0  0  0  0  0
   -5.5113    3.9474    0.4029 S   0  0  0  0  0  0  0  0  0  0  0  0
   -4.7496    4.7281   -0.7971 O   0  0  0  0  0  0  0  0  0  0  0  0
   -6.8306    4.5374    0.4705 O   0  0  0  0  0  0  0  0  0  0  0  0
   -5.2598    2.5278    0.2817 O   0  0  0  0  0  0  0  0  0  0  0  0
   -4.6613    4.4298    1.7031 O   0  0  0  0  0  0  0  0  0  0  0  0
   -5.0046    5.2974    1.9772 H   0  0  0  0  0  0  0  0  0  0  0  0
  1  2  1  0  0  0  0
  1 10  2  0  0  0  0
  2  3  1  0  0  0  0
  4  1  1  0  0  0  0
  5  4  2  0  0  0  0
  5  6  1  0  0  0  0
  6  9  2  0  0  0  0
  7  6  1  0  0  0  0
  7  8  1  0  0  0  0
  8 15  1  0  0  0  0
  9 10  1  0  0  0  0
  9 16  1  0  0  0  0
 10 17  1  0  0  0  0
 11 19  1  0  0  0  0
 12  5  1  0  0  0  0
 13  8  1  0  0  0  0
 14  8  1  0  0  0  0
 18 20  2  0  0  0  0
 18 22  1  0  0  0  0
 19 18  1  0  0  0  0
 21 18  2  0  0  0  0
 22 23  1  0  0  0  0
M  RAD  3   2   2   3   3   4   2
M  END
