Coordinates from ORCA-job 4-MeOPhN2+~HSO4-_B3LYPG-6-31G_dp-CH-Scan-d09-49-n800
 OpenBabel11261919063D

 23 22  0  0  0  0  0  0  0  0999 V2000
   -1.3343   -0.0968   -0.2712 C   0  0  0  0  0  0  0  0  0  0  0  0
   -2.7121   -0.1142   -0.1977 N   0  0  0  0  0  0  0  0  0  0  0  0
   -3.8333   -0.0765   -0.1704 N   0  0  0  0  0  0  0  0  0  0  0  0
   -0.8173    1.0563   -0.9068 C   0  0  0  0  0  0  0  0  0  0  0  0
    0.5894    0.9867   -0.9443 C   0  0  0  0  0  0  0  0  0  0  0  0
    1.3428   -0.0749   -0.4208 C   0  0  0  0  0  0  0  0  0  0  0  0
    2.6897    0.0257   -0.5436 O   0  0  0  0  0  0  0  0  0  0  0  0
    3.5247   -1.0070   -0.0347 C   0  0  0  0  0  0  0  0  0  0  0  0
    0.7144   -1.1917    0.2033 C   0  0  0  0  0  0  0  0  0  0  0  0
   -0.6580   -1.2151    0.2854 C   0  0  0  0  0  0  0  0  0  0  0  0
   -4.2924    4.4947   -1.0200 H   0  0  0  0  0  0  0  0  0  0  0  0
    1.1688    1.7910   -1.4002 H   0  0  0  0  0  0  0  0  0  0  0  0
    4.5475   -0.6994   -0.2575 H   0  0  0  0  0  0  0  0  0  0  0  0
    3.3249   -1.9680   -0.5241 H   0  0  0  0  0  0  0  0  0  0  0  0
    3.4115   -1.1216    1.0503 H   0  0  0  0  0  0  0  0  0  0  0  0
    1.2942   -2.0113    0.6081 H   0  0  0  0  0  0  0  0  0  0  0  0
   -1.1844   -2.0457    0.7503 H   0  0  0  0  0  0  0  0  0  0  0  0
   -5.7453    4.0373    0.4833 S   0  0  0  0  0  0  0  0  0  0  0  0
   -5.1038    4.9323   -0.7089 O   0  0  0  0  0  0  0  0  0  0  0  0
   -7.1083    4.5008    0.6255 O   0  0  0  0  0  0  0  0  0  0  0  0
   -5.3701    2.6538    0.2879 O   0  0  0  0  0  0  0  0  0  0  0  0
   -4.8900    4.5427    1.7709 O   0  0  0  0  0  0  0  0  0  0  0  0
   -5.3011    5.3608    2.0989 H   0  0  0  0  0  0  0  0  0  0  0  0
  1  2  1  0  0  0  0
  1 10  2  0  0  0  0
  2  3  1  0  0  0  0
  4  1  1  0  0  0  0
  5  4  2  0  0  0  0
  5  6  1  0  0  0  0
  6  9  2  0  0  0  0
  7  6  1  0  0  0  0
  7  8  1  0  0  0  0
  8 15  1  0  0  0  0
  9 10  1  0  0  0  0
  9 16  1  0  0  0  0
 10 17  1  0  0  0  0
 11 19  1  0  0  0  0
 12  5  1  0  0  0  0
 13  8  1  0  0  0  0
 14  8  1  0  0  0  0
 18 20  2  0  0  0  0
 18 22  1  0  0  0  0
 19 18  1  0  0  0  0
 21 18  2  0  0  0  0
 22 23  1  0  0  0  0
M  RAD  3   2   2   3   3   4   2
M  END
