Coordinates from ORCA-job 4-MeOPhN2+~HSO4-_B3LYPG-6-31G_dp-CH-Scan-d09-49-n800
 OpenBabel11261919063D

 23 22  0  0  0  0  0  0  0  0999 V2000
   -1.5840   -0.1205   -0.1074 C   0  0  0  0  0  0  0  0  0  0  0  0
   -2.9521   -0.2602   -0.0098 N   0  0  0  0  0  0  0  0  0  0  0  0
   -4.0698   -0.3296    0.0501 N   0  0  0  0  0  0  0  0  0  0  0  0
   -1.1614    1.1569   -0.5474 C   0  0  0  0  0  0  0  0  0  0  0  0
    0.2437    1.1972   -0.6204 C   0  0  0  0  0  0  0  0  0  0  0  0
    1.0837    0.1195   -0.2994 C   0  0  0  0  0  0  0  0  0  0  0  0
    2.4152    0.3369   -0.4282 O   0  0  0  0  0  0  0  0  0  0  0  0
    3.3337   -0.7069   -0.1266 C   0  0  0  0  0  0  0  0  0  0  0  0
    0.5513   -1.1280    0.1365 C   0  0  0  0  0  0  0  0  0  0  0  0
   -0.8132   -1.2628    0.2380 C   0  0  0  0  0  0  0  0  0  0  0  0
   -3.6370    3.8919   -1.0147 H   0  0  0  0  0  0  0  0  0  0  0  0
    0.7527    2.1062   -0.9433 H   0  0  0  0  0  0  0  0  0  0  0  0
    4.3258   -0.2922   -0.3103 H   0  0  0  0  0  0  0  0  0  0  0  0
    3.1827   -1.5781   -0.7750 H   0  0  0  0  0  0  0  0  0  0  0  0
    3.2626   -1.0174    0.9229 H   0  0  0  0  0  0  0  0  0  0  0  0
    1.1967   -1.9605    0.3863 H   0  0  0  0  0  0  0  0  0  0  0  0
   -1.2672   -2.1947    0.5664 H   0  0  0  0  0  0  0  0  0  0  0  0
   -5.2943    3.8447    0.3410 S   0  0  0  0  0  0  0  0  0  0  0  0
   -4.3972    4.4771   -0.8486 O   0  0  0  0  0  0  0  0  0  0  0  0
   -6.5417    4.5779    0.3143 O   0  0  0  0  0  0  0  0  0  0  0  0
   -5.2030    2.4010    0.2997 O   0  0  0  0  0  0  0  0  0  0  0  0
   -4.4589    4.2933    1.6633 O   0  0  0  0  0  0  0  0  0  0  0  0
   -4.7110    5.2079    1.8765 H   0  0  0  0  0  0  0  0  0  0  0  0
  1  2  1  0  0  0  0
  1 10  2  0  0  0  0
  2  3  1  0  0  0  0
  4  1  1  0  0  0  0
  5  4  2  0  0  0  0
  5  6  1  0  0  0  0
  6  9  2  0  0  0  0
  7  6  1  0  0  0  0
  7  8  1  0  0  0  0
  8 15  1  0  0  0  0
  9 10  1  0  0  0  0
  9 16  1  0  0  0  0
 10 17  1  0  0  0  0
 11 19  1  0  0  0  0
 12  5  1  0  0  0  0
 13  8  1  0  0  0  0
 14  8  1  0  0  0  0
 18 22  1  0  0  0  0
 19 18  1  0  0  0  0
 20 18  2  0  0  0  0
 21 18  2  0  0  0  0
 22 23  1  0  0  0  0
M  RAD  3   2   2   3   3   4   2
M  END
