Coordinates from ORCA-job 4-MeOPhN2+~HSO4-_B3LYPG-6-31G_dp-CH-Scan-d09-49-n800
 OpenBabel11261919063D

 23 22  0  0  0  0  0  0  0  0999 V2000
   -1.7615   -0.1064   -0.0944 C   0  0  0  0  0  0  0  0  0  0  0  0
   -3.1187   -0.3161   -0.0086 N   0  0  0  0  0  0  0  0  0  0  0  0
   -4.2293   -0.4539    0.0495 N   0  0  0  0  0  0  0  0  0  0  0  0
   -1.3773    1.2062   -0.4639 C   0  0  0  0  0  0  0  0  0  0  0  0
    0.0211    1.3120   -0.5287 C   0  0  0  0  0  0  0  0  0  0  0  0
    0.9035    0.2522   -0.2615 C   0  0  0  0  0  0  0  0  0  0  0  0
    2.2226    0.5306   -0.3732 O   0  0  0  0  0  0  0  0  0  0  0  0
    3.1845   -0.4896   -0.1263 C   0  0  0  0  0  0  0  0  0  0  0  0
    0.4187   -1.0351    0.1045 C   0  0  0  0  0  0  0  0  0  0  0  0
   -0.9399   -1.2289    0.1917 C   0  0  0  0  0  0  0  0  0  0  0  0
   -3.1988    3.3064   -0.8547 H   0  0  0  0  0  0  0  0  0  0  0  0
    0.4907    2.2568   -0.8011 H   0  0  0  0  0  0  0  0  0  0  0  0
    4.1578   -0.0248   -0.2873 H   0  0  0  0  0  0  0  0  0  0  0  0
    3.0671   -1.3303   -0.8202 H   0  0  0  0  0  0  0  0  0  0  0  0
    3.1269   -0.8565    0.9054 H   0  0  0  0  0  0  0  0  0  0  0  0
    1.0949   -1.8542    0.3133 H   0  0  0  0  0  0  0  0  0  0  0  0
   -1.3559   -2.1942    0.4686 H   0  0  0  0  0  0  0  0  0  0  0  0
   -4.9609    3.6843    0.3023 S   0  0  0  0  0  0  0  0  0  0  0  0
   -3.8881    4.0041   -0.8513 O   0  0  0  0  0  0  0  0  0  0  0  0
   -6.0555    4.6084    0.0889 O   0  0  0  0  0  0  0  0  0  0  0  0
   -5.1403    2.2523    0.4328 O   0  0  0  0  0  0  0  0  0  0  0  0
   -4.1620    4.1353    1.6497 O   0  0  0  0  0  0  0  0  0  0  0  0
   -4.2421    5.1010    1.7284 H   0  0  0  0  0  0  0  0  0  0  0  0
  1  2  1  0  0  0  0
  1 10  2  0  0  0  0
  2  3  1  0  0  0  0
  4  1  1  0  0  0  0
  5  4  2  0  0  0  0
  5  6  1  0  0  0  0
  6  9  2  0  0  0  0
  7  6  1  0  0  0  0
  7  8  1  0  0  0  0
  8 15  1  0  0  0  0
  9 10  1  0  0  0  0
  9 16  1  0  0  0  0
 10 17  1  0  0  0  0
 11 19  1  0  0  0  0
 12  5  1  0  0  0  0
 13  8  1  0  0  0  0
 14  8  1  0  0  0  0
 18 21  2  0  0  0  0
 18 22  1  0  0  0  0
 19 18  1  0  0  0  0
 20 18  2  0  0  0  0
 22 23  1  0  0  0  0
M  RAD  3   2   2   3   3   4   2
M  END
