Coordinates from ORCA-job 4-MeOPhN2+~HSO4-_B3LYPG-6-31G_dp-CH-Scan-d09-49-n800
 OpenBabel11261919063D

 23 22  0  0  0  0  0  0  0  0999 V2000
   -1.8803   -0.0768   -0.0532 C   0  0  0  0  0  0  0  0  0  0  0  0
   -3.2280   -0.3293    0.0349 N   0  0  0  0  0  0  0  0  0  0  0  0
   -4.3312   -0.5089    0.0991 N   0  0  0  0  0  0  0  0  0  0  0  0
   -1.5137    1.2592   -0.3550 C   0  0  0  0  0  0  0  0  0  0  0  0
   -0.1221    1.3993   -0.4281 C   0  0  0  0  0  0  0  0  0  0  0  0
    0.7842    0.3436   -0.2274 C   0  0  0  0  0  0  0  0  0  0  0  0
    2.0931    0.6547   -0.3391 O   0  0  0  0  0  0  0  0  0  0  0  0
    3.0798   -0.3578   -0.1623 C   0  0  0  0  0  0  0  0  0  0  0  0
    0.3259   -0.9681    0.0739 C   0  0  0  0  0  0  0  0  0  0  0  0
   -1.0284   -1.1910    0.1634 C   0  0  0  0  0  0  0  0  0  0  0  0
   -2.8614    2.8778   -0.6481 H   0  0  0  0  0  0  0  0  0  0  0  0
    0.3219    2.3672   -0.6548 H   0  0  0  0  0  0  0  0  0  0  0  0
    4.0404    0.1363   -0.3104 H   0  0  0  0  0  0  0  0  0  0  0  0
    2.9681   -1.1602   -0.9009 H   0  0  0  0  0  0  0  0  0  0  0  0
    3.0439   -0.7814    0.8482 H   0  0  0  0  0  0  0  0  0  0  0  0
    1.0176   -1.7854    0.2324 H   0  0  0  0  0  0  0  0  0  0  0  0
   -1.4227   -2.1771    0.3928 H   0  0  0  0  0  0  0  0  0  0  0  0
   -4.7085    3.5617    0.2328 S   0  0  0  0  0  0  0  0  0  0  0  0
   -3.4871    3.6574   -0.7788 O   0  0  0  0  0  0  0  0  0  0  0  0
   -5.6817    4.5515   -0.1882 O   0  0  0  0  0  0  0  0  0  0  0  0
   -5.0609    2.1734    0.4748 O   0  0  0  0  0  0  0  0  0  0  0  0
   -4.0500    4.0711    1.6403 O   0  0  0  0  0  0  0  0  0  0  0  0
   -4.0413    5.0426    1.6175 H   0  0  0  0  0  0  0  0  0  0  0  0
  1  2  1  0  0  0  0
  1 10  2  0  0  0  0
  2  3  1  0  0  0  0
  4  1  1  0  0  0  0
  5  4  2  0  0  0  0
  5  6  1  0  0  0  0
  6  9  2  0  0  0  0
  7  6  1  0  0  0  0
  7  8  1  0  0  0  0
  8 15  1  0  0  0  0
  9 10  1  0  0  0  0
  9 16  1  0  0  0  0
 10 17  1  0  0  0  0
 12  5  1  0  0  0  0
 13  8  1  0  0  0  0
 14  8  1  0  0  0  0
 18 21  2  0  0  0  0
 18 22  1  0  0  0  0
 19 11  1  0  0  0  0
 19 18  1  0  0  0  0
 20 18  2  0  0  0  0
 23 22  1  0  0  0  0
M  RAD  3   2   2   3   3   4   2
M  END
