Coordinates from ORCA-job 4-MeOPhN2+~HSO4-_B3LYPG-6-31G_dp-CH-Scan-d09-49-n800
 OpenBabel11261919053D

 23 22  0  0  0  0  0  0  0  0999 V2000
   -1.9538    0.3943   -0.1993 C   0  0  0  0  0  0  0  0  0  0  0  0
   -3.3272    0.3427   -0.1898 N   0  0  0  0  0  0  0  0  0  0  0  0
   -4.4470    0.2762   -0.2318 N   0  0  0  0  0  0  0  0  0  0  0  0
   -1.2901    1.6239   -0.4132 C   0  0  0  0  0  0  0  0  0  0  0  0
    0.0890    1.6020   -0.4410 C   0  0  0  0  0  0  0  0  0  0  0  0
    0.8054    0.4031   -0.2436 C   0  0  0  0  0  0  0  0  0  0  0  0
    2.1419    0.5161   -0.2812 O   0  0  0  0  0  0  0  0  0  0  0  0
    2.9542   -0.6418   -0.0811 C   0  0  0  0  0  0  0  0  0  0  0  0
    0.1192   -0.8110   -0.0282 C   0  0  0  0  0  0  0  0  0  0  0  0
   -1.2644   -0.8164   -0.0121 C   0  0  0  0  0  0  0  0  0  0  0  0
   -1.7965    2.4475   -0.5398 H   0  0  0  0  0  0  0  0  0  0  0  0
    0.6479    2.5163   -0.6051 H   0  0  0  0  0  0  0  0  0  0  0  0
    3.9841   -0.2925   -0.1498 H   0  0  0  0  0  0  0  0  0  0  0  0
    2.7703   -1.3930   -0.8572 H   0  0  0  0  0  0  0  0  0  0  0  0
    2.7826   -1.0790    0.9088 H   0  0  0  0  0  0  0  0  0  0  0  0
    0.6550   -1.7390    0.1240 H   0  0  0  0  0  0  0  0  0  0  0  0
   -1.8139   -1.7371    0.1503 H   0  0  0  0  0  0  0  0  0  0  0  0
   -4.2337    3.3177    0.3405 S   0  0  0  0  0  0  0  0  0  0  0  0
   -3.4980    3.9553   -0.7623 O   0  0  0  0  0  0  0  0  0  0  0  0
   -5.3847    2.4565   -0.0775 O   0  0  0  0  0  0  0  0  0  0  0  0
   -3.3691    2.6090    1.3236 O   0  0  0  0  0  0  0  0  0  0  0  0
   -4.9055    4.5934    1.1453 O   0  0  0  0  0  0  0  0  0  0  0  0
   -5.4081    4.2155    1.8842 H   0  0  0  0  0  0  0  0  0  0  0  0
  1  2  1  0  0  0  0
  1 10  2  0  0  0  0
  3  2  1  0  0  0  0
  4  1  1  0  0  0  0
  5  4  2  0  0  0  0
  5  6  1  0  0  0  0
  6  9  2  0  0  0  0
  7  6  1  0  0  0  0
  7  8  1  0  0  0  0
  8 15  1  0  0  0  0
  9 10  1  0  0  0  0
  9 16  1  0  0  0  0
 10 17  1  0  0  0  0
 11  4  1  0  0  0  0
 12  5  1  0  0  0  0
 13  8  1  0  0  0  0
 14  8  1  0  0  0  0
 18 22  1  0  0  0  0
 18 21  1  0  0  0  0
 19 18  2  0  0  0  0
 20 18  2  0  0  0  0
 22 23  1  0  0  0  0
M  RAD  3   2   2   3   3  21   2
M  END
