Coordinates from ORCA-job 4-MeOPhN2+~HSO4-_B3LYPG-6-31G_dp-CH-Scan-d09-49-n800
 OpenBabel11261919063D

 23 22  0  0  0  0  0  0  0  0999 V2000
   -1.9694   -0.0549   -0.1323 C   0  0  0  0  0  0  0  0  0  0  0  0
   -3.3138   -0.3267   -0.0875 N   0  0  0  0  0  0  0  0  0  0  0  0
   -4.4139   -0.5267   -0.0585 N   0  0  0  0  0  0  0  0  0  0  0  0
   -1.5949    1.2855   -0.4023 C   0  0  0  0  0  0  0  0  0  0  0  0
   -0.2095    1.4499   -0.4376 C   0  0  0  0  0  0  0  0  0  0  0  0
    0.7031    0.3998   -0.2270 C   0  0  0  0  0  0  0  0  0  0  0  0
    2.0079    0.7276   -0.2972 O   0  0  0  0  0  0  0  0  0  0  0  0
    3.0030   -0.2750   -0.1016 C   0  0  0  0  0  0  0  0  0  0  0  0
    0.2483   -0.9188    0.0408 C   0  0  0  0  0  0  0  0  0  0  0  0
   -1.1062   -1.1573    0.0885 C   0  0  0  0  0  0  0  0  0  0  0  0
   -2.6847    2.5559   -0.6049 H   0  0  0  0  0  0  0  0  0  0  0  0
    0.2209    2.4290   -0.6357 H   0  0  0  0  0  0  0  0  0  0  0  0
    3.9603    0.2337   -0.2151 H   0  0  0  0  0  0  0  0  0  0  0  0
    2.9231   -1.0694   -0.8528 H   0  0  0  0  0  0  0  0  0  0  0  0
    2.9409   -0.7094    0.9027 H   0  0  0  0  0  0  0  0  0  0  0  0
    0.9427   -1.7320    0.2070 H   0  0  0  0  0  0  0  0  0  0  0  0
   -1.4949   -2.1509    0.2917 H   0  0  0  0  0  0  0  0  0  0  0  0
   -4.4895    3.4317    0.3310 S   0  0  0  0  0  0  0  0  0  0  0  0
   -3.3637    3.3923   -0.7529 O   0  0  0  0  0  0  0  0  0  0  0  0
   -5.5797    4.2674   -0.1491 O   0  0  0  0  0  0  0  0  0  0  0  0
   -4.7360    2.0928    0.8564 O   0  0  0  0  0  0  0  0  0  0  0  0
   -3.7854    4.2357    1.5784 O   0  0  0  0  0  0  0  0  0  0  0  0
   -3.9511    5.1796    1.4219 H   0  0  0  0  0  0  0  0  0  0  0  0
  1  2  1  0  0  0  0
  1 10  2  0  0  0  0
  2  3  1  0  0  0  0
  4  1  1  0  0  0  0
  5  4  2  0  0  0  0
  5  6  1  0  0  0  0
  6  9  2  0  0  0  0
  7  6  1  0  0  0  0
  7  8  1  0  0  0  0
  8 15  1  0  0  0  0
  9 10  1  0  0  0  0
  9 16  1  0  0  0  0
 10 17  1  0  0  0  0
 12  5  1  0  0  0  0
 13  8  1  0  0  0  0
 14  8  1  0  0  0  0
 18 21  2  0  0  0  0
 18 22  1  0  0  0  0
 19 11  1  0  0  0  0
 19 18  1  0  0  0  0
 20 18  2  0  0  0  0
 23 22  1  0  0  0  0
M  RAD  3   2   2   3   3   4   2
M  END
