Coordinates from ORCA-job 4-MeOPhN2+~HSO4-_B3LYPG-6-31G_dp-CH-Scan-d09-49-n800
 OpenBabel11261919063D

 23 22  0  0  0  0  0  0  0  0999 V2000
   -1.8143   -0.0940   -0.0827 C   0  0  0  0  0  0  0  0  0  0  0  0
   -3.1677   -0.3226    0.0015 N   0  0  0  0  0  0  0  0  0  0  0  0
   -4.2753   -0.4794    0.0597 N   0  0  0  0  0  0  0  0  0  0  0  0
   -1.4382    1.2289   -0.4245 C   0  0  0  0  0  0  0  0  0  0  0  0
   -0.0426    1.3505   -0.4901 C   0  0  0  0  0  0  0  0  0  0  0  0
    0.8504    0.2932   -0.2472 C   0  0  0  0  0  0  0  0  0  0  0  0
    2.1654    0.5864   -0.3562 O   0  0  0  0  0  0  0  0  0  0  0  0
    3.1381   -0.4298   -0.1344 C   0  0  0  0  0  0  0  0  0  0  0  0
    0.3773   -1.0050    0.0923 C   0  0  0  0  0  0  0  0  0  0  0  0
   -0.9795   -1.2125    0.1776 C   0  0  0  0  0  0  0  0  0  0  0  0
   -3.0607    3.1266   -0.7812 H   0  0  0  0  0  0  0  0  0  0  0  0
    0.4163    2.3055   -0.7433 H   0  0  0  0  0  0  0  0  0  0  0  0
    4.1062    0.0479   -0.2886 H   0  0  0  0  0  0  0  0  0  0  0  0
    3.0259   -1.2563   -0.8461 H   0  0  0  0  0  0  0  0  0  0  0  0
    3.0874   -0.8189    0.8894 H   0  0  0  0  0  0  0  0  0  0  0  0
    1.0606   -1.8226    0.2828 H   0  0  0  0  0  0  0  0  0  0  0  0
   -1.3858   -2.1871    0.4351 H   0  0  0  0  0  0  0  0  0  0  0  0
   -4.8548    3.6286    0.2807 S   0  0  0  0  0  0  0  0  0  0  0  0
   -3.7296    3.8511   -0.8370 O   0  0  0  0  0  0  0  0  0  0  0  0
   -5.9018    4.5878   -0.0076 O   0  0  0  0  0  0  0  0  0  0  0  0
   -5.1073    2.2126    0.4652 O   0  0  0  0  0  0  0  0  0  0  0  0
   -4.0905    4.0988    1.6435 O   0  0  0  0  0  0  0  0  0  0  0  0
   -4.1222    5.0699    1.6750 H   0  0  0  0  0  0  0  0  0  0  0  0
  1  2  1  0  0  0  0
  1 10  2  0  0  0  0
  2  3  1  0  0  0  0
  4  1  1  0  0  0  0
  5  4  2  0  0  0  0
  5  6  1  0  0  0  0
  6  9  2  0  0  0  0
  7  6  1  0  0  0  0
  7  8  1  0  0  0  0
  8 15  1  0  0  0  0
  9 10  1  0  0  0  0
  9 16  1  0  0  0  0
 10 17  1  0  0  0  0
 12  5  1  0  0  0  0
 13  8  1  0  0  0  0
 14  8  1  0  0  0  0
 18 21  2  0  0  0  0
 18 22  1  0  0  0  0
 19 11  1  0  0  0  0
 19 18  1  0  0  0  0
 20 18  2  0  0  0  0
 22 23  1  0  0  0  0
M  RAD  3   2   2   3   3   4   2
M  END
