Coordinates from ORCA-job 4-MeOPhN2+~HSO4-_B3LYPG-6-31G_dp-CH-Scan-d09-49-n800
 OpenBabel11261919063D

 23 22  0  0  0  0  0  0  0  0999 V2000
   -1.8840   -0.0764   -0.0544 C   0  0  0  0  0  0  0  0  0  0  0  0
   -3.2314   -0.3303    0.0324 N   0  0  0  0  0  0  0  0  0  0  0  0
   -4.3345   -0.5113    0.0955 N   0  0  0  0  0  0  0  0  0  0  0  0
   -1.5177    1.2602   -0.3539 C   0  0  0  0  0  0  0  0  0  0  0  0
   -0.1263    1.4015   -0.4261 C   0  0  0  0  0  0  0  0  0  0  0  0
    0.7806    0.3461   -0.2266 C   0  0  0  0  0  0  0  0  0  0  0  0
    2.0893    0.6583   -0.3372 O   0  0  0  0  0  0  0  0  0  0  0  0
    3.0766   -0.3539   -0.1617 C   0  0  0  0  0  0  0  0  0  0  0  0
    0.3229   -0.9664    0.0724 C   0  0  0  0  0  0  0  0  0  0  0  0
   -1.0313   -1.1902    0.1609 C   0  0  0  0  0  0  0  0  0  0  0  0
   -2.8530    2.8636   -0.6426 H   0  0  0  0  0  0  0  0  0  0  0  0
    0.3169    2.3702   -0.6509 H   0  0  0  0  0  0  0  0  0  0  0  0
    4.0369    0.1411   -0.3087 H   0  0  0  0  0  0  0  0  0  0  0  0
    2.9657   -1.1552   -0.9017 H   0  0  0  0  0  0  0  0  0  0  0  0
    3.0407   -0.7790    0.8481 H   0  0  0  0  0  0  0  0  0  0  0  0
    1.0151   -1.7834    0.2300 H   0  0  0  0  0  0  0  0  0  0  0  0
   -1.4251   -2.1769    0.3884 H   0  0  0  0  0  0  0  0  0  0  0  0
   -4.6998    3.5572    0.2343 S   0  0  0  0  0  0  0  0  0  0  0  0
   -3.4780    3.6455   -0.7762 O   0  0  0  0  0  0  0  0  0  0  0  0
   -5.6735    4.5437   -0.1937 O   0  0  0  0  0  0  0  0  0  0  0  0
   -5.0526    2.1705    0.4862 O   0  0  0  0  0  0  0  0  0  0  0  0
   -4.0432    4.0768    1.6393 O   0  0  0  0  0  0  0  0  0  0  0  0
   -4.0369    5.0481    1.6102 H   0  0  0  0  0  0  0  0  0  0  0  0
  1  2  1  0  0  0  0
  1 10  2  0  0  0  0
  2  3  1  0  0  0  0
  4  1  1  0  0  0  0
  5  4  2  0  0  0  0
  5  6  1  0  0  0  0
  6  9  2  0  0  0  0
  7  6  1  0  0  0  0
  7  8  1  0  0  0  0
  8 15  1  0  0  0  0
  9 10  1  0  0  0  0
  9 16  1  0  0  0  0
 10 17  1  0  0  0  0
 12  5  1  0  0  0  0
 13  8  1  0  0  0  0
 14  8  1  0  0  0  0
 18 21  2  0  0  0  0
 18 22  1  0  0  0  0
 19 11  1  0  0  0  0
 19 18  1  0  0  0  0
 20 18  2  0  0  0  0
 23 22  1  0  0  0  0
M  RAD  3   2   2   3   3   4   2
M  END
