Coordinates from ORCA-job 4-MeOPhN2+~HSO4-_B3LYPG-6-31G_dp-CH-Scan-d09-49-n800
 OpenBabel11261919063D

 23 22  0  0  0  0  0  0  0  0999 V2000
   -1.6105   -0.1197   -0.0965 C   0  0  0  0  0  0  0  0  0  0  0  0
   -2.9767   -0.2708    0.0027 N   0  0  0  0  0  0  0  0  0  0  0  0
   -4.0935   -0.3508    0.0662 N   0  0  0  0  0  0  0  0  0  0  0  0
   -1.1955    1.1655   -0.5220 C   0  0  0  0  0  0  0  0  0  0  0  0
    0.2087    1.2161   -0.5975 C   0  0  0  0  0  0  0  0  0  0  0  0
    1.0563    0.1398   -0.2915 C   0  0  0  0  0  0  0  0  0  0  0  0
    2.3857    0.3674   -0.4209 O   0  0  0  0  0  0  0  0  0  0  0  0
    3.3119   -0.6741   -0.1352 C   0  0  0  0  0  0  0  0  0  0  0  0
    0.5327   -1.1160    0.1304 C   0  0  0  0  0  0  0  0  0  0  0  0
   -0.8308   -1.2606    0.2331 C   0  0  0  0  0  0  0  0  0  0  0  0
   -3.5517    3.7987   -0.9824 H   0  0  0  0  0  0  0  0  0  0  0  0
    0.7109    2.1322   -0.9105 H   0  0  0  0  0  0  0  0  0  0  0  0
    4.3007   -0.2509   -0.3172 H   0  0  0  0  0  0  0  0  0  0  0  0
    3.1640   -1.5383   -0.7936 H   0  0  0  0  0  0  0  0  0  0  0  0
    3.2464   -0.9976    0.9107 H   0  0  0  0  0  0  0  0  0  0  0  0
    1.1837   -1.9474    0.3687 H   0  0  0  0  0  0  0  0  0  0  0  0
   -1.2780   -2.1992    0.5514 H   0  0  0  0  0  0  0  0  0  0  0  0
   -5.2464    3.8242    0.3270 S   0  0  0  0  0  0  0  0  0  0  0  0
   -4.2998    4.4075   -0.8476 O   0  0  0  0  0  0  0  0  0  0  0  0
   -6.4688    4.5958    0.2572 O   0  0  0  0  0  0  0  0  0  0  0  0
   -5.2018    2.3777    0.3116 O   0  0  0  0  0  0  0  0  0  0  0  0
   -4.4315    4.2672    1.6642 O   0  0  0  0  0  0  0  0  0  0  0  0
   -4.6586    5.1931    1.8556 H   0  0  0  0  0  0  0  0  0  0  0  0
  1  2  1  0  0  0  0
  1 10  2  0  0  0  0
  2  3  1  0  0  0  0
  4  1  1  0  0  0  0
  5  4  2  0  0  0  0
  5  6  1  0  0  0  0
  6  9  2  0  0  0  0
  7  6  1  0  0  0  0
  7  8  1  0  0  0  0
  8 15  1  0  0  0  0
  9 10  1  0  0  0  0
  9 16  1  0  0  0  0
 10 17  1  0  0  0  0
 11 19  1  0  0  0  0
 12  5  1  0  0  0  0
 13  8  1  0  0  0  0
 14  8  1  0  0  0  0
 18 22  1  0  0  0  0
 19 18  1  0  0  0  0
 20 18  2  0  0  0  0
 21 18  2  0  0  0  0
 22 23  1  0  0  0  0
M  RAD  3   2   2   3   3   4   2
M  END
