Coordinates from ORCA-job 4-MeOPhN2+~HSO4-_B3LYPG-6-31G_dp-CH-Scan-d09-49-n800
 OpenBabel11261919063D

 23 22  0  0  0  0  0  0  0  0999 V2000
   -1.7421   -0.1090   -0.0960 C   0  0  0  0  0  0  0  0  0  0  0  0
   -3.1007   -0.3116   -0.0087 N   0  0  0  0  0  0  0  0  0  0  0  0
   -4.2123   -0.4425    0.0476 N   0  0  0  0  0  0  0  0  0  0  0  0
   -1.3544    1.1999   -0.4741 C   0  0  0  0  0  0  0  0  0  0  0  0
    0.0448    1.2991   -0.5398 C   0  0  0  0  0  0  0  0  0  0  0  0
    0.9231    0.2377   -0.2658 C   0  0  0  0  0  0  0  0  0  0  0  0
    2.2436    0.5100   -0.3794 O   0  0  0  0  0  0  0  0  0  0  0  0
    3.2011   -0.5125   -0.1258 C   0  0  0  0  0  0  0  0  0  0  0  0
    0.4335   -1.0456    0.1087 C   0  0  0  0  0  0  0  0  0  0  0  0
   -0.9257   -1.2335    0.1975 C   0  0  0  0  0  0  0  0  0  0  0  0
   -3.2462    3.3707   -0.8770 H   0  0  0  0  0  0  0  0  0  0  0  0
    0.5186    2.2403   -0.8181 H   0  0  0  0  0  0  0  0  0  0  0  0
    4.1765   -0.0529   -0.2896 H   0  0  0  0  0  0  0  0  0  0  0  0
    3.0804   -1.3573   -0.8142 H   0  0  0  0  0  0  0  0  0  0  0  0
    3.1420   -0.8726    0.9082 H   0  0  0  0  0  0  0  0  0  0  0  0
    1.1068   -1.8657    0.3225 H   0  0  0  0  0  0  0  0  0  0  0  0
   -1.3455   -2.1954    0.4807 H   0  0  0  0  0  0  0  0  0  0  0  0
   -4.9987    3.7032    0.3075 S   0  0  0  0  0  0  0  0  0  0  0  0
   -3.9431    4.0582   -0.8540 O   0  0  0  0  0  0  0  0  0  0  0  0
   -6.1100    4.6121    0.1175 O   0  0  0  0  0  0  0  0  0  0  0  0
   -5.1512    2.2667    0.4179 O   0  0  0  0  0  0  0  0  0  0  0  0
   -4.1924    4.1490    1.6515 O   0  0  0  0  0  0  0  0  0  0  0  0
   -4.2903    5.1116    1.7468 H   0  0  0  0  0  0  0  0  0  0  0  0
  1  2  1  0  0  0  0
  1 10  2  0  0  0  0
  2  3  1  0  0  0  0
  4  1  1  0  0  0  0
  5  4  2  0  0  0  0
  5  6  1  0  0  0  0
  6  9  2  0  0  0  0
  7  6  1  0  0  0  0
  7  8  1  0  0  0  0
  8 15  1  0  0  0  0
  9 10  1  0  0  0  0
  9 16  1  0  0  0  0
 10 17  1  0  0  0  0
 11 19  1  0  0  0  0
 12  5  1  0  0  0  0
 13  8  1  0  0  0  0
 14  8  1  0  0  0  0
 18 21  2  0  0  0  0
 18 22  1  0  0  0  0
 19 18  1  0  0  0  0
 20 18  2  0  0  0  0
 22 23  1  0  0  0  0
M  RAD  3   2   2   3   3   4   2
M  END
