Coordinates from ORCA-job 4-MeOPhN2+~HSO4-_B3LYPG-6-31G_dp-CH-Scan-d09-49-n800
 OpenBabel11261919063D

 23 22  0  0  0  0  0  0  0  0999 V2000
   -1.5228   -0.1233   -0.1472 C   0  0  0  0  0  0  0  0  0  0  0  0
   -2.8943   -0.2363   -0.0561 N   0  0  0  0  0  0  0  0  0  0  0  0
   -4.0137   -0.2821   -0.0002 N   0  0  0  0  0  0  0  0  0  0  0  0
   -1.0801    1.1297   -0.6344 C   0  0  0  0  0  0  0  0  0  0  0  0
    0.3268    1.1452   -0.6981 C   0  0  0  0  0  0  0  0  0  0  0  0
    1.1480    0.0693   -0.3273 C   0  0  0  0  0  0  0  0  0  0  0  0
    2.4841    0.2617   -0.4532 O   0  0  0  0  0  0  0  0  0  0  0  0
    3.3842   -0.7817   -0.1003 C   0  0  0  0  0  0  0  0  0  0  0  0
    0.5940   -1.1522    0.1538 C   0  0  0  0  0  0  0  0  0  0  0  0
   -0.7731   -1.2629    0.2498 C   0  0  0  0  0  0  0  0  0  0  0  0
   -3.8257    4.0962   -1.0550 H   0  0  0  0  0  0  0  0  0  0  0  0
    0.8521    2.0330   -1.0531 H   0  0  0  0  0  0  0  0  0  0  0  0
    4.3842   -0.3885   -0.2892 H   0  0  0  0  0  0  0  0  0  0  0  0
    3.2282   -1.6759   -0.7154 H   0  0  0  0  0  0  0  0  0  0  0  0
    3.2977   -1.0494    0.9598 H   0  0  0  0  0  0  0  0  0  0  0  0
    1.2252   -1.9832    0.4415 H   0  0  0  0  0  0  0  0  0  0  0  0
   -1.2436   -2.1746    0.6109 H   0  0  0  0  0  0  0  0  0  0  0  0
   -5.4035    3.8942    0.3799 S   0  0  0  0  0  0  0  0  0  0  0  0
   -4.6093    4.6267   -0.8280 O   0  0  0  0  0  0  0  0  0  0  0  0
   -6.7005    4.5336    0.4312 O   0  0  0  0  0  0  0  0  0  0  0  0
   -5.2067    2.4640    0.2847 O   0  0  0  0  0  0  0  0  0  0  0  0
   -4.5421    4.3654    1.6769 O   0  0  0  0  0  0  0  0  0  0  0  0
   -4.8517    5.2509    1.9328 H   0  0  0  0  0  0  0  0  0  0  0  0
  1  2  1  0  0  0  0
  1 10  2  0  0  0  0
  2  3  1  0  0  0  0
  4  1  1  0  0  0  0
  5  4  2  0  0  0  0
  5  6  1  0  0  0  0
  6  9  2  0  0  0  0
  7  6  1  0  0  0  0
  7  8  1  0  0  0  0
  8 15  1  0  0  0  0
  9 10  1  0  0  0  0
  9 16  1  0  0  0  0
 10 17  1  0  0  0  0
 11 19  1  0  0  0  0
 12  5  1  0  0  0  0
 13  8  1  0  0  0  0
 14  8  1  0  0  0  0
 18 20  2  0  0  0  0
 18 22  1  0  0  0  0
 19 18  1  0  0  0  0
 21 18  2  0  0  0  0
 22 23  1  0  0  0  0
M  RAD  3   2   2   3   3   4   2
M  END
