Coordinates from ORCA-job 4-MeOPhN2+~HSO4-_B3LYPG-6-31G_dp-CH-Scan-d09-49-n800
 OpenBabel11261919063D

 23 22  0  0  0  0  0  0  0  0999 V2000
   -1.9732   -0.0017   -0.1107 C   0  0  0  0  0  0  0  0  0  0  0  0
   -3.3224   -0.2407   -0.0618 N   0  0  0  0  0  0  0  0  0  0  0  0
   -4.4251   -0.4157   -0.0250 N   0  0  0  0  0  0  0  0  0  0  0  0
   -1.5443    1.3266   -0.3445 C   0  0  0  0  0  0  0  0  0  0  0  0
   -0.1655    1.4774   -0.3941 C   0  0  0  0  0  0  0  0  0  0  0  0
    0.7227    0.3972   -0.2246 C   0  0  0  0  0  0  0  0  0  0  0  0
    2.0304    0.6963   -0.3010 O   0  0  0  0  0  0  0  0  0  0  0  0
    3.0063   -0.3337   -0.1435 C   0  0  0  0  0  0  0  0  0  0  0  0
    0.2338   -0.9136    0.0090 C   0  0  0  0  0  0  0  0  0  0  0  0
   -1.1270   -1.1216    0.0648 C   0  0  0  0  0  0  0  0  0  0  0  0
   -2.4506    2.4245   -0.4858 H   0  0  0  0  0  0  0  0  0  0  0  0
    0.2717    2.4566   -0.5674 H   0  0  0  0  0  0  0  0  0  0  0  0
    3.9724    0.1585   -0.2526 H   0  0  0  0  0  0  0  0  0  0  0  0
    2.9005   -1.1034   -0.9164 H   0  0  0  0  0  0  0  0  0  0  0  0
    2.9429   -0.7930    0.8492 H   0  0  0  0  0  0  0  0  0  0  0  0
    0.9077   -1.7496    0.1435 H   0  0  0  0  0  0  0  0  0  0  0  0
   -1.5356   -2.1113    0.2432 H   0  0  0  0  0  0  0  0  0  0  0  0
   -4.4244    3.4008    0.3266 S   0  0  0  0  0  0  0  0  0  0  0  0
   -3.2256    3.4271   -0.6260 O   0  0  0  0  0  0  0  0  0  0  0  0
   -5.6149    3.9940   -0.2800 O   0  0  0  0  0  0  0  0  0  0  0  0
   -4.5318    2.0884    0.9802 O   0  0  0  0  0  0  0  0  0  0  0  0
   -3.9861    4.4240    1.5473 O   0  0  0  0  0  0  0  0  0  0  0  0
   -4.4046    5.2726    1.3335 H   0  0  0  0  0  0  0  0  0  0  0  0
  1  2  1  0  0  0  0
  1 10  2  0  0  0  0
  2  3  1  0  0  0  0
  4  1  1  0  0  0  0
  5  4  2  0  0  0  0
  5  6  1  0  0  0  0
  6  9  2  0  0  0  0
  7  6  1  0  0  0  0
  7  8  1  0  0  0  0
  8 15  1  0  0  0  0
  9 10  1  0  0  0  0
  9 16  1  0  0  0  0
 10 17  1  0  0  0  0
 12  5  1  0  0  0  0
 13  8  1  0  0  0  0
 14  8  1  0  0  0  0
 18 21  2  0  0  0  0
 18 22  1  0  0  0  0
 19 11  1  0  0  0  0
 19 18  1  0  0  0  0
 20 18  2  0  0  0  0
 23 22  1  0  0  0  0
M  RAD  3   2   2   3   3   4   2
M  END
