Coordinates from ORCA-job 4-MeOPhN2+~HSO4-_B3LYPG-6-31G_dp-CH-Scan-d09-49-n800
 OpenBabel11261919053D

 23 22  0  0  0  0  0  0  0  0999 V2000
   -1.9561    0.3941   -0.1935 C   0  0  0  0  0  0  0  0  0  0  0  0
   -3.3294    0.3423   -0.1835 N   0  0  0  0  0  0  0  0  0  0  0  0
   -4.4494    0.2759   -0.2261 N   0  0  0  0  0  0  0  0  0  0  0  0
   -1.2940    1.6255   -0.4019 C   0  0  0  0  0  0  0  0  0  0  0  0
    0.0851    1.6042   -0.4304 C   0  0  0  0  0  0  0  0  0  0  0  0
    0.8028    0.4051   -0.2393 C   0  0  0  0  0  0  0  0  0  0  0  0
    2.1392    0.5195   -0.2774 O   0  0  0  0  0  0  0  0  0  0  0  0
    2.9526   -0.6389   -0.0846 C   0  0  0  0  0  0  0  0  0  0  0  0
    0.1177   -0.8105   -0.0295 C   0  0  0  0  0  0  0  0  0  0  0  0
   -1.2659   -0.8169   -0.0126 C   0  0  0  0  0  0  0  0  0  0  0  0
   -1.7773    2.4114   -0.5191 H   0  0  0  0  0  0  0  0  0  0  0  0
    0.6428    2.5199   -0.5907 H   0  0  0  0  0  0  0  0  0  0  0  0
    3.9821   -0.2885   -0.1526 H   0  0  0  0  0  0  0  0  0  0  0  0
    2.7682   -1.3859   -0.8647 H   0  0  0  0  0  0  0  0  0  0  0  0
    2.7824   -1.0818    0.9031 H   0  0  0  0  0  0  0  0  0  0  0  0
    0.6543   -1.7388    0.1177 H   0  0  0  0  0  0  0  0  0  0  0  0
   -1.8148   -1.7387    0.1456 H   0  0  0  0  0  0  0  0  0  0  0  0
   -4.2324    3.3220    0.3289 S   0  0  0  0  0  0  0  0  0  0  0  0
   -3.5092    3.9634   -0.7788 O   0  0  0  0  0  0  0  0  0  0  0  0
   -5.3828    2.4545   -0.0787 O   0  0  0  0  0  0  0  0  0  0  0  0
   -3.3574    2.6171    1.3058 O   0  0  0  0  0  0  0  0  0  0  0  0
   -4.9044    4.5931    1.1411 O   0  0  0  0  0  0  0  0  0  0  0  0
   -5.3965    4.2117    1.8852 H   0  0  0  0  0  0  0  0  0  0  0  0
  1  2  1  0  0  0  0
  1 10  2  0  0  0  0
  3  2  1  0  0  0  0
  4  1  1  0  0  0  0
  5  4  2  0  0  0  0
  5  6  1  0  0  0  0
  6  9  2  0  0  0  0
  7  6  1  0  0  0  0
  7  8  1  0  0  0  0
  8 15  1  0  0  0  0
  9 10  1  0  0  0  0
  9 16  1  0  0  0  0
 10 17  1  0  0  0  0
 11  4  1  0  0  0  0
 12  5  1  0  0  0  0
 13  8  1  0  0  0  0
 14  8  1  0  0  0  0
 18 22  1  0  0  0  0
 18 21  1  0  0  0  0
 19 18  2  0  0  0  0
 20 18  2  0  0  0  0
 22 23  1  0  0  0  0
M  RAD  3   2   2   3   3  21   2
M  END
