Coordinates from ORCA-job 4-MeOPhN2+~HSO4-_B3LYPG-6-31G_dp-CH-Scan-d09-49-n800
 OpenBabel11261919063D

 23 22  0  0  0  0  0  0  0  0999 V2000
   -1.9386   -0.0683   -0.1105 C   0  0  0  0  0  0  0  0  0  0  0  0
   -3.2837   -0.3382   -0.0555 N   0  0  0  0  0  0  0  0  0  0  0  0
   -4.3848   -0.5341   -0.0187 N   0  0  0  0  0  0  0  0  0  0  0  0
   -1.5721    1.2727   -0.3905 C   0  0  0  0  0  0  0  0  0  0  0  0
   -0.1835    1.4303   -0.4343 C   0  0  0  0  0  0  0  0  0  0  0  0
    0.7291    0.3809   -0.2251 C   0  0  0  0  0  0  0  0  0  0  0  0
    2.0354    0.7062   -0.3066 O   0  0  0  0  0  0  0  0  0  0  0  0
    3.0292   -0.2979   -0.1172 C   0  0  0  0  0  0  0  0  0  0  0  0
    0.2762   -0.9369    0.0532 C   0  0  0  0  0  0  0  0  0  0  0  0
   -1.0777   -1.1734    0.1116 C   0  0  0  0  0  0  0  0  0  0  0  0
   -2.7711    2.6763   -0.6286 H   0  0  0  0  0  0  0  0  0  0  0  0
    0.2515    2.4061   -0.6414 H   0  0  0  0  0  0  0  0  0  0  0  0
    3.9871    0.2077   -0.2411 H   0  0  0  0  0  0  0  0  0  0  0  0
    2.9409   -1.0949   -0.8648 H   0  0  0  0  0  0  0  0  0  0  0  0
    2.9760   -0.7296    0.8889 H   0  0  0  0  0  0  0  0  0  0  0  0
    0.9717   -1.7496    0.2186 H   0  0  0  0  0  0  0  0  0  0  0  0
   -1.4667   -2.1655    0.3226 H   0  0  0  0  0  0  0  0  0  0  0  0
   -4.5709    3.4774    0.3067 S   0  0  0  0  0  0  0  0  0  0  0  0
   -3.4242    3.4742   -0.7744 O   0  0  0  0  0  0  0  0  0  0  0  0
   -5.6147    4.3771   -0.1536 O   0  0  0  0  0  0  0  0  0  0  0  0
   -4.8622    2.1195    0.7434 O   0  0  0  0  0  0  0  0  0  0  0  0
   -3.8552    4.1798    1.6026 O   0  0  0  0  0  0  0  0  0  0  0  0
   -3.9342    5.1400    1.4786 H   0  0  0  0  0  0  0  0  0  0  0  0
  1  2  1  0  0  0  0
  1 10  2  0  0  0  0
  2  3  1  0  0  0  0
  4  1  1  0  0  0  0
  5  4  2  0  0  0  0
  5  6  1  0  0  0  0
  6  9  2  0  0  0  0
  7  6  1  0  0  0  0
  7  8  1  0  0  0  0
  8 15  1  0  0  0  0
  9 10  1  0  0  0  0
  9 16  1  0  0  0  0
 10 17  1  0  0  0  0
 12  5  1  0  0  0  0
 13  8  1  0  0  0  0
 14  8  1  0  0  0  0
 18 21  2  0  0  0  0
 18 22  1  0  0  0  0
 19 11  1  0  0  0  0
 19 18  1  0  0  0  0
 20 18  2  0  0  0  0
 23 22  1  0  0  0  0
M  RAD  3   2   2   3   3   4   2
M  END
