Coordinates from ORCA-job 4-MeOPhN2+~HSO4-_B3LYPG-6-31G_dp-CH-Scan-d09-49-n800
 OpenBabel11261919063D

 23 22  0  0  0  0  0  0  0  0999 V2000
   -1.7065   -0.1126   -0.0983 C   0  0  0  0  0  0  0  0  0  0  0  0
   -3.0673   -0.3016   -0.0083 N   0  0  0  0  0  0  0  0  0  0  0  0
   -4.1804   -0.4191    0.0509 N   0  0  0  0  0  0  0  0  0  0  0  0
   -1.3120    1.1897   -0.4921 C   0  0  0  0  0  0  0  0  0  0  0  0
    0.0890    1.2756   -0.5595 C   0  0  0  0  0  0  0  0  0  0  0  0
    0.9591    0.2110   -0.2737 C   0  0  0  0  0  0  0  0  0  0  0  0
    2.2823    0.4713   -0.3913 O   0  0  0  0  0  0  0  0  0  0  0  0
    3.2313   -0.5557   -0.1258 C   0  0  0  0  0  0  0  0  0  0  0  0
    0.4605   -1.0645    0.1163 C   0  0  0  0  0  0  0  0  0  0  0  0
   -0.9000   -1.2409    0.2083 C   0  0  0  0  0  0  0  0  0  0  0  0
   -3.3320    3.4929   -0.9161 H   0  0  0  0  0  0  0  0  0  0  0  0
    0.5708    2.2096   -0.8491 H   0  0  0  0  0  0  0  0  0  0  0  0
    4.2105   -0.1062   -0.2952 H   0  0  0  0  0  0  0  0  0  0  0  0
    3.1039   -1.4077   -0.8041 H   0  0  0  0  0  0  0  0  0  0  0  0
    3.1697   -0.9034    0.9123 H   0  0  0  0  0  0  0  0  0  0  0  0
    1.1279   -1.8870    0.3393 H   0  0  0  0  0  0  0  0  0  0  0  0
   -1.3274   -2.1961    0.5030 H   0  0  0  0  0  0  0  0  0  0  0  0
   -5.0671    3.7362    0.3150 S   0  0  0  0  0  0  0  0  0  0  0  0
   -4.0435    4.1596   -0.8562 O   0  0  0  0  0  0  0  0  0  0  0  0
   -6.2105    4.6122    0.1678 O   0  0  0  0  0  0  0  0  0  0  0  0
   -5.1664    2.2932    0.3852 O   0  0  0  0  0  0  0  0  0  0  0  0
   -4.2508    4.1742    1.6546 O   0  0  0  0  0  0  0  0  0  0  0  0
   -4.3835    5.1291    1.7810 H   0  0  0  0  0  0  0  0  0  0  0  0
  1  2  1  0  0  0  0
  1 10  2  0  0  0  0
  2  3  1  0  0  0  0
  4  1  1  0  0  0  0
  5  4  2  0  0  0  0
  5  6  1  0  0  0  0
  6  9  2  0  0  0  0
  7  6  1  0  0  0  0
  7  8  1  0  0  0  0
  8 15  1  0  0  0  0
  9 10  1  0  0  0  0
  9 16  1  0  0  0  0
 10 17  1  0  0  0  0
 11 19  1  0  0  0  0
 12  5  1  0  0  0  0
 13  8  1  0  0  0  0
 14  8  1  0  0  0  0
 18 21  2  0  0  0  0
 18 22  1  0  0  0  0
 19 18  1  0  0  0  0
 20 18  2  0  0  0  0
 22 23  1  0  0  0  0
M  RAD  3   2   2   3   3   4   2
M  END
