Coordinates from ORCA-job 4-MeOPhN2+~HSO4-_B3LYPG-6-31G_dp-CH-Scan-d09-49-n800
 OpenBabel11261919063D

 23 22  0  0  0  0  0  0  0  0999 V2000
   -1.4457   -0.1234   -0.1806 C   0  0  0  0  0  0  0  0  0  0  0  0
   -2.8200   -0.2019   -0.0896 N   0  0  0  0  0  0  0  0  0  0  0  0
   -3.9408   -0.2163   -0.0418 N   0  0  0  0  0  0  0  0  0  0  0  0
   -0.9790    1.0994   -0.7183 C   0  0  0  0  0  0  0  0  0  0  0  0
    0.4284    1.0851   -0.7786 C   0  0  0  0  0  0  0  0  0  0  0  0
    1.2275    0.0102   -0.3603 C   0  0  0  0  0  0  0  0  0  0  0  0
    2.5677    0.1717   -0.4890 O   0  0  0  0  0  0  0  0  0  0  0  0
    3.4468   -0.8721   -0.0879 C   0  0  0  0  0  0  0  0  0  0  0  0
    0.6489   -1.1797    0.1694 C   0  0  0  0  0  0  0  0  0  0  0  0
   -0.7202   -1.2604    0.2659 C   0  0  0  0  0  0  0  0  0  0  0  0
   -3.9987    4.2621   -1.0364 H   0  0  0  0  0  0  0  0  0  0  0  0
    0.9716    1.9472   -1.1687 H   0  0  0  0  0  0  0  0  0  0  0  0
    4.4547   -0.5053   -0.2876 H   0  0  0  0  0  0  0  0  0  0  0  0
    3.2777   -1.7884   -0.6661 H   0  0  0  0  0  0  0  0  0  0  0  0
    3.3504   -1.0939    0.9820 H   0  0  0  0  0  0  0  0  0  0  0  0
    1.2635   -2.0098    0.4932 H   0  0  0  0  0  0  0  0  0  0  0  0
   -1.2091   -2.1473    0.6624 H   0  0  0  0  0  0  0  0  0  0  0  0
   -5.5492    3.9662    0.4106 S   0  0  0  0  0  0  0  0  0  0  0  0
   -4.7944    4.7621   -0.7841 O   0  0  0  0  0  0  0  0  0  0  0  0
   -6.8751    4.5412    0.4802 O   0  0  0  0  0  0  0  0  0  0  0  0
   -5.2813    2.5505    0.2808 O   0  0  0  0  0  0  0  0  0  0  0  0
   -4.7061    4.4504    1.7145 O   0  0  0  0  0  0  0  0  0  0  0  0
   -5.0600    5.3120    1.9941 H   0  0  0  0  0  0  0  0  0  0  0  0
  1  2  1  0  0  0  0
  1 10  2  0  0  0  0
  2  3  1  0  0  0  0
  4  1  1  0  0  0  0
  5  4  2  0  0  0  0
  5  6  1  0  0  0  0
  6  9  2  0  0  0  0
  7  6  1  0  0  0  0
  7  8  1  0  0  0  0
  8 15  1  0  0  0  0
  9 10  1  0  0  0  0
  9 16  1  0  0  0  0
 10 17  1  0  0  0  0
 11 19  1  0  0  0  0
 12  5  1  0  0  0  0
 13  8  1  0  0  0  0
 14  8  1  0  0  0  0
 18 20  2  0  0  0  0
 18 22  1  0  0  0  0
 19 18  1  0  0  0  0
 21 18  2  0  0  0  0
 22 23  1  0  0  0  0
M  RAD  3   2   2   3   3   4   2
M  END
