Coordinates from ORCA-job 4-MeOPhN2+~HSO4-_B3LYPG-6-31G_dp-CH-Scan-d09-49-n800
 OpenBabel11261919053D

 23 22  0  0  0  0  0  0  0  0999 V2000
   -1.9535    0.3939   -0.2059 C   0  0  0  0  0  0  0  0  0  0  0  0
   -3.3267    0.3424   -0.1974 N   0  0  0  0  0  0  0  0  0  0  0  0
   -4.4464    0.2761   -0.2392 N   0  0  0  0  0  0  0  0  0  0  0  0
   -1.2895    1.6225   -0.4243 C   0  0  0  0  0  0  0  0  0  0  0  0
    0.0896    1.6008   -0.4507 C   0  0  0  0  0  0  0  0  0  0  0  0
    0.8056    0.4026   -0.2473 C   0  0  0  0  0  0  0  0  0  0  0  0
    2.1422    0.5154   -0.2838 O   0  0  0  0  0  0  0  0  0  0  0  0
    2.9543   -0.6415   -0.0765 C   0  0  0  0  0  0  0  0  0  0  0  0
    0.1192   -0.8107   -0.0275 C   0  0  0  0  0  0  0  0  0  0  0  0
   -1.2643   -0.8161   -0.0129 C   0  0  0  0  0  0  0  0  0  0  0  0
   -1.8095    2.4663   -0.5577 H   0  0  0  0  0  0  0  0  0  0  0  0
    0.6491    2.5142   -0.6178 H   0  0  0  0  0  0  0  0  0  0  0  0
    3.9843   -0.2923   -0.1450 H   0  0  0  0  0  0  0  0  0  0  0  0
    2.7720   -1.3965   -0.8492 H   0  0  0  0  0  0  0  0  0  0  0  0
    2.7809   -1.0738    0.9153 H   0  0  0  0  0  0  0  0  0  0  0  0
    0.6549   -1.7379    0.1292 H   0  0  0  0  0  0  0  0  0  0  0  0
   -1.8139   -1.7361    0.1529 H   0  0  0  0  0  0  0  0  0  0  0  0
   -4.2315    3.3126    0.3514 S   0  0  0  0  0  0  0  0  0  0  0  0
   -3.4858    3.9446   -0.7490 O   0  0  0  0  0  0  0  0  0  0  0  0
   -5.3862    2.4597   -0.0721 O   0  0  0  0  0  0  0  0  0  0  0  0
   -3.3750    2.5996    1.3375 O   0  0  0  0  0  0  0  0  0  0  0  0
   -4.8983    4.5940    1.1510 O   0  0  0  0  0  0  0  0  0  0  0  0
   -5.4140    4.2201    1.8829 H   0  0  0  0  0  0  0  0  0  0  0  0
  1  2  1  0  0  0  0
  1 10  2  0  0  0  0
  3  2  1  0  0  0  0
  4  1  1  0  0  0  0
  5  4  2  0  0  0  0
  5  6  1  0  0  0  0
  6  9  2  0  0  0  0
  7  6  1  0  0  0  0
  7  8  1  0  0  0  0
  8 15  1  0  0  0  0
  9 10  1  0  0  0  0
  9 16  1  0  0  0  0
 10 17  1  0  0  0  0
 11  4  1  0  0  0  0
 12  5  1  0  0  0  0
 13  8  1  0  0  0  0
 14  8  1  0  0  0  0
 18 22  1  0  0  0  0
 18 21  1  0  0  0  0
 19 18  2  0  0  0  0
 20 18  2  0  0  0  0
 22 23  1  0  0  0  0
M  RAD  3   2   2   3   3  21   2
M  END
