Coordinates from ORCA-job 4-MeOPhN2+~HSO4-_B3LYPG-6-31G_dp-CH-Scan-d09-49-n800
 OpenBabel11261919063D

 23 22  0  0  0  0  0  0  0  0999 V2000
   -1.9420    0.3864   -0.2064 C   0  0  0  0  0  0  0  0  0  0  0  0
   -3.3148    0.3364   -0.1920 N   0  0  0  0  0  0  0  0  0  0  0  0
   -4.4339    0.2737   -0.2253 N   0  0  0  0  0  0  0  0  0  0  0  0
   -1.2790    1.6120   -0.4415 C   0  0  0  0  0  0  0  0  0  0  0  0
    0.0992    1.5905   -0.4750 C   0  0  0  0  0  0  0  0  0  0  0  0
    0.8148    0.3928   -0.2637 C   0  0  0  0  0  0  0  0  0  0  0  0
    2.1511    0.5030   -0.3099 O   0  0  0  0  0  0  0  0  0  0  0  0
    2.9638   -0.6520   -0.0941 C   0  0  0  0  0  0  0  0  0  0  0  0
    0.1292   -0.8185   -0.0259 C   0  0  0  0  0  0  0  0  0  0  0  0
   -1.2536   -0.8236   -0.0025 C   0  0  0  0  0  0  0  0  0  0  0  0
   -1.8816    2.5740   -0.5941 H   0  0  0  0  0  0  0  0  0  0  0  0
    0.6605    2.5006   -0.6533 H   0  0  0  0  0  0  0  0  0  0  0  0
    3.9935   -0.3043   -0.1733 H   0  0  0  0  0  0  0  0  0  0  0  0
    2.7762   -1.4160   -0.8566 H   0  0  0  0  0  0  0  0  0  0  0  0
    2.7965   -1.0722    0.9039 H   0  0  0  0  0  0  0  0  0  0  0  0
    0.6658   -1.7438    0.1383 H   0  0  0  0  0  0  0  0  0  0  0  0
   -1.8027   -1.7415    0.1773 H   0  0  0  0  0  0  0  0  0  0  0  0
   -4.1977    3.3047    0.4418 S   0  0  0  0  0  0  0  0  0  0  0  0
   -3.3633    3.9147   -0.6157 O   0  0  0  0  0  0  0  0  0  0  0  0
   -5.3660    2.5131   -0.0525 O   0  0  0  0  0  0  0  0  0  0  0  0
   -3.4109    2.5525    1.4506 O   0  0  0  0  0  0  0  0  0  0  0  0
   -4.8696    4.6046    1.2064 O   0  0  0  0  0  0  0  0  0  0  0  0
   -5.6780    4.2726    1.6274 H   0  0  0  0  0  0  0  0  0  0  0  0
  1  2  1  0  0  0  0
  1 10  2  0  0  0  0
  3  2  1  0  0  0  0
  4  1  1  0  0  0  0
  5  4  2  0  0  0  0
  5  6  1  0  0  0  0
  6  9  2  0  0  0  0
  7  6  1  0  0  0  0
  7  8  1  0  0  0  0
  8 15  1  0  0  0  0
  9 10  1  0  0  0  0
  9 16  1  0  0  0  0
 10 17  1  0  0  0  0
 11  4  1  0  0  0  0
 12  5  1  0  0  0  0
 13  8  1  0  0  0  0
 14  8  1  0  0  0  0
 18 22  1  0  0  0  0
 18 21  1  0  0  0  0
 19 18  2  0  0  0  0
 20 18  2  0  0  0  0
 22 23  1  0  0  0  0
M  RAD  3   2   2   3   3  21   2
M  END
