Coordinates from ORCA-job 4-MeOPhN2+~HSO4-_B3LYPG-6-31G_dp-CH-Scan-d09-49-n800
 OpenBabel11261919063D

 23 22  0  0  0  0  0  0  0  0999 V2000
   -1.5792   -0.1207   -0.1119 C   0  0  0  0  0  0  0  0  0  0  0  0
   -2.9475   -0.2579   -0.0154 N   0  0  0  0  0  0  0  0  0  0  0  0
   -4.0655   -0.3247    0.0440 N   0  0  0  0  0  0  0  0  0  0  0  0
   -1.1549    1.1546   -0.5569 C   0  0  0  0  0  0  0  0  0  0  0  0
    0.2505    1.1925   -0.6284 C   0  0  0  0  0  0  0  0  0  0  0  0
    1.0888    0.1152   -0.3019 C   0  0  0  0  0  0  0  0  0  0  0  0
    2.4208    0.3305   -0.4301 O   0  0  0  0  0  0  0  0  0  0  0  0
    3.3377   -0.7130   -0.1228 C   0  0  0  0  0  0  0  0  0  0  0  0
    0.5546   -1.1299    0.1387 C   0  0  0  0  0  0  0  0  0  0  0  0
   -0.8103   -1.2625    0.2392 C   0  0  0  0  0  0  0  0  0  0  0  0
   -3.6568    3.9136   -1.0236 H   0  0  0  0  0  0  0  0  0  0  0  0
    0.7611    2.0995   -0.9546 H   0  0  0  0  0  0  0  0  0  0  0  0
    4.3306   -0.3002   -0.3068 H   0  0  0  0  0  0  0  0  0  0  0  0
    3.1867   -1.5868   -0.7678 H   0  0  0  0  0  0  0  0  0  0  0  0
    3.2648   -1.0190    0.9278 H   0  0  0  0  0  0  0  0  0  0  0  0
    1.1987   -1.9619    0.3927 H   0  0  0  0  0  0  0  0  0  0  0  0
   -1.2658   -2.1925    0.5710 H   0  0  0  0  0  0  0  0  0  0  0  0
   -5.3025    3.8478    0.3454 S   0  0  0  0  0  0  0  0  0  0  0  0
   -4.4194    4.4925   -0.8484 O   0  0  0  0  0  0  0  0  0  0  0  0
   -6.5558    4.5712    0.3316 O   0  0  0  0  0  0  0  0  0  0  0  0
   -5.1999    2.4053    0.2964 O   0  0  0  0  0  0  0  0  0  0  0  0
   -4.4605    4.2974    1.6631 O   0  0  0  0  0  0  0  0  0  0  0  0
   -4.7187    5.2088    1.8826 H   0  0  0  0  0  0  0  0  0  0  0  0
  1  2  1  0  0  0  0
  1 10  2  0  0  0  0
  2  3  1  0  0  0  0
  4  1  1  0  0  0  0
  5  4  2  0  0  0  0
  5  6  1  0  0  0  0
  6  9  2  0  0  0  0
  7  6  1  0  0  0  0
  7  8  1  0  0  0  0
  8 15  1  0  0  0  0
  9 10  1  0  0  0  0
  9 16  1  0  0  0  0
 10 17  1  0  0  0  0
 11 19  1  0  0  0  0
 12  5  1  0  0  0  0
 13  8  1  0  0  0  0
 14  8  1  0  0  0  0
 18 22  1  0  0  0  0
 19 18  1  0  0  0  0
 20 18  2  0  0  0  0
 21 18  2  0  0  0  0
 22 23  1  0  0  0  0
M  RAD  3   2   2   3   3   4   2
M  END
