Coordinates from ORCA-job 4-MeOPhN2+~HSO4-_B3LYPG-6-31G_dp-CH-Scan-d09-49-n800
 OpenBabel11261919053D

 23 22  0  0  0  0  0  0  0  0999 V2000
   -1.9538    0.3936   -0.2127 C   0  0  0  0  0  0  0  0  0  0  0  0
   -3.3270    0.3420   -0.2052 N   0  0  0  0  0  0  0  0  0  0  0  0
   -4.4468    0.2763   -0.2465 N   0  0  0  0  0  0  0  0  0  0  0  0
   -1.2895    1.6212   -0.4361 C   0  0  0  0  0  0  0  0  0  0  0  0
    0.0894    1.5997   -0.4608 C   0  0  0  0  0  0  0  0  0  0  0  0
    0.8053    0.4024   -0.2508 C   0  0  0  0  0  0  0  0  0  0  0  0
    2.1419    0.5151   -0.2860 O   0  0  0  0  0  0  0  0  0  0  0  0
    2.9539   -0.6405   -0.0713 C   0  0  0  0  0  0  0  0  0  0  0  0
    0.1187   -0.8100   -0.0261 C   0  0  0  0  0  0  0  0  0  0  0  0
   -1.2647   -0.8156   -0.0133 C   0  0  0  0  0  0  0  0  0  0  0  0
   -1.8203    2.4810   -0.5765 H   0  0  0  0  0  0  0  0  0  0  0  0
    0.6493    2.5121   -0.6316 H   0  0  0  0  0  0  0  0  0  0  0  0
    3.9839   -0.2915   -0.1398 H   0  0  0  0  0  0  0  0  0  0  0  0
    2.7731   -1.3996   -0.8404 H   0  0  0  0  0  0  0  0  0  0  0  0
    2.7787   -1.0677    0.9224 H   0  0  0  0  0  0  0  0  0  0  0  0
    0.6543   -1.7364    0.1357 H   0  0  0  0  0  0  0  0  0  0  0  0
   -1.8145   -1.7349    0.1562 H   0  0  0  0  0  0  0  0  0  0  0  0
   -4.2282    3.3086    0.3604 S   0  0  0  0  0  0  0  0  0  0  0  0
   -3.4757    3.9391   -0.7369 O   0  0  0  0  0  0  0  0  0  0  0  0
   -5.3856    2.4626   -0.0690 O   0  0  0  0  0  0  0  0  0  0  0  0
   -3.3780    2.5898    1.3473 O   0  0  0  0  0  0  0  0  0  0  0  0
   -4.8913    4.5924    1.1590 O   0  0  0  0  0  0  0  0  0  0  0  0
   -5.4154    4.2200    1.8857 H   0  0  0  0  0  0  0  0  0  0  0  0
  1  2  1  0  0  0  0
  1 10  2  0  0  0  0
  3  2  1  0  0  0  0
  4  1  1  0  0  0  0
  5  4  2  0  0  0  0
  5  6  1  0  0  0  0
  6  9  2  0  0  0  0
  7  6  1  0  0  0  0
  7  8  1  0  0  0  0
  8 15  1  0  0  0  0
  9 10  1  0  0  0  0
  9 16  1  0  0  0  0
 10 17  1  0  0  0  0
 11  4  1  0  0  0  0
 12  5  1  0  0  0  0
 13  8  1  0  0  0  0
 14  8  1  0  0  0  0
 18 22  1  0  0  0  0
 18 21  1  0  0  0  0
 19 18  2  0  0  0  0
 20 18  2  0  0  0  0
 22 23  1  0  0  0  0
M  RAD  3   2   2   3   3  21   2
M  END
