Coordinates from ORCA-job 4-MeOPhN2+~HSO4-_B3LYPG-6-31G_dp-CH-Scan-d09-49-n800
 OpenBabel11261919063D

 23 22  0  0  0  0  0  0  0  0999 V2000
   -1.7383   -0.1095   -0.0963 C   0  0  0  0  0  0  0  0  0  0  0  0
   -3.0971   -0.3106   -0.0087 N   0  0  0  0  0  0  0  0  0  0  0  0
   -4.2090   -0.4398    0.0474 N   0  0  0  0  0  0  0  0  0  0  0  0
   -1.3500    1.1987   -0.4764 C   0  0  0  0  0  0  0  0  0  0  0  0
    0.0495    1.2964   -0.5422 C   0  0  0  0  0  0  0  0  0  0  0  0
    0.9269    0.2348   -0.2667 C   0  0  0  0  0  0  0  0  0  0  0  0
    2.2477    0.5059   -0.3808 O   0  0  0  0  0  0  0  0  0  0  0  0
    3.2043   -0.5171   -0.1257 C   0  0  0  0  0  0  0  0  0  0  0  0
    0.4364   -1.0476    0.1097 C   0  0  0  0  0  0  0  0  0  0  0  0
   -0.9230   -1.2343    0.1989 C   0  0  0  0  0  0  0  0  0  0  0  0
   -3.2554    3.3840   -0.8817 H   0  0  0  0  0  0  0  0  0  0  0  0
    0.5241    2.2368   -0.8220 H   0  0  0  0  0  0  0  0  0  0  0  0
    4.1801   -0.0585   -0.2902 H   0  0  0  0  0  0  0  0  0  0  0  0
    3.0830   -1.3627   -0.8129 H   0  0  0  0  0  0  0  0  0  0  0  0
    3.1450   -0.8756    0.9088 H   0  0  0  0  0  0  0  0  0  0  0  0
    1.1091   -1.8680    0.3247 H   0  0  0  0  0  0  0  0  0  0  0  0
   -1.3436   -2.1955    0.4835 H   0  0  0  0  0  0  0  0  0  0  0  0
   -5.0061    3.7067    0.3084 S   0  0  0  0  0  0  0  0  0  0  0  0
   -3.9538    4.0693   -0.8543 O   0  0  0  0  0  0  0  0  0  0  0  0
   -6.1208    4.6124    0.1235 O   0  0  0  0  0  0  0  0  0  0  0  0
   -5.1531    2.2694    0.4141 O   0  0  0  0  0  0  0  0  0  0  0  0
   -4.1984    4.1513    1.6519 O   0  0  0  0  0  0  0  0  0  0  0  0
   -4.3001    5.1131    1.7509 H   0  0  0  0  0  0  0  0  0  0  0  0
  1  2  1  0  0  0  0
  1 10  2  0  0  0  0
  2  3  1  0  0  0  0
  4  1  1  0  0  0  0
  5  4  2  0  0  0  0
  5  6  1  0  0  0  0
  6  9  2  0  0  0  0
  7  6  1  0  0  0  0
  7  8  1  0  0  0  0
  8 15  1  0  0  0  0
  9 10  1  0  0  0  0
  9 16  1  0  0  0  0
 10 17  1  0  0  0  0
 11 19  1  0  0  0  0
 12  5  1  0  0  0  0
 13  8  1  0  0  0  0
 14  8  1  0  0  0  0
 18 21  2  0  0  0  0
 18 22  1  0  0  0  0
 19 18  1  0  0  0  0
 20 18  2  0  0  0  0
 22 23  1  0  0  0  0
M  RAD  3   2   2   3   3   4   2
M  END
