Coordinates from ORCA-job 4-MeOPhN2+~HSO4-_B3LYPG-6-31G_dp-CH-Scan-d09-49-n800
 OpenBabel11261919063D

 23 22  0  0  0  0  0  0  0  0999 V2000
   -1.4509   -0.1229   -0.1782 C   0  0  0  0  0  0  0  0  0  0  0  0
   -2.8251   -0.2040   -0.0876 N   0  0  0  0  0  0  0  0  0  0  0  0
   -3.9457   -0.2210   -0.0369 N   0  0  0  0  0  0  0  0  0  0  0  0
   -0.9855    1.1026   -0.7108 C   0  0  0  0  0  0  0  0  0  0  0  0
    0.4218    1.0902   -0.7712 C   0  0  0  0  0  0  0  0  0  0  0  0
    1.2223    0.0146   -0.3573 C   0  0  0  0  0  0  0  0  0  0  0  0
    2.5623    0.1781   -0.4854 O   0  0  0  0  0  0  0  0  0  0  0  0
    3.4425   -0.8663   -0.0886 C   0  0  0  0  0  0  0  0  0  0  0  0
    0.6451   -1.1781    0.1676 C   0  0  0  0  0  0  0  0  0  0  0  0
   -0.7240   -1.2608    0.2637 C   0  0  0  0  0  0  0  0  0  0  0  0
   -3.9901    4.2507   -1.0410 H   0  0  0  0  0  0  0  0  0  0  0  0
    0.9640    1.9545   -1.1578 H   0  0  0  0  0  0  0  0  0  0  0  0
    4.4500   -0.4976   -0.2869 H   0  0  0  0  0  0  0  0  0  0  0  0
    3.2745   -1.7804   -0.6706 H   0  0  0  0  0  0  0  0  0  0  0  0
    3.3465   -1.0926    0.9803 H   0  0  0  0  0  0  0  0  0  0  0  0
    1.2607   -2.0089    0.4880 H   0  0  0  0  0  0  0  0  0  0  0  0
   -1.2118   -2.1500    0.6566 H   0  0  0  0  0  0  0  0  0  0  0  0
   -5.5393    3.9609    0.4089 S   0  0  0  0  0  0  0  0  0  0  0  0
   -4.7849    4.7523   -0.7889 O   0  0  0  0  0  0  0  0  0  0  0  0
   -6.8636    4.5392    0.4796 O   0  0  0  0  0  0  0  0  0  0  0  0
   -5.2753    2.5441    0.2822 O   0  0  0  0  0  0  0  0  0  0  0  0
   -4.6925    4.4461    1.7101 O   0  0  0  0  0  0  0  0  0  0  0  0
   -5.0436    5.3093    1.9882 H   0  0  0  0  0  0  0  0  0  0  0  0
  1  2  1  0  0  0  0
  1 10  2  0  0  0  0
  2  3  1  0  0  0  0
  4  1  1  0  0  0  0
  5  4  2  0  0  0  0
  5  6  1  0  0  0  0
  6  9  2  0  0  0  0
  7  6  1  0  0  0  0
  7  8  1  0  0  0  0
  8 15  1  0  0  0  0
  9 10  1  0  0  0  0
  9 16  1  0  0  0  0
 10 17  1  0  0  0  0
 11 19  1  0  0  0  0
 12  5  1  0  0  0  0
 13  8  1  0  0  0  0
 14  8  1  0  0  0  0
 18 20  2  0  0  0  0
 18 22  1  0  0  0  0
 19 18  1  0  0  0  0
 21 18  2  0  0  0  0
 22 23  1  0  0  0  0
M  RAD  3   2   2   3   3   4   2
M  END
