Coordinates from ORCA-job 4-MeOPhN2+~HSO4-_B3LYPG-6-31G_dp-CH-Scan-d09-49-n800
 OpenBabel11261919063D

 23 22  0  0  0  0  0  0  0  0999 V2000
   -1.8398   -0.0860   -0.0695 C   0  0  0  0  0  0  0  0  0  0  0  0
   -3.1911   -0.3233    0.0165 N   0  0  0  0  0  0  0  0  0  0  0  0
   -4.2969   -0.4897    0.0784 N   0  0  0  0  0  0  0  0  0  0  0  0
   -1.4671    1.2426   -0.3937 C   0  0  0  0  0  0  0  0  0  0  0  0
   -0.0730    1.3713   -0.4624 C   0  0  0  0  0  0  0  0  0  0  0  0
    0.8249    0.3137   -0.2381 C   0  0  0  0  0  0  0  0  0  0  0  0
    2.1376    0.6135   -0.3481 O   0  0  0  0  0  0  0  0  0  0  0  0
    3.1155   -0.4023   -0.1463 C   0  0  0  0  0  0  0  0  0  0  0  0
    0.3572   -0.9904    0.0846 C   0  0  0  0  0  0  0  0  0  0  0  0
   -0.9986   -1.2037    0.1717 C   0  0  0  0  0  0  0  0  0  0  0  0
   -2.9828    3.0291   -0.7297 H   0  0  0  0  0  0  0  0  0  0  0  0
    0.3804    2.3316   -0.7039 H   0  0  0  0  0  0  0  0  0  0  0  0
    4.0808    0.0817   -0.2979 H   0  0  0  0  0  0  0  0  0  0  0  0
    3.0027   -1.2182   -0.8699 H   0  0  0  0  0  0  0  0  0  0  0  0
    3.0710   -0.8067    0.8718 H   0  0  0  0  0  0  0  0  0  0  0  0
    1.0437   -1.8085    0.2611 H   0  0  0  0  0  0  0  0  0  0  0  0
   -1.4004   -2.1832    0.4169 H   0  0  0  0  0  0  0  0  0  0  0  0
   -4.8000    3.6019    0.2605 S   0  0  0  0  0  0  0  0  0  0  0  0
   -3.6355    3.7730   -0.8189 O   0  0  0  0  0  0  0  0  0  0  0  0
   -5.8174    4.5766   -0.0799 O   0  0  0  0  0  0  0  0  0  0  0  0
   -5.0938    2.1962    0.4687 O   0  0  0  0  0  0  0  0  0  0  0  0
   -4.0744    4.0843    1.6416 O   0  0  0  0  0  0  0  0  0  0  0  0
   -4.0853    5.0562    1.6504 H   0  0  0  0  0  0  0  0  0  0  0  0
  1  2  1  0  0  0  0
  1 10  2  0  0  0  0
  2  3  1  0  0  0  0
  4  1  1  0  0  0  0
  5  4  2  0  0  0  0
  5  6  1  0  0  0  0
  6  9  2  0  0  0  0
  7  6  1  0  0  0  0
  7  8  1  0  0  0  0
  8 15  1  0  0  0  0
  9 10  1  0  0  0  0
  9 16  1  0  0  0  0
 10 17  1  0  0  0  0
 12  5  1  0  0  0  0
 13  8  1  0  0  0  0
 14  8  1  0  0  0  0
 18 21  2  0  0  0  0
 18 22  1  0  0  0  0
 19 11  1  0  0  0  0
 19 18  1  0  0  0  0
 20 18  2  0  0  0  0
 22 23  1  0  0  0  0
M  RAD  3   2   2   3   3   4   2
M  END
