Coordinates from ORCA-job 4-MeOPhN2+~HSO4-_B3LYPG-6-31G_dp-CH-Scan-d09-49-n800
 OpenBabel11261919063D

 23 22  0  0  0  0  0  0  0  0999 V2000
   -1.9559   -0.0630   -0.1273 C   0  0  0  0  0  0  0  0  0  0  0  0
   -3.3005   -0.3351   -0.0796 N   0  0  0  0  0  0  0  0  0  0  0  0
   -4.4012   -0.5337   -0.0487 N   0  0  0  0  0  0  0  0  0  0  0  0
   -1.5870    1.2780   -0.4032 C   0  0  0  0  0  0  0  0  0  0  0  0
   -0.1998    1.4400   -0.4398 C   0  0  0  0  0  0  0  0  0  0  0  0
    0.7135    0.3917   -0.2266 C   0  0  0  0  0  0  0  0  0  0  0  0
    2.0190    0.7196   -0.2998 O   0  0  0  0  0  0  0  0  0  0  0  0
    3.0140   -0.2825   -0.1035 C   0  0  0  0  0  0  0  0  0  0  0  0
    0.2606   -0.9269    0.0468 C   0  0  0  0  0  0  0  0  0  0  0  0
   -1.0934   -1.1659    0.0972 C   0  0  0  0  0  0  0  0  0  0  0  0
   -2.7360    2.6143   -0.6240 H   0  0  0  0  0  0  0  0  0  0  0  0
    0.2327    2.4177   -0.6426 H   0  0  0  0  0  0  0  0  0  0  0  0
    3.9714    0.2256   -0.2203 H   0  0  0  0  0  0  0  0  0  0  0  0
    2.9328   -1.0792   -0.8522 H   0  0  0  0  0  0  0  0  0  0  0  0
    2.9543   -0.7144    0.9020 H   0  0  0  0  0  0  0  0  0  0  0  0
    0.9562   -1.7388    0.2150 H   0  0  0  0  0  0  0  0  0  0  0  0
   -1.4817   -2.1589    0.3045 H   0  0  0  0  0  0  0  0  0  0  0  0
   -4.5269    3.4514    0.3265 S   0  0  0  0  0  0  0  0  0  0  0  0
   -3.4024    3.4255   -0.7695 O   0  0  0  0  0  0  0  0  0  0  0  0
   -5.5977    4.3187   -0.1371 O   0  0  0  0  0  0  0  0  0  0  0  0
   -4.7914    2.1043    0.8154 O   0  0  0  0  0  0  0  0  0  0  0  0
   -3.8018    4.2091    1.5878 O   0  0  0  0  0  0  0  0  0  0  0  0
   -3.9211    5.1620    1.4428 H   0  0  0  0  0  0  0  0  0  0  0  0
  1  2  1  0  0  0  0
  1 10  2  0  0  0  0
  2  3  1  0  0  0  0
  4  1  1  0  0  0  0
  5  4  2  0  0  0  0
  5  6  1  0  0  0  0
  6  9  2  0  0  0  0
  7  6  1  0  0  0  0
  7  8  1  0  0  0  0
  8 15  1  0  0  0  0
  9 10  1  0  0  0  0
  9 16  1  0  0  0  0
 10 17  1  0  0  0  0
 12  5  1  0  0  0  0
 13  8  1  0  0  0  0
 14  8  1  0  0  0  0
 18 21  2  0  0  0  0
 18 22  1  0  0  0  0
 19 11  1  0  0  0  0
 19 18  1  0  0  0  0
 20 18  2  0  0  0  0
 23 22  1  0  0  0  0
M  RAD  3   2   2   3   3   4   2
M  END
