Coordinates from ORCA-job 4-MeOPhN2+~HSO4-_B3LYPG-6-31G_dp-CH-Scan-d09-49-n800
 OpenBabel11261919063D

 23 22  0  0  0  0  0  0  0  0999 V2000
   -1.9144   -0.0717   -0.0702 C   0  0  0  0  0  0  0  0  0  0  0  0
   -3.2600   -0.3362    0.0044 N   0  0  0  0  0  0  0  0  0  0  0  0
   -4.3616   -0.5274    0.0574 N   0  0  0  0  0  0  0  0  0  0  0  0
   -1.5494    1.2686   -0.3554 C   0  0  0  0  0  0  0  0  0  0  0  0
   -0.1597    1.4190   -0.4183 C   0  0  0  0  0  0  0  0  0  0  0  0
    0.7516    0.3662   -0.2227 C   0  0  0  0  0  0  0  0  0  0  0  0
    2.0584    0.6861   -0.3235 O   0  0  0  0  0  0  0  0  0  0  0  0
    3.0504   -0.3224   -0.1513 C   0  0  0  0  0  0  0  0  0  0  0  0
    0.2980   -0.9502    0.0624 C   0  0  0  0  0  0  0  0  0  0  0  0
   -1.0557   -1.1812    0.1404 C   0  0  0  0  0  0  0  0  0  0  0  0
   -2.7891    2.7536   -0.6112 H   0  0  0  0  0  0  0  0  0  0  0  0
    0.2778    2.3925   -0.6320 H   0  0  0  0  0  0  0  0  0  0  0  0
    4.0086    0.1790   -0.2896 H   0  0  0  0  0  0  0  0  0  0  0  0
    2.9470   -1.1181   -0.8983 H   0  0  0  0  0  0  0  0  0  0  0  0
    3.0116   -0.7555    0.8549 H   0  0  0  0  0  0  0  0  0  0  0  0
    0.9928   -1.7655    0.2177 H   0  0  0  0  0  0  0  0  0  0  0  0
   -1.4458   -2.1718    0.3572 H   0  0  0  0  0  0  0  0  0  0  0  0
   -4.6284    3.5182    0.2530 S   0  0  0  0  0  0  0  0  0  0  0  0
   -3.4159    3.5531   -0.7607 O   0  0  0  0  0  0  0  0  0  0  0  0
   -5.6156    4.4740   -0.2158 O   0  0  0  0  0  0  0  0  0  0  0  0
   -4.9761    2.1452    0.5846 O   0  0  0  0  0  0  0  0  0  0  0  0
   -3.9728    4.1178    1.6284 O   0  0  0  0  0  0  0  0  0  0  0  0
   -3.9942    5.0862    1.5526 H   0  0  0  0  0  0  0  0  0  0  0  0
  1  2  1  0  0  0  0
  1 10  2  0  0  0  0
  2  3  1  0  0  0  0
  4  1  1  0  0  0  0
  5  4  2  0  0  0  0
  5  6  1  0  0  0  0
  6  9  2  0  0  0  0
  7  6  1  0  0  0  0
  7  8  1  0  0  0  0
  8 15  1  0  0  0  0
  9 10  1  0  0  0  0
  9 16  1  0  0  0  0
 10 17  1  0  0  0  0
 12  5  1  0  0  0  0
 13  8  1  0  0  0  0
 14  8  1  0  0  0  0
 18 21  2  0  0  0  0
 18 22  1  0  0  0  0
 19 11  1  0  0  0  0
 19 18  1  0  0  0  0
 20 18  2  0  0  0  0
 23 22  1  0  0  0  0
M  RAD  3   2   2   3   3   4   2
M  END
