Coordinates from ORCA-job 4-MeOPhN2+~HSO4-_B3LYPG-6-31G_dp-CH-Scan-d09-49-n800
 OpenBabel11261919063D

 23 22  0  0  0  0  0  0  0  0999 V2000
   -1.4204   -0.1204   -0.1941 C   0  0  0  0  0  0  0  0  0  0  0  0
   -2.7955   -0.1863   -0.1042 N   0  0  0  0  0  0  0  0  0  0  0  0
   -3.9166   -0.1889   -0.0588 N   0  0  0  0  0  0  0  0  0  0  0  0
   -0.9446    1.0905   -0.7500 C   0  0  0  0  0  0  0  0  0  0  0  0
    0.4627    1.0653   -0.8082 C   0  0  0  0  0  0  0  0  0  0  0  0
    1.2536   -0.0086   -0.3721 C   0  0  0  0  0  0  0  0  0  0  0  0
    2.5951    0.1412   -0.5013 O   0  0  0  0  0  0  0  0  0  0  0  0
    3.4662   -0.9021   -0.0821 C   0  0  0  0  0  0  0  0  0  0  0  0
    0.6658   -1.1860    0.1753 C   0  0  0  0  0  0  0  0  0  0  0  0
   -0.7040   -1.2556    0.2711 C   0  0  0  0  0  0  0  0  0  0  0  0
   -4.0551    4.3089   -1.0283 H   0  0  0  0  0  0  0  0  0  0  0  0
    1.0126    1.9174   -1.2109 H   0  0  0  0  0  0  0  0  0  0  0  0
    4.4769   -0.5457   -0.2864 H   0  0  0  0  0  0  0  0  0  0  0  0
    3.2915   -1.8264   -0.6457 H   0  0  0  0  0  0  0  0  0  0  0  0
    3.3669   -1.1059    0.9911 H   0  0  0  0  0  0  0  0  0  0  0  0
    1.2741   -2.0154    0.5128 H   0  0  0  0  0  0  0  0  0  0  0  0
   -1.1998   -2.1329    0.6805 H   0  0  0  0  0  0  0  0  0  0  0  0
   -5.5969    3.9874    0.4219 S   0  0  0  0  0  0  0  0  0  0  0  0
   -4.8533    4.8009   -0.7684 O   0  0  0  0  0  0  0  0  0  0  0  0
   -6.9298    4.5450    0.4976 O   0  0  0  0  0  0  0  0  0  0  0  0
   -5.3105    2.5764    0.2810 O   0  0  0  0  0  0  0  0  0  0  0  0
   -4.7580    4.4733    1.7278 O   0  0  0  0  0  0  0  0  0  0  0  0
   -5.1235    5.3275    2.0151 H   0  0  0  0  0  0  0  0  0  0  0  0
  1  2  1  0  0  0  0
  1 10  2  0  0  0  0
  2  3  1  0  0  0  0
  4  1  1  0  0  0  0
  5  4  2  0  0  0  0
  5  6  1  0  0  0  0
  6  9  2  0  0  0  0
  7  6  1  0  0  0  0
  7  8  1  0  0  0  0
  8 15  1  0  0  0  0
  9 10  1  0  0  0  0
  9 16  1  0  0  0  0
 10 17  1  0  0  0  0
 11 19  1  0  0  0  0
 12  5  1  0  0  0  0
 13  8  1  0  0  0  0
 14  8  1  0  0  0  0
 18 20  2  0  0  0  0
 18 22  1  0  0  0  0
 19 18  1  0  0  0  0
 21 18  2  0  0  0  0
 22 23  1  0  0  0  0
M  RAD  3   2   2   3   3   4   2
M  END
