Coordinates from ORCA-job 4-MeOPhN2+~HSO4-_B3LYPG-6-31G_dp-CH-Scan-d09-49-n800
 OpenBabel11261919063D

 23 22  0  0  0  0  0  0  0  0999 V2000
   -1.5928   -0.1205   -0.1027 C   0  0  0  0  0  0  0  0  0  0  0  0
   -2.9602   -0.2643   -0.0043 N   0  0  0  0  0  0  0  0  0  0  0  0
   -4.0775   -0.3369    0.0576 N   0  0  0  0  0  0  0  0  0  0  0  0
   -1.1729    1.1601   -0.5368 C   0  0  0  0  0  0  0  0  0  0  0  0
    0.2318    1.2039   -0.6111 C   0  0  0  0  0  0  0  0  0  0  0  0
    1.0746    0.1264   -0.2963 C   0  0  0  0  0  0  0  0  0  0  0  0
    2.4053    0.3474   -0.4255 O   0  0  0  0  0  0  0  0  0  0  0  0
    3.3265   -0.6959   -0.1305 C   0  0  0  0  0  0  0  0  0  0  0  0
    0.5453   -1.1244    0.1339 C   0  0  0  0  0  0  0  0  0  0  0  0
   -0.8188   -1.2626    0.2361 C   0  0  0  0  0  0  0  0  0  0  0  0
   -3.6064    3.8586   -1.0025 H   0  0  0  0  0  0  0  0  0  0  0  0
    0.7384    2.1156   -0.9300 H   0  0  0  0  0  0  0  0  0  0  0  0
    4.3175   -0.2781   -0.3134 H   0  0  0  0  0  0  0  0  0  0  0  0
    3.1764   -1.5642   -0.7830 H   0  0  0  0  0  0  0  0  0  0  0  0
    3.2576   -1.0117    0.9176 H   0  0  0  0  0  0  0  0  0  0  0  0
    1.1927   -1.9567    0.3788 H   0  0  0  0  0  0  0  0  0  0  0  0
   -1.2703   -2.1972    0.5604 H   0  0  0  0  0  0  0  0  0  0  0  0
   -5.2788    3.8385    0.3356 S   0  0  0  0  0  0  0  0  0  0  0  0
   -4.3625    4.4527   -0.8484 O   0  0  0  0  0  0  0  0  0  0  0  0
   -6.5174    4.5858    0.2921 O   0  0  0  0  0  0  0  0  0  0  0  0
   -5.2042    2.3937    0.3041 O   0  0  0  0  0  0  0  0  0  0  0  0
   -4.4516    4.2853    1.6637 O   0  0  0  0  0  0  0  0  0  0  0  0
   -4.6952    5.2042    1.8687 H   0  0  0  0  0  0  0  0  0  0  0  0
  1  2  1  0  0  0  0
  1 10  2  0  0  0  0
  2  3  1  0  0  0  0
  4  1  1  0  0  0  0
  5  4  2  0  0  0  0
  5  6  1  0  0  0  0
  6  9  2  0  0  0  0
  7  6  1  0  0  0  0
  7  8  1  0  0  0  0
  8 15  1  0  0  0  0
  9 10  1  0  0  0  0
  9 16  1  0  0  0  0
 10 17  1  0  0  0  0
 11 19  1  0  0  0  0
 12  5  1  0  0  0  0
 13  8  1  0  0  0  0
 14  8  1  0  0  0  0
 18 22  1  0  0  0  0
 19 18  1  0  0  0  0
 20 18  2  0  0  0  0
 21 18  2  0  0  0  0
 22 23  1  0  0  0  0
M  RAD  3   2   2   3   3   4   2
M  END
