Coordinates from ORCA-job 4-MeOPhN2+~HSO4-_B3LYPG-6-31G_dp-CH-Scan-d09-49-n800
 OpenBabel11261919063D

 23 22  0  0  0  0  0  0  0  0999 V2000
   -1.9514   -0.0649   -0.1241 C   0  0  0  0  0  0  0  0  0  0  0  0
   -3.2961   -0.3365   -0.0750 N   0  0  0  0  0  0  0  0  0  0  0  0
   -4.3969   -0.5344   -0.0430 N   0  0  0  0  0  0  0  0  0  0  0  0
   -1.5834    1.2763   -0.4012 C   0  0  0  0  0  0  0  0  0  0  0  0
   -0.1958    1.4372   -0.4391 C   0  0  0  0  0  0  0  0  0  0  0  0
    0.7174    0.3888   -0.2263 C   0  0  0  0  0  0  0  0  0  0  0  0
    2.0232    0.7163   -0.3011 O   0  0  0  0  0  0  0  0  0  0  0  0
    3.0179   -0.2861   -0.1059 C   0  0  0  0  0  0  0  0  0  0  0  0
    0.2647   -0.9296    0.0484 C   0  0  0  0  0  0  0  0  0  0  0  0
   -1.0893   -1.1682    0.1003 C   0  0  0  0  0  0  0  0  0  0  0  0
   -2.7480    2.6315   -0.6271 H   0  0  0  0  0  0  0  0  0  0  0  0
    0.2374    2.4144   -0.6430 H   0  0  0  0  0  0  0  0  0  0  0  0
    3.9754    0.2214   -0.2241 H   0  0  0  0  0  0  0  0  0  0  0  0
    2.9354   -1.0831   -0.8542 H   0  0  0  0  0  0  0  0  0  0  0  0
    2.9595   -0.7178    0.8999 H   0  0  0  0  0  0  0  0  0  0  0  0
    0.9604   -1.7416    0.2163 H   0  0  0  0  0  0  0  0  0  0  0  0
   -1.4776   -2.1610    0.3087 H   0  0  0  0  0  0  0  0  0  0  0  0
   -4.5387    3.4580    0.3231 S   0  0  0  0  0  0  0  0  0  0  0  0
   -3.4112    3.4376   -0.7723 O   0  0  0  0  0  0  0  0  0  0  0  0
   -5.6034    4.3335   -0.1380 O   0  0  0  0  0  0  0  0  0  0  0  0
   -4.8089    2.1082    0.8000 O   0  0  0  0  0  0  0  0  0  0  0  0
   -3.8125    4.2023    1.5911 O   0  0  0  0  0  0  0  0  0  0  0  0
   -3.9206    5.1573    1.4505 H   0  0  0  0  0  0  0  0  0  0  0  0
  1  2  1  0  0  0  0
  1 10  2  0  0  0  0
  2  3  1  0  0  0  0
  4  1  1  0  0  0  0
  5  4  2  0  0  0  0
  5  6  1  0  0  0  0
  6  9  2  0  0  0  0
  7  6  1  0  0  0  0
  7  8  1  0  0  0  0
  8 15  1  0  0  0  0
  9 10  1  0  0  0  0
  9 16  1  0  0  0  0
 10 17  1  0  0  0  0
 12  5  1  0  0  0  0
 13  8  1  0  0  0  0
 14  8  1  0  0  0  0
 18 21  2  0  0  0  0
 18 22  1  0  0  0  0
 19 11  1  0  0  0  0
 19 18  1  0  0  0  0
 20 18  2  0  0  0  0
 23 22  1  0  0  0  0
M  RAD  3   2   2   3   3   4   2
M  END
