Coordinates from ORCA-job 4-MeOPhN2+~HSO4-_B3LYPG-6-31G_dp-CH-Scan-d09-49-n800
 OpenBabel11261919063D

 23 22  0  0  0  0  0  0  0  0999 V2000
   -1.6493   -0.1175   -0.0950 C   0  0  0  0  0  0  0  0  0  0  0  0
   -3.0134   -0.2845    0.0008 N   0  0  0  0  0  0  0  0  0  0  0  0
   -4.1288   -0.3805    0.0626 N   0  0  0  0  0  0  0  0  0  0  0  0
   -1.2432    1.1750   -0.5075 C   0  0  0  0  0  0  0  0  0  0  0  0
    0.1597    1.2402   -0.5808 C   0  0  0  0  0  0  0  0  0  0  0  0
    1.0169    0.1685   -0.2841 C   0  0  0  0  0  0  0  0  0  0  0  0
    2.3438    0.4096   -0.4100 O   0  0  0  0  0  0  0  0  0  0  0  0
    3.2796   -0.6263   -0.1340 C   0  0  0  0  0  0  0  0  0  0  0  0
    0.5039   -1.0956    0.1251 C   0  0  0  0  0  0  0  0  0  0  0  0
   -0.8584   -1.2534    0.2245 C   0  0  0  0  0  0  0  0  0  0  0  0
   -3.4559    3.6749   -0.9530 H   0  0  0  0  0  0  0  0  0  0  0  0
    0.6534    2.1638   -0.8844 H   0  0  0  0  0  0  0  0  0  0  0  0
    4.2643   -0.1924   -0.3121 H   0  0  0  0  0  0  0  0  0  0  0  0
    3.1390   -1.4855   -0.8006 H   0  0  0  0  0  0  0  0  0  0  0  0
    3.2169   -0.9599    0.9088 H   0  0  0  0  0  0  0  0  0  0  0  0
    1.1619   -1.9234    0.3566 H   0  0  0  0  0  0  0  0  0  0  0  0
   -1.2972   -2.1990    0.5334 H   0  0  0  0  0  0  0  0  0  0  0  0
   -5.1740    3.7897    0.3201 S   0  0  0  0  0  0  0  0  0  0  0  0
   -4.1881    4.3099   -0.8491 O   0  0  0  0  0  0  0  0  0  0  0  0
   -6.3650    4.6055    0.2136 O   0  0  0  0  0  0  0  0  0  0  0  0
   -5.1875    2.3423    0.3388 O   0  0  0  0  0  0  0  0  0  0  0  0
   -4.3652    4.2296    1.6626 O   0  0  0  0  0  0  0  0  0  0  0  0
   -4.5558    5.1688    1.8275 H   0  0  0  0  0  0  0  0  0  0  0  0
  1  2  1  0  0  0  0
  1 10  2  0  0  0  0
  2  3  1  0  0  0  0
  4  1  1  0  0  0  0
  5  4  2  0  0  0  0
  5  6  1  0  0  0  0
  6  9  2  0  0  0  0
  7  6  1  0  0  0  0
  7  8  1  0  0  0  0
  8 15  1  0  0  0  0
  9 10  1  0  0  0  0
  9 16  1  0  0  0  0
 10 17  1  0  0  0  0
 11 19  1  0  0  0  0
 12  5  1  0  0  0  0
 13  8  1  0  0  0  0
 14  8  1  0  0  0  0
 18 21  2  0  0  0  0
 18 22  1  0  0  0  0
 19 18  1  0  0  0  0
 20 18  2  0  0  0  0
 22 23  1  0  0  0  0
M  RAD  3   2   2   3   3   4   2
M  END
