Coordinates from ORCA-job 4-MeOPhN2+~HSO4-_B3LYPG-6-31G_dp-CH-Scan-d09-49-n800
 OpenBabel11261919063D

 23 22  0  0  0  0  0  0  0  0999 V2000
   -1.5748   -0.1211   -0.1153 C   0  0  0  0  0  0  0  0  0  0  0  0
   -2.9434   -0.2563   -0.0196 N   0  0  0  0  0  0  0  0  0  0  0  0
   -4.0616   -0.3214    0.0389 N   0  0  0  0  0  0  0  0  0  0  0  0
   -1.1491    1.1524   -0.5644 C   0  0  0  0  0  0  0  0  0  0  0  0
    0.2565    1.1885   -0.6348 C   0  0  0  0  0  0  0  0  0  0  0  0
    1.0935    0.1115   -0.3040 C   0  0  0  0  0  0  0  0  0  0  0  0
    2.4258    0.3249   -0.4318 O   0  0  0  0  0  0  0  0  0  0  0  0
    3.3413   -0.7184   -0.1200 C   0  0  0  0  0  0  0  0  0  0  0  0
    0.5576   -1.1316    0.1405 C   0  0  0  0  0  0  0  0  0  0  0  0
   -0.8074   -1.2625    0.2403 C   0  0  0  0  0  0  0  0  0  0  0  0
   -3.6734    3.9320   -1.0302 H   0  0  0  0  0  0  0  0  0  0  0  0
    0.7683    2.0939   -0.9637 H   0  0  0  0  0  0  0  0  0  0  0  0
    4.3348   -0.3073   -0.3044 H   0  0  0  0  0  0  0  0  0  0  0  0
    3.1901   -1.5942   -0.7622 H   0  0  0  0  0  0  0  0  0  0  0  0
    3.2670   -1.0208    0.9316 H   0  0  0  0  0  0  0  0  0  0  0  0
    1.2007   -1.9634    0.3978 H   0  0  0  0  0  0  0  0  0  0  0  0
   -1.2642   -2.1909    0.5749 H   0  0  0  0  0  0  0  0  0  0  0  0
   -5.3101    3.8510    0.3489 S   0  0  0  0  0  0  0  0  0  0  0  0
   -4.4381    4.5060   -0.8478 O   0  0  0  0  0  0  0  0  0  0  0  0
   -6.5681    4.5663    0.3449 O   0  0  0  0  0  0  0  0  0  0  0  0
   -5.1981    2.4095    0.2936 O   0  0  0  0  0  0  0  0  0  0  0  0
   -4.4634    4.3014    1.6631 O   0  0  0  0  0  0  0  0  0  0  0  0
   -4.7263    5.2103    1.8876 H   0  0  0  0  0  0  0  0  0  0  0  0
  1  2  1  0  0  0  0
  1 10  2  0  0  0  0
  2  3  1  0  0  0  0
  4  1  1  0  0  0  0
  5  4  2  0  0  0  0
  5  6  1  0  0  0  0
  6  9  2  0  0  0  0
  7  6  1  0  0  0  0
  7  8  1  0  0  0  0
  8 15  1  0  0  0  0
  9 10  1  0  0  0  0
  9 16  1  0  0  0  0
 10 17  1  0  0  0  0
 11 19  1  0  0  0  0
 12  5  1  0  0  0  0
 13  8  1  0  0  0  0
 14  8  1  0  0  0  0
 18 22  1  0  0  0  0
 19 18  1  0  0  0  0
 20 18  2  0  0  0  0
 21 18  2  0  0  0  0
 22 23  1  0  0  0  0
M  RAD  3   2   2   3   3   4   2
M  END
