Coordinates from ORCA-job 4-MeOPhN2+~HSO4-_B3LYPG-6-31G_dp-CH-Scan-d09-49-n800
 OpenBabel11261919063D

 23 22  0  0  0  0  0  0  0  0999 V2000
   -1.6788   -0.1148   -0.0977 C   0  0  0  0  0  0  0  0  0  0  0  0
   -3.0413   -0.2936   -0.0057 N   0  0  0  0  0  0  0  0  0  0  0  0
   -4.1556   -0.4015    0.0536 N   0  0  0  0  0  0  0  0  0  0  0  0
   -1.2785    1.1826   -0.5006 C   0  0  0  0  0  0  0  0  0  0  0  0
    0.1235    1.2586   -0.5703 C   0  0  0  0  0  0  0  0  0  0  0  0
    0.9872    0.1906   -0.2787 C   0  0  0  0  0  0  0  0  0  0  0  0
    2.3123    0.4415   -0.3998 O   0  0  0  0  0  0  0  0  0  0  0  0
    3.2547   -0.5899   -0.1287 C   0  0  0  0  0  0  0  0  0  0  0  0
    0.4815   -1.0794    0.1207 C   0  0  0  0  0  0  0  0  0  0  0  0
   -0.8800   -1.2468    0.2158 C   0  0  0  0  0  0  0  0  0  0  0  0
   -3.3946    3.5807   -0.9368 H   0  0  0  0  0  0  0  0  0  0  0  0
    0.6111    2.1876   -0.8666 H   0  0  0  0  0  0  0  0  0  0  0  0
    4.2368   -0.1481   -0.3022 H   0  0  0  0  0  0  0  0  0  0  0  0
    3.1211   -1.4455   -0.8012 H   0  0  0  0  0  0  0  0  0  0  0  0
    3.1923   -0.9305    0.9118 H   0  0  0  0  0  0  0  0  0  0  0  0
    1.1442   -1.9044    0.3483 H   0  0  0  0  0  0  0  0  0  0  0  0
   -1.3130   -2.1974    0.5174 H   0  0  0  0  0  0  0  0  0  0  0  0
   -5.1193    3.7619    0.3191 S   0  0  0  0  0  0  0  0  0  0  0  0
   -4.1162    4.2323   -0.8543 O   0  0  0  0  0  0  0  0  0  0  0  0
   -6.2865    4.6092    0.1941 O   0  0  0  0  0  0  0  0  0  0  0  0
   -5.1768    2.3159    0.3653 O   0  0  0  0  0  0  0  0  0  0  0  0
   -4.3033    4.2014    1.6579 O   0  0  0  0  0  0  0  0  0  0  0  0
   -4.4632    5.1495    1.8027 H   0  0  0  0  0  0  0  0  0  0  0  0
  1  2  1  0  0  0  0
  1 10  2  0  0  0  0
  2  3  1  0  0  0  0
  4  1  1  0  0  0  0
  5  4  2  0  0  0  0
  5  6  1  0  0  0  0
  6  9  2  0  0  0  0
  7  6  1  0  0  0  0
  7  8  1  0  0  0  0
  8 15  1  0  0  0  0
  9 10  1  0  0  0  0
  9 16  1  0  0  0  0
 10 17  1  0  0  0  0
 11 19  1  0  0  0  0
 12  5  1  0  0  0  0
 13  8  1  0  0  0  0
 14  8  1  0  0  0  0
 18 21  2  0  0  0  0
 18 22  1  0  0  0  0
 19 18  1  0  0  0  0
 20 18  2  0  0  0  0
 22 23  1  0  0  0  0
M  RAD  3   2   2   3   3   4   2
M  END
