Coordinates from ORCA-job 4-MeOPhN2+~HSO4-_B3LYPG-6-31G_dp-CH-Scan-d09-49-n800
 OpenBabel11261919063D

 23 22  0  0  0  0  0  0  0  0999 V2000
   -1.8343   -0.0877   -0.0730 C   0  0  0  0  0  0  0  0  0  0  0  0
   -3.1860   -0.3231    0.0122 N   0  0  0  0  0  0  0  0  0  0  0  0
   -4.2922   -0.4875    0.0733 N   0  0  0  0  0  0  0  0  0  0  0  0
   -1.4608    1.2396   -0.4012 C   0  0  0  0  0  0  0  0  0  0  0  0
   -0.0663    1.3668   -0.4689 C   0  0  0  0  0  0  0  0  0  0  0  0
    0.8304    0.3093   -0.2401 C   0  0  0  0  0  0  0  0  0  0  0  0
    2.1437    0.6077   -0.3496 O   0  0  0  0  0  0  0  0  0  0  0  0
    3.1204   -0.4082   -0.1430 C   0  0  0  0  0  0  0  0  0  0  0  0
    0.3616   -0.9935    0.0863 C   0  0  0  0  0  0  0  0  0  0  0  0
   -0.9945   -1.2056    0.1727 C   0  0  0  0  0  0  0  0  0  0  0  0
   -3.0011    3.0507   -0.7423 H   0  0  0  0  0  0  0  0  0  0  0  0
    0.3883    2.3260   -0.7129 H   0  0  0  0  0  0  0  0  0  0  0  0
    4.0863    0.0744   -0.2950 H   0  0  0  0  0  0  0  0  0  0  0  0
    3.0079   -1.2265   -0.8639 H   0  0  0  0  0  0  0  0  0  0  0  0
    3.0743   -0.8091    0.8764 H   0  0  0  0  0  0  0  0  0  0  0  0
    1.0473   -1.8114    0.2662 H   0  0  0  0  0  0  0  0  0  0  0  0
   -1.3973   -2.1840    0.4206 H   0  0  0  0  0  0  0  0  0  0  0  0
   -4.8124    3.6075    0.2658 S   0  0  0  0  0  0  0  0  0  0  0  0
   -3.6580    3.7897   -0.8243 O   0  0  0  0  0  0  0  0  0  0  0  0
   -5.8368    4.5790   -0.0618 O   0  0  0  0  0  0  0  0  0  0  0  0
   -5.0968    2.1995    0.4696 O   0  0  0  0  0  0  0  0  0  0  0  0
   -4.0757    4.0872    1.6416 O   0  0  0  0  0  0  0  0  0  0  0  0
   -4.0905    5.0590    1.6550 H   0  0  0  0  0  0  0  0  0  0  0  0
  1  2  1  0  0  0  0
  1 10  2  0  0  0  0
  2  3  1  0  0  0  0
  4  1  1  0  0  0  0
  5  4  2  0  0  0  0
  5  6  1  0  0  0  0
  6  9  2  0  0  0  0
  7  6  1  0  0  0  0
  7  8  1  0  0  0  0
  8 15  1  0  0  0  0
  9 10  1  0  0  0  0
  9 16  1  0  0  0  0
 10 17  1  0  0  0  0
 12  5  1  0  0  0  0
 13  8  1  0  0  0  0
 14  8  1  0  0  0  0
 18 21  2  0  0  0  0
 18 22  1  0  0  0  0
 19 11  1  0  0  0  0
 19 18  1  0  0  0  0
 20 18  2  0  0  0  0
 22 23  1  0  0  0  0
M  RAD  3   2   2   3   3   4   2
M  END
