Coordinates from ORCA-job 4-MeOPhN2+~HSO4-_B3LYPG-6-31G_dp-CH-Scan-d09-49-n800
 OpenBabel11261919063D

 23 22  0  0  0  0  0  0  0  0999 V2000
   -1.5796   -0.1207   -0.1110 C   0  0  0  0  0  0  0  0  0  0  0  0
   -2.9480   -0.2583   -0.0144 N   0  0  0  0  0  0  0  0  0  0  0  0
   -4.0658   -0.3256    0.0457 N   0  0  0  0  0  0  0  0  0  0  0  0
   -1.1555    1.1551   -0.5546 C   0  0  0  0  0  0  0  0  0  0  0  0
    0.2498    1.1934   -0.6264 C   0  0  0  0  0  0  0  0  0  0  0  0
    1.0884    0.1158   -0.3013 C   0  0  0  0  0  0  0  0  0  0  0  0
    2.4203    0.3314   -0.4295 O   0  0  0  0  0  0  0  0  0  0  0  0
    3.3373   -0.7124   -0.1236 C   0  0  0  0  0  0  0  0  0  0  0  0
    0.5543   -1.1298    0.1380 C   0  0  0  0  0  0  0  0  0  0  0  0
   -0.8105   -1.2628    0.2386 C   0  0  0  0  0  0  0  0  0  0  0  0
   -3.6544    3.9098   -1.0222 H   0  0  0  0  0  0  0  0  0  0  0  0
    0.7602    2.1008   -0.9517 H   0  0  0  0  0  0  0  0  0  0  0  0
    4.3301   -0.2994   -0.3074 H   0  0  0  0  0  0  0  0  0  0  0  0
    3.1862   -1.5855   -0.7695 H   0  0  0  0  0  0  0  0  0  0  0  0
    3.2647   -1.0195    0.9267 H   0  0  0  0  0  0  0  0  0  0  0  0
    1.1986   -1.9621    0.3909 H   0  0  0  0  0  0  0  0  0  0  0  0
   -1.2658   -2.1932    0.5695 H   0  0  0  0  0  0  0  0  0  0  0  0
   -5.3020    3.8477    0.3448 S   0  0  0  0  0  0  0  0  0  0  0  0
   -4.4167    4.4899   -0.8488 O   0  0  0  0  0  0  0  0  0  0  0  0
   -6.5543    4.5727    0.3285 O   0  0  0  0  0  0  0  0  0  0  0  0
   -5.2012    2.4049    0.2978 O   0  0  0  0  0  0  0  0  0  0  0  0
   -4.4609    4.2977    1.6629 O   0  0  0  0  0  0  0  0  0  0  0  0
   -4.7180    5.2098    1.8809 H   0  0  0  0  0  0  0  0  0  0  0  0
  1  2  1  0  0  0  0
  1 10  2  0  0  0  0
  2  3  1  0  0  0  0
  4  1  1  0  0  0  0
  5  4  2  0  0  0  0
  5  6  1  0  0  0  0
  6  9  2  0  0  0  0
  7  6  1  0  0  0  0
  7  8  1  0  0  0  0
  8 15  1  0  0  0  0
  9 10  1  0  0  0  0
  9 16  1  0  0  0  0
 10 17  1  0  0  0  0
 11 19  1  0  0  0  0
 12  5  1  0  0  0  0
 13  8  1  0  0  0  0
 14  8  1  0  0  0  0
 18 22  1  0  0  0  0
 19 18  1  0  0  0  0
 20 18  2  0  0  0  0
 21 18  2  0  0  0  0
 22 23  1  0  0  0  0
M  RAD  3   2   2   3   3   4   2
M  END
