Coordinates from ORCA-job 4-MeOPhN2+~HSO4-_B3LYPG-6-31G_dp-CH-Scan-d09-49-n800
 OpenBabel11261919063D

 23 22  0  0  0  0  0  0  0  0999 V2000
   -1.4546   -0.1231   -0.1765 C   0  0  0  0  0  0  0  0  0  0  0  0
   -2.8287   -0.2059   -0.0859 N   0  0  0  0  0  0  0  0  0  0  0  0
   -3.9493   -0.2244   -0.0347 N   0  0  0  0  0  0  0  0  0  0  0  0
   -0.9904    1.1040   -0.7067 C   0  0  0  0  0  0  0  0  0  0  0  0
    0.4169    1.0931   -0.7672 C   0  0  0  0  0  0  0  0  0  0  0  0
    1.2185    0.0174   -0.3557 C   0  0  0  0  0  0  0  0  0  0  0  0
    2.5582    0.1825   -0.4836 O   0  0  0  0  0  0  0  0  0  0  0  0
    3.4396   -0.8620   -0.0892 C   0  0  0  0  0  0  0  0  0  0  0  0
    0.6425   -1.1770    0.1668 C   0  0  0  0  0  0  0  0  0  0  0  0
   -0.7265   -1.2612    0.2629 C   0  0  0  0  0  0  0  0  0  0  0  0
   -3.9820    4.2432   -1.0423 H   0  0  0  0  0  0  0  0  0  0  0  0
    0.9582    1.9587   -1.1521 H   0  0  0  0  0  0  0  0  0  0  0  0
    4.4466   -0.4918   -0.2869 H   0  0  0  0  0  0  0  0  0  0  0  0
    3.2723   -1.7749   -0.6731 H   0  0  0  0  0  0  0  0  0  0  0  0
    3.3440   -1.0906    0.9792 H   0  0  0  0  0  0  0  0  0  0  0  0
    1.2589   -2.0078    0.4854 H   0  0  0  0  0  0  0  0  0  0  0  0
   -1.2134   -2.1516    0.6541 H   0  0  0  0  0  0  0  0  0  0  0  0
   -5.5322    3.9575    0.4074 S   0  0  0  0  0  0  0  0  0  0  0  0
   -4.7762    4.7462   -0.7912 O   0  0  0  0  0  0  0  0  0  0  0  0
   -6.8554    4.5387    0.4775 O   0  0  0  0  0  0  0  0  0  0  0  0
   -5.2713    2.5400    0.2822 O   0  0  0  0  0  0  0  0  0  0  0  0
   -4.6845    4.4421    1.7082 O   0  0  0  0  0  0  0  0  0  0  0  0
   -5.0336    5.3065    1.9852 H   0  0  0  0  0  0  0  0  0  0  0  0
  1  2  1  0  0  0  0
  1 10  2  0  0  0  0
  2  3  1  0  0  0  0
  4  1  1  0  0  0  0
  5  4  2  0  0  0  0
  5  6  1  0  0  0  0
  6  9  2  0  0  0  0
  7  6  1  0  0  0  0
  7  8  1  0  0  0  0
  8 15  1  0  0  0  0
  9 10  1  0  0  0  0
  9 16  1  0  0  0  0
 10 17  1  0  0  0  0
 11 19  1  0  0  0  0
 12  5  1  0  0  0  0
 13  8  1  0  0  0  0
 14  8  1  0  0  0  0
 18 20  2  0  0  0  0
 18 22  1  0  0  0  0
 19 18  1  0  0  0  0
 21 18  2  0  0  0  0
 22 23  1  0  0  0  0
M  RAD  3   2   2   3   3   4   2
M  END
