Coordinates from ORCA-job 4-MeOPhN2+~HSO4-_B3LYPG-6-31G_dp-CH-Scan-d09-49-n800
 OpenBabel11261919063D

 23 22  0  0  0  0  0  0  0  0999 V2000
   -1.9404    0.3589   -0.2095 C   0  0  0  0  0  0  0  0  0  0  0  0
   -3.3123    0.3018   -0.1927 N   0  0  0  0  0  0  0  0  0  0  0  0
   -4.4306    0.2410   -0.2186 N   0  0  0  0  0  0  0  0  0  0  0  0
   -1.2931    1.5940   -0.4379 C   0  0  0  0  0  0  0  0  0  0  0  0
    0.0855    1.5838   -0.4690 C   0  0  0  0  0  0  0  0  0  0  0  0
    0.8113    0.3907   -0.2660 C   0  0  0  0  0  0  0  0  0  0  0  0
    2.1467    0.5117   -0.3103 O   0  0  0  0  0  0  0  0  0  0  0  0
    2.9696   -0.6370   -0.1002 C   0  0  0  0  0  0  0  0  0  0  0  0
    0.1372   -0.8302   -0.0361 C   0  0  0  0  0  0  0  0  0  0  0  0
   -1.2443   -0.8493   -0.0114 C   0  0  0  0  0  0  0  0  0  0  0  0
   -1.9758    2.6312   -0.5856 H   0  0  0  0  0  0  0  0  0  0  0  0
    0.6415    2.4988   -0.6395 H   0  0  0  0  0  0  0  0  0  0  0  0
    3.9962   -0.2794   -0.1754 H   0  0  0  0  0  0  0  0  0  0  0  0
    2.7906   -1.3980   -0.8678 H   0  0  0  0  0  0  0  0  0  0  0  0
    2.8046   -1.0652    0.8948 H   0  0  0  0  0  0  0  0  0  0  0  0
    0.6835   -1.7511    0.1214 H   0  0  0  0  0  0  0  0  0  0  0  0
   -1.7852   -1.7731    0.1632 H   0  0  0  0  0  0  0  0  0  0  0  0
   -4.1928    3.2889    0.4790 S   0  0  0  0  0  0  0  0  0  0  0  0
   -3.2807    3.8377   -0.5601 O   0  0  0  0  0  0  0  0  0  0  0  0
   -5.3748    2.5551   -0.0564 O   0  0  0  0  0  0  0  0  0  0  0  0
   -3.4772    2.5256    1.5270 O   0  0  0  0  0  0  0  0  0  0  0  0
   -4.8189    4.6446    1.1813 O   0  0  0  0  0  0  0  0  0  0  0  0
   -5.6829    4.3792    1.5338 H   0  0  0  0  0  0  0  0  0  0  0  0
  1  2  1  0  0  0  0
  1 10  2  0  0  0  0
  3  2  1  0  0  0  0
  4  1  1  0  0  0  0
  5  4  2  0  0  0  0
  5  6  1  0  0  0  0
  6  9  2  0  0  0  0
  7  6  1  0  0  0  0
  7  8  1  0  0  0  0
  8 15  1  0  0  0  0
  9 10  1  0  0  0  0
  9 16  1  0  0  0  0
 10 17  1  0  0  0  0
 11  4  1  0  0  0  0
 12  5  1  0  0  0  0
 13  8  1  0  0  0  0
 14  8  1  0  0  0  0
 18 22  1  0  0  0  0
 18 21  1  0  0  0  0
 19 18  2  0  0  0  0
 20 18  2  0  0  0  0
 22 23  1  0  0  0  0
M  RAD  3   2   2   3   3  21   2
M  END
