Coordinates from ORCA-job 4-MeOPhN2+~HSO4-_B3LYPG-6-31G_dp-CH-Scan-d09-49-n800
 OpenBabel11261919063D

 23 22  0  0  0  0  0  0  0  0999 V2000
   -1.8151   -0.0935   -0.0818 C   0  0  0  0  0  0  0  0  0  0  0  0
   -3.1684   -0.3224    0.0028 N   0  0  0  0  0  0  0  0  0  0  0  0
   -4.2761   -0.4794    0.0587 N   0  0  0  0  0  0  0  0  0  0  0  0
   -1.4390    1.2295   -0.4233 C   0  0  0  0  0  0  0  0  0  0  0  0
   -0.0434    1.3512   -0.4892 C   0  0  0  0  0  0  0  0  0  0  0  0
    0.8497    0.2938   -0.2469 C   0  0  0  0  0  0  0  0  0  0  0  0
    2.1646    0.5872   -0.3562 O   0  0  0  0  0  0  0  0  0  0  0  0
    3.1375   -0.4291   -0.1351 C   0  0  0  0  0  0  0  0  0  0  0  0
    0.3767   -1.0045    0.0923 C   0  0  0  0  0  0  0  0  0  0  0  0
   -0.9800   -1.2120    0.1779 C   0  0  0  0  0  0  0  0  0  0  0  0
   -3.0578    3.1237   -0.7791 H   0  0  0  0  0  0  0  0  0  0  0  0
    0.4153    2.3063   -0.7422 H   0  0  0  0  0  0  0  0  0  0  0  0
    4.1054    0.0487   -0.2895 H   0  0  0  0  0  0  0  0  0  0  0  0
    3.0250   -1.2553   -0.8471 H   0  0  0  0  0  0  0  0  0  0  0  0
    3.0871   -0.8186    0.8885 H   0  0  0  0  0  0  0  0  0  0  0  0
    1.0601   -1.8221    0.2824 H   0  0  0  0  0  0  0  0  0  0  0  0
   -1.3863   -2.1867    0.4352 H   0  0  0  0  0  0  0  0  0  0  0  0
   -4.8531    3.6277    0.2799 S   0  0  0  0  0  0  0  0  0  0  0  0
   -3.7263    3.8488   -0.8362 O   0  0  0  0  0  0  0  0  0  0  0  0
   -5.8992    4.5874   -0.0103 O   0  0  0  0  0  0  0  0  0  0  0  0
   -5.1070    2.2120    0.4650 O   0  0  0  0  0  0  0  0  0  0  0  0
   -4.0906    4.0980    1.6437 O   0  0  0  0  0  0  0  0  0  0  0  0
   -4.1216    5.0692    1.6745 H   0  0  0  0  0  0  0  0  0  0  0  0
  1  2  1  0  0  0  0
  1 10  2  0  0  0  0
  2  3  1  0  0  0  0
  4  1  1  0  0  0  0
  5  4  2  0  0  0  0
  5  6  1  0  0  0  0
  6  9  2  0  0  0  0
  7  6  1  0  0  0  0
  7  8  1  0  0  0  0
  8 15  1  0  0  0  0
  9 10  1  0  0  0  0
  9 16  1  0  0  0  0
 10 17  1  0  0  0  0
 12  5  1  0  0  0  0
 13  8  1  0  0  0  0
 14  8  1  0  0  0  0
 18 21  2  0  0  0  0
 18 22  1  0  0  0  0
 19 11  1  0  0  0  0
 19 18  1  0  0  0  0
 20 18  2  0  0  0  0
 22 23  1  0  0  0  0
M  RAD  3   2   2   3   3   4   2
M  END
