Coordinates from ORCA-job 4-MeOPhN2+~HSO4-_B3LYPG-6-31G_dp-CH-Scan-d09-49-n800
 OpenBabel11261919063D

 23 22  0  0  0  0  0  0  0  0999 V2000
   -1.9202   -0.0704   -0.0773 C   0  0  0  0  0  0  0  0  0  0  0  0
   -3.2656   -0.3366   -0.0068 N   0  0  0  0  0  0  0  0  0  0  0  0
   -4.3669   -0.5296    0.0428 N   0  0  0  0  0  0  0  0  0  0  0  0
   -1.5549    1.2702   -0.3608 C   0  0  0  0  0  0  0  0  0  0  0  0
   -0.1655    1.4221   -0.4202 C   0  0  0  0  0  0  0  0  0  0  0  0
    0.7463    0.3700   -0.2227 C   0  0  0  0  0  0  0  0  0  0  0  0
    2.0529    0.6911   -0.3201 O   0  0  0  0  0  0  0  0  0  0  0  0
    3.0455   -0.3167   -0.1456 C   0  0  0  0  0  0  0  0  0  0  0  0
    0.2930   -0.9469    0.0607 C   0  0  0  0  0  0  0  0  0  0  0  0
   -1.0608   -1.1790    0.1350 C   0  0  0  0  0  0  0  0  0  0  0  0
   -2.7813    2.7343   -0.6115 H   0  0  0  0  0  0  0  0  0  0  0  0
    0.2714    2.3962   -0.6323 H   0  0  0  0  0  0  0  0  0  0  0  0
    4.0034    0.1856   -0.2816 H   0  0  0  0  0  0  0  0  0  0  0  0
    2.9445   -1.1123   -0.8932 H   0  0  0  0  0  0  0  0  0  0  0  0
    3.0045   -0.7500    0.8604 H   0  0  0  0  0  0  0  0  0  0  0  0
    0.9879   -1.7616    0.2175 H   0  0  0  0  0  0  0  0  0  0  0  0
   -1.4506   -2.1700    0.3503 H   0  0  0  0  0  0  0  0  0  0  0  0
   -4.6150    3.5091    0.2622 S   0  0  0  0  0  0  0  0  0  0  0  0
   -3.4126    3.5346   -0.7619 O   0  0  0  0  0  0  0  0  0  0  0  0
   -5.6114    4.4546   -0.2086 O   0  0  0  0  0  0  0  0  0  0  0  0
   -4.9547    2.1391    0.6151 O   0  0  0  0  0  0  0  0  0  0  0  0
   -3.9501    4.1294    1.6243 O   0  0  0  0  0  0  0  0  0  0  0  0
   -3.9822    5.0966    1.5380 H   0  0  0  0  0  0  0  0  0  0  0  0
  1  2  1  0  0  0  0
  1 10  2  0  0  0  0
  2  3  1  0  0  0  0
  4  1  1  0  0  0  0
  5  4  2  0  0  0  0
  5  6  1  0  0  0  0
  6  9  2  0  0  0  0
  7  6  1  0  0  0  0
  7  8  1  0  0  0  0
  8 15  1  0  0  0  0
  9 10  1  0  0  0  0
  9 16  1  0  0  0  0
 10 17  1  0  0  0  0
 12  5  1  0  0  0  0
 13  8  1  0  0  0  0
 14  8  1  0  0  0  0
 18 21  2  0  0  0  0
 18 22  1  0  0  0  0
 19 11  1  0  0  0  0
 19 18  1  0  0  0  0
 20 18  2  0  0  0  0
 23 22  1  0  0  0  0
M  RAD  3   2   2   3   3   4   2
M  END
