Coordinates from ORCA-job 4-MeOPhN2+~HSO4-_B3LYPG-6-31G_dp-CH-Scan-d09-49-n800
 OpenBabel11261919053D

 23 22  0  0  0  0  0  0  0  0999 V2000
   -1.9568    0.3940   -0.1931 C   0  0  0  0  0  0  0  0  0  0  0  0
   -3.3302    0.3421   -0.1829 N   0  0  0  0  0  0  0  0  0  0  0  0
   -4.4502    0.2758   -0.2254 N   0  0  0  0  0  0  0  0  0  0  0  0
   -1.2951    1.6257   -0.4005 C   0  0  0  0  0  0  0  0  0  0  0  0
    0.0840    1.6046   -0.4289 C   0  0  0  0  0  0  0  0  0  0  0  0
    0.8021    0.4057   -0.2387 C   0  0  0  0  0  0  0  0  0  0  0  0
    2.1384    0.5205   -0.2765 O   0  0  0  0  0  0  0  0  0  0  0  0
    2.9521   -0.6380   -0.0847 C   0  0  0  0  0  0  0  0  0  0  0  0
    0.1172   -0.8103   -0.0299 C   0  0  0  0  0  0  0  0  0  0  0  0
   -1.2664   -0.8170   -0.0132 C   0  0  0  0  0  0  0  0  0  0  0  0
   -1.7731    2.4032   -0.5162 H   0  0  0  0  0  0  0  0  0  0  0  0
    0.6413    2.5208   -0.5884 H   0  0  0  0  0  0  0  0  0  0  0  0
    3.9815   -0.2872   -0.1523 H   0  0  0  0  0  0  0  0  0  0  0  0
    2.7680   -1.3843   -0.8654 H   0  0  0  0  0  0  0  0  0  0  0  0
    2.7820   -1.0817    0.9026 H   0  0  0  0  0  0  0  0  0  0  0  0
    0.6540   -1.7385    0.1166 H   0  0  0  0  0  0  0  0  0  0  0  0
   -1.8151   -1.7390    0.1443 H   0  0  0  0  0  0  0  0  0  0  0  0
   -4.2317    3.3225    0.3271 S   0  0  0  0  0  0  0  0  0  0  0  0
   -3.5116    3.9644   -0.7821 O   0  0  0  0  0  0  0  0  0  0  0  0
   -5.3827    2.4544   -0.0773 O   0  0  0  0  0  0  0  0  0  0  0  0
   -3.3540    2.6176    1.3021 O   0  0  0  0  0  0  0  0  0  0  0  0
   -4.9021    4.5932    1.1413 O   0  0  0  0  0  0  0  0  0  0  0  0
   -5.3942    4.2114    1.8852 H   0  0  0  0  0  0  0  0  0  0  0  0
  1  2  1  0  0  0  0
  1 10  2  0  0  0  0
  3  2  1  0  0  0  0
  4  1  1  0  0  0  0
  5  4  2  0  0  0  0
  5  6  1  0  0  0  0
  6  9  2  0  0  0  0
  7  6  1  0  0  0  0
  7  8  1  0  0  0  0
  8 15  1  0  0  0  0
  9 10  1  0  0  0  0
  9 16  1  0  0  0  0
 10 17  1  0  0  0  0
 11  4  1  0  0  0  0
 12  5  1  0  0  0  0
 13  8  1  0  0  0  0
 14  8  1  0  0  0  0
 18 22  1  0  0  0  0
 18 21  1  0  0  0  0
 19 18  2  0  0  0  0
 20 18  2  0  0  0  0
 22 23  1  0  0  0  0
M  RAD  3   2   2   3   3  21   2
M  END
