Coordinates from ORCA-job 4-MeOPhN2+~HSO4-_B3LYPG-6-31G_dp-CH-Scan-d09-49-n800
 OpenBabel11261919063D

 23 22  0  0  0  0  0  0  0  0999 V2000
   -1.9379    0.3351   -0.1966 C   0  0  0  0  0  0  0  0  0  0  0  0
   -3.3089    0.2686   -0.1772 N   0  0  0  0  0  0  0  0  0  0  0  0
   -4.4262    0.2041   -0.1955 N   0  0  0  0  0  0  0  0  0  0  0  0
   -1.3072    1.5822   -0.4084 C   0  0  0  0  0  0  0  0  0  0  0  0
    0.0724    1.5795   -0.4413 C   0  0  0  0  0  0  0  0  0  0  0  0
    0.8083    0.3895   -0.2599 C   0  0  0  0  0  0  0  0  0  0  0  0
    2.1428    0.5207   -0.3064 O   0  0  0  0  0  0  0  0  0  0  0  0
    2.9755   -0.6248   -0.1193 C   0  0  0  0  0  0  0  0  0  0  0  0
    0.1458   -0.8421   -0.0468 C   0  0  0  0  0  0  0  0  0  0  0  0
   -1.2345   -0.8733   -0.0174 C   0  0  0  0  0  0  0  0  0  0  0  0
   -2.0367    2.6514   -0.5347 H   0  0  0  0  0  0  0  0  0  0  0  0
    0.6235    2.5004   -0.5980 H   0  0  0  0  0  0  0  0  0  0  0  0
    3.9990   -0.2579   -0.1928 H   0  0  0  0  0  0  0  0  0  0  0  0
    2.7992   -1.3742   -0.8988 H   0  0  0  0  0  0  0  0  0  0  0  0
    2.8186   -1.0712    0.8690 H   0  0  0  0  0  0  0  0  0  0  0  0
    0.7011   -1.7602    0.0944 H   0  0  0  0  0  0  0  0  0  0  0  0
   -1.7678   -1.8041    0.1449 H   0  0  0  0  0  0  0  0  0  0  0  0
   -4.1975    3.2841    0.4943 S   0  0  0  0  0  0  0  0  0  0  0  0
   -3.2194    3.7801   -0.5224 O   0  0  0  0  0  0  0  0  0  0  0  0
   -5.3859    2.6009   -0.0802 O   0  0  0  0  0  0  0  0  0  0  0  0
   -3.5451    2.5122    1.5735 O   0  0  0  0  0  0  0  0  0  0  0  0
   -4.7791    4.6824    1.1477 O   0  0  0  0  0  0  0  0  0  0  0  0
   -5.6824    4.4764    1.4358 H   0  0  0  0  0  0  0  0  0  0  0  0
  1  2  1  0  0  0  0
  1 10  2  0  0  0  0
  3  2  1  0  0  0  0
  4  1  1  0  0  0  0
  5  4  2  0  0  0  0
  5  6  1  0  0  0  0
  6  9  2  0  0  0  0
  7  6  1  0  0  0  0
  7  8  1  0  0  0  0
  8 15  1  0  0  0  0
  9 10  1  0  0  0  0
  9 16  1  0  0  0  0
 10 17  1  0  0  0  0
 11  4  1  0  0  0  0
 12  5  1  0  0  0  0
 13  8  1  0  0  0  0
 14  8  1  0  0  0  0
 18 22  1  0  0  0  0
 18 21  1  0  0  0  0
 19 18  2  0  0  0  0
 20 18  2  0  0  0  0
 22 23  1  0  0  0  0
M  RAD  3   2   2   3   3  21   2
M  END
