Coordinates from ORCA-job 4-MeOPhN2+~HSO4-_B3LYPG-6-31G_dp-CH-Scan-d09-49-n800
 OpenBabel11261919063D

 23 22  0  0  0  0  0  0  0  0999 V2000
   -1.6328   -0.1187   -0.0943 C   0  0  0  0  0  0  0  0  0  0  0  0
   -2.9978   -0.2794    0.0033 N   0  0  0  0  0  0  0  0  0  0  0  0
   -4.1137   -0.3689    0.0660 N   0  0  0  0  0  0  0  0  0  0  0  0
   -1.2231    1.1711   -0.5115 C   0  0  0  0  0  0  0  0  0  0  0  0
    0.1803    1.2303   -0.5863 C   0  0  0  0  0  0  0  0  0  0  0  0
    1.0336    0.1564   -0.2869 C   0  0  0  0  0  0  0  0  0  0  0  0
    2.3615    0.3919   -0.4146 O   0  0  0  0  0  0  0  0  0  0  0  0
    3.2934   -0.6466   -0.1358 C   0  0  0  0  0  0  0  0  0  0  0  0
    0.5163   -1.1045    0.1270 C   0  0  0  0  0  0  0  0  0  0  0  0
   -0.8464   -1.2569    0.2284 C   0  0  0  0  0  0  0  0  0  0  0  0
   -3.4940    3.7262   -0.9636 H   0  0  0  0  0  0  0  0  0  0  0  0
    0.6774    2.1510   -0.8934 H   0  0  0  0  0  0  0  0  0  0  0  0
    4.2798   -0.2171   -0.3157 H   0  0  0  0  0  0  0  0  0  0  0  0
    3.1493   -1.5074   -0.7995 H   0  0  0  0  0  0  0  0  0  0  0  0
    3.2300   -0.9767    0.9081 H   0  0  0  0  0  0  0  0  0  0  0  0
    1.1715   -1.9340    0.3605 H   0  0  0  0  0  0  0  0  0  0  0  0
   -1.2885   -2.1999    0.5407 H   0  0  0  0  0  0  0  0  0  0  0  0
   -5.2051    3.8051    0.3219 S   0  0  0  0  0  0  0  0  0  0  0  0
   -4.2328    4.3512   -0.8480 O   0  0  0  0  0  0  0  0  0  0  0  0
   -6.4090    4.6032    0.2283 O   0  0  0  0  0  0  0  0  0  0  0  0
   -5.1948    2.3577    0.3265 O   0  0  0  0  0  0  0  0  0  0  0  0
   -4.3961    4.2459    1.6637 O   0  0  0  0  0  0  0  0  0  0  0  0
   -4.6016    5.1800    1.8390 H   0  0  0  0  0  0  0  0  0  0  0  0
  1  2  1  0  0  0  0
  1 10  2  0  0  0  0
  2  3  1  0  0  0  0
  4  1  1  0  0  0  0
  5  4  2  0  0  0  0
  5  6  1  0  0  0  0
  6  9  2  0  0  0  0
  7  6  1  0  0  0  0
  7  8  1  0  0  0  0
  8 15  1  0  0  0  0
  9 10  1  0  0  0  0
  9 16  1  0  0  0  0
 10 17  1  0  0  0  0
 11 19  1  0  0  0  0
 12  5  1  0  0  0  0
 13  8  1  0  0  0  0
 14  8  1  0  0  0  0
 18 21  2  0  0  0  0
 18 22  1  0  0  0  0
 19 18  1  0  0  0  0
 20 18  2  0  0  0  0
 22 23  1  0  0  0  0
M  RAD  3   2   2   3   3   4   2
M  END
