Coordinates from ORCA-job 4-MeOPhN2+~HSO4-_B3LYPG-6-31G_dp-CH-Scan-d09-49-n800
 OpenBabel11261919063D

 23 22  0  0  0  0  0  0  0  0999 V2000
   -1.5818   -0.1209   -0.1093 C   0  0  0  0  0  0  0  0  0  0  0  0
   -2.9500   -0.2598   -0.0123 N   0  0  0  0  0  0  0  0  0  0  0  0
   -4.0678   -0.3279    0.0475 N   0  0  0  0  0  0  0  0  0  0  0  0
   -1.1586    1.1558   -0.5512 C   0  0  0  0  0  0  0  0  0  0  0  0
    0.2466    1.1952   -0.6235 C   0  0  0  0  0  0  0  0  0  0  0  0
    1.0860    0.1176   -0.3004 C   0  0  0  0  0  0  0  0  0  0  0  0
    2.4177    0.3342   -0.4288 O   0  0  0  0  0  0  0  0  0  0  0  0
    3.3355   -0.7095   -0.1249 C   0  0  0  0  0  0  0  0  0  0  0  0
    0.5529   -1.1290    0.1372 C   0  0  0  0  0  0  0  0  0  0  0  0
   -0.8118   -1.2630    0.2382 C   0  0  0  0  0  0  0  0  0  0  0  0
   -3.6458    3.9008   -1.0187 H   0  0  0  0  0  0  0  0  0  0  0  0
    0.7563    2.1035   -0.9476 H   0  0  0  0  0  0  0  0  0  0  0  0
    4.3280   -0.2956   -0.3086 H   0  0  0  0  0  0  0  0  0  0  0  0
    3.1846   -1.5817   -0.7721 H   0  0  0  0  0  0  0  0  0  0  0  0
    3.2636   -1.0183    0.9250 H   0  0  0  0  0  0  0  0  0  0  0  0
    1.1978   -1.9613    0.3886 H   0  0  0  0  0  0  0  0  0  0  0  0
   -1.2663   -2.1943    0.5678 H   0  0  0  0  0  0  0  0  0  0  0  0
   -5.2982    3.8464    0.3431 S   0  0  0  0  0  0  0  0  0  0  0  0
   -4.4072    4.4835   -0.8487 O   0  0  0  0  0  0  0  0  0  0  0  0
   -6.5481    4.5756    0.3220 O   0  0  0  0  0  0  0  0  0  0  0  0
   -5.2022    2.4034    0.2988 O   0  0  0  0  0  0  0  0  0  0  0  0
   -4.4595    4.2957    1.6631 O   0  0  0  0  0  0  0  0  0  0  0  0
   -4.7140    5.2091    1.8787 H   0  0  0  0  0  0  0  0  0  0  0  0
  1  2  1  0  0  0  0
  1 10  2  0  0  0  0
  2  3  1  0  0  0  0
  4  1  1  0  0  0  0
  5  4  2  0  0  0  0
  5  6  1  0  0  0  0
  6  9  2  0  0  0  0
  7  6  1  0  0  0  0
  7  8  1  0  0  0  0
  8 15  1  0  0  0  0
  9 10  1  0  0  0  0
  9 16  1  0  0  0  0
 10 17  1  0  0  0  0
 11 19  1  0  0  0  0
 12  5  1  0  0  0  0
 13  8  1  0  0  0  0
 14  8  1  0  0  0  0
 18 22  1  0  0  0  0
 19 18  1  0  0  0  0
 20 18  2  0  0  0  0
 21 18  2  0  0  0  0
 22 23  1  0  0  0  0
M  RAD  3   2   2   3   3   4   2
M  END
