Coordinates from ORCA-job 4-MeOPhN2+~HSO4-_B3LYPG-6-31G_dp-CH-Scan-d09-49-n800
 OpenBabel11261919063D

 23 22  0  0  0  0  0  0  0  0999 V2000
   -1.6401   -0.1184   -0.0951 C   0  0  0  0  0  0  0  0  0  0  0  0
   -3.0046   -0.2821    0.0012 N   0  0  0  0  0  0  0  0  0  0  0  0
   -4.1202   -0.3741    0.0669 N   0  0  0  0  0  0  0  0  0  0  0  0
   -1.2321    1.1728   -0.5098 C   0  0  0  0  0  0  0  0  0  0  0  0
    0.1712    1.2346   -0.5839 C   0  0  0  0  0  0  0  0  0  0  0  0
    1.0262    0.1617   -0.2856 C   0  0  0  0  0  0  0  0  0  0  0  0
    2.3537    0.3998   -0.4123 O   0  0  0  0  0  0  0  0  0  0  0  0
    3.2873   -0.6375   -0.1346 C   0  0  0  0  0  0  0  0  0  0  0  0
    0.5109   -1.1007    0.1259 C   0  0  0  0  0  0  0  0  0  0  0  0
   -0.8516   -1.2556    0.2261 C   0  0  0  0  0  0  0  0  0  0  0  0
   -3.4774    3.7037   -0.9596 H   0  0  0  0  0  0  0  0  0  0  0  0
    0.6668    2.1566   -0.8894 H   0  0  0  0  0  0  0  0  0  0  0  0
    4.2730   -0.2061   -0.3136 H   0  0  0  0  0  0  0  0  0  0  0  0
    3.1449   -1.4976   -0.7997 H   0  0  0  0  0  0  0  0  0  0  0  0
    3.2241   -0.9693    0.9087 H   0  0  0  0  0  0  0  0  0  0  0  0
    1.1673   -1.9295    0.3584 H   0  0  0  0  0  0  0  0  0  0  0  0
   -1.2923   -2.1998    0.5366 H   0  0  0  0  0  0  0  0  0  0  0  0
   -5.1914    3.7985    0.3212 S   0  0  0  0  0  0  0  0  0  0  0  0
   -4.2136    4.3332   -0.8489 O   0  0  0  0  0  0  0  0  0  0  0  0
   -6.3899    4.6042    0.2226 O   0  0  0  0  0  0  0  0  0  0  0  0
   -5.1914    2.3511    0.3319 O   0  0  0  0  0  0  0  0  0  0  0  0
   -4.3819    4.2390    1.6629 O   0  0  0  0  0  0  0  0  0  0  0  0
   -4.5812    5.1752    1.8339 H   0  0  0  0  0  0  0  0  0  0  0  0
  1  2  1  0  0  0  0
  1 10  2  0  0  0  0
  2  3  1  0  0  0  0
  4  1  1  0  0  0  0
  5  4  2  0  0  0  0
  5  6  1  0  0  0  0
  6  9  2  0  0  0  0
  7  6  1  0  0  0  0
  7  8  1  0  0  0  0
  8 15  1  0  0  0  0
  9 10  1  0  0  0  0
  9 16  1  0  0  0  0
 10 17  1  0  0  0  0
 11 19  1  0  0  0  0
 12  5  1  0  0  0  0
 13  8  1  0  0  0  0
 14  8  1  0  0  0  0
 18 21  2  0  0  0  0
 18 22  1  0  0  0  0
 19 18  1  0  0  0  0
 20 18  2  0  0  0  0
 22 23  1  0  0  0  0
M  RAD  3   2   2   3   3   4   2
M  END
