Coordinates from ORCA-job 4-MeOPhN2+~HSO4-_B3LYPG-6-31G_dp-CH-Scan-d09-49-n800
 OpenBabel11261919053D

 23 22  0  0  0  0  0  0  0  0999 V2000
   -1.9580    0.3939   -0.1932 C   0  0  0  0  0  0  0  0  0  0  0  0
   -3.3313    0.3419   -0.1825 N   0  0  0  0  0  0  0  0  0  0  0  0
   -4.4514    0.2760   -0.2242 N   0  0  0  0  0  0  0  0  0  0  0  0
   -1.2969    1.6260   -0.3994 C   0  0  0  0  0  0  0  0  0  0  0  0
    0.0822    1.6053   -0.4277 C   0  0  0  0  0  0  0  0  0  0  0  0
    0.8008    0.4066   -0.2385 C   0  0  0  0  0  0  0  0  0  0  0  0
    2.1371    0.5220   -0.2762 O   0  0  0  0  0  0  0  0  0  0  0  0
    2.9512   -0.6362   -0.0847 C   0  0  0  0  0  0  0  0  0  0  0  0
    0.1164   -0.8098   -0.0307 C   0  0  0  0  0  0  0  0  0  0  0  0
   -1.2673   -0.8170   -0.0141 C   0  0  0  0  0  0  0  0  0  0  0  0
   -1.7672    2.3909   -0.5129 H   0  0  0  0  0  0  0  0  0  0  0  0
    0.6390    2.5219   -0.5865 H   0  0  0  0  0  0  0  0  0  0  0  0
    3.9805   -0.2849   -0.1514 H   0  0  0  0  0  0  0  0  0  0  0  0
    2.7680   -1.3821   -0.8660 H   0  0  0  0  0  0  0  0  0  0  0  0
    2.7807   -1.0807    0.9022 H   0  0  0  0  0  0  0  0  0  0  0  0
    0.6535   -1.7379    0.1151 H   0  0  0  0  0  0  0  0  0  0  0  0
   -1.8157   -1.7393    0.1428 H   0  0  0  0  0  0  0  0  0  0  0  0
   -4.2292    3.3223    0.3267 S   0  0  0  0  0  0  0  0  0  0  0  0
   -3.5107    3.9629   -0.7840 O   0  0  0  0  0  0  0  0  0  0  0  0
   -5.3820    2.4551   -0.0748 O   0  0  0  0  0  0  0  0  0  0  0  0
   -3.3505    2.6167    1.3004 O   0  0  0  0  0  0  0  0  0  0  0  0
   -4.8972    4.5938    1.1415 O   0  0  0  0  0  0  0  0  0  0  0  0
   -5.3947    4.2122    1.8820 H   0  0  0  0  0  0  0  0  0  0  0  0
  1  2  1  0  0  0  0
  1 10  2  0  0  0  0
  3  2  1  0  0  0  0
  4  1  1  0  0  0  0
  5  4  2  0  0  0  0
  5  6  1  0  0  0  0
  6  9  2  0  0  0  0
  7  6  1  0  0  0  0
  7  8  1  0  0  0  0
  8 15  1  0  0  0  0
  9 10  1  0  0  0  0
  9 16  1  0  0  0  0
 10 17  1  0  0  0  0
 11  4  1  0  0  0  0
 12  5  1  0  0  0  0
 13  8  1  0  0  0  0
 14  8  1  0  0  0  0
 18 22  1  0  0  0  0
 18 21  1  0  0  0  0
 19 18  2  0  0  0  0
 20 18  2  0  0  0  0
 22 23  1  0  0  0  0
M  RAD  3   2   2   3   3  21   2
M  END
