Coordinates from ORCA-job 4-MeOPhN2+~HSO4-_B3LYPG-6-31G_dp-CH-Scan-d09-49-n800
 OpenBabel11261919063D

 23 22  0  0  0  0  0  0  0  0999 V2000
   -1.7221   -0.1113   -0.0978 C   0  0  0  0  0  0  0  0  0  0  0  0
   -3.0820   -0.3064   -0.0091 N   0  0  0  0  0  0  0  0  0  0  0  0
   -4.1944   -0.4297    0.0492 N   0  0  0  0  0  0  0  0  0  0  0  0
   -1.3307    1.1939   -0.4849 C   0  0  0  0  0  0  0  0  0  0  0  0
    0.0695    1.2858   -0.5513 C   0  0  0  0  0  0  0  0  0  0  0  0
    0.9433    0.2227   -0.2703 C   0  0  0  0  0  0  0  0  0  0  0  0
    2.2653    0.4884   -0.3859 O   0  0  0  0  0  0  0  0  0  0  0  0
    3.2181   -0.5365   -0.1253 C   0  0  0  0  0  0  0  0  0  0  0  0
    0.4487   -1.0562    0.1130 C   0  0  0  0  0  0  0  0  0  0  0  0
   -0.9112   -1.2379    0.2034 C   0  0  0  0  0  0  0  0  0  0  0  0
   -3.2954    3.4396   -0.9006 H   0  0  0  0  0  0  0  0  0  0  0  0
    0.5478    2.2229   -0.8360 H   0  0  0  0  0  0  0  0  0  0  0  0
    4.1956   -0.0825   -0.2920 H   0  0  0  0  0  0  0  0  0  0  0  0
    3.0939   -1.3855   -0.8079 H   0  0  0  0  0  0  0  0  0  0  0  0
    3.1574   -0.8895    0.9112 H   0  0  0  0  0  0  0  0  0  0  0  0
    1.1187   -1.8776    0.3323 H   0  0  0  0  0  0  0  0  0  0  0  0
   -1.3352   -2.1960    0.4931 H   0  0  0  0  0  0  0  0  0  0  0  0
   -5.0375    3.7219    0.3122 S   0  0  0  0  0  0  0  0  0  0  0  0
   -4.0006    4.1155   -0.8562 O   0  0  0  0  0  0  0  0  0  0  0  0
   -6.1667    4.6133    0.1478 O   0  0  0  0  0  0  0  0  0  0  0  0
   -5.1607    2.2815    0.3997 O   0  0  0  0  0  0  0  0  0  0  0  0
   -4.2236    4.1624    1.6529 O   0  0  0  0  0  0  0  0  0  0  0  0
   -4.3406    5.1210    1.7662 H   0  0  0  0  0  0  0  0  0  0  0  0
  1  2  1  0  0  0  0
  1 10  2  0  0  0  0
  2  3  1  0  0  0  0
  4  1  1  0  0  0  0
  5  4  2  0  0  0  0
  5  6  1  0  0  0  0
  6  9  2  0  0  0  0
  7  6  1  0  0  0  0
  7  8  1  0  0  0  0
  8 15  1  0  0  0  0
  9 10  1  0  0  0  0
  9 16  1  0  0  0  0
 10 17  1  0  0  0  0
 11 19  1  0  0  0  0
 12  5  1  0  0  0  0
 13  8  1  0  0  0  0
 14  8  1  0  0  0  0
 18 21  2  0  0  0  0
 18 22  1  0  0  0  0
 19 18  1  0  0  0  0
 20 18  2  0  0  0  0
 22 23  1  0  0  0  0
M  RAD  3   2   2   3   3   4   2
M  END
