Coordinates from ORCA-job 4-MeOPhN2+~HSO4-_B3LYPG-6-31G_dp-CH-Scan-d09-49-n800
 OpenBabel11261919063D

 23 22  0  0  0  0  0  0  0  0999 V2000
   -1.6587   -0.1171   -0.0968 C   0  0  0  0  0  0  0  0  0  0  0  0
   -3.0224   -0.2883   -0.0031 N   0  0  0  0  0  0  0  0  0  0  0  0
   -4.1374   -0.3884    0.0573 N   0  0  0  0  0  0  0  0  0  0  0  0
   -1.2545    1.1771   -0.5055 C   0  0  0  0  0  0  0  0  0  0  0  0
    0.1482    1.2461   -0.5771 C   0  0  0  0  0  0  0  0  0  0  0  0
    1.0075    0.1756   -0.2821 C   0  0  0  0  0  0  0  0  0  0  0  0
    2.3338    0.4201   -0.4059 O   0  0  0  0  0  0  0  0  0  0  0  0
    3.2717   -0.6144   -0.1316 C   0  0  0  0  0  0  0  0  0  0  0  0
    0.4968   -1.0906    0.1233 C   0  0  0  0  0  0  0  0  0  0  0  0
   -0.8652   -1.2518    0.2207 C   0  0  0  0  0  0  0  0  0  0  0  0
   -3.4383    3.6424   -0.9485 H   0  0  0  0  0  0  0  0  0  0  0  0
    0.6398    2.1717   -0.8778 H   0  0  0  0  0  0  0  0  0  0  0  0
    4.2556   -0.1778   -0.3078 H   0  0  0  0  0  0  0  0  0  0  0  0
    3.1336   -1.4722   -0.8003 H   0  0  0  0  0  0  0  0  0  0  0  0
    3.2089   -0.9506    0.9104 H   0  0  0  0  0  0  0  0  0  0  0  0
    1.1564   -1.9175    0.3535 H   0  0  0  0  0  0  0  0  0  0  0  0
   -1.3021   -2.1992    0.5268 H   0  0  0  0  0  0  0  0  0  0  0  0
   -5.1569    3.7812    0.3214 S   0  0  0  0  0  0  0  0  0  0  0  0
   -4.1669    4.2832   -0.8516 O   0  0  0  0  0  0  0  0  0  0  0  0
   -6.3404    4.6071    0.2090 O   0  0  0  0  0  0  0  0  0  0  0  0
   -5.1847    2.3341    0.3516 O   0  0  0  0  0  0  0  0  0  0  0  0
   -4.3438    4.2232    1.6607 O   0  0  0  0  0  0  0  0  0  0  0  0
   -4.5237    5.1659    1.8175 H   0  0  0  0  0  0  0  0  0  0  0  0
  1  2  1  0  0  0  0
  1 10  2  0  0  0  0
  2  3  1  0  0  0  0
  4  1  1  0  0  0  0
  5  4  2  0  0  0  0
  5  6  1  0  0  0  0
  6  9  2  0  0  0  0
  7  6  1  0  0  0  0
  7  8  1  0  0  0  0
  8 15  1  0  0  0  0
  9 10  1  0  0  0  0
  9 16  1  0  0  0  0
 10 17  1  0  0  0  0
 11 19  1  0  0  0  0
 12  5  1  0  0  0  0
 13  8  1  0  0  0  0
 14  8  1  0  0  0  0
 18 21  2  0  0  0  0
 18 22  1  0  0  0  0
 19 18  1  0  0  0  0
 20 18  2  0  0  0  0
 22 23  1  0  0  0  0
M  RAD  3   2   2   3   3   4   2
M  END
