Coordinates from ORCA-job 4-MeOPhN2+~HSO4-_B3LYPG-6-31G_dp-CH-Scan-d09-49-n800
 OpenBabel11261919063D

 23 22  0  0  0  0  0  0  0  0999 V2000
   -1.5370   -0.1234   -0.1392 C   0  0  0  0  0  0  0  0  0  0  0  0
   -2.9078   -0.2425   -0.0463 N   0  0  0  0  0  0  0  0  0  0  0  0
   -4.0270   -0.2934    0.0074 N   0  0  0  0  0  0  0  0  0  0  0  0
   -1.0993    1.1343   -0.6190 C   0  0  0  0  0  0  0  0  0  0  0  0
    0.3073    1.1554   -0.6846 C   0  0  0  0  0  0  0  0  0  0  0  0
    1.1330    0.0801   -0.3223 C   0  0  0  0  0  0  0  0  0  0  0  0
    2.4681    0.2782   -0.4492 O   0  0  0  0  0  0  0  0  0  0  0  0
    3.3726   -0.7644   -0.1049 C   0  0  0  0  0  0  0  0  0  0  0  0
    0.5842   -1.1465    0.1518 C   0  0  0  0  0  0  0  0  0  0  0  0
   -0.7823   -1.2628    0.2491 C   0  0  0  0  0  0  0  0  0  0  0  0
   -3.7832    4.0607   -1.0480 H   0  0  0  0  0  0  0  0  0  0  0  0
    0.8288    2.0474   -1.0347 H   0  0  0  0  0  0  0  0  0  0  0  0
    4.3708   -0.3667   -0.2935 H   0  0  0  0  0  0  0  0  0  0  0  0
    3.2182   -1.6552   -0.7254 H   0  0  0  0  0  0  0  0  0  0  0  0
    3.2893   -1.0392    0.9536 H   0  0  0  0  0  0  0  0  0  0  0  0
    1.2189   -1.9771    0.4331 H   0  0  0  0  0  0  0  0  0  0  0  0
   -1.2489   -2.1783    0.6051 H   0  0  0  0  0  0  0  0  0  0  0  0
   -5.3777    3.8823    0.3715 S   0  0  0  0  0  0  0  0  0  0  0  0
   -4.5641    4.5998   -0.8321 O   0  0  0  0  0  0  0  0  0  0  0  0
   -6.6662    4.5396    0.4102 O   0  0  0  0  0  0  0  0  0  0  0  0
   -5.2004    2.4491    0.2829 O   0  0  0  0  0  0  0  0  0  0  0  0
   -4.5204    4.3458    1.6741 O   0  0  0  0  0  0  0  0  0  0  0  0
   -4.8195    5.2367    1.9241 H   0  0  0  0  0  0  0  0  0  0  0  0
  1  2  1  0  0  0  0
  1 10  2  0  0  0  0
  2  3  1  0  0  0  0
  4  1  1  0  0  0  0
  5  4  2  0  0  0  0
  5  6  1  0  0  0  0
  6  9  2  0  0  0  0
  7  6  1  0  0  0  0
  7  8  1  0  0  0  0
  8 15  1  0  0  0  0
  9 10  1  0  0  0  0
  9 16  1  0  0  0  0
 10 17  1  0  0  0  0
 11 19  1  0  0  0  0
 12  5  1  0  0  0  0
 13  8  1  0  0  0  0
 14  8  1  0  0  0  0
 18 20  2  0  0  0  0
 18 22  1  0  0  0  0
 19 18  1  0  0  0  0
 21 18  2  0  0  0  0
 22 23  1  0  0  0  0
M  RAD  3   2   2   3   3   4   2
M  END
