Coordinates from ORCA-job 4-MeOPhN2+~HSO4-_B3LYPG-6-31G_dp-CH-Scan-d09-49-n800
 OpenBabel11261919063D

 23 22  0  0  0  0  0  0  0  0999 V2000
   -1.9617   -0.0366   -0.1009 C   0  0  0  0  0  0  0  0  0  0  0  0
   -3.3078   -0.2969   -0.0497 N   0  0  0  0  0  0  0  0  0  0  0  0
   -4.4085   -0.4905   -0.0142 N   0  0  0  0  0  0  0  0  0  0  0  0
   -1.5688    1.3042   -0.3376 C   0  0  0  0  0  0  0  0  0  0  0  0
   -0.1845    1.4582   -0.3861 C   0  0  0  0  0  0  0  0  0  0  0  0
    0.7184    0.3918   -0.2172 C   0  0  0  0  0  0  0  0  0  0  0  0
    2.0249    0.7066   -0.2966 O   0  0  0  0  0  0  0  0  0  0  0  0
    3.0114   -0.3124   -0.1450 C   0  0  0  0  0  0  0  0  0  0  0  0
    0.2504   -0.9276    0.0195 C   0  0  0  0  0  0  0  0  0  0  0  0
   -1.1064   -1.1520    0.0777 C   0  0  0  0  0  0  0  0  0  0  0  0
   -2.5813    2.5266   -0.5025 H   0  0  0  0  0  0  0  0  0  0  0  0
    0.2509    2.4389   -0.5623 H   0  0  0  0  0  0  0  0  0  0  0  0
    3.9725    0.1892   -0.2578 H   0  0  0  0  0  0  0  0  0  0  0  0
    2.9112   -1.0833   -0.9179 H   0  0  0  0  0  0  0  0  0  0  0  0
    2.9587   -0.7748    0.8472 H   0  0  0  0  0  0  0  0  0  0  0  0
    0.9365   -1.7536    0.1538 H   0  0  0  0  0  0  0  0  0  0  0  0
   -1.5037   -2.1464    0.2579 H   0  0  0  0  0  0  0  0  0  0  0  0
   -4.4708    3.4303    0.3132 S   0  0  0  0  0  0  0  0  0  0  0  0
   -3.2557    3.4186   -0.6550 O   0  0  0  0  0  0  0  0  0  0  0  0
   -5.5831    4.1499   -0.2941 O   0  0  0  0  0  0  0  0  0  0  0  0
   -4.6701    2.1033    0.8939 O   0  0  0  0  0  0  0  0  0  0  0  0
   -3.9502    4.3539    1.5709 O   0  0  0  0  0  0  0  0  0  0  0  0
   -4.2246    5.2624    1.3667 H   0  0  0  0  0  0  0  0  0  0  0  0
  1  2  1  0  0  0  0
  1 10  2  0  0  0  0
  2  3  1  0  0  0  0
  4  1  1  0  0  0  0
  5  4  2  0  0  0  0
  5  6  1  0  0  0  0
  6  9  2  0  0  0  0
  7  6  1  0  0  0  0
  7  8  1  0  0  0  0
  8 15  1  0  0  0  0
  9 10  1  0  0  0  0
  9 16  1  0  0  0  0
 10 17  1  0  0  0  0
 12  5  1  0  0  0  0
 13  8  1  0  0  0  0
 14  8  1  0  0  0  0
 18 21  2  0  0  0  0
 18 22  1  0  0  0  0
 19 11  1  0  0  0  0
 19 18  1  0  0  0  0
 20 18  2  0  0  0  0
 23 22  1  0  0  0  0
M  RAD  3   2   2   3   3   4   2
M  END
