Coordinates from ORCA-job 4-MeOPhN2+~HSO4-_B3LYPG-6-31G_dp-CH-Scan-d09-49-n800
 OpenBabel11261919063D

 23 22  0  0  0  0  0  0  0  0999 V2000
   -1.5959   -0.1201   -0.1006 C   0  0  0  0  0  0  0  0  0  0  0  0
   -2.9631   -0.2649   -0.0016 N   0  0  0  0  0  0  0  0  0  0  0  0
   -4.0805   -0.3391    0.0594 N   0  0  0  0  0  0  0  0  0  0  0  0
   -1.1769    1.1614   -0.5328 C   0  0  0  0  0  0  0  0  0  0  0  0
    0.2277    1.2064   -0.6077 C   0  0  0  0  0  0  0  0  0  0  0  0
    1.0713    0.1289   -0.2953 C   0  0  0  0  0  0  0  0  0  0  0  0
    2.4018    0.3510   -0.4249 O   0  0  0  0  0  0  0  0  0  0  0  0
    3.3239   -0.6922   -0.1322 C   0  0  0  0  0  0  0  0  0  0  0  0
    0.5431   -1.1229    0.1332 C   0  0  0  0  0  0  0  0  0  0  0  0
   -0.8209   -1.2621    0.2359 C   0  0  0  0  0  0  0  0  0  0  0  0
   -3.5950    3.8468   -0.9975 H   0  0  0  0  0  0  0  0  0  0  0  0
    0.7335    2.1190   -0.9254 H   0  0  0  0  0  0  0  0  0  0  0  0
    4.3145   -0.2735   -0.3153 H   0  0  0  0  0  0  0  0  0  0  0  0
    3.1739   -1.5594   -0.7861 H   0  0  0  0  0  0  0  0  0  0  0  0
    3.2560   -1.0098    0.9153 H   0  0  0  0  0  0  0  0  0  0  0  0
    1.1911   -1.9552    0.3764 H   0  0  0  0  0  0  0  0  0  0  0  0
   -1.2717   -2.1975    0.5589 H   0  0  0  0  0  0  0  0  0  0  0  0
   -5.2729    3.8358    0.3333 S   0  0  0  0  0  0  0  0  0  0  0  0
   -4.3494    4.4440   -0.8479 O   0  0  0  0  0  0  0  0  0  0  0  0
   -6.5083    4.5881    0.2830 O   0  0  0  0  0  0  0  0  0  0  0  0
   -5.2044    2.3905    0.3055 O   0  0  0  0  0  0  0  0  0  0  0  0
   -4.4498    4.2820    1.6642 O   0  0  0  0  0  0  0  0  0  0  0  0
   -4.6904    5.2023    1.8661 H   0  0  0  0  0  0  0  0  0  0  0  0
  1  2  1  0  0  0  0
  1 10  2  0  0  0  0
  2  3  1  0  0  0  0
  4  1  1  0  0  0  0
  5  4  2  0  0  0  0
  5  6  1  0  0  0  0
  6  9  2  0  0  0  0
  7  6  1  0  0  0  0
  7  8  1  0  0  0  0
  8 15  1  0  0  0  0
  9 10  1  0  0  0  0
  9 16  1  0  0  0  0
 10 17  1  0  0  0  0
 11 19  1  0  0  0  0
 12  5  1  0  0  0  0
 13  8  1  0  0  0  0
 14  8  1  0  0  0  0
 18 22  1  0  0  0  0
 19 18  1  0  0  0  0
 20 18  2  0  0  0  0
 21 18  2  0  0  0  0
 22 23  1  0  0  0  0
M  RAD  3   2   2   3   3   4   2
M  END
