Coordinates from ORCA-job 4-MeOPhN2+~HSO4-_B3LYPG-6-31G_dp-CH-Scan-d09-49-n800
 OpenBabel11261919063D

 23 22  0  0  0  0  0  0  0  0999 V2000
   -1.4837   -0.1241   -0.1643 C   0  0  0  0  0  0  0  0  0  0  0  0
   -2.8568   -0.2193   -0.0730 N   0  0  0  0  0  0  0  0  0  0  0  0
   -3.9772   -0.2483   -0.0231 N   0  0  0  0  0  0  0  0  0  0  0  0
   -1.0292    1.1133   -0.6792 C   0  0  0  0  0  0  0  0  0  0  0  0
    0.3780    1.1138   -0.7414 C   0  0  0  0  0  0  0  0  0  0  0  0
    1.1883    0.0388   -0.3450 C   0  0  0  0  0  0  0  0  0  0  0  0
    2.5265    0.2157   -0.4726 O   0  0  0  0  0  0  0  0  0  0  0  0
    3.4162   -0.8275   -0.0937 C   0  0  0  0  0  0  0  0  0  0  0  0
    0.6220   -1.1663    0.1628 C   0  0  0  0  0  0  0  0  0  0  0  0
   -0.7462   -1.2620    0.2594 C   0  0  0  0  0  0  0  0  0  0  0  0
   -3.9131    4.1848   -1.0458 H   0  0  0  0  0  0  0  0  0  0  0  0
    0.9123    1.9883   -1.1157 H   0  0  0  0  0  0  0  0  0  0  0  0
    4.4202   -0.4476   -0.2884 H   0  0  0  0  0  0  0  0  0  0  0  0
    3.2541   -1.7339   -0.6892 H   0  0  0  0  0  0  0  0  0  0  0  0
    3.3243   -1.0708    0.9719 H   0  0  0  0  0  0  0  0  0  0  0  0
    1.2450   -1.9966    0.4699 H   0  0  0  0  0  0  0  0  0  0  0  0
   -1.2259   -2.1609    0.6398 H   0  0  0  0  0  0  0  0  0  0  0  0
   -5.4770    3.9310    0.3954 S   0  0  0  0  0  0  0  0  0  0  0  0
   -4.7030    4.6994   -0.8043 O   0  0  0  0  0  0  0  0  0  0  0  0
   -6.7899    4.5358    0.4569 O   0  0  0  0  0  0  0  0  0  0  0  0
   -5.2415    2.5082    0.2796 O   0  0  0  0  0  0  0  0  0  0  0  0
   -4.6260    4.4077    1.6970 O   0  0  0  0  0  0  0  0  0  0  0  0
   -4.9600    5.2802    1.9669 H   0  0  0  0  0  0  0  0  0  0  0  0
  1  2  1  0  0  0  0
  1 10  2  0  0  0  0
  2  3  1  0  0  0  0
  4  1  1  0  0  0  0
  5  4  2  0  0  0  0
  5  6  1  0  0  0  0
  6  9  2  0  0  0  0
  7  6  1  0  0  0  0
  7  8  1  0  0  0  0
  8 15  1  0  0  0  0
  9 10  1  0  0  0  0
  9 16  1  0  0  0  0
 10 17  1  0  0  0  0
 11 19  1  0  0  0  0
 12  5  1  0  0  0  0
 13  8  1  0  0  0  0
 14  8  1  0  0  0  0
 18 20  2  0  0  0  0
 18 22  1  0  0  0  0
 19 18  1  0  0  0  0
 21 18  2  0  0  0  0
 22 23  1  0  0  0  0
M  RAD  3   2   2   3   3   4   2
M  END
