Coordinates from ORCA-job 4-MeOPhN2+~HSO4-_B3LYPG-6-31G_dp-CH-Scan-d09-49-n800
 OpenBabel11261919063D

 23 22  0  0  0  0  0  0  0  0999 V2000
   -1.5609   -0.1220   -0.1241 C   0  0  0  0  0  0  0  0  0  0  0  0
   -2.9304   -0.2514   -0.0302 N   0  0  0  0  0  0  0  0  0  0  0  0
   -4.0490   -0.3109    0.0256 N   0  0  0  0  0  0  0  0  0  0  0  0
   -1.1309    1.1459   -0.5842 C   0  0  0  0  0  0  0  0  0  0  0  0
    0.2752    1.1766   -0.6524 C   0  0  0  0  0  0  0  0  0  0  0  0
    1.1080    0.1000   -0.3100 C   0  0  0  0  0  0  0  0  0  0  0  0
    2.4414    0.3078   -0.4372 O   0  0  0  0  0  0  0  0  0  0  0  0
    3.3528   -0.7354   -0.1136 C   0  0  0  0  0  0  0  0  0  0  0  0
    0.5673   -1.1372    0.1451 C   0  0  0  0  0  0  0  0  0  0  0  0
   -0.7983   -1.2629    0.2437 C   0  0  0  0  0  0  0  0  0  0  0  0
   -3.7202    3.9831   -1.0447 H   0  0  0  0  0  0  0  0  0  0  0  0
    0.7907    2.0771   -0.9887 H   0  0  0  0  0  0  0  0  0  0  0  0
    4.3481   -0.3293   -0.2994 H   0  0  0  0  0  0  0  0  0  0  0  0
    3.2004   -1.6167   -0.7480 H   0  0  0  0  0  0  0  0  0  0  0  0
    3.2751   -1.0280    0.9406 H   0  0  0  0  0  0  0  0  0  0  0  0
    1.2073   -1.9686    0.4114 H   0  0  0  0  0  0  0  0  0  0  0  0
   -1.2587   -2.1867    0.5860 H   0  0  0  0  0  0  0  0  0  0  0  0
   -5.3346    3.8621    0.3580 S   0  0  0  0  0  0  0  0  0  0  0  0
   -4.4901    4.5440   -0.8442 O   0  0  0  0  0  0  0  0  0  0  0  0
   -6.6053    4.5542    0.3768 O   0  0  0  0  0  0  0  0  0  0  0  0
   -5.1962    2.4237    0.2869 O   0  0  0  0  0  0  0  0  0  0  0  0
   -4.4787    4.3162    1.6649 O   0  0  0  0  0  0  0  0  0  0  0  0
   -4.7556    5.2179    1.9016 H   0  0  0  0  0  0  0  0  0  0  0  0
  1  2  1  0  0  0  0
  1 10  2  0  0  0  0
  2  3  1  0  0  0  0
  4  1  1  0  0  0  0
  5  4  2  0  0  0  0
  5  6  1  0  0  0  0
  6  9  2  0  0  0  0
  7  6  1  0  0  0  0
  7  8  1  0  0  0  0
  8 15  1  0  0  0  0
  9 10  1  0  0  0  0
  9 16  1  0  0  0  0
 10 17  1  0  0  0  0
 11 19  1  0  0  0  0
 12  5  1  0  0  0  0
 13  8  1  0  0  0  0
 14  8  1  0  0  0  0
 18 20  2  0  0  0  0
 18 22  1  0  0  0  0
 19 18  1  0  0  0  0
 21 18  2  0  0  0  0
 22 23  1  0  0  0  0
M  RAD  3   2   2   3   3   4   2
M  END
