Coordinates from ORCA-job 4-MeOPhN2+~HSO4-_B3LYPG-6-31G_dp-CH-Scan-d09-49-n800
 OpenBabel11261919063D

 23 22  0  0  0  0  0  0  0  0999 V2000
   -1.8517   -0.0824   -0.0617 C   0  0  0  0  0  0  0  0  0  0  0  0
   -3.2018   -0.3241    0.0260 N   0  0  0  0  0  0  0  0  0  0  0  0
   -4.3068   -0.4946    0.0898 N   0  0  0  0  0  0  0  0  0  0  0  0
   -1.4807    1.2486   -0.3780 C   0  0  0  0  0  0  0  0  0  0  0  0
   -0.0873    1.3805   -0.4491 C   0  0  0  0  0  0  0  0  0  0  0  0
    0.8130    0.3229   -0.2340 C   0  0  0  0  0  0  0  0  0  0  0  0
    2.1246    0.6258   -0.3455 O   0  0  0  0  0  0  0  0  0  0  0  0
    3.1050   -0.3897   -0.1537 C   0  0  0  0  0  0  0  0  0  0  0  0
    0.3481   -0.9838    0.0811 C   0  0  0  0  0  0  0  0  0  0  0  0
   -1.0073   -1.1997    0.1700 C   0  0  0  0  0  0  0  0  0  0  0  0
   -2.9433    2.9830   -0.7017 H   0  0  0  0  0  0  0  0  0  0  0  0
    0.3633    2.3433   -0.6854 H   0  0  0  0  0  0  0  0  0  0  0  0
    4.0689    0.0972   -0.3046 H   0  0  0  0  0  0  0  0  0  0  0  0
    2.9915   -1.2005   -0.8828 H   0  0  0  0  0  0  0  0  0  0  0  0
    3.0640   -0.8012    0.8616 H   0  0  0  0  0  0  0  0  0  0  0  0
    1.0360   -1.8021    0.2505 H   0  0  0  0  0  0  0  0  0  0  0  0
   -1.4069   -2.1814    0.4096 H   0  0  0  0  0  0  0  0  0  0  0  0
   -4.7734    3.5903    0.2488 S   0  0  0  0  0  0  0  0  0  0  0  0
   -3.5863    3.7382   -0.8057 O   0  0  0  0  0  0  0  0  0  0  0  0
   -5.7748    4.5717   -0.1196 O   0  0  0  0  0  0  0  0  0  0  0  0
   -5.0875    2.1897    0.4647 O   0  0  0  0  0  0  0  0  0  0  0  0
   -4.0731    4.0780    1.6418 O   0  0  0  0  0  0  0  0  0  0  0  0
   -4.0760    5.0499    1.6417 H   0  0  0  0  0  0  0  0  0  0  0  0
  1  2  1  0  0  0  0
  1 10  2  0  0  0  0
  2  3  1  0  0  0  0
  4  1  1  0  0  0  0
  5  4  2  0  0  0  0
  5  6  1  0  0  0  0
  6  9  2  0  0  0  0
  7  6  1  0  0  0  0
  7  8  1  0  0  0  0
  8 15  1  0  0  0  0
  9 10  1  0  0  0  0
  9 16  1  0  0  0  0
 10 17  1  0  0  0  0
 12  5  1  0  0  0  0
 13  8  1  0  0  0  0
 14  8  1  0  0  0  0
 18 21  2  0  0  0  0
 18 22  1  0  0  0  0
 19 11  1  0  0  0  0
 19 18  1  0  0  0  0
 20 18  2  0  0  0  0
 23 22  1  0  0  0  0
M  RAD  3   2   2   3   3   4   2
M  END
