Coordinates from ORCA-job 4-MeOPhN2+~HSO4-_B3LYPG-6-31G_dp-CH-Scan-d09-49-n800
 OpenBabel11261919063D

 23 22  0  0  0  0  0  0  0  0999 V2000
   -1.9373   -0.0685   -0.1087 C   0  0  0  0  0  0  0  0  0  0  0  0
   -3.2824   -0.3382   -0.0529 N   0  0  0  0  0  0  0  0  0  0  0  0
   -4.3836   -0.5340   -0.0155 N   0  0  0  0  0  0  0  0  0  0  0  0
   -1.5710    1.2725   -0.3890 C   0  0  0  0  0  0  0  0  0  0  0  0
   -0.1823    1.4297   -0.4336 C   0  0  0  0  0  0  0  0  0  0  0  0
    0.7303    0.3802   -0.2249 C   0  0  0  0  0  0  0  0  0  0  0  0
    2.0366    0.7052   -0.3073 O   0  0  0  0  0  0  0  0  0  0  0  0
    3.0303   -0.2991   -0.1188 C   0  0  0  0  0  0  0  0  0  0  0  0
    0.2774   -0.9376    0.0537 C   0  0  0  0  0  0  0  0  0  0  0  0
   -1.0766   -1.1739    0.1130 C   0  0  0  0  0  0  0  0  0  0  0  0
   -2.7724    2.6804   -0.6280 H   0  0  0  0  0  0  0  0  0  0  0  0
    0.2529    2.4054   -0.6410 H   0  0  0  0  0  0  0  0  0  0  0  0
    3.9882    0.2062   -0.2433 H   0  0  0  0  0  0  0  0  0  0  0  0
    2.9413   -1.0961   -0.8663 H   0  0  0  0  0  0  0  0  0  0  0  0
    2.9778   -0.7309    0.8873 H   0  0  0  0  0  0  0  0  0  0  0  0
    0.9728   -1.7504    0.2187 H   0  0  0  0  0  0  0  0  0  0  0  0
   -1.4657   -2.1659    0.3243 H   0  0  0  0  0  0  0  0  0  0  0  0
   -4.5740    3.4794    0.3043 S   0  0  0  0  0  0  0  0  0  0  0  0
   -3.4243    3.4780   -0.7741 O   0  0  0  0  0  0  0  0  0  0  0  0
   -5.6151    4.3818   -0.1564 O   0  0  0  0  0  0  0  0  0  0  0  0
   -4.8681    2.1207    0.7363 O   0  0  0  0  0  0  0  0  0  0  0  0
   -3.8606    4.1770    1.6040 O   0  0  0  0  0  0  0  0  0  0  0  0
   -3.9366    5.1378    1.4820 H   0  0  0  0  0  0  0  0  0  0  0  0
  1  2  1  0  0  0  0
  1 10  2  0  0  0  0
  2  3  1  0  0  0  0
  4  1  1  0  0  0  0
  5  4  2  0  0  0  0
  5  6  1  0  0  0  0
  6  9  2  0  0  0  0
  7  6  1  0  0  0  0
  7  8  1  0  0  0  0
  8 15  1  0  0  0  0
  9 10  1  0  0  0  0
  9 16  1  0  0  0  0
 10 17  1  0  0  0  0
 12  5  1  0  0  0  0
 13  8  1  0  0  0  0
 14  8  1  0  0  0  0
 18 21  2  0  0  0  0
 18 22  1  0  0  0  0
 19 11  1  0  0  0  0
 19 18  1  0  0  0  0
 20 18  2  0  0  0  0
 23 22  1  0  0  0  0
M  RAD  3   2   2   3   3   4   2
M  END
