Coordinates from ORCA-job 4-MeOPhN2+~HSO4-_B3LYPG-6-31G_dp-CH-Scan-d09-49-n800
 OpenBabel11261919063D

 23 22  0  0  0  0  0  0  0  0999 V2000
   -1.7307   -0.1103   -0.0968 C   0  0  0  0  0  0  0  0  0  0  0  0
   -3.0900   -0.3085   -0.0087 N   0  0  0  0  0  0  0  0  0  0  0  0
   -4.2022   -0.4350    0.0477 N   0  0  0  0  0  0  0  0  0  0  0  0
   -1.3409    1.1964   -0.4804 C   0  0  0  0  0  0  0  0  0  0  0  0
    0.0589    1.2914   -0.5465 C   0  0  0  0  0  0  0  0  0  0  0  0
    0.9346    0.2291   -0.2684 C   0  0  0  0  0  0  0  0  0  0  0  0
    2.2560    0.4976   -0.3834 O   0  0  0  0  0  0  0  0  0  0  0  0
    3.2108   -0.5263   -0.1256 C   0  0  0  0  0  0  0  0  0  0  0  0
    0.4422   -1.0516    0.1114 C   0  0  0  0  0  0  0  0  0  0  0  0
   -0.9174   -1.2359    0.2012 C   0  0  0  0  0  0  0  0  0  0  0  0
   -3.2741    3.4103   -0.8906 H   0  0  0  0  0  0  0  0  0  0  0  0
    0.5352    2.2302   -0.8288 H   0  0  0  0  0  0  0  0  0  0  0  0
    4.1874   -0.0699   -0.2913 H   0  0  0  0  0  0  0  0  0  0  0  0
    3.0881   -1.3735   -0.8105 H   0  0  0  0  0  0  0  0  0  0  0  0
    3.1509   -0.8821    0.9099 H   0  0  0  0  0  0  0  0  0  0  0  0
    1.1136   -1.8725    0.3284 H   0  0  0  0  0  0  0  0  0  0  0  0
   -1.3397   -2.1956    0.4883 H   0  0  0  0  0  0  0  0  0  0  0  0
   -5.0209    3.7139    0.3102 S   0  0  0  0  0  0  0  0  0  0  0  0
   -3.9757    4.0912   -0.8552 O   0  0  0  0  0  0  0  0  0  0  0  0
   -6.1423    4.6130    0.1349 O   0  0  0  0  0  0  0  0  0  0  0  0
   -5.1568    2.2750    0.4071 O   0  0  0  0  0  0  0  0  0  0  0  0
   -4.2104    4.1562    1.6525 O   0  0  0  0  0  0  0  0  0  0  0  0
   -4.3193    5.1166    1.7584 H   0  0  0  0  0  0  0  0  0  0  0  0
  1  2  1  0  0  0  0
  1 10  2  0  0  0  0
  2  3  1  0  0  0  0
  4  1  1  0  0  0  0
  5  4  2  0  0  0  0
  5  6  1  0  0  0  0
  6  9  2  0  0  0  0
  7  6  1  0  0  0  0
  7  8  1  0  0  0  0
  8 15  1  0  0  0  0
  9 10  1  0  0  0  0
  9 16  1  0  0  0  0
 10 17  1  0  0  0  0
 11 19  1  0  0  0  0
 12  5  1  0  0  0  0
 13  8  1  0  0  0  0
 14  8  1  0  0  0  0
 18 21  2  0  0  0  0
 18 22  1  0  0  0  0
 19 18  1  0  0  0  0
 20 18  2  0  0  0  0
 22 23  1  0  0  0  0
M  RAD  3   2   2   3   3   4   2
M  END
