Coordinates from ORCA-job 4-MeOPhN2+~HSO4-_B3LYPG-6-31G_dp-CH-Scan-d09-49-n800
 OpenBabel11261919063D

 23 22  0  0  0  0  0  0  0  0999 V2000
   -1.6504   -0.1179   -0.0959 C   0  0  0  0  0  0  0  0  0  0  0  0
   -3.0144   -0.2857   -0.0010 N   0  0  0  0  0  0  0  0  0  0  0  0
   -4.1296   -0.3819    0.0638 N   0  0  0  0  0  0  0  0  0  0  0  0
   -1.2446    1.1751   -0.5074 C   0  0  0  0  0  0  0  0  0  0  0  0
    0.1583    1.2408   -0.5804 C   0  0  0  0  0  0  0  0  0  0  0  0
    1.0158    0.1693   -0.2838 C   0  0  0  0  0  0  0  0  0  0  0  0
    2.3426    0.4109   -0.4091 O   0  0  0  0  0  0  0  0  0  0  0  0
    3.2786   -0.6247   -0.1332 C   0  0  0  0  0  0  0  0  0  0  0  0
    0.5031   -1.0952    0.1246 C   0  0  0  0  0  0  0  0  0  0  0  0
   -0.8591   -1.2535    0.2235 C   0  0  0  0  0  0  0  0  0  0  0  0
   -3.4543    3.6709   -0.9532 H   0  0  0  0  0  0  0  0  0  0  0  0
    0.6517    2.1647   -0.8836 H   0  0  0  0  0  0  0  0  0  0  0  0
    4.2633   -0.1905   -0.3109 H   0  0  0  0  0  0  0  0  0  0  0  0
    3.1385   -1.4837   -0.8001 H   0  0  0  0  0  0  0  0  0  0  0  0
    3.2157   -0.9588    0.9094 H   0  0  0  0  0  0  0  0  0  0  0  0
    1.1613   -1.9228    0.3559 H   0  0  0  0  0  0  0  0  0  0  0  0
   -1.2977   -2.1995    0.5316 H   0  0  0  0  0  0  0  0  0  0  0  0
   -5.1722    3.7890    0.3206 S   0  0  0  0  0  0  0  0  0  0  0  0
   -4.1865    4.3068   -0.8499 O   0  0  0  0  0  0  0  0  0  0  0  0
   -6.3625    4.6058    0.2142 O   0  0  0  0  0  0  0  0  0  0  0  0
   -5.1871    2.3418    0.3408 O   0  0  0  0  0  0  0  0  0  0  0  0
   -4.3619    4.2295    1.6620 O   0  0  0  0  0  0  0  0  0  0  0  0
   -4.5513    5.1691    1.8260 H   0  0  0  0  0  0  0  0  0  0  0  0
  1  2  1  0  0  0  0
  1 10  2  0  0  0  0
  2  3  1  0  0  0  0
  4  1  1  0  0  0  0
  5  4  2  0  0  0  0
  5  6  1  0  0  0  0
  6  9  2  0  0  0  0
  7  6  1  0  0  0  0
  7  8  1  0  0  0  0
  8 15  1  0  0  0  0
  9 10  1  0  0  0  0
  9 16  1  0  0  0  0
 10 17  1  0  0  0  0
 11 19  1  0  0  0  0
 12  5  1  0  0  0  0
 13  8  1  0  0  0  0
 14  8  1  0  0  0  0
 18 21  2  0  0  0  0
 18 22  1  0  0  0  0
 19 18  1  0  0  0  0
 20 18  2  0  0  0  0
 22 23  1  0  0  0  0
M  RAD  3   2   2   3   3   4   2
M  END
