Coordinates from ORCA-job 4-MeOPhN2+~HSO4-_B3LYPG-6-31G_dp-CH-Scan-d09-49-n800
 OpenBabel11261919063D

 23 22  0  0  0  0  0  0  0  0999 V2000
   -1.8669   -0.0787   -0.0541 C   0  0  0  0  0  0  0  0  0  0  0  0
   -3.2157   -0.3259    0.0355 N   0  0  0  0  0  0  0  0  0  0  0  0
   -4.3197   -0.5013    0.1011 N   0  0  0  0  0  0  0  0  0  0  0  0
   -1.4983    1.2549   -0.3629 C   0  0  0  0  0  0  0  0  0  0  0  0
   -0.1060    1.3910   -0.4366 C   0  0  0  0  0  0  0  0  0  0  0  0
    0.7976    0.3343   -0.2302 C   0  0  0  0  0  0  0  0  0  0  0  0
    2.1077    0.6414   -0.3432 O   0  0  0  0  0  0  0  0  0  0  0  0
    3.0915   -0.3727   -0.1606 C   0  0  0  0  0  0  0  0  0  0  0  0
    0.3363   -0.9751    0.0778 C   0  0  0  0  0  0  0  0  0  0  0  0
   -1.0184   -1.1945    0.1685 C   0  0  0  0  0  0  0  0  0  0  0  0
   -2.8968    2.9271   -0.6709 H   0  0  0  0  0  0  0  0  0  0  0  0
    0.3410    2.3565   -0.6682 H   0  0  0  0  0  0  0  0  0  0  0  0
    4.0535    0.1180   -0.3108 H   0  0  0  0  0  0  0  0  0  0  0  0
    2.9781   -1.1789   -0.8949 H   0  0  0  0  0  0  0  0  0  0  0  0
    3.0542   -0.7909    0.8521 H   0  0  0  0  0  0  0  0  0  0  0  0
    1.0263   -1.7930    0.2405 H   0  0  0  0  0  0  0  0  0  0  0  0
   -1.4151   -2.1786    0.4029 H   0  0  0  0  0  0  0  0  0  0  0  0
   -4.7392    3.5759    0.2356 S   0  0  0  0  0  0  0  0  0  0  0  0
   -3.5286    3.6966   -0.7903 O   0  0  0  0  0  0  0  0  0  0  0  0
   -5.7208    4.5668   -0.1611 O   0  0  0  0  0  0  0  0  0  0  0  0
   -5.0792    2.1817    0.4582 O   0  0  0  0  0  0  0  0  0  0  0  0
   -4.0660    4.0666    1.6420 O   0  0  0  0  0  0  0  0  0  0  0  0
   -4.0581    5.0384    1.6335 H   0  0  0  0  0  0  0  0  0  0  0  0
  1  2  1  0  0  0  0
  1 10  2  0  0  0  0
  2  3  1  0  0  0  0
  4  1  1  0  0  0  0
  5  4  2  0  0  0  0
  5  6  1  0  0  0  0
  6  9  2  0  0  0  0
  7  6  1  0  0  0  0
  7  8  1  0  0  0  0
  8 15  1  0  0  0  0
  9 10  1  0  0  0  0
  9 16  1  0  0  0  0
 10 17  1  0  0  0  0
 12  5  1  0  0  0  0
 13  8  1  0  0  0  0
 14  8  1  0  0  0  0
 18 21  2  0  0  0  0
 18 22  1  0  0  0  0
 19 11  1  0  0  0  0
 19 18  1  0  0  0  0
 20 18  2  0  0  0  0
 23 22  1  0  0  0  0
M  RAD  3   2   2   3   3   4   2
M  END
