Coordinates from ORCA-job 4-MeOPhN2+~HSO4-_B3LYPG-6-31G_dp-CH-Scan-d09-49-n800
 OpenBabel11261919063D

 23 22  0  0  0  0  0  0  0  0999 V2000
   -1.5576   -0.1223   -0.1260 C   0  0  0  0  0  0  0  0  0  0  0  0
   -2.9273   -0.2504   -0.0312 N   0  0  0  0  0  0  0  0  0  0  0  0
   -4.0460   -0.3094    0.0228 N   0  0  0  0  0  0  0  0  0  0  0  0
   -1.1267    1.1433   -0.5912 C   0  0  0  0  0  0  0  0  0  0  0  0
    0.2793    1.1726   -0.6599 C   0  0  0  0  0  0  0  0  0  0  0  0
    1.1113    0.0968   -0.3131 C   0  0  0  0  0  0  0  0  0  0  0  0
    2.4450    0.3031   -0.4411 O   0  0  0  0  0  0  0  0  0  0  0  0
    3.3555   -0.7395   -0.1131 C   0  0  0  0  0  0  0  0  0  0  0  0
    0.5698   -1.1381    0.1471 C   0  0  0  0  0  0  0  0  0  0  0  0
   -0.7959   -1.2623    0.2463 C   0  0  0  0  0  0  0  0  0  0  0  0
   -3.7210    3.9989   -1.0371 H   0  0  0  0  0  0  0  0  0  0  0  0
    0.7955    2.0713   -1.0001 H   0  0  0  0  0  0  0  0  0  0  0  0
    4.3511   -0.3348   -0.3004 H   0  0  0  0  0  0  0  0  0  0  0  0
    3.2027   -1.6232   -0.7440 H   0  0  0  0  0  0  0  0  0  0  0  0
    3.2775   -1.0276    0.9422 H   0  0  0  0  0  0  0  0  0  0  0  0
    1.2091   -1.9690    0.4167 H   0  0  0  0  0  0  0  0  0  0  0  0
   -1.2570   -2.1844    0.5923 H   0  0  0  0  0  0  0  0  0  0  0  0
   -5.3408    3.8648    0.3584 S   0  0  0  0  0  0  0  0  0  0  0  0
   -4.4963    4.5533   -0.8401 O   0  0  0  0  0  0  0  0  0  0  0  0
   -6.6140    4.5523    0.3760 O   0  0  0  0  0  0  0  0  0  0  0  0
   -5.1973    2.4270    0.2843 O   0  0  0  0  0  0  0  0  0  0  0  0
   -4.4893    4.3186    1.6683 O   0  0  0  0  0  0  0  0  0  0  0  0
   -4.7700    5.2186    1.9069 H   0  0  0  0  0  0  0  0  0  0  0  0
  1  2  1  0  0  0  0
  1 10  2  0  0  0  0
  2  3  1  0  0  0  0
  4  1  1  0  0  0  0
  5  4  2  0  0  0  0
  5  6  1  0  0  0  0
  6  9  2  0  0  0  0
  7  6  1  0  0  0  0
  7  8  1  0  0  0  0
  8 15  1  0  0  0  0
  9 10  1  0  0  0  0
  9 16  1  0  0  0  0
 10 17  1  0  0  0  0
 11 19  1  0  0  0  0
 12  5  1  0  0  0  0
 13  8  1  0  0  0  0
 14  8  1  0  0  0  0
 18 20  2  0  0  0  0
 18 22  1  0  0  0  0
 19 18  1  0  0  0  0
 21 18  2  0  0  0  0
 22 23  1  0  0  0  0
M  RAD  3   2   2   3   3   4   2
M  END
