Coordinates from ORCA-job 4-MeOPhN2+~HSO4-_B3LYPG-6-31G_dp-CH-Scan-d09-49-n800
 OpenBabel11261919063D

 23 22  0  0  0  0  0  0  0  0999 V2000
   -1.4592   -0.1237   -0.1741 C   0  0  0  0  0  0  0  0  0  0  0  0
   -2.8331   -0.2086   -0.0828 N   0  0  0  0  0  0  0  0  0  0  0  0
   -3.9538   -0.2288   -0.0343 N   0  0  0  0  0  0  0  0  0  0  0  0
   -0.9969    1.1046   -0.7031 C   0  0  0  0  0  0  0  0  0  0  0  0
    0.4104    1.0956   -0.7644 C   0  0  0  0  0  0  0  0  0  0  0  0
    1.2136    0.0204   -0.3546 C   0  0  0  0  0  0  0  0  0  0  0  0
    2.5531    0.1875   -0.4831 O   0  0  0  0  0  0  0  0  0  0  0  0
    3.4360   -0.8563   -0.0905 C   0  0  0  0  0  0  0  0  0  0  0  0
    0.6395   -1.1752    0.1669 C   0  0  0  0  0  0  0  0  0  0  0  0
   -0.7293   -1.2613    0.2636 C   0  0  0  0  0  0  0  0  0  0  0  0
   -3.9680    4.2354   -1.0399 H   0  0  0  0  0  0  0  0  0  0  0  0
    0.9503    1.9623   -1.1486 H   0  0  0  0  0  0  0  0  0  0  0  0
    4.4425   -0.4847   -0.2884 H   0  0  0  0  0  0  0  0  0  0  0  0
    3.2694   -1.7688   -0.6754 H   0  0  0  0  0  0  0  0  0  0  0  0
    3.3414   -1.0864    0.9778 H   0  0  0  0  0  0  0  0  0  0  0  0
    1.2572   -2.0056    0.4842 H   0  0  0  0  0  0  0  0  0  0  0  0
   -1.2148   -2.1528    0.6541 H   0  0  0  0  0  0  0  0  0  0  0  0
   -5.5236    3.9539    0.4047 S   0  0  0  0  0  0  0  0  0  0  0  0
   -4.7619    4.7403   -0.7916 O   0  0  0  0  0  0  0  0  0  0  0  0
   -6.8451    4.5393    0.4711 O   0  0  0  0  0  0  0  0  0  0  0  0
   -5.2670    2.5356    0.2802 O   0  0  0  0  0  0  0  0  0  0  0  0
   -4.6780    4.4357    1.7080 O   0  0  0  0  0  0  0  0  0  0  0  0
   -5.0251    5.3012    1.9840 H   0  0  0  0  0  0  0  0  0  0  0  0
  1  2  1  0  0  0  0
  1 10  2  0  0  0  0
  2  3  1  0  0  0  0
  4  1  1  0  0  0  0
  5  4  2  0  0  0  0
  5  6  1  0  0  0  0
  6  9  2  0  0  0  0
  7  6  1  0  0  0  0
  7  8  1  0  0  0  0
  8 15  1  0  0  0  0
  9 10  1  0  0  0  0
  9 16  1  0  0  0  0
 10 17  1  0  0  0  0
 11 19  1  0  0  0  0
 12  5  1  0  0  0  0
 13  8  1  0  0  0  0
 14  8  1  0  0  0  0
 18 20  2  0  0  0  0
 18 22  1  0  0  0  0
 19 18  1  0  0  0  0
 21 18  2  0  0  0  0
 22 23  1  0  0  0  0
M  RAD  3   2   2   3   3   4   2
M  END
