Coordinates from ORCA-job 4-MeOPhN2+~HSO4-_B3LYPG-6-31G_dp-CH-Scan-d09-49-n800
 OpenBabel11261919063D

 23 22  0  0  0  0  0  0  0  0999 V2000
   -1.7709   -0.1045   -0.0927 C   0  0  0  0  0  0  0  0  0  0  0  0
   -3.1275   -0.3176   -0.0068 N   0  0  0  0  0  0  0  0  0  0  0  0
   -4.2377   -0.4587    0.0484 N   0  0  0  0  0  0  0  0  0  0  0  0
   -1.3883    1.2097   -0.4582 C   0  0  0  0  0  0  0  0  0  0  0  0
    0.0095    1.3185   -0.5232 C   0  0  0  0  0  0  0  0  0  0  0  0
    0.8940    0.2594   -0.2594 C   0  0  0  0  0  0  0  0  0  0  0  0
    2.2123    0.5405   -0.3708 O   0  0  0  0  0  0  0  0  0  0  0  0
    3.1762   -0.4787   -0.1273 C   0  0  0  0  0  0  0  0  0  0  0  0
    0.4114   -1.0297    0.1028 C   0  0  0  0  0  0  0  0  0  0  0  0
   -0.9469   -1.2260    0.1898 C   0  0  0  0  0  0  0  0  0  0  0  0
   -3.1744    3.2749   -0.8424 H   0  0  0  0  0  0  0  0  0  0  0  0
    0.4772    2.2650   -0.7928 H   0  0  0  0  0  0  0  0  0  0  0  0
    4.1486   -0.0116   -0.2873 H   0  0  0  0  0  0  0  0  0  0  0  0
    3.0600   -1.3175   -0.8237 H   0  0  0  0  0  0  0  0  0  0  0  0
    3.1197   -0.8487    0.9033 H   0  0  0  0  0  0  0  0  0  0  0  0
    1.0889   -1.8483    0.3091 H   0  0  0  0  0  0  0  0  0  0  0  0
   -1.3611   -2.1928    0.4640 H   0  0  0  0  0  0  0  0  0  0  0  0
   -4.9421    3.6746    0.2991 S   0  0  0  0  0  0  0  0  0  0  0  0
   -3.8600    3.9776   -0.8491 O   0  0  0  0  0  0  0  0  0  0  0  0
   -6.0283    4.6058    0.0733 O   0  0  0  0  0  0  0  0  0  0  0  0
   -5.1346    2.2450    0.4386 O   0  0  0  0  0  0  0  0  0  0  0  0
   -4.1486    4.1278    1.6492 O   0  0  0  0  0  0  0  0  0  0  0  0
   -4.2199    5.0948    1.7201 H   0  0  0  0  0  0  0  0  0  0  0  0
  1  2  1  0  0  0  0
  1 10  2  0  0  0  0
  2  3  1  0  0  0  0
  4  1  1  0  0  0  0
  5  4  2  0  0  0  0
  5  6  1  0  0  0  0
  6  9  2  0  0  0  0
  7  6  1  0  0  0  0
  7  8  1  0  0  0  0
  8 15  1  0  0  0  0
  9 10  1  0  0  0  0
  9 16  1  0  0  0  0
 10 17  1  0  0  0  0
 12  5  1  0  0  0  0
 13  8  1  0  0  0  0
 14  8  1  0  0  0  0
 18 21  2  0  0  0  0
 18 22  1  0  0  0  0
 19 11  1  0  0  0  0
 19 18  1  0  0  0  0
 20 18  2  0  0  0  0
 22 23  1  0  0  0  0
M  RAD  3   2   2   3   3   4   2
M  END
