Coordinates from ORCA-job 4-MeOPhN2+~HSO4-_B3LYPG-6-31G_dp-CH-Scan-d09-49-n800
 OpenBabel11261919053D

 23 22  0  0  0  0  0  0  0  0999 V2000
   -1.9543    0.3940   -0.2029 C   0  0  0  0  0  0  0  0  0  0  0  0
   -3.3275    0.3422   -0.1937 N   0  0  0  0  0  0  0  0  0  0  0  0
   -4.4474    0.2760   -0.2343 N   0  0  0  0  0  0  0  0  0  0  0  0
   -1.2908    1.6234   -0.4185 C   0  0  0  0  0  0  0  0  0  0  0  0
    0.0882    1.6018   -0.4454 C   0  0  0  0  0  0  0  0  0  0  0  0
    0.8048    0.4033   -0.2455 C   0  0  0  0  0  0  0  0  0  0  0  0
    2.1413    0.5167   -0.2824 O   0  0  0  0  0  0  0  0  0  0  0  0
    2.9539   -0.6406   -0.0790 C   0  0  0  0  0  0  0  0  0  0  0  0
    0.1188   -0.8106   -0.0284 C   0  0  0  0  0  0  0  0  0  0  0  0
   -1.2647   -0.8163   -0.0132 C   0  0  0  0  0  0  0  0  0  0  0  0
   -1.8003    2.4507   -0.5473 H   0  0  0  0  0  0  0  0  0  0  0  0
    0.6473    2.5158   -0.6107 H   0  0  0  0  0  0  0  0  0  0  0  0
    3.9837   -0.2910   -0.1473 H   0  0  0  0  0  0  0  0  0  0  0  0
    2.7711   -1.3935   -0.8537 H   0  0  0  0  0  0  0  0  0  0  0  0
    2.7813   -1.0757    0.9117 H   0  0  0  0  0  0  0  0  0  0  0  0
    0.6548   -1.7381    0.1258 H   0  0  0  0  0  0  0  0  0  0  0  0
   -1.8142   -1.7368    0.1505 H   0  0  0  0  0  0  0  0  0  0  0  0
   -4.2310    3.3144    0.3468 S   0  0  0  0  0  0  0  0  0  0  0  0
   -3.4886    3.9472   -0.7549 O   0  0  0  0  0  0  0  0  0  0  0  0
   -5.3847    2.4587   -0.0745 O   0  0  0  0  0  0  0  0  0  0  0  0
   -3.3725    2.6034    1.3331 O   0  0  0  0  0  0  0  0  0  0  0  0
   -4.8997    4.5947    1.1468 O   0  0  0  0  0  0  0  0  0  0  0  0
   -5.4119    4.2199    1.8808 H   0  0  0  0  0  0  0  0  0  0  0  0
  1  2  1  0  0  0  0
  1 10  2  0  0  0  0
  3  2  1  0  0  0  0
  4  1  1  0  0  0  0
  5  4  2  0  0  0  0
  5  6  1  0  0  0  0
  6  9  2  0  0  0  0
  7  6  1  0  0  0  0
  7  8  1  0  0  0  0
  8 15  1  0  0  0  0
  9 10  1  0  0  0  0
  9 16  1  0  0  0  0
 10 17  1  0  0  0  0
 11  4  1  0  0  0  0
 12  5  1  0  0  0  0
 13  8  1  0  0  0  0
 14  8  1  0  0  0  0
 18 22  1  0  0  0  0
 18 21  1  0  0  0  0
 19 18  2  0  0  0  0
 20 18  2  0  0  0  0
 22 23  1  0  0  0  0
M  RAD  3   2   2   3   3  21   2
M  END
