Coordinates from ORCA-job 4-MeOPhN2+~HSO4-_B3LYPG-6-31G_dp-CH-Scan-d09-49-n800
 OpenBabel11261919063D

 23 22  0  0  0  0  0  0  0  0999 V2000
   -1.7528   -0.1079   -0.0952 C   0  0  0  0  0  0  0  0  0  0  0  0
   -3.1106   -0.3144   -0.0088 N   0  0  0  0  0  0  0  0  0  0  0  0
   -4.2216   -0.4489    0.0489 N   0  0  0  0  0  0  0  0  0  0  0  0
   -1.3671    1.2032   -0.4686 C   0  0  0  0  0  0  0  0  0  0  0  0
    0.0316    1.3060   -0.5338 C   0  0  0  0  0  0  0  0  0  0  0  0
    0.9123    0.2456   -0.2635 C   0  0  0  0  0  0  0  0  0  0  0  0
    2.2320    0.5214   -0.3760 O   0  0  0  0  0  0  0  0  0  0  0  0
    3.1920   -0.4998   -0.1260 C   0  0  0  0  0  0  0  0  0  0  0  0
    0.4254   -1.0399    0.1063 C   0  0  0  0  0  0  0  0  0  0  0  0
   -0.9334   -1.2312    0.1943 C   0  0  0  0  0  0  0  0  0  0  0  0
   -3.2201    3.3353   -0.8649 H   0  0  0  0  0  0  0  0  0  0  0  0
    0.5031    2.2492   -0.8088 H   0  0  0  0  0  0  0  0  0  0  0  0
    4.1662   -0.0372   -0.2882 H   0  0  0  0  0  0  0  0  0  0  0  0
    3.0732   -1.3423   -0.8174 H   0  0  0  0  0  0  0  0  0  0  0  0
    3.1337   -0.8636    0.9067 H   0  0  0  0  0  0  0  0  0  0  0  0
    1.1004   -1.8594    0.3174 H   0  0  0  0  0  0  0  0  0  0  0  0
   -1.3511   -2.1950    0.4740 H   0  0  0  0  0  0  0  0  0  0  0  0
   -4.9780    3.6930    0.3047 S   0  0  0  0  0  0  0  0  0  0  0  0
   -3.9128    4.0285   -0.8526 O   0  0  0  0  0  0  0  0  0  0  0  0
   -6.0800    4.6106    0.1020 O   0  0  0  0  0  0  0  0  0  0  0  0
   -5.1455    2.2590    0.4260 O   0  0  0  0  0  0  0  0  0  0  0  0
   -4.1756    4.1415    1.6505 O   0  0  0  0  0  0  0  0  0  0  0  0
   -4.2636    5.1059    1.7368 H   0  0  0  0  0  0  0  0  0  0  0  0
  1  2  1  0  0  0  0
  1 10  2  0  0  0  0
  2  3  1  0  0  0  0
  4  1  1  0  0  0  0
  5  4  2  0  0  0  0
  5  6  1  0  0  0  0
  6  9  2  0  0  0  0
  7  6  1  0  0  0  0
  7  8  1  0  0  0  0
  8 15  1  0  0  0  0
  9 10  1  0  0  0  0
  9 16  1  0  0  0  0
 10 17  1  0  0  0  0
 11 19  1  0  0  0  0
 12  5  1  0  0  0  0
 13  8  1  0  0  0  0
 14  8  1  0  0  0  0
 18 21  2  0  0  0  0
 18 22  1  0  0  0  0
 19 18  1  0  0  0  0
 20 18  2  0  0  0  0
 22 23  1  0  0  0  0
M  RAD  3   2   2   3   3   4   2
M  END
