Coordinates from ORCA-job 4-MeOPhN2+~HSO4-_B3LYPG-6-31G_dp-CH-Scan-d09-49-n800
 OpenBabel11261919063D

 23 22  0  0  0  0  0  0  0  0999 V2000
   -1.4230   -0.1203   -0.1927 C   0  0  0  0  0  0  0  0  0  0  0  0
   -2.7980   -0.1873   -0.1028 N   0  0  0  0  0  0  0  0  0  0  0  0
   -3.9191   -0.1912   -0.0570 N   0  0  0  0  0  0  0  0  0  0  0  0
   -0.9479    1.0918   -0.7468 C   0  0  0  0  0  0  0  0  0  0  0  0
    0.4595    1.0675   -0.8053 C   0  0  0  0  0  0  0  0  0  0  0  0
    1.2510   -0.0066   -0.3709 C   0  0  0  0  0  0  0  0  0  0  0  0
    2.5924    0.1442   -0.5001 O   0  0  0  0  0  0  0  0  0  0  0  0
    3.4642   -0.8993   -0.0826 C   0  0  0  0  0  0  0  0  0  0  0  0
    0.6640   -1.1852    0.1747 C   0  0  0  0  0  0  0  0  0  0  0  0
   -0.7058   -1.2558    0.2706 C   0  0  0  0  0  0  0  0  0  0  0  0
   -4.0497    4.3041   -1.0296 H   0  0  0  0  0  0  0  0  0  0  0  0
    1.0088    1.9205   -1.2067 H   0  0  0  0  0  0  0  0  0  0  0  0
    4.4747   -0.5420   -0.2864 H   0  0  0  0  0  0  0  0  0  0  0  0
    3.2900   -1.8228   -0.6477 H   0  0  0  0  0  0  0  0  0  0  0  0
    3.3651   -1.1049    0.9902 H   0  0  0  0  0  0  0  0  0  0  0  0
    1.2728   -2.0147    0.5109 H   0  0  0  0  0  0  0  0  0  0  0  0
   -1.2010   -2.1339    0.6787 H   0  0  0  0  0  0  0  0  0  0  0  0
   -5.5919    3.9849    0.4208 S   0  0  0  0  0  0  0  0  0  0  0  0
   -4.8476    4.7969   -0.7701 O   0  0  0  0  0  0  0  0  0  0  0  0
   -6.9242    4.5439    0.4961 O   0  0  0  0  0  0  0  0  0  0  0  0
   -5.3070    2.5734    0.2811 O   0  0  0  0  0  0  0  0  0  0  0  0
   -4.7525    4.4709    1.7264 O   0  0  0  0  0  0  0  0  0  0  0  0
   -5.1173    5.3257    2.0131 H   0  0  0  0  0  0  0  0  0  0  0  0
  1  2  1  0  0  0  0
  1 10  2  0  0  0  0
  2  3  1  0  0  0  0
  4  1  1  0  0  0  0
  5  4  2  0  0  0  0
  5  6  1  0  0  0  0
  6  9  2  0  0  0  0
  7  6  1  0  0  0  0
  7  8  1  0  0  0  0
  8 15  1  0  0  0  0
  9 10  1  0  0  0  0
  9 16  1  0  0  0  0
 10 17  1  0  0  0  0
 11 19  1  0  0  0  0
 12  5  1  0  0  0  0
 13  8  1  0  0  0  0
 14  8  1  0  0  0  0
 18 20  2  0  0  0  0
 18 22  1  0  0  0  0
 19 18  1  0  0  0  0
 21 18  2  0  0  0  0
 22 23  1  0  0  0  0
M  RAD  3   2   2   3   3   4   2
M  END
