Coordinates from ORCA-job 4-MeOPhN2+~HSO4-_B3LYPG-6-31G_dp-CH-Scan-d09-49-n800
 OpenBabel11261919063D

 23 22  0  0  0  0  0  0  0  0999 V2000
   -1.5503   -0.1222   -0.1301 C   0  0  0  0  0  0  0  0  0  0  0  0
   -2.9204   -0.2472   -0.0360 N   0  0  0  0  0  0  0  0  0  0  0  0
   -4.0393   -0.3036    0.0186 N   0  0  0  0  0  0  0  0  0  0  0  0
   -1.1169    1.1410   -0.5993 C   0  0  0  0  0  0  0  0  0  0  0  0
    0.2894    1.1672   -0.6670 C   0  0  0  0  0  0  0  0  0  0  0  0
    1.1191    0.0911   -0.3157 C   0  0  0  0  0  0  0  0  0  0  0  0
    2.4532    0.2944   -0.4433 O   0  0  0  0  0  0  0  0  0  0  0  0
    3.3615   -0.7486   -0.1105 C   0  0  0  0  0  0  0  0  0  0  0  0
    0.5748   -1.1412    0.1483 C   0  0  0  0  0  0  0  0  0  0  0  0
   -0.7912   -1.2625    0.2468 C   0  0  0  0  0  0  0  0  0  0  0  0
   -3.7439    4.0217   -1.0426 H   0  0  0  0  0  0  0  0  0  0  0  0
    0.8075    2.0638   -1.0099 H   0  0  0  0  0  0  0  0  0  0  0  0
    4.3581   -0.3464   -0.2979 H   0  0  0  0  0  0  0  0  0  0  0  0
    3.2080   -1.6343   -0.7384 H   0  0  0  0  0  0  0  0  0  0  0  0
    3.2816   -1.0330    0.9458 H   0  0  0  0  0  0  0  0  0  0  0  0
    1.2124   -1.9723    0.4213 H   0  0  0  0  0  0  0  0  0  0  0  0
   -1.2544   -2.1825    0.5956 H   0  0  0  0  0  0  0  0  0  0  0  0
   -5.3537    3.8704    0.3630 S   0  0  0  0  0  0  0  0  0  0  0  0
   -4.5221    4.5695   -0.8386 O   0  0  0  0  0  0  0  0  0  0  0  0
   -6.6329    4.5463    0.3890 O   0  0  0  0  0  0  0  0  0  0  0  0
   -5.1974    2.4341    0.2843 O   0  0  0  0  0  0  0  0  0  0  0  0
   -4.4990    4.3288    1.6691 O   0  0  0  0  0  0  0  0  0  0  0  0
   -4.7865    5.2256    1.9115 H   0  0  0  0  0  0  0  0  0  0  0  0
  1  2  1  0  0  0  0
  1 10  2  0  0  0  0
  2  3  1  0  0  0  0
  4  1  1  0  0  0  0
  5  4  2  0  0  0  0
  5  6  1  0  0  0  0
  6  9  2  0  0  0  0
  7  6  1  0  0  0  0
  7  8  1  0  0  0  0
  8 15  1  0  0  0  0
  9 10  1  0  0  0  0
  9 16  1  0  0  0  0
 10 17  1  0  0  0  0
 11 19  1  0  0  0  0
 12  5  1  0  0  0  0
 13  8  1  0  0  0  0
 14  8  1  0  0  0  0
 18 20  2  0  0  0  0
 18 22  1  0  0  0  0
 19 18  1  0  0  0  0
 21 18  2  0  0  0  0
 22 23  1  0  0  0  0
M  RAD  3   2   2   3   3   4   2
M  END
