Coordinates from ORCA-job 4-MeOPhN2+~HSO4-_B3LYPG-6-31G_dp-CH-Scan-d09-49-n800
 OpenBabel11261919063D

 23 22  0  0  0  0  0  0  0  0999 V2000
   -1.3435   -0.0991   -0.2575 C   0  0  0  0  0  0  0  0  0  0  0  0
   -2.7210   -0.1220   -0.1801 N   0  0  0  0  0  0  0  0  0  0  0  0
   -3.8422   -0.0884   -0.1501 N   0  0  0  0  0  0  0  0  0  0  0  0
   -0.8319    1.0623   -0.8821 C   0  0  0  0  0  0  0  0  0  0  0  0
    0.5749    0.9976   -0.9243 C   0  0  0  0  0  0  0  0  0  0  0  0
    1.3332   -0.0671   -0.4143 C   0  0  0  0  0  0  0  0  0  0  0  0
    2.6794    0.0392   -0.5396 O   0  0  0  0  0  0  0  0  0  0  0  0
    3.5191   -0.9964   -0.0446 C   0  0  0  0  0  0  0  0  0  0  0  0
    0.7101   -1.1925    0.1996 C   0  0  0  0  0  0  0  0  0  0  0  0
   -0.6620   -1.2211    0.2853 C   0  0  0  0  0  0  0  0  0  0  0  0
   -4.2587    4.4704   -1.0177 H   0  0  0  0  0  0  0  0  0  0  0  0
    1.1504    1.8085   -1.3733 H   0  0  0  0  0  0  0  0  0  0  0  0
    4.5403   -0.6826   -0.2660 H   0  0  0  0  0  0  0  0  0  0  0  0
    3.3216   -1.9522   -0.5449 H   0  0  0  0  0  0  0  0  0  0  0  0
    3.4087   -1.1240    1.0392 H   0  0  0  0  0  0  0  0  0  0  0  0
    1.2935   -2.0145    0.5941 H   0  0  0  0  0  0  0  0  0  0  0  0
   -1.1844   -2.0583    0.7428 H   0  0  0  0  0  0  0  0  0  0  0  0
   -5.7310    4.0334    0.4727 S   0  0  0  0  0  0  0  0  0  0  0  0
   -5.0687    4.9173   -0.7163 O   0  0  0  0  0  0  0  0  0  0  0  0
   -7.0904    4.5118    0.6002 O   0  0  0  0  0  0  0  0  0  0  0  0
   -5.3686    2.6453    0.2858 O   0  0  0  0  0  0  0  0  0  0  0  0
   -4.8829    4.5344    1.7668 O   0  0  0  0  0  0  0  0  0  0  0  0
   -5.2887    5.3577    2.0881 H   0  0  0  0  0  0  0  0  0  0  0  0
  1  2  1  0  0  0  0
  1 10  2  0  0  0  0
  2  3  1  0  0  0  0
  4  1  1  0  0  0  0
  5  4  2  0  0  0  0
  5  6  1  0  0  0  0
  6  9  2  0  0  0  0
  7  6  1  0  0  0  0
  7  8  1  0  0  0  0
  8 15  1  0  0  0  0
  9 10  1  0  0  0  0
  9 16  1  0  0  0  0
 10 17  1  0  0  0  0
 11 19  1  0  0  0  0
 12  5  1  0  0  0  0
 13  8  1  0  0  0  0
 14  8  1  0  0  0  0
 18 20  2  0  0  0  0
 18 22  1  0  0  0  0
 19 18  1  0  0  0  0
 21 18  2  0  0  0  0
 22 23  1  0  0  0  0
M  RAD  3   2   2   3   3   4   2
M  END
