Coordinates from ORCA-job 4-MeOPhN2+~HSO4-_B3LYPG-6-31G_dp-CH-Scan-d09-49-n800
 OpenBabel11261919063D

 23 22  0  0  0  0  0  0  0  0999 V2000
   -1.7644   -0.1060   -0.0940 C   0  0  0  0  0  0  0  0  0  0  0  0
   -3.1214   -0.3167   -0.0082 N   0  0  0  0  0  0  0  0  0  0  0  0
   -4.2318   -0.4554    0.0494 N   0  0  0  0  0  0  0  0  0  0  0  0
   -1.3807    1.2072   -0.4624 C   0  0  0  0  0  0  0  0  0  0  0  0
    0.0175    1.3139   -0.5272 C   0  0  0  0  0  0  0  0  0  0  0  0
    0.9006    0.2544   -0.2609 C   0  0  0  0  0  0  0  0  0  0  0  0
    2.2194    0.5336   -0.3725 O   0  0  0  0  0  0  0  0  0  0  0  0
    3.1819   -0.4862   -0.1265 C   0  0  0  0  0  0  0  0  0  0  0  0
    0.4165   -1.0335    0.1040 C   0  0  0  0  0  0  0  0  0  0  0  0
   -0.9420   -1.2281    0.1911 C   0  0  0  0  0  0  0  0  0  0  0  0
   -3.1915    3.2969   -0.8512 H   0  0  0  0  0  0  0  0  0  0  0  0
    0.4865    2.2592   -0.7987 H   0  0  0  0  0  0  0  0  0  0  0  0
    4.1550   -0.0207   -0.2871 H   0  0  0  0  0  0  0  0  0  0  0  0
    3.0650   -1.3264   -0.8211 H   0  0  0  0  0  0  0  0  0  0  0  0
    3.1247   -0.8540    0.9049 H   0  0  0  0  0  0  0  0  0  0  0  0
    1.0932   -1.8524    0.3120 H   0  0  0  0  0  0  0  0  0  0  0  0
   -1.3574   -2.1939    0.4672 H   0  0  0  0  0  0  0  0  0  0  0  0
   -4.9552    3.6815    0.3015 S   0  0  0  0  0  0  0  0  0  0  0  0
   -3.8797    3.9961   -0.8507 O   0  0  0  0  0  0  0  0  0  0  0  0
   -6.0473    4.6078    0.0845 O   0  0  0  0  0  0  0  0  0  0  0  0
   -5.1386    2.2502    0.4344 O   0  0  0  0  0  0  0  0  0  0  0  0
   -4.1577    4.1330    1.6495 O   0  0  0  0  0  0  0  0  0  0  0  0
   -4.2351    5.0991    1.7260 H   0  0  0  0  0  0  0  0  0  0  0  0
  1  2  1  0  0  0  0
  1 10  2  0  0  0  0
  2  3  1  0  0  0  0
  4  1  1  0  0  0  0
  5  4  2  0  0  0  0
  5  6  1  0  0  0  0
  6  9  2  0  0  0  0
  7  6  1  0  0  0  0
  7  8  1  0  0  0  0
  8 15  1  0  0  0  0
  9 10  1  0  0  0  0
  9 16  1  0  0  0  0
 10 17  1  0  0  0  0
 11 19  1  0  0  0  0
 12  5  1  0  0  0  0
 13  8  1  0  0  0  0
 14  8  1  0  0  0  0
 18 21  2  0  0  0  0
 18 22  1  0  0  0  0
 19 18  1  0  0  0  0
 20 18  2  0  0  0  0
 22 23  1  0  0  0  0
M  RAD  3   2   2   3   3   4   2
M  END
