Coordinates from ORCA-job 4-MeOPhN2+~HSO4-_B3LYPG-6-31G_dp-CH-Scan-d09-49-n800
 OpenBabel11261919063D

 23 22  0  0  0  0  0  0  0  0999 V2000
   -1.3459   -0.1011   -0.2532 C   0  0  0  0  0  0  0  0  0  0  0  0
   -2.7232   -0.1260   -0.1744 N   0  0  0  0  0  0  0  0  0  0  0  0
   -3.8445   -0.0945   -0.1422 N   0  0  0  0  0  0  0  0  0  0  0  0
   -0.8362    1.0632   -0.8741 C   0  0  0  0  0  0  0  0  0  0  0  0
    0.5706    1.0004   -0.9178 C   0  0  0  0  0  0  0  0  0  0  0  0
    1.3307   -0.0652   -0.4123 C   0  0  0  0  0  0  0  0  0  0  0  0
    2.6766    0.0433   -0.5383 O   0  0  0  0  0  0  0  0  0  0  0  0
    3.5181   -0.9931   -0.0480 C   0  0  0  0  0  0  0  0  0  0  0  0
    0.7095   -1.1936    0.1980 C   0  0  0  0  0  0  0  0  0  0  0  0
   -0.6624   -1.2242    0.2849 C   0  0  0  0  0  0  0  0  0  0  0  0
   -4.2484    4.4644   -1.0161 H   0  0  0  0  0  0  0  0  0  0  0  0
    1.1447    1.8137   -1.3644 H   0  0  0  0  0  0  0  0  0  0  0  0
    4.5387   -0.6771   -0.2687 H   0  0  0  0  0  0  0  0  0  0  0  0
    3.3216   -1.9472   -0.5519 H   0  0  0  0  0  0  0  0  0  0  0  0
    3.4085   -1.1252    1.0354 H   0  0  0  0  0  0  0  0  0  0  0  0
    1.2943   -2.0163    0.5891 H   0  0  0  0  0  0  0  0  0  0  0  0
   -1.1834   -2.0636    0.7398 H   0  0  0  0  0  0  0  0  0  0  0  0
   -5.7279    4.0339    0.4692 S   0  0  0  0  0  0  0  0  0  0  0  0
   -5.0582    4.9141   -0.7183 O   0  0  0  0  0  0  0  0  0  0  0  0
   -7.0861    4.5172    0.5911 O   0  0  0  0  0  0  0  0  0  0  0  0
   -5.3697    2.6443    0.2855 O   0  0  0  0  0  0  0  0  0  0  0  0
   -4.8829    4.5336    1.7659 O   0  0  0  0  0  0  0  0  0  0  0  0
   -5.2870    5.3587    2.0846 H   0  0  0  0  0  0  0  0  0  0  0  0
  1  2  1  0  0  0  0
  1 10  2  0  0  0  0
  2  3  1  0  0  0  0
  4  1  1  0  0  0  0
  5  4  2  0  0  0  0
  5  6  1  0  0  0  0
  6  9  2  0  0  0  0
  7  6  1  0  0  0  0
  7  8  1  0  0  0  0
  8 15  1  0  0  0  0
  9 10  1  0  0  0  0
  9 16  1  0  0  0  0
 10 17  1  0  0  0  0
 11 19  1  0  0  0  0
 12  5  1  0  0  0  0
 13  8  1  0  0  0  0
 14  8  1  0  0  0  0
 18 20  2  0  0  0  0
 18 22  1  0  0  0  0
 19 18  1  0  0  0  0
 21 18  2  0  0  0  0
 22 23  1  0  0  0  0
M  RAD  3   2   2   3   3   4   2
M  END
