Coordinates from ORCA-job 4-MeOPhN2+~HSO4-_B3LYPG-6-31G_dp-CH-Scan-d09-49-n800
 OpenBabel11261919063D

 23 22  0  0  0  0  0  0  0  0999 V2000
   -1.6953   -0.1136   -0.0978 C   0  0  0  0  0  0  0  0  0  0  0  0
   -3.0567   -0.2987   -0.0065 N   0  0  0  0  0  0  0  0  0  0  0  0
   -4.1705   -0.4120    0.0507 N   0  0  0  0  0  0  0  0  0  0  0  0
   -1.2987    1.1866   -0.4961 C   0  0  0  0  0  0  0  0  0  0  0  0
    0.1027    1.2685   -0.5646 C   0  0  0  0  0  0  0  0  0  0  0  0
    0.9703    0.2027   -0.2760 C   0  0  0  0  0  0  0  0  0  0  0  0
    2.2943    0.4592   -0.3953 O   0  0  0  0  0  0  0  0  0  0  0  0
    3.2407   -0.5694   -0.1270 C   0  0  0  0  0  0  0  0  0  0  0  0
    0.4690   -1.0704    0.1185 C   0  0  0  0  0  0  0  0  0  0  0  0
   -0.8919   -1.2433    0.2120 C   0  0  0  0  0  0  0  0  0  0  0  0
   -3.3568    3.5295   -0.9249 H   0  0  0  0  0  0  0  0  0  0  0  0
    0.5868    2.2003   -0.8573 H   0  0  0  0  0  0  0  0  0  0  0  0
    4.2210   -0.1231   -0.2983 H   0  0  0  0  0  0  0  0  0  0  0  0
    3.1108   -1.4233   -0.8025 H   0  0  0  0  0  0  0  0  0  0  0  0
    3.1788   -0.9137    0.9123 H   0  0  0  0  0  0  0  0  0  0  0  0
    1.1346   -1.8938    0.3437 H   0  0  0  0  0  0  0  0  0  0  0  0
   -1.3214   -2.1965    0.5101 H   0  0  0  0  0  0  0  0  0  0  0  0
   -5.0882    3.7467    0.3165 S   0  0  0  0  0  0  0  0  0  0  0  0
   -4.0725    4.1901   -0.8552 O   0  0  0  0  0  0  0  0  0  0  0  0
   -6.2412    4.6114    0.1791 O   0  0  0  0  0  0  0  0  0  0  0  0
   -5.1707    2.3024    0.3753 O   0  0  0  0  0  0  0  0  0  0  0  0
   -4.2720    4.1839    1.6562 O   0  0  0  0  0  0  0  0  0  0  0  0
   -4.4156    5.1360    1.7910 H   0  0  0  0  0  0  0  0  0  0  0  0
  1  2  1  0  0  0  0
  1 10  2  0  0  0  0
  2  3  1  0  0  0  0
  4  1  1  0  0  0  0
  5  4  2  0  0  0  0
  5  6  1  0  0  0  0
  6  9  2  0  0  0  0
  7  6  1  0  0  0  0
  7  8  1  0  0  0  0
  8 15  1  0  0  0  0
  9 10  1  0  0  0  0
  9 16  1  0  0  0  0
 10 17  1  0  0  0  0
 11 19  1  0  0  0  0
 12  5  1  0  0  0  0
 13  8  1  0  0  0  0
 14  8  1  0  0  0  0
 18 21  2  0  0  0  0
 18 22  1  0  0  0  0
 19 18  1  0  0  0  0
 20 18  2  0  0  0  0
 22 23  1  0  0  0  0
M  RAD  3   2   2   3   3   4   2
M  END
