Coordinates from ORCA-job 4-MeOPhN2+~HSO4-_B3LYPG-6-31G_dp-CH-Scan-d09-49-n800
 OpenBabel11261919063D

 23 22  0  0  0  0  0  0  0  0999 V2000
   -1.7880   -0.1006   -0.0898 C   0  0  0  0  0  0  0  0  0  0  0  0
   -3.1433   -0.3198   -0.0048 N   0  0  0  0  0  0  0  0  0  0  0  0
   -4.2526   -0.4672    0.0504 N   0  0  0  0  0  0  0  0  0  0  0  0
   -1.4079    1.2167   -0.4472 C   0  0  0  0  0  0  0  0  0  0  0  0
   -0.0109    1.3306   -0.5122 C   0  0  0  0  0  0  0  0  0  0  0  0
    0.8768    0.2725   -0.2553 C   0  0  0  0  0  0  0  0  0  0  0  0
    2.1939    0.5584   -0.3655 O   0  0  0  0  0  0  0  0  0  0  0  0
    3.1613   -0.4593   -0.1290 C   0  0  0  0  0  0  0  0  0  0  0  0
    0.3980   -1.0199    0.0992 C   0  0  0  0  0  0  0  0  0  0  0  0
   -0.9597   -1.2207    0.1853 C   0  0  0  0  0  0  0  0  0  0  0  0
   -3.1312    3.2180   -0.8205 H   0  0  0  0  0  0  0  0  0  0  0  0
    0.4533    2.2803   -0.7761 H   0  0  0  0  0  0  0  0  0  0  0  0
    4.1320    0.0119   -0.2869 H   0  0  0  0  0  0  0  0  0  0  0  0
    3.0471   -1.2941   -0.8306 H   0  0  0  0  0  0  0  0  0  0  0  0
    3.1067   -0.8357    0.8993 H   0  0  0  0  0  0  0  0  0  0  0  0
    1.0779   -1.8379    0.3003 H   0  0  0  0  0  0  0  0  0  0  0  0
   -1.3708   -2.1904    0.4537 H   0  0  0  0  0  0  0  0  0  0  0  0
   -4.9081    3.6567    0.2932 S   0  0  0  0  0  0  0  0  0  0  0  0
   -3.8104    3.9291   -0.8453 O   0  0  0  0  0  0  0  0  0  0  0  0
   -5.9796    4.5995    0.0450 O   0  0  0  0  0  0  0  0  0  0  0  0
   -5.1235    2.2319    0.4498 O   0  0  0  0  0  0  0  0  0  0  0  0
   -4.1238    4.1155    1.6474 O   0  0  0  0  0  0  0  0  0  0  0  0
   -4.1796    5.0844    1.7034 H   0  0  0  0  0  0  0  0  0  0  0  0
  1  2  1  0  0  0  0
  1 10  2  0  0  0  0
  2  3  1  0  0  0  0
  4  1  1  0  0  0  0
  5  4  2  0  0  0  0
  5  6  1  0  0  0  0
  6  9  2  0  0  0  0
  7  6  1  0  0  0  0
  7  8  1  0  0  0  0
  8 15  1  0  0  0  0
  9 10  1  0  0  0  0
  9 16  1  0  0  0  0
 10 17  1  0  0  0  0
 12  5  1  0  0  0  0
 13  8  1  0  0  0  0
 14  8  1  0  0  0  0
 18 21  2  0  0  0  0
 18 22  1  0  0  0  0
 19 11  1  0  0  0  0
 19 18  1  0  0  0  0
 20 18  2  0  0  0  0
 22 23  1  0  0  0  0
M  RAD  3   2   2   3   3   4   2
M  END
