Coordinates from ORCA-job 4-MeOPhN2+~HSO4-_B3LYPG-6-31G_dp-CH-Scan-d09-49-n800
 OpenBabel11261919063D

 23 22  0  0  0  0  0  0  0  0999 V2000
   -1.4629   -0.1238   -0.1725 C   0  0  0  0  0  0  0  0  0  0  0  0
   -2.8367   -0.2103   -0.0811 N   0  0  0  0  0  0  0  0  0  0  0  0
   -3.9573   -0.2320   -0.0324 N   0  0  0  0  0  0  0  0  0  0  0  0
   -1.0018    1.1059   -0.6992 C   0  0  0  0  0  0  0  0  0  0  0  0
    0.4055    1.0984   -0.7607 C   0  0  0  0  0  0  0  0  0  0  0  0
    1.2098    0.0232   -0.3530 C   0  0  0  0  0  0  0  0  0  0  0  0
    2.5491    0.1918   -0.4814 O   0  0  0  0  0  0  0  0  0  0  0  0
    3.4330   -0.8520   -0.0911 C   0  0  0  0  0  0  0  0  0  0  0  0
    0.6369   -1.1739    0.1662 C   0  0  0  0  0  0  0  0  0  0  0  0
   -0.7318   -1.2615    0.2630 C   0  0  0  0  0  0  0  0  0  0  0  0
   -3.9597    4.2279   -1.0409 H   0  0  0  0  0  0  0  0  0  0  0  0
    0.9446    1.9664   -1.1433 H   0  0  0  0  0  0  0  0  0  0  0  0
    4.4391   -0.4791   -0.2885 H   0  0  0  0  0  0  0  0  0  0  0  0
    3.2672   -1.7635   -0.6777 H   0  0  0  0  0  0  0  0  0  0  0  0
    3.3388   -1.0842    0.9767 H   0  0  0  0  0  0  0  0  0  0  0  0
    1.2554   -2.0044    0.4819 H   0  0  0  0  0  0  0  0  0  0  0  0
   -1.2165   -2.1541    0.6518 H   0  0  0  0  0  0  0  0  0  0  0  0
   -5.5166    3.9505    0.4033 S   0  0  0  0  0  0  0  0  0  0  0  0
   -4.7531    4.7342   -0.7936 O   0  0  0  0  0  0  0  0  0  0  0  0
   -6.8369    4.5388    0.4689 O   0  0  0  0  0  0  0  0  0  0  0  0
   -5.2631    2.5315    0.2800 O   0  0  0  0  0  0  0  0  0  0  0  0
   -4.6702    4.4316    1.7062 O   0  0  0  0  0  0  0  0  0  0  0  0
   -5.0153    5.2982    1.9813 H   0  0  0  0  0  0  0  0  0  0  0  0
  1  2  1  0  0  0  0
  1 10  2  0  0  0  0
  2  3  1  0  0  0  0
  4  1  1  0  0  0  0
  5  4  2  0  0  0  0
  5  6  1  0  0  0  0
  6  9  2  0  0  0  0
  7  6  1  0  0  0  0
  7  8  1  0  0  0  0
  8 15  1  0  0  0  0
  9 10  1  0  0  0  0
  9 16  1  0  0  0  0
 10 17  1  0  0  0  0
 11 19  1  0  0  0  0
 12  5  1  0  0  0  0
 13  8  1  0  0  0  0
 14  8  1  0  0  0  0
 18 20  2  0  0  0  0
 18 22  1  0  0  0  0
 19 18  1  0  0  0  0
 21 18  2  0  0  0  0
 22 23  1  0  0  0  0
M  RAD  3   2   2   3   3   4   2
M  END
