Coordinates from ORCA-job 4-MeOPhN2+~HSO4-_B3LYPG-6-31G_dp-CH-Scan-d09-49-n800
 OpenBabel11261919063D

 23 22  0  0  0  0  0  0  0  0999 V2000
   -1.8422   -0.0852   -0.0679 C   0  0  0  0  0  0  0  0  0  0  0  0
   -3.1932   -0.3235    0.0184 N   0  0  0  0  0  0  0  0  0  0  0  0
   -4.2989   -0.4907    0.0807 N   0  0  0  0  0  0  0  0  0  0  0  0
   -1.4698    1.2438   -0.3905 C   0  0  0  0  0  0  0  0  0  0  0  0
   -0.0759    1.3731   -0.4597 C   0  0  0  0  0  0  0  0  0  0  0  0
    0.8225    0.3155   -0.2372 C   0  0  0  0  0  0  0  0  0  0  0  0
    2.1351    0.6160   -0.3476 O   0  0  0  0  0  0  0  0  0  0  0  0
    3.1134   -0.3998   -0.1478 C   0  0  0  0  0  0  0  0  0  0  0  0
    0.3554   -0.9891    0.0839 C   0  0  0  0  0  0  0  0  0  0  0  0
   -1.0003   -1.2029    0.1713 C   0  0  0  0  0  0  0  0  0  0  0  0
   -2.9749    3.0199   -0.7241 H   0  0  0  0  0  0  0  0  0  0  0  0
    0.3770    2.3340   -0.7000 H   0  0  0  0  0  0  0  0  0  0  0  0
    4.0784    0.0847   -0.2992 H   0  0  0  0  0  0  0  0  0  0  0  0
    3.0004   -1.2146   -0.8726 H   0  0  0  0  0  0  0  0  0  0  0  0
    3.0696   -0.8057    0.8697 H   0  0  0  0  0  0  0  0  0  0  0  0
    1.0422   -1.8072    0.2589 H   0  0  0  0  0  0  0  0  0  0  0  0
   -1.4017   -2.1829    0.4153 H   0  0  0  0  0  0  0  0  0  0  0  0
   -4.7948    3.5996    0.2582 S   0  0  0  0  0  0  0  0  0  0  0  0
   -3.6257    3.7660   -0.8164 O   0  0  0  0  0  0  0  0  0  0  0  0
   -5.8090    4.5755   -0.0879 O   0  0  0  0  0  0  0  0  0  0  0  0
   -5.0925    2.1949    0.4681 O   0  0  0  0  0  0  0  0  0  0  0  0
   -4.0742    4.0831    1.6416 O   0  0  0  0  0  0  0  0  0  0  0  0
   -4.0834    5.0550    1.6485 H   0  0  0  0  0  0  0  0  0  0  0  0
  1  2  1  0  0  0  0
  1 10  2  0  0  0  0
  2  3  1  0  0  0  0
  4  1  1  0  0  0  0
  5  4  2  0  0  0  0
  5  6  1  0  0  0  0
  6  9  2  0  0  0  0
  7  6  1  0  0  0  0
  7  8  1  0  0  0  0
  8 15  1  0  0  0  0
  9 10  1  0  0  0  0
  9 16  1  0  0  0  0
 10 17  1  0  0  0  0
 12  5  1  0  0  0  0
 13  8  1  0  0  0  0
 14  8  1  0  0  0  0
 18 21  2  0  0  0  0
 18 22  1  0  0  0  0
 19 11  1  0  0  0  0
 19 18  1  0  0  0  0
 20 18  2  0  0  0  0
 22 23  1  0  0  0  0
M  RAD  3   2   2   3   3   4   2
M  END
