Coordinates from ORCA-job 4-MeOPhN2+~HSO4-_B3LYPG-6-31G_dp-CH-Scan-d09-49-n800
 OpenBabel11261919063D

 23 22  0  0  0  0  0  0  0  0999 V2000
   -1.6944   -0.1135   -0.0980 C   0  0  0  0  0  0  0  0  0  0  0  0
   -3.0560   -0.2980   -0.0070 N   0  0  0  0  0  0  0  0  0  0  0  0
   -4.1696   -0.4113    0.0523 N   0  0  0  0  0  0  0  0  0  0  0  0
   -1.2974    1.1865   -0.4964 C   0  0  0  0  0  0  0  0  0  0  0  0
    0.1040    1.2680   -0.5648 C   0  0  0  0  0  0  0  0  0  0  0  0
    0.9713    0.2021   -0.2761 C   0  0  0  0  0  0  0  0  0  0  0  0
    2.2954    0.4582   -0.3954 O   0  0  0  0  0  0  0  0  0  0  0  0
    3.2415   -0.5707   -0.1270 C   0  0  0  0  0  0  0  0  0  0  0  0
    0.4696   -1.0708    0.1185 C   0  0  0  0  0  0  0  0  0  0  0  0
   -0.8913   -1.2433    0.2120 C   0  0  0  0  0  0  0  0  0  0  0  0
   -3.3593    3.5327   -0.9260 H   0  0  0  0  0  0  0  0  0  0  0  0
    0.5884    2.1997   -0.8578 H   0  0  0  0  0  0  0  0  0  0  0  0
    4.2220   -0.1246   -0.2983 H   0  0  0  0  0  0  0  0  0  0  0  0
    3.1113   -1.4245   -0.8023 H   0  0  0  0  0  0  0  0  0  0  0  0
    3.1795   -0.9148    0.9124 H   0  0  0  0  0  0  0  0  0  0  0  0
    1.1350   -1.8944    0.3438 H   0  0  0  0  0  0  0  0  0  0  0  0
   -1.3212   -2.1964    0.5100 H   0  0  0  0  0  0  0  0  0  0  0  0
   -5.0899    3.7473    0.3166 S   0  0  0  0  0  0  0  0  0  0  0  0
   -4.0754    4.1926   -0.8555 O   0  0  0  0  0  0  0  0  0  0  0  0
   -6.2438    4.6109    0.1802 O   0  0  0  0  0  0  0  0  0  0  0  0
   -5.1707    2.3028    0.3749 O   0  0  0  0  0  0  0  0  0  0  0  0
   -4.2734    4.1847    1.6561 O   0  0  0  0  0  0  0  0  0  0  0  0
   -4.4181    5.1366    1.7916 H   0  0  0  0  0  0  0  0  0  0  0  0
  1  2  1  0  0  0  0
  1 10  2  0  0  0  0
  2  3  1  0  0  0  0
  4  1  1  0  0  0  0
  5  4  2  0  0  0  0
  5  6  1  0  0  0  0
  6  9  2  0  0  0  0
  7  6  1  0  0  0  0
  7  8  1  0  0  0  0
  8 15  1  0  0  0  0
  9 10  1  0  0  0  0
  9 16  1  0  0  0  0
 10 17  1  0  0  0  0
 11 19  1  0  0  0  0
 12  5  1  0  0  0  0
 13  8  1  0  0  0  0
 14  8  1  0  0  0  0
 18 21  2  0  0  0  0
 18 22  1  0  0  0  0
 19 18  1  0  0  0  0
 20 18  2  0  0  0  0
 22 23  1  0  0  0  0
M  RAD  3   2   2   3   3   4   2
M  END
