Coordinates from ORCA-job 4-MeOPhN2+~HSO4-_B3LYPG-6-31G_dp-CH-Scan-d09-49-n800
 OpenBabel11261919063D

 23 22  0  0  0  0  0  0  0  0999 V2000
   -1.4812   -0.1241   -0.1652 C   0  0  0  0  0  0  0  0  0  0  0  0
   -2.8544   -0.2183   -0.0738 N   0  0  0  0  0  0  0  0  0  0  0  0
   -3.9748   -0.2464   -0.0243 N   0  0  0  0  0  0  0  0  0  0  0  0
   -1.0259    1.1123   -0.6816 C   0  0  0  0  0  0  0  0  0  0  0  0
    0.3813    1.1119   -0.7438 C   0  0  0  0  0  0  0  0  0  0  0  0
    1.1909    0.0370   -0.3459 C   0  0  0  0  0  0  0  0  0  0  0  0
    2.5292    0.2128   -0.4738 O   0  0  0  0  0  0  0  0  0  0  0  0
    3.4182   -0.8304   -0.0935 C   0  0  0  0  0  0  0  0  0  0  0  0
    0.6238   -1.1673    0.1633 C   0  0  0  0  0  0  0  0  0  0  0  0
   -0.7444   -1.2620    0.2599 C   0  0  0  0  0  0  0  0  0  0  0  0
   -3.9184    4.1901   -1.0449 H   0  0  0  0  0  0  0  0  0  0  0  0
    0.9161    1.9856   -1.1191 H   0  0  0  0  0  0  0  0  0  0  0  0
    4.4224   -0.4513   -0.2886 H   0  0  0  0  0  0  0  0  0  0  0  0
    3.2557   -1.7375   -0.6879 H   0  0  0  0  0  0  0  0  0  0  0  0
    3.3261   -1.0723    0.9723 H   0  0  0  0  0  0  0  0  0  0  0  0
    1.2463   -1.9975    0.4714 H   0  0  0  0  0  0  0  0  0  0  0  0
   -1.2247   -2.1601    0.6415 H   0  0  0  0  0  0  0  0  0  0  0  0
   -5.4818    3.9334    0.3962 S   0  0  0  0  0  0  0  0  0  0  0  0
   -4.7087    4.7037   -0.8029 O   0  0  0  0  0  0  0  0  0  0  0  0
   -6.7956    4.5363    0.4580 O   0  0  0  0  0  0  0  0  0  0  0  0
   -5.2442    2.5111    0.2794 O   0  0  0  0  0  0  0  0  0  0  0  0
   -4.6316    4.4104    1.6983 O   0  0  0  0  0  0  0  0  0  0  0  0
   -4.9669    5.2823    1.9688 H   0  0  0  0  0  0  0  0  0  0  0  0
  1  2  1  0  0  0  0
  1 10  2  0  0  0  0
  2  3  1  0  0  0  0
  4  1  1  0  0  0  0
  5  4  2  0  0  0  0
  5  6  1  0  0  0  0
  6  9  2  0  0  0  0
  7  6  1  0  0  0  0
  7  8  1  0  0  0  0
  8 15  1  0  0  0  0
  9 10  1  0  0  0  0
  9 16  1  0  0  0  0
 10 17  1  0  0  0  0
 11 19  1  0  0  0  0
 12  5  1  0  0  0  0
 13  8  1  0  0  0  0
 14  8  1  0  0  0  0
 18 20  2  0  0  0  0
 18 22  1  0  0  0  0
 19 18  1  0  0  0  0
 21 18  2  0  0  0  0
 22 23  1  0  0  0  0
M  RAD  3   2   2   3   3   4   2
M  END
