Coordinates from ORCA-job 4-MeOPhN2+~HSO4-_B3LYPG-6-31G_dp-CH-Scan-d09-49-n800
 OpenBabel11261919063D

 23 22  0  0  0  0  0  0  0  0999 V2000
   -1.8277   -0.0896   -0.0765 C   0  0  0  0  0  0  0  0  0  0  0  0
   -3.1800   -0.3226    0.0081 N   0  0  0  0  0  0  0  0  0  0  0  0
   -4.2866   -0.4848    0.0683 N   0  0  0  0  0  0  0  0  0  0  0  0
   -1.4532    1.2362   -0.4091 C   0  0  0  0  0  0  0  0  0  0  0  0
   -0.0584    1.3616   -0.4758 C   0  0  0  0  0  0  0  0  0  0  0  0
    0.8371    0.3041   -0.2423 C   0  0  0  0  0  0  0  0  0  0  0  0
    2.1510    0.6007   -0.3515 O   0  0  0  0  0  0  0  0  0  0  0  0
    3.1263   -0.4154   -0.1398 C   0  0  0  0  0  0  0  0  0  0  0  0
    0.3667   -0.9973    0.0882 C   0  0  0  0  0  0  0  0  0  0  0  0
   -0.9896   -1.2078    0.1740 C   0  0  0  0  0  0  0  0  0  0  0  0
   -3.0215    3.0756   -0.7556 H   0  0  0  0  0  0  0  0  0  0  0  0
    0.3977    2.3194   -0.7227 H   0  0  0  0  0  0  0  0  0  0  0  0
    4.0929    0.0656   -0.2924 H   0  0  0  0  0  0  0  0  0  0  0  0
    3.0139   -1.2363   -0.8578 H   0  0  0  0  0  0  0  0  0  0  0  0
    3.0785   -0.8124    0.8810 H   0  0  0  0  0  0  0  0  0  0  0  0
    1.0517   -1.8151    0.2716 H   0  0  0  0  0  0  0  0  0  0  0  0
   -1.3936   -2.1850    0.4249 H   0  0  0  0  0  0  0  0  0  0  0  0
   -4.8267    3.6143    0.2712 S   0  0  0  0  0  0  0  0  0  0  0  0
   -3.6829    3.8093   -0.8294 O   0  0  0  0  0  0  0  0  0  0  0  0
   -5.8589    4.5818   -0.0428 O   0  0  0  0  0  0  0  0  0  0  0  0
   -5.1004    2.2036    0.4696 O   0  0  0  0  0  0  0  0  0  0  0  0
   -4.0794    4.0911    1.6419 O   0  0  0  0  0  0  0  0  0  0  0  0
   -4.0993    5.0628    1.6607 H   0  0  0  0  0  0  0  0  0  0  0  0
  1  2  1  0  0  0  0
  1 10  2  0  0  0  0
  2  3  1  0  0  0  0
  4  1  1  0  0  0  0
  5  4  2  0  0  0  0
  5  6  1  0  0  0  0
  6  9  2  0  0  0  0
  7  6  1  0  0  0  0
  7  8  1  0  0  0  0
  8 15  1  0  0  0  0
  9 10  1  0  0  0  0
  9 16  1  0  0  0  0
 10 17  1  0  0  0  0
 12  5  1  0  0  0  0
 13  8  1  0  0  0  0
 14  8  1  0  0  0  0
 18 21  2  0  0  0  0
 18 22  1  0  0  0  0
 19 11  1  0  0  0  0
 19 18  1  0  0  0  0
 20 18  2  0  0  0  0
 22 23  1  0  0  0  0
M  RAD  3   2   2   3   3   4   2
M  END
