Coordinates from ORCA-job 4-MeOPhN2+~HSO4-_B3LYPG-6-31G_dp-CH-Scan-d09-49-n800
 OpenBabel11261919063D

 23 22  0  0  0  0  0  0  0  0999 V2000
   -1.6269   -0.1187   -0.0945 C   0  0  0  0  0  0  0  0  0  0  0  0
   -2.9922   -0.2766    0.0037 N   0  0  0  0  0  0  0  0  0  0  0  0
   -4.1084   -0.3636    0.0674 N   0  0  0  0  0  0  0  0  0  0  0  0
   -1.2157    1.1698   -0.5138 C   0  0  0  0  0  0  0  0  0  0  0  0
    0.1879    1.2266   -0.5890 C   0  0  0  0  0  0  0  0  0  0  0  0
    1.0397    0.1520   -0.2881 C   0  0  0  0  0  0  0  0  0  0  0  0
    2.3679    0.3854   -0.4165 O   0  0  0  0  0  0  0  0  0  0  0  0
    3.2983   -0.6541   -0.1360 C   0  0  0  0  0  0  0  0  0  0  0  0
    0.5206   -1.1076    0.1279 C   0  0  0  0  0  0  0  0  0  0  0  0
   -0.8423   -1.2577    0.2298 C   0  0  0  0  0  0  0  0  0  0  0  0
   -3.5084    3.7457   -0.9682 H   0  0  0  0  0  0  0  0  0  0  0  0
    0.6864    2.1461   -0.8978 H   0  0  0  0  0  0  0  0  0  0  0  0
    4.2853   -0.2263   -0.3167 H   0  0  0  0  0  0  0  0  0  0  0  0
    3.1530   -1.5157   -0.7984 H   0  0  0  0  0  0  0  0  0  0  0  0
    3.2345   -0.9825    0.9084 H   0  0  0  0  0  0  0  0  0  0  0  0
    1.1747   -1.9376    0.3626 H   0  0  0  0  0  0  0  0  0  0  0  0
   -1.2859   -2.1995    0.5437 H   0  0  0  0  0  0  0  0  0  0  0  0
   -5.2159    3.8099    0.3226 S   0  0  0  0  0  0  0  0  0  0  0  0
   -4.2496    4.3664   -0.8477 O   0  0  0  0  0  0  0  0  0  0  0  0
   -6.4247    4.6011    0.2347 O   0  0  0  0  0  0  0  0  0  0  0  0
   -5.1965    2.3626    0.3218 O   0  0  0  0  0  0  0  0  0  0  0  0
   -4.4063    4.2510    1.6640 O   0  0  0  0  0  0  0  0  0  0  0  0
   -4.6182    5.1828    1.8438 H   0  0  0  0  0  0  0  0  0  0  0  0
  1  2  1  0  0  0  0
  1 10  2  0  0  0  0
  2  3  1  0  0  0  0
  4  1  1  0  0  0  0
  5  4  2  0  0  0  0
  5  6  1  0  0  0  0
  6  9  2  0  0  0  0
  7  6  1  0  0  0  0
  7  8  1  0  0  0  0
  8 15  1  0  0  0  0
  9 10  1  0  0  0  0
  9 16  1  0  0  0  0
 10 17  1  0  0  0  0
 11 19  1  0  0  0  0
 12  5  1  0  0  0  0
 13  8  1  0  0  0  0
 14  8  1  0  0  0  0
 18 22  1  0  0  0  0
 19 18  1  0  0  0  0
 20 18  2  0  0  0  0
 21 18  2  0  0  0  0
 22 23  1  0  0  0  0
M  RAD  3   2   2   3   3   4   2
M  END
