Coordinates from ORCA-job 4-MeOPhN2+~HSO4-_B3LYPG-6-31G_dp-CH-Scan-d09-49-n800
 OpenBabel11261919063D

 23 22  0  0  0  0  0  0  0  0999 V2000
   -1.6756   -0.1151   -0.0975 C   0  0  0  0  0  0  0  0  0  0  0  0
   -3.0383   -0.2926   -0.0052 N   0  0  0  0  0  0  0  0  0  0  0  0
   -4.1527   -0.3990    0.0546 N   0  0  0  0  0  0  0  0  0  0  0  0
   -1.2747    1.1817   -0.5016 C   0  0  0  0  0  0  0  0  0  0  0  0
    0.1274    1.2565   -0.5716 C   0  0  0  0  0  0  0  0  0  0  0  0
    0.9904    0.1882   -0.2794 C   0  0  0  0  0  0  0  0  0  0  0  0
    2.3157    0.4380   -0.4010 O   0  0  0  0  0  0  0  0  0  0  0  0
    3.2574   -0.5938   -0.1293 C   0  0  0  0  0  0  0  0  0  0  0  0
    0.4839   -1.0811    0.1213 C   0  0  0  0  0  0  0  0  0  0  0  0
   -0.8777   -1.2475    0.2168 C   0  0  0  0  0  0  0  0  0  0  0  0
   -3.4010    3.5910   -0.9386 H   0  0  0  0  0  0  0  0  0  0  0  0
    0.6157    2.1849   -0.8689 H   0  0  0  0  0  0  0  0  0  0  0  0
    4.2397   -0.1529   -0.3033 H   0  0  0  0  0  0  0  0  0  0  0  0
    3.1230   -1.4499   -0.8010 H   0  0  0  0  0  0  0  0  0  0  0  0
    3.1950   -0.9335    0.9115 H   0  0  0  0  0  0  0  0  0  0  0  0
    1.1461   -1.9064    0.3494 H   0  0  0  0  0  0  0  0  0  0  0  0
   -1.3113   -2.1975    0.5193 H   0  0  0  0  0  0  0  0  0  0  0  0
   -5.1251    3.7649    0.3193 S   0  0  0  0  0  0  0  0  0  0  0  0
   -4.1237    4.2408   -0.8536 O   0  0  0  0  0  0  0  0  0  0  0  0
   -6.2950    4.6087    0.1962 O   0  0  0  0  0  0  0  0  0  0  0  0
   -5.1778    2.3186    0.3623 O   0  0  0  0  0  0  0  0  0  0  0  0
   -4.3101    4.2043    1.6586 O   0  0  0  0  0  0  0  0  0  0  0  0
   -4.4736    5.1515    1.8057 H   0  0  0  0  0  0  0  0  0  0  0  0
  1  2  1  0  0  0  0
  1 10  2  0  0  0  0
  2  3  1  0  0  0  0
  4  1  1  0  0  0  0
  5  4  2  0  0  0  0
  5  6  1  0  0  0  0
  6  9  2  0  0  0  0
  7  6  1  0  0  0  0
  7  8  1  0  0  0  0
  8 15  1  0  0  0  0
  9 10  1  0  0  0  0
  9 16  1  0  0  0  0
 10 17  1  0  0  0  0
 11 19  1  0  0  0  0
 12  5  1  0  0  0  0
 13  8  1  0  0  0  0
 14  8  1  0  0  0  0
 18 21  2  0  0  0  0
 18 22  1  0  0  0  0
 19 18  1  0  0  0  0
 20 18  2  0  0  0  0
 22 23  1  0  0  0  0
M  RAD  3   2   2   3   3   4   2
M  END
