Coordinates from ORCA-job 4-MeOPhN2+~HSO4-_B3LYPG-6-31G_dp-CH-Scan-d09-49-n800
 OpenBabel11261919063D

 23 22  0  0  0  0  0  0  0  0999 V2000
   -1.8859   -0.0762   -0.0551 C   0  0  0  0  0  0  0  0  0  0  0  0
   -3.2332   -0.3309    0.0311 N   0  0  0  0  0  0  0  0  0  0  0  0
   -4.3361   -0.5124    0.0937 N   0  0  0  0  0  0  0  0  0  0  0  0
   -1.5197    1.2607   -0.3535 C   0  0  0  0  0  0  0  0  0  0  0  0
   -0.1285    1.4026   -0.4252 C   0  0  0  0  0  0  0  0  0  0  0  0
    0.7788    0.3473   -0.2262 C   0  0  0  0  0  0  0  0  0  0  0  0
    2.0874    0.6601   -0.3363 O   0  0  0  0  0  0  0  0  0  0  0  0
    3.0750   -0.3519   -0.1614 C   0  0  0  0  0  0  0  0  0  0  0  0
    0.3214   -0.9654    0.0717 C   0  0  0  0  0  0  0  0  0  0  0  0
   -1.0327   -1.1898    0.1596 C   0  0  0  0  0  0  0  0  0  0  0  0
   -2.8488    2.8566   -0.6400 H   0  0  0  0  0  0  0  0  0  0  0  0
    0.3144    2.3716   -0.6492 H   0  0  0  0  0  0  0  0  0  0  0  0
    4.0351    0.1435   -0.3078 H   0  0  0  0  0  0  0  0  0  0  0  0
    2.9645   -1.1527   -0.9019 H   0  0  0  0  0  0  0  0  0  0  0  0
    3.0390   -0.7778    0.8481 H   0  0  0  0  0  0  0  0  0  0  0  0
    1.0138   -1.7824    0.2289 H   0  0  0  0  0  0  0  0  0  0  0  0
   -1.4262   -2.1768    0.3863 H   0  0  0  0  0  0  0  0  0  0  0  0
   -4.6953    3.5550    0.2351 S   0  0  0  0  0  0  0  0  0  0  0  0
   -3.4735    3.6396   -0.7749 O   0  0  0  0  0  0  0  0  0  0  0  0
   -5.6693    4.5398   -0.1962 O   0  0  0  0  0  0  0  0  0  0  0  0
   -5.0484    2.1691    0.4918 O   0  0  0  0  0  0  0  0  0  0  0  0
   -4.0397    4.0795    1.6388 O   0  0  0  0  0  0  0  0  0  0  0  0
   -4.0346    5.0507    1.6066 H   0  0  0  0  0  0  0  0  0  0  0  0
  1  2  1  0  0  0  0
  1 10  2  0  0  0  0
  2  3  1  0  0  0  0
  4  1  1  0  0  0  0
  5  4  2  0  0  0  0
  5  6  1  0  0  0  0
  6  9  2  0  0  0  0
  7  6  1  0  0  0  0
  7  8  1  0  0  0  0
  8 15  1  0  0  0  0
  9 10  1  0  0  0  0
  9 16  1  0  0  0  0
 10 17  1  0  0  0  0
 12  5  1  0  0  0  0
 13  8  1  0  0  0  0
 14  8  1  0  0  0  0
 18 21  2  0  0  0  0
 18 22  1  0  0  0  0
 19 11  1  0  0  0  0
 19 18  1  0  0  0  0
 20 18  2  0  0  0  0
 23 22  1  0  0  0  0
M  RAD  3   2   2   3   3   4   2
M  END
