Coordinates from ORCA-job 4-MeOPhN2+~HSO4-_B3LYPG-6-31G_dp-CH-Scan-d09-49-n800
 OpenBabel11261919063D

 23 22  0  0  0  0  0  0  0  0999 V2000
   -1.6871   -0.1138   -0.0975 C   0  0  0  0  0  0  0  0  0  0  0  0
   -3.0492   -0.2957   -0.0058 N   0  0  0  0  0  0  0  0  0  0  0  0
   -4.1631   -0.4068    0.0524 N   0  0  0  0  0  0  0  0  0  0  0  0
   -1.2885    1.1848   -0.4981 C   0  0  0  0  0  0  0  0  0  0  0  0
    0.1132    1.2638   -0.5673 C   0  0  0  0  0  0  0  0  0  0  0  0
    0.9788    0.1968   -0.2773 C   0  0  0  0  0  0  0  0  0  0  0  0
    2.3034    0.4504   -0.3977 O   0  0  0  0  0  0  0  0  0  0  0  0
    3.2477   -0.5798   -0.1281 C   0  0  0  0  0  0  0  0  0  0  0  0
    0.4751   -1.0747    0.1197 C   0  0  0  0  0  0  0  0  0  0  0  0
   -0.8860   -1.2447    0.2141 C   0  0  0  0  0  0  0  0  0  0  0  0
   -3.3755    3.5554   -0.9308 H   0  0  0  0  0  0  0  0  0  0  0  0
    0.5991    2.1942   -0.8620 H   0  0  0  0  0  0  0  0  0  0  0  0
    4.2289   -0.1358   -0.3005 H   0  0  0  0  0  0  0  0  0  0  0  0
    3.1157   -1.4345   -0.8020 H   0  0  0  0  0  0  0  0  0  0  0  0
    3.1855   -0.9222    0.9119 H   0  0  0  0  0  0  0  0  0  0  0  0
    1.1392   -1.8990    0.3461 H   0  0  0  0  0  0  0  0  0  0  0  0
   -1.3174   -2.1966    0.5140 H   0  0  0  0  0  0  0  0  0  0  0  0
   -5.1037    3.7540    0.3175 S   0  0  0  0  0  0  0  0  0  0  0  0
   -4.0942    4.2114   -0.8549 O   0  0  0  0  0  0  0  0  0  0  0  0
   -6.2637    4.6102    0.1863 O   0  0  0  0  0  0  0  0  0  0  0  0
   -5.1738    2.3087    0.3697 O   0  0  0  0  0  0  0  0  0  0  0  0
   -4.2877    4.1918    1.6570 O   0  0  0  0  0  0  0  0  0  0  0  0
   -4.4393    5.1420    1.7970 H   0  0  0  0  0  0  0  0  0  0  0  0
  1  2  1  0  0  0  0
  1 10  2  0  0  0  0
  2  3  1  0  0  0  0
  4  1  1  0  0  0  0
  5  4  2  0  0  0  0
  5  6  1  0  0  0  0
  6  9  2  0  0  0  0
  7  6  1  0  0  0  0
  7  8  1  0  0  0  0
  8 15  1  0  0  0  0
  9 10  1  0  0  0  0
  9 16  1  0  0  0  0
 10 17  1  0  0  0  0
 11 19  1  0  0  0  0
 12  5  1  0  0  0  0
 13  8  1  0  0  0  0
 14  8  1  0  0  0  0
 18 21  2  0  0  0  0
 18 22  1  0  0  0  0
 19 18  1  0  0  0  0
 20 18  2  0  0  0  0
 22 23  1  0  0  0  0
M  RAD  3   2   2   3   3   4   2
M  END
