Coordinates from ORCA-job 4-MeOPhN2+~HSO4-_B3LYPG-6-31G_dp-CH-Scan-d09-49-n800
 OpenBabel11261919063D

 23 22  0  0  0  0  0  0  0  0999 V2000
   -1.7947   -0.0995   -0.0891 C   0  0  0  0  0  0  0  0  0  0  0  0
   -3.1495   -0.3212   -0.0047 N   0  0  0  0  0  0  0  0  0  0  0  0
   -4.2583   -0.4708    0.0531 N   0  0  0  0  0  0  0  0  0  0  0  0
   -1.4159    1.2193   -0.4430 C   0  0  0  0  0  0  0  0  0  0  0  0
   -0.0191    1.3353   -0.5076 C   0  0  0  0  0  0  0  0  0  0  0  0
    0.8700    0.2776   -0.2535 C   0  0  0  0  0  0  0  0  0  0  0  0
    2.1866    0.5656   -0.3630 O   0  0  0  0  0  0  0  0  0  0  0  0
    3.1554   -0.4515   -0.1294 C   0  0  0  0  0  0  0  0  0  0  0  0
    0.3928   -1.0163    0.0975 C   0  0  0  0  0  0  0  0  0  0  0  0
   -0.9646   -1.2190    0.1830 C   0  0  0  0  0  0  0  0  0  0  0  0
   -3.1146    3.1957   -0.8124 H   0  0  0  0  0  0  0  0  0  0  0  0
    0.4438    2.2862   -0.7690 H   0  0  0  0  0  0  0  0  0  0  0  0
    4.1255    0.0215   -0.2861 H   0  0  0  0  0  0  0  0  0  0  0  0
    3.0422   -1.2845   -0.8332 H   0  0  0  0  0  0  0  0  0  0  0  0
    3.1014   -0.8307    0.8979 H   0  0  0  0  0  0  0  0  0  0  0  0
    1.0736   -1.8339    0.2964 H   0  0  0  0  0  0  0  0  0  0  0  0
   -1.3745   -2.1899    0.4488 H   0  0  0  0  0  0  0  0  0  0  0  0
   -4.8948    3.6499    0.2909 S   0  0  0  0  0  0  0  0  0  0  0  0
   -3.7914    3.9100   -0.8441 O   0  0  0  0  0  0  0  0  0  0  0  0
   -5.9605    4.5970    0.0344 O   0  0  0  0  0  0  0  0  0  0  0  0
   -5.1192    2.2271    0.4544 O   0  0  0  0  0  0  0  0  0  0  0  0
   -4.1135    4.1111    1.6463 O   0  0  0  0  0  0  0  0  0  0  0  0
   -4.1632    5.0807    1.6964 H   0  0  0  0  0  0  0  0  0  0  0  0
  1  2  1  0  0  0  0
  1 10  2  0  0  0  0
  2  3  1  0  0  0  0
  4  1  1  0  0  0  0
  5  4  2  0  0  0  0
  5  6  1  0  0  0  0
  6  9  2  0  0  0  0
  7  6  1  0  0  0  0
  7  8  1  0  0  0  0
  8 15  1  0  0  0  0
  9 10  1  0  0  0  0
  9 16  1  0  0  0  0
 10 17  1  0  0  0  0
 12  5  1  0  0  0  0
 13  8  1  0  0  0  0
 14  8  1  0  0  0  0
 18 21  2  0  0  0  0
 18 22  1  0  0  0  0
 19 11  1  0  0  0  0
 19 18  1  0  0  0  0
 20 18  2  0  0  0  0
 22 23  1  0  0  0  0
M  RAD  3   2   2   3   3   4   2
M  END
