Coordinates from ORCA-job 4-MeOPhN2+~HSO4-_B3LYPG-6-31G_dp-CH-Scan-d09-49-n800
 OpenBabel11261919063D

 23 22  0  0  0  0  0  0  0  0999 V2000
   -1.6318   -0.1185   -0.0942 C   0  0  0  0  0  0  0  0  0  0  0  0
   -2.9969   -0.2786    0.0036 N   0  0  0  0  0  0  0  0  0  0  0  0
   -4.1129   -0.3680    0.0659 N   0  0  0  0  0  0  0  0  0  0  0  0
   -1.2218    1.1709   -0.5117 C   0  0  0  0  0  0  0  0  0  0  0  0
    0.1817    1.2298   -0.5866 C   0  0  0  0  0  0  0  0  0  0  0  0
    1.0347    0.1557   -0.2870 C   0  0  0  0  0  0  0  0  0  0  0  0
    2.3626    0.3908   -0.4149 O   0  0  0  0  0  0  0  0  0  0  0  0
    3.2942   -0.6479   -0.1359 C   0  0  0  0  0  0  0  0  0  0  0  0
    0.5170   -1.1050    0.1272 C   0  0  0  0  0  0  0  0  0  0  0  0
   -0.8457   -1.2569    0.2286 C   0  0  0  0  0  0  0  0  0  0  0  0
   -3.4965    3.7293   -0.9642 H   0  0  0  0  0  0  0  0  0  0  0  0
    0.6790    2.1503   -0.8940 H   0  0  0  0  0  0  0  0  0  0  0  0
    4.2807   -0.2188   -0.3160 H   0  0  0  0  0  0  0  0  0  0  0  0
    3.1499   -1.5088   -0.7994 H   0  0  0  0  0  0  0  0  0  0  0  0
    3.2308   -0.9778    0.9081 H   0  0  0  0  0  0  0  0  0  0  0  0
    1.1720   -1.9346    0.3608 H   0  0  0  0  0  0  0  0  0  0  0  0
   -1.2882   -2.1997    0.5412 H   0  0  0  0  0  0  0  0  0  0  0  0
   -5.2069    3.8057    0.3220 S   0  0  0  0  0  0  0  0  0  0  0  0
   -4.2355    4.3536   -0.8480 O   0  0  0  0  0  0  0  0  0  0  0  0
   -6.4115    4.6027    0.2290 O   0  0  0  0  0  0  0  0  0  0  0  0
   -5.1951    2.3583    0.3262 O   0  0  0  0  0  0  0  0  0  0  0  0
   -4.3979    4.2468    1.6638 O   0  0  0  0  0  0  0  0  0  0  0  0
   -4.6044    5.1805    1.8396 H   0  0  0  0  0  0  0  0  0  0  0  0
  1  2  1  0  0  0  0
  1 10  2  0  0  0  0
  2  3  1  0  0  0  0
  4  1  1  0  0  0  0
  5  4  2  0  0  0  0
  5  6  1  0  0  0  0
  6  9  2  0  0  0  0
  7  6  1  0  0  0  0
  7  8  1  0  0  0  0
  8 15  1  0  0  0  0
  9 10  1  0  0  0  0
  9 16  1  0  0  0  0
 10 17  1  0  0  0  0
 11 19  1  0  0  0  0
 12  5  1  0  0  0  0
 13  8  1  0  0  0  0
 14  8  1  0  0  0  0
 18 21  2  0  0  0  0
 18 22  1  0  0  0  0
 19 18  1  0  0  0  0
 20 18  2  0  0  0  0
 22 23  1  0  0  0  0
M  RAD  3   2   2   3   3   4   2
M  END
