Coordinates from ORCA-job 4-MeOPhN2+~HSO4-_B3LYPG-6-31G_dp-CH-Scan-d09-49-n800
 OpenBabel11261919053D

 23 22  0  0  0  0  0  0  0  0999 V2000
   -1.9534    0.3925   -0.2190 C   0  0  0  0  0  0  0  0  0  0  0  0
   -3.3265    0.3409   -0.2123 N   0  0  0  0  0  0  0  0  0  0  0  0
   -4.4461    0.2752   -0.2523 N   0  0  0  0  0  0  0  0  0  0  0  0
   -1.2890    1.6192   -0.4463 C   0  0  0  0  0  0  0  0  0  0  0  0
    0.0899    1.5983   -0.4698 C   0  0  0  0  0  0  0  0  0  0  0  0
    0.8055    0.4017   -0.2545 C   0  0  0  0  0  0  0  0  0  0  0  0
    2.1422    0.5144   -0.2886 O   0  0  0  0  0  0  0  0  0  0  0  0
    2.9541   -0.6400   -0.0673 C   0  0  0  0  0  0  0  0  0  0  0  0
    0.1190   -0.8101   -0.0257 C   0  0  0  0  0  0  0  0  0  0  0  0
   -1.2644   -0.8160   -0.0141 C   0  0  0  0  0  0  0  0  0  0  0  0
   -1.8337    2.4991   -0.5930 H   0  0  0  0  0  0  0  0  0  0  0  0
    0.6501    2.5099   -0.6431 H   0  0  0  0  0  0  0  0  0  0  0  0
    3.9842   -0.2909   -0.1353 H   0  0  0  0  0  0  0  0  0  0  0  0
    2.7751   -1.4026   -0.8333 H   0  0  0  0  0  0  0  0  0  0  0  0
    2.7773   -1.0628    0.9280 H   0  0  0  0  0  0  0  0  0  0  0  0
    0.6547   -1.7357    0.1402 H   0  0  0  0  0  0  0  0  0  0  0  0
   -1.8141   -1.7348    0.1584 H   0  0  0  0  0  0  0  0  0  0  0  0
   -4.2259    3.3042    0.3714 S   0  0  0  0  0  0  0  0  0  0  0  0
   -3.4629    3.9293   -0.7231 O   0  0  0  0  0  0  0  0  0  0  0  0
   -5.3866    2.4670   -0.0646 O   0  0  0  0  0  0  0  0  0  0  0  0
   -3.3844    2.5810    1.3617 O   0  0  0  0  0  0  0  0  0  0  0  0
   -4.8842    4.5940    1.1643 O   0  0  0  0  0  0  0  0  0  0  0  0
   -5.4234    4.2260    1.8822 H   0  0  0  0  0  0  0  0  0  0  0  0
  1  2  1  0  0  0  0
  1 10  2  0  0  0  0
  3  2  1  0  0  0  0
  4  1  1  0  0  0  0
  5  4  2  0  0  0  0
  5  6  1  0  0  0  0
  6  9  2  0  0  0  0
  7  6  1  0  0  0  0
  7  8  1  0  0  0  0
  8 15  1  0  0  0  0
  9 10  1  0  0  0  0
  9 16  1  0  0  0  0
 10 17  1  0  0  0  0
 11  4  1  0  0  0  0
 12  5  1  0  0  0  0
 13  8  1  0  0  0  0
 14  8  1  0  0  0  0
 18 22  1  0  0  0  0
 18 21  1  0  0  0  0
 19 18  2  0  0  0  0
 20 18  2  0  0  0  0
 22 23  1  0  0  0  0
M  RAD  3   2   2   3   3  21   2
M  END
