Coordinates from ORCA-job 4-MeOPhN2+~HSO4-_B3LYPG-6-31G_dp-CH-Scan-d09-49-n800
 OpenBabel11261919063D

 23 22  0  0  0  0  0  0  0  0999 V2000
   -1.3795   -0.1116   -0.2187 C   0  0  0  0  0  0  0  0  0  0  0  0
   -2.7558   -0.1562   -0.1322 N   0  0  0  0  0  0  0  0  0  0  0  0
   -3.8770   -0.1409   -0.0915 N   0  0  0  0  0  0  0  0  0  0  0  0
   -0.8869    1.0781   -0.8047 C   0  0  0  0  0  0  0  0  0  0  0  0
    0.5202    1.0335   -0.8580 C   0  0  0  0  0  0  0  0  0  0  0  0
    1.2959   -0.0386   -0.3912 C   0  0  0  0  0  0  0  0  0  0  0  0
    2.6396    0.0903   -0.5204 O   0  0  0  0  0  0  0  0  0  0  0  0
    3.4961   -0.9520   -0.0700 C   0  0  0  0  0  0  0  0  0  0  0  0
    0.6915   -1.1936    0.1854 C   0  0  0  0  0  0  0  0  0  0  0  0
   -0.6794   -1.2432    0.2787 C   0  0  0  0  0  0  0  0  0  0  0  0
   -4.1531    4.3875   -1.0196 H   0  0  0  0  0  0  0  0  0  0  0  0
    1.0821    1.8675   -1.2812 H   0  0  0  0  0  0  0  0  0  0  0  0
    4.5118   -0.6150   -0.2824 H   0  0  0  0  0  0  0  0  0  0  0  0
    3.3101   -1.8898   -0.6073 H   0  0  0  0  0  0  0  0  0  0  0  0
    3.3923   -1.1240    1.0083 H   0  0  0  0  0  0  0  0  0  0  0  0
    1.2881   -2.0214    0.5466 H   0  0  0  0  0  0  0  0  0  0  0  0
   -1.1877   -2.1030    0.7093 H   0  0  0  0  0  0  0  0  0  0  0  0
   -5.6716    4.0167    0.4427 S   0  0  0  0  0  0  0  0  0  0  0  0
   -4.9570    4.8613   -0.7441 O   0  0  0  0  0  0  0  0  0  0  0  0
   -7.0170    4.5408    0.5351 O   0  0  0  0  0  0  0  0  0  0  0  0
   -5.3515    2.6150    0.2832 O   0  0  0  0  0  0  0  0  0  0  0  0
   -4.8343    4.5086    1.7474 O   0  0  0  0  0  0  0  0  0  0  0  0
   -5.2192    5.3496    2.0482 H   0  0  0  0  0  0  0  0  0  0  0  0
  1  2  1  0  0  0  0
  1 10  2  0  0  0  0
  2  3  1  0  0  0  0
  4  1  1  0  0  0  0
  5  4  2  0  0  0  0
  5  6  1  0  0  0  0
  6  9  2  0  0  0  0
  7  6  1  0  0  0  0
  7  8  1  0  0  0  0
  8 15  1  0  0  0  0
  9 10  1  0  0  0  0
  9 16  1  0  0  0  0
 10 17  1  0  0  0  0
 11 19  1  0  0  0  0
 12  5  1  0  0  0  0
 13  8  1  0  0  0  0
 14  8  1  0  0  0  0
 18 20  2  0  0  0  0
 18 22  1  0  0  0  0
 19 18  1  0  0  0  0
 21 18  2  0  0  0  0
 22 23  1  0  0  0  0
M  RAD  3   2   2   3   3   4   2
M  END
