Coordinates from ORCA-job 4-MeOPhN2+~HSO4-_B3LYPG-6-31G_dp-CH-Scan-d09-49-n800
 OpenBabel11261919063D

 23 22  0  0  0  0  0  0  0  0999 V2000
   -1.9734   -0.0002   -0.1115 C   0  0  0  0  0  0  0  0  0  0  0  0
   -3.3227   -0.2380   -0.0626 N   0  0  0  0  0  0  0  0  0  0  0  0
   -4.4257   -0.4117   -0.0258 N   0  0  0  0  0  0  0  0  0  0  0  0
   -1.5428    1.3274   -0.3452 C   0  0  0  0  0  0  0  0  0  0  0  0
   -0.1642    1.4780   -0.3948 C   0  0  0  0  0  0  0  0  0  0  0  0
    0.7233    0.3973   -0.2249 C   0  0  0  0  0  0  0  0  0  0  0  0
    2.0310    0.6955   -0.3011 O   0  0  0  0  0  0  0  0  0  0  0  0
    3.0064   -0.3350   -0.1431 C   0  0  0  0  0  0  0  0  0  0  0  0
    0.2333   -0.9132    0.0086 C   0  0  0  0  0  0  0  0  0  0  0  0
   -1.1277   -1.1203    0.0641 C   0  0  0  0  0  0  0  0  0  0  0  0
   -2.4459    2.4214   -0.4863 H   0  0  0  0  0  0  0  0  0  0  0  0
    0.2731    2.4572   -0.5681 H   0  0  0  0  0  0  0  0  0  0  0  0
    3.9728    0.1566   -0.2520 H   0  0  0  0  0  0  0  0  0  0  0  0
    2.9004   -1.1048   -0.9159 H   0  0  0  0  0  0  0  0  0  0  0  0
    2.9423   -0.7941    0.8497 H   0  0  0  0  0  0  0  0  0  0  0  0
    0.9066   -1.7496    0.1433 H   0  0  0  0  0  0  0  0  0  0  0  0
   -1.5369   -2.1098    0.2425 H   0  0  0  0  0  0  0  0  0  0  0  0
   -4.4232    3.3997    0.3275 S   0  0  0  0  0  0  0  0  0  0  0  0
   -3.2265    3.4286   -0.6261 O   0  0  0  0  0  0  0  0  0  0  0  0
   -5.6180    3.9867   -0.2773 O   0  0  0  0  0  0  0  0  0  0  0  0
   -4.5251    2.0881    0.9843 O   0  0  0  0  0  0  0  0  0  0  0  0
   -3.9875    4.4271    1.5461 O   0  0  0  0  0  0  0  0  0  0  0  0
   -4.4121    5.2727    1.3323 H   0  0  0  0  0  0  0  0  0  0  0  0
  1  2  1  0  0  0  0
  1 10  2  0  0  0  0
  2  3  1  0  0  0  0
  4  1  1  0  0  0  0
  5  4  2  0  0  0  0
  5  6  1  0  0  0  0
  6  9  2  0  0  0  0
  7  6  1  0  0  0  0
  7  8  1  0  0  0  0
  8 15  1  0  0  0  0
  9 10  1  0  0  0  0
  9 16  1  0  0  0  0
 10 17  1  0  0  0  0
 12  5  1  0  0  0  0
 13  8  1  0  0  0  0
 14  8  1  0  0  0  0
 18 21  2  0  0  0  0
 18 22  1  0  0  0  0
 19 11  1  0  0  0  0
 19 18  1  0  0  0  0
 20 18  2  0  0  0  0
 23 22  1  0  0  0  0
M  RAD  3   2   2   3   3   4   2
M  END
