Coordinates from ORCA-job 4-MeOPhN2+~HSO4-_B3LYPG-6-31G_dp-CH-Scan-d09-49-n800
 OpenBabel11261919063D

 23 22  0  0  0  0  0  0  0  0999 V2000
   -1.7123   -0.1122   -0.0980 C   0  0  0  0  0  0  0  0  0  0  0  0
   -3.0727   -0.3036   -0.0086 N   0  0  0  0  0  0  0  0  0  0  0  0
   -4.1857   -0.4230    0.0498 N   0  0  0  0  0  0  0  0  0  0  0  0
   -1.3191    1.1912   -0.4895 C   0  0  0  0  0  0  0  0  0  0  0  0
    0.0816    1.2793   -0.5565 C   0  0  0  0  0  0  0  0  0  0  0  0
    0.9531    0.2154   -0.2725 C   0  0  0  0  0  0  0  0  0  0  0  0
    2.2759    0.4777   -0.3895 O   0  0  0  0  0  0  0  0  0  0  0  0
    3.2263   -0.5485   -0.1257 C   0  0  0  0  0  0  0  0  0  0  0  0
    0.4561   -1.0614    0.1153 C   0  0  0  0  0  0  0  0  0  0  0  0
   -0.9042   -1.2398    0.2067 C   0  0  0  0  0  0  0  0  0  0  0  0
   -3.3181    3.4731   -0.9105 H   0  0  0  0  0  0  0  0  0  0  0  0
    0.5621    2.2145   -0.8445 H   0  0  0  0  0  0  0  0  0  0  0  0
    4.2049   -0.0973   -0.2942 H   0  0  0  0  0  0  0  0  0  0  0  0
    3.1001   -1.3994   -0.8055 H   0  0  0  0  0  0  0  0  0  0  0  0
    3.1652   -0.8980    0.9119 H   0  0  0  0  0  0  0  0  0  0  0  0
    1.1245   -1.8834    0.3369 H   0  0  0  0  0  0  0  0  0  0  0  0
   -1.3302   -2.1961    0.4997 H   0  0  0  0  0  0  0  0  0  0  0  0
   -5.0561    3.7309    0.3139 S   0  0  0  0  0  0  0  0  0  0  0  0
   -4.0272    4.1433   -0.8561 O   0  0  0  0  0  0  0  0  0  0  0  0
   -6.1940    4.6129    0.1605 O   0  0  0  0  0  0  0  0  0  0  0  0
   -5.1645    2.2889    0.3901 O   0  0  0  0  0  0  0  0  0  0  0  0
   -4.2407    4.1694    1.6541 O   0  0  0  0  0  0  0  0  0  0  0  0
   -4.3675    5.1257    1.7759 H   0  0  0  0  0  0  0  0  0  0  0  0
  1  2  1  0  0  0  0
  1 10  2  0  0  0  0
  2  3  1  0  0  0  0
  4  1  1  0  0  0  0
  5  4  2  0  0  0  0
  5  6  1  0  0  0  0
  6  9  2  0  0  0  0
  7  6  1  0  0  0  0
  7  8  1  0  0  0  0
  8 15  1  0  0  0  0
  9 10  1  0  0  0  0
  9 16  1  0  0  0  0
 10 17  1  0  0  0  0
 11 19  1  0  0  0  0
 12  5  1  0  0  0  0
 13  8  1  0  0  0  0
 14  8  1  0  0  0  0
 18 21  2  0  0  0  0
 18 22  1  0  0  0  0
 19 18  1  0  0  0  0
 20 18  2  0  0  0  0
 22 23  1  0  0  0  0
M  RAD  3   2   2   3   3   4   2
M  END
