Coordinates from ORCA-job 4-MeOPhN2+~HSO4-_B3LYPG-6-31G_dp-CH-Scan-d09-49-n800
 OpenBabel11261919063D

 23 22  0  0  0  0  0  0  0  0999 V2000
   -1.8046   -0.0965   -0.0857 C   0  0  0  0  0  0  0  0  0  0  0  0
   -3.1587   -0.3217   -0.0012 N   0  0  0  0  0  0  0  0  0  0  0  0
   -4.2670   -0.4751    0.0542 N   0  0  0  0  0  0  0  0  0  0  0  0
   -1.4270    1.2242   -0.4340 C   0  0  0  0  0  0  0  0  0  0  0  0
   -0.0309    1.3430   -0.4992 C   0  0  0  0  0  0  0  0  0  0  0  0
    0.8602    0.2855   -0.2505 C   0  0  0  0  0  0  0  0  0  0  0  0
    2.1760    0.5760   -0.3599 O   0  0  0  0  0  0  0  0  0  0  0  0
    3.1467   -0.4407   -0.1319 C   0  0  0  0  0  0  0  0  0  0  0  0
    0.3850   -1.0105    0.0953 C   0  0  0  0  0  0  0  0  0  0  0  0
   -0.9721   -1.2155    0.1808 C   0  0  0  0  0  0  0  0  0  0  0  0
   -3.0876    3.1613   -0.7970 H   0  0  0  0  0  0  0  0  0  0  0  0
    0.4300    2.2958   -0.7569 H   0  0  0  0  0  0  0  0  0  0  0  0
    4.1158    0.0346   -0.2877 H   0  0  0  0  0  0  0  0  0  0  0  0
    3.0339   -1.2706   -0.8394 H   0  0  0  0  0  0  0  0  0  0  0  0
    3.0944   -0.8244    0.8938 H   0  0  0  0  0  0  0  0  0  0  0  0
    1.0670   -1.8280    0.2902 H   0  0  0  0  0  0  0  0  0  0  0  0
   -1.3802   -2.1881    0.4429 H   0  0  0  0  0  0  0  0  0  0  0  0
   -4.8746    3.6390    0.2859 S   0  0  0  0  0  0  0  0  0  0  0  0
   -3.7604    3.8807   -0.8406 O   0  0  0  0  0  0  0  0  0  0  0  0
   -5.9311    4.5924    0.0138 O   0  0  0  0  0  0  0  0  0  0  0  0
   -5.1131    2.2195    0.4597 O   0  0  0  0  0  0  0  0  0  0  0  0
   -4.1017    4.1042    1.6452 O   0  0  0  0  0  0  0  0  0  0  0  0
   -4.1422    5.0746    1.6861 H   0  0  0  0  0  0  0  0  0  0  0  0
  1  2  1  0  0  0  0
  1 10  2  0  0  0  0
  2  3  1  0  0  0  0
  4  1  1  0  0  0  0
  5  4  2  0  0  0  0
  5  6  1  0  0  0  0
  6  9  2  0  0  0  0
  7  6  1  0  0  0  0
  7  8  1  0  0  0  0
  8 15  1  0  0  0  0
  9 10  1  0  0  0  0
  9 16  1  0  0  0  0
 10 17  1  0  0  0  0
 12  5  1  0  0  0  0
 13  8  1  0  0  0  0
 14  8  1  0  0  0  0
 18 21  2  0  0  0  0
 18 22  1  0  0  0  0
 19 11  1  0  0  0  0
 19 18  1  0  0  0  0
 20 18  2  0  0  0  0
 22 23  1  0  0  0  0
M  RAD  3   2   2   3   3   4   2
M  END
