Coordinates from ORCA-job 4-MeOPhN2+~HSO4-_B3LYPG-6-31G_dp-CH-Scan-d09-49-n800
 OpenBabel11261919063D

 23 22  0  0  0  0  0  0  0  0999 V2000
   -1.9404    0.3713   -0.2103 C   0  0  0  0  0  0  0  0  0  0  0  0
   -3.3128    0.3177   -0.1953 N   0  0  0  0  0  0  0  0  0  0  0  0
   -4.4314    0.2566   -0.2248 N   0  0  0  0  0  0  0  0  0  0  0  0
   -1.2857    1.6017   -0.4426 C   0  0  0  0  0  0  0  0  0  0  0  0
    0.0927    1.5866   -0.4743 C   0  0  0  0  0  0  0  0  0  0  0  0
    0.8135    0.3915   -0.2660 C   0  0  0  0  0  0  0  0  0  0  0  0
    2.1494    0.5073   -0.3106 O   0  0  0  0  0  0  0  0  0  0  0  0
    2.9675   -0.6441   -0.0958 C   0  0  0  0  0  0  0  0  0  0  0  0
    0.1340   -0.8249   -0.0317 C   0  0  0  0  0  0  0  0  0  0  0  0
   -1.2481   -0.8377   -0.0081 C   0  0  0  0  0  0  0  0  0  0  0  0
   -1.9397    2.6147   -0.5953 H   0  0  0  0  0  0  0  0  0  0  0  0
    0.6514    2.4992   -0.6489 H   0  0  0  0  0  0  0  0  0  0  0  0
    3.9956   -0.2910   -0.1723 H   0  0  0  0  0  0  0  0  0  0  0  0
    2.7852   -1.4073   -0.8604 H   0  0  0  0  0  0  0  0  0  0  0  0
    2.8005   -1.0674    0.9008 H   0  0  0  0  0  0  0  0  0  0  0  0
    0.6759   -1.7477    0.1298 H   0  0  0  0  0  0  0  0  0  0  0  0
   -1.7928   -1.7587    0.1694 H   0  0  0  0  0  0  0  0  0  0  0  0
   -4.1956    3.2927    0.4668 S   0  0  0  0  0  0  0  0  0  0  0  0
   -3.3157    3.8633   -0.5831 O   0  0  0  0  0  0  0  0  0  0  0  0
   -5.3740    2.5352   -0.0485 O   0  0  0  0  0  0  0  0  0  0  0  0
   -3.4500    2.5352    1.4996 O   0  0  0  0  0  0  0  0  0  0  0  0
   -4.8394    4.6283    1.1920 O   0  0  0  0  0  0  0  0  0  0  0  0
   -5.6824    4.3370    1.5736 H   0  0  0  0  0  0  0  0  0  0  0  0
  1  2  1  0  0  0  0
  1 10  2  0  0  0  0
  3  2  1  0  0  0  0
  4  1  1  0  0  0  0
  5  4  2  0  0  0  0
  5  6  1  0  0  0  0
  6  9  2  0  0  0  0
  7  6  1  0  0  0  0
  7  8  1  0  0  0  0
  8 15  1  0  0  0  0
  9 10  1  0  0  0  0
  9 16  1  0  0  0  0
 10 17  1  0  0  0  0
 11  4  1  0  0  0  0
 12  5  1  0  0  0  0
 13  8  1  0  0  0  0
 14  8  1  0  0  0  0
 18 22  1  0  0  0  0
 18 21  1  0  0  0  0
 19 18  2  0  0  0  0
 20 18  2  0  0  0  0
 22 23  1  0  0  0  0
M  RAD  3   2   2   3   3  21   2
M  END
