Coordinates from ORCA-job 4-MeOPhN2+~HSO4-_B3LYPG-6-31G_dp-CH-Scan-d09-49-n800
 OpenBabel11261919063D

 23 22  0  0  0  0  0  0  0  0999 V2000
   -1.7073   -0.1123   -0.0980 C   0  0  0  0  0  0  0  0  0  0  0  0
   -3.0682   -0.3018   -0.0082 N   0  0  0  0  0  0  0  0  0  0  0  0
   -4.1813   -0.4201    0.0499 N   0  0  0  0  0  0  0  0  0  0  0  0
   -1.3129    1.1900   -0.4911 C   0  0  0  0  0  0  0  0  0  0  0  0
    0.0880    1.2765   -0.5586 C   0  0  0  0  0  0  0  0  0  0  0  0
    0.9583    0.2118   -0.2734 C   0  0  0  0  0  0  0  0  0  0  0  0
    2.2814    0.4724   -0.3909 O   0  0  0  0  0  0  0  0  0  0  0  0
    3.2306   -0.5547   -0.1259 C   0  0  0  0  0  0  0  0  0  0  0  0
    0.4598   -1.0639    0.1160 C   0  0  0  0  0  0  0  0  0  0  0  0
   -0.9007   -1.2406    0.2080 C   0  0  0  0  0  0  0  0  0  0  0  0
   -3.3301    3.4890   -0.9147 H   0  0  0  0  0  0  0  0  0  0  0  0
    0.5695    2.2107   -0.8478 H   0  0  0  0  0  0  0  0  0  0  0  0
    4.2097   -0.1050   -0.2951 H   0  0  0  0  0  0  0  0  0  0  0  0
    3.1032   -1.4064   -0.8046 H   0  0  0  0  0  0  0  0  0  0  0  0
    3.1690   -0.9029    0.9121 H   0  0  0  0  0  0  0  0  0  0  0  0
    1.1273   -1.8865    0.3385 H   0  0  0  0  0  0  0  0  0  0  0  0
   -1.3278   -2.1961    0.5022 H   0  0  0  0  0  0  0  0  0  0  0  0
   -5.0655    3.7354    0.3149 S   0  0  0  0  0  0  0  0  0  0  0  0
   -4.0412    4.1564   -0.8564 O   0  0  0  0  0  0  0  0  0  0  0  0
   -6.2079    4.6124    0.1660 O   0  0  0  0  0  0  0  0  0  0  0  0
   -5.1665    2.2925    0.3871 O   0  0  0  0  0  0  0  0  0  0  0  0
   -4.2494    4.1739    1.6544 O   0  0  0  0  0  0  0  0  0  0  0  0
   -4.3807    5.1291    1.7795 H   0  0  0  0  0  0  0  0  0  0  0  0
  1  2  1  0  0  0  0
  1 10  2  0  0  0  0
  2  3  1  0  0  0  0
  4  1  1  0  0  0  0
  5  4  2  0  0  0  0
  5  6  1  0  0  0  0
  6  9  2  0  0  0  0
  7  6  1  0  0  0  0
  7  8  1  0  0  0  0
  8 15  1  0  0  0  0
  9 10  1  0  0  0  0
  9 16  1  0  0  0  0
 10 17  1  0  0  0  0
 11 19  1  0  0  0  0
 12  5  1  0  0  0  0
 13  8  1  0  0  0  0
 14  8  1  0  0  0  0
 18 21  2  0  0  0  0
 18 22  1  0  0  0  0
 19 18  1  0  0  0  0
 20 18  2  0  0  0  0
 22 23  1  0  0  0  0
M  RAD  3   2   2   3   3   4   2
M  END
