Coordinates from ORCA-job 4-MeOPhN2+~HSO4-_B3LYPG-6-31G_dp-CH-Scan-d09-49-n800
 OpenBabel11261919063D

 23 22  0  0  0  0  0  0  0  0999 V2000
   -1.8794   -0.0769   -0.0529 C   0  0  0  0  0  0  0  0  0  0  0  0
   -3.2271   -0.3290    0.0356 N   0  0  0  0  0  0  0  0  0  0  0  0
   -4.3304   -0.5083    0.1000 N   0  0  0  0  0  0  0  0  0  0  0  0
   -1.5127    1.2589   -0.3554 C   0  0  0  0  0  0  0  0  0  0  0  0
   -0.1211    1.3987   -0.4287 C   0  0  0  0  0  0  0  0  0  0  0  0
    0.7851    0.3430   -0.2276 C   0  0  0  0  0  0  0  0  0  0  0  0
    2.0941    0.6539   -0.3395 O   0  0  0  0  0  0  0  0  0  0  0  0
    3.0806   -0.3587   -0.1624 C   0  0  0  0  0  0  0  0  0  0  0  0
    0.3266   -0.9686    0.0743 C   0  0  0  0  0  0  0  0  0  0  0  0
   -1.0277   -1.1912    0.1641 C   0  0  0  0  0  0  0  0  0  0  0  0
   -2.8635    2.8813   -0.6495 H   0  0  0  0  0  0  0  0  0  0  0  0
    0.3231    2.3665   -0.6558 H   0  0  0  0  0  0  0  0  0  0  0  0
    4.0412    0.1351   -0.3108 H   0  0  0  0  0  0  0  0  0  0  0  0
    2.9687   -1.1615   -0.9007 H   0  0  0  0  0  0  0  0  0  0  0  0
    3.0447   -0.7819    0.8482 H   0  0  0  0  0  0  0  0  0  0  0  0
    1.0182   -1.7859    0.2330 H   0  0  0  0  0  0  0  0  0  0  0  0
   -1.4222   -2.1772    0.3939 H   0  0  0  0  0  0  0  0  0  0  0  0
   -4.7106    3.5628    0.2324 S   0  0  0  0  0  0  0  0  0  0  0  0
   -3.4894    3.6604   -0.7795 O   0  0  0  0  0  0  0  0  0  0  0  0
   -5.6837    4.5535   -0.1867 O   0  0  0  0  0  0  0  0  0  0  0  0
   -5.0630    2.1741    0.4719 O   0  0  0  0  0  0  0  0  0  0  0  0
   -4.0516    4.0696    1.6406 O   0  0  0  0  0  0  0  0  0  0  0  0
   -4.0423    5.0411    1.6194 H   0  0  0  0  0  0  0  0  0  0  0  0
  1  2  1  0  0  0  0
  1 10  2  0  0  0  0
  2  3  1  0  0  0  0
  4  1  1  0  0  0  0
  5  4  2  0  0  0  0
  5  6  1  0  0  0  0
  6  9  2  0  0  0  0
  7  6  1  0  0  0  0
  7  8  1  0  0  0  0
  8 15  1  0  0  0  0
  9 10  1  0  0  0  0
  9 16  1  0  0  0  0
 10 17  1  0  0  0  0
 12  5  1  0  0  0  0
 13  8  1  0  0  0  0
 14  8  1  0  0  0  0
 18 21  2  0  0  0  0
 18 22  1  0  0  0  0
 19 11  1  0  0  0  0
 19 18  1  0  0  0  0
 20 18  2  0  0  0  0
 23 22  1  0  0  0  0
M  RAD  3   2   2   3   3   4   2
M  END
