Coordinates from ORCA-job 4-MeOPhN2+~HSO4-_B3LYPG-6-31G_dp-CH-Scan-d09-49-n800
 OpenBabel11261919053D

 23 22  0  0  0  0  0  0  0  0999 V2000
   -1.9537    0.3934   -0.2148 C   0  0  0  0  0  0  0  0  0  0  0  0
   -3.3269    0.3417   -0.2077 N   0  0  0  0  0  0  0  0  0  0  0  0
   -4.4466    0.2762   -0.2487 N   0  0  0  0  0  0  0  0  0  0  0  0
   -1.2893    1.6205   -0.4398 C   0  0  0  0  0  0  0  0  0  0  0  0
    0.0896    1.5992   -0.4642 C   0  0  0  0  0  0  0  0  0  0  0  0
    0.8054    0.4021   -0.2521 C   0  0  0  0  0  0  0  0  0  0  0  0
    2.1420    0.5148   -0.2869 O   0  0  0  0  0  0  0  0  0  0  0  0
    2.9539   -0.6404   -0.0698 C   0  0  0  0  0  0  0  0  0  0  0  0
    0.1188   -0.8100   -0.0257 C   0  0  0  0  0  0  0  0  0  0  0  0
   -1.2647   -0.8156   -0.0133 C   0  0  0  0  0  0  0  0  0  0  0  0
   -1.8255    2.4885   -0.5828 H   0  0  0  0  0  0  0  0  0  0  0  0
    0.6496    2.5113   -0.6361 H   0  0  0  0  0  0  0  0  0  0  0  0
    3.9839   -0.2915   -0.1382 H   0  0  0  0  0  0  0  0  0  0  0  0
    2.7736   -1.4009   -0.8376 H   0  0  0  0  0  0  0  0  0  0  0  0
    2.7782   -1.0659    0.9246 H   0  0  0  0  0  0  0  0  0  0  0  0
    0.6543   -1.7361    0.1376 H   0  0  0  0  0  0  0  0  0  0  0  0
   -1.8145   -1.7346    0.1575 H   0  0  0  0  0  0  0  0  0  0  0  0
   -4.2274    3.3070    0.3638 S   0  0  0  0  0  0  0  0  0  0  0  0
   -3.4716    3.9365   -0.7322 O   0  0  0  0  0  0  0  0  0  0  0  0
   -5.3856    2.4638   -0.0681 O   0  0  0  0  0  0  0  0  0  0  0  0
   -3.3798    2.5864    1.3515 O   0  0  0  0  0  0  0  0  0  0  0  0
   -4.8891    4.5923    1.1613 O   0  0  0  0  0  0  0  0  0  0  0  0
   -5.4171    4.2208    1.8856 H   0  0  0  0  0  0  0  0  0  0  0  0
  1  2  1  0  0  0  0
  1 10  2  0  0  0  0
  3  2  1  0  0  0  0
  4  1  1  0  0  0  0
  5  4  2  0  0  0  0
  5  6  1  0  0  0  0
  6  9  2  0  0  0  0
  7  6  1  0  0  0  0
  7  8  1  0  0  0  0
  8 15  1  0  0  0  0
  9 10  1  0  0  0  0
  9 16  1  0  0  0  0
 10 17  1  0  0  0  0
 11  4  1  0  0  0  0
 12  5  1  0  0  0  0
 13  8  1  0  0  0  0
 14  8  1  0  0  0  0
 18 22  1  0  0  0  0
 18 21  1  0  0  0  0
 19 18  2  0  0  0  0
 20 18  2  0  0  0  0
 22 23  1  0  0  0  0
M  RAD  3   2   2   3   3  21   2
M  END
