Coordinates from ORCA-job 4-MeOPhN2+~HSO4-_B3LYPG-6-31G_dp-CH-Scan-d09-49-n800
 OpenBabel11261919063D

 23 22  0  0  0  0  0  0  0  0999 V2000
   -1.7163   -0.1121   -0.0981 C   0  0  0  0  0  0  0  0  0  0  0  0
   -3.0764   -0.3052   -0.0091 N   0  0  0  0  0  0  0  0  0  0  0  0
   -4.1892   -0.4261    0.0497 N   0  0  0  0  0  0  0  0  0  0  0  0
   -1.3239    1.1921   -0.4878 C   0  0  0  0  0  0  0  0  0  0  0  0
    0.0766    1.2818   -0.5544 C   0  0  0  0  0  0  0  0  0  0  0  0
    0.9491    0.2183   -0.2716 C   0  0  0  0  0  0  0  0  0  0  0  0
    2.2716    0.4821   -0.3879 O   0  0  0  0  0  0  0  0  0  0  0  0
    3.2230   -0.5435   -0.1253 C   0  0  0  0  0  0  0  0  0  0  0  0
    0.4532   -1.0594    0.1142 C   0  0  0  0  0  0  0  0  0  0  0  0
   -0.9070   -1.2393    0.2051 C   0  0  0  0  0  0  0  0  0  0  0  0
   -3.3093    3.4595   -0.9068 H   0  0  0  0  0  0  0  0  0  0  0  0
    0.5561    2.2178   -0.8409 H   0  0  0  0  0  0  0  0  0  0  0  0
    4.2012   -0.0911   -0.2930 H   0  0  0  0  0  0  0  0  0  0  0  0
    3.0978   -1.3936   -0.8063 H   0  0  0  0  0  0  0  0  0  0  0  0
    3.1619   -0.8945    0.9118 H   0  0  0  0  0  0  0  0  0  0  0  0
    1.1223   -1.8812    0.3349 H   0  0  0  0  0  0  0  0  0  0  0  0
   -1.3321   -2.1964    0.4967 H   0  0  0  0  0  0  0  0  0  0  0  0
   -5.0487    3.7275    0.3135 S   0  0  0  0  0  0  0  0  0  0  0  0
   -4.0169    4.1320   -0.8564 O   0  0  0  0  0  0  0  0  0  0  0  0
   -6.1831    4.6134    0.1559 O   0  0  0  0  0  0  0  0  0  0  0  0
   -5.1631    2.2862    0.3944 O   0  0  0  0  0  0  0  0  0  0  0  0
   -4.2334    4.1670    1.6535 O   0  0  0  0  0  0  0  0  0  0  0  0
   -4.3560    5.1242    1.7717 H   0  0  0  0  0  0  0  0  0  0  0  0
  1  2  1  0  0  0  0
  1 10  2  0  0  0  0
  2  3  1  0  0  0  0
  4  1  1  0  0  0  0
  5  4  2  0  0  0  0
  5  6  1  0  0  0  0
  6  9  2  0  0  0  0
  7  6  1  0  0  0  0
  7  8  1  0  0  0  0
  8 15  1  0  0  0  0
  9 10  1  0  0  0  0
  9 16  1  0  0  0  0
 10 17  1  0  0  0  0
 11 19  1  0  0  0  0
 12  5  1  0  0  0  0
 13  8  1  0  0  0  0
 14  8  1  0  0  0  0
 18 21  2  0  0  0  0
 18 22  1  0  0  0  0
 19 18  1  0  0  0  0
 20 18  2  0  0  0  0
 22 23  1  0  0  0  0
M  RAD  3   2   2   3   3   4   2
M  END
