Coordinates from ORCA-job 4-MeOPhN2+~HSO4-_B3LYPG-6-31G_dp-CH-Scan-d09-49-n800
 OpenBabel11261919063D

 23 22  0  0  0  0  0  0  0  0999 V2000
   -1.5534   -0.1225   -0.1289 C   0  0  0  0  0  0  0  0  0  0  0  0
   -2.9233   -0.2488   -0.0348 N   0  0  0  0  0  0  0  0  0  0  0  0
   -4.0421   -0.3058    0.0210 N   0  0  0  0  0  0  0  0  0  0  0  0
   -1.1211    1.1420   -0.5958 C   0  0  0  0  0  0  0  0  0  0  0  0
    0.2851    1.1696   -0.6635 C   0  0  0  0  0  0  0  0  0  0  0  0
    1.1158    0.0936   -0.3143 C   0  0  0  0  0  0  0  0  0  0  0  0
    2.4498    0.2983   -0.4416 O   0  0  0  0  0  0  0  0  0  0  0  0
    3.3590   -0.7446   -0.1110 C   0  0  0  0  0  0  0  0  0  0  0  0
    0.5726   -1.1402    0.1474 C   0  0  0  0  0  0  0  0  0  0  0  0
   -0.7933   -1.2628    0.2457 C   0  0  0  0  0  0  0  0  0  0  0  0
   -3.7367    4.0120   -1.0426 H   0  0  0  0  0  0  0  0  0  0  0  0
    0.8025    2.0673   -1.0047 H   0  0  0  0  0  0  0  0  0  0  0  0
    4.3552   -0.3411   -0.2978 H   0  0  0  0  0  0  0  0  0  0  0  0
    3.2061   -1.6292   -0.7406 H   0  0  0  0  0  0  0  0  0  0  0  0
    3.2795   -1.0311    0.9448 H   0  0  0  0  0  0  0  0  0  0  0  0
    1.2109   -1.9712    0.4187 H   0  0  0  0  0  0  0  0  0  0  0  0
   -1.2556   -2.1839    0.5928 H   0  0  0  0  0  0  0  0  0  0  0  0
   -5.3482    3.8679    0.3617 S   0  0  0  0  0  0  0  0  0  0  0  0
   -4.5136    4.5624   -0.8404 O   0  0  0  0  0  0  0  0  0  0  0  0
   -6.6251    4.5481    0.3862 O   0  0  0  0  0  0  0  0  0  0  0  0
   -5.1966    2.4311    0.2851 O   0  0  0  0  0  0  0  0  0  0  0  0
   -4.4926    4.3253    1.6677 O   0  0  0  0  0  0  0  0  0  0  0  0
   -4.7772    5.2234    1.9086 H   0  0  0  0  0  0  0  0  0  0  0  0
  1  2  1  0  0  0  0
  1 10  2  0  0  0  0
  2  3  1  0  0  0  0
  4  1  1  0  0  0  0
  5  4  2  0  0  0  0
  5  6  1  0  0  0  0
  6  9  2  0  0  0  0
  7  6  1  0  0  0  0
  7  8  1  0  0  0  0
  8 15  1  0  0  0  0
  9 10  1  0  0  0  0
  9 16  1  0  0  0  0
 10 17  1  0  0  0  0
 11 19  1  0  0  0  0
 12  5  1  0  0  0  0
 13  8  1  0  0  0  0
 14  8  1  0  0  0  0
 18 20  2  0  0  0  0
 18 22  1  0  0  0  0
 19 18  1  0  0  0  0
 21 18  2  0  0  0  0
 22 23  1  0  0  0  0
M  RAD  3   2   2   3   3   4   2
M  END
