Coordinates from ORCA-job 4-MeOPhN2+~HSO4-_B3LYPG-6-31G_dp-CH-Scan-d09-49-n800
 OpenBabel11261919063D

 23 22  0  0  0  0  0  0  0  0999 V2000
   -1.8868   -0.0760   -0.0552 C   0  0  0  0  0  0  0  0  0  0  0  0
   -3.2340   -0.3309    0.0307 N   0  0  0  0  0  0  0  0  0  0  0  0
   -4.3369   -0.5128    0.0931 N   0  0  0  0  0  0  0  0  0  0  0  0
   -1.5206    1.2611   -0.3531 C   0  0  0  0  0  0  0  0  0  0  0  0
   -0.1294    1.4032   -0.4247 C   0  0  0  0  0  0  0  0  0  0  0  0
    0.7780    0.3480   -0.2260 C   0  0  0  0  0  0  0  0  0  0  0  0
    2.0865    0.6609   -0.3360 O   0  0  0  0  0  0  0  0  0  0  0  0
    3.0742   -0.3510   -0.1614 C   0  0  0  0  0  0  0  0  0  0  0  0
    0.3207   -0.9649    0.0714 C   0  0  0  0  0  0  0  0  0  0  0  0
   -1.0334   -1.1894    0.1591 C   0  0  0  0  0  0  0  0  0  0  0  0
   -2.8465    2.8532   -0.6386 H   0  0  0  0  0  0  0  0  0  0  0  0
    0.3133    2.3723   -0.6484 H   0  0  0  0  0  0  0  0  0  0  0  0
    4.0343    0.1446   -0.3077 H   0  0  0  0  0  0  0  0  0  0  0  0
    2.9638   -1.1516   -0.9022 H   0  0  0  0  0  0  0  0  0  0  0  0
    3.0383   -0.7772    0.8480 H   0  0  0  0  0  0  0  0  0  0  0  0
    1.0131   -1.7819    0.2284 H   0  0  0  0  0  0  0  0  0  0  0  0
   -1.4268   -2.1766    0.3855 H   0  0  0  0  0  0  0  0  0  0  0  0
   -4.6932    3.5538    0.2353 S   0  0  0  0  0  0  0  0  0  0  0  0
   -3.4710    3.6368   -0.7741 O   0  0  0  0  0  0  0  0  0  0  0  0
   -5.6671    4.5381   -0.1978 O   0  0  0  0  0  0  0  0  0  0  0  0
   -5.0465    2.1683    0.4938 O   0  0  0  0  0  0  0  0  0  0  0  0
   -4.0384    4.0804    1.6386 O   0  0  0  0  0  0  0  0  0  0  0  0
   -4.0339    5.0515    1.6052 H   0  0  0  0  0  0  0  0  0  0  0  0
  1  2  1  0  0  0  0
  1 10  2  0  0  0  0
  2  3  1  0  0  0  0
  4  1  1  0  0  0  0
  5  4  2  0  0  0  0
  5  6  1  0  0  0  0
  6  9  2  0  0  0  0
  7  6  1  0  0  0  0
  7  8  1  0  0  0  0
  8 15  1  0  0  0  0
  9 10  1  0  0  0  0
  9 16  1  0  0  0  0
 10 17  1  0  0  0  0
 12  5  1  0  0  0  0
 13  8  1  0  0  0  0
 14  8  1  0  0  0  0
 18 21  2  0  0  0  0
 18 22  1  0  0  0  0
 19 11  1  0  0  0  0
 19 18  1  0  0  0  0
 20 18  2  0  0  0  0
 23 22  1  0  0  0  0
M  RAD  3   2   2   3   3   4   2
M  END
