Coordinates from ORCA-job 4-MeOPhN2+~HSO4-_B3LYPG-6-31G_dp-CH-Scan-d09-49-n800
 OpenBabel11261919063D

 23 22  0  0  0  0  0  0  0  0999 V2000
   -1.5114   -0.1239   -0.1527 C   0  0  0  0  0  0  0  0  0  0  0  0
   -2.8834   -0.2317   -0.0615 N   0  0  0  0  0  0  0  0  0  0  0  0
   -4.0032   -0.2724   -0.0090 N   0  0  0  0  0  0  0  0  0  0  0  0
   -1.0653    1.1240   -0.6494 C   0  0  0  0  0  0  0  0  0  0  0  0
    0.3416    1.1352   -0.7127 C   0  0  0  0  0  0  0  0  0  0  0  0
    1.1597    0.0600   -0.3332 C   0  0  0  0  0  0  0  0  0  0  0  0
    2.4965    0.2479   -0.4598 O   0  0  0  0  0  0  0  0  0  0  0  0
    3.3936   -0.7950   -0.0980 C   0  0  0  0  0  0  0  0  0  0  0  0
    0.6022   -1.1563    0.1572 C   0  0  0  0  0  0  0  0  0  0  0  0
   -0.7652   -1.2626    0.2535 C   0  0  0  0  0  0  0  0  0  0  0  0
   -3.8507    4.1249   -1.0517 H   0  0  0  0  0  0  0  0  0  0  0  0
    0.8695    2.0188   -1.0743 H   0  0  0  0  0  0  0  0  0  0  0  0
    4.3947   -0.4058   -0.2890 H   0  0  0  0  0  0  0  0  0  0  0  0
    3.2360   -1.6936   -0.7065 H   0  0  0  0  0  0  0  0  0  0  0  0
    3.3055   -1.0545    0.9640 H   0  0  0  0  0  0  0  0  0  0  0  0
    1.2311   -1.9867    0.4515 H   0  0  0  0  0  0  0  0  0  0  0  0
   -1.2383   -2.1702    0.6212 H   0  0  0  0  0  0  0  0  0  0  0  0
   -5.4246    3.9050    0.3847 S   0  0  0  0  0  0  0  0  0  0  0  0
   -4.6365    4.6501   -0.8200 O   0  0  0  0  0  0  0  0  0  0  0  0
   -6.7271    4.5328    0.4390 O   0  0  0  0  0  0  0  0  0  0  0  0
   -5.2147    2.4772    0.2822 O   0  0  0  0  0  0  0  0  0  0  0  0
   -4.5673    4.3777    1.6837 O   0  0  0  0  0  0  0  0  0  0  0  0
   -4.8854    5.2589    1.9445 H   0  0  0  0  0  0  0  0  0  0  0  0
  1  2  1  0  0  0  0
  1 10  2  0  0  0  0
  2  3  1  0  0  0  0
  4  1  1  0  0  0  0
  5  4  2  0  0  0  0
  5  6  1  0  0  0  0
  6  9  2  0  0  0  0
  7  6  1  0  0  0  0
  7  8  1  0  0  0  0
  8 15  1  0  0  0  0
  9 10  1  0  0  0  0
  9 16  1  0  0  0  0
 10 17  1  0  0  0  0
 11 19  1  0  0  0  0
 12  5  1  0  0  0  0
 13  8  1  0  0  0  0
 14  8  1  0  0  0  0
 18 20  2  0  0  0  0
 18 22  1  0  0  0  0
 19 18  1  0  0  0  0
 21 18  2  0  0  0  0
 22 23  1  0  0  0  0
M  RAD  3   2   2   3   3   4   2
M  END
