Coordinates from ORCA-job 4-MeOPhN2+~HSO4-_B3LYPG-6-31G_dp-CH-Scan-d09-49-n800
 OpenBabel11261919063D

 23 22  0  0  0  0  0  0  0  0999 V2000
   -1.6892   -0.1136   -0.0975 C   0  0  0  0  0  0  0  0  0  0  0  0
   -3.0511   -0.2962   -0.0058 N   0  0  0  0  0  0  0  0  0  0  0  0
   -4.1650   -0.4080    0.0523 N   0  0  0  0  0  0  0  0  0  0  0  0
   -1.2910    1.1853   -0.4975 C   0  0  0  0  0  0  0  0  0  0  0  0
    0.1106    1.2650   -0.5667 C   0  0  0  0  0  0  0  0  0  0  0  0
    0.9767    0.1983   -0.2770 C   0  0  0  0  0  0  0  0  0  0  0  0
    2.3011    0.4526   -0.3972 O   0  0  0  0  0  0  0  0  0  0  0  0
    3.2459   -0.5772   -0.1279 C   0  0  0  0  0  0  0  0  0  0  0  0
    0.4735   -1.0735    0.1195 C   0  0  0  0  0  0  0  0  0  0  0  0
   -0.8875   -1.2442    0.2137 C   0  0  0  0  0  0  0  0  0  0  0  0
   -3.3706    3.5491   -0.9293 H   0  0  0  0  0  0  0  0  0  0  0  0
    0.5961    2.1957   -0.8610 H   0  0  0  0  0  0  0  0  0  0  0  0
    4.2269   -0.1328   -0.3001 H   0  0  0  0  0  0  0  0  0  0  0  0
    3.1143   -1.4318   -0.8021 H   0  0  0  0  0  0  0  0  0  0  0  0
    3.1838   -0.9201    0.9119 H   0  0  0  0  0  0  0  0  0  0  0  0
    1.1380   -1.8976    0.3455 H   0  0  0  0  0  0  0  0  0  0  0  0
   -1.3185   -2.1964    0.5132 H   0  0  0  0  0  0  0  0  0  0  0  0
   -5.0997    3.7521    0.3171 S   0  0  0  0  0  0  0  0  0  0  0  0
   -4.0885    4.2063   -0.8549 O   0  0  0  0  0  0  0  0  0  0  0  0
   -6.2580    4.6104    0.1843 O   0  0  0  0  0  0  0  0  0  0  0  0
   -5.1729    2.3069    0.3707 O   0  0  0  0  0  0  0  0  0  0  0  0
   -4.2839    4.1893    1.6569 O   0  0  0  0  0  0  0  0  0  0  0  0
   -4.4336    5.1400    1.7958 H   0  0  0  0  0  0  0  0  0  0  0  0
  1  2  1  0  0  0  0
  1 10  2  0  0  0  0
  2  3  1  0  0  0  0
  4  1  1  0  0  0  0
  5  4  2  0  0  0  0
  5  6  1  0  0  0  0
  6  9  2  0  0  0  0
  7  6  1  0  0  0  0
  7  8  1  0  0  0  0
  8 15  1  0  0  0  0
  9 10  1  0  0  0  0
  9 16  1  0  0  0  0
 10 17  1  0  0  0  0
 11 19  1  0  0  0  0
 12  5  1  0  0  0  0
 13  8  1  0  0  0  0
 14  8  1  0  0  0  0
 18 21  2  0  0  0  0
 18 22  1  0  0  0  0
 19 18  1  0  0  0  0
 20 18  2  0  0  0  0
 22 23  1  0  0  0  0
M  RAD  3   2   2   3   3   4   2
M  END
