Coordinates from ORCA-job 4-MeOPhN2+~HSO4-_B3LYPG-6-31G_dp-CH-Scan-d09-49-n800
 OpenBabel11261919063D

 23 22  0  0  0  0  0  0  0  0999 V2000
   -1.8056   -0.0966   -0.0862 C   0  0  0  0  0  0  0  0  0  0  0  0
   -3.1596   -0.3222   -0.0020 N   0  0  0  0  0  0  0  0  0  0  0  0
   -4.2678   -0.4758    0.0560 N   0  0  0  0  0  0  0  0  0  0  0  0
   -1.4284    1.2244   -0.4338 C   0  0  0  0  0  0  0  0  0  0  0  0
   -0.0323    1.3435   -0.4987 C   0  0  0  0  0  0  0  0  0  0  0  0
    0.8590    0.2862   -0.2502 C   0  0  0  0  0  0  0  0  0  0  0  0
    2.1747    0.5772   -0.3593 O   0  0  0  0  0  0  0  0  0  0  0  0
    3.1458   -0.4393   -0.1316 C   0  0  0  0  0  0  0  0  0  0  0  0
    0.3842   -1.0100    0.0948 C   0  0  0  0  0  0  0  0  0  0  0  0
   -0.9729   -1.2154    0.1800 C   0  0  0  0  0  0  0  0  0  0  0  0
   -3.0854    3.1580   -0.7964 H   0  0  0  0  0  0  0  0  0  0  0  0
    0.4284    2.2966   -0.7559 H   0  0  0  0  0  0  0  0  0  0  0  0
    4.1147    0.0364   -0.2869 H   0  0  0  0  0  0  0  0  0  0  0  0
    3.0333   -1.2690   -0.8394 H   0  0  0  0  0  0  0  0  0  0  0  0
    3.0934   -0.8235    0.8939 H   0  0  0  0  0  0  0  0  0  0  0  0
    1.0664   -1.8275    0.2896 H   0  0  0  0  0  0  0  0  0  0  0  0
   -1.3808   -2.1883    0.4415 H   0  0  0  0  0  0  0  0  0  0  0  0
   -4.8726    3.6381    0.2859 S   0  0  0  0  0  0  0  0  0  0  0  0
   -3.7580    3.8778   -0.8407 O   0  0  0  0  0  0  0  0  0  0  0  0
   -5.9283    4.5921    0.0130 O   0  0  0  0  0  0  0  0  0  0  0  0
   -5.1124    2.2190    0.4607 O   0  0  0  0  0  0  0  0  0  0  0  0
   -4.0994    4.1038    1.6448 O   0  0  0  0  0  0  0  0  0  0  0  0
   -4.1390    5.0743    1.6849 H   0  0  0  0  0  0  0  0  0  0  0  0
  1  2  1  0  0  0  0
  1 10  2  0  0  0  0
  2  3  1  0  0  0  0
  4  1  1  0  0  0  0
  5  4  2  0  0  0  0
  5  6  1  0  0  0  0
  6  9  2  0  0  0  0
  7  6  1  0  0  0  0
  7  8  1  0  0  0  0
  8 15  1  0  0  0  0
  9 10  1  0  0  0  0
  9 16  1  0  0  0  0
 10 17  1  0  0  0  0
 12  5  1  0  0  0  0
 13  8  1  0  0  0  0
 14  8  1  0  0  0  0
 18 21  2  0  0  0  0
 18 22  1  0  0  0  0
 19 11  1  0  0  0  0
 19 18  1  0  0  0  0
 20 18  2  0  0  0  0
 22 23  1  0  0  0  0
M  RAD  3   2   2   3   3   4   2
M  END
