Coordinates from ORCA-job 4-MeOPhN2+~HSO4-_B3LYPG-6-31G_dp-CH-Scan-d09-49-n800
 OpenBabel11261919063D

 23 22  0  0  0  0  0  0  0  0999 V2000
   -1.5213   -0.1246   -0.1479 C   0  0  0  0  0  0  0  0  0  0  0  0
   -2.8929   -0.2370   -0.0560 N   0  0  0  0  0  0  0  0  0  0  0  0
   -4.0125   -0.2818   -0.0040 N   0  0  0  0  0  0  0  0  0  0  0  0
   -1.0788    1.1270   -0.6387 C   0  0  0  0  0  0  0  0  0  0  0  0
    0.3280    1.1424   -0.7027 C   0  0  0  0  0  0  0  0  0  0  0  0
    1.1493    0.0675   -0.3292 C   0  0  0  0  0  0  0  0  0  0  0  0
    2.4854    0.2596   -0.4559 O   0  0  0  0  0  0  0  0  0  0  0  0
    3.3856   -0.7828   -0.1003 C   0  0  0  0  0  0  0  0  0  0  0  0
    0.5954   -1.1527    0.1554 C   0  0  0  0  0  0  0  0  0  0  0  0
   -0.7716   -1.2632    0.2519 C   0  0  0  0  0  0  0  0  0  0  0  0
   -3.8245    4.1016   -1.0501 H   0  0  0  0  0  0  0  0  0  0  0  0
    0.8533    2.0292   -1.0603 H   0  0  0  0  0  0  0  0  0  0  0  0
    4.3855   -0.3901   -0.2905 H   0  0  0  0  0  0  0  0  0  0  0  0
    3.2295   -1.6787   -0.7130 H   0  0  0  0  0  0  0  0  0  0  0  0
    3.2993   -1.0477    0.9605 H   0  0  0  0  0  0  0  0  0  0  0  0
    1.2267   -1.9829    0.4452 H   0  0  0  0  0  0  0  0  0  0  0  0
   -1.2420   -2.1738    0.6156 H   0  0  0  0  0  0  0  0  0  0  0  0
   -5.4064    3.8968    0.3798 S   0  0  0  0  0  0  0  0  0  0  0  0
   -4.6086    4.6320   -0.8242 O   0  0  0  0  0  0  0  0  0  0  0  0
   -6.7038    4.5356    0.4283 O   0  0  0  0  0  0  0  0  0  0  0  0
   -5.2086    2.4669    0.2822 O   0  0  0  0  0  0  0  0  0  0  0  0
   -4.5493    4.3658    1.6804 O   0  0  0  0  0  0  0  0  0  0  0  0
   -4.8602    5.2506    1.9373 H   0  0  0  0  0  0  0  0  0  0  0  0
  1  2  1  0  0  0  0
  1 10  2  0  0  0  0
  2  3  1  0  0  0  0
  4  1  1  0  0  0  0
  5  4  2  0  0  0  0
  5  6  1  0  0  0  0
  6  9  2  0  0  0  0
  7  6  1  0  0  0  0
  7  8  1  0  0  0  0
  8 15  1  0  0  0  0
  9 10  1  0  0  0  0
  9 16  1  0  0  0  0
 10 17  1  0  0  0  0
 11 19  1  0  0  0  0
 12  5  1  0  0  0  0
 13  8  1  0  0  0  0
 14  8  1  0  0  0  0
 18 20  2  0  0  0  0
 18 22  1  0  0  0  0
 19 18  1  0  0  0  0
 21 18  2  0  0  0  0
 22 23  1  0  0  0  0
M  RAD  3   2   2   3   3   4   2
M  END
