Coordinates from ORCA-job 4-MeOPhN2+~HSO4-_B3LYPG-6-31G_dp-CH-Scan-d09-49-n800
 OpenBabel11261919063D

 23 22  0  0  0  0  0  0  0  0999 V2000
   -1.4082   -0.1187   -0.1993 C   0  0  0  0  0  0  0  0  0  0  0  0
   -2.7836   -0.1793   -0.1097 N   0  0  0  0  0  0  0  0  0  0  0  0
   -3.9048   -0.1780   -0.0651 N   0  0  0  0  0  0  0  0  0  0  0  0
   -0.9279    1.0872   -0.7622 C   0  0  0  0  0  0  0  0  0  0  0  0
    0.4794    1.0566   -0.8198 C   0  0  0  0  0  0  0  0  0  0  0  0
    1.2662   -0.0174   -0.3768 C   0  0  0  0  0  0  0  0  0  0  0  0
    2.6083    0.1268   -0.5063 O   0  0  0  0  0  0  0  0  0  0  0  0
    3.4756   -0.9169   -0.0802 C   0  0  0  0  0  0  0  0  0  0  0  0
    0.6740   -1.1894    0.1774 C   0  0  0  0  0  0  0  0  0  0  0  0
   -0.6961   -1.2536    0.2731 C   0  0  0  0  0  0  0  0  0  0  0  0
   -4.0831    4.3333   -1.0257 H   0  0  0  0  0  0  0  0  0  0  0  0
    1.0324    1.9043   -1.2273 H   0  0  0  0  0  0  0  0  0  0  0  0
    4.4876   -0.5654   -0.2864 H   0  0  0  0  0  0  0  0  0  0  0  0
    3.2978   -1.8442   -0.6379 H   0  0  0  0  0  0  0  0  0  0  0  0
    3.3752   -1.1135    0.9942 H   0  0  0  0  0  0  0  0  0  0  0  0
    1.2792   -2.0189    0.5202 H   0  0  0  0  0  0  0  0  0  0  0  0
   -1.1951   -2.1267    0.6874 H   0  0  0  0  0  0  0  0  0  0  0  0
   -5.6197    3.9974    0.4269 S   0  0  0  0  0  0  0  0  0  0  0  0
   -4.8837    4.8195   -0.7623 O   0  0  0  0  0  0  0  0  0  0  0  0
   -6.9564    4.5452    0.5057 O   0  0  0  0  0  0  0  0  0  0  0  0
   -5.3233    2.5888    0.2821 O   0  0  0  0  0  0  0  0  0  0  0  0
   -4.7824    4.4860    1.7329 O   0  0  0  0  0  0  0  0  0  0  0  0
   -5.1538    5.3367    2.0230 H   0  0  0  0  0  0  0  0  0  0  0  0
  1  2  1  0  0  0  0
  1 10  2  0  0  0  0
  2  3  1  0  0  0  0
  4  1  1  0  0  0  0
  5  4  2  0  0  0  0
  5  6  1  0  0  0  0
  6  9  2  0  0  0  0
  7  6  1  0  0  0  0
  7  8  1  0  0  0  0
  8 15  1  0  0  0  0
  9 10  1  0  0  0  0
  9 16  1  0  0  0  0
 10 17  1  0  0  0  0
 11 19  1  0  0  0  0
 12  5  1  0  0  0  0
 13  8  1  0  0  0  0
 14  8  1  0  0  0  0
 18 20  2  0  0  0  0
 18 22  1  0  0  0  0
 19 18  1  0  0  0  0
 21 18  2  0  0  0  0
 22 23  1  0  0  0  0
M  RAD  3   2   2   3   3   4   2
M  END
