Coordinates from ORCA-job 4-MeOPhN2+~HSO4-_B3LYPG-6-31G_dp-CH-Scan-d09-49-n800
 OpenBabel11261919063D

 23 22  0  0  0  0  0  0  0  0999 V2000
   -1.3673   -0.1090   -0.2295 C   0  0  0  0  0  0  0  0  0  0  0  0
   -2.7440   -0.1469   -0.1447 N   0  0  0  0  0  0  0  0  0  0  0  0
   -3.8653   -0.1259   -0.1062 N   0  0  0  0  0  0  0  0  0  0  0  0
   -0.8694    1.0722   -0.8277 C   0  0  0  0  0  0  0  0  0  0  0  0
    0.5377    1.0216   -0.8784 C   0  0  0  0  0  0  0  0  0  0  0  0
    1.3084   -0.0483   -0.3987 C   0  0  0  0  0  0  0  0  0  0  0  0
    2.6528    0.0739   -0.5274 O   0  0  0  0  0  0  0  0  0  0  0  0
    3.5046   -0.9664   -0.0638 C   0  0  0  0  0  0  0  0  0  0  0  0
    0.6987   -1.1945    0.1897 C   0  0  0  0  0  0  0  0  0  0  0  0
   -0.6725   -1.2379    0.2814 C   0  0  0  0  0  0  0  0  0  0  0  0
   -4.1829    4.4140   -1.0154 H   0  0  0  0  0  0  0  0  0  0  0  0
    1.1034    1.8488   -1.3098 H   0  0  0  0  0  0  0  0  0  0  0  0
    4.5218   -0.6363   -0.2795 H   0  0  0  0  0  0  0  0  0  0  0  0
    3.3151   -1.9099   -0.5898 H   0  0  0  0  0  0  0  0  0  0  0  0
    3.3992   -1.1249    1.0164 H   0  0  0  0  0  0  0  0  0  0  0  0
    1.2916   -2.0206    0.5608 H   0  0  0  0  0  0  0  0  0  0  0  0
   -1.1848   -2.0909    0.7206 H   0  0  0  0  0  0  0  0  0  0  0  0
   -5.6930    4.0248    0.4506 S   0  0  0  0  0  0  0  0  0  0  0  0
   -4.9887    4.8811   -0.7342 O   0  0  0  0  0  0  0  0  0  0  0  0
   -7.0425    4.5369    0.5492 O   0  0  0  0  0  0  0  0  0  0  0  0
   -5.3612    2.6267    0.2832 O   0  0  0  0  0  0  0  0  0  0  0  0
   -4.8563    4.5176    1.7553 O   0  0  0  0  0  0  0  0  0  0  0  0
   -5.2477    5.3535    2.0616 H   0  0  0  0  0  0  0  0  0  0  0  0
  1  2  1  0  0  0  0
  1 10  2  0  0  0  0
  2  3  1  0  0  0  0
  4  1  1  0  0  0  0
  5  4  2  0  0  0  0
  5  6  1  0  0  0  0
  6  9  2  0  0  0  0
  7  6  1  0  0  0  0
  7  8  1  0  0  0  0
  8 15  1  0  0  0  0
  9 10  1  0  0  0  0
  9 16  1  0  0  0  0
 10 17  1  0  0  0  0
 11 19  1  0  0  0  0
 12  5  1  0  0  0  0
 13  8  1  0  0  0  0
 14  8  1  0  0  0  0
 18 20  2  0  0  0  0
 18 22  1  0  0  0  0
 19 18  1  0  0  0  0
 21 18  2  0  0  0  0
 22 23  1  0  0  0  0
M  RAD  3   2   2   3   3   4   2
M  END
