Coordinates from ORCA-job 4-MeOPhN2+~HSO4-_B3LYPG-6-31G_dp-CH-Scan-d09-49-n800
 OpenBabel11261919063D

 23 22  0  0  0  0  0  0  0  0999 V2000
   -1.6608   -0.1169   -0.0968 C   0  0  0  0  0  0  0  0  0  0  0  0
   -3.0243   -0.2889   -0.0032 N   0  0  0  0  0  0  0  0  0  0  0  0
   -4.1393   -0.3898    0.0571 N   0  0  0  0  0  0  0  0  0  0  0  0
   -1.2570    1.1777   -0.5049 C   0  0  0  0  0  0  0  0  0  0  0  0
    0.1456    1.2474   -0.5763 C   0  0  0  0  0  0  0  0  0  0  0  0
    1.0053    0.1772   -0.2818 C   0  0  0  0  0  0  0  0  0  0  0  0
    2.3315    0.4223   -0.4053 O   0  0  0  0  0  0  0  0  0  0  0  0
    3.2700   -0.6118   -0.1314 C   0  0  0  0  0  0  0  0  0  0  0  0
    0.4952   -1.0894    0.1231 C   0  0  0  0  0  0  0  0  0  0  0  0
   -0.8667   -1.2513    0.2203 C   0  0  0  0  0  0  0  0  0  0  0  0
   -3.4334    3.6361   -0.9472 H   0  0  0  0  0  0  0  0  0  0  0  0
    0.6368    2.1733   -0.8767 H   0  0  0  0  0  0  0  0  0  0  0  0
    4.2537   -0.1747   -0.3074 H   0  0  0  0  0  0  0  0  0  0  0  0
    3.1323   -1.4694   -0.8005 H   0  0  0  0  0  0  0  0  0  0  0  0
    3.2072   -0.9485    0.9104 H   0  0  0  0  0  0  0  0  0  0  0  0
    1.1551   -1.9161    0.3530 H   0  0  0  0  0  0  0  0  0  0  0  0
   -1.3032   -2.1990    0.5259 H   0  0  0  0  0  0  0  0  0  0  0  0
   -5.1530    3.7792    0.3210 S   0  0  0  0  0  0  0  0  0  0  0  0
   -4.1613    4.2781   -0.8518 O   0  0  0  0  0  0  0  0  0  0  0  0
   -6.3347    4.6074    0.2072 O   0  0  0  0  0  0  0  0  0  0  0  0
   -5.1839    2.3322    0.3526 O   0  0  0  0  0  0  0  0  0  0  0  0
   -4.3399    4.2208    1.6605 O   0  0  0  0  0  0  0  0  0  0  0  0
   -4.5177    5.1640    1.8161 H   0  0  0  0  0  0  0  0  0  0  0  0
  1  2  1  0  0  0  0
  1 10  2  0  0  0  0
  2  3  1  0  0  0  0
  4  1  1  0  0  0  0
  5  4  2  0  0  0  0
  5  6  1  0  0  0  0
  6  9  2  0  0  0  0
  7  6  1  0  0  0  0
  7  8  1  0  0  0  0
  8 15  1  0  0  0  0
  9 10  1  0  0  0  0
  9 16  1  0  0  0  0
 10 17  1  0  0  0  0
 11 19  1  0  0  0  0
 12  5  1  0  0  0  0
 13  8  1  0  0  0  0
 14  8  1  0  0  0  0
 18 21  2  0  0  0  0
 18 22  1  0  0  0  0
 19 18  1  0  0  0  0
 20 18  2  0  0  0  0
 22 23  1  0  0  0  0
M  RAD  3   2   2   3   3   4   2
M  END
