Coordinates from ORCA-job 4-MeOPhN2+~HSO4-_B3LYPG-6-31G_dp-CH-Scan-d09-49-n800
 OpenBabel11261919063D

 23 22  0  0  0  0  0  0  0  0999 V2000
   -1.5521   -0.1224   -0.1289 C   0  0  0  0  0  0  0  0  0  0  0  0
   -2.9220   -0.2482   -0.0343 N   0  0  0  0  0  0  0  0  0  0  0  0
   -4.0409   -0.3051    0.0188 N   0  0  0  0  0  0  0  0  0  0  0  0
   -1.1193    1.1412   -0.5978 C   0  0  0  0  0  0  0  0  0  0  0  0
    0.2868    1.1681   -0.6660 C   0  0  0  0  0  0  0  0  0  0  0  0
    1.1172    0.0923   -0.3154 C   0  0  0  0  0  0  0  0  0  0  0  0
    2.4512    0.2964   -0.4434 O   0  0  0  0  0  0  0  0  0  0  0  0
    3.3601   -0.7464   -0.1114 C   0  0  0  0  0  0  0  0  0  0  0  0
    0.5737   -1.1404    0.1484 C   0  0  0  0  0  0  0  0  0  0  0  0
   -0.7922   -1.2624    0.2473 C   0  0  0  0  0  0  0  0  0  0  0  0
   -3.7369    4.0170   -1.0399 H   0  0  0  0  0  0  0  0  0  0  0  0
    0.8044    2.0651   -1.0087 H   0  0  0  0  0  0  0  0  0  0  0  0
    4.3564   -0.3436   -0.2991 H   0  0  0  0  0  0  0  0  0  0  0  0
    3.2067   -1.6319   -0.7396 H   0  0  0  0  0  0  0  0  0  0  0  0
    3.2808   -1.0312    0.9448 H   0  0  0  0  0  0  0  0  0  0  0  0
    1.2118   -1.9714    0.4208 H   0  0  0  0  0  0  0  0  0  0  0  0
   -1.2548   -2.1828    0.5959 H   0  0  0  0  0  0  0  0  0  0  0  0
   -5.3507    3.8693    0.3615 S   0  0  0  0  0  0  0  0  0  0  0  0
   -4.5147    4.5663   -0.8382 O   0  0  0  0  0  0  0  0  0  0  0  0
   -6.6284    4.5481    0.3845 O   0  0  0  0  0  0  0  0  0  0  0  0
   -5.1975    2.4327    0.2835 O   0  0  0  0  0  0  0  0  0  0  0  0
   -4.4980    4.3259    1.6696 O   0  0  0  0  0  0  0  0  0  0  0  0
   -4.7840    5.2234    1.9112 H   0  0  0  0  0  0  0  0  0  0  0  0
  1  2  1  0  0  0  0
  1 10  2  0  0  0  0
  2  3  1  0  0  0  0
  4  1  1  0  0  0  0
  5  4  2  0  0  0  0
  5  6  1  0  0  0  0
  6  9  2  0  0  0  0
  7  6  1  0  0  0  0
  7  8  1  0  0  0  0
  8 15  1  0  0  0  0
  9 10  1  0  0  0  0
  9 16  1  0  0  0  0
 10 17  1  0  0  0  0
 11 19  1  0  0  0  0
 12  5  1  0  0  0  0
 13  8  1  0  0  0  0
 14  8  1  0  0  0  0
 18 20  2  0  0  0  0
 18 22  1  0  0  0  0
 19 18  1  0  0  0  0
 21 18  2  0  0  0  0
 22 23  1  0  0  0  0
M  RAD  3   2   2   3   3   4   2
M  END
