Coordinates from ORCA-job 4-MeOPhN2+~HSO4-_B3LYPG-6-31G_dp-CH-Scan-d09-49-n800
 OpenBabel11261919063D

 23 22  0  0  0  0  0  0  0  0999 V2000
   -1.3622   -0.1064   -0.2344 C   0  0  0  0  0  0  0  0  0  0  0  0
   -2.7390   -0.1409   -0.1510 N   0  0  0  0  0  0  0  0  0  0  0  0
   -3.8603   -0.1172   -0.1141 N   0  0  0  0  0  0  0  0  0  0  0  0
   -0.8613    1.0711   -0.8375 C   0  0  0  0  0  0  0  0  0  0  0  0
    0.5457    1.0173   -0.8868 C   0  0  0  0  0  0  0  0  0  0  0  0
    1.3138   -0.0521   -0.4016 C   0  0  0  0  0  0  0  0  0  0  0  0
    2.6585    0.0667   -0.5298 O   0  0  0  0  0  0  0  0  0  0  0  0
    3.5077   -0.9732   -0.0605 C   0  0  0  0  0  0  0  0  0  0  0  0
    0.7011   -1.1942    0.1916 C   0  0  0  0  0  0  0  0  0  0  0  0
   -0.6703   -1.2343    0.2823 C   0  0  0  0  0  0  0  0  0  0  0  0
   -4.1987    4.4249   -1.0163 H   0  0  0  0  0  0  0  0  0  0  0  0
    1.1136    1.8413   -1.3215 H   0  0  0  0  0  0  0  0  0  0  0  0
    4.5258   -0.6465   -0.2773 H   0  0  0  0  0  0  0  0  0  0  0  0
    3.3163   -1.9190   -0.5818 H   0  0  0  0  0  0  0  0  0  0  0  0
    3.4014   -1.1261    1.0205 H   0  0  0  0  0  0  0  0  0  0  0  0
    1.2920   -2.0198    0.5670 H   0  0  0  0  0  0  0  0  0  0  0  0
   -1.1847   -2.0843    0.7249 H   0  0  0  0  0  0  0  0  0  0  0  0
   -5.7014    4.0265    0.4548 S   0  0  0  0  0  0  0  0  0  0  0  0
   -5.0054    4.8881   -0.7311 O   0  0  0  0  0  0  0  0  0  0  0  0
   -7.0529    4.5319    0.5592 O   0  0  0  0  0  0  0  0  0  0  0  0
   -5.3634    2.6302    0.2838 O   0  0  0  0  0  0  0  0  0  0  0  0
   -4.8623    4.5211    1.7573 O   0  0  0  0  0  0  0  0  0  0  0  0
   -5.2566    5.3546    2.0664 H   0  0  0  0  0  0  0  0  0  0  0  0
  1  2  1  0  0  0  0
  1 10  2  0  0  0  0
  2  3  1  0  0  0  0
  4  1  1  0  0  0  0
  5  4  2  0  0  0  0
  5  6  1  0  0  0  0
  6  9  2  0  0  0  0
  7  6  1  0  0  0  0
  7  8  1  0  0  0  0
  8 15  1  0  0  0  0
  9 10  1  0  0  0  0
  9 16  1  0  0  0  0
 10 17  1  0  0  0  0
 11 19  1  0  0  0  0
 12  5  1  0  0  0  0
 13  8  1  0  0  0  0
 14  8  1  0  0  0  0
 18 20  2  0  0  0  0
 18 22  1  0  0  0  0
 19 18  1  0  0  0  0
 21 18  2  0  0  0  0
 22 23  1  0  0  0  0
M  RAD  3   2   2   3   3   4   2
M  END
