Coordinates from ORCA-job 4-MeOPhN2+~HSO4-_B3LYPG-6-31G_dp-CH-Scan-d09-49-n800
 OpenBabel11261919063D

 23 22  0  0  0  0  0  0  0  0999 V2000
   -1.4739   -0.1241   -0.1679 C   0  0  0  0  0  0  0  0  0  0  0  0
   -2.8473   -0.2154   -0.0764 N   0  0  0  0  0  0  0  0  0  0  0  0
   -3.9678   -0.2414   -0.0271 N   0  0  0  0  0  0  0  0  0  0  0  0
   -1.0163    1.1098   -0.6882 C   0  0  0  0  0  0  0  0  0  0  0  0
    0.3909    1.1066   -0.7503 C   0  0  0  0  0  0  0  0  0  0  0  0
    1.1984    0.0315   -0.3487 C   0  0  0  0  0  0  0  0  0  0  0  0
    2.5372    0.2045   -0.4769 O   0  0  0  0  0  0  0  0  0  0  0  0
    3.4242   -0.8390   -0.0927 C   0  0  0  0  0  0  0  0  0  0  0  0
    0.6291   -1.1700    0.1643 C   0  0  0  0  0  0  0  0  0  0  0  0
   -0.7393   -1.2619    0.2611 C   0  0  0  0  0  0  0  0  0  0  0  0
   -3.9346    4.2055   -1.0432 H   0  0  0  0  0  0  0  0  0  0  0  0
    0.9274    1.9781   -1.1284 H   0  0  0  0  0  0  0  0  0  0  0  0
    4.4291   -0.4623   -0.2887 H   0  0  0  0  0  0  0  0  0  0  0  0
    3.2603   -1.7478   -0.6841 H   0  0  0  0  0  0  0  0  0  0  0  0
    3.3313   -1.0772    0.9739 H   0  0  0  0  0  0  0  0  0  0  0  0
    1.2500   -2.0004    0.4754 H   0  0  0  0  0  0  0  0  0  0  0  0
   -1.2213   -2.1580    0.6455 H   0  0  0  0  0  0  0  0  0  0  0  0
   -5.4958    3.9404    0.3989 S   0  0  0  0  0  0  0  0  0  0  0  0
   -4.7262    4.7161   -0.7992 O   0  0  0  0  0  0  0  0  0  0  0  0
   -6.8121    4.5375    0.4619 O   0  0  0  0  0  0  0  0  0  0  0  0
   -5.2519    2.5193    0.2796 O   0  0  0  0  0  0  0  0  0  0  0  0
   -4.6473    4.4190    1.7014 O   0  0  0  0  0  0  0  0  0  0  0  0
   -4.9865    5.2888    1.9737 H   0  0  0  0  0  0  0  0  0  0  0  0
  1  2  1  0  0  0  0
  1 10  2  0  0  0  0
  2  3  1  0  0  0  0
  4  1  1  0  0  0  0
  5  4  2  0  0  0  0
  5  6  1  0  0  0  0
  6  9  2  0  0  0  0
  7  6  1  0  0  0  0
  7  8  1  0  0  0  0
  8 15  1  0  0  0  0
  9 10  1  0  0  0  0
  9 16  1  0  0  0  0
 10 17  1  0  0  0  0
 11 19  1  0  0  0  0
 12  5  1  0  0  0  0
 13  8  1  0  0  0  0
 14  8  1  0  0  0  0
 18 20  2  0  0  0  0
 18 22  1  0  0  0  0
 19 18  1  0  0  0  0
 21 18  2  0  0  0  0
 22 23  1  0  0  0  0
M  RAD  3   2   2   3   3   4   2
M  END
