Coordinates from ORCA-job 4-MeOPhN2+~HSO4-_B3LYPG-6-31G_dp-CH-Scan-d09-49-n800
 OpenBabel11261919063D

 23 22  0  0  0  0  0  0  0  0999 V2000
   -1.4346   -0.1225   -0.1860 C   0  0  0  0  0  0  0  0  0  0  0  0
   -2.8092   -0.1958   -0.0954 N   0  0  0  0  0  0  0  0  0  0  0  0
   -3.9302   -0.2056   -0.0483 N   0  0  0  0  0  0  0  0  0  0  0  0
   -0.9640    1.0956   -0.7309 C   0  0  0  0  0  0  0  0  0  0  0  0
    0.4433    1.0767   -0.7905 C   0  0  0  0  0  0  0  0  0  0  0  0
    1.2390    0.0019   -0.3651 C   0  0  0  0  0  0  0  0  0  0  0  0
    2.5797    0.1585   -0.4940 O   0  0  0  0  0  0  0  0  0  0  0  0
    3.4554   -0.8853   -0.0857 C   0  0  0  0  0  0  0  0  0  0  0  0
    0.6565   -1.1829    0.1717 C   0  0  0  0  0  0  0  0  0  0  0  0
   -0.7129   -1.2590    0.2679 C   0  0  0  0  0  0  0  0  0  0  0  0
   -4.0238    4.2839   -1.0335 H   0  0  0  0  0  0  0  0  0  0  0  0
    0.9893    1.9347   -1.1855 H   0  0  0  0  0  0  0  0  0  0  0  0
    4.4645   -0.5228   -0.2872 H   0  0  0  0  0  0  0  0  0  0  0  0
    3.2840   -1.8047   -0.6582 H   0  0  0  0  0  0  0  0  0  0  0  0
    3.3578   -1.1000    0.9854 H   0  0  0  0  0  0  0  0  0  0  0  0
    1.2685   -2.0129    0.5009 H   0  0  0  0  0  0  0  0  0  0  0  0
   -1.2047   -2.1420    0.6695 H   0  0  0  0  0  0  0  0  0  0  0  0
   -5.5701    3.9758    0.4154 S   0  0  0  0  0  0  0  0  0  0  0  0
   -4.8211    4.7797   -0.7778 O   0  0  0  0  0  0  0  0  0  0  0  0
   -6.8995    4.5421    0.4877 O   0  0  0  0  0  0  0  0  0  0  0  0
   -5.2929    2.5622    0.2813 O   0  0  0  0  0  0  0  0  0  0  0  0
   -4.7289    4.4620    1.7198 O   0  0  0  0  0  0  0  0  0  0  0  0
   -5.0885    5.3202    2.0025 H   0  0  0  0  0  0  0  0  0  0  0  0
  1  2  1  0  0  0  0
  1 10  2  0  0  0  0
  2  3  1  0  0  0  0
  4  1  1  0  0  0  0
  5  4  2  0  0  0  0
  5  6  1  0  0  0  0
  6  9  2  0  0  0  0
  7  6  1  0  0  0  0
  7  8  1  0  0  0  0
  8 15  1  0  0  0  0
  9 10  1  0  0  0  0
  9 16  1  0  0  0  0
 10 17  1  0  0  0  0
 11 19  1  0  0  0  0
 12  5  1  0  0  0  0
 13  8  1  0  0  0  0
 14  8  1  0  0  0  0
 18 20  2  0  0  0  0
 18 22  1  0  0  0  0
 19 18  1  0  0  0  0
 21 18  2  0  0  0  0
 22 23  1  0  0  0  0
M  RAD  3   2   2   3   3   4   2
M  END
