Coordinates from ORCA-job 4-MeOPhN2+~HSO4-_B3LYPG-6-31G_dp-CH-Scan-d09-49-n800
 OpenBabel11261919063D

 23 22  0  0  0  0  0  0  0  0999 V2000
   -1.6338   -0.1182   -0.0939 C   0  0  0  0  0  0  0  0  0  0  0  0
   -2.9988   -0.2790    0.0039 N   0  0  0  0  0  0  0  0  0  0  0  0
   -4.1147   -0.3693    0.0656 N   0  0  0  0  0  0  0  0  0  0  0  0
   -1.2242    1.1715   -0.5110 C   0  0  0  0  0  0  0  0  0  0  0  0
    0.1792    1.2310   -0.5860 C   0  0  0  0  0  0  0  0  0  0  0  0
    1.0327    0.1572   -0.2867 C   0  0  0  0  0  0  0  0  0  0  0  0
    2.3605    0.3929   -0.4146 O   0  0  0  0  0  0  0  0  0  0  0  0
    3.2925   -0.6456   -0.1360 C   0  0  0  0  0  0  0  0  0  0  0  0
    0.5155   -1.1039    0.1271 C   0  0  0  0  0  0  0  0  0  0  0  0
   -0.8472   -1.2564    0.2285 C   0  0  0  0  0  0  0  0  0  0  0  0
   -3.4911    3.7234   -0.9625 H   0  0  0  0  0  0  0  0  0  0  0  0
    0.6761    2.1518   -0.8930 H   0  0  0  0  0  0  0  0  0  0  0  0
    4.2788   -0.2159   -0.3161 H   0  0  0  0  0  0  0  0  0  0  0  0
    3.1485   -1.5063   -0.7998 H   0  0  0  0  0  0  0  0  0  0  0  0
    3.2294   -0.9758    0.9078 H   0  0  0  0  0  0  0  0  0  0  0  0
    1.1708   -1.9333    0.3604 H   0  0  0  0  0  0  0  0  0  0  0  0
   -1.2892   -2.1994    0.5409 H   0  0  0  0  0  0  0  0  0  0  0  0
   -5.2031    3.8039    0.3213 S   0  0  0  0  0  0  0  0  0  0  0  0
   -4.2294    4.3490   -0.8478 O   0  0  0  0  0  0  0  0  0  0  0  0
   -6.4061    4.6031    0.2264 O   0  0  0  0  0  0  0  0  0  0  0  0
   -5.1943    2.3563    0.3266 O   0  0  0  0  0  0  0  0  0  0  0  0
   -4.3949    4.2442    1.6639 O   0  0  0  0  0  0  0  0  0  0  0  0
   -4.5998    5.1785    1.8387 H   0  0  0  0  0  0  0  0  0  0  0  0
  1  2  1  0  0  0  0
  1 10  2  0  0  0  0
  2  3  1  0  0  0  0
  4  1  1  0  0  0  0
  5  4  2  0  0  0  0
  5  6  1  0  0  0  0
  6  9  2  0  0  0  0
  7  6  1  0  0  0  0
  7  8  1  0  0  0  0
  8 15  1  0  0  0  0
  9 10  1  0  0  0  0
  9 16  1  0  0  0  0
 10 17  1  0  0  0  0
 11 19  1  0  0  0  0
 12  5  1  0  0  0  0
 13  8  1  0  0  0  0
 14  8  1  0  0  0  0
 18 21  2  0  0  0  0
 18 22  1  0  0  0  0
 19 18  1  0  0  0  0
 20 18  2  0  0  0  0
 22 23  1  0  0  0  0
M  RAD  3   2   2   3   3   4   2
M  END
