Coordinates from ORCA-job 4-MeOPhN2+~HSO4-_B3LYPG-6-31G_dp-CH-Scan-d09-49-n800
 OpenBabel11261919063D

 23 22  0  0  0  0  0  0  0  0999 V2000
   -1.5658   -0.1217   -0.1208 C   0  0  0  0  0  0  0  0  0  0  0  0
   -2.9350   -0.2533   -0.0263 N   0  0  0  0  0  0  0  0  0  0  0  0
   -4.0534   -0.3147    0.0301 N   0  0  0  0  0  0  0  0  0  0  0  0
   -1.1373    1.1484   -0.5765 C   0  0  0  0  0  0  0  0  0  0  0  0
    0.2685    1.1810   -0.6455 C   0  0  0  0  0  0  0  0  0  0  0  0
    1.1028    0.1041   -0.3076 C   0  0  0  0  0  0  0  0  0  0  0  0
    2.4359    0.3140   -0.4350 O   0  0  0  0  0  0  0  0  0  0  0  0
    3.3487   -0.7294   -0.1160 C   0  0  0  0  0  0  0  0  0  0  0  0
    0.5639   -1.1353    0.1434 C   0  0  0  0  0  0  0  0  0  0  0  0
   -0.8015   -1.2629    0.2424 C   0  0  0  0  0  0  0  0  0  0  0  0
   -3.7040    3.9649   -1.0401 H   0  0  0  0  0  0  0  0  0  0  0  0
    0.7827    2.0834   -0.9789 H   0  0  0  0  0  0  0  0  0  0  0  0
    4.3434   -0.3215   -0.3013 H   0  0  0  0  0  0  0  0  0  0  0  0
    3.1967   -1.6086   -0.7534 H   0  0  0  0  0  0  0  0  0  0  0  0
    3.2723   -1.0258    0.9372 H   0  0  0  0  0  0  0  0  0  0  0  0
    1.2050   -1.9670    0.4062 H   0  0  0  0  0  0  0  0  0  0  0  0
   -1.2606   -2.1885    0.5816 H   0  0  0  0  0  0  0  0  0  0  0  0
   -5.3260    3.8582    0.3548 S   0  0  0  0  0  0  0  0  0  0  0  0
   -4.4722    4.5303   -0.8460 O   0  0  0  0  0  0  0  0  0  0  0  0
   -6.5923    4.5584    0.3658 O   0  0  0  0  0  0  0  0  0  0  0  0
   -5.1968    2.4186    0.2897 O   0  0  0  0  0  0  0  0  0  0  0  0
   -4.4729    4.3113    1.6639 O   0  0  0  0  0  0  0  0  0  0  0  0
   -4.7447    5.2156    1.8961 H   0  0  0  0  0  0  0  0  0  0  0  0
  1  2  1  0  0  0  0
  1 10  2  0  0  0  0
  2  3  1  0  0  0  0
  4  1  1  0  0  0  0
  5  4  2  0  0  0  0
  5  6  1  0  0  0  0
  6  9  2  0  0  0  0
  7  6  1  0  0  0  0
  7  8  1  0  0  0  0
  8 15  1  0  0  0  0
  9 10  1  0  0  0  0
  9 16  1  0  0  0  0
 10 17  1  0  0  0  0
 11 19  1  0  0  0  0
 12  5  1  0  0  0  0
 13  8  1  0  0  0  0
 14  8  1  0  0  0  0
 18 20  2  0  0  0  0
 18 22  1  0  0  0  0
 19 18  1  0  0  0  0
 21 18  2  0  0  0  0
 22 23  1  0  0  0  0
M  RAD  3   2   2   3   3   4   2
M  END
