Coordinates from ORCA-job 4-MeOPhN2+~HSO4-_B3LYPG-6-31G_dp-CH-Scan-d09-49-n800
 OpenBabel11261919063D

 23 22  0  0  0  0  0  0  0  0999 V2000
   -1.5910   -0.1207   -0.1034 C   0  0  0  0  0  0  0  0  0  0  0  0
   -2.9585   -0.2637   -0.0051 N   0  0  0  0  0  0  0  0  0  0  0  0
   -4.0760   -0.3357    0.0564 N   0  0  0  0  0  0  0  0  0  0  0  0
   -1.1707    1.1595   -0.5382 C   0  0  0  0  0  0  0  0  0  0  0  0
    0.2341    1.2027   -0.6123 C   0  0  0  0  0  0  0  0  0  0  0  0
    1.0764    0.1250   -0.2968 C   0  0  0  0  0  0  0  0  0  0  0  0
    2.4072    0.3454   -0.4259 O   0  0  0  0  0  0  0  0  0  0  0  0
    3.3280   -0.6980   -0.1299 C   0  0  0  0  0  0  0  0  0  0  0  0
    0.5466   -1.1253    0.1342 C   0  0  0  0  0  0  0  0  0  0  0  0
   -0.8176   -1.2629    0.2363 C   0  0  0  0  0  0  0  0  0  0  0  0
   -3.6122    3.8643   -1.0046 H   0  0  0  0  0  0  0  0  0  0  0  0
    0.7411    2.1140   -0.9318 H   0  0  0  0  0  0  0  0  0  0  0  0
    4.3192   -0.2808   -0.3130 H   0  0  0  0  0  0  0  0  0  0  0  0
    3.1777   -1.5666   -0.7819 H   0  0  0  0  0  0  0  0  0  0  0  0
    3.2587   -1.0131    0.9183 H   0  0  0  0  0  0  0  0  0  0  0  0
    1.1937   -1.9576    0.3797 H   0  0  0  0  0  0  0  0  0  0  0  0
   -1.2695   -2.1971    0.5611 H   0  0  0  0  0  0  0  0  0  0  0  0
   -5.2820    3.8400    0.3366 S   0  0  0  0  0  0  0  0  0  0  0  0
   -4.3690    4.4570   -0.8485 O   0  0  0  0  0  0  0  0  0  0  0  0
   -6.5222    4.5848    0.2958 O   0  0  0  0  0  0  0  0  0  0  0  0
   -5.2045    2.3954    0.3037 O   0  0  0  0  0  0  0  0  0  0  0  0
   -4.4535    4.2875    1.6636 O   0  0  0  0  0  0  0  0  0  0  0  0
   -4.6984    5.2057    1.8696 H   0  0  0  0  0  0  0  0  0  0  0  0
  1  2  1  0  0  0  0
  1 10  2  0  0  0  0
  2  3  1  0  0  0  0
  4  1  1  0  0  0  0
  5  4  2  0  0  0  0
  5  6  1  0  0  0  0
  6  9  2  0  0  0  0
  7  6  1  0  0  0  0
  7  8  1  0  0  0  0
  8 15  1  0  0  0  0
  9 10  1  0  0  0  0
  9 16  1  0  0  0  0
 10 17  1  0  0  0  0
 11 19  1  0  0  0  0
 12  5  1  0  0  0  0
 13  8  1  0  0  0  0
 14  8  1  0  0  0  0
 18 22  1  0  0  0  0
 19 18  1  0  0  0  0
 20 18  2  0  0  0  0
 21 18  2  0  0  0  0
 22 23  1  0  0  0  0
M  RAD  3   2   2   3   3   4   2
M  END
