Coordinates from ORCA-job 4-MeOPhN2+~HSO4-_B3LYPG-6-31G_dp-CH-Scan-d09-49-n800
 OpenBabel11261919063D

 23 22  0  0  0  0  0  0  0  0999 V2000
   -1.6974   -0.1132   -0.0981 C   0  0  0  0  0  0  0  0  0  0  0  0
   -3.0588   -0.2990   -0.0073 N   0  0  0  0  0  0  0  0  0  0  0  0
   -4.1723   -0.4134    0.0518 N   0  0  0  0  0  0  0  0  0  0  0  0
   -1.3011    1.1873   -0.4953 C   0  0  0  0  0  0  0  0  0  0  0  0
    0.1003    1.2700   -0.5635 C   0  0  0  0  0  0  0  0  0  0  0  0
    0.9683    0.2043   -0.2755 C   0  0  0  0  0  0  0  0  0  0  0  0
    2.2921    0.4615   -0.3944 O   0  0  0  0  0  0  0  0  0  0  0  0
    3.2389   -0.5669   -0.1267 C   0  0  0  0  0  0  0  0  0  0  0  0
    0.4673   -1.0692    0.1180 C   0  0  0  0  0  0  0  0  0  0  0  0
   -0.8935   -1.2427    0.2111 C   0  0  0  0  0  0  0  0  0  0  0  0
   -3.3525    3.5227   -0.9235 H   0  0  0  0  0  0  0  0  0  0  0  0
    0.5840    2.2022   -0.8556 H   0  0  0  0  0  0  0  0  0  0  0  0
    4.2191   -0.1201   -0.2975 H   0  0  0  0  0  0  0  0  0  0  0  0
    3.1094   -1.4203   -0.8027 H   0  0  0  0  0  0  0  0  0  0  0  0
    3.1770   -0.9119    0.9124 H   0  0  0  0  0  0  0  0  0  0  0  0
    1.1332   -1.8925    0.3427 H   0  0  0  0  0  0  0  0  0  0  0  0
   -1.3227   -2.1963    0.5083 H   0  0  0  0  0  0  0  0  0  0  0  0
   -5.0842    3.7445    0.3162 S   0  0  0  0  0  0  0  0  0  0  0  0
   -4.0674    4.1844   -0.8557 O   0  0  0  0  0  0  0  0  0  0  0  0
   -6.2355    4.6113    0.1772 O   0  0  0  0  0  0  0  0  0  0  0  0
   -5.1697    2.3004    0.3775 O   0  0  0  0  0  0  0  0  0  0  0  0
   -4.2677    4.1820    1.6557 O   0  0  0  0  0  0  0  0  0  0  0  0
   -4.4093    5.1346    1.7890 H   0  0  0  0  0  0  0  0  0  0  0  0
  1  2  1  0  0  0  0
  1 10  2  0  0  0  0
  2  3  1  0  0  0  0
  4  1  1  0  0  0  0
  5  4  2  0  0  0  0
  5  6  1  0  0  0  0
  6  9  2  0  0  0  0
  7  6  1  0  0  0  0
  7  8  1  0  0  0  0
  8 15  1  0  0  0  0
  9 10  1  0  0  0  0
  9 16  1  0  0  0  0
 10 17  1  0  0  0  0
 11 19  1  0  0  0  0
 12  5  1  0  0  0  0
 13  8  1  0  0  0  0
 14  8  1  0  0  0  0
 18 21  2  0  0  0  0
 18 22  1  0  0  0  0
 19 18  1  0  0  0  0
 20 18  2  0  0  0  0
 22 23  1  0  0  0  0
M  RAD  3   2   2   3   3   4   2
M  END
