Coordinates from ORCA-job 4-MeOPhN2+~HSO4-_B3LYPG-6-31G_dp-CH-Scan-d09-49-n800
 OpenBabel11261919063D

 23 22  0  0  0  0  0  0  0  0999 V2000
   -1.7824   -0.1019   -0.0909 C   0  0  0  0  0  0  0  0  0  0  0  0
   -3.1381   -0.3191   -0.0056 N   0  0  0  0  0  0  0  0  0  0  0  0
   -4.2477   -0.4644    0.0496 N   0  0  0  0  0  0  0  0  0  0  0  0
   -1.4015    1.2144   -0.4511 C   0  0  0  0  0  0  0  0  0  0  0  0
   -0.0042    1.3266   -0.5161 C   0  0  0  0  0  0  0  0  0  0  0  0
    0.8825    0.2682   -0.2567 C   0  0  0  0  0  0  0  0  0  0  0  0
    2.2000    0.5525   -0.3673 O   0  0  0  0  0  0  0  0  0  0  0  0
    3.1662   -0.4657   -0.1283 C   0  0  0  0  0  0  0  0  0  0  0  0
    0.4024   -1.0232    0.1004 C   0  0  0  0  0  0  0  0  0  0  0  0
   -0.9555   -1.2225    0.1868 C   0  0  0  0  0  0  0  0  0  0  0  0
   -3.1456    3.2369   -0.8281 H   0  0  0  0  0  0  0  0  0  0  0  0
    0.4612    2.2752   -0.7819 H   0  0  0  0  0  0  0  0  0  0  0  0
    4.1375    0.0041   -0.2869 H   0  0  0  0  0  0  0  0  0  0  0  0
    3.0514   -1.3019   -0.8281 H   0  0  0  0  0  0  0  0  0  0  0  0
    3.1109   -0.8399    0.9008 H   0  0  0  0  0  0  0  0  0  0  0  0
    1.0815   -1.8413    0.3033 H   0  0  0  0  0  0  0  0  0  0  0  0
   -1.3676   -2.1912    0.4572 H   0  0  0  0  0  0  0  0  0  0  0  0
   -4.9193    3.6626    0.2953 S   0  0  0  0  0  0  0  0  0  0  0  0
   -3.8270    3.9453   -0.8467 O   0  0  0  0  0  0  0  0  0  0  0  0
   -5.9958    4.6016    0.0548 O   0  0  0  0  0  0  0  0  0  0  0  0
   -5.1271    2.2361    0.4462 O   0  0  0  0  0  0  0  0  0  0  0  0
   -4.1317    4.1194    1.6480 O   0  0  0  0  0  0  0  0  0  0  0  0
   -4.1927    5.0878    1.7090 H   0  0  0  0  0  0  0  0  0  0  0  0
  1  2  1  0  0  0  0
  1 10  2  0  0  0  0
  2  3  1  0  0  0  0
  4  1  1  0  0  0  0
  5  4  2  0  0  0  0
  5  6  1  0  0  0  0
  6  9  2  0  0  0  0
  7  6  1  0  0  0  0
  7  8  1  0  0  0  0
  8 15  1  0  0  0  0
  9 10  1  0  0  0  0
  9 16  1  0  0  0  0
 10 17  1  0  0  0  0
 12  5  1  0  0  0  0
 13  8  1  0  0  0  0
 14  8  1  0  0  0  0
 18 21  2  0  0  0  0
 18 22  1  0  0  0  0
 19 11  1  0  0  0  0
 19 18  1  0  0  0  0
 20 18  2  0  0  0  0
 22 23  1  0  0  0  0
M  RAD  3   2   2   3   3   4   2
M  END
