Coordinates from ORCA-job 4-MeOPhN2+~HSO4-_B3LYPG-6-31G_dp-CH-Scan-d09-49-n800
 OpenBabel11261919063D

 23 22  0  0  0  0  0  0  0  0999 V2000
   -1.8225   -0.0911   -0.0787 C   0  0  0  0  0  0  0  0  0  0  0  0
   -3.1752   -0.3222    0.0057 N   0  0  0  0  0  0  0  0  0  0  0  0
   -4.2822   -0.4826    0.0654 N   0  0  0  0  0  0  0  0  0  0  0  0
   -1.4472    1.2337   -0.4143 C   0  0  0  0  0  0  0  0  0  0  0  0
   -0.0521    1.3577   -0.4806 C   0  0  0  0  0  0  0  0  0  0  0  0
    0.8423    0.3000   -0.2440 C   0  0  0  0  0  0  0  0  0  0  0  0
    2.1567    0.5952   -0.3530 O   0  0  0  0  0  0  0  0  0  0  0  0
    3.1309   -0.4212   -0.1380 C   0  0  0  0  0  0  0  0  0  0  0  0
    0.3708   -1.0002    0.0895 C   0  0  0  0  0  0  0  0  0  0  0  0
   -0.9857   -1.2096    0.1751 C   0  0  0  0  0  0  0  0  0  0  0  0
   -3.0364    3.0945   -0.7646 H   0  0  0  0  0  0  0  0  0  0  0  0
    0.4052    2.3144   -0.7295 H   0  0  0  0  0  0  0  0  0  0  0  0
    4.0981    0.0585   -0.2911 H   0  0  0  0  0  0  0  0  0  0  0  0
    3.0184   -1.2439   -0.8538 H   0  0  0  0  0  0  0  0  0  0  0  0
    3.0820   -0.8156    0.8838 H   0  0  0  0  0  0  0  0  0  0  0  0
    1.0550   -1.8181    0.2753 H   0  0  0  0  0  0  0  0  0  0  0  0
   -1.3907   -2.1858    0.4282 H   0  0  0  0  0  0  0  0  0  0  0  0
   -4.8377    3.6196    0.2747 S   0  0  0  0  0  0  0  0  0  0  0  0
   -3.7008    3.8245   -0.8325 O   0  0  0  0  0  0  0  0  0  0  0  0
   -5.8756    4.5838   -0.0302 O   0  0  0  0  0  0  0  0  0  0  0  0
   -5.1033    2.2070    0.4687 O   0  0  0  0  0  0  0  0  0  0  0  0
   -4.0841    4.0947    1.6423 O   0  0  0  0  0  0  0  0  0  0  0  0
   -4.1084    5.0662    1.6653 H   0  0  0  0  0  0  0  0  0  0  0  0
  1  2  1  0  0  0  0
  1 10  2  0  0  0  0
  2  3  1  0  0  0  0
  4  1  1  0  0  0  0
  5  4  2  0  0  0  0
  5  6  1  0  0  0  0
  6  9  2  0  0  0  0
  7  6  1  0  0  0  0
  7  8  1  0  0  0  0
  8 15  1  0  0  0  0
  9 10  1  0  0  0  0
  9 16  1  0  0  0  0
 10 17  1  0  0  0  0
 12  5  1  0  0  0  0
 13  8  1  0  0  0  0
 14  8  1  0  0  0  0
 18 21  2  0  0  0  0
 18 22  1  0  0  0  0
 19 11  1  0  0  0  0
 19 18  1  0  0  0  0
 20 18  2  0  0  0  0
 22 23  1  0  0  0  0
M  RAD  3   2   2   3   3   4   2
M  END
