Coordinates from ORCA-job 4-MeOPhN2+~HSO4-_B3LYPG-6-31G_dp-CH-Scan-d09-49-n800
 OpenBabel11261919063D

 23 22  0  0  0  0  0  0  0  0999 V2000
   -1.8002   -0.0980   -0.0877 C   0  0  0  0  0  0  0  0  0  0  0  0
   -3.1546   -0.3217   -0.0035 N   0  0  0  0  0  0  0  0  0  0  0  0
   -4.2631   -0.4733    0.0543 N   0  0  0  0  0  0  0  0  0  0  0  0
   -1.4222    1.2219   -0.4386 C   0  0  0  0  0  0  0  0  0  0  0  0
   -0.0257    1.3394   -0.5033 C   0  0  0  0  0  0  0  0  0  0  0  0
    0.8645    0.2819   -0.2519 C   0  0  0  0  0  0  0  0  0  0  0  0
    2.1806    0.5714   -0.3612 O   0  0  0  0  0  0  0  0  0  0  0  0
    3.1506   -0.4454   -0.1304 C   0  0  0  0  0  0  0  0  0  0  0  0
    0.3884   -1.0131    0.0962 C   0  0  0  0  0  0  0  0  0  0  0  0
   -0.9688   -1.2172    0.1815 C   0  0  0  0  0  0  0  0  0  0  0  0
   -3.1001    3.1768   -0.8046 H   0  0  0  0  0  0  0  0  0  0  0  0
    0.4360    2.2914   -0.7626 H   0  0  0  0  0  0  0  0  0  0  0  0
    4.1200    0.0290   -0.2864 H   0  0  0  0  0  0  0  0  0  0  0  0
    3.0377   -1.2767   -0.8362 H   0  0  0  0  0  0  0  0  0  0  0  0
    3.0973   -0.8270    0.8961 H   0  0  0  0  0  0  0  0  0  0  0  0
    1.0700   -1.8306    0.2931 H   0  0  0  0  0  0  0  0  0  0  0  0
   -1.3777   -2.1891    0.4452 H   0  0  0  0  0  0  0  0  0  0  0  0
   -4.8836    3.6439    0.2885 S   0  0  0  0  0  0  0  0  0  0  0  0
   -3.7748    3.8939   -0.8425 O   0  0  0  0  0  0  0  0  0  0  0  0
   -5.9444    4.5946    0.0240 O   0  0  0  0  0  0  0  0  0  0  0  0
   -5.1157    2.2230    0.4576 O   0  0  0  0  0  0  0  0  0  0  0  0
   -4.1062    4.1073    1.6455 O   0  0  0  0  0  0  0  0  0  0  0  0
   -4.1508    5.0773    1.6907 H   0  0  0  0  0  0  0  0  0  0  0  0
  1  2  1  0  0  0  0
  1 10  2  0  0  0  0
  2  3  1  0  0  0  0
  4  1  1  0  0  0  0
  5  4  2  0  0  0  0
  5  6  1  0  0  0  0
  6  9  2  0  0  0  0
  7  6  1  0  0  0  0
  7  8  1  0  0  0  0
  8 15  1  0  0  0  0
  9 10  1  0  0  0  0
  9 16  1  0  0  0  0
 10 17  1  0  0  0  0
 12  5  1  0  0  0  0
 13  8  1  0  0  0  0
 14  8  1  0  0  0  0
 18 21  2  0  0  0  0
 18 22  1  0  0  0  0
 19 11  1  0  0  0  0
 19 18  1  0  0  0  0
 20 18  2  0  0  0  0
 22 23  1  0  0  0  0
M  RAD  3   2   2   3   3   4   2
M  END
