Coordinates from ORCA-job 4-MeOPhN2+~HSO4-_B3LYPG-6-31G_dp-CH-Scan-d09-49-n800
 OpenBabel11261919063D

 23 22  0  0  0  0  0  0  0  0999 V2000
   -1.7517   -0.1078   -0.0951 C   0  0  0  0  0  0  0  0  0  0  0  0
   -3.1097   -0.3140   -0.0085 N   0  0  0  0  0  0  0  0  0  0  0  0
   -4.2208   -0.4483    0.0484 N   0  0  0  0  0  0  0  0  0  0  0  0
   -1.3658    1.2029   -0.4688 C   0  0  0  0  0  0  0  0  0  0  0  0
    0.0330    1.3055   -0.5342 C   0  0  0  0  0  0  0  0  0  0  0  0
    0.9134    0.2449   -0.2636 C   0  0  0  0  0  0  0  0  0  0  0  0
    2.2332    0.5203   -0.3764 O   0  0  0  0  0  0  0  0  0  0  0  0
    3.1929   -0.5011   -0.1262 C   0  0  0  0  0  0  0  0  0  0  0  0
    0.4262   -1.0404    0.1066 C   0  0  0  0  0  0  0  0  0  0  0  0
   -0.9327   -1.2313    0.1947 C   0  0  0  0  0  0  0  0  0  0  0  0
   -3.2225    3.3384   -0.8656 H   0  0  0  0  0  0  0  0  0  0  0  0
    0.5047    2.2485   -0.8095 H   0  0  0  0  0  0  0  0  0  0  0  0
    4.1672   -0.0389   -0.2886 H   0  0  0  0  0  0  0  0  0  0  0  0
    3.0738   -1.3438   -0.8174 H   0  0  0  0  0  0  0  0  0  0  0  0
    3.1346   -0.8647    0.9067 H   0  0  0  0  0  0  0  0  0  0  0  0
    1.1010   -1.8601    0.3178 H   0  0  0  0  0  0  0  0  0  0  0  0
   -1.3506   -2.1949    0.4746 H   0  0  0  0  0  0  0  0  0  0  0  0
   -4.9801    3.6940    0.3049 S   0  0  0  0  0  0  0  0  0  0  0  0
   -3.9155    4.0312   -0.8526 O   0  0  0  0  0  0  0  0  0  0  0  0
   -6.0829    4.6107    0.1029 O   0  0  0  0  0  0  0  0  0  0  0  0
   -5.1462    2.2597    0.4255 O   0  0  0  0  0  0  0  0  0  0  0  0
   -4.1776    4.1424    1.6507 O   0  0  0  0  0  0  0  0  0  0  0  0
   -4.2665    5.1066    1.7376 H   0  0  0  0  0  0  0  0  0  0  0  0
  1  2  1  0  0  0  0
  1 10  2  0  0  0  0
  2  3  1  0  0  0  0
  4  1  1  0  0  0  0
  5  4  2  0  0  0  0
  5  6  1  0  0  0  0
  6  9  2  0  0  0  0
  7  6  1  0  0  0  0
  7  8  1  0  0  0  0
  8 15  1  0  0  0  0
  9 10  1  0  0  0  0
  9 16  1  0  0  0  0
 10 17  1  0  0  0  0
 11 19  1  0  0  0  0
 12  5  1  0  0  0  0
 13  8  1  0  0  0  0
 14  8  1  0  0  0  0
 18 21  2  0  0  0  0
 18 22  1  0  0  0  0
 19 18  1  0  0  0  0
 20 18  2  0  0  0  0
 22 23  1  0  0  0  0
M  RAD  3   2   2   3   3   4   2
M  END
