Coordinates from ORCA-job 4-MeOPhN2+~HSO4-_B3LYPG-6-31G_dp-CH-Scan-d09-49-n800
 OpenBabel11261919063D

 23 22  0  0  0  0  0  0  0  0999 V2000
   -1.6288   -0.1187   -0.0945 C   0  0  0  0  0  0  0  0  0  0  0  0
   -2.9940   -0.2776    0.0035 N   0  0  0  0  0  0  0  0  0  0  0  0
   -4.1101   -0.3656    0.0666 N   0  0  0  0  0  0  0  0  0  0  0  0
   -1.2181    1.1702   -0.5129 C   0  0  0  0  0  0  0  0  0  0  0  0
    0.1854    1.2279   -0.5880 C   0  0  0  0  0  0  0  0  0  0  0  0
    1.0377    0.1535   -0.2876 C   0  0  0  0  0  0  0  0  0  0  0  0
    2.3659    0.3875   -0.4158 O   0  0  0  0  0  0  0  0  0  0  0  0
    3.2967   -0.6516   -0.1359 C   0  0  0  0  0  0  0  0  0  0  0  0
    0.5192   -1.1066    0.1276 C   0  0  0  0  0  0  0  0  0  0  0  0
   -0.8436   -1.2575    0.2292 C   0  0  0  0  0  0  0  0  0  0  0  0
   -3.5038    3.7389   -0.9666 H   0  0  0  0  0  0  0  0  0  0  0  0
    0.6835    2.1478   -0.8961 H   0  0  0  0  0  0  0  0  0  0  0  0
    4.2835   -0.2233   -0.3163 H   0  0  0  0  0  0  0  0  0  0  0  0
    3.1518   -1.5129   -0.7988 H   0  0  0  0  0  0  0  0  0  0  0  0
    3.2331   -0.9807    0.9083 H   0  0  0  0  0  0  0  0  0  0  0  0
    1.1737   -1.9365    0.3618 H   0  0  0  0  0  0  0  0  0  0  0  0
   -1.2867   -2.1997    0.5426 H   0  0  0  0  0  0  0  0  0  0  0  0
   -5.2124    3.8084    0.3225 S   0  0  0  0  0  0  0  0  0  0  0  0
   -4.2441    4.3612   -0.8479 O   0  0  0  0  0  0  0  0  0  0  0  0
   -6.4196    4.6019    0.2325 O   0  0  0  0  0  0  0  0  0  0  0  0
   -5.1961    2.3610    0.3239 O   0  0  0  0  0  0  0  0  0  0  0  0
   -4.4030    4.2497    1.6639 O   0  0  0  0  0  0  0  0  0  0  0  0
   -4.6126    5.1823    1.8420 H   0  0  0  0  0  0  0  0  0  0  0  0
  1  2  1  0  0  0  0
  1 10  2  0  0  0  0
  2  3  1  0  0  0  0
  4  1  1  0  0  0  0
  5  4  2  0  0  0  0
  5  6  1  0  0  0  0
  6  9  2  0  0  0  0
  7  6  1  0  0  0  0
  7  8  1  0  0  0  0
  8 15  1  0  0  0  0
  9 10  1  0  0  0  0
  9 16  1  0  0  0  0
 10 17  1  0  0  0  0
 11 19  1  0  0  0  0
 12  5  1  0  0  0  0
 13  8  1  0  0  0  0
 14  8  1  0  0  0  0
 18 21  2  0  0  0  0
 18 22  1  0  0  0  0
 19 18  1  0  0  0  0
 20 18  2  0  0  0  0
 22 23  1  0  0  0  0
M  RAD  3   2   2   3   3   4   2
M  END
