Coordinates from ORCA-job 4-MeOPhN2+~HSO4-_B3LYPG-6-31G_dp-CH-Scan-d09-49-n800
 OpenBabel11261919063D

 23 22  0  0  0  0  0  0  0  0999 V2000
   -1.3717   -0.1088   -0.2244 C   0  0  0  0  0  0  0  0  0  0  0  0
   -2.7482   -0.1491   -0.1389 N   0  0  0  0  0  0  0  0  0  0  0  0
   -3.8694   -0.1304   -0.0993 N   0  0  0  0  0  0  0  0  0  0  0  0
   -0.8753    1.0762   -0.8166 C   0  0  0  0  0  0  0  0  0  0  0  0
    0.5318    1.0273   -0.8685 C   0  0  0  0  0  0  0  0  0  0  0  0
    1.3040   -0.0444   -0.3951 C   0  0  0  0  0  0  0  0  0  0  0  0
    2.6482    0.0801   -0.5240 O   0  0  0  0  0  0  0  0  0  0  0  0
    3.5014   -0.9620   -0.0668 C   0  0  0  0  0  0  0  0  0  0  0  0
    0.6959   -1.1943    0.1876 C   0  0  0  0  0  0  0  0  0  0  0  0
   -0.6752   -1.2396    0.2801 C   0  0  0  0  0  0  0  0  0  0  0  0
   -4.1737    4.4038   -1.0190 H   0  0  0  0  0  0  0  0  0  0  0  0
    1.0963    1.8574   -1.2960 H   0  0  0  0  0  0  0  0  0  0  0  0
    4.5181   -0.6293   -0.2809 H   0  0  0  0  0  0  0  0  0  0  0  0
    3.3128   -1.9026   -0.5983 H   0  0  0  0  0  0  0  0  0  0  0  0
    3.3966   -1.1270    1.0125 H   0  0  0  0  0  0  0  0  0  0  0  0
    1.2900   -2.0217    0.5539 H   0  0  0  0  0  0  0  0  0  0  0  0
   -1.1862   -2.0955    0.7151 H   0  0  0  0  0  0  0  0  0  0  0  0
   -5.6851    4.0209    0.4476 S   0  0  0  0  0  0  0  0  0  0  0  0
   -4.9792    4.8725   -0.7395 O   0  0  0  0  0  0  0  0  0  0  0  0
   -7.0334    4.5364    0.5450 O   0  0  0  0  0  0  0  0  0  0  0  0
   -5.3568    2.6215    0.2840 O   0  0  0  0  0  0  0  0  0  0  0  0
   -4.8470    4.5152    1.7508 O   0  0  0  0  0  0  0  0  0  0  0  0
   -5.2362    5.3530    2.0547 H   0  0  0  0  0  0  0  0  0  0  0  0
  1  2  1  0  0  0  0
  1 10  2  0  0  0  0
  2  3  1  0  0  0  0
  4  1  1  0  0  0  0
  5  4  2  0  0  0  0
  5  6  1  0  0  0  0
  6  9  2  0  0  0  0
  7  6  1  0  0  0  0
  7  8  1  0  0  0  0
  8 15  1  0  0  0  0
  9 10  1  0  0  0  0
  9 16  1  0  0  0  0
 10 17  1  0  0  0  0
 11 19  1  0  0  0  0
 12  5  1  0  0  0  0
 13  8  1  0  0  0  0
 14  8  1  0  0  0  0
 18 20  2  0  0  0  0
 18 22  1  0  0  0  0
 19 18  1  0  0  0  0
 21 18  2  0  0  0  0
 22 23  1  0  0  0  0
M  RAD  3   2   2   3   3   4   2
M  END
