Coordinates from ORCA-job 4-MeOPhN2+~HSO4-_B3LYPG-6-31G_dp-CH-Scan-d09-49-n800
 OpenBabel11261919063D

 23 22  0  0  0  0  0  0  0  0999 V2000
   -1.9729   -0.0043   -0.1101 C   0  0  0  0  0  0  0  0  0  0  0  0
   -3.3219   -0.2453   -0.0611 N   0  0  0  0  0  0  0  0  0  0  0  0
   -4.4244   -0.4225   -0.0246 N   0  0  0  0  0  0  0  0  0  0  0  0
   -1.5470    1.3251   -0.3436 C   0  0  0  0  0  0  0  0  0  0  0  0
   -0.1677    1.4763   -0.3931 C   0  0  0  0  0  0  0  0  0  0  0  0
    0.7217    0.3972   -0.2239 C   0  0  0  0  0  0  0  0  0  0  0  0
    2.0293    0.6976   -0.3005 O   0  0  0  0  0  0  0  0  0  0  0  0
    3.0061   -0.3314   -0.1438 C   0  0  0  0  0  0  0  0  0  0  0  0
    0.2345   -0.9144    0.0095 C   0  0  0  0  0  0  0  0  0  0  0  0
   -1.1259   -1.1238    0.0654 C   0  0  0  0  0  0  0  0  0  0  0  0
   -2.4596    2.4307   -0.4857 H   0  0  0  0  0  0  0  0  0  0  0  0
    0.2691    2.4558   -0.5664 H   0  0  0  0  0  0  0  0  0  0  0  0
    3.9718    0.1616   -0.2531 H   0  0  0  0  0  0  0  0  0  0  0  0
    2.9008   -1.1011   -0.9168 H   0  0  0  0  0  0  0  0  0  0  0  0
    2.9436   -0.7912    0.8488 H   0  0  0  0  0  0  0  0  0  0  0  0
    0.9095   -1.7496    0.1438 H   0  0  0  0  0  0  0  0  0  0  0  0
   -1.5336   -2.1139    0.2437 H   0  0  0  0  0  0  0  0  0  0  0  0
   -4.4259    3.4022    0.3258 S   0  0  0  0  0  0  0  0  0  0  0  0
   -3.2247    3.4244   -0.6263 O   0  0  0  0  0  0  0  0  0  0  0  0
   -5.6104    4.0044   -0.2829 O   0  0  0  0  0  0  0  0  0  0  0  0
   -4.5409    2.0891    0.9754 O   0  0  0  0  0  0  0  0  0  0  0  0
   -3.9825    4.4198    1.5487 O   0  0  0  0  0  0  0  0  0  0  0  0
   -4.3916    5.2730    1.3345 H   0  0  0  0  0  0  0  0  0  0  0  0
  1  2  1  0  0  0  0
  1 10  2  0  0  0  0
  2  3  1  0  0  0  0
  4  1  1  0  0  0  0
  5  4  2  0  0  0  0
  5  6  1  0  0  0  0
  6  9  2  0  0  0  0
  7  6  1  0  0  0  0
  7  8  1  0  0  0  0
  8 15  1  0  0  0  0
  9 10  1  0  0  0  0
  9 16  1  0  0  0  0
 10 17  1  0  0  0  0
 12  5  1  0  0  0  0
 13  8  1  0  0  0  0
 14  8  1  0  0  0  0
 18 21  2  0  0  0  0
 18 22  1  0  0  0  0
 19 11  1  0  0  0  0
 19 18  1  0  0  0  0
 20 18  2  0  0  0  0
 23 22  1  0  0  0  0
M  RAD  3   2   2   3   3   4   2
M  END
