Coordinates from ORCA-job 4-MeOPhN2+~HSO4-_B3LYPG-6-31G_dp-CH-Scan-d09-49-n800
 OpenBabel11261919063D

 23 22  0  0  0  0  0  0  0  0999 V2000
   -1.6420   -0.1179   -0.0946 C   0  0  0  0  0  0  0  0  0  0  0  0
   -3.0066   -0.2822    0.0021 N   0  0  0  0  0  0  0  0  0  0  0  0
   -4.1222   -0.3758    0.0634 N   0  0  0  0  0  0  0  0  0  0  0  0
   -1.2342    1.1733   -0.5089 C   0  0  0  0  0  0  0  0  0  0  0  0
    0.1689    1.2359   -0.5829 C   0  0  0  0  0  0  0  0  0  0  0  0
    1.0243    0.1632   -0.2852 C   0  0  0  0  0  0  0  0  0  0  0  0
    2.3517    0.4018   -0.4119 O   0  0  0  0  0  0  0  0  0  0  0  0
    3.2857   -0.6353   -0.1349 C   0  0  0  0  0  0  0  0  0  0  0  0
    0.5094   -1.0996    0.1259 C   0  0  0  0  0  0  0  0  0  0  0  0
   -0.8531   -1.2549    0.2261 C   0  0  0  0  0  0  0  0  0  0  0  0
   -3.4729    3.6969   -0.9574 H   0  0  0  0  0  0  0  0  0  0  0  0
    0.6641    2.1583   -0.8879 H   0  0  0  0  0  0  0  0  0  0  0  0
    4.2712   -0.2034   -0.3139 H   0  0  0  0  0  0  0  0  0  0  0  0
    3.1435   -1.4951   -0.8004 H   0  0  0  0  0  0  0  0  0  0  0  0
    3.2228   -0.9676    0.9083 H   0  0  0  0  0  0  0  0  0  0  0  0
    1.1662   -1.9281    0.3581 H   0  0  0  0  0  0  0  0  0  0  0  0
   -1.2934   -2.1994    0.5365 H   0  0  0  0  0  0  0  0  0  0  0  0
   -5.1878    3.7965    0.3210 S   0  0  0  0  0  0  0  0  0  0  0  0
   -4.2078    4.3277   -0.8487 O   0  0  0  0  0  0  0  0  0  0  0  0
   -6.3844    4.6046    0.2196 O   0  0  0  0  0  0  0  0  0  0  0  0
   -5.1910    2.3490    0.3343 O   0  0  0  0  0  0  0  0  0  0  0  0
   -4.3791    4.2373    1.6631 O   0  0  0  0  0  0  0  0  0  0  0  0
   -4.5759    5.1744    1.8320 H   0  0  0  0  0  0  0  0  0  0  0  0
  1  2  1  0  0  0  0
  1 10  2  0  0  0  0
  2  3  1  0  0  0  0
  4  1  1  0  0  0  0
  5  4  2  0  0  0  0
  5  6  1  0  0  0  0
  6  9  2  0  0  0  0
  7  6  1  0  0  0  0
  7  8  1  0  0  0  0
  8 15  1  0  0  0  0
  9 10  1  0  0  0  0
  9 16  1  0  0  0  0
 10 17  1  0  0  0  0
 11 19  1  0  0  0  0
 12  5  1  0  0  0  0
 13  8  1  0  0  0  0
 14  8  1  0  0  0  0
 18 21  2  0  0  0  0
 18 22  1  0  0  0  0
 19 18  1  0  0  0  0
 20 18  2  0  0  0  0
 22 23  1  0  0  0  0
M  RAD  3   2   2   3   3   4   2
M  END
