Coordinates from ORCA-job 4-MeOPhN2+~HSO4-_B3LYPG-6-31G_dp-CH-Scan-d09-49-n800
 OpenBabel11261919063D

 23 22  0  0  0  0  0  0  0  0999 V2000
   -1.7548   -0.1077   -0.0952 C   0  0  0  0  0  0  0  0  0  0  0  0
   -3.1124   -0.3150   -0.0089 N   0  0  0  0  0  0  0  0  0  0  0  0
   -4.2234   -0.4500    0.0491 N   0  0  0  0  0  0  0  0  0  0  0  0
   -1.3696    1.2037   -0.4679 C   0  0  0  0  0  0  0  0  0  0  0  0
    0.0291    1.3072   -0.5329 C   0  0  0  0  0  0  0  0  0  0  0  0
    0.9102    0.2471   -0.2631 C   0  0  0  0  0  0  0  0  0  0  0  0
    2.2298    0.5235   -0.3754 O   0  0  0  0  0  0  0  0  0  0  0  0
    3.1902   -0.4974   -0.1259 C   0  0  0  0  0  0  0  0  0  0  0  0
    0.4239   -1.0389    0.1060 C   0  0  0  0  0  0  0  0  0  0  0  0
   -0.9349   -1.2308    0.1937 C   0  0  0  0  0  0  0  0  0  0  0  0
   -3.2153    3.3290   -0.8629 H   0  0  0  0  0  0  0  0  0  0  0  0
    0.5002    2.2508   -0.8073 H   0  0  0  0  0  0  0  0  0  0  0  0
    4.1643   -0.0342   -0.2878 H   0  0  0  0  0  0  0  0  0  0  0  0
    3.0719   -1.3396   -0.8179 H   0  0  0  0  0  0  0  0  0  0  0  0
    3.1321   -0.8618    0.9066 H   0  0  0  0  0  0  0  0  0  0  0  0
    1.0992   -1.8582    0.3167 H   0  0  0  0  0  0  0  0  0  0  0  0
   -1.3521   -2.1949    0.4729 H   0  0  0  0  0  0  0  0  0  0  0  0
   -4.9742    3.6911    0.3043 S   0  0  0  0  0  0  0  0  0  0  0  0
   -3.9072    4.0232   -0.8523 O   0  0  0  0  0  0  0  0  0  0  0  0
   -6.0745    4.6103    0.0995 O   0  0  0  0  0  0  0  0  0  0  0  0
   -5.1444    2.2576    0.4272 O   0  0  0  0  0  0  0  0  0  0  0  0
   -4.1723    4.1399    1.6503 O   0  0  0  0  0  0  0  0  0  0  0  0
   -4.2585    5.1046    1.7351 H   0  0  0  0  0  0  0  0  0  0  0  0
  1  2  1  0  0  0  0
  1 10  2  0  0  0  0
  2  3  1  0  0  0  0
  4  1  1  0  0  0  0
  5  4  2  0  0  0  0
  5  6  1  0  0  0  0
  6  9  2  0  0  0  0
  7  6  1  0  0  0  0
  7  8  1  0  0  0  0
  8 15  1  0  0  0  0
  9 10  1  0  0  0  0
  9 16  1  0  0  0  0
 10 17  1  0  0  0  0
 11 19  1  0  0  0  0
 12  5  1  0  0  0  0
 13  8  1  0  0  0  0
 14  8  1  0  0  0  0
 18 21  2  0  0  0  0
 18 22  1  0  0  0  0
 19 18  1  0  0  0  0
 20 18  2  0  0  0  0
 22 23  1  0  0  0  0
M  RAD  3   2   2   3   3   4   2
M  END
