Coordinates from ORCA-job 4-MeOPhN2+~HSO4-_B3LYPG-6-31G_dp-CH-Scan-d09-49-n800
 OpenBabel11261919063D

 23 22  0  0  0  0  0  0  0  0999 V2000
   -1.8687   -0.0783   -0.0534 C   0  0  0  0  0  0  0  0  0  0  0  0
   -3.2173   -0.3261    0.0364 N   0  0  0  0  0  0  0  0  0  0  0  0
   -4.3212   -0.5020    0.1020 N   0  0  0  0  0  0  0  0  0  0  0  0
   -1.5004    1.2555   -0.3616 C   0  0  0  0  0  0  0  0  0  0  0  0
   -0.1082    1.3922   -0.4355 C   0  0  0  0  0  0  0  0  0  0  0  0
    0.7958    0.3356   -0.2299 C   0  0  0  0  0  0  0  0  0  0  0  0
    2.1057    0.6432   -0.3430 O   0  0  0  0  0  0  0  0  0  0  0  0
    3.0899   -0.3706   -0.1611 C   0  0  0  0  0  0  0  0  0  0  0  0
    0.3349   -0.9741    0.0775 C   0  0  0  0  0  0  0  0  0  0  0  0
   -1.0197   -1.1939    0.1684 C   0  0  0  0  0  0  0  0  0  0  0  0
   -2.8918    2.9209   -0.6678 H   0  0  0  0  0  0  0  0  0  0  0  0
    0.3383    2.3580   -0.6667 H   0  0  0  0  0  0  0  0  0  0  0  0
    4.0517    0.1204   -0.3114 H   0  0  0  0  0  0  0  0  0  0  0  0
    2.9767   -1.1764   -0.8959 H   0  0  0  0  0  0  0  0  0  0  0  0
    3.0530   -0.7894    0.8513 H   0  0  0  0  0  0  0  0  0  0  0  0
    1.0252   -1.7918    0.2396 H   0  0  0  0  0  0  0  0  0  0  0  0
   -1.4160   -2.1782    0.4024 H   0  0  0  0  0  0  0  0  0  0  0  0
   -4.7352    3.5742    0.2343 S   0  0  0  0  0  0  0  0  0  0  0  0
   -3.5223    3.6920   -0.7887 O   0  0  0  0  0  0  0  0  0  0  0  0
   -5.7147    4.5663   -0.1651 O   0  0  0  0  0  0  0  0  0  0  0  0
   -5.0781    2.1808    0.4574 O   0  0  0  0  0  0  0  0  0  0  0  0
   -4.0645    4.0649    1.6419 O   0  0  0  0  0  0  0  0  0  0  0  0
   -4.0554    5.0367    1.6327 H   0  0  0  0  0  0  0  0  0  0  0  0
  1  2  1  0  0  0  0
  1 10  2  0  0  0  0
  2  3  1  0  0  0  0
  4  1  1  0  0  0  0
  5  4  2  0  0  0  0
  5  6  1  0  0  0  0
  6  9  2  0  0  0  0
  7  6  1  0  0  0  0
  7  8  1  0  0  0  0
  8 15  1  0  0  0  0
  9 10  1  0  0  0  0
  9 16  1  0  0  0  0
 10 17  1  0  0  0  0
 12  5  1  0  0  0  0
 13  8  1  0  0  0  0
 14  8  1  0  0  0  0
 18 21  2  0  0  0  0
 18 22  1  0  0  0  0
 19 11  1  0  0  0  0
 19 18  1  0  0  0  0
 20 18  2  0  0  0  0
 23 22  1  0  0  0  0
M  RAD  3   2   2   3   3   4   2
M  END
