Coordinates from ORCA-job 4-MeOPhN2+~HSO4-_B3LYPG-6-31G_dp-CH-Scan-d09-49-n800
 OpenBabel11261919063D

 23 22  0  0  0  0  0  0  0  0999 V2000
   -1.9568   -0.0627   -0.1278 C   0  0  0  0  0  0  0  0  0  0  0  0
   -3.3014   -0.3348   -0.0804 N   0  0  0  0  0  0  0  0  0  0  0  0
   -4.4020   -0.5335   -0.0496 N   0  0  0  0  0  0  0  0  0  0  0  0
   -1.5877    1.2784   -0.4034 C   0  0  0  0  0  0  0  0  0  0  0  0
   -0.2006    1.4406   -0.4399 C   0  0  0  0  0  0  0  0  0  0  0  0
    0.7127    0.3922   -0.2267 C   0  0  0  0  0  0  0  0  0  0  0  0
    2.0182    0.7202   -0.2996 O   0  0  0  0  0  0  0  0  0  0  0  0
    3.0133   -0.2818   -0.1031 C   0  0  0  0  0  0  0  0  0  0  0  0
    0.2598   -0.9264    0.0465 C   0  0  0  0  0  0  0  0  0  0  0  0
   -1.0942   -1.1654    0.0966 C   0  0  0  0  0  0  0  0  0  0  0  0
   -2.7335    2.6109   -0.6233 H   0  0  0  0  0  0  0  0  0  0  0  0
    0.2318    2.4183   -0.6424 H   0  0  0  0  0  0  0  0  0  0  0  0
    3.9706    0.2264   -0.2196 H   0  0  0  0  0  0  0  0  0  0  0  0
    2.9322   -1.0784   -0.8519 H   0  0  0  0  0  0  0  0  0  0  0  0
    2.9533   -0.7138    0.9024 H   0  0  0  0  0  0  0  0  0  0  0  0
    0.9554   -1.7383    0.2147 H   0  0  0  0  0  0  0  0  0  0  0  0
   -1.4824   -2.1585    0.3037 H   0  0  0  0  0  0  0  0  0  0  0  0
   -4.5246    3.4502    0.3271 S   0  0  0  0  0  0  0  0  0  0  0  0
   -3.4005    3.4233   -0.7688 O   0  0  0  0  0  0  0  0  0  0  0  0
   -5.5965    4.3159   -0.1371 O   0  0  0  0  0  0  0  0  0  0  0  0
   -4.7880    2.1036    0.8182 O   0  0  0  0  0  0  0  0  0  0  0  0
   -3.7999    4.2104    1.5872 O   0  0  0  0  0  0  0  0  0  0  0  0
   -3.9216    5.1630    1.4414 H   0  0  0  0  0  0  0  0  0  0  0  0
  1  2  1  0  0  0  0
  1 10  2  0  0  0  0
  2  3  1  0  0  0  0
  4  1  1  0  0  0  0
  5  4  2  0  0  0  0
  5  6  1  0  0  0  0
  6  9  2  0  0  0  0
  7  6  1  0  0  0  0
  7  8  1  0  0  0  0
  8 15  1  0  0  0  0
  9 10  1  0  0  0  0
  9 16  1  0  0  0  0
 10 17  1  0  0  0  0
 12  5  1  0  0  0  0
 13  8  1  0  0  0  0
 14  8  1  0  0  0  0
 18 21  2  0  0  0  0
 18 22  1  0  0  0  0
 19 11  1  0  0  0  0
 19 18  1  0  0  0  0
 20 18  2  0  0  0  0
 23 22  1  0  0  0  0
M  RAD  3   2   2   3   3   4   2
M  END
