Coordinates from ORCA-job 4-MeOPhN2+~HSO4-_B3LYPG-6-31G_dp-CH-Scan-d09-49-n800
 OpenBabel11261919053D

 23 22  0  0  0  0  0  0  0  0999 V2000
   -1.9572    0.3939   -0.1931 C   0  0  0  0  0  0  0  0  0  0  0  0
   -3.3306    0.3420   -0.1827 N   0  0  0  0  0  0  0  0  0  0  0  0
   -4.4506    0.2758   -0.2250 N   0  0  0  0  0  0  0  0  0  0  0  0
   -1.2957    1.6258   -0.4000 C   0  0  0  0  0  0  0  0  0  0  0  0
    0.0834    1.6049   -0.4283 C   0  0  0  0  0  0  0  0  0  0  0  0
    0.8016    0.4060   -0.2385 C   0  0  0  0  0  0  0  0  0  0  0  0
    2.1380    0.5210   -0.2762 O   0  0  0  0  0  0  0  0  0  0  0  0
    2.9518   -0.6374   -0.0848 C   0  0  0  0  0  0  0  0  0  0  0  0
    0.1169   -0.8101   -0.0302 C   0  0  0  0  0  0  0  0  0  0  0  0
   -1.2667   -0.8170   -0.0135 C   0  0  0  0  0  0  0  0  0  0  0  0
   -1.7711    2.3991   -0.5149 H   0  0  0  0  0  0  0  0  0  0  0  0
    0.6405    2.5212   -0.5876 H   0  0  0  0  0  0  0  0  0  0  0  0
    3.9812   -0.2865   -0.1521 H   0  0  0  0  0  0  0  0  0  0  0  0
    2.7679   -1.3835   -0.8657 H   0  0  0  0  0  0  0  0  0  0  0  0
    2.7817   -1.0815    0.9024 H   0  0  0  0  0  0  0  0  0  0  0  0
    0.6539   -1.7384    0.1161 H   0  0  0  0  0  0  0  0  0  0  0  0
   -1.8152   -1.7391    0.1437 H   0  0  0  0  0  0  0  0  0  0  0  0
   -4.2310    3.3225    0.3268 S   0  0  0  0  0  0  0  0  0  0  0  0
   -3.5116    3.9641   -0.7831 O   0  0  0  0  0  0  0  0  0  0  0  0
   -5.3825    2.4545   -0.0766 O   0  0  0  0  0  0  0  0  0  0  0  0
   -3.3528    2.6175    1.3013 O   0  0  0  0  0  0  0  0  0  0  0  0
   -4.9007    4.5934    1.1413 O   0  0  0  0  0  0  0  0  0  0  0  0
   -5.3939    4.2116    1.8845 H   0  0  0  0  0  0  0  0  0  0  0  0
  1  2  1  0  0  0  0
  1 10  2  0  0  0  0
  3  2  1  0  0  0  0
  4  1  1  0  0  0  0
  5  4  2  0  0  0  0
  5  6  1  0  0  0  0
  6  9  2  0  0  0  0
  7  6  1  0  0  0  0
  7  8  1  0  0  0  0
  8 15  1  0  0  0  0
  9 10  1  0  0  0  0
  9 16  1  0  0  0  0
 10 17  1  0  0  0  0
 11  4  1  0  0  0  0
 12  5  1  0  0  0  0
 13  8  1  0  0  0  0
 14  8  1  0  0  0  0
 18 22  1  0  0  0  0
 18 21  1  0  0  0  0
 19 18  2  0  0  0  0
 20 18  2  0  0  0  0
 22 23  1  0  0  0  0
M  RAD  3   2   2   3   3  21   2
M  END
