Coordinates from ORCA-job 4-MeOPhN2+~HSO4-_B3LYPG-6-31G_dp-CH-Scan-d09-49-n800
 OpenBabel11261919063D

 23 22  0  0  0  0  0  0  0  0999 V2000
   -1.3900   -0.1142   -0.2119 C   0  0  0  0  0  0  0  0  0  0  0  0
   -2.7659   -0.1644   -0.1244 N   0  0  0  0  0  0  0  0  0  0  0  0
   -3.8872   -0.1537   -0.0820 N   0  0  0  0  0  0  0  0  0  0  0  0
   -0.9018    1.0813   -0.7899 C   0  0  0  0  0  0  0  0  0  0  0  0
    0.5054    1.0418   -0.8447 C   0  0  0  0  0  0  0  0  0  0  0  0
    1.2851   -0.0309   -0.3862 C   0  0  0  0  0  0  0  0  0  0  0  0
    2.6282    0.1036   -0.5155 O   0  0  0  0  0  0  0  0  0  0  0  0
    3.4887   -0.9391   -0.0735 C   0  0  0  0  0  0  0  0  0  0  0  0
    0.6851   -1.1920    0.1827 C   0  0  0  0  0  0  0  0  0  0  0  0
   -0.6855   -1.2470    0.2768 C   0  0  0  0  0  0  0  0  0  0  0  0
   -4.1272    4.3664   -1.0215 H   0  0  0  0  0  0  0  0  0  0  0  0
    1.0640    1.8807   -1.2625 H   0  0  0  0  0  0  0  0  0  0  0  0
    4.5030   -0.5968   -0.2837 H   0  0  0  0  0  0  0  0  0  0  0  0
    3.3058   -1.8733   -0.6181 H   0  0  0  0  0  0  0  0  0  0  0  0
    3.3860   -1.1198    1.0035 H   0  0  0  0  0  0  0  0  0  0  0  0
    1.2849   -2.0203    0.5374 H   0  0  0  0  0  0  0  0  0  0  0  0
   -1.1904   -2.1115    0.7018 H   0  0  0  0  0  0  0  0  0  0  0  0
   -5.6530    4.0099    0.4370 S   0  0  0  0  0  0  0  0  0  0  0  0
   -4.9293    4.8459   -0.7504 O   0  0  0  0  0  0  0  0  0  0  0  0
   -6.9948    4.5438    0.5242 O   0  0  0  0  0  0  0  0  0  0  0  0
   -5.3425    2.6054    0.2825 O   0  0  0  0  0  0  0  0  0  0  0  0
   -4.8158    4.4997    1.7426 O   0  0  0  0  0  0  0  0  0  0  0  0
   -5.1954    5.3443    2.0397 H   0  0  0  0  0  0  0  0  0  0  0  0
  1  2  1  0  0  0  0
  1 10  2  0  0  0  0
  2  3  1  0  0  0  0
  4  1  1  0  0  0  0
  5  4  2  0  0  0  0
  5  6  1  0  0  0  0
  6  9  2  0  0  0  0
  7  6  1  0  0  0  0
  7  8  1  0  0  0  0
  8 15  1  0  0  0  0
  9 10  1  0  0  0  0
  9 16  1  0  0  0  0
 10 17  1  0  0  0  0
 11 19  1  0  0  0  0
 12  5  1  0  0  0  0
 13  8  1  0  0  0  0
 14  8  1  0  0  0  0
 18 20  2  0  0  0  0
 18 22  1  0  0  0  0
 19 18  1  0  0  0  0
 21 18  2  0  0  0  0
 22 23  1  0  0  0  0
M  RAD  3   2   2   3   3   4   2
M  END
