Coordinates from ORCA-job 4-MeOPhN2+~HSO4-_B3LYPG-6-31G_dp-CH-Scan-d09-49-n800
 OpenBabel11261919063D

 23 22  0  0  0  0  0  0  0  0999 V2000
   -1.4408   -0.1227   -0.1827 C   0  0  0  0  0  0  0  0  0  0  0  0
   -2.8152   -0.1990   -0.0918 N   0  0  0  0  0  0  0  0  0  0  0  0
   -3.9361   -0.2116   -0.0445 N   0  0  0  0  0  0  0  0  0  0  0  0
   -0.9722    1.0980   -0.7235 C   0  0  0  0  0  0  0  0  0  0  0  0
    0.4351    1.0815   -0.7836 C   0  0  0  0  0  0  0  0  0  0  0  0
    1.2327    0.0066   -0.3624 C   0  0  0  0  0  0  0  0  0  0  0  0
    2.5731    0.1658   -0.4913 O   0  0  0  0  0  0  0  0  0  0  0  0
    3.4506   -0.8782   -0.0872 C   0  0  0  0  0  0  0  0  0  0  0  0
    0.6523   -1.1811    0.1704 C   0  0  0  0  0  0  0  0  0  0  0  0
   -0.7170   -1.2596    0.2669 C   0  0  0  0  0  0  0  0  0  0  0  0
   -4.0097    4.2721   -1.0351 H   0  0  0  0  0  0  0  0  0  0  0  0
    0.9796    1.9418   -1.1759 H   0  0  0  0  0  0  0  0  0  0  0  0
    4.4590   -0.5133   -0.2877 H   0  0  0  0  0  0  0  0  0  0  0  0
    3.2804   -1.7958   -0.6629 H   0  0  0  0  0  0  0  0  0  0  0  0
    3.3538   -1.0969    0.9833 H   0  0  0  0  0  0  0  0  0  0  0  0
    1.2657   -2.0113    0.4965 H   0  0  0  0  0  0  0  0  0  0  0  0
   -1.2072   -2.1448    0.6656 H   0  0  0  0  0  0  0  0  0  0  0  0
   -5.5585    3.9703    0.4125 S   0  0  0  0  0  0  0  0  0  0  0  0
   -4.8063    4.7700   -0.7814 O   0  0  0  0  0  0  0  0  0  0  0  0
   -6.8860    4.5412    0.4832 O   0  0  0  0  0  0  0  0  0  0  0  0
   -5.2863    2.5555    0.2809 O   0  0  0  0  0  0  0  0  0  0  0  0
   -4.7164    4.4555    1.7168 O   0  0  0  0  0  0  0  0  0  0  0  0
   -5.0730    5.3155    1.9977 H   0  0  0  0  0  0  0  0  0  0  0  0
  1  2  1  0  0  0  0
  1 10  2  0  0  0  0
  2  3  1  0  0  0  0
  4  1  1  0  0  0  0
  5  4  2  0  0  0  0
  5  6  1  0  0  0  0
  6  9  2  0  0  0  0
  7  6  1  0  0  0  0
  7  8  1  0  0  0  0
  8 15  1  0  0  0  0
  9 10  1  0  0  0  0
  9 16  1  0  0  0  0
 10 17  1  0  0  0  0
 11 19  1  0  0  0  0
 12  5  1  0  0  0  0
 13  8  1  0  0  0  0
 14  8  1  0  0  0  0
 18 20  2  0  0  0  0
 18 22  1  0  0  0  0
 19 18  1  0  0  0  0
 21 18  2  0  0  0  0
 22 23  1  0  0  0  0
M  RAD  3   2   2   3   3   4   2
M  END
