Coordinates from ORCA-job 4-MeOPhN2+~HSO4-_B3LYPG-6-31G_dp-CH-Scan-d09-49-n800
 OpenBabel11261919063D

 23 22  0  0  0  0  0  0  0  0999 V2000
   -1.4583   -0.1232   -0.1748 C   0  0  0  0  0  0  0  0  0  0  0  0
   -2.8322   -0.2077   -0.0841 N   0  0  0  0  0  0  0  0  0  0  0  0
   -3.9528   -0.2277   -0.0328 N   0  0  0  0  0  0  0  0  0  0  0  0
   -0.9953    1.1053   -0.7027 C   0  0  0  0  0  0  0  0  0  0  0  0
    0.4120    1.0959   -0.7635 C   0  0  0  0  0  0  0  0  0  0  0  0
    1.2147    0.0201   -0.3542 C   0  0  0  0  0  0  0  0  0  0  0  0
    2.5542    0.1868   -0.4820 O   0  0  0  0  0  0  0  0  0  0  0  0
    3.4367   -0.8576   -0.0899 C   0  0  0  0  0  0  0  0  0  0  0  0
    0.6399   -1.1757    0.1661 C   0  0  0  0  0  0  0  0  0  0  0  0
   -0.7290   -1.2614    0.2623 C   0  0  0  0  0  0  0  0  0  0  0  0
   -3.9736    4.2358   -1.0431 H   0  0  0  0  0  0  0  0  0  0  0  0
    0.9524    1.9627   -1.1468 H   0  0  0  0  0  0  0  0  0  0  0  0
    4.4433   -0.4862   -0.2870 H   0  0  0  0  0  0  0  0  0  0  0  0
    3.2700   -1.7696   -0.6755 H   0  0  0  0  0  0  0  0  0  0  0  0
    3.3415   -1.0884    0.9782 H   0  0  0  0  0  0  0  0  0  0  0  0
    1.2572   -2.0066    0.4831 H   0  0  0  0  0  0  0  0  0  0  0  0
   -1.2149   -2.1530    0.6519 H   0  0  0  0  0  0  0  0  0  0  0  0
   -5.5253    3.9542    0.4059 S   0  0  0  0  0  0  0  0  0  0  0  0
   -4.7673    4.7402   -0.7931 O   0  0  0  0  0  0  0  0  0  0  0  0
   -6.8471    4.5383    0.4750 O   0  0  0  0  0  0  0  0  0  0  0  0
   -5.2675    2.5360    0.2820 O   0  0  0  0  0  0  0  0  0  0  0  0
   -4.6768    4.4381    1.7065 O   0  0  0  0  0  0  0  0  0  0  0  0
   -5.0240    5.3035    1.9826 H   0  0  0  0  0  0  0  0  0  0  0  0
  1  2  1  0  0  0  0
  1 10  2  0  0  0  0
  2  3  1  0  0  0  0
  4  1  1  0  0  0  0
  5  4  2  0  0  0  0
  5  6  1  0  0  0  0
  6  9  2  0  0  0  0
  7  6  1  0  0  0  0
  7  8  1  0  0  0  0
  8 15  1  0  0  0  0
  9 10  1  0  0  0  0
  9 16  1  0  0  0  0
 10 17  1  0  0  0  0
 11 19  1  0  0  0  0
 12  5  1  0  0  0  0
 13  8  1  0  0  0  0
 14  8  1  0  0  0  0
 18 20  2  0  0  0  0
 18 22  1  0  0  0  0
 19 18  1  0  0  0  0
 21 18  2  0  0  0  0
 22 23  1  0  0  0  0
M  RAD  3   2   2   3   3   4   2
M  END
