Coordinates from ORCA-job 4-MeOPhN2+~HSO4-_B3LYPG-6-31G_dp-CH-Scan-d09-49-n800
 OpenBabel11261919063D

 23 22  0  0  0  0  0  0  0  0999 V2000
   -1.8696   -0.0781   -0.0531 C   0  0  0  0  0  0  0  0  0  0  0  0
   -3.2182   -0.3263    0.0368 N   0  0  0  0  0  0  0  0  0  0  0  0
   -4.3220   -0.5024    0.1025 N   0  0  0  0  0  0  0  0  0  0  0  0
   -1.5014    1.2559   -0.3609 C   0  0  0  0  0  0  0  0  0  0  0  0
   -0.1093    1.3928   -0.4350 C   0  0  0  0  0  0  0  0  0  0  0  0
    0.7948    0.3363   -0.2297 C   0  0  0  0  0  0  0  0  0  0  0  0
    2.1047    0.6441   -0.3429 O   0  0  0  0  0  0  0  0  0  0  0  0
    3.0891   -0.3696   -0.1614 C   0  0  0  0  0  0  0  0  0  0  0  0
    0.3342   -0.9735    0.0774 C   0  0  0  0  0  0  0  0  0  0  0  0
   -1.0204   -1.1936    0.1684 C   0  0  0  0  0  0  0  0  0  0  0  0
   -2.8892    2.9178   -0.6664 H   0  0  0  0  0  0  0  0  0  0  0  0
    0.3370    2.3587   -0.6660 H   0  0  0  0  0  0  0  0  0  0  0  0
    4.0508    0.1217   -0.3116 H   0  0  0  0  0  0  0  0  0  0  0  0
    2.9759   -1.1752   -0.8963 H   0  0  0  0  0  0  0  0  0  0  0  0
    3.0523   -0.7886    0.8509 H   0  0  0  0  0  0  0  0  0  0  0  0
    1.0246   -1.7913    0.2392 H   0  0  0  0  0  0  0  0  0  0  0  0
   -1.4165   -2.1780    0.4021 H   0  0  0  0  0  0  0  0  0  0  0  0
   -4.7332    3.5734    0.2336 S   0  0  0  0  0  0  0  0  0  0  0  0
   -3.5193    3.6897   -0.7880 O   0  0  0  0  0  0  0  0  0  0  0  0
   -5.7116    4.5660   -0.1670 O   0  0  0  0  0  0  0  0  0  0  0  0
   -5.0776    2.1803    0.4570 O   0  0  0  0  0  0  0  0  0  0  0  0
   -4.0637    4.0641    1.6419 O   0  0  0  0  0  0  0  0  0  0  0  0
   -4.0539    5.0358    1.6324 H   0  0  0  0  0  0  0  0  0  0  0  0
  1  2  1  0  0  0  0
  1 10  2  0  0  0  0
  2  3  1  0  0  0  0
  4  1  1  0  0  0  0
  5  4  2  0  0  0  0
  5  6  1  0  0  0  0
  6  9  2  0  0  0  0
  7  6  1  0  0  0  0
  7  8  1  0  0  0  0
  8 15  1  0  0  0  0
  9 10  1  0  0  0  0
  9 16  1  0  0  0  0
 10 17  1  0  0  0  0
 12  5  1  0  0  0  0
 13  8  1  0  0  0  0
 14  8  1  0  0  0  0
 18 21  2  0  0  0  0
 18 22  1  0  0  0  0
 19 11  1  0  0  0  0
 19 18  1  0  0  0  0
 20 18  2  0  0  0  0
 23 22  1  0  0  0  0
M  RAD  3   2   2   3   3   4   2
M  END
