Coordinates from ORCA-job 4-MeOPhN2+~HSO4-_B3LYPG-6-31G_dp-CH-Scan-d09-49-n800
 OpenBabel11261919063D

 23 22  0  0  0  0  0  0  0  0999 V2000
   -1.5951   -0.1203   -0.1013 C   0  0  0  0  0  0  0  0  0  0  0  0
   -2.9624   -0.2650   -0.0027 N   0  0  0  0  0  0  0  0  0  0  0  0
   -4.0797   -0.3389    0.0595 N   0  0  0  0  0  0  0  0  0  0  0  0
   -1.1759    1.1610   -0.5336 C   0  0  0  0  0  0  0  0  0  0  0  0
    0.2288    1.2058   -0.6083 C   0  0  0  0  0  0  0  0  0  0  0  0
    1.0722    0.1283   -0.2954 C   0  0  0  0  0  0  0  0  0  0  0  0
    2.4027    0.3502   -0.4247 O   0  0  0  0  0  0  0  0  0  0  0  0
    3.3246   -0.6930   -0.1317 C   0  0  0  0  0  0  0  0  0  0  0  0
    0.5437   -1.1234    0.1331 C   0  0  0  0  0  0  0  0  0  0  0  0
   -0.8203   -1.2625    0.2355 C   0  0  0  0  0  0  0  0  0  0  0  0
   -3.5983    3.8493   -0.9989 H   0  0  0  0  0  0  0  0  0  0  0  0
    0.7347    2.1183   -0.9260 H   0  0  0  0  0  0  0  0  0  0  0  0
    4.3153   -0.2745   -0.3145 H   0  0  0  0  0  0  0  0  0  0  0  0
    3.1746   -1.5604   -0.7854 H   0  0  0  0  0  0  0  0  0  0  0  0
    3.2563   -1.0104    0.9159 H   0  0  0  0  0  0  0  0  0  0  0  0
    1.1916   -1.9557    0.3766 H   0  0  0  0  0  0  0  0  0  0  0  0
   -1.2713   -2.1977    0.5586 H   0  0  0  0  0  0  0  0  0  0  0  0
   -5.2746    3.8367    0.3340 S   0  0  0  0  0  0  0  0  0  0  0  0
   -4.3531    4.4458   -0.8483 O   0  0  0  0  0  0  0  0  0  0  0  0
   -6.5107    4.5878    0.2855 O   0  0  0  0  0  0  0  0  0  0  0  0
   -5.2046    2.3915    0.3058 O   0  0  0  0  0  0  0  0  0  0  0  0
   -4.4500    4.2835    1.6639 O   0  0  0  0  0  0  0  0  0  0  0  0
   -4.6911    5.2035    1.8662 H   0  0  0  0  0  0  0  0  0  0  0  0
  1  2  1  0  0  0  0
  1 10  2  0  0  0  0
  2  3  1  0  0  0  0
  4  1  1  0  0  0  0
  5  4  2  0  0  0  0
  5  6  1  0  0  0  0
  6  9  2  0  0  0  0
  7  6  1  0  0  0  0
  7  8  1  0  0  0  0
  8 15  1  0  0  0  0
  9 10  1  0  0  0  0
  9 16  1  0  0  0  0
 10 17  1  0  0  0  0
 11 19  1  0  0  0  0
 12  5  1  0  0  0  0
 13  8  1  0  0  0  0
 14  8  1  0  0  0  0
 18 22  1  0  0  0  0
 19 18  1  0  0  0  0
 20 18  2  0  0  0  0
 21 18  2  0  0  0  0
 22 23  1  0  0  0  0
M  RAD  3   2   2   3   3   4   2
M  END
