Coordinates from ORCA-job 4-MeOPhN2+~HSO4-_B3LYPG-6-31G_dp-CH-Scan-d09-49-n800
 OpenBabel11261919063D

 23 22  0  0  0  0  0  0  0  0999 V2000
   -1.5784   -0.1209   -0.1124 C   0  0  0  0  0  0  0  0  0  0  0  0
   -2.9468   -0.2580   -0.0161 N   0  0  0  0  0  0  0  0  0  0  0  0
   -4.0647   -0.3245    0.0433 N   0  0  0  0  0  0  0  0  0  0  0  0
   -1.1539    1.1542   -0.5580 C   0  0  0  0  0  0  0  0  0  0  0  0
    0.2515    1.1919   -0.6294 C   0  0  0  0  0  0  0  0  0  0  0  0
    1.0897    0.1146   -0.3022 C   0  0  0  0  0  0  0  0  0  0  0  0
    2.4217    0.3296   -0.4303 O   0  0  0  0  0  0  0  0  0  0  0  0
    3.3383   -0.7139   -0.1224 C   0  0  0  0  0  0  0  0  0  0  0  0
    0.5551   -1.1302    0.1389 C   0  0  0  0  0  0  0  0  0  0  0  0
   -0.8097   -1.2626    0.2392 C   0  0  0  0  0  0  0  0  0  0  0  0
   -3.6596    3.9165   -1.0247 H   0  0  0  0  0  0  0  0  0  0  0  0
    0.7623    2.0987   -0.9559 H   0  0  0  0  0  0  0  0  0  0  0  0
    4.3313   -0.3014   -0.3063 H   0  0  0  0  0  0  0  0  0  0  0  0
    3.1873   -1.5880   -0.7669 H   0  0  0  0  0  0  0  0  0  0  0  0
    3.2652   -1.0194    0.9285 H   0  0  0  0  0  0  0  0  0  0  0  0
    1.1991   -1.9622    0.3934 H   0  0  0  0  0  0  0  0  0  0  0  0
   -1.2654   -2.1924    0.5714 H   0  0  0  0  0  0  0  0  0  0  0  0
   -5.3040    3.8485    0.3461 S   0  0  0  0  0  0  0  0  0  0  0  0
   -4.4228    4.4948   -0.8484 O   0  0  0  0  0  0  0  0  0  0  0  0
   -6.5580    4.5707    0.3338 O   0  0  0  0  0  0  0  0  0  0  0  0
   -5.1999    2.4062    0.2961 O   0  0  0  0  0  0  0  0  0  0  0  0
   -4.4610    4.2982    1.6630 O   0  0  0  0  0  0  0  0  0  0  0  0
   -4.7198    5.2093    1.8833 H   0  0  0  0  0  0  0  0  0  0  0  0
  1  2  1  0  0  0  0
  1 10  2  0  0  0  0
  2  3  1  0  0  0  0
  4  1  1  0  0  0  0
  5  4  2  0  0  0  0
  5  6  1  0  0  0  0
  6  9  2  0  0  0  0
  7  6  1  0  0  0  0
  7  8  1  0  0  0  0
  8 15  1  0  0  0  0
  9 10  1  0  0  0  0
  9 16  1  0  0  0  0
 10 17  1  0  0  0  0
 11 19  1  0  0  0  0
 12  5  1  0  0  0  0
 13  8  1  0  0  0  0
 14  8  1  0  0  0  0
 18 22  1  0  0  0  0
 19 18  1  0  0  0  0
 20 18  2  0  0  0  0
 21 18  2  0  0  0  0
 22 23  1  0  0  0  0
M  RAD  3   2   2   3   3   4   2
M  END
