Coordinates from ORCA-job 4-MeOPhN2+~HSO4-_B3LYPG-6-31G_dp-CH-Scan-d09-49-n800
 OpenBabel11261919063D

 23 22  0  0  0  0  0  0  0  0999 V2000
   -1.9403    0.3612   -0.2096 C   0  0  0  0  0  0  0  0  0  0  0  0
   -3.3123    0.3046   -0.1932 N   0  0  0  0  0  0  0  0  0  0  0  0
   -4.4307    0.2437   -0.2198 N   0  0  0  0  0  0  0  0  0  0  0  0
   -1.2917    1.5954   -0.4388 C   0  0  0  0  0  0  0  0  0  0  0  0
    0.0868    1.5842   -0.4702 C   0  0  0  0  0  0  0  0  0  0  0  0
    0.8117    0.3908   -0.2661 C   0  0  0  0  0  0  0  0  0  0  0  0
    2.1472    0.5109   -0.3105 O   0  0  0  0  0  0  0  0  0  0  0  0
    2.9693   -0.6383   -0.0995 C   0  0  0  0  0  0  0  0  0  0  0  0
    0.1367   -0.8293   -0.0353 C   0  0  0  0  0  0  0  0  0  0  0  0
   -1.2450   -0.8472   -0.0107 C   0  0  0  0  0  0  0  0  0  0  0  0
   -1.9701    2.6292   -0.5875 H   0  0  0  0  0  0  0  0  0  0  0  0
    0.6434    2.4988   -0.6415 H   0  0  0  0  0  0  0  0  0  0  0  0
    3.9961   -0.2815   -0.1750 H   0  0  0  0  0  0  0  0  0  0  0  0
    2.7896   -1.3998   -0.8665 H   0  0  0  0  0  0  0  0  0  0  0  0
    2.8040   -1.0655    0.8958 H   0  0  0  0  0  0  0  0  0  0  0  0
    0.6822   -1.7505    0.1230 H   0  0  0  0  0  0  0  0  0  0  0  0
   -1.7865   -1.7705    0.1646 H   0  0  0  0  0  0  0  0  0  0  0  0
   -4.1932    3.2894    0.4773 S   0  0  0  0  0  0  0  0  0  0  0  0
   -3.2859    3.8419   -0.5632 O   0  0  0  0  0  0  0  0  0  0  0  0
   -5.3745    2.5518   -0.0554 O   0  0  0  0  0  0  0  0  0  0  0  0
   -3.4730    2.5269    1.5229 O   0  0  0  0  0  0  0  0  0  0  0  0
   -4.8226    4.6417    1.1833 O   0  0  0  0  0  0  0  0  0  0  0  0
   -5.6836    4.3720    1.5399 H   0  0  0  0  0  0  0  0  0  0  0  0
  1  2  1  0  0  0  0
  1 10  2  0  0  0  0
  3  2  1  0  0  0  0
  4  1  1  0  0  0  0
  5  4  2  0  0  0  0
  5  6  1  0  0  0  0
  6  9  2  0  0  0  0
  7  6  1  0  0  0  0
  7  8  1  0  0  0  0
  8 15  1  0  0  0  0
  9 10  1  0  0  0  0
  9 16  1  0  0  0  0
 10 17  1  0  0  0  0
 11  4  1  0  0  0  0
 12  5  1  0  0  0  0
 13  8  1  0  0  0  0
 14  8  1  0  0  0  0
 18 22  1  0  0  0  0
 18 21  1  0  0  0  0
 19 18  2  0  0  0  0
 20 18  2  0  0  0  0
 22 23  1  0  0  0  0
M  RAD  3   2   2   3   3  21   2
M  END
