Coordinates from ORCA-job 4-MeOPhN2+~HSO4-_B3LYPG-6-31G_dp-CH-Scan-d09-49-n800
 OpenBabel11261919063D

 23 22  0  0  0  0  0  0  0  0999 V2000
   -1.7672   -0.1053   -0.0937 C   0  0  0  0  0  0  0  0  0  0  0  0
   -3.1241   -0.3171   -0.0082 N   0  0  0  0  0  0  0  0  0  0  0  0
   -4.2343   -0.4570    0.0499 N   0  0  0  0  0  0  0  0  0  0  0  0
   -1.3840    1.2083   -0.4606 C   0  0  0  0  0  0  0  0  0  0  0  0
    0.0141    1.3159   -0.5254 C   0  0  0  0  0  0  0  0  0  0  0  0
    0.8977    0.2566   -0.2602 C   0  0  0  0  0  0  0  0  0  0  0  0
    2.2164    0.5367   -0.3715 O   0  0  0  0  0  0  0  0  0  0  0  0
    3.1795   -0.4830   -0.1266 C   0  0  0  0  0  0  0  0  0  0  0  0
    0.4143   -1.0319    0.1033 C   0  0  0  0  0  0  0  0  0  0  0  0
   -0.9441   -1.2273    0.1902 C   0  0  0  0  0  0  0  0  0  0  0  0
   -3.1844    3.2873   -0.8476 H   0  0  0  0  0  0  0  0  0  0  0  0
    0.4825    2.2618   -0.7959 H   0  0  0  0  0  0  0  0  0  0  0  0
    4.1522   -0.0167   -0.2869 H   0  0  0  0  0  0  0  0  0  0  0  0
    3.0629   -1.3224   -0.8222 H   0  0  0  0  0  0  0  0  0  0  0  0
    3.1224   -0.8518    0.9043 H   0  0  0  0  0  0  0  0  0  0  0  0
    1.0913   -1.8507    0.3105 H   0  0  0  0  0  0  0  0  0  0  0  0
   -1.3590   -2.1936    0.4652 H   0  0  0  0  0  0  0  0  0  0  0  0
   -4.9496    3.6785    0.3006 S   0  0  0  0  0  0  0  0  0  0  0  0
   -3.8715    3.9879   -0.8503 O   0  0  0  0  0  0  0  0  0  0  0  0
   -6.0392    4.6068    0.0799 O   0  0  0  0  0  0  0  0  0  0  0  0
   -5.1367    2.2480    0.4368 O   0  0  0  0  0  0  0  0  0  0  0  0
   -4.1534    4.1311    1.6492 O   0  0  0  0  0  0  0  0  0  0  0  0
   -4.2282    5.0976    1.7230 H   0  0  0  0  0  0  0  0  0  0  0  0
  1  2  1  0  0  0  0
  1 10  2  0  0  0  0
  2  3  1  0  0  0  0
  4  1  1  0  0  0  0
  5  4  2  0  0  0  0
  5  6  1  0  0  0  0
  6  9  2  0  0  0  0
  7  6  1  0  0  0  0
  7  8  1  0  0  0  0
  8 15  1  0  0  0  0
  9 10  1  0  0  0  0
  9 16  1  0  0  0  0
 10 17  1  0  0  0  0
 12  5  1  0  0  0  0
 13  8  1  0  0  0  0
 14  8  1  0  0  0  0
 18 21  2  0  0  0  0
 18 22  1  0  0  0  0
 19 11  1  0  0  0  0
 19 18  1  0  0  0  0
 20 18  2  0  0  0  0
 22 23  1  0  0  0  0
M  RAD  3   2   2   3   3   4   2
M  END
