Coordinates from ORCA-job 4-MeOPhN2+~HSO4-_B3LYPG-6-31G_dp-CH-Scan-d09-49-n800
 OpenBabel11261919063D

 23 22  0  0  0  0  0  0  0  0999 V2000
   -1.7374   -0.1098   -0.0968 C   0  0  0  0  0  0  0  0  0  0  0  0
   -3.0963   -0.3107   -0.0094 N   0  0  0  0  0  0  0  0  0  0  0  0
   -4.2081   -0.4395    0.0484 N   0  0  0  0  0  0  0  0  0  0  0  0
   -1.3490    1.1983   -0.4771 C   0  0  0  0  0  0  0  0  0  0  0  0
    0.0505    1.2958   -0.5427 C   0  0  0  0  0  0  0  0  0  0  0  0
    0.9277    0.2342   -0.2669 C   0  0  0  0  0  0  0  0  0  0  0  0
    2.2486    0.5050   -0.3808 O   0  0  0  0  0  0  0  0  0  0  0  0
    3.2051   -0.5180   -0.1254 C   0  0  0  0  0  0  0  0  0  0  0  0
    0.4371   -1.0481    0.1097 C   0  0  0  0  0  0  0  0  0  0  0  0
   -0.9223   -1.2347    0.1987 C   0  0  0  0  0  0  0  0  0  0  0  0
   -3.2581    3.3870   -0.8832 H   0  0  0  0  0  0  0  0  0  0  0  0
    0.5253    2.2360   -0.8226 H   0  0  0  0  0  0  0  0  0  0  0  0
    4.1809   -0.0596   -0.2898 H   0  0  0  0  0  0  0  0  0  0  0  0
    3.0838   -1.3638   -0.8124 H   0  0  0  0  0  0  0  0  0  0  0  0
    3.1455   -0.8764    0.9092 H   0  0  0  0  0  0  0  0  0  0  0  0
    1.1097   -1.8686    0.3249 H   0  0  0  0  0  0  0  0  0  0  0  0
   -1.3431   -2.1958    0.4834 H   0  0  0  0  0  0  0  0  0  0  0  0
   -5.0079    3.7077    0.3089 S   0  0  0  0  0  0  0  0  0  0  0  0
   -3.9570    4.0718   -0.8548 O   0  0  0  0  0  0  0  0  0  0  0  0
   -6.1234    4.6126    0.1255 O   0  0  0  0  0  0  0  0  0  0  0  0
   -5.1535    2.2702    0.4138 O   0  0  0  0  0  0  0  0  0  0  0  0
   -4.1991    4.1522    1.6517 O   0  0  0  0  0  0  0  0  0  0  0  0
   -4.3016    5.1139    1.7514 H   0  0  0  0  0  0  0  0  0  0  0  0
  1  2  1  0  0  0  0
  1 10  2  0  0  0  0
  2  3  1  0  0  0  0
  4  1  1  0  0  0  0
  5  4  2  0  0  0  0
  5  6  1  0  0  0  0
  6  9  2  0  0  0  0
  7  6  1  0  0  0  0
  7  8  1  0  0  0  0
  8 15  1  0  0  0  0
  9 10  1  0  0  0  0
  9 16  1  0  0  0  0
 10 17  1  0  0  0  0
 11 19  1  0  0  0  0
 12  5  1  0  0  0  0
 13  8  1  0  0  0  0
 14  8  1  0  0  0  0
 18 21  2  0  0  0  0
 18 22  1  0  0  0  0
 19 18  1  0  0  0  0
 20 18  2  0  0  0  0
 22 23  1  0  0  0  0
M  RAD  3   2   2   3   3   4   2
M  END
