Coordinates from ORCA-job 4-MeOPhN2+~HSO4-_B3LYPG-6-31G_dp-CH-Scan-d09-49-n800
 OpenBabel11261919063D

 23 22  0  0  0  0  0  0  0  0999 V2000
   -1.5946   -0.1204   -0.1020 C   0  0  0  0  0  0  0  0  0  0  0  0
   -2.9618   -0.2646   -0.0034 N   0  0  0  0  0  0  0  0  0  0  0  0
   -4.0792   -0.3377    0.0584 N   0  0  0  0  0  0  0  0  0  0  0  0
   -1.1753    1.1607   -0.5356 C   0  0  0  0  0  0  0  0  0  0  0  0
    0.2295    1.2050   -0.6099 C   0  0  0  0  0  0  0  0  0  0  0  0
    1.0727    0.1276   -0.2959 C   0  0  0  0  0  0  0  0  0  0  0  0
    2.4033    0.3493   -0.4253 O   0  0  0  0  0  0  0  0  0  0  0  0
    3.3251   -0.6937   -0.1310 C   0  0  0  0  0  0  0  0  0  0  0  0
    0.5440   -1.1236    0.1337 C   0  0  0  0  0  0  0  0  0  0  0  0
   -0.8201   -1.2623    0.2360 C   0  0  0  0  0  0  0  0  0  0  0  0
   -3.6007    3.8531   -1.0005 H   0  0  0  0  0  0  0  0  0  0  0  0
    0.7357    2.1170   -0.9284 H   0  0  0  0  0  0  0  0  0  0  0  0
    4.3158   -0.2754   -0.3140 H   0  0  0  0  0  0  0  0  0  0  0  0
    3.1752   -1.5617   -0.7840 H   0  0  0  0  0  0  0  0  0  0  0  0
    3.2565   -1.0101    0.9169 H   0  0  0  0  0  0  0  0  0  0  0  0
    1.1918   -1.9557    0.3781 H   0  0  0  0  0  0  0  0  0  0  0  0
   -1.2712   -2.1972    0.5599 H   0  0  0  0  0  0  0  0  0  0  0  0
   -5.2753    3.8368    0.3346 S   0  0  0  0  0  0  0  0  0  0  0  0
   -4.3559    4.4484   -0.8482 O   0  0  0  0  0  0  0  0  0  0  0  0
   -6.5124    4.5865    0.2887 O   0  0  0  0  0  0  0  0  0  0  0  0
   -5.2036    2.3919    0.3042 O   0  0  0  0  0  0  0  0  0  0  0  0
   -4.4497    4.2831    1.6639 O   0  0  0  0  0  0  0  0  0  0  0  0
   -4.6921    5.2025    1.8678 H   0  0  0  0  0  0  0  0  0  0  0  0
  1  2  1  0  0  0  0
  1 10  2  0  0  0  0
  2  3  1  0  0  0  0
  4  1  1  0  0  0  0
  5  4  2  0  0  0  0
  5  6  1  0  0  0  0
  6  9  2  0  0  0  0
  7  6  1  0  0  0  0
  7  8  1  0  0  0  0
  8 15  1  0  0  0  0
  9 10  1  0  0  0  0
  9 16  1  0  0  0  0
 10 17  1  0  0  0  0
 11 19  1  0  0  0  0
 12  5  1  0  0  0  0
 13  8  1  0  0  0  0
 14  8  1  0  0  0  0
 18 22  1  0  0  0  0
 19 18  1  0  0  0  0
 20 18  2  0  0  0  0
 21 18  2  0  0  0  0
 22 23  1  0  0  0  0
M  RAD  3   2   2   3   3   4   2
M  END
