Coordinates from ORCA-job 4-MeOPhN2+~HSO4-_B3LYPG-6-31G_dp-CH-Scan-d09-49-n800
 OpenBabel11261919063D

 23 22  0  0  0  0  0  0  0  0999 V2000
   -1.4012   -0.1163   -0.2048 C   0  0  0  0  0  0  0  0  0  0  0  0
   -2.7769   -0.1727   -0.1171 N   0  0  0  0  0  0  0  0  0  0  0  0
   -3.8980   -0.1679   -0.0686 N   0  0  0  0  0  0  0  0  0  0  0  0
   -0.9174    1.0867   -0.7709 C   0  0  0  0  0  0  0  0  0  0  0  0
    0.4899    1.0526   -0.8266 C   0  0  0  0  0  0  0  0  0  0  0  0
    1.2736   -0.0220   -0.3792 C   0  0  0  0  0  0  0  0  0  0  0  0
    2.6162    0.1186   -0.5076 O   0  0  0  0  0  0  0  0  0  0  0  0
    3.4804   -0.9257   -0.0768 C   0  0  0  0  0  0  0  0  0  0  0  0
    0.6779   -1.1908    0.1780 C   0  0  0  0  0  0  0  0  0  0  0  0
   -0.6925   -1.2514    0.2721 C   0  0  0  0  0  0  0  0  0  0  0  0
   -4.1058    4.3428   -1.0297 H   0  0  0  0  0  0  0  0  0  0  0  0
    1.0455    1.8976   -1.2361 H   0  0  0  0  0  0  0  0  0  0  0  0
    4.4935   -0.5775   -0.2832 H   0  0  0  0  0  0  0  0  0  0  0  0
    3.3009   -1.8546   -0.6313 H   0  0  0  0  0  0  0  0  0  0  0  0
    3.3784   -1.1182    0.9982 H   0  0  0  0  0  0  0  0  0  0  0  0
    1.2807   -2.0206    0.5241 H   0  0  0  0  0  0  0  0  0  0  0  0
   -1.1942   -2.1219    0.6886 H   0  0  0  0  0  0  0  0  0  0  0  0
   -5.6321    4.0013    0.4321 S   0  0  0  0  0  0  0  0  0  0  0  0
   -4.9060    4.8268   -0.7609 O   0  0  0  0  0  0  0  0  0  0  0  0
   -6.9709    4.5430    0.5184 O   0  0  0  0  0  0  0  0  0  0  0  0
   -5.3299    2.5941    0.2852 O   0  0  0  0  0  0  0  0  0  0  0  0
   -4.7901    4.4935    1.7336 O   0  0  0  0  0  0  0  0  0  0  0  0
   -5.1642    5.3421    2.0264 H   0  0  0  0  0  0  0  0  0  0  0  0
  1  2  1  0  0  0  0
  1 10  2  0  0  0  0
  2  3  1  0  0  0  0
  4  1  1  0  0  0  0
  5  4  2  0  0  0  0
  5  6  1  0  0  0  0
  6  9  2  0  0  0  0
  7  6  1  0  0  0  0
  7  8  1  0  0  0  0
  8 15  1  0  0  0  0
  9 10  1  0  0  0  0
  9 16  1  0  0  0  0
 10 17  1  0  0  0  0
 11 19  1  0  0  0  0
 12  5  1  0  0  0  0
 13  8  1  0  0  0  0
 14  8  1  0  0  0  0
 18 20  2  0  0  0  0
 18 22  1  0  0  0  0
 19 18  1  0  0  0  0
 21 18  2  0  0  0  0
 22 23  1  0  0  0  0
M  RAD  3   2   2   3   3   4   2
M  END
