Coordinates from ORCA-job 4-MeOPhN2+~HSO4-_B3LYPG-6-31G_dp-CH-Scan-d09-49-n800
 OpenBabel11261919063D

 23 22  0  0  0  0  0  0  0  0999 V2000
   -1.8117   -0.0946   -0.0837 C   0  0  0  0  0  0  0  0  0  0  0  0
   -3.1653   -0.3223    0.0004 N   0  0  0  0  0  0  0  0  0  0  0  0
   -4.2730   -0.4784    0.0588 N   0  0  0  0  0  0  0  0  0  0  0  0
   -1.4352    1.2277   -0.4271 C   0  0  0  0  0  0  0  0  0  0  0  0
   -0.0394    1.3486   -0.4925 C   0  0  0  0  0  0  0  0  0  0  0  0
    0.8530    0.2911   -0.2481 C   0  0  0  0  0  0  0  0  0  0  0  0
    2.1683    0.5836   -0.3570 O   0  0  0  0  0  0  0  0  0  0  0  0
    3.1404   -0.4328   -0.1336 C   0  0  0  0  0  0  0  0  0  0  0  0
    0.3794   -1.0065    0.0930 C   0  0  0  0  0  0  0  0  0  0  0  0
   -0.9775   -1.2133    0.1783 C   0  0  0  0  0  0  0  0  0  0  0  0
   -3.0682    3.1359   -0.7856 H   0  0  0  0  0  0  0  0  0  0  0  0
    0.4201    2.3029   -0.7468 H   0  0  0  0  0  0  0  0  0  0  0  0
    4.1088    0.0443   -0.2881 H   0  0  0  0  0  0  0  0  0  0  0  0
    3.0281   -1.2601   -0.8442 H   0  0  0  0  0  0  0  0  0  0  0  0
    3.0892   -0.8205    0.8906 H   0  0  0  0  0  0  0  0  0  0  0  0
    1.0623   -1.8241    0.2846 H   0  0  0  0  0  0  0  0  0  0  0  0
   -1.3844   -2.1874    0.4368 H   0  0  0  0  0  0  0  0  0  0  0  0
   -4.8601    3.6314    0.2822 S   0  0  0  0  0  0  0  0  0  0  0  0
   -3.7382    3.8590   -0.8382 O   0  0  0  0  0  0  0  0  0  0  0  0
   -5.9099    4.5889   -0.0016 O   0  0  0  0  0  0  0  0  0  0  0  0
   -5.1087    2.2144    0.4643 O   0  0  0  0  0  0  0  0  0  0  0  0
   -4.0932    4.1005    1.6439 O   0  0  0  0  0  0  0  0  0  0  0  0
   -4.1273    5.0714    1.6777 H   0  0  0  0  0  0  0  0  0  0  0  0
  1  2  1  0  0  0  0
  1 10  2  0  0  0  0
  2  3  1  0  0  0  0
  4  1  1  0  0  0  0
  5  4  2  0  0  0  0
  5  6  1  0  0  0  0
  6  9  2  0  0  0  0
  7  6  1  0  0  0  0
  7  8  1  0  0  0  0
  8 15  1  0  0  0  0
  9 10  1  0  0  0  0
  9 16  1  0  0  0  0
 10 17  1  0  0  0  0
 12  5  1  0  0  0  0
 13  8  1  0  0  0  0
 14  8  1  0  0  0  0
 18 21  2  0  0  0  0
 18 22  1  0  0  0  0
 19 11  1  0  0  0  0
 19 18  1  0  0  0  0
 20 18  2  0  0  0  0
 22 23  1  0  0  0  0
M  RAD  3   2   2   3   3   4   2
M  END
