Coordinates from ORCA-job 4-MeOPhN2+~HSO4-_B3LYPG-6-31G_dp-CH-Scan-d09-49-n800
 OpenBabel11261919063D

 23 22  0  0  0  0  0  0  0  0999 V2000
   -1.9647   -0.0584   -0.1313 C   0  0  0  0  0  0  0  0  0  0  0  0
   -3.3092   -0.3307   -0.0858 N   0  0  0  0  0  0  0  0  0  0  0  0
   -4.4095   -0.5305   -0.0563 N   0  0  0  0  0  0  0  0  0  0  0  0
   -1.5929    1.2823   -0.4040 C   0  0  0  0  0  0  0  0  0  0  0  0
   -0.2068    1.4461   -0.4394 C   0  0  0  0  0  0  0  0  0  0  0  0
    0.7063    0.3971   -0.2270 C   0  0  0  0  0  0  0  0  0  0  0  0
    2.0114    0.7253   -0.2979 O   0  0  0  0  0  0  0  0  0  0  0  0
    3.0067   -0.2767   -0.1012 C   0  0  0  0  0  0  0  0  0  0  0  0
    0.2526   -0.9216    0.0433 C   0  0  0  0  0  0  0  0  0  0  0  0
   -1.1016   -1.1607    0.0916 C   0  0  0  0  0  0  0  0  0  0  0  0
   -2.7061    2.5779   -0.6138 H   0  0  0  0  0  0  0  0  0  0  0  0
    0.2243    2.4247   -0.6395 H   0  0  0  0  0  0  0  0  0  0  0  0
    3.9639    0.2320   -0.2157 H   0  0  0  0  0  0  0  0  0  0  0  0
    2.9269   -1.0724   -0.8512 H   0  0  0  0  0  0  0  0  0  0  0  0
    2.9452   -0.7097    0.9037 H   0  0  0  0  0  0  0  0  0  0  0  0
    0.9477   -1.7340    0.2108 H   0  0  0  0  0  0  0  0  0  0  0  0
   -1.4899   -2.1542    0.2966 H   0  0  0  0  0  0  0  0  0  0  0  0
   -4.5031    3.4388    0.3303 S   0  0  0  0  0  0  0  0  0  0  0  0
   -3.3797    3.4034   -0.7606 O   0  0  0  0  0  0  0  0  0  0  0  0
   -5.5856    4.2880   -0.1419 O   0  0  0  0  0  0  0  0  0  0  0  0
   -4.7569    2.0969    0.8420 O   0  0  0  0  0  0  0  0  0  0  0  0
   -3.7876    4.2242    1.5818 O   0  0  0  0  0  0  0  0  0  0  0  0
   -3.9338    5.1721    1.4295 H   0  0  0  0  0  0  0  0  0  0  0  0
  1  2  1  0  0  0  0
  1 10  2  0  0  0  0
  2  3  1  0  0  0  0
  4  1  1  0  0  0  0
  5  4  2  0  0  0  0
  5  6  1  0  0  0  0
  6  9  2  0  0  0  0
  7  6  1  0  0  0  0
  7  8  1  0  0  0  0
  8 15  1  0  0  0  0
  9 10  1  0  0  0  0
  9 16  1  0  0  0  0
 10 17  1  0  0  0  0
 12  5  1  0  0  0  0
 13  8  1  0  0  0  0
 14  8  1  0  0  0  0
 18 21  2  0  0  0  0
 18 22  1  0  0  0  0
 19 11  1  0  0  0  0
 19 18  1  0  0  0  0
 20 18  2  0  0  0  0
 23 22  1  0  0  0  0
M  RAD  3   2   2   3   3   4   2
M  END
