Coordinates from ORCA-job 4-MeOPhN2+~HSO4-_B3LYPG-6-31G_dp-CH-Scan-d09-49-n800
 OpenBabel11261919063D

 23 22  0  0  0  0  0  0  0  0999 V2000
   -1.5428   -0.1228   -0.1352 C   0  0  0  0  0  0  0  0  0  0  0  0
   -2.9133   -0.2443   -0.0419 N   0  0  0  0  0  0  0  0  0  0  0  0
   -4.0324   -0.2973    0.0116 N   0  0  0  0  0  0  0  0  0  0  0  0
   -1.1069    1.1372   -0.6108 C   0  0  0  0  0  0  0  0  0  0  0  0
    0.2996    1.1604   -0.6774 C   0  0  0  0  0  0  0  0  0  0  0  0
    1.1270    0.0848   -0.3196 C   0  0  0  0  0  0  0  0  0  0  0  0
    2.4617    0.2851   -0.4469 O   0  0  0  0  0  0  0  0  0  0  0  0
    3.3678   -0.7577   -0.1073 C   0  0  0  0  0  0  0  0  0  0  0  0
    0.5801   -1.1441    0.1505 C   0  0  0  0  0  0  0  0  0  0  0  0
   -0.7863   -1.2624    0.2485 C   0  0  0  0  0  0  0  0  0  0  0  0
   -3.7660    4.0444   -1.0457 H   0  0  0  0  0  0  0  0  0  0  0  0
    0.8197    2.0543   -1.0247 H   0  0  0  0  0  0  0  0  0  0  0  0
    4.3652   -0.3581   -0.2955 H   0  0  0  0  0  0  0  0  0  0  0  0
    3.2136   -1.6465   -0.7307 H   0  0  0  0  0  0  0  0  0  0  0  0
    3.2859   -1.0363    0.9504 H   0  0  0  0  0  0  0  0  0  0  0  0
    1.2160   -1.9749    0.4285 H   0  0  0  0  0  0  0  0  0  0  0  0
   -1.2514   -2.1798    0.6016 H   0  0  0  0  0  0  0  0  0  0  0  0
   -5.3671    3.8769    0.3678 S   0  0  0  0  0  0  0  0  0  0  0  0
   -4.5459    4.5871   -0.8347 O   0  0  0  0  0  0  0  0  0  0  0  0
   -6.6518    4.5418    0.4013 O   0  0  0  0  0  0  0  0  0  0  0  0
   -5.1984    2.4424    0.2831 O   0  0  0  0  0  0  0  0  0  0  0  0
   -4.5112    4.3381    1.6721 O   0  0  0  0  0  0  0  0  0  0  0  0
   -4.8056    5.2314    1.9191 H   0  0  0  0  0  0  0  0  0  0  0  0
  1  2  1  0  0  0  0
  1 10  2  0  0  0  0
  2  3  1  0  0  0  0
  4  1  1  0  0  0  0
  5  4  2  0  0  0  0
  5  6  1  0  0  0  0
  6  9  2  0  0  0  0
  7  6  1  0  0  0  0
  7  8  1  0  0  0  0
  8 15  1  0  0  0  0
  9 10  1  0  0  0  0
  9 16  1  0  0  0  0
 10 17  1  0  0  0  0
 11 19  1  0  0  0  0
 12  5  1  0  0  0  0
 13  8  1  0  0  0  0
 14  8  1  0  0  0  0
 18 20  2  0  0  0  0
 18 22  1  0  0  0  0
 19 18  1  0  0  0  0
 21 18  2  0  0  0  0
 22 23  1  0  0  0  0
M  RAD  3   2   2   3   3   4   2
M  END
