Coordinates from ORCA-job 4-MeOPhN2+~HSO4-_B3LYPG-6-31G_dp-CH-Scan-d09-49-n800
 OpenBabel11261919063D

 23 22  0  0  0  0  0  0  0  0999 V2000
   -1.9671   -0.0246   -0.1027 C   0  0  0  0  0  0  0  0  0  0  0  0
   -3.3141   -0.2790   -0.0523 N   0  0  0  0  0  0  0  0  0  0  0  0
   -4.4151   -0.4685   -0.0166 N   0  0  0  0  0  0  0  0  0  0  0  0
   -1.5627    1.3127   -0.3359 C   0  0  0  0  0  0  0  0  0  0  0  0
   -0.1802    1.4656   -0.3853 C   0  0  0  0  0  0  0  0  0  0  0  0
    0.7182    0.3945   -0.2189 C   0  0  0  0  0  0  0  0  0  0  0  0
    2.0249    0.7045   -0.2976 O   0  0  0  0  0  0  0  0  0  0  0  0
    3.0082   -0.3183   -0.1468 C   0  0  0  0  0  0  0  0  0  0  0  0
    0.2435   -0.9225    0.0145 C   0  0  0  0  0  0  0  0  0  0  0  0
   -1.1145   -1.1417    0.0723 C   0  0  0  0  0  0  0  0  0  0  0  0
   -2.5321    2.4875   -0.4883 H   0  0  0  0  0  0  0  0  0  0  0  0
    0.2555    2.4464   -0.5588 H   0  0  0  0  0  0  0  0  0  0  0  0
    3.9708    0.1804   -0.2583 H   0  0  0  0  0  0  0  0  0  0  0  0
    2.9056   -1.0873   -0.9211 H   0  0  0  0  0  0  0  0  0  0  0  0
    2.9528   -0.7817    0.8447 H   0  0  0  0  0  0  0  0  0  0  0  0
    0.9258   -1.7521    0.1469 H   0  0  0  0  0  0  0  0  0  0  0  0
   -1.5154   -2.1350    0.2501 H   0  0  0  0  0  0  0  0  0  0  0  0
   -4.4493    3.4183    0.3173 S   0  0  0  0  0  0  0  0  0  0  0  0
   -3.2320    3.4161   -0.6355 O   0  0  0  0  0  0  0  0  0  0  0  0
   -5.5856    4.0920   -0.3019 O   0  0  0  0  0  0  0  0  0  0  0  0
   -4.6206    2.0977    0.9273 O   0  0  0  0  0  0  0  0  0  0  0  0
   -3.9663    4.3831    1.5622 O   0  0  0  0  0  0  0  0  0  0  0  0
   -4.2928    5.2717    1.3488 H   0  0  0  0  0  0  0  0  0  0  0  0
  1  2  1  0  0  0  0
  1 10  2  0  0  0  0
  2  3  1  0  0  0  0
  4  1  1  0  0  0  0
  5  4  2  0  0  0  0
  5  6  1  0  0  0  0
  6  9  2  0  0  0  0
  7  6  1  0  0  0  0
  7  8  1  0  0  0  0
  8 15  1  0  0  0  0
  9 10  1  0  0  0  0
  9 16  1  0  0  0  0
 10 17  1  0  0  0  0
 12  5  1  0  0  0  0
 13  8  1  0  0  0  0
 14  8  1  0  0  0  0
 18 21  2  0  0  0  0
 18 22  1  0  0  0  0
 19 11  1  0  0  0  0
 19 18  1  0  0  0  0
 20 18  2  0  0  0  0
 23 22  1  0  0  0  0
M  RAD  3   2   2   3   3   4   2
M  END
