Coordinates from ORCA-job 4-MeOPhN2+~HSO4-_B3LYPG-6-31G_dp-CH-Scan-d09-49-n800
 OpenBabel11261919063D

 23 22  0  0  0  0  0  0  0  0999 V2000
   -1.3611   -0.1060   -0.2349 C   0  0  0  0  0  0  0  0  0  0  0  0
   -2.7379   -0.1402   -0.1515 N   0  0  0  0  0  0  0  0  0  0  0  0
   -3.8592   -0.1161   -0.1153 N   0  0  0  0  0  0  0  0  0  0  0  0
   -0.8597    1.0707   -0.8391 C   0  0  0  0  0  0  0  0  0  0  0  0
    0.5473    1.0162   -0.8884 C   0  0  0  0  0  0  0  0  0  0  0  0
    1.3149   -0.0530   -0.4022 C   0  0  0  0  0  0  0  0  0  0  0  0
    2.6597    0.0651   -0.5306 O   0  0  0  0  0  0  0  0  0  0  0  0
    3.5085   -0.9747   -0.0603 C   0  0  0  0  0  0  0  0  0  0  0  0
    0.7019   -1.1943    0.1920 C   0  0  0  0  0  0  0  0  0  0  0  0
   -0.6695   -1.2338    0.2829 C   0  0  0  0  0  0  0  0  0  0  0  0
   -4.2008    4.4280   -1.0154 H   0  0  0  0  0  0  0  0  0  0  0  0
    1.1155    1.8396   -1.3239 H   0  0  0  0  0  0  0  0  0  0  0  0
    4.5268   -0.6486   -0.2776 H   0  0  0  0  0  0  0  0  0  0  0  0
    3.3167   -1.9209   -0.5806 H   0  0  0  0  0  0  0  0  0  0  0  0
    3.4023   -1.1264    1.0208 H   0  0  0  0  0  0  0  0  0  0  0  0
    1.2924   -2.0198    0.5682 H   0  0  0  0  0  0  0  0  0  0  0  0
   -1.1843   -2.0831    0.7263 H   0  0  0  0  0  0  0  0  0  0  0  0
   -5.7034    4.0272    0.4552 S   0  0  0  0  0  0  0  0  0  0  0  0
   -5.0080    4.8902   -0.7301 O   0  0  0  0  0  0  0  0  0  0  0  0
   -7.0554    4.5314    0.5595 O   0  0  0  0  0  0  0  0  0  0  0  0
   -5.3642    2.6313    0.2835 O   0  0  0  0  0  0  0  0  0  0  0  0
   -4.8650    4.5219    1.7581 O   0  0  0  0  0  0  0  0  0  0  0  0
   -5.2601    5.3549    2.0676 H   0  0  0  0  0  0  0  0  0  0  0  0
  1  2  1  0  0  0  0
  1 10  2  0  0  0  0
  2  3  1  0  0  0  0
  4  1  1  0  0  0  0
  5  4  2  0  0  0  0
  5  6  1  0  0  0  0
  6  9  2  0  0  0  0
  7  6  1  0  0  0  0
  7  8  1  0  0  0  0
  8 15  1  0  0  0  0
  9 10  1  0  0  0  0
  9 16  1  0  0  0  0
 10 17  1  0  0  0  0
 11 19  1  0  0  0  0
 12  5  1  0  0  0  0
 13  8  1  0  0  0  0
 14  8  1  0  0  0  0
 18 20  2  0  0  0  0
 18 22  1  0  0  0  0
 19 18  1  0  0  0  0
 21 18  2  0  0  0  0
 22 23  1  0  0  0  0
M  RAD  3   2   2   3   3   4   2
M  END
