Coordinates from ORCA-job 4-MeOPhN2+~HSO4-_B3LYPG-6-31G_dp-CH-Scan-d09-49-n800
 OpenBabel11261919063D

 23 22  0  0  0  0  0  0  0  0999 V2000
   -1.8430   -0.0850   -0.0673 C   0  0  0  0  0  0  0  0  0  0  0  0
   -3.1939   -0.3235    0.0190 N   0  0  0  0  0  0  0  0  0  0  0  0
   -4.2995   -0.4910    0.0815 N   0  0  0  0  0  0  0  0  0  0  0  0
   -1.4707    1.2442   -0.3894 C   0  0  0  0  0  0  0  0  0  0  0  0
   -0.0768    1.3738   -0.4588 C   0  0  0  0  0  0  0  0  0  0  0  0
    0.8217    0.3161   -0.2369 C   0  0  0  0  0  0  0  0  0  0  0  0
    2.1342    0.6168   -0.3474 O   0  0  0  0  0  0  0  0  0  0  0  0
    3.1127   -0.3990   -0.1483 C   0  0  0  0  0  0  0  0  0  0  0  0
    0.3548   -0.9887    0.0836 C   0  0  0  0  0  0  0  0  0  0  0  0
   -1.0009   -1.2026    0.1712 C   0  0  0  0  0  0  0  0  0  0  0  0
   -2.9723    3.0168   -0.7222 H   0  0  0  0  0  0  0  0  0  0  0  0
    0.3759    2.3348   -0.6988 H   0  0  0  0  0  0  0  0  0  0  0  0
    4.0776    0.0857   -0.2997 H   0  0  0  0  0  0  0  0  0  0  0  0
    2.9997   -1.2134   -0.8735 H   0  0  0  0  0  0  0  0  0  0  0  0
    3.0691   -0.8054    0.8690 H   0  0  0  0  0  0  0  0  0  0  0  0
    1.0417   -1.8068    0.2582 H   0  0  0  0  0  0  0  0  0  0  0  0
   -1.4021   -2.1827    0.4148 H   0  0  0  0  0  0  0  0  0  0  0  0
   -4.7930    3.5988    0.2574 S   0  0  0  0  0  0  0  0  0  0  0  0
   -3.6224    3.7637   -0.8155 O   0  0  0  0  0  0  0  0  0  0  0  0
   -5.8062    4.5752   -0.0906 O   0  0  0  0  0  0  0  0  0  0  0  0
   -5.0921    2.1945    0.4679 O   0  0  0  0  0  0  0  0  0  0  0  0
   -4.0741    4.0827    1.6416 O   0  0  0  0  0  0  0  0  0  0  0  0
   -4.0828    5.0546    1.6479 H   0  0  0  0  0  0  0  0  0  0  0  0
  1  2  1  0  0  0  0
  1 10  2  0  0  0  0
  2  3  1  0  0  0  0
  4  1  1  0  0  0  0
  5  4  2  0  0  0  0
  5  6  1  0  0  0  0
  6  9  2  0  0  0  0
  7  6  1  0  0  0  0
  7  8  1  0  0  0  0
  8 15  1  0  0  0  0
  9 10  1  0  0  0  0
  9 16  1  0  0  0  0
 10 17  1  0  0  0  0
 12  5  1  0  0  0  0
 13  8  1  0  0  0  0
 14  8  1  0  0  0  0
 18 21  2  0  0  0  0
 18 22  1  0  0  0  0
 19 11  1  0  0  0  0
 19 18  1  0  0  0  0
 20 18  2  0  0  0  0
 22 23  1  0  0  0  0
M  RAD  3   2   2   3   3   4   2
M  END
