Coordinates from ORCA-job 4-MeOPhN2+~HSO4-_B3LYPG-6-31G_dp-CH-Scan-d09-49-n800
 OpenBabel11261919063D

 23 22  0  0  0  0  0  0  0  0999 V2000
   -1.6348   -0.1184   -0.0942 C   0  0  0  0  0  0  0  0  0  0  0  0
   -2.9997   -0.2798    0.0034 N   0  0  0  0  0  0  0  0  0  0  0  0
   -4.1156   -0.3701    0.0662 N   0  0  0  0  0  0  0  0  0  0  0  0
   -1.2256    1.1716   -0.5109 C   0  0  0  0  0  0  0  0  0  0  0  0
    0.1778    1.2315   -0.5856 C   0  0  0  0  0  0  0  0  0  0  0  0
    1.0315    0.1579   -0.2866 C   0  0  0  0  0  0  0  0  0  0  0  0
    2.3593    0.3941   -0.4142 O   0  0  0  0  0  0  0  0  0  0  0  0
    3.2916   -0.6442   -0.1357 C   0  0  0  0  0  0  0  0  0  0  0  0
    0.5148   -1.1034    0.1269 C   0  0  0  0  0  0  0  0  0  0  0  0
   -0.8479   -1.2563    0.2281 C   0  0  0  0  0  0  0  0  0  0  0  0
   -3.4888    3.7203   -0.9621 H   0  0  0  0  0  0  0  0  0  0  0  0
    0.6744    2.1526   -0.8924 H   0  0  0  0  0  0  0  0  0  0  0  0
    4.2778   -0.2142   -0.3156 H   0  0  0  0  0  0  0  0  0  0  0  0
    3.1479   -1.5048   -0.7997 H   0  0  0  0  0  0  0  0  0  0  0  0
    3.2284   -0.9747    0.9081 H   0  0  0  0  0  0  0  0  0  0  0  0
    1.1703   -1.9326    0.3601 H   0  0  0  0  0  0  0  0  0  0  0  0
   -1.2897   -2.1996    0.5401 H   0  0  0  0  0  0  0  0  0  0  0  0
   -5.2011    3.8030    0.3213 S   0  0  0  0  0  0  0  0  0  0  0  0
   -4.2267    4.3465   -0.8480 O   0  0  0  0  0  0  0  0  0  0  0  0
   -6.4034    4.6034    0.2260 O   0  0  0  0  0  0  0  0  0  0  0  0
   -5.1938    2.3556    0.3273 O   0  0  0  0  0  0  0  0  0  0  0  0
   -4.3926    4.2433    1.6637 O   0  0  0  0  0  0  0  0  0  0  0  0
   -4.5966    5.1779    1.8380 H   0  0  0  0  0  0  0  0  0  0  0  0
  1  2  1  0  0  0  0
  1 10  2  0  0  0  0
  2  3  1  0  0  0  0
  4  1  1  0  0  0  0
  5  4  2  0  0  0  0
  5  6  1  0  0  0  0
  6  9  2  0  0  0  0
  7  6  1  0  0  0  0
  7  8  1  0  0  0  0
  8 15  1  0  0  0  0
  9 10  1  0  0  0  0
  9 16  1  0  0  0  0
 10 17  1  0  0  0  0
 11 19  1  0  0  0  0
 12  5  1  0  0  0  0
 13  8  1  0  0  0  0
 14  8  1  0  0  0  0
 18 21  2  0  0  0  0
 18 22  1  0  0  0  0
 19 18  1  0  0  0  0
 20 18  2  0  0  0  0
 22 23  1  0  0  0  0
M  RAD  3   2   2   3   3   4   2
M  END
