Coordinates from ORCA-job 4-MeOPhN2+~HSO4-_B3LYPG-6-31G_dp-CH-Scan-d09-49-n800
 OpenBabel11261919063D

 23 22  0  0  0  0  0  0  0  0999 V2000
   -1.9178   -0.0710   -0.0739 C   0  0  0  0  0  0  0  0  0  0  0  0
   -3.2633   -0.3364   -0.0015 N   0  0  0  0  0  0  0  0  0  0  0  0
   -4.3647   -0.5288    0.0497 N   0  0  0  0  0  0  0  0  0  0  0  0
   -1.5526    1.2695   -0.3580 C   0  0  0  0  0  0  0  0  0  0  0  0
   -0.1631    1.4209   -0.4191 C   0  0  0  0  0  0  0  0  0  0  0  0
    0.7485    0.3684   -0.2226 C   0  0  0  0  0  0  0  0  0  0  0  0
    2.0552    0.6890   -0.3216 O   0  0  0  0  0  0  0  0  0  0  0  0
    3.0476   -0.3191   -0.1484 C   0  0  0  0  0  0  0  0  0  0  0  0
    0.2951   -0.9483    0.0614 C   0  0  0  0  0  0  0  0  0  0  0  0
   -1.0587   -1.1800    0.1374 C   0  0  0  0  0  0  0  0  0  0  0  0
   -2.7841    2.7422   -0.6108 H   0  0  0  0  0  0  0  0  0  0  0  0
    0.2740    2.3947   -0.6318 H   0  0  0  0  0  0  0  0  0  0  0  0
    4.0056    0.1828   -0.2854 H   0  0  0  0  0  0  0  0  0  0  0  0
    2.9454   -1.1146   -0.8958 H   0  0  0  0  0  0  0  0  0  0  0  0
    3.0076   -0.7524    0.8577 H   0  0  0  0  0  0  0  0  0  0  0  0
    0.9900   -1.7633    0.2174 H   0  0  0  0  0  0  0  0  0  0  0  0
   -1.4485   -2.1708    0.3533 H   0  0  0  0  0  0  0  0  0  0  0  0
   -4.6206    3.5130    0.2578 S   0  0  0  0  0  0  0  0  0  0  0  0
   -3.4132    3.5425   -0.7610 O   0  0  0  0  0  0  0  0  0  0  0  0
   -5.6125    4.4633   -0.2127 O   0  0  0  0  0  0  0  0  0  0  0  0
   -4.9643    2.1418    0.6011 O   0  0  0  0  0  0  0  0  0  0  0  0
   -3.9605    4.1242    1.6262 O   0  0  0  0  0  0  0  0  0  0  0  0
   -3.9876    5.0919    1.5445 H   0  0  0  0  0  0  0  0  0  0  0  0
  1  2  1  0  0  0  0
  1 10  2  0  0  0  0
  2  3  1  0  0  0  0
  4  1  1  0  0  0  0
  5  4  2  0  0  0  0
  5  6  1  0  0  0  0
  6  9  2  0  0  0  0
  7  6  1  0  0  0  0
  7  8  1  0  0  0  0
  8 15  1  0  0  0  0
  9 10  1  0  0  0  0
  9 16  1  0  0  0  0
 10 17  1  0  0  0  0
 12  5  1  0  0  0  0
 13  8  1  0  0  0  0
 14  8  1  0  0  0  0
 18 21  2  0  0  0  0
 18 22  1  0  0  0  0
 19 11  1  0  0  0  0
 19 18  1  0  0  0  0
 20 18  2  0  0  0  0
 23 22  1  0  0  0  0
M  RAD  3   2   2   3   3   4   2
M  END
