Coordinates from ORCA-job 4-MeOPhN2+~HSO4-_B3LYPG-6-31G_dp-CH-Scan-d09-49-n800
 OpenBabel11261919063D

 23 22  0  0  0  0  0  0  0  0999 V2000
   -1.9733    0.0011   -0.1116 C   0  0  0  0  0  0  0  0  0  0  0  0
   -3.3229   -0.2357   -0.0627 N   0  0  0  0  0  0  0  0  0  0  0  0
   -4.4260   -0.4083   -0.0257 N   0  0  0  0  0  0  0  0  0  0  0  0
   -1.5414    1.3281   -0.3455 C   0  0  0  0  0  0  0  0  0  0  0  0
   -0.1629    1.4785   -0.3952 C   0  0  0  0  0  0  0  0  0  0  0  0
    0.7239    0.3972   -0.2252 C   0  0  0  0  0  0  0  0  0  0  0  0
    2.0317    0.6947   -0.3014 O   0  0  0  0  0  0  0  0  0  0  0  0
    3.0066   -0.3362   -0.1431 C   0  0  0  0  0  0  0  0  0  0  0  0
    0.2330   -0.9128    0.0083 C   0  0  0  0  0  0  0  0  0  0  0  0
   -1.1281   -1.1193    0.0639 C   0  0  0  0  0  0  0  0  0  0  0  0
   -2.4413    2.4184   -0.4862 H   0  0  0  0  0  0  0  0  0  0  0  0
    0.2745    2.4576   -0.5686 H   0  0  0  0  0  0  0  0  0  0  0  0
    3.9732    0.1550   -0.2519 H   0  0  0  0  0  0  0  0  0  0  0  0
    2.9003   -1.1060   -0.9158 H   0  0  0  0  0  0  0  0  0  0  0  0
    2.9421   -0.7951    0.8498 H   0  0  0  0  0  0  0  0  0  0  0  0
    0.9058   -1.7497    0.1431 H   0  0  0  0  0  0  0  0  0  0  0  0
   -1.5378   -2.1085    0.2424 H   0  0  0  0  0  0  0  0  0  0  0  0
   -4.4228    3.3992    0.3277 S   0  0  0  0  0  0  0  0  0  0  0  0
   -3.2270    3.4302   -0.6259 O   0  0  0  0  0  0  0  0  0  0  0  0
   -5.6203    3.9820   -0.2762 O   0  0  0  0  0  0  0  0  0  0  0  0
   -4.5211    2.0878    0.9861 O   0  0  0  0  0  0  0  0  0  0  0  0
   -3.9899    4.4290    1.5456 O   0  0  0  0  0  0  0  0  0  0  0  0
   -4.4187    5.2724    1.3320 H   0  0  0  0  0  0  0  0  0  0  0  0
  1  2  1  0  0  0  0
  1 10  2  0  0  0  0
  2  3  1  0  0  0  0
  4  1  1  0  0  0  0
  5  4  2  0  0  0  0
  5  6  1  0  0  0  0
  6  9  2  0  0  0  0
  7  6  1  0  0  0  0
  7  8  1  0  0  0  0
  8 15  1  0  0  0  0
  9 10  1  0  0  0  0
  9 16  1  0  0  0  0
 10 17  1  0  0  0  0
 12  5  1  0  0  0  0
 13  8  1  0  0  0  0
 14  8  1  0  0  0  0
 18 21  2  0  0  0  0
 18 22  1  0  0  0  0
 19 11  1  0  0  0  0
 19 18  1  0  0  0  0
 20 18  2  0  0  0  0
 23 22  1  0  0  0  0
M  RAD  3   2   2   3   3   4   2
M  END
