Coordinates from ORCA-job 4-MeOPhN2+~HSO4-_B3LYPG-6-31G_dp-CH-Scan-d09-49-n800
 OpenBabel11261919063D

 23 22  0  0  0  0  0  0  0  0999 V2000
   -1.3735   -0.1106   -0.2224 C   0  0  0  0  0  0  0  0  0  0  0  0
   -2.7499   -0.1520   -0.1357 N   0  0  0  0  0  0  0  0  0  0  0  0
   -3.8713   -0.1337   -0.1004 N   0  0  0  0  0  0  0  0  0  0  0  0
   -0.8788    1.0744   -0.8159 C   0  0  0  0  0  0  0  0  0  0  0  0
    0.5283    1.0268   -0.8690 C   0  0  0  0  0  0  0  0  0  0  0  0
    1.3019   -0.0438   -0.3954 C   0  0  0  0  0  0  0  0  0  0  0  0
    2.6459    0.0818   -0.5256 O   0  0  0  0  0  0  0  0  0  0  0  0
    3.5004   -0.9592   -0.0684 C   0  0  0  0  0  0  0  0  0  0  0  0
    0.6954   -1.1938    0.1886 C   0  0  0  0  0  0  0  0  0  0  0  0
   -0.6756   -1.2403    0.2823 C   0  0  0  0  0  0  0  0  0  0  0  0
   -4.1626    4.4027   -1.0132 H   0  0  0  0  0  0  0  0  0  0  0  0
    1.0917    1.8571   -1.2976 H   0  0  0  0  0  0  0  0  0  0  0  0
    4.5167   -0.6256   -0.2835 H   0  0  0  0  0  0  0  0  0  0  0  0
    3.3124   -1.9002   -0.5993 H   0  0  0  0  0  0  0  0  0  0  0  0
    3.3966   -1.1236    1.0111 H   0  0  0  0  0  0  0  0  0  0  0  0
    1.2905   -2.0205    0.5550 H   0  0  0  0  0  0  0  0  0  0  0  0
   -1.1855   -2.0965    0.7183 H   0  0  0  0  0  0  0  0  0  0  0  0
   -5.6824    4.0213    0.4450 S   0  0  0  0  0  0  0  0  0  0  0  0
   -4.9683    4.8731   -0.7371 O   0  0  0  0  0  0  0  0  0  0  0  0
   -7.0298    4.5400    0.5365 O   0  0  0  0  0  0  0  0  0  0  0  0
   -5.3566    2.6213    0.2807 O   0  0  0  0  0  0  0  0  0  0  0  0
   -4.8497    4.5113    1.7533 O   0  0  0  0  0  0  0  0  0  0  0  0
   -5.2383    5.3496    2.0566 H   0  0  0  0  0  0  0  0  0  0  0  0
  1  2  1  0  0  0  0
  1 10  2  0  0  0  0
  2  3  1  0  0  0  0
  4  1  1  0  0  0  0
  5  4  2  0  0  0  0
  5  6  1  0  0  0  0
  6  9  2  0  0  0  0
  7  6  1  0  0  0  0
  7  8  1  0  0  0  0
  8 15  1  0  0  0  0
  9 10  1  0  0  0  0
  9 16  1  0  0  0  0
 10 17  1  0  0  0  0
 11 19  1  0  0  0  0
 12  5  1  0  0  0  0
 13  8  1  0  0  0  0
 14  8  1  0  0  0  0
 18 20  2  0  0  0  0
 18 22  1  0  0  0  0
 19 18  1  0  0  0  0
 21 18  2  0  0  0  0
 22 23  1  0  0  0  0
M  RAD  3   2   2   3   3   4   2
M  END
