Coordinates from ORCA-job 4-MeOPhN2+~HSO4-_B3LYPG-6-31G_dp-CH-Scan-d09-49-n800
 OpenBabel11261919063D

 23 22  0  0  0  0  0  0  0  0999 V2000
   -1.6745   -0.1151   -0.0973 C   0  0  0  0  0  0  0  0  0  0  0  0
   -3.0373   -0.2921   -0.0048 N   0  0  0  0  0  0  0  0  0  0  0  0
   -4.1518   -0.3984    0.0542 N   0  0  0  0  0  0  0  0  0  0  0  0
   -1.2733    1.1815   -0.5017 C   0  0  0  0  0  0  0  0  0  0  0  0
    0.1288    1.2559   -0.5719 C   0  0  0  0  0  0  0  0  0  0  0  0
    0.9916    0.1874   -0.2795 C   0  0  0  0  0  0  0  0  0  0  0  0
    2.3169    0.4369   -0.4014 O   0  0  0  0  0  0  0  0  0  0  0  0
    3.2583   -0.5952   -0.1296 C   0  0  0  0  0  0  0  0  0  0  0  0
    0.4847   -1.0816    0.1215 C   0  0  0  0  0  0  0  0  0  0  0  0
   -0.8769   -1.2476    0.2172 C   0  0  0  0  0  0  0  0  0  0  0  0
   -3.4033    3.5942   -0.9390 H   0  0  0  0  0  0  0  0  0  0  0  0
    0.6173    2.1841   -0.8695 H   0  0  0  0  0  0  0  0  0  0  0  0
    4.2408   -0.1546   -0.3038 H   0  0  0  0  0  0  0  0  0  0  0  0
    3.1236   -1.4515   -0.8010 H   0  0  0  0  0  0  0  0  0  0  0  0
    3.1959   -0.9347    0.9113 H   0  0  0  0  0  0  0  0  0  0  0  0
    1.1467   -1.9071    0.3497 H   0  0  0  0  0  0  0  0  0  0  0  0
   -1.3108   -2.1974    0.5200 H   0  0  0  0  0  0  0  0  0  0  0  0
   -5.1272    3.7658    0.3193 S   0  0  0  0  0  0  0  0  0  0  0  0
   -4.1264    4.2435   -0.8534 O   0  0  0  0  0  0  0  0  0  0  0  0
   -6.2979    4.6086    0.1967 O   0  0  0  0  0  0  0  0  0  0  0  0
   -5.1783    2.3195    0.3617 O   0  0  0  0  0  0  0  0  0  0  0  0
   -4.3125    4.2054    1.6588 O   0  0  0  0  0  0  0  0  0  0  0  0
   -4.4769    5.1523    1.8064 H   0  0  0  0  0  0  0  0  0  0  0  0
  1  2  1  0  0  0  0
  1 10  2  0  0  0  0
  2  3  1  0  0  0  0
  4  1  1  0  0  0  0
  5  4  2  0  0  0  0
  5  6  1  0  0  0  0
  6  9  2  0  0  0  0
  7  6  1  0  0  0  0
  7  8  1  0  0  0  0
  8 15  1  0  0  0  0
  9 10  1  0  0  0  0
  9 16  1  0  0  0  0
 10 17  1  0  0  0  0
 11 19  1  0  0  0  0
 12  5  1  0  0  0  0
 13  8  1  0  0  0  0
 14  8  1  0  0  0  0
 18 21  2  0  0  0  0
 18 22  1  0  0  0  0
 19 18  1  0  0  0  0
 20 18  2  0  0  0  0
 22 23  1  0  0  0  0
M  RAD  3   2   2   3   3   4   2
M  END
