Coordinates from ORCA-job 4-MeOPhN2+~HSO4-_B3LYPG-6-31G_dp-CH-Scan-d09-49-n800
 OpenBabel11261919063D

 23 22  0  0  0  0  0  0  0  0999 V2000
   -1.5083   -0.1235   -0.1543 C   0  0  0  0  0  0  0  0  0  0  0  0
   -2.8805   -0.2300   -0.0638 N   0  0  0  0  0  0  0  0  0  0  0  0
   -4.0002   -0.2699   -0.0082 N   0  0  0  0  0  0  0  0  0  0  0  0
   -1.0609    1.1240   -0.6510 C   0  0  0  0  0  0  0  0  0  0  0  0
    0.3461    1.1339   -0.7136 C   0  0  0  0  0  0  0  0  0  0  0  0
    1.1630    0.0581   -0.3335 C   0  0  0  0  0  0  0  0  0  0  0  0
    2.5000    0.2447   -0.4594 O   0  0  0  0  0  0  0  0  0  0  0  0
    3.3961   -0.7989   -0.0970 C   0  0  0  0  0  0  0  0  0  0  0  0
    0.6042   -1.1577    0.1567 C   0  0  0  0  0  0  0  0  0  0  0  0
   -0.7634   -1.2629    0.2523 C   0  0  0  0  0  0  0  0  0  0  0  0
   -3.8620    4.1306   -1.0552 H   0  0  0  0  0  0  0  0  0  0  0  0
    0.8749    2.0170   -1.0751 H   0  0  0  0  0  0  0  0  0  0  0  0
    4.3976   -0.4105   -0.2874 H   0  0  0  0  0  0  0  0  0  0  0  0
    3.2381   -1.6974   -0.7054 H   0  0  0  0  0  0  0  0  0  0  0  0
    3.3071   -1.0581    0.9650 H   0  0  0  0  0  0  0  0  0  0  0  0
    1.2322   -1.9887    0.4515 H   0  0  0  0  0  0  0  0  0  0  0  0
   -1.2374   -2.1700    0.6200 H   0  0  0  0  0  0  0  0  0  0  0  0
   -5.4302    3.9073    0.3867 S   0  0  0  0  0  0  0  0  0  0  0  0
   -4.6481    4.6541   -0.8207 O   0  0  0  0  0  0  0  0  0  0  0  0
   -6.7343    4.5315    0.4450 O   0  0  0  0  0  0  0  0  0  0  0  0
   -5.2167    2.4800    0.2841 O   0  0  0  0  0  0  0  0  0  0  0  0
   -4.5701    4.3828    1.6829 O   0  0  0  0  0  0  0  0  0  0  0  0
   -4.8898    5.2632    1.9444 H   0  0  0  0  0  0  0  0  0  0  0  0
  1  2  1  0  0  0  0
  1 10  2  0  0  0  0
  2  3  1  0  0  0  0
  4  1  1  0  0  0  0
  5  4  2  0  0  0  0
  5  6  1  0  0  0  0
  6  9  2  0  0  0  0
  7  6  1  0  0  0  0
  7  8  1  0  0  0  0
  8 15  1  0  0  0  0
  9 10  1  0  0  0  0
  9 16  1  0  0  0  0
 10 17  1  0  0  0  0
 11 19  1  0  0  0  0
 12  5  1  0  0  0  0
 13  8  1  0  0  0  0
 14  8  1  0  0  0  0
 18 20  2  0  0  0  0
 18 22  1  0  0  0  0
 19 18  1  0  0  0  0
 21 18  2  0  0  0  0
 22 23  1  0  0  0  0
M  RAD  3   2   2   3   3   4   2
M  END
