Coordinates from ORCA-job 4-MeOPhN2+~HSO4-_B3LYPG-6-31G_dp-CH-Scan-d09-49-n800
 OpenBabel11261919063D

 23 22  0  0  0  0  0  0  0  0999 V2000
   -1.6065   -0.1201   -0.0972 C   0  0  0  0  0  0  0  0  0  0  0  0
   -2.9730   -0.2700    0.0019 N   0  0  0  0  0  0  0  0  0  0  0  0
   -4.0899   -0.3485    0.0645 N   0  0  0  0  0  0  0  0  0  0  0  0
   -1.1906    1.1644   -0.5238 C   0  0  0  0  0  0  0  0  0  0  0  0
    0.2136    1.2137   -0.5994 C   0  0  0  0  0  0  0  0  0  0  0  0
    1.0603    0.1370   -0.2923 C   0  0  0  0  0  0  0  0  0  0  0  0
    2.3900    0.3632   -0.4218 O   0  0  0  0  0  0  0  0  0  0  0  0
    3.3152   -0.6788   -0.1347 C   0  0  0  0  0  0  0  0  0  0  0  0
    0.5356   -1.1180    0.1308 C   0  0  0  0  0  0  0  0  0  0  0  0
   -0.8279   -1.2614    0.2336 C   0  0  0  0  0  0  0  0  0  0  0  0
   -3.5627    3.8102   -0.9858 H   0  0  0  0  0  0  0  0  0  0  0  0
    0.7167    2.1290   -0.9133 H   0  0  0  0  0  0  0  0  0  0  0  0
    4.3044   -0.2567   -0.3169 H   0  0  0  0  0  0  0  0  0  0  0  0
    3.1666   -1.5436   -0.7924 H   0  0  0  0  0  0  0  0  0  0  0  0
    3.2491   -1.0013    0.9114 H   0  0  0  0  0  0  0  0  0  0  0  0
    1.1859   -1.9497    0.3700 H   0  0  0  0  0  0  0  0  0  0  0  0
   -1.2759   -2.1994    0.5528 H   0  0  0  0  0  0  0  0  0  0  0  0
   -5.2539    3.8278    0.3286 S   0  0  0  0  0  0  0  0  0  0  0  0
   -4.3125    4.4166   -0.8477 O   0  0  0  0  0  0  0  0  0  0  0  0
   -6.4795    4.5948    0.2629 O   0  0  0  0  0  0  0  0  0  0  0  0
   -5.2035    2.3817    0.3106 O   0  0  0  0  0  0  0  0  0  0  0  0
   -4.4371    4.2719    1.6642 O   0  0  0  0  0  0  0  0  0  0  0  0
   -4.6671    5.1967    1.8576 H   0  0  0  0  0  0  0  0  0  0  0  0
  1  2  1  0  0  0  0
  1 10  2  0  0  0  0
  2  3  1  0  0  0  0
  4  1  1  0  0  0  0
  5  4  2  0  0  0  0
  5  6  1  0  0  0  0
  6  9  2  0  0  0  0
  7  6  1  0  0  0  0
  7  8  1  0  0  0  0
  8 15  1  0  0  0  0
  9 10  1  0  0  0  0
  9 16  1  0  0  0  0
 10 17  1  0  0  0  0
 11 19  1  0  0  0  0
 12  5  1  0  0  0  0
 13  8  1  0  0  0  0
 14  8  1  0  0  0  0
 18 22  1  0  0  0  0
 19 18  1  0  0  0  0
 20 18  2  0  0  0  0
 21 18  2  0  0  0  0
 22 23  1  0  0  0  0
M  RAD  3   2   2   3   3   4   2
M  END
