Coordinates from ORCA-job 4-MeOPhN2+~HSO4-_B3LYPG-6-31G_dp-CH-Scan-d09-49-n800
 OpenBabel11261919063D

 23 22  0  0  0  0  0  0  0  0999 V2000
   -1.5169   -0.1244   -0.1502 C   0  0  0  0  0  0  0  0  0  0  0  0
   -2.8887   -0.2345   -0.0588 N   0  0  0  0  0  0  0  0  0  0  0  0
   -4.0085   -0.2771   -0.0073 N   0  0  0  0  0  0  0  0  0  0  0  0
   -1.0729    1.1254   -0.6444 C   0  0  0  0  0  0  0  0  0  0  0  0
    0.3340    1.1389   -0.7080 C   0  0  0  0  0  0  0  0  0  0  0  0
    1.1539    0.0641   -0.3313 C   0  0  0  0  0  0  0  0  0  0  0  0
    2.4903    0.2543   -0.4580 O   0  0  0  0  0  0  0  0  0  0  0  0
    3.3891   -0.7882   -0.0991 C   0  0  0  0  0  0  0  0  0  0  0  0
    0.5984   -1.1542    0.1565 C   0  0  0  0  0  0  0  0  0  0  0  0
   -0.7688   -1.2629    0.2530 C   0  0  0  0  0  0  0  0  0  0  0  0
   -3.8359    4.1122   -1.0504 H   0  0  0  0  0  0  0  0  0  0  0  0
    0.8604    2.0241   -1.0679 H   0  0  0  0  0  0  0  0  0  0  0  0
    4.3896   -0.3971   -0.2898 H   0  0  0  0  0  0  0  0  0  0  0  0
    3.2324   -1.6855   -0.7095 H   0  0  0  0  0  0  0  0  0  0  0  0
    3.3020   -1.0501    0.9624 H   0  0  0  0  0  0  0  0  0  0  0  0
    1.2287   -1.9843    0.4488 H   0  0  0  0  0  0  0  0  0  0  0  0
   -1.2404   -2.1720    0.6189 H   0  0  0  0  0  0  0  0  0  0  0  0
   -5.4143    3.9004    0.3821 S   0  0  0  0  0  0  0  0  0  0  0  0
   -4.6206    4.6404   -0.8218 O   0  0  0  0  0  0  0  0  0  0  0  0
   -6.7140    4.5343    0.4333 O   0  0  0  0  0  0  0  0  0  0  0  0
   -5.2110    2.4716    0.2817 O   0  0  0  0  0  0  0  0  0  0  0  0
   -4.5574    4.3706    1.6823 O   0  0  0  0  0  0  0  0  0  0  0  0
   -4.8717    5.2537    1.9413 H   0  0  0  0  0  0  0  0  0  0  0  0
  1  2  1  0  0  0  0
  1 10  2  0  0  0  0
  2  3  1  0  0  0  0
  4  1  1  0  0  0  0
  5  4  2  0  0  0  0
  5  6  1  0  0  0  0
  6  9  2  0  0  0  0
  7  6  1  0  0  0  0
  7  8  1  0  0  0  0
  8 15  1  0  0  0  0
  9 10  1  0  0  0  0
  9 16  1  0  0  0  0
 10 17  1  0  0  0  0
 11 19  1  0  0  0  0
 12  5  1  0  0  0  0
 13  8  1  0  0  0  0
 14  8  1  0  0  0  0
 18 20  2  0  0  0  0
 18 22  1  0  0  0  0
 19 18  1  0  0  0  0
 21 18  2  0  0  0  0
 22 23  1  0  0  0  0
M  RAD  3   2   2   3   3   4   2
M  END
