Coordinates from ORCA-job 4-MeOPhN2+~HSO4-_B3LYPG-6-31G_dp-CH-Scan-d09-49-n800
 OpenBabel11261919063D

 23 22  0  0  0  0  0  0  0  0999 V2000
   -1.4715   -0.1243   -0.1691 C   0  0  0  0  0  0  0  0  0  0  0  0
   -2.8450   -0.2145   -0.0777 N   0  0  0  0  0  0  0  0  0  0  0  0
   -3.9655   -0.2393   -0.0283 N   0  0  0  0  0  0  0  0  0  0  0  0
   -1.0133    1.1087   -0.6908 C   0  0  0  0  0  0  0  0  0  0  0  0
    0.3940    1.1047   -0.7526 C   0  0  0  0  0  0  0  0  0  0  0  0
    1.2009    0.0296   -0.3497 C   0  0  0  0  0  0  0  0  0  0  0  0
    2.5397    0.2018   -0.4777 O   0  0  0  0  0  0  0  0  0  0  0  0
    3.4262   -0.8417   -0.0922 C   0  0  0  0  0  0  0  0  0  0  0  0
    0.6308   -1.1710    0.1647 C   0  0  0  0  0  0  0  0  0  0  0  0
   -0.7377   -1.2621    0.2613 C   0  0  0  0  0  0  0  0  0  0  0  0
   -3.9405    4.2102   -1.0429 H   0  0  0  0  0  0  0  0  0  0  0  0
    0.9310    1.9755   -1.1316 H   0  0  0  0  0  0  0  0  0  0  0  0
    4.4313   -0.4657   -0.2883 H   0  0  0  0  0  0  0  0  0  0  0  0
    3.2620   -1.7511   -0.6826 H   0  0  0  0  0  0  0  0  0  0  0  0
    3.3329   -1.0786    0.9747 H   0  0  0  0  0  0  0  0  0  0  0  0
    1.2513   -2.0013    0.4768 H   0  0  0  0  0  0  0  0  0  0  0  0
   -1.2201   -2.1574    0.6466 H   0  0  0  0  0  0  0  0  0  0  0  0
   -5.5004    3.9428    0.4000 S   0  0  0  0  0  0  0  0  0  0  0  0
   -4.7323    4.7201   -0.7981 O   0  0  0  0  0  0  0  0  0  0  0  0
   -6.8175    4.5381    0.4639 O   0  0  0  0  0  0  0  0  0  0  0  0
   -5.2545    2.5222    0.2798 O   0  0  0  0  0  0  0  0  0  0  0  0
   -4.6520    4.4220    1.7024 O   0  0  0  0  0  0  0  0  0  0  0  0
   -4.9923    5.2911    1.9753 H   0  0  0  0  0  0  0  0  0  0  0  0
  1  2  1  0  0  0  0
  1 10  2  0  0  0  0
  2  3  1  0  0  0  0
  4  1  1  0  0  0  0
  5  4  2  0  0  0  0
  5  6  1  0  0  0  0
  6  9  2  0  0  0  0
  7  6  1  0  0  0  0
  7  8  1  0  0  0  0
  8 15  1  0  0  0  0
  9 10  1  0  0  0  0
  9 16  1  0  0  0  0
 10 17  1  0  0  0  0
 11 19  1  0  0  0  0
 12  5  1  0  0  0  0
 13  8  1  0  0  0  0
 14  8  1  0  0  0  0
 18 20  2  0  0  0  0
 18 22  1  0  0  0  0
 19 18  1  0  0  0  0
 21 18  2  0  0  0  0
 22 23  1  0  0  0  0
M  RAD  3   2   2   3   3   4   2
M  END
