Coordinates from ORCA-job 4-MeOPhN2+~HSO4-_B3LYPG-6-31G_dp-CH-Scan-d09-49-n800
 OpenBabel11261919063D

 23 22  0  0  0  0  0  0  0  0999 V2000
   -1.9688   -0.0555   -0.1322 C   0  0  0  0  0  0  0  0  0  0  0  0
   -3.3132   -0.3274   -0.0873 N   0  0  0  0  0  0  0  0  0  0  0  0
   -4.4133   -0.5274   -0.0583 N   0  0  0  0  0  0  0  0  0  0  0  0
   -1.5947    1.2850   -0.4027 C   0  0  0  0  0  0  0  0  0  0  0  0
   -0.2092    1.4493   -0.4379 C   0  0  0  0  0  0  0  0  0  0  0  0
    0.7035    0.3995   -0.2270 C   0  0  0  0  0  0  0  0  0  0  0  0
    2.0084    0.7274   -0.2973 O   0  0  0  0  0  0  0  0  0  0  0  0
    3.0035   -0.2752   -0.1015 C   0  0  0  0  0  0  0  0  0  0  0  0
    0.2488   -0.9192    0.0412 C   0  0  0  0  0  0  0  0  0  0  0  0
   -1.1056   -1.1578    0.0889 C   0  0  0  0  0  0  0  0  0  0  0  0
   -2.6879    2.5590   -0.6063 H   0  0  0  0  0  0  0  0  0  0  0  0
    0.2213    2.4284   -0.6363 H   0  0  0  0  0  0  0  0  0  0  0  0
    3.9608    0.2336   -0.2151 H   0  0  0  0  0  0  0  0  0  0  0  0
    2.9237   -1.0698   -0.8525 H   0  0  0  0  0  0  0  0  0  0  0  0
    2.9414   -0.7093    0.9029 H   0  0  0  0  0  0  0  0  0  0  0  0
    0.9434   -1.7323    0.2076 H   0  0  0  0  0  0  0  0  0  0  0  0
   -1.4942   -2.1514    0.2924 H   0  0  0  0  0  0  0  0  0  0  0  0
   -4.4914    3.4327    0.3310 S   0  0  0  0  0  0  0  0  0  0  0  0
   -3.3660    3.3938   -0.7541 O   0  0  0  0  0  0  0  0  0  0  0  0
   -5.5804    4.2705   -0.1479 O   0  0  0  0  0  0  0  0  0  0  0  0
   -4.7391    2.0934    0.8544 O   0  0  0  0  0  0  0  0  0  0  0  0
   -3.7854    4.2339    1.5789 O   0  0  0  0  0  0  0  0  0  0  0  0
   -3.9482    5.1784    1.4231 H   0  0  0  0  0  0  0  0  0  0  0  0
  1  2  1  0  0  0  0
  1 10  2  0  0  0  0
  2  3  1  0  0  0  0
  4  1  1  0  0  0  0
  5  4  2  0  0  0  0
  5  6  1  0  0  0  0
  6  9  2  0  0  0  0
  7  6  1  0  0  0  0
  7  8  1  0  0  0  0
  8 15  1  0  0  0  0
  9 10  1  0  0  0  0
  9 16  1  0  0  0  0
 10 17  1  0  0  0  0
 12  5  1  0  0  0  0
 13  8  1  0  0  0  0
 14  8  1  0  0  0  0
 18 21  2  0  0  0  0
 18 22  1  0  0  0  0
 19 11  1  0  0  0  0
 19 18  1  0  0  0  0
 20 18  2  0  0  0  0
 23 22  1  0  0  0  0
M  RAD  3   2   2   3   3   4   2
M  END
