Coordinates from ORCA-job 4-MeOPhN2+~HSO4-_B3LYPG-6-31G_dp-CH-Scan-d09-49-n800
 OpenBabel11261919053D

 23 22  0  0  0  0  0  0  0  0999 V2000
   -1.9576    0.3939   -0.1931 C   0  0  0  0  0  0  0  0  0  0  0  0
   -3.3309    0.3419   -0.1826 N   0  0  0  0  0  0  0  0  0  0  0  0
   -4.4510    0.2759   -0.2246 N   0  0  0  0  0  0  0  0  0  0  0  0
   -1.2963    1.6259   -0.3996 C   0  0  0  0  0  0  0  0  0  0  0  0
    0.0828    1.6051   -0.4279 C   0  0  0  0  0  0  0  0  0  0  0  0
    0.8012    0.4063   -0.2384 C   0  0  0  0  0  0  0  0  0  0  0  0
    2.1375    0.5215   -0.2761 O   0  0  0  0  0  0  0  0  0  0  0  0
    2.9515   -0.6368   -0.0848 C   0  0  0  0  0  0  0  0  0  0  0  0
    0.1167   -0.8100   -0.0304 C   0  0  0  0  0  0  0  0  0  0  0  0
   -1.2670   -0.8170   -0.0138 C   0  0  0  0  0  0  0  0  0  0  0  0
   -1.7691    2.3950   -0.5138 H   0  0  0  0  0  0  0  0  0  0  0  0
    0.6397    2.5215   -0.5869 H   0  0  0  0  0  0  0  0  0  0  0  0
    3.9809   -0.2857   -0.1518 H   0  0  0  0  0  0  0  0  0  0  0  0
    2.7679   -1.3827   -0.8659 H   0  0  0  0  0  0  0  0  0  0  0  0
    2.7813   -1.0812    0.9023 H   0  0  0  0  0  0  0  0  0  0  0  0
    0.6537   -1.7382    0.1156 H   0  0  0  0  0  0  0  0  0  0  0  0
   -1.8154   -1.7392    0.1432 H   0  0  0  0  0  0  0  0  0  0  0  0
   -4.2301    3.3225    0.3266 S   0  0  0  0  0  0  0  0  0  0  0  0
   -3.5113    3.9636   -0.7837 O   0  0  0  0  0  0  0  0  0  0  0  0
   -5.3823    2.4548   -0.0758 O   0  0  0  0  0  0  0  0  0  0  0  0
   -3.3517    2.6172    1.3007 O   0  0  0  0  0  0  0  0  0  0  0  0
   -4.8991    4.5936    1.1413 O   0  0  0  0  0  0  0  0  0  0  0  0
   -5.3940    4.2119    1.8834 H   0  0  0  0  0  0  0  0  0  0  0  0
  1  2  1  0  0  0  0
  1 10  2  0  0  0  0
  3  2  1  0  0  0  0
  4  1  1  0  0  0  0
  5  4  2  0  0  0  0
  5  6  1  0  0  0  0
  6  9  2  0  0  0  0
  7  6  1  0  0  0  0
  7  8  1  0  0  0  0
  8 15  1  0  0  0  0
  9 10  1  0  0  0  0
  9 16  1  0  0  0  0
 10 17  1  0  0  0  0
 11  4  1  0  0  0  0
 12  5  1  0  0  0  0
 13  8  1  0  0  0  0
 14  8  1  0  0  0  0
 18 22  1  0  0  0  0
 18 21  1  0  0  0  0
 19 18  2  0  0  0  0
 20 18  2  0  0  0  0
 22 23  1  0  0  0  0
M  RAD  3   2   2   3   3  21   2
M  END
