Coordinates from ORCA-job 4-MeOPhN2+~HSO4-_B3LYPG-6-31G_dp-CH-Scan-d09-49-n800
 OpenBabel11261919063D

 23 22  0  0  0  0  0  0  0  0999 V2000
   -1.8501   -0.0829   -0.0626 C   0  0  0  0  0  0  0  0  0  0  0  0
   -3.2004   -0.3239    0.0248 N   0  0  0  0  0  0  0  0  0  0  0  0
   -4.3055   -0.4939    0.0884 N   0  0  0  0  0  0  0  0  0  0  0  0
   -1.4788    1.2479   -0.3800 C   0  0  0  0  0  0  0  0  0  0  0  0
   -0.0854    1.3793   -0.4508 C   0  0  0  0  0  0  0  0  0  0  0  0
    0.8146    0.3216   -0.2345 C   0  0  0  0  0  0  0  0  0  0  0  0
    2.1264    0.6242   -0.3458 O   0  0  0  0  0  0  0  0  0  0  0  0
    3.1064   -0.3914   -0.1527 C   0  0  0  0  0  0  0  0  0  0  0  0
    0.3493   -0.9847    0.0815 C   0  0  0  0  0  0  0  0  0  0  0  0
   -1.0061   -1.2002    0.1702 C   0  0  0  0  0  0  0  0  0  0  0  0
   -2.9485    2.9892   -0.7054 H   0  0  0  0  0  0  0  0  0  0  0  0
    0.3657    2.3417   -0.6877 H   0  0  0  0  0  0  0  0  0  0  0  0
    4.0705    0.0951   -0.3037 H   0  0  0  0  0  0  0  0  0  0  0  0
    2.9930   -1.2028   -0.8812 H   0  0  0  0  0  0  0  0  0  0  0  0
    3.0650   -0.8021    0.8629 H   0  0  0  0  0  0  0  0  0  0  0  0
    1.0371   -1.8030    0.2518 H   0  0  0  0  0  0  0  0  0  0  0  0
   -1.4060   -2.1817    0.4105 H   0  0  0  0  0  0  0  0  0  0  0  0
   -4.7770    3.5918    0.2503 S   0  0  0  0  0  0  0  0  0  0  0  0
   -3.5929    3.7428   -0.8075 O   0  0  0  0  0  0  0  0  0  0  0  0
   -5.7806    4.5723   -0.1144 O   0  0  0  0  0  0  0  0  0  0  0  0
   -5.0884    2.1906    0.4654 O   0  0  0  0  0  0  0  0  0  0  0  0
   -4.0734    4.0789    1.6418 O   0  0  0  0  0  0  0  0  0  0  0  0
   -4.0773    5.0509    1.6428 H   0  0  0  0  0  0  0  0  0  0  0  0
  1  2  1  0  0  0  0
  1 10  2  0  0  0  0
  2  3  1  0  0  0  0
  4  1  1  0  0  0  0
  5  4  2  0  0  0  0
  5  6  1  0  0  0  0
  6  9  2  0  0  0  0
  7  6  1  0  0  0  0
  7  8  1  0  0  0  0
  8 15  1  0  0  0  0
  9 10  1  0  0  0  0
  9 16  1  0  0  0  0
 10 17  1  0  0  0  0
 12  5  1  0  0  0  0
 13  8  1  0  0  0  0
 14  8  1  0  0  0  0
 18 21  2  0  0  0  0
 18 22  1  0  0  0  0
 19 11  1  0  0  0  0
 19 18  1  0  0  0  0
 20 18  2  0  0  0  0
 22 23  1  0  0  0  0
M  RAD  3   2   2   3   3   4   2
M  END
