Coordinates from ORCA-job 4-MeOPhN2+~HSO4-_B3LYPG-6-31G_dp-CH-Scan-d09-49-n800
 OpenBabel11261919053D

 23 22  0  0  0  0  0  0  0  0999 V2000
   -1.9582    0.3940   -0.1934 C   0  0  0  0  0  0  0  0  0  0  0  0
   -3.3316    0.3421   -0.1823 N   0  0  0  0  0  0  0  0  0  0  0  0
   -4.4516    0.2762   -0.2234 N   0  0  0  0  0  0  0  0  0  0  0  0
   -1.2972    1.6262   -0.3995 C   0  0  0  0  0  0  0  0  0  0  0  0
    0.0819    1.6055   -0.4278 C   0  0  0  0  0  0  0  0  0  0  0  0
    0.8005    0.4068   -0.2387 C   0  0  0  0  0  0  0  0  0  0  0  0
    2.1367    0.5223   -0.2764 O   0  0  0  0  0  0  0  0  0  0  0  0
    2.9510   -0.6357   -0.0844 C   0  0  0  0  0  0  0  0  0  0  0  0
    0.1161   -0.8096   -0.0313 C   0  0  0  0  0  0  0  0  0  0  0  0
   -1.2675   -0.8169   -0.0146 C   0  0  0  0  0  0  0  0  0  0  0  0
   -1.7651    2.3866   -0.5127 H   0  0  0  0  0  0  0  0  0  0  0  0
    0.6385    2.5222   -0.5866 H   0  0  0  0  0  0  0  0  0  0  0  0
    3.9803   -0.2841   -0.1503 H   0  0  0  0  0  0  0  0  0  0  0  0
    2.7685   -1.3816   -0.8660 H   0  0  0  0  0  0  0  0  0  0  0  0
    2.7798   -1.0804    0.9022 H   0  0  0  0  0  0  0  0  0  0  0  0
    0.6534   -1.7378    0.1143 H   0  0  0  0  0  0  0  0  0  0  0  0
   -1.8160   -1.7392    0.1421 H   0  0  0  0  0  0  0  0  0  0  0  0
   -4.2283    3.3221    0.3272 S   0  0  0  0  0  0  0  0  0  0  0  0
   -3.5103    3.9623   -0.7840 O   0  0  0  0  0  0  0  0  0  0  0  0
   -5.3819    2.4554   -0.0733 O   0  0  0  0  0  0  0  0  0  0  0  0
   -3.3494    2.6163    1.3006 O   0  0  0  0  0  0  0  0  0  0  0  0
   -4.8959    4.5941    1.1419 O   0  0  0  0  0  0  0  0  0  0  0  0
   -5.3964    4.2128    1.8804 H   0  0  0  0  0  0  0  0  0  0  0  0
  1  2  1  0  0  0  0
  1 10  2  0  0  0  0
  3  2  1  0  0  0  0
  4  1  1  0  0  0  0
  5  4  2  0  0  0  0
  5  6  1  0  0  0  0
  6  9  2  0  0  0  0
  7  6  1  0  0  0  0
  7  8  1  0  0  0  0
  8 15  1  0  0  0  0
  9 10  1  0  0  0  0
  9 16  1  0  0  0  0
 10 17  1  0  0  0  0
 11  4  1  0  0  0  0
 12  5  1  0  0  0  0
 13  8  1  0  0  0  0
 14  8  1  0  0  0  0
 18 22  1  0  0  0  0
 18 21  1  0  0  0  0
 19 18  2  0  0  0  0
 20 18  2  0  0  0  0
 22 23  1  0  0  0  0
M  RAD  3   2   2   3   3  21   2
M  END
