Coordinates from ORCA-job 4-MeOPhN2+~HSO4-_B3LYPG-6-31G_dp-CH-Scan-d09-49-n800
 OpenBabel11261919063D

 23 22  0  0  0  0  0  0  0  0999 V2000
   -1.5447   -0.1225   -0.1338 C   0  0  0  0  0  0  0  0  0  0  0  0
   -2.9150   -0.2450   -0.0403 N   0  0  0  0  0  0  0  0  0  0  0  0
   -4.0341   -0.2990    0.0139 N   0  0  0  0  0  0  0  0  0  0  0  0
   -1.1093    1.1383   -0.6075 C   0  0  0  0  0  0  0  0  0  0  0  0
    0.2970    1.1623   -0.6744 C   0  0  0  0  0  0  0  0  0  0  0  0
    1.1250    0.0864   -0.3185 C   0  0  0  0  0  0  0  0  0  0  0  0
    2.4596    0.2875   -0.4458 O   0  0  0  0  0  0  0  0  0  0  0  0
    3.3662   -0.7555   -0.1082 C   0  0  0  0  0  0  0  0  0  0  0  0
    0.5787   -1.1434    0.1498 C   0  0  0  0  0  0  0  0  0  0  0  0
   -0.7875   -1.2625    0.2479 C   0  0  0  0  0  0  0  0  0  0  0  0
   -3.7607    4.0386   -1.0452 H   0  0  0  0  0  0  0  0  0  0  0  0
    0.8167    2.0569   -1.0203 H   0  0  0  0  0  0  0  0  0  0  0  0
    4.3635   -0.3552   -0.2961 H   0  0  0  0  0  0  0  0  0  0  0  0
    3.2122   -1.6433   -0.7329 H   0  0  0  0  0  0  0  0  0  0  0  0
    3.2848   -1.0358    0.9491 H   0  0  0  0  0  0  0  0  0  0  0  0
    1.2150   -1.9744    0.4263 H   0  0  0  0  0  0  0  0  0  0  0  0
   -1.2522   -2.1806    0.5997 H   0  0  0  0  0  0  0  0  0  0  0  0
   -5.3638    3.8752    0.3666 S   0  0  0  0  0  0  0  0  0  0  0  0
   -4.5402    4.5825   -0.8360 O   0  0  0  0  0  0  0  0  0  0  0  0
   -6.6472    4.5428    0.3982 O   0  0  0  0  0  0  0  0  0  0  0  0
   -5.1981    2.4403    0.2836 O   0  0  0  0  0  0  0  0  0  0  0  0
   -4.5079    4.3359    1.6711 O   0  0  0  0  0  0  0  0  0  0  0  0
   -4.8006    5.2302    1.9168 H   0  0  0  0  0  0  0  0  0  0  0  0
  1  2  1  0  0  0  0
  1 10  2  0  0  0  0
  2  3  1  0  0  0  0
  4  1  1  0  0  0  0
  5  4  2  0  0  0  0
  5  6  1  0  0  0  0
  6  9  2  0  0  0  0
  7  6  1  0  0  0  0
  7  8  1  0  0  0  0
  8 15  1  0  0  0  0
  9 10  1  0  0  0  0
  9 16  1  0  0  0  0
 10 17  1  0  0  0  0
 11 19  1  0  0  0  0
 12  5  1  0  0  0  0
 13  8  1  0  0  0  0
 14  8  1  0  0  0  0
 18 20  2  0  0  0  0
 18 22  1  0  0  0  0
 19 18  1  0  0  0  0
 21 18  2  0  0  0  0
 22 23  1  0  0  0  0
M  RAD  3   2   2   3   3   4   2
M  END
