Coordinates from ORCA-job 4-MeOPhN2+~HSO4-_B3LYPG-6-31G_dp-CH-Scan-d09-49-n800
 OpenBabel11261919063D

 23 22  0  0  0  0  0  0  0  0999 V2000
   -1.9373    0.3304   -0.1943 C   0  0  0  0  0  0  0  0  0  0  0  0
   -3.3082    0.2623   -0.1744 N   0  0  0  0  0  0  0  0  0  0  0  0
   -4.4253    0.1971   -0.1915 N   0  0  0  0  0  0  0  0  0  0  0  0
   -1.3102    1.5800   -0.4031 C   0  0  0  0  0  0  0  0  0  0  0  0
    0.0697    1.5786   -0.4362 C   0  0  0  0  0  0  0  0  0  0  0  0
    0.8076    0.3894   -0.2588 C   0  0  0  0  0  0  0  0  0  0  0  0
    2.1420    0.5227   -0.3057 O   0  0  0  0  0  0  0  0  0  0  0  0
    2.9766   -0.6220   -0.1227 C   0  0  0  0  0  0  0  0  0  0  0  0
    0.1474   -0.8443   -0.0488 C   0  0  0  0  0  0  0  0  0  0  0  0
   -1.2326   -0.8780   -0.0186 C   0  0  0  0  0  0  0  0  0  0  0  0
   -2.0463    2.6513   -0.5247 H   0  0  0  0  0  0  0  0  0  0  0  0
    0.6198    2.5006   -0.5903 H   0  0  0  0  0  0  0  0  0  0  0  0
    3.9994   -0.2533   -0.1959 H   0  0  0  0  0  0  0  0  0  0  0  0
    2.8009   -1.3693   -0.9044 H   0  0  0  0  0  0  0  0  0  0  0  0
    2.8212   -1.0717    0.8643 H   0  0  0  0  0  0  0  0  0  0  0  0
    0.7045   -1.7618    0.0893 H   0  0  0  0  0  0  0  0  0  0  0  0
   -1.7644   -1.8100    0.1413 H   0  0  0  0  0  0  0  0  0  0  0  0
   -4.1992    3.2834    0.4974 S   0  0  0  0  0  0  0  0  0  0  0  0
   -3.2088    3.7687   -0.5149 O   0  0  0  0  0  0  0  0  0  0  0  0
   -5.3892    2.6112   -0.0845 O   0  0  0  0  0  0  0  0  0  0  0  0
   -3.5587    2.5088    1.5812 O   0  0  0  0  0  0  0  0  0  0  0  0
   -4.7702    4.6893    1.1432 O   0  0  0  0  0  0  0  0  0  0  0  0
   -5.6812    4.4963    1.4159 H   0  0  0  0  0  0  0  0  0  0  0  0
  1  2  1  0  0  0  0
  1 10  2  0  0  0  0
  3  2  1  0  0  0  0
  4  1  1  0  0  0  0
  5  4  2  0  0  0  0
  5  6  1  0  0  0  0
  6  9  2  0  0  0  0
  7  6  1  0  0  0  0
  7  8  1  0  0  0  0
  8 15  1  0  0  0  0
  9 10  1  0  0  0  0
  9 16  1  0  0  0  0
 10 17  1  0  0  0  0
 11  4  1  0  0  0  0
 12  5  1  0  0  0  0
 13  8  1  0  0  0  0
 14  8  1  0  0  0  0
 18 22  1  0  0  0  0
 18 21  1  0  0  0  0
 19 18  2  0  0  0  0
 20 18  2  0  0  0  0
 22 23  1  0  0  0  0
M  RAD  3   2   2   3   3  21   2
M  END
