Coordinates from ORCA-job 4-MeOPhN2+~HSO4-_B3LYPG-6-31G_dp-CH-Scan-d09-49-n800
 OpenBabel11261919063D

 23 22  0  0  0  0  0  0  0  0999 V2000
   -1.9681   -0.0560   -0.1321 C   0  0  0  0  0  0  0  0  0  0  0  0
   -3.3125   -0.3280   -0.0871 N   0  0  0  0  0  0  0  0  0  0  0  0
   -4.4127   -0.5280   -0.0581 N   0  0  0  0  0  0  0  0  0  0  0  0
   -1.5945    1.2845   -0.4030 C   0  0  0  0  0  0  0  0  0  0  0  0
   -0.2089    1.4488   -0.4382 C   0  0  0  0  0  0  0  0  0  0  0  0
    0.7039    0.3991   -0.2270 C   0  0  0  0  0  0  0  0  0  0  0  0
    2.0088    0.7271   -0.2974 O   0  0  0  0  0  0  0  0  0  0  0  0
    3.0040   -0.2753   -0.1014 C   0  0  0  0  0  0  0  0  0  0  0  0
    0.2495   -0.9196    0.0415 C   0  0  0  0  0  0  0  0  0  0  0  0
   -1.1049   -1.1583    0.0894 C   0  0  0  0  0  0  0  0  0  0  0  0
   -2.6910    2.5621   -0.6076 H   0  0  0  0  0  0  0  0  0  0  0  0
    0.2217    2.4278   -0.6370 H   0  0  0  0  0  0  0  0  0  0  0  0
    3.9612    0.2335   -0.2151 H   0  0  0  0  0  0  0  0  0  0  0  0
    2.9242   -1.0702   -0.8521 H   0  0  0  0  0  0  0  0  0  0  0  0
    2.9420   -0.7092    0.9031 H   0  0  0  0  0  0  0  0  0  0  0  0
    0.9442   -1.7325    0.2082 H   0  0  0  0  0  0  0  0  0  0  0  0
   -1.4935   -2.1519    0.2931 H   0  0  0  0  0  0  0  0  0  0  0  0
   -4.4933    3.4337    0.3309 S   0  0  0  0  0  0  0  0  0  0  0  0
   -3.3684    3.3952   -0.7553 O   0  0  0  0  0  0  0  0  0  0  0  0
   -5.5811    4.2736   -0.1468 O   0  0  0  0  0  0  0  0  0  0  0  0
   -4.7421    2.0939    0.8523 O   0  0  0  0  0  0  0  0  0  0  0  0
   -3.7855    4.2321    1.5794 O   0  0  0  0  0  0  0  0  0  0  0  0
   -3.9454    5.1773    1.4242 H   0  0  0  0  0  0  0  0  0  0  0  0
  1  2  1  0  0  0  0
  1 10  2  0  0  0  0
  2  3  1  0  0  0  0
  4  1  1  0  0  0  0
  5  4  2  0  0  0  0
  5  6  1  0  0  0  0
  6  9  2  0  0  0  0
  7  6  1  0  0  0  0
  7  8  1  0  0  0  0
  8 15  1  0  0  0  0
  9 10  1  0  0  0  0
  9 16  1  0  0  0  0
 10 17  1  0  0  0  0
 12  5  1  0  0  0  0
 13  8  1  0  0  0  0
 14  8  1  0  0  0  0
 18 21  2  0  0  0  0
 18 22  1  0  0  0  0
 19 11  1  0  0  0  0
 19 18  1  0  0  0  0
 20 18  2  0  0  0  0
 23 22  1  0  0  0  0
M  RAD  3   2   2   3   3   4   2
M  END
