Coordinates from ORCA-job 4-MeOPhN2+~HSO4-_B3LYPG-6-31G_dp-CH-Scan-d09-49-n800
 OpenBabel11261919053D

 23 22  0  0  0  0  0  0  0  0999 V2000
   -1.9529    0.3916   -0.2206 C   0  0  0  0  0  0  0  0  0  0  0  0
   -3.3260    0.3397   -0.2141 N   0  0  0  0  0  0  0  0  0  0  0  0
   -4.4456    0.2747   -0.2553 N   0  0  0  0  0  0  0  0  0  0  0  0
   -1.2886    1.6179   -0.4498 C   0  0  0  0  0  0  0  0  0  0  0  0
    0.0903    1.5973   -0.4732 C   0  0  0  0  0  0  0  0  0  0  0  0
    0.8060    0.4010   -0.2558 C   0  0  0  0  0  0  0  0  0  0  0  0
    2.1426    0.5138   -0.2898 O   0  0  0  0  0  0  0  0  0  0  0  0
    2.9547   -0.6401   -0.0663 C   0  0  0  0  0  0  0  0  0  0  0  0
    0.1196   -0.8105   -0.0253 C   0  0  0  0  0  0  0  0  0  0  0  0
   -1.2638   -0.8167   -0.0139 C   0  0  0  0  0  0  0  0  0  0  0  0
   -1.8418    2.5098   -0.5999 H   0  0  0  0  0  0  0  0  0  0  0  0
    0.6505    2.5087   -0.6478 H   0  0  0  0  0  0  0  0  0  0  0  0
    3.9847   -0.2910   -0.1347 H   0  0  0  0  0  0  0  0  0  0  0  0
    2.7760   -1.4040   -0.8312 H   0  0  0  0  0  0  0  0  0  0  0  0
    2.7776   -1.0613    0.9295 H   0  0  0  0  0  0  0  0  0  0  0  0
    0.6553   -1.7358    0.1420 H   0  0  0  0  0  0  0  0  0  0  0  0
   -1.8134   -1.7353    0.1600 H   0  0  0  0  0  0  0  0  0  0  0  0
   -4.2249    3.3031    0.3763 S   0  0  0  0  0  0  0  0  0  0  0  0
   -3.4561    3.9259   -0.7158 O   0  0  0  0  0  0  0  0  0  0  0  0
   -5.3866    2.4696   -0.0638 O   0  0  0  0  0  0  0  0  0  0  0  0
   -3.3884    2.5773    1.3688 O   0  0  0  0  0  0  0  0  0  0  0  0
   -4.8818    4.5952    1.1663 O   0  0  0  0  0  0  0  0  0  0  0  0
   -5.4299    4.2290    1.8784 H   0  0  0  0  0  0  0  0  0  0  0  0
  1  2  1  0  0  0  0
  1 10  2  0  0  0  0
  3  2  1  0  0  0  0
  4  1  1  0  0  0  0
  5  4  2  0  0  0  0
  5  6  1  0  0  0  0
  6  9  2  0  0  0  0
  7  6  1  0  0  0  0
  7  8  1  0  0  0  0
  8 15  1  0  0  0  0
  9 10  1  0  0  0  0
  9 16  1  0  0  0  0
 10 17  1  0  0  0  0
 11  4  1  0  0  0  0
 12  5  1  0  0  0  0
 13  8  1  0  0  0  0
 14  8  1  0  0  0  0
 18 22  1  0  0  0  0
 18 21  1  0  0  0  0
 19 18  2  0  0  0  0
 20 18  2  0  0  0  0
 22 23  1  0  0  0  0
M  RAD  3   2   2   3   3  21   2
M  END
