Coordinates from ORCA-job 4-MeOPhN2+~HSO4-_B3LYPG-6-31G_dp-CH-Scan-d09-49-n800
 OpenBabel11261919063D

 23 22  0  0  0  0  0  0  0  0999 V2000
   -1.8887   -0.0758   -0.0559 C   0  0  0  0  0  0  0  0  0  0  0  0
   -3.2358   -0.3314    0.0293 N   0  0  0  0  0  0  0  0  0  0  0  0
   -4.3386   -0.5140    0.0912 N   0  0  0  0  0  0  0  0  0  0  0  0
   -1.5227    1.2616   -0.3528 C   0  0  0  0  0  0  0  0  0  0  0  0
   -0.1316    1.4043   -0.4239 C   0  0  0  0  0  0  0  0  0  0  0  0
    0.7761    0.3492   -0.2257 C   0  0  0  0  0  0  0  0  0  0  0  0
    2.0845    0.6627   -0.3351 O   0  0  0  0  0  0  0  0  0  0  0  0
    3.0726   -0.3490   -0.1610 C   0  0  0  0  0  0  0  0  0  0  0  0
    0.3192   -0.9640    0.0707 C   0  0  0  0  0  0  0  0  0  0  0  0
   -1.0349   -1.1890    0.1579 C   0  0  0  0  0  0  0  0  0  0  0  0
   -2.8423    2.8462   -0.6360 H   0  0  0  0  0  0  0  0  0  0  0  0
    0.3107    2.3738   -0.6468 H   0  0  0  0  0  0  0  0  0  0  0  0
    4.0325    0.1471   -0.3067 H   0  0  0  0  0  0  0  0  0  0  0  0
    2.9626   -1.1491   -0.9024 H   0  0  0  0  0  0  0  0  0  0  0  0
    3.0366   -0.7759    0.8480 H   0  0  0  0  0  0  0  0  0  0  0  0
    1.0118   -1.7809    0.2273 H   0  0  0  0  0  0  0  0  0  0  0  0
   -1.4280   -2.1764    0.3835 H   0  0  0  0  0  0  0  0  0  0  0  0
   -4.6888    3.5515    0.2361 S   0  0  0  0  0  0  0  0  0  0  0  0
   -3.4665    3.6310   -0.7728 O   0  0  0  0  0  0  0  0  0  0  0  0
   -5.6630    4.5341   -0.2001 O   0  0  0  0  0  0  0  0  0  0  0  0
   -5.0422    2.1669    0.4994 O   0  0  0  0  0  0  0  0  0  0  0  0
   -4.0347    4.0829    1.6381 O   0  0  0  0  0  0  0  0  0  0  0  0
   -4.0314    5.0540    1.6017 H   0  0  0  0  0  0  0  0  0  0  0  0
  1  2  1  0  0  0  0
  1 10  2  0  0  0  0
  2  3  1  0  0  0  0
  4  1  1  0  0  0  0
  5  4  2  0  0  0  0
  5  6  1  0  0  0  0
  6  9  2  0  0  0  0
  7  6  1  0  0  0  0
  7  8  1  0  0  0  0
  8 15  1  0  0  0  0
  9 10  1  0  0  0  0
  9 16  1  0  0  0  0
 10 17  1  0  0  0  0
 12  5  1  0  0  0  0
 13  8  1  0  0  0  0
 14  8  1  0  0  0  0
 18 21  2  0  0  0  0
 18 22  1  0  0  0  0
 19 11  1  0  0  0  0
 19 18  1  0  0  0  0
 20 18  2  0  0  0  0
 23 22  1  0  0  0  0
M  RAD  3   2   2   3   3   4   2
M  END
