Coordinates from ORCA-job 4-MeOPhN2+~HSO4-_B3LYPG-6-31G_dp-CH-Scan-d09-49-n800
 OpenBabel11261919063D

 23 22  0  0  0  0  0  0  0  0999 V2000
   -1.3335   -0.0974   -0.2760 C   0  0  0  0  0  0  0  0  0  0  0  0
   -2.7113   -0.1142   -0.2049 N   0  0  0  0  0  0  0  0  0  0  0  0
   -3.8325   -0.0740   -0.1805 N   0  0  0  0  0  0  0  0  0  0  0  0
   -0.8159    1.0533   -0.9151 C   0  0  0  0  0  0  0  0  0  0  0  0
    0.5909    0.9834   -0.9511 C   0  0  0  0  0  0  0  0  0  0  0  0
    1.3436   -0.0763   -0.4227 C   0  0  0  0  0  0  0  0  0  0  0  0
    2.6906    0.0236   -0.5446 O   0  0  0  0  0  0  0  0  0  0  0  0
    3.5250   -1.0071   -0.0307 C   0  0  0  0  0  0  0  0  0  0  0  0
    0.7144   -1.1906    0.2052 C   0  0  0  0  0  0  0  0  0  0  0  0
   -0.6580   -1.2136    0.2860 C   0  0  0  0  0  0  0  0  0  0  0  0
   -4.2984    4.4987   -1.0203 H   0  0  0  0  0  0  0  0  0  0  0  0
    1.1708    1.7858   -1.4096 H   0  0  0  0  0  0  0  0  0  0  0  0
    4.5480   -0.7008   -0.2541 H   0  0  0  0  0  0  0  0  0  0  0  0
    3.3253   -1.9702   -0.5161 H   0  0  0  0  0  0  0  0  0  0  0  0
    3.4109   -1.1170    1.0547 H   0  0  0  0  0  0  0  0  0  0  0  0
    1.2937   -2.0088    0.6135 H   0  0  0  0  0  0  0  0  0  0  0  0
   -1.1851   -2.0424    0.7532 H   0  0  0  0  0  0  0  0  0  0  0  0
   -5.7461    4.0374    0.4866 S   0  0  0  0  0  0  0  0  0  0  0  0
   -5.1096    4.9351   -0.7063 O   0  0  0  0  0  0  0  0  0  0  0  0
   -7.1095    4.4984    0.6340 O   0  0  0  0  0  0  0  0  0  0  0  0
   -5.3690    2.6552    0.2874 O   0  0  0  0  0  0  0  0  0  0  0  0
   -4.8876    4.5422    1.7723 O   0  0  0  0  0  0  0  0  0  0  0  0
   -5.2991    5.3590    2.1030 H   0  0  0  0  0  0  0  0  0  0  0  0
  1  2  1  0  0  0  0
  1 10  2  0  0  0  0
  2  3  1  0  0  0  0
  4  1  1  0  0  0  0
  5  4  2  0  0  0  0
  5  6  1  0  0  0  0
  6  9  2  0  0  0  0
  7  6  1  0  0  0  0
  7  8  1  0  0  0  0
  8 15  1  0  0  0  0
  9 10  1  0  0  0  0
  9 16  1  0  0  0  0
 10 17  1  0  0  0  0
 11 19  1  0  0  0  0
 12  5  1  0  0  0  0
 13  8  1  0  0  0  0
 14  8  1  0  0  0  0
 18 20  2  0  0  0  0
 18 22  1  0  0  0  0
 19 18  1  0  0  0  0
 21 18  2  0  0  0  0
 22 23  1  0  0  0  0
M  RAD  3   2   2   3   3   4   2
M  END
