Coordinates from ORCA-job 4-MeOPhN2+~HSO4-_B3LYPG-6-31G_dp-CH-Scan-d09-49-n800
 OpenBabel11261919063D

 23 22  0  0  0  0  0  0  0  0999 V2000
   -1.4518   -0.1234   -0.1774 C   0  0  0  0  0  0  0  0  0  0  0  0
   -2.8259   -0.2049   -0.0863 N   0  0  0  0  0  0  0  0  0  0  0  0
   -3.9467   -0.2221   -0.0382 N   0  0  0  0  0  0  0  0  0  0  0  0
   -0.9871    1.1019   -0.7111 C   0  0  0  0  0  0  0  0  0  0  0  0
    0.4202    1.0900   -0.7720 C   0  0  0  0  0  0  0  0  0  0  0  0
    1.2212    0.0149   -0.3577 C   0  0  0  0  0  0  0  0  0  0  0  0
    2.5611    0.1788   -0.4863 O   0  0  0  0  0  0  0  0  0  0  0  0
    3.4419   -0.8650   -0.0892 C   0  0  0  0  0  0  0  0  0  0  0  0
    0.6447   -1.1776    0.1683 C   0  0  0  0  0  0  0  0  0  0  0  0
   -0.7244   -1.2608    0.2649 C   0  0  0  0  0  0  0  0  0  0  0  0
   -3.9846    4.2502   -1.0380 H   0  0  0  0  0  0  0  0  0  0  0  0
    0.9620    1.9542   -1.1593 H   0  0  0  0  0  0  0  0  0  0  0  0
    4.4491   -0.4961   -0.2881 H   0  0  0  0  0  0  0  0  0  0  0  0
    3.2739   -1.7795   -0.6706 H   0  0  0  0  0  0  0  0  0  0  0  0
    3.3464   -1.0907    0.9799 H   0  0  0  0  0  0  0  0  0  0  0  0
    1.2606   -2.0080    0.4890 H   0  0  0  0  0  0  0  0  0  0  0  0
   -1.2117   -2.1498    0.6586 H   0  0  0  0  0  0  0  0  0  0  0  0
   -5.5376    3.9606    0.4078 S   0  0  0  0  0  0  0  0  0  0  0  0
   -4.7796    4.7523   -0.7875 O   0  0  0  0  0  0  0  0  0  0  0  0
   -6.8615    4.5402    0.4758 O   0  0  0  0  0  0  0  0  0  0  0  0
   -5.2747    2.5437    0.2804 O   0  0  0  0  0  0  0  0  0  0  0  0
   -4.6935    4.4438    1.7115 O   0  0  0  0  0  0  0  0  0  0  0  0
   -5.0444    5.3071    1.9894 H   0  0  0  0  0  0  0  0  0  0  0  0
  1  2  1  0  0  0  0
  1 10  2  0  0  0  0
  2  3  1  0  0  0  0
  4  1  1  0  0  0  0
  5  4  2  0  0  0  0
  5  6  1  0  0  0  0
  6  9  2  0  0  0  0
  7  6  1  0  0  0  0
  7  8  1  0  0  0  0
  8 15  1  0  0  0  0
  9 10  1  0  0  0  0
  9 16  1  0  0  0  0
 10 17  1  0  0  0  0
 11 19  1  0  0  0  0
 12  5  1  0  0  0  0
 13  8  1  0  0  0  0
 14  8  1  0  0  0  0
 18 20  2  0  0  0  0
 18 22  1  0  0  0  0
 19 18  1  0  0  0  0
 21 18  2  0  0  0  0
 22 23  1  0  0  0  0
M  RAD  3   2   2   3   3   4   2
M  END
