Coordinates from ORCA-job 4-MeOPhN2+~HSO4-_B3LYPG-6-31G_dp-CH-Scan-d09-49-n800
 OpenBabel11261919063D

 23 22  0  0  0  0  0  0  0  0999 V2000
   -1.3783   -0.1113   -0.2191 C   0  0  0  0  0  0  0  0  0  0  0  0
   -2.7546   -0.1554   -0.1324 N   0  0  0  0  0  0  0  0  0  0  0  0
   -3.8759   -0.1399   -0.0926 N   0  0  0  0  0  0  0  0  0  0  0  0
   -0.8852    1.0777   -0.8062 C   0  0  0  0  0  0  0  0  0  0  0  0
    0.5219    1.0324   -0.8596 C   0  0  0  0  0  0  0  0  0  0  0  0
    1.2971   -0.0396   -0.3919 C   0  0  0  0  0  0  0  0  0  0  0  0
    2.6409    0.0887   -0.5213 O   0  0  0  0  0  0  0  0  0  0  0  0
    3.4970   -0.9536   -0.0700 C   0  0  0  0  0  0  0  0  0  0  0  0
    0.6923   -1.1937    0.1859 C   0  0  0  0  0  0  0  0  0  0  0  0
   -0.6786   -1.2427    0.2794 C   0  0  0  0  0  0  0  0  0  0  0  0
   -4.1549    4.3908   -1.0184 H   0  0  0  0  0  0  0  0  0  0  0  0
    1.0840    1.8658   -1.2837 H   0  0  0  0  0  0  0  0  0  0  0  0
    4.5128   -0.6172   -0.2828 H   0  0  0  0  0  0  0  0  0  0  0  0
    3.3105   -1.8918   -0.6063 H   0  0  0  0  0  0  0  0  0  0  0  0
    3.3932   -1.1244    1.0085 H   0  0  0  0  0  0  0  0  0  0  0  0
    1.2887   -2.0215    0.5478 H   0  0  0  0  0  0  0  0  0  0  0  0
   -1.1872   -2.1019    0.7108 H   0  0  0  0  0  0  0  0  0  0  0  0
   -5.6738    4.0177    0.4430 S   0  0  0  0  0  0  0  0  0  0  0  0
   -4.9594    4.8636   -0.7430 O   0  0  0  0  0  0  0  0  0  0  0  0
   -7.0197    4.5405    0.5350 O   0  0  0  0  0  0  0  0  0  0  0  0
   -5.3525    2.6162    0.2829 O   0  0  0  0  0  0  0  0  0  0  0  0
   -4.8376    4.5095    1.7484 O   0  0  0  0  0  0  0  0  0  0  0  0
   -5.2232    5.3499    2.0495 H   0  0  0  0  0  0  0  0  0  0  0  0
  1  2  1  0  0  0  0
  1 10  2  0  0  0  0
  2  3  1  0  0  0  0
  4  1  1  0  0  0  0
  5  4  2  0  0  0  0
  5  6  1  0  0  0  0
  6  9  2  0  0  0  0
  7  6  1  0  0  0  0
  7  8  1  0  0  0  0
  8 15  1  0  0  0  0
  9 10  1  0  0  0  0
  9 16  1  0  0  0  0
 10 17  1  0  0  0  0
 11 19  1  0  0  0  0
 12  5  1  0  0  0  0
 13  8  1  0  0  0  0
 14  8  1  0  0  0  0
 18 20  2  0  0  0  0
 18 22  1  0  0  0  0
 19 18  1  0  0  0  0
 21 18  2  0  0  0  0
 22 23  1  0  0  0  0
M  RAD  3   2   2   3   3   4   2
M  END
