Coordinates from ORCA-job 4-MeOPhN2+~HSO4-_B3LYPG-6-31G_dp-CH-Scan-d09-49-n800
 OpenBabel11261919063D

 23 22  0  0  0  0  0  0  0  0999 V2000
   -1.9389    0.3472   -0.2032 C   0  0  0  0  0  0  0  0  0  0  0  0
   -3.3105    0.2858   -0.1854 N   0  0  0  0  0  0  0  0  0  0  0  0
   -4.4283    0.2243   -0.2076 N   0  0  0  0  0  0  0  0  0  0  0  0
   -1.2997    1.5884   -0.4232 C   0  0  0  0  0  0  0  0  0  0  0  0
    0.0793    1.5819   -0.4551 C   0  0  0  0  0  0  0  0  0  0  0  0
    0.8100    0.3902   -0.2630 C   0  0  0  0  0  0  0  0  0  0  0  0
    2.1450    0.5161   -0.3083 O   0  0  0  0  0  0  0  0  0  0  0  0
    2.9727   -0.6312   -0.1098 C   0  0  0  0  0  0  0  0  0  0  0  0
    0.1416   -0.8361   -0.0418 C   0  0  0  0  0  0  0  0  0  0  0  0
   -1.2394   -0.8612   -0.0147 C   0  0  0  0  0  0  0  0  0  0  0  0
   -2.0066    2.6411   -0.5604 H   0  0  0  0  0  0  0  0  0  0  0  0
    0.6330    2.4999   -0.6185 H   0  0  0  0  0  0  0  0  0  0  0  0
    3.9978   -0.2689   -0.1839 H   0  0  0  0  0  0  0  0  0  0  0  0
    2.7951   -1.3862   -0.8836 H   0  0  0  0  0  0  0  0  0  0  0  0
    2.8115   -1.0687    0.8817 H   0  0  0  0  0  0  0  0  0  0  0  0
    0.6923   -1.7557    0.1074 H   0  0  0  0  0  0  0  0  0  0  0  0
   -1.7765   -1.7885    0.1535 H   0  0  0  0  0  0  0  0  0  0  0  0
   -4.1953    3.2856    0.4878 S   0  0  0  0  0  0  0  0  0  0  0  0
   -3.2493    3.8056   -0.5415 O   0  0  0  0  0  0  0  0  0  0  0  0
   -5.3807    2.5759   -0.0660 O   0  0  0  0  0  0  0  0  0  0  0  0
   -3.5115    2.5202    1.5536 O   0  0  0  0  0  0  0  0  0  0  0  0
   -4.7999    4.6647    1.1617 O   0  0  0  0  0  0  0  0  0  0  0  0
   -5.6841    4.4293    1.4841 H   0  0  0  0  0  0  0  0  0  0  0  0
  1  2  1  0  0  0  0
  1 10  2  0  0  0  0
  3  2  1  0  0  0  0
  4  1  1  0  0  0  0
  5  4  2  0  0  0  0
  5  6  1  0  0  0  0
  6  9  2  0  0  0  0
  7  6  1  0  0  0  0
  7  8  1  0  0  0  0
  8 15  1  0  0  0  0
  9 10  1  0  0  0  0
  9 16  1  0  0  0  0
 10 17  1  0  0  0  0
 11  4  1  0  0  0  0
 12  5  1  0  0  0  0
 13  8  1  0  0  0  0
 14  8  1  0  0  0  0
 18 22  1  0  0  0  0
 18 21  1  0  0  0  0
 19 18  2  0  0  0  0
 20 18  2  0  0  0  0
 22 23  1  0  0  0  0
M  RAD  3   2   2   3   3  21   2
M  END
