Coordinates from ORCA-job 4-MeOPhN2+~HSO4-_B3LYPG-6-31G_dp-CH-Scan-d09-49-n800
 OpenBabel11261919063D

 23 22  0  0  0  0  0  0  0  0999 V2000
   -1.6860   -0.1142   -0.0978 C   0  0  0  0  0  0  0  0  0  0  0  0
   -3.0481   -0.2959   -0.0064 N   0  0  0  0  0  0  0  0  0  0  0  0
   -4.1621   -0.4064    0.0531 N   0  0  0  0  0  0  0  0  0  0  0  0
   -1.2874    1.1845   -0.4985 C   0  0  0  0  0  0  0  0  0  0  0  0
    0.1144    1.2630   -0.5677 C   0  0  0  0  0  0  0  0  0  0  0  0
    0.9798    0.1960   -0.2775 C   0  0  0  0  0  0  0  0  0  0  0  0
    2.3044    0.4493   -0.3978 O   0  0  0  0  0  0  0  0  0  0  0  0
    3.2485   -0.5809   -0.1279 C   0  0  0  0  0  0  0  0  0  0  0  0
    0.4759   -1.0754    0.1197 C   0  0  0  0  0  0  0  0  0  0  0  0
   -0.8852   -1.2452    0.2141 C   0  0  0  0  0  0  0  0  0  0  0  0
   -3.3781    3.5584   -0.9319 H   0  0  0  0  0  0  0  0  0  0  0  0
    0.6005    2.1933   -0.8624 H   0  0  0  0  0  0  0  0  0  0  0  0
    4.2299   -0.1371   -0.3004 H   0  0  0  0  0  0  0  0  0  0  0  0
    3.1165   -1.4357   -0.8017 H   0  0  0  0  0  0  0  0  0  0  0  0
    3.1863   -0.9232    0.9120 H   0  0  0  0  0  0  0  0  0  0  0  0
    1.1399   -1.8997    0.3462 H   0  0  0  0  0  0  0  0  0  0  0  0
   -1.3167   -2.1970    0.5140 H   0  0  0  0  0  0  0  0  0  0  0  0
   -5.1057    3.7552    0.3179 S   0  0  0  0  0  0  0  0  0  0  0  0
   -4.0973    4.2139   -0.8550 O   0  0  0  0  0  0  0  0  0  0  0  0
   -6.2667    4.6102    0.1878 O   0  0  0  0  0  0  0  0  0  0  0  0
   -5.1742    2.3099    0.3694 O   0  0  0  0  0  0  0  0  0  0  0  0
   -4.2892    4.1934    1.6570 O   0  0  0  0  0  0  0  0  0  0  0  0
   -4.4418    5.1433    1.7975 H   0  0  0  0  0  0  0  0  0  0  0  0
  1  2  1  0  0  0  0
  1 10  2  0  0  0  0
  2  3  1  0  0  0  0
  4  1  1  0  0  0  0
  5  4  2  0  0  0  0
  5  6  1  0  0  0  0
  6  9  2  0  0  0  0
  7  6  1  0  0  0  0
  7  8  1  0  0  0  0
  8 15  1  0  0  0  0
  9 10  1  0  0  0  0
  9 16  1  0  0  0  0
 10 17  1  0  0  0  0
 11 19  1  0  0  0  0
 12  5  1  0  0  0  0
 13  8  1  0  0  0  0
 14  8  1  0  0  0  0
 18 21  2  0  0  0  0
 18 22  1  0  0  0  0
 19 18  1  0  0  0  0
 20 18  2  0  0  0  0
 22 23  1  0  0  0  0
M  RAD  3   2   2   3   3   4   2
M  END
