Coordinates from ORCA-job 4-MeOPhN2+~HSO4-_B3LYPG-6-31G_dp-CH-Scan-d09-49-n800
 OpenBabel11261919063D

 23 22  0  0  0  0  0  0  0  0999 V2000
   -1.5181   -0.1240   -0.1495 C   0  0  0  0  0  0  0  0  0  0  0  0
   -2.8898   -0.2347   -0.0580 N   0  0  0  0  0  0  0  0  0  0  0  0
   -4.0095   -0.2781   -0.0059 N   0  0  0  0  0  0  0  0  0  0  0  0
   -1.0742    1.1264   -0.6422 C   0  0  0  0  0  0  0  0  0  0  0  0
    0.3327    1.1402   -0.7060 C   0  0  0  0  0  0  0  0  0  0  0  0
    1.1528    0.0651   -0.3305 C   0  0  0  0  0  0  0  0  0  0  0  0
    2.4891    0.2557   -0.4572 O   0  0  0  0  0  0  0  0  0  0  0  0
    3.3882   -0.7870   -0.0995 C   0  0  0  0  0  0  0  0  0  0  0  0
    0.5976   -1.1537    0.1560 C   0  0  0  0  0  0  0  0  0  0  0  0
   -0.7697   -1.2627    0.2525 C   0  0  0  0  0  0  0  0  0  0  0  0
   -3.8337    4.1092   -1.0511 H   0  0  0  0  0  0  0  0  0  0  0  0
    0.8589    2.0259   -1.0649 H   0  0  0  0  0  0  0  0  0  0  0  0
    4.3885   -0.3956   -0.2899 H   0  0  0  0  0  0  0  0  0  0  0  0
    3.2315   -1.6838   -0.7108 H   0  0  0  0  0  0  0  0  0  0  0  0
    3.3012   -1.0501    0.9617 H   0  0  0  0  0  0  0  0  0  0  0  0
    1.2280   -1.9841    0.4474 H   0  0  0  0  0  0  0  0  0  0  0  0
   -1.2410   -2.1723    0.6175 H   0  0  0  0  0  0  0  0  0  0  0  0
   -5.4122    3.8991    0.3815 S   0  0  0  0  0  0  0  0  0  0  0  0
   -4.6183    4.6377   -0.8230 O   0  0  0  0  0  0  0  0  0  0  0  0
   -6.7114    4.5340    0.4325 O   0  0  0  0  0  0  0  0  0  0  0  0
   -5.2101    2.4700    0.2822 O   0  0  0  0  0  0  0  0  0  0  0  0
   -4.5547    4.3695    1.6813 O   0  0  0  0  0  0  0  0  0  0  0  0
   -4.8682    5.2531    1.9396 H   0  0  0  0  0  0  0  0  0  0  0  0
  1  2  1  0  0  0  0
  1 10  2  0  0  0  0
  2  3  1  0  0  0  0
  4  1  1  0  0  0  0
  5  4  2  0  0  0  0
  5  6  1  0  0  0  0
  6  9  2  0  0  0  0
  7  6  1  0  0  0  0
  7  8  1  0  0  0  0
  8 15  1  0  0  0  0
  9 10  1  0  0  0  0
  9 16  1  0  0  0  0
 10 17  1  0  0  0  0
 11 19  1  0  0  0  0
 12  5  1  0  0  0  0
 13  8  1  0  0  0  0
 14  8  1  0  0  0  0
 18 20  2  0  0  0  0
 18 22  1  0  0  0  0
 19 18  1  0  0  0  0
 21 18  2  0  0  0  0
 22 23  1  0  0  0  0
M  RAD  3   2   2   3   3   4   2
M  END
