Coordinates from ORCA-job 4-MeOPhN2+~HSO4-_B3LYPG-6-31G_dp-CH-Scan-d09-49-n800
 OpenBabel11261919063D

 23 22  0  0  0  0  0  0  0  0999 V2000
   -1.6247   -0.1187   -0.0940 C   0  0  0  0  0  0  0  0  0  0  0  0
   -2.9902   -0.2756    0.0048 N   0  0  0  0  0  0  0  0  0  0  0  0
   -4.1065   -0.3620    0.0662 N   0  0  0  0  0  0  0  0  0  0  0  0
   -1.2131    1.1693   -0.5143 C   0  0  0  0  0  0  0  0  0  0  0  0
    0.1906    1.2253   -0.5899 C   0  0  0  0  0  0  0  0  0  0  0  0
    1.0418    0.1505   -0.2885 C   0  0  0  0  0  0  0  0  0  0  0  0
    2.3702    0.3830   -0.4174 O   0  0  0  0  0  0  0  0  0  0  0  0
    3.3001   -0.6568   -0.1365 C   0  0  0  0  0  0  0  0  0  0  0  0
    0.5222   -1.1086    0.1285 C   0  0  0  0  0  0  0  0  0  0  0  0
   -0.8407   -1.2579    0.2308 C   0  0  0  0  0  0  0  0  0  0  0  0
   -3.5128    3.7524   -0.9689 H   0  0  0  0  0  0  0  0  0  0  0  0
    0.6895    2.1443   -0.8993 H   0  0  0  0  0  0  0  0  0  0  0  0
    4.2873   -0.2297   -0.3177 H   0  0  0  0  0  0  0  0  0  0  0  0
    3.1542   -1.5188   -0.7983 H   0  0  0  0  0  0  0  0  0  0  0  0
    3.2363   -0.9845    0.9081 H   0  0  0  0  0  0  0  0  0  0  0  0
    1.1759   -1.9388    0.3634 H   0  0  0  0  0  0  0  0  0  0  0  0
   -1.2847   -2.1992    0.5456 H   0  0  0  0  0  0  0  0  0  0  0  0
   -5.2199    3.8118    0.3227 S   0  0  0  0  0  0  0  0  0  0  0  0
   -4.2548    4.3719   -0.8471 O   0  0  0  0  0  0  0  0  0  0  0  0
   -6.4302    4.6009    0.2359 O   0  0  0  0  0  0  0  0  0  0  0  0
   -5.1976    2.3645    0.3198 O   0  0  0  0  0  0  0  0  0  0  0  0
   -4.4109    4.2526    1.6645 O   0  0  0  0  0  0  0  0  0  0  0  0
   -4.6245    5.1838    1.8457 H   0  0  0  0  0  0  0  0  0  0  0  0
  1  2  1  0  0  0  0
  1 10  2  0  0  0  0
  2  3  1  0  0  0  0
  4  1  1  0  0  0  0
  5  4  2  0  0  0  0
  5  6  1  0  0  0  0
  6  9  2  0  0  0  0
  7  6  1  0  0  0  0
  7  8  1  0  0  0  0
  8 15  1  0  0  0  0
  9 10  1  0  0  0  0
  9 16  1  0  0  0  0
 10 17  1  0  0  0  0
 11 19  1  0  0  0  0
 12  5  1  0  0  0  0
 13  8  1  0  0  0  0
 14  8  1  0  0  0  0
 18 22  1  0  0  0  0
 19 18  1  0  0  0  0
 20 18  2  0  0  0  0
 21 18  2  0  0  0  0
 22 23  1  0  0  0  0
M  RAD  3   2   2   3   3   4   2
M  END
