Coordinates from ORCA-job 4-MeOPhN2+~HSO4-_B3LYPG-6-31G_dp-CH-Scan-d09-49-n800
 OpenBabel11261919063D

 23 22  0  0  0  0  0  0  0  0999 V2000
   -1.8660   -0.0789   -0.0544 C   0  0  0  0  0  0  0  0  0  0  0  0
   -3.2149   -0.3257    0.0351 N   0  0  0  0  0  0  0  0  0  0  0  0
   -4.3189   -0.5009    0.1005 N   0  0  0  0  0  0  0  0  0  0  0  0
   -1.4973    1.2546   -0.3636 C   0  0  0  0  0  0  0  0  0  0  0  0
   -0.1049    1.3905   -0.4372 C   0  0  0  0  0  0  0  0  0  0  0  0
    0.7985    0.3336   -0.2304 C   0  0  0  0  0  0  0  0  0  0  0  0
    2.1087    0.6405   -0.3433 O   0  0  0  0  0  0  0  0  0  0  0  0
    3.0923   -0.3737   -0.1603 C   0  0  0  0  0  0  0  0  0  0  0  0
    0.3370   -0.9756    0.0779 C   0  0  0  0  0  0  0  0  0  0  0  0
   -1.0177   -1.1948    0.1686 C   0  0  0  0  0  0  0  0  0  0  0  0
   -2.8994    2.9302   -0.6725 H   0  0  0  0  0  0  0  0  0  0  0  0
    0.3423    2.3558   -0.6690 H   0  0  0  0  0  0  0  0  0  0  0  0
    4.0544    0.1167   -0.3106 H   0  0  0  0  0  0  0  0  0  0  0  0
    2.9789   -1.1801   -0.8943 H   0  0  0  0  0  0  0  0  0  0  0  0
    3.0548   -0.7916    0.8525 H   0  0  0  0  0  0  0  0  0  0  0  0
    1.0269   -1.7935    0.2409 H   0  0  0  0  0  0  0  0  0  0  0  0
   -1.4146   -2.1788    0.4032 H   0  0  0  0  0  0  0  0  0  0  0  0
   -4.7412    3.5767    0.2363 S   0  0  0  0  0  0  0  0  0  0  0  0
   -3.5317    3.6989   -0.7911 O   0  0  0  0  0  0  0  0  0  0  0  0
   -5.7239    4.5670   -0.1591 O   0  0  0  0  0  0  0  0  0  0  0  0
   -5.0797    2.1822    0.4586 O   0  0  0  0  0  0  0  0  0  0  0  0
   -4.0666    4.0674    1.6420 O   0  0  0  0  0  0  0  0  0  0  0  0
   -4.0594    5.0392    1.6339 H   0  0  0  0  0  0  0  0  0  0  0  0
  1  2  1  0  0  0  0
  1 10  2  0  0  0  0
  2  3  1  0  0  0  0
  4  1  1  0  0  0  0
  5  4  2  0  0  0  0
  5  6  1  0  0  0  0
  6  9  2  0  0  0  0
  7  6  1  0  0  0  0
  7  8  1  0  0  0  0
  8 15  1  0  0  0  0
  9 10  1  0  0  0  0
  9 16  1  0  0  0  0
 10 17  1  0  0  0  0
 12  5  1  0  0  0  0
 13  8  1  0  0  0  0
 14  8  1  0  0  0  0
 18 21  2  0  0  0  0
 18 22  1  0  0  0  0
 19 11  1  0  0  0  0
 19 18  1  0  0  0  0
 20 18  2  0  0  0  0
 23 22  1  0  0  0  0
M  RAD  3   2   2   3   3   4   2
M  END
