Coordinates from ORCA-job 4-MeOPhN2+~HSO4-_B3LYPG-6-31G_dp-CH-Scan-d09-49-n800
 OpenBabel11261919063D

 23 22  0  0  0  0  0  0  0  0999 V2000
   -1.5766   -0.1209   -0.1131 C   0  0  0  0  0  0  0  0  0  0  0  0
   -2.9451   -0.2574   -0.0169 N   0  0  0  0  0  0  0  0  0  0  0  0
   -4.0632   -0.3235    0.0421 N   0  0  0  0  0  0  0  0  0  0  0  0
   -1.1515    1.1536   -0.5592 C   0  0  0  0  0  0  0  0  0  0  0  0
    0.2539    1.1908   -0.6305 C   0  0  0  0  0  0  0  0  0  0  0  0
    1.0915    0.1133   -0.3026 C   0  0  0  0  0  0  0  0  0  0  0  0
    2.4237    0.3276   -0.4307 O   0  0  0  0  0  0  0  0  0  0  0  0
    3.3398   -0.7161   -0.1219 C   0  0  0  0  0  0  0  0  0  0  0  0
    0.5564   -1.1310    0.1392 C   0  0  0  0  0  0  0  0  0  0  0  0
   -0.8085   -1.2629    0.2394 C   0  0  0  0  0  0  0  0  0  0  0  0
   -3.6654    3.9220   -1.0264 H   0  0  0  0  0  0  0  0  0  0  0  0
    0.7650    2.0971   -0.9576 H   0  0  0  0  0  0  0  0  0  0  0  0
    4.3330   -0.3042   -0.3060 H   0  0  0  0  0  0  0  0  0  0  0  0
    3.1885   -1.5905   -0.7660 H   0  0  0  0  0  0  0  0  0  0  0  0
    3.2663   -1.0209    0.9291 H   0  0  0  0  0  0  0  0  0  0  0  0
    1.2000   -1.9632    0.3942 H   0  0  0  0  0  0  0  0  0  0  0  0
   -1.2646   -2.1923    0.5721 H   0  0  0  0  0  0  0  0  0  0  0  0
   -5.3073    3.8501    0.3470 S   0  0  0  0  0  0  0  0  0  0  0  0
   -4.4292    4.4990   -0.8484 O   0  0  0  0  0  0  0  0  0  0  0  0
   -6.5628    4.5697    0.3370 O   0  0  0  0  0  0  0  0  0  0  0  0
   -5.2003    2.4079    0.2960 O   0  0  0  0  0  0  0  0  0  0  0  0
   -4.4631    4.3005    1.6630 O   0  0  0  0  0  0  0  0  0  0  0  0
   -4.7232    5.2110    1.8841 H   0  0  0  0  0  0  0  0  0  0  0  0
  1  2  1  0  0  0  0
  1 10  2  0  0  0  0
  2  3  1  0  0  0  0
  4  1  1  0  0  0  0
  5  4  2  0  0  0  0
  5  6  1  0  0  0  0
  6  9  2  0  0  0  0
  7  6  1  0  0  0  0
  7  8  1  0  0  0  0
  8 15  1  0  0  0  0
  9 10  1  0  0  0  0
  9 16  1  0  0  0  0
 10 17  1  0  0  0  0
 11 19  1  0  0  0  0
 12  5  1  0  0  0  0
 13  8  1  0  0  0  0
 14  8  1  0  0  0  0
 18 22  1  0  0  0  0
 19 18  1  0  0  0  0
 20 18  2  0  0  0  0
 21 18  2  0  0  0  0
 22 23  1  0  0  0  0
M  RAD  3   2   2   3   3   4   2
M  END
