Coordinates from ORCA-job 4-MeOPhN2+~HSO4-_B3LYPG-6-31G_dp-CH-Scan-d09-49-n800
 OpenBabel11261919063D

 23 22  0  0  0  0  0  0  0  0999 V2000
   -1.8983   -0.0746   -0.0602 C   0  0  0  0  0  0  0  0  0  0  0  0
   -3.2448   -0.3337    0.0216 N   0  0  0  0  0  0  0  0  0  0  0  0
   -4.3472   -0.5196    0.0805 N   0  0  0  0  0  0  0  0  0  0  0  0
   -1.5330    1.2641   -0.3521 C   0  0  0  0  0  0  0  0  0  0  0  0
   -0.1424    1.4099   -0.4206 C   0  0  0  0  0  0  0  0  0  0  0  0
    0.7668    0.3556   -0.2243 C   0  0  0  0  0  0  0  0  0  0  0  0
    2.0745    0.6717   -0.3308 O   0  0  0  0  0  0  0  0  0  0  0  0
    3.0643   -0.3388   -0.1584 C   0  0  0  0  0  0  0  0  0  0  0  0
    0.3114   -0.9590    0.0674 C   0  0  0  0  0  0  0  0  0  0  0  0
   -1.0425   -1.1864    0.1516 C   0  0  0  0  0  0  0  0  0  0  0  0
   -2.8214    2.8108   -0.6247 H   0  0  0  0  0  0  0  0  0  0  0  0
    0.2980    2.3810   -0.6398 H   0  0  0  0  0  0  0  0  0  0  0  0
    4.0234    0.1594   -0.3015 H   0  0  0  0  0  0  0  0  0  0  0  0
    2.9565   -1.1368   -0.9023 H   0  0  0  0  0  0  0  0  0  0  0  0
    3.0277   -0.7686    0.8494 H   0  0  0  0  0  0  0  0  0  0  0  0
    1.0049   -1.7753    0.2229 H   0  0  0  0  0  0  0  0  0  0  0  0
   -1.4344   -2.1752    0.3736 H   0  0  0  0  0  0  0  0  0  0  0  0
   -4.6661    3.5396    0.2410 S   0  0  0  0  0  0  0  0  0  0  0  0
   -3.4450    3.6015   -0.7672 O   0  0  0  0  0  0  0  0  0  0  0  0
   -5.6430    4.5136   -0.2097 O   0  0  0  0  0  0  0  0  0  0  0  0
   -5.0196    2.1592    0.5285 O   0  0  0  0  0  0  0  0  0  0  0  0
   -4.0141    4.0955    1.6351 O   0  0  0  0  0  0  0  0  0  0  0  0
   -4.0181    5.0658    1.5840 H   0  0  0  0  0  0  0  0  0  0  0  0
  1  2  1  0  0  0  0
  1 10  2  0  0  0  0
  2  3  1  0  0  0  0
  4  1  1  0  0  0  0
  5  4  2  0  0  0  0
  5  6  1  0  0  0  0
  6  9  2  0  0  0  0
  7  6  1  0  0  0  0
  7  8  1  0  0  0  0
  8 15  1  0  0  0  0
  9 10  1  0  0  0  0
  9 16  1  0  0  0  0
 10 17  1  0  0  0  0
 12  5  1  0  0  0  0
 13  8  1  0  0  0  0
 14  8  1  0  0  0  0
 18 21  2  0  0  0  0
 18 22  1  0  0  0  0
 19 11  1  0  0  0  0
 19 18  1  0  0  0  0
 20 18  2  0  0  0  0
 23 22  1  0  0  0  0
M  RAD  3   2   2   3   3   4   2
M  END
