Coordinates from ORCA-job 4-MeOPhN2+~HSO4-_B3LYPG-6-31G_dp-CH-Scan-d09-49-n800
 OpenBabel11261919063D

 23 22  0  0  0  0  0  0  0  0999 V2000
   -1.9625   -0.0598   -0.1306 C   0  0  0  0  0  0  0  0  0  0  0  0
   -3.3070   -0.3321   -0.0846 N   0  0  0  0  0  0  0  0  0  0  0  0
   -4.4073   -0.5316   -0.0548 N   0  0  0  0  0  0  0  0  0  0  0  0
   -1.5916    1.2810   -0.4042 C   0  0  0  0  0  0  0  0  0  0  0  0
   -0.2052    1.4444   -0.4398 C   0  0  0  0  0  0  0  0  0  0  0  0
    0.7080    0.3957   -0.2270 C   0  0  0  0  0  0  0  0  0  0  0  0
    2.0132    0.7240   -0.2983 O   0  0  0  0  0  0  0  0  0  0  0  0
    3.0085   -0.2779   -0.1015 C   0  0  0  0  0  0  0  0  0  0  0  0
    0.2547   -0.9229    0.0442 C   0  0  0  0  0  0  0  0  0  0  0  0
   -1.0995   -1.1621    0.0930 C   0  0  0  0  0  0  0  0  0  0  0  0
   -2.7147    2.5876   -0.6170 H   0  0  0  0  0  0  0  0  0  0  0  0
    0.2263    2.4228   -0.6406 H   0  0  0  0  0  0  0  0  0  0  0  0
    3.9657    0.2307   -0.2165 H   0  0  0  0  0  0  0  0  0  0  0  0
    2.9285   -1.0740   -0.8510 H   0  0  0  0  0  0  0  0  0  0  0  0
    2.9473   -0.7105    0.9036 H   0  0  0  0  0  0  0  0  0  0  0  0
    0.9500   -1.7352    0.2121 H   0  0  0  0  0  0  0  0  0  0  0  0
   -1.4877   -2.1555    0.2987 H   0  0  0  0  0  0  0  0  0  0  0  0
   -4.5093    3.4420    0.3297 S   0  0  0  0  0  0  0  0  0  0  0  0
   -3.3863    3.4089   -0.7634 O   0  0  0  0  0  0  0  0  0  0  0  0
   -5.5887    4.2964   -0.1397 O   0  0  0  0  0  0  0  0  0  0  0  0
   -4.7660    2.0988    0.8355 O   0  0  0  0  0  0  0  0  0  0  0  0
   -3.7902    4.2198    1.5834 O   0  0  0  0  0  0  0  0  0  0  0  0
   -3.9286    5.1693    1.4328 H   0  0  0  0  0  0  0  0  0  0  0  0
  1  2  1  0  0  0  0
  1 10  2  0  0  0  0
  2  3  1  0  0  0  0
  4  1  1  0  0  0  0
  5  4  2  0  0  0  0
  5  6  1  0  0  0  0
  6  9  2  0  0  0  0
  7  6  1  0  0  0  0
  7  8  1  0  0  0  0
  8 15  1  0  0  0  0
  9 10  1  0  0  0  0
  9 16  1  0  0  0  0
 10 17  1  0  0  0  0
 12  5  1  0  0  0  0
 13  8  1  0  0  0  0
 14  8  1  0  0  0  0
 18 21  2  0  0  0  0
 18 22  1  0  0  0  0
 19 11  1  0  0  0  0
 19 18  1  0  0  0  0
 20 18  2  0  0  0  0
 23 22  1  0  0  0  0
M  RAD  3   2   2   3   3   4   2
M  END
