Coordinates from ORCA-job 4-MeOPhN2+~HSO4-_B3LYPG-6-31G_dp-CH-Scan-d09-49-n800
 OpenBabel11261919063D

 23 22  0  0  0  0  0  0  0  0999 V2000
   -1.5477   -0.1228   -0.1324 C   0  0  0  0  0  0  0  0  0  0  0  0
   -2.9179   -0.2465   -0.0388 N   0  0  0  0  0  0  0  0  0  0  0  0
   -4.0369   -0.3013    0.0162 N   0  0  0  0  0  0  0  0  0  0  0  0
   -1.1135    1.1393   -0.6038 C   0  0  0  0  0  0  0  0  0  0  0  0
    0.2928    1.1647   -0.6708 C   0  0  0  0  0  0  0  0  0  0  0  0
    1.1218    0.0888   -0.3170 C   0  0  0  0  0  0  0  0  0  0  0  0
    2.4561    0.2913   -0.4442 O   0  0  0  0  0  0  0  0  0  0  0  0
    3.3637   -0.7515   -0.1089 C   0  0  0  0  0  0  0  0  0  0  0  0
    0.5766   -1.1424    0.1490 C   0  0  0  0  0  0  0  0  0  0  0  0
   -0.7895   -1.2628    0.2470 C   0  0  0  0  0  0  0  0  0  0  0  0
   -3.7529    4.0295   -1.0448 H   0  0  0  0  0  0  0  0  0  0  0  0
    0.8116    2.0604   -1.0151 H   0  0  0  0  0  0  0  0  0  0  0  0
    4.3606   -0.3501   -0.2963 H   0  0  0  0  0  0  0  0  0  0  0  0
    3.2102   -1.6383   -0.7353 H   0  0  0  0  0  0  0  0  0  0  0  0
    3.2829   -1.0339    0.9479 H   0  0  0  0  0  0  0  0  0  0  0  0
    1.2137   -1.9733    0.4238 H   0  0  0  0  0  0  0  0  0  0  0  0
   -1.2533   -2.1820    0.5972 H   0  0  0  0  0  0  0  0  0  0  0  0
   -5.3583    3.8728    0.3651 S   0  0  0  0  0  0  0  0  0  0  0  0
   -4.5314    4.5758   -0.8376 O   0  0  0  0  0  0  0  0  0  0  0  0
   -6.6396    4.5446    0.3949 O   0  0  0  0  0  0  0  0  0  0  0  0
   -5.1973    2.4373    0.2841 O   0  0  0  0  0  0  0  0  0  0  0  0
   -4.5021    4.3324    1.6698 O   0  0  0  0  0  0  0  0  0  0  0  0
   -4.7920    5.2279    1.9141 H   0  0  0  0  0  0  0  0  0  0  0  0
  1  2  1  0  0  0  0
  1 10  2  0  0  0  0
  2  3  1  0  0  0  0
  4  1  1  0  0  0  0
  5  4  2  0  0  0  0
  5  6  1  0  0  0  0
  6  9  2  0  0  0  0
  7  6  1  0  0  0  0
  7  8  1  0  0  0  0
  8 15  1  0  0  0  0
  9 10  1  0  0  0  0
  9 16  1  0  0  0  0
 10 17  1  0  0  0  0
 11 19  1  0  0  0  0
 12  5  1  0  0  0  0
 13  8  1  0  0  0  0
 14  8  1  0  0  0  0
 18 20  2  0  0  0  0
 18 22  1  0  0  0  0
 19 18  1  0  0  0  0
 21 18  2  0  0  0  0
 22 23  1  0  0  0  0
M  RAD  3   2   2   3   3   4   2
M  END
