Coordinates from ORCA-job 4-MeOPhN2+~HSO4-_B3LYPG-6-31G_dp-CH-Scan-d09-49-n800
 OpenBabel11261919063D

 23 22  0  0  0  0  0  0  0  0999 V2000
   -1.6724   -0.1152   -0.0967 C   0  0  0  0  0  0  0  0  0  0  0  0
   -3.0352   -0.2913   -0.0036 N   0  0  0  0  0  0  0  0  0  0  0  0
   -4.1499   -0.3965    0.0551 N   0  0  0  0  0  0  0  0  0  0  0  0
   -1.2708    1.1810   -0.5022 C   0  0  0  0  0  0  0  0  0  0  0  0
    0.1314    1.2545   -0.5729 C   0  0  0  0  0  0  0  0  0  0  0  0
    0.9937    0.1857   -0.2800 C   0  0  0  0  0  0  0  0  0  0  0  0
    2.3192    0.4344   -0.4026 O   0  0  0  0  0  0  0  0  0  0  0  0
    3.2601   -0.5980   -0.1303 C   0  0  0  0  0  0  0  0  0  0  0  0
    0.4863   -1.0828    0.1221 C   0  0  0  0  0  0  0  0  0  0  0  0
   -0.8753   -1.2480    0.2184 C   0  0  0  0  0  0  0  0  0  0  0  0
   -3.4068    3.6018   -0.9398 H   0  0  0  0  0  0  0  0  0  0  0  0
    0.6204    2.1822   -0.8712 H   0  0  0  0  0  0  0  0  0  0  0  0
    4.2428   -0.1580   -0.3052 H   0  0  0  0  0  0  0  0  0  0  0  0
    3.1247   -1.4546   -0.8011 H   0  0  0  0  0  0  0  0  0  0  0  0
    3.1979   -0.9367    0.9108 H   0  0  0  0  0  0  0  0  0  0  0  0
    1.1481   -1.9084    0.3507 H   0  0  0  0  0  0  0  0  0  0  0  0
   -1.3096   -2.1974    0.5220 H   0  0  0  0  0  0  0  0  0  0  0  0
   -5.1311    3.7678    0.3189 S   0  0  0  0  0  0  0  0  0  0  0  0
   -4.1306    4.2499   -0.8525 O   0  0  0  0  0  0  0  0  0  0  0  0
   -6.3034    4.6083    0.1974 O   0  0  0  0  0  0  0  0  0  0  0  0
   -5.1790    2.3213    0.3583 O   0  0  0  0  0  0  0  0  0  0  0  0
   -4.3179    4.2068    1.6595 O   0  0  0  0  0  0  0  0  0  0  0  0
   -4.4851    5.1529    1.8092 H   0  0  0  0  0  0  0  0  0  0  0  0
  1  2  1  0  0  0  0
  1 10  2  0  0  0  0
  2  3  1  0  0  0  0
  4  1  1  0  0  0  0
  5  4  2  0  0  0  0
  5  6  1  0  0  0  0
  6  9  2  0  0  0  0
  7  6  1  0  0  0  0
  7  8  1  0  0  0  0
  8 15  1  0  0  0  0
  9 10  1  0  0  0  0
  9 16  1  0  0  0  0
 10 17  1  0  0  0  0
 11 19  1  0  0  0  0
 12  5  1  0  0  0  0
 13  8  1  0  0  0  0
 14  8  1  0  0  0  0
 18 21  2  0  0  0  0
 18 22  1  0  0  0  0
 19 18  1  0  0  0  0
 20 18  2  0  0  0  0
 22 23  1  0  0  0  0
M  RAD  3   2   2   3   3   4   2
M  END
