Coordinates from ORCA-job 4-MeOPhN2+~HSO4-_B3LYPG-6-31G_dp-CH-Scan-d09-49-n800
 OpenBabel11261919063D

 23 22  0  0  0  0  0  0  0  0999 V2000
   -1.9412    0.3848   -0.2063 C   0  0  0  0  0  0  0  0  0  0  0  0
   -3.3140    0.3346   -0.1922 N   0  0  0  0  0  0  0  0  0  0  0  0
   -4.4330    0.2720   -0.2253 N   0  0  0  0  0  0  0  0  0  0  0  0
   -1.2789    1.6109   -0.4409 C   0  0  0  0  0  0  0  0  0  0  0  0
    0.0992    1.5900   -0.4746 C   0  0  0  0  0  0  0  0  0  0  0  0
    0.8152    0.3924   -0.2640 C   0  0  0  0  0  0  0  0  0  0  0  0
    2.1515    0.5029   -0.3103 O   0  0  0  0  0  0  0  0  0  0  0  0
    2.9646   -0.6519   -0.0948 C   0  0  0  0  0  0  0  0  0  0  0  0
    0.1301   -0.8194   -0.0266 C   0  0  0  0  0  0  0  0  0  0  0  0
   -1.2526   -0.8253   -0.0029 C   0  0  0  0  0  0  0  0  0  0  0  0
   -1.8913    2.5845   -0.5938 H   0  0  0  0  0  0  0  0  0  0  0  0
    0.6604    2.5003   -0.6525 H   0  0  0  0  0  0  0  0  0  0  0  0
    3.9942   -0.3039   -0.1739 H   0  0  0  0  0  0  0  0  0  0  0  0
    2.7772   -1.4157   -0.8576 H   0  0  0  0  0  0  0  0  0  0  0  0
    2.7973   -1.0725    0.9030 H   0  0  0  0  0  0  0  0  0  0  0  0
    0.6672   -1.7446    0.1370 H   0  0  0  0  0  0  0  0  0  0  0  0
   -1.8013   -1.7434    0.1765 H   0  0  0  0  0  0  0  0  0  0  0  0
   -4.1980    3.3028    0.4453 S   0  0  0  0  0  0  0  0  0  0  0  0
   -3.3575    3.9074   -0.6115 O   0  0  0  0  0  0  0  0  0  0  0  0
   -5.3673    2.5149   -0.0517 O   0  0  0  0  0  0  0  0  0  0  0  0
   -3.4165    2.5508    1.4577 O   0  0  0  0  0  0  0  0  0  0  0  0
   -4.8673    4.6076    1.2036 O   0  0  0  0  0  0  0  0  0  0  0  0
   -5.6805    4.2807    1.6195 H   0  0  0  0  0  0  0  0  0  0  0  0
  1  2  1  0  0  0  0
  1 10  2  0  0  0  0
  3  2  1  0  0  0  0
  4  1  1  0  0  0  0
  5  4  2  0  0  0  0
  5  6  1  0  0  0  0
  6  9  2  0  0  0  0
  7  6  1  0  0  0  0
  7  8  1  0  0  0  0
  8 15  1  0  0  0  0
  9 10  1  0  0  0  0
  9 16  1  0  0  0  0
 10 17  1  0  0  0  0
 11  4  1  0  0  0  0
 12  5  1  0  0  0  0
 13  8  1  0  0  0  0
 14  8  1  0  0  0  0
 18 22  1  0  0  0  0
 18 21  1  0  0  0  0
 19 18  2  0  0  0  0
 20 18  2  0  0  0  0
 22 23  1  0  0  0  0
M  RAD  3   2   2   3   3  21   2
M  END
