Coordinates from ORCA-job 4-MeOPhN2+~HSO4-_B3LYPG-6-31G_dp-CH-Scan-d09-49-n800
 OpenBabel11261919053D

 23 22  0  0  0  0  0  0  0  0999 V2000
   -1.9529    0.3923   -0.2190 C   0  0  0  0  0  0  0  0  0  0  0  0
   -3.3261    0.3406   -0.2122 N   0  0  0  0  0  0  0  0  0  0  0  0
   -4.4457    0.2750   -0.2528 N   0  0  0  0  0  0  0  0  0  0  0  0
   -1.2885    1.6189   -0.4466 C   0  0  0  0  0  0  0  0  0  0  0  0
    0.0904    1.5979   -0.4702 C   0  0  0  0  0  0  0  0  0  0  0  0
    0.8060    0.4013   -0.2547 C   0  0  0  0  0  0  0  0  0  0  0  0
    2.1426    0.5140   -0.2889 O   0  0  0  0  0  0  0  0  0  0  0  0
    2.9545   -0.6404   -0.0674 C   0  0  0  0  0  0  0  0  0  0  0  0
    0.1194   -0.8104   -0.0258 C   0  0  0  0  0  0  0  0  0  0  0  0
   -1.2640   -0.8162   -0.0141 C   0  0  0  0  0  0  0  0  0  0  0  0
   -1.8359    2.5029   -0.5942 H   0  0  0  0  0  0  0  0  0  0  0  0
    0.6507    2.5095   -0.6438 H   0  0  0  0  0  0  0  0  0  0  0  0
    3.9846   -0.2914   -0.1356 H   0  0  0  0  0  0  0  0  0  0  0  0
    2.7755   -1.4032   -0.8333 H   0  0  0  0  0  0  0  0  0  0  0  0
    2.7777   -1.0630    0.9279 H   0  0  0  0  0  0  0  0  0  0  0  0
    0.6550   -1.7360    0.1403 H   0  0  0  0  0  0  0  0  0  0  0  0
   -1.8137   -1.7349    0.1587 H   0  0  0  0  0  0  0  0  0  0  0  0
   -4.2263    3.3041    0.3727 S   0  0  0  0  0  0  0  0  0  0  0  0
   -3.4617    3.9282   -0.7214 O   0  0  0  0  0  0  0  0  0  0  0  0
   -5.3871    2.4676   -0.0641 O   0  0  0  0  0  0  0  0  0  0  0  0
   -3.3861    2.5806    1.3640 O   0  0  0  0  0  0  0  0  0  0  0  0
   -4.8843    4.5948    1.1642 O   0  0  0  0  0  0  0  0  0  0  0  0
   -5.4265    4.2275    1.8802 H   0  0  0  0  0  0  0  0  0  0  0  0
  1  2  1  0  0  0  0
  1 10  2  0  0  0  0
  3  2  1  0  0  0  0
  4  1  1  0  0  0  0
  5  4  2  0  0  0  0
  5  6  1  0  0  0  0
  6  9  2  0  0  0  0
  7  6  1  0  0  0  0
  7  8  1  0  0  0  0
  8 15  1  0  0  0  0
  9 10  1  0  0  0  0
  9 16  1  0  0  0  0
 10 17  1  0  0  0  0
 11  4  1  0  0  0  0
 12  5  1  0  0  0  0
 13  8  1  0  0  0  0
 14  8  1  0  0  0  0
 18 22  1  0  0  0  0
 18 21  1  0  0  0  0
 19 18  2  0  0  0  0
 20 18  2  0  0  0  0
 22 23  1  0  0  0  0
M  RAD  3   2   2   3   3  21   2
M  END
