Coordinates from ORCA-job 4-MeOPhN2+~HSO4-_B3LYPG-6-31G_dp-CH-Scan-d09-49-n800
 OpenBabel11261919063D

 23 22  0  0  0  0  0  0  0  0999 V2000
   -1.8541   -0.0817   -0.0602 C   0  0  0  0  0  0  0  0  0  0  0  0
   -3.2040   -0.3243    0.0278 N   0  0  0  0  0  0  0  0  0  0  0  0
   -4.3088   -0.4956    0.0920 N   0  0  0  0  0  0  0  0  0  0  0  0
   -1.4834    1.2498   -0.3751 C   0  0  0  0  0  0  0  0  0  0  0  0
   -0.0903    1.3823   -0.4467 C   0  0  0  0  0  0  0  0  0  0  0  0
    0.8105    0.3247   -0.2333 C   0  0  0  0  0  0  0  0  0  0  0  0
    2.1219    0.6283   -0.3451 O   0  0  0  0  0  0  0  0  0  0  0  0
    3.1028   -0.3870   -0.1550 C   0  0  0  0  0  0  0  0  0  0  0  0
    0.3462   -0.9824    0.0805 C   0  0  0  0  0  0  0  0  0  0  0  0
   -1.0090   -1.1989    0.1697 C   0  0  0  0  0  0  0  0  0  0  0  0
   -2.9355    2.9737   -0.6963 H   0  0  0  0  0  0  0  0  0  0  0  0
    0.3598    2.3455   -0.6821 H   0  0  0  0  0  0  0  0  0  0  0  0
    4.0664    0.1005   -0.3058 H   0  0  0  0  0  0  0  0  0  0  0  0
    2.9892   -1.1969   -0.8852 H   0  0  0  0  0  0  0  0  0  0  0  0
    3.0625   -0.7999    0.8598 H   0  0  0  0  0  0  0  0  0  0  0  0
    1.0345   -1.8007    0.2486 H   0  0  0  0  0  0  0  0  0  0  0  0
   -1.4082   -2.1810    0.4084 H   0  0  0  0  0  0  0  0  0  0  0  0
   -4.7679    3.5880    0.2465 S   0  0  0  0  0  0  0  0  0  0  0  0
   -3.5766    3.7313   -0.8030 O   0  0  0  0  0  0  0  0  0  0  0  0
   -5.7661    4.5708   -0.1271 O   0  0  0  0  0  0  0  0  0  0  0  0
   -5.0862    2.1884    0.4637 O   0  0  0  0  0  0  0  0  0  0  0  0
   -4.0725    4.0764    1.6419 O   0  0  0  0  0  0  0  0  0  0  0  0
   -4.0737    5.0484    1.6402 H   0  0  0  0  0  0  0  0  0  0  0  0
  1  2  1  0  0  0  0
  1 10  2  0  0  0  0
  2  3  1  0  0  0  0
  4  1  1  0  0  0  0
  5  4  2  0  0  0  0
  5  6  1  0  0  0  0
  6  9  2  0  0  0  0
  7  6  1  0  0  0  0
  7  8  1  0  0  0  0
  8 15  1  0  0  0  0
  9 10  1  0  0  0  0
  9 16  1  0  0  0  0
 10 17  1  0  0  0  0
 12  5  1  0  0  0  0
 13  8  1  0  0  0  0
 14  8  1  0  0  0  0
 18 21  2  0  0  0  0
 18 22  1  0  0  0  0
 19 11  1  0  0  0  0
 19 18  1  0  0  0  0
 20 18  2  0  0  0  0
 23 22  1  0  0  0  0
M  RAD  3   2   2   3   3   4   2
M  END
