Coordinates from ORCA-job 4-MeOPhN2+~HSO4-_B3LYPG-6-31G_dp-CH-Scan-d09-49-n800
 OpenBabel11261919053D

 23 22  0  0  0  0  0  0  0  0999 V2000
   -1.9537    0.3939   -0.2100 C   0  0  0  0  0  0  0  0  0  0  0  0
   -3.3270    0.3423   -0.2019 N   0  0  0  0  0  0  0  0  0  0  0  0
   -4.4468    0.2763   -0.2433 N   0  0  0  0  0  0  0  0  0  0  0  0
   -1.2895    1.6219   -0.4312 C   0  0  0  0  0  0  0  0  0  0  0  0
    0.0895    1.6003   -0.4565 C   0  0  0  0  0  0  0  0  0  0  0  0
    0.8054    0.4026   -0.2492 C   0  0  0  0  0  0  0  0  0  0  0  0
    2.1420    0.5154   -0.2849 O   0  0  0  0  0  0  0  0  0  0  0  0
    2.9540   -0.6408   -0.0734 C   0  0  0  0  0  0  0  0  0  0  0  0
    0.1189   -0.8102   -0.0268 C   0  0  0  0  0  0  0  0  0  0  0  0
   -1.2646   -0.8157   -0.0133 C   0  0  0  0  0  0  0  0  0  0  0  0
   -1.8149    2.4736   -0.5689 H   0  0  0  0  0  0  0  0  0  0  0  0
    0.6492    2.5131   -0.6259 H   0  0  0  0  0  0  0  0  0  0  0  0
    3.9840   -0.2918   -0.1418 H   0  0  0  0  0  0  0  0  0  0  0  0
    2.7725   -1.3981   -0.8441 H   0  0  0  0  0  0  0  0  0  0  0  0
    2.7796   -1.0703    0.9195 H   0  0  0  0  0  0  0  0  0  0  0  0
    0.6545   -1.7370    0.1329 H   0  0  0  0  0  0  0  0  0  0  0  0
   -1.8144   -1.7353    0.1546 H   0  0  0  0  0  0  0  0  0  0  0  0
   -4.2295    3.3101    0.3566 S   0  0  0  0  0  0  0  0  0  0  0  0
   -3.4801    3.9411   -0.7422 O   0  0  0  0  0  0  0  0  0  0  0  0
   -5.3860    2.4614   -0.0699 O   0  0  0  0  0  0  0  0  0  0  0  0
   -3.3766    2.5937    1.3432 O   0  0  0  0  0  0  0  0  0  0  0  0
   -4.8940    4.5931    1.1557 O   0  0  0  0  0  0  0  0  0  0  0  0
   -5.4147    4.2201    1.8846 H   0  0  0  0  0  0  0  0  0  0  0  0
  1  2  1  0  0  0  0
  1 10  2  0  0  0  0
  3  2  1  0  0  0  0
  4  1  1  0  0  0  0
  5  4  2  0  0  0  0
  5  6  1  0  0  0  0
  6  9  2  0  0  0  0
  7  6  1  0  0  0  0
  7  8  1  0  0  0  0
  8 15  1  0  0  0  0
  9 10  1  0  0  0  0
  9 16  1  0  0  0  0
 10 17  1  0  0  0  0
 11  4  1  0  0  0  0
 12  5  1  0  0  0  0
 13  8  1  0  0  0  0
 14  8  1  0  0  0  0
 18 22  1  0  0  0  0
 18 21  1  0  0  0  0
 19 18  2  0  0  0  0
 20 18  2  0  0  0  0
 22 23  1  0  0  0  0
M  RAD  3   2   2   3   3  21   2
M  END
