Coordinates from ORCA-job 4-MeOPhN2+~HSO4-_B3LYPG-6-31G_dp-CH-Scan-d09-49-n800
 OpenBabel11261919063D

 23 22  0  0  0  0  0  0  0  0999 V2000
   -1.9406    0.3704   -0.2097 C   0  0  0  0  0  0  0  0  0  0  0  0
   -3.3129    0.3163   -0.1943 N   0  0  0  0  0  0  0  0  0  0  0  0
   -4.4314    0.2547   -0.2234 N   0  0  0  0  0  0  0  0  0  0  0  0
   -1.2864    1.6008   -0.4430 C   0  0  0  0  0  0  0  0  0  0  0  0
    0.0919    1.5861   -0.4750 C   0  0  0  0  0  0  0  0  0  0  0  0
    0.8132    0.3912   -0.2665 C   0  0  0  0  0  0  0  0  0  0  0  0
    2.1490    0.5075   -0.3116 O   0  0  0  0  0  0  0  0  0  0  0  0
    2.9676   -0.6436   -0.0965 C   0  0  0  0  0  0  0  0  0  0  0  0
    0.1342   -0.8253   -0.0313 C   0  0  0  0  0  0  0  0  0  0  0  0
   -1.2479   -0.8384   -0.0071 C   0  0  0  0  0  0  0  0  0  0  0  0
   -1.9434    2.6180   -0.5955 H   0  0  0  0  0  0  0  0  0  0  0  0
    0.6503    2.4987   -0.6500 H   0  0  0  0  0  0  0  0  0  0  0  0
    3.9955   -0.2903   -0.1736 H   0  0  0  0  0  0  0  0  0  0  0  0
    2.7852   -1.4072   -0.8607 H   0  0  0  0  0  0  0  0  0  0  0  0
    2.8011   -1.0665    0.9004 H   0  0  0  0  0  0  0  0  0  0  0  0
    0.6763   -1.7478    0.1307 H   0  0  0  0  0  0  0  0  0  0  0  0
   -1.7923   -1.7594    0.1712 H   0  0  0  0  0  0  0  0  0  0  0  0
   -4.1942    3.2931    0.4675 S   0  0  0  0  0  0  0  0  0  0  0  0
   -3.3099    3.8655   -0.5780 O   0  0  0  0  0  0  0  0  0  0  0  0
   -5.3713    2.5378   -0.0537 O   0  0  0  0  0  0  0  0  0  0  0  0
   -3.4527    2.5330    1.5013 O   0  0  0  0  0  0  0  0  0  0  0  0
   -4.8392    4.6279    1.1930 O   0  0  0  0  0  0  0  0  0  0  0  0
   -5.6846    4.3371    1.5697 H   0  0  0  0  0  0  0  0  0  0  0  0
  1  2  1  0  0  0  0
  1 10  2  0  0  0  0
  3  2  1  0  0  0  0
  4  1  1  0  0  0  0
  5  4  2  0  0  0  0
  5  6  1  0  0  0  0
  6  9  2  0  0  0  0
  7  6  1  0  0  0  0
  7  8  1  0  0  0  0
  8 15  1  0  0  0  0
  9 10  1  0  0  0  0
  9 16  1  0  0  0  0
 10 17  1  0  0  0  0
 11  4  1  0  0  0  0
 12  5  1  0  0  0  0
 13  8  1  0  0  0  0
 14  8  1  0  0  0  0
 18 22  1  0  0  0  0
 18 21  1  0  0  0  0
 19 18  2  0  0  0  0
 20 18  2  0  0  0  0
 22 23  1  0  0  0  0
M  RAD  3   2   2   3   3  21   2
M  END
