Coordinates from ORCA-job 4-MeOPhN2+~HSO4-_B3LYPG-6-31G_dp-CH-Scan-d09-49-n800
 OpenBabel11261919063D

 23 22  0  0  0  0  0  0  0  0999 V2000
   -1.9023   -0.0740   -0.0621 C   0  0  0  0  0  0  0  0  0  0  0  0
   -3.2485   -0.3345    0.0181 N   0  0  0  0  0  0  0  0  0  0  0  0
   -4.3506   -0.5217    0.0757 N   0  0  0  0  0  0  0  0  0  0  0  0
   -1.5371    1.2652   -0.3523 C   0  0  0  0  0  0  0  0  0  0  0  0
   -0.1468    1.4121   -0.4196 C   0  0  0  0  0  0  0  0  0  0  0  0
    0.7631    0.3582   -0.2238 C   0  0  0  0  0  0  0  0  0  0  0  0
    2.0705    0.6753   -0.3291 O   0  0  0  0  0  0  0  0  0  0  0  0
    3.0609   -0.3347   -0.1571 C   0  0  0  0  0  0  0  0  0  0  0  0
    0.3082   -0.9569    0.0662 C   0  0  0  0  0  0  0  0  0  0  0  0
   -1.0457   -1.1853    0.1490 C   0  0  0  0  0  0  0  0  0  0  0  0
   -2.8131    2.7967   -0.6207 H   0  0  0  0  0  0  0  0  0  0  0  0
    0.2929    2.3839   -0.6374 H   0  0  0  0  0  0  0  0  0  0  0  0
    4.0197    0.1643   -0.2991 H   0  0  0  0  0  0  0  0  0  0  0  0
    2.9541   -1.1321   -0.9019 H   0  0  0  0  0  0  0  0  0  0  0  0
    3.0239   -0.7655    0.8502 H   0  0  0  0  0  0  0  0  0  0  0  0
    1.0021   -1.7729    0.2213 H   0  0  0  0  0  0  0  0  0  0  0  0
   -1.4370   -2.1745    0.3697 H   0  0  0  0  0  0  0  0  0  0  0  0
   -4.6569    3.5346    0.2432 S   0  0  0  0  0  0  0  0  0  0  0  0
   -3.4368    3.5898   -0.7651 O   0  0  0  0  0  0  0  0  0  0  0  0
   -5.6354    4.5048   -0.2127 O   0  0  0  0  0  0  0  0  0  0  0  0
   -5.0099    2.1560    0.5408 O   0  0  0  0  0  0  0  0  0  0  0  0
   -4.0052    4.1005    1.6338 O   0  0  0  0  0  0  0  0  0  0  0  0
   -4.0126    5.0704    1.5768 H   0  0  0  0  0  0  0  0  0  0  0  0
  1  2  1  0  0  0  0
  1 10  2  0  0  0  0
  2  3  1  0  0  0  0
  4  1  1  0  0  0  0
  5  4  2  0  0  0  0
  5  6  1  0  0  0  0
  6  9  2  0  0  0  0
  7  6  1  0  0  0  0
  7  8  1  0  0  0  0
  8 15  1  0  0  0  0
  9 10  1  0  0  0  0
  9 16  1  0  0  0  0
 10 17  1  0  0  0  0
 12  5  1  0  0  0  0
 13  8  1  0  0  0  0
 14  8  1  0  0  0  0
 18 21  2  0  0  0  0
 18 22  1  0  0  0  0
 19 11  1  0  0  0  0
 19 18  1  0  0  0  0
 20 18  2  0  0  0  0
 23 22  1  0  0  0  0
M  RAD  3   2   2   3   3   4   2
M  END
