Coordinates from ORCA-job 4-MeOPhN2+~HSO4-_B3LYPG-6-31G_dp-CH-Scan-d09-49-n800
 OpenBabel11261919063D

 23 22  0  0  0  0  0  0  0  0999 V2000
   -1.3419   -0.0992   -0.2604 C   0  0  0  0  0  0  0  0  0  0  0  0
   -2.7194   -0.1211   -0.1836 N   0  0  0  0  0  0  0  0  0  0  0  0
   -3.8406   -0.0867   -0.1539 N   0  0  0  0  0  0  0  0  0  0  0  0
   -0.8294    1.0605   -0.8875 C   0  0  0  0  0  0  0  0  0  0  0  0
    0.5774    0.9951   -0.9287 C   0  0  0  0  0  0  0  0  0  0  0  0
    1.3349   -0.0687   -0.4157 C   0  0  0  0  0  0  0  0  0  0  0  0
    2.6812    0.0367   -0.5405 O   0  0  0  0  0  0  0  0  0  0  0  0
    3.5203   -0.9980   -0.0426 C   0  0  0  0  0  0  0  0  0  0  0  0
    0.7110   -1.1924    0.2004 C   0  0  0  0  0  0  0  0  0  0  0  0
   -0.6611   -1.2203    0.2853 C   0  0  0  0  0  0  0  0  0  0  0  0
   -4.2640    4.4752   -1.0172 H   0  0  0  0  0  0  0  0  0  0  0  0
    1.1535    1.8048   -1.3792 H   0  0  0  0  0  0  0  0  0  0  0  0
    4.5417   -0.6853   -0.2643 H   0  0  0  0  0  0  0  0  0  0  0  0
    3.3225   -1.9550   -0.5405 H   0  0  0  0  0  0  0  0  0  0  0  0
    3.4093   -1.1229    1.0415 H   0  0  0  0  0  0  0  0  0  0  0  0
    1.2939   -2.0138    0.5972 H   0  0  0  0  0  0  0  0  0  0  0  0
   -1.1842   -2.0562    0.7445 H   0  0  0  0  0  0  0  0  0  0  0  0
   -5.7338    4.0345    0.4746 S   0  0  0  0  0  0  0  0  0  0  0  0
   -5.0743    4.9205   -0.7144 O   0  0  0  0  0  0  0  0  0  0  0  0
   -7.0938    4.5106    0.6043 O   0  0  0  0  0  0  0  0  0  0  0  0
   -5.3693    2.6473    0.2860 O   0  0  0  0  0  0  0  0  0  0  0  0
   -4.8848    4.5358    1.7681 O   0  0  0  0  0  0  0  0  0  0  0  0
   -5.2915    5.3582    2.0906 H   0  0  0  0  0  0  0  0  0  0  0  0
  1  2  1  0  0  0  0
  1 10  2  0  0  0  0
  2  3  1  0  0  0  0
  4  1  1  0  0  0  0
  5  4  2  0  0  0  0
  5  6  1  0  0  0  0
  6  9  2  0  0  0  0
  7  6  1  0  0  0  0
  7  8  1  0  0  0  0
  8 15  1  0  0  0  0
  9 10  1  0  0  0  0
  9 16  1  0  0  0  0
 10 17  1  0  0  0  0
 11 19  1  0  0  0  0
 12  5  1  0  0  0  0
 13  8  1  0  0  0  0
 14  8  1  0  0  0  0
 18 20  2  0  0  0  0
 18 22  1  0  0  0  0
 19 18  1  0  0  0  0
 21 18  2  0  0  0  0
 22 23  1  0  0  0  0
M  RAD  3   2   2   3   3   4   2
M  END
