Coordinates from ORCA-job 4-MeOPhN2+~HSO4-_B3LYPG-6-31G_dp-CH-Scan-d09-49-n800
 OpenBabel11261919063D

 23 22  0  0  0  0  0  0  0  0999 V2000
   -1.8294   -0.0891   -0.0757 C   0  0  0  0  0  0  0  0  0  0  0  0
   -3.1815   -0.3228    0.0090 N   0  0  0  0  0  0  0  0  0  0  0  0
   -4.2881   -0.4855    0.0694 N   0  0  0  0  0  0  0  0  0  0  0  0
   -1.4552    1.2370   -0.4072 C   0  0  0  0  0  0  0  0  0  0  0  0
   -0.0604    1.3629   -0.4741 C   0  0  0  0  0  0  0  0  0  0  0  0
    0.8354    0.3054   -0.2418 C   0  0  0  0  0  0  0  0  0  0  0  0
    2.1491    0.6025   -0.3510 O   0  0  0  0  0  0  0  0  0  0  0  0
    3.1248   -0.4135   -0.1405 C   0  0  0  0  0  0  0  0  0  0  0  0
    0.3654   -0.9963    0.0878 C   0  0  0  0  0  0  0  0  0  0  0  0
   -0.9908   -1.2073    0.1737 C   0  0  0  0  0  0  0  0  0  0  0  0
   -3.0165    3.0693   -0.7524 H   0  0  0  0  0  0  0  0  0  0  0  0
    0.3953    2.3211   -0.7203 H   0  0  0  0  0  0  0  0  0  0  0  0
    4.0913    0.0678   -0.2930 H   0  0  0  0  0  0  0  0  0  0  0  0
    3.0124   -1.2338   -0.8592 H   0  0  0  0  0  0  0  0  0  0  0  0
    3.0774   -0.8115    0.8799 H   0  0  0  0  0  0  0  0  0  0  0  0
    1.0506   -1.8141    0.2703 H   0  0  0  0  0  0  0  0  0  0  0  0
   -1.3946   -2.1847    0.4238 H   0  0  0  0  0  0  0  0  0  0  0  0
   -4.8231    3.6125    0.2699 S   0  0  0  0  0  0  0  0  0  0  0  0
   -3.6768    3.8043   -0.8283 O   0  0  0  0  0  0  0  0  0  0  0  0
   -5.8534    4.5811   -0.0473 O   0  0  0  0  0  0  0  0  0  0  0  0
   -5.0995    2.2025    0.4697 O   0  0  0  0  0  0  0  0  0  0  0  0
   -4.0782    4.0901    1.6418 O   0  0  0  0  0  0  0  0  0  0  0  0
   -4.0968    5.0618    1.6592 H   0  0  0  0  0  0  0  0  0  0  0  0
  1  2  1  0  0  0  0
  1 10  2  0  0  0  0
  2  3  1  0  0  0  0
  4  1  1  0  0  0  0
  5  4  2  0  0  0  0
  5  6  1  0  0  0  0
  6  9  2  0  0  0  0
  7  6  1  0  0  0  0
  7  8  1  0  0  0  0
  8 15  1  0  0  0  0
  9 10  1  0  0  0  0
  9 16  1  0  0  0  0
 10 17  1  0  0  0  0
 12  5  1  0  0  0  0
 13  8  1  0  0  0  0
 14  8  1  0  0  0  0
 18 21  2  0  0  0  0
 18 22  1  0  0  0  0
 19 11  1  0  0  0  0
 19 18  1  0  0  0  0
 20 18  2  0  0  0  0
 22 23  1  0  0  0  0
M  RAD  3   2   2   3   3   4   2
M  END
