Coordinates from ORCA-job 4-MeOPhN2+~HSO4-_B3LYPG-6-31G_dp-CH-Scan-d09-49-n800
 OpenBabel11261919063D

 23 22  0  0  0  0  0  0  0  0999 V2000
   -1.5420   -0.1230   -0.1362 C   0  0  0  0  0  0  0  0  0  0  0  0
   -2.9125   -0.2441   -0.0432 N   0  0  0  0  0  0  0  0  0  0  0  0
   -4.0316   -0.2966    0.0108 N   0  0  0  0  0  0  0  0  0  0  0  0
   -1.1058    1.1366   -0.6125 C   0  0  0  0  0  0  0  0  0  0  0  0
    0.3006    1.1596   -0.6788 C   0  0  0  0  0  0  0  0  0  0  0  0
    1.1278    0.0841   -0.3200 C   0  0  0  0  0  0  0  0  0  0  0  0
    2.4626    0.2841   -0.4471 O   0  0  0  0  0  0  0  0  0  0  0  0
    3.3684   -0.7585   -0.1066 C   0  0  0  0  0  0  0  0  0  0  0  0
    0.5806   -1.1445    0.1507 C   0  0  0  0  0  0  0  0  0  0  0  0
   -0.7857   -1.2626    0.2484 C   0  0  0  0  0  0  0  0  0  0  0  0
   -3.7693    4.0468   -1.0466 H   0  0  0  0  0  0  0  0  0  0  0  0
    0.8209    2.0531   -1.0265 H   0  0  0  0  0  0  0  0  0  0  0  0
    4.3660   -0.3592   -0.2948 H   0  0  0  0  0  0  0  0  0  0  0  0
    3.2144   -1.6477   -0.7295 H   0  0  0  0  0  0  0  0  0  0  0  0
    3.2863   -1.0365    0.9512 H   0  0  0  0  0  0  0  0  0  0  0  0
    1.2164   -1.9751    0.4293 H   0  0  0  0  0  0  0  0  0  0  0  0
   -1.2510   -2.1797    0.6020 H   0  0  0  0  0  0  0  0  0  0  0  0
   -5.3686    3.8777    0.3687 S   0  0  0  0  0  0  0  0  0  0  0  0
   -4.5491    4.5891   -0.8344 O   0  0  0  0  0  0  0  0  0  0  0  0
   -6.6539    4.5413    0.4036 O   0  0  0  0  0  0  0  0  0  0  0  0
   -5.1983    2.4435    0.2831 O   0  0  0  0  0  0  0  0  0  0  0  0
   -4.5118    4.3393    1.6723 O   0  0  0  0  0  0  0  0  0  0  0  0
   -4.8070    5.2321    1.9199 H   0  0  0  0  0  0  0  0  0  0  0  0
  1  2  1  0  0  0  0
  1 10  2  0  0  0  0
  2  3  1  0  0  0  0
  4  1  1  0  0  0  0
  5  4  2  0  0  0  0
  5  6  1  0  0  0  0
  6  9  2  0  0  0  0
  7  6  1  0  0  0  0
  7  8  1  0  0  0  0
  8 15  1  0  0  0  0
  9 10  1  0  0  0  0
  9 16  1  0  0  0  0
 10 17  1  0  0  0  0
 11 19  1  0  0  0  0
 12  5  1  0  0  0  0
 13  8  1  0  0  0  0
 14  8  1  0  0  0  0
 18 20  2  0  0  0  0
 18 22  1  0  0  0  0
 19 18  1  0  0  0  0
 21 18  2  0  0  0  0
 22 23  1  0  0  0  0
M  RAD  3   2   2   3   3   4   2
M  END
