Coordinates from ORCA-job 4-MeOPhN2+~HSO4-_B3LYPG-6-31G_dp-CH-Scan-d09-49-n800
 OpenBabel11261919063D

 23 22  0  0  0  0  0  0  0  0999 V2000
   -1.7965   -0.0990   -0.0886 C   0  0  0  0  0  0  0  0  0  0  0  0
   -3.1511   -0.3214   -0.0041 N   0  0  0  0  0  0  0  0  0  0  0  0
   -4.2599   -0.4716    0.0531 N   0  0  0  0  0  0  0  0  0  0  0  0
   -1.4179    1.2202   -0.4414 C   0  0  0  0  0  0  0  0  0  0  0  0
   -0.0213    1.3367   -0.5061 C   0  0  0  0  0  0  0  0  0  0  0  0
    0.8682    0.2790   -0.2529 C   0  0  0  0  0  0  0  0  0  0  0  0
    2.1846    0.5675   -0.3624 O   0  0  0  0  0  0  0  0  0  0  0  0
    3.1539   -0.4495   -0.1298 C   0  0  0  0  0  0  0  0  0  0  0  0
    0.3914   -1.0153    0.0971 C   0  0  0  0  0  0  0  0  0  0  0  0
   -0.9660   -1.2184    0.1826 C   0  0  0  0  0  0  0  0  0  0  0  0
   -3.1097    3.1894   -0.8097 H   0  0  0  0  0  0  0  0  0  0  0  0
    0.4412    2.2880   -0.7668 H   0  0  0  0  0  0  0  0  0  0  0  0
    4.1237    0.0239   -0.2864 H   0  0  0  0  0  0  0  0  0  0  0  0
    3.0407   -1.2820   -0.8343 H   0  0  0  0  0  0  0  0  0  0  0  0
    3.1001   -0.8295    0.8972 H   0  0  0  0  0  0  0  0  0  0  0  0
    1.0725   -1.8329    0.2954 H   0  0  0  0  0  0  0  0  0  0  0  0
   -1.3755   -2.1896    0.4477 H   0  0  0  0  0  0  0  0  0  0  0  0
   -4.8911    3.6479    0.2901 S   0  0  0  0  0  0  0  0  0  0  0  0
   -3.7858    3.9047   -0.8435 O   0  0  0  0  0  0  0  0  0  0  0  0
   -5.9552    4.5962    0.0308 O   0  0  0  0  0  0  0  0  0  0  0  0
   -5.1181    2.2258    0.4555 O   0  0  0  0  0  0  0  0  0  0  0  0
   -4.1113    4.1099    1.6461 O   0  0  0  0  0  0  0  0  0  0  0  0
   -4.1593    5.0797    1.6945 H   0  0  0  0  0  0  0  0  0  0  0  0
  1  2  1  0  0  0  0
  1 10  2  0  0  0  0
  2  3  1  0  0  0  0
  4  1  1  0  0  0  0
  5  4  2  0  0  0  0
  5  6  1  0  0  0  0
  6  9  2  0  0  0  0
  7  6  1  0  0  0  0
  7  8  1  0  0  0  0
  8 15  1  0  0  0  0
  9 10  1  0  0  0  0
  9 16  1  0  0  0  0
 10 17  1  0  0  0  0
 12  5  1  0  0  0  0
 13  8  1  0  0  0  0
 14  8  1  0  0  0  0
 18 21  2  0  0  0  0
 18 22  1  0  0  0  0
 19 11  1  0  0  0  0
 19 18  1  0  0  0  0
 20 18  2  0  0  0  0
 22 23  1  0  0  0  0
M  RAD  3   2   2   3   3   4   2
M  END
