Coordinates from ORCA-job 4-MeOPhN2+~HSO4-_B3LYPG-6-31G_dp-CH-Scan-d09-49-n800
 OpenBabel11261919063D

 23 22  0  0  0  0  0  0  0  0999 V2000
   -1.7748   -0.1037   -0.0924 C   0  0  0  0  0  0  0  0  0  0  0  0
   -3.1311   -0.3182   -0.0070 N   0  0  0  0  0  0  0  0  0  0  0  0
   -4.2410   -0.4610    0.0496 N   0  0  0  0  0  0  0  0  0  0  0  0
   -1.3927    1.2112   -0.4558 C   0  0  0  0  0  0  0  0  0  0  0  0
    0.0049    1.3212   -0.5207 C   0  0  0  0  0  0  0  0  0  0  0  0
    0.8901    0.2624   -0.2585 C   0  0  0  0  0  0  0  0  0  0  0  0
    2.2082    0.5446   -0.3693 O   0  0  0  0  0  0  0  0  0  0  0  0
    3.1729   -0.4743   -0.1274 C   0  0  0  0  0  0  0  0  0  0  0  0
    0.4084   -1.0276    0.1018 C   0  0  0  0  0  0  0  0  0  0  0  0
   -0.9498   -1.2249    0.1884 C   0  0  0  0  0  0  0  0  0  0  0  0
   -3.1651    3.2620   -0.8377 H   0  0  0  0  0  0  0  0  0  0  0  0
    0.4718    2.2685   -0.7888 H   0  0  0  0  0  0  0  0  0  0  0  0
    4.1449   -0.0062   -0.2868 H   0  0  0  0  0  0  0  0  0  0  0  0
    3.0572   -1.3121   -0.8251 H   0  0  0  0  0  0  0  0  0  0  0  0
    3.1167   -0.8458    0.9026 H   0  0  0  0  0  0  0  0  0  0  0  0
    1.0865   -1.8460    0.3068 H   0  0  0  0  0  0  0  0  0  0  0  0
   -1.3632   -2.1925    0.4611 H   0  0  0  0  0  0  0  0  0  0  0  0
   -4.9345    3.6707    0.2980 S   0  0  0  0  0  0  0  0  0  0  0  0
   -3.8493    3.9665   -0.8486 O   0  0  0  0  0  0  0  0  0  0  0  0
   -6.0175    4.6044    0.0673 O   0  0  0  0  0  0  0  0  0  0  0  0
   -5.1320    2.2421    0.4418 O   0  0  0  0  0  0  0  0  0  0  0  0
   -4.1425    4.1255    1.6486 O   0  0  0  0  0  0  0  0  0  0  0  0
   -4.2103    5.0929    1.7159 H   0  0  0  0  0  0  0  0  0  0  0  0
  1  2  1  0  0  0  0
  1 10  2  0  0  0  0
  2  3  1  0  0  0  0
  4  1  1  0  0  0  0
  5  4  2  0  0  0  0
  5  6  1  0  0  0  0
  6  9  2  0  0  0  0
  7  6  1  0  0  0  0
  7  8  1  0  0  0  0
  8 15  1  0  0  0  0
  9 10  1  0  0  0  0
  9 16  1  0  0  0  0
 10 17  1  0  0  0  0
 12  5  1  0  0  0  0
 13  8  1  0  0  0  0
 14  8  1  0  0  0  0
 18 21  2  0  0  0  0
 18 22  1  0  0  0  0
 19 11  1  0  0  0  0
 19 18  1  0  0  0  0
 20 18  2  0  0  0  0
 22 23  1  0  0  0  0
M  RAD  3   2   2   3   3   4   2
M  END
