Coordinates from ORCA-job 4-MeOPhN2+~HSO4-_B3LYPG-6-31G_dp-CH-Scan-d09-49-n800
 OpenBabel11261919063D

 23 22  0  0  0  0  0  0  0  0999 V2000
   -1.6210   -0.1190   -0.0950 C   0  0  0  0  0  0  0  0  0  0  0  0
   -2.9867   -0.2745    0.0037 N   0  0  0  0  0  0  0  0  0  0  0  0
   -4.1030   -0.3592    0.0678 N   0  0  0  0  0  0  0  0  0  0  0  0
   -1.2085    1.1683   -0.5163 C   0  0  0  0  0  0  0  0  0  0  0  0
    0.1953    1.2230   -0.5917 C   0  0  0  0  0  0  0  0  0  0  0  0
    1.0456    0.1477   -0.2892 C   0  0  0  0  0  0  0  0  0  0  0  0
    2.3743    0.3790   -0.4181 O   0  0  0  0  0  0  0  0  0  0  0  0
    3.3032   -0.6613   -0.1360 C   0  0  0  0  0  0  0  0  0  0  0  0
    0.5250   -1.1106    0.1287 C   0  0  0  0  0  0  0  0  0  0  0  0
   -0.8381   -1.2588    0.2310 C   0  0  0  0  0  0  0  0  0  0  0  0
   -3.5234    3.7645   -0.9729 H   0  0  0  0  0  0  0  0  0  0  0  0
    0.6951    2.1413   -0.9019 H   0  0  0  0  0  0  0  0  0  0  0  0
    4.2908   -0.2351   -0.3171 H   0  0  0  0  0  0  0  0  0  0  0  0
    3.1569   -1.5237   -0.7971 H   0  0  0  0  0  0  0  0  0  0  0  0
    3.2389   -0.9881    0.9089 H   0  0  0  0  0  0  0  0  0  0  0  0
    1.1780   -1.9412    0.3645 H   0  0  0  0  0  0  0  0  0  0  0  0
   -1.2830   -2.1995    0.5464 H   0  0  0  0  0  0  0  0  0  0  0  0
   -5.2268    3.8151    0.3239 S   0  0  0  0  0  0  0  0  0  0  0  0
   -4.2671    4.3812   -0.8477 O   0  0  0  0  0  0  0  0  0  0  0  0
   -6.4404    4.5996    0.2419 O   0  0  0  0  0  0  0  0  0  0  0  0
   -5.1987    2.3680    0.3179 O   0  0  0  0  0  0  0  0  0  0  0  0
   -4.4158    4.2567    1.6641 O   0  0  0  0  0  0  0  0  0  0  0  0
   -4.6331    5.1865    1.8480 H   0  0  0  0  0  0  0  0  0  0  0  0
  1  2  1  0  0  0  0
  1 10  2  0  0  0  0
  2  3  1  0  0  0  0
  4  1  1  0  0  0  0
  5  4  2  0  0  0  0
  5  6  1  0  0  0  0
  6  9  2  0  0  0  0
  7  6  1  0  0  0  0
  7  8  1  0  0  0  0
  8 15  1  0  0  0  0
  9 10  1  0  0  0  0
  9 16  1  0  0  0  0
 10 17  1  0  0  0  0
 11 19  1  0  0  0  0
 12  5  1  0  0  0  0
 13  8  1  0  0  0  0
 14  8  1  0  0  0  0
 18 22  1  0  0  0  0
 19 18  1  0  0  0  0
 20 18  2  0  0  0  0
 21 18  2  0  0  0  0
 22 23  1  0  0  0  0
M  RAD  3   2   2   3   3   4   2
M  END
