Coordinates from ORCA-job 4-MeOPhN2+~HSO4-_B3LYPG-6-31G_dp-CH-Scan-d09-49-n800
 OpenBabel11261919063D

 23 22  0  0  0  0  0  0  0  0999 V2000
   -1.8732   -0.0774   -0.0518 C   0  0  0  0  0  0  0  0  0  0  0  0
   -3.2214   -0.3269    0.0384 N   0  0  0  0  0  0  0  0  0  0  0  0
   -4.3251   -0.5040    0.1043 N   0  0  0  0  0  0  0  0  0  0  0  0
   -1.5057    1.2571   -0.3586 C   0  0  0  0  0  0  0  0  0  0  0  0
   -0.1138    1.3950   -0.4330 C   0  0  0  0  0  0  0  0  0  0  0  0
    0.7912    0.3388   -0.2291 C   0  0  0  0  0  0  0  0  0  0  0  0
    2.1007    0.6478   -0.3426 O   0  0  0  0  0  0  0  0  0  0  0  0
    3.0859   -0.3654   -0.1625 C   0  0  0  0  0  0  0  0  0  0  0  0
    0.3314   -0.9714    0.0769 C   0  0  0  0  0  0  0  0  0  0  0  0
   -1.0230   -1.1923    0.1682 C   0  0  0  0  0  0  0  0  0  0  0  0
   -2.8790    2.9055   -0.6604 H   0  0  0  0  0  0  0  0  0  0  0  0
    0.3317    2.3614   -0.6633 H   0  0  0  0  0  0  0  0  0  0  0  0
    4.0472    0.1267   -0.3126 H   0  0  0  0  0  0  0  0  0  0  0  0
    2.9730   -1.1704   -0.8982 H   0  0  0  0  0  0  0  0  0  0  0  0
    3.0498   -0.7854    0.8495 H   0  0  0  0  0  0  0  0  0  0  0  0
    1.0224   -1.7889    0.2377 H   0  0  0  0  0  0  0  0  0  0  0  0
   -1.4185   -2.1772    0.4012 H   0  0  0  0  0  0  0  0  0  0  0  0
   -4.7253    3.5700    0.2310 S   0  0  0  0  0  0  0  0  0  0  0  0
   -3.5069    3.6805   -0.7849 O   0  0  0  0  0  0  0  0  0  0  0  0
   -5.6991    4.5651   -0.1746 O   0  0  0  0  0  0  0  0  0  0  0  0
   -5.0756    2.1784    0.4552 O   0  0  0  0  0  0  0  0  0  0  0  0
   -4.0607    4.0605    1.6419 O   0  0  0  0  0  0  0  0  0  0  0  0
   -4.0484    5.0322    1.6311 H   0  0  0  0  0  0  0  0  0  0  0  0
  1  2  1  0  0  0  0
  1 10  2  0  0  0  0
  2  3  1  0  0  0  0
  4  1  1  0  0  0  0
  5  4  2  0  0  0  0
  5  6  1  0  0  0  0
  6  9  2  0  0  0  0
  7  6  1  0  0  0  0
  7  8  1  0  0  0  0
  8 15  1  0  0  0  0
  9 10  1  0  0  0  0
  9 16  1  0  0  0  0
 10 17  1  0  0  0  0
 12  5  1  0  0  0  0
 13  8  1  0  0  0  0
 14  8  1  0  0  0  0
 18 21  2  0  0  0  0
 18 22  1  0  0  0  0
 19 11  1  0  0  0  0
 19 18  1  0  0  0  0
 20 18  2  0  0  0  0
 23 22  1  0  0  0  0
M  RAD  3   2   2   3   3   4   2
M  END
