Coordinates from ORCA-job 4-MeOPhN2+~HSO4-_B3LYPG-6-31G_dp-CH-Scan-d09-49-n800
 OpenBabel11261919063D

 23 22  0  0  0  0  0  0  0  0999 V2000
   -1.5383   -0.1224   -0.1385 C   0  0  0  0  0  0  0  0  0  0  0  0
   -2.9090   -0.2420   -0.0462 N   0  0  0  0  0  0  0  0  0  0  0  0
   -4.0280   -0.2937    0.0108 N   0  0  0  0  0  0  0  0  0  0  0  0
   -1.1005    1.1364   -0.6153 C   0  0  0  0  0  0  0  0  0  0  0  0
    0.3061    1.1578   -0.6807 C   0  0  0  0  0  0  0  0  0  0  0  0
    1.1318    0.0816   -0.3207 C   0  0  0  0  0  0  0  0  0  0  0  0
    2.4670    0.2800   -0.4469 O   0  0  0  0  0  0  0  0  0  0  0  0
    3.3714   -0.7633   -0.1050 C   0  0  0  0  0  0  0  0  0  0  0  0
    0.5830   -1.1461    0.1505 C   0  0  0  0  0  0  0  0  0  0  0  0
   -0.7836   -1.2626    0.2473 C   0  0  0  0  0  0  0  0  0  0  0  0
   -3.7835    4.0557   -1.0517 H   0  0  0  0  0  0  0  0  0  0  0  0
    0.8276    2.0505   -1.0286 H   0  0  0  0  0  0  0  0  0  0  0  0
    4.3696   -0.3651   -0.2925 H   0  0  0  0  0  0  0  0  0  0  0  0
    3.2170   -1.6527   -0.7275 H   0  0  0  0  0  0  0  0  0  0  0  0
    3.2880   -1.0405    0.9530 H   0  0  0  0  0  0  0  0  0  0  0  0
    1.2176   -1.9773    0.4300 H   0  0  0  0  0  0  0  0  0  0  0  0
   -1.2502   -2.1790    0.6011 H   0  0  0  0  0  0  0  0  0  0  0  0
   -5.3752    3.8801    0.3714 S   0  0  0  0  0  0  0  0  0  0  0  0
   -4.5640    4.5952   -0.8352 O   0  0  0  0  0  0  0  0  0  0  0  0
   -6.6632    4.5383    0.4120 O   0  0  0  0  0  0  0  0  0  0  0  0
   -5.1992    2.4466    0.2851 O   0  0  0  0  0  0  0  0  0  0  0  0
   -4.5146    4.3453    1.6712 O   0  0  0  0  0  0  0  0  0  0  0  0
   -4.8125    5.2369    1.9203 H   0  0  0  0  0  0  0  0  0  0  0  0
  1  2  1  0  0  0  0
  1 10  2  0  0  0  0
  2  3  1  0  0  0  0
  4  1  1  0  0  0  0
  5  4  2  0  0  0  0
  5  6  1  0  0  0  0
  6  9  2  0  0  0  0
  7  6  1  0  0  0  0
  7  8  1  0  0  0  0
  8 15  1  0  0  0  0
  9 10  1  0  0  0  0
  9 16  1  0  0  0  0
 10 17  1  0  0  0  0
 11 19  1  0  0  0  0
 12  5  1  0  0  0  0
 13  8  1  0  0  0  0
 14  8  1  0  0  0  0
 18 20  2  0  0  0  0
 18 22  1  0  0  0  0
 19 18  1  0  0  0  0
 21 18  2  0  0  0  0
 22 23  1  0  0  0  0
M  RAD  3   2   2   3   3   4   2
M  END
