Coordinates from ORCA-job 4-MeOPhN2+~HSO4-_B3LYPG-6-31G_dp-CH-Scan-d09-49-n800
 OpenBabel11261919063D

 23 22  0  0  0  0  0  0  0  0999 V2000
   -1.7132   -0.1119   -0.0980 C   0  0  0  0  0  0  0  0  0  0  0  0
   -3.0737   -0.3037   -0.0088 N   0  0  0  0  0  0  0  0  0  0  0  0
   -4.1866   -0.4242    0.0497 N   0  0  0  0  0  0  0  0  0  0  0  0
   -1.3200    1.1915   -0.4886 C   0  0  0  0  0  0  0  0  0  0  0  0
    0.0806    1.2802   -0.5556 C   0  0  0  0  0  0  0  0  0  0  0  0
    0.9523    0.2162   -0.2721 C   0  0  0  0  0  0  0  0  0  0  0  0
    2.2750    0.4788   -0.3888 O   0  0  0  0  0  0  0  0  0  0  0  0
    3.2256   -0.5474   -0.1256 C   0  0  0  0  0  0  0  0  0  0  0  0
    0.4554   -1.0608    0.1148 C   0  0  0  0  0  0  0  0  0  0  0  0
   -0.9049   -1.2396    0.2061 C   0  0  0  0  0  0  0  0  0  0  0  0
   -3.3164    3.4690   -0.9092 H   0  0  0  0  0  0  0  0  0  0  0  0
    0.5608    2.2157   -0.8429 H   0  0  0  0  0  0  0  0  0  0  0  0
    4.2041   -0.0960   -0.2938 H   0  0  0  0  0  0  0  0  0  0  0  0
    3.0995   -1.3980   -0.8059 H   0  0  0  0  0  0  0  0  0  0  0  0
    3.1644   -0.8976    0.9118 H   0  0  0  0  0  0  0  0  0  0  0  0
    1.1239   -1.8830    0.3360 H   0  0  0  0  0  0  0  0  0  0  0  0
   -1.3308   -2.1961    0.4984 H   0  0  0  0  0  0  0  0  0  0  0  0
   -5.0543    3.7301    0.3139 S   0  0  0  0  0  0  0  0  0  0  0  0
   -4.0251    4.1399   -0.8565 O   0  0  0  0  0  0  0  0  0  0  0  0
   -6.1914    4.6129    0.1589 O   0  0  0  0  0  0  0  0  0  0  0  0
   -5.1644    2.2881    0.3925 O   0  0  0  0  0  0  0  0  0  0  0  0
   -4.2389    4.1694    1.6537 O   0  0  0  0  0  0  0  0  0  0  0  0
   -4.3643    5.1261    1.7740 H   0  0  0  0  0  0  0  0  0  0  0  0
  1  2  1  0  0  0  0
  1 10  2  0  0  0  0
  2  3  1  0  0  0  0
  4  1  1  0  0  0  0
  5  4  2  0  0  0  0
  5  6  1  0  0  0  0
  6  9  2  0  0  0  0
  7  6  1  0  0  0  0
  7  8  1  0  0  0  0
  8 15  1  0  0  0  0
  9 10  1  0  0  0  0
  9 16  1  0  0  0  0
 10 17  1  0  0  0  0
 11 19  1  0  0  0  0
 12  5  1  0  0  0  0
 13  8  1  0  0  0  0
 14  8  1  0  0  0  0
 18 21  2  0  0  0  0
 18 22  1  0  0  0  0
 19 18  1  0  0  0  0
 20 18  2  0  0  0  0
 22 23  1  0  0  0  0
M  RAD  3   2   2   3   3   4   2
M  END
