Coordinates from ORCA-job 4-MeOPhN2+~HSO4-_B3LYPG-6-31G_dp-CH-Scan-d09-49-n800
 OpenBabel11261919063D

 23 22  0  0  0  0  0  0  0  0999 V2000
   -1.7691   -0.1049   -0.0932 C   0  0  0  0  0  0  0  0  0  0  0  0
   -3.1258   -0.3173   -0.0075 N   0  0  0  0  0  0  0  0  0  0  0  0
   -4.2360   -0.4580    0.0492 N   0  0  0  0  0  0  0  0  0  0  0  0
   -1.3861    1.2090   -0.4592 C   0  0  0  0  0  0  0  0  0  0  0  0
    0.0119    1.3172   -0.5242 C   0  0  0  0  0  0  0  0  0  0  0  0
    0.8959    0.2580   -0.2598 C   0  0  0  0  0  0  0  0  0  0  0  0
    2.2144    0.5386   -0.3711 O   0  0  0  0  0  0  0  0  0  0  0  0
    3.1779   -0.4809   -0.1270 C   0  0  0  0  0  0  0  0  0  0  0  0
    0.4128   -1.0308    0.1030 C   0  0  0  0  0  0  0  0  0  0  0  0
   -0.9455   -1.2266    0.1899 C   0  0  0  0  0  0  0  0  0  0  0  0
   -3.1795    3.2810   -0.8449 H   0  0  0  0  0  0  0  0  0  0  0  0
    0.4799    2.2635   -0.7941 H   0  0  0  0  0  0  0  0  0  0  0  0
    4.1504   -0.0142   -0.2871 H   0  0  0  0  0  0  0  0  0  0  0  0
    3.0614   -1.3200   -0.8230 H   0  0  0  0  0  0  0  0  0  0  0  0
    3.1211   -0.8504    0.9038 H   0  0  0  0  0  0  0  0  0  0  0  0
    1.0901   -1.8495    0.3096 H   0  0  0  0  0  0  0  0  0  0  0  0
   -1.3600   -2.1932    0.4645 H   0  0  0  0  0  0  0  0  0  0  0  0
   -4.9459    3.6766    0.2999 S   0  0  0  0  0  0  0  0  0  0  0  0
   -3.8658    3.9827   -0.8497 O   0  0  0  0  0  0  0  0  0  0  0  0
   -6.0338    4.6063    0.0764 O   0  0  0  0  0  0  0  0  0  0  0  0
   -5.1357    2.2465    0.4380 O   0  0  0  0  0  0  0  0  0  0  0  0
   -4.1510    4.1296    1.6492 O   0  0  0  0  0  0  0  0  0  0  0  0
   -4.2240    5.0964    1.7213 H   0  0  0  0  0  0  0  0  0  0  0  0
  1  2  1  0  0  0  0
  1 10  2  0  0  0  0
  2  3  1  0  0  0  0
  4  1  1  0  0  0  0
  5  4  2  0  0  0  0
  5  6  1  0  0  0  0
  6  9  2  0  0  0  0
  7  6  1  0  0  0  0
  7  8  1  0  0  0  0
  8 15  1  0  0  0  0
  9 10  1  0  0  0  0
  9 16  1  0  0  0  0
 10 17  1  0  0  0  0
 12  5  1  0  0  0  0
 13  8  1  0  0  0  0
 14  8  1  0  0  0  0
 18 21  2  0  0  0  0
 18 22  1  0  0  0  0
 19 11  1  0  0  0  0
 19 18  1  0  0  0  0
 20 18  2  0  0  0  0
 22 23  1  0  0  0  0
M  RAD  3   2   2   3   3   4   2
M  END
