Coordinates from ORCA-job 4-MeOPhN2+~HSO4-_B3LYPG-6-31G_dp-CH-Scan-d09-49-n800
 OpenBabel11261919063D

 23 22  0  0  0  0  0  0  0  0999 V2000
   -1.4768   -0.1232   -0.1672 C   0  0  0  0  0  0  0  0  0  0  0  0
   -2.8501   -0.2156   -0.0766 N   0  0  0  0  0  0  0  0  0  0  0  0
   -3.9704   -0.2427   -0.0231 N   0  0  0  0  0  0  0  0  0  0  0  0
   -1.0195    1.1125   -0.6835 C   0  0  0  0  0  0  0  0  0  0  0  0
    0.3877    1.1102   -0.7450 C   0  0  0  0  0  0  0  0  0  0  0  0
    1.1956    0.0342   -0.3465 C   0  0  0  0  0  0  0  0  0  0  0  0
    2.5343    0.2082   -0.4736 O   0  0  0  0  0  0  0  0  0  0  0  0
    3.4217   -0.8361   -0.0924 C   0  0  0  0  0  0  0  0  0  0  0  0
    0.6267   -1.1692    0.1626 C   0  0  0  0  0  0  0  0  0  0  0  0
   -0.7418   -1.2620    0.2586 C   0  0  0  0  0  0  0  0  0  0  0  0
   -3.9334    4.1975   -1.0489 H   0  0  0  0  0  0  0  0  0  0  0  0
    0.9239    1.9831   -1.1201 H   0  0  0  0  0  0  0  0  0  0  0  0
    4.4265   -0.4583   -0.2869 H   0  0  0  0  0  0  0  0  0  0  0  0
    3.2584   -1.7430   -0.6867 H   0  0  0  0  0  0  0  0  0  0  0  0
    3.3285   -1.0776    0.9734 H   0  0  0  0  0  0  0  0  0  0  0  0
    1.2478   -2.0002    0.4713 H   0  0  0  0  0  0  0  0  0  0  0  0
   -1.2234   -2.1594    0.6400 H   0  0  0  0  0  0  0  0  0  0  0  0
   -5.4900    3.9366    0.3988 S   0  0  0  0  0  0  0  0  0  0  0  0
   -4.7241    4.7089   -0.8037 O   0  0  0  0  0  0  0  0  0  0  0  0
   -6.8057    4.5351    0.4651 O   0  0  0  0  0  0  0  0  0  0  0  0
   -5.2481    2.5150    0.2821 O   0  0  0  0  0  0  0  0  0  0  0  0
   -4.6366    4.4174    1.6973 O   0  0  0  0  0  0  0  0  0  0  0  0
   -4.9739    5.2882    1.9686 H   0  0  0  0  0  0  0  0  0  0  0  0
  1  2  1  0  0  0  0
  1 10  2  0  0  0  0
  2  3  1  0  0  0  0
  4  1  1  0  0  0  0
  5  4  2  0  0  0  0
  5  6  1  0  0  0  0
  6  9  2  0  0  0  0
  7  6  1  0  0  0  0
  7  8  1  0  0  0  0
  8 15  1  0  0  0  0
  9 10  1  0  0  0  0
  9 16  1  0  0  0  0
 10 17  1  0  0  0  0
 11 19  1  0  0  0  0
 12  5  1  0  0  0  0
 13  8  1  0  0  0  0
 14  8  1  0  0  0  0
 18 20  2  0  0  0  0
 18 22  1  0  0  0  0
 19 18  1  0  0  0  0
 21 18  2  0  0  0  0
 22 23  1  0  0  0  0
M  RAD  3   2   2   3   3   4   2
M  END
