Coordinates from ORCA-job 4-MeOPhN2+~HSO4-_B3LYPG-6-31G_dp-CH-Scan-d09-49-n800
 OpenBabel11261919063D

 23 22  0  0  0  0  0  0  0  0999 V2000
   -1.4947   -0.1241   -0.1595 C   0  0  0  0  0  0  0  0  0  0  0  0
   -2.8673   -0.2243   -0.0679 N   0  0  0  0  0  0  0  0  0  0  0  0
   -3.9875   -0.2581   -0.0188 N   0  0  0  0  0  0  0  0  0  0  0  0
   -1.0435    1.1171   -0.6682 C   0  0  0  0  0  0  0  0  0  0  0  0
    0.3636    1.1218   -0.7311 C   0  0  0  0  0  0  0  0  0  0  0  0
    1.1770    0.0470   -0.3407 C   0  0  0  0  0  0  0  0  0  0  0  0
    2.5147    0.2281   -0.4684 O   0  0  0  0  0  0  0  0  0  0  0  0
    3.4073   -0.8148   -0.0957 C   0  0  0  0  0  0  0  0  0  0  0  0
    0.6143   -1.1623    0.1611 C   0  0  0  0  0  0  0  0  0  0  0  0
   -0.7536   -1.2621    0.2579 C   0  0  0  0  0  0  0  0  0  0  0  0
   -3.8870    4.1631   -1.0468 H   0  0  0  0  0  0  0  0  0  0  0  0
    0.8953    1.9997   -1.1011 H   0  0  0  0  0  0  0  0  0  0  0  0
    4.4101   -0.4313   -0.2893 H   0  0  0  0  0  0  0  0  0  0  0  0
    3.2469   -1.7185   -0.6956 H   0  0  0  0  0  0  0  0  0  0  0  0
    3.3171   -1.0637    0.9687 H   0  0  0  0  0  0  0  0  0  0  0  0
    1.2396   -1.9924    0.4637 H   0  0  0  0  0  0  0  0  0  0  0  0
   -1.2306   -2.1642    0.6341 H   0  0  0  0  0  0  0  0  0  0  0  0
   -5.4562    3.9208    0.3908 S   0  0  0  0  0  0  0  0  0  0  0  0
   -4.6758    4.6813   -0.8095 O   0  0  0  0  0  0  0  0  0  0  0  0
   -6.7654    4.5340    0.4486 O   0  0  0  0  0  0  0  0  0  0  0  0
   -5.2300    2.4961    0.2796 O   0  0  0  0  0  0  0  0  0  0  0  0
   -4.6042    4.3954    1.6927 O   0  0  0  0  0  0  0  0  0  0  0  0
   -4.9326    5.2711    1.9592 H   0  0  0  0  0  0  0  0  0  0  0  0
  1  2  1  0  0  0  0
  1 10  2  0  0  0  0
  2  3  1  0  0  0  0
  4  1  1  0  0  0  0
  5  4  2  0  0  0  0
  5  6  1  0  0  0  0
  6  9  2  0  0  0  0
  7  6  1  0  0  0  0
  7  8  1  0  0  0  0
  8 15  1  0  0  0  0
  9 10  1  0  0  0  0
  9 16  1  0  0  0  0
 10 17  1  0  0  0  0
 11 19  1  0  0  0  0
 12  5  1  0  0  0  0
 13  8  1  0  0  0  0
 14  8  1  0  0  0  0
 18 20  2  0  0  0  0
 18 22  1  0  0  0  0
 19 18  1  0  0  0  0
 21 18  2  0  0  0  0
 22 23  1  0  0  0  0
M  RAD  3   2   2   3   3   4   2
M  END
