Coordinates from ORCA-job 4-MeOPhN2+~HSO4-_B3LYPG-6-31G_dp-CH-Scan-d09-49-n800
 OpenBabel11261919063D

 23 22  0  0  0  0  0  0  0  0999 V2000
   -1.3687   -0.1074   -0.2284 C   0  0  0  0  0  0  0  0  0  0  0  0
   -2.7454   -0.1459   -0.1446 N   0  0  0  0  0  0  0  0  0  0  0  0
   -3.8665   -0.1259   -0.1010 N   0  0  0  0  0  0  0  0  0  0  0  0
   -0.8704    1.0762   -0.8217 C   0  0  0  0  0  0  0  0  0  0  0  0
    0.5366    1.0256   -0.8721 C   0  0  0  0  0  0  0  0  0  0  0  0
    1.3071   -0.0462   -0.3962 C   0  0  0  0  0  0  0  0  0  0  0  0
    2.6516    0.0765   -0.5238 O   0  0  0  0  0  0  0  0  0  0  0  0
    3.5031   -0.9657   -0.0639 C   0  0  0  0  0  0  0  0  0  0  0  0
    0.6971   -1.1945    0.1875 C   0  0  0  0  0  0  0  0  0  0  0  0
   -0.6742   -1.2382    0.2786 C   0  0  0  0  0  0  0  0  0  0  0  0
   -4.1866    4.4074   -1.0230 H   0  0  0  0  0  0  0  0  0  0  0  0
    1.1025    1.8545   -1.3001 H   0  0  0  0  0  0  0  0  0  0  0  0
    4.5205   -0.6346   -0.2778 H   0  0  0  0  0  0  0  0  0  0  0  0
    3.3139   -1.9070   -0.5938 H   0  0  0  0  0  0  0  0  0  0  0  0
    3.3972   -1.1285    1.0156 H   0  0  0  0  0  0  0  0  0  0  0  0
    1.2899   -2.0221    0.5557 H   0  0  0  0  0  0  0  0  0  0  0  0
   -1.1866   -2.0930    0.7142 H   0  0  0  0  0  0  0  0  0  0  0  0
   -5.6899    4.0219    0.4511 S   0  0  0  0  0  0  0  0  0  0  0  0
   -4.9915    4.8748   -0.7396 O   0  0  0  0  0  0  0  0  0  0  0  0
   -7.0391    4.5339    0.5545 O   0  0  0  0  0  0  0  0  0  0  0  0
   -5.3585    2.6233    0.2866 O   0  0  0  0  0  0  0  0  0  0  0  0
   -4.8472    4.5189    1.7503 O   0  0  0  0  0  0  0  0  0  0  0  0
   -5.2374    5.3557    2.0558 H   0  0  0  0  0  0  0  0  0  0  0  0
  1  2  1  0  0  0  0
  1 10  2  0  0  0  0
  2  3  1  0  0  0  0
  4  1  1  0  0  0  0
  5  4  2  0  0  0  0
  5  6  1  0  0  0  0
  6  9  2  0  0  0  0
  7  6  1  0  0  0  0
  7  8  1  0  0  0  0
  8 15  1  0  0  0  0
  9 10  1  0  0  0  0
  9 16  1  0  0  0  0
 10 17  1  0  0  0  0
 11 19  1  0  0  0  0
 12  5  1  0  0  0  0
 13  8  1  0  0  0  0
 14  8  1  0  0  0  0
 18 20  2  0  0  0  0
 18 22  1  0  0  0  0
 19 18  1  0  0  0  0
 21 18  2  0  0  0  0
 22 23  1  0  0  0  0
M  RAD  3   2   2   3   3   4   2
M  END
