Coordinates from ORCA-job 4-MeOPhN2+~HSO4-_B3LYPG-6-31G_dp-CH-Scan-d09-49-n800
 OpenBabel11261919063D

 23 22  0  0  0  0  0  0  0  0999 V2000
   -1.9062   -0.0733   -0.0643 C   0  0  0  0  0  0  0  0  0  0  0  0
   -3.2523   -0.3352    0.0142 N   0  0  0  0  0  0  0  0  0  0  0  0
   -4.3542   -0.5237    0.0705 N   0  0  0  0  0  0  0  0  0  0  0  0
   -1.5412    1.2663   -0.3528 C   0  0  0  0  0  0  0  0  0  0  0  0
   -0.1511    1.4144   -0.4189 C   0  0  0  0  0  0  0  0  0  0  0  0
    0.7593    0.3609   -0.2233 C   0  0  0  0  0  0  0  0  0  0  0  0
    2.0665    0.6789   -0.3274 O   0  0  0  0  0  0  0  0  0  0  0  0
    3.0575   -0.3306   -0.1555 C   0  0  0  0  0  0  0  0  0  0  0  0
    0.3049   -0.9548    0.0649 C   0  0  0  0  0  0  0  0  0  0  0  0
   -1.0489   -1.1840    0.1464 C   0  0  0  0  0  0  0  0  0  0  0  0
   -2.8049    2.7825   -0.6169 H   0  0  0  0  0  0  0  0  0  0  0  0
    0.2878    2.3867   -0.6352 H   0  0  0  0  0  0  0  0  0  0  0  0
    4.0161    0.1692   -0.2964 H   0  0  0  0  0  0  0  0  0  0  0  0
    2.9517   -1.1273   -0.9012 H   0  0  0  0  0  0  0  0  0  0  0  0
    3.0200   -0.7623    0.8513 H   0  0  0  0  0  0  0  0  0  0  0  0
    0.9991   -1.7706    0.2199 H   0  0  0  0  0  0  0  0  0  0  0  0
   -1.4398   -2.1737    0.3657 H   0  0  0  0  0  0  0  0  0  0  0  0
   -4.6476    3.5295    0.2459 S   0  0  0  0  0  0  0  0  0  0  0  0
   -3.4291    3.5779   -0.7633 O   0  0  0  0  0  0  0  0  0  0  0  0
   -5.6281    4.4955   -0.2149 O   0  0  0  0  0  0  0  0  0  0  0  0
   -4.9996    2.1527    0.5538 O   0  0  0  0  0  0  0  0  0  0  0  0
   -3.9956    4.1058    1.6322 O   0  0  0  0  0  0  0  0  0  0  0  0
   -4.0069    5.0753    1.5693 H   0  0  0  0  0  0  0  0  0  0  0  0
  1  2  1  0  0  0  0
  1 10  2  0  0  0  0
  2  3  1  0  0  0  0
  4  1  1  0  0  0  0
  5  4  2  0  0  0  0
  5  6  1  0  0  0  0
  6  9  2  0  0  0  0
  7  6  1  0  0  0  0
  7  8  1  0  0  0  0
  8 15  1  0  0  0  0
  9 10  1  0  0  0  0
  9 16  1  0  0  0  0
 10 17  1  0  0  0  0
 12  5  1  0  0  0  0
 13  8  1  0  0  0  0
 14  8  1  0  0  0  0
 18 21  2  0  0  0  0
 18 22  1  0  0  0  0
 19 11  1  0  0  0  0
 19 18  1  0  0  0  0
 20 18  2  0  0  0  0
 23 22  1  0  0  0  0
M  RAD  3   2   2   3   3   4   2
M  END
