Coordinates from ORCA-job 4-MeOPhN2+~HSO4-_B3LYPG-6-31G_dp-CH-Scan-d09-49-n800
 OpenBabel11261919063D

 23 22  0  0  0  0  0  0  0  0999 V2000
   -1.9731    0.0086   -0.1131 C   0  0  0  0  0  0  0  0  0  0  0  0
   -3.3235   -0.2219   -0.0637 N   0  0  0  0  0  0  0  0  0  0  0  0
   -4.4275   -0.3873   -0.0259 N   0  0  0  0  0  0  0  0  0  0  0  0
   -1.5327    1.3324   -0.3465 C   0  0  0  0  0  0  0  0  0  0  0  0
   -0.1552    1.4814   -0.3969 C   0  0  0  0  0  0  0  0  0  0  0  0
    0.7277    0.3965   -0.2268 C   0  0  0  0  0  0  0  0  0  0  0  0
    2.0360    0.6898   -0.3024 O   0  0  0  0  0  0  0  0  0  0  0  0
    3.0078   -0.3441   -0.1429 C   0  0  0  0  0  0  0  0  0  0  0  0
    0.2315   -0.9113    0.0062 C   0  0  0  0  0  0  0  0  0  0  0  0
   -1.1306   -1.1133    0.0616 C   0  0  0  0  0  0  0  0  0  0  0  0
   -2.4162    2.4038   -0.4856 H   0  0  0  0  0  0  0  0  0  0  0  0
    0.2833    2.4597   -0.5700 H   0  0  0  0  0  0  0  0  0  0  0  0
    3.9758    0.1444   -0.2508 H   0  0  0  0  0  0  0  0  0  0  0  0
    2.8999   -1.1135   -0.9158 H   0  0  0  0  0  0  0  0  0  0  0  0
    2.9407   -0.8025    0.8500 H   0  0  0  0  0  0  0  0  0  0  0  0
    0.9012   -1.7507    0.1408 H   0  0  0  0  0  0  0  0  0  0  0  0
   -1.5433   -2.1012    0.2398 H   0  0  0  0  0  0  0  0  0  0  0  0
   -4.4199    3.3959    0.3302 S   0  0  0  0  0  0  0  0  0  0  0  0
   -3.2310    3.4406   -0.6247 O   0  0  0  0  0  0  0  0  0  0  0  0
   -5.6352    3.9489   -0.2683 O   0  0  0  0  0  0  0  0  0  0  0  0
   -4.4935    2.0874    1.0015 O   0  0  0  0  0  0  0  0  0  0  0  0
   -4.0046    4.4435    1.5408 O   0  0  0  0  0  0  0  0  0  0  0  0
   -4.4603    5.2725    1.3266 H   0  0  0  0  0  0  0  0  0  0  0  0
  1  2  1  0  0  0  0
  1 10  2  0  0  0  0
  2  3  1  0  0  0  0
  4  1  1  0  0  0  0
  5  4  2  0  0  0  0
  5  6  1  0  0  0  0
  6  9  2  0  0  0  0
  7  6  1  0  0  0  0
  7  8  1  0  0  0  0
  8 15  1  0  0  0  0
  9 10  1  0  0  0  0
  9 16  1  0  0  0  0
 10 17  1  0  0  0  0
 12  5  1  0  0  0  0
 13  8  1  0  0  0  0
 14  8  1  0  0  0  0
 18 21  2  0  0  0  0
 18 22  1  0  0  0  0
 19 11  1  0  0  0  0
 19 18  1  0  0  0  0
 20 18  2  0  0  0  0
 23 22  1  0  0  0  0
M  RAD  3   2   2   3   3   4   2
M  END
