Coordinates from ORCA-job 4-MeOPhN2+~HSO4-_B3LYPG-6-31G_dp-CH-Scan-d09-49-n800
 OpenBabel11261919063D

 23 22  0  0  0  0  0  0  0  0999 V2000
   -1.3427   -0.0988   -0.2587 C   0  0  0  0  0  0  0  0  0  0  0  0
   -2.7202   -0.1212   -0.1816 N   0  0  0  0  0  0  0  0  0  0  0  0
   -3.8414   -0.0877   -0.1501 N   0  0  0  0  0  0  0  0  0  0  0  0
   -0.8305    1.0624   -0.8833 C   0  0  0  0  0  0  0  0  0  0  0  0
    0.5764    0.9972   -0.9250 C   0  0  0  0  0  0  0  0  0  0  0  0
    1.3341   -0.0676   -0.4144 C   0  0  0  0  0  0  0  0  0  0  0  0
    2.6804    0.0383   -0.5392 O   0  0  0  0  0  0  0  0  0  0  0  0
    3.5196   -0.9975   -0.0438 C   0  0  0  0  0  0  0  0  0  0  0  0
    0.7104   -1.1927    0.1993 C   0  0  0  0  0  0  0  0  0  0  0  0
   -0.6617   -1.2209    0.2845 C   0  0  0  0  0  0  0  0  0  0  0  0
   -4.2629    4.4719   -1.0192 H   0  0  0  0  0  0  0  0  0  0  0  0
    1.1523    1.8080   -1.3738 H   0  0  0  0  0  0  0  0  0  0  0  0
    4.5410   -0.6840   -0.2648 H   0  0  0  0  0  0  0  0  0  0  0  0
    3.3220   -1.9533   -0.5438 H   0  0  0  0  0  0  0  0  0  0  0  0
    3.4088   -1.1248    1.0401 H   0  0  0  0  0  0  0  0  0  0  0  0
    1.2935   -2.0148    0.5943 H   0  0  0  0  0  0  0  0  0  0  0  0
   -1.1845   -2.0579    0.7419 H   0  0  0  0  0  0  0  0  0  0  0  0
   -5.7323    4.0336    0.4738 S   0  0  0  0  0  0  0  0  0  0  0  0
   -5.0730    4.9178   -0.7167 O   0  0  0  0  0  0  0  0  0  0  0  0
   -7.0920    4.5106    0.6034 O   0  0  0  0  0  0  0  0  0  0  0  0
   -5.3688    2.6459    0.2869 O   0  0  0  0  0  0  0  0  0  0  0  0
   -4.8825    4.5361    1.7662 O   0  0  0  0  0  0  0  0  0  0  0  0
   -5.2886    5.3591    2.0879 H   0  0  0  0  0  0  0  0  0  0  0  0
  1  2  1  0  0  0  0
  1 10  2  0  0  0  0
  2  3  1  0  0  0  0
  4  1  1  0  0  0  0
  5  4  2  0  0  0  0
  5  6  1  0  0  0  0
  6  9  2  0  0  0  0
  7  6  1  0  0  0  0
  7  8  1  0  0  0  0
  8 15  1  0  0  0  0
  9 10  1  0  0  0  0
  9 16  1  0  0  0  0
 10 17  1  0  0  0  0
 11 19  1  0  0  0  0
 12  5  1  0  0  0  0
 13  8  1  0  0  0  0
 14  8  1  0  0  0  0
 18 20  2  0  0  0  0
 18 22  1  0  0  0  0
 19 18  1  0  0  0  0
 21 18  2  0  0  0  0
 22 23  1  0  0  0  0
M  RAD  3   2   2   3   3   4   2
M  END
