Coordinates from ORCA-job 4-MeOPhN2+~HSO4-_B3LYPG-6-31G_dp-CH-Scan-d09-49-n800
 OpenBabel11261919063D

 23 22  0  0  0  0  0  0  0  0999 V2000
   -1.7279   -0.1109   -0.0975 C   0  0  0  0  0  0  0  0  0  0  0  0
   -3.0873   -0.3082   -0.0094 N   0  0  0  0  0  0  0  0  0  0  0  0
   -4.1996   -0.4333    0.0490 N   0  0  0  0  0  0  0  0  0  0  0  0
   -1.3378    1.1955   -0.4822 C   0  0  0  0  0  0  0  0  0  0  0  0
    0.0623    1.2894   -0.5482 C   0  0  0  0  0  0  0  0  0  0  0  0
    0.9373    0.2270   -0.2691 C   0  0  0  0  0  0  0  0  0  0  0  0
    2.2590    0.4947   -0.3841 O   0  0  0  0  0  0  0  0  0  0  0  0
    3.2132   -0.5294   -0.1252 C   0  0  0  0  0  0  0  0  0  0  0  0
    0.4444   -1.0532    0.1119 C   0  0  0  0  0  0  0  0  0  0  0  0
   -0.9154   -1.2367    0.2017 C   0  0  0  0  0  0  0  0  0  0  0  0
   -3.2813    3.4201   -0.8945 H   0  0  0  0  0  0  0  0  0  0  0  0
    0.5392    2.2277   -0.8313 H   0  0  0  0  0  0  0  0  0  0  0  0
    4.1901   -0.0737   -0.2911 H   0  0  0  0  0  0  0  0  0  0  0  0
    3.0901   -1.3773   -0.8094 H   0  0  0  0  0  0  0  0  0  0  0  0
    3.1529   -0.8843    0.9106 H   0  0  0  0  0  0  0  0  0  0  0  0
    1.1154   -1.8742    0.3298 H   0  0  0  0  0  0  0  0  0  0  0  0
   -1.3382   -2.1960    0.4897 H   0  0  0  0  0  0  0  0  0  0  0  0
   -5.0263    3.7166    0.3110 S   0  0  0  0  0  0  0  0  0  0  0  0
   -3.9842    4.0993   -0.8557 O   0  0  0  0  0  0  0  0  0  0  0  0
   -6.1504    4.6132    0.1400 O   0  0  0  0  0  0  0  0  0  0  0  0
   -5.1580    2.2773    0.4046 O   0  0  0  0  0  0  0  0  0  0  0  0
   -4.2141    4.1582    1.6525 O   0  0  0  0  0  0  0  0  0  0  0  0
   -4.3257    5.1180    1.7610 H   0  0  0  0  0  0  0  0  0  0  0  0
  1  2  1  0  0  0  0
  1 10  2  0  0  0  0
  2  3  1  0  0  0  0
  4  1  1  0  0  0  0
  5  4  2  0  0  0  0
  5  6  1  0  0  0  0
  6  9  2  0  0  0  0
  7  6  1  0  0  0  0
  7  8  1  0  0  0  0
  8 15  1  0  0  0  0
  9 10  1  0  0  0  0
  9 16  1  0  0  0  0
 10 17  1  0  0  0  0
 11 19  1  0  0  0  0
 12  5  1  0  0  0  0
 13  8  1  0  0  0  0
 14  8  1  0  0  0  0
 18 21  2  0  0  0  0
 18 22  1  0  0  0  0
 19 18  1  0  0  0  0
 20 18  2  0  0  0  0
 22 23  1  0  0  0  0
M  RAD  3   2   2   3   3   4   2
M  END
