Coordinates from ORCA-job 4-MeOPhN2+~HSO4-_B3LYPG-6-31G_dp-CH-Scan-d09-49-n800
 OpenBabel11261919063D

 23 22  0  0  0  0  0  0  0  0999 V2000
   -1.7470   -0.1087   -0.0959 C   0  0  0  0  0  0  0  0  0  0  0  0
   -3.1052   -0.3131   -0.0091 N   0  0  0  0  0  0  0  0  0  0  0  0
   -4.2166   -0.4454    0.0487 N   0  0  0  0  0  0  0  0  0  0  0  0
   -1.3603    1.2013   -0.4718 C   0  0  0  0  0  0  0  0  0  0  0  0
    0.0387    1.3022   -0.5371 C   0  0  0  0  0  0  0  0  0  0  0  0
    0.9181    0.2413   -0.2647 C   0  0  0  0  0  0  0  0  0  0  0  0
    2.2382    0.5153   -0.3777 O   0  0  0  0  0  0  0  0  0  0  0  0
    3.1969   -0.5066   -0.1257 C   0  0  0  0  0  0  0  0  0  0  0  0
    0.4298   -1.0431    0.1075 C   0  0  0  0  0  0  0  0  0  0  0  0
   -0.9292   -1.2326    0.1958 C   0  0  0  0  0  0  0  0  0  0  0  0
   -3.2345    3.3545   -0.8718 H   0  0  0  0  0  0  0  0  0  0  0  0
    0.5114    2.2443   -0.8139 H   0  0  0  0  0  0  0  0  0  0  0  0
    4.1718   -0.0456   -0.2887 H   0  0  0  0  0  0  0  0  0  0  0  0
    3.0773   -1.3503   -0.8155 H   0  0  0  0  0  0  0  0  0  0  0  0
    3.1381   -0.8684    0.9077 H   0  0  0  0  0  0  0  0  0  0  0  0
    1.1039   -1.8629    0.3202 H   0  0  0  0  0  0  0  0  0  0  0  0
   -1.3481   -2.1954    0.4774 H   0  0  0  0  0  0  0  0  0  0  0  0
   -4.9893    3.6986    0.3064 S   0  0  0  0  0  0  0  0  0  0  0  0
   -3.9294    4.0446   -0.8535 O   0  0  0  0  0  0  0  0  0  0  0  0
   -6.0964    4.6115    0.1109 O   0  0  0  0  0  0  0  0  0  0  0  0
   -5.1486    2.2632    0.4218 O   0  0  0  0  0  0  0  0  0  0  0  0
   -4.1843    4.1457    1.6510 O   0  0  0  0  0  0  0  0  0  0  0  0
   -4.2778    5.1092    1.7421 H   0  0  0  0  0  0  0  0  0  0  0  0
  1  2  1  0  0  0  0
  1 10  2  0  0  0  0
  2  3  1  0  0  0  0
  4  1  1  0  0  0  0
  5  4  2  0  0  0  0
  5  6  1  0  0  0  0
  6  9  2  0  0  0  0
  7  6  1  0  0  0  0
  7  8  1  0  0  0  0
  8 15  1  0  0  0  0
  9 10  1  0  0  0  0
  9 16  1  0  0  0  0
 10 17  1  0  0  0  0
 11 19  1  0  0  0  0
 12  5  1  0  0  0  0
 13  8  1  0  0  0  0
 14  8  1  0  0  0  0
 18 21  2  0  0  0  0
 18 22  1  0  0  0  0
 19 18  1  0  0  0  0
 20 18  2  0  0  0  0
 22 23  1  0  0  0  0
M  RAD  3   2   2   3   3   4   2
M  END
