Coordinates from ORCA-job 4-MeOPhN2+~HSO4-_B3LYPG-6-31G_dp-CH-Scan-d09-49-n800
 OpenBabel11261919063D

 23 22  0  0  0  0  0  0  0  0999 V2000
   -1.9432   -0.0673   -0.1164 C   0  0  0  0  0  0  0  0  0  0  0  0
   -3.2882   -0.3379   -0.0640 N   0  0  0  0  0  0  0  0  0  0  0  0
   -4.3892   -0.5345   -0.0293 N   0  0  0  0  0  0  0  0  0  0  0  0
   -1.5764    1.2738   -0.3955 C   0  0  0  0  0  0  0  0  0  0  0  0
   -0.1881    1.4327   -0.4366 C   0  0  0  0  0  0  0  0  0  0  0  0
    0.7248    0.3837   -0.2256 C   0  0  0  0  0  0  0  0  0  0  0  0
    2.0309    0.7100   -0.3042 O   0  0  0  0  0  0  0  0  0  0  0  0
    3.0251   -0.2934   -0.1121 C   0  0  0  0  0  0  0  0  0  0  0  0
    0.2720   -0.9343    0.0514 C   0  0  0  0  0  0  0  0  0  0  0  0
   -1.0819   -1.1717    0.1070 C   0  0  0  0  0  0  0  0  0  0  0  0
   -2.7646    2.6606   -0.6295 H   0  0  0  0  0  0  0  0  0  0  0  0
    0.2463    2.4090   -0.6425 H   0  0  0  0  0  0  0  0  0  0  0  0
    3.9828    0.2129   -0.2336 H   0  0  0  0  0  0  0  0  0  0  0  0
    2.9393   -1.0905   -0.8599 H   0  0  0  0  0  0  0  0  0  0  0  0
    2.9696   -0.7250    0.8938 H   0  0  0  0  0  0  0  0  0  0  0  0
    0.9676   -1.7466    0.2181 H   0  0  0  0  0  0  0  0  0  0  0  0
   -1.4707   -2.1641    0.3170 H   0  0  0  0  0  0  0  0  0  0  0  0
   -4.5593    3.4701    0.3142 S   0  0  0  0  0  0  0  0  0  0  0  0
   -3.4217    3.4603   -0.7748 O   0  0  0  0  0  0  0  0  0  0  0  0
   -5.6118    4.3604   -0.1453 O   0  0  0  0  0  0  0  0  0  0  0  0
   -4.8416    2.1153    0.7671 O   0  0  0  0  0  0  0  0  0  0  0  0
   -3.8373    4.1891    1.5979 O   0  0  0  0  0  0  0  0  0  0  0  0
   -3.9269    5.1474    1.4669 H   0  0  0  0  0  0  0  0  0  0  0  0
  1  2  1  0  0  0  0
  1 10  2  0  0  0  0
  2  3  1  0  0  0  0
  4  1  1  0  0  0  0
  5  4  2  0  0  0  0
  5  6  1  0  0  0  0
  6  9  2  0  0  0  0
  7  6  1  0  0  0  0
  7  8  1  0  0  0  0
  8 15  1  0  0  0  0
  9 10  1  0  0  0  0
  9 16  1  0  0  0  0
 10 17  1  0  0  0  0
 12  5  1  0  0  0  0
 13  8  1  0  0  0  0
 14  8  1  0  0  0  0
 18 21  2  0  0  0  0
 18 22  1  0  0  0  0
 19 11  1  0  0  0  0
 19 18  1  0  0  0  0
 20 18  2  0  0  0  0
 23 22  1  0  0  0  0
M  RAD  3   2   2   3   3   4   2
M  END
