Coordinates from ORCA-job PhN2+~BF4-_B3LYPG-6-31G_dp-CH-Scan-d09-49-n800
 OpenBabel11261919213D

 18 16  0  0  0  0  0  0  0  0999 V2000
   -1.7283    0.3558    0.1041 C   0  0  0  0  0  0  0  0  0  0  0  0
   -3.0943    0.1779    0.2751 N   0  0  0  0  0  0  0  0  0  0  0  0
   -4.1984    0.0706    0.4062 N   0  0  0  0  0  0  0  0  0  0  0  0
   -1.3472    1.6768   -0.1954 C   0  0  0  0  0  0  0  0  0  0  0  0
    0.0601    1.7580   -0.3529 C   0  0  0  0  0  0  0  0  0  0  0  0
    0.9147    0.6664   -0.2239 C   0  0  0  0  0  0  0  0  0  0  0  0
    0.4264   -0.6257    0.0811 C   0  0  0  0  0  0  0  0  0  0  0  0
   -0.9275   -0.8087    0.2541 C   0  0  0  0  0  0  0  0  0  0  0  0
   -2.9476    3.5551   -0.4095 H   0  0  0  0  0  0  0  0  0  0  0  0
    0.5057    2.7232   -0.5898 H   0  0  0  0  0  0  0  0  0  0  0  0
    1.9864    0.7984   -0.3601 H   0  0  0  0  0  0  0  0  0  0  0  0
    1.1089   -1.4636    0.1781 H   0  0  0  0  0  0  0  0  0  0  0  0
   -1.3575   -1.7777    0.4905 H   0  0  0  0  0  0  0  0  0  0  0  0
   -5.2898    3.1874   -0.1300 B   0  0  0  0  0  0  0  0  0  0  0  0
   -5.1670    2.3013   -1.1299 F   0  0  0  0  0  0  0  0  0  0  0  0
   -3.6748    4.1640   -0.4581 F   0  0  0  0  0  0  0  0  0  0  0  0
   -6.1360    4.2028   -0.2666 F   0  0  0  0  0  0  0  0  0  0  0  0
   -4.9877    2.7514    1.1020 F   0  0  0  0  0  0  0  0  0  0  0  0
  1  8  1  0  0  0  0
  1  2  1  0  0  0  0
  2  3  1  0  0  0  0
  4  1  2  0  0  0  0
  5  6  2  0  0  0  0
  5  4  1  0  0  0  0
  6  7  1  0  0  0  0
  7 12  1  0  0  0  0
  7  8  2  0  0  0  0
  8 13  1  0  0  0  0
 10  5  1  0  0  0  0
 11  6  1  0  0  0  0
 14 18  1  0  0  0  0
 15 14  1  0  0  0  0
 16  9  1  0  0  0  0
 17 14  1  0  0  0  0
M  RAD  3   2   2   3   3   4   2
M  END
