Coordinates from ORCA-job PhN2+~BF4-_B3LYPG-6-31G_dp-CH-Scan-d09-49-n800
 OpenBabel11261919213D

 18 17  0  0  0  0  0  0  0  0999 V2000
   -2.1377    0.4823   -0.2148 C   0  0  0  0  0  0  0  0  0  0  0  0
   -3.4815    0.1505   -0.2649 N   0  0  0  0  0  0  0  0  0  0  0  0
   -4.5190   -0.2423   -0.3080 N   0  0  0  0  0  0  0  0  0  0  0  0
   -1.6930    1.6635   -0.8272 C   0  0  0  0  0  0  0  0  0  0  0  0
   -0.3239    1.9083   -0.7771 C   0  0  0  0  0  0  0  0  0  0  0  0
    0.5417    1.0178   -0.1386 C   0  0  0  0  0  0  0  0  0  0  0  0
    0.0597   -0.1506    0.4687 C   0  0  0  0  0  0  0  0  0  0  0  0
   -1.2958   -0.4380    0.4373 C   0  0  0  0  0  0  0  0  0  0  0  0
   -2.3371    2.2776   -1.2376 H   0  0  0  0  0  0  0  0  0  0  0  0
    0.0595    2.8169   -1.2280 H   0  0  0  0  0  0  0  0  0  0  0  0
    1.6050    1.2351   -0.1047 H   0  0  0  0  0  0  0  0  0  0  0  0
    0.7404   -0.8321    0.9670 H   0  0  0  0  0  0  0  0  0  0  0  0
   -1.7039   -1.3290    0.9004 H   0  0  0  0  0  0  0  0  0  0  0  0
   -4.2945    3.0684    0.2395 B   0  0  0  0  0  0  0  0  0  0  0  0
   -4.4225    2.3765   -1.0222 F   0  0  0  0  0  0  0  0  0  0  0  0
   -3.1363    3.8555    0.1633 F   0  0  0  0  0  0  0  0  0  0  0  0
   -5.4226    3.8009    0.5036 F   0  0  0  0  0  0  0  0  0  0  0  0
   -4.0926    2.0519    1.2185 F   0  0  0  0  0  0  0  0  0  0  0  0
  1  8  2  0  0  0  0
  2  1  1  0  0  0  0
  3  2  1  0  0  0  0
  4  5  2  0  0  0  0
  4  1  1  0  0  0  0
  5  6  1  0  0  0  0
  6 11  1  0  0  0  0
  6  7  2  0  0  0  0
  7 12  1  0  0  0  0
  8  7  1  0  0  0  0
  8 13  1  0  0  0  0
  9  4  1  0  0  0  0
 10  5  1  0  0  0  0
 14 17  1  0  0  0  0
 14 18  1  0  0  0  0
 15 14  1  0  0  0  0
 16 14  1  0  0  0  0
M  RAD  2   2   2   3   3
M  END
