Coordinates from ORCA-job PhN2+~BF4-_B3LYPG-6-31G_dp-CH-Scan-d09-49-n800
 OpenBabel11261919213D

 18 17  0  0  0  0  0  0  0  0999 V2000
   -1.9876    0.4838   -0.0779 C   0  0  0  0  0  0  0  0  0  0  0  0
   -3.3490    0.2282   -0.1101 N   0  0  0  0  0  0  0  0  0  0  0  0
   -4.4372    0.0001   -0.1760 N   0  0  0  0  0  0  0  0  0  0  0  0
   -1.5299    1.7573   -0.4504 C   0  0  0  0  0  0  0  0  0  0  0  0
   -0.1495    1.9405   -0.4409 C   0  0  0  0  0  0  0  0  0  0  0  0
    0.7103    0.9034   -0.0686 C   0  0  0  0  0  0  0  0  0  0  0  0
    0.2140   -0.3556    0.3018 C   0  0  0  0  0  0  0  0  0  0  0  0
   -1.1525   -0.5862    0.2984 C   0  0  0  0  0  0  0  0  0  0  0  0
   -2.3533    2.6524   -0.7409 H   0  0  0  0  0  0  0  0  0  0  0  0
    0.2554    2.9071   -0.7206 H   0  0  0  0  0  0  0  0  0  0  0  0
    1.7831    1.0733   -0.0631 H   0  0  0  0  0  0  0  0  0  0  0  0
    0.8928   -1.1507    0.5901 H   0  0  0  0  0  0  0  0  0  0  0  0
   -1.5726   -1.5463    0.5769 H   0  0  0  0  0  0  0  0  0  0  0  0
   -4.6667    3.1053   -0.0112 B   0  0  0  0  0  0  0  0  0  0  0  0
   -5.4258    2.1070   -0.6700 F   0  0  0  0  0  0  0  0  0  0  0  0
   -3.7067    3.6117   -0.9545 F   0  0  0  0  0  0  0  0  0  0  0  0
   -5.4523    4.1136    0.4726 F   0  0  0  0  0  0  0  0  0  0  0  0
   -3.9263    2.4681    1.0192 F   0  0  0  0  0  0  0  0  0  0  0  0
  1  8  2  0  0  0  0
  2  1  1  0  0  0  0
  3  2  1  0  0  0  0
  4  5  2  0  0  0  0
  4  1  1  0  0  0  0
  5  6  1  0  0  0  0
  6 11  1  0  0  0  0
  6  7  2  0  0  0  0
  7 12  1  0  0  0  0
  8  7  1  0  0  0  0
  8 13  1  0  0  0  0
  9  4  1  0  0  0  0
 10  5  1  0  0  0  0
 14 17  1  0  0  0  0
 14 18  1  0  0  0  0
 15 14  1  0  0  0  0
 16 14  1  0  0  0  0
M  RAD  2   2   2   3   3
M  END
