Coordinates from ORCA-job PhN2+~BF4-_B3LYPG-6-31G_dp-CH-Scan-d09-49-n800
 OpenBabel11261919213D

 18 17  0  0  0  0  0  0  0  0999 V2000
   -1.9741    0.4495   -0.0662 C   0  0  0  0  0  0  0  0  0  0  0  0
   -3.3332    0.1814   -0.0684 N   0  0  0  0  0  0  0  0  0  0  0  0
   -4.4245   -0.0371   -0.1015 N   0  0  0  0  0  0  0  0  0  0  0  0
   -1.5569    1.7392   -0.4337 C   0  0  0  0  0  0  0  0  0  0  0  0
   -0.1728    1.9303   -0.4347 C   0  0  0  0  0  0  0  0  0  0  0  0
    0.7070    0.9026   -0.0880 C   0  0  0  0  0  0  0  0  0  0  0  0
    0.2364   -0.3718    0.2734 C   0  0  0  0  0  0  0  0  0  0  0  0
   -1.1243   -0.6210    0.2880 C   0  0  0  0  0  0  0  0  0  0  0  0
   -2.5133    2.7373   -0.7145 H   0  0  0  0  0  0  0  0  0  0  0  0
    0.2236    2.9038   -0.7055 H   0  0  0  0  0  0  0  0  0  0  0  0
    1.7777    1.0878   -0.0941 H   0  0  0  0  0  0  0  0  0  0  0  0
    0.9324   -1.1594    0.5409 H   0  0  0  0  0  0  0  0  0  0  0  0
   -1.5286   -1.5898    0.5607 H   0  0  0  0  0  0  0  0  0  0  0  0
   -4.6758    3.1196   -0.0021 B   0  0  0  0  0  0  0  0  0  0  0  0
   -5.3729    2.1652   -0.7521 F   0  0  0  0  0  0  0  0  0  0  0  0
   -3.5673    3.6011   -0.8704 F   0  0  0  0  0  0  0  0  0  0  0  0
   -5.4382    4.1874    0.3610 F   0  0  0  0  0  0  0  0  0  0  0  0
   -4.0493    2.4869    1.0822 F   0  0  0  0  0  0  0  0  0  0  0  0
  1  8  2  0  0  0  0
  2  1  1  0  0  0  0
  3  2  1  0  0  0  0
  4  1  1  0  0  0  0
  5  4  2  0  0  0  0
  5  6  1  0  0  0  0
  6  7  2  0  0  0  0
  7  8  1  0  0  0  0
  7 12  1  0  0  0  0
  8 13  1  0  0  0  0
  9  4  1  0  0  0  0
 10  5  1  0  0  0  0
 11  6  1  0  0  0  0
 14 17  1  0  0  0  0
 14 18  1  0  0  0  0
 15 14  1  0  0  0  0
 16 14  1  0  0  0  0
M  RAD  2   2   2   3   3
M  END
