Coordinates from ORCA-job PhN2+~BF4-_B3LYPG-6-31G_dp-CH-Scan-d09-49-n800
 OpenBabel11261919213D

 18 16  0  0  0  0  0  0  0  0999 V2000
   -1.4808    0.2703    0.1124 C   0  0  0  0  0  0  0  0  0  0  0  0
   -2.8597    0.2287    0.3070 N   0  0  0  0  0  0  0  0  0  0  0  0
   -3.9696    0.2667    0.4468 N   0  0  0  0  0  0  0  0  0  0  0  0
   -1.0329    1.5508   -0.2495 C   0  0  0  0  0  0  0  0  0  0  0  0
    0.3804    1.5136   -0.4310 C   0  0  0  0  0  0  0  0  0  0  0  0
    1.1559    0.3702   -0.2683 C   0  0  0  0  0  0  0  0  0  0  0  0
    0.5830   -0.8729    0.1021 C   0  0  0  0  0  0  0  0  0  0  0  0
   -0.7762   -0.9500    0.3049 C   0  0  0  0  0  0  0  0  0  0  0  0
   -3.6399    4.5965   -0.5302 H   0  0  0  0  0  0  0  0  0  0  0  0
    0.8964    2.4316   -0.7164 H   0  0  0  0  0  0  0  0  0  0  0  0
    2.2324    0.4159   -0.4272 H   0  0  0  0  0  0  0  0  0  0  0  0
    1.2082   -1.7516    0.2247 H   0  0  0  0  0  0  0  0  0  0  0  0
   -1.2725   -1.8735    0.5914 H   0  0  0  0  0  0  0  0  0  0  0  0
   -5.6897    3.2063   -0.1412 B   0  0  0  0  0  0  0  0  0  0  0  0
   -4.8624    2.6091   -1.0017 F   0  0  0  0  0  0  0  0  0  0  0  0
   -4.3893    4.9401   -0.0972 F   0  0  0  0  0  0  0  0  0  0  0  0
   -6.7537    3.8420   -0.5982 F   0  0  0  0  0  0  0  0  0  0  0  0
   -5.5836    2.9195    1.1466 F   0  0  0  0  0  0  0  0  0  0  0  0
  1  8  1  0  0  0  0
  1  2  1  0  0  0  0
  2  3  1  0  0  0  0
  4  1  2  0  0  0  0
  5  6  2  0  0  0  0
  5  4  1  0  0  0  0
  6  7  1  0  0  0  0
  7 12  1  0  0  0  0
  7  8  2  0  0  0  0
  8 13  1  0  0  0  0
  9 16  1  0  0  0  0
 10  5  1  0  0  0  0
 11  6  1  0  0  0  0
 14 18  1  0  0  0  0
 15 14  1  0  0  0  0
 17 14  1  0  0  0  0
M  RAD  3   2   2   3   3   4   2
M  END
