Coordinates from ORCA-job PhN2+~BF4-_B3LYPG-6-31G_dp-CH-Scan-d09-49-n800
 OpenBabel11261919213D

 18 16  0  0  0  0  0  0  0  0999 V2000
   -1.8534    0.3924    0.0763 C   0  0  0  0  0  0  0  0  0  0  0  0
   -3.2118    0.1545    0.2251 N   0  0  0  0  0  0  0  0  0  0  0  0
   -4.3097   -0.0078    0.3371 N   0  0  0  0  0  0  0  0  0  0  0  0
   -1.4960    1.7185   -0.2327 C   0  0  0  0  0  0  0  0  0  0  0  0
   -0.0956    1.8525   -0.3667 C   0  0  0  0  0  0  0  0  0  0  0  0
    0.7936    0.7917   -0.2078 C   0  0  0  0  0  0  0  0  0  0  0  0
    0.3420   -0.5089    0.1040 C   0  0  0  0  0  0  0  0  0  0  0  0
   -1.0096   -0.7347    0.2536 C   0  0  0  0  0  0  0  0  0  0  0  0
   -2.7550    3.1510   -0.4193 H   0  0  0  0  0  0  0  0  0  0  0  0
    0.3149    2.8311   -0.6071 H   0  0  0  0  0  0  0  0  0  0  0  0
    1.8618    0.9600   -0.3255 H   0  0  0  0  0  0  0  0  0  0  0  0
    1.0481   -1.3235    0.2253 H   0  0  0  0  0  0  0  0  0  0  0  0
   -1.4098   -1.7149    0.4940 H   0  0  0  0  0  0  0  0  0  0  0  0
   -4.9859    3.1670   -0.1164 B   0  0  0  0  0  0  0  0  0  0  0  0
   -5.1049    2.2353   -1.0989 F   0  0  0  0  0  0  0  0  0  0  0  0
   -3.4622    3.8569   -0.4972 F   0  0  0  0  0  0  0  0  0  0  0  0
   -5.7854    4.2407   -0.1851 F   0  0  0  0  0  0  0  0  0  0  0  0
   -4.7352    2.6515    1.1162 F   0  0  0  0  0  0  0  0  0  0  0  0
  1  2  1  0  0  0  0
  1  8  2  0  0  0  0
  2  3  1  0  0  0  0
  4  1  1  0  0  0  0
  5  4  2  0  0  0  0
  5  6  1  0  0  0  0
  6  7  2  0  0  0  0
  7 12  1  0  0  0  0
  7  8  1  0  0  0  0
  8 13  1  0  0  0  0
 10  5  1  0  0  0  0
 11  6  1  0  0  0  0
 14 18  1  0  0  0  0
 15 14  1  0  0  0  0
 16  9  1  0  0  0  0
 17 14  1  0  0  0  0
M  RAD  3   2   2   3   3   4   2
M  END
