Coordinates from ORCA-job PhN2+~BF4-_B3LYPG-6-31G_dp-CH-Scan-d09-49-n800
 OpenBabel11261919213D

 18 16  0  0  0  0  0  0  0  0999 V2000
   -1.7822    0.3725    0.0982 C   0  0  0  0  0  0  0  0  0  0  0  0
   -3.1446    0.1682    0.2638 N   0  0  0  0  0  0  0  0  0  0  0  0
   -4.2460    0.0351    0.3891 N   0  0  0  0  0  0  0  0  0  0  0  0
   -1.4134    1.6963   -0.2055 C   0  0  0  0  0  0  0  0  0  0  0  0
   -0.0092    1.7999   -0.3593 C   0  0  0  0  0  0  0  0  0  0  0  0
    0.8611    0.7212   -0.2228 C   0  0  0  0  0  0  0  0  0  0  0  0
    0.3901   -0.5752    0.0863 C   0  0  0  0  0  0  0  0  0  0  0  0
   -0.9622   -0.7767    0.2553 C   0  0  0  0  0  0  0  0  0  0  0  0
   -2.8614    3.3766   -0.4009 H   0  0  0  0  0  0  0  0  0  0  0  0
    0.4208    2.7710   -0.5990 H   0  0  0  0  0  0  0  0  0  0  0  0
    1.9308    0.8688   -0.3564 H   0  0  0  0  0  0  0  0  0  0  0  0
    1.0834   -1.4032    0.1895 H   0  0  0  0  0  0  0  0  0  0  0  0
   -1.3783   -1.7509    0.4943 H   0  0  0  0  0  0  0  0  0  0  0  0
   -5.1632    3.1792   -0.1292 B   0  0  0  0  0  0  0  0  0  0  0  0
   -5.1295    2.2728   -1.1260 F   0  0  0  0  0  0  0  0  0  0  0  0
   -3.5710    4.0266   -0.4598 F   0  0  0  0  0  0  0  0  0  0  0  0
   -5.9818    4.2246   -0.2471 F   0  0  0  0  0  0  0  0  0  0  0  0
   -4.8975    2.7065    1.1046 F   0  0  0  0  0  0  0  0  0  0  0  0
  1  8  1  0  0  0  0
  1  2  1  0  0  0  0
  2  3  1  0  0  0  0
  4  1  2  0  0  0  0
  5  6  2  0  0  0  0
  5  4  1  0  0  0  0
  6  7  1  0  0  0  0
  7 12  1  0  0  0  0
  7  8  2  0  0  0  0
  8 13  1  0  0  0  0
 10  5  1  0  0  0  0
 11  6  1  0  0  0  0
 14 18  1  0  0  0  0
 15 14  1  0  0  0  0
 16  9  1  0  0  0  0
 17 14  1  0  0  0  0
M  RAD  3   2   2   3   3   4   2
M  END
