Coordinates from ORCA-job PhN2+~BF4-_B3LYPG-6-31G_dp-CH-Scan-d09-49-n800
 OpenBabel11261919213D

 18 16  0  0  0  0  0  0  0  0999 V2000
   -1.7180    0.3517    0.1015 C   0  0  0  0  0  0  0  0  0  0  0  0
   -3.0851    0.1784    0.2695 N   0  0  0  0  0  0  0  0  0  0  0  0
   -4.1902    0.0760    0.3981 N   0  0  0  0  0  0  0  0  0  0  0  0
   -1.3346    1.6718   -0.1987 C   0  0  0  0  0  0  0  0  0  0  0  0
    0.0736    1.7493   -0.3530 C   0  0  0  0  0  0  0  0  0  0  0  0
    0.9255    0.6561   -0.2207 C   0  0  0  0  0  0  0  0  0  0  0  0
    0.4340   -0.6348    0.0848 C   0  0  0  0  0  0  0  0  0  0  0  0
   -0.9207   -0.8148    0.2548 C   0  0  0  0  0  0  0  0  0  0  0  0
   -2.9652    3.5896   -0.4199 H   0  0  0  0  0  0  0  0  0  0  0  0
    0.5223    2.7132   -0.5901 H   0  0  0  0  0  0  0  0  0  0  0  0
    1.9979    0.7856   -0.3546 H   0  0  0  0  0  0  0  0  0  0  0  0
    1.1146   -1.4739    0.1843 H   0  0  0  0  0  0  0  0  0  0  0  0
   -1.3533   -1.7826    0.4914 H   0  0  0  0  0  0  0  0  0  0  0  0
   -5.3139    3.1893   -0.1251 B   0  0  0  0  0  0  0  0  0  0  0  0
   -5.1860    2.3101   -1.1289 F   0  0  0  0  0  0  0  0  0  0  0  0
   -3.6964    4.1905   -0.4667 F   0  0  0  0  0  0  0  0  0  0  0  0
   -6.1653    4.2004   -0.2540 F   0  0  0  0  0  0  0  0  0  0  0  0
   -4.9927    2.7574    1.1023 F   0  0  0  0  0  0  0  0  0  0  0  0
  1  8  1  0  0  0  0
  1  2  1  0  0  0  0
  2  3  1  0  0  0  0
  4  1  2  0  0  0  0
  5  6  2  0  0  0  0
  5  4  1  0  0  0  0
  6  7  1  0  0  0  0
  7 12  1  0  0  0  0
  7  8  2  0  0  0  0
  8 13  1  0  0  0  0
 10  5  1  0  0  0  0
 11  6  1  0  0  0  0
 14 18  1  0  0  0  0
 15 14  1  0  0  0  0
 16  9  1  0  0  0  0
 17 14  1  0  0  0  0
M  RAD  3   2   2   3   3   4   2
M  END
