Coordinates from ORCA-job PhN2+~BF4-_B3LYPG-6-31G_dp-CH-Scan-d09-49-n800
 OpenBabel11261919213D

 18 16  0  0  0  0  0  0  0  0999 V2000
   -1.4486    0.2766    0.1150 C   0  0  0  0  0  0  0  0  0  0  0  0
   -2.8286    0.2627    0.3115 N   0  0  0  0  0  0  0  0  0  0  0  0
   -3.9373    0.3292    0.4508 N   0  0  0  0  0  0  0  0  0  0  0  0
   -0.9801    1.5481   -0.2500 C   0  0  0  0  0  0  0  0  0  0  0  0
    0.4320    1.4864   -0.4354 C   0  0  0  0  0  0  0  0  0  0  0  0
    1.1874    0.3295   -0.2732 C   0  0  0  0  0  0  0  0  0  0  0  0
    0.5937   -0.9028    0.1011 C   0  0  0  0  0  0  0  0  0  0  0  0
   -0.7661   -0.9558    0.3080 C   0  0  0  0  0  0  0  0  0  0  0  0
   -3.7448    4.6834   -0.5246 H   0  0  0  0  0  0  0  0  0  0  0  0
    0.9631    2.3948   -0.7238 H   0  0  0  0  0  0  0  0  0  0  0  0
    2.2641    0.3557   -0.4354 H   0  0  0  0  0  0  0  0  0  0  0  0
    1.2038   -1.7920    0.2233 H   0  0  0  0  0  0  0  0  0  0  0  0
   -1.2778   -1.8699    0.5974 H   0  0  0  0  0  0  0  0  0  0  0  0
   -5.7266    3.2042   -0.1460 B   0  0  0  0  0  0  0  0  0  0  0  0
   -4.8517    2.6580   -0.9937 F   0  0  0  0  0  0  0  0  0  0  0  0
   -4.4945    4.9971   -0.0700 F   0  0  0  0  0  0  0  0  0  0  0  0
   -6.8089    3.7930   -0.6218 F   0  0  0  0  0  0  0  0  0  0  0  0
   -5.6331    2.9152    1.1418 F   0  0  0  0  0  0  0  0  0  0  0  0
  1  8  1  0  0  0  0
  1  2  1  0  0  0  0
  2  3  1  0  0  0  0
  4  1  2  0  0  0  0
  5  6  2  0  0  0  0
  5  4  1  0  0  0  0
  6  7  1  0  0  0  0
  7 12  1  0  0  0  0
  7  8  2  0  0  0  0
  8 13  1  0  0  0  0
  9 16  1  0  0  0  0
 10  5  1  0  0  0  0
 11  6  1  0  0  0  0
 14 18  1  0  0  0  0
 15 14  1  0  0  0  0
 17 14  1  0  0  0  0
M  RAD  3   2   2   3   3   4   2
M  END
