Coordinates from ORCA-job PhN2+~BF4-_B3LYPG-6-31G_dp-CH-Scan-d09-49-n800
 OpenBabel11261919213D

 18 16  0  0  0  0  0  0  0  0999 V2000
   -1.3675    0.2944    0.1445 C   0  0  0  0  0  0  0  0  0  0  0  0
   -2.7430    0.3418    0.3675 N   0  0  0  0  0  0  0  0  0  0  0  0
   -3.8457    0.4535    0.5261 N   0  0  0  0  0  0  0  0  0  0  0  0
   -0.8491    1.5487   -0.2112 C   0  0  0  0  0  0  0  0  0  0  0  0
    0.5551    1.4261   -0.4257 C   0  0  0  0  0  0  0  0  0  0  0  0
    1.2595    0.2337   -0.2960 C   0  0  0  0  0  0  0  0  0  0  0  0
    0.6174   -0.9762    0.0722 C   0  0  0  0  0  0  0  0  0  0  0  0
   -0.7390   -0.9710    0.3060 C   0  0  0  0  0  0  0  0  0  0  0  0
   -3.9874    4.8787   -0.4947 H   0  0  0  0  0  0  0  0  0  0  0  0
    1.1214    2.3139   -0.7112 H   0  0  0  0  0  0  0  0  0  0  0  0
    2.3328    0.2130   -0.4801 H   0  0  0  0  0  0  0  0  0  0  0  0
    1.1889   -1.8938    0.1690 H   0  0  0  0  0  0  0  0  0  0  0  0
   -1.2863   -1.8652    0.5924 H   0  0  0  0  0  0  0  0  0  0  0  0
   -5.8174    3.2097   -0.1762 B   0  0  0  0  0  0  0  0  0  0  0  0
   -4.8386    2.7590   -0.9645 F   0  0  0  0  0  0  0  0  0  0  0  0
   -4.7599    5.1217   -0.0356 F   0  0  0  0  0  0  0  0  0  0  0  0
   -6.9169    3.6958   -0.7226 F   0  0  0  0  0  0  0  0  0  0  0  0
   -5.7782    2.9295    1.1153 F   0  0  0  0  0  0  0  0  0  0  0  0
  1  8  1  0  0  0  0
  1  2  1  0  0  0  0
  2  3  1  0  0  0  0
  4  1  2  0  0  0  0
  5  6  2  0  0  0  0
  5  4  1  0  0  0  0
  6  7  1  0  0  0  0
  7 12  1  0  0  0  0
  7  8  2  0  0  0  0
  8 13  1  0  0  0  0
  9 16  1  0  0  0  0
 10  5  1  0  0  0  0
 11  6  1  0  0  0  0
 14 18  1  0  0  0  0
 15 14  1  0  0  0  0
 17 14  1  0  0  0  0
M  RAD  3   2   2   3   3   4   2
M  END
