Coordinates from ORCA-job PhN2+~BF4-_B3LYPG-6-31G_dp-CH-Scan-d09-49-n800
 OpenBabel11261919213D

 18 16  0  0  0  0  0  0  0  0999 V2000
   -1.5318    0.2961    0.1130 C   0  0  0  0  0  0  0  0  0  0  0  0
   -2.9115    0.2199    0.2831 N   0  0  0  0  0  0  0  0  0  0  0  0
   -4.0233    0.2226    0.4084 N   0  0  0  0  0  0  0  0  0  0  0  0
   -1.0928    1.5962   -0.1877 C   0  0  0  0  0  0  0  0  0  0  0  0
    0.3223    1.5873   -0.3474 C   0  0  0  0  0  0  0  0  0  0  0  0
    1.1118    0.4488   -0.2197 C   0  0  0  0  0  0  0  0  0  0  0  0
    0.5510   -0.8158    0.0886 C   0  0  0  0  0  0  0  0  0  0  0  0
   -0.8101   -0.9199    0.2653 C   0  0  0  0  0  0  0  0  0  0  0  0
   -3.3569    4.2984   -0.4901 H   0  0  0  0  0  0  0  0  0  0  0  0
    0.8284    2.5235   -0.5862 H   0  0  0  0  0  0  0  0  0  0  0  0
    2.1897    0.5165   -0.3590 H   0  0  0  0  0  0  0  0  0  0  0  0
    1.1861   -1.6905    0.1844 H   0  0  0  0  0  0  0  0  0  0  0  0
   -1.2971   -1.8615    0.5042 H   0  0  0  0  0  0  0  0  0  0  0  0
   -5.6623    3.2020   -0.1189 B   0  0  0  0  0  0  0  0  0  0  0  0
   -5.2514    2.4520   -1.1380 F   0  0  0  0  0  0  0  0  0  0  0  0
   -4.1867    4.7198   -0.4531 F   0  0  0  0  0  0  0  0  0  0  0  0
   -6.6893    4.0190   -0.2723 F   0  0  0  0  0  0  0  0  0  0  0  0
   -5.2297    2.8987    1.1004 F   0  0  0  0  0  0  0  0  0  0  0  0
  1  8  1  0  0  0  0
  1  2  1  0  0  0  0
  2  3  1  0  0  0  0
  4  1  2  0  0  0  0
  5  6  2  0  0  0  0
  5  4  1  0  0  0  0
  6  7  1  0  0  0  0
  7 12  1  0  0  0  0
  7  8  2  0  0  0  0
  8 13  1  0  0  0  0
  9 16  1  0  0  0  0
 10  5  1  0  0  0  0
 11  6  1  0  0  0  0
 14 18  1  0  0  0  0
 15 14  1  0  0  0  0
 17 14  1  0  0  0  0
M  RAD  3   2   2   3   3   4   2
M  END
