Coordinates from ORCA-job PhN2+~BF4-_B3LYPG-6-31G_dp-CH-Scan-d09-49-n800
 OpenBabel11261919213D

 18 16  0  0  0  0  0  0  0  0999 V2000
   -1.5634    0.3031    0.1095 C   0  0  0  0  0  0  0  0  0  0  0  0
   -2.9414    0.2082    0.2776 N   0  0  0  0  0  0  0  0  0  0  0  0
   -4.0529    0.1925    0.4029 N   0  0  0  0  0  0  0  0  0  0  0  0
   -1.1366    1.6074   -0.1926 C   0  0  0  0  0  0  0  0  0  0  0  0
    0.2781    1.6151   -0.3499 C   0  0  0  0  0  0  0  0  0  0  0  0
    1.0804    0.4859   -0.2187 C   0  0  0  0  0  0  0  0  0  0  0  0
    0.5335   -0.7842    0.0906 C   0  0  0  0  0  0  0  0  0  0  0  0
   -0.8267   -0.9035    0.2648 C   0  0  0  0  0  0  0  0  0  0  0  0
   -3.2749    4.1739   -0.4824 H   0  0  0  0  0  0  0  0  0  0  0  0
    0.7733    2.5568   -0.5894 H   0  0  0  0  0  0  0  0  0  0  0  0
    2.1577    0.5659   -0.3559 H   0  0  0  0  0  0  0  0  0  0  0  0
    1.1782   -1.6515    0.1891 H   0  0  0  0  0  0  0  0  0  0  0  0
   -1.3031   -1.8503    0.5042 H   0  0  0  0  0  0  0  0  0  0  0  0
   -5.6159    3.2002   -0.1173 B   0  0  0  0  0  0  0  0  0  0  0  0
   -5.2556    2.4280   -1.1398 F   0  0  0  0  0  0  0  0  0  0  0  0
   -4.0857    4.6335   -0.4574 F   0  0  0  0  0  0  0  0  0  0  0  0
   -6.6076    4.0624   -0.2591 F   0  0  0  0  0  0  0  0  0  0  0  0
   -5.1911    2.8699    1.0988 F   0  0  0  0  0  0  0  0  0  0  0  0
  1  8  1  0  0  0  0
  1  2  1  0  0  0  0
  2  3  1  0  0  0  0
  4  1  2  0  0  0  0
  5  6  2  0  0  0  0
  5  4  1  0  0  0  0
  6  7  1  0  0  0  0
  7 12  1  0  0  0  0
  7  8  2  0  0  0  0
  8 13  1  0  0  0  0
  9 16  1  0  0  0  0
 10  5  1  0  0  0  0
 11  6  1  0  0  0  0
 14 18  1  0  0  0  0
 15 14  1  0  0  0  0
 17 14  1  0  0  0  0
M  RAD  3   2   2   3   3   4   2
M  END
