Coordinates from ORCA-job PhN2+~BF4-_B3LYPG-6-31G_dp-CH-Scan-d09-49-n800
 OpenBabel11261919213D

 18 16  0  0  0  0  0  0  0  0999 V2000
   -1.6628    0.3308    0.1001 C   0  0  0  0  0  0  0  0  0  0  0  0
   -3.0346    0.1837    0.2628 N   0  0  0  0  0  0  0  0  0  0  0  0
   -4.1437    0.1152    0.3839 N   0  0  0  0  0  0  0  0  0  0  0  0
   -1.2673    1.6461   -0.2037 C   0  0  0  0  0  0  0  0  0  0  0  0
    0.1442    1.7017   -0.3547 C   0  0  0  0  0  0  0  0  0  0  0  0
    0.9813    0.5982   -0.2162 C   0  0  0  0  0  0  0  0  0  0  0  0
    0.4726   -0.6861    0.0935 C   0  0  0  0  0  0  0  0  0  0  0  0
   -0.8844   -0.8479    0.2608 C   0  0  0  0  0  0  0  0  0  0  0  0
   -3.0584    3.7876   -0.4472 H   0  0  0  0  0  0  0  0  0  0  0  0
    0.6081    2.6582   -0.5944 H   0  0  0  0  0  0  0  0  0  0  0  0
    2.0558    0.7127   -0.3481 H   0  0  0  0  0  0  0  0  0  0  0  0
    1.1428   -1.5331    0.1980 H   0  0  0  0  0  0  0  0  0  0  0  0
   -1.3309   -1.8089    0.5003 H   0  0  0  0  0  0  0  0  0  0  0  0
   -5.4387    3.1936   -0.1156 B   0  0  0  0  0  0  0  0  0  0  0  0
   -5.2423    2.3561   -1.1366 F   0  0  0  0  0  0  0  0  0  0  0  0
   -3.8130    4.3462   -0.4749 F   0  0  0  0  0  0  0  0  0  0  0  0
   -6.3269    4.1696   -0.2306 F   0  0  0  0  0  0  0  0  0  0  0  0
   -5.0557    2.7894    1.0977 F   0  0  0  0  0  0  0  0  0  0  0  0
  1  8  1  0  0  0  0
  1  2  1  0  0  0  0
  2  3  1  0  0  0  0
  4  1  2  0  0  0  0
  5  6  2  0  0  0  0
  5  4  1  0  0  0  0
  6  7  1  0  0  0  0
  7 12  1  0  0  0  0
  7  8  2  0  0  0  0
  8 13  1  0  0  0  0
 10  5  1  0  0  0  0
 11  6  1  0  0  0  0
 14 18  1  0  0  0  0
 15 14  1  0  0  0  0
 16  9  1  0  0  0  0
 17 14  1  0  0  0  0
M  RAD  3   2   2   3   3   4   2
M  END
