Coordinates from ORCA-job PhN2+~BF4-_B3LYPG-6-31G_dp-CH-Scan-d09-49-n800
 OpenBabel11261919213D

 18 16  0  0  0  0  0  0  0  0999 V2000
   -1.9208    0.4296    0.0906 C   0  0  0  0  0  0  0  0  0  0  0  0
   -3.2745    0.1776    0.2547 N   0  0  0  0  0  0  0  0  0  0  0  0
   -4.3670   -0.0010    0.3777 N   0  0  0  0  0  0  0  0  0  0  0  0
   -1.5536    1.7526   -0.2157 C   0  0  0  0  0  0  0  0  0  0  0  0
   -0.1630    1.9042   -0.3673 C   0  0  0  0  0  0  0  0  0  0  0  0
    0.7321    0.8445   -0.2241 C   0  0  0  0  0  0  0  0  0  0  0  0
    0.2863   -0.4556    0.0858 C   0  0  0  0  0  0  0  0  0  0  0  0
   -1.0644   -0.6872    0.2502 C   0  0  0  0  0  0  0  0  0  0  0  0
   -2.6164    2.9540   -0.3641 H   0  0  0  0  0  0  0  0  0  0  0  0
    0.2317    2.8882   -0.6070 H   0  0  0  0  0  0  0  0  0  0  0  0
    1.7976    1.0177   -0.3536 H   0  0  0  0  0  0  0  0  0  0  0  0
    0.9945   -1.2699    0.1951 H   0  0  0  0  0  0  0  0  0  0  0  0
   -1.4565   -1.6703    0.4901 H   0  0  0  0  0  0  0  0  0  0  0  0
   -4.8128    3.1369   -0.1470 B   0  0  0  0  0  0  0  0  0  0  0  0
   -4.9513    2.1630   -1.1124 F   0  0  0  0  0  0  0  0  0  0  0  0
   -3.3828    3.7576   -0.4502 F   0  0  0  0  0  0  0  0  0  0  0  0
   -5.6687    4.1775   -0.2388 F   0  0  0  0  0  0  0  0  0  0  0  0
   -4.6643    2.5939    1.1109 F   0  0  0  0  0  0  0  0  0  0  0  0
  1  8  1  0  0  0  0
  1  2  1  0  0  0  0
  2  3  1  0  0  0  0
  4  1  2  0  0  0  0
  5  6  2  0  0  0  0
  5  4  1  0  0  0  0
  6  7  1  0  0  0  0
  7 12  1  0  0  0  0
  7  8  2  0  0  0  0
  8 13  1  0  0  0  0
 10  5  1  0  0  0  0
 11  6  1  0  0  0  0
 14 18  1  0  0  0  0
 15 14  1  0  0  0  0
 16  9  1  0  0  0  0
 17 14  1  0  0  0  0
M  RAD  3   2   2   3   3   4   2
M  END
