Coordinates from ORCA-job PhN2+~BF4-_B3LYPG-6-31G_dp-CH-Scan-d09-49-n800
 OpenBabel11261919213D

 18 16  0  0  0  0  0  0  0  0999 V2000
   -1.4906    0.2901    0.1174 C   0  0  0  0  0  0  0  0  0  0  0  0
   -2.8720    0.2417    0.2900 N   0  0  0  0  0  0  0  0  0  0  0  0
   -3.9838    0.2710    0.4135 N   0  0  0  0  0  0  0  0  0  0  0  0
   -1.0327    1.5827   -0.1856 C   0  0  0  0  0  0  0  0  0  0  0  0
    0.3823    1.5487   -0.3492 C   0  0  0  0  0  0  0  0  0  0  0  0
    1.1525    0.3970   -0.2232 C   0  0  0  0  0  0  0  0  0  0  0  0
    0.5711   -0.8580    0.0881 C   0  0  0  0  0  0  0  0  0  0  0  0
   -0.7910   -0.9387    0.2689 C   0  0  0  0  0  0  0  0  0  0  0  0
   -3.4789    4.4719   -0.4987 H   0  0  0  0  0  0  0  0  0  0  0  0
    0.9043    2.4759   -0.5902 H   0  0  0  0  0  0  0  0  0  0  0  0
    2.2310    0.4457   -0.3660 H   0  0  0  0  0  0  0  0  0  0  0  0
    1.1919   -1.7431    0.1829 H   0  0  0  0  0  0  0  0  0  0  0  0
   -1.2936   -1.8715    0.5104 H   0  0  0  0  0  0  0  0  0  0  0  0
   -5.7138    3.1997   -0.1231 B   0  0  0  0  0  0  0  0  0  0  0  0
   -5.2234    2.4930   -1.1371 F   0  0  0  0  0  0  0  0  0  0  0  0
   -4.3328    4.8354   -0.4293 F   0  0  0  0  0  0  0  0  0  0  0  0
   -6.7917    3.9431   -0.2968 F   0  0  0  0  0  0  0  0  0  0  0  0
   -5.2826    2.9286    1.1031 F   0  0  0  0  0  0  0  0  0  0  0  0
  1  8  1  0  0  0  0
  1  2  1  0  0  0  0
  2  3  1  0  0  0  0
  4  1  2  0  0  0  0
  5  6  2  0  0  0  0
  5  4  1  0  0  0  0
  6  7  1  0  0  0  0
  7 12  1  0  0  0  0
  7  8  2  0  0  0  0
  8 13  1  0  0  0  0
  9 16  1  0  0  0  0
 10  5  1  0  0  0  0
 11  6  1  0  0  0  0
 14 18  1  0  0  0  0
 15 14  1  0  0  0  0
 17 14  1  0  0  0  0
M  RAD  3   2   2   3   3   4   2
M  END
