Coordinates from ORCA-job PhN2+~BF4-_B3LYPG-6-31G_dp-CH-Scan-d09-49-n800
 OpenBabel11261919213D

 18 16  0  0  0  0  0  0  0  0999 V2000
   -1.6120    0.3154    0.1024 C   0  0  0  0  0  0  0  0  0  0  0  0
   -2.9872    0.1932    0.2658 N   0  0  0  0  0  0  0  0  0  0  0  0
   -4.0981    0.1483    0.3854 N   0  0  0  0  0  0  0  0  0  0  0  0
   -1.2018    1.6248   -0.2041 C   0  0  0  0  0  0  0  0  0  0  0  0
    0.2118    1.6570   -0.3561 C   0  0  0  0  0  0  0  0  0  0  0  0
    1.0324    0.5416   -0.2166 C   0  0  0  0  0  0  0  0  0  0  0  0
    0.5053   -0.7353    0.0961 C   0  0  0  0  0  0  0  0  0  0  0  0
   -0.8536   -0.8765    0.2651 C   0  0  0  0  0  0  0  0  0  0  0  0
   -3.1604    3.9847   -0.4635 H   0  0  0  0  0  0  0  0  0  0  0  0
    0.6911    2.6058   -0.5979 H   0  0  0  0  0  0  0  0  0  0  0  0
    2.1086    0.6394   -0.3499 H   0  0  0  0  0  0  0  0  0  0  0  0
    1.1634   -1.5916    0.2013 H   0  0  0  0  0  0  0  0  0  0  0  0
   -1.3146   -1.8302    0.5069 H   0  0  0  0  0  0  0  0  0  0  0  0
   -5.5362    3.1978   -0.1145 B   0  0  0  0  0  0  0  0  0  0  0  0
   -5.2599    2.3949   -1.1414 F   0  0  0  0  0  0  0  0  0  0  0  0
   -3.9437    4.4949   -0.4641 F   0  0  0  0  0  0  0  0  0  0  0  0
   -6.4732    4.1236   -0.2365 F   0  0  0  0  0  0  0  0  0  0  0  0
   -5.1258    2.8253    1.0966 F   0  0  0  0  0  0  0  0  0  0  0  0
  1  8  1  0  0  0  0
  1  2  1  0  0  0  0
  2  3  1  0  0  0  0
  4  1  2  0  0  0  0
  5  6  2  0  0  0  0
  5  4  1  0  0  0  0
  6  7  1  0  0  0  0
  7 12  1  0  0  0  0
  7  8  2  0  0  0  0
  8 13  1  0  0  0  0
 10  5  1  0  0  0  0
 11  6  1  0  0  0  0
 14 18  1  0  0  0  0
 15 14  1  0  0  0  0
 16  9  1  0  0  0  0
 17 14  1  0  0  0  0
M  RAD  3   2   2   3   3   4   2
M  END
