Coordinates from ORCA-job PhN2+~BF4-_B3LYPG-6-31G_dp-CH-Scan-d09-49-n800
 OpenBabel11261919213D

 18 16  0  0  0  0  0  0  0  0999 V2000
   -1.3729    0.2923    0.1426 C   0  0  0  0  0  0  0  0  0  0  0  0
   -2.7489    0.3344    0.3632 N   0  0  0  0  0  0  0  0  0  0  0  0
   -3.8513    0.4442    0.5256 N   0  0  0  0  0  0  0  0  0  0  0  0
   -0.8580    1.5484   -0.2116 C   0  0  0  0  0  0  0  0  0  0  0  0
    0.5468    1.4304   -0.4242 C   0  0  0  0  0  0  0  0  0  0  0  0
    1.2551    0.2404   -0.2940 C   0  0  0  0  0  0  0  0  0  0  0  0
    0.6163   -0.9718    0.0728 C   0  0  0  0  0  0  0  0  0  0  0  0
   -0.7404   -0.9711    0.3045 C   0  0  0  0  0  0  0  0  0  0  0  0
   -3.9719    4.8665   -0.5017 H   0  0  0  0  0  0  0  0  0  0  0  0
    1.1106    2.3203   -0.7085 H   0  0  0  0  0  0  0  0  0  0  0  0
    2.3287    0.2234   -0.4764 H   0  0  0  0  0  0  0  0  0  0  0  0
    1.1907   -1.8876    0.1700 H   0  0  0  0  0  0  0  0  0  0  0  0
   -1.2851   -1.8672    0.5896 H   0  0  0  0  0  0  0  0  0  0  0  0
   -5.8120    3.2102   -0.1733 B   0  0  0  0  0  0  0  0  0  0  0  0
   -4.8404    2.7509   -0.9655 F   0  0  0  0  0  0  0  0  0  0  0  0
   -4.7418    5.1151   -0.0414 F   0  0  0  0  0  0  0  0  0  0  0  0
   -6.9111    3.7024   -0.7151 F   0  0  0  0  0  0  0  0  0  0  0  0
   -5.7684    2.9322    1.1186 F   0  0  0  0  0  0  0  0  0  0  0  0
  1  8  1  0  0  0  0
  1  2  1  0  0  0  0
  2  3  1  0  0  0  0
  4  1  2  0  0  0  0
  5  6  2  0  0  0  0
  5  4  1  0  0  0  0
  6  7  1  0  0  0  0
  7 12  1  0  0  0  0
  7  8  2  0  0  0  0
  8 13  1  0  0  0  0
  9 16  1  0  0  0  0
 10  5  1  0  0  0  0
 11  6  1  0  0  0  0
 14 18  1  0  0  0  0
 15 14  1  0  0  0  0
 17 14  1  0  0  0  0
M  RAD  3   2   2   3   3   4   2
M  END
