Coordinates from ORCA-job PhN2+~BF4-_B3LYPG-6-31G_dp-CH-Scan-d09-49-n800
 OpenBabel11261919213D

 18 16  0  0  0  0  0  0  0  0999 V2000
   -1.9384    0.4253    0.0178 C   0  0  0  0  0  0  0  0  0  0  0  0
   -3.2958    0.1589    0.1077 N   0  0  0  0  0  0  0  0  0  0  0  0
   -4.3906   -0.0382    0.1634 N   0  0  0  0  0  0  0  0  0  0  0  0
   -1.5652    1.7391   -0.3184 C   0  0  0  0  0  0  0  0  0  0  0  0
   -0.1725    1.9083   -0.3988 C   0  0  0  0  0  0  0  0  0  0  0  0
    0.7253    0.8673   -0.1634 C   0  0  0  0  0  0  0  0  0  0  0  0
    0.2778   -0.4255    0.1716 C   0  0  0  0  0  0  0  0  0  0  0  0
   -1.0776   -0.6704    0.2683 C   0  0  0  0  0  0  0  0  0  0  0  0
   -2.6119    2.8846   -0.5286 H   0  0  0  0  0  0  0  0  0  0  0  0
    0.2208    2.8890   -0.6526 H   0  0  0  0  0  0  0  0  0  0  0  0
    1.7943    1.0508   -0.2377 H   0  0  0  0  0  0  0  0  0  0  0  0
    0.9882   -1.2247    0.3532 H   0  0  0  0  0  0  0  0  0  0  0  0
   -1.4700   -1.6493    0.5237 H   0  0  0  0  0  0  0  0  0  0  0  0
   -4.7698    3.1409   -0.0681 B   0  0  0  0  0  0  0  0  0  0  0  0
   -5.1595    2.1881   -0.9891 F   0  0  0  0  0  0  0  0  0  0  0  0
   -3.4189    3.6948   -0.6391 F   0  0  0  0  0  0  0  0  0  0  0  0
   -5.5880    4.2131    0.0337 F   0  0  0  0  0  0  0  0  0  0  0  0
   -4.4020    2.5612    1.1315 F   0  0  0  0  0  0  0  0  0  0  0  0
  1  2  1  0  0  0  0
  1  8  2  0  0  0  0
  2  3  1  0  0  0  0
  4  1  1  0  0  0  0
  5  4  2  0  0  0  0
  5  6  1  0  0  0  0
  6  7  2  0  0  0  0
  7  8  1  0  0  0  0
  7 12  1  0  0  0  0
  8 13  1  0  0  0  0
 10  5  1  0  0  0  0
 11  6  1  0  0  0  0
 14 17  1  0  0  0  0
 14 18  1  0  0  0  0
 15 14  1  0  0  0  0
 16  9  1  0  0  0  0
M  RAD  3   2   2   3   3   4   2
M  END
