Coordinates from ORCA-job PhN2+~BF4-_B3LYPG-6-31G_dp-CH-Scan-d09-49-n800
 OpenBabel11261919213D

 18 16  0  0  0  0  0  0  0  0999 V2000
   -1.8834    0.4102    0.0962 C   0  0  0  0  0  0  0  0  0  0  0  0
   -3.2382    0.1654    0.2647 N   0  0  0  0  0  0  0  0  0  0  0  0
   -4.3324   -0.0045    0.3935 N   0  0  0  0  0  0  0  0  0  0  0  0
   -1.5255    1.7374   -0.2066 C   0  0  0  0  0  0  0  0  0  0  0  0
   -0.1301    1.8776   -0.3621 C   0  0  0  0  0  0  0  0  0  0  0  0
    0.7625    0.8158   -0.2268 C   0  0  0  0  0  0  0  0  0  0  0  0
    0.3160   -0.4865    0.0806 C   0  0  0  0  0  0  0  0  0  0  0  0
   -1.0336   -0.7146    0.2495 C   0  0  0  0  0  0  0  0  0  0  0  0
   -2.6939    3.0661   -0.3611 H   0  0  0  0  0  0  0  0  0  0  0  0
    0.2725    2.8595   -0.6005 H   0  0  0  0  0  0  0  0  0  0  0  0
    1.8282    0.9862   -0.3605 H   0  0  0  0  0  0  0  0  0  0  0  0
    1.0236   -1.3022    0.1836 H   0  0  0  0  0  0  0  0  0  0  0  0
   -1.4287   -1.6972    0.4876 H   0  0  0  0  0  0  0  0  0  0  0  0
   -4.9063    3.1516   -0.1472 B   0  0  0  0  0  0  0  0  0  0  0  0
   -4.9988    2.2003   -1.1240 F   0  0  0  0  0  0  0  0  0  0  0  0
   -3.4139    3.8085   -0.4391 F   0  0  0  0  0  0  0  0  0  0  0  0
   -5.7250    4.2125   -0.2580 F   0  0  0  0  0  0  0  0  0  0  0  0
   -4.7471    2.6270    1.1051 F   0  0  0  0  0  0  0  0  0  0  0  0
  1  8  1  0  0  0  0
  1  2  1  0  0  0  0
  2  3  1  0  0  0  0
  4  1  2  0  0  0  0
  5  6  2  0  0  0  0
  5  4  1  0  0  0  0
  6  7  1  0  0  0  0
  7 12  1  0  0  0  0
  7  8  2  0  0  0  0
  8 13  1  0  0  0  0
 10  5  1  0  0  0  0
 11  6  1  0  0  0  0
 14 18  1  0  0  0  0
 15 14  1  0  0  0  0
 16  9  1  0  0  0  0
 17 14  1  0  0  0  0
M  RAD  3   2   2   3   3   4   2
M  END
