Coordinates from ORCA-job PhN2+~BF4-_B3LYPG-6-31G_dp-CH-Scan-d09-49-n800
 OpenBabel11261919213D

 18 16  0  0  0  0  0  0  0  0999 V2000
   -1.4288    0.2781    0.1214 C   0  0  0  0  0  0  0  0  0  0  0  0
   -2.8079    0.2768    0.3226 N   0  0  0  0  0  0  0  0  0  0  0  0
   -3.9158    0.3505    0.4653 N   0  0  0  0  0  0  0  0  0  0  0  0
   -0.9497    1.5462   -0.2422 C   0  0  0  0  0  0  0  0  0  0  0  0
    0.4611    1.4711   -0.4336 C   0  0  0  0  0  0  0  0  0  0  0  0
    1.2059    0.3067   -0.2778 C   0  0  0  0  0  0  0  0  0  0  0  0
    0.6019   -0.9210    0.0958 C   0  0  0  0  0  0  0  0  0  0  0  0
   -0.7573   -0.9615    0.3084 C   0  0  0  0  0  0  0  0  0  0  0  0
   -3.8042    4.7355   -0.5210 H   0  0  0  0  0  0  0  0  0  0  0  0
    0.9998    2.3752   -0.7218 H   0  0  0  0  0  0  0  0  0  0  0  0
    2.2821    0.3228   -0.4447 H   0  0  0  0  0  0  0  0  0  0  0  0
    1.2041   -1.8163    0.2130 H   0  0  0  0  0  0  0  0  0  0  0  0
   -1.2767   -1.8713    0.5975 H   0  0  0  0  0  0  0  0  0  0  0  0
   -5.7510    3.2091   -0.1523 B   0  0  0  0  0  0  0  0  0  0  0  0
   -4.8530    2.6829   -0.9884 F   0  0  0  0  0  0  0  0  0  0  0  0
   -4.5581    5.0306   -0.0612 F   0  0  0  0  0  0  0  0  0  0  0  0
   -6.8384    3.7762   -0.6423 F   0  0  0  0  0  0  0  0  0  0  0  0
   -5.6679    2.9216    1.1362 F   0  0  0  0  0  0  0  0  0  0  0  0
  1  8  1  0  0  0  0
  1  2  1  0  0  0  0
  2  3  1  0  0  0  0
  4  1  2  0  0  0  0
  5  6  2  0  0  0  0
  5  4  1  0  0  0  0
  6  7  1  0  0  0  0
  7 12  1  0  0  0  0
  7  8  2  0  0  0  0
  8 13  1  0  0  0  0
  9 16  1  0  0  0  0
 10  5  1  0  0  0  0
 11  6  1  0  0  0  0
 14 18  1  0  0  0  0
 15 14  1  0  0  0  0
 17 14  1  0  0  0  0
M  RAD  3   2   2   3   3   4   2
M  END
