Coordinates from ORCA-job PhN2+~BF4-_B3LYPG-6-31G_dp-CH-Scan-d09-49-n800
 OpenBabel11261919213D

 18 16  0  0  0  0  0  0  0  0999 V2000
   -1.8656    0.4012    0.0928 C   0  0  0  0  0  0  0  0  0  0  0  0
   -3.2218    0.1614    0.2573 N   0  0  0  0  0  0  0  0  0  0  0  0
   -4.3176   -0.0031    0.3826 N   0  0  0  0  0  0  0  0  0  0  0  0
   -1.5084    1.7285   -0.2111 C   0  0  0  0  0  0  0  0  0  0  0  0
   -0.1107    1.8637   -0.3626 C   0  0  0  0  0  0  0  0  0  0  0  0
    0.7795    0.8008   -0.2229 C   0  0  0  0  0  0  0  0  0  0  0  0
    0.3304   -0.5010    0.0856 C   0  0  0  0  0  0  0  0  0  0  0  0
   -1.0196   -0.7266    0.2510 C   0  0  0  0  0  0  0  0  0  0  0  0
   -2.7277    3.1184   -0.3752 H   0  0  0  0  0  0  0  0  0  0  0  0
    0.2963    2.8439   -0.6015 H   0  0  0  0  0  0  0  0  0  0  0  0
    1.8461    0.9690   -0.3537 H   0  0  0  0  0  0  0  0  0  0  0  0
    1.0368   -1.3174    0.1920 H   0  0  0  0  0  0  0  0  0  0  0  0
   -1.4174   -1.7081    0.4896 H   0  0  0  0  0  0  0  0  0  0  0  0
   -4.9523    3.1592   -0.1398 B   0  0  0  0  0  0  0  0  0  0  0  0
   -5.0363    2.2182   -1.1213 F   0  0  0  0  0  0  0  0  0  0  0  0
   -3.4383    3.8395   -0.4506 F   0  0  0  0  0  0  0  0  0  0  0  0
   -5.7620    4.2245   -0.2437 F   0  0  0  0  0  0  0  0  0  0  0  0
   -4.7654    2.6410    1.1066 F   0  0  0  0  0  0  0  0  0  0  0  0
  1  8  1  0  0  0  0
  1  2  1  0  0  0  0
  2  3  1  0  0  0  0
  4  1  2  0  0  0  0
  5  6  2  0  0  0  0
  5  4  1  0  0  0  0
  6  7  1  0  0  0  0
  7 12  1  0  0  0  0
  7  8  2  0  0  0  0
  8 13  1  0  0  0  0
 10  5  1  0  0  0  0
 11  6  1  0  0  0  0
 14 18  1  0  0  0  0
 15 14  1  0  0  0  0
 16  9  1  0  0  0  0
 17 14  1  0  0  0  0
M  RAD  3   2   2   3   3   4   2
M  END
