Coordinates from ORCA-job PhN2+~BF4-_B3LYPG-6-31G_dp-CH-Scan-d09-49-n800
 OpenBabel11261919213D

 18 16  0  0  0  0  0  0  0  0999 V2000
   -1.9473    0.4297    0.0059 C   0  0  0  0  0  0  0  0  0  0  0  0
   -3.3050    0.1618    0.0828 N   0  0  0  0  0  0  0  0  0  0  0  0
   -4.3996   -0.0382    0.1263 N   0  0  0  0  0  0  0  0  0  0  0  0
   -1.5677    1.7398   -0.3357 C   0  0  0  0  0  0  0  0  0  0  0  0
   -0.1764    1.9132   -0.4051 C   0  0  0  0  0  0  0  0  0  0  0  0
    0.7200    0.8743   -0.1536 C   0  0  0  0  0  0  0  0  0  0  0  0
    0.2699   -0.4158    0.1861 C   0  0  0  0  0  0  0  0  0  0  0  0
   -1.0866   -0.6617    0.2716 C   0  0  0  0  0  0  0  0  0  0  0  0
   -2.5931    2.8553   -0.5540 H   0  0  0  0  0  0  0  0  0  0  0  0
    0.2161    2.8933   -0.6616 H   0  0  0  0  0  0  0  0  0  0  0  0
    1.7894    1.0584   -0.2187 H   0  0  0  0  0  0  0  0  0  0  0  0
    0.9789   -1.2133    0.3803 H   0  0  0  0  0  0  0  0  0  0  0  0
   -1.4799   -1.6393    0.5302 H   0  0  0  0  0  0  0  0  0  0  0  0
   -4.7471    3.1377   -0.0584 B   0  0  0  0  0  0  0  0  0  0  0  0
   -5.1800    2.1823   -0.9633 F   0  0  0  0  0  0  0  0  0  0  0  0
   -3.4309    3.6834   -0.6687 F   0  0  0  0  0  0  0  0  0  0  0  0
   -5.5698    4.2042    0.0813 F   0  0  0  0  0  0  0  0  0  0  0  0
   -4.3448    2.5482    1.1296 F   0  0  0  0  0  0  0  0  0  0  0  0
  1  2  1  0  0  0  0
  1  8  2  0  0  0  0
  2  3  1  0  0  0  0
  4  1  1  0  0  0  0
  5  4  2  0  0  0  0
  5  6  1  0  0  0  0
  6  7  2  0  0  0  0
  7  8  1  0  0  0  0
  7 12  1  0  0  0  0
  8 13  1  0  0  0  0
 10  5  1  0  0  0  0
 11  6  1  0  0  0  0
 14 17  1  0  0  0  0
 14 18  1  0  0  0  0
 15 14  1  0  0  0  0
 16  9  1  0  0  0  0
M  RAD  3   2   2   3   3   4   2
M  END
