Coordinates from ORCA-job PhN2+~BF4-_B3LYPG-6-31G_dp-CH-Scan-d09-49-n800
 OpenBabel11261919213D

 18 16  0  0  0  0  0  0  0  0999 V2000
   -1.7160    0.3509    0.1010 C   0  0  0  0  0  0  0  0  0  0  0  0
   -3.0833    0.1784    0.2684 N   0  0  0  0  0  0  0  0  0  0  0  0
   -4.1886    0.0771    0.3964 N   0  0  0  0  0  0  0  0  0  0  0  0
   -1.3321    1.6708   -0.1993 C   0  0  0  0  0  0  0  0  0  0  0  0
    0.0763    1.7476   -0.3531 C   0  0  0  0  0  0  0  0  0  0  0  0
    0.9277    0.6541   -0.2201 C   0  0  0  0  0  0  0  0  0  0  0  0
    0.4355   -0.6367    0.0855 C   0  0  0  0  0  0  0  0  0  0  0  0
   -0.9194   -0.8161    0.2550 C   0  0  0  0  0  0  0  0  0  0  0  0
   -2.9687    3.5965   -0.4220 H   0  0  0  0  0  0  0  0  0  0  0  0
    0.5256    2.7112   -0.5902 H   0  0  0  0  0  0  0  0  0  0  0  0
    2.0002    0.7831   -0.3535 H   0  0  0  0  0  0  0  0  0  0  0  0
    1.1157   -1.4760    0.1856 H   0  0  0  0  0  0  0  0  0  0  0  0
   -1.3525   -1.7836    0.4916 H   0  0  0  0  0  0  0  0  0  0  0  0
   -5.3187    3.1897   -0.1241 B   0  0  0  0  0  0  0  0  0  0  0  0
   -5.1898    2.3119   -1.1287 F   0  0  0  0  0  0  0  0  0  0  0  0
   -3.7008    4.1958   -0.4684 F   0  0  0  0  0  0  0  0  0  0  0  0
   -6.1712    4.1999   -0.2514 F   0  0  0  0  0  0  0  0  0  0  0  0
   -4.9937    2.7586    1.1023 F   0  0  0  0  0  0  0  0  0  0  0  0
  1  8  1  0  0  0  0
  1  2  1  0  0  0  0
  2  3  1  0  0  0  0
  4  1  2  0  0  0  0
  5  6  2  0  0  0  0
  5  4  1  0  0  0  0
  6  7  1  0  0  0  0
  7 12  1  0  0  0  0
  7  8  2  0  0  0  0
  8 13  1  0  0  0  0
 10  5  1  0  0  0  0
 11  6  1  0  0  0  0
 14 18  1  0  0  0  0
 15 14  1  0  0  0  0
 16  9  1  0  0  0  0
 17 14  1  0  0  0  0
M  RAD  3   2   2   3   3   4   2
M  END
