Coordinates from ORCA-job PhN2+~BF4-_B3LYPG-6-31G_dp-CH-Scan-d09-49-n800
 OpenBabel11261919213D

 18 16  0  0  0  0  0  0  0  0999 V2000
   -1.4836    0.2708    0.1125 C   0  0  0  0  0  0  0  0  0  0  0  0
   -2.8625    0.2277    0.3075 N   0  0  0  0  0  0  0  0  0  0  0  0
   -3.9723    0.2641    0.4478 N   0  0  0  0  0  0  0  0  0  0  0  0
   -1.0369    1.5516   -0.2494 C   0  0  0  0  0  0  0  0  0  0  0  0
    0.3764    1.5160   -0.4311 C   0  0  0  0  0  0  0  0  0  0  0  0
    1.1530    0.3733   -0.2686 C   0  0  0  0  0  0  0  0  0  0  0  0
    0.5813   -0.8704    0.1018 C   0  0  0  0  0  0  0  0  0  0  0  0
   -0.7777   -0.9488    0.3049 C   0  0  0  0  0  0  0  0  0  0  0  0
   -3.6311    4.5887   -0.5280 H   0  0  0  0  0  0  0  0  0  0  0  0
    0.8913    2.4345   -0.7165 H   0  0  0  0  0  0  0  0  0  0  0  0
    2.2294    0.4201   -0.4276 H   0  0  0  0  0  0  0  0  0  0  0  0
    1.2074   -1.7484    0.2242 H   0  0  0  0  0  0  0  0  0  0  0  0
   -1.2731   -1.8728    0.5913 H   0  0  0  0  0  0  0  0  0  0  0  0
   -5.6857    3.2050   -0.1416 B   0  0  0  0  0  0  0  0  0  0  0  0
   -4.8601    2.6049   -1.0016 F   0  0  0  0  0  0  0  0  0  0  0  0
   -4.3811    4.9350   -0.0981 F   0  0  0  0  0  0  0  0  0  0  0  0
   -6.7480    3.8432   -0.5991 F   0  0  0  0  0  0  0  0  0  0  0  0
   -5.5807    2.9186    1.1464 F   0  0  0  0  0  0  0  0  0  0  0  0
  1  8  1  0  0  0  0
  1  2  1  0  0  0  0
  2  3  1  0  0  0  0
  4  1  2  0  0  0  0
  5  6  2  0  0  0  0
  5  4  1  0  0  0  0
  6  7  1  0  0  0  0
  7 12  1  0  0  0  0
  7  8  2  0  0  0  0
  8 13  1  0  0  0  0
  9 16  1  0  0  0  0
 10  5  1  0  0  0  0
 11  6  1  0  0  0  0
 14 18  1  0  0  0  0
 15 14  1  0  0  0  0
 17 14  1  0  0  0  0
M  RAD  3   2   2   3   3   4   2
M  END
