Coordinates from ORCA-job PhN2+~BF4-_B3LYPG-6-31G_dp-CH-Scan-d09-49-n800
 OpenBabel11261919213D

 18 17  0  0  0  0  0  0  0  0999 V2000
   -1.9871    0.4810   -0.0779 C   0  0  0  0  0  0  0  0  0  0  0  0
   -3.3484    0.2246   -0.1085 N   0  0  0  0  0  0  0  0  0  0  0  0
   -4.4367   -0.0026   -0.1734 N   0  0  0  0  0  0  0  0  0  0  0  0
   -1.5318    1.7549   -0.4517 C   0  0  0  0  0  0  0  0  0  0  0  0
   -0.1514    1.9394   -0.4423 C   0  0  0  0  0  0  0  0  0  0  0  0
    0.7097    0.9036   -0.0695 C   0  0  0  0  0  0  0  0  0  0  0  0
    0.2151   -0.3561    0.3016 C   0  0  0  0  0  0  0  0  0  0  0  0
   -1.1510   -0.5883    0.2989 C   0  0  0  0  0  0  0  0  0  0  0  0
   -2.3673    2.6591   -0.7445 H   0  0  0  0  0  0  0  0  0  0  0  0
    0.2528    2.9062   -0.7224 H   0  0  0  0  0  0  0  0  0  0  0  0
    1.7824    1.0747   -0.0642 H   0  0  0  0  0  0  0  0  0  0  0  0
    0.8951   -1.1501    0.5901 H   0  0  0  0  0  0  0  0  0  0  0  0
   -1.5699   -1.5487    0.5782 H   0  0  0  0  0  0  0  0  0  0  0  0
   -4.6654    3.1062   -0.0093 B   0  0  0  0  0  0  0  0  0  0  0  0
   -5.4197    2.1116   -0.6769 F   0  0  0  0  0  0  0  0  0  0  0  0
   -3.6963    3.6143   -0.9462 F   0  0  0  0  0  0  0  0  0  0  0  0
   -5.4516    4.1163    0.4689 F   0  0  0  0  0  0  0  0  0  0  0  0
   -3.9325    2.4672    1.0241 F   0  0  0  0  0  0  0  0  0  0  0  0
  1  8  2  0  0  0  0
  2  1  1  0  0  0  0
  3  2  1  0  0  0  0
  4  5  2  0  0  0  0
  4  1  1  0  0  0  0
  5  6  1  0  0  0  0
  6 11  1  0  0  0  0
  6  7  2  0  0  0  0
  7 12  1  0  0  0  0
  8  7  1  0  0  0  0
  8 13  1  0  0  0  0
  9  4  1  0  0  0  0
 10  5  1  0  0  0  0
 14 17  1  0  0  0  0
 14 18  1  0  0  0  0
 15 14  1  0  0  0  0
 16 14  1  0  0  0  0
M  RAD  2   2   2   3   3
M  END
