Coordinates from ORCA-job PhN2+~BF4-_B3LYPG-6-31G_dp-CH-Scan-d09-49-n800
 OpenBabel11261919213D

 18 16  0  0  0  0  0  0  0  0999 V2000
   -1.4473    0.2774    0.1155 C   0  0  0  0  0  0  0  0  0  0  0  0
   -2.8272    0.2645    0.3128 N   0  0  0  0  0  0  0  0  0  0  0  0
   -3.9362    0.3297    0.4505 N   0  0  0  0  0  0  0  0  0  0  0  0
   -0.9778    1.5484   -0.2503 C   0  0  0  0  0  0  0  0  0  0  0  0
    0.4341    1.4853   -0.4362 C   0  0  0  0  0  0  0  0  0  0  0  0
    1.1887    0.3279   -0.2738 C   0  0  0  0  0  0  0  0  0  0  0  0
    0.5941   -0.9038    0.1011 C   0  0  0  0  0  0  0  0  0  0  0  0
   -0.7656   -0.9555    0.3087 C   0  0  0  0  0  0  0  0  0  0  0  0
   -3.7478    4.6859   -0.5218 H   0  0  0  0  0  0  0  0  0  0  0  0
    0.9659    2.3932   -0.7251 H   0  0  0  0  0  0  0  0  0  0  0  0
    2.2653    0.3531   -0.4366 H   0  0  0  0  0  0  0  0  0  0  0  0
    1.2035   -1.7934    0.2234 H   0  0  0  0  0  0  0  0  0  0  0  0
   -1.2781   -1.8690    0.5986 H   0  0  0  0  0  0  0  0  0  0  0  0
   -5.7284    3.2044   -0.1469 B   0  0  0  0  0  0  0  0  0  0  0  0
   -4.8517    2.6596   -0.9938 F   0  0  0  0  0  0  0  0  0  0  0  0
   -4.4984    4.9986   -0.0681 F   0  0  0  0  0  0  0  0  0  0  0  0
   -6.8106    3.7924   -0.6238 F   0  0  0  0  0  0  0  0  0  0  0  0
   -5.6363    2.9145    1.1407 F   0  0  0  0  0  0  0  0  0  0  0  0
  1  8  1  0  0  0  0
  1  2  1  0  0  0  0
  2  3  1  0  0  0  0
  4  1  2  0  0  0  0
  5  6  2  0  0  0  0
  5  4  1  0  0  0  0
  6  7  1  0  0  0  0
  7 12  1  0  0  0  0
  7  8  2  0  0  0  0
  8 13  1  0  0  0  0
  9 16  1  0  0  0  0
 10  5  1  0  0  0  0
 11  6  1  0  0  0  0
 14 18  1  0  0  0  0
 15 14  1  0  0  0  0
 17 14  1  0  0  0  0
M  RAD  3   2   2   3   3   4   2
M  END
