Coordinates from ORCA-job PhN2+~BF4-_B3LYPG-6-31G_dp-CH-Scan-d09-49-n800
 OpenBabel11261919213D

 18 16  0  0  0  0  0  0  0  0999 V2000
   -1.4464    0.2763    0.1158 C   0  0  0  0  0  0  0  0  0  0  0  0
   -2.8262    0.2631    0.3127 N   0  0  0  0  0  0  0  0  0  0  0  0
   -3.9349    0.3288    0.4523 N   0  0  0  0  0  0  0  0  0  0  0  0
   -0.9769    1.5478   -0.2484 C   0  0  0  0  0  0  0  0  0  0  0  0
    0.4351    1.4849   -0.4343 C   0  0  0  0  0  0  0  0  0  0  0  0
    1.1896    0.3273   -0.2732 C   0  0  0  0  0  0  0  0  0  0  0  0
    0.5951   -0.9048    0.1003 C   0  0  0  0  0  0  0  0  0  0  0  0
   -0.7646   -0.9569    0.3076 C   0  0  0  0  0  0  0  0  0  0  0  0
   -3.7510    4.6879   -0.5263 H   0  0  0  0  0  0  0  0  0  0  0  0
    0.9669    2.3931   -0.7221 H   0  0  0  0  0  0  0  0  0  0  0  0
    2.2662    0.3528   -0.4358 H   0  0  0  0  0  0  0  0  0  0  0  0
    1.2046   -1.7946    0.2216 H   0  0  0  0  0  0  0  0  0  0  0  0
   -1.2771   -1.8707    0.5965 H   0  0  0  0  0  0  0  0  0  0  0  0
   -5.7301    3.2060   -0.1462 B   0  0  0  0  0  0  0  0  0  0  0  0
   -4.8547    2.6605   -0.9937 F   0  0  0  0  0  0  0  0  0  0  0  0
   -4.5005    5.0008   -0.0711 F   0  0  0  0  0  0  0  0  0  0  0  0
   -6.8130    3.7934   -0.6221 F   0  0  0  0  0  0  0  0  0  0  0  0
   -5.6359    2.9176    1.1416 F   0  0  0  0  0  0  0  0  0  0  0  0
  1  8  1  0  0  0  0
  1  2  1  0  0  0  0
  2  3  1  0  0  0  0
  4  1  2  0  0  0  0
  5  6  2  0  0  0  0
  5  4  1  0  0  0  0
  6  7  1  0  0  0  0
  7 12  1  0  0  0  0
  7  8  2  0  0  0  0
  8 13  1  0  0  0  0
  9 16  1  0  0  0  0
 10  5  1  0  0  0  0
 11  6  1  0  0  0  0
 14 18  1  0  0  0  0
 15 14  1  0  0  0  0
 17 14  1  0  0  0  0
M  RAD  3   2   2   3   3   4   2
M  END
