Coordinates from ORCA-job PhN2+~BF4-_B3LYPG-6-31G_dp-CH-Scan-d09-49-n800
 OpenBabel11261919213D

 18 16  0  0  0  0  0  0  0  0999 V2000
   -1.4444    0.2751    0.1169 C   0  0  0  0  0  0  0  0  0  0  0  0
   -2.8239    0.2624    0.3144 N   0  0  0  0  0  0  0  0  0  0  0  0
   -3.9326    0.3284    0.4539 N   0  0  0  0  0  0  0  0  0  0  0  0
   -0.9748    1.5468   -0.2468 C   0  0  0  0  0  0  0  0  0  0  0  0
    0.4371    1.4835   -0.4335 C   0  0  0  0  0  0  0  0  0  0  0  0
    1.1913    0.3256   -0.2735 C   0  0  0  0  0  0  0  0  0  0  0  0
    0.5965   -0.9067    0.0995 C   0  0  0  0  0  0  0  0  0  0  0  0
   -0.7630   -0.9584    0.3076 C   0  0  0  0  0  0  0  0  0  0  0  0
   -3.7566    4.6932   -0.5276 H   0  0  0  0  0  0  0  0  0  0  0  0
    0.9691    2.3917   -0.7210 H   0  0  0  0  0  0  0  0  0  0  0  0
    2.2679    0.3507   -0.4368 H   0  0  0  0  0  0  0  0  0  0  0  0
    1.2058   -1.7967    0.2199 H   0  0  0  0  0  0  0  0  0  0  0  0
   -1.2756   -1.8723    0.5961 H   0  0  0  0  0  0  0  0  0  0  0  0
   -5.7329    3.2079   -0.1468 B   0  0  0  0  0  0  0  0  0  0  0  0
   -4.8562    2.6634   -0.9937 F   0  0  0  0  0  0  0  0  0  0  0  0
   -4.5062    5.0049   -0.0713 F   0  0  0  0  0  0  0  0  0  0  0  0
   -6.8163    3.7939   -0.6234 F   0  0  0  0  0  0  0  0  0  0  0  0
   -5.6390    2.9197    1.1411 F   0  0  0  0  0  0  0  0  0  0  0  0
  1  8  1  0  0  0  0
  1  2  1  0  0  0  0
  2  3  1  0  0  0  0
  4  1  2  0  0  0  0
  5  6  2  0  0  0  0
  5  4  1  0  0  0  0
  6  7  1  0  0  0  0
  7 12  1  0  0  0  0
  7  8  2  0  0  0  0
  8 13  1  0  0  0  0
  9 16  1  0  0  0  0
 10  5  1  0  0  0  0
 11  6  1  0  0  0  0
 14 18  1  0  0  0  0
 15 14  1  0  0  0  0
 17 14  1  0  0  0  0
M  RAD  3   2   2   3   3   4   2
M  END
