Coordinates from ORCA-job PhN2+~BF4-_B3LYPG-6-31G_dp-CH-Scan-d09-49-n800
 OpenBabel11261919213D

 18 16  0  0  0  0  0  0  0  0999 V2000
   -1.3955    0.2874    0.1394 C   0  0  0  0  0  0  0  0  0  0  0  0
   -2.7721    0.3130    0.3574 N   0  0  0  0  0  0  0  0  0  0  0  0
   -3.8763    0.4091    0.5153 N   0  0  0  0  0  0  0  0  0  0  0  0
   -0.8956    1.5487   -0.2189 C   0  0  0  0  0  0  0  0  0  0  0  0
    0.5109    1.4472   -0.4287 C   0  0  0  0  0  0  0  0  0  0  0  0
    1.2338    0.2666   -0.2925 C   0  0  0  0  0  0  0  0  0  0  0  0
    0.6097   -0.9519    0.0780 C   0  0  0  0  0  0  0  0  0  0  0  0
   -0.7473   -0.9671    0.3074 C   0  0  0  0  0  0  0  0  0  0  0  0
   -3.9028    4.8161   -0.4982 H   0  0  0  0  0  0  0  0  0  0  0  0
    1.0641    2.3429   -0.7157 H   0  0  0  0  0  0  0  0  0  0  0  0
    2.3079    0.2624   -0.4730 H   0  0  0  0  0  0  0  0  0  0  0  0
    1.1952   -1.8601    0.1799 H   0  0  0  0  0  0  0  0  0  0  0  0
   -1.2813   -1.8689    0.5952 H   0  0  0  0  0  0  0  0  0  0  0  0
   -5.7858    3.2074   -0.1713 B   0  0  0  0  0  0  0  0  0  0  0  0
   -4.8316    2.7232   -0.9698 F   0  0  0  0  0  0  0  0  0  0  0  0
   -4.6704    5.0834   -0.0441 F   0  0  0  0  0  0  0  0  0  0  0  0
   -6.8762    3.7263   -0.7058 F   0  0  0  0  0  0  0  0  0  0  0  0
   -5.7406    2.9275    1.1203 F   0  0  0  0  0  0  0  0  0  0  0  0
  1  8  1  0  0  0  0
  1  2  1  0  0  0  0
  2  3  1  0  0  0  0
  4  1  2  0  0  0  0
  5  6  2  0  0  0  0
  5  4  1  0  0  0  0
  6  7  1  0  0  0  0
  7 12  1  0  0  0  0
  7  8  2  0  0  0  0
  8 13  1  0  0  0  0
  9 16  1  0  0  0  0
 10  5  1  0  0  0  0
 11  6  1  0  0  0  0
 14 18  1  0  0  0  0
 15 14  1  0  0  0  0
 17 14  1  0  0  0  0
M  RAD  3   2   2   3   3   4   2
M  END
