Coordinates from ORCA-job PhN2+~BF4-_B3LYPG-6-31G_dp-CH-Scan-d09-49-n800
 OpenBabel11261919213D

 18 16  0  0  0  0  0  0  0  0999 V2000
   -1.9580    0.4368   -0.0047 C   0  0  0  0  0  0  0  0  0  0  0  0
   -3.3161    0.1688    0.0588 N   0  0  0  0  0  0  0  0  0  0  0  0
   -4.4104   -0.0334    0.0901 N   0  0  0  0  0  0  0  0  0  0  0  0
   -1.5681    1.7416   -0.3527 C   0  0  0  0  0  0  0  0  0  0  0  0
   -0.1789    1.9188   -0.4127 C   0  0  0  0  0  0  0  0  0  0  0  0
    0.7143    0.8807   -0.1447 C   0  0  0  0  0  0  0  0  0  0  0  0
    0.2596   -0.4052    0.2012 C   0  0  0  0  0  0  0  0  0  0  0  0
   -1.0982   -0.6502    0.2765 C   0  0  0  0  0  0  0  0  0  0  0  0
   -2.5632    2.8215   -0.5784 H   0  0  0  0  0  0  0  0  0  0  0  0
    0.2130    2.8976   -0.6735 H   0  0  0  0  0  0  0  0  0  0  0  0
    1.7842    1.0637   -0.2017 H   0  0  0  0  0  0  0  0  0  0  0  0
    0.9660   -1.2017    0.4087 H   0  0  0  0  0  0  0  0  0  0  0  0
   -1.4936   -1.6257    0.5394 H   0  0  0  0  0  0  0  0  0  0  0  0
   -4.7211    3.1330   -0.0517 B   0  0  0  0  0  0  0  0  0  0  0  0
   -5.1922    2.1728   -0.9409 F   0  0  0  0  0  0  0  0  0  0  0  0
   -3.4499    3.6801   -0.6956 F   0  0  0  0  0  0  0  0  0  0  0  0
   -5.5587    4.1839    0.1337 F   0  0  0  0  0  0  0  0  0  0  0  0
   -4.2826    2.5300    1.1231 F   0  0  0  0  0  0  0  0  0  0  0  0
  1  2  1  0  0  0  0
  1  8  2  0  0  0  0
  2  3  1  0  0  0  0
  4  1  1  0  0  0  0
  5  4  2  0  0  0  0
  5  6  1  0  0  0  0
  6  7  2  0  0  0  0
  7  8  1  0  0  0  0
  7 12  1  0  0  0  0
  8 13  1  0  0  0  0
 10  5  1  0  0  0  0
 11  6  1  0  0  0  0
 14 17  1  0  0  0  0
 14 18  1  0  0  0  0
 15 14  1  0  0  0  0
 16  9  1  0  0  0  0
M  RAD  3   2   2   3   3   4   2
M  END
