Coordinates from ORCA-job PhN2+~BF4-_B3LYPG-6-31G_dp-CH-Scan-d09-49-n800
 OpenBabel11261919213D

 18 16  0  0  0  0  0  0  0  0999 V2000
   -1.7126    0.3473    0.0993 C   0  0  0  0  0  0  0  0  0  0  0  0
   -3.0803    0.1751    0.2646 N   0  0  0  0  0  0  0  0  0  0  0  0
   -4.1862    0.0789    0.3908 N   0  0  0  0  0  0  0  0  0  0  0  0
   -1.3294    1.6672   -0.2025 C   0  0  0  0  0  0  0  0  0  0  0  0
    0.0794    1.7435   -0.3545 C   0  0  0  0  0  0  0  0  0  0  0  0
    0.9311    0.6505   -0.2187 C   0  0  0  0  0  0  0  0  0  0  0  0
    0.4390   -0.6400    0.0883 C   0  0  0  0  0  0  0  0  0  0  0  0
   -0.9160   -0.8194    0.2562 C   0  0  0  0  0  0  0  0  0  0  0  0
   -2.9724    3.6136   -0.4273 H   0  0  0  0  0  0  0  0  0  0  0  0
    0.5290    2.7068   -0.5925 H   0  0  0  0  0  0  0  0  0  0  0  0
    2.0037    0.7797   -0.3508 H   0  0  0  0  0  0  0  0  0  0  0  0
    1.1194   -1.4788    0.1905 H   0  0  0  0  0  0  0  0  0  0  0  0
   -1.3493   -1.7867    0.4937 H   0  0  0  0  0  0  0  0  0  0  0  0
   -5.3291    3.1897   -0.1211 B   0  0  0  0  0  0  0  0  0  0  0  0
   -5.1962    2.3173   -1.1288 F   0  0  0  0  0  0  0  0  0  0  0  0
   -3.7064    4.2092   -0.4704 F   0  0  0  0  0  0  0  0  0  0  0  0
   -6.1829    4.1987   -0.2443 F   0  0  0  0  0  0  0  0  0  0  0  0
   -4.9948    2.7604    1.1025 F   0  0  0  0  0  0  0  0  0  0  0  0
  1  8  1  0  0  0  0
  1  2  1  0  0  0  0
  2  3  1  0  0  0  0
  4  1  2  0  0  0  0
  5  6  2  0  0  0  0
  5  4  1  0  0  0  0
  6  7  1  0  0  0  0
  7 12  1  0  0  0  0
  7  8  2  0  0  0  0
  8 13  1  0  0  0  0
 10  5  1  0  0  0  0
 11  6  1  0  0  0  0
 14 18  1  0  0  0  0
 15 14  1  0  0  0  0
 16  9  1  0  0  0  0
 17 14  1  0  0  0  0
M  RAD  3   2   2   3   3   4   2
M  END
