Coordinates from ORCA-job PhN2+~BF4-_B3LYPG-6-31G_dp-CH-Scan-d09-49-n800
 OpenBabel11261919213D

 18 16  0  0  0  0  0  0  0  0999 V2000
   -1.3150    0.3065    0.1490 C   0  0  0  0  0  0  0  0  0  0  0  0
   -2.6884    0.3941    0.3728 N   0  0  0  0  0  0  0  0  0  0  0  0
   -3.7862    0.5420    0.5370 N   0  0  0  0  0  0  0  0  0  0  0  0
   -0.7594    1.5494   -0.1891 C   0  0  0  0  0  0  0  0  0  0  0  0
    0.6406    1.3881   -0.4055 C   0  0  0  0  0  0  0  0  0  0  0  0
    1.3088    0.1734   -0.2923 C   0  0  0  0  0  0  0  0  0  0  0  0
    0.6304   -1.0219    0.0589 C   0  0  0  0  0  0  0  0  0  0  0  0
   -0.7252   -0.9795    0.2929 C   0  0  0  0  0  0  0  0  0  0  0  0
   -4.1535    4.9829   -0.5297 H   0  0  0  0  0  0  0  0  0  0  0  0
    1.2333    2.2625   -0.6785 H   0  0  0  0  0  0  0  0  0  0  0  0
    2.3810    0.1229   -0.4766 H   0  0  0  0  0  0  0  0  0  0  0  0
    1.1744   -1.9574    0.1426 H   0  0  0  0  0  0  0  0  0  0  0  0
   -1.2993   -1.8607    0.5667 H   0  0  0  0  0  0  0  0  0  0  0  0
   -5.8766    3.2170   -0.1707 B   0  0  0  0  0  0  0  0  0  0  0  0
   -4.8771    2.8216   -0.9629 F   0  0  0  0  0  0  0  0  0  0  0  0
   -4.9227    5.1892   -0.0480 F   0  0  0  0  0  0  0  0  0  0  0  0
   -7.0047    3.6370   -0.7132 F   0  0  0  0  0  0  0  0  0  0  0  0
   -5.8143    2.9463    1.1217 F   0  0  0  0  0  0  0  0  0  0  0  0
  1  8  1  0  0  0  0
  1  2  1  0  0  0  0
  2  3  1  0  0  0  0
  4  1  2  0  0  0  0
  5  6  2  0  0  0  0
  5  4  1  0  0  0  0
  6  7  1  0  0  0  0
  7 12  1  0  0  0  0
  7  8  2  0  0  0  0
  8 13  1  0  0  0  0
  9 16  1  0  0  0  0
 10  5  1  0  0  0  0
 11  6  1  0  0  0  0
 14 18  1  0  0  0  0
 15 14  1  0  0  0  0
 17 14  1  0  0  0  0
M  RAD  3   2   2   3   3   4   2
M  END
