Coordinates from ORCA-job PhN2+~BF4-_B3LYPG-6-31G_dp-CH-Scan-d09-49-n800
 OpenBabel11261919213D

 18 17  0  0  0  0  0  0  0  0999 V2000
   -1.9900    0.5622   -0.1830 C   0  0  0  0  0  0  0  0  0  0  0  0
   -3.3551    0.3374   -0.2931 N   0  0  0  0  0  0  0  0  0  0  0  0
   -4.4299    0.0617   -0.3936 N   0  0  0  0  0  0  0  0  0  0  0  0
   -1.4764    1.8279   -0.5011 C   0  0  0  0  0  0  0  0  0  0  0  0
   -0.0975    1.9825   -0.3995 C   0  0  0  0  0  0  0  0  0  0  0  0
    0.7134    0.9209    0.0128 C   0  0  0  0  0  0  0  0  0  0  0  0
    0.1650   -0.3309    0.3236 C   0  0  0  0  0  0  0  0  0  0  0  0
   -1.2042   -0.5309    0.2235 C   0  0  0  0  0  0  0  0  0  0  0  0
   -2.1676    2.6201   -0.8079 H   0  0  0  0  0  0  0  0  0  0  0  0
    0.3433    2.9448   -0.6360 H   0  0  0  0  0  0  0  0  0  0  0  0
    1.7862    1.0672    0.0959 H   0  0  0  0  0  0  0  0  0  0  0  0
    0.8042   -1.1469    0.6427 H   0  0  0  0  0  0  0  0  0  0  0  0
   -1.6619   -1.4853    0.4579 H   0  0  0  0  0  0  0  0  0  0  0  0
   -4.6796    3.0128    0.0588 B   0  0  0  0  0  0  0  0  0  0  0  0
   -5.6954    2.0406   -0.1137 F   0  0  0  0  0  0  0  0  0  0  0  0
   -3.9734    3.1161   -1.1776 F   0  0  0  0  0  0  0  0  0  0  0  0
   -5.1815    4.2220    0.4562 F   0  0  0  0  0  0  0  0  0  0  0  0
   -3.7534    2.4910    1.0093 F   0  0  0  0  0  0  0  0  0  0  0  0
  1  8  2  0  0  0  0
  2  1  1  0  0  0  0
  3  2  1  0  0  0  0
  4  5  2  0  0  0  0
  4  1  1  0  0  0  0
  5  6  1  0  0  0  0
  6 11  1  0  0  0  0
  6  7  2  0  0  0  0
  7 12  1  0  0  0  0
  8  7  1  0  0  0  0
  8 13  1  0  0  0  0
  9  4  1  0  0  0  0
 10  5  1  0  0  0  0
 14 17  1  0  0  0  0
 14 18  1  0  0  0  0
 15 14  1  0  0  0  0
 16 14  1  0  0  0  0
M  RAD  2   2   2   3   3
M  END
