Coordinates from ORCA-job PhN2+~BF4-_B3LYPG-6-31G_dp-CH-Scan-d09-49-n800
 OpenBabel11261919213D

 18 16  0  0  0  0  0  0  0  0999 V2000
   -1.4867    0.2903    0.1171 C   0  0  0  0  0  0  0  0  0  0  0  0
   -2.8684    0.2441    0.2882 N   0  0  0  0  0  0  0  0  0  0  0  0
   -3.9800    0.2760    0.4145 N   0  0  0  0  0  0  0  0  0  0  0  0
   -1.0262    1.5821   -0.1844 C   0  0  0  0  0  0  0  0  0  0  0  0
    0.3888    1.5453   -0.3482 C   0  0  0  0  0  0  0  0  0  0  0  0
    1.1566    0.3920   -0.2226 C   0  0  0  0  0  0  0  0  0  0  0  0
    0.5726   -0.8620    0.0881 C   0  0  0  0  0  0  0  0  0  0  0  0
   -0.7896   -0.9401    0.2685 C   0  0  0  0  0  0  0  0  0  0  0  0
   -3.4920    4.4867   -0.5058 H   0  0  0  0  0  0  0  0  0  0  0  0
    0.9126    2.4716   -0.5886 H   0  0  0  0  0  0  0  0  0  0  0  0
    2.2353    0.4386   -0.3651 H   0  0  0  0  0  0  0  0  0  0  0  0
    1.1916   -1.7484    0.1824 H   0  0  0  0  0  0  0  0  0  0  0  0
   -1.2942   -1.8721    0.5090 H   0  0  0  0  0  0  0  0  0  0  0  0
   -5.7182    3.1995   -0.1219 B   0  0  0  0  0  0  0  0  0  0  0  0
   -5.2221    2.4969   -1.1360 F   0  0  0  0  0  0  0  0  0  0  0  0
   -4.3472    4.8454   -0.4282 F   0  0  0  0  0  0  0  0  0  0  0  0
   -6.8010    3.9356   -0.2962 F   0  0  0  0  0  0  0  0  0  0  0  0
   -5.2856    2.9314    1.1043 F   0  0  0  0  0  0  0  0  0  0  0  0
  1  8  1  0  0  0  0
  1  2  1  0  0  0  0
  2  3  1  0  0  0  0
  4  1  2  0  0  0  0
  5  6  2  0  0  0  0
  5  4  1  0  0  0  0
  6  7  1  0  0  0  0
  7 12  1  0  0  0  0
  7  8  2  0  0  0  0
  8 13  1  0  0  0  0
  9 16  1  0  0  0  0
 10  5  1  0  0  0  0
 11  6  1  0  0  0  0
 14 18  1  0  0  0  0
 15 14  1  0  0  0  0
 17 14  1  0  0  0  0
M  RAD  3   2   2   3   3   4   2
M  END
