Coordinates from ORCA-job PhN2+~BF4-_B3LYPG-6-31G_dp-CH-Scan-d09-49-n800
 OpenBabel11261919213D

 18 17  0  0  0  0  0  0  0  0999 V2000
   -1.9877    0.4848   -0.0779 C   0  0  0  0  0  0  0  0  0  0  0  0
   -3.3492    0.2294   -0.1106 N   0  0  0  0  0  0  0  0  0  0  0  0
   -4.4373    0.0013   -0.1767 N   0  0  0  0  0  0  0  0  0  0  0  0
   -1.5293    1.7583   -0.4498 C   0  0  0  0  0  0  0  0  0  0  0  0
   -0.1489    1.9409   -0.4403 C   0  0  0  0  0  0  0  0  0  0  0  0
    0.7106    0.9034   -0.0682 C   0  0  0  0  0  0  0  0  0  0  0  0
    0.2136   -0.3555    0.3017 C   0  0  0  0  0  0  0  0  0  0  0  0
   -1.1530   -0.5856    0.2980 C   0  0  0  0  0  0  0  0  0  0  0  0
   -2.3488    2.6503   -0.7393 H   0  0  0  0  0  0  0  0  0  0  0  0
    0.2564    2.9075   -0.7196 H   0  0  0  0  0  0  0  0  0  0  0  0
    1.7834    1.0728   -0.0627 H   0  0  0  0  0  0  0  0  0  0  0  0
    0.8921   -1.1509    0.5899 H   0  0  0  0  0  0  0  0  0  0  0  0
   -1.5735   -1.5456    0.5761 H   0  0  0  0  0  0  0  0  0  0  0  0
   -4.6673    3.1049   -0.0118 B   0  0  0  0  0  0  0  0  0  0  0  0
   -5.4284    2.1054   -0.6670 F   0  0  0  0  0  0  0  0  0  0  0  0
   -3.7101    3.6097   -0.9578 F   0  0  0  0  0  0  0  0  0  0  0  0
   -5.4520    4.1134    0.4732 F   0  0  0  0  0  0  0  0  0  0  0  0
   -3.9244    2.4688    1.0179 F   0  0  0  0  0  0  0  0  0  0  0  0
  1  8  2  0  0  0  0
  2  1  1  0  0  0  0
  3  2  1  0  0  0  0
  4  5  2  0  0  0  0
  4  1  1  0  0  0  0
  5  6  1  0  0  0  0
  6 11  1  0  0  0  0
  6  7  2  0  0  0  0
  7 12  1  0  0  0  0
  8  7  1  0  0  0  0
  8 13  1  0  0  0  0
  9  4  1  0  0  0  0
 10  5  1  0  0  0  0
 14 17  1  0  0  0  0
 14 18  1  0  0  0  0
 15 14  1  0  0  0  0
 16 14  1  0  0  0  0
M  RAD  2   2   2   3   3
M  END
