Coordinates from ORCA-job PhN2+~BF4-_B3LYPG-6-31G_dp-CH-Scan-d09-49-n800
 OpenBabel11261919213D

 18 16  0  0  0  0  0  0  0  0999 V2000
   -1.9641    0.4378   -0.0311 C   0  0  0  0  0  0  0  0  0  0  0  0
   -3.3224    0.1667    0.0068 N   0  0  0  0  0  0  0  0  0  0  0  0
   -4.4164   -0.0397    0.0199 N   0  0  0  0  0  0  0  0  0  0  0  0
   -1.5690    1.7384   -0.3884 C   0  0  0  0  0  0  0  0  0  0  0  0
   -0.1809    1.9222   -0.4231 C   0  0  0  0  0  0  0  0  0  0  0  0
    0.7099    0.8906   -0.1230 C   0  0  0  0  0  0  0  0  0  0  0  0
    0.2524   -0.3921    0.2301 C   0  0  0  0  0  0  0  0  0  0  0  0
   -1.1062   -0.6415    0.2807 C   0  0  0  0  0  0  0  0  0  0  0  0
   -2.5537    2.7889   -0.6343 H   0  0  0  0  0  0  0  0  0  0  0  0
    0.2117    2.8995   -0.6881 H   0  0  0  0  0  0  0  0  0  0  0  0
    1.7800    1.0768   -0.1597 H   0  0  0  0  0  0  0  0  0  0  0  0
    0.9569   -1.1832    0.4626 H   0  0  0  0  0  0  0  0  0  0  0  0
   -1.5034   -1.6149    0.5482 H   0  0  0  0  0  0  0  0  0  0  0  0
   -4.7042    3.1294   -0.0273 B   0  0  0  0  0  0  0  0  0  0  0  0
   -5.2587    2.1781   -0.8797 F   0  0  0  0  0  0  0  0  0  0  0  0
   -3.4770    3.6512   -0.7563 F   0  0  0  0  0  0  0  0  0  0  0  0
   -5.5111    4.1919    0.2226 F   0  0  0  0  0  0  0  0  0  0  0  0
   -4.1975    2.5131    1.1152 F   0  0  0  0  0  0  0  0  0  0  0  0
  1  2  1  0  0  0  0
  1  8  2  0  0  0  0
  2  3  1  0  0  0  0
  4  1  1  0  0  0  0
  5  4  2  0  0  0  0
  5  6  1  0  0  0  0
  6  7  2  0  0  0  0
  7  8  1  0  0  0  0
  7 12  1  0  0  0  0
  8 13  1  0  0  0  0
 10  5  1  0  0  0  0
 11  6  1  0  0  0  0
 14 17  1  0  0  0  0
 14 18  1  0  0  0  0
 15 14  1  0  0  0  0
 16  9  1  0  0  0  0
M  RAD  3   2   2   3   3   4   2
M  END
