Coordinates from ORCA-job PhN2+~BF4-_B3LYPG-6-31G_dp-CH-Scan-d09-49-n800
 OpenBabel11261919213D

 18 16  0  0  0  0  0  0  0  0999 V2000
   -1.5694    0.3046    0.1086 C   0  0  0  0  0  0  0  0  0  0  0  0
   -2.9471    0.2062    0.2760 N   0  0  0  0  0  0  0  0  0  0  0  0
   -4.0585    0.1870    0.4011 N   0  0  0  0  0  0  0  0  0  0  0  0
   -1.1447    1.6096   -0.1939 C   0  0  0  0  0  0  0  0  0  0  0  0
    0.2698    1.6204   -0.3506 C   0  0  0  0  0  0  0  0  0  0  0  0
    1.0745    0.4929   -0.2184 C   0  0  0  0  0  0  0  0  0  0  0  0
    0.5301   -0.7781    0.0913 C   0  0  0  0  0  0  0  0  0  0  0  0
   -0.8300   -0.9002    0.2648 C   0  0  0  0  0  0  0  0  0  0  0  0
   -3.2598    4.1500   -0.4807 H   0  0  0  0  0  0  0  0  0  0  0  0
    0.7631    2.5630   -0.5903 H   0  0  0  0  0  0  0  0  0  0  0  0
    2.1516    0.5752   -0.3550 H   0  0  0  0  0  0  0  0  0  0  0  0
    1.1764   -1.6441    0.1905 H   0  0  0  0  0  0  0  0  0  0  0  0
   -1.3045   -1.8479    0.5044 H   0  0  0  0  0  0  0  0  0  0  0  0
   -5.6067    3.1999   -0.1169 B   0  0  0  0  0  0  0  0  0  0  0  0
   -5.2569    2.4237   -1.1403 F   0  0  0  0  0  0  0  0  0  0  0  0
   -4.0672    4.6163   -0.4583 F   0  0  0  0  0  0  0  0  0  0  0  0
   -6.5915    4.0705   -0.2559 F   0  0  0  0  0  0  0  0  0  0  0  0
   -5.1832    2.8640    1.0984 F   0  0  0  0  0  0  0  0  0  0  0  0
  1  8  1  0  0  0  0
  1  2  1  0  0  0  0
  2  3  1  0  0  0  0
  4  1  2  0  0  0  0
  5  6  2  0  0  0  0
  5  4  1  0  0  0  0
  6  7  1  0  0  0  0
  7 12  1  0  0  0  0
  7  8  2  0  0  0  0
  8 13  1  0  0  0  0
  9 16  1  0  0  0  0
 10  5  1  0  0  0  0
 11  6  1  0  0  0  0
 14 18  1  0  0  0  0
 15 14  1  0  0  0  0
 17 14  1  0  0  0  0
M  RAD  3   2   2   3   3   4   2
M  END
