Coordinates from ORCA-job PhN2+~BF4-_B3LYPG-6-31G_dp-CH-Scan-d09-49-n800
 OpenBabel11261919213D

 18 16  0  0  0  0  0  0  0  0999 V2000
   -1.9620    0.4406   -0.0088 C   0  0  0  0  0  0  0  0  0  0  0  0
   -3.3202    0.1728    0.0495 N   0  0  0  0  0  0  0  0  0  0  0  0
   -4.4142   -0.0312    0.0778 N   0  0  0  0  0  0  0  0  0  0  0  0
   -1.5671    1.7430   -0.3595 C   0  0  0  0  0  0  0  0  0  0  0  0
   -0.1789    1.9209   -0.4159 C   0  0  0  0  0  0  0  0  0  0  0  0
    0.7126    0.8828   -0.1413 C   0  0  0  0  0  0  0  0  0  0  0  0
    0.2554   -0.4012    0.2073 C   0  0  0  0  0  0  0  0  0  0  0  0
   -1.1032   -0.6451    0.2784 C   0  0  0  0  0  0  0  0  0  0  0  0
   -2.5482    2.8077   -0.5883 H   0  0  0  0  0  0  0  0  0  0  0  0
    0.2134    2.8990   -0.6783 H   0  0  0  0  0  0  0  0  0  0  0  0
    1.7827    1.0648   -0.1950 H   0  0  0  0  0  0  0  0  0  0  0  0
    0.9601   -1.1976    0.4200 H   0  0  0  0  0  0  0  0  0  0  0  0
   -1.5000   -1.6195    0.5431 H   0  0  0  0  0  0  0  0  0  0  0  0
   -4.7124    3.1309   -0.0495 B   0  0  0  0  0  0  0  0  0  0  0  0
   -5.1971    2.1682   -0.9324 F   0  0  0  0  0  0  0  0  0  0  0  0
   -3.4595    3.6802   -0.7062 F   0  0  0  0  0  0  0  0  0  0  0  0
   -5.5566    4.1741    0.1545 F   0  0  0  0  0  0  0  0  0  0  0  0
   -4.2586    2.5228    1.1195 F   0  0  0  0  0  0  0  0  0  0  0  0
  1  2  1  0  0  0  0
  1  8  2  0  0  0  0
  2  3  1  0  0  0  0
  4  1  1  0  0  0  0
  5  4  2  0  0  0  0
  5  6  1  0  0  0  0
  6  7  2  0  0  0  0
  7  8  1  0  0  0  0
  7 12  1  0  0  0  0
  8 13  1  0  0  0  0
 10  5  1  0  0  0  0
 11  6  1  0  0  0  0
 14 17  1  0  0  0  0
 14 18  1  0  0  0  0
 15 14  1  0  0  0  0
 16  9  1  0  0  0  0
M  RAD  3   2   2   3   3   4   2
M  END
