Coordinates from ORCA-job PhN2+~BF4-_B3LYPG-6-31G_dp-CH-Scan-d09-49-n800
 OpenBabel11261919213D

 18 16  0  0  0  0  0  0  0  0999 V2000
   -1.4815    0.2715    0.1125 C   0  0  0  0  0  0  0  0  0  0  0  0
   -2.8603    0.2298    0.3078 N   0  0  0  0  0  0  0  0  0  0  0  0
   -3.9703    0.2659    0.4467 N   0  0  0  0  0  0  0  0  0  0  0  0
   -1.0333    1.5517   -0.2501 C   0  0  0  0  0  0  0  0  0  0  0  0
    0.3800    1.5142   -0.4318 C   0  0  0  0  0  0  0  0  0  0  0  0
    1.1553    0.3707   -0.2688 C   0  0  0  0  0  0  0  0  0  0  0  0
    0.5822   -0.8722    0.1022 C   0  0  0  0  0  0  0  0  0  0  0  0
   -0.7770   -0.9488    0.3054 C   0  0  0  0  0  0  0  0  0  0  0  0
   -3.6370    4.5939   -0.5268 H   0  0  0  0  0  0  0  0  0  0  0  0
    0.8960    2.4320   -0.7177 H   0  0  0  0  0  0  0  0  0  0  0  0
    2.2317    0.4161   -0.4280 H   0  0  0  0  0  0  0  0  0  0  0  0
    1.2071   -1.7509    0.2250 H   0  0  0  0  0  0  0  0  0  0  0  0
   -1.2734   -1.8721    0.5923 H   0  0  0  0  0  0  0  0  0  0  0  0
   -5.6888    3.2054   -0.1419 B   0  0  0  0  0  0  0  0  0  0  0  0
   -4.8612    2.6077   -1.0018 F   0  0  0  0  0  0  0  0  0  0  0  0
   -4.3875    4.9381   -0.0962 F   0  0  0  0  0  0  0  0  0  0  0  0
   -6.7519    3.8419   -0.5997 F   0  0  0  0  0  0  0  0  0  0  0  0
   -5.5841    2.9182    1.1459 F   0  0  0  0  0  0  0  0  0  0  0  0
  1  8  1  0  0  0  0
  1  2  1  0  0  0  0
  2  3  1  0  0  0  0
  4  1  2  0  0  0  0
  5  6  2  0  0  0  0
  5  4  1  0  0  0  0
  6  7  1  0  0  0  0
  7 12  1  0  0  0  0
  7  8  2  0  0  0  0
  8 13  1  0  0  0  0
  9 16  1  0  0  0  0
 10  5  1  0  0  0  0
 11  6  1  0  0  0  0
 14 18  1  0  0  0  0
 15 14  1  0  0  0  0
 17 14  1  0  0  0  0
M  RAD  3   2   2   3   3   4   2
M  END
