Coordinates from ORCA-job PhN2+~BF4-_B3LYPG-6-31G_dp-CH-Scan-d09-49-n800
 OpenBabel11261919213D

 18 17  0  0  0  0  0  0  0  0999 V2000
   -1.9878    0.4989   -0.1293 C   0  0  0  0  0  0  0  0  0  0  0  0
   -3.3499    0.2505   -0.1983 N   0  0  0  0  0  0  0  0  0  0  0  0
   -4.4344    0.0111   -0.2873 N   0  0  0  0  0  0  0  0  0  0  0  0
   -1.5131    1.7675   -0.4954 C   0  0  0  0  0  0  0  0  0  0  0  0
   -0.1345    1.9506   -0.4400 C   0  0  0  0  0  0  0  0  0  0  0  0
    0.7095    0.9153   -0.0280 C   0  0  0  0  0  0  0  0  0  0  0  0
    0.1978   -0.3403    0.3320 C   0  0  0  0  0  0  0  0  0  0  0  0
   -1.1685   -0.5695    0.2813 C   0  0  0  0  0  0  0  0  0  0  0  0
   -2.3093    2.6285   -0.8146 H   0  0  0  0  0  0  0  0  0  0  0  0
    0.2809    2.9149   -0.7120 H   0  0  0  0  0  0  0  0  0  0  0  0
    1.7814    1.0844    0.0173 H   0  0  0  0  0  0  0  0  0  0  0  0
    0.8644   -1.1343    0.6502 H   0  0  0  0  0  0  0  0  0  0  0  0
   -1.5995   -1.5268    0.5524 H   0  0  0  0  0  0  0  0  0  0  0  0
   -4.6647    3.0804    0.0261 B   0  0  0  0  0  0  0  0  0  0  0  0
   -5.5525    2.0926   -0.4674 F   0  0  0  0  0  0  0  0  0  0  0  0
   -3.8091    3.4737   -1.0545 F   0  0  0  0  0  0  0  0  0  0  0  0
   -5.3304    4.1569    0.5438 F   0  0  0  0  0  0  0  0  0  0  0  0
   -3.8343    2.4588    0.9989 F   0  0  0  0  0  0  0  0  0  0  0  0
  1  8  2  0  0  0  0
  2  1  1  0  0  0  0
  3  2  1  0  0  0  0
  4  5  2  0  0  0  0
  4  1  1  0  0  0  0
  5  6  1  0  0  0  0
  6 11  1  0  0  0  0
  6  7  2  0  0  0  0
  7 12  1  0  0  0  0
  8  7  1  0  0  0  0
  8 13  1  0  0  0  0
  9  4  1  0  0  0  0
 10  5  1  0  0  0  0
 14 17  1  0  0  0  0
 14 18  1  0  0  0  0
 15 14  1  0  0  0  0
 16 14  1  0  0  0  0
M  RAD  2   2   2   3   3
M  END
