Coordinates from ORCA-job PhN2+~BF4-_B3LYPG-6-31G_dp-CH-Scan-d09-49-n800
 OpenBabel11261919213D

 18 17  0  0  0  0  0  0  0  0999 V2000
   -1.9869    0.4800   -0.0779 C   0  0  0  0  0  0  0  0  0  0  0  0
   -3.3481    0.2234   -0.1079 N   0  0  0  0  0  0  0  0  0  0  0  0
   -4.4366   -0.0034   -0.1722 N   0  0  0  0  0  0  0  0  0  0  0  0
   -1.5325    1.7542   -0.4519 C   0  0  0  0  0  0  0  0  0  0  0  0
   -0.1521    1.9391   -0.4426 C   0  0  0  0  0  0  0  0  0  0  0  0
    0.7095    0.9036   -0.0699 C   0  0  0  0  0  0  0  0  0  0  0  0
    0.2155   -0.3564    0.3013 C   0  0  0  0  0  0  0  0  0  0  0  0
   -1.1504   -0.5891    0.2990 C   0  0  0  0  0  0  0  0  0  0  0  0
   -2.3722    2.6614   -0.7452 H   0  0  0  0  0  0  0  0  0  0  0  0
    0.2519    2.9060   -0.7228 H   0  0  0  0  0  0  0  0  0  0  0  0
    1.7821    1.0752   -0.0647 H   0  0  0  0  0  0  0  0  0  0  0  0
    0.8959   -1.1500    0.5897 H   0  0  0  0  0  0  0  0  0  0  0  0
   -1.5690   -1.5496    0.5784 H   0  0  0  0  0  0  0  0  0  0  0  0
   -4.6649    3.1065   -0.0087 B   0  0  0  0  0  0  0  0  0  0  0  0
   -5.4175    2.1130   -0.6791 F   0  0  0  0  0  0  0  0  0  0  0  0
   -3.6924    3.6147   -0.9435 F   0  0  0  0  0  0  0  0  0  0  0  0
   -5.4512    4.1176    0.4670 F   0  0  0  0  0  0  0  0  0  0  0  0
   -3.9349    2.4671    1.0260 F   0  0  0  0  0  0  0  0  0  0  0  0
  1  8  2  0  0  0  0
  2  1  1  0  0  0  0
  3  2  1  0  0  0  0
  4  5  2  0  0  0  0
  4  1  1  0  0  0  0
  5  6  1  0  0  0  0
  6 11  1  0  0  0  0
  6  7  2  0  0  0  0
  7 12  1  0  0  0  0
  8  7  1  0  0  0  0
  8 13  1  0  0  0  0
  9  4  1  0  0  0  0
 10  5  1  0  0  0  0
 14 17  1  0  0  0  0
 14 18  1  0  0  0  0
 15 14  1  0  0  0  0
 16 14  1  0  0  0  0
M  RAD  2   2   2   3   3
M  END
