Coordinates from ORCA-job PhN2+~BF4-_B3LYPG-6-31G_dp-CH-Scan-d09-49-n800
 OpenBabel11261919213D

 18 17  0  0  0  0  0  0  0  0999 V2000
   -2.1261    0.4780   -0.1993 C   0  0  0  0  0  0  0  0  0  0  0  0
   -3.4718    0.1528   -0.2410 N   0  0  0  0  0  0  0  0  0  0  0  0
   -4.5147   -0.2257   -0.2798 N   0  0  0  0  0  0  0  0  0  0  0  0
   -1.6811    1.6638   -0.8025 C   0  0  0  0  0  0  0  0  0  0  0  0
   -0.3112    1.9038   -0.7617 C   0  0  0  0  0  0  0  0  0  0  0  0
    0.5563    1.0018   -0.1415 C   0  0  0  0  0  0  0  0  0  0  0  0
    0.0750   -0.1718    0.4565 C   0  0  0  0  0  0  0  0  0  0  0  0
   -1.2820   -0.4533    0.4344 C   0  0  0  0  0  0  0  0  0  0  0  0
   -2.3689    2.3230   -1.2202 H   0  0  0  0  0  0  0  0  0  0  0  0
    0.0724    2.8157   -1.2057 H   0  0  0  0  0  0  0  0  0  0  0  0
    1.6209    1.2140   -0.1152 H   0  0  0  0  0  0  0  0  0  0  0  0
    0.7577   -0.8618    0.9400 H   0  0  0  0  0  0  0  0  0  0  0  0
   -1.6892   -1.3483    0.8907 H   0  0  0  0  0  0  0  0  0  0  0  0
   -4.3195    3.0822    0.2232 B   0  0  0  0  0  0  0  0  0  0  0  0
   -4.4308    2.3748   -1.0324 F   0  0  0  0  0  0  0  0  0  0  0  0
   -3.1795    3.8936    0.1396 F   0  0  0  0  0  0  0  0  0  0  0  0
   -5.4643    3.7917    0.4785 F   0  0  0  0  0  0  0  0  0  0  0  0
   -4.0972    2.0790    1.2113 F   0  0  0  0  0  0  0  0  0  0  0  0
  1  8  2  0  0  0  0
  2  1  1  0  0  0  0
  3  2  1  0  0  0  0
  4  5  2  0  0  0  0
  4  1  1  0  0  0  0
  5  6  1  0  0  0  0
  6 11  1  0  0  0  0
  6  7  2  0  0  0  0
  7 12  1  0  0  0  0
  8  7  1  0  0  0  0
  8 13  1  0  0  0  0
  9  4  1  0  0  0  0
 10  5  1  0  0  0  0
 14 17  1  0  0  0  0
 14 18  1  0  0  0  0
 15 14  1  0  0  0  0
 16 14  1  0  0  0  0
M  RAD  2   2   2   3   3
M  END
