Coordinates from ORCA-job PhN2+~BF4-_B3LYPG-6-31G_dp-CH-Scan-d09-49-n800
 OpenBabel11261919213D

 18 17  0  0  0  0  0  0  0  0999 V2000
   -1.9879    0.4924   -0.1208 C   0  0  0  0  0  0  0  0  0  0  0  0
   -3.3497    0.2419   -0.1827 N   0  0  0  0  0  0  0  0  0  0  0  0
   -4.4349    0.0050   -0.2679 N   0  0  0  0  0  0  0  0  0  0  0  0
   -1.5185    1.7617   -0.4915 C   0  0  0  0  0  0  0  0  0  0  0  0
   -0.1400    1.9478   -0.4434 C   0  0  0  0  0  0  0  0  0  0  0  0
    0.7085    0.9147   -0.0346 C   0  0  0  0  0  0  0  0  0  0  0  0
    0.2017   -0.3416    0.3300 C   0  0  0  0  0  0  0  0  0  0  0  0
   -1.1643   -0.5739    0.2874 C   0  0  0  0  0  0  0  0  0  0  0  0
   -2.3283    2.6318   -0.8096 H   0  0  0  0  0  0  0  0  0  0  0  0
    0.2722    2.9125   -0.7188 H   0  0  0  0  0  0  0  0  0  0  0  0
    1.7803    1.0861    0.0045 H   0  0  0  0  0  0  0  0  0  0  0  0
    0.8719   -1.1336    0.6454 H   0  0  0  0  0  0  0  0  0  0  0  0
   -1.5918   -1.5318    0.5621 H   0  0  0  0  0  0  0  0  0  0  0  0
   -4.6620    3.0867    0.0201 B   0  0  0  0  0  0  0  0  0  0  0  0
   -5.5270    2.0991   -0.5121 F   0  0  0  0  0  0  0  0  0  0  0  0
   -3.7826    3.5083   -1.0324 F   0  0  0  0  0  0  0  0  0  0  0  0
   -5.3511    4.1486    0.5368 F   0  0  0  0  0  0  0  0  0  0  0  0
   -3.8502    2.4573    1.0025 F   0  0  0  0  0  0  0  0  0  0  0  0
  1  8  2  0  0  0  0
  2  1  1  0  0  0  0
  3  2  1  0  0  0  0
  4  5  2  0  0  0  0
  4  1  1  0  0  0  0
  5  6  1  0  0  0  0
  6 11  1  0  0  0  0
  6  7  2  0  0  0  0
  7 12  1  0  0  0  0
  8  7  1  0  0  0  0
  8 13  1  0  0  0  0
  9  4  1  0  0  0  0
 10  5  1  0  0  0  0
 14 17  1  0  0  0  0
 14 18  1  0  0  0  0
 15 14  1  0  0  0  0
 16 14  1  0  0  0  0
M  RAD  2   2   2   3   3
M  END
