Coordinates from ORCA-job PhN2+~BF4-_B3LYPG-6-31G_dp-CH-Scan-d09-49-n800
 OpenBabel11261919213D

 18 16  0  0  0  0  0  0  0  0999 V2000
   -1.6484    0.3265    0.1012 C   0  0  0  0  0  0  0  0  0  0  0  0
   -3.0213    0.1868    0.2642 N   0  0  0  0  0  0  0  0  0  0  0  0
   -4.1311    0.1261    0.3850 N   0  0  0  0  0  0  0  0  0  0  0  0
   -1.2489    1.6403   -0.2024 C   0  0  0  0  0  0  0  0  0  0  0  0
    0.1632    1.6894   -0.3540 C   0  0  0  0  0  0  0  0  0  0  0  0
    0.9956    0.5825   -0.2162 C   0  0  0  0  0  0  0  0  0  0  0  0
    0.4818   -0.7000    0.0936 C   0  0  0  0  0  0  0  0  0  0  0  0
   -0.8757   -0.8561    0.2616 C   0  0  0  0  0  0  0  0  0  0  0  0
   -3.0855    3.8415   -0.4510 H   0  0  0  0  0  0  0  0  0  0  0  0
    0.6314    2.6440   -0.5938 H   0  0  0  0  0  0  0  0  0  0  0  0
    2.0706    0.6922   -0.3487 H   0  0  0  0  0  0  0  0  0  0  0  0
    1.1487   -1.5496    0.1976 H   0  0  0  0  0  0  0  0  0  0  0  0
   -1.3263   -1.8152    0.5012 H   0  0  0  0  0  0  0  0  0  0  0  0
   -5.4679    3.1941   -0.1153 B   0  0  0  0  0  0  0  0  0  0  0  0
   -5.2495    2.3661   -1.1383 F   0  0  0  0  0  0  0  0  0  0  0  0
   -3.8473    4.3878   -0.4752 F   0  0  0  0  0  0  0  0  0  0  0  0
   -6.3693    4.1569   -0.2312 F   0  0  0  0  0  0  0  0  0  0  0  0
   -5.0739    2.7999    1.0967 F   0  0  0  0  0  0  0  0  0  0  0  0
  1  8  1  0  0  0  0
  1  2  1  0  0  0  0
  2  3  1  0  0  0  0
  4  1  2  0  0  0  0
  5  6  2  0  0  0  0
  5  4  1  0  0  0  0
  6  7  1  0  0  0  0
  7 12  1  0  0  0  0
  7  8  2  0  0  0  0
  8 13  1  0  0  0  0
 10  5  1  0  0  0  0
 11  6  1  0  0  0  0
 14 18  1  0  0  0  0
 15 14  1  0  0  0  0
 16  9  1  0  0  0  0
 17 14  1  0  0  0  0
M  RAD  3   2   2   3   3   4   2
M  END
