Coordinates from ORCA-job PhN2+~BF4-_B3LYPG-6-31G_dp-CH-Scan-d09-49-n800
 OpenBabel11261919213D

 18 16  0  0  0  0  0  0  0  0999 V2000
   -1.3090    0.3087    0.1488 C   0  0  0  0  0  0  0  0  0  0  0  0
   -2.6823    0.4014    0.3721 N   0  0  0  0  0  0  0  0  0  0  0  0
   -3.7792    0.5540    0.5375 N   0  0  0  0  0  0  0  0  0  0  0  0
   -0.7484    1.5499   -0.1867 C   0  0  0  0  0  0  0  0  0  0  0  0
    0.6512    1.3836   -0.4026 C   0  0  0  0  0  0  0  0  0  0  0  0
    1.3145    0.1661   -0.2913 C   0  0  0  0  0  0  0  0  0  0  0  0
    0.6313   -1.0271    0.0574 C   0  0  0  0  0  0  0  0  0  0  0  0
   -0.7243   -0.9798    0.2907 C   0  0  0  0  0  0  0  0  0  0  0  0
   -4.1737    4.9941   -0.5354 H   0  0  0  0  0  0  0  0  0  0  0  0
    1.2474    2.2562   -0.6736 H   0  0  0  0  0  0  0  0  0  0  0  0
    2.3867    0.1117   -0.4750 H   0  0  0  0  0  0  0  0  0  0  0  0
    1.1715   -1.9649    0.1397 H   0  0  0  0  0  0  0  0  0  0  0  0
   -1.3020   -1.8592    0.5625 H   0  0  0  0  0  0  0  0  0  0  0  0
   -5.8828    3.2170   -0.1691 B   0  0  0  0  0  0  0  0  0  0  0  0
   -4.8819    2.8286   -0.9631 F   0  0  0  0  0  0  0  0  0  0  0  0
   -4.9420    5.1963   -0.0504 F   0  0  0  0  0  0  0  0  0  0  0  0
   -7.0150    3.6283   -0.7098 F   0  0  0  0  0  0  0  0  0  0  0  0
   -5.8159    2.9480    1.1233 F   0  0  0  0  0  0  0  0  0  0  0  0
  1  8  1  0  0  0  0
  1  2  1  0  0  0  0
  2  3  1  0  0  0  0
  4  1  2  0  0  0  0
  5  6  2  0  0  0  0
  5  4  1  0  0  0  0
  6  7  1  0  0  0  0
  7 12  1  0  0  0  0
  7  8  2  0  0  0  0
  8 13  1  0  0  0  0
  9 16  1  0  0  0  0
 10  5  1  0  0  0  0
 11  6  1  0  0  0  0
 14 18  1  0  0  0  0
 15 14  1  0  0  0  0
 17 14  1  0  0  0  0
M  RAD  3   2   2   3   3   4   2
M  END
