Coordinates from ORCA-job PhN2+~BF4-_B3LYPG-6-31G_dp-CH-Scan-d09-49-n800
 OpenBabel11261919213D

 18 16  0  0  0  0  0  0  0  0999 V2000
   -1.9603    0.4385   -0.0071 C   0  0  0  0  0  0  0  0  0  0  0  0
   -3.3185    0.1707    0.0532 N   0  0  0  0  0  0  0  0  0  0  0  0
   -4.4127   -0.0319    0.0823 N   0  0  0  0  0  0  0  0  0  0  0  0
   -1.5677    1.7420   -0.3567 C   0  0  0  0  0  0  0  0  0  0  0  0
   -0.1791    1.9199   -0.4145 C   0  0  0  0  0  0  0  0  0  0  0  0
    0.7133    0.8820   -0.1425 C   0  0  0  0  0  0  0  0  0  0  0  0
    0.2573   -0.4029    0.2050 C   0  0  0  0  0  0  0  0  0  0  0  0
   -1.1009   -0.6475    0.2778 C   0  0  0  0  0  0  0  0  0  0  0  0
   -2.5559    2.8141   -0.5844 H   0  0  0  0  0  0  0  0  0  0  0  0
    0.2129    2.8984   -0.6762 H   0  0  0  0  0  0  0  0  0  0  0  0
    1.7833    1.0646   -0.1975 H   0  0  0  0  0  0  0  0  0  0  0  0
    0.9628   -1.1993    0.4155 H   0  0  0  0  0  0  0  0  0  0  0  0
   -1.4970   -1.6224    0.5417 H   0  0  0  0  0  0  0  0  0  0  0  0
   -4.7157    3.1320   -0.0504 B   0  0  0  0  0  0  0  0  0  0  0  0
   -5.1954    2.1704   -0.9356 F   0  0  0  0  0  0  0  0  0  0  0  0
   -3.4557    3.6803   -0.7026 F   0  0  0  0  0  0  0  0  0  0  0  0
   -5.5570    4.1785    0.1464 F   0  0  0  0  0  0  0  0  0  0  0  0
   -4.2677    2.5259    1.1208 F   0  0  0  0  0  0  0  0  0  0  0  0
  1  2  1  0  0  0  0
  1  8  2  0  0  0  0
  2  3  1  0  0  0  0
  4  1  1  0  0  0  0
  5  4  2  0  0  0  0
  5  6  1  0  0  0  0
  6  7  2  0  0  0  0
  7  8  1  0  0  0  0
  7 12  1  0  0  0  0
  8 13  1  0  0  0  0
 10  5  1  0  0  0  0
 11  6  1  0  0  0  0
 14 17  1  0  0  0  0
 14 18  1  0  0  0  0
 15 14  1  0  0  0  0
 16  9  1  0  0  0  0
M  RAD  3   2   2   3   3   4   2
M  END
