Coordinates from ORCA-job PhN2+~BF4-_B3LYPG-6-31G_dp-CH-Scan-d09-49-n800
 OpenBabel11261919213D

 18 16  0  0  0  0  0  0  0  0999 V2000
   -1.3973    0.2877    0.1393 C   0  0  0  0  0  0  0  0  0  0  0  0
   -2.7739    0.3120    0.3574 N   0  0  0  0  0  0  0  0  0  0  0  0
   -3.8785    0.4056    0.5135 N   0  0  0  0  0  0  0  0  0  0  0  0
   -0.8984    1.5490   -0.2200 C   0  0  0  0  0  0  0  0  0  0  0  0
    0.5083    1.4486   -0.4296 C   0  0  0  0  0  0  0  0  0  0  0  0
    1.2321    0.2687   -0.2926 C   0  0  0  0  0  0  0  0  0  0  0  0
    0.6090   -0.9502    0.0787 C   0  0  0  0  0  0  0  0  0  0  0  0
   -0.7480   -0.9663    0.3081 C   0  0  0  0  0  0  0  0  0  0  0  0
   -3.8967    4.8113   -0.4961 H   0  0  0  0  0  0  0  0  0  0  0  0
    1.0608    2.3444   -0.7172 H   0  0  0  0  0  0  0  0  0  0  0  0
    2.3062    0.2652   -0.4731 H   0  0  0  0  0  0  0  0  0  0  0  0
    1.1952   -1.8578    0.1812 H   0  0  0  0  0  0  0  0  0  0  0  0
   -1.2813   -1.8683    0.5965 H   0  0  0  0  0  0  0  0  0  0  0  0
   -5.7838    3.2071   -0.1715 B   0  0  0  0  0  0  0  0  0  0  0  0
   -4.8309    2.7210   -0.9704 F   0  0  0  0  0  0  0  0  0  0  0  0
   -4.6645    5.0803   -0.0434 F   0  0  0  0  0  0  0  0  0  0  0  0
   -6.8732    3.7285   -0.7055 F   0  0  0  0  0  0  0  0  0  0  0  0
   -5.7390    2.9264    1.1200 F   0  0  0  0  0  0  0  0  0  0  0  0
  1  8  1  0  0  0  0
  1  2  1  0  0  0  0
  2  3  1  0  0  0  0
  4  1  2  0  0  0  0
  5  6  2  0  0  0  0
  5  4  1  0  0  0  0
  6  7  1  0  0  0  0
  7 12  1  0  0  0  0
  7  8  2  0  0  0  0
  8 13  1  0  0  0  0
  9 16  1  0  0  0  0
 10  5  1  0  0  0  0
 11  6  1  0  0  0  0
 14 18  1  0  0  0  0
 15 14  1  0  0  0  0
 17 14  1  0  0  0  0
M  RAD  3   2   2   3   3   4   2
M  END
