Coordinates from ORCA-job PhN2+~BF4-_B3LYPG-6-31G_dp-CH-Scan-d09-49-n800
 OpenBabel11261919213D

 18 16  0  0  0  0  0  0  0  0999 V2000
   -1.6265    0.3201    0.1011 C   0  0  0  0  0  0  0  0  0  0  0  0
   -3.0008    0.1903    0.2639 N   0  0  0  0  0  0  0  0  0  0  0  0
   -4.1113    0.1372    0.3826 N   0  0  0  0  0  0  0  0  0  0  0  0
   -1.2203    1.6310   -0.2050 C   0  0  0  0  0  0  0  0  0  0  0  0
    0.1928    1.6698   -0.3561 C   0  0  0  0  0  0  0  0  0  0  0  0
    1.0181    0.5579   -0.2161 C   0  0  0  0  0  0  0  0  0  0  0  0
    0.4961   -0.7211    0.0961 C   0  0  0  0  0  0  0  0  0  0  0  0
   -0.8624   -0.8680    0.2641 C   0  0  0  0  0  0  0  0  0  0  0  0
   -3.1300    3.9277   -0.4578 H   0  0  0  0  0  0  0  0  0  0  0  0
    0.6679    2.6208   -0.5975 H   0  0  0  0  0  0  0  0  0  0  0  0
    2.0939    0.6604   -0.3485 H   0  0  0  0  0  0  0  0  0  0  0  0
    1.1576   -1.5747    0.2018 H   0  0  0  0  0  0  0  0  0  0  0  0
   -1.3194   -1.8237    0.5054 H   0  0  0  0  0  0  0  0  0  0  0  0
   -5.5097    3.1968   -0.1142 B   0  0  0  0  0  0  0  0  0  0  0  0
   -5.2584    2.3834   -1.1400 F   0  0  0  0  0  0  0  0  0  0  0  0
   -3.9049    4.4525   -0.4689 F   0  0  0  0  0  0  0  0  0  0  0  0
   -6.4320    4.1382   -0.2324 F   0  0  0  0  0  0  0  0  0  0  0  0
   -5.1045    2.8147    1.0966 F   0  0  0  0  0  0  0  0  0  0  0  0
  1  2  1  0  0  0  0
  1  8  1  0  0  0  0
  2  3  1  0  0  0  0
  4  1  2  0  0  0  0
  5  6  2  0  0  0  0
  5  4  1  0  0  0  0
  6  7  1  0  0  0  0
  7 12  1  0  0  0  0
  7  8  2  0  0  0  0
  8 13  1  0  0  0  0
 10  5  1  0  0  0  0
 11  6  1  0  0  0  0
 14 18  1  0  0  0  0
 15 14  1  0  0  0  0
 16  9  1  0  0  0  0
 17 14  1  0  0  0  0
M  RAD  3   2   2   3   3   4   2
M  END
