Coordinates from ORCA-job PhN2+~BF4-_B3LYPG-6-31G_dp-CH-Scan-d09-49-n800
 OpenBabel11261919213D

 18 16  0  0  0  0  0  0  0  0999 V2000
   -1.5765    0.3056    0.1078 C   0  0  0  0  0  0  0  0  0  0  0  0
   -2.9536    0.2034    0.2752 N   0  0  0  0  0  0  0  0  0  0  0  0
   -4.0652    0.1801    0.3977 N   0  0  0  0  0  0  0  0  0  0  0  0
   -1.1550    1.6114   -0.1967 C   0  0  0  0  0  0  0  0  0  0  0  0
    0.2595    1.6261   -0.3526 C   0  0  0  0  0  0  0  0  0  0  0  0
    1.0673    0.5011   -0.2186 C   0  0  0  0  0  0  0  0  0  0  0  0
    0.5264   -0.7710    0.0925 C   0  0  0  0  0  0  0  0  0  0  0  0
   -0.8334   -0.8967    0.2656 C   0  0  0  0  0  0  0  0  0  0  0  0
   -3.2421    4.1236   -0.4752 H   0  0  0  0  0  0  0  0  0  0  0  0
    0.7501    2.5698   -0.5935 H   0  0  0  0  0  0  0  0  0  0  0  0
    2.1442    0.5863   -0.3550 H   0  0  0  0  0  0  0  0  0  0  0  0
    1.1751   -1.6350    0.1933 H   0  0  0  0  0  0  0  0  0  0  0  0
   -1.3052   -1.8454    0.5065 H   0  0  0  0  0  0  0  0  0  0  0  0
   -5.5957    3.1997   -0.1172 B   0  0  0  0  0  0  0  0  0  0  0  0
   -5.2564    2.4200   -1.1416 F   0  0  0  0  0  0  0  0  0  0  0  0
   -4.0456    4.5973   -0.4567 F   0  0  0  0  0  0  0  0  0  0  0  0
   -6.5723    4.0801   -0.2538 F   0  0  0  0  0  0  0  0  0  0  0  0
   -5.1755    2.8567    1.0975 F   0  0  0  0  0  0  0  0  0  0  0  0
  1  8  1  0  0  0  0
  1  2  1  0  0  0  0
  2  3  1  0  0  0  0
  4  1  2  0  0  0  0
  5  6  2  0  0  0  0
  5  4  1  0  0  0  0
  6  7  1  0  0  0  0
  7 12  1  0  0  0  0
  7  8  2  0  0  0  0
  8 13  1  0  0  0  0
  9 16  1  0  0  0  0
 10  5  1  0  0  0  0
 11  6  1  0  0  0  0
 14 18  1  0  0  0  0
 15 14  1  0  0  0  0
 17 14  1  0  0  0  0
M  RAD  3   2   2   3   3   4   2
M  END
