Coordinates from ORCA-job PhN2+~BF4-_B3LYPG-6-31G_dp-CH-Scan-d09-49-n800
 OpenBabel11261919213D

 18 16  0  0  0  0  0  0  0  0999 V2000
   -1.5593    0.3016    0.1104 C   0  0  0  0  0  0  0  0  0  0  0  0
   -2.9375    0.2094    0.2794 N   0  0  0  0  0  0  0  0  0  0  0  0
   -4.0491    0.1967    0.4039 N   0  0  0  0  0  0  0  0  0  0  0  0
   -1.1314    1.6054   -0.1921 C   0  0  0  0  0  0  0  0  0  0  0  0
    0.2833    1.6113   -0.3500 C   0  0  0  0  0  0  0  0  0  0  0  0
    1.0843    0.4810   -0.2193 C   0  0  0  0  0  0  0  0  0  0  0  0
    0.5359   -0.7885    0.0902 C   0  0  0  0  0  0  0  0  0  0  0  0
   -0.8243   -0.9061    0.2651 C   0  0  0  0  0  0  0  0  0  0  0  0
   -3.2852    4.1917   -0.4819 H   0  0  0  0  0  0  0  0  0  0  0  0
    0.7797    2.5523   -0.5897 H   0  0  0  0  0  0  0  0  0  0  0  0
    2.1616    0.5596   -0.3571 H   0  0  0  0  0  0  0  0  0  0  0  0
    1.1796   -1.6566    0.1883 H   0  0  0  0  0  0  0  0  0  0  0  0
   -1.3018   -1.8522    0.5049 H   0  0  0  0  0  0  0  0  0  0  0  0
   -5.6221    3.2002   -0.1181 B   0  0  0  0  0  0  0  0  0  0  0  0
   -5.2528    2.4314   -1.1399 F   0  0  0  0  0  0  0  0  0  0  0  0
   -4.0987    4.6462   -0.4554 F   0  0  0  0  0  0  0  0  0  0  0  0
   -6.6189    4.0559   -0.2626 F   0  0  0  0  0  0  0  0  0  0  0  0
   -5.1973    2.8739    1.0989 F   0  0  0  0  0  0  0  0  0  0  0  0
  1  8  1  0  0  0  0
  1  2  1  0  0  0  0
  2  3  1  0  0  0  0
  4  1  2  0  0  0  0
  5  6  2  0  0  0  0
  5  4  1  0  0  0  0
  6  7  1  0  0  0  0
  7 12  1  0  0  0  0
  7  8  2  0  0  0  0
  8 13  1  0  0  0  0
  9 16  1  0  0  0  0
 10  5  1  0  0  0  0
 11  6  1  0  0  0  0
 14 18  1  0  0  0  0
 15 14  1  0  0  0  0
 17 14  1  0  0  0  0
M  RAD  3   2   2   3   3   4   2
M  END
