Coordinates from ORCA-job PhN2+~BF4-_B3LYPG-6-31G_dp-CH-Scan-d09-49-n800
 OpenBabel11261919213D

 18 16  0  0  0  0  0  0  0  0999 V2000
   -1.6210    0.3179    0.1015 C   0  0  0  0  0  0  0  0  0  0  0  0
   -2.9957    0.1908    0.2643 N   0  0  0  0  0  0  0  0  0  0  0  0
   -4.1064    0.1408    0.3834 N   0  0  0  0  0  0  0  0  0  0  0  0
   -1.2137    1.6284   -0.2047 C   0  0  0  0  0  0  0  0  0  0  0  0
    0.1996    1.6649   -0.3561 C   0  0  0  0  0  0  0  0  0  0  0  0
    1.0234    0.5519   -0.2162 C   0  0  0  0  0  0  0  0  0  0  0  0
    0.4997   -0.7264    0.0962 C   0  0  0  0  0  0  0  0  0  0  0  0
   -0.8589   -0.8715    0.2645 C   0  0  0  0  0  0  0  0  0  0  0  0
   -3.1411    3.9493   -0.4605 H   0  0  0  0  0  0  0  0  0  0  0  0
    0.6761    2.6152   -0.5977 H   0  0  0  0  0  0  0  0  0  0  0  0
    2.0993    0.6529   -0.3488 H   0  0  0  0  0  0  0  0  0  0  0  0
    1.1602   -1.5808    0.2019 H   0  0  0  0  0  0  0  0  0  0  0  0
   -1.3172   -1.8265    0.5060 H   0  0  0  0  0  0  0  0  0  0  0  0
   -5.5198    3.1975   -0.1142 B   0  0  0  0  0  0  0  0  0  0  0  0
   -5.2596    2.3880   -1.1405 F   0  0  0  0  0  0  0  0  0  0  0  0
   -3.9192    4.4685   -0.4673 F   0  0  0  0  0  0  0  0  0  0  0  0
   -6.4473    4.1334   -0.2335 F   0  0  0  0  0  0  0  0  0  0  0  0
   -5.1124    2.8188    1.0966 F   0  0  0  0  0  0  0  0  0  0  0  0
  1  2  1  0  0  0  0
  1  8  1  0  0  0  0
  2  3  1  0  0  0  0
  4  1  2  0  0  0  0
  5  6  2  0  0  0  0
  5  4  1  0  0  0  0
  6  7  1  0  0  0  0
  7 12  1  0  0  0  0
  7  8  2  0  0  0  0
  8 13  1  0  0  0  0
 10  5  1  0  0  0  0
 11  6  1  0  0  0  0
 14 18  1  0  0  0  0
 15 14  1  0  0  0  0
 16  9  1  0  0  0  0
 17 14  1  0  0  0  0
M  RAD  3   2   2   3   3   4   2
M  END
