Coordinates from ORCA-job PhN2+~BF4-_B3LYPG-6-31G_dp-CH-Scan-d09-49-n800
 OpenBabel11261919213D

 18 16  0  0  0  0  0  0  0  0999 V2000
   -1.7960    0.3716    0.0784 C   0  0  0  0  0  0  0  0  0  0  0  0
   -3.1589    0.1580    0.2266 N   0  0  0  0  0  0  0  0  0  0  0  0
   -4.2610    0.0199    0.3377 N   0  0  0  0  0  0  0  0  0  0  0  0
   -1.4312    1.6955   -0.2304 C   0  0  0  0  0  0  0  0  0  0  0  0
   -0.0260    1.8088   -0.3639 C   0  0  0  0  0  0  0  0  0  0  0  0
    0.8500    0.7377   -0.2056 C   0  0  0  0  0  0  0  0  0  0  0  0
    0.3839   -0.5595    0.1062 C   0  0  0  0  0  0  0  0  0  0  0  0
   -0.9695   -0.7696    0.2563 C   0  0  0  0  0  0  0  0  0  0  0  0
   -2.8441    3.3242   -0.4431 H   0  0  0  0  0  0  0  0  0  0  0  0
    0.3998    2.7814   -0.6045 H   0  0  0  0  0  0  0  0  0  0  0  0
    1.9206    0.8926   -0.3236 H   0  0  0  0  0  0  0  0  0  0  0  0
    1.0814   -1.3816    0.2264 H   0  0  0  0  0  0  0  0  0  0  0  0
   -1.3819   -1.7450    0.4966 H   0  0  0  0  0  0  0  0  0  0  0  0
   -5.1332    3.1816   -0.1054 B   0  0  0  0  0  0  0  0  0  0  0  0
   -5.1797    2.2755   -1.1034 F   0  0  0  0  0  0  0  0  0  0  0  0
   -3.5511    3.9830   -0.5098 F   0  0  0  0  0  0  0  0  0  0  0  0
   -5.9354    4.2448   -0.1769 F   0  0  0  0  0  0  0  0  0  0  0  0
   -4.8215    2.6945    1.1135 F   0  0  0  0  0  0  0  0  0  0  0  0
  1  2  1  0  0  0  0
  1  8  2  0  0  0  0
  2  3  1  0  0  0  0
  4  1  1  0  0  0  0
  5  4  2  0  0  0  0
  5  6  1  0  0  0  0
  6  7  2  0  0  0  0
  7 12  1  0  0  0  0
  7  8  1  0  0  0  0
  8 13  1  0  0  0  0
 10  5  1  0  0  0  0
 11  6  1  0  0  0  0
 14 18  1  0  0  0  0
 15 14  1  0  0  0  0
 16  9  1  0  0  0  0
 17 14  1  0  0  0  0
M  RAD  3   2   2   3   3   4   2
M  END
