Coordinates from ORCA-job PhN2+~BF4-_B3LYPG-6-31G_dp-CH-Scan-d09-49-n800
 OpenBabel11261919213D

 18 16  0  0  0  0  0  0  0  0999 V2000
   -1.3079    0.3091    0.1494 C   0  0  0  0  0  0  0  0  0  0  0  0
   -2.6811    0.4031    0.3732 N   0  0  0  0  0  0  0  0  0  0  0  0
   -3.7780    0.5566    0.5375 N   0  0  0  0  0  0  0  0  0  0  0  0
   -0.7467    1.5500   -0.1863 C   0  0  0  0  0  0  0  0  0  0  0  0
    0.6527    1.3828   -0.4027 C   0  0  0  0  0  0  0  0  0  0  0  0
    1.3152    0.1648   -0.2917 C   0  0  0  0  0  0  0  0  0  0  0  0
    0.6313   -1.0280    0.0572 C   0  0  0  0  0  0  0  0  0  0  0  0
   -0.7242   -0.9798    0.2910 C   0  0  0  0  0  0  0  0  0  0  0  0
   -4.1770    4.9964   -0.5342 H   0  0  0  0  0  0  0  0  0  0  0  0
    1.2494    2.2550   -0.6739 H   0  0  0  0  0  0  0  0  0  0  0  0
    2.3872    0.1097   -0.4759 H   0  0  0  0  0  0  0  0  0  0  0  0
    1.1709   -1.9661    0.1392 H   0  0  0  0  0  0  0  0  0  0  0  0
   -1.3024   -1.8588    0.5630 H   0  0  0  0  0  0  0  0  0  0  0  0
   -5.8834    3.2167   -0.1697 B   0  0  0  0  0  0  0  0  0  0  0  0
   -4.8812    2.8305   -0.9631 F   0  0  0  0  0  0  0  0  0  0  0  0
   -4.9457    5.1975   -0.0495 F   0  0  0  0  0  0  0  0  0  0  0  0
   -7.0159    3.6262   -0.7112 F   0  0  0  0  0  0  0  0  0  0  0  0
   -5.8172    2.9473    1.1226 F   0  0  0  0  0  0  0  0  0  0  0  0
  1  8  1  0  0  0  0
  1  2  1  0  0  0  0
  2  3  1  0  0  0  0
  4  1  2  0  0  0  0
  5  6  2  0  0  0  0
  5  4  1  0  0  0  0
  6  7  1  0  0  0  0
  7 12  1  0  0  0  0
  7  8  2  0  0  0  0
  8 13  1  0  0  0  0
  9 16  1  0  0  0  0
 10  5  1  0  0  0  0
 11  6  1  0  0  0  0
 14 18  1  0  0  0  0
 15 14  1  0  0  0  0
 17 14  1  0  0  0  0
M  RAD  3   2   2   3   3   4   2
M  END
