Coordinates from ORCA-job PhN2+~BF4-_B3LYPG-6-31G_dp-CH-Scan-d09-49-n800
 OpenBabel11261919213D

 18 16  0  0  0  0  0  0  0  0999 V2000
   -1.5096    0.2928    0.1155 C   0  0  0  0  0  0  0  0  0  0  0  0
   -2.8903    0.2305    0.2862 N   0  0  0  0  0  0  0  0  0  0  0  0
   -4.0021    0.2467    0.4121 N   0  0  0  0  0  0  0  0  0  0  0  0
   -1.0605    1.5894   -0.1841 C   0  0  0  0  0  0  0  0  0  0  0  0
    0.3546    1.5674   -0.3459 C   0  0  0  0  0  0  0  0  0  0  0  0
    1.1339    0.4217   -0.2206 C   0  0  0  0  0  0  0  0  0  0  0  0
    0.5622   -0.8383    0.0874 C   0  0  0  0  0  0  0  0  0  0  0  0
   -0.7995   -0.9303    0.2658 C   0  0  0  0  0  0  0  0  0  0  0  0
   -3.4195    4.3880   -0.4965 H   0  0  0  0  0  0  0  0  0  0  0  0
    0.8691    2.4993   -0.5843 H   0  0  0  0  0  0  0  0  0  0  0  0
    2.2122    0.4796   -0.3614 H   0  0  0  0  0  0  0  0  0  0  0  0
    1.1897   -1.7187    0.1814 H   0  0  0  0  0  0  0  0  0  0  0  0
   -1.2948   -1.8677    0.5045 H   0  0  0  0  0  0  0  0  0  0  0  0
   -5.6919    3.2020   -0.1201 B   0  0  0  0  0  0  0  0  0  0  0  0
   -5.2445    2.4704   -1.1367 F   0  0  0  0  0  0  0  0  0  0  0  0
   -4.2626    4.7796   -0.4481 F   0  0  0  0  0  0  0  0  0  0  0  0
   -6.7448    3.9832   -0.2818 F   0  0  0  0  0  0  0  0  0  0  0  0
   -5.2555    2.9176    1.1017 F   0  0  0  0  0  0  0  0  0  0  0  0
  1  8  1  0  0  0  0
  1  2  1  0  0  0  0
  2  3  1  0  0  0  0
  4  1  2  0  0  0  0
  5  6  2  0  0  0  0
  5  4  1  0  0  0  0
  6  7  1  0  0  0  0
  7 12  1  0  0  0  0
  7  8  2  0  0  0  0
  8 13  1  0  0  0  0
  9 16  1  0  0  0  0
 10  5  1  0  0  0  0
 11  6  1  0  0  0  0
 14 18  1  0  0  0  0
 15 14  1  0  0  0  0
 17 14  1  0  0  0  0
M  RAD  3   2   2   3   3   4   2
M  END
