Coordinates from ORCA-job PhN2+~BF4-_B3LYPG-6-31G_dp-CH-Scan-d09-49-n800
 OpenBabel11261919213D

 18 16  0  0  0  0  0  0  0  0999 V2000
   -1.3739    0.2925    0.1431 C   0  0  0  0  0  0  0  0  0  0  0  0
   -2.7497    0.3346    0.3645 N   0  0  0  0  0  0  0  0  0  0  0  0
   -3.8524    0.4433    0.5249 N   0  0  0  0  0  0  0  0  0  0  0  0
   -0.8597    1.5485   -0.2125 C   0  0  0  0  0  0  0  0  0  0  0  0
    0.5451    1.4310   -0.4257 C   0  0  0  0  0  0  0  0  0  0  0  0
    1.2539    0.2412   -0.2949 C   0  0  0  0  0  0  0  0  0  0  0  0
    0.6158   -0.9709    0.0732 C   0  0  0  0  0  0  0  0  0  0  0  0
   -0.7408   -0.9704    0.3057 C   0  0  0  0  0  0  0  0  0  0  0  0
   -3.9686    4.8648   -0.4975 H   0  0  0  0  0  0  0  0  0  0  0  0
    1.1085    2.3208   -0.7111 H   0  0  0  0  0  0  0  0  0  0  0  0
    2.3274    0.2245   -0.4779 H   0  0  0  0  0  0  0  0  0  0  0  0
    1.1906   -1.8864    0.1709 H   0  0  0  0  0  0  0  0  0  0  0  0
   -1.2851   -1.8666    0.5918 H   0  0  0  0  0  0  0  0  0  0  0  0
   -5.8104    3.2094   -0.1746 B   0  0  0  0  0  0  0  0  0  0  0  0
   -4.8376    2.7505   -0.9654 F   0  0  0  0  0  0  0  0  0  0  0  0
   -4.7395    5.1135   -0.0388 F   0  0  0  0  0  0  0  0  0  0  0  0
   -6.9082    3.7027   -0.7180 F   0  0  0  0  0  0  0  0  0  0  0  0
   -5.7693    2.9301    1.1171 F   0  0  0  0  0  0  0  0  0  0  0  0
  1  8  1  0  0  0  0
  1  2  1  0  0  0  0
  2  3  1  0  0  0  0
  4  1  2  0  0  0  0
  5  6  2  0  0  0  0
  5  4  1  0  0  0  0
  6  7  1  0  0  0  0
  7 12  1  0  0  0  0
  7  8  2  0  0  0  0
  8 13  1  0  0  0  0
  9 16  1  0  0  0  0
 10  5  1  0  0  0  0
 11  6  1  0  0  0  0
 14 18  1  0  0  0  0
 15 14  1  0  0  0  0
 17 14  1  0  0  0  0
M  RAD  3   2   2   3   3   4   2
M  END
