Coordinates from ORCA-job PhN2+~BF4-_B3LYPG-6-31G_dp-CH-Scan-d09-49-n800
 OpenBabel11261919213D

 18 17  0  0  0  0  0  0  0  0999 V2000
   -2.1203    0.4762   -0.1929 C   0  0  0  0  0  0  0  0  0  0  0  0
   -3.4668    0.1542   -0.2322 N   0  0  0  0  0  0  0  0  0  0  0  0
   -4.5109   -0.2213   -0.2698 N   0  0  0  0  0  0  0  0  0  0  0  0
   -1.6741    1.6628   -0.7930 C   0  0  0  0  0  0  0  0  0  0  0  0
   -0.3039    1.9005   -0.7564 C   0  0  0  0  0  0  0  0  0  0  0  0
    0.5636    0.9937   -0.1429 C   0  0  0  0  0  0  0  0  0  0  0  0
    0.0816   -0.1811    0.4526 C   0  0  0  0  0  0  0  0  0  0  0  0
   -1.2760   -0.4595    0.4345 C   0  0  0  0  0  0  0  0  0  0  0  0
   -2.3912    2.3505   -1.2169 H   0  0  0  0  0  0  0  0  0  0  0  0
    0.0805    2.8131   -1.1982 H   0  0  0  0  0  0  0  0  0  0  0  0
    1.6288    1.2031   -0.1196 H   0  0  0  0  0  0  0  0  0  0  0  0
    0.7645   -0.8745    0.9309 H   0  0  0  0  0  0  0  0  0  0  0  0
   -1.6835   -1.3556    0.8885 H   0  0  0  0  0  0  0  0  0  0  0  0
   -4.3308    3.0880    0.2177 B   0  0  0  0  0  0  0  0  0  0  0  0
   -4.4333    2.3758   -1.0365 F   0  0  0  0  0  0  0  0  0  0  0  0
   -3.1996    3.9112    0.1313 F   0  0  0  0  0  0  0  0  0  0  0  0
   -5.4833    3.7861    0.4695 F   0  0  0  0  0  0  0  0  0  0  0  0
   -4.0991    2.0901    1.2084 F   0  0  0  0  0  0  0  0  0  0  0  0
  1  8  2  0  0  0  0
  2  1  1  0  0  0  0
  3  2  1  0  0  0  0
  4  5  2  0  0  0  0
  4  1  1  0  0  0  0
  5  6  1  0  0  0  0
  6 11  1  0  0  0  0
  6  7  2  0  0  0  0
  7 12  1  0  0  0  0
  8  7  1  0  0  0  0
  8 13  1  0  0  0  0
  9  4  1  0  0  0  0
 10  5  1  0  0  0  0
 14 17  1  0  0  0  0
 14 18  1  0  0  0  0
 15 14  1  0  0  0  0
 16 14  1  0  0  0  0
M  RAD  2   2   2   3   3
M  END
