Coordinates from ORCA-job PhN2+~BF4-_B3LYPG-6-31G_dp-CH-Scan-d09-49-n800
 OpenBabel11261919213D

 18 16  0  0  0  0  0  0  0  0999 V2000
   -1.5028    0.2904    0.1168 C   0  0  0  0  0  0  0  0  0  0  0  0
   -2.8836    0.2332    0.2887 N   0  0  0  0  0  0  0  0  0  0  0  0
   -3.9956    0.2549    0.4128 N   0  0  0  0  0  0  0  0  0  0  0  0
   -1.0517    1.5860   -0.1843 C   0  0  0  0  0  0  0  0  0  0  0  0
    0.3634    1.5606   -0.3470 C   0  0  0  0  0  0  0  0  0  0  0  0
    1.1402    0.4132   -0.2219 C   0  0  0  0  0  0  0  0  0  0  0  0
    0.5659   -0.8454    0.0874 C   0  0  0  0  0  0  0  0  0  0  0  0
   -0.7958   -0.9344    0.2672 C   0  0  0  0  0  0  0  0  0  0  0  0
   -3.4399    4.4192   -0.4954 H   0  0  0  0  0  0  0  0  0  0  0  0
    0.8800    2.4911   -0.5865 H   0  0  0  0  0  0  0  0  0  0  0  0
    2.2185    0.4685   -0.3638 H   0  0  0  0  0  0  0  0  0  0  0  0
    1.1917   -1.7271    0.1815 H   0  0  0  0  0  0  0  0  0  0  0  0
   -1.2931   -1.8704    0.5070 H   0  0  0  0  0  0  0  0  0  0  0  0
   -5.7000    3.2018   -0.1218 B   0  0  0  0  0  0  0  0  0  0  0  0
   -5.2368    2.4786   -1.1372 F   0  0  0  0  0  0  0  0  0  0  0  0
   -4.2873    4.8005   -0.4418 F   0  0  0  0  0  0  0  0  0  0  0  0
   -6.7617    3.9698   -0.2882 F   0  0  0  0  0  0  0  0  0  0  0  0
   -5.2655    2.9226    1.1018 F   0  0  0  0  0  0  0  0  0  0  0  0
  1  8  1  0  0  0  0
  1  2  1  0  0  0  0
  2  3  1  0  0  0  0
  4  1  2  0  0  0  0
  5  6  2  0  0  0  0
  5  4  1  0  0  0  0
  6  7  1  0  0  0  0
  7 12  1  0  0  0  0
  7  8  2  0  0  0  0
  8 13  1  0  0  0  0
  9 16  1  0  0  0  0
 10  5  1  0  0  0  0
 11  6  1  0  0  0  0
 14 18  1  0  0  0  0
 15 14  1  0  0  0  0
 17 14  1  0  0  0  0
M  RAD  3   2   2   3   3   4   2
M  END
