Coordinates from ORCA-job PhN2+~BF4-_B3LYPG-6-31G_dp-CH-Scan-d09-49-n800
 OpenBabel11261919213D

 18 16  0  0  0  0  0  0  0  0999 V2000
   -1.3750    0.2920    0.1431 C   0  0  0  0  0  0  0  0  0  0  0  0
   -2.7509    0.3333    0.3644 N   0  0  0  0  0  0  0  0  0  0  0  0
   -3.8536    0.4421    0.5249 N   0  0  0  0  0  0  0  0  0  0  0  0
   -0.8617    1.5484   -0.2125 C   0  0  0  0  0  0  0  0  0  0  0  0
    0.5432    1.4318   -0.4257 C   0  0  0  0  0  0  0  0  0  0  0  0
    1.2528    0.2426   -0.2948 C   0  0  0  0  0  0  0  0  0  0  0  0
    0.6156   -0.9700    0.0733 C   0  0  0  0  0  0  0  0  0  0  0  0
   -0.7410   -0.9705    0.3057 C   0  0  0  0  0  0  0  0  0  0  0  0
   -3.9654    4.8626   -0.4978 H   0  0  0  0  0  0  0  0  0  0  0  0
    1.1059    2.3220   -0.7110 H   0  0  0  0  0  0  0  0  0  0  0  0
    2.3263    0.2266   -0.4778 H   0  0  0  0  0  0  0  0  0  0  0  0
    1.1910   -1.8851    0.1709 H   0  0  0  0  0  0  0  0  0  0  0  0
   -1.2847   -1.8670    0.5918 H   0  0  0  0  0  0  0  0  0  0  0  0
   -5.8091    3.2093   -0.1744 B   0  0  0  0  0  0  0  0  0  0  0  0
   -4.8369    2.7492   -0.9655 F   0  0  0  0  0  0  0  0  0  0  0  0
   -4.7362    5.1123   -0.0393 F   0  0  0  0  0  0  0  0  0  0  0  0
   -6.9065    3.7036   -0.7176 F   0  0  0  0  0  0  0  0  0  0  0  0
   -5.7678    2.9302    1.1173 F   0  0  0  0  0  0  0  0  0  0  0  0
  1  8  1  0  0  0  0
  1  2  1  0  0  0  0
  2  3  1  0  0  0  0
  4  1  2  0  0  0  0
  5  6  2  0  0  0  0
  5  4  1  0  0  0  0
  6  7  1  0  0  0  0
  7 12  1  0  0  0  0
  7  8  2  0  0  0  0
  8 13  1  0  0  0  0
  9 16  1  0  0  0  0
 10  5  1  0  0  0  0
 11  6  1  0  0  0  0
 14 18  1  0  0  0  0
 15 14  1  0  0  0  0
 17 14  1  0  0  0  0
M  RAD  3   2   2   3   3   4   2
M  END
