Coordinates from ORCA-job PhN2+~BF4-_B3LYPG-6-31G_dp-CH-Scan-d09-49-n800
 OpenBabel11261919213D

 18 16  0  0  0  0  0  0  0  0999 V2000
   -1.5037    0.2895    0.1169 C   0  0  0  0  0  0  0  0  0  0  0  0
   -2.8843    0.2318    0.2882 N   0  0  0  0  0  0  0  0  0  0  0  0
   -3.9961    0.2538    0.4135 N   0  0  0  0  0  0  0  0  0  0  0  0
   -1.0537    1.5858   -0.1832 C   0  0  0  0  0  0  0  0  0  0  0  0
    0.3614    1.5615   -0.3461 C   0  0  0  0  0  0  0  0  0  0  0  0
    1.1391    0.4146   -0.2215 C   0  0  0  0  0  0  0  0  0  0  0  0
    0.5658   -0.8447    0.0871 C   0  0  0  0  0  0  0  0  0  0  0  0
   -0.7958   -0.9349    0.2668 C   0  0  0  0  0  0  0  0  0  0  0  0
   -3.4371    4.4161   -0.4976 H   0  0  0  0  0  0  0  0  0  0  0  0
    0.8774    2.4925   -0.5851 H   0  0  0  0  0  0  0  0  0  0  0  0
    2.2174    0.4708   -0.3634 H   0  0  0  0  0  0  0  0  0  0  0  0
    1.1923   -1.7260    0.1806 H   0  0  0  0  0  0  0  0  0  0  0  0
   -1.2924   -1.8714    0.5060 H   0  0  0  0  0  0  0  0  0  0  0  0
   -5.6988    3.2023   -0.1213 B   0  0  0  0  0  0  0  0  0  0  0  0
   -5.2379    2.4778   -1.1370 F   0  0  0  0  0  0  0  0  0  0  0  0
   -4.2843    4.7987   -0.4439 F   0  0  0  0  0  0  0  0  0  0  0  0
   -6.7596    3.9718   -0.2870 F   0  0  0  0  0  0  0  0  0  0  0  0
   -5.2634    2.9232    1.1020 F   0  0  0  0  0  0  0  0  0  0  0  0
  1  8  1  0  0  0  0
  1  2  1  0  0  0  0
  2  3  1  0  0  0  0
  4  1  2  0  0  0  0
  5  6  2  0  0  0  0
  5  4  1  0  0  0  0
  6  7  1  0  0  0  0
  7 12  1  0  0  0  0
  7  8  2  0  0  0  0
  8 13  1  0  0  0  0
  9 16  1  0  0  0  0
 10  5  1  0  0  0  0
 11  6  1  0  0  0  0
 14 18  1  0  0  0  0
 15 14  1  0  0  0  0
 17 14  1  0  0  0  0
M  RAD  3   2   2   3   3   4   2
M  END
