Coordinates from ORCA-job PhN2+~BF4-_B3LYPG-6-31G_dp-CH-Scan-d09-49-n800
 OpenBabel11261919213D

 18 16  0  0  0  0  0  0  0  0999 V2000
   -1.8592    0.3973    0.0875 C   0  0  0  0  0  0  0  0  0  0  0  0
   -3.2163    0.1589    0.2468 N   0  0  0  0  0  0  0  0  0  0  0  0
   -4.3130   -0.0041    0.3677 N   0  0  0  0  0  0  0  0  0  0  0  0
   -1.5020    1.7242   -0.2181 C   0  0  0  0  0  0  0  0  0  0  0  0
   -0.1031    1.8582   -0.3638 C   0  0  0  0  0  0  0  0  0  0  0  0
    0.7864    0.7957   -0.2180 C   0  0  0  0  0  0  0  0  0  0  0  0
    0.3361   -0.5057    0.0917 C   0  0  0  0  0  0  0  0  0  0  0  0
   -1.0145   -0.7308    0.2520 C   0  0  0  0  0  0  0  0  0  0  0  0
   -2.7407    3.1362   -0.3901 H   0  0  0  0  0  0  0  0  0  0  0  0
    0.3056    2.8376   -0.6033 H   0  0  0  0  0  0  0  0  0  0  0  0
    1.8536    0.9635   -0.3446 H   0  0  0  0  0  0  0  0  0  0  0  0
    1.0422   -1.3217    0.2029 H   0  0  0  0  0  0  0  0  0  0  0  0
   -1.4135   -1.7117    0.4913 H   0  0  0  0  0  0  0  0  0  0  0  0
   -4.9695    3.1626   -0.1319 B   0  0  0  0  0  0  0  0  0  0  0  0
   -5.0619    2.2258   -1.1145 F   0  0  0  0  0  0  0  0  0  0  0  0
   -3.4491    3.8499   -0.4658 F   0  0  0  0  0  0  0  0  0  0  0  0
   -5.7754    4.2308   -0.2247 F   0  0  0  0  0  0  0  0  0  0  0  0
   -4.7597    2.6464    1.1099 F   0  0  0  0  0  0  0  0  0  0  0  0
  1  2  1  0  0  0  0
  1  8  2  0  0  0  0
  2  3  1  0  0  0  0
  4  1  1  0  0  0  0
  5  4  2  0  0  0  0
  5  6  1  0  0  0  0
  6  7  2  0  0  0  0
  7 12  1  0  0  0  0
  7  8  1  0  0  0  0
  8 13  1  0  0  0  0
 10  5  1  0  0  0  0
 11  6  1  0  0  0  0
 14 18  1  0  0  0  0
 15 14  1  0  0  0  0
 16  9  1  0  0  0  0
 17 14  1  0  0  0  0
M  RAD  3   2   2   3   3   4   2
M  END
