Coordinates from ORCA-job PhN2+~BF4-_B3LYPG-6-31G_dp-CH-Scan-d09-49-n800
 OpenBabel11261919213D

 18 16  0  0  0  0  0  0  0  0999 V2000
   -1.3966    0.2867    0.1399 C   0  0  0  0  0  0  0  0  0  0  0  0
   -2.7730    0.3116    0.3582 N   0  0  0  0  0  0  0  0  0  0  0  0
   -3.8774    0.4076    0.5152 N   0  0  0  0  0  0  0  0  0  0  0  0
   -0.8979    1.5484   -0.2188 C   0  0  0  0  0  0  0  0  0  0  0  0
    0.5087    1.4480   -0.4291 C   0  0  0  0  0  0  0  0  0  0  0  0
    1.2326    0.2680   -0.2929 C   0  0  0  0  0  0  0  0  0  0  0  0
    0.6096   -0.9511    0.0781 C   0  0  0  0  0  0  0  0  0  0  0  0
   -0.7474   -0.9673    0.3079 C   0  0  0  0  0  0  0  0  0  0  0  0
   -3.8995    4.8143   -0.4970 H   0  0  0  0  0  0  0  0  0  0  0  0
    1.0611    2.3440   -0.7163 H   0  0  0  0  0  0  0  0  0  0  0  0
    2.3065    0.2646   -0.4738 H   0  0  0  0  0  0  0  0  0  0  0  0
    1.1959   -1.8587    0.1798 H   0  0  0  0  0  0  0  0  0  0  0  0
   -1.2806   -1.8695    0.5960 H   0  0  0  0  0  0  0  0  0  0  0  0
   -5.7843    3.2074   -0.1719 B   0  0  0  0  0  0  0  0  0  0  0  0
   -4.8302    2.7225   -0.9699 F   0  0  0  0  0  0  0  0  0  0  0  0
   -4.6672    5.0822   -0.0436 F   0  0  0  0  0  0  0  0  0  0  0  0
   -6.8739    3.7274   -0.7067 F   0  0  0  0  0  0  0  0  0  0  0  0
   -5.7401    2.9272    1.1198 F   0  0  0  0  0  0  0  0  0  0  0  0
  1  8  1  0  0  0  0
  1  2  1  0  0  0  0
  2  3  1  0  0  0  0
  4  1  2  0  0  0  0
  5  6  2  0  0  0  0
  5  4  1  0  0  0  0
  6  7  1  0  0  0  0
  7 12  1  0  0  0  0
  7  8  2  0  0  0  0
  8 13  1  0  0  0  0
  9 16  1  0  0  0  0
 10  5  1  0  0  0  0
 11  6  1  0  0  0  0
 14 18  1  0  0  0  0
 15 14  1  0  0  0  0
 17 14  1  0  0  0  0
M  RAD  3   2   2   3   3   4   2
M  END
