Coordinates from ORCA-job PhN2+~BF4-_B3LYPG-6-31G_dp-CH-Scan-d09-49-n800
 OpenBabel11261919213D

 18 16  0  0  0  0  0  0  0  0999 V2000
   -1.6431    0.3246    0.1016 C   0  0  0  0  0  0  0  0  0  0  0  0
   -3.0164    0.1877    0.2647 N   0  0  0  0  0  0  0  0  0  0  0  0
   -4.1264    0.1304    0.3857 N   0  0  0  0  0  0  0  0  0  0  0  0
   -1.2421    1.6380   -0.2014 C   0  0  0  0  0  0  0  0  0  0  0  0
    0.1703    1.6848   -0.3531 C   0  0  0  0  0  0  0  0  0  0  0  0
    1.0010    0.5765   -0.2159 C   0  0  0  0  0  0  0  0  0  0  0  0
    0.4852   -0.7054    0.0934 C   0  0  0  0  0  0  0  0  0  0  0  0
   -0.8725   -0.8595    0.2614 C   0  0  0  0  0  0  0  0  0  0  0  0
   -3.0963    3.8633   -0.4539 H   0  0  0  0  0  0  0  0  0  0  0  0
    0.6402    2.6387   -0.5925 H   0  0  0  0  0  0  0  0  0  0  0  0
    2.0761    0.6846   -0.3483 H   0  0  0  0  0  0  0  0  0  0  0  0
    1.1508   -1.5561    0.1968 H   0  0  0  0  0  0  0  0  0  0  0  0
   -1.3247   -1.8180    0.5005 H   0  0  0  0  0  0  0  0  0  0  0  0
   -5.4784    3.1941   -0.1147 B   0  0  0  0  0  0  0  0  0  0  0  0
   -5.2513    2.3688   -1.1376 F   0  0  0  0  0  0  0  0  0  0  0  0
   -3.8610    4.4046   -0.4771 F   0  0  0  0  0  0  0  0  0  0  0  0
   -6.3858    4.1507   -0.2317 F   0  0  0  0  0  0  0  0  0  0  0  0
   -5.0794    2.8055    1.0971 F   0  0  0  0  0  0  0  0  0  0  0  0
  1  8  1  0  0  0  0
  1  2  1  0  0  0  0
  2  3  1  0  0  0  0
  4  1  2  0  0  0  0
  5  6  2  0  0  0  0
  5  4  1  0  0  0  0
  6  7  1  0  0  0  0
  7 12  1  0  0  0  0
  7  8  2  0  0  0  0
  8 13  1  0  0  0  0
 10  5  1  0  0  0  0
 11  6  1  0  0  0  0
 14 18  1  0  0  0  0
 15 14  1  0  0  0  0
 16  9  1  0  0  0  0
 17 14  1  0  0  0  0
M  RAD  3   2   2   3   3   4   2
M  END
