Coordinates from ORCA-job PhN2+~BF4-_B3LYPG-6-31G_dp-CH-Scan-d09-49-n800
 OpenBabel11261919213D

 18 16  0  0  0  0  0  0  0  0999 V2000
   -1.6956    0.3423    0.0971 C   0  0  0  0  0  0  0  0  0  0  0  0
   -3.0649    0.1773    0.2594 N   0  0  0  0  0  0  0  0  0  0  0  0
   -4.1718    0.0868    0.3830 N   0  0  0  0  0  0  0  0  0  0  0  0
   -1.3075    1.6602   -0.2051 C   0  0  0  0  0  0  0  0  0  0  0  0
    0.1026    1.7293   -0.3543 C   0  0  0  0  0  0  0  0  0  0  0  0
    0.9489    0.6328   -0.2155 C   0  0  0  0  0  0  0  0  0  0  0  0
    0.4505   -0.6555    0.0921 C   0  0  0  0  0  0  0  0  0  0  0  0
   -0.9055   -0.8286    0.2573 C   0  0  0  0  0  0  0  0  0  0  0  0
   -3.0013    3.6739   -0.4433 H   0  0  0  0  0  0  0  0  0  0  0  0
    0.5575    2.6903   -0.5924 H   0  0  0  0  0  0  0  0  0  0  0  0
    2.0225    0.7569   -0.3456 H   0  0  0  0  0  0  0  0  0  0  0  0
    1.1271   -1.4972    0.1967 H   0  0  0  0  0  0  0  0  0  0  0  0
   -1.3438   -1.7937    0.4951 H   0  0  0  0  0  0  0  0  0  0  0  0
   -5.3679    3.1913   -0.1153 B   0  0  0  0  0  0  0  0  0  0  0  0
   -5.2194    2.3296   -1.1277 F   0  0  0  0  0  0  0  0  0  0  0  0
   -3.7429    4.2560   -0.4774 F   0  0  0  0  0  0  0  0  0  0  0  0
   -6.2317    4.1911   -0.2321 F   0  0  0  0  0  0  0  0  0  0  0  0
   -5.0107    2.7705    1.1031 F   0  0  0  0  0  0  0  0  0  0  0  0
  1  8  1  0  0  0  0
  1  2  1  0  0  0  0
  2  3  1  0  0  0  0
  4  1  2  0  0  0  0
  5  6  2  0  0  0  0
  5  4  1  0  0  0  0
  6  7  1  0  0  0  0
  7 12  1  0  0  0  0
  7  8  2  0  0  0  0
  8 13  1  0  0  0  0
 10  5  1  0  0  0  0
 11  6  1  0  0  0  0
 14 18  1  0  0  0  0
 15 14  1  0  0  0  0
 16  9  1  0  0  0  0
 17 14  1  0  0  0  0
M  RAD  3   2   2   3   3   4   2
M  END
