Coordinates from ORCA-job PhN2+~BF4-_B3LYPG-6-31G_dp-CH-Scan-d09-49-n800
 OpenBabel11261919213D

 18 16  0  0  0  0  0  0  0  0999 V2000
   -1.7073    0.3462    0.0984 C   0  0  0  0  0  0  0  0  0  0  0  0
   -3.0755    0.1762    0.2633 N   0  0  0  0  0  0  0  0  0  0  0  0
   -4.1819    0.0813    0.3870 N   0  0  0  0  0  0  0  0  0  0  0  0
   -1.3224    1.6651   -0.2041 C   0  0  0  0  0  0  0  0  0  0  0  0
    0.0868    1.7392   -0.3549 C   0  0  0  0  0  0  0  0  0  0  0  0
    0.9367    0.6451   -0.2178 C   0  0  0  0  0  0  0  0  0  0  0  0
    0.4425   -0.6446    0.0897 C   0  0  0  0  0  0  0  0  0  0  0  0
   -0.9128   -0.8219    0.2567 C   0  0  0  0  0  0  0  0  0  0  0  0
   -2.9805    3.6315   -0.4313 H   0  0  0  0  0  0  0  0  0  0  0  0
    0.5381    2.7017   -0.5932 H   0  0  0  0  0  0  0  0  0  0  0  0
    2.0096    0.7726   -0.3493 H   0  0  0  0  0  0  0  0  0  0  0  0
    1.1216   -1.4844    0.1931 H   0  0  0  0  0  0  0  0  0  0  0  0
   -1.3478   -1.7883    0.4947 H   0  0  0  0  0  0  0  0  0  0  0  0
   -5.3419    3.1898   -0.1192 B   0  0  0  0  0  0  0  0  0  0  0  0
   -5.2042    2.3210   -1.1286 F   0  0  0  0  0  0  0  0  0  0  0  0
   -3.7165    4.2232   -0.4721 F   0  0  0  0  0  0  0  0  0  0  0  0
   -6.1976    4.1969   -0.2404 F   0  0  0  0  0  0  0  0  0  0  0  0
   -5.0007    2.7627    1.1028 F   0  0  0  0  0  0  0  0  0  0  0  0
  1  8  1  0  0  0  0
  1  2  1  0  0  0  0
  2  3  1  0  0  0  0
  4  1  2  0  0  0  0
  5  6  2  0  0  0  0
  5  4  1  0  0  0  0
  6  7  1  0  0  0  0
  7 12  1  0  0  0  0
  7  8  2  0  0  0  0
  8 13  1  0  0  0  0
 10  5  1  0  0  0  0
 11  6  1  0  0  0  0
 14 18  1  0  0  0  0
 15 14  1  0  0  0  0
 16  9  1  0  0  0  0
 17 14  1  0  0  0  0
M  RAD  3   2   2   3   3   4   2
M  END
