Coordinates from ORCA-job PhN2+~BF4-_B3LYPG-6-31G_dp-CH-Scan-d09-49-n800
 OpenBabel11261919213D

 18 16  0  0  0  0  0  0  0  0999 V2000
   -1.8902    0.4137    0.0962 C   0  0  0  0  0  0  0  0  0  0  0  0
   -3.2446    0.1672    0.2650 N   0  0  0  0  0  0  0  0  0  0  0  0
   -4.3383   -0.0047    0.3940 N   0  0  0  0  0  0  0  0  0  0  0  0
   -1.5315    1.7405   -0.2067 C   0  0  0  0  0  0  0  0  0  0  0  0
   -0.1369    1.8827   -0.3625 C   0  0  0  0  0  0  0  0  0  0  0  0
    0.7564    0.8213   -0.2272 C   0  0  0  0  0  0  0  0  0  0  0  0
    0.3105   -0.4808    0.0802 C   0  0  0  0  0  0  0  0  0  0  0  0
   -1.0391   -0.7098    0.2492 C   0  0  0  0  0  0  0  0  0  0  0  0
   -2.6808    3.0461   -0.3591 H   0  0  0  0  0  0  0  0  0  0  0  0
    0.2642    2.8651   -0.6008 H   0  0  0  0  0  0  0  0  0  0  0  0
    1.8220    0.9925   -0.3608 H   0  0  0  0  0  0  0  0  0  0  0  0
    1.0184   -1.2963    0.1832 H   0  0  0  0  0  0  0  0  0  0  0  0
   -1.4333   -1.6928    0.4872 H   0  0  0  0  0  0  0  0  0  0  0  0
   -4.8889    3.1487   -0.1483 B   0  0  0  0  0  0  0  0  0  0  0  0
   -4.9879    2.1935   -1.1232 F   0  0  0  0  0  0  0  0  0  0  0  0
   -3.4060    3.7975   -0.4384 F   0  0  0  0  0  0  0  0  0  0  0  0
   -5.7122    4.2073   -0.2586 F   0  0  0  0  0  0  0  0  0  0  0  0
   -4.7356    2.6215    1.1055 F   0  0  0  0  0  0  0  0  0  0  0  0
  1  8  1  0  0  0  0
  1  2  1  0  0  0  0
  2  3  1  0  0  0  0
  4  1  2  0  0  0  0
  5  6  2  0  0  0  0
  5  4  1  0  0  0  0
  6  7  1  0  0  0  0
  7 12  1  0  0  0  0
  7  8  2  0  0  0  0
  8 13  1  0  0  0  0
 10  5  1  0  0  0  0
 11  6  1  0  0  0  0
 14 18  1  0  0  0  0
 15 14  1  0  0  0  0
 16  9  1  0  0  0  0
 17 14  1  0  0  0  0
M  RAD  3   2   2   3   3   4   2
M  END
