Coordinates from ORCA-job PhN2+~BF4-_B3LYPG-6-31G_dp-CH-Scan-d09-49-n800
 OpenBabel11261919213D

 18 16  0  0  0  0  0  0  0  0999 V2000
   -1.4413    0.2769    0.1171 C   0  0  0  0  0  0  0  0  0  0  0  0
   -2.8208    0.2667    0.3152 N   0  0  0  0  0  0  0  0  0  0  0  0
   -3.9296    0.3321    0.4545 N   0  0  0  0  0  0  0  0  0  0  0  0
   -0.9689    1.5473   -0.2472 C   0  0  0  0  0  0  0  0  0  0  0  0
    0.4428    1.4809   -0.4343 C   0  0  0  0  0  0  0  0  0  0  0  0
    1.1946    0.3215   -0.2742 C   0  0  0  0  0  0  0  0  0  0  0  0
    0.5973   -0.9093    0.0994 C   0  0  0  0  0  0  0  0  0  0  0  0
   -0.7623   -0.9580    0.3080 C   0  0  0  0  0  0  0  0  0  0  0  0
   -3.7659    4.7006   -0.5250 H   0  0  0  0  0  0  0  0  0  0  0  0
    0.9766    2.3879   -0.7224 H   0  0  0  0  0  0  0  0  0  0  0  0
    2.2711    0.3443   -0.4378 H   0  0  0  0  0  0  0  0  0  0  0  0
    1.2047   -1.8006    0.2199 H   0  0  0  0  0  0  0  0  0  0  0  0
   -1.2767   -1.8707    0.5970 H   0  0  0  0  0  0  0  0  0  0  0  0
   -5.7368    3.2079   -0.1477 B   0  0  0  0  0  0  0  0  0  0  0  0
   -4.8565    2.6668   -0.9929 F   0  0  0  0  0  0  0  0  0  0  0  0
   -4.5165    5.0092   -0.0684 F   0  0  0  0  0  0  0  0  0  0  0  0
   -6.8210    3.7908   -0.6263 F   0  0  0  0  0  0  0  0  0  0  0  0
   -5.6448    2.9191    1.1401 F   0  0  0  0  0  0  0  0  0  0  0  0
  1  8  1  0  0  0  0
  1  2  1  0  0  0  0
  2  3  1  0  0  0  0
  4  1  2  0  0  0  0
  5  6  2  0  0  0  0
  5  4  1  0  0  0  0
  6  7  1  0  0  0  0
  7 12  1  0  0  0  0
  7  8  2  0  0  0  0
  8 13  1  0  0  0  0
  9 16  1  0  0  0  0
 10  5  1  0  0  0  0
 11  6  1  0  0  0  0
 14 18  1  0  0  0  0
 15 14  1  0  0  0  0
 17 14  1  0  0  0  0
M  RAD  3   2   2   3   3   4   2
M  END
