Coordinates from ORCA-job PhN2+~BF4-_B3LYPG-6-31G_dp-CH-Scan-d09-49-n800
 OpenBabel11261919213D

 18 16  0  0  0  0  0  0  0  0999 V2000
   -1.4140    0.2861    0.1364 C   0  0  0  0  0  0  0  0  0  0  0  0
   -2.7914    0.3001    0.3521 N   0  0  0  0  0  0  0  0  0  0  0  0
   -3.8969    0.3882    0.5051 N   0  0  0  0  0  0  0  0  0  0  0  0
   -0.9249    1.5507   -0.2249 C   0  0  0  0  0  0  0  0  0  0  0  0
    0.4828    1.4614   -0.4319 C   0  0  0  0  0  0  0  0  0  0  0  0
    1.2161    0.2877   -0.2909 C   0  0  0  0  0  0  0  0  0  0  0  0
    0.6024   -0.9353    0.0820 C   0  0  0  0  0  0  0  0  0  0  0  0
   -0.7549   -0.9620    0.3090 C   0  0  0  0  0  0  0  0  0  0  0  0
   -3.8452    4.7693   -0.4938 H   0  0  0  0  0  0  0  0  0  0  0  0
    1.0285    2.3611   -0.7205 H   0  0  0  0  0  0  0  0  0  0  0  0
    2.2905    0.2927   -0.4695 H   0  0  0  0  0  0  0  0  0  0  0  0
    1.1957   -1.8380    0.1875 H   0  0  0  0  0  0  0  0  0  0  0  0
   -1.2814   -1.8677    0.5985 H   0  0  0  0  0  0  0  0  0  0  0  0
   -5.7632    3.2024   -0.1689 B   0  0  0  0  0  0  0  0  0  0  0  0
   -4.8237    2.7002   -0.9736 F   0  0  0  0  0  0  0  0  0  0  0  0
   -4.6113    5.0544   -0.0481 F   0  0  0  0  0  0  0  0  0  0  0  0
   -6.8481    3.7399   -0.6962 F   0  0  0  0  0  0  0  0  0  0  0  0
   -5.7149    2.9219    1.1227 F   0  0  0  0  0  0  0  0  0  0  0  0
  1  8  1  0  0  0  0
  1  2  1  0  0  0  0
  2  3  1  0  0  0  0
  4  1  2  0  0  0  0
  5  6  2  0  0  0  0
  5  4  1  0  0  0  0
  6  7  1  0  0  0  0
  7 12  1  0  0  0  0
  7  8  2  0  0  0  0
  8 13  1  0  0  0  0
  9 16  1  0  0  0  0
 10  5  1  0  0  0  0
 11  6  1  0  0  0  0
 14 18  1  0  0  0  0
 15 14  1  0  0  0  0
 17 14  1  0  0  0  0
M  RAD  3   2   2   3   3   4   2
M  END
