Coordinates from ORCA-job PhN2+~BF4-_B3LYPG-6-31G_dp-CH-Scan-d09-49-n800
 OpenBabel11261919213D

 18 17  0  0  0  0  0  0  0  0999 V2000
   -2.1394    0.4838   -0.2172 C   0  0  0  0  0  0  0  0  0  0  0  0
   -3.4829    0.1501   -0.2673 N   0  0  0  0  0  0  0  0  0  0  0  0
   -4.5194   -0.2455   -0.3106 N   0  0  0  0  0  0  0  0  0  0  0  0
   -1.6945    1.6644   -0.8304 C   0  0  0  0  0  0  0  0  0  0  0  0
   -0.3253    1.9091   -0.7789 C   0  0  0  0  0  0  0  0  0  0  0  0
    0.5400    1.0200   -0.1383 C   0  0  0  0  0  0  0  0  0  0  0  0
    0.0575   -0.1477    0.4699 C   0  0  0  0  0  0  0  0  0  0  0  0
   -1.2979   -0.4352    0.4371 C   0  0  0  0  0  0  0  0  0  0  0  0
   -2.3299    2.2725   -1.2397 H   0  0  0  0  0  0  0  0  0  0  0  0
    0.0580    2.8175   -1.2304 H   0  0  0  0  0  0  0  0  0  0  0  0
    1.6031    1.2378   -0.1035 H   0  0  0  0  0  0  0  0  0  0  0  0
    0.7377   -0.8285    0.9699 H   0  0  0  0  0  0  0  0  0  0  0  0
   -1.7064   -1.3256    0.9011 H   0  0  0  0  0  0  0  0  0  0  0  0
   -4.2916    3.0657    0.2414 B   0  0  0  0  0  0  0  0  0  0  0  0
   -4.4231    2.3747   -1.0200 F   0  0  0  0  0  0  0  0  0  0  0  0
   -3.1298    3.8480    0.1658 F   0  0  0  0  0  0  0  0  0  0  0  0
   -5.4160    3.8039    0.5059 F   0  0  0  0  0  0  0  0  0  0  0  0
   -4.0940    2.0482    1.2203 F   0  0  0  0  0  0  0  0  0  0  0  0
  1  8  2  0  0  0  0
  2  1  1  0  0  0  0
  3  2  1  0  0  0  0
  4  5  2  0  0  0  0
  4  1  1  0  0  0  0
  5  6  1  0  0  0  0
  6 11  1  0  0  0  0
  6  7  2  0  0  0  0
  7 12  1  0  0  0  0
  8  7  1  0  0  0  0
  8 13  1  0  0  0  0
  9  4  1  0  0  0  0
 10  5  1  0  0  0  0
 14 17  1  0  0  0  0
 14 18  1  0  0  0  0
 15 14  1  0  0  0  0
 16 14  1  0  0  0  0
M  RAD  2   2   2   3   3
M  END
