Coordinates from ORCA-job PhN2+~BF4-_B3LYPG-6-31G_dp-CH-Scan-d09-49-n800
 OpenBabel11261919213D

 18 16  0  0  0  0  0  0  0  0999 V2000
   -1.3035    0.3119    0.1497 C   0  0  0  0  0  0  0  0  0  0  0  0
   -2.6764    0.4098    0.3743 N   0  0  0  0  0  0  0  0  0  0  0  0
   -3.7736    0.5637    0.5365 N   0  0  0  0  0  0  0  0  0  0  0  0
   -0.7384    1.5509   -0.1864 C   0  0  0  0  0  0  0  0  0  0  0  0
    0.6604    1.3794   -0.4030 C   0  0  0  0  0  0  0  0  0  0  0  0
    1.3191    0.1593   -0.2921 C   0  0  0  0  0  0  0  0  0  0  0  0
    0.6315   -1.0313    0.0570 C   0  0  0  0  0  0  0  0  0  0  0  0
   -0.7237   -0.9788    0.2912 C   0  0  0  0  0  0  0  0  0  0  0  0
   -4.1902    5.0045   -0.5317 H   0  0  0  0  0  0  0  0  0  0  0  0
    1.2598    2.2497   -0.6744 H   0  0  0  0  0  0  0  0  0  0  0  0
    2.3909    0.1008   -0.4765 H   0  0  0  0  0  0  0  0  0  0  0  0
    1.1682   -1.9711    0.1390 H   0  0  0  0  0  0  0  0  0  0  0  0
   -1.3046   -1.8560    0.5635 H   0  0  0  0  0  0  0  0  0  0  0  0
   -5.8877    3.2162   -0.1705 B   0  0  0  0  0  0  0  0  0  0  0  0
   -4.8825    2.8364   -0.9631 F   0  0  0  0  0  0  0  0  0  0  0  0
   -4.9599    5.2018   -0.0470 F   0  0  0  0  0  0  0  0  0  0  0  0
   -7.0217    3.6204   -0.7130 F   0  0  0  0  0  0  0  0  0  0  0  0
   -5.8217    2.9457    1.1215 F   0  0  0  0  0  0  0  0  0  0  0  0
  1  8  1  0  0  0  0
  1  2  1  0  0  0  0
  2  3  1  0  0  0  0
  4  1  2  0  0  0  0
  5  6  2  0  0  0  0
  5  4  1  0  0  0  0
  6  7  1  0  0  0  0
  7 12  1  0  0  0  0
  7  8  2  0  0  0  0
  8 13  1  0  0  0  0
  9 16  1  0  0  0  0
 10  5  1  0  0  0  0
 11  6  1  0  0  0  0
 14 18  1  0  0  0  0
 15 14  1  0  0  0  0
 17 14  1  0  0  0  0
M  RAD  3   2   2   3   3   4   2
M  END
