Coordinates from ORCA-job PhN2+~BF4-_B3LYPG-6-31G_dp-CH-Scan-d09-49-n800
 OpenBabel11261919213D

 18 16  0  0  0  0  0  0  0  0999 V2000
   -1.6898    0.3399    0.0968 C   0  0  0  0  0  0  0  0  0  0  0  0
   -3.0596    0.1776    0.2585 N   0  0  0  0  0  0  0  0  0  0  0  0
   -4.1669    0.0899    0.3809 N   0  0  0  0  0  0  0  0  0  0  0  0
   -1.3004    1.6573   -0.2062 C   0  0  0  0  0  0  0  0  0  0  0  0
    0.1100    1.7241   -0.3549 C   0  0  0  0  0  0  0  0  0  0  0  0
    0.9548    0.6266   -0.2151 C   0  0  0  0  0  0  0  0  0  0  0  0
    0.4546   -0.6609    0.0933 C   0  0  0  0  0  0  0  0  0  0  0  0
   -0.9016   -0.8322    0.2581 C   0  0  0  0  0  0  0  0  0  0  0  0
   -3.0113    3.6961   -0.4452 H   0  0  0  0  0  0  0  0  0  0  0  0
    0.5665    2.6842   -0.5936 H   0  0  0  0  0  0  0  0  0  0  0  0
    2.0286    0.7491   -0.3450 H   0  0  0  0  0  0  0  0  0  0  0  0
    1.1302   -1.5034    0.1987 H   0  0  0  0  0  0  0  0  0  0  0  0
   -1.3414   -1.7964    0.4965 H   0  0  0  0  0  0  0  0  0  0  0  0
   -5.3810    3.1919   -0.1143 B   0  0  0  0  0  0  0  0  0  0  0  0
   -5.2246    2.3345   -1.1285 F   0  0  0  0  0  0  0  0  0  0  0  0
   -3.7556    4.2733   -0.4777 F   0  0  0  0  0  0  0  0  0  0  0  0
   -6.2490    4.1876   -0.2300 F   0  0  0  0  0  0  0  0  0  0  0  0
   -5.0175    2.7741    1.1027 F   0  0  0  0  0  0  0  0  0  0  0  0
  1  8  1  0  0  0  0
  1  2  1  0  0  0  0
  2  3  1  0  0  0  0
  4  1  2  0  0  0  0
  5  6  2  0  0  0  0
  5  4  1  0  0  0  0
  6  7  1  0  0  0  0
  7 12  1  0  0  0  0
  7  8  2  0  0  0  0
  8 13  1  0  0  0  0
 10  5  1  0  0  0  0
 11  6  1  0  0  0  0
 14 18  1  0  0  0  0
 15 14  1  0  0  0  0
 16  9  1  0  0  0  0
 17 14  1  0  0  0  0
M  RAD  3   2   2   3   3   4   2
M  END
