Coordinates from ORCA-job PhN2+~BF4-_B3LYPG-6-31G_dp-CH-Scan-d09-49-n800
 OpenBabel11261919213D

 18 16  0  0  0  0  0  0  0  0999 V2000
   -1.7053    0.3449    0.0982 C   0  0  0  0  0  0  0  0  0  0  0  0
   -3.0738    0.1758    0.2617 N   0  0  0  0  0  0  0  0  0  0  0  0
   -4.1801    0.0823    0.3874 N   0  0  0  0  0  0  0  0  0  0  0  0
   -1.3202    1.6642   -0.2030 C   0  0  0  0  0  0  0  0  0  0  0  0
    0.0892    1.7377   -0.3536 C   0  0  0  0  0  0  0  0  0  0  0  0
    0.9387    0.6432   -0.2167 C   0  0  0  0  0  0  0  0  0  0  0  0
    0.4440   -0.6465    0.0899 C   0  0  0  0  0  0  0  0  0  0  0  0
   -0.9114   -0.8235    0.2563 C   0  0  0  0  0  0  0  0  0  0  0  0
   -2.9840    3.6381   -0.4369 H   0  0  0  0  0  0  0  0  0  0  0  0
    0.5410    2.7001   -0.5912 H   0  0  0  0  0  0  0  0  0  0  0  0
    2.0117    0.7705   -0.3478 H   0  0  0  0  0  0  0  0  0  0  0  0
    1.1229   -1.4865    0.1929 H   0  0  0  0  0  0  0  0  0  0  0  0
   -1.3468   -1.7900    0.4934 H   0  0  0  0  0  0  0  0  0  0  0  0
   -5.3466    3.1904   -0.1179 B   0  0  0  0  0  0  0  0  0  0  0  0
   -5.2086    2.3224   -1.1275 F   0  0  0  0  0  0  0  0  0  0  0  0
   -3.7206    4.2285   -0.4758 F   0  0  0  0  0  0  0  0  0  0  0  0
   -6.2035    4.1964   -0.2376 F   0  0  0  0  0  0  0  0  0  0  0  0
   -5.0006    2.7653    1.1032 F   0  0  0  0  0  0  0  0  0  0  0  0
  1  8  1  0  0  0  0
  1  2  1  0  0  0  0
  2  3  1  0  0  0  0
  4  1  2  0  0  0  0
  5  6  2  0  0  0  0
  5  4  1  0  0  0  0
  6  7  1  0  0  0  0
  7 12  1  0  0  0  0
  7  8  2  0  0  0  0
  8 13  1  0  0  0  0
 10  5  1  0  0  0  0
 11  6  1  0  0  0  0
 14 18  1  0  0  0  0
 15 14  1  0  0  0  0
 16  9  1  0  0  0  0
 17 14  1  0  0  0  0
M  RAD  3   2   2   3   3   4   2
M  END
