Coordinates from ORCA-job PhN2+~BF4-_B3LYPG-6-31G_dp-CH-Scan-d09-49-n800
 OpenBabel11261919213D

 18 16  0  0  0  0  0  0  0  0999 V2000
   -1.4985    0.2705    0.1157 C   0  0  0  0  0  0  0  0  0  0  0  0
   -2.8762    0.2164    0.3135 N   0  0  0  0  0  0  0  0  0  0  0  0
   -3.9858    0.2424    0.4581 N   0  0  0  0  0  0  0  0  0  0  0  0
   -1.0602    1.5553   -0.2434 C   0  0  0  0  0  0  0  0  0  0  0  0
    0.3528    1.5291   -0.4278 C   0  0  0  0  0  0  0  0  0  0  0  0
    1.1372    0.3910   -0.2699 C   0  0  0  0  0  0  0  0  0  0  0  0
    0.5742   -0.8573    0.0979 C   0  0  0  0  0  0  0  0  0  0  0  0
   -0.7839   -0.9449    0.3032 C   0  0  0  0  0  0  0  0  0  0  0  0
   -3.5842    4.5467   -0.5206 H   0  0  0  0  0  0  0  0  0  0  0  0
    0.8613    2.4517   -0.7116 H   0  0  0  0  0  0  0  0  0  0  0  0
    2.2129    0.4453   -0.4308 H   0  0  0  0  0  0  0  0  0  0  0  0
    1.2060   -1.7317    0.2167 H   0  0  0  0  0  0  0  0  0  0  0  0
   -1.2728   -1.8728    0.5879 H   0  0  0  0  0  0  0  0  0  0  0  0
   -5.6657    3.2026   -0.1441 B   0  0  0  0  0  0  0  0  0  0  0  0
   -4.8523    2.5827   -1.0017 F   0  0  0  0  0  0  0  0  0  0  0  0
   -4.3369    4.9101   -0.1100 F   0  0  0  0  0  0  0  0  0  0  0  0
   -6.7186    3.8551   -0.6033 F   0  0  0  0  0  0  0  0  0  0  0  0
   -5.5634    2.9211    1.1454 F   0  0  0  0  0  0  0  0  0  0  0  0
  1  8  1  0  0  0  0
  1  2  1  0  0  0  0
  2  3  1  0  0  0  0
  4  1  2  0  0  0  0
  5  6  2  0  0  0  0
  5  4  1  0  0  0  0
  6  7  1  0  0  0  0
  7 12  1  0  0  0  0
  7  8  2  0  0  0  0
  8 13  1  0  0  0  0
  9 16  1  0  0  0  0
 10  5  1  0  0  0  0
 11  6  1  0  0  0  0
 14 18  1  0  0  0  0
 15 14  1  0  0  0  0
 17 14  1  0  0  0  0
M  RAD  3   2   2   3   3   4   2
M  END
