Coordinates from ORCA-job PhN2+~BF4-_B3LYPG-6-31G_dp-CH-Scan-d09-49-n800
 OpenBabel11261919213D

 18 16  0  0  0  0  0  0  0  0999 V2000
   -1.3271    0.3037    0.1477 C   0  0  0  0  0  0  0  0  0  0  0  0
   -2.7013    0.3817    0.3713 N   0  0  0  0  0  0  0  0  0  0  0  0
   -3.8001    0.5211    0.5354 N   0  0  0  0  0  0  0  0  0  0  0  0
   -0.7801    1.5492   -0.1945 C   0  0  0  0  0  0  0  0  0  0  0  0
    0.6210    1.3969   -0.4104 C   0  0  0  0  0  0  0  0  0  0  0  0
    1.2977    0.1873   -0.2932 C   0  0  0  0  0  0  0  0  0  0  0  0
    0.6277   -1.0114    0.0620 C   0  0  0  0  0  0  0  0  0  0  0  0
   -0.7282   -0.9776    0.2958 C   0  0  0  0  0  0  0  0  0  0  0  0
   -4.1142    4.9587   -0.5212 H   0  0  0  0  0  0  0  0  0  0  0  0
    1.2076    2.2746   -0.6863 H   0  0  0  0  0  0  0  0  0  0  0  0
    2.3703    0.1437   -0.4774 H   0  0  0  0  0  0  0  0  0  0  0  0
    1.1781   -1.9428    0.1489 H   0  0  0  0  0  0  0  0  0  0  0  0
   -1.2961   -1.8619    0.5726 H   0  0  0  0  0  0  0  0  0  0  0  0
   -5.8637    3.2154   -0.1720 B   0  0  0  0  0  0  0  0  0  0  0  0
   -4.8684    2.8065   -0.9626 F   0  0  0  0  0  0  0  0  0  0  0  0
   -4.8846    5.1739   -0.0452 F   0  0  0  0  0  0  0  0  0  0  0  0
   -6.9849    3.6515   -0.7163 F   0  0  0  0  0  0  0  0  0  0  0  0
   -5.8076    2.9427    1.1202 F   0  0  0  0  0  0  0  0  0  0  0  0
  1  8  1  0  0  0  0
  1  2  1  0  0  0  0
  2  3  1  0  0  0  0
  4  1  2  0  0  0  0
  5  6  2  0  0  0  0
  5  4  1  0  0  0  0
  6  7  1  0  0  0  0
  7 12  1  0  0  0  0
  7  8  2  0  0  0  0
  8 13  1  0  0  0  0
  9 16  1  0  0  0  0
 10  5  1  0  0  0  0
 11  6  1  0  0  0  0
 14 18  1  0  0  0  0
 15 14  1  0  0  0  0
 17 14  1  0  0  0  0
M  RAD  3   2   2   3   3   4   2
M  END
