Coordinates from ORCA-job PhN2+~BF4-_B3LYPG-6-31G_dp-CH-Scan-d09-49-n800
 OpenBabel11261919213D

 18 16  0  0  0  0  0  0  0  0999 V2000
   -1.5556    0.3013    0.1105 C   0  0  0  0  0  0  0  0  0  0  0  0
   -2.9339    0.2109    0.2796 N   0  0  0  0  0  0  0  0  0  0  0  0
   -4.0456    0.1991    0.4041 N   0  0  0  0  0  0  0  0  0  0  0  0
   -1.1259    1.6045   -0.1918 C   0  0  0  0  0  0  0  0  0  0  0  0
    0.2889    1.6082   -0.3497 C   0  0  0  0  0  0  0  0  0  0  0  0
    1.0882    0.4768   -0.2192 C   0  0  0  0  0  0  0  0  0  0  0  0
    0.5380   -0.7920    0.0902 C   0  0  0  0  0  0  0  0  0  0  0  0
   -0.8224   -0.9076    0.2651 C   0  0  0  0  0  0  0  0  0  0  0  0
   -3.2945    4.2044   -0.4830 H   0  0  0  0  0  0  0  0  0  0  0  0
    0.7867    2.5485   -0.5893 H   0  0  0  0  0  0  0  0  0  0  0  0
    2.1656    0.5538   -0.3571 H   0  0  0  0  0  0  0  0  0  0  0  0
    1.1804   -1.6610    0.1882 H   0  0  0  0  0  0  0  0  0  0  0  0
   -1.3014   -1.8531    0.5048 H   0  0  0  0  0  0  0  0  0  0  0  0
   -5.6279    3.2009   -0.1181 B   0  0  0  0  0  0  0  0  0  0  0  0
   -5.2543    2.4342   -1.1397 F   0  0  0  0  0  0  0  0  0  0  0  0
   -4.1100    4.6551   -0.4553 F   0  0  0  0  0  0  0  0  0  0  0  0
   -6.6281    4.0524   -0.2632 F   0  0  0  0  0  0  0  0  0  0  0  0
   -5.2019    2.8768    1.0990 F   0  0  0  0  0  0  0  0  0  0  0  0
  1  8  1  0  0  0  0
  1  2  1  0  0  0  0
  2  3  1  0  0  0  0
  4  1  2  0  0  0  0
  5  6  2  0  0  0  0
  5  4  1  0  0  0  0
  6  7  1  0  0  0  0
  7 12  1  0  0  0  0
  7  8  2  0  0  0  0
  8 13  1  0  0  0  0
  9 16  1  0  0  0  0
 10  5  1  0  0  0  0
 11  6  1  0  0  0  0
 14 18  1  0  0  0  0
 15 14  1  0  0  0  0
 17 14  1  0  0  0  0
M  RAD  3   2   2   3   3   4   2
M  END
