Coordinates from ORCA-job PhN2+~BF4-_B3LYPG-6-31G_dp-CH-Scan-d09-49-n800
 OpenBabel11261919213D

 18 16  0  0  0  0  0  0  0  0999 V2000
   -1.7221    0.3534    0.1026 C   0  0  0  0  0  0  0  0  0  0  0  0
   -3.0888    0.1782    0.2719 N   0  0  0  0  0  0  0  0  0  0  0  0
   -4.1935    0.0739    0.4015 N   0  0  0  0  0  0  0  0  0  0  0  0
   -1.3396    1.6738   -0.1973 C   0  0  0  0  0  0  0  0  0  0  0  0
    0.0682    1.7528   -0.3530 C   0  0  0  0  0  0  0  0  0  0  0  0
    0.9212    0.6602   -0.2220 C   0  0  0  0  0  0  0  0  0  0  0  0
    0.4310   -0.6312    0.0833 C   0  0  0  0  0  0  0  0  0  0  0  0
   -0.9234   -0.8124    0.2545 C   0  0  0  0  0  0  0  0  0  0  0  0
   -2.9582    3.5758   -0.4157 H   0  0  0  0  0  0  0  0  0  0  0  0
    0.5157    2.7172   -0.5899 H   0  0  0  0  0  0  0  0  0  0  0  0
    1.9933    0.7907   -0.3568 H   0  0  0  0  0  0  0  0  0  0  0  0
    1.1123   -1.4698    0.1817 H   0  0  0  0  0  0  0  0  0  0  0  0
   -1.3550   -1.7807    0.4910 H   0  0  0  0  0  0  0  0  0  0  0  0
   -5.3043    3.1885   -0.1271 B   0  0  0  0  0  0  0  0  0  0  0  0
   -5.1784    2.3065   -1.1293 F   0  0  0  0  0  0  0  0  0  0  0  0
   -3.6878    4.1798   -0.4633 F   0  0  0  0  0  0  0  0  0  0  0  0
   -6.1536    4.2014   -0.2592 F   0  0  0  0  0  0  0  0  0  0  0  0
   -4.9908    2.7550    1.1022 F   0  0  0  0  0  0  0  0  0  0  0  0
  1  8  1  0  0  0  0
  1  2  1  0  0  0  0
  2  3  1  0  0  0  0
  4  1  2  0  0  0  0
  5  6  2  0  0  0  0
  5  4  1  0  0  0  0
  6  7  1  0  0  0  0
  7 12  1  0  0  0  0
  7  8  2  0  0  0  0
  8 13  1  0  0  0  0
 10  5  1  0  0  0  0
 11  6  1  0  0  0  0
 14 18  1  0  0  0  0
 15 14  1  0  0  0  0
 16  9  1  0  0  0  0
 17 14  1  0  0  0  0
M  RAD  3   2   2   3   3   4   2
M  END
