Coordinates from ORCA-job PhN2+~BF4-_B3LYPG-6-31G_dp-CH-Scan-d09-49-n800
 OpenBabel11261919213D

 18 16  0  0  0  0  0  0  0  0999 V2000
   -1.7631    0.3673    0.1064 C   0  0  0  0  0  0  0  0  0  0  0  0
   -3.1260    0.1729    0.2801 N   0  0  0  0  0  0  0  0  0  0  0  0
   -4.2281    0.0505    0.4121 N   0  0  0  0  0  0  0  0  0  0  0  0
   -1.3907    1.6910   -0.1937 C   0  0  0  0  0  0  0  0  0  0  0  0
    0.0141    1.7857   -0.3551 C   0  0  0  0  0  0  0  0  0  0  0  0
    0.8787    0.7014   -0.2286 C   0  0  0  0  0  0  0  0  0  0  0  0
    0.4022   -0.5941    0.0774 C   0  0  0  0  0  0  0  0  0  0  0  0
   -0.9500   -0.7884    0.2537 C   0  0  0  0  0  0  0  0  0  0  0  0
   -2.8874    3.4419   -0.3902 H   0  0  0  0  0  0  0  0  0  0  0  0
    0.4494    2.7551   -0.5931 H   0  0  0  0  0  0  0  0  0  0  0  0
    1.9486    0.8432   -0.3679 H   0  0  0  0  0  0  0  0  0  0  0  0
    1.0916   -1.4264    0.1726 H   0  0  0  0  0  0  0  0  0  0  0  0
   -1.3707   -1.7611    0.4910 H   0  0  0  0  0  0  0  0  0  0  0  0
   -5.2104    3.1797   -0.1367 B   0  0  0  0  0  0  0  0  0  0  0  0
   -5.1237    2.2780   -1.1311 F   0  0  0  0  0  0  0  0  0  0  0  0
   -3.6019    4.0776   -0.4447 F   0  0  0  0  0  0  0  0  0  0  0  0
   -6.0379    4.2126   -0.2791 F   0  0  0  0  0  0  0  0  0  0  0  0
   -4.9489    2.7263    1.1020 F   0  0  0  0  0  0  0  0  0  0  0  0
  1  8  1  0  0  0  0
  1  2  1  0  0  0  0
  2  3  1  0  0  0  0
  4  1  2  0  0  0  0
  5  6  2  0  0  0  0
  5  4  1  0  0  0  0
  6  7  1  0  0  0  0
  7 12  1  0  0  0  0
  7  8  2  0  0  0  0
  8 13  1  0  0  0  0
 10  5  1  0  0  0  0
 11  6  1  0  0  0  0
 14 18  1  0  0  0  0
 15 14  1  0  0  0  0
 16  9  1  0  0  0  0
 17 14  1  0  0  0  0
M  RAD  3   2   2   3   3   4   2
M  END
