Coordinates from ORCA-job PhN2+~BF4-_B3LYPG-6-31G_dp-CH-Scan-d09-49-n800
 OpenBabel11261919213D

 18 16  0  0  0  0  0  0  0  0999 V2000
   -1.4163    0.2863    0.1356 C   0  0  0  0  0  0  0  0  0  0  0  0
   -2.7938    0.2995    0.3510 N   0  0  0  0  0  0  0  0  0  0  0  0
   -3.8993    0.3886    0.5037 N   0  0  0  0  0  0  0  0  0  0  0  0
   -0.9282    1.5509   -0.2264 C   0  0  0  0  0  0  0  0  0  0  0  0
    0.4796    1.4628   -0.4330 C   0  0  0  0  0  0  0  0  0  0  0  0
    1.2139    0.2899   -0.2909 C   0  0  0  0  0  0  0  0  0  0  0  0
    0.6011   -0.9334    0.0828 C   0  0  0  0  0  0  0  0  0  0  0  0
   -0.7562   -0.9611    0.3095 C   0  0  0  0  0  0  0  0  0  0  0  0
   -3.8390    4.7649   -0.4919 H   0  0  0  0  0  0  0  0  0  0  0  0
    1.0245    2.3628   -0.7221 H   0  0  0  0  0  0  0  0  0  0  0  0
    2.2883    0.2957   -0.4692 H   0  0  0  0  0  0  0  0  0  0  0  0
    1.1953   -1.8354    0.1892 H   0  0  0  0  0  0  0  0  0  0  0  0
   -1.2819   -1.8670    0.5995 H   0  0  0  0  0  0  0  0  0  0  0  0
   -5.7597    3.2007   -0.1688 B   0  0  0  0  0  0  0  0  0  0  0  0
   -4.8206    2.6978   -0.9735 F   0  0  0  0  0  0  0  0  0  0  0  0
   -4.6054    5.0510   -0.0471 F   0  0  0  0  0  0  0  0  0  0  0  0
   -6.8439    3.7395   -0.6962 F   0  0  0  0  0  0  0  0  0  0  0  0
   -5.7122    2.9197    1.1228 F   0  0  0  0  0  0  0  0  0  0  0  0
  1  8  1  0  0  0  0
  1  2  1  0  0  0  0
  2  3  1  0  0  0  0
  4  1  2  0  0  0  0
  5  6  2  0  0  0  0
  5  4  1  0  0  0  0
  6  7  1  0  0  0  0
  7 12  1  0  0  0  0
  7  8  2  0  0  0  0
  8 13  1  0  0  0  0
  9 16  1  0  0  0  0
 10  5  1  0  0  0  0
 11  6  1  0  0  0  0
 14 18  1  0  0  0  0
 15 14  1  0  0  0  0
 17 14  1  0  0  0  0
M  RAD  3   2   2   3   3   4   2
M  END
