Coordinates from ORCA-job PhN2+~BF4-_B3LYPG-6-31G_dp-CH-Scan-d09-49-n800
 OpenBabel11261919213D

 18 16  0  0  0  0  0  0  0  0999 V2000
   -1.6505    0.3270    0.1014 C   0  0  0  0  0  0  0  0  0  0  0  0
   -3.0232    0.1861    0.2645 N   0  0  0  0  0  0  0  0  0  0  0  0
   -4.1328    0.1247    0.3855 N   0  0  0  0  0  0  0  0  0  0  0  0
   -1.2517    1.6412   -0.2023 C   0  0  0  0  0  0  0  0  0  0  0  0
    0.1603    1.6911   -0.3541 C   0  0  0  0  0  0  0  0  0  0  0  0
    0.9935    0.5846   -0.2164 C   0  0  0  0  0  0  0  0  0  0  0  0
    0.4805   -0.6982    0.0935 C   0  0  0  0  0  0  0  0  0  0  0  0
   -0.8769   -0.8551    0.2616 C   0  0  0  0  0  0  0  0  0  0  0  0
   -3.0814    3.8351   -0.4501 H   0  0  0  0  0  0  0  0  0  0  0  0
    0.6279    2.6459   -0.5939 H   0  0  0  0  0  0  0  0  0  0  0  0
    2.0683    0.6951   -0.3490 H   0  0  0  0  0  0  0  0  0  0  0  0
    1.1479   -1.5474    0.1973 H   0  0  0  0  0  0  0  0  0  0  0  0
   -1.3269   -1.8145    0.5012 H   0  0  0  0  0  0  0  0  0  0  0  0
   -5.4639    3.1937   -0.1157 B   0  0  0  0  0  0  0  0  0  0  0  0
   -5.2477    2.3648   -1.1386 F   0  0  0  0  0  0  0  0  0  0  0  0
   -3.8424    4.3829   -0.4748 F   0  0  0  0  0  0  0  0  0  0  0  0
   -6.3637    4.1581   -0.2314 F   0  0  0  0  0  0  0  0  0  0  0  0
   -5.0714    2.7981    1.0965 F   0  0  0  0  0  0  0  0  0  0  0  0
  1  8  1  0  0  0  0
  1  2  1  0  0  0  0
  2  3  1  0  0  0  0
  4  1  2  0  0  0  0
  5  6  2  0  0  0  0
  5  4  1  0  0  0  0
  6  7  1  0  0  0  0
  7 12  1  0  0  0  0
  7  8  2  0  0  0  0
  8 13  1  0  0  0  0
 10  5  1  0  0  0  0
 11  6  1  0  0  0  0
 14 18  1  0  0  0  0
 15 14  1  0  0  0  0
 16  9  1  0  0  0  0
 17 14  1  0  0  0  0
M  RAD  3   2   2   3   3   4   2
M  END
