Coordinates from ORCA-job PhN2+~BF4-_B3LYPG-6-31G_dp-CH-Scan-d09-49-n800
 OpenBabel11261919213D

 18 16  0  0  0  0  0  0  0  0999 V2000
   -1.4120    0.2858    0.1367 C   0  0  0  0  0  0  0  0  0  0  0  0
   -2.7892    0.3004    0.3524 N   0  0  0  0  0  0  0  0  0  0  0  0
   -3.8945    0.3886    0.5068 N   0  0  0  0  0  0  0  0  0  0  0  0
   -0.9219    1.5503   -0.2233 C   0  0  0  0  0  0  0  0  0  0  0  0
    0.4858    1.4601   -0.4304 C   0  0  0  0  0  0  0  0  0  0  0  0
    1.2182    0.2857   -0.2906 C   0  0  0  0  0  0  0  0  0  0  0  0
    0.6035   -0.9372    0.0812 C   0  0  0  0  0  0  0  0  0  0  0  0
   -0.7538   -0.9630    0.3082 C   0  0  0  0  0  0  0  0  0  0  0  0
   -3.8514    4.7737   -0.4971 H   0  0  0  0  0  0  0  0  0  0  0  0
    1.0321    2.3596   -0.7182 H   0  0  0  0  0  0  0  0  0  0  0  0
    2.2925    0.2901   -0.4692 H   0  0  0  0  0  0  0  0  0  0  0  0
    1.1962   -1.8404    0.1858 H   0  0  0  0  0  0  0  0  0  0  0  0
   -1.2809   -1.8686    0.5968 H   0  0  0  0  0  0  0  0  0  0  0  0
   -5.7662    3.2039   -0.1685 B   0  0  0  0  0  0  0  0  0  0  0  0
   -4.8267    2.7021   -0.9734 F   0  0  0  0  0  0  0  0  0  0  0  0
   -4.6169    5.0579   -0.0498 F   0  0  0  0  0  0  0  0  0  0  0  0
   -6.8520    3.7399   -0.6955 F   0  0  0  0  0  0  0  0  0  0  0  0
   -5.7166    2.9242    1.1232 F   0  0  0  0  0  0  0  0  0  0  0  0
  1  8  1  0  0  0  0
  1  2  1  0  0  0  0
  2  3  1  0  0  0  0
  4  1  2  0  0  0  0
  5  6  2  0  0  0  0
  5  4  1  0  0  0  0
  6  7  1  0  0  0  0
  7 12  1  0  0  0  0
  7  8  2  0  0  0  0
  8 13  1  0  0  0  0
  9 16  1  0  0  0  0
 10  5  1  0  0  0  0
 11  6  1  0  0  0  0
 14 18  1  0  0  0  0
 15 14  1  0  0  0  0
 17 14  1  0  0  0  0
M  RAD  3   2   2   3   3   4   2
M  END
