Coordinates from ORCA-job PhN2+~BF4-_B3LYPG-6-31G_dp-CH-Scan-d09-49-n800
 OpenBabel11261919213D

 18 16  0  0  0  0  0  0  0  0999 V2000
   -1.6565    0.3296    0.1010 C   0  0  0  0  0  0  0  0  0  0  0  0
   -3.0287    0.1866    0.2641 N   0  0  0  0  0  0  0  0  0  0  0  0
   -4.1382    0.1223    0.3855 N   0  0  0  0  0  0  0  0  0  0  0  0
   -1.2587    1.6441   -0.2029 C   0  0  0  0  0  0  0  0  0  0  0  0
    0.1531    1.6962   -0.3546 C   0  0  0  0  0  0  0  0  0  0  0  0
    0.9876    0.5908   -0.2166 C   0  0  0  0  0  0  0  0  0  0  0  0
    0.4762   -0.6925    0.0934 C   0  0  0  0  0  0  0  0  0  0  0  0
   -0.8810   -0.8512    0.2614 C   0  0  0  0  0  0  0  0  0  0  0  0
   -3.0710    3.8135   -0.4480 H   0  0  0  0  0  0  0  0  0  0  0  0
    0.6192    2.6516   -0.5945 H   0  0  0  0  0  0  0  0  0  0  0  0
    2.0624    0.7027   -0.3490 H   0  0  0  0  0  0  0  0  0  0  0  0
    1.1446   -1.5409    0.1975 H   0  0  0  0  0  0  0  0  0  0  0  0
   -1.3297   -1.8111    0.5010 H   0  0  0  0  0  0  0  0  0  0  0  0
   -5.4508    3.1926   -0.1162 B   0  0  0  0  0  0  0  0  0  0  0  0
   -5.2435    2.3603   -1.1388 F   0  0  0  0  0  0  0  0  0  0  0  0
   -3.8295    4.3656   -0.4738 F   0  0  0  0  0  0  0  0  0  0  0  0
   -6.3463    4.1615   -0.2307 F   0  0  0  0  0  0  0  0  0  0  0  0
   -5.0629    2.7917    1.0962 F   0  0  0  0  0  0  0  0  0  0  0  0
  1  8  1  0  0  0  0
  1  2  1  0  0  0  0
  2  3  1  0  0  0  0
  4  1  2  0  0  0  0
  5  6  2  0  0  0  0
  5  4  1  0  0  0  0
  6  7  1  0  0  0  0
  7 12  1  0  0  0  0
  7  8  2  0  0  0  0
  8 13  1  0  0  0  0
 10  5  1  0  0  0  0
 11  6  1  0  0  0  0
 14 18  1  0  0  0  0
 15 14  1  0  0  0  0
 16  9  1  0  0  0  0
 17 14  1  0  0  0  0
M  RAD  3   2   2   3   3   4   2
M  END
