Coordinates from ORCA-job PhN2+~BF4-_B3LYPG-6-31G_dp-CH-Scan-d09-49-n800
 OpenBabel11261919213D

 18 17  0  0  0  0  0  0  0  0999 V2000
   -1.9868    0.5563   -0.1805 C   0  0  0  0  0  0  0  0  0  0  0  0
   -3.3519    0.3316   -0.2896 N   0  0  0  0  0  0  0  0  0  0  0  0
   -4.4273    0.0578   -0.3888 N   0  0  0  0  0  0  0  0  0  0  0  0
   -1.4746    1.8214   -0.5017 C   0  0  0  0  0  0  0  0  0  0  0  0
   -0.0960    1.9784   -0.4014 C   0  0  0  0  0  0  0  0  0  0  0  0
    0.7158    0.9180    0.0121 C   0  0  0  0  0  0  0  0  0  0  0  0
    0.1690   -0.3343    0.3253 C   0  0  0  0  0  0  0  0  0  0  0  0
   -1.1999   -0.5361    0.2269 C   0  0  0  0  0  0  0  0  0  0  0  0
   -2.2007    2.6417   -0.8183 H   0  0  0  0  0  0  0  0  0  0  0  0
    0.3442    2.9407   -0.6394 H   0  0  0  0  0  0  0  0  0  0  0  0
    1.7885    1.0652    0.0946 H   0  0  0  0  0  0  0  0  0  0  0  0
    0.8095   -1.1489    0.6449 H   0  0  0  0  0  0  0  0  0  0  0  0
   -1.6564   -1.4908    0.4628 H   0  0  0  0  0  0  0  0  0  0  0  0
   -4.6810    3.0177    0.0591 B   0  0  0  0  0  0  0  0  0  0  0  0
   -5.6914    2.0445   -0.1318 F   0  0  0  0  0  0  0  0  0  0  0  0
   -3.9659    3.1387   -1.1729 F   0  0  0  0  0  0  0  0  0  0  0  0
   -5.1896    4.2214    0.4645 F   0  0  0  0  0  0  0  0  0  0  0  0
   -3.7593    2.4898    1.0090 F   0  0  0  0  0  0  0  0  0  0  0  0
  1  8  2  0  0  0  0
  2  1  1  0  0  0  0
  3  2  1  0  0  0  0
  4  5  2  0  0  0  0
  4  1  1  0  0  0  0
  5  6  1  0  0  0  0
  6 11  1  0  0  0  0
  6  7  2  0  0  0  0
  7 12  1  0  0  0  0
  8  7  1  0  0  0  0
  8 13  1  0  0  0  0
  9  4  1  0  0  0  0
 10  5  1  0  0  0  0
 14 17  1  0  0  0  0
 14 18  1  0  0  0  0
 15 14  1  0  0  0  0
 16 14  1  0  0  0  0
M  RAD  2   2   2   3   3
M  END
