Coordinates from ORCA-job PhN2+~BF4-_B3LYPG-6-31G_dp-CH-Scan-d09-49-n800
 OpenBabel11261919213D

 18 16  0  0  0  0  0  0  0  0999 V2000
   -1.8492    0.3898    0.0720 C   0  0  0  0  0  0  0  0  0  0  0  0
   -3.2082    0.1529    0.2168 N   0  0  0  0  0  0  0  0  0  0  0  0
   -4.3067   -0.0084    0.3255 N   0  0  0  0  0  0  0  0  0  0  0  0
   -1.4915    1.7155   -0.2382 C   0  0  0  0  0  0  0  0  0  0  0  0
   -0.0903    1.8489   -0.3677 C   0  0  0  0  0  0  0  0  0  0  0  0
    0.7983    0.7884   -0.2038 C   0  0  0  0  0  0  0  0  0  0  0  0
    0.3456   -0.5119    0.1088 C   0  0  0  0  0  0  0  0  0  0  0  0
   -1.0064   -0.7374    0.2543 C   0  0  0  0  0  0  0  0  0  0  0  0
   -2.7636    3.1625   -0.4312 H   0  0  0  0  0  0  0  0  0  0  0  0
    0.3213    2.8269   -0.6084 H   0  0  0  0  0  0  0  0  0  0  0  0
    1.8669    0.9564   -0.3181 H   0  0  0  0  0  0  0  0  0  0  0  0
    1.0514   -1.3262    0.2338 H   0  0  0  0  0  0  0  0  0  0  0  0
   -1.4075   -1.7171    0.4951 H   0  0  0  0  0  0  0  0  0  0  0  0
   -4.9972    3.1692   -0.1100 B   0  0  0  0  0  0  0  0  0  0  0  0
   -5.1236    2.2402   -1.0927 F   0  0  0  0  0  0  0  0  0  0  0  0
   -3.4701    3.8637   -0.5094 F   0  0  0  0  0  0  0  0  0  0  0  0
   -5.7939    4.2447   -0.1701 F   0  0  0  0  0  0  0  0  0  0  0  0
   -4.7292    2.6551    1.1184 F   0  0  0  0  0  0  0  0  0  0  0  0
  1  2  1  0  0  0  0
  1  8  2  0  0  0  0
  2  3  1  0  0  0  0
  4  1  1  0  0  0  0
  5  4  2  0  0  0  0
  5  6  1  0  0  0  0
  6  7  2  0  0  0  0
  7 12  1  0  0  0  0
  7  8  1  0  0  0  0
  8 13  1  0  0  0  0
 10  5  1  0  0  0  0
 11  6  1  0  0  0  0
 14 18  1  0  0  0  0
 15 14  1  0  0  0  0
 16  9  1  0  0  0  0
 17 14  1  0  0  0  0
M  RAD  3   2   2   3   3   4   2
M  END
