Coordinates from ORCA-job PhN2+~BF4-_B3LYPG-6-31G_dp-CH-Scan-d09-49-n800
 OpenBabel11261919213D

 18 16  0  0  0  0  0  0  0  0999 V2000
   -1.7722    0.3701    0.1029 C   0  0  0  0  0  0  0  0  0  0  0  0
   -3.1349    0.1711    0.2730 N   0  0  0  0  0  0  0  0  0  0  0  0
   -4.2365    0.0430    0.4027 N   0  0  0  0  0  0  0  0  0  0  0  0
   -1.4013    1.6937   -0.1989 C   0  0  0  0  0  0  0  0  0  0  0  0
    0.0032    1.7926   -0.3571 C   0  0  0  0  0  0  0  0  0  0  0  0
    0.8703    0.7107   -0.2263 C   0  0  0  0  0  0  0  0  0  0  0  0
    0.3963   -0.5851    0.0811 C   0  0  0  0  0  0  0  0  0  0  0  0
   -0.9559   -0.7828    0.2544 C   0  0  0  0  0  0  0  0  0  0  0  0
   -2.8757    3.4109   -0.3938 H   0  0  0  0  0  0  0  0  0  0  0  0
    0.4360    2.7627   -0.5959 H   0  0  0  0  0  0  0  0  0  0  0  0
    1.9401    0.8550   -0.3633 H   0  0  0  0  0  0  0  0  0  0  0  0
    1.0874   -1.4156    0.1798 H   0  0  0  0  0  0  0  0  0  0  0  0
   -1.3745   -1.7561    0.4925 H   0  0  0  0  0  0  0  0  0  0  0  0
   -5.1871    3.1797   -0.1339 B   0  0  0  0  0  0  0  0  0  0  0  0
   -5.1242    2.2749   -1.1291 F   0  0  0  0  0  0  0  0  0  0  0  0
   -3.5878    4.0535   -0.4501 F   0  0  0  0  0  0  0  0  0  0  0  0
   -6.0113    4.2178   -0.2660 F   0  0  0  0  0  0  0  0  0  0  0  0
   -4.9258    2.7170    1.1031 F   0  0  0  0  0  0  0  0  0  0  0  0
  1  8  1  0  0  0  0
  1  2  1  0  0  0  0
  2  3  1  0  0  0  0
  4  1  2  0  0  0  0
  5  6  2  0  0  0  0
  5  4  1  0  0  0  0
  6  7  1  0  0  0  0
  7 12  1  0  0  0  0
  7  8  2  0  0  0  0
  8 13  1  0  0  0  0
 10  5  1  0  0  0  0
 11  6  1  0  0  0  0
 14 18  1  0  0  0  0
 15 14  1  0  0  0  0
 16  9  1  0  0  0  0
 17 14  1  0  0  0  0
M  RAD  3   2   2   3   3   4   2
M  END
