Coordinates from ORCA-job PhN2+~BF4-_B3LYPG-6-31G_dp-CH-Scan-d09-49-n800
 OpenBabel11261919213D

 18 16  0  0  0  0  0  0  0  0999 V2000
   -1.5959    0.3103    0.1048 C   0  0  0  0  0  0  0  0  0  0  0  0
   -2.9720    0.1972    0.2699 N   0  0  0  0  0  0  0  0  0  0  0  0
   -4.0833    0.1624    0.3907 N   0  0  0  0  0  0  0  0  0  0  0  0
   -1.1812    1.6183   -0.2011 C   0  0  0  0  0  0  0  0  0  0  0  0
    0.2329    1.6429   -0.3549 C   0  0  0  0  0  0  0  0  0  0  0  0
    1.0481    0.5234   -0.2176 C   0  0  0  0  0  0  0  0  0  0  0  0
    0.5152   -0.7514    0.0948 C   0  0  0  0  0  0  0  0  0  0  0  0
   -0.8441   -0.8860    0.2657 C   0  0  0  0  0  0  0  0  0  0  0  0
   -3.1962    4.0480   -0.4687 H   0  0  0  0  0  0  0  0  0  0  0  0
    0.7171    2.5895   -0.5966 H   0  0  0  0  0  0  0  0  0  0  0  0
    2.1246    0.6158   -0.3523 H   0  0  0  0  0  0  0  0  0  0  0  0
    1.1694   -1.6109    0.1982 H   0  0  0  0  0  0  0  0  0  0  0  0
   -1.3098   -1.8375    0.5074 H   0  0  0  0  0  0  0  0  0  0  0  0
   -5.5639    3.1989   -0.1158 B   0  0  0  0  0  0  0  0  0  0  0  0
   -5.2586    2.4068   -1.1422 F   0  0  0  0  0  0  0  0  0  0  0  0
   -3.9886    4.5420   -0.4598 F   0  0  0  0  0  0  0  0  0  0  0  0
   -6.5186    4.1048   -0.2441 F   0  0  0  0  0  0  0  0  0  0  0  0
   -5.1490    2.8390    1.0967 F   0  0  0  0  0  0  0  0  0  0  0  0
  1  8  1  0  0  0  0
  1  2  1  0  0  0  0
  2  3  1  0  0  0  0
  4  1  2  0  0  0  0
  5  6  2  0  0  0  0
  5  4  1  0  0  0  0
  6  7  1  0  0  0  0
  7 12  1  0  0  0  0
  7  8  2  0  0  0  0
  8 13  1  0  0  0  0
  9 16  1  0  0  0  0
 10  5  1  0  0  0  0
 11  6  1  0  0  0  0
 14 18  1  0  0  0  0
 15 14  1  0  0  0  0
 17 14  1  0  0  0  0
M  RAD  3   2   2   3   3   4   2
M  END
