Coordinates from ORCA-job PhN2+~BF4-_B3LYPG-6-31G_dp-CH-Scan-d09-49-n800
 OpenBabel11261919213D

 18 16  0  0  0  0  0  0  0  0999 V2000
   -1.8582    0.3966    0.0860 C   0  0  0  0  0  0  0  0  0  0  0  0
   -3.2155    0.1583    0.2439 N   0  0  0  0  0  0  0  0  0  0  0  0
   -4.3124   -0.0045    0.3636 N   0  0  0  0  0  0  0  0  0  0  0  0
   -1.5009    1.7233   -0.2200 C   0  0  0  0  0  0  0  0  0  0  0  0
   -0.1019    1.8573   -0.3642 C   0  0  0  0  0  0  0  0  0  0  0  0
    0.7876    0.7949   -0.2166 C   0  0  0  0  0  0  0  0  0  0  0  0
    0.3371   -0.5063    0.0933 C   0  0  0  0  0  0  0  0  0  0  0  0
   -1.0137   -0.7315    0.2522 C   0  0  0  0  0  0  0  0  0  0  0  0
   -2.7430    3.1389   -0.3941 H   0  0  0  0  0  0  0  0  0  0  0  0
    0.3071    2.8366   -0.6038 H   0  0  0  0  0  0  0  0  0  0  0  0
    1.8550    0.9628   -0.3420 H   0  0  0  0  0  0  0  0  0  0  0  0
    1.0431   -1.3221    0.2059 H   0  0  0  0  0  0  0  0  0  0  0  0
   -1.4129   -1.7123    0.4917 H   0  0  0  0  0  0  0  0  0  0  0  0
   -4.9723    3.1633   -0.1298 B   0  0  0  0  0  0  0  0  0  0  0  0
   -5.0680    2.2272   -1.1125 F   0  0  0  0  0  0  0  0  0  0  0  0
   -3.4511    3.8513   -0.4700 F   0  0  0  0  0  0  0  0  0  0  0  0
   -5.7773    4.2322   -0.2194 F   0  0  0  0  0  0  0  0  0  0  0  0
   -4.7568    2.6473    1.1108 F   0  0  0  0  0  0  0  0  0  0  0  0
  1  2  1  0  0  0  0
  1  8  2  0  0  0  0
  2  3  1  0  0  0  0
  4  1  1  0  0  0  0
  5  4  2  0  0  0  0
  5  6  1  0  0  0  0
  6  7  2  0  0  0  0
  7 12  1  0  0  0  0
  7  8  1  0  0  0  0
  8 13  1  0  0  0  0
 10  5  1  0  0  0  0
 11  6  1  0  0  0  0
 14 18  1  0  0  0  0
 15 14  1  0  0  0  0
 16  9  1  0  0  0  0
 17 14  1  0  0  0  0
M  RAD  3   2   2   3   3   4   2
M  END
