Coordinates from ORCA-job PhN2+~BF4-_B3LYPG-6-31G_dp-CH-Scan-d09-49-n800
 OpenBabel11261919213D

 18 16  0  0  0  0  0  0  0  0999 V2000
   -1.4405    0.2762    0.1175 C   0  0  0  0  0  0  0  0  0  0  0  0
   -2.8200    0.2662    0.3154 N   0  0  0  0  0  0  0  0  0  0  0  0
   -3.9285    0.3329    0.4560 N   0  0  0  0  0  0  0  0  0  0  0  0
   -0.9681    1.5469   -0.2461 C   0  0  0  0  0  0  0  0  0  0  0  0
    0.4436    1.4804   -0.4334 C   0  0  0  0  0  0  0  0  0  0  0  0
    1.1953    0.3208   -0.2741 C   0  0  0  0  0  0  0  0  0  0  0  0
    0.5979   -0.9102    0.0989 C   0  0  0  0  0  0  0  0  0  0  0  0
   -0.7617   -0.9589    0.3075 C   0  0  0  0  0  0  0  0  0  0  0  0
   -3.7688    4.7032   -0.5270 H   0  0  0  0  0  0  0  0  0  0  0  0
    0.9775    2.3875   -0.7210 H   0  0  0  0  0  0  0  0  0  0  0  0
    2.2718    0.3435   -0.4378 H   0  0  0  0  0  0  0  0  0  0  0  0
    1.2053   -1.8016    0.2187 H   0  0  0  0  0  0  0  0  0  0  0  0
   -1.2762   -1.8717    0.5961 H   0  0  0  0  0  0  0  0  0  0  0  0
   -5.7378    3.2085   -0.1476 B   0  0  0  0  0  0  0  0  0  0  0  0
   -4.8570    2.6678   -0.9926 F   0  0  0  0  0  0  0  0  0  0  0  0
   -4.5190    5.0111   -0.0694 F   0  0  0  0  0  0  0  0  0  0  0  0
   -6.8224    3.7904   -0.6264 F   0  0  0  0  0  0  0  0  0  0  0  0
   -5.6454    2.9204    1.1404 F   0  0  0  0  0  0  0  0  0  0  0  0
  1  8  1  0  0  0  0
  1  2  1  0  0  0  0
  2  3  1  0  0  0  0
  4  1  2  0  0  0  0
  5  6  2  0  0  0  0
  5  4  1  0  0  0  0
  6  7  1  0  0  0  0
  7 12  1  0  0  0  0
  7  8  2  0  0  0  0
  8 13  1  0  0  0  0
  9 16  1  0  0  0  0
 10  5  1  0  0  0  0
 11  6  1  0  0  0  0
 14 18  1  0  0  0  0
 15 14  1  0  0  0  0
 17 14  1  0  0  0  0
M  RAD  3   2   2   3   3   4   2
M  END
