Coordinates from ORCA-job PhN2+~BF4-_B3LYPG-6-31G_dp-CH-Scan-d09-49-n800
 OpenBabel11261919213D

 18 17  0  0  0  0  0  0  0  0999 V2000
   -1.9865    0.5443   -0.1776 C   0  0  0  0  0  0  0  0  0  0  0  0
   -3.3510    0.3163   -0.2826 N   0  0  0  0  0  0  0  0  0  0  0  0
   -4.4282    0.0513   -0.3866 N   0  0  0  0  0  0  0  0  0  0  0  0
   -1.4804    1.8105   -0.5053 C   0  0  0  0  0  0  0  0  0  0  0  0
   -0.1024    1.9737   -0.4070 C   0  0  0  0  0  0  0  0  0  0  0  0
    0.7140    0.9183    0.0104 C   0  0  0  0  0  0  0  0  0  0  0  0
    0.1732   -0.3354    0.3291 C   0  0  0  0  0  0  0  0  0  0  0  0
   -1.1948   -0.5434    0.2335 C   0  0  0  0  0  0  0  0  0  0  0  0
   -2.2249    2.6400   -0.8276 H   0  0  0  0  0  0  0  0  0  0  0  0
    0.3339    2.9368   -0.6490 H   0  0  0  0  0  0  0  0  0  0  0  0
    1.7861    1.0706    0.0920 H   0  0  0  0  0  0  0  0  0  0  0  0
    0.8178   -1.1459    0.6510 H   0  0  0  0  0  0  0  0  0  0  0  0
   -1.6471   -1.4990    0.4737 H   0  0  0  0  0  0  0  0  0  0  0  0
   -4.6763    3.0291    0.0581 B   0  0  0  0  0  0  0  0  0  0  0  0
   -5.6753    2.0515   -0.1675 F   0  0  0  0  0  0  0  0  0  0  0  0
   -3.9501    3.1919   -1.1631 F   0  0  0  0  0  0  0  0  0  0  0  0
   -5.2023    4.2162    0.4894 F   0  0  0  0  0  0  0  0  0  0  0  0
   -3.7598    2.4863    1.0041 F   0  0  0  0  0  0  0  0  0  0  0  0
  1  8  2  0  0  0  0
  2  1  1  0  0  0  0
  3  2  1  0  0  0  0
  4  5  2  0  0  0  0
  4  1  1  0  0  0  0
  5  6  1  0  0  0  0
  6 11  1  0  0  0  0
  6  7  2  0  0  0  0
  7 12  1  0  0  0  0
  8  7  1  0  0  0  0
  8 13  1  0  0  0  0
  9  4  1  0  0  0  0
 10  5  1  0  0  0  0
 14 17  1  0  0  0  0
 14 18  1  0  0  0  0
 15 14  1  0  0  0  0
 16 14  1  0  0  0  0
M  RAD  2   2   2   3   3
M  END
