Coordinates from ORCA-job PhN2+~BF4-_B3LYPG-6-31G_dp-CH-Scan-d09-49-n800
 OpenBabel11261919213D

 18 16  0  0  0  0  0  0  0  0999 V2000
   -1.5300    0.2959    0.1131 C   0  0  0  0  0  0  0  0  0  0  0  0
   -2.9098    0.2205    0.2831 N   0  0  0  0  0  0  0  0  0  0  0  0
   -4.0216    0.2240    0.4085 N   0  0  0  0  0  0  0  0  0  0  0  0
   -1.0902    1.5957   -0.1874 C   0  0  0  0  0  0  0  0  0  0  0  0
    0.3249    1.5858   -0.3472 C   0  0  0  0  0  0  0  0  0  0  0  0
    1.1136    0.4467   -0.2197 C   0  0  0  0  0  0  0  0  0  0  0  0
    0.5519   -0.8175    0.0886 C   0  0  0  0  0  0  0  0  0  0  0  0
   -0.8092   -0.9207    0.2652 C   0  0  0  0  0  0  0  0  0  0  0  0
   -3.3617    4.3048   -0.4909 H   0  0  0  0  0  0  0  0  0  0  0  0
    0.8317    2.5217   -0.5859 H   0  0  0  0  0  0  0  0  0  0  0  0
    2.1916    0.5136   -0.3589 H   0  0  0  0  0  0  0  0  0  0  0  0
    1.1865   -1.6927    0.1843 H   0  0  0  0  0  0  0  0  0  0  0  0
   -1.2969   -1.8620    0.5041 H   0  0  0  0  0  0  0  0  0  0  0  0
   -5.6649    3.2023   -0.1189 B   0  0  0  0  0  0  0  0  0  0  0  0
   -5.2521    2.4534   -1.1379 F   0  0  0  0  0  0  0  0  0  0  0  0
   -4.1924    4.7241   -0.4532 F   0  0  0  0  0  0  0  0  0  0  0  0
   -6.6936    4.0172   -0.2724 F   0  0  0  0  0  0  0  0  0  0  0  0
   -5.2317    2.9003    1.1004 F   0  0  0  0  0  0  0  0  0  0  0  0
  1  8  1  0  0  0  0
  1  2  1  0  0  0  0
  2  3  1  0  0  0  0
  4  1  2  0  0  0  0
  5  6  2  0  0  0  0
  5  4  1  0  0  0  0
  6  7  1  0  0  0  0
  7 12  1  0  0  0  0
  7  8  2  0  0  0  0
  8 13  1  0  0  0  0
  9 16  1  0  0  0  0
 10  5  1  0  0  0  0
 11  6  1  0  0  0  0
 14 18  1  0  0  0  0
 15 14  1  0  0  0  0
 17 14  1  0  0  0  0
M  RAD  3   2   2   3   3   4   2
M  END
