Coordinates from ORCA-job PhN2+~BF4-_B3LYPG-6-31G_dp-CH-Scan-d09-49-n800
 OpenBabel11261919213D

 18 16  0  0  0  0  0  0  0  0999 V2000
   -1.8812    0.4092    0.0961 C   0  0  0  0  0  0  0  0  0  0  0  0
   -3.2362    0.1651    0.2645 N   0  0  0  0  0  0  0  0  0  0  0  0
   -4.3305   -0.0041    0.3931 N   0  0  0  0  0  0  0  0  0  0  0  0
   -1.5234    1.7364   -0.2067 C   0  0  0  0  0  0  0  0  0  0  0  0
   -0.1278    1.8759   -0.3621 C   0  0  0  0  0  0  0  0  0  0  0  0
    0.7645    0.8139   -0.2267 C   0  0  0  0  0  0  0  0  0  0  0  0
    0.3177   -0.4883    0.0808 C   0  0  0  0  0  0  0  0  0  0  0  0
   -1.0319   -0.7161    0.2497 C   0  0  0  0  0  0  0  0  0  0  0  0
   -2.6982    3.0728   -0.3621 H   0  0  0  0  0  0  0  0  0  0  0  0
    0.2754    2.8576   -0.6005 H   0  0  0  0  0  0  0  0  0  0  0  0
    1.8304    0.9840   -0.3602 H   0  0  0  0  0  0  0  0  0  0  0  0
    1.0251   -1.3041    0.1840 H   0  0  0  0  0  0  0  0  0  0  0  0
   -1.4273   -1.6986    0.4878 H   0  0  0  0  0  0  0  0  0  0  0  0
   -4.9117    3.1524   -0.1467 B   0  0  0  0  0  0  0  0  0  0  0  0
   -5.0023    2.2025   -1.1244 F   0  0  0  0  0  0  0  0  0  0  0  0
   -3.4168    3.8124   -0.4396 F   0  0  0  0  0  0  0  0  0  0  0  0
   -5.7294    4.2137   -0.2571 F   0  0  0  0  0  0  0  0  0  0  0  0
   -4.7501    2.6284    1.1050 F   0  0  0  0  0  0  0  0  0  0  0  0
  1  8  1  0  0  0  0
  1  2  1  0  0  0  0
  2  3  1  0  0  0  0
  4  1  2  0  0  0  0
  5  6  2  0  0  0  0
  5  4  1  0  0  0  0
  6  7  1  0  0  0  0
  7 12  1  0  0  0  0
  7  8  2  0  0  0  0
  8 13  1  0  0  0  0
 10  5  1  0  0  0  0
 11  6  1  0  0  0  0
 14 18  1  0  0  0  0
 15 14  1  0  0  0  0
 16  9  1  0  0  0  0
 17 14  1  0  0  0  0
M  RAD  3   2   2   3   3   4   2
M  END
