Coordinates from ORCA-job PhN2+~BF4-_B3LYPG-6-31G_dp-CH-Scan-d09-49-n800
 OpenBabel11261919213D

 18 17  0  0  0  0  0  0  0  0999 V2000
   -1.9889    0.4996   -0.1287 C   0  0  0  0  0  0  0  0  0  0  0  0
   -3.3513    0.2528   -0.1972 N   0  0  0  0  0  0  0  0  0  0  0  0
   -4.4358    0.0133   -0.2869 N   0  0  0  0  0  0  0  0  0  0  0  0
   -1.5136    1.7691   -0.4913 C   0  0  0  0  0  0  0  0  0  0  0  0
   -0.1350    1.9516   -0.4369 C   0  0  0  0  0  0  0  0  0  0  0  0
    0.7089    0.9145   -0.0290 C   0  0  0  0  0  0  0  0  0  0  0  0
    0.1969   -0.3419    0.3274 C   0  0  0  0  0  0  0  0  0  0  0  0
   -1.1697   -0.5704    0.2775 C   0  0  0  0  0  0  0  0  0  0  0  0
   -2.2993    2.6209   -0.8045 H   0  0  0  0  0  0  0  0  0  0  0  0
    0.2803    2.9166   -0.7064 H   0  0  0  0  0  0  0  0  0  0  0  0
    1.7809    1.0829    0.0158 H   0  0  0  0  0  0  0  0  0  0  0  0
    0.8634   -1.1372    0.6424 H   0  0  0  0  0  0  0  0  0  0  0  0
   -1.6009   -1.5283    0.5460 H   0  0  0  0  0  0  0  0  0  0  0  0
   -4.6639    3.0825    0.0251 B   0  0  0  0  0  0  0  0  0  0  0  0
   -5.5488    2.0909   -0.4683 F   0  0  0  0  0  0  0  0  0  0  0  0
   -3.8120    3.4813   -1.0540 F   0  0  0  0  0  0  0  0  0  0  0  0
   -5.3347    4.1539    0.5473 F   0  0  0  0  0  0  0  0  0  0  0  0
   -3.8303    2.4613    0.9967 F   0  0  0  0  0  0  0  0  0  0  0  0
  1  8  2  0  0  0  0
  2  1  1  0  0  0  0
  3  2  1  0  0  0  0
  4  5  2  0  0  0  0
  4  1  1  0  0  0  0
  5  6  1  0  0  0  0
  6 11  1  0  0  0  0
  6  7  2  0  0  0  0
  7 12  1  0  0  0  0
  8  7  1  0  0  0  0
  8 13  1  0  0  0  0
  9  4  1  0  0  0  0
 10  5  1  0  0  0  0
 14 17  1  0  0  0  0
 14 18  1  0  0  0  0
 15 14  1  0  0  0  0
 16 14  1  0  0  0  0
M  RAD  2   2   2   3   3
M  END
