Coordinates from ORCA-job PhN2+~BF4-_B3LYPG-6-31G_dp-CH-Scan-d09-49-n800
 OpenBabel11261919213D

 18 16  0  0  0  0  0  0  0  0999 V2000
   -1.4826    0.2710    0.1123 C   0  0  0  0  0  0  0  0  0  0  0  0
   -2.8615    0.2283    0.3070 N   0  0  0  0  0  0  0  0  0  0  0  0
   -3.9713    0.2649    0.4476 N   0  0  0  0  0  0  0  0  0  0  0  0
   -1.0351    1.5516   -0.2494 C   0  0  0  0  0  0  0  0  0  0  0  0
    0.3782    1.5152   -0.4308 C   0  0  0  0  0  0  0  0  0  0  0  0
    1.1542    0.3721   -0.2683 C   0  0  0  0  0  0  0  0  0  0  0  0
    0.5818   -0.8713    0.1019 C   0  0  0  0  0  0  0  0  0  0  0  0
   -0.7773   -0.9490    0.3046 C   0  0  0  0  0  0  0  0  0  0  0  0
   -3.6342    4.5910   -0.5293 H   0  0  0  0  0  0  0  0  0  0  0  0
    0.8937    2.4335   -0.7161 H   0  0  0  0  0  0  0  0  0  0  0  0
    2.2306    0.4183   -0.4271 H   0  0  0  0  0  0  0  0  0  0  0  0
    1.2073   -1.7497    0.2243 H   0  0  0  0  0  0  0  0  0  0  0  0
   -1.2732   -1.8727    0.5909 H   0  0  0  0  0  0  0  0  0  0  0  0
   -5.6873    3.2054   -0.1412 B   0  0  0  0  0  0  0  0  0  0  0  0
   -4.8616    2.6060   -1.0016 F   0  0  0  0  0  0  0  0  0  0  0  0
   -4.3839    4.9366   -0.0985 F   0  0  0  0  0  0  0  0  0  0  0  0
   -6.7503    3.8428   -0.5982 F   0  0  0  0  0  0  0  0  0  0  0  0
   -5.5814    2.9191    1.1467 F   0  0  0  0  0  0  0  0  0  0  0  0
  1  8  1  0  0  0  0
  1  2  1  0  0  0  0
  2  3  1  0  0  0  0
  4  1  2  0  0  0  0
  5  6  2  0  0  0  0
  5  4  1  0  0  0  0
  6  7  1  0  0  0  0
  7 12  1  0  0  0  0
  7  8  2  0  0  0  0
  8 13  1  0  0  0  0
  9 16  1  0  0  0  0
 10  5  1  0  0  0  0
 11  6  1  0  0  0  0
 14 18  1  0  0  0  0
 15 14  1  0  0  0  0
 17 14  1  0  0  0  0
M  RAD  3   2   2   3   3   4   2
M  END
