Coordinates from ORCA-job PhN2+~BF4-_B3LYPG-6-31G_dp-CH-Scan-d09-49-n800
 OpenBabel11261919213D

 18 16  0  0  0  0  0  0  0  0999 V2000
   -1.5366    0.2952    0.1132 C   0  0  0  0  0  0  0  0  0  0  0  0
   -2.9159    0.2168    0.2834 N   0  0  0  0  0  0  0  0  0  0  0  0
   -4.0278    0.2188    0.4082 N   0  0  0  0  0  0  0  0  0  0  0  0
   -1.1006    1.5965   -0.1879 C   0  0  0  0  0  0  0  0  0  0  0  0
    0.3145    1.5910   -0.3478 C   0  0  0  0  0  0  0  0  0  0  0  0
    1.1067    0.4544   -0.2200 C   0  0  0  0  0  0  0  0  0  0  0  0
    0.5490   -0.8114    0.0886 C   0  0  0  0  0  0  0  0  0  0  0  0
   -0.8119   -0.9188    0.2654 C   0  0  0  0  0  0  0  0  0  0  0  0
   -3.3445    4.2831   -0.4885 H   0  0  0  0  0  0  0  0  0  0  0  0
    0.8183    2.5284   -0.5868 H   0  0  0  0  0  0  0  0  0  0  0  0
    2.1844    0.5247   -0.3593 H   0  0  0  0  0  0  0  0  0  0  0  0
    1.1863   -1.6845    0.1845 H   0  0  0  0  0  0  0  0  0  0  0  0
   -1.2966   -1.8615    0.5046 H   0  0  0  0  0  0  0  0  0  0  0  0
   -5.6554    3.2018   -0.1192 B   0  0  0  0  0  0  0  0  0  0  0  0
   -5.2495    2.4491   -1.1384 F   0  0  0  0  0  0  0  0  0  0  0  0
   -4.1719    4.7095   -0.4532 F   0  0  0  0  0  0  0  0  0  0  0  0
   -6.6780    4.0245   -0.2720 F   0  0  0  0  0  0  0  0  0  0  0  0
   -5.2244    2.8956    1.1000 F   0  0  0  0  0  0  0  0  0  0  0  0
  1  8  1  0  0  0  0
  1  2  1  0  0  0  0
  2  3  1  0  0  0  0
  4  1  2  0  0  0  0
  5  6  2  0  0  0  0
  5  4  1  0  0  0  0
  6  7  1  0  0  0  0
  7 12  1  0  0  0  0
  7  8  2  0  0  0  0
  8 13  1  0  0  0  0
  9 16  1  0  0  0  0
 10  5  1  0  0  0  0
 11  6  1  0  0  0  0
 14 18  1  0  0  0  0
 15 14  1  0  0  0  0
 17 14  1  0  0  0  0
M  RAD  3   2   2   3   3   4   2
M  END
