Coordinates from ORCA-job PhN2+~BF4-_B3LYPG-6-31G_dp-CH-Scan-d09-49-n800
 OpenBabel11261919213D

 18 16  0  0  0  0  0  0  0  0999 V2000
   -1.3541    0.2969    0.1455 C   0  0  0  0  0  0  0  0  0  0  0  0
   -2.7292    0.3539    0.3687 N   0  0  0  0  0  0  0  0  0  0  0  0
   -3.8306    0.4748    0.5302 N   0  0  0  0  0  0  0  0  0  0  0  0
   -0.8265    1.5485   -0.2056 C   0  0  0  0  0  0  0  0  0  0  0  0
    0.5767    1.4164   -0.4206 C   0  0  0  0  0  0  0  0  0  0  0  0
    1.2724    0.2184   -0.2951 C   0  0  0  0  0  0  0  0  0  0  0  0
    0.6213   -0.9880    0.0688 C   0  0  0  0  0  0  0  0  0  0  0  0
   -0.7350   -0.9737    0.3026 C   0  0  0  0  0  0  0  0  0  0  0  0
   -4.0292    4.9061   -0.5039 H   0  0  0  0  0  0  0  0  0  0  0  0
    1.1495    2.3011   -0.7029 H   0  0  0  0  0  0  0  0  0  0  0  0
    2.3455    0.1905   -0.4792 H   0  0  0  0  0  0  0  0  0  0  0  0
    1.1861   -1.9102    0.1622 H   0  0  0  0  0  0  0  0  0  0  0  0
   -1.2889   -1.8649    0.5857 H   0  0  0  0  0  0  0  0  0  0  0  0
   -5.8333    3.2122   -0.1749 B   0  0  0  0  0  0  0  0  0  0  0  0
   -4.8488    2.7745   -0.9634 F   0  0  0  0  0  0  0  0  0  0  0  0
   -4.8011    5.1397   -0.0390 F   0  0  0  0  0  0  0  0  0  0  0  0
   -6.9398    3.6823   -0.7210 F   0  0  0  0  0  0  0  0  0  0  0  0
   -5.7891    2.9346    1.1170 F   0  0  0  0  0  0  0  0  0  0  0  0
  1  8  1  0  0  0  0
  1  2  1  0  0  0  0
  2  3  1  0  0  0  0
  4  1  2  0  0  0  0
  5  6  2  0  0  0  0
  5  4  1  0  0  0  0
  6  7  1  0  0  0  0
  7 12  1  0  0  0  0
  7  8  2  0  0  0  0
  8 13  1  0  0  0  0
  9 16  1  0  0  0  0
 10  5  1  0  0  0  0
 11  6  1  0  0  0  0
 14 18  1  0  0  0  0
 15 14  1  0  0  0  0
 17 14  1  0  0  0  0
M  RAD  3   2   2   3   3   4   2
M  END
