Coordinates from ORCA-job PhN2+~BF4-_B3LYPG-6-31G_dp-CH-Scan-d09-49-n800
 OpenBabel11261919213D

 18 16  0  0  0  0  0  0  0  0999 V2000
   -1.3782    0.2906    0.1430 C   0  0  0  0  0  0  0  0  0  0  0  0
   -2.7541    0.3294    0.3641 N   0  0  0  0  0  0  0  0  0  0  0  0
   -3.8569    0.4370    0.5243 N   0  0  0  0  0  0  0  0  0  0  0  0
   -0.8675    1.5481   -0.2128 C   0  0  0  0  0  0  0  0  0  0  0  0
    0.5377    1.4342   -0.4261 C   0  0  0  0  0  0  0  0  0  0  0  0
    1.2497    0.2464   -0.2948 C   0  0  0  0  0  0  0  0  0  0  0  0
    0.6149   -0.9673    0.0738 C   0  0  0  0  0  0  0  0  0  0  0  0
   -0.7417   -0.9705    0.3061 C   0  0  0  0  0  0  0  0  0  0  0  0
   -3.9558    4.8562   -0.4977 H   0  0  0  0  0  0  0  0  0  0  0  0
    1.0986    2.3254   -0.7117 H   0  0  0  0  0  0  0  0  0  0  0  0
    2.3232    0.2326   -0.4777 H   0  0  0  0  0  0  0  0  0  0  0  0
    1.1922   -1.8812    0.1717 H   0  0  0  0  0  0  0  0  0  0  0  0
   -1.2836   -1.8680    0.5925 H   0  0  0  0  0  0  0  0  0  0  0  0
   -5.8053    3.2093   -0.1744 B   0  0  0  0  0  0  0  0  0  0  0  0
   -4.8353    2.7456   -0.9660 F   0  0  0  0  0  0  0  0  0  0  0  0
   -4.7262    5.1083   -0.0399 F   0  0  0  0  0  0  0  0  0  0  0  0
   -6.9015    3.7071   -0.7169 F   0  0  0  0  0  0  0  0  0  0  0  0
   -5.7642    2.9301    1.1174 F   0  0  0  0  0  0  0  0  0  0  0  0
  1  8  1  0  0  0  0
  1  2  1  0  0  0  0
  2  3  1  0  0  0  0
  4  1  2  0  0  0  0
  5  6  2  0  0  0  0
  5  4  1  0  0  0  0
  6  7  1  0  0  0  0
  7 12  1  0  0  0  0
  7  8  2  0  0  0  0
  8 13  1  0  0  0  0
  9 16  1  0  0  0  0
 10  5  1  0  0  0  0
 11  6  1  0  0  0  0
 14 18  1  0  0  0  0
 15 14  1  0  0  0  0
 17 14  1  0  0  0  0
M  RAD  3   2   2   3   3   4   2
M  END
