Coordinates from ORCA-job PhN2+~BF4-_B3LYPG-6-31G_dp-CH-Scan-d09-49-n800
 OpenBabel11261919213D

 18 16  0  0  0  0  0  0  0  0999 V2000
   -1.9118    0.4248    0.0929 C   0  0  0  0  0  0  0  0  0  0  0  0
   -3.2656    0.1739    0.2593 N   0  0  0  0  0  0  0  0  0  0  0  0
   -4.3582   -0.0034    0.3858 N   0  0  0  0  0  0  0  0  0  0  0  0
   -1.5481    1.7494   -0.2117 C   0  0  0  0  0  0  0  0  0  0  0  0
   -0.1562    1.8982   -0.3651 C   0  0  0  0  0  0  0  0  0  0  0  0
    0.7387    0.8381   -0.2255 C   0  0  0  0  0  0  0  0  0  0  0  0
    0.2934   -0.4630    0.0829 C   0  0  0  0  0  0  0  0  0  0  0  0
   -1.0568   -0.6941    0.2493 C   0  0  0  0  0  0  0  0  0  0  0  0
   -2.6367    2.9816   -0.3606 H   0  0  0  0  0  0  0  0  0  0  0  0
    0.2404    2.8819   -0.6040 H   0  0  0  0  0  0  0  0  0  0  0  0
    1.8041    1.0111   -0.3567 H   0  0  0  0  0  0  0  0  0  0  0  0
    1.0017   -1.2775    0.1894 H   0  0  0  0  0  0  0  0  0  0  0  0
   -1.4493   -1.6774    0.4881 H   0  0  0  0  0  0  0  0  0  0  0  0
   -4.8349    3.1401   -0.1482 B   0  0  0  0  0  0  0  0  0  0  0  0
   -4.9609    2.1718   -1.1163 F   0  0  0  0  0  0  0  0  0  0  0  0
   -3.3871    3.7670   -0.4452 F   0  0  0  0  0  0  0  0  0  0  0  0
   -5.6785    4.1879   -0.2482 F   0  0  0  0  0  0  0  0  0  0  0  0
   -4.6881    2.6028    1.1090 F   0  0  0  0  0  0  0  0  0  0  0  0
  1  8  1  0  0  0  0
  1  2  1  0  0  0  0
  2  3  1  0  0  0  0
  4  1  2  0  0  0  0
  5  6  2  0  0  0  0
  5  4  1  0  0  0  0
  6  7  1  0  0  0  0
  7 12  1  0  0  0  0
  7  8  2  0  0  0  0
  8 13  1  0  0  0  0
 10  5  1  0  0  0  0
 11  6  1  0  0  0  0
 14 18  1  0  0  0  0
 15 14  1  0  0  0  0
 16  9  1  0  0  0  0
 17 14  1  0  0  0  0
M  RAD  3   2   2   3   3   4   2
M  END
