Coordinates from ORCA-job PhN2+~BF4-_B3LYPG-6-31G_dp-CH-Scan-d09-49-n800
 OpenBabel11261919213D

 18 17  0  0  0  0  0  0  0  0999 V2000
   -1.9861    0.5153   -0.1550 C   0  0  0  0  0  0  0  0  0  0  0  0
   -3.3482    0.2740   -0.2446 N   0  0  0  0  0  0  0  0  0  0  0  0
   -4.4302    0.0252   -0.3404 N   0  0  0  0  0  0  0  0  0  0  0  0
   -1.4997    1.7852   -0.5010 C   0  0  0  0  0  0  0  0  0  0  0  0
   -0.1213    1.9608   -0.4232 C   0  0  0  0  0  0  0  0  0  0  0  0
    0.7112    0.9166   -0.0099 C   0  0  0  0  0  0  0  0  0  0  0  0
    0.1882   -0.3404    0.3277 C   0  0  0  0  0  0  0  0  0  0  0  0
   -1.1783   -0.5624    0.2538 C   0  0  0  0  0  0  0  0  0  0  0  0
   -2.2717    2.6220   -0.8125 H   0  0  0  0  0  0  0  0  0  0  0  0
    0.3036    2.9257   -0.6778 H   0  0  0  0  0  0  0  0  0  0  0  0
    1.7830    1.0799    0.0547 H   0  0  0  0  0  0  0  0  0  0  0  0
    0.8460   -1.1415    0.6465 H   0  0  0  0  0  0  0  0  0  0  0  0
   -1.6180   -1.5207    0.5069 H   0  0  0  0  0  0  0  0  0  0  0  0
   -4.6734    3.0641    0.0464 B   0  0  0  0  0  0  0  0  0  0  0  0
   -5.6202    2.0837   -0.3293 F   0  0  0  0  0  0  0  0  0  0  0  0
   -3.8654    3.3534   -1.1035 F   0  0  0  0  0  0  0  0  0  0  0  0
   -5.2673    4.1978    0.5291 F   0  0  0  0  0  0  0  0  0  0  0  0
   -3.8063    2.4743    1.0071 F   0  0  0  0  0  0  0  0  0  0  0  0
  1  8  2  0  0  0  0
  2  1  1  0  0  0  0
  3  2  1  0  0  0  0
  4  5  2  0  0  0  0
  4  1  1  0  0  0  0
  5  6  1  0  0  0  0
  6 11  1  0  0  0  0
  6  7  2  0  0  0  0
  7 12  1  0  0  0  0
  8  7  1  0  0  0  0
  8 13  1  0  0  0  0
  9  4  1  0  0  0  0
 10  5  1  0  0  0  0
 14 17  1  0  0  0  0
 14 18  1  0  0  0  0
 15 14  1  0  0  0  0
 16 14  1  0  0  0  0
M  RAD  2   2   2   3   3
M  END
