Coordinates from ORCA-job PhN2+~BF4-_B3LYPG-6-31G_dp-CH-Scan-d09-49-n800
 OpenBabel11261919213D

 18 16  0  0  0  0  0  0  0  0999 V2000
   -1.5077    0.2906    0.1164 C   0  0  0  0  0  0  0  0  0  0  0  0
   -2.8882    0.2303    0.2879 N   0  0  0  0  0  0  0  0  0  0  0  0
   -4.0001    0.2492    0.4124 N   0  0  0  0  0  0  0  0  0  0  0  0
   -1.0590    1.5873   -0.1843 C   0  0  0  0  0  0  0  0  0  0  0  0
    0.3562    1.5651   -0.3466 C   0  0  0  0  0  0  0  0  0  0  0  0
    1.1354    0.4193   -0.2214 C   0  0  0  0  0  0  0  0  0  0  0  0
    0.5638   -0.8406    0.0874 C   0  0  0  0  0  0  0  0  0  0  0  0
   -0.7978   -0.9325    0.2666 C   0  0  0  0  0  0  0  0  0  0  0  0
   -3.4256    4.3994   -0.4950 H   0  0  0  0  0  0  0  0  0  0  0  0
    0.8708    2.4968   -0.5857 H   0  0  0  0  0  0  0  0  0  0  0  0
    2.2136    0.4770   -0.3629 H   0  0  0  0  0  0  0  0  0  0  0  0
    1.1914   -1.7209    0.1814 H   0  0  0  0  0  0  0  0  0  0  0  0
   -1.2931   -1.8697    0.5061 H   0  0  0  0  0  0  0  0  0  0  0  0
   -5.6940    3.2022   -0.1212 B   0  0  0  0  0  0  0  0  0  0  0  0
   -5.2402    2.4738   -1.1372 F   0  0  0  0  0  0  0  0  0  0  0  0
   -4.2702    4.7874   -0.4452 F   0  0  0  0  0  0  0  0  0  0  0  0
   -6.7499    3.9788   -0.2852 F   0  0  0  0  0  0  0  0  0  0  0  0
   -5.2591    2.9196    1.1015 F   0  0  0  0  0  0  0  0  0  0  0  0
  1  8  1  0  0  0  0
  1  2  1  0  0  0  0
  2  3  1  0  0  0  0
  4  1  2  0  0  0  0
  5  6  2  0  0  0  0
  5  4  1  0  0  0  0
  6  7  1  0  0  0  0
  7 12  1  0  0  0  0
  7  8  2  0  0  0  0
  8 13  1  0  0  0  0
  9 16  1  0  0  0  0
 10  5  1  0  0  0  0
 11  6  1  0  0  0  0
 14 18  1  0  0  0  0
 15 14  1  0  0  0  0
 17 14  1  0  0  0  0
M  RAD  3   2   2   3   3   4   2
M  END
