Coordinates from ORCA-job PhN2+~BF4-_B3LYPG-6-31G_dp-CH-Scan-d09-49-n800
 OpenBabel11261919213D

 18 17  0  0  0  0  0  0  0  0999 V2000
   -2.1250    0.4779   -0.1986 C   0  0  0  0  0  0  0  0  0  0  0  0
   -3.4708    0.1531   -0.2400 N   0  0  0  0  0  0  0  0  0  0  0  0
   -4.5137   -0.2253   -0.2787 N   0  0  0  0  0  0  0  0  0  0  0  0
   -1.6794    1.6634   -0.8015 C   0  0  0  0  0  0  0  0  0  0  0  0
   -0.3094    1.9028   -0.7613 C   0  0  0  0  0  0  0  0  0  0  0  0
    0.5579    1.0002   -0.1417 C   0  0  0  0  0  0  0  0  0  0  0  0
    0.0761   -0.1732    0.4563 C   0  0  0  0  0  0  0  0  0  0  0  0
   -1.2810   -0.4540    0.4348 C   0  0  0  0  0  0  0  0  0  0  0  0
   -2.3740    2.3297   -1.2217 H   0  0  0  0  0  0  0  0  0  0  0  0
    0.0745    2.8146   -1.2053 H   0  0  0  0  0  0  0  0  0  0  0  0
    1.6225    1.2118   -0.1158 H   0  0  0  0  0  0  0  0  0  0  0  0
    0.7585   -0.8638    0.9395 H   0  0  0  0  0  0  0  0  0  0  0  0
   -1.6885   -1.3490    0.8909 H   0  0  0  0  0  0  0  0  0  0  0  0
   -4.3216    3.0828    0.2228 B   0  0  0  0  0  0  0  0  0  0  0  0
   -4.4315    2.3752   -1.0328 F   0  0  0  0  0  0  0  0  0  0  0  0
   -3.1829    3.8961    0.1392 F   0  0  0  0  0  0  0  0  0  0  0  0
   -5.4675    3.7907    0.4777 F   0  0  0  0  0  0  0  0  0  0  0  0
   -4.0980    2.0802    1.2111 F   0  0  0  0  0  0  0  0  0  0  0  0
  1  8  2  0  0  0  0
  2  1  1  0  0  0  0
  3  2  1  0  0  0  0
  4  5  2  0  0  0  0
  4  1  1  0  0  0  0
  5  6  1  0  0  0  0
  6 11  1  0  0  0  0
  6  7  2  0  0  0  0
  7 12  1  0  0  0  0
  8  7  1  0  0  0  0
  8 13  1  0  0  0  0
  9  4  1  0  0  0  0
 10  5  1  0  0  0  0
 14 17  1  0  0  0  0
 14 18  1  0  0  0  0
 15 14  1  0  0  0  0
 16 14  1  0  0  0  0
M  RAD  2   2   2   3   3
M  END
