Coordinates from ORCA-job PhN2+~BF4-_B3LYPG-6-31G_dp-CH-Scan-d09-49-n800
 OpenBabel11261919213D

 18 17  0  0  0  0  0  0  0  0999 V2000
   -1.9889    0.5607   -0.1820 C   0  0  0  0  0  0  0  0  0  0  0  0
   -3.3541    0.3360   -0.2919 N   0  0  0  0  0  0  0  0  0  0  0  0
   -4.4288    0.0602   -0.3921 N   0  0  0  0  0  0  0  0  0  0  0  0
   -1.4755    1.8261   -0.5011 C   0  0  0  0  0  0  0  0  0  0  0  0
   -0.0967    1.9812   -0.4000 C   0  0  0  0  0  0  0  0  0  0  0  0
    0.7143    0.9198    0.0124 C   0  0  0  0  0  0  0  0  0  0  0  0
    0.1662   -0.3321    0.3240 C   0  0  0  0  0  0  0  0  0  0  0  0
   -1.2029   -0.5324    0.2246 C   0  0  0  0  0  0  0  0  0  0  0  0
   -2.1782    2.6279   -0.8110 H   0  0  0  0  0  0  0  0  0  0  0  0
    0.3441    2.9435   -0.6370 H   0  0  0  0  0  0  0  0  0  0  0  0
    1.7871    1.0662    0.0953 H   0  0  0  0  0  0  0  0  0  0  0  0
    0.8057   -1.1477    0.6432 H   0  0  0  0  0  0  0  0  0  0  0  0
   -1.6604   -1.4869    0.4594 H   0  0  0  0  0  0  0  0  0  0  0  0
   -4.6803    3.0141    0.0589 B   0  0  0  0  0  0  0  0  0  0  0  0
   -5.6947    2.0419   -0.1192 F   0  0  0  0  0  0  0  0  0  0  0  0
   -3.9710    3.1222   -1.1761 F   0  0  0  0  0  0  0  0  0  0  0  0
   -5.1840    4.2219    0.4582 F   0  0  0  0  0  0  0  0  0  0  0  0
   -3.7558    2.4905    1.0096 F   0  0  0  0  0  0  0  0  0  0  0  0
  1  8  2  0  0  0  0
  2  1  1  0  0  0  0
  3  2  1  0  0  0  0
  4  5  2  0  0  0  0
  4  1  1  0  0  0  0
  5  6  1  0  0  0  0
  6 11  1  0  0  0  0
  6  7  2  0  0  0  0
  7 12  1  0  0  0  0
  8  7  1  0  0  0  0
  8 13  1  0  0  0  0
  9  4  1  0  0  0  0
 10  5  1  0  0  0  0
 14 17  1  0  0  0  0
 14 18  1  0  0  0  0
 15 14  1  0  0  0  0
 16 14  1  0  0  0  0
M  RAD  2   2   2   3   3
M  END
