Coordinates from ORCA-job PhN2+~BF4-_B3LYPG-6-31G_dp-CH-Scan-d09-49-n800
 OpenBabel11261919213D

 18 16  0  0  0  0  0  0  0  0999 V2000
   -1.4958    0.2905    0.1171 C   0  0  0  0  0  0  0  0  0  0  0  0
   -2.8771    0.2380    0.2884 N   0  0  0  0  0  0  0  0  0  0  0  0
   -3.9887    0.2642    0.4144 N   0  0  0  0  0  0  0  0  0  0  0  0
   -1.0404    1.5846   -0.1833 C   0  0  0  0  0  0  0  0  0  0  0  0
    0.3747    1.5542   -0.3467 C   0  0  0  0  0  0  0  0  0  0  0  0
    1.1474    0.4040   -0.2220 C   0  0  0  0  0  0  0  0  0  0  0  0
    0.5688   -0.8527    0.0872 C   0  0  0  0  0  0  0  0  0  0  0  0
   -0.7932   -0.9368    0.2673 C   0  0  0  0  0  0  0  0  0  0  0  0
   -3.4620    4.4481   -0.5003 H   0  0  0  0  0  0  0  0  0  0  0  0
    0.8945    2.4829   -0.5861 H   0  0  0  0  0  0  0  0  0  0  0  0
    2.2259    0.4555   -0.3642 H   0  0  0  0  0  0  0  0  0  0  0  0
    1.1915   -1.7365    0.1808 H   0  0  0  0  0  0  0  0  0  0  0  0
   -1.2938   -1.8712    0.5068 H   0  0  0  0  0  0  0  0  0  0  0  0
   -5.7082    3.2007   -0.1216 B   0  0  0  0  0  0  0  0  0  0  0  0
   -5.2319    2.4853   -1.1363 F   0  0  0  0  0  0  0  0  0  0  0  0
   -4.3131    4.8196   -0.4382 F   0  0  0  0  0  0  0  0  0  0  0  0
   -6.7791    3.9553   -0.2911 F   0  0  0  0  0  0  0  0  0  0  0  0
   -5.2734    2.9274    1.1029 F   0  0  0  0  0  0  0  0  0  0  0  0
  1  8  1  0  0  0  0
  1  2  1  0  0  0  0
  2  3  1  0  0  0  0
  4  1  2  0  0  0  0
  5  6  2  0  0  0  0
  5  4  1  0  0  0  0
  6  7  1  0  0  0  0
  7 12  1  0  0  0  0
  7  8  2  0  0  0  0
  8 13  1  0  0  0  0
  9 16  1  0  0  0  0
 10  5  1  0  0  0  0
 11  6  1  0  0  0  0
 14 18  1  0  0  0  0
 15 14  1  0  0  0  0
 17 14  1  0  0  0  0
M  RAD  3   2   2   3   3   4   2
M  END
