Coordinates from ORCA-job PhN2+~BF4-_B3LYPG-6-31G_dp-CH-Scan-d09-49-n800
 OpenBabel11261919213D

 18 16  0  0  0  0  0  0  0  0999 V2000
   -1.4113    0.2839    0.1380 C   0  0  0  0  0  0  0  0  0  0  0  0
   -2.7881    0.2984    0.3545 N   0  0  0  0  0  0  0  0  0  0  0  0
   -3.8932    0.3879    0.5088 N   0  0  0  0  0  0  0  0  0  0  0  0
   -0.9220    1.5492   -0.2214 C   0  0  0  0  0  0  0  0  0  0  0  0
    0.4855    1.4596   -0.4295 C   0  0  0  0  0  0  0  0  0  0  0  0
    1.2185    0.2854   -0.2911 C   0  0  0  0  0  0  0  0  0  0  0  0
    0.6046   -0.9381    0.0803 C   0  0  0  0  0  0  0  0  0  0  0  0
   -0.7525   -0.9648    0.3082 C   0  0  0  0  0  0  0  0  0  0  0  0
   -3.8538    4.7770   -0.4986 H   0  0  0  0  0  0  0  0  0  0  0  0
    1.0313    2.3596   -0.7169 H   0  0  0  0  0  0  0  0  0  0  0  0
    2.2927    0.2903   -0.4704 H   0  0  0  0  0  0  0  0  0  0  0  0
    1.1978   -1.8411    0.1838 H   0  0  0  0  0  0  0  0  0  0  0  0
   -1.2791   -1.8707    0.5965 H   0  0  0  0  0  0  0  0  0  0  0  0
   -5.7672    3.2054   -0.1692 B   0  0  0  0  0  0  0  0  0  0  0  0
   -4.8268    2.7039   -0.9733 F   0  0  0  0  0  0  0  0  0  0  0  0
   -4.6193    5.0605   -0.0503 F   0  0  0  0  0  0  0  0  0  0  0  0
   -6.8528    3.7409   -0.6970 F   0  0  0  0  0  0  0  0  0  0  0  0
   -5.7182    2.9261    1.1227 F   0  0  0  0  0  0  0  0  0  0  0  0
  1  8  1  0  0  0  0
  1  2  1  0  0  0  0
  2  3  1  0  0  0  0
  4  1  2  0  0  0  0
  5  6  2  0  0  0  0
  5  4  1  0  0  0  0
  6  7  1  0  0  0  0
  7 12  1  0  0  0  0
  7  8  2  0  0  0  0
  8 13  1  0  0  0  0
  9 16  1  0  0  0  0
 10  5  1  0  0  0  0
 11  6  1  0  0  0  0
 14 18  1  0  0  0  0
 15 14  1  0  0  0  0
 17 14  1  0  0  0  0
M  RAD  3   2   2   3   3   4   2
M  END
