Coordinates from ORCA-job PhN2+~BF4-_B3LYPG-6-31G_dp-CH-Scan-d09-49-n800
 OpenBabel11261919213D

 18 16  0  0  0  0  0  0  0  0999 V2000
   -1.4394    0.2769    0.1174 C   0  0  0  0  0  0  0  0  0  0  0  0
   -2.8189    0.2676    0.3154 N   0  0  0  0  0  0  0  0  0  0  0  0
   -3.9275    0.3340    0.4560 N   0  0  0  0  0  0  0  0  0  0  0  0
   -0.9659    1.5471   -0.2464 C   0  0  0  0  0  0  0  0  0  0  0  0
    0.4457    1.4795   -0.4336 C   0  0  0  0  0  0  0  0  0  0  0  0
    1.1965    0.3194   -0.2742 C   0  0  0  0  0  0  0  0  0  0  0  0
    0.5981   -0.9111    0.0989 C   0  0  0  0  0  0  0  0  0  0  0  0
   -0.7615   -0.9587    0.3076 C   0  0  0  0  0  0  0  0  0  0  0  0
   -3.7720    4.7056   -0.5265 H   0  0  0  0  0  0  0  0  0  0  0  0
    0.9803    2.3862   -0.7213 H   0  0  0  0  0  0  0  0  0  0  0  0
    2.2730    0.3413   -0.4380 H   0  0  0  0  0  0  0  0  0  0  0  0
    1.2048   -1.8030    0.2189 H   0  0  0  0  0  0  0  0  0  0  0  0
   -1.2767   -1.8711    0.5962 H   0  0  0  0  0  0  0  0  0  0  0  0
   -5.7393    3.2085   -0.1477 B   0  0  0  0  0  0  0  0  0  0  0  0
   -4.8575    2.6688   -0.9924 F   0  0  0  0  0  0  0  0  0  0  0  0
   -4.5224    5.0125   -0.0687 F   0  0  0  0  0  0  0  0  0  0  0  0
   -6.8243    3.7894   -0.6268 F   0  0  0  0  0  0  0  0  0  0  0  0
   -5.6471    2.9202    1.1402 F   0  0  0  0  0  0  0  0  0  0  0  0
  1  8  1  0  0  0  0
  1  2  1  0  0  0  0
  2  3  1  0  0  0  0
  4  1  2  0  0  0  0
  5  6  2  0  0  0  0
  5  4  1  0  0  0  0
  6  7  1  0  0  0  0
  7 12  1  0  0  0  0
  7  8  2  0  0  0  0
  8 13  1  0  0  0  0
  9 16  1  0  0  0  0
 10  5  1  0  0  0  0
 11  6  1  0  0  0  0
 14 18  1  0  0  0  0
 15 14  1  0  0  0  0
 17 14  1  0  0  0  0
M  RAD  3   2   2   3   3   4   2
M  END
