Coordinates from ORCA-job PhN2+~BF4-_B3LYPG-6-31G_dp-CH-Scan-d09-49-n800
 OpenBabel11261919213D

 18 16  0  0  0  0  0  0  0  0999 V2000
   -1.8298    0.3815    0.0675 C   0  0  0  0  0  0  0  0  0  0  0  0
   -3.1907    0.1517    0.2074 N   0  0  0  0  0  0  0  0  0  0  0  0
   -4.2909   -0.0024    0.3119 N   0  0  0  0  0  0  0  0  0  0  0  0
   -1.4702    1.7064   -0.2438 C   0  0  0  0  0  0  0  0  0  0  0  0
   -0.0669    1.8339   -0.3675 C   0  0  0  0  0  0  0  0  0  0  0  0
    0.8178    0.7712   -0.1983 C   0  0  0  0  0  0  0  0  0  0  0  0
    0.3606   -0.5279    0.1147 C   0  0  0  0  0  0  0  0  0  0  0  0
   -0.9924   -0.7494    0.2553 C   0  0  0  0  0  0  0  0  0  0  0  0
   -2.7960    3.2180   -0.4517 H   0  0  0  0  0  0  0  0  0  0  0  0
    0.3500    2.8099   -0.6084 H   0  0  0  0  0  0  0  0  0  0  0  0
    1.8876    0.9358   -0.3084 H   0  0  0  0  0  0  0  0  0  0  0  0
    1.0639   -1.3437    0.2437 H   0  0  0  0  0  0  0  0  0  0  0  0
   -1.3975   -1.7275    0.4962 H   0  0  0  0  0  0  0  0  0  0  0  0
   -5.0480    3.1758   -0.0992 B   0  0  0  0  0  0  0  0  0  0  0  0
   -5.1665    2.2559   -1.0860 F   0  0  0  0  0  0  0  0  0  0  0  0
   -3.5010    3.9015   -0.5282 F   0  0  0  0  0  0  0  0  0  0  0  0
   -5.8402    4.2521   -0.1502 F   0  0  0  0  0  0  0  0  0  0  0  0
   -4.7439    2.6706    1.1201 F   0  0  0  0  0  0  0  0  0  0  0  0
  1  2  1  0  0  0  0
  1  8  2  0  0  0  0
  2  3  1  0  0  0  0
  4  1  1  0  0  0  0
  5  4  2  0  0  0  0
  5  6  1  0  0  0  0
  6  7  2  0  0  0  0
  7 12  1  0  0  0  0
  7  8  1  0  0  0  0
  8 13  1  0  0  0  0
 10  5  1  0  0  0  0
 11  6  1  0  0  0  0
 14 18  1  0  0  0  0
 15 14  1  0  0  0  0
 16  9  1  0  0  0  0
 17 14  1  0  0  0  0
M  RAD  3   2   2   3   3   4   2
M  END
