Coordinates from ORCA-job PhN2+~BF4-_B3LYPG-6-31G_dp-CH-Scan-d09-49-n800
 OpenBabel11261919213D

 18 16  0  0  0  0  0  0  0  0999 V2000
   -1.6057    0.3136    0.1032 C   0  0  0  0  0  0  0  0  0  0  0  0
   -2.9813    0.1948    0.2666 N   0  0  0  0  0  0  0  0  0  0  0  0
   -4.0923    0.1540    0.3881 N   0  0  0  0  0  0  0  0  0  0  0  0
   -1.1935    1.6225   -0.2022 C   0  0  0  0  0  0  0  0  0  0  0  0
    0.2203    1.6516   -0.3549 C   0  0  0  0  0  0  0  0  0  0  0  0
    1.0386    0.5346   -0.2166 C   0  0  0  0  0  0  0  0  0  0  0  0
    0.5091   -0.7416    0.0954 C   0  0  0  0  0  0  0  0  0  0  0  0
   -0.8500   -0.8802    0.2650 C   0  0  0  0  0  0  0  0  0  0  0  0
   -3.1744    4.0090   -0.4678 H   0  0  0  0  0  0  0  0  0  0  0  0
    0.7016    2.5996   -0.5962 H   0  0  0  0  0  0  0  0  0  0  0  0
    2.1150    0.6302   -0.3502 H   0  0  0  0  0  0  0  0  0  0  0  0
    1.1656   -1.5993    0.1997 H   0  0  0  0  0  0  0  0  0  0  0  0
   -1.3130   -1.8331    0.5061 H   0  0  0  0  0  0  0  0  0  0  0  0
   -5.5472    3.1982   -0.1145 B   0  0  0  0  0  0  0  0  0  0  0  0
   -5.2606    2.3991   -1.1412 F   0  0  0  0  0  0  0  0  0  0  0  0
   -3.9613    4.5130   -0.4639 F   0  0  0  0  0  0  0  0  0  0  0  0
   -6.4911    4.1164   -0.2384 F   0  0  0  0  0  0  0  0  0  0  0  0
   -5.1338    2.8310    1.0969 F   0  0  0  0  0  0  0  0  0  0  0  0
  1  8  1  0  0  0  0
  1  2  1  0  0  0  0
  2  3  1  0  0  0  0
  4  1  2  0  0  0  0
  5  6  2  0  0  0  0
  5  4  1  0  0  0  0
  6  7  1  0  0  0  0
  7 12  1  0  0  0  0
  7  8  2  0  0  0  0
  8 13  1  0  0  0  0
  9 16  1  0  0  0  0
 10  5  1  0  0  0  0
 11  6  1  0  0  0  0
 14 18  1  0  0  0  0
 15 14  1  0  0  0  0
 17 14  1  0  0  0  0
M  RAD  3   2   2   3   3   4   2
M  END
