Coordinates from ORCA-job PhN2+~BF4-_B3LYPG-6-31G_dp-CH-Scan-d09-49-n800
 OpenBabel11261919213D

 18 17  0  0  0  0  0  0  0  0999 V2000
   -1.9857    0.4750   -0.0768 C   0  0  0  0  0  0  0  0  0  0  0  0
   -3.3466    0.2168   -0.1030 N   0  0  0  0  0  0  0  0  0  0  0  0
   -4.4356   -0.0081   -0.1635 N   0  0  0  0  0  0  0  0  0  0  0  0
   -1.5362    1.7508   -0.4515 C   0  0  0  0  0  0  0  0  0  0  0  0
   -0.1556    1.9374   -0.4433 C   0  0  0  0  0  0  0  0  0  0  0  0
    0.7086    0.9036   -0.0723 C   0  0  0  0  0  0  0  0  0  0  0  0
    0.2179   -0.3580    0.2989 C   0  0  0  0  0  0  0  0  0  0  0  0
   -1.1472   -0.5935    0.2987 C   0  0  0  0  0  0  0  0  0  0  0  0
   -2.3965    2.6735   -0.7460 H   0  0  0  0  0  0  0  0  0  0  0  0
    0.2471    2.9051   -0.7231 H   0  0  0  0  0  0  0  0  0  0  0  0
    1.7808    1.0774   -0.0682 H   0  0  0  0  0  0  0  0  0  0  0  0
    0.9007   -1.1503    0.5858 H   0  0  0  0  0  0  0  0  0  0  0  0
   -1.5636   -1.5550    0.5783 H   0  0  0  0  0  0  0  0  0  0  0  0
   -4.6635    3.1084   -0.0067 B   0  0  0  0  0  0  0  0  0  0  0  0
   -5.4079    2.1205   -0.6905 F   0  0  0  0  0  0  0  0  0  0  0  0
   -3.6732    3.6160   -0.9315 F   0  0  0  0  0  0  0  0  0  0  0  0
   -5.4496    4.1253    0.4552 F   0  0  0  0  0  0  0  0  0  0  0  0
   -3.9479    2.4683    1.0347 F   0  0  0  0  0  0  0  0  0  0  0  0
  1  8  2  0  0  0  0
  2  1  1  0  0  0  0
  3  2  1  0  0  0  0
  4  5  2  0  0  0  0
  4  1  1  0  0  0  0
  5  6  1  0  0  0  0
  6 11  1  0  0  0  0
  6  7  2  0  0  0  0
  7 12  1  0  0  0  0
  8  7  1  0  0  0  0
  8 13  1  0  0  0  0
  9  4  1  0  0  0  0
 10  5  1  0  0  0  0
 14 17  1  0  0  0  0
 14 18  1  0  0  0  0
 15 14  1  0  0  0  0
 16 14  1  0  0  0  0
M  RAD  2   2   2   3   3
M  END
