Coordinates from ORCA-job PhN2+~BF4-_B3LYPG-6-31G_dp-CH-Scan-d09-49-n800
 OpenBabel11261919213D

 18 16  0  0  0  0  0  0  0  0999 V2000
   -1.7170    0.3513    0.1013 C   0  0  0  0  0  0  0  0  0  0  0  0
   -3.0842    0.1784    0.2690 N   0  0  0  0  0  0  0  0  0  0  0  0
   -4.1894    0.0766    0.3972 N   0  0  0  0  0  0  0  0  0  0  0  0
   -1.3334    1.6713   -0.1990 C   0  0  0  0  0  0  0  0  0  0  0  0
    0.0749    1.7485   -0.3531 C   0  0  0  0  0  0  0  0  0  0  0  0
    0.9266    0.6551   -0.2204 C   0  0  0  0  0  0  0  0  0  0  0  0
    0.4347   -0.6358    0.0851 C   0  0  0  0  0  0  0  0  0  0  0  0
   -0.9200   -0.8155    0.2549 C   0  0  0  0  0  0  0  0  0  0  0  0
   -2.9670    3.5931   -0.4210 H   0  0  0  0  0  0  0  0  0  0  0  0
    0.5239    2.7122   -0.5901 H   0  0  0  0  0  0  0  0  0  0  0  0
    1.9990    0.7843   -0.3540 H   0  0  0  0  0  0  0  0  0  0  0  0
    1.1151   -1.4749    0.1849 H   0  0  0  0  0  0  0  0  0  0  0  0
   -1.3529   -1.7831    0.4915 H   0  0  0  0  0  0  0  0  0  0  0  0
   -5.3163    3.1895   -0.1246 B   0  0  0  0  0  0  0  0  0  0  0  0
   -5.1879    2.3110   -1.1288 F   0  0  0  0  0  0  0  0  0  0  0  0
   -3.6986    4.1931   -0.4676 F   0  0  0  0  0  0  0  0  0  0  0  0
   -6.1683    4.2002   -0.2527 F   0  0  0  0  0  0  0  0  0  0  0  0
   -4.9932    2.7580    1.1023 F   0  0  0  0  0  0  0  0  0  0  0  0
  1  8  1  0  0  0  0
  1  2  1  0  0  0  0
  2  3  1  0  0  0  0
  4  1  2  0  0  0  0
  5  6  2  0  0  0  0
  5  4  1  0  0  0  0
  6  7  1  0  0  0  0
  7 12  1  0  0  0  0
  7  8  2  0  0  0  0
  8 13  1  0  0  0  0
 10  5  1  0  0  0  0
 11  6  1  0  0  0  0
 14 18  1  0  0  0  0
 15 14  1  0  0  0  0
 16  9  1  0  0  0  0
 17 14  1  0  0  0  0
M  RAD  3   2   2   3   3   4   2
M  END
