Coordinates from ORCA-job PhN2+~BF4-_B3LYPG-6-31G_dp-CH-Scan-d09-49-n800
 OpenBabel11261919213D

 18 16  0  0  0  0  0  0  0  0999 V2000
   -1.4685    0.2714    0.1105 C   0  0  0  0  0  0  0  0  0  0  0  0
   -2.8480    0.2385    0.3033 N   0  0  0  0  0  0  0  0  0  0  0  0
   -3.9579    0.2828    0.4414 N   0  0  0  0  0  0  0  0  0  0  0  0
   -1.0130    1.5486   -0.2529 C   0  0  0  0  0  0  0  0  0  0  0  0
    0.4004    1.5031   -0.4328 C   0  0  0  0  0  0  0  0  0  0  0  0
    1.1690    0.3554   -0.2675 C   0  0  0  0  0  0  0  0  0  0  0  0
    0.5884   -0.8838    0.1043 C   0  0  0  0  0  0  0  0  0  0  0  0
   -0.7713   -0.9527    0.3058 C   0  0  0  0  0  0  0  0  0  0  0  0
   -3.6787    4.6298   -0.5342 H   0  0  0  0  0  0  0  0  0  0  0  0
    0.9219    2.4177   -0.7191 H   0  0  0  0  0  0  0  0  0  0  0  0
    2.2459    0.3945   -0.4253 H   0  0  0  0  0  0  0  0  0  0  0  0
    1.2084   -1.7658    0.2288 H   0  0  0  0  0  0  0  0  0  0  0  0
   -1.2733   -1.8728    0.5931 H   0  0  0  0  0  0  0  0  0  0  0  0
   -5.7061    3.2085   -0.1399 B   0  0  0  0  0  0  0  0  0  0  0  0
   -4.8689    2.6265   -1.0013 F   0  0  0  0  0  0  0  0  0  0  0  0
   -4.4270    4.9607   -0.0897 F   0  0  0  0  0  0  0  0  0  0  0  0
   -6.7775    3.8316   -0.5965 F   0  0  0  0  0  0  0  0  0  0  0  0
   -5.5977    2.9193    1.1470 F   0  0  0  0  0  0  0  0  0  0  0  0
  1  2  1  0  0  0  0
  1  8  1  0  0  0  0
  2  3  1  0  0  0  0
  4  1  2  0  0  0  0
  5  6  2  0  0  0  0
  5  4  1  0  0  0  0
  6  7  1  0  0  0  0
  7 12  1  0  0  0  0
  7  8  2  0  0  0  0
  8 13  1  0  0  0  0
  9 16  1  0  0  0  0
 10  5  1  0  0  0  0
 11  6  1  0  0  0  0
 14 18  1  0  0  0  0
 15 14  1  0  0  0  0
 17 14  1  0  0  0  0
M  RAD  3   2   2   3   3   4   2
M  END
