Coordinates from ORCA-job PhN2+~BF4-_B3LYPG-6-31G_dp-CH-Scan-d09-49-n800
 OpenBabel11261919213D

 18 16  0  0  0  0  0  0  0  0999 V2000
   -1.5051    0.2710    0.1173 C   0  0  0  0  0  0  0  0  0  0  0  0
   -2.8824    0.2134    0.3170 N   0  0  0  0  0  0  0  0  0  0  0  0
   -3.9920    0.2362    0.4612 N   0  0  0  0  0  0  0  0  0  0  0  0
   -1.0705    1.5570   -0.2423 C   0  0  0  0  0  0  0  0  0  0  0  0
    0.3423    1.5345   -0.4284 C   0  0  0  0  0  0  0  0  0  0  0  0
    1.1298    0.3984   -0.2717 C   0  0  0  0  0  0  0  0  0  0  0  0
    0.5705   -0.8513    0.0968 C   0  0  0  0  0  0  0  0  0  0  0  0
   -0.7871   -0.9424    0.3037 C   0  0  0  0  0  0  0  0  0  0  0  0
   -3.5639    4.5289   -0.5123 H   0  0  0  0  0  0  0  0  0  0  0  0
    0.8481    2.4583   -0.7129 H   0  0  0  0  0  0  0  0  0  0  0  0
    2.2052    0.4554   -0.4339 H   0  0  0  0  0  0  0  0  0  0  0  0
    1.2046   -1.7241    0.2148 H   0  0  0  0  0  0  0  0  0  0  0  0
   -1.2732   -1.8716    0.5890 H   0  0  0  0  0  0  0  0  0  0  0  0
   -5.6557    3.2000   -0.1465 B   0  0  0  0  0  0  0  0  0  0  0  0
   -4.8438    2.5744   -1.0014 F   0  0  0  0  0  0  0  0  0  0  0  0
   -4.3182    4.8990   -0.1105 F   0  0  0  0  0  0  0  0  0  0  0  0
   -6.7043    3.8571   -0.6087 F   0  0  0  0  0  0  0  0  0  0  0  0
   -5.5581    2.9192    1.1437 F   0  0  0  0  0  0  0  0  0  0  0  0
  1  8  1  0  0  0  0
  1  2  1  0  0  0  0
  2  3  1  0  0  0  0
  4  1  2  0  0  0  0
  5  6  2  0  0  0  0
  5  4  1  0  0  0  0
  6  7  1  0  0  0  0
  7 12  1  0  0  0  0
  7  8  2  0  0  0  0
  8 13  1  0  0  0  0
  9 16  1  0  0  0  0
 10  5  1  0  0  0  0
 11  6  1  0  0  0  0
 14 18  1  0  0  0  0
 15 14  1  0  0  0  0
 17 14  1  0  0  0  0
M  RAD  3   2   2   3   3   4   2
M  END
