Coordinates from ORCA-job PhN2+~BF4-_B3LYPG-6-31G_dp-CH-Scan-d09-49-n800
 OpenBabel11261919213D

 18 16  0  0  0  0  0  0  0  0999 V2000
   -1.5826    0.3073    0.1067 C   0  0  0  0  0  0  0  0  0  0  0  0
   -2.9595    0.2015    0.2727 N   0  0  0  0  0  0  0  0  0  0  0  0
   -4.0708    0.1747    0.3964 N   0  0  0  0  0  0  0  0  0  0  0  0
   -1.1630    1.6139   -0.1972 C   0  0  0  0  0  0  0  0  0  0  0  0
    0.2514    1.6316   -0.3525 C   0  0  0  0  0  0  0  0  0  0  0  0
    1.0614    0.5082   -0.2179 C   0  0  0  0  0  0  0  0  0  0  0  0
    0.5228   -0.7649    0.0930 C   0  0  0  0  0  0  0  0  0  0  0  0
   -0.8369   -0.8933    0.2651 C   0  0  0  0  0  0  0  0  0  0  0  0
   -3.2276    4.0990   -0.4758 H   0  0  0  0  0  0  0  0  0  0  0  0
    0.7401    2.5763   -0.5930 H   0  0  0  0  0  0  0  0  0  0  0  0
    2.1382    0.5956   -0.3535 H   0  0  0  0  0  0  0  0  0  0  0  0
    1.1731   -1.6276    0.1941 H   0  0  0  0  0  0  0  0  0  0  0  0
   -1.3069   -1.8430    0.5055 H   0  0  0  0  0  0  0  0  0  0  0  0
   -5.5859    3.1995   -0.1162 B   0  0  0  0  0  0  0  0  0  0  0  0
   -5.2586    2.4152   -1.1412 F   0  0  0  0  0  0  0  0  0  0  0  0
   -4.0275    4.5794   -0.4595 F   0  0  0  0  0  0  0  0  0  0  0  0
   -6.5556    4.0882   -0.2495 F   0  0  0  0  0  0  0  0  0  0  0  0
   -5.1660    2.8516    1.0975 F   0  0  0  0  0  0  0  0  0  0  0  0
  1  8  1  0  0  0  0
  1  2  1  0  0  0  0
  2  3  1  0  0  0  0
  4  1  2  0  0  0  0
  5  6  2  0  0  0  0
  5  4  1  0  0  0  0
  6  7  1  0  0  0  0
  7 12  1  0  0  0  0
  7  8  2  0  0  0  0
  8 13  1  0  0  0  0
  9 16  1  0  0  0  0
 10  5  1  0  0  0  0
 11  6  1  0  0  0  0
 14 18  1  0  0  0  0
 15 14  1  0  0  0  0
 17 14  1  0  0  0  0
M  RAD  3   2   2   3   3   4   2
M  END
