Coordinates from ORCA-job PhN2+~BF4-_B3LYPG-6-31G_dp-CH-Scan-d09-49-n800
 OpenBabel11261919213D

 18 16  0  0  0  0  0  0  0  0999 V2000
   -1.8722    0.4047    0.0950 C   0  0  0  0  0  0  0  0  0  0  0  0
   -3.2278    0.1631    0.2618 N   0  0  0  0  0  0  0  0  0  0  0  0
   -4.3230   -0.0035    0.3891 N   0  0  0  0  0  0  0  0  0  0  0  0
   -1.5149    1.7320   -0.2082 C   0  0  0  0  0  0  0  0  0  0  0  0
   -0.1182    1.8690   -0.3621 C   0  0  0  0  0  0  0  0  0  0  0  0
    0.7730    0.8064   -0.2252 C   0  0  0  0  0  0  0  0  0  0  0  0
    0.3249   -0.4957    0.0827 C   0  0  0  0  0  0  0  0  0  0  0  0
   -1.0248   -0.7222    0.2503 C   0  0  0  0  0  0  0  0  0  0  0  0
   -2.7151    3.0991   -0.3678 H   0  0  0  0  0  0  0  0  0  0  0  0
    0.2871    2.8498   -0.6008 H   0  0  0  0  0  0  0  0  0  0  0  0
    1.8392    0.9754   -0.3577 H   0  0  0  0  0  0  0  0  0  0  0  0
    1.0318   -1.3119    0.1871 H   0  0  0  0  0  0  0  0  0  0  0  0
   -1.4215   -1.7041    0.4886 H   0  0  0  0  0  0  0  0  0  0  0  0
   -4.9349    3.1562   -0.1437 B   0  0  0  0  0  0  0  0  0  0  0  0
   -5.0196    2.2114   -1.1237 F   0  0  0  0  0  0  0  0  0  0  0  0
   -3.4286    3.8279   -0.4438 F   0  0  0  0  0  0  0  0  0  0  0  0
   -5.7479    4.2198   -0.2521 F   0  0  0  0  0  0  0  0  0  0  0  0
   -4.7614    2.6357    1.1054 F   0  0  0  0  0  0  0  0  0  0  0  0
  1  8  1  0  0  0  0
  1  2  1  0  0  0  0
  2  3  1  0  0  0  0
  4  1  2  0  0  0  0
  5  6  2  0  0  0  0
  5  4  1  0  0  0  0
  6  7  1  0  0  0  0
  7 12  1  0  0  0  0
  7  8  2  0  0  0  0
  8 13  1  0  0  0  0
 10  5  1  0  0  0  0
 11  6  1  0  0  0  0
 14 18  1  0  0  0  0
 15 14  1  0  0  0  0
 16  9  1  0  0  0  0
 17 14  1  0  0  0  0
M  RAD  3   2   2   3   3   4   2
M  END
