Coordinates from ORCA-job PhN2+~BF4-_B3LYPG-6-31G_dp-CH-Scan-d09-49-n800
 OpenBabel11261919213D

 18 16  0  0  0  0  0  0  0  0999 V2000
   -1.9410    0.4264    0.0134 C   0  0  0  0  0  0  0  0  0  0  0  0
   -3.2986    0.1593    0.0988 N   0  0  0  0  0  0  0  0  0  0  0  0
   -4.3933   -0.0389    0.1503 N   0  0  0  0  0  0  0  0  0  0  0  0
   -1.5662    1.7391   -0.3246 C   0  0  0  0  0  0  0  0  0  0  0  0
   -0.1738    1.9097   -0.4009 C   0  0  0  0  0  0  0  0  0  0  0  0
    0.7237    0.8696   -0.1598 C   0  0  0  0  0  0  0  0  0  0  0  0
    0.2755   -0.4223    0.1767 C   0  0  0  0  0  0  0  0  0  0  0  0
   -1.0802   -0.6678    0.2693 C   0  0  0  0  0  0  0  0  0  0  0  0
   -2.6071    2.8755   -0.5380 H   0  0  0  0  0  0  0  0  0  0  0  0
    0.2192    2.8903   -0.6555 H   0  0  0  0  0  0  0  0  0  0  0  0
    1.7928    1.0536   -0.2307 H   0  0  0  0  0  0  0  0  0  0  0  0
    0.9855   -1.2209    0.3628 H   0  0  0  0  0  0  0  0  0  0  0  0
   -1.4729   -1.6464    0.5257 H   0  0  0  0  0  0  0  0  0  0  0  0
   -4.7628    3.1401   -0.0643 B   0  0  0  0  0  0  0  0  0  0  0  0
   -5.1684    2.1868   -0.9796 F   0  0  0  0  0  0  0  0  0  0  0  0
   -3.4226    3.6902   -0.6501 F   0  0  0  0  0  0  0  0  0  0  0  0
   -5.5810    4.2116    0.0501 F   0  0  0  0  0  0  0  0  0  0  0  0
   -4.3827    2.5575    1.1313 F   0  0  0  0  0  0  0  0  0  0  0  0
  1  2  1  0  0  0  0
  1  8  2  0  0  0  0
  2  3  1  0  0  0  0
  4  1  1  0  0  0  0
  5  4  2  0  0  0  0
  5  6  1  0  0  0  0
  6  7  2  0  0  0  0
  7  8  1  0  0  0  0
  7 12  1  0  0  0  0
  8 13  1  0  0  0  0
 10  5  1  0  0  0  0
 11  6  1  0  0  0  0
 14 17  1  0  0  0  0
 14 18  1  0  0  0  0
 15 14  1  0  0  0  0
 16  9  1  0  0  0  0
M  RAD  3   2   2   3   3   4   2
M  END
