Coordinates from ORCA-job PhN2+~BF4-_B3LYPG-6-31G_dp-CH-Scan-d09-49-n800
 OpenBabel11261919213D

 18 16  0  0  0  0  0  0  0  0999 V2000
   -1.9050    0.4212    0.0943 C   0  0  0  0  0  0  0  0  0  0  0  0
   -3.2589    0.1715    0.2620 N   0  0  0  0  0  0  0  0  0  0  0  0
   -4.3517   -0.0043    0.3899 N   0  0  0  0  0  0  0  0  0  0  0  0
   -1.5433    1.7468   -0.2094 C   0  0  0  0  0  0  0  0  0  0  0  0
   -0.1505    1.8934   -0.3640 C   0  0  0  0  0  0  0  0  0  0  0  0
    0.7440    0.8330   -0.2264 C   0  0  0  0  0  0  0  0  0  0  0  0
    0.2988   -0.4686    0.0815 C   0  0  0  0  0  0  0  0  0  0  0  0
   -1.0511   -0.6992    0.2490 C   0  0  0  0  0  0  0  0  0  0  0  0
   -2.6512    3.0022   -0.3590 H   0  0  0  0  0  0  0  0  0  0  0  0
    0.2474    2.8768   -0.6025 H   0  0  0  0  0  0  0  0  0  0  0  0
    1.8094    1.0055   -0.3587 H   0  0  0  0  0  0  0  0  0  0  0  0
    1.0071   -1.2834    0.1863 H   0  0  0  0  0  0  0  0  0  0  0  0
   -1.4440   -1.6825    0.4874 H   0  0  0  0  0  0  0  0  0  0  0  0
   -4.8519    3.1427   -0.1487 B   0  0  0  0  0  0  0  0  0  0  0  0
   -4.9685    2.1786   -1.1190 F   0  0  0  0  0  0  0  0  0  0  0  0
   -3.3919    3.7756   -0.4419 F   0  0  0  0  0  0  0  0  0  0  0  0
   -5.6878    4.1948   -0.2534 F   0  0  0  0  0  0  0  0  0  0  0  0
   -4.7047    2.6090    1.1076 F   0  0  0  0  0  0  0  0  0  0  0  0
  1  8  1  0  0  0  0
  1  2  1  0  0  0  0
  2  3  1  0  0  0  0
  4  1  2  0  0  0  0
  5  6  2  0  0  0  0
  5  4  1  0  0  0  0
  6  7  1  0  0  0  0
  7 12  1  0  0  0  0
  7  8  2  0  0  0  0
  8 13  1  0  0  0  0
 10  5  1  0  0  0  0
 11  6  1  0  0  0  0
 14 18  1  0  0  0  0
 15 14  1  0  0  0  0
 16  9  1  0  0  0  0
 17 14  1  0  0  0  0
M  RAD  3   2   2   3   3   4   2
M  END
