Coordinates from ORCA-job PhN2+~BF4-_B3LYPG-6-31G_dp-CH-Scan-d09-49-n800
 OpenBabel11261919213D

 18 16  0  0  0  0  0  0  0  0999 V2000
   -1.8356    0.3838    0.0681 C   0  0  0  0  0  0  0  0  0  0  0  0
   -3.1959    0.1517    0.2088 N   0  0  0  0  0  0  0  0  0  0  0  0
   -4.2956   -0.0047    0.3140 N   0  0  0  0  0  0  0  0  0  0  0  0
   -1.4766    1.7089   -0.2431 C   0  0  0  0  0  0  0  0  0  0  0  0
   -0.0738    1.8383   -0.3678 C   0  0  0  0  0  0  0  0  0  0  0  0
    0.8121    0.7764   -0.1993 C   0  0  0  0  0  0  0  0  0  0  0  0
    0.3562   -0.5230    0.1137 C   0  0  0  0  0  0  0  0  0  0  0  0
   -0.9965   -0.7458    0.2551 C   0  0  0  0  0  0  0  0  0  0  0  0
   -2.7868    3.2013   -0.4472 H   0  0  0  0  0  0  0  0  0  0  0  0
    0.3415    2.8149   -0.6087 H   0  0  0  0  0  0  0  0  0  0  0  0
    1.8816    0.9422   -0.3101 H   0  0  0  0  0  0  0  0  0  0  0  0
    1.0603   -1.3382    0.2421 H   0  0  0  0  0  0  0  0  0  0  0  0
   -1.4004   -1.7244    0.4960 H   0  0  0  0  0  0  0  0  0  0  0  0
   -5.0330    3.1741   -0.1015 B   0  0  0  0  0  0  0  0  0  0  0  0
   -5.1559    2.2515   -1.0869 F   0  0  0  0  0  0  0  0  0  0  0  0
   -3.4920    3.8897   -0.5243 F   0  0  0  0  0  0  0  0  0  0  0  0
   -5.8259    4.2506   -0.1540 F   0  0  0  0  0  0  0  0  0  0  0  0
   -4.7377    2.6661    1.1201 F   0  0  0  0  0  0  0  0  0  0  0  0
  1  2  1  0  0  0  0
  1  8  2  0  0  0  0
  2  3  1  0  0  0  0
  4  1  1  0  0  0  0
  5  4  2  0  0  0  0
  5  6  1  0  0  0  0
  6  7  2  0  0  0  0
  7 12  1  0  0  0  0
  7  8  1  0  0  0  0
  8 13  1  0  0  0  0
 10  5  1  0  0  0  0
 11  6  1  0  0  0  0
 14 18  1  0  0  0  0
 15 14  1  0  0  0  0
 16  9  1  0  0  0  0
 17 14  1  0  0  0  0
M  RAD  3   2   2   3   3   4   2
M  END
