Coordinates from ORCA-job PhN2+~BF4-_B3LYPG-6-31G_dp-CH-Scan-d09-49-n800
 OpenBabel11261919213D

 18 16  0  0  0  0  0  0  0  0999 V2000
   -1.7711    0.3698    0.1032 C   0  0  0  0  0  0  0  0  0  0  0  0
   -3.1339    0.1714    0.2735 N   0  0  0  0  0  0  0  0  0  0  0  0
   -4.2355    0.0437    0.4034 N   0  0  0  0  0  0  0  0  0  0  0  0
   -1.3999    1.6934   -0.1986 C   0  0  0  0  0  0  0  0  0  0  0  0
    0.0046    1.7918   -0.3570 C   0  0  0  0  0  0  0  0  0  0  0  0
    0.8714    0.7096   -0.2265 C   0  0  0  0  0  0  0  0  0  0  0  0
    0.3970   -0.5862    0.0809 C   0  0  0  0  0  0  0  0  0  0  0  0
   -0.9553   -0.7834    0.2543 C   0  0  0  0  0  0  0  0  0  0  0  0
   -2.8776    3.4144   -0.3937 H   0  0  0  0  0  0  0  0  0  0  0  0
    0.4377    2.7618   -0.5957 H   0  0  0  0  0  0  0  0  0  0  0  0
    1.9412    0.8536   -0.3636 H   0  0  0  0  0  0  0  0  0  0  0  0
    1.0879   -1.4169    0.1793 H   0  0  0  0  0  0  0  0  0  0  0  0
   -1.3741   -1.7566    0.4924 H   0  0  0  0  0  0  0  0  0  0  0  0
   -5.1895    3.1799   -0.1341 B   0  0  0  0  0  0  0  0  0  0  0  0
   -5.1245    2.2754   -1.1293 F   0  0  0  0  0  0  0  0  0  0  0  0
   -3.5900    4.0562   -0.4497 F   0  0  0  0  0  0  0  0  0  0  0  0
   -6.0144    4.2173   -0.2670 F   0  0  0  0  0  0  0  0  0  0  0  0
   -4.9279    2.7180    1.1030 F   0  0  0  0  0  0  0  0  0  0  0  0
  1  8  1  0  0  0  0
  1  2  1  0  0  0  0
  2  3  1  0  0  0  0
  4  1  2  0  0  0  0
  5  6  2  0  0  0  0
  5  4  1  0  0  0  0
  6  7  1  0  0  0  0
  7 12  1  0  0  0  0
  7  8  2  0  0  0  0
  8 13  1  0  0  0  0
 10  5  1  0  0  0  0
 11  6  1  0  0  0  0
 14 18  1  0  0  0  0
 15 14  1  0  0  0  0
 16  9  1  0  0  0  0
 17 14  1  0  0  0  0
M  RAD  3   2   2   3   3   4   2
M  END
