Coordinates from ORCA-job PhN2+~BF4-_B3LYPG-6-31G_dp-CH-Scan-d09-49-n800
 OpenBabel11261919213D

 18 17  0  0  0  0  0  0  0  0999 V2000
   -2.1438    0.4844   -0.2200 C   0  0  0  0  0  0  0  0  0  0  0  0
   -3.4867    0.1483   -0.2704 N   0  0  0  0  0  0  0  0  0  0  0  0
   -4.5230   -0.2477   -0.3142 N   0  0  0  0  0  0  0  0  0  0  0  0
   -1.7016    1.6660   -0.8329 C   0  0  0  0  0  0  0  0  0  0  0  0
   -0.3329    1.9131   -0.7798 C   0  0  0  0  0  0  0  0  0  0  0  0
    0.5340    1.0265   -0.1381 C   0  0  0  0  0  0  0  0  0  0  0  0
    0.0536   -0.1422    0.4698 C   0  0  0  0  0  0  0  0  0  0  0  0
   -1.3012   -0.4326    0.4355 C   0  0  0  0  0  0  0  0  0  0  0  0
   -2.3095    2.2475   -1.2295 H   0  0  0  0  0  0  0  0  0  0  0  0
    0.0484    2.8225   -1.2310 H   0  0  0  0  0  0  0  0  0  0  0  0
    1.5965    1.2468   -0.1021 H   0  0  0  0  0  0  0  0  0  0  0  0
    0.7346   -0.8213    0.9708 H   0  0  0  0  0  0  0  0  0  0  0  0
   -1.7084   -1.3235    0.8994 H   0  0  0  0  0  0  0  0  0  0  0  0
   -4.2836    3.0627    0.2419 B   0  0  0  0  0  0  0  0  0  0  0  0
   -4.4203    2.3725   -1.0189 F   0  0  0  0  0  0  0  0  0  0  0  0
   -3.1148    3.8355    0.1667 F   0  0  0  0  0  0  0  0  0  0  0  0
   -5.4014    3.8104    0.5063 F   0  0  0  0  0  0  0  0  0  0  0  0
   -4.0937    2.0443    1.2215 F   0  0  0  0  0  0  0  0  0  0  0  0
  1  8  2  0  0  0  0
  2  1  1  0  0  0  0
  3  2  1  0  0  0  0
  4  5  2  0  0  0  0
  4  1  1  0  0  0  0
  5  6  1  0  0  0  0
  6 11  1  0  0  0  0
  6  7  2  0  0  0  0
  7 12  1  0  0  0  0
  8  7  1  0  0  0  0
  8 13  1  0  0  0  0
  9  4  1  0  0  0  0
 10  5  1  0  0  0  0
 14 17  1  0  0  0  0
 14 18  1  0  0  0  0
 15 14  1  0  0  0  0
 16 14  1  0  0  0  0
M  RAD  2   2   2   3   3
M  END
