Coordinates from ORCA-job PhN2+~BF4-_B3LYPG-6-31G_dp-CH-Scan-d09-49-n800
 OpenBabel11261919213D

 18 16  0  0  0  0  0  0  0  0999 V2000
   -1.4434    0.2760    0.1163 C   0  0  0  0  0  0  0  0  0  0  0  0
   -2.8231    0.2640    0.3133 N   0  0  0  0  0  0  0  0  0  0  0  0
   -3.9316    0.3298    0.4540 N   0  0  0  0  0  0  0  0  0  0  0  0
   -0.9724    1.5473   -0.2469 C   0  0  0  0  0  0  0  0  0  0  0  0
    0.4395    1.4827   -0.4331 C   0  0  0  0  0  0  0  0  0  0  0  0
    1.1927    0.3242   -0.2731 C   0  0  0  0  0  0  0  0  0  0  0  0
    0.5967   -0.9076    0.0995 C   0  0  0  0  0  0  0  0  0  0  0  0
   -0.7630   -0.9581    0.3071 C   0  0  0  0  0  0  0  0  0  0  0  0
   -3.7601    4.6950   -0.5289 H   0  0  0  0  0  0  0  0  0  0  0  0
    0.9724    2.3905   -0.7203 H   0  0  0  0  0  0  0  0  0  0  0  0
    2.2693    0.3484   -0.4359 H   0  0  0  0  0  0  0  0  0  0  0  0
    1.2051   -1.7982    0.2200 H   0  0  0  0  0  0  0  0  0  0  0  0
   -1.2765   -1.8716    0.5952 H   0  0  0  0  0  0  0  0  0  0  0  0
   -5.7344    3.2079   -0.1461 B   0  0  0  0  0  0  0  0  0  0  0  0
   -4.8579    2.6638   -0.9934 F   0  0  0  0  0  0  0  0  0  0  0  0
   -4.5093    5.0060   -0.0720 F   0  0  0  0  0  0  0  0  0  0  0  0
   -6.8186    3.7929   -0.6222 F   0  0  0  0  0  0  0  0  0  0  0  0
   -5.6394    2.9201    1.1417 F   0  0  0  0  0  0  0  0  0  0  0  0
  1  8  1  0  0  0  0
  1  2  1  0  0  0  0
  2  3  1  0  0  0  0
  4  1  2  0  0  0  0
  5  6  2  0  0  0  0
  5  4  1  0  0  0  0
  6  7  1  0  0  0  0
  7 12  1  0  0  0  0
  7  8  2  0  0  0  0
  8 13  1  0  0  0  0
  9 16  1  0  0  0  0
 10  5  1  0  0  0  0
 11  6  1  0  0  0  0
 14 18  1  0  0  0  0
 15 14  1  0  0  0  0
 17 14  1  0  0  0  0
M  RAD  3   2   2   3   3   4   2
M  END
