Coordinates from ORCA-job PhN2+~BF4-_B3LYPG-6-31G_dp-CH-Scan-d09-49-n800
 OpenBabel11261919213D

 18 16  0  0  0  0  0  0  0  0999 V2000
   -1.4357    0.2767    0.1188 C   0  0  0  0  0  0  0  0  0  0  0  0
   -2.8150    0.2700    0.3177 N   0  0  0  0  0  0  0  0  0  0  0  0
   -3.9234    0.3390    0.4590 N   0  0  0  0  0  0  0  0  0  0  0  0
   -0.9606    1.5464   -0.2448 C   0  0  0  0  0  0  0  0  0  0  0  0
    0.4508    1.4766   -0.4334 C   0  0  0  0  0  0  0  0  0  0  0  0
    1.1998    0.3151   -0.2753 C   0  0  0  0  0  0  0  0  0  0  0  0
    0.5998   -0.9146    0.0979 C   0  0  0  0  0  0  0  0  0  0  0  0
   -0.7597   -0.9601    0.3078 C   0  0  0  0  0  0  0  0  0  0  0  0
   -3.7835    4.7166   -0.5256 H   0  0  0  0  0  0  0  0  0  0  0  0
    0.9866    2.3824   -0.7212 H   0  0  0  0  0  0  0  0  0  0  0  0
    2.2762    0.3353   -0.4401 H   0  0  0  0  0  0  0  0  0  0  0  0
    1.2051   -1.8075    0.2169 H   0  0  0  0  0  0  0  0  0  0  0  0
   -1.2761   -1.8718    0.5965 H   0  0  0  0  0  0  0  0  0  0  0  0
   -5.7435    3.2092   -0.1491 B   0  0  0  0  0  0  0  0  0  0  0  0
   -4.8566    2.6740   -0.9912 F   0  0  0  0  0  0  0  0  0  0  0  0
   -4.5349    5.0193   -0.0664 F   0  0  0  0  0  0  0  0  0  0  0  0
   -6.8294    3.7856   -0.6315 F   0  0  0  0  0  0  0  0  0  0  0  0
   -5.6540    2.9212    1.1390 F   0  0  0  0  0  0  0  0  0  0  0  0
  1  8  1  0  0  0  0
  1  2  1  0  0  0  0
  2  3  1  0  0  0  0
  4  1  2  0  0  0  0
  5  6  2  0  0  0  0
  5  4  1  0  0  0  0
  6  7  1  0  0  0  0
  7 12  1  0  0  0  0
  7  8  2  0  0  0  0
  8 13  1  0  0  0  0
  9 16  1  0  0  0  0
 10  5  1  0  0  0  0
 11  6  1  0  0  0  0
 14 18  1  0  0  0  0
 15 14  1  0  0  0  0
 17 14  1  0  0  0  0
M  RAD  3   2   2   3   3   4   2
M  END
