Coordinates from ORCA-job PhN2+~BF4-_B3LYPG-6-31G_dp-CH-Scan-d09-49-n800
 OpenBabel11261919213D

 18 16  0  0  0  0  0  0  0  0999 V2000
   -1.6220    0.3175    0.1016 C   0  0  0  0  0  0  0  0  0  0  0  0
   -2.9965    0.1898    0.2638 N   0  0  0  0  0  0  0  0  0  0  0  0
   -4.1071    0.1401    0.3843 N   0  0  0  0  0  0  0  0  0  0  0  0
   -1.2155    1.6285   -0.2037 C   0  0  0  0  0  0  0  0  0  0  0  0
    0.1978    1.6659   -0.3551 C   0  0  0  0  0  0  0  0  0  0  0  0
    1.0222    0.5533   -0.2158 C   0  0  0  0  0  0  0  0  0  0  0  0
    0.4993   -0.7256    0.0959 C   0  0  0  0  0  0  0  0  0  0  0  0
   -0.8592   -0.8716    0.2641 C   0  0  0  0  0  0  0  0  0  0  0  0
   -3.1389    3.9458   -0.4626 H   0  0  0  0  0  0  0  0  0  0  0  0
    0.6738    2.6166   -0.5962 H   0  0  0  0  0  0  0  0  0  0  0  0
    2.0981    0.6549   -0.3484 H   0  0  0  0  0  0  0  0  0  0  0  0
    1.1602   -1.5797    0.2010 H   0  0  0  0  0  0  0  0  0  0  0  0
   -1.3170   -1.8270    0.5049 H   0  0  0  0  0  0  0  0  0  0  0  0
   -5.5180    3.1977   -0.1138 B   0  0  0  0  0  0  0  0  0  0  0  0
   -5.2601    2.3872   -1.1400 F   0  0  0  0  0  0  0  0  0  0  0  0
   -3.9166    4.4661   -0.4693 F   0  0  0  0  0  0  0  0  0  0  0  0
   -6.4445    4.1347   -0.2327 F   0  0  0  0  0  0  0  0  0  0  0  0
   -5.1099    2.8192    1.0969 F   0  0  0  0  0  0  0  0  0  0  0  0
  1  2  1  0  0  0  0
  1  8  1  0  0  0  0
  2  3  1  0  0  0  0
  4  1  2  0  0  0  0
  5  6  2  0  0  0  0
  5  4  1  0  0  0  0
  6  7  1  0  0  0  0
  7 12  1  0  0  0  0
  7  8  2  0  0  0  0
  8 13  1  0  0  0  0
 10  5  1  0  0  0  0
 11  6  1  0  0  0  0
 14 18  1  0  0  0  0
 15 14  1  0  0  0  0
 16  9  1  0  0  0  0
 17 14  1  0  0  0  0
M  RAD  3   2   2   3   3   4   2
M  END
