Coordinates from ORCA-job PhN2+~BF4-_B3LYPG-6-31G_dp-CH-Scan-d09-49-n800
 OpenBabel11261919213D

 18 16  0  0  0  0  0  0  0  0999 V2000
   -1.8914    0.4143    0.0961 C   0  0  0  0  0  0  0  0  0  0  0  0
   -3.2457    0.1675    0.2649 N   0  0  0  0  0  0  0  0  0  0  0  0
   -4.3393   -0.0047    0.3939 N   0  0  0  0  0  0  0  0  0  0  0  0
   -1.5324    1.7410   -0.2068 C   0  0  0  0  0  0  0  0  0  0  0  0
   -0.1380    1.8835   -0.3625 C   0  0  0  0  0  0  0  0  0  0  0  0
    0.7554    0.8223   -0.2272 C   0  0  0  0  0  0  0  0  0  0  0  0
    0.3096   -0.4799    0.0802 C   0  0  0  0  0  0  0  0  0  0  0  0
   -1.0400   -0.7090    0.2492 C   0  0  0  0  0  0  0  0  0  0  0  0
   -2.6786    3.0427   -0.3589 H   0  0  0  0  0  0  0  0  0  0  0  0
    0.2628    2.8660   -0.6008 H   0  0  0  0  0  0  0  0  0  0  0  0
    1.8210    0.9936   -0.3607 H   0  0  0  0  0  0  0  0  0  0  0  0
    1.0176   -1.2953    0.1833 H   0  0  0  0  0  0  0  0  0  0  0  0
   -1.4341   -1.6920    0.4872 H   0  0  0  0  0  0  0  0  0  0  0  0
   -4.8861    3.1482   -0.1484 B   0  0  0  0  0  0  0  0  0  0  0  0
   -4.9862    2.1923   -1.1230 F   0  0  0  0  0  0  0  0  0  0  0  0
   -3.4048    3.7957   -0.4385 F   0  0  0  0  0  0  0  0  0  0  0  0
   -5.7102    4.2064   -0.2586 F   0  0  0  0  0  0  0  0  0  0  0  0
   -4.7335    2.6206    1.1056 F   0  0  0  0  0  0  0  0  0  0  0  0
  1  8  1  0  0  0  0
  1  2  1  0  0  0  0
  2  3  1  0  0  0  0
  4  1  2  0  0  0  0
  5  6  2  0  0  0  0
  5  4  1  0  0  0  0
  6  7  1  0  0  0  0
  7 12  1  0  0  0  0
  7  8  2  0  0  0  0
  8 13  1  0  0  0  0
 10  5  1  0  0  0  0
 11  6  1  0  0  0  0
 14 18  1  0  0  0  0
 15 14  1  0  0  0  0
 16  9  1  0  0  0  0
 17 14  1  0  0  0  0
M  RAD  3   2   2   3   3   4   2
M  END
