Coordinates from ORCA-job PhN2+~BF4-_B3LYPG-6-31G_dp-CH-Scan-d09-49-n800
 OpenBabel11261919213D

 18 16  0  0  0  0  0  0  0  0999 V2000
   -1.3240    0.3045    0.1479 C   0  0  0  0  0  0  0  0  0  0  0  0
   -2.6981    0.3850    0.3715 N   0  0  0  0  0  0  0  0  0  0  0  0
   -3.7966    0.5265    0.5358 N   0  0  0  0  0  0  0  0  0  0  0  0
   -0.7748    1.5493   -0.1932 C   0  0  0  0  0  0  0  0  0  0  0  0
    0.6261    1.3947   -0.4091 C   0  0  0  0  0  0  0  0  0  0  0  0
    1.3006    0.1838   -0.2929 C   0  0  0  0  0  0  0  0  0  0  0  0
    0.6283   -1.0141    0.0613 C   0  0  0  0  0  0  0  0  0  0  0  0
   -0.7275   -0.9780    0.2950 C   0  0  0  0  0  0  0  0  0  0  0  0
   -4.1240    4.9646   -0.5235 H   0  0  0  0  0  0  0  0  0  0  0  0
    1.2143    2.2715   -0.6843 H   0  0  0  0  0  0  0  0  0  0  0  0
    2.3730    0.1384   -0.4770 H   0  0  0  0  0  0  0  0  0  0  0  0
    1.1770   -1.9466    0.1474 H   0  0  0  0  0  0  0  0  0  0  0  0
   -1.2971   -1.8615    0.5710 H   0  0  0  0  0  0  0  0  0  0  0  0
   -5.8670    3.2157   -0.1715 B   0  0  0  0  0  0  0  0  0  0  0  0
   -4.8708    2.8101   -0.9627 F   0  0  0  0  0  0  0  0  0  0  0  0
   -4.8941    5.1777   -0.0460 F   0  0  0  0  0  0  0  0  0  0  0  0
   -6.9900    3.6478   -0.7153 F   0  0  0  0  0  0  0  0  0  0  0  0
   -5.8093    2.9436    1.1207 F   0  0  0  0  0  0  0  0  0  0  0  0
  1  8  1  0  0  0  0
  1  2  1  0  0  0  0
  2  3  1  0  0  0  0
  4  1  2  0  0  0  0
  5  6  2  0  0  0  0
  5  4  1  0  0  0  0
  6  7  1  0  0  0  0
  7 12  1  0  0  0  0
  7  8  2  0  0  0  0
  8 13  1  0  0  0  0
  9 16  1  0  0  0  0
 10  5  1  0  0  0  0
 11  6  1  0  0  0  0
 14 18  1  0  0  0  0
 15 14  1  0  0  0  0
 17 14  1  0  0  0  0
M  RAD  3   2   2   3   3   4   2
M  END
