Coordinates from ORCA-job PhN2+~BF4-_B3LYPG-6-31G_dp-CH-Scan-d09-49-n800
 OpenBabel11261919213D

 18 16  0  0  0  0  0  0  0  0999 V2000
   -1.5386    0.2929    0.1137 C   0  0  0  0  0  0  0  0  0  0  0  0
   -2.9175    0.2136    0.2839 N   0  0  0  0  0  0  0  0  0  0  0  0
   -4.0294    0.2164    0.4084 N   0  0  0  0  0  0  0  0  0  0  0  0
   -1.1054    1.5955   -0.1874 C   0  0  0  0  0  0  0  0  0  0  0  0
    0.3097    1.5925   -0.3476 C   0  0  0  0  0  0  0  0  0  0  0  0
    1.1040    0.4573   -0.2201 C   0  0  0  0  0  0  0  0  0  0  0  0
    0.5488   -0.8097    0.0885 C   0  0  0  0  0  0  0  0  0  0  0  0
   -0.8118   -0.9198    0.2657 C   0  0  0  0  0  0  0  0  0  0  0  0
   -3.3389    4.2776   -0.4883 H   0  0  0  0  0  0  0  0  0  0  0  0
    0.8118    2.5308   -0.5867 H   0  0  0  0  0  0  0  0  0  0  0  0
    2.1815    0.5296   -0.3597 H   0  0  0  0  0  0  0  0  0  0  0  0
    1.1879   -1.6816    0.1841 H   0  0  0  0  0  0  0  0  0  0  0  0
   -1.2947   -1.8634    0.5049 H   0  0  0  0  0  0  0  0  0  0  0  0
   -5.6524    3.2028   -0.1195 B   0  0  0  0  0  0  0  0  0  0  0  0
   -5.2487    2.4489   -1.1389 F   0  0  0  0  0  0  0  0  0  0  0  0
   -4.1654    4.7062   -0.4536 F   0  0  0  0  0  0  0  0  0  0  0  0
   -6.6728    4.0280   -0.2722 F   0  0  0  0  0  0  0  0  0  0  0  0
   -5.2220    2.8955    1.0998 F   0  0  0  0  0  0  0  0  0  0  0  0
  1  8  1  0  0  0  0
  1  2  1  0  0  0  0
  2  3  1  0  0  0  0
  4  1  2  0  0  0  0
  5  6  2  0  0  0  0
  5  4  1  0  0  0  0
  6  7  1  0  0  0  0
  7 12  1  0  0  0  0
  7  8  2  0  0  0  0
  8 13  1  0  0  0  0
  9 16  1  0  0  0  0
 10  5  1  0  0  0  0
 11  6  1  0  0  0  0
 14 18  1  0  0  0  0
 15 14  1  0  0  0  0
 17 14  1  0  0  0  0
M  RAD  3   2   2   3   3   4   2
M  END
