Coordinates from ORCA-job PhN2+~BF4-_B3LYPG-6-31G_dp-CH-Scan-d09-49-n800
 OpenBabel11261919213D

 18 16  0  0  0  0  0  0  0  0999 V2000
   -1.6599    0.3296    0.1005 C   0  0  0  0  0  0  0  0  0  0  0  0
   -3.0319    0.1836    0.2633 N   0  0  0  0  0  0  0  0  0  0  0  0
   -4.1411    0.1164    0.3845 N   0  0  0  0  0  0  0  0  0  0  0  0
   -1.2639    1.6447   -0.2033 C   0  0  0  0  0  0  0  0  0  0  0  0
    0.1478    1.6992   -0.3546 C   0  0  0  0  0  0  0  0  0  0  0  0
    0.9841    0.5951   -0.2163 C   0  0  0  0  0  0  0  0  0  0  0  0
    0.4747   -0.6889    0.0935 C   0  0  0  0  0  0  0  0  0  0  0  0
   -0.8824   -0.8497    0.2610 C   0  0  0  0  0  0  0  0  0  0  0  0
   -3.0638    3.7984   -0.4478 H   0  0  0  0  0  0  0  0  0  0  0  0
    0.6124    2.6554   -0.5944 H   0  0  0  0  0  0  0  0  0  0  0  0
    2.0587    0.7088   -0.3484 H   0  0  0  0  0  0  0  0  0  0  0  0
    1.1443   -1.5363    0.1978 H   0  0  0  0  0  0  0  0  0  0  0  0
   -1.3296   -1.8104    0.5006 H   0  0  0  0  0  0  0  0  0  0  0  0
   -5.4446    3.1943   -0.1158 B   0  0  0  0  0  0  0  0  0  0  0  0
   -5.2440    2.3587   -1.1372 F   0  0  0  0  0  0  0  0  0  0  0  0
   -3.8198    4.3546   -0.4748 F   0  0  0  0  0  0  0  0  0  0  0  0
   -6.3352    4.1679   -0.2309 F   0  0  0  0  0  0  0  0  0  0  0  0
   -5.0597    2.7917    1.0972 F   0  0  0  0  0  0  0  0  0  0  0  0
  1  8  1  0  0  0  0
  1  2  1  0  0  0  0
  2  3  1  0  0  0  0
  4  1  2  0  0  0  0
  5  6  2  0  0  0  0
  5  4  1  0  0  0  0
  6  7  1  0  0  0  0
  7 12  1  0  0  0  0
  7  8  2  0  0  0  0
  8 13  1  0  0  0  0
 10  5  1  0  0  0  0
 11  6  1  0  0  0  0
 14 18  1  0  0  0  0
 15 14  1  0  0  0  0
 16  9  1  0  0  0  0
 17 14  1  0  0  0  0
M  RAD  3   2   2   3   3   4   2
M  END
