Coordinates from ORCA-job PhN2+~BF4-_B3LYPG-6-31G_dp-CH-Scan-d09-49-n800
 OpenBabel11261919213D

 18 16  0  0  0  0  0  0  0  0999 V2000
   -1.5903    0.3100    0.1053 C   0  0  0  0  0  0  0  0  0  0  0  0
   -2.9668    0.1998    0.2713 N   0  0  0  0  0  0  0  0  0  0  0  0
   -4.0782    0.1671    0.3918 N   0  0  0  0  0  0  0  0  0  0  0  0
   -1.1731    1.6169   -0.2009 C   0  0  0  0  0  0  0  0  0  0  0  0
    0.2411    1.6382   -0.3550 C   0  0  0  0  0  0  0  0  0  0  0  0
    1.0538    0.5169   -0.2180 C   0  0  0  0  0  0  0  0  0  0  0  0
    0.5181   -0.7568    0.0945 C   0  0  0  0  0  0  0  0  0  0  0  0
   -0.8414   -0.8882    0.2659 C   0  0  0  0  0  0  0  0  0  0  0  0
   -3.2090    4.0684   -0.4690 H   0  0  0  0  0  0  0  0  0  0  0  0
    0.7274    2.5837   -0.5969 H   0  0  0  0  0  0  0  0  0  0  0  0
    2.1305    0.6068   -0.3531 H   0  0  0  0  0  0  0  0  0  0  0  0
    1.1704   -1.6178    0.1977 H   0  0  0  0  0  0  0  0  0  0  0  0
   -1.3092   -1.8387    0.5078 H   0  0  0  0  0  0  0  0  0  0  0  0
   -5.5732    3.1988   -0.1163 B   0  0  0  0  0  0  0  0  0  0  0  0
   -5.2584    2.4105   -1.1424 F   0  0  0  0  0  0  0  0  0  0  0  0
   -4.0045    4.5568   -0.4577 F   0  0  0  0  0  0  0  0  0  0  0  0
   -6.5339    4.0980   -0.2467 F   0  0  0  0  0  0  0  0  0  0  0  0
   -5.1573    2.8427    1.0968 F   0  0  0  0  0  0  0  0  0  0  0  0
  1  8  1  0  0  0  0
  1  2  1  0  0  0  0
  2  3  1  0  0  0  0
  4  1  2  0  0  0  0
  5  6  2  0  0  0  0
  5  4  1  0  0  0  0
  6  7  1  0  0  0  0
  7 12  1  0  0  0  0
  7  8  2  0  0  0  0
  8 13  1  0  0  0  0
  9 16  1  0  0  0  0
 10  5  1  0  0  0  0
 11  6  1  0  0  0  0
 14 18  1  0  0  0  0
 15 14  1  0  0  0  0
 17 14  1  0  0  0  0
M  RAD  3   2   2   3   3   4   2
M  END
