Coordinates from ORCA-job PhN2+~BF4-_B3LYPG-6-31G_dp-CH-Scan-d09-49-n800
 OpenBabel11261919213D

 18 17  0  0  0  0  0  0  0  0999 V2000
   -1.9757    0.4519   -0.0676 C   0  0  0  0  0  0  0  0  0  0  0  0
   -3.3349    0.1848   -0.0725 N   0  0  0  0  0  0  0  0  0  0  0  0
   -4.4260   -0.0343   -0.1086 N   0  0  0  0  0  0  0  0  0  0  0  0
   -1.5550    1.7401   -0.4362 C   0  0  0  0  0  0  0  0  0  0  0  0
   -0.1714    1.9311   -0.4360 C   0  0  0  0  0  0  0  0  0  0  0  0
    0.7068    0.9030   -0.0861 C   0  0  0  0  0  0  0  0  0  0  0  0
    0.2343   -0.3701    0.2765 C   0  0  0  0  0  0  0  0  0  0  0  0
   -1.1269   -0.6181    0.2893 C   0  0  0  0  0  0  0  0  0  0  0  0
   -2.5032    2.7312   -0.7192 H   0  0  0  0  0  0  0  0  0  0  0  0
    0.2255    2.9041   -0.7078 H   0  0  0  0  0  0  0  0  0  0  0  0
    1.7776    1.0872   -0.0909 H   0  0  0  0  0  0  0  0  0  0  0  0
    0.9289   -1.1580    0.5465 H   0  0  0  0  0  0  0  0  0  0  0  0
   -1.5324   -1.5861    0.5630 H   0  0  0  0  0  0  0  0  0  0  0  0
   -4.6729    3.1182   -0.0023 B   0  0  0  0  0  0  0  0  0  0  0  0
   -5.3764    2.1607   -0.7451 F   0  0  0  0  0  0  0  0  0  0  0  0
   -3.5775    3.6022   -0.8773 F   0  0  0  0  0  0  0  0  0  0  0  0
   -5.4380    4.1810    0.3718 F   0  0  0  0  0  0  0  0  0  0  0  0
   -4.0369    2.4841    1.0776 F   0  0  0  0  0  0  0  0  0  0  0  0
  1  8  2  0  0  0  0
  2  1  1  0  0  0  0
  3  2  1  0  0  0  0
  4  5  2  0  0  0  0
  4  1  1  0  0  0  0
  5  6  1  0  0  0  0
  6  7  2  0  0  0  0
  7  8  1  0  0  0  0
  7 12  1  0  0  0  0
  8 13  1  0  0  0  0
  9  4  1  0  0  0  0
 10  5  1  0  0  0  0
 11  6  1  0  0  0  0
 14 17  1  0  0  0  0
 14 18  1  0  0  0  0
 15 14  1  0  0  0  0
 16 14  1  0  0  0  0
M  RAD  2   2   2   3   3
M  END
