Coordinates from ORCA-job PhN2+~BF4-_B3LYPG-6-31G_dp-CH-Scan-d09-49-n800
 OpenBabel11261919213D

 18 16  0  0  0  0  0  0  0  0999 V2000
   -1.5913    0.3100    0.1052 C   0  0  0  0  0  0  0  0  0  0  0  0
   -2.9678    0.1991    0.2701 N   0  0  0  0  0  0  0  0  0  0  0  0
   -4.0790    0.1668    0.3931 N   0  0  0  0  0  0  0  0  0  0  0  0
   -1.1743    1.6174   -0.1993 C   0  0  0  0  0  0  0  0  0  0  0  0
    0.2398    1.6393   -0.3535 C   0  0  0  0  0  0  0  0  0  0  0  0
    1.0529    0.5182   -0.2173 C   0  0  0  0  0  0  0  0  0  0  0  0
    0.5175   -0.7560    0.0940 C   0  0  0  0  0  0  0  0  0  0  0  0
   -0.8419   -0.8881    0.2651 C   0  0  0  0  0  0  0  0  0  0  0  0
   -3.2071    4.0643   -0.4729 H   0  0  0  0  0  0  0  0  0  0  0  0
    0.7259    2.5851   -0.5944 H   0  0  0  0  0  0  0  0  0  0  0  0
    2.1296    0.6085   -0.3521 H   0  0  0  0  0  0  0  0  0  0  0  0
    1.1701   -1.6169    0.1965 H   0  0  0  0  0  0  0  0  0  0  0  0
   -1.3094   -1.8389    0.5058 H   0  0  0  0  0  0  0  0  0  0  0  0
   -5.5716    3.1989   -0.1154 B   0  0  0  0  0  0  0  0  0  0  0  0
   -5.2599    2.4090   -1.1414 F   0  0  0  0  0  0  0  0  0  0  0  0
   -4.0020    4.5539   -0.4610 F   0  0  0  0  0  0  0  0  0  0  0  0
   -6.5313    4.0992   -0.2448 F   0  0  0  0  0  0  0  0  0  0  0  0
   -5.1540    2.8433    1.0972 F   0  0  0  0  0  0  0  0  0  0  0  0
  1  8  1  0  0  0  0
  1  2  1  0  0  0  0
  2  3  1  0  0  0  0
  4  1  2  0  0  0  0
  5  6  2  0  0  0  0
  5  4  1  0  0  0  0
  6  7  1  0  0  0  0
  7 12  1  0  0  0  0
  7  8  2  0  0  0  0
  8 13  1  0  0  0  0
  9 16  1  0  0  0  0
 10  5  1  0  0  0  0
 11  6  1  0  0  0  0
 14 18  1  0  0  0  0
 15 14  1  0  0  0  0
 17 14  1  0  0  0  0
M  RAD  3   2   2   3   3   4   2
M  END
