Coordinates from ORCA-job PhN2+~BF4-_B3LYPG-6-31G_dp-CH-Scan-d09-49-n800
 OpenBabel11261919213D

 18 16  0  0  0  0  0  0  0  0999 V2000
   -1.6021    0.3126    0.1037 C   0  0  0  0  0  0  0  0  0  0  0  0
   -2.9779    0.1958    0.2676 N   0  0  0  0  0  0  0  0  0  0  0  0
   -4.0890    0.1572    0.3892 N   0  0  0  0  0  0  0  0  0  0  0  0
   -1.1889    1.6211   -0.2017 C   0  0  0  0  0  0  0  0  0  0  0  0
    0.2251    1.6485   -0.3548 C   0  0  0  0  0  0  0  0  0  0  0  0
    1.0422    0.5305   -0.2169 C   0  0  0  0  0  0  0  0  0  0  0  0
    0.5112   -0.7452    0.0952 C   0  0  0  0  0  0  0  0  0  0  0  0
   -0.8479   -0.8822    0.2651 C   0  0  0  0  0  0  0  0  0  0  0  0
   -3.1824    4.0230   -0.4687 H   0  0  0  0  0  0  0  0  0  0  0  0
    0.7075    2.5960   -0.5961 H   0  0  0  0  0  0  0  0  0  0  0  0
    2.1186    0.6248   -0.3508 H   0  0  0  0  0  0  0  0  0  0  0  0
    1.1668   -1.6036    0.1990 H   0  0  0  0  0  0  0  0  0  0  0  0
   -1.3120   -1.8346    0.5063 H   0  0  0  0  0  0  0  0  0  0  0  0
   -5.5534    3.1984   -0.1148 B   0  0  0  0  0  0  0  0  0  0  0  0
   -5.2603    2.4017   -1.1414 F   0  0  0  0  0  0  0  0  0  0  0  0
   -3.9713    4.5234   -0.4628 F   0  0  0  0  0  0  0  0  0  0  0  0
   -6.5012    4.1121   -0.2401 F   0  0  0  0  0  0  0  0  0  0  0  0
   -5.1391    2.8339    1.0969 F   0  0  0  0  0  0  0  0  0  0  0  0
  1  8  1  0  0  0  0
  1  2  1  0  0  0  0
  2  3  1  0  0  0  0
  4  1  2  0  0  0  0
  5  6  2  0  0  0  0
  5  4  1  0  0  0  0
  6  7  1  0  0  0  0
  7 12  1  0  0  0  0
  7  8  2  0  0  0  0
  8 13  1  0  0  0  0
  9 16  1  0  0  0  0
 10  5  1  0  0  0  0
 11  6  1  0  0  0  0
 14 18  1  0  0  0  0
 15 14  1  0  0  0  0
 17 14  1  0  0  0  0
M  RAD  3   2   2   3   3   4   2
M  END
