Coordinates from ORCA-job PhN2+~BF4-_B3LYPG-6-31G_dp-CH-Scan-d09-49-n800
 OpenBabel11261919213D

 18 16  0  0  0  0  0  0  0  0999 V2000
   -1.4872    0.2707    0.1136 C   0  0  0  0  0  0  0  0  0  0  0  0
   -2.8656    0.2245    0.3096 N   0  0  0  0  0  0  0  0  0  0  0  0
   -3.9755    0.2571    0.4506 N   0  0  0  0  0  0  0  0  0  0  0  0
   -1.0426    1.5526   -0.2475 C   0  0  0  0  0  0  0  0  0  0  0  0
    0.3706    1.5193   -0.4300 C   0  0  0  0  0  0  0  0  0  0  0  0
    1.1492    0.3777   -0.2690 C   0  0  0  0  0  0  0  0  0  0  0  0
    0.5798   -0.8672    0.1007 C   0  0  0  0  0  0  0  0  0  0  0  0
   -0.7790   -0.9479    0.3044 C   0  0  0  0  0  0  0  0  0  0  0  0
   -3.6190    4.5784   -0.5259 H   0  0  0  0  0  0  0  0  0  0  0  0
    0.8840    2.4388   -0.7150 H   0  0  0  0  0  0  0  0  0  0  0  0
    2.2254    0.4263   -0.4286 H   0  0  0  0  0  0  0  0  0  0  0  0
    1.2072   -1.7443    0.2220 H   0  0  0  0  0  0  0  0  0  0  0  0
   -1.2727   -1.8729    0.5904 H   0  0  0  0  0  0  0  0  0  0  0  0
   -5.6812    3.2049   -0.1424 B   0  0  0  0  0  0  0  0  0  0  0  0
   -4.8593    2.5990   -1.0019 F   0  0  0  0  0  0  0  0  0  0  0  0
   -4.3703    4.9288   -0.1017 F   0  0  0  0  0  0  0  0  0  0  0  0
   -6.7409    3.8474   -0.6001 F   0  0  0  0  0  0  0  0  0  0  0  0
   -5.5767    2.9198    1.1460 F   0  0  0  0  0  0  0  0  0  0  0  0
  1  8  1  0  0  0  0
  1  2  1  0  0  0  0
  2  3  1  0  0  0  0
  4  1  2  0  0  0  0
  5  6  2  0  0  0  0
  5  4  1  0  0  0  0
  6  7  1  0  0  0  0
  7 12  1  0  0  0  0
  7  8  2  0  0  0  0
  8 13  1  0  0  0  0
  9 16  1  0  0  0  0
 10  5  1  0  0  0  0
 11  6  1  0  0  0  0
 14 18  1  0  0  0  0
 15 14  1  0  0  0  0
 17 14  1  0  0  0  0
M  RAD  3   2   2   3   3   4   2
M  END
