Coordinates from ORCA-job PhN2+~BF4-_B3LYPG-6-31G_dp-CH-Scan-d09-49-n800
 OpenBabel11261919213D

 18 17  0  0  0  0  0  0  0  0999 V2000
   -1.9886    0.5048   -0.1302 C   0  0  0  0  0  0  0  0  0  0  0  0
   -3.3514    0.2597   -0.2003 N   0  0  0  0  0  0  0  0  0  0  0  0
   -4.4350    0.0165   -0.2895 N   0  0  0  0  0  0  0  0  0  0  0  0
   -1.5098    1.7746   -0.4876 C   0  0  0  0  0  0  0  0  0  0  0  0
   -0.1309    1.9538   -0.4319 C   0  0  0  0  0  0  0  0  0  0  0  0
    0.7104    0.9132   -0.0274 C   0  0  0  0  0  0  0  0  0  0  0  0
    0.1953   -0.3431    0.3240 C   0  0  0  0  0  0  0  0  0  0  0  0
   -1.1718   -0.5683    0.2723 C   0  0  0  0  0  0  0  0  0  0  0  0
   -2.2865    2.6219   -0.7971 H   0  0  0  0  0  0  0  0  0  0  0  0
    0.2866    2.9188   -0.6979 H   0  0  0  0  0  0  0  0  0  0  0  0
    1.7828    1.0789    0.0184 H   0  0  0  0  0  0  0  0  0  0  0  0
    0.8597   -1.1412    0.6365 H   0  0  0  0  0  0  0  0  0  0  0  0
   -1.6053   -1.5262    0.5369 H   0  0  0  0  0  0  0  0  0  0  0  0
   -4.6673    3.0792    0.0250 B   0  0  0  0  0  0  0  0  0  0  0  0
   -5.5614    2.0862   -0.4492 F   0  0  0  0  0  0  0  0  0  0  0  0
   -3.8254    3.4623   -1.0663 F   0  0  0  0  0  0  0  0  0  0  0  0
   -5.3286    4.1580    0.5441 F   0  0  0  0  0  0  0  0  0  0  0  0
   -3.8267    2.4641    0.9952 F   0  0  0  0  0  0  0  0  0  0  0  0
  1  8  2  0  0  0  0
  2  1  1  0  0  0  0
  3  2  1  0  0  0  0
  4  5  2  0  0  0  0
  4  1  1  0  0  0  0
  5  6  1  0  0  0  0
  6 11  1  0  0  0  0
  6  7  2  0  0  0  0
  7 12  1  0  0  0  0
  8  7  1  0  0  0  0
  8 13  1  0  0  0  0
  9  4  1  0  0  0  0
 10  5  1  0  0  0  0
 14 17  1  0  0  0  0
 14 18  1  0  0  0  0
 15 14  1  0  0  0  0
 16 14  1  0  0  0  0
M  RAD  2   2   2   3   3
M  END
