Coordinates from ORCA-job PhN2+~BF4-_B3LYPG-6-31G_dp-CH-Scan-d09-49-n800
 OpenBabel11261919213D

 18 16  0  0  0  0  0  0  0  0999 V2000
   -1.3616    0.2941    0.1453 C   0  0  0  0  0  0  0  0  0  0  0  0
   -2.7369    0.3456    0.3680 N   0  0  0  0  0  0  0  0  0  0  0  0
   -3.8386    0.4636    0.5294 N   0  0  0  0  0  0  0  0  0  0  0  0
   -0.8399    1.5479   -0.2071 C   0  0  0  0  0  0  0  0  0  0  0  0
    0.5640    1.4220   -0.4220 C   0  0  0  0  0  0  0  0  0  0  0  0
    1.2651    0.2273   -0.2953 C   0  0  0  0  0  0  0  0  0  0  0  0
    0.6196   -0.9818    0.0700 C   0  0  0  0  0  0  0  0  0  0  0  0
   -0.7367   -0.9734    0.3037 C   0  0  0  0  0  0  0  0  0  0  0  0
   -4.0066    4.8915   -0.5023 H   0  0  0  0  0  0  0  0  0  0  0  0
    1.1327    2.3089   -0.7053 H   0  0  0  0  0  0  0  0  0  0  0  0
    2.3383    0.2041   -0.4793 H   0  0  0  0  0  0  0  0  0  0  0  0
    1.1887   -1.9012    0.1643 H   0  0  0  0  0  0  0  0  0  0  0  0
   -1.2865   -1.8668    0.5878 H   0  0  0  0  0  0  0  0  0  0  0  0
   -5.8244    3.2115   -0.1750 B   0  0  0  0  0  0  0  0  0  0  0  0
   -4.8438    2.7659   -0.9639 F   0  0  0  0  0  0  0  0  0  0  0  0
   -4.7781    5.1306   -0.0394 F   0  0  0  0  0  0  0  0  0  0  0  0
   -6.9276    3.6898   -0.7207 F   0  0  0  0  0  0  0  0  0  0  0  0
   -5.7817    2.9337    1.1169 F   0  0  0  0  0  0  0  0  0  0  0  0
  1  8  1  0  0  0  0
  1  2  1  0  0  0  0
  2  3  1  0  0  0  0
  4  1  2  0  0  0  0
  5  6  2  0  0  0  0
  5  4  1  0  0  0  0
  6  7  1  0  0  0  0
  7 12  1  0  0  0  0
  7  8  2  0  0  0  0
  8 13  1  0  0  0  0
  9 16  1  0  0  0  0
 10  5  1  0  0  0  0
 11  6  1  0  0  0  0
 14 18  1  0  0  0  0
 15 14  1  0  0  0  0
 17 14  1  0  0  0  0
M  RAD  3   2   2   3   3   4   2
M  END
