Coordinates from ORCA-job PhN2+~BF4-_B3LYPG-6-31G_dp-CH-Scan-d09-49-n800
 OpenBabel11261919213D

 18 17  0  0  0  0  0  0  0  0999 V2000
   -2.1400    0.4840   -0.2176 C   0  0  0  0  0  0  0  0  0  0  0  0
   -3.4834    0.1499   -0.2678 N   0  0  0  0  0  0  0  0  0  0  0  0
   -4.5198   -0.2459   -0.3112 N   0  0  0  0  0  0  0  0  0  0  0  0
   -1.6953    1.6646   -0.8309 C   0  0  0  0  0  0  0  0  0  0  0  0
   -0.3263    1.9096   -0.7791 C   0  0  0  0  0  0  0  0  0  0  0  0
    0.5393    1.0208   -0.1383 C   0  0  0  0  0  0  0  0  0  0  0  0
    0.0570   -0.1470    0.4700 C   0  0  0  0  0  0  0  0  0  0  0  0
   -1.2983   -0.4348    0.4369 C   0  0  0  0  0  0  0  0  0  0  0  0
   -2.3273    2.2694   -1.2386 H   0  0  0  0  0  0  0  0  0  0  0  0
    0.0568    2.8181   -1.2306 H   0  0  0  0  0  0  0  0  0  0  0  0
    1.6023    1.2389   -0.1033 H   0  0  0  0  0  0  0  0  0  0  0  0
    0.7372   -0.8275    0.9701 H   0  0  0  0  0  0  0  0  0  0  0  0
   -1.7067   -1.3252    0.9009 H   0  0  0  0  0  0  0  0  0  0  0  0
   -4.2906    3.0653    0.2415 B   0  0  0  0  0  0  0  0  0  0  0  0
   -4.4228    2.3744   -1.0198 F   0  0  0  0  0  0  0  0  0  0  0  0
   -3.1278    3.8463    0.1660 F   0  0  0  0  0  0  0  0  0  0  0  0
   -5.4141    3.8047    0.5061 F   0  0  0  0  0  0  0  0  0  0  0  0
   -4.0940    2.0476    1.2205 F   0  0  0  0  0  0  0  0  0  0  0  0
  1  8  2  0  0  0  0
  2  1  1  0  0  0  0
  3  2  1  0  0  0  0
  4  5  2  0  0  0  0
  4  1  1  0  0  0  0
  5  6  1  0  0  0  0
  6 11  1  0  0  0  0
  6  7  2  0  0  0  0
  7 12  1  0  0  0  0
  8  7  1  0  0  0  0
  8 13  1  0  0  0  0
  9  4  1  0  0  0  0
 10  5  1  0  0  0  0
 14 17  1  0  0  0  0
 14 18  1  0  0  0  0
 15 14  1  0  0  0  0
 16 14  1  0  0  0  0
M  RAD  2   2   2   3   3
M  END
