Coordinates from ORCA-job PhN2+~BF4-_B3LYPG-6-31G_dp-CH-Scan-d09-49-n800
 OpenBabel11261919213D

 18 16  0  0  0  0  0  0  0  0999 V2000
   -1.6460    0.3253    0.1013 C   0  0  0  0  0  0  0  0  0  0  0  0
   -3.0190    0.1866    0.2641 N   0  0  0  0  0  0  0  0  0  0  0  0
   -4.1289    0.1280    0.3847 N   0  0  0  0  0  0  0  0  0  0  0  0
   -1.2460    1.6392   -0.2022 C   0  0  0  0  0  0  0  0  0  0  0  0
    0.1663    1.6871   -0.3537 C   0  0  0  0  0  0  0  0  0  0  0  0
    0.9980    0.5796   -0.2160 C   0  0  0  0  0  0  0  0  0  0  0  0
    0.4834   -0.7027    0.0937 C   0  0  0  0  0  0  0  0  0  0  0  0
   -0.8742   -0.8579    0.2616 C   0  0  0  0  0  0  0  0  0  0  0  0
   -3.0902    3.8534   -0.4527 H   0  0  0  0  0  0  0  0  0  0  0  0
    0.6353    2.6413   -0.5934 H   0  0  0  0  0  0  0  0  0  0  0  0
    2.0731    0.6887   -0.3484 H   0  0  0  0  0  0  0  0  0  0  0  0
    1.1498   -1.5527    0.1976 H   0  0  0  0  0  0  0  0  0  0  0  0
   -1.3254   -1.8168    0.5011 H   0  0  0  0  0  0  0  0  0  0  0  0
   -5.4731    3.1937   -0.1147 B   0  0  0  0  0  0  0  0  0  0  0  0
   -5.2498    2.3674   -1.1377 F   0  0  0  0  0  0  0  0  0  0  0  0
   -3.8536    4.3971   -0.4762 F   0  0  0  0  0  0  0  0  0  0  0  0
   -6.3776    4.1532   -0.2312 F   0  0  0  0  0  0  0  0  0  0  0  0
   -5.0761    2.8027    1.0971 F   0  0  0  0  0  0  0  0  0  0  0  0
  1  8  1  0  0  0  0
  1  2  1  0  0  0  0
  2  3  1  0  0  0  0
  4  1  2  0  0  0  0
  5  6  2  0  0  0  0
  5  4  1  0  0  0  0
  6  7  1  0  0  0  0
  7 12  1  0  0  0  0
  7  8  2  0  0  0  0
  8 13  1  0  0  0  0
 10  5  1  0  0  0  0
 11  6  1  0  0  0  0
 14 18  1  0  0  0  0
 15 14  1  0  0  0  0
 16  9  1  0  0  0  0
 17 14  1  0  0  0  0
M  RAD  3   2   2   3   3   4   2
M  END
