Coordinates from ORCA-job PhN2+~BF4-_B3LYPG-6-31G_dp-CH-Scan-d09-49-n800
 OpenBabel11261919213D

 18 16  0  0  0  0  0  0  0  0999 V2000
   -1.9062    0.4218    0.0941 C   0  0  0  0  0  0  0  0  0  0  0  0
   -3.2600    0.1719    0.2616 N   0  0  0  0  0  0  0  0  0  0  0  0
   -4.3528   -0.0042    0.3893 N   0  0  0  0  0  0  0  0  0  0  0  0
   -1.5441    1.7472   -0.2098 C   0  0  0  0  0  0  0  0  0  0  0  0
   -0.1515    1.8942   -0.3642 C   0  0  0  0  0  0  0  0  0  0  0  0
    0.7431    0.8339   -0.2263 C   0  0  0  0  0  0  0  0  0  0  0  0
    0.2979   -0.4677    0.0817 C   0  0  0  0  0  0  0  0  0  0  0  0
   -1.0521   -0.6984    0.2491 C   0  0  0  0  0  0  0  0  0  0  0  0
   -2.6488    2.9988   -0.3592 H   0  0  0  0  0  0  0  0  0  0  0  0
    0.2462    2.8776   -0.6027 H   0  0  0  0  0  0  0  0  0  0  0  0
    1.8085    1.0065   -0.3584 H   0  0  0  0  0  0  0  0  0  0  0  0
    1.0062   -1.2824    0.1868 H   0  0  0  0  0  0  0  0  0  0  0  0
   -1.4449   -1.6817    0.4875 H   0  0  0  0  0  0  0  0  0  0  0  0
   -4.8490    3.1423   -0.1487 B   0  0  0  0  0  0  0  0  0  0  0  0
   -4.9672    2.1775   -1.1186 F   0  0  0  0  0  0  0  0  0  0  0  0
   -3.3910    3.7741   -0.4424 F   0  0  0  0  0  0  0  0  0  0  0  0
   -5.6861    4.1937   -0.2526 F   0  0  0  0  0  0  0  0  0  0  0  0
   -4.7020    2.6080    1.1078 F   0  0  0  0  0  0  0  0  0  0  0  0
  1  8  1  0  0  0  0
  1  2  1  0  0  0  0
  2  3  1  0  0  0  0
  4  1  2  0  0  0  0
  5  6  2  0  0  0  0
  5  4  1  0  0  0  0
  6  7  1  0  0  0  0
  7 12  1  0  0  0  0
  7  8  2  0  0  0  0
  8 13  1  0  0  0  0
 10  5  1  0  0  0  0
 11  6  1  0  0  0  0
 14 18  1  0  0  0  0
 15 14  1  0  0  0  0
 16  9  1  0  0  0  0
 17 14  1  0  0  0  0
M  RAD  3   2   2   3   3   4   2
M  END
