Coordinates from ORCA-job PhN2+~BF4-_B3LYPG-6-31G_dp-CH-Scan-d09-49-n800
 OpenBabel11261919213D

 18 16  0  0  0  0  0  0  0  0999 V2000
   -1.5249    0.2930    0.1144 C   0  0  0  0  0  0  0  0  0  0  0  0
   -2.9047    0.2216    0.2850 N   0  0  0  0  0  0  0  0  0  0  0  0
   -4.0166    0.2306    0.4099 N   0  0  0  0  0  0  0  0  0  0  0  0
   -1.0840    1.5926   -0.1860 C   0  0  0  0  0  0  0  0  0  0  0  0
    0.3312    1.5806   -0.3468 C   0  0  0  0  0  0  0  0  0  0  0  0
    1.1184    0.4405   -0.2202 C   0  0  0  0  0  0  0  0  0  0  0  0
    0.5553   -0.8232    0.0880 C   0  0  0  0  0  0  0  0  0  0  0  0
   -0.8059   -0.9247    0.2656 C   0  0  0  0  0  0  0  0  0  0  0  0
   -3.3765    4.3296   -0.4919 H   0  0  0  0  0  0  0  0  0  0  0  0
    0.8392    2.5159   -0.5855 H   0  0  0  0  0  0  0  0  0  0  0  0
    2.1963    0.5059   -0.3603 H   0  0  0  0  0  0  0  0  0  0  0  0
    1.1888   -1.6991    0.1829 H   0  0  0  0  0  0  0  0  0  0  0  0
   -1.2948   -1.8653    0.5046 H   0  0  0  0  0  0  0  0  0  0  0  0
   -5.6717    3.2024   -0.1197 B   0  0  0  0  0  0  0  0  0  0  0  0
   -5.2477    2.4585   -1.1377 F   0  0  0  0  0  0  0  0  0  0  0  0
   -4.2110    4.7410   -0.4516 F   0  0  0  0  0  0  0  0  0  0  0  0
   -6.7074    4.0075   -0.2764 F   0  0  0  0  0  0  0  0  0  0  0  0
   -5.2379    2.9061    1.1006 F   0  0  0  0  0  0  0  0  0  0  0  0
  1  8  1  0  0  0  0
  1  2  1  0  0  0  0
  2  3  1  0  0  0  0
  4  1  2  0  0  0  0
  5  6  2  0  0  0  0
  5  4  1  0  0  0  0
  6  7  1  0  0  0  0
  7 12  1  0  0  0  0
  7  8  2  0  0  0  0
  8 13  1  0  0  0  0
  9 16  1  0  0  0  0
 10  5  1  0  0  0  0
 11  6  1  0  0  0  0
 14 18  1  0  0  0  0
 15 14  1  0  0  0  0
 17 14  1  0  0  0  0
M  RAD  3   2   2   3   3   4   2
M  END
