Coordinates from ORCA-job PhN2+~BF4-_B3LYPG-6-31G_dp-CH-Scan-d09-49-n800
 OpenBabel11261919213D

 18 17  0  0  0  0  0  0  0  0999 V2000
   -1.9878    0.4917   -0.1156 C   0  0  0  0  0  0  0  0  0  0  0  0
   -3.3495    0.2402   -0.1743 N   0  0  0  0  0  0  0  0  0  0  0  0
   -4.4348    0.0030   -0.2573 N   0  0  0  0  0  0  0  0  0  0  0  0
   -1.5197    1.7610   -0.4880 C   0  0  0  0  0  0  0  0  0  0  0  0
   -0.1408    1.9464   -0.4448 C   0  0  0  0  0  0  0  0  0  0  0  0
    0.7089    0.9133   -0.0391 C   0  0  0  0  0  0  0  0  0  0  0  0
    0.2031   -0.3428    0.3280 C   0  0  0  0  0  0  0  0  0  0  0  0
   -1.1630   -0.5748    0.2903 C   0  0  0  0  0  0  0  0  0  0  0  0
   -2.3327    2.6358   -0.8042 H   0  0  0  0  0  0  0  0  0  0  0  0
    0.2707    2.9109   -0.7221 H   0  0  0  0  0  0  0  0  0  0  0  0
    1.7809    1.0843   -0.0044 H   0  0  0  0  0  0  0  0  0  0  0  0
    0.8743   -1.1348    0.6414 H   0  0  0  0  0  0  0  0  0  0  0  0
   -1.5897   -1.5324    0.5668 H   0  0  0  0  0  0  0  0  0  0  0  0
   -4.6629    3.0884    0.0168 B   0  0  0  0  0  0  0  0  0  0  0  0
   -5.5147    2.1011   -0.5358 F   0  0  0  0  0  0  0  0  0  0  0  0
   -3.7706    3.5242   -1.0198 F   0  0  0  0  0  0  0  0  0  0  0  0
   -5.3645    4.1425    0.5325 F   0  0  0  0  0  0  0  0  0  0  0  0
   -3.8611    2.4552    1.0048 F   0  0  0  0  0  0  0  0  0  0  0  0
  1  8  2  0  0  0  0
  2  1  1  0  0  0  0
  3  2  1  0  0  0  0
  4  5  2  0  0  0  0
  4  1  1  0  0  0  0
  5  6  1  0  0  0  0
  6 11  1  0  0  0  0
  6  7  2  0  0  0  0
  7 12  1  0  0  0  0
  8  7  1  0  0  0  0
  8 13  1  0  0  0  0
  9  4  1  0  0  0  0
 10  5  1  0  0  0  0
 14 17  1  0  0  0  0
 14 18  1  0  0  0  0
 15 14  1  0  0  0  0
 16 14  1  0  0  0  0
M  RAD  2   2   2   3   3
M  END
