Coordinates from ORCA-job PhN2+~BF4-_B3LYPG-6-31G_dp-CH-Scan-d09-49-n800
 OpenBabel11261919213D

 18 16  0  0  0  0  0  0  0  0999 V2000
   -1.7242    0.3542    0.1031 C   0  0  0  0  0  0  0  0  0  0  0  0
   -3.0906    0.1781    0.2730 N   0  0  0  0  0  0  0  0  0  0  0  0
   -4.1951    0.0728    0.4031 N   0  0  0  0  0  0  0  0  0  0  0  0
   -1.3421    1.6748   -0.1966 C   0  0  0  0  0  0  0  0  0  0  0  0
    0.0655    1.7545   -0.3529 C   0  0  0  0  0  0  0  0  0  0  0  0
    0.9190    0.6623   -0.2226 C   0  0  0  0  0  0  0  0  0  0  0  0
    0.4295   -0.6294    0.0825 C   0  0  0  0  0  0  0  0  0  0  0  0
   -0.9248   -0.8112    0.2543 C   0  0  0  0  0  0  0  0  0  0  0  0
   -2.9546    3.5689   -0.4136 H   0  0  0  0  0  0  0  0  0  0  0  0
    0.5124    2.7192   -0.5899 H   0  0  0  0  0  0  0  0  0  0  0  0
    1.9910    0.7933   -0.3580 H   0  0  0  0  0  0  0  0  0  0  0  0
    1.1112   -1.4678    0.1805 H   0  0  0  0  0  0  0  0  0  0  0  0
   -1.3558   -1.7797    0.4908 H   0  0  0  0  0  0  0  0  0  0  0  0
   -5.2995    3.1882   -0.1281 B   0  0  0  0  0  0  0  0  0  0  0  0
   -5.1746    2.3048   -1.1295 F   0  0  0  0  0  0  0  0  0  0  0  0
   -3.6834    4.1745   -0.4616 F   0  0  0  0  0  0  0  0  0  0  0  0
   -6.1478    4.2019   -0.2617 F   0  0  0  0  0  0  0  0  0  0  0  0
   -4.9899    2.7538    1.1021 F   0  0  0  0  0  0  0  0  0  0  0  0
  1  8  1  0  0  0  0
  1  2  1  0  0  0  0
  2  3  1  0  0  0  0
  4  1  2  0  0  0  0
  5  6  2  0  0  0  0
  5  4  1  0  0  0  0
  6  7  1  0  0  0  0
  7 12  1  0  0  0  0
  7  8  2  0  0  0  0
  8 13  1  0  0  0  0
 10  5  1  0  0  0  0
 11  6  1  0  0  0  0
 14 18  1  0  0  0  0
 15 14  1  0  0  0  0
 16  9  1  0  0  0  0
 17 14  1  0  0  0  0
M  RAD  3   2   2   3   3   4   2
M  END
