Coordinates from ORCA-job PhN2+~BF4-_B3LYPG-6-31G_dp-CH-Scan-d09-49-n800
 OpenBabel11261919213D

 18 16  0  0  0  0  0  0  0  0999 V2000
   -1.4980    0.2910    0.1169 C   0  0  0  0  0  0  0  0  0  0  0  0
   -2.8790    0.2371    0.2893 N   0  0  0  0  0  0  0  0  0  0  0  0
   -3.9910    0.2608    0.4128 N   0  0  0  0  0  0  0  0  0  0  0  0
   -1.0437    1.5852   -0.1851 C   0  0  0  0  0  0  0  0  0  0  0  0
    0.3714    1.5561   -0.3480 C   0  0  0  0  0  0  0  0  0  0  0  0
    1.1452    0.4068   -0.2224 C   0  0  0  0  0  0  0  0  0  0  0  0
    0.5678   -0.8502    0.0877 C   0  0  0  0  0  0  0  0  0  0  0  0
   -0.7941   -0.9355    0.2678 C   0  0  0  0  0  0  0  0  0  0  0  0
   -3.4546    4.4388   -0.4953 H   0  0  0  0  0  0  0  0  0  0  0  0
    0.8903    2.4851   -0.5881 H   0  0  0  0  0  0  0  0  0  0  0  0
    2.2237    0.4592   -0.3646 H   0  0  0  0  0  0  0  0  0  0  0  0
    1.1913   -1.7334    0.1822 H   0  0  0  0  0  0  0  0  0  0  0  0
   -1.2937   -1.8702    0.5084 H   0  0  0  0  0  0  0  0  0  0  0  0
   -5.7059    3.2009   -0.1224 B   0  0  0  0  0  0  0  0  0  0  0  0
   -5.2330    2.4835   -1.1373 F   0  0  0  0  0  0  0  0  0  0  0  0
   -4.3047    4.8133   -0.4375 F   0  0  0  0  0  0  0  0  0  0  0  0
   -6.7735    3.9601   -0.2914 F   0  0  0  0  0  0  0  0  0  0  0  0
   -5.2725    2.9247    1.1021 F   0  0  0  0  0  0  0  0  0  0  0  0
  1  8  1  0  0  0  0
  1  2  1  0  0  0  0
  2  3  1  0  0  0  0
  4  1  2  0  0  0  0
  5  6  2  0  0  0  0
  5  4  1  0  0  0  0
  6  7  1  0  0  0  0
  7 12  1  0  0  0  0
  7  8  2  0  0  0  0
  8 13  1  0  0  0  0
  9 16  1  0  0  0  0
 10  5  1  0  0  0  0
 11  6  1  0  0  0  0
 14 18  1  0  0  0  0
 15 14  1  0  0  0  0
 17 14  1  0  0  0  0
M  RAD  3   2   2   3   3   4   2
M  END
