Coordinates from ORCA-job PhN2+~BF4-_B3LYPG-6-31G_dp-CH-Scan-d09-49-n800
 OpenBabel11261919213D

 18 16  0  0  0  0  0  0  0  0999 V2000
   -1.4742    0.2705    0.1113 C   0  0  0  0  0  0  0  0  0  0  0  0
   -2.8534    0.2332    0.3048 N   0  0  0  0  0  0  0  0  0  0  0  0
   -3.9633    0.2746    0.4439 N   0  0  0  0  0  0  0  0  0  0  0  0
   -1.0225    1.5494   -0.2511 C   0  0  0  0  0  0  0  0  0  0  0  0
    0.3909    1.5080   -0.4316 C   0  0  0  0  0  0  0  0  0  0  0  0
    1.1629    0.3624   -0.2676 C   0  0  0  0  0  0  0  0  0  0  0  0
    0.5861   -0.8788    0.1032 C   0  0  0  0  0  0  0  0  0  0  0  0
   -0.7733   -0.9518    0.3052 C   0  0  0  0  0  0  0  0  0  0  0  0
   -3.6606    4.6145   -0.5335 H   0  0  0  0  0  0  0  0  0  0  0  0
    0.9097    2.4243   -0.7173 H   0  0  0  0  0  0  0  0  0  0  0  0
    2.2396    0.4049   -0.4258 H   0  0  0  0  0  0  0  0  0  0  0  0
    1.2087   -1.7591    0.2268 H   0  0  0  0  0  0  0  0  0  0  0  0
   -1.2726   -1.8736    0.5919 H   0  0  0  0  0  0  0  0  0  0  0  0
   -5.6987    3.2079   -0.1402 B   0  0  0  0  0  0  0  0  0  0  0  0
   -4.8668    2.6184   -1.0017 F   0  0  0  0  0  0  0  0  0  0  0  0
   -4.4092    4.9513   -0.0939 F   0  0  0  0  0  0  0  0  0  0  0  0
   -6.7667    3.8372   -0.5965 F   0  0  0  0  0  0  0  0  0  0  0  0
   -5.5907    2.9200    1.1471 F   0  0  0  0  0  0  0  0  0  0  0  0
  1  2  1  0  0  0  0
  1  8  1  0  0  0  0
  2  3  1  0  0  0  0
  4  1  2  0  0  0  0
  5  6  2  0  0  0  0
  5  4  1  0  0  0  0
  6  7  1  0  0  0  0
  7 12  1  0  0  0  0
  7  8  2  0  0  0  0
  8 13  1  0  0  0  0
  9 16  1  0  0  0  0
 10  5  1  0  0  0  0
 11  6  1  0  0  0  0
 14 18  1  0  0  0  0
 15 14  1  0  0  0  0
 17 14  1  0  0  0  0
M  RAD  3   2   2   3   3   4   2
M  END
