Coordinates from ORCA-job PhN2+~BF4-_B3LYPG-6-31G_dp-CH-Scan-d09-49-n800
 OpenBabel11261919213D

 18 16  0  0  0  0  0  0  0  0999 V2000
   -1.4582    0.2725    0.1097 C   0  0  0  0  0  0  0  0  0  0  0  0
   -2.8381    0.2470    0.3017 N   0  0  0  0  0  0  0  0  0  0  0  0
   -3.9479    0.2978    0.4389 N   0  0  0  0  0  0  0  0  0  0  0  0
   -0.9963    1.5470   -0.2547 C   0  0  0  0  0  0  0  0  0  0  0  0
    0.4169    1.4942   -0.4341 C   0  0  0  0  0  0  0  0  0  0  0  0
    1.1796    0.3429   -0.2675 C   0  0  0  0  0  0  0  0  0  0  0  0
    0.5928   -0.8931    0.1053 C   0  0  0  0  0  0  0  0  0  0  0  0
   -0.7674   -0.9550    0.3065 C   0  0  0  0  0  0  0  0  0  0  0  0
   -3.7118    4.6581   -0.5360 H   0  0  0  0  0  0  0  0  0  0  0  0
    0.9431    2.4059   -0.7212 H   0  0  0  0  0  0  0  0  0  0  0  0
    2.2568    0.3764   -0.4251 H   0  0  0  0  0  0  0  0  0  0  0  0
    1.2083   -1.7780    0.2309 H   0  0  0  0  0  0  0  0  0  0  0  0
   -1.2741   -1.8723    0.5946 H   0  0  0  0  0  0  0  0  0  0  0  0
   -5.7191    3.2098   -0.1396 B   0  0  0  0  0  0  0  0  0  0  0  0
   -4.8718    2.6415   -1.0004 F   0  0  0  0  0  0  0  0  0  0  0  0
   -4.4595    4.9784   -0.0830 F   0  0  0  0  0  0  0  0  0  0  0  0
   -6.7967    3.8210   -0.5978 F   0  0  0  0  0  0  0  0  0  0  0  0
   -5.6106    2.9191    1.1467 F   0  0  0  0  0  0  0  0  0  0  0  0
  1  2  1  0  0  0  0
  1  8  1  0  0  0  0
  2  3  1  0  0  0  0
  4  1  2  0  0  0  0
  5  6  2  0  0  0  0
  5  4  1  0  0  0  0
  6  7  1  0  0  0  0
  7 12  1  0  0  0  0
  7  8  2  0  0  0  0
  8 13  1  0  0  0  0
  9 16  1  0  0  0  0
 10  5  1  0  0  0  0
 11  6  1  0  0  0  0
 14 18  1  0  0  0  0
 15 14  1  0  0  0  0
 17 14  1  0  0  0  0
M  RAD  3   2   2   3   3   4   2
M  END
