Coordinates from ORCA-job PhN2+~BF4-_B3LYPG-6-31G_dp-CH-Scan-d09-49-n800
 OpenBabel11261919213D

 18 16  0  0  0  0  0  0  0  0999 V2000
   -1.4759    0.2711    0.1115 C   0  0  0  0  0  0  0  0  0  0  0  0
   -2.8550    0.2327    0.3054 N   0  0  0  0  0  0  0  0  0  0  0  0
   -3.9650    0.2722    0.4445 N   0  0  0  0  0  0  0  0  0  0  0  0
   -1.0247    1.5502   -0.2509 C   0  0  0  0  0  0  0  0  0  0  0  0
    0.3886    1.5095   -0.4316 C   0  0  0  0  0  0  0  0  0  0  0  0
    1.1612    0.3643   -0.2679 C   0  0  0  0  0  0  0  0  0  0  0  0
    0.5851   -0.8772    0.1030 C   0  0  0  0  0  0  0  0  0  0  0  0
   -0.7743   -0.9508    0.3052 C   0  0  0  0  0  0  0  0  0  0  0  0
   -3.6549    4.6091   -0.5318 H   0  0  0  0  0  0  0  0  0  0  0  0
    0.9069    2.4261   -0.7173 H   0  0  0  0  0  0  0  0  0  0  0  0
    2.2379    0.4073   -0.4262 H   0  0  0  0  0  0  0  0  0  0  0  0
    1.2081   -1.7572    0.2264 H   0  0  0  0  0  0  0  0  0  0  0  0
   -1.2730   -1.8729    0.5919 H   0  0  0  0  0  0  0  0  0  0  0  0
   -5.6965    3.2073   -0.1406 B   0  0  0  0  0  0  0  0  0  0  0  0
   -4.8659    2.6156   -1.0017 F   0  0  0  0  0  0  0  0  0  0  0  0
   -4.4040    4.9479   -0.0947 F   0  0  0  0  0  0  0  0  0  0  0  0
   -6.7633    3.8385   -0.5970 F   0  0  0  0  0  0  0  0  0  0  0  0
   -5.5891    2.9196    1.1469 F   0  0  0  0  0  0  0  0  0  0  0  0
  1  8  1  0  0  0  0
  1  2  1  0  0  0  0
  2  3  1  0  0  0  0
  4  1  2  0  0  0  0
  5  6  2  0  0  0  0
  5  4  1  0  0  0  0
  6  7  1  0  0  0  0
  7 12  1  0  0  0  0
  7  8  2  0  0  0  0
  8 13  1  0  0  0  0
  9 16  1  0  0  0  0
 10  5  1  0  0  0  0
 11  6  1  0  0  0  0
 14 18  1  0  0  0  0
 15 14  1  0  0  0  0
 17 14  1  0  0  0  0
M  RAD  3   2   2   3   3   4   2
M  END
