Coordinates from ORCA-job PhN2+~BF4-_B3LYPG-6-31G_dp-CH-Scan-d09-49-n800
 OpenBabel11261919213D

 18 16  0  0  0  0  0  0  0  0999 V2000
   -1.4603    0.2715    0.1101 C   0  0  0  0  0  0  0  0  0  0  0  0
   -2.8401    0.2446    0.3023 N   0  0  0  0  0  0  0  0  0  0  0  0
   -3.9499    0.2954    0.4394 N   0  0  0  0  0  0  0  0  0  0  0  0
   -1.0003    1.5467   -0.2542 C   0  0  0  0  0  0  0  0  0  0  0  0
    0.4130    1.4959   -0.4340 C   0  0  0  0  0  0  0  0  0  0  0  0
    1.1773    0.3455   -0.2677 C   0  0  0  0  0  0  0  0  0  0  0  0
    0.5922   -0.8913    0.1051 C   0  0  0  0  0  0  0  0  0  0  0  0
   -0.7679   -0.9552    0.3066 C   0  0  0  0  0  0  0  0  0  0  0  0
   -3.7055    4.6535   -0.5356 H   0  0  0  0  0  0  0  0  0  0  0  0
    0.9379    2.4083   -0.7210 H   0  0  0  0  0  0  0  0  0  0  0  0
    2.2543    0.3805   -0.4255 H   0  0  0  0  0  0  0  0  0  0  0  0
    1.2090   -1.7755    0.2305 H   0  0  0  0  0  0  0  0  0  0  0  0
   -1.2733   -1.8732    0.5947 H   0  0  0  0  0  0  0  0  0  0  0  0
   -5.7162    3.2096   -0.1399 B   0  0  0  0  0  0  0  0  0  0  0  0
   -4.8702    2.6393   -1.0005 F   0  0  0  0  0  0  0  0  0  0  0  0
   -4.4531    4.9755   -0.0837 F   0  0  0  0  0  0  0  0  0  0  0  0
   -6.7926    3.8230   -0.5982 F   0  0  0  0  0  0  0  0  0  0  0  0
   -5.6082    2.9191    1.1466 F   0  0  0  0  0  0  0  0  0  0  0  0
  1  2  1  0  0  0  0
  1  8  1  0  0  0  0
  2  3  1  0  0  0  0
  4  1  2  0  0  0  0
  5  6  2  0  0  0  0
  5  4  1  0  0  0  0
  6  7  1  0  0  0  0
  7 12  1  0  0  0  0
  7  8  2  0  0  0  0
  8 13  1  0  0  0  0
  9 16  1  0  0  0  0
 10  5  1  0  0  0  0
 11  6  1  0  0  0  0
 14 18  1  0  0  0  0
 15 14  1  0  0  0  0
 17 14  1  0  0  0  0
M  RAD  3   2   2   3   3   4   2
M  END
