Coordinates from ORCA-job PhN2+~BF4-_B3LYPG-6-31G_dp-CH-Scan-d09-49-n800
 OpenBabel11261919213D

 18 16  0  0  0  0  0  0  0  0999 V2000
   -1.9016    0.4195    0.0950 C   0  0  0  0  0  0  0  0  0  0  0  0
   -3.2556    0.1704    0.2631 N   0  0  0  0  0  0  0  0  0  0  0  0
   -4.3486   -0.0046    0.3914 N   0  0  0  0  0  0  0  0  0  0  0  0
   -1.5407    1.7454   -0.2085 C   0  0  0  0  0  0  0  0  0  0  0  0
   -0.1475    1.8910   -0.3635 C   0  0  0  0  0  0  0  0  0  0  0  0
    0.7468    0.8304   -0.2267 C   0  0  0  0  0  0  0  0  0  0  0  0
    0.3015   -0.4714    0.0809 C   0  0  0  0  0  0  0  0  0  0  0  0
   -1.0483   -0.7017    0.2490 C   0  0  0  0  0  0  0  0  0  0  0  0
   -2.6582    3.0124   -0.3586 H   0  0  0  0  0  0  0  0  0  0  0  0
    0.2511    2.8741   -0.6020 H   0  0  0  0  0  0  0  0  0  0  0  0
    1.8122    1.0027   -0.3595 H   0  0  0  0  0  0  0  0  0  0  0  0
    1.0097   -1.2864    0.1852 H   0  0  0  0  0  0  0  0  0  0  0  0
   -1.4415   -1.6849    0.4872 H   0  0  0  0  0  0  0  0  0  0  0  0
   -4.8604    3.1441   -0.1488 B   0  0  0  0  0  0  0  0  0  0  0  0
   -4.9726    2.1820   -1.1202 F   0  0  0  0  0  0  0  0  0  0  0  0
   -3.3947    3.7803   -0.4406 F   0  0  0  0  0  0  0  0  0  0  0  0
   -5.6930    4.1979   -0.2554 F   0  0  0  0  0  0  0  0  0  0  0  0
   -4.7125    2.6120    1.1070 F   0  0  0  0  0  0  0  0  0  0  0  0
  1  8  1  0  0  0  0
  1  2  1  0  0  0  0
  2  3  1  0  0  0  0
  4  1  2  0  0  0  0
  5  6  2  0  0  0  0
  5  4  1  0  0  0  0
  6  7  1  0  0  0  0
  7 12  1  0  0  0  0
  7  8  2  0  0  0  0
  8 13  1  0  0  0  0
 10  5  1  0  0  0  0
 11  6  1  0  0  0  0
 14 18  1  0  0  0  0
 15 14  1  0  0  0  0
 16  9  1  0  0  0  0
 17 14  1  0  0  0  0
M  RAD  3   2   2   3   3   4   2
M  END
