Coordinates from ORCA-job PhN2+~BF4-_B3LYPG-6-31G_dp-CH-Scan-d09-49-n800
 OpenBabel11261919213D

 18 16  0  0  0  0  0  0  0  0999 V2000
   -1.7577    0.3658    0.1068 C   0  0  0  0  0  0  0  0  0  0  0  0
   -3.1211    0.1742    0.2807 N   0  0  0  0  0  0  0  0  0  0  0  0
   -4.2233    0.0535    0.4136 N   0  0  0  0  0  0  0  0  0  0  0  0
   -1.3838    1.6889   -0.1931 C   0  0  0  0  0  0  0  0  0  0  0  0
    0.0213    1.7817   -0.3546 C   0  0  0  0  0  0  0  0  0  0  0  0
    0.8842    0.6961   -0.2286 C   0  0  0  0  0  0  0  0  0  0  0  0
    0.4058   -0.5989    0.0771 C   0  0  0  0  0  0  0  0  0  0  0  0
   -0.9466   -0.7915    0.2536 C   0  0  0  0  0  0  0  0  0  0  0  0
   -2.8975    3.4581   -0.3911 H   0  0  0  0  0  0  0  0  0  0  0  0
    0.4581    2.7505   -0.5923 H   0  0  0  0  0  0  0  0  0  0  0  0
    1.9543    0.8362   -0.3680 H   0  0  0  0  0  0  0  0  0  0  0  0
    1.0940   -1.4323    0.1719 H   0  0  0  0  0  0  0  0  0  0  0  0
   -1.3687   -1.7637    0.4906 H   0  0  0  0  0  0  0  0  0  0  0  0
   -5.2215    3.1816   -0.1369 B   0  0  0  0  0  0  0  0  0  0  0  0
   -5.1281    2.2809   -1.1312 F   0  0  0  0  0  0  0  0  0  0  0  0
   -3.6138    4.0900   -0.4447 F   0  0  0  0  0  0  0  0  0  0  0  0
   -6.0522    4.2114   -0.2806 F   0  0  0  0  0  0  0  0  0  0  0  0
   -4.9573    2.7305    1.1017 F   0  0  0  0  0  0  0  0  0  0  0  0
  1  8  1  0  0  0  0
  1  2  1  0  0  0  0
  2  3  1  0  0  0  0
  4  1  2  0  0  0  0
  5  6  2  0  0  0  0
  5  4  1  0  0  0  0
  6  7  1  0  0  0  0
  7 12  1  0  0  0  0
  7  8  2  0  0  0  0
  8 13  1  0  0  0  0
 10  5  1  0  0  0  0
 11  6  1  0  0  0  0
 14 18  1  0  0  0  0
 15 14  1  0  0  0  0
 16  9  1  0  0  0  0
 17 14  1  0  0  0  0
M  RAD  3   2   2   3   3   4   2
M  END
