Coordinates from ORCA-job PhN2+~BF4-_B3LYPG-6-31G_dp-CH-Scan-d09-49-n800
 OpenBabel11261919213D

 18 16  0  0  0  0  0  0  0  0999 V2000
   -1.6031    0.3122    0.1038 C   0  0  0  0  0  0  0  0  0  0  0  0
   -2.9788    0.1950    0.2680 N   0  0  0  0  0  0  0  0  0  0  0  0
   -4.0899    0.1562    0.3885 N   0  0  0  0  0  0  0  0  0  0  0  0
   -1.1907    1.6210   -0.2022 C   0  0  0  0  0  0  0  0  0  0  0  0
    0.2232    1.6491   -0.3553 C   0  0  0  0  0  0  0  0  0  0  0  0
    1.0410    0.5317   -0.2172 C   0  0  0  0  0  0  0  0  0  0  0  0
    0.5109   -0.7443    0.0953 C   0  0  0  0  0  0  0  0  0  0  0  0
   -0.8482   -0.8821    0.2655 C   0  0  0  0  0  0  0  0  0  0  0  0
   -3.1799    4.0202   -0.4669 H   0  0  0  0  0  0  0  0  0  0  0  0
    0.7050    2.5968   -0.5970 H   0  0  0  0  0  0  0  0  0  0  0  0
    2.1173    0.6266   -0.3513 H   0  0  0  0  0  0  0  0  0  0  0  0
    1.1670   -1.6022    0.1995 H   0  0  0  0  0  0  0  0  0  0  0  0
   -1.3116   -1.8347    0.5071 H   0  0  0  0  0  0  0  0  0  0  0  0
   -5.5517    3.1984   -0.1152 B   0  0  0  0  0  0  0  0  0  0  0  0
   -5.2590    2.4017   -1.1419 F   0  0  0  0  0  0  0  0  0  0  0  0
   -3.9683    4.5214   -0.4618 F   0  0  0  0  0  0  0  0  0  0  0  0
   -6.4985    4.1132   -0.2407 F   0  0  0  0  0  0  0  0  0  0  0  0
   -5.1385    2.8330    1.0967 F   0  0  0  0  0  0  0  0  0  0  0  0
  1  8  1  0  0  0  0
  1  2  1  0  0  0  0
  2  3  1  0  0  0  0
  4  1  2  0  0  0  0
  5  6  2  0  0  0  0
  5  4  1  0  0  0  0
  6  7  1  0  0  0  0
  7 12  1  0  0  0  0
  7  8  2  0  0  0  0
  8 13  1  0  0  0  0
  9 16  1  0  0  0  0
 10  5  1  0  0  0  0
 11  6  1  0  0  0  0
 14 18  1  0  0  0  0
 15 14  1  0  0  0  0
 17 14  1  0  0  0  0
M  RAD  3   2   2   3   3   4   2
M  END
