Coordinates from ORCA-job PhN2+~BF4-_B3LYPG-6-31G_dp-CH-Scan-d09-49-n800
 OpenBabel11261919213D

 18 16  0  0  0  0  0  0  0  0999 V2000
   -1.4915    0.2895    0.1175 C   0  0  0  0  0  0  0  0  0  0  0  0
   -2.8729    0.2404    0.2890 N   0  0  0  0  0  0  0  0  0  0  0  0
   -3.9845    0.2703    0.4146 N   0  0  0  0  0  0  0  0  0  0  0  0
   -1.0343    1.5828   -0.1839 C   0  0  0  0  0  0  0  0  0  0  0  0
    0.3807    1.5497   -0.3477 C   0  0  0  0  0  0  0  0  0  0  0  0
    1.1515    0.3983   -0.2226 C   0  0  0  0  0  0  0  0  0  0  0  0
    0.5708   -0.8573    0.0876 C   0  0  0  0  0  0  0  0  0  0  0  0
   -0.7912   -0.9390    0.2682 C   0  0  0  0  0  0  0  0  0  0  0  0
   -3.4765    4.4683   -0.5019 H   0  0  0  0  0  0  0  0  0  0  0  0
    0.9022    2.4774   -0.5878 H   0  0  0  0  0  0  0  0  0  0  0  0
    2.2300    0.4478   -0.3653 H   0  0  0  0  0  0  0  0  0  0  0  0
    1.1921   -1.7421    0.1815 H   0  0  0  0  0  0  0  0  0  0  0  0
   -1.2934   -1.8723    0.5085 H   0  0  0  0  0  0  0  0  0  0  0  0
   -5.7126    3.2001   -0.1223 B   0  0  0  0  0  0  0  0  0  0  0  0
   -5.2251    2.4915   -1.1364 F   0  0  0  0  0  0  0  0  0  0  0  0
   -4.3298    4.8332   -0.4325 F   0  0  0  0  0  0  0  0  0  0  0  0
   -6.7897    3.9449   -0.2949 F   0  0  0  0  0  0  0  0  0  0  0  0
   -5.2797    2.9296    1.1034 F   0  0  0  0  0  0  0  0  0  0  0  0
  1  8  1  0  0  0  0
  1  2  1  0  0  0  0
  2  3  1  0  0  0  0
  4  1  2  0  0  0  0
  5  6  2  0  0  0  0
  5  4  1  0  0  0  0
  6  7  1  0  0  0  0
  7 12  1  0  0  0  0
  7  8  2  0  0  0  0
  8 13  1  0  0  0  0
  9 16  1  0  0  0  0
 10  5  1  0  0  0  0
 11  6  1  0  0  0  0
 14 18  1  0  0  0  0
 15 14  1  0  0  0  0
 17 14  1  0  0  0  0
M  RAD  3   2   2   3   3   4   2
M  END
