Coordinates from ORCA-job PhN2+~BF4-_B3LYPG-6-31G_dp-CH-Scan-d09-49-n800
 OpenBabel11261919213D

 18 17  0  0  0  0  0  0  0  0999 V2000
   -1.9862    0.4770   -0.0773 C   0  0  0  0  0  0  0  0  0  0  0  0
   -3.3472    0.2194   -0.1052 N   0  0  0  0  0  0  0  0  0  0  0  0
   -4.4360   -0.0064   -0.1676 N   0  0  0  0  0  0  0  0  0  0  0  0
   -1.5346    1.7520   -0.4519 C   0  0  0  0  0  0  0  0  0  0  0  0
   -0.1541    1.9381   -0.4431 C   0  0  0  0  0  0  0  0  0  0  0  0
    0.7089    0.9037   -0.0712 C   0  0  0  0  0  0  0  0  0  0  0  0
    0.2169   -0.3573    0.3002 C   0  0  0  0  0  0  0  0  0  0  0  0
   -1.1485   -0.5917    0.2990 C   0  0  0  0  0  0  0  0  0  0  0  0
   -2.3866    2.6685   -0.7463 H   0  0  0  0  0  0  0  0  0  0  0  0
    0.2491    2.9054   -0.7232 H   0  0  0  0  0  0  0  0  0  0  0  0
    1.7814    1.0765   -0.0666 H   0  0  0  0  0  0  0  0  0  0  0  0
    0.8987   -1.1500    0.5878 H   0  0  0  0  0  0  0  0  0  0  0  0
   -1.5658   -1.5527    0.5786 H   0  0  0  0  0  0  0  0  0  0  0  0
   -4.6640    3.1077   -0.0075 B   0  0  0  0  0  0  0  0  0  0  0  0
   -5.4121    2.1178   -0.6859 F   0  0  0  0  0  0  0  0  0  0  0  0
   -3.6814    3.6160   -0.9364 F   0  0  0  0  0  0  0  0  0  0  0  0
   -5.4501    4.1219    0.4610 F   0  0  0  0  0  0  0  0  0  0  0  0
   -3.9422    2.4673    1.0307 F   0  0  0  0  0  0  0  0  0  0  0  0
  1  8  2  0  0  0  0
  2  1  1  0  0  0  0
  3  2  1  0  0  0  0
  4  5  2  0  0  0  0
  4  1  1  0  0  0  0
  5  6  1  0  0  0  0
  6 11  1  0  0  0  0
  6  7  2  0  0  0  0
  7 12  1  0  0  0  0
  8  7  1  0  0  0  0
  8 13  1  0  0  0  0
  9  4  1  0  0  0  0
 10  5  1  0  0  0  0
 14 17  1  0  0  0  0
 14 18  1  0  0  0  0
 15 14  1  0  0  0  0
 16 14  1  0  0  0  0
M  RAD  2   2   2   3   3
M  END
