Coordinates from ORCA-job PhN2+~BF4-_B3LYPG-6-31G_dp-CH-Scan-d09-49-n800
 OpenBabel11261919213D

 18 16  0  0  0  0  0  0  0  0999 V2000
   -1.7917    0.3740    0.0932 C   0  0  0  0  0  0  0  0  0  0  0  0
   -3.1536    0.1648    0.2554 N   0  0  0  0  0  0  0  0  0  0  0  0
   -4.2551    0.0306    0.3781 N   0  0  0  0  0  0  0  0  0  0  0  0
   -1.4257    1.6984   -0.2123 C   0  0  0  0  0  0  0  0  0  0  0  0
   -0.0216    1.8067   -0.3614 C   0  0  0  0  0  0  0  0  0  0  0  0
    0.8520    0.7314   -0.2193 C   0  0  0  0  0  0  0  0  0  0  0  0
    0.3845   -0.5657    0.0910 C   0  0  0  0  0  0  0  0  0  0  0  0
   -0.9677   -0.7715    0.2555 C   0  0  0  0  0  0  0  0  0  0  0  0
   -2.8447    3.3439   -0.4077 H   0  0  0  0  0  0  0  0  0  0  0  0
    0.4054    2.7788   -0.6018 H   0  0  0  0  0  0  0  0  0  0  0  0
    1.9217    0.8827   -0.3492 H   0  0  0  0  0  0  0  0  0  0  0  0
    1.0803   -1.3912    0.1986 H   0  0  0  0  0  0  0  0  0  0  0  0
   -1.3813   -1.7466    0.4953 H   0  0  0  0  0  0  0  0  0  0  0  0
   -5.1433    3.1771   -0.1245 B   0  0  0  0  0  0  0  0  0  0  0  0
   -5.1358    2.2712   -1.1231 F   0  0  0  0  0  0  0  0  0  0  0  0
   -3.5517    4.0012   -0.4692 F   0  0  0  0  0  0  0  0  0  0  0  0
   -5.9536    4.2310   -0.2296 F   0  0  0  0  0  0  0  0  0  0  0  0
   -4.8720    2.6965    1.1058 F   0  0  0  0  0  0  0  0  0  0  0  0
  1  2  1  0  0  0  0
  1  8  1  0  0  0  0
  2  3  1  0  0  0  0
  4  1  2  0  0  0  0
  5  6  2  0  0  0  0
  5  4  1  0  0  0  0
  6  7  1  0  0  0  0
  7 12  1  0  0  0  0
  7  8  2  0  0  0  0
  8 13  1  0  0  0  0
 10  5  1  0  0  0  0
 11  6  1  0  0  0  0
 14 18  1  0  0  0  0
 15 14  1  0  0  0  0
 16  9  1  0  0  0  0
 17 14  1  0  0  0  0
M  RAD  3   2   2   3   3   4   2
M  END
