Coordinates from ORCA-job PhN2+~BF4-_B3LYPG-6-31G_dp-CH-Scan-d09-49-n800
 OpenBabel11261919213D

 18 16  0  0  0  0  0  0  0  0999 V2000
   -1.8733    0.4053    0.0952 C   0  0  0  0  0  0  0  0  0  0  0  0
   -3.2289    0.1633    0.2623 N   0  0  0  0  0  0  0  0  0  0  0  0
   -4.3239   -0.0035    0.3898 N   0  0  0  0  0  0  0  0  0  0  0  0
   -1.5160    1.7326   -0.2079 C   0  0  0  0  0  0  0  0  0  0  0  0
   -0.1194    1.8699   -0.3621 C   0  0  0  0  0  0  0  0  0  0  0  0
    0.7719    0.8073   -0.2254 C   0  0  0  0  0  0  0  0  0  0  0  0
    0.3240   -0.4948    0.0824 C   0  0  0  0  0  0  0  0  0  0  0  0
   -1.0257   -0.7214    0.2502 C   0  0  0  0  0  0  0  0  0  0  0  0
   -2.7130    3.0959   -0.3668 H   0  0  0  0  0  0  0  0  0  0  0  0
    0.2857    2.8508   -0.6007 H   0  0  0  0  0  0  0  0  0  0  0  0
    1.8380    0.9765   -0.3582 H   0  0  0  0  0  0  0  0  0  0  0  0
    1.0310   -1.3109    0.1865 H   0  0  0  0  0  0  0  0  0  0  0  0
   -1.4223   -1.7034    0.4885 H   0  0  0  0  0  0  0  0  0  0  0  0
   -4.9320    3.1557   -0.1442 B   0  0  0  0  0  0  0  0  0  0  0  0
   -5.0172    2.2103   -1.1239 F   0  0  0  0  0  0  0  0  0  0  0  0
   -3.4271    3.8259   -0.4430 F   0  0  0  0  0  0  0  0  0  0  0  0
   -5.7455    4.2190   -0.2530 F   0  0  0  0  0  0  0  0  0  0  0  0
   -4.7602    2.6347    1.1053 F   0  0  0  0  0  0  0  0  0  0  0  0
  1  8  1  0  0  0  0
  1  2  1  0  0  0  0
  2  3  1  0  0  0  0
  4  1  2  0  0  0  0
  5  6  2  0  0  0  0
  5  4  1  0  0  0  0
  6  7  1  0  0  0  0
  7 12  1  0  0  0  0
  7  8  2  0  0  0  0
  8 13  1  0  0  0  0
 10  5  1  0  0  0  0
 11  6  1  0  0  0  0
 14 18  1  0  0  0  0
 15 14  1  0  0  0  0
 16  9  1  0  0  0  0
 17 14  1  0  0  0  0
M  RAD  3   2   2   3   3   4   2
M  END
