Coordinates from ORCA-job PhN2+~BF4-_B3LYPG-6-31G_dp-CH-Scan-d09-49-n800
 OpenBabel11261919213D

 18 16  0  0  0  0  0  0  0  0999 V2000
   -1.5896    0.3081    0.1059 C   0  0  0  0  0  0  0  0  0  0  0  0
   -2.9660    0.1984    0.2712 N   0  0  0  0  0  0  0  0  0  0  0  0
   -4.0773    0.1679    0.3938 N   0  0  0  0  0  0  0  0  0  0  0  0
   -1.1733    1.6158   -0.1988 C   0  0  0  0  0  0  0  0  0  0  0  0
    0.2409    1.6377   -0.3534 C   0  0  0  0  0  0  0  0  0  0  0  0
    1.0540    0.5166   -0.2176 C   0  0  0  0  0  0  0  0  0  0  0  0
    0.5190   -0.7578    0.0938 C   0  0  0  0  0  0  0  0  0  0  0  0
   -0.8404   -0.8901    0.2654 C   0  0  0  0  0  0  0  0  0  0  0  0
   -3.2104    4.0721   -0.4730 H   0  0  0  0  0  0  0  0  0  0  0  0
    0.7268    2.5836   -0.5944 H   0  0  0  0  0  0  0  0  0  0  0  0
    2.1307    0.6070   -0.3528 H   0  0  0  0  0  0  0  0  0  0  0  0
    1.1717   -1.6186    0.1959 H   0  0  0  0  0  0  0  0  0  0  0  0
   -1.3078   -1.8410    0.5062 H   0  0  0  0  0  0  0  0  0  0  0  0
   -5.5742    3.1996   -0.1159 B   0  0  0  0  0  0  0  0  0  0  0  0
   -5.2588    2.4110   -1.1418 F   0  0  0  0  0  0  0  0  0  0  0  0
   -4.0065    4.5600   -0.4602 F   0  0  0  0  0  0  0  0  0  0  0  0
   -6.5359    4.0975   -0.2465 F   0  0  0  0  0  0  0  0  0  0  0  0
   -5.1567    2.8455    1.0972 F   0  0  0  0  0  0  0  0  0  0  0  0
  1  8  1  0  0  0  0
  1  2  1  0  0  0  0
  2  3  1  0  0  0  0
  4  1  2  0  0  0  0
  5  6  2  0  0  0  0
  5  4  1  0  0  0  0
  6  7  1  0  0  0  0
  7 12  1  0  0  0  0
  7  8  2  0  0  0  0
  8 13  1  0  0  0  0
  9 16  1  0  0  0  0
 10  5  1  0  0  0  0
 11  6  1  0  0  0  0
 14 18  1  0  0  0  0
 15 14  1  0  0  0  0
 17 14  1  0  0  0  0
M  RAD  3   2   2   3   3   4   2
M  END
