Coordinates from ORCA-job PhN2+~BF4-_B3LYPG-6-31G_dp-CH-Scan-d09-49-n800
 OpenBabel11261919213D

 18 16  0  0  0  0  0  0  0  0999 V2000
   -1.7191    0.3521    0.1018 C   0  0  0  0  0  0  0  0  0  0  0  0
   -3.0860    0.1783    0.2701 N   0  0  0  0  0  0  0  0  0  0  0  0
   -4.1910    0.0755    0.3989 N   0  0  0  0  0  0  0  0  0  0  0  0
   -1.3359    1.6723   -0.1983 C   0  0  0  0  0  0  0  0  0  0  0  0
    0.0722    1.7502   -0.3530 C   0  0  0  0  0  0  0  0  0  0  0  0
    0.9244    0.6571   -0.2210 C   0  0  0  0  0  0  0  0  0  0  0  0
    0.4332   -0.6339    0.0844 C   0  0  0  0  0  0  0  0  0  0  0  0
   -0.9214   -0.8142    0.2547 C   0  0  0  0  0  0  0  0  0  0  0  0
   -2.9634    3.5862   -0.4189 H   0  0  0  0  0  0  0  0  0  0  0  0
    0.5206    2.7142   -0.5900 H   0  0  0  0  0  0  0  0  0  0  0  0
    1.9967    0.7869   -0.3552 H   0  0  0  0  0  0  0  0  0  0  0  0
    1.1140   -1.4729    0.1836 H   0  0  0  0  0  0  0  0  0  0  0  0
   -1.3537   -1.7822    0.4913 H   0  0  0  0  0  0  0  0  0  0  0  0
   -5.3115    3.1891   -0.1256 B   0  0  0  0  0  0  0  0  0  0  0  0
   -5.1841    2.3092   -1.1290 F   0  0  0  0  0  0  0  0  0  0  0  0
   -3.6942    4.1878   -0.4659 F   0  0  0  0  0  0  0  0  0  0  0  0
   -6.1624    4.2007   -0.2552 F   0  0  0  0  0  0  0  0  0  0  0  0
   -4.9922    2.7568    1.1023 F   0  0  0  0  0  0  0  0  0  0  0  0
  1  8  1  0  0  0  0
  1  2  1  0  0  0  0
  2  3  1  0  0  0  0
  4  1  2  0  0  0  0
  5  6  2  0  0  0  0
  5  4  1  0  0  0  0
  6  7  1  0  0  0  0
  7 12  1  0  0  0  0
  7  8  2  0  0  0  0
  8 13  1  0  0  0  0
 10  5  1  0  0  0  0
 11  6  1  0  0  0  0
 14 18  1  0  0  0  0
 15 14  1  0  0  0  0
 16  9  1  0  0  0  0
 17 14  1  0  0  0  0
M  RAD  3   2   2   3   3   4   2
M  END
