Coordinates from ORCA-job PhN2+~BF4-_B3LYPG-6-31G_dp-CH-Scan-d09-49-n800
 OpenBabel11261919213D

 18 16  0  0  0  0  0  0  0  0999 V2000
   -1.8124    0.3751    0.0684 C   0  0  0  0  0  0  0  0  0  0  0  0
   -3.1747    0.1528    0.2081 N   0  0  0  0  0  0  0  0  0  0  0  0
   -4.2762    0.0064    0.3125 N   0  0  0  0  0  0  0  0  0  0  0  0
   -1.4504    1.6994   -0.2427 C   0  0  0  0  0  0  0  0  0  0  0  0
   -0.0458    1.8208   -0.3663 C   0  0  0  0  0  0  0  0  0  0  0  0
    0.8350    0.7549   -0.1976 C   0  0  0  0  0  0  0  0  0  0  0  0
    0.3733   -0.5432    0.1151 C   0  0  0  0  0  0  0  0  0  0  0  0
   -0.9802   -0.7600    0.2560 C   0  0  0  0  0  0  0  0  0  0  0  0
   -2.8226    3.2696   -0.4590 H   0  0  0  0  0  0  0  0  0  0  0  0
    0.3757    2.7950   -0.6070 H   0  0  0  0  0  0  0  0  0  0  0  0
    1.9054    0.9154   -0.3080 H   0  0  0  0  0  0  0  0  0  0  0  0
    1.0740   -1.3614    0.2434 H   0  0  0  0  0  0  0  0  0  0  0  0
   -1.3890   -1.7367    0.4966 H   0  0  0  0  0  0  0  0  0  0  0  0
   -5.0923    3.1805   -0.0959 B   0  0  0  0  0  0  0  0  0  0  0  0
   -5.1893    2.2678   -1.0876 F   0  0  0  0  0  0  0  0  0  0  0  0
   -3.5282    3.9395   -0.5320 F   0  0  0  0  0  0  0  0  0  0  0  0
   -5.8857    4.2534   -0.1480 F   0  0  0  0  0  0  0  0  0  0  0  0
   -4.7705    2.6838    1.1191 F   0  0  0  0  0  0  0  0  0  0  0  0
  1  2  1  0  0  0  0
  1  8  2  0  0  0  0
  2  3  1  0  0  0  0
  4  1  1  0  0  0  0
  5  4  2  0  0  0  0
  5  6  1  0  0  0  0
  6  7  2  0  0  0  0
  7 12  1  0  0  0  0
  7  8  1  0  0  0  0
  8 13  1  0  0  0  0
 10  5  1  0  0  0  0
 11  6  1  0  0  0  0
 14 18  1  0  0  0  0
 15 14  1  0  0  0  0
 16  9  1  0  0  0  0
 17 14  1  0  0  0  0
M  RAD  3   2   2   3   3   4   2
M  END
