Coordinates from ORCA-job PhN2+~BF4-_B3LYPG-6-31G_dp-CH-Scan-d09-49-n800
 OpenBabel11261919213D

 18 16  0  0  0  0  0  0  0  0999 V2000
   -1.4808    0.2898    0.1165 C   0  0  0  0  0  0  0  0  0  0  0  0
   -2.8628    0.2478    0.2871 N   0  0  0  0  0  0  0  0  0  0  0  0
   -3.9743    0.2833    0.4131 N   0  0  0  0  0  0  0  0  0  0  0  0
   -1.0171    1.5801   -0.1863 C   0  0  0  0  0  0  0  0  0  0  0  0
    0.3979    1.5393   -0.3499 C   0  0  0  0  0  0  0  0  0  0  0  0
    1.1626    0.3841   -0.2227 C   0  0  0  0  0  0  0  0  0  0  0  0
    0.5754   -0.8680    0.0894 C   0  0  0  0  0  0  0  0  0  0  0  0
   -0.7872   -0.9423    0.2696 C   0  0  0  0  0  0  0  0  0  0  0  0
   -3.5126    4.5118   -0.5111 H   0  0  0  0  0  0  0  0  0  0  0  0
    0.9243    2.4639   -0.5912 H   0  0  0  0  0  0  0  0  0  0  0  0
    2.2415    0.4277   -0.3651 H   0  0  0  0  0  0  0  0  0  0  0  0
    1.1920   -1.7559    0.1849 H   0  0  0  0  0  0  0  0  0  0  0  0
   -1.2943   -1.8726    0.5112 H   0  0  0  0  0  0  0  0  0  0  0  0
   -5.7246    3.1992   -0.1217 B   0  0  0  0  0  0  0  0  0  0  0  0
   -5.2154    2.5063   -1.1360 F   0  0  0  0  0  0  0  0  0  0  0  0
   -4.3696    4.8625   -0.4195 F   0  0  0  0  0  0  0  0  0  0  0  0
   -6.8150    3.9232   -0.2987 F   0  0  0  0  0  0  0  0  0  0  0  0
   -5.2940    2.9330    1.1054 F   0  0  0  0  0  0  0  0  0  0  0  0
  1  8  1  0  0  0  0
  1  2  1  0  0  0  0
  2  3  1  0  0  0  0
  4  1  2  0  0  0  0
  5  6  2  0  0  0  0
  5  4  1  0  0  0  0
  6  7  1  0  0  0  0
  7 12  1  0  0  0  0
  7  8  2  0  0  0  0
  8 13  1  0  0  0  0
  9 16  1  0  0  0  0
 10  5  1  0  0  0  0
 11  6  1  0  0  0  0
 14 18  1  0  0  0  0
 15 14  1  0  0  0  0
 17 14  1  0  0  0  0
M  RAD  3   2   2   3   3   4   2
M  END
