Coordinates from ORCA-job PhN2+~BF4-_B3LYPG-6-31G_dp-CH-Scan-d09-49-n800
 OpenBabel11261919213D

 18 16  0  0  0  0  0  0  0  0999 V2000
   -1.6826    0.3372    0.0981 C   0  0  0  0  0  0  0  0  0  0  0  0
   -3.0530    0.1808    0.2603 N   0  0  0  0  0  0  0  0  0  0  0  0
   -4.1613    0.1025    0.3816 N   0  0  0  0  0  0  0  0  0  0  0  0
   -1.2921    1.6541   -0.2057 C   0  0  0  0  0  0  0  0  0  0  0  0
    0.1186    1.7183   -0.3556 C   0  0  0  0  0  0  0  0  0  0  0  0
    0.9615    0.6193   -0.2161 C   0  0  0  0  0  0  0  0  0  0  0  0
    0.4595   -0.6674    0.0932 C   0  0  0  0  0  0  0  0  0  0  0  0
   -0.8969   -0.8364    0.2594 C   0  0  0  0  0  0  0  0  0  0  0  0
   -3.0229    3.7157   -0.4422 H   0  0  0  0  0  0  0  0  0  0  0  0
    0.5768    2.6775   -0.5950 H   0  0  0  0  0  0  0  0  0  0  0  0
    2.0355    0.7398   -0.3469 H   0  0  0  0  0  0  0  0  0  0  0  0
    1.1339   -1.5108    0.1984 H   0  0  0  0  0  0  0  0  0  0  0  0
   -1.3382   -1.7998    0.4985 H   0  0  0  0  0  0  0  0  0  0  0  0
   -5.3972    3.1916   -0.1155 B   0  0  0  0  0  0  0  0  0  0  0  0
   -5.2286    2.3411   -1.1327 F   0  0  0  0  0  0  0  0  0  0  0  0
   -3.7677    4.2908   -0.4746 F   0  0  0  0  0  0  0  0  0  0  0  0
   -6.2697    4.1829   -0.2307 F   0  0  0  0  0  0  0  0  0  0  0  0
   -5.0295    2.7761    1.1003 F   0  0  0  0  0  0  0  0  0  0  0  0
  1  8  1  0  0  0  0
  1  2  1  0  0  0  0
  2  3  1  0  0  0  0
  4  1  2  0  0  0  0
  5  6  2  0  0  0  0
  5  4  1  0  0  0  0
  6  7  1  0  0  0  0
  7 12  1  0  0  0  0
  7  8  2  0  0  0  0
  8 13  1  0  0  0  0
 10  5  1  0  0  0  0
 11  6  1  0  0  0  0
 14 18  1  0  0  0  0
 15 14  1  0  0  0  0
 16  9  1  0  0  0  0
 17 14  1  0  0  0  0
M  RAD  3   2   2   3   3   4   2
M  END
