Coordinates from ORCA-job PhN2+~BF4-_B3LYPG-6-31G_dp-CH-Scan-d09-49-n800
 OpenBabel11261919213D

 18 16  0  0  0  0  0  0  0  0999 V2000
   -1.9544    0.4343   -0.0012 C   0  0  0  0  0  0  0  0  0  0  0  0
   -3.3124    0.1662    0.0669 N   0  0  0  0  0  0  0  0  0  0  0  0
   -4.4068   -0.0353    0.1020 N   0  0  0  0  0  0  0  0  0  0  0  0
   -1.5683    1.7410   -0.3470 C   0  0  0  0  0  0  0  0  0  0  0  0
   -0.1784    1.9170   -0.4101 C   0  0  0  0  0  0  0  0  0  0  0  0
    0.7161    0.8787   -0.1478 C   0  0  0  0  0  0  0  0  0  0  0  0
    0.2631   -0.4087    0.1960 C   0  0  0  0  0  0  0  0  0  0  0  0
   -1.0943   -0.6541    0.2747 C   0  0  0  0  0  0  0  0  0  0  0  0
   -2.5737    2.8326   -0.5700 H   0  0  0  0  0  0  0  0  0  0  0  0
    0.2137    2.8963   -0.6693 H   0  0  0  0  0  0  0  0  0  0  0  0
    1.7858    1.0622   -0.2074 H   0  0  0  0  0  0  0  0  0  0  0  0
    0.9704   -1.2055    0.3989 H   0  0  0  0  0  0  0  0  0  0  0  0
   -1.4889   -1.6304    0.5361 H   0  0  0  0  0  0  0  0  0  0  0  0
   -4.7295    3.1346   -0.0537 B   0  0  0  0  0  0  0  0  0  0  0  0
   -5.1881    2.1762   -0.9484 F   0  0  0  0  0  0  0  0  0  0  0  0
   -3.4426    3.6804   -0.6863 F   0  0  0  0  0  0  0  0  0  0  0  0
   -5.5618    4.1913    0.1156 F   0  0  0  0  0  0  0  0  0  0  0  0
   -4.3038    2.5362    1.1259 F   0  0  0  0  0  0  0  0  0  0  0  0
  1  2  1  0  0  0  0
  1  8  2  0  0  0  0
  2  3  1  0  0  0  0
  4  1  1  0  0  0  0
  5  4  2  0  0  0  0
  5  6  1  0  0  0  0
  6  7  2  0  0  0  0
  7  8  1  0  0  0  0
  7 12  1  0  0  0  0
  8 13  1  0  0  0  0
 10  5  1  0  0  0  0
 11  6  1  0  0  0  0
 14 17  1  0  0  0  0
 14 18  1  0  0  0  0
 15 14  1  0  0  0  0
 16  9  1  0  0  0  0
M  RAD  3   2   2   3   3   4   2
M  END
