Coordinates from ORCA-job PhN2+~BF4-_B3LYPG-6-31G_dp-CH-Scan-d09-49-n800
 OpenBabel11261919213D

 18 17  0  0  0  0  0  0  0  0999 V2000
   -2.1327    0.4810   -0.2101 C   0  0  0  0  0  0  0  0  0  0  0  0
   -3.4773    0.1517   -0.2580 N   0  0  0  0  0  0  0  0  0  0  0  0
   -4.5162   -0.2376   -0.2993 N   0  0  0  0  0  0  0  0  0  0  0  0
   -1.6865    1.6626   -0.8204 C   0  0  0  0  0  0  0  0  0  0  0  0
   -0.3172    1.9053   -0.7731 C   0  0  0  0  0  0  0  0  0  0  0  0
    0.5481    1.0109   -0.1393 C   0  0  0  0  0  0  0  0  0  0  0  0
    0.0652   -0.1583    0.4660 C   0  0  0  0  0  0  0  0  0  0  0  0
   -1.2909   -0.4429    0.4374 C   0  0  0  0  0  0  0  0  0  0  0  0
   -2.3554    2.3011   -1.2392 H   0  0  0  0  0  0  0  0  0  0  0  0
    0.0673    2.8142   -1.2224 H   0  0  0  0  0  0  0  0  0  0  0  0
    1.6120    1.2257   -0.1075 H   0  0  0  0  0  0  0  0  0  0  0  0
    0.7459   -0.8425    0.9604 H   0  0  0  0  0  0  0  0  0  0  0  0
   -1.6995   -1.3346    0.8989 H   0  0  0  0  0  0  0  0  0  0  0  0
   -4.3042    3.0732    0.2355 B   0  0  0  0  0  0  0  0  0  0  0  0
   -4.4258    2.3773   -1.0252 F   0  0  0  0  0  0  0  0  0  0  0  0
   -3.1537    3.8707    0.1575 F   0  0  0  0  0  0  0  0  0  0  0  0
   -5.4393    3.7955    0.4977 F   0  0  0  0  0  0  0  0  0  0  0  0
   -4.0936    2.0602    1.2162 F   0  0  0  0  0  0  0  0  0  0  0  0
  1  8  2  0  0  0  0
  2  1  1  0  0  0  0
  3  2  1  0  0  0  0
  4  5  2  0  0  0  0
  4  1  1  0  0  0  0
  5  6  1  0  0  0  0
  6 11  1  0  0  0  0
  6  7  2  0  0  0  0
  7 12  1  0  0  0  0
  8  7  1  0  0  0  0
  8 13  1  0  0  0  0
  9  4  1  0  0  0  0
 10  5  1  0  0  0  0
 14 17  1  0  0  0  0
 14 18  1  0  0  0  0
 15 14  1  0  0  0  0
 16 14  1  0  0  0  0
M  RAD  2   2   2   3   3
M  END
