Coordinates from ORCA-job PhN2+~BF4-_B3LYPG-6-31G_dp-CH-Scan-d09-49-n800
 OpenBabel11261919213D

 18 16  0  0  0  0  0  0  0  0999 V2000
   -1.4797    0.2709    0.1120 C   0  0  0  0  0  0  0  0  0  0  0  0
   -2.8587    0.2300    0.3064 N   0  0  0  0  0  0  0  0  0  0  0  0
   -3.9686    0.2679    0.4463 N   0  0  0  0  0  0  0  0  0  0  0  0
   -1.0308    1.5509   -0.2500 C   0  0  0  0  0  0  0  0  0  0  0  0
    0.3825    1.5128   -0.4311 C   0  0  0  0  0  0  0  0  0  0  0  0
    1.1572    0.3688   -0.2681 C   0  0  0  0  0  0  0  0  0  0  0  0
    0.5833   -0.8738    0.1023 C   0  0  0  0  0  0  0  0  0  0  0  0
   -0.7760   -0.9499    0.3049 C   0  0  0  0  0  0  0  0  0  0  0  0
   -3.6430    4.5988   -0.5304 H   0  0  0  0  0  0  0  0  0  0  0  0
    0.8991    2.4304   -0.7166 H   0  0  0  0  0  0  0  0  0  0  0  0
    2.2337    0.4137   -0.4268 H   0  0  0  0  0  0  0  0  0  0  0  0
    1.2078   -1.7529    0.2251 H   0  0  0  0  0  0  0  0  0  0  0  0
   -1.2730   -1.8730    0.5914 H   0  0  0  0  0  0  0  0  0  0  0  0
   -5.6912    3.2063   -0.1410 B   0  0  0  0  0  0  0  0  0  0  0  0
   -4.8634    2.6102   -1.0017 F   0  0  0  0  0  0  0  0  0  0  0  0
   -4.3925    4.9415   -0.0968 F   0  0  0  0  0  0  0  0  0  0  0  0
   -6.7558    3.8411   -0.5977 F   0  0  0  0  0  0  0  0  0  0  0  0
   -5.5847    2.9194    1.1467 F   0  0  0  0  0  0  0  0  0  0  0  0
  1  8  1  0  0  0  0
  1  2  1  0  0  0  0
  2  3  1  0  0  0  0
  4  1  2  0  0  0  0
  5  6  2  0  0  0  0
  5  4  1  0  0  0  0
  6  7  1  0  0  0  0
  7 12  1  0  0  0  0
  7  8  2  0  0  0  0
  8 13  1  0  0  0  0
  9 16  1  0  0  0  0
 10  5  1  0  0  0  0
 11  6  1  0  0  0  0
 14 18  1  0  0  0  0
 15 14  1  0  0  0  0
 17 14  1  0  0  0  0
M  RAD  3   2   2   3   3   4   2
M  END
