Coordinates from ORCA-job PhN2+~BF4-_B3LYPG-6-31G_dp-CH-Scan-d09-49-n800
 OpenBabel11261919213D

 18 16  0  0  0  0  0  0  0  0999 V2000
   -1.4246    0.2797    0.1221 C   0  0  0  0  0  0  0  0  0  0  0  0
   -2.8037    0.2813    0.3241 N   0  0  0  0  0  0  0  0  0  0  0  0
   -3.9114    0.3563    0.4677 N   0  0  0  0  0  0  0  0  0  0  0  0
   -0.9424    1.5466   -0.2414 C   0  0  0  0  0  0  0  0  0  0  0  0
    0.4681    1.4680   -0.4336 C   0  0  0  0  0  0  0  0  0  0  0  0
    1.2100    0.3016   -0.2786 C   0  0  0  0  0  0  0  0  0  0  0  0
    0.6031   -0.9246    0.0950 C   0  0  0  0  0  0  0  0  0  0  0  0
   -0.7561   -0.9617    0.3084 C   0  0  0  0  0  0  0  0  0  0  0  0
   -3.8164    4.7454   -0.5195 H   0  0  0  0  0  0  0  0  0  0  0  0
    1.0089    2.3707   -0.7218 H   0  0  0  0  0  0  0  0  0  0  0  0
    2.2861    0.3150   -0.4462 H   0  0  0  0  0  0  0  0  0  0  0  0
    1.2030   -1.8215    0.2116 H   0  0  0  0  0  0  0  0  0  0  0  0
   -1.2777   -1.8703    0.5975 H   0  0  0  0  0  0  0  0  0  0  0  0
   -5.7561    3.2092   -0.1533 B   0  0  0  0  0  0  0  0  0  0  0  0
   -4.8534    2.6875   -0.9872 F   0  0  0  0  0  0  0  0  0  0  0  0
   -4.5715    5.0367   -0.0591 F   0  0  0  0  0  0  0  0  0  0  0  0
   -6.8448    3.7715   -0.6460 F   0  0  0  0  0  0  0  0  0  0  0  0
   -5.6750    2.9219    1.1353 F   0  0  0  0  0  0  0  0  0  0  0  0
  1  8  1  0  0  0  0
  1  2  1  0  0  0  0
  2  3  1  0  0  0  0
  4  1  2  0  0  0  0
  5  6  2  0  0  0  0
  5  4  1  0  0  0  0
  6  7  1  0  0  0  0
  7 12  1  0  0  0  0
  7  8  2  0  0  0  0
  8 13  1  0  0  0  0
  9 16  1  0  0  0  0
 10  5  1  0  0  0  0
 11  6  1  0  0  0  0
 14 18  1  0  0  0  0
 15 14  1  0  0  0  0
 17 14  1  0  0  0  0
M  RAD  3   2   2   3   3   4   2
M  END
