Coordinates from ORCA-job PhN2+~BF4-_B3LYPG-6-31G_dp-CH-Scan-d09-49-n800
 OpenBabel11261919213D

 18 16  0  0  0  0  0  0  0  0999 V2000
   -1.7324    0.3574    0.1051 C   0  0  0  0  0  0  0  0  0  0  0  0
   -3.0980    0.1777    0.2771 N   0  0  0  0  0  0  0  0  0  0  0  0
   -4.2018    0.0683    0.4090 N   0  0  0  0  0  0  0  0  0  0  0  0
   -1.3523    1.6787   -0.1943 C   0  0  0  0  0  0  0  0  0  0  0  0
    0.0546    1.7615   -0.3530 C   0  0  0  0  0  0  0  0  0  0  0  0
    0.9103    0.6705   -0.2250 C   0  0  0  0  0  0  0  0  0  0  0  0
    0.4234   -0.6220    0.0799 C   0  0  0  0  0  0  0  0  0  0  0  0
   -0.9303   -0.8063    0.2538 C   0  0  0  0  0  0  0  0  0  0  0  0
   -2.9405    3.5413   -0.4056 H   0  0  0  0  0  0  0  0  0  0  0  0
    0.4991    2.7272   -0.5899 H   0  0  0  0  0  0  0  0  0  0  0  0
    1.9817    0.8036   -0.3622 H   0  0  0  0  0  0  0  0  0  0  0  0
    1.1066   -1.4594    0.1760 H   0  0  0  0  0  0  0  0  0  0  0  0
   -1.3591   -1.7758    0.4902 H   0  0  0  0  0  0  0  0  0  0  0  0
   -5.2800    3.1866   -0.1317 B   0  0  0  0  0  0  0  0  0  0  0  0
   -5.1598    2.2979   -1.1303 F   0  0  0  0  0  0  0  0  0  0  0  0
   -3.6661    4.1534   -0.4549 F   0  0  0  0  0  0  0  0  0  0  0  0
   -6.1242    4.2038   -0.2710 F   0  0  0  0  0  0  0  0  0  0  0  0
   -4.9853    2.7488    1.1018 F   0  0  0  0  0  0  0  0  0  0  0  0
  1  8  1  0  0  0  0
  1  2  1  0  0  0  0
  2  3  1  0  0  0  0
  4  1  2  0  0  0  0
  5  6  2  0  0  0  0
  5  4  1  0  0  0  0
  6  7  1  0  0  0  0
  7 12  1  0  0  0  0
  7  8  2  0  0  0  0
  8 13  1  0  0  0  0
 10  5  1  0  0  0  0
 11  6  1  0  0  0  0
 14 18  1  0  0  0  0
 15 14  1  0  0  0  0
 16  9  1  0  0  0  0
 17 14  1  0  0  0  0
M  RAD  3   2   2   3   3   4   2
M  END
