Coordinates from ORCA-job PhN2+~BF4-_B3LYPG-6-31G_dp-CH-Scan-d09-49-n800
 OpenBabel11261919213D

 18 16  0  0  0  0  0  0  0  0999 V2000
   -1.4897    0.2904    0.1172 C   0  0  0  0  0  0  0  0  0  0  0  0
   -2.8713    0.2422    0.2884 N   0  0  0  0  0  0  0  0  0  0  0  0
   -3.9829    0.2722    0.4147 N   0  0  0  0  0  0  0  0  0  0  0  0
   -1.0309    1.5830   -0.1839 C   0  0  0  0  0  0  0  0  0  0  0  0
    0.3841    1.5483   -0.3476 C   0  0  0  0  0  0  0  0  0  0  0  0
    1.1535    0.3960   -0.2224 C   0  0  0  0  0  0  0  0  0  0  0  0
    0.5713   -0.8589    0.0877 C   0  0  0  0  0  0  0  0  0  0  0  0
   -0.7908   -0.9390    0.2680 C   0  0  0  0  0  0  0  0  0  0  0  0
   -3.4819    4.4740   -0.5036 H   0  0  0  0  0  0  0  0  0  0  0  0
    0.9067    2.4754   -0.5876 H   0  0  0  0  0  0  0  0  0  0  0  0
    2.2321    0.4442   -0.3649 H   0  0  0  0  0  0  0  0  0  0  0  0
    1.1915   -1.7445    0.1816 H   0  0  0  0  0  0  0  0  0  0  0  0
   -1.2941   -1.8718    0.5082 H   0  0  0  0  0  0  0  0  0  0  0  0
   -5.7149    3.1998   -0.1219 B   0  0  0  0  0  0  0  0  0  0  0  0
   -5.2253    2.4928   -1.1361 F   0  0  0  0  0  0  0  0  0  0  0  0
   -4.3359    4.8369   -0.4319 F   0  0  0  0  0  0  0  0  0  0  0  0
   -6.7938    3.9420   -0.2947 F   0  0  0  0  0  0  0  0  0  0  0  0
   -5.2815    2.9303    1.1038 F   0  0  0  0  0  0  0  0  0  0  0  0
  1  8  1  0  0  0  0
  1  2  1  0  0  0  0
  2  3  1  0  0  0  0
  4  1  2  0  0  0  0
  5  6  2  0  0  0  0
  5  4  1  0  0  0  0
  6  7  1  0  0  0  0
  7 12  1  0  0  0  0
  7  8  2  0  0  0  0
  8 13  1  0  0  0  0
  9 16  1  0  0  0  0
 10  5  1  0  0  0  0
 11  6  1  0  0  0  0
 14 18  1  0  0  0  0
 15 14  1  0  0  0  0
 17 14  1  0  0  0  0
M  RAD  3   2   2   3   3   4   2
M  END
