Coordinates from ORCA-job PhN2+~BF4-_B3LYPG-6-31G_dp-CH-Scan-d09-49-n800
 OpenBabel11261919213D

 18 16  0  0  0  0  0  0  0  0999 V2000
   -1.4384    0.2769    0.1170 C   0  0  0  0  0  0  0  0  0  0  0  0
   -2.8181    0.2678    0.3145 N   0  0  0  0  0  0  0  0  0  0  0  0
   -3.9264    0.3347    0.4567 N   0  0  0  0  0  0  0  0  0  0  0  0
   -0.9643    1.5471   -0.2458 C   0  0  0  0  0  0  0  0  0  0  0  0
    0.4474    1.4790   -0.4327 C   0  0  0  0  0  0  0  0  0  0  0  0
    1.1977    0.3184   -0.2736 C   0  0  0  0  0  0  0  0  0  0  0  0
    0.5986   -0.9120    0.0986 C   0  0  0  0  0  0  0  0  0  0  0  0
   -0.7611   -0.9591    0.3068 C   0  0  0  0  0  0  0  0  0  0  0  0
   -3.7752    4.7076   -0.5294 H   0  0  0  0  0  0  0  0  0  0  0  0
    0.9825    2.3855   -0.7196 H   0  0  0  0  0  0  0  0  0  0  0  0
    2.2742    0.3399   -0.4370 H   0  0  0  0  0  0  0  0  0  0  0  0
    1.2048   -1.8042    0.2183 H   0  0  0  0  0  0  0  0  0  0  0  0
   -1.2768   -1.8715    0.5947 H   0  0  0  0  0  0  0  0  0  0  0  0
   -5.7407    3.2090   -0.1468 B   0  0  0  0  0  0  0  0  0  0  0  0
   -4.8596    2.6695   -0.9923 F   0  0  0  0  0  0  0  0  0  0  0  0
   -4.5250    5.0140   -0.0704 F   0  0  0  0  0  0  0  0  0  0  0  0
   -6.8266    3.7890   -0.6252 F   0  0  0  0  0  0  0  0  0  0  0  0
   -5.6469    2.9216    1.1411 F   0  0  0  0  0  0  0  0  0  0  0  0
  1  8  1  0  0  0  0
  1  2  1  0  0  0  0
  2  3  1  0  0  0  0
  4  1  2  0  0  0  0
  5  6  2  0  0  0  0
  5  4  1  0  0  0  0
  6  7  1  0  0  0  0
  7 12  1  0  0  0  0
  7  8  2  0  0  0  0
  8 13  1  0  0  0  0
  9 16  1  0  0  0  0
 10  5  1  0  0  0  0
 11  6  1  0  0  0  0
 14 18  1  0  0  0  0
 15 14  1  0  0  0  0
 17 14  1  0  0  0  0
M  RAD  3   2   2   3   3   4   2
M  END
