Coordinates from ORCA-job PhN2+~BF4-_B3LYPG-6-31G_dp-CH-Scan-d09-49-n800
 OpenBabel11261919213D

 18 16  0  0  0  0  0  0  0  0999 V2000
   -1.4277    0.2788    0.1212 C   0  0  0  0  0  0  0  0  0  0  0  0
   -2.8069    0.2782    0.3222 N   0  0  0  0  0  0  0  0  0  0  0  0
   -3.9147    0.3519    0.4657 N   0  0  0  0  0  0  0  0  0  0  0  0
   -0.9474    1.5465   -0.2422 C   0  0  0  0  0  0  0  0  0  0  0  0
    0.4633    1.4704   -0.4334 C   0  0  0  0  0  0  0  0  0  0  0  0
    1.2072    0.3053   -0.2776 C   0  0  0  0  0  0  0  0  0  0  0  0
    0.6021   -0.9219    0.0957 C   0  0  0  0  0  0  0  0  0  0  0  0
   -0.7572   -0.9613    0.3081 C   0  0  0  0  0  0  0  0  0  0  0  0
   -3.8075    4.7376   -0.5215 H   0  0  0  0  0  0  0  0  0  0  0  0
    1.0027    2.3740   -0.7214 H   0  0  0  0  0  0  0  0  0  0  0  0
    2.2834    0.3206   -0.4444 H   0  0  0  0  0  0  0  0  0  0  0  0
    1.2035   -1.8177    0.2129 H   0  0  0  0  0  0  0  0  0  0  0  0
   -1.2773   -1.8708    0.5970 H   0  0  0  0  0  0  0  0  0  0  0  0
   -5.7525    3.2090   -0.1521 B   0  0  0  0  0  0  0  0  0  0  0  0
   -4.8540    2.6837   -0.9881 F   0  0  0  0  0  0  0  0  0  0  0  0
   -4.5614    5.0319   -0.0613 F   0  0  0  0  0  0  0  0  0  0  0  0
   -6.8405    3.7750   -0.6420 F   0  0  0  0  0  0  0  0  0  0  0  0
   -5.6690    2.9218    1.1365 F   0  0  0  0  0  0  0  0  0  0  0  0
  1  8  1  0  0  0  0
  1  2  1  0  0  0  0
  2  3  1  0  0  0  0
  4  1  2  0  0  0  0
  5  6  2  0  0  0  0
  5  4  1  0  0  0  0
  6  7  1  0  0  0  0
  7 12  1  0  0  0  0
  7  8  2  0  0  0  0
  8 13  1  0  0  0  0
  9 16  1  0  0  0  0
 10  5  1  0  0  0  0
 11  6  1  0  0  0  0
 14 18  1  0  0  0  0
 15 14  1  0  0  0  0
 17 14  1  0  0  0  0
M  RAD  3   2   2   3   3   4   2
M  END
