Coordinates from ORCA-job PhN2+~BF4-_B3LYPG-6-31G_dp-CH-Scan-d09-49-n800
 OpenBabel11261919213D

 18 16  0  0  0  0  0  0  0  0999 V2000
   -1.7344    0.3582    0.1055 C   0  0  0  0  0  0  0  0  0  0  0  0
   -3.0998    0.1776    0.2779 N   0  0  0  0  0  0  0  0  0  0  0  0
   -4.2035    0.0672    0.4102 N   0  0  0  0  0  0  0  0  0  0  0  0
   -1.3548    1.6797   -0.1938 C   0  0  0  0  0  0  0  0  0  0  0  0
    0.0519    1.7632   -0.3530 C   0  0  0  0  0  0  0  0  0  0  0  0
    0.9081    0.6726   -0.2256 C   0  0  0  0  0  0  0  0  0  0  0  0
    0.4219   -0.6202    0.0793 C   0  0  0  0  0  0  0  0  0  0  0  0
   -0.9316   -0.8050    0.2537 C   0  0  0  0  0  0  0  0  0  0  0  0
   -2.9370    3.5344   -0.4037 H   0  0  0  0  0  0  0  0  0  0  0  0
    0.4958    2.7292   -0.5899 H   0  0  0  0  0  0  0  0  0  0  0  0
    1.9794    0.8062   -0.3631 H   0  0  0  0  0  0  0  0  0  0  0  0
    1.1055   -1.4573    0.1750 H   0  0  0  0  0  0  0  0  0  0  0  0
   -1.3599   -1.7747    0.4901 H   0  0  0  0  0  0  0  0  0  0  0  0
   -5.2752    3.1862   -0.1325 B   0  0  0  0  0  0  0  0  0  0  0  0
   -5.1564    2.2962   -1.1305 F   0  0  0  0  0  0  0  0  0  0  0  0
   -3.6618    4.1481   -0.4535 F   0  0  0  0  0  0  0  0  0  0  0  0
   -6.1183    4.2043   -0.2730 F   0  0  0  0  0  0  0  0  0  0  0  0
   -4.9838    2.7475    1.1018 F   0  0  0  0  0  0  0  0  0  0  0  0
  1  8  1  0  0  0  0
  1  2  1  0  0  0  0
  2  3  1  0  0  0  0
  4  1  2  0  0  0  0
  5  6  2  0  0  0  0
  5  4  1  0  0  0  0
  6  7  1  0  0  0  0
  7 12  1  0  0  0  0
  7  8  2  0  0  0  0
  8 13  1  0  0  0  0
 10  5  1  0  0  0  0
 11  6  1  0  0  0  0
 14 18  1  0  0  0  0
 15 14  1  0  0  0  0
 16  9  1  0  0  0  0
 17 14  1  0  0  0  0
M  RAD  3   2   2   3   3   4   2
M  END
