Coordinates from ORCA-job PhN2+~BF4-_B3LYPG-6-31G_dp-CH-Scan-d09-49-n800
 OpenBabel11261919213D

 18 16  0  0  0  0  0  0  0  0999 V2000
   -1.3458    0.2983    0.1466 C   0  0  0  0  0  0  0  0  0  0  0  0
   -2.7206    0.3618    0.3700 N   0  0  0  0  0  0  0  0  0  0  0  0
   -3.8210    0.4898    0.5330 N   0  0  0  0  0  0  0  0  0  0  0  0
   -0.8127    1.5484   -0.2011 C   0  0  0  0  0  0  0  0  0  0  0  0
    0.5899    1.4106   -0.4168 C   0  0  0  0  0  0  0  0  0  0  0  0
    1.2800    0.2091   -0.2946 C   0  0  0  0  0  0  0  0  0  0  0  0
    0.6235   -0.9954    0.0662 C   0  0  0  0  0  0  0  0  0  0  0  0
   -0.7327   -0.9755    0.3002 C   0  0  0  0  0  0  0  0  0  0  0  0
   -4.0553    4.9224   -0.5103 H   0  0  0  0  0  0  0  0  0  0  0  0
    1.1667    2.2934   -0.6968 H   0  0  0  0  0  0  0  0  0  0  0  0
    2.3530    0.1766   -0.4789 H   0  0  0  0  0  0  0  0  0  0  0  0
    1.1841   -1.9204    0.1570 H   0  0  0  0  0  0  0  0  0  0  0  0
   -1.2906   -1.8649    0.5811 H   0  0  0  0  0  0  0  0  0  0  0  0
   -5.8427    3.2134   -0.1740 B   0  0  0  0  0  0  0  0  0  0  0  0
   -4.8546    2.7844   -0.9629 F   0  0  0  0  0  0  0  0  0  0  0  0
   -4.8267    5.1508   -0.0419 F   0  0  0  0  0  0  0  0  0  0  0  0
   -6.9538    3.6726   -0.7198 F   0  0  0  0  0  0  0  0  0  0  0  0
   -5.7948    2.9380    1.1182 F   0  0  0  0  0  0  0  0  0  0  0  0
  1  8  1  0  0  0  0
  1  2  1  0  0  0  0
  2  3  1  0  0  0  0
  4  1  2  0  0  0  0
  5  6  2  0  0  0  0
  5  4  1  0  0  0  0
  6  7  1  0  0  0  0
  7 12  1  0  0  0  0
  7  8  2  0  0  0  0
  8 13  1  0  0  0  0
  9 16  1  0  0  0  0
 10  5  1  0  0  0  0
 11  6  1  0  0  0  0
 14 18  1  0  0  0  0
 15 14  1  0  0  0  0
 17 14  1  0  0  0  0
M  RAD  3   2   2   3   3   4   2
M  END
