Coordinates from ORCA-job PhN2+~BF4-_B3LYPG-6-31G_dp-CH-Scan-d09-49-n800
 OpenBabel11261919213D

 18 17  0  0  0  0  0  0  0  0999 V2000
   -1.9904    0.5627   -0.1833 C   0  0  0  0  0  0  0  0  0  0  0  0
   -3.3555    0.3377   -0.2936 N   0  0  0  0  0  0  0  0  0  0  0  0
   -4.4304    0.0623   -0.3941 N   0  0  0  0  0  0  0  0  0  0  0  0
   -1.4767    1.8283   -0.5013 C   0  0  0  0  0  0  0  0  0  0  0  0
   -0.0978    1.9828   -0.3993 C   0  0  0  0  0  0  0  0  0  0  0  0
    0.7131    0.9213    0.0129 C   0  0  0  0  0  0  0  0  0  0  0  0
    0.1646   -0.3306    0.3235 C   0  0  0  0  0  0  0  0  0  0  0  0
   -1.2046   -0.5304    0.2231 C   0  0  0  0  0  0  0  0  0  0  0  0
   -2.1641    2.6174   -0.8070 H   0  0  0  0  0  0  0  0  0  0  0  0
    0.3430    2.9452   -0.6357 H   0  0  0  0  0  0  0  0  0  0  0  0
    1.7858    1.0676    0.0962 H   0  0  0  0  0  0  0  0  0  0  0  0
    0.8037   -1.1465    0.6426 H   0  0  0  0  0  0  0  0  0  0  0  0
   -1.6624   -1.4849    0.4574 H   0  0  0  0  0  0  0  0  0  0  0  0
   -4.6793    3.0124    0.0587 B   0  0  0  0  0  0  0  0  0  0  0  0
   -5.6953    2.0401   -0.1119 F   0  0  0  0  0  0  0  0  0  0  0  0
   -3.9744    3.1146   -1.1781 F   0  0  0  0  0  0  0  0  0  0  0  0
   -5.1808    4.2219    0.4559 F   0  0  0  0  0  0  0  0  0  0  0  0
   -3.7524    2.4912    1.0090 F   0  0  0  0  0  0  0  0  0  0  0  0
  1  8  2  0  0  0  0
  2  1  1  0  0  0  0
  3  2  1  0  0  0  0
  4  5  2  0  0  0  0
  4  1  1  0  0  0  0
  5  6  1  0  0  0  0
  6 11  1  0  0  0  0
  6  7  2  0  0  0  0
  7 12  1  0  0  0  0
  8  7  1  0  0  0  0
  8 13  1  0  0  0  0
  9  4  1  0  0  0  0
 10  5  1  0  0  0  0
 14 17  1  0  0  0  0
 14 18  1  0  0  0  0
 15 14  1  0  0  0  0
 16 14  1  0  0  0  0
M  RAD  2   2   2   3   3
M  END
