Coordinates from ORCA-job PhN2+~BF4-_B3LYPG-6-31G_dp-CH-Scan-d09-49-n800
 OpenBabel11261919213D

 18 17  0  0  0  0  0  0  0  0999 V2000
   -2.1240    0.4769   -0.1970 C   0  0  0  0  0  0  0  0  0  0  0  0
   -3.4698    0.1530   -0.2384 N   0  0  0  0  0  0  0  0  0  0  0  0
   -4.5132   -0.2243   -0.2772 N   0  0  0  0  0  0  0  0  0  0  0  0
   -1.6788    1.6629   -0.7992 C   0  0  0  0  0  0  0  0  0  0  0  0
   -0.3088    1.9025   -0.7601 C   0  0  0  0  0  0  0  0  0  0  0  0
    0.5588    0.9990   -0.1421 C   0  0  0  0  0  0  0  0  0  0  0  0
    0.0775   -0.1750    0.4554 C   0  0  0  0  0  0  0  0  0  0  0  0
   -1.2797   -0.4557    0.4348 C   0  0  0  0  0  0  0  0  0  0  0  0
   -2.3780    2.3325   -1.2189 H   0  0  0  0  0  0  0  0  0  0  0  0
    0.0749    2.8145   -1.2036 H   0  0  0  0  0  0  0  0  0  0  0  0
    1.6235    1.2104   -0.1169 H   0  0  0  0  0  0  0  0  0  0  0  0
    0.7603   -0.8659    0.9373 H   0  0  0  0  0  0  0  0  0  0  0  0
   -1.6868   -1.3511    0.8904 H   0  0  0  0  0  0  0  0  0  0  0  0
   -4.3234    3.0845    0.2215 B   0  0  0  0  0  0  0  0  0  0  0  0
   -4.4310    2.3763   -1.0341 F   0  0  0  0  0  0  0  0  0  0  0  0
   -3.1862    3.8998    0.1375 F   0  0  0  0  0  0  0  0  0  0  0  0
   -5.4709    3.7902    0.4754 F   0  0  0  0  0  0  0  0  0  0  0  0
   -4.0983    2.0829    1.2103 F   0  0  0  0  0  0  0  0  0  0  0  0
  1  8  2  0  0  0  0
  2  1  1  0  0  0  0
  3  2  1  0  0  0  0
  4  5  2  0  0  0  0
  4  1  1  0  0  0  0
  5  6  1  0  0  0  0
  6 11  1  0  0  0  0
  6  7  2  0  0  0  0
  7 12  1  0  0  0  0
  8  7  1  0  0  0  0
  8 13  1  0  0  0  0
  9  4  1  0  0  0  0
 10  5  1  0  0  0  0
 14 17  1  0  0  0  0
 14 18  1  0  0  0  0
 15 14  1  0  0  0  0
 16 14  1  0  0  0  0
M  RAD  2   2   2   3   3
M  END
