Coordinates from ORCA-job PhN2+~BF4-_B3LYPG-6-31G_dp-CH-Scan-d09-49-n800
 OpenBabel11261919213D

 18 17  0  0  0  0  0  0  0  0999 V2000
   -2.1388    0.4837   -0.2168 C   0  0  0  0  0  0  0  0  0  0  0  0
   -3.4824    0.1503   -0.2668 N   0  0  0  0  0  0  0  0  0  0  0  0
   -4.5189   -0.2451   -0.3100 N   0  0  0  0  0  0  0  0  0  0  0  0
   -1.6936    1.6641   -0.8300 C   0  0  0  0  0  0  0  0  0  0  0  0
   -0.3244    1.9087   -0.7787 C   0  0  0  0  0  0  0  0  0  0  0  0
    0.5408    1.0192   -0.1384 C   0  0  0  0  0  0  0  0  0  0  0  0
    0.0581   -0.1485    0.4699 C   0  0  0  0  0  0  0  0  0  0  0  0
   -1.2974   -0.4356    0.4373 C   0  0  0  0  0  0  0  0  0  0  0  0
   -2.3325    2.2756   -1.2407 H   0  0  0  0  0  0  0  0  0  0  0  0
    0.0591    2.8169   -1.2302 H   0  0  0  0  0  0  0  0  0  0  0  0
    1.6039    1.2366   -0.1037 H   0  0  0  0  0  0  0  0  0  0  0  0
    0.7382   -0.8295    0.9696 H   0  0  0  0  0  0  0  0  0  0  0  0
   -1.7061   -1.3260    0.9012 H   0  0  0  0  0  0  0  0  0  0  0  0
   -4.2927    3.0662    0.2412 B   0  0  0  0  0  0  0  0  0  0  0  0
   -4.4235    2.3750   -1.0202 F   0  0  0  0  0  0  0  0  0  0  0  0
   -3.1317    3.8496    0.1656 F   0  0  0  0  0  0  0  0  0  0  0  0
   -5.4179    3.8031    0.5057 F   0  0  0  0  0  0  0  0  0  0  0  0
   -4.0941    2.0488    1.2201 F   0  0  0  0  0  0  0  0  0  0  0  0
  1  8  2  0  0  0  0
  2  1  1  0  0  0  0
  3  2  1  0  0  0  0
  4  5  2  0  0  0  0
  4  1  1  0  0  0  0
  5  6  1  0  0  0  0
  6 11  1  0  0  0  0
  6  7  2  0  0  0  0
  7 12  1  0  0  0  0
  8  7  1  0  0  0  0
  8 13  1  0  0  0  0
  9  4  1  0  0  0  0
 10  5  1  0  0  0  0
 14 17  1  0  0  0  0
 14 18  1  0  0  0  0
 15 14  1  0  0  0  0
 16 14  1  0  0  0  0
M  RAD  2   2   2   3   3
M  END
