Coordinates from ORCA-job PhN2+~BF4-_B3LYPG-6-31G_dp-CH-Scan-d09-49-n800
 OpenBabel11261919213D

 18 16  0  0  0  0  0  0  0  0999 V2000
   -1.4497    0.2735    0.1101 C   0  0  0  0  0  0  0  0  0  0  0  0
   -2.8298    0.2547    0.3023 N   0  0  0  0  0  0  0  0  0  0  0  0
   -3.9394    0.3114    0.4385 N   0  0  0  0  0  0  0  0  0  0  0  0
   -0.9828    1.5457   -0.2553 C   0  0  0  0  0  0  0  0  0  0  0  0
    0.4301    1.4870   -0.4354 C   0  0  0  0  0  0  0  0  0  0  0  0
    1.1880    0.3325   -0.2684 C   0  0  0  0  0  0  0  0  0  0  0  0
    0.5961   -0.9008    0.1055 C   0  0  0  0  0  0  0  0  0  0  0  0
   -0.7642   -0.9569    0.3075 C   0  0  0  0  0  0  0  0  0  0  0  0
   -3.7388    4.6815   -0.5348 H   0  0  0  0  0  0  0  0  0  0  0  0
    0.9600    2.3963   -0.7233 H   0  0  0  0  0  0  0  0  0  0  0  0
    2.2652    0.3613   -0.4267 H   0  0  0  0  0  0  0  0  0  0  0  0
    1.2081   -1.7882    0.2314 H   0  0  0  0  0  0  0  0  0  0  0  0
   -1.2747   -1.8719    0.5964 H   0  0  0  0  0  0  0  0  0  0  0  0
   -5.7293    3.2104   -0.1407 B   0  0  0  0  0  0  0  0  0  0  0  0
   -4.8717    2.6541   -0.9991 F   0  0  0  0  0  0  0  0  0  0  0  0
   -4.4869    4.9931   -0.0764 F   0  0  0  0  0  0  0  0  0  0  0  0
   -6.8113    3.8111   -0.6023 F   0  0  0  0  0  0  0  0  0  0  0  0
   -5.6228    2.9186    1.1455 F   0  0  0  0  0  0  0  0  0  0  0  0
  1  2  1  0  0  0  0
  1  8  1  0  0  0  0
  2  3  1  0  0  0  0
  4  1  2  0  0  0  0
  5  6  2  0  0  0  0
  5  4  1  0  0  0  0
  6  7  1  0  0  0  0
  7 12  1  0  0  0  0
  7  8  2  0  0  0  0
  8 13  1  0  0  0  0
  9 16  1  0  0  0  0
 10  5  1  0  0  0  0
 11  6  1  0  0  0  0
 14 18  1  0  0  0  0
 15 14  1  0  0  0  0
 17 14  1  0  0  0  0
M  RAD  3   2   2   3   3   4   2
M  END
