Coordinates from ORCA-job PhN2+~BF4-_B3LYPG-6-31G_dp-CH-Scan-d09-49-n800
 OpenBabel11261919213D

 18 16  0  0  0  0  0  0  0  0999 V2000
   -1.5166    0.2937    0.1145 C   0  0  0  0  0  0  0  0  0  0  0  0
   -2.8969    0.2267    0.2857 N   0  0  0  0  0  0  0  0  0  0  0  0
   -4.0089    0.2374    0.4096 N   0  0  0  0  0  0  0  0  0  0  0  0
   -1.0711    1.5913   -0.1865 C   0  0  0  0  0  0  0  0  0  0  0  0
    0.3441    1.5737   -0.3472 C   0  0  0  0  0  0  0  0  0  0  0  0
    1.1269    0.4306   -0.2205 C   0  0  0  0  0  0  0  0  0  0  0  0
    0.5589   -0.8309    0.0882 C   0  0  0  0  0  0  0  0  0  0  0  0
   -0.8026   -0.9269    0.2660 C   0  0  0  0  0  0  0  0  0  0  0  0
   -3.3985    4.3581   -0.4920 H   0  0  0  0  0  0  0  0  0  0  0  0
    0.8558    2.5070   -0.5862 H   0  0  0  0  0  0  0  0  0  0  0  0
    2.2051    0.4917   -0.3607 H   0  0  0  0  0  0  0  0  0  0  0  0
    1.1891   -1.7092    0.1835 H   0  0  0  0  0  0  0  0  0  0  0  0
   -1.2950   -1.8656    0.5054 H   0  0  0  0  0  0  0  0  0  0  0  0
   -5.6832    3.2027   -0.1201 B   0  0  0  0  0  0  0  0  0  0  0  0
   -5.2484    2.4649   -1.1378 F   0  0  0  0  0  0  0  0  0  0  0  0
   -4.2373    4.7599   -0.4489 F   0  0  0  0  0  0  0  0  0  0  0  0
   -6.7268    3.9971   -0.2787 F   0  0  0  0  0  0  0  0  0  0  0  0
   -5.2484    2.9110    1.1008 F   0  0  0  0  0  0  0  0  0  0  0  0
  1  8  1  0  0  0  0
  1  2  1  0  0  0  0
  2  3  1  0  0  0  0
  4  1  2  0  0  0  0
  5  6  2  0  0  0  0
  5  4  1  0  0  0  0
  6  7  1  0  0  0  0
  7 12  1  0  0  0  0
  7  8  2  0  0  0  0
  8 13  1  0  0  0  0
  9 16  1  0  0  0  0
 10  5  1  0  0  0  0
 11  6  1  0  0  0  0
 14 18  1  0  0  0  0
 15 14  1  0  0  0  0
 17 14  1  0  0  0  0
M  RAD  3   2   2   3   3   4   2
M  END
