Coordinates from ORCA-job PhN2+~BF4-_B3LYPG-6-31G_dp-CH-Scan-d09-49-n800
 OpenBabel11261919213D

 18 16  0  0  0  0  0  0  0  0999 V2000
   -1.6067    0.3132    0.1033 C   0  0  0  0  0  0  0  0  0  0  0  0
   -2.9821    0.1940    0.2672 N   0  0  0  0  0  0  0  0  0  0  0  0
   -4.0932    0.1531    0.3874 N   0  0  0  0  0  0  0  0  0  0  0  0
   -1.1954    1.6223   -0.2029 C   0  0  0  0  0  0  0  0  0  0  0  0
    0.2184    1.6523   -0.3556 C   0  0  0  0  0  0  0  0  0  0  0  0
    1.0374    0.5357   -0.2169 C   0  0  0  0  0  0  0  0  0  0  0  0
    0.5087   -0.7407    0.0956 C   0  0  0  0  0  0  0  0  0  0  0  0
   -0.8502   -0.8801    0.2654 C   0  0  0  0  0  0  0  0  0  0  0  0
   -3.1719    4.0062   -0.4657 H   0  0  0  0  0  0  0  0  0  0  0  0
    0.6991    2.6005   -0.5973 H   0  0  0  0  0  0  0  0  0  0  0  0
    2.1137    0.6320   -0.3507 H   0  0  0  0  0  0  0  0  0  0  0  0
    1.1658   -1.5979    0.2002 H   0  0  0  0  0  0  0  0  0  0  0  0
   -1.3126   -1.8331    0.5070 H   0  0  0  0  0  0  0  0  0  0  0  0
   -5.5455    3.1982   -0.1149 B   0  0  0  0  0  0  0  0  0  0  0  0
   -5.2593    2.3991   -1.1417 F   0  0  0  0  0  0  0  0  0  0  0  0
   -3.9583    4.5110   -0.4627 F   0  0  0  0  0  0  0  0  0  0  0  0
   -6.4884    4.1174   -0.2390 F   0  0  0  0  0  0  0  0  0  0  0  0
   -5.1334    2.8300    1.0966 F   0  0  0  0  0  0  0  0  0  0  0  0
  1  8  1  0  0  0  0
  1  2  1  0  0  0  0
  2  3  1  0  0  0  0
  4  1  2  0  0  0  0
  5  6  2  0  0  0  0
  5  4  1  0  0  0  0
  6  7  1  0  0  0  0
  7 12  1  0  0  0  0
  7  8  2  0  0  0  0
  8 13  1  0  0  0  0
  9 16  1  0  0  0  0
 10  5  1  0  0  0  0
 11  6  1  0  0  0  0
 14 18  1  0  0  0  0
 15 14  1  0  0  0  0
 17 14  1  0  0  0  0
M  RAD  3   2   2   3   3   4   2
M  END
