Coordinates from ORCA-job PhN2+~BF4-_B3LYPG-6-31G_dp-CH-Scan-d09-49-n800
 OpenBabel11261919213D

 18 16  0  0  0  0  0  0  0  0999 V2000
   -1.3637    0.2939    0.1446 C   0  0  0  0  0  0  0  0  0  0  0  0
   -2.7391    0.3435    0.3669 N   0  0  0  0  0  0  0  0  0  0  0  0
   -3.8409    0.4596    0.5285 N   0  0  0  0  0  0  0  0  0  0  0  0
   -0.8430    1.5481   -0.2082 C   0  0  0  0  0  0  0  0  0  0  0  0
    0.5610    1.4235   -0.4226 C   0  0  0  0  0  0  0  0  0  0  0  0
    1.2634    0.2296   -0.2950 C   0  0  0  0  0  0  0  0  0  0  0  0
    0.6190   -0.9800    0.0706 C   0  0  0  0  0  0  0  0  0  0  0  0
   -0.7374   -0.9729    0.3039 C   0  0  0  0  0  0  0  0  0  0  0  0
   -4.0003    4.8869   -0.5021 H   0  0  0  0  0  0  0  0  0  0  0  0
    1.1290    2.3109   -0.7061 H   0  0  0  0  0  0  0  0  0  0  0  0
    2.3367    0.2075   -0.4786 H   0  0  0  0  0  0  0  0  0  0  0  0
    1.1890   -1.8987    0.1657 H   0  0  0  0  0  0  0  0  0  0  0  0
   -1.2863   -1.8667    0.5882 H   0  0  0  0  0  0  0  0  0  0  0  0
   -5.8223    3.2113   -0.1746 B   0  0  0  0  0  0  0  0  0  0  0  0
   -4.8435    2.7631   -0.9643 F   0  0  0  0  0  0  0  0  0  0  0  0
   -4.7714    5.1278   -0.0397 F   0  0  0  0  0  0  0  0  0  0  0  0
   -6.9247    3.6924   -0.7195 F   0  0  0  0  0  0  0  0  0  0  0  0
   -5.7794    2.9334    1.1173 F   0  0  0  0  0  0  0  0  0  0  0  0
  1  8  1  0  0  0  0
  1  2  1  0  0  0  0
  2  3  1  0  0  0  0
  4  1  2  0  0  0  0
  5  6  2  0  0  0  0
  5  4  1  0  0  0  0
  6  7  1  0  0  0  0
  7 12  1  0  0  0  0
  7  8  2  0  0  0  0
  8 13  1  0  0  0  0
  9 16  1  0  0  0  0
 10  5  1  0  0  0  0
 11  6  1  0  0  0  0
 14 18  1  0  0  0  0
 15 14  1  0  0  0  0
 17 14  1  0  0  0  0
M  RAD  3   2   2   3   3   4   2
M  END
