Coordinates from ORCA-job PhN2+~BF4-_B3LYPG-6-31G_dp-CH-Scan-d09-49-n800
 OpenBabel11261919213D

 18 16  0  0  0  0  0  0  0  0999 V2000
   -1.8413    0.3862    0.0692 C   0  0  0  0  0  0  0  0  0  0  0  0
   -3.2011    0.1519    0.2111 N   0  0  0  0  0  0  0  0  0  0  0  0
   -4.3003   -0.0066    0.3174 N   0  0  0  0  0  0  0  0  0  0  0  0
   -1.4829    1.7115   -0.2418 C   0  0  0  0  0  0  0  0  0  0  0  0
   -0.0807    1.8427   -0.3679 C   0  0  0  0  0  0  0  0  0  0  0  0
    0.8064    0.7815   -0.2007 C   0  0  0  0  0  0  0  0  0  0  0  0
    0.3519   -0.5182    0.1122 C   0  0  0  0  0  0  0  0  0  0  0  0
   -1.0006   -0.7423    0.2548 C   0  0  0  0  0  0  0  0  0  0  0  0
   -2.7773    3.1848   -0.4418 H   0  0  0  0  0  0  0  0  0  0  0  0
    0.3331    2.8199   -0.6088 H   0  0  0  0  0  0  0  0  0  0  0  0
    1.8755    0.9483   -0.3126 H   0  0  0  0  0  0  0  0  0  0  0  0
    1.0567   -1.3330    0.2397 H   0  0  0  0  0  0  0  0  0  0  0  0
   -1.4033   -1.7214    0.4958 H   0  0  0  0  0  0  0  0  0  0  0  0
   -5.0181    3.1722   -0.1044 B   0  0  0  0  0  0  0  0  0  0  0  0
   -5.1440    2.2470   -1.0885 F   0  0  0  0  0  0  0  0  0  0  0  0
   -3.4829    3.8784   -0.5194 F   0  0  0  0  0  0  0  0  0  0  0  0
   -5.8122    4.2486   -0.1590 F   0  0  0  0  0  0  0  0  0  0  0  0
   -4.7327    2.6616    1.1197 F   0  0  0  0  0  0  0  0  0  0  0  0
  1  2  1  0  0  0  0
  1  8  2  0  0  0  0
  2  3  1  0  0  0  0
  4  1  1  0  0  0  0
  5  4  2  0  0  0  0
  5  6  1  0  0  0  0
  6  7  2  0  0  0  0
  7 12  1  0  0  0  0
  7  8  1  0  0  0  0
  8 13  1  0  0  0  0
 10  5  1  0  0  0  0
 11  6  1  0  0  0  0
 14 18  1  0  0  0  0
 15 14  1  0  0  0  0
 16  9  1  0  0  0  0
 17 14  1  0  0  0  0
M  RAD  3   2   2   3   3   4   2
M  END
