Coordinates from ORCA-job PhN2+~BF4-_B3LYPG-6-31G_dp-CH-Scan-d09-49-n800
 OpenBabel11261919213D

 18 16  0  0  0  0  0  0  0  0999 V2000
   -1.5603    0.3014    0.1104 C   0  0  0  0  0  0  0  0  0  0  0  0
   -2.9384    0.2088    0.2794 N   0  0  0  0  0  0  0  0  0  0  0  0
   -4.0500    0.1960    0.4038 N   0  0  0  0  0  0  0  0  0  0  0  0
   -1.1330    1.6055   -0.1921 C   0  0  0  0  0  0  0  0  0  0  0  0
    0.2817    1.6120   -0.3500 C   0  0  0  0  0  0  0  0  0  0  0  0
    1.0832    0.4822   -0.2193 C   0  0  0  0  0  0  0  0  0  0  0  0
    0.5355   -0.7876    0.0902 C   0  0  0  0  0  0  0  0  0  0  0  0
   -0.8247   -0.9059    0.2651 C   0  0  0  0  0  0  0  0  0  0  0  0
   -3.2828    4.1885   -0.4816 H   0  0  0  0  0  0  0  0  0  0  0  0
    0.7777    2.5533   -0.5897 H   0  0  0  0  0  0  0  0  0  0  0  0
    2.1605    0.5613   -0.3572 H   0  0  0  0  0  0  0  0  0  0  0  0
    1.1796   -1.6554    0.1883 H   0  0  0  0  0  0  0  0  0  0  0  0
   -1.3017   -1.8523    0.5049 H   0  0  0  0  0  0  0  0  0  0  0  0
   -5.6205    3.2002   -0.1181 B   0  0  0  0  0  0  0  0  0  0  0  0
   -5.2524    2.4309   -1.1399 F   0  0  0  0  0  0  0  0  0  0  0  0
   -4.0958    4.6441   -0.4555 F   0  0  0  0  0  0  0  0  0  0  0  0
   -6.6165    4.0569   -0.2625 F   0  0  0  0  0  0  0  0  0  0  0  0
   -5.1960    2.8732    1.0988 F   0  0  0  0  0  0  0  0  0  0  0  0
  1  8  1  0  0  0  0
  1  2  1  0  0  0  0
  2  3  1  0  0  0  0
  4  1  2  0  0  0  0
  5  6  2  0  0  0  0
  5  4  1  0  0  0  0
  6  7  1  0  0  0  0
  7 12  1  0  0  0  0
  7  8  2  0  0  0  0
  8 13  1  0  0  0  0
  9 16  1  0  0  0  0
 10  5  1  0  0  0  0
 11  6  1  0  0  0  0
 14 18  1  0  0  0  0
 15 14  1  0  0  0  0
 17 14  1  0  0  0  0
M  RAD  3   2   2   3   3   4   2
M  END
