Coordinates from ORCA-job PhN2+~BF4-_B3LYPG-6-31G_dp-CH-Scan-d09-49-n800
 OpenBabel11261919213D

 18 16  0  0  0  0  0  0  0  0999 V2000
   -1.3321    0.3028    0.1472 C   0  0  0  0  0  0  0  0  0  0  0  0
   -2.7065    0.3767    0.3708 N   0  0  0  0  0  0  0  0  0  0  0  0
   -3.8059    0.5117    0.5343 N   0  0  0  0  0  0  0  0  0  0  0  0
   -0.7886    1.5493   -0.1971 C   0  0  0  0  0  0  0  0  0  0  0  0
    0.6130    1.4006   -0.4127 C   0  0  0  0  0  0  0  0  0  0  0  0
    1.2931    0.1931   -0.2937 C   0  0  0  0  0  0  0  0  0  0  0  0
    0.6265   -1.0070    0.0635 C   0  0  0  0  0  0  0  0  0  0  0  0
   -0.7295   -0.9766    0.2973 C   0  0  0  0  0  0  0  0  0  0  0  0
   -4.0978    4.9486   -0.5169 H   0  0  0  0  0  0  0  0  0  0  0  0
    1.1971    2.2794   -0.6901 H   0  0  0  0  0  0  0  0  0  0  0  0
    2.3658    0.1523   -0.4779 H   0  0  0  0  0  0  0  0  0  0  0  0
    1.1795   -1.9367    0.1518 H   0  0  0  0  0  0  0  0  0  0  0  0
   -1.2949   -1.8621    0.5755 H   0  0  0  0  0  0  0  0  0  0  0  0
   -5.8584    3.2148   -0.1727 B   0  0  0  0  0  0  0  0  0  0  0  0
   -4.8649    2.8003   -0.9626 F   0  0  0  0  0  0  0  0  0  0  0  0
   -4.8688    5.1674   -0.0435 F   0  0  0  0  0  0  0  0  0  0  0  0
   -6.9765    3.6577   -0.7177 F   0  0  0  0  0  0  0  0  0  0  0  0
   -5.8051    2.9409    1.1194 F   0  0  0  0  0  0  0  0  0  0  0  0
  1  8  1  0  0  0  0
  1  2  1  0  0  0  0
  2  3  1  0  0  0  0
  4  1  2  0  0  0  0
  5  6  2  0  0  0  0
  5  4  1  0  0  0  0
  6  7  1  0  0  0  0
  7 12  1  0  0  0  0
  7  8  2  0  0  0  0
  8 13  1  0  0  0  0
  9 16  1  0  0  0  0
 10  5  1  0  0  0  0
 11  6  1  0  0  0  0
 14 18  1  0  0  0  0
 15 14  1  0  0  0  0
 17 14  1  0  0  0  0
M  RAD  3   2   2   3   3   4   2
M  END
