Coordinates from ORCA-job PhN2+~BF4-_B3LYPG-6-31G_dp-CH-Scan-d09-49-n800
 OpenBabel11261919213D

 18 16  0  0  0  0  0  0  0  0999 V2000
   -1.3606    0.2948    0.1447 C   0  0  0  0  0  0  0  0  0  0  0  0
   -2.7360    0.3469    0.3670 N   0  0  0  0  0  0  0  0  0  0  0  0
   -3.8374    0.4652    0.5294 N   0  0  0  0  0  0  0  0  0  0  0  0
   -0.8375    1.5482   -0.2071 C   0  0  0  0  0  0  0  0  0  0  0  0
    0.5663    1.4212   -0.4215 C   0  0  0  0  0  0  0  0  0  0  0  0
    1.2664    0.2260   -0.2947 C   0  0  0  0  0  0  0  0  0  0  0  0
    0.6198   -0.9827    0.0699 C   0  0  0  0  0  0  0  0  0  0  0  0
   -0.7367   -0.9732    0.3030 C   0  0  0  0  0  0  0  0  0  0  0  0
   -4.0100    4.8931   -0.5040 H   0  0  0  0  0  0  0  0  0  0  0  0
    1.1359    2.3078   -0.7043 H   0  0  0  0  0  0  0  0  0  0  0  0
    2.3397    0.2020   -0.4783 H   0  0  0  0  0  0  0  0  0  0  0  0
    1.1880   -1.9026    0.1643 H   0  0  0  0  0  0  0  0  0  0  0  0
   -1.2873   -1.8663    0.5866 H   0  0  0  0  0  0  0  0  0  0  0  0
   -5.8259    3.2115   -0.1743 B   0  0  0  0  0  0  0  0  0  0  0  0
   -4.8455    2.7666   -0.9639 F   0  0  0  0  0  0  0  0  0  0  0  0
   -4.7811    5.1317   -0.0403 F   0  0  0  0  0  0  0  0  0  0  0  0
   -6.9300    3.6887   -0.7192 F   0  0  0  0  0  0  0  0  0  0  0  0
   -5.7819    2.9342    1.1177 F   0  0  0  0  0  0  0  0  0  0  0  0
  1  8  1  0  0  0  0
  1  2  1  0  0  0  0
  2  3  1  0  0  0  0
  4  1  2  0  0  0  0
  5  6  2  0  0  0  0
  5  4  1  0  0  0  0
  6  7  1  0  0  0  0
  7 12  1  0  0  0  0
  7  8  2  0  0  0  0
  8 13  1  0  0  0  0
  9 16  1  0  0  0  0
 10  5  1  0  0  0  0
 11  6  1  0  0  0  0
 14 18  1  0  0  0  0
 15 14  1  0  0  0  0
 17 14  1  0  0  0  0
M  RAD  3   2   2   3   3   4   2
M  END
