Coordinates from ORCA-job PhN2+~BF4-_B3LYPG-6-31G_dp-CH-Scan-d09-49-n800
 OpenBabel11261919213D

 18 16  0  0  0  0  0  0  0  0999 V2000
   -1.8971    0.4171    0.0956 C   0  0  0  0  0  0  0  0  0  0  0  0
   -3.2512    0.1691    0.2642 N   0  0  0  0  0  0  0  0  0  0  0  0
   -4.3444   -0.0047    0.3930 N   0  0  0  0  0  0  0  0  0  0  0  0
   -1.5371    1.7435   -0.2075 C   0  0  0  0  0  0  0  0  0  0  0  0
   -0.1434    1.8877   -0.3630 C   0  0  0  0  0  0  0  0  0  0  0  0
    0.7505    0.8268   -0.2271 C   0  0  0  0  0  0  0  0  0  0  0  0
    0.3051   -0.4752    0.0804 C   0  0  0  0  0  0  0  0  0  0  0  0
   -1.0446   -0.7050    0.2490 C   0  0  0  0  0  0  0  0  0  0  0  0
   -2.6673    3.0259   -0.3584 H   0  0  0  0  0  0  0  0  0  0  0  0
    0.2562    2.8706   -0.6014 H   0  0  0  0  0  0  0  0  0  0  0  0
    1.8160    0.9987   -0.3603 H   0  0  0  0  0  0  0  0  0  0  0  0
    1.0132   -1.2903    0.1840 H   0  0  0  0  0  0  0  0  0  0  0  0
   -1.4382   -1.6881    0.4871 H   0  0  0  0  0  0  0  0  0  0  0  0
   -4.8718    3.1459   -0.1488 B   0  0  0  0  0  0  0  0  0  0  0  0
   -4.9783    2.1866   -1.1216 F   0  0  0  0  0  0  0  0  0  0  0  0
   -3.3989    3.7870   -0.4393 F   0  0  0  0  0  0  0  0  0  0  0  0
   -5.7003    4.2018   -0.2573 F   0  0  0  0  0  0  0  0  0  0  0  0
   -4.7224    2.6159    1.1063 F   0  0  0  0  0  0  0  0  0  0  0  0
  1  8  1  0  0  0  0
  1  2  1  0  0  0  0
  2  3  1  0  0  0  0
  4  1  2  0  0  0  0
  5  6  2  0  0  0  0
  5  4  1  0  0  0  0
  6  7  1  0  0  0  0
  7 12  1  0  0  0  0
  7  8  2  0  0  0  0
  8 13  1  0  0  0  0
 10  5  1  0  0  0  0
 11  6  1  0  0  0  0
 14 18  1  0  0  0  0
 15 14  1  0  0  0  0
 16  9  1  0  0  0  0
 17 14  1  0  0  0  0
M  RAD  3   2   2   3   3   4   2
M  END
