Coordinates from ORCA-job PhN2+~BF4-_B3LYPG-6-31G_dp-CH-Scan-d09-49-n800
 OpenBabel11261919213D

 18 16  0  0  0  0  0  0  0  0999 V2000
   -1.6146    0.3163    0.1020 C   0  0  0  0  0  0  0  0  0  0  0  0
   -2.9898    0.1923    0.2644 N   0  0  0  0  0  0  0  0  0  0  0  0
   -4.1004    0.1461    0.3857 N   0  0  0  0  0  0  0  0  0  0  0  0
   -1.2051    1.6262   -0.2032 C   0  0  0  0  0  0  0  0  0  0  0  0
    0.2085    1.6596   -0.3549 C   0  0  0  0  0  0  0  0  0  0  0  0
    1.0299    0.5448   -0.2159 C   0  0  0  0  0  0  0  0  0  0  0  0
    0.5036   -0.7327    0.0959 C   0  0  0  0  0  0  0  0  0  0  0  0
   -0.8552   -0.8751    0.2643 C   0  0  0  0  0  0  0  0  0  0  0  0
   -3.1549    3.9734   -0.4658 H   0  0  0  0  0  0  0  0  0  0  0  0
    0.6871    2.6090   -0.5960 H   0  0  0  0  0  0  0  0  0  0  0  0
    2.1060    0.6435   -0.3487 H   0  0  0  0  0  0  0  0  0  0  0  0
    1.1623   -1.5886    0.2007 H   0  0  0  0  0  0  0  0  0  0  0  0
   -1.3156   -1.8292    0.5052 H   0  0  0  0  0  0  0  0  0  0  0  0
   -5.5314    3.1979   -0.1137 B   0  0  0  0  0  0  0  0  0  0  0  0
   -5.2617    2.3922   -1.1403 F   0  0  0  0  0  0  0  0  0  0  0  0
   -3.9367    4.4864   -0.4675 F   0  0  0  0  0  0  0  0  0  0  0  0
   -6.4654    4.1269   -0.2342 F   0  0  0  0  0  0  0  0  0  0  0  0
   -5.1202    2.8241    1.0969 F   0  0  0  0  0  0  0  0  0  0  0  0
  1  8  1  0  0  0  0
  1  2  1  0  0  0  0
  2  3  1  0  0  0  0
  4  1  2  0  0  0  0
  5  6  2  0  0  0  0
  5  4  1  0  0  0  0
  6  7  1  0  0  0  0
  7 12  1  0  0  0  0
  7  8  2  0  0  0  0
  8 13  1  0  0  0  0
 10  5  1  0  0  0  0
 11  6  1  0  0  0  0
 14 18  1  0  0  0  0
 15 14  1  0  0  0  0
 16  9  1  0  0  0  0
 17 14  1  0  0  0  0
M  RAD  3   2   2   3   3   4   2
M  END
