Coordinates from ORCA-job PhN2+~BF4-_B3LYPG-6-31G_dp-CH-Scan-d09-49-n800
 OpenBabel11261919213D

 18 16  0  0  0  0  0  0  0  0999 V2000
   -1.7293    0.3562    0.1044 C   0  0  0  0  0  0  0  0  0  0  0  0
   -3.0952    0.1779    0.2756 N   0  0  0  0  0  0  0  0  0  0  0  0
   -4.1993    0.0700    0.4070 N   0  0  0  0  0  0  0  0  0  0  0  0
   -1.3485    1.6773   -0.1951 C   0  0  0  0  0  0  0  0  0  0  0  0
    0.0587    1.7589   -0.3529 C   0  0  0  0  0  0  0  0  0  0  0  0
    0.9136    0.6674   -0.2242 C   0  0  0  0  0  0  0  0  0  0  0  0
    0.4257   -0.6248    0.0808 C   0  0  0  0  0  0  0  0  0  0  0  0
   -0.9282   -0.8081    0.2540 C   0  0  0  0  0  0  0  0  0  0  0  0
   -2.9458    3.5517   -0.4085 H   0  0  0  0  0  0  0  0  0  0  0  0
    0.5041    2.7242   -0.5898 H   0  0  0  0  0  0  0  0  0  0  0  0
    1.9852    0.7997   -0.3607 H   0  0  0  0  0  0  0  0  0  0  0  0
    1.1083   -1.4626    0.1775 H   0  0  0  0  0  0  0  0  0  0  0  0
   -1.3579   -1.7773    0.4904 H   0  0  0  0  0  0  0  0  0  0  0  0
   -5.2874    3.1872   -0.1304 B   0  0  0  0  0  0  0  0  0  0  0  0
   -5.1652    2.3004   -1.1300 F   0  0  0  0  0  0  0  0  0  0  0  0
   -3.6726    4.1613   -0.4573 F   0  0  0  0  0  0  0  0  0  0  0  0
   -6.1331    4.2031   -0.2678 F   0  0  0  0  0  0  0  0  0  0  0  0
   -4.9872    2.7507    1.1019 F   0  0  0  0  0  0  0  0  0  0  0  0
  1  8  1  0  0  0  0
  1  2  1  0  0  0  0
  2  3  1  0  0  0  0
  4  1  2  0  0  0  0
  5  6  2  0  0  0  0
  5  4  1  0  0  0  0
  6  7  1  0  0  0  0
  7 12  1  0  0  0  0
  7  8  2  0  0  0  0
  8 13  1  0  0  0  0
 10  5  1  0  0  0  0
 11  6  1  0  0  0  0
 14 18  1  0  0  0  0
 15 14  1  0  0  0  0
 16  9  1  0  0  0  0
 17 14  1  0  0  0  0
M  RAD  3   2   2   3   3   4   2
M  END
