Coordinates from ORCA-job PhN2+~BF4-_B3LYPG-6-31G_dp-CH-Scan-d09-49-n800
 OpenBabel11261919213D

 18 16  0  0  0  0  0  0  0  0999 V2000
   -1.9253    0.4320    0.0890 C   0  0  0  0  0  0  0  0  0  0  0  0
   -3.2791    0.1796    0.2513 N   0  0  0  0  0  0  0  0  0  0  0  0
   -4.3717    0.0003    0.3710 N   0  0  0  0  0  0  0  0  0  0  0  0
   -1.5559    1.7539   -0.2187 C   0  0  0  0  0  0  0  0  0  0  0  0
   -0.1660    1.9069   -0.3691 C   0  0  0  0  0  0  0  0  0  0  0  0
    0.7290    0.8475   -0.2231 C   0  0  0  0  0  0  0  0  0  0  0  0
    0.2828   -0.4519    0.0882 C   0  0  0  0  0  0  0  0  0  0  0  0
   -1.0682   -0.6836    0.2513 C   0  0  0  0  0  0  0  0  0  0  0  0
   -2.6058    2.9399   -0.3673 H   0  0  0  0  0  0  0  0  0  0  0  0
    0.2278    2.8910   -0.6097 H   0  0  0  0  0  0  0  0  0  0  0  0
    1.7946    1.0207   -0.3515 H   0  0  0  0  0  0  0  0  0  0  0  0
    0.9908   -1.2660    0.1997 H   0  0  0  0  0  0  0  0  0  0  0  0
   -1.4602   -1.6664    0.4922 H   0  0  0  0  0  0  0  0  0  0  0  0
   -4.8018    3.1355   -0.1457 B   0  0  0  0  0  0  0  0  0  0  0  0
   -4.9472    2.1590   -1.1100 F   0  0  0  0  0  0  0  0  0  0  0  0
   -3.3819    3.7542   -0.4531 F   0  0  0  0  0  0  0  0  0  0  0  0
   -5.6649    4.1716   -0.2317 F   0  0  0  0  0  0  0  0  0  0  0  0
   -4.6509    2.5889    1.1122 F   0  0  0  0  0  0  0  0  0  0  0  0
  1  8  1  0  0  0  0
  1  2  1  0  0  0  0
  2  3  1  0  0  0  0
  4  1  2  0  0  0  0
  5  6  2  0  0  0  0
  5  4  1  0  0  0  0
  6  7  1  0  0  0  0
  7 12  1  0  0  0  0
  7  8  2  0  0  0  0
  8 13  1  0  0  0  0
 10  5  1  0  0  0  0
 11  6  1  0  0  0  0
 14 18  1  0  0  0  0
 15 14  1  0  0  0  0
 16  9  1  0  0  0  0
 17 14  1  0  0  0  0
M  RAD  3   2   2   3   3   4   2
M  END
