Coordinates from ORCA-job PhN2+~BF4-_B3LYPG-6-31G_dp-CH-Scan-d09-49-n800
 OpenBabel11261919213D

 18 16  0  0  0  0  0  0  0  0999 V2000
   -1.7262    0.3550    0.1036 C   0  0  0  0  0  0  0  0  0  0  0  0
   -3.0924    0.1780    0.2741 N   0  0  0  0  0  0  0  0  0  0  0  0
   -4.1968    0.0717    0.4047 N   0  0  0  0  0  0  0  0  0  0  0  0
   -1.3447    1.6758   -0.1960 C   0  0  0  0  0  0  0  0  0  0  0  0
    0.0628    1.7563   -0.3529 C   0  0  0  0  0  0  0  0  0  0  0  0
    0.9168    0.6643   -0.2233 C   0  0  0  0  0  0  0  0  0  0  0  0
    0.4279   -0.6276    0.0818 C   0  0  0  0  0  0  0  0  0  0  0  0
   -0.9262   -0.8100    0.2542 C   0  0  0  0  0  0  0  0  0  0  0  0
   -2.9511    3.5620   -0.4115 H   0  0  0  0  0  0  0  0  0  0  0  0
    0.5091    2.7212   -0.5898 H   0  0  0  0  0  0  0  0  0  0  0  0
    1.9887    0.7958   -0.3591 H   0  0  0  0  0  0  0  0  0  0  0  0
    1.1100   -1.4657    0.1792 H   0  0  0  0  0  0  0  0  0  0  0  0
   -1.3566   -1.7787    0.4906 H   0  0  0  0  0  0  0  0  0  0  0  0
   -5.2947    3.1878   -0.1290 B   0  0  0  0  0  0  0  0  0  0  0  0
   -5.1708    2.3030   -1.1297 F   0  0  0  0  0  0  0  0  0  0  0  0
   -3.6791    4.1693   -0.4598 F   0  0  0  0  0  0  0  0  0  0  0  0
   -6.1419    4.2024   -0.2642 F   0  0  0  0  0  0  0  0  0  0  0  0
   -4.9888    2.7526    1.1020 F   0  0  0  0  0  0  0  0  0  0  0  0
  1  8  1  0  0  0  0
  1  2  1  0  0  0  0
  2  3  1  0  0  0  0
  4  1  2  0  0  0  0
  5  6  2  0  0  0  0
  5  4  1  0  0  0  0
  6  7  1  0  0  0  0
  7 12  1  0  0  0  0
  7  8  2  0  0  0  0
  8 13  1  0  0  0  0
 10  5  1  0  0  0  0
 11  6  1  0  0  0  0
 14 18  1  0  0  0  0
 15 14  1  0  0  0  0
 16  9  1  0  0  0  0
 17 14  1  0  0  0  0
M  RAD  3   2   2   3   3   4   2
M  END
