Coordinates from ORCA-job PhN2+~BF4-_B3LYPG-6-31G_dp-CH-Scan-d09-49-n800
 OpenBabel11261919213D

 18 16  0  0  0  0  0  0  0  0999 V2000
   -1.9107    0.4242    0.0932 C   0  0  0  0  0  0  0  0  0  0  0  0
   -3.2645    0.1735    0.2598 N   0  0  0  0  0  0  0  0  0  0  0  0
   -4.3571   -0.0036    0.3865 N   0  0  0  0  0  0  0  0  0  0  0  0
   -1.5473    1.7490   -0.2113 C   0  0  0  0  0  0  0  0  0  0  0  0
   -0.1553    1.8974   -0.3649 C   0  0  0  0  0  0  0  0  0  0  0  0
    0.7395    0.8373   -0.2257 C   0  0  0  0  0  0  0  0  0  0  0  0
    0.2943   -0.4639    0.0826 C   0  0  0  0  0  0  0  0  0  0  0  0
   -1.0559   -0.6950    0.2492 C   0  0  0  0  0  0  0  0  0  0  0  0
   -2.6392    2.9851   -0.3603 H   0  0  0  0  0  0  0  0  0  0  0  0
    0.2415    2.8810   -0.6037 H   0  0  0  0  0  0  0  0  0  0  0  0
    1.8050    1.0102   -0.3571 H   0  0  0  0  0  0  0  0  0  0  0  0
    1.0026   -1.2785    0.1888 H   0  0  0  0  0  0  0  0  0  0  0  0
   -1.4484   -1.6783    0.4879 H   0  0  0  0  0  0  0  0  0  0  0  0
   -4.8378    3.1405   -0.1483 B   0  0  0  0  0  0  0  0  0  0  0  0
   -4.9621    2.1729   -1.1168 F   0  0  0  0  0  0  0  0  0  0  0  0
   -3.3878    3.7683   -0.4446 F   0  0  0  0  0  0  0  0  0  0  0  0
   -5.6799    4.1891   -0.2492 F   0  0  0  0  0  0  0  0  0  0  0  0
   -4.6910    2.6039    1.1087 F   0  0  0  0  0  0  0  0  0  0  0  0
  1  8  1  0  0  0  0
  1  2  1  0  0  0  0
  2  3  1  0  0  0  0
  4  1  2  0  0  0  0
  5  6  2  0  0  0  0
  5  4  1  0  0  0  0
  6  7  1  0  0  0  0
  7 12  1  0  0  0  0
  7  8  2  0  0  0  0
  8 13  1  0  0  0  0
 10  5  1  0  0  0  0
 11  6  1  0  0  0  0
 14 18  1  0  0  0  0
 15 14  1  0  0  0  0
 16  9  1  0  0  0  0
 17 14  1  0  0  0  0
M  RAD  3   2   2   3   3   4   2
M  END
