Coordinates from ORCA-job PhN2+~BF4-_B3LYPG-6-31G_dp-CH-Scan-d09-49-n800
 OpenBabel11261919213D

 18 17  0  0  0  0  0  0  0  0999 V2000
   -1.9858    0.5401   -0.1760 C   0  0  0  0  0  0  0  0  0  0  0  0
   -3.3500    0.3107   -0.2798 N   0  0  0  0  0  0  0  0  0  0  0  0
   -4.4279    0.0475   -0.3817 N   0  0  0  0  0  0  0  0  0  0  0  0
   -1.4823    1.8066   -0.5059 C   0  0  0  0  0  0  0  0  0  0  0  0
   -0.1044    1.9721   -0.4088 C   0  0  0  0  0  0  0  0  0  0  0  0
    0.7138    0.9182    0.0091 C   0  0  0  0  0  0  0  0  0  0  0  0
    0.1753   -0.3362    0.3295 C   0  0  0  0  0  0  0  0  0  0  0  0
   -1.1923   -0.5464    0.2354 C   0  0  0  0  0  0  0  0  0  0  0  0
   -2.2369    2.6407   -0.8293 H   0  0  0  0  0  0  0  0  0  0  0  0
    0.3305    2.9354   -0.6518 H   0  0  0  0  0  0  0  0  0  0  0  0
    1.7858    1.0722    0.0898 H   0  0  0  0  0  0  0  0  0  0  0  0
    0.8216   -1.1453    0.6515 H   0  0  0  0  0  0  0  0  0  0  0  0
   -1.6431   -1.5025    0.4768 H   0  0  0  0  0  0  0  0  0  0  0  0
   -4.6758    3.0333    0.0580 B   0  0  0  0  0  0  0  0  0  0  0  0
   -5.6704    2.0562   -0.1841 F   0  0  0  0  0  0  0  0  0  0  0  0
   -3.9399    3.2093   -1.1573 F   0  0  0  0  0  0  0  0  0  0  0  0
   -5.2070    4.2162    0.4943 F   0  0  0  0  0  0  0  0  0  0  0  0
   -3.7649    2.4851    1.0054 F   0  0  0  0  0  0  0  0  0  0  0  0
  1  8  2  0  0  0  0
  2  1  1  0  0  0  0
  3  2  1  0  0  0  0
  4  5  2  0  0  0  0
  4  1  1  0  0  0  0
  5  6  1  0  0  0  0
  6 11  1  0  0  0  0
  6  7  2  0  0  0  0
  7 12  1  0  0  0  0
  8  7  1  0  0  0  0
  8 13  1  0  0  0  0
  9  4  1  0  0  0  0
 10  5  1  0  0  0  0
 14 17  1  0  0  0  0
 14 18  1  0  0  0  0
 15 14  1  0  0  0  0
 16 14  1  0  0  0  0
M  RAD  2   2   2   3   3
M  END
