Coordinates from ORCA-job PhN2+~BF4-_B3LYPG-6-31G_dp-CH-Scan-d09-49-n800
 OpenBabel11261919213D

 18 16  0  0  0  0  0  0  0  0999 V2000
   -1.5923    0.3099    0.1053 C   0  0  0  0  0  0  0  0  0  0  0  0
   -2.9686    0.1987    0.2708 N   0  0  0  0  0  0  0  0  0  0  0  0
   -4.0800    0.1658    0.3920 N   0  0  0  0  0  0  0  0  0  0  0  0
   -1.1760    1.6173   -0.2004 C   0  0  0  0  0  0  0  0  0  0  0  0
    0.2381    1.6398   -0.3546 C   0  0  0  0  0  0  0  0  0  0  0  0
    1.0518    0.5192   -0.2178 C   0  0  0  0  0  0  0  0  0  0  0  0
    0.5171   -0.7550    0.0944 C   0  0  0  0  0  0  0  0  0  0  0  0
   -0.8423   -0.8877    0.2657 C   0  0  0  0  0  0  0  0  0  0  0  0
   -3.2045    4.0617   -0.4698 H   0  0  0  0  0  0  0  0  0  0  0  0
    0.7236    2.5858   -0.5962 H   0  0  0  0  0  0  0  0  0  0  0  0
    2.1284    0.6101   -0.3528 H   0  0  0  0  0  0  0  0  0  0  0  0
    1.1701   -1.6155    0.1974 H   0  0  0  0  0  0  0  0  0  0  0  0
   -1.3092   -1.8386    0.5072 H   0  0  0  0  0  0  0  0  0  0  0  0
   -5.5700    3.1988   -0.1160 B   0  0  0  0  0  0  0  0  0  0  0  0
   -5.2582    2.4091   -1.1421 F   0  0  0  0  0  0  0  0  0  0  0  0
   -3.9990    4.5520   -0.4590 F   0  0  0  0  0  0  0  0  0  0  0  0
   -6.5288    4.1000   -0.2458 F   0  0  0  0  0  0  0  0  0  0  0  0
   -5.1540    2.8419    1.0969 F   0  0  0  0  0  0  0  0  0  0  0  0
  1  8  1  0  0  0  0
  1  2  1  0  0  0  0
  2  3  1  0  0  0  0
  4  1  2  0  0  0  0
  5  6  2  0  0  0  0
  5  4  1  0  0  0  0
  6  7  1  0  0  0  0
  7 12  1  0  0  0  0
  7  8  2  0  0  0  0
  8 13  1  0  0  0  0
  9 16  1  0  0  0  0
 10  5  1  0  0  0  0
 11  6  1  0  0  0  0
 14 18  1  0  0  0  0
 15 14  1  0  0  0  0
 17 14  1  0  0  0  0
M  RAD  3   2   2   3   3   4   2
M  END
