Coordinates from ORCA-job PhN2+~BF4-_B3LYPG-6-31G_dp-CH-Scan-d09-49-n800
 OpenBabel11261919213D

 18 16  0  0  0  0  0  0  0  0999 V2000
   -1.7651    0.3680    0.1063 C   0  0  0  0  0  0  0  0  0  0  0  0
   -3.1277    0.1720    0.2799 N   0  0  0  0  0  0  0  0  0  0  0  0
   -4.2298    0.0490    0.4114 N   0  0  0  0  0  0  0  0  0  0  0  0
   -1.3935    1.6921   -0.1941 C   0  0  0  0  0  0  0  0  0  0  0  0
    0.0114    1.7872   -0.3554 C   0  0  0  0  0  0  0  0  0  0  0  0
    0.8766    0.7034   -0.2286 C   0  0  0  0  0  0  0  0  0  0  0  0
    0.4009   -0.5922    0.0776 C   0  0  0  0  0  0  0  0  0  0  0  0
   -0.9513   -0.7872    0.2538 C   0  0  0  0  0  0  0  0  0  0  0  0
   -2.8831    3.4359   -0.3900 H   0  0  0  0  0  0  0  0  0  0  0  0
    0.4462    2.7567   -0.5935 H   0  0  0  0  0  0  0  0  0  0  0  0
    1.9464    0.8458   -0.3679 H   0  0  0  0  0  0  0  0  0  0  0  0
    1.0907   -1.4242    0.1729 H   0  0  0  0  0  0  0  0  0  0  0  0
   -1.3714   -1.7601    0.4912 H   0  0  0  0  0  0  0  0  0  0  0  0
   -5.2066    3.1789   -0.1366 B   0  0  0  0  0  0  0  0  0  0  0  0
   -5.1219    2.2773   -1.1312 F   0  0  0  0  0  0  0  0  0  0  0  0
   -3.5969    4.0730   -0.4448 F   0  0  0  0  0  0  0  0  0  0  0  0
   -6.0330    4.2128   -0.2783 F   0  0  0  0  0  0  0  0  0  0  0  0
   -4.9456    2.7249    1.1020 F   0  0  0  0  0  0  0  0  0  0  0  0
  1  8  1  0  0  0  0
  1  2  1  0  0  0  0
  2  3  1  0  0  0  0
  4  1  2  0  0  0  0
  5  6  2  0  0  0  0
  5  4  1  0  0  0  0
  6  7  1  0  0  0  0
  7 12  1  0  0  0  0
  7  8  2  0  0  0  0
  8 13  1  0  0  0  0
 10  5  1  0  0  0  0
 11  6  1  0  0  0  0
 14 18  1  0  0  0  0
 15 14  1  0  0  0  0
 16  9  1  0  0  0  0
 17 14  1  0  0  0  0
M  RAD  3   2   2   3   3   4   2
M  END
