Coordinates from ORCA-job PhN2+~BF4-_B3LYPG-6-31G_dp-CH-Scan-d09-49-n800
 OpenBabel11261919213D

 18 16  0  0  0  0  0  0  0  0999 V2000
   -1.4889    0.2713    0.1144 C   0  0  0  0  0  0  0  0  0  0  0  0
   -2.8671    0.2245    0.3117 N   0  0  0  0  0  0  0  0  0  0  0  0
   -3.9773    0.2551    0.4507 N   0  0  0  0  0  0  0  0  0  0  0  0
   -1.0453    1.5532   -0.2479 C   0  0  0  0  0  0  0  0  0  0  0  0
    0.3678    1.5205   -0.4313 C   0  0  0  0  0  0  0  0  0  0  0  0
    1.1472    0.3795   -0.2702 C   0  0  0  0  0  0  0  0  0  0  0  0
    0.5787   -0.8655    0.1006 C   0  0  0  0  0  0  0  0  0  0  0  0
   -0.7799   -0.9468    0.3054 C   0  0  0  0  0  0  0  0  0  0  0  0
   -3.6128    4.5739   -0.5202 H   0  0  0  0  0  0  0  0  0  0  0  0
    0.8805    2.4402   -0.7173 H   0  0  0  0  0  0  0  0  0  0  0  0
    2.2232    0.4286   -0.4307 H   0  0  0  0  0  0  0  0  0  0  0  0
    1.2067   -1.7422    0.2220 H   0  0  0  0  0  0  0  0  0  0  0  0
   -1.2729   -1.8719    0.5924 H   0  0  0  0  0  0  0  0  0  0  0  0
   -5.6786    3.2039   -0.1441 B   0  0  0  0  0  0  0  0  0  0  0  0
   -4.8559    2.5970   -1.0020 F   0  0  0  0  0  0  0  0  0  0  0  0
   -4.3656    4.9256   -0.0996 F   0  0  0  0  0  0  0  0  0  0  0  0
   -6.7364    3.8481   -0.6036 F   0  0  0  0  0  0  0  0  0  0  0  0
   -5.5772    2.9180    1.1444 F   0  0  0  0  0  0  0  0  0  0  0  0
  1  8  1  0  0  0  0
  1  2  1  0  0  0  0
  2  3  1  0  0  0  0
  4  1  2  0  0  0  0
  5  6  2  0  0  0  0
  5  4  1  0  0  0  0
  6  7  1  0  0  0  0
  7 12  1  0  0  0  0
  7  8  2  0  0  0  0
  8 13  1  0  0  0  0
  9 16  1  0  0  0  0
 10  5  1  0  0  0  0
 11  6  1  0  0  0  0
 14 18  1  0  0  0  0
 15 14  1  0  0  0  0
 17 14  1  0  0  0  0
M  RAD  3   2   2   3   3   4   2
M  END
