Coordinates from ORCA-job PhN2+~BF4-_B3LYPG-6-31G_dp-CH-Scan-d09-49-n800
 OpenBabel11261919213D

 18 16  0  0  0  0  0  0  0  0999 V2000
   -1.3067    0.3104    0.1494 C   0  0  0  0  0  0  0  0  0  0  0  0
   -2.6798    0.4055    0.3736 N   0  0  0  0  0  0  0  0  0  0  0  0
   -3.7770    0.5584    0.5368 N   0  0  0  0  0  0  0  0  0  0  0  0
   -0.7442    1.5505   -0.1870 C   0  0  0  0  0  0  0  0  0  0  0  0
    0.6550    1.3818   -0.4034 C   0  0  0  0  0  0  0  0  0  0  0  0
    1.3163    0.1632   -0.2920 C   0  0  0  0  0  0  0  0  0  0  0  0
    0.6312   -1.0287    0.0574 C   0  0  0  0  0  0  0  0  0  0  0  0
   -0.7242   -0.9790    0.2914 C   0  0  0  0  0  0  0  0  0  0  0  0
   -4.1802    4.9985   -0.5319 H   0  0  0  0  0  0  0  0  0  0  0  0
    1.2526    2.2533   -0.6751 H   0  0  0  0  0  0  0  0  0  0  0  0
    2.3882    0.1069   -0.4763 H   0  0  0  0  0  0  0  0  0  0  0  0
    1.1699   -1.9674    0.1398 H   0  0  0  0  0  0  0  0  0  0  0  0
   -1.3033   -1.8574    0.5639 H   0  0  0  0  0  0  0  0  0  0  0  0
   -5.8846    3.2163   -0.1703 B   0  0  0  0  0  0  0  0  0  0  0  0
   -4.8811    2.8321   -0.9630 F   0  0  0  0  0  0  0  0  0  0  0  0
   -4.9497    5.1983   -0.0478 F   0  0  0  0  0  0  0  0  0  0  0  0
   -7.0171    3.6246   -0.7125 F   0  0  0  0  0  0  0  0  0  0  0  0
   -5.8192    2.9461    1.1219 F   0  0  0  0  0  0  0  0  0  0  0  0
  1  8  1  0  0  0  0
  1  2  1  0  0  0  0
  2  3  1  0  0  0  0
  4  1  2  0  0  0  0
  5  6  2  0  0  0  0
  5  4  1  0  0  0  0
  6  7  1  0  0  0  0
  7 12  1  0  0  0  0
  7  8  2  0  0  0  0
  8 13  1  0  0  0  0
  9 16  1  0  0  0  0
 10  5  1  0  0  0  0
 11  6  1  0  0  0  0
 14 18  1  0  0  0  0
 15 14  1  0  0  0  0
 17 14  1  0  0  0  0
M  RAD  3   2   2   3   3   4   2
M  END
