Coordinates from ORCA-job PhN2+~BF4-_B3LYPG-6-31G_dp-CH-Scan-d09-49-n800
 OpenBabel11261919213D

 18 16  0  0  0  0  0  0  0  0999 V2000
   -1.4855    0.2894    0.1172 C   0  0  0  0  0  0  0  0  0  0  0  0
   -2.8671    0.2445    0.2885 N   0  0  0  0  0  0  0  0  0  0  0  0
   -3.9787    0.2778    0.4140 N   0  0  0  0  0  0  0  0  0  0  0  0
   -1.0248    1.5811   -0.1852 C   0  0  0  0  0  0  0  0  0  0  0  0
    0.3902    1.5438   -0.3491 C   0  0  0  0  0  0  0  0  0  0  0  0
    1.1577    0.3903   -0.2229 C   0  0  0  0  0  0  0  0  0  0  0  0
    0.5734   -0.8634    0.0885 C   0  0  0  0  0  0  0  0  0  0  0  0
   -0.7889   -0.9411    0.2691 C   0  0  0  0  0  0  0  0  0  0  0  0
   -3.4968    4.4937   -0.5061 H   0  0  0  0  0  0  0  0  0  0  0  0
    0.9144    2.4697   -0.5900 H   0  0  0  0  0  0  0  0  0  0  0  0
    2.2363    0.4365   -0.3656 H   0  0  0  0  0  0  0  0  0  0  0  0
    1.1922   -1.7499    0.1832 H   0  0  0  0  0  0  0  0  0  0  0  0
   -1.2937   -1.8727    0.5103 H   0  0  0  0  0  0  0  0  0  0  0  0
   -5.7193    3.1994   -0.1223 B   0  0  0  0  0  0  0  0  0  0  0  0
   -5.2187    2.4999   -1.1363 F   0  0  0  0  0  0  0  0  0  0  0  0
   -4.3525    4.8503   -0.4249 F   0  0  0  0  0  0  0  0  0  0  0  0
   -6.8041    3.9321   -0.2980 F   0  0  0  0  0  0  0  0  0  0  0  0
   -5.2881    2.9317    1.1044 F   0  0  0  0  0  0  0  0  0  0  0  0
  1  8  1  0  0  0  0
  1  2  1  0  0  0  0
  2  3  1  0  0  0  0
  4  1  2  0  0  0  0
  5  6  2  0  0  0  0
  5  4  1  0  0  0  0
  6  7  1  0  0  0  0
  7 12  1  0  0  0  0
  7  8  2  0  0  0  0
  8 13  1  0  0  0  0
  9 16  1  0  0  0  0
 10  5  1  0  0  0  0
 11  6  1  0  0  0  0
 14 18  1  0  0  0  0
 15 14  1  0  0  0  0
 17 14  1  0  0  0  0
M  RAD  3   2   2   3   3   4   2
M  END
