Coordinates from ORCA-job PhN2+~BF4-_B3LYPG-6-31G_dp-CH-Scan-d09-49-n800
 OpenBabel11261919213D

 18 16  0  0  0  0  0  0  0  0999 V2000
   -1.4042    0.2863    0.1383 C   0  0  0  0  0  0  0  0  0  0  0  0
   -2.7811    0.3057    0.3552 N   0  0  0  0  0  0  0  0  0  0  0  0
   -3.8859    0.3965    0.5114 N   0  0  0  0  0  0  0  0  0  0  0  0
   -0.9096    1.5495   -0.2208 C   0  0  0  0  0  0  0  0  0  0  0  0
    0.4975    1.4541   -0.4294 C   0  0  0  0  0  0  0  0  0  0  0  0
    1.2256    0.2769   -0.2916 C   0  0  0  0  0  0  0  0  0  0  0  0
    0.6066   -0.9441    0.0795 C   0  0  0  0  0  0  0  0  0  0  0  0
   -0.7505   -0.9652    0.3078 C   0  0  0  0  0  0  0  0  0  0  0  0
   -3.8756    4.7937   -0.4982 H   0  0  0  0  0  0  0  0  0  0  0  0
    1.0470    2.3519   -0.7166 H   0  0  0  0  0  0  0  0  0  0  0  0
    2.2998    0.2773   -0.4712 H   0  0  0  0  0  0  0  0  0  0  0  0
    1.1961   -1.8496    0.1825 H   0  0  0  0  0  0  0  0  0  0  0  0
   -1.2807   -1.8690    0.5959 H   0  0  0  0  0  0  0  0  0  0  0  0
   -5.7757    3.2061   -0.1699 B   0  0  0  0  0  0  0  0  0  0  0  0
   -4.8296    2.7118   -0.9717 F   0  0  0  0  0  0  0  0  0  0  0  0
   -4.6419    5.0701   -0.0474 F   0  0  0  0  0  0  0  0  0  0  0  0
   -6.8634    3.7347   -0.7004 F   0  0  0  0  0  0  0  0  0  0  0  0
   -5.7283    2.9264    1.1218 F   0  0  0  0  0  0  0  0  0  0  0  0
  1  8  1  0  0  0  0
  1  2  1  0  0  0  0
  2  3  1  0  0  0  0
  4  1  2  0  0  0  0
  5  6  2  0  0  0  0
  5  4  1  0  0  0  0
  6  7  1  0  0  0  0
  7 12  1  0  0  0  0
  7  8  2  0  0  0  0
  8 13  1  0  0  0  0
  9 16  1  0  0  0  0
 10  5  1  0  0  0  0
 11  6  1  0  0  0  0
 14 18  1  0  0  0  0
 15 14  1  0  0  0  0
 17 14  1  0  0  0  0
M  RAD  3   2   2   3   3   4   2
M  END
