Coordinates from ORCA-job PhN2+~BF4-_B3LYPG-6-31G_dp-CH-Scan-d09-49-n800
 OpenBabel11261919213D

 18 16  0  0  0  0  0  0  0  0999 V2000
   -1.4544    0.2727    0.1098 C   0  0  0  0  0  0  0  0  0  0  0  0
   -2.8344    0.2498    0.3016 N   0  0  0  0  0  0  0  0  0  0  0  0
   -3.9441    0.3029    0.4384 N   0  0  0  0  0  0  0  0  0  0  0  0
   -0.9904    1.5463   -0.2549 C   0  0  0  0  0  0  0  0  0  0  0  0
    0.4227    1.4911   -0.4344 C   0  0  0  0  0  0  0  0  0  0  0  0
    1.1834    0.3384   -0.2677 C   0  0  0  0  0  0  0  0  0  0  0  0
    0.5944   -0.8965    0.1055 C   0  0  0  0  0  0  0  0  0  0  0  0
   -0.7658   -0.9561    0.3068 C   0  0  0  0  0  0  0  0  0  0  0  0
   -3.7237    4.6684   -0.5365 H   0  0  0  0  0  0  0  0  0  0  0  0
    0.9505    2.4018   -0.7217 H   0  0  0  0  0  0  0  0  0  0  0  0
    2.2606    0.3700   -0.4254 H   0  0  0  0  0  0  0  0  0  0  0  0
    1.2085   -1.7825    0.2312 H   0  0  0  0  0  0  0  0  0  0  0  0
   -1.2741   -1.8724    0.5951 H   0  0  0  0  0  0  0  0  0  0  0  0
   -5.7239    3.2105   -0.1398 B   0  0  0  0  0  0  0  0  0  0  0  0
   -4.8730    2.6470   -1.0000 F   0  0  0  0  0  0  0  0  0  0  0  0
   -4.4714    4.9850   -0.0808 F   0  0  0  0  0  0  0  0  0  0  0  0
   -6.8035    3.8176   -0.5987 F   0  0  0  0  0  0  0  0  0  0  0  0
   -5.6155    2.9194    1.1465 F   0  0  0  0  0  0  0  0  0  0  0  0
  1  2  1  0  0  0  0
  1  8  1  0  0  0  0
  2  3  1  0  0  0  0
  4  1  2  0  0  0  0
  5  6  2  0  0  0  0
  5  4  1  0  0  0  0
  6  7  1  0  0  0  0
  7 12  1  0  0  0  0
  7  8  2  0  0  0  0
  8 13  1  0  0  0  0
  9 16  1  0  0  0  0
 10  5  1  0  0  0  0
 11  6  1  0  0  0  0
 14 18  1  0  0  0  0
 15 14  1  0  0  0  0
 17 14  1  0  0  0  0
M  RAD  3   2   2   3   3   4   2
M  END
