Coordinates from ORCA-job PhN2+~BF4-_B3LYPG-6-31G_dp-CH-Scan-d09-49-n800
 OpenBabel11261919213D

 18 16  0  0  0  0  0  0  0  0999 V2000
   -1.4572    0.2726    0.1096 C   0  0  0  0  0  0  0  0  0  0  0  0
   -2.8372    0.2476    0.3013 N   0  0  0  0  0  0  0  0  0  0  0  0
   -3.9469    0.2988    0.4389 N   0  0  0  0  0  0  0  0  0  0  0  0
   -0.9947    1.5469   -0.2546 C   0  0  0  0  0  0  0  0  0  0  0  0
    0.4186    1.4935   -0.4338 C   0  0  0  0  0  0  0  0  0  0  0  0
    1.1807    0.3418   -0.2673 C   0  0  0  0  0  0  0  0  0  0  0  0
    0.5932   -0.8940    0.1053 C   0  0  0  0  0  0  0  0  0  0  0  0
   -0.7670   -0.9553    0.3063 C   0  0  0  0  0  0  0  0  0  0  0  0
   -3.7148    4.6604   -0.5371 H   0  0  0  0  0  0  0  0  0  0  0  0
    0.9452    2.4050   -0.7207 H   0  0  0  0  0  0  0  0  0  0  0  0
    2.2579    0.3748   -0.4247 H   0  0  0  0  0  0  0  0  0  0  0  0
    1.2083   -1.7792    0.2309 H   0  0  0  0  0  0  0  0  0  0  0  0
   -1.2742   -1.8724    0.5942 H   0  0  0  0  0  0  0  0  0  0  0  0
   -5.7205    3.2101   -0.1393 B   0  0  0  0  0  0  0  0  0  0  0  0
   -4.8730    2.6426   -1.0003 F   0  0  0  0  0  0  0  0  0  0  0  0
   -4.4623    4.9800   -0.0833 F   0  0  0  0  0  0  0  0  0  0  0  0
   -6.7988    3.8204   -0.5972 F   0  0  0  0  0  0  0  0  0  0  0  0
   -5.6113    2.9196    1.1470 F   0  0  0  0  0  0  0  0  0  0  0  0
  1  2  1  0  0  0  0
  1  8  1  0  0  0  0
  2  3  1  0  0  0  0
  4  1  2  0  0  0  0
  5  6  2  0  0  0  0
  5  4  1  0  0  0  0
  6  7  1  0  0  0  0
  7 12  1  0  0  0  0
  7  8  2  0  0  0  0
  8 13  1  0  0  0  0
  9 16  1  0  0  0  0
 10  5  1  0  0  0  0
 11  6  1  0  0  0  0
 14 18  1  0  0  0  0
 15 14  1  0  0  0  0
 17 14  1  0  0  0  0
M  RAD  3   2   2   3   3   4   2
M  END
