Coordinates from ORCA-job PhN2+~BF4-_B3LYPG-6-31G_dp-CH-Scan-d09-49-n800
 OpenBabel11261919213D

 18 16  0  0  0  0  0  0  0  0999 V2000
   -1.7150    0.3505    0.1007 C   0  0  0  0  0  0  0  0  0  0  0  0
   -3.0824    0.1785    0.2678 N   0  0  0  0  0  0  0  0  0  0  0  0
   -4.1877    0.0777    0.3955 N   0  0  0  0  0  0  0  0  0  0  0  0
   -1.3308    1.6703   -0.1997 C   0  0  0  0  0  0  0  0  0  0  0  0
    0.0776    1.7467   -0.3531 C   0  0  0  0  0  0  0  0  0  0  0  0
    0.9288    0.6530   -0.2198 C   0  0  0  0  0  0  0  0  0  0  0  0
    0.4362   -0.6376    0.0859 C   0  0  0  0  0  0  0  0  0  0  0  0
   -0.9187   -0.8167    0.2550 C   0  0  0  0  0  0  0  0  0  0  0  0
   -2.9705    3.6000   -0.4230 H   0  0  0  0  0  0  0  0  0  0  0  0
    0.5272    2.7102   -0.5902 H   0  0  0  0  0  0  0  0  0  0  0  0
    2.0013    0.7818   -0.3530 H   0  0  0  0  0  0  0  0  0  0  0  0
    1.1163   -1.4770    0.1862 H   0  0  0  0  0  0  0  0  0  0  0  0
   -1.3521   -1.7841    0.4918 H   0  0  0  0  0  0  0  0  0  0  0  0
   -5.3211    3.1898   -0.1236 B   0  0  0  0  0  0  0  0  0  0  0  0
   -5.1916    2.3127   -1.1286 F   0  0  0  0  0  0  0  0  0  0  0  0
   -3.7029    4.1985   -0.4692 F   0  0  0  0  0  0  0  0  0  0  0  0
   -6.1741    4.1996   -0.2501 F   0  0  0  0  0  0  0  0  0  0  0  0
   -4.9942    2.7592    1.1024 F   0  0  0  0  0  0  0  0  0  0  0  0
  1  8  1  0  0  0  0
  1  2  1  0  0  0  0
  2  3  1  0  0  0  0
  4  1  2  0  0  0  0
  5  6  2  0  0  0  0
  5  4  1  0  0  0  0
  6  7  1  0  0  0  0
  7 12  1  0  0  0  0
  7  8  2  0  0  0  0
  8 13  1  0  0  0  0
 10  5  1  0  0  0  0
 11  6  1  0  0  0  0
 14 18  1  0  0  0  0
 15 14  1  0  0  0  0
 16  9  1  0  0  0  0
 17 14  1  0  0  0  0
M  RAD  3   2   2   3   3   4   2
M  END
