Coordinates from ORCA-job PhN2+~BF4-_B3LYPG-6-31G_dp-CH-Scan-d09-49-n800
 OpenBabel11261919213D

 18 16  0  0  0  0  0  0  0  0999 V2000
   -1.5852    0.3081    0.1063 C   0  0  0  0  0  0  0  0  0  0  0  0
   -2.9618    0.2009    0.2728 N   0  0  0  0  0  0  0  0  0  0  0  0
   -4.0734    0.1719    0.3941 N   0  0  0  0  0  0  0  0  0  0  0  0
   -1.1665    1.6146   -0.1992 C   0  0  0  0  0  0  0  0  0  0  0  0
    0.2478    1.6336   -0.3541 C   0  0  0  0  0  0  0  0  0  0  0  0
    1.0588    0.5111   -0.2183 C   0  0  0  0  0  0  0  0  0  0  0  0
    0.5213   -0.7621    0.0937 C   0  0  0  0  0  0  0  0  0  0  0  0
   -0.8383   -0.8916    0.2658 C   0  0  0  0  0  0  0  0  0  0  0  0
   -3.2212    4.0892   -0.4715 H   0  0  0  0  0  0  0  0  0  0  0  0
    0.7356    2.5785   -0.5956 H   0  0  0  0  0  0  0  0  0  0  0  0
    2.1356    0.5993   -0.3539 H   0  0  0  0  0  0  0  0  0  0  0  0
    1.1724   -1.6242    0.1960 H   0  0  0  0  0  0  0  0  0  0  0  0
   -1.3074   -1.8415    0.5073 H   0  0  0  0  0  0  0  0  0  0  0  0
   -5.5817    3.1993   -0.1167 B   0  0  0  0  0  0  0  0  0  0  0  0
   -5.2577    2.4142   -1.1422 F   0  0  0  0  0  0  0  0  0  0  0  0
   -4.0197    4.5722   -0.4574 F   0  0  0  0  0  0  0  0  0  0  0  0
   -6.5483    4.0915   -0.2493 F   0  0  0  0  0  0  0  0  0  0  0  0
   -5.1642    2.8481    1.0970 F   0  0  0  0  0  0  0  0  0  0  0  0
  1  8  1  0  0  0  0
  1  2  1  0  0  0  0
  2  3  1  0  0  0  0
  4  1  2  0  0  0  0
  5  6  2  0  0  0  0
  5  4  1  0  0  0  0
  6  7  1  0  0  0  0
  7 12  1  0  0  0  0
  7  8  2  0  0  0  0
  8 13  1  0  0  0  0
  9 16  1  0  0  0  0
 10  5  1  0  0  0  0
 11  6  1  0  0  0  0
 14 18  1  0  0  0  0
 15 14  1  0  0  0  0
 17 14  1  0  0  0  0
M  RAD  3   2   2   3   3   4   2
M  END
