Coordinates from ORCA-job PhN2+~BF4-_B3LYPG-6-31G_dp-CH-Scan-d09-49-n800
 OpenBabel11261919213D

 18 16  0  0  0  0  0  0  0  0999 V2000
   -1.4770    0.2705    0.1117 C   0  0  0  0  0  0  0  0  0  0  0  0
   -2.8560    0.2314    0.3057 N   0  0  0  0  0  0  0  0  0  0  0  0
   -3.9659    0.2709    0.4451 N   0  0  0  0  0  0  0  0  0  0  0  0
   -1.0267    1.5501   -0.2504 C   0  0  0  0  0  0  0  0  0  0  0  0
    0.3866    1.5104   -0.4313 C   0  0  0  0  0  0  0  0  0  0  0  0
    1.1600    0.3657   -0.2679 C   0  0  0  0  0  0  0  0  0  0  0  0
    0.5848   -0.8763    0.1027 C   0  0  0  0  0  0  0  0  0  0  0  0
   -0.7746   -0.9510    0.3050 C   0  0  0  0  0  0  0  0  0  0  0  0
   -3.6518    4.6066   -0.5321 H   0  0  0  0  0  0  0  0  0  0  0  0
    0.9043    2.4274   -0.7168 H   0  0  0  0  0  0  0  0  0  0  0  0
    2.2366    0.4094   -0.4263 H   0  0  0  0  0  0  0  0  0  0  0  0
    1.2084   -1.7560    0.2258 H   0  0  0  0  0  0  0  0  0  0  0  0
   -1.2726   -1.8735    0.5916 H   0  0  0  0  0  0  0  0  0  0  0  0
   -5.6950    3.2073   -0.1406 B   0  0  0  0  0  0  0  0  0  0  0  0
   -4.8653    2.6143   -1.0017 F   0  0  0  0  0  0  0  0  0  0  0  0
   -4.4008    4.9465   -0.0955 F   0  0  0  0  0  0  0  0  0  0  0  0
   -6.7613    3.8394   -0.5970 F   0  0  0  0  0  0  0  0  0  0  0  0
   -5.5877    2.9199    1.1469 F   0  0  0  0  0  0  0  0  0  0  0  0
  1  8  1  0  0  0  0
  1  2  1  0  0  0  0
  2  3  1  0  0  0  0
  4  1  2  0  0  0  0
  5  6  2  0  0  0  0
  5  4  1  0  0  0  0
  6  7  1  0  0  0  0
  7 12  1  0  0  0  0
  7  8  2  0  0  0  0
  8 13  1  0  0  0  0
  9 16  1  0  0  0  0
 10  5  1  0  0  0  0
 11  6  1  0  0  0  0
 14 18  1  0  0  0  0
 15 14  1  0  0  0  0
 17 14  1  0  0  0  0
M  RAD  3   2   2   3   3   4   2
M  END
