Coordinates from ORCA-job PhN2+~BF4-_B3LYPG-6-31G_dp-CH-Scan-d09-49-n800
 OpenBabel11261919213D

 18 16  0  0  0  0  0  0  0  0999 V2000
   -1.5878    0.3089    0.1058 C   0  0  0  0  0  0  0  0  0  0  0  0
   -2.9644    0.1999    0.2709 N   0  0  0  0  0  0  0  0  0  0  0  0
   -4.0756    0.1697    0.3944 N   0  0  0  0  0  0  0  0  0  0  0  0
   -1.1697    1.6160   -0.1983 C   0  0  0  0  0  0  0  0  0  0  0  0
    0.2446    1.6362   -0.3529 C   0  0  0  0  0  0  0  0  0  0  0  0
    1.0564    0.5142   -0.2174 C   0  0  0  0  0  0  0  0  0  0  0  0
    0.5197   -0.7596    0.0936 C   0  0  0  0  0  0  0  0  0  0  0  0
   -0.8399   -0.8902    0.2650 C   0  0  0  0  0  0  0  0  0  0  0  0
   -3.2154    4.0780   -0.4747 H   0  0  0  0  0  0  0  0  0  0  0  0
    0.7317    2.5816   -0.5935 H   0  0  0  0  0  0  0  0  0  0  0  0
    2.1331    0.6034   -0.3524 H   0  0  0  0  0  0  0  0  0  0  0  0
    1.1714   -1.6212    0.1955 H   0  0  0  0  0  0  0  0  0  0  0  0
   -1.3084   -1.8406    0.5055 H   0  0  0  0  0  0  0  0  0  0  0  0
   -5.5774    3.1994   -0.1156 B   0  0  0  0  0  0  0  0  0  0  0  0
   -5.2602    2.4115   -1.1412 F   0  0  0  0  0  0  0  0  0  0  0  0
   -4.0123    4.5640   -0.4609 F   0  0  0  0  0  0  0  0  0  0  0  0
   -6.5410    4.0952   -0.2462 F   0  0  0  0  0  0  0  0  0  0  0  0
   -5.1586    2.8468    1.0974 F   0  0  0  0  0  0  0  0  0  0  0  0
  1  8  1  0  0  0  0
  1  2  1  0  0  0  0
  2  3  1  0  0  0  0
  4  1  2  0  0  0  0
  5  6  2  0  0  0  0
  5  4  1  0  0  0  0
  6  7  1  0  0  0  0
  7 12  1  0  0  0  0
  7  8  2  0  0  0  0
  8 13  1  0  0  0  0
  9 16  1  0  0  0  0
 10  5  1  0  0  0  0
 11  6  1  0  0  0  0
 14 18  1  0  0  0  0
 15 14  1  0  0  0  0
 17 14  1  0  0  0  0
M  RAD  3   2   2   3   3   4   2
M  END
