Coordinates from ORCA-job PhN2+~BF4-_B3LYPG-6-31G_dp-CH-Scan-d09-49-n800
 OpenBabel11261919213D

 18 16  0  0  0  0  0  0  0  0999 V2000
   -1.5265    0.2952    0.1133 C   0  0  0  0  0  0  0  0  0  0  0  0
   -2.9064    0.2217    0.2829 N   0  0  0  0  0  0  0  0  0  0  0  0
   -4.0182    0.2268    0.4092 N   0  0  0  0  0  0  0  0  0  0  0  0
   -1.0851    1.5947   -0.1865 C   0  0  0  0  0  0  0  0  0  0  0  0
    0.3300    1.5829   -0.3464 C   0  0  0  0  0  0  0  0  0  0  0  0
    1.1172    0.4427   -0.2194 C   0  0  0  0  0  0  0  0  0  0  0  0
    0.5539   -0.8210    0.0884 C   0  0  0  0  0  0  0  0  0  0  0  0
   -0.8074   -0.9224    0.2650 C   0  0  0  0  0  0  0  0  0  0  0  0
   -3.3712    4.3173   -0.4935 H   0  0  0  0  0  0  0  0  0  0  0  0
    0.8381    2.5182   -0.5846 H   0  0  0  0  0  0  0  0  0  0  0  0
    2.1953    0.5083   -0.3586 H   0  0  0  0  0  0  0  0  0  0  0  0
    1.1873   -1.6970    0.1836 H   0  0  0  0  0  0  0  0  0  0  0  0
   -1.2963   -1.8632    0.5033 H   0  0  0  0  0  0  0  0  0  0  0  0
   -5.6701    3.2031   -0.1186 B   0  0  0  0  0  0  0  0  0  0  0  0
   -5.2536    2.4560   -1.1375 F   0  0  0  0  0  0  0  0  0  0  0  0
   -4.2038    4.7326   -0.4540 F   0  0  0  0  0  0  0  0  0  0  0  0
   -6.7021    4.0135   -0.2724 F   0  0  0  0  0  0  0  0  0  0  0  0
   -5.2351    2.9037    1.1007 F   0  0  0  0  0  0  0  0  0  0  0  0
  1  8  1  0  0  0  0
  1  2  1  0  0  0  0
  2  3  1  0  0  0  0
  4  1  2  0  0  0  0
  5  6  2  0  0  0  0
  5  4  1  0  0  0  0
  6  7  1  0  0  0  0
  7 12  1  0  0  0  0
  7  8  2  0  0  0  0
  8 13  1  0  0  0  0
  9 16  1  0  0  0  0
 10  5  1  0  0  0  0
 11  6  1  0  0  0  0
 14 18  1  0  0  0  0
 15 14  1  0  0  0  0
 17 14  1  0  0  0  0
M  RAD  3   2   2   3   3   4   2
M  END
