Coordinates from ORCA-job PhN2+~BF4-_B3LYPG-6-31G_dp-CH-Scan-d09-49-n800
 OpenBabel11261919213D

 18 16  0  0  0  0  0  0  0  0999 V2000
   -1.5040    0.2919    0.1162 C   0  0  0  0  0  0  0  0  0  0  0  0
   -2.8848    0.2335    0.2882 N   0  0  0  0  0  0  0  0  0  0  0  0
   -3.9968    0.2528    0.4119 N   0  0  0  0  0  0  0  0  0  0  0  0
   -1.0526    1.5872   -0.1851 C   0  0  0  0  0  0  0  0  0  0  0  0
    0.3625    1.5620   -0.3473 C   0  0  0  0  0  0  0  0  0  0  0  0
    1.1393    0.4147   -0.2217 C   0  0  0  0  0  0  0  0  0  0  0  0
    0.5650   -0.8439    0.0877 C   0  0  0  0  0  0  0  0  0  0  0  0
   -0.7968   -0.9328    0.2670 C   0  0  0  0  0  0  0  0  0  0  0  0
   -3.4357    4.4119   -0.4942 H   0  0  0  0  0  0  0  0  0  0  0  0
    0.8790    2.4925   -0.5868 H   0  0  0  0  0  0  0  0  0  0  0  0
    2.2177    0.4700   -0.3632 H   0  0  0  0  0  0  0  0  0  0  0  0
    1.1907   -1.7255    0.1822 H   0  0  0  0  0  0  0  0  0  0  0  0
   -1.2941   -1.8688    0.5069 H   0  0  0  0  0  0  0  0  0  0  0  0
   -5.6989    3.2017   -0.1215 B   0  0  0  0  0  0  0  0  0  0  0  0
   -5.2395    2.4767   -1.1374 F   0  0  0  0  0  0  0  0  0  0  0  0
   -4.2822    4.7955   -0.4426 F   0  0  0  0  0  0  0  0  0  0  0  0
   -6.7584    3.9732   -0.2867 F   0  0  0  0  0  0  0  0  0  0  0  0
   -5.2643    2.9207    1.1016 F   0  0  0  0  0  0  0  0  0  0  0  0
  1  8  1  0  0  0  0
  1  2  1  0  0  0  0
  2  3  1  0  0  0  0
  4  1  2  0  0  0  0
  5  6  2  0  0  0  0
  5  4  1  0  0  0  0
  6  7  1  0  0  0  0
  7 12  1  0  0  0  0
  7  8  2  0  0  0  0
  8 13  1  0  0  0  0
  9 16  1  0  0  0  0
 10  5  1  0  0  0  0
 11  6  1  0  0  0  0
 14 18  1  0  0  0  0
 15 14  1  0  0  0  0
 17 14  1  0  0  0  0
M  RAD  3   2   2   3   3   4   2
M  END
