Coordinates from ORCA-job PhN2+~BF4-_B3LYPG-6-31G_dp-CH-Scan-d09-49-n800
 OpenBabel11261919213D

 18 16  0  0  0  0  0  0  0  0999 V2000
   -1.4092    0.2853    0.1376 C   0  0  0  0  0  0  0  0  0  0  0  0
   -2.7862    0.3015    0.3538 N   0  0  0  0  0  0  0  0  0  0  0  0
   -3.8913    0.3908    0.5094 N   0  0  0  0  0  0  0  0  0  0  0  0
   -0.9178    1.5497   -0.2216 C   0  0  0  0  0  0  0  0  0  0  0  0
    0.4897    1.4580   -0.4295 C   0  0  0  0  0  0  0  0  0  0  0  0
    1.2208    0.2827   -0.2909 C   0  0  0  0  0  0  0  0  0  0  0  0
    0.6049   -0.9398    0.0802 C   0  0  0  0  0  0  0  0  0  0  0  0
   -0.7523   -0.9644    0.3078 C   0  0  0  0  0  0  0  0  0  0  0  0
   -3.8604    4.7813   -0.4988 H   0  0  0  0  0  0  0  0  0  0  0  0
    1.0369    2.3572   -0.7167 H   0  0  0  0  0  0  0  0  0  0  0  0
    2.2951    0.2860   -0.4701 H   0  0  0  0  0  0  0  0  0  0  0  0
    1.1967   -1.8437    0.1838 H   0  0  0  0  0  0  0  0  0  0  0  0
   -1.2803   -1.8696    0.5959 H   0  0  0  0  0  0  0  0  0  0  0  0
   -5.7697    3.2052   -0.1690 B   0  0  0  0  0  0  0  0  0  0  0  0
   -4.8280    2.7056   -0.9727 F   0  0  0  0  0  0  0  0  0  0  0  0
   -4.6259    5.0628   -0.0498 F   0  0  0  0  0  0  0  0  0  0  0  0
   -6.8561    3.7387   -0.6973 F   0  0  0  0  0  0  0  0  0  0  0  0
   -5.7207    2.9260    1.1228 F   0  0  0  0  0  0  0  0  0  0  0  0
  1  8  1  0  0  0  0
  1  2  1  0  0  0  0
  2  3  1  0  0  0  0
  4  1  2  0  0  0  0
  5  6  2  0  0  0  0
  5  4  1  0  0  0  0
  6  7  1  0  0  0  0
  7 12  1  0  0  0  0
  7  8  2  0  0  0  0
  8 13  1  0  0  0  0
  9 16  1  0  0  0  0
 10  5  1  0  0  0  0
 11  6  1  0  0  0  0
 14 18  1  0  0  0  0
 15 14  1  0  0  0  0
 17 14  1  0  0  0  0
M  RAD  3   2   2   3   3   4   2
M  END
