Coordinates from ORCA-job PhN2+~BF4-_B3LYPG-6-31G_dp-CH-Scan-d09-49-n800
 OpenBabel11261919213D

 18 17  0  0  0  0  0  0  0  0999 V2000
   -2.1444    0.4843   -0.2202 C   0  0  0  0  0  0  0  0  0  0  0  0
   -3.4872    0.1479   -0.2707 N   0  0  0  0  0  0  0  0  0  0  0  0
   -4.5236   -0.2479   -0.3145 N   0  0  0  0  0  0  0  0  0  0  0  0
   -1.7025    1.6662   -0.8331 C   0  0  0  0  0  0  0  0  0  0  0  0
   -0.3339    1.9137   -0.7798 C   0  0  0  0  0  0  0  0  0  0  0  0
    0.5332    1.0273   -0.1381 C   0  0  0  0  0  0  0  0  0  0  0  0
    0.0531   -0.1415    0.4697 C   0  0  0  0  0  0  0  0  0  0  0  0
   -1.3016   -0.4324    0.4353 C   0  0  0  0  0  0  0  0  0  0  0  0
   -2.3071    2.2442   -1.2282 H   0  0  0  0  0  0  0  0  0  0  0  0
    0.0471    2.8232   -1.2309 H   0  0  0  0  0  0  0  0  0  0  0  0
    1.5957    1.2480   -0.1019 H   0  0  0  0  0  0  0  0  0  0  0  0
    0.7344   -0.8204    0.9708 H   0  0  0  0  0  0  0  0  0  0  0  0
   -1.7085   -1.3234    0.8992 H   0  0  0  0  0  0  0  0  0  0  0  0
   -4.2826    3.0624    0.2419 B   0  0  0  0  0  0  0  0  0  0  0  0
   -4.4199    2.3723   -1.0188 F   0  0  0  0  0  0  0  0  0  0  0  0
   -3.1129    3.8340    0.1667 F   0  0  0  0  0  0  0  0  0  0  0  0
   -5.3997    3.8113    0.5062 F   0  0  0  0  0  0  0  0  0  0  0  0
   -4.0935    2.0439    1.2216 F   0  0  0  0  0  0  0  0  0  0  0  0
  1  8  2  0  0  0  0
  2  1  1  0  0  0  0
  3  2  1  0  0  0  0
  4  5  2  0  0  0  0
  4  1  1  0  0  0  0
  5  6  1  0  0  0  0
  6 11  1  0  0  0  0
  6  7  2  0  0  0  0
  7 12  1  0  0  0  0
  8  7  1  0  0  0  0
  8 13  1  0  0  0  0
  9  4  1  0  0  0  0
 10  5  1  0  0  0  0
 14 17  1  0  0  0  0
 14 18  1  0  0  0  0
 15 14  1  0  0  0  0
 16 14  1  0  0  0  0
M  RAD  2   2   2   3   3
M  END
