Coordinates from ORCA-job PhN2+~BF4-_B3LYPG-6-31G_dp-CH-Scan-d09-49-n800
 OpenBabel11261919213D

 18 16  0  0  0  0  0  0  0  0999 V2000
   -1.4020    0.2876    0.1388 C   0  0  0  0  0  0  0  0  0  0  0  0
   -2.7786    0.3088    0.3568 N   0  0  0  0  0  0  0  0  0  0  0  0
   -3.8839    0.3989    0.5110 N   0  0  0  0  0  0  0  0  0  0  0  0
   -0.9058    1.5497   -0.2215 C   0  0  0  0  0  0  0  0  0  0  0  0
    0.5011    1.4522   -0.4307 C   0  0  0  0  0  0  0  0  0  0  0  0
    1.2276    0.2740   -0.2926 C   0  0  0  0  0  0  0  0  0  0  0  0
    0.6071   -0.9458    0.0797 C   0  0  0  0  0  0  0  0  0  0  0  0
   -0.7499   -0.9647    0.3088 C   0  0  0  0  0  0  0  0  0  0  0  0
   -3.8815    4.7990   -0.4940 H   0  0  0  0  0  0  0  0  0  0  0  0
    1.0517    2.3491   -0.7189 H   0  0  0  0  0  0  0  0  0  0  0  0
    2.3017    0.2729   -0.4729 H   0  0  0  0  0  0  0  0  0  0  0  0
    1.1953   -1.8521    0.1830 H   0  0  0  0  0  0  0  0  0  0  0  0
   -1.2813   -1.8677    0.5978 H   0  0  0  0  0  0  0  0  0  0  0  0
   -5.7782    3.2060   -0.1713 B   0  0  0  0  0  0  0  0  0  0  0  0
   -4.8289    2.7149   -0.9714 F   0  0  0  0  0  0  0  0  0  0  0  0
   -4.6492    5.0728   -0.0439 F   0  0  0  0  0  0  0  0  0  0  0  0
   -6.8658    3.7328   -0.7039 F   0  0  0  0  0  0  0  0  0  0  0  0
   -5.7333    2.9248    1.1201 F   0  0  0  0  0  0  0  0  0  0  0  0
  1  8  1  0  0  0  0
  1  2  1  0  0  0  0
  2  3  1  0  0  0  0
  4  1  2  0  0  0  0
  5  6  2  0  0  0  0
  5  4  1  0  0  0  0
  6  7  1  0  0  0  0
  7 12  1  0  0  0  0
  7  8  2  0  0  0  0
  8 13  1  0  0  0  0
  9 16  1  0  0  0  0
 10  5  1  0  0  0  0
 11  6  1  0  0  0  0
 14 18  1  0  0  0  0
 15 14  1  0  0  0  0
 17 14  1  0  0  0  0
M  RAD  3   2   2   3   3   4   2
M  END
