Coordinates from ORCA-job PhN2+~BF4-_B3LYPG-6-31G_dp-CH-Scan-d09-49-n800
 OpenBabel11261919213D

 18 16  0  0  0  0  0  0  0  0999 V2000
   -1.7397    0.3601    0.1063 C   0  0  0  0  0  0  0  0  0  0  0  0
   -3.1045    0.1771    0.2796 N   0  0  0  0  0  0  0  0  0  0  0  0
   -4.2078    0.0642    0.4126 N   0  0  0  0  0  0  0  0  0  0  0  0
   -1.3612    1.6820   -0.1929 C   0  0  0  0  0  0  0  0  0  0  0  0
    0.0451    1.7675   -0.3532 C   0  0  0  0  0  0  0  0  0  0  0  0
    0.9027    0.6778   -0.2267 C   0  0  0  0  0  0  0  0  0  0  0  0
    0.4182   -0.6155    0.0782 C   0  0  0  0  0  0  0  0  0  0  0  0
   -0.9351   -0.8019    0.2536 C   0  0  0  0  0  0  0  0  0  0  0  0
   -2.9282    3.5171   -0.3996 H   0  0  0  0  0  0  0  0  0  0  0  0
    0.4874    2.7341   -0.5902 H   0  0  0  0  0  0  0  0  0  0  0  0
    1.9737    0.8128   -0.3650 H   0  0  0  0  0  0  0  0  0  0  0  0
    1.1027   -1.4518    0.1732 H   0  0  0  0  0  0  0  0  0  0  0  0
   -1.3620   -1.7722    0.4900 H   0  0  0  0  0  0  0  0  0  0  0  0
   -5.2629    3.1852   -0.1343 B   0  0  0  0  0  0  0  0  0  0  0  0
   -5.1483    2.2923   -1.1308 F   0  0  0  0  0  0  0  0  0  0  0  0
   -3.6510    4.1348   -0.4502 F   0  0  0  0  0  0  0  0  0  0  0  0
   -6.1033    4.2057   -0.2770 F   0  0  0  0  0  0  0  0  0  0  0  0
   -4.9796    2.7440    1.1016 F   0  0  0  0  0  0  0  0  0  0  0  0
  1  8  1  0  0  0  0
  1  2  1  0  0  0  0
  2  3  1  0  0  0  0
  4  1  2  0  0  0  0
  5  6  2  0  0  0  0
  5  4  1  0  0  0  0
  6  7  1  0  0  0  0
  7 12  1  0  0  0  0
  7  8  2  0  0  0  0
  8 13  1  0  0  0  0
 10  5  1  0  0  0  0
 11  6  1  0  0  0  0
 14 18  1  0  0  0  0
 15 14  1  0  0  0  0
 16  9  1  0  0  0  0
 17 14  1  0  0  0  0
M  RAD  3   2   2   3   3   4   2
M  END
