Coordinates from ORCA-job PhN2+~BF4-_B3LYPG-6-31G_dp-CH-Scan-d09-49-n800
 OpenBabel11261919213D

 18 16  0  0  0  0  0  0  0  0999 V2000
   -1.5426    0.2981    0.1118 C   0  0  0  0  0  0  0  0  0  0  0  0
   -2.9216    0.2153    0.2819 N   0  0  0  0  0  0  0  0  0  0  0  0
   -4.0336    0.2108    0.4056 N   0  0  0  0  0  0  0  0  0  0  0  0
   -1.1083    1.5996   -0.1905 C   0  0  0  0  0  0  0  0  0  0  0  0
    0.3067    1.5967   -0.3492 C   0  0  0  0  0  0  0  0  0  0  0  0
    1.1010    0.4617   -0.2197 C   0  0  0  0  0  0  0  0  0  0  0  0
    0.5453   -0.8048    0.0897 C   0  0  0  0  0  0  0  0  0  0  0  0
   -0.8154   -0.9144    0.2656 C   0  0  0  0  0  0  0  0  0  0  0  0
   -3.3275    4.2551   -0.4851 H   0  0  0  0  0  0  0  0  0  0  0  0
    0.8088    2.5349   -0.5888 H   0  0  0  0  0  0  0  0  0  0  0  0
    2.1787    0.5339   -0.3584 H   0  0  0  0  0  0  0  0  0  0  0  0
    1.1840   -1.6767    0.1870 H   0  0  0  0  0  0  0  0  0  0  0  0
   -1.2985   -1.8578    0.5055 H   0  0  0  0  0  0  0  0  0  0  0  0
   -5.6472    3.2020   -0.1189 B   0  0  0  0  0  0  0  0  0  0  0  0
   -5.2534    2.4444   -1.1394 F   0  0  0  0  0  0  0  0  0  0  0  0
   -4.1507    4.6902   -0.4530 F   0  0  0  0  0  0  0  0  0  0  0  0
   -6.6613    4.0358   -0.2684 F   0  0  0  0  0  0  0  0  0  0  0  0
   -5.2183    2.8882    1.0993 F   0  0  0  0  0  0  0  0  0  0  0  0
  1  8  1  0  0  0  0
  1  2  1  0  0  0  0
  2  3  1  0  0  0  0
  4  1  2  0  0  0  0
  5  6  2  0  0  0  0
  5  4  1  0  0  0  0
  6  7  1  0  0  0  0
  7 12  1  0  0  0  0
  7  8  2  0  0  0  0
  8 13  1  0  0  0  0
  9 16  1  0  0  0  0
 10  5  1  0  0  0  0
 11  6  1  0  0  0  0
 14 18  1  0  0  0  0
 15 14  1  0  0  0  0
 17 14  1  0  0  0  0
M  RAD  3   2   2   3   3   4   2
M  END
