Coordinates from ORCA-job PhN2+~BF4-_B3LYPG-6-31G_dp-CH-Scan-d09-49-n800
 OpenBabel11261919213D

 18 17  0  0  0  0  0  0  0  0999 V2000
   -1.9855    0.4741   -0.0765 C   0  0  0  0  0  0  0  0  0  0  0  0
   -3.3463    0.2155   -0.1019 N   0  0  0  0  0  0  0  0  0  0  0  0
   -4.4353   -0.0090   -0.1616 N   0  0  0  0  0  0  0  0  0  0  0  0
   -1.5369    1.7502   -0.4512 C   0  0  0  0  0  0  0  0  0  0  0  0
   -0.1562    1.9372   -0.4432 C   0  0  0  0  0  0  0  0  0  0  0  0
    0.7084    0.9036   -0.0728 C   0  0  0  0  0  0  0  0  0  0  0  0
    0.2185   -0.3584    0.2983 C   0  0  0  0  0  0  0  0  0  0  0  0
   -1.1465   -0.5944    0.2985 C   0  0  0  0  0  0  0  0  0  0  0  0
   -2.4013    2.6761   -0.7457 H   0  0  0  0  0  0  0  0  0  0  0  0
    0.2462    2.9050   -0.7228 H   0  0  0  0  0  0  0  0  0  0  0  0
    1.7807    1.0778   -0.0689 H   0  0  0  0  0  0  0  0  0  0  0  0
    0.9017   -1.1505    0.5847 H   0  0  0  0  0  0  0  0  0  0  0  0
   -1.5625   -1.5561    0.5780 H   0  0  0  0  0  0  0  0  0  0  0  0
   -4.6634    3.1088   -0.0064 B   0  0  0  0  0  0  0  0  0  0  0  0
   -5.4062    2.1220   -0.6927 F   0  0  0  0  0  0  0  0  0  0  0  0
   -3.6694    3.6159   -0.9293 F   0  0  0  0  0  0  0  0  0  0  0  0
   -5.4492    4.1270    0.4524 F   0  0  0  0  0  0  0  0  0  0  0  0
   -3.9507    2.4686    1.0364 F   0  0  0  0  0  0  0  0  0  0  0  0
  1  8  2  0  0  0  0
  2  1  1  0  0  0  0
  3  2  1  0  0  0  0
  4  5  2  0  0  0  0
  4  1  1  0  0  0  0
  5  6  1  0  0  0  0
  6 11  1  0  0  0  0
  6  7  2  0  0  0  0
  7  8  1  0  0  0  0
  7 12  1  0  0  0  0
  8 13  1  0  0  0  0
  9  4  1  0  0  0  0
 10  5  1  0  0  0  0
 14 17  1  0  0  0  0
 14 18  1  0  0  0  0
 15 14  1  0  0  0  0
 16 14  1  0  0  0  0
M  RAD  2   2   2   3   3
M  END
