Coordinates from ORCA-job PhN2+~BF4-_B3LYPG-6-31G_dp-CH-Scan-d09-49-n800
 OpenBabel11261919213D

 18 16  0  0  0  0  0  0  0  0999 V2000
   -1.5495    0.2950    0.1124 C   0  0  0  0  0  0  0  0  0  0  0  0
   -2.9277    0.2089    0.2819 N   0  0  0  0  0  0  0  0  0  0  0  0
   -4.0396    0.2047    0.4063 N   0  0  0  0  0  0  0  0  0  0  0  0
   -1.1208    1.5991   -0.1893 C   0  0  0  0  0  0  0  0  0  0  0  0
    0.2942    1.6022   -0.3486 C   0  0  0  0  0  0  0  0  0  0  0  0
    1.0932    0.4704   -0.2197 C   0  0  0  0  0  0  0  0  0  0  0  0
    0.5431   -0.7987    0.0893 C   0  0  0  0  0  0  0  0  0  0  0  0
   -0.8172   -0.9144    0.2656 C   0  0  0  0  0  0  0  0  0  0  0  0
   -3.3100    4.2335   -0.4857 H   0  0  0  0  0  0  0  0  0  0  0  0
    0.7923    2.5424   -0.5879 H   0  0  0  0  0  0  0  0  0  0  0  0
    2.1705    0.5472   -0.3585 H   0  0  0  0  0  0  0  0  0  0  0  0
    1.1856   -1.6678    0.1860 H   0  0  0  0  0  0  0  0  0  0  0  0
   -1.2962   -1.8599    0.5050 H   0  0  0  0  0  0  0  0  0  0  0  0
   -5.6369    3.2030   -0.1189 B   0  0  0  0  0  0  0  0  0  0  0  0
   -5.2517    2.4410   -1.1397 F   0  0  0  0  0  0  0  0  0  0  0  0
   -4.1297    4.6760   -0.4551 F   0  0  0  0  0  0  0  0  0  0  0  0
   -6.6444    4.0451   -0.2672 F   0  0  0  0  0  0  0  0  0  0  0  0
   -5.2092    2.8856    1.0991 F   0  0  0  0  0  0  0  0  0  0  0  0
  1  8  1  0  0  0  0
  1  2  1  0  0  0  0
  2  3  1  0  0  0  0
  4  1  2  0  0  0  0
  5  6  2  0  0  0  0
  5  4  1  0  0  0  0
  6  7  1  0  0  0  0
  7 12  1  0  0  0  0
  7  8  2  0  0  0  0
  8 13  1  0  0  0  0
  9 16  1  0  0  0  0
 10  5  1  0  0  0  0
 11  6  1  0  0  0  0
 14 18  1  0  0  0  0
 15 14  1  0  0  0  0
 17 14  1  0  0  0  0
M  RAD  3   2   2   3   3   4   2
M  END
