Coordinates from ORCA-job PhN2+~BF4-_B3LYPG-6-31G_dp-CH-Scan-d09-49-n800
 OpenBabel11261919213D

 18 16  0  0  0  0  0  0  0  0999 V2000
   -1.3720    0.2921    0.1436 C   0  0  0  0  0  0  0  0  0  0  0  0
   -2.7477    0.3354    0.3652 N   0  0  0  0  0  0  0  0  0  0  0  0
   -3.8501    0.4463    0.5261 N   0  0  0  0  0  0  0  0  0  0  0  0
   -0.8569    1.5481   -0.2111 C   0  0  0  0  0  0  0  0  0  0  0  0
    0.5477    1.4296   -0.4247 C   0  0  0  0  0  0  0  0  0  0  0  0
    1.2556    0.2392   -0.2949 C   0  0  0  0  0  0  0  0  0  0  0  0
    0.6167   -0.9727    0.0725 C   0  0  0  0  0  0  0  0  0  0  0  0
   -0.7398   -0.9715    0.3052 C   0  0  0  0  0  0  0  0  0  0  0  0
   -3.9748    4.8695   -0.4993 H   0  0  0  0  0  0  0  0  0  0  0  0
    1.1117    2.3191   -0.7095 H   0  0  0  0  0  0  0  0  0  0  0  0
    2.3290    0.2218   -0.4781 H   0  0  0  0  0  0  0  0  0  0  0  0
    1.1908   -1.8887    0.1693 H   0  0  0  0  0  0  0  0  0  0  0  0
   -1.2847   -1.8674    0.5908 H   0  0  0  0  0  0  0  0  0  0  0  0
   -5.8127    3.2102   -0.1745 B   0  0  0  0  0  0  0  0  0  0  0  0
   -4.8388    2.7531   -0.9652 F   0  0  0  0  0  0  0  0  0  0  0  0
   -4.7456    5.1167   -0.0396 F   0  0  0  0  0  0  0  0  0  0  0  0
   -6.9114    3.7010   -0.7182 F   0  0  0  0  0  0  0  0  0  0  0  0
   -5.7710    2.9314    1.1173 F   0  0  0  0  0  0  0  0  0  0  0  0
  1  8  1  0  0  0  0
  1  2  1  0  0  0  0
  2  3  1  0  0  0  0
  4  1  2  0  0  0  0
  5  6  2  0  0  0  0
  5  4  1  0  0  0  0
  6  7  1  0  0  0  0
  7 12  1  0  0  0  0
  7  8  2  0  0  0  0
  8 13  1  0  0  0  0
  9 16  1  0  0  0  0
 10  5  1  0  0  0  0
 11  6  1  0  0  0  0
 14 18  1  0  0  0  0
 15 14  1  0  0  0  0
 17 14  1  0  0  0  0
M  RAD  3   2   2   3   3   4   2
M  END
