Coordinates from ORCA-job PhN2+~BF4-_B3LYPG-6-31G_dp-CH-Scan-d09-49-n800
 OpenBabel11261919213D

 18 16  0  0  0  0  0  0  0  0999 V2000
   -1.9073    0.4224    0.0939 C   0  0  0  0  0  0  0  0  0  0  0  0
   -3.2611    0.1723    0.2612 N   0  0  0  0  0  0  0  0  0  0  0  0
   -4.3539   -0.0041    0.3886 N   0  0  0  0  0  0  0  0  0  0  0  0
   -1.5449    1.7477   -0.2101 C   0  0  0  0  0  0  0  0  0  0  0  0
   -0.1525    1.8950   -0.3643 C   0  0  0  0  0  0  0  0  0  0  0  0
    0.7422    0.8347   -0.2261 C   0  0  0  0  0  0  0  0  0  0  0  0
    0.2970   -0.4667    0.0819 C   0  0  0  0  0  0  0  0  0  0  0  0
   -1.0530   -0.6975    0.2491 C   0  0  0  0  0  0  0  0  0  0  0  0
   -2.6464    2.9953   -0.3595 H   0  0  0  0  0  0  0  0  0  0  0  0
    0.2450    2.8785   -0.6030 H   0  0  0  0  0  0  0  0  0  0  0  0
    1.8076    1.0074   -0.3581 H   0  0  0  0  0  0  0  0  0  0  0  0
    1.0053   -1.2814    0.1872 H   0  0  0  0  0  0  0  0  0  0  0  0
   -1.4458   -1.6808    0.4876 H   0  0  0  0  0  0  0  0  0  0  0  0
   -4.8462    3.1418   -0.1486 B   0  0  0  0  0  0  0  0  0  0  0  0
   -4.9659    2.1763   -1.1181 F   0  0  0  0  0  0  0  0  0  0  0  0
   -3.3901    3.7726   -0.4429 F   0  0  0  0  0  0  0  0  0  0  0  0
   -5.6845    4.1926   -0.2518 F   0  0  0  0  0  0  0  0  0  0  0  0
   -4.6993    2.6070    1.1081 F   0  0  0  0  0  0  0  0  0  0  0  0
  1  8  1  0  0  0  0
  1  2  1  0  0  0  0
  2  3  1  0  0  0  0
  4  1  2  0  0  0  0
  5  6  2  0  0  0  0
  5  4  1  0  0  0  0
  6  7  1  0  0  0  0
  7 12  1  0  0  0  0
  7  8  2  0  0  0  0
  8 13  1  0  0  0  0
 10  5  1  0  0  0  0
 11  6  1  0  0  0  0
 14 18  1  0  0  0  0
 15 14  1  0  0  0  0
 16  9  1  0  0  0  0
 17 14  1  0  0  0  0
M  RAD  3   2   2   3   3   4   2
M  END
