Coordinates from ORCA-job PhN2+~BF4-_B3LYPG-6-31G_dp-CH-Scan-d09-49-n800
 OpenBabel11261919213D

 18 16  0  0  0  0  0  0  0  0999 V2000
   -1.3499    0.2982    0.1466 C   0  0  0  0  0  0  0  0  0  0  0  0
   -2.7247    0.3593    0.3706 N   0  0  0  0  0  0  0  0  0  0  0  0
   -3.8258    0.4836    0.5314 N   0  0  0  0  0  0  0  0  0  0  0  0
   -0.8194    1.5487   -0.2038 C   0  0  0  0  0  0  0  0  0  0  0  0
    0.5835    1.4133   -0.4198 C   0  0  0  0  0  0  0  0  0  0  0  0
    1.2760    0.2134   -0.2956 C   0  0  0  0  0  0  0  0  0  0  0  0
    0.6220   -0.9917    0.0676 C   0  0  0  0  0  0  0  0  0  0  0  0
   -0.7341   -0.9741    0.3022 C   0  0  0  0  0  0  0  0  0  0  0  0
   -4.0422    4.9147   -0.5037 H   0  0  0  0  0  0  0  0  0  0  0  0
    1.1583    2.2967   -0.7017 H   0  0  0  0  0  0  0  0  0  0  0  0
    2.3489    0.1828   -0.4804 H   0  0  0  0  0  0  0  0  0  0  0  0
    1.1846   -1.9154    0.1600 H   0  0  0  0  0  0  0  0  0  0  0  0
   -1.2901   -1.8641    0.5850 H   0  0  0  0  0  0  0  0  0  0  0  0
   -5.8375    3.2120   -0.1755 B   0  0  0  0  0  0  0  0  0  0  0  0
   -4.8495    2.7800   -0.9628 F   0  0  0  0  0  0  0  0  0  0  0  0
   -4.8148    5.1449   -0.0382 F   0  0  0  0  0  0  0  0  0  0  0  0
   -6.9457    3.6763   -0.7232 F   0  0  0  0  0  0  0  0  0  0  0  0
   -5.7936    2.9345    1.1163 F   0  0  0  0  0  0  0  0  0  0  0  0
  1  8  1  0  0  0  0
  1  2  1  0  0  0  0
  2  3  1  0  0  0  0
  4  1  2  0  0  0  0
  5  6  2  0  0  0  0
  5  4  1  0  0  0  0
  6  7  1  0  0  0  0
  7 12  1  0  0  0  0
  7  8  2  0  0  0  0
  8 13  1  0  0  0  0
  9 16  1  0  0  0  0
 10  5  1  0  0  0  0
 11  6  1  0  0  0  0
 14 18  1  0  0  0  0
 15 14  1  0  0  0  0
 17 14  1  0  0  0  0
M  RAD  3   2   2   3   3   4   2
M  END
