Coordinates from ORCA-job PhN2+~BF4-_B3LYPG-6-31G_dp-CH-Scan-d09-49-n800
 OpenBabel11261919213D

 18 16  0  0  0  0  0  0  0  0999 V2000
   -1.7407    0.3605    0.1064 C   0  0  0  0  0  0  0  0  0  0  0  0
   -3.1055    0.1770    0.2799 N   0  0  0  0  0  0  0  0  0  0  0  0
   -4.2087    0.0636    0.4129 N   0  0  0  0  0  0  0  0  0  0  0  0
   -1.3625    1.6825   -0.1928 C   0  0  0  0  0  0  0  0  0  0  0  0
    0.0437    1.7683   -0.3532 C   0  0  0  0  0  0  0  0  0  0  0  0
    0.9016    0.6789   -0.2269 C   0  0  0  0  0  0  0  0  0  0  0  0
    0.4175   -0.6145    0.0780 C   0  0  0  0  0  0  0  0  0  0  0  0
   -0.9358   -0.8013    0.2535 C   0  0  0  0  0  0  0  0  0  0  0  0
   -2.9264    3.5136   -0.3989 H   0  0  0  0  0  0  0  0  0  0  0  0
    0.4857    2.7351   -0.5903 H   0  0  0  0  0  0  0  0  0  0  0  0
    1.9726    0.8141   -0.3654 H   0  0  0  0  0  0  0  0  0  0  0  0
    1.1022   -1.4507    0.1729 H   0  0  0  0  0  0  0  0  0  0  0  0
   -1.3624   -1.7717    0.4900 H   0  0  0  0  0  0  0  0  0  0  0  0
   -5.2604    3.1850   -0.1346 B   0  0  0  0  0  0  0  0  0  0  0  0
   -5.1468    2.2915   -1.1309 F   0  0  0  0  0  0  0  0  0  0  0  0
   -3.6489    4.1322   -0.4496 F   0  0  0  0  0  0  0  0  0  0  0  0
   -6.1003    4.2060   -0.2776 F   0  0  0  0  0  0  0  0  0  0  0  0
   -4.9786    2.7432    1.1016 F   0  0  0  0  0  0  0  0  0  0  0  0
  1  8  1  0  0  0  0
  1  2  1  0  0  0  0
  2  3  1  0  0  0  0
  4  1  2  0  0  0  0
  5  6  2  0  0  0  0
  5  4  1  0  0  0  0
  6  7  1  0  0  0  0
  7 12  1  0  0  0  0
  7  8  2  0  0  0  0
  8 13  1  0  0  0  0
 10  5  1  0  0  0  0
 11  6  1  0  0  0  0
 14 18  1  0  0  0  0
 15 14  1  0  0  0  0
 16  9  1  0  0  0  0
 17 14  1  0  0  0  0
M  RAD  3   2   2   3   3   4   2
M  END
