Coordinates from ORCA-job PhN2+~BF4-_B3LYPG-6-31G_dp-CH-Scan-d09-49-n800
 OpenBabel11261919213D

 18 16  0  0  0  0  0  0  0  0999 V2000
   -1.7588    0.3661    0.1067 C   0  0  0  0  0  0  0  0  0  0  0  0
   -3.1221    0.1739    0.2806 N   0  0  0  0  0  0  0  0  0  0  0  0
   -4.2243    0.0528    0.4133 N   0  0  0  0  0  0  0  0  0  0  0  0
   -1.3852    1.6893   -0.1932 C   0  0  0  0  0  0  0  0  0  0  0  0
    0.0198    1.7826   -0.3547 C   0  0  0  0  0  0  0  0  0  0  0  0
    0.8831    0.6972   -0.2286 C   0  0  0  0  0  0  0  0  0  0  0  0
    0.4051   -0.5979    0.0772 C   0  0  0  0  0  0  0  0  0  0  0  0
   -0.9473   -0.7909    0.2536 C   0  0  0  0  0  0  0  0  0  0  0  0
   -2.8956    3.4548   -0.3909 H   0  0  0  0  0  0  0  0  0  0  0  0
    0.4563    2.7514   -0.5925 H   0  0  0  0  0  0  0  0  0  0  0  0
    1.9532    0.8376   -0.3680 H   0  0  0  0  0  0  0  0  0  0  0  0
    1.0935   -1.4311    0.1720 H   0  0  0  0  0  0  0  0  0  0  0  0
   -1.3691   -1.7632    0.4907 H   0  0  0  0  0  0  0  0  0  0  0  0
   -5.2191    3.1813   -0.1369 B   0  0  0  0  0  0  0  0  0  0  0  0
   -5.1272    2.2803   -1.1312 F   0  0  0  0  0  0  0  0  0  0  0  0
   -3.6114    4.0875   -0.4446 F   0  0  0  0  0  0  0  0  0  0  0  0
   -6.0492    4.2118   -0.2804 F   0  0  0  0  0  0  0  0  0  0  0  0
   -4.9557    2.7297    1.1018 F   0  0  0  0  0  0  0  0  0  0  0  0
  1  8  1  0  0  0  0
  1  2  1  0  0  0  0
  2  3  1  0  0  0  0
  4  1  2  0  0  0  0
  5  6  2  0  0  0  0
  5  4  1  0  0  0  0
  6  7  1  0  0  0  0
  7 12  1  0  0  0  0
  7  8  2  0  0  0  0
  8 13  1  0  0  0  0
 10  5  1  0  0  0  0
 11  6  1  0  0  0  0
 14 18  1  0  0  0  0
 15 14  1  0  0  0  0
 16  9  1  0  0  0  0
 17 14  1  0  0  0  0
M  RAD  3   2   2   3   3   4   2
M  END
