Coordinates from ORCA-job PhN2+~BF4-_B3LYPG-6-31G_dp-CH-Scan-d09-49-n800
 OpenBabel11261919213D

 18 16  0  0  0  0  0  0  0  0999 V2000
   -1.3700    0.2923    0.1443 C   0  0  0  0  0  0  0  0  0  0  0  0
   -2.7455    0.3375    0.3663 N   0  0  0  0  0  0  0  0  0  0  0  0
   -3.8478    0.4502    0.5270 N   0  0  0  0  0  0  0  0  0  0  0  0
   -0.8538    1.5479   -0.2101 C   0  0  0  0  0  0  0  0  0  0  0  0
    0.5507    1.4280   -0.4243 C   0  0  0  0  0  0  0  0  0  0  0  0
    1.2573    0.2369   -0.2952 C   0  0  0  0  0  0  0  0  0  0  0  0
    0.6173   -0.9745    0.0719 C   0  0  0  0  0  0  0  0  0  0  0  0
   -0.7391   -0.9720    0.3051 C   0  0  0  0  0  0  0  0  0  0  0  0
   -3.9810    4.8741   -0.4992 H   0  0  0  0  0  0  0  0  0  0  0  0
    1.1154    2.3171   -0.7090 H   0  0  0  0  0  0  0  0  0  0  0  0
    2.3307    0.2184   -0.4789 H   0  0  0  0  0  0  0  0  0  0  0  0
    1.1905   -1.8912    0.1681 H   0  0  0  0  0  0  0  0  0  0  0  0
   -1.2849   -1.8674    0.5906 H   0  0  0  0  0  0  0  0  0  0  0  0
   -5.8148    3.2103   -0.1750 B   0  0  0  0  0  0  0  0  0  0  0  0
   -4.8389    2.7559   -0.9648 F   0  0  0  0  0  0  0  0  0  0  0  0
   -4.7522    5.1196   -0.0391 F   0  0  0  0  0  0  0  0  0  0  0  0
   -6.9142    3.6985   -0.7196 F   0  0  0  0  0  0  0  0  0  0  0  0
   -5.7736    2.9316    1.1168 F   0  0  0  0  0  0  0  0  0  0  0  0
  1  8  1  0  0  0  0
  1  2  1  0  0  0  0
  2  3  1  0  0  0  0
  4  1  2  0  0  0  0
  5  6  2  0  0  0  0
  5  4  1  0  0  0  0
  6  7  1  0  0  0  0
  7 12  1  0  0  0  0
  7  8  2  0  0  0  0
  8 13  1  0  0  0  0
  9 16  1  0  0  0  0
 10  5  1  0  0  0  0
 11  6  1  0  0  0  0
 14 18  1  0  0  0  0
 15 14  1  0  0  0  0
 17 14  1  0  0  0  0
M  RAD  3   2   2   3   3   4   2
M  END
