Coordinates from ORCA-job PhN2+~BF4-_B3LYPG-6-31G_dp-CH-Scan-d09-49-n800
 OpenBabel11261919213D

 18 16  0  0  0  0  0  0  0  0999 V2000
   -1.4924    0.2887    0.1177 C   0  0  0  0  0  0  0  0  0  0  0  0
   -2.8734    0.2393    0.2901 N   0  0  0  0  0  0  0  0  0  0  0  0
   -3.9852    0.2688    0.4140 N   0  0  0  0  0  0  0  0  0  0  0  0
   -1.0365    1.5823   -0.1846 C   0  0  0  0  0  0  0  0  0  0  0  0
    0.3785    1.5503   -0.3485 C   0  0  0  0  0  0  0  0  0  0  0  0
    1.1503    0.3995   -0.2231 C   0  0  0  0  0  0  0  0  0  0  0  0
    0.5708   -0.8565    0.0878 C   0  0  0  0  0  0  0  0  0  0  0  0
   -0.7912   -0.9393    0.2687 C   0  0  0  0  0  0  0  0  0  0  0  0
   -3.4733    4.4662   -0.4991 H   0  0  0  0  0  0  0  0  0  0  0  0
    0.8992    2.4783   -0.5892 H   0  0  0  0  0  0  0  0  0  0  0  0
    2.2287    0.4498   -0.3661 H   0  0  0  0  0  0  0  0  0  0  0  0
    1.1928   -1.7407    0.1821 H   0  0  0  0  0  0  0  0  0  0  0  0
   -1.2925   -1.8729    0.5098 H   0  0  0  0  0  0  0  0  0  0  0  0
   -5.7116    3.2004   -0.1230 B   0  0  0  0  0  0  0  0  0  0  0  0
   -5.2241    2.4916   -1.1372 F   0  0  0  0  0  0  0  0  0  0  0  0
   -4.3267    4.8320   -0.4313 F   0  0  0  0  0  0  0  0  0  0  0  0
   -6.7876    3.9465   -0.2962 F   0  0  0  0  0  0  0  0  0  0  0  0
   -5.2799    2.9288    1.1030 F   0  0  0  0  0  0  0  0  0  0  0  0
  1  8  1  0  0  0  0
  1  2  1  0  0  0  0
  2  3  1  0  0  0  0
  4  1  2  0  0  0  0
  5  6  2  0  0  0  0
  5  4  1  0  0  0  0
  6  7  1  0  0  0  0
  7 12  1  0  0  0  0
  7  8  2  0  0  0  0
  8 13  1  0  0  0  0
  9 16  1  0  0  0  0
 10  5  1  0  0  0  0
 11  6  1  0  0  0  0
 14 18  1  0  0  0  0
 15 14  1  0  0  0  0
 17 14  1  0  0  0  0
M  RAD  3   2   2   3   3   4   2
M  END
