Coordinates from ORCA-job PhN2+~BF4-_B3LYPG-6-31G_dp-CH-Scan-d09-49-n800
 OpenBabel11261919213D

 18 16  0  0  0  0  0  0  0  0999 V2000
   -1.4153    0.2853    0.1359 C   0  0  0  0  0  0  0  0  0  0  0  0
   -2.7927    0.2983    0.3511 N   0  0  0  0  0  0  0  0  0  0  0  0
   -3.8979    0.3875    0.5053 N   0  0  0  0  0  0  0  0  0  0  0  0
   -0.9271    1.5504   -0.2246 C   0  0  0  0  0  0  0  0  0  0  0  0
    0.4808    1.4623   -0.4312 C   0  0  0  0  0  0  0  0  0  0  0  0
    1.2150    0.2892   -0.2904 C   0  0  0  0  0  0  0  0  0  0  0  0
    0.6021   -0.9344    0.0820 C   0  0  0  0  0  0  0  0  0  0  0  0
   -0.7552   -0.9623    0.3085 C   0  0  0  0  0  0  0  0  0  0  0  0
   -3.8421    4.7668   -0.4963 H   0  0  0  0  0  0  0  0  0  0  0  0
    1.0257    2.3626   -0.7192 H   0  0  0  0  0  0  0  0  0  0  0  0
    2.2894    0.2952   -0.4685 H   0  0  0  0  0  0  0  0  0  0  0  0
    1.1962   -1.8366    0.1874 H   0  0  0  0  0  0  0  0  0  0  0  0
   -1.2810   -1.8686    0.5974 H   0  0  0  0  0  0  0  0  0  0  0  0
   -5.7617    3.2024   -0.1680 B   0  0  0  0  0  0  0  0  0  0  0  0
   -4.8238    2.6987   -0.9737 F   0  0  0  0  0  0  0  0  0  0  0  0
   -4.6075    5.0531   -0.0500 F   0  0  0  0  0  0  0  0  0  0  0  0
   -6.8467    3.7406   -0.6943 F   0  0  0  0  0  0  0  0  0  0  0  0
   -5.7121    2.9227    1.1237 F   0  0  0  0  0  0  0  0  0  0  0  0
  1  8  1  0  0  0  0
  1  2  1  0  0  0  0
  2  3  1  0  0  0  0
  4  1  2  0  0  0  0
  5  6  2  0  0  0  0
  5  4  1  0  0  0  0
  6  7  1  0  0  0  0
  7 12  1  0  0  0  0
  7  8  2  0  0  0  0
  8 13  1  0  0  0  0
  9 16  1  0  0  0  0
 10  5  1  0  0  0  0
 11  6  1  0  0  0  0
 14 18  1  0  0  0  0
 15 14  1  0  0  0  0
 17 14  1  0  0  0  0
M  RAD  3   2   2   3   3   4   2
M  END
