Coordinates from ORCA-job PhN2+~BF4-_B3LYPG-6-31G_dp-CH-Scan-d09-49-n800
 OpenBabel11261919213D

 18 16  0  0  0  0  0  0  0  0999 V2000
   -1.5643    0.3032    0.1096 C   0  0  0  0  0  0  0  0  0  0  0  0
   -2.9422    0.2080    0.2783 N   0  0  0  0  0  0  0  0  0  0  0  0
   -4.0539    0.1917    0.4018 N   0  0  0  0  0  0  0  0  0  0  0  0
   -1.1381    1.6074   -0.1938 C   0  0  0  0  0  0  0  0  0  0  0  0
    0.2765    1.6157   -0.3510 C   0  0  0  0  0  0  0  0  0  0  0  0
    1.0794    0.4869   -0.2192 C   0  0  0  0  0  0  0  0  0  0  0  0
    0.5330   -0.7833    0.0910 C   0  0  0  0  0  0  0  0  0  0  0  0
   -0.8271   -0.9030    0.2654 C   0  0  0  0  0  0  0  0  0  0  0  0
   -3.2723    4.1712   -0.4792 H   0  0  0  0  0  0  0  0  0  0  0  0
    0.7713    2.5574   -0.5912 H   0  0  0  0  0  0  0  0  0  0  0  0
    2.1566    0.5673   -0.3566 H   0  0  0  0  0  0  0  0  0  0  0  0
    1.1781   -1.6502    0.1900 H   0  0  0  0  0  0  0  0  0  0  0  0
   -1.3031   -1.8498    0.5057 H   0  0  0  0  0  0  0  0  0  0  0  0
   -5.6145    3.2000   -0.1180 B   0  0  0  0  0  0  0  0  0  0  0  0
   -5.2539    2.4280   -1.1406 F   0  0  0  0  0  0  0  0  0  0  0  0
   -4.0828    4.6316   -0.4552 F   0  0  0  0  0  0  0  0  0  0  0  0
   -6.6053    4.0631   -0.2602 F   0  0  0  0  0  0  0  0  0  0  0  0
   -5.1913    2.8683    1.0984 F   0  0  0  0  0  0  0  0  0  0  0  0
  1  8  1  0  0  0  0
  1  2  1  0  0  0  0
  2  3  1  0  0  0  0
  4  1  2  0  0  0  0
  5  6  2  0  0  0  0
  5  4  1  0  0  0  0
  6  7  1  0  0  0  0
  7 12  1  0  0  0  0
  7  8  2  0  0  0  0
  8 13  1  0  0  0  0
  9 16  1  0  0  0  0
 10  5  1  0  0  0  0
 11  6  1  0  0  0  0
 14 18  1  0  0  0  0
 15 14  1  0  0  0  0
 17 14  1  0  0  0  0
M  RAD  3   2   2   3   3   4   2
M  END
