Coordinates from ORCA-job PhN2+~BF4-_B3LYPG-6-31G_dp-CH-Scan-d09-49-n800
 OpenBabel11261919213D

 18 16  0  0  0  0  0  0  0  0999 V2000
   -1.7996    0.3718    0.0741 C   0  0  0  0  0  0  0  0  0  0  0  0
   -3.1625    0.1559    0.2184 N   0  0  0  0  0  0  0  0  0  0  0  0
   -4.2647    0.0158    0.3264 N   0  0  0  0  0  0  0  0  0  0  0  0
   -1.4355    1.6958   -0.2357 C   0  0  0  0  0  0  0  0  0  0  0  0
   -0.0303    1.8113   -0.3648 C   0  0  0  0  0  0  0  0  0  0  0  0
    0.8470    0.7418   -0.2018 C   0  0  0  0  0  0  0  0  0  0  0  0
    0.3819   -0.5555    0.1103 C   0  0  0  0  0  0  0  0  0  0  0  0
   -0.9717   -0.7675    0.2563 C   0  0  0  0  0  0  0  0  0  0  0  0
   -2.8403    3.3110   -0.4520 H   0  0  0  0  0  0  0  0  0  0  0  0
    0.3946    2.7842   -0.6054 H   0  0  0  0  0  0  0  0  0  0  0  0
    1.9176    0.8983   -0.3165 H   0  0  0  0  0  0  0  0  0  0  0  0
    1.0803   -1.3764    0.2341 H   0  0  0  0  0  0  0  0  0  0  0  0
   -1.3833   -1.7432    0.4968 H   0  0  0  0  0  0  0  0  0  0  0  0
   -5.1243    3.1821   -0.1004 B   0  0  0  0  0  0  0  0  0  0  0  0
   -5.1890    2.2748   -1.0970 F   0  0  0  0  0  0  0  0  0  0  0  0
   -3.5470    3.9720   -0.5207 F   0  0  0  0  0  0  0  0  0  0  0  0
   -5.9232    4.2487   -0.1629 F   0  0  0  0  0  0  0  0  0  0  0  0
   -4.8039    2.6922    1.1156 F   0  0  0  0  0  0  0  0  0  0  0  0
  1  2  1  0  0  0  0
  1  8  2  0  0  0  0
  2  3  1  0  0  0  0
  4  1  1  0  0  0  0
  5  4  2  0  0  0  0
  5  6  1  0  0  0  0
  6  7  2  0  0  0  0
  7 12  1  0  0  0  0
  7  8  1  0  0  0  0
  8 13  1  0  0  0  0
 10  5  1  0  0  0  0
 11  6  1  0  0  0  0
 14 18  1  0  0  0  0
 15 14  1  0  0  0  0
 16  9  1  0  0  0  0
 17 14  1  0  0  0  0
M  RAD  3   2   2   3   3   4   2
M  END
