Coordinates from ORCA-job PhN2+~BF4-_B3LYPG-6-31G_dp-CH-Scan-d09-49-n800
 OpenBabel11261919213D

 18 17  0  0  0  0  0  0  0  0999 V2000
   -2.1227    0.4770   -0.1962 C   0  0  0  0  0  0  0  0  0  0  0  0
   -3.4688    0.1535   -0.2368 N   0  0  0  0  0  0  0  0  0  0  0  0
   -4.5122   -0.2237   -0.2751 N   0  0  0  0  0  0  0  0  0  0  0  0
   -1.6768    1.6629   -0.7980 C   0  0  0  0  0  0  0  0  0  0  0  0
   -0.3067    1.9016   -0.7594 C   0  0  0  0  0  0  0  0  0  0  0  0
    0.5606    0.9971   -0.1422 C   0  0  0  0  0  0  0  0  0  0  0  0
    0.0787   -0.1768    0.4549 C   0  0  0  0  0  0  0  0  0  0  0  0
   -1.2787   -0.4565    0.4348 C   0  0  0  0  0  0  0  0  0  0  0  0
   -2.3826    2.3396   -1.2205 H   0  0  0  0  0  0  0  0  0  0  0  0
    0.0775    2.8136   -1.2025 H   0  0  0  0  0  0  0  0  0  0  0  0
    1.6255    1.2077   -0.1174 H   0  0  0  0  0  0  0  0  0  0  0  0
    0.7612   -0.8685    0.9361 H   0  0  0  0  0  0  0  0  0  0  0  0
   -1.6862   -1.3519    0.8902 H   0  0  0  0  0  0  0  0  0  0  0  0
   -4.3260    3.0853    0.2208 B   0  0  0  0  0  0  0  0  0  0  0  0
   -4.4324    2.3760   -1.0344 F   0  0  0  0  0  0  0  0  0  0  0  0
   -3.1906    3.9030    0.1362 F   0  0  0  0  0  0  0  0  0  0  0  0
   -5.4748    3.7887    0.4745 F   0  0  0  0  0  0  0  0  0  0  0  0
   -4.0988    2.0846    1.2100 F   0  0  0  0  0  0  0  0  0  0  0  0
  1  8  2  0  0  0  0
  2  1  1  0  0  0  0
  3  2  1  0  0  0  0
  4  5  2  0  0  0  0
  4  1  1  0  0  0  0
  5  6  1  0  0  0  0
  6 11  1  0  0  0  0
  6  7  2  0  0  0  0
  7 12  1  0  0  0  0
  8  7  1  0  0  0  0
  8 13  1  0  0  0  0
  9  4  1  0  0  0  0
 10  5  1  0  0  0  0
 14 17  1  0  0  0  0
 14 18  1  0  0  0  0
 15 14  1  0  0  0  0
 16 14  1  0  0  0  0
M  RAD  2   2   2   3   3
M  END
