Coordinates from ORCA-job PhN2+~BF4-_B3LYPG-6-31G_dp-CH-Scan-d09-49-n800
 OpenBabel11261919213D

 18 16  0  0  0  0  0  0  0  0999 V2000
   -1.3290    0.3035    0.1480 C   0  0  0  0  0  0  0  0  0  0  0  0
   -2.7031    0.3802    0.3722 N   0  0  0  0  0  0  0  0  0  0  0  0
   -3.8025    0.5172    0.5346 N   0  0  0  0  0  0  0  0  0  0  0  0
   -0.7835    1.5492   -0.1960 C   0  0  0  0  0  0  0  0  0  0  0  0
    0.6177    1.3982   -0.4122 C   0  0  0  0  0  0  0  0  0  0  0  0
    1.2957    0.1895   -0.2941 C   0  0  0  0  0  0  0  0  0  0  0  0
    0.6272   -1.0096    0.0629 C   0  0  0  0  0  0  0  0  0  0  0  0
   -0.7287   -0.9770    0.2972 C   0  0  0  0  0  0  0  0  0  0  0  0
   -4.1074    4.9552   -0.5168 H   0  0  0  0  0  0  0  0  0  0  0  0
    1.2032    2.2762   -0.6894 H   0  0  0  0  0  0  0  0  0  0  0  0
    2.3682    0.1469   -0.4787 H   0  0  0  0  0  0  0  0  0  0  0  0
    1.1786   -1.9403    0.1505 H   0  0  0  0  0  0  0  0  0  0  0  0
   -1.2955   -1.8616    0.5753 H   0  0  0  0  0  0  0  0  0  0  0  0
   -5.8614    3.2150   -0.1733 B   0  0  0  0  0  0  0  0  0  0  0  0
   -4.8657    2.8046   -0.9625 F   0  0  0  0  0  0  0  0  0  0  0  0
   -4.8788    5.1712   -0.0427 F   0  0  0  0  0  0  0  0  0  0  0  0
   -6.9808    3.6540   -0.7190 F   0  0  0  0  0  0  0  0  0  0  0  0
   -5.8081    2.9408    1.1188 F   0  0  0  0  0  0  0  0  0  0  0  0
  1  8  1  0  0  0  0
  1  2  1  0  0  0  0
  2  3  1  0  0  0  0
  4  1  2  0  0  0  0
  5  6  2  0  0  0  0
  5  4  1  0  0  0  0
  6  7  1  0  0  0  0
  7 12  1  0  0  0  0
  7  8  2  0  0  0  0
  8 13  1  0  0  0  0
  9 16  1  0  0  0  0
 10  5  1  0  0  0  0
 11  6  1  0  0  0  0
 14 18  1  0  0  0  0
 15 14  1  0  0  0  0
 17 14  1  0  0  0  0
M  RAD  3   2   2   3   3   4   2
M  END
