Coordinates from ORCA-job PhN2+~BF4-_B3LYPG-6-31G_dp-CH-Scan-d09-49-n800
 OpenBabel11261919213D

 18 16  0  0  0  0  0  0  0  0999 V2000
   -1.5784    0.3044    0.1080 C   0  0  0  0  0  0  0  0  0  0  0  0
   -2.9552    0.2014    0.2751 N   0  0  0  0  0  0  0  0  0  0  0  0
   -4.0668    0.1782    0.3978 N   0  0  0  0  0  0  0  0  0  0  0  0
   -1.1588    1.6111   -0.1963 C   0  0  0  0  0  0  0  0  0  0  0  0
    0.2556    1.6277   -0.3524 C   0  0  0  0  0  0  0  0  0  0  0  0
    1.0649    0.5036   -0.2186 C   0  0  0  0  0  0  0  0  0  0  0  0
    0.5258   -0.7693    0.0924 C   0  0  0  0  0  0  0  0  0  0  0  0
   -0.8338   -0.8969    0.2656 C   0  0  0  0  0  0  0  0  0  0  0  0
   -3.2370    4.1176   -0.4755 H   0  0  0  0  0  0  0  0  0  0  0  0
    0.7449    2.5720   -0.5931 H   0  0  0  0  0  0  0  0  0  0  0  0
    2.1417    0.5903   -0.3551 H   0  0  0  0  0  0  0  0  0  0  0  0
    1.1757   -1.6324    0.1930 H   0  0  0  0  0  0  0  0  0  0  0  0
   -1.3044   -1.8463    0.5064 H   0  0  0  0  0  0  0  0  0  0  0  0
   -5.5925    3.2002   -0.1172 B   0  0  0  0  0  0  0  0  0  0  0  0
   -5.2559    2.4193   -1.1418 F   0  0  0  0  0  0  0  0  0  0  0  0
   -4.0397    4.5933   -0.4575 F   0  0  0  0  0  0  0  0  0  0  0  0
   -6.5672    4.0827   -0.2534 F   0  0  0  0  0  0  0  0  0  0  0  0
   -5.1727    2.8562    1.0975 F   0  0  0  0  0  0  0  0  0  0  0  0
  1  8  1  0  0  0  0
  1  2  1  0  0  0  0
  2  3  1  0  0  0  0
  4  1  2  0  0  0  0
  5  6  2  0  0  0  0
  5  4  1  0  0  0  0
  6  7  1  0  0  0  0
  7 12  1  0  0  0  0
  7  8  2  0  0  0  0
  8 13  1  0  0  0  0
  9 16  1  0  0  0  0
 10  5  1  0  0  0  0
 11  6  1  0  0  0  0
 14 18  1  0  0  0  0
 15 14  1  0  0  0  0
 17 14  1  0  0  0  0
M  RAD  3   2   2   3   3   4   2
M  END
