Coordinates from ORCA-job PhN2+~BF4-_B3LYPG-6-31G_dp-CH-Scan-d09-49-n800
 OpenBabel11261919213D

 18 16  0  0  0  0  0  0  0  0999 V2000
   -1.7313    0.3570    0.1048 C   0  0  0  0  0  0  0  0  0  0  0  0
   -3.0970    0.1778    0.2766 N   0  0  0  0  0  0  0  0  0  0  0  0
   -4.2009    0.0689    0.4083 N   0  0  0  0  0  0  0  0  0  0  0  0
   -1.3510    1.6782   -0.1945 C   0  0  0  0  0  0  0  0  0  0  0  0
    0.0560    1.7606   -0.3529 C   0  0  0  0  0  0  0  0  0  0  0  0
    0.9114    0.6695   -0.2248 C   0  0  0  0  0  0  0  0  0  0  0  0
    0.4242   -0.6230    0.0802 C   0  0  0  0  0  0  0  0  0  0  0  0
   -0.9296   -0.8069    0.2539 C   0  0  0  0  0  0  0  0  0  0  0  0
   -2.9423    3.5448   -0.4065 H   0  0  0  0  0  0  0  0  0  0  0  0
    0.5008    2.7262   -0.5899 H   0  0  0  0  0  0  0  0  0  0  0  0
    1.9829    0.8023   -0.3617 H   0  0  0  0  0  0  0  0  0  0  0  0
    1.1072   -1.4605    0.1765 H   0  0  0  0  0  0  0  0  0  0  0  0
   -1.3587   -1.7763    0.4903 H   0  0  0  0  0  0  0  0  0  0  0  0
   -5.2825    3.1868   -0.1313 B   0  0  0  0  0  0  0  0  0  0  0  0
   -5.1616    2.2987   -1.1302 F   0  0  0  0  0  0  0  0  0  0  0  0
   -3.6683    4.1560   -0.4557 F   0  0  0  0  0  0  0  0  0  0  0  0
   -6.1271    4.2036   -0.2700 F   0  0  0  0  0  0  0  0  0  0  0  0
   -4.9859    2.7494    1.1019 F   0  0  0  0  0  0  0  0  0  0  0  0
  1  8  1  0  0  0  0
  1  2  1  0  0  0  0
  2  3  1  0  0  0  0
  4  1  2  0  0  0  0
  5  6  2  0  0  0  0
  5  4  1  0  0  0  0
  6  7  1  0  0  0  0
  7 12  1  0  0  0  0
  7  8  2  0  0  0  0
  8 13  1  0  0  0  0
 10  5  1  0  0  0  0
 11  6  1  0  0  0  0
 14 18  1  0  0  0  0
 15 14  1  0  0  0  0
 16  9  1  0  0  0  0
 17 14  1  0  0  0  0
M  RAD  3   2   2   3   3   4   2
M  END
