Coordinates from ORCA-job PhN2+~BF4-_B3LYPG-6-31G_dp-CH-Scan-d09-49-n800
 OpenBabel11261919213D

 18 16  0  0  0  0  0  0  0  0999 V2000
   -1.6686    0.3333    0.0993 C   0  0  0  0  0  0  0  0  0  0  0  0
   -3.0401    0.1839    0.2617 N   0  0  0  0  0  0  0  0  0  0  0  0
   -4.1490    0.1131    0.3827 N   0  0  0  0  0  0  0  0  0  0  0  0
   -1.2742    1.6489   -0.2045 C   0  0  0  0  0  0  0  0  0  0  0  0
    0.1371    1.7067   -0.3550 C   0  0  0  0  0  0  0  0  0  0  0  0
    0.9756    0.6043   -0.2160 C   0  0  0  0  0  0  0  0  0  0  0  0
    0.4685   -0.6806    0.0936 C   0  0  0  0  0  0  0  0  0  0  0  0
   -0.8884   -0.8441    0.2604 C   0  0  0  0  0  0  0  0  0  0  0  0
   -3.0481    3.7657   -0.4460 H   0  0  0  0  0  0  0  0  0  0  0  0
    0.5996    2.6639   -0.5946 H   0  0  0  0  0  0  0  0  0  0  0  0
    2.0500    0.7203   -0.3475 H   0  0  0  0  0  0  0  0  0  0  0  0
    1.1397   -1.5266    0.1984 H   0  0  0  0  0  0  0  0  0  0  0  0
   -1.3336   -1.8057    0.4997 H   0  0  0  0  0  0  0  0  0  0  0  0
   -5.4263    3.1925   -0.1154 B   0  0  0  0  0  0  0  0  0  0  0  0
   -5.2389    2.3511   -1.1354 F   0  0  0  0  0  0  0  0  0  0  0  0
   -3.7999    4.3290   -0.4750 F   0  0  0  0  0  0  0  0  0  0  0  0
   -6.3099    4.1732   -0.2299 F   0  0  0  0  0  0  0  0  0  0  0  0
   -5.0475    2.7846    1.0985 F   0  0  0  0  0  0  0  0  0  0  0  0
  1  8  1  0  0  0  0
  1  2  1  0  0  0  0
  2  3  1  0  0  0  0
  4  1  2  0  0  0  0
  5  6  2  0  0  0  0
  5  4  1  0  0  0  0
  6  7  1  0  0  0  0
  7 12  1  0  0  0  0
  7  8  2  0  0  0  0
  8 13  1  0  0  0  0
 10  5  1  0  0  0  0
 11  6  1  0  0  0  0
 14 18  1  0  0  0  0
 15 14  1  0  0  0  0
 16  9  1  0  0  0  0
 17 14  1  0  0  0  0
M  RAD  3   2   2   3   3   4   2
M  END
