Coordinates from ORCA-job PhN2+~BF4-_B3LYPG-6-31G_dp-CH-Scan-d09-49-n800
 OpenBabel11261919213D

 18 16  0  0  0  0  0  0  0  0999 V2000
   -1.5202    0.2941    0.1143 C   0  0  0  0  0  0  0  0  0  0  0  0
   -2.9003    0.2251    0.2851 N   0  0  0  0  0  0  0  0  0  0  0  0
   -4.0123    0.2346    0.4098 N   0  0  0  0  0  0  0  0  0  0  0  0
   -1.0762    1.5924   -0.1863 C   0  0  0  0  0  0  0  0  0  0  0  0
    0.3390    1.5769   -0.3469 C   0  0  0  0  0  0  0  0  0  0  0  0
    1.1234    0.4347   -0.2203 C   0  0  0  0  0  0  0  0  0  0  0  0
    0.5571   -0.8275    0.0881 C   0  0  0  0  0  0  0  0  0  0  0  0
   -0.8043   -0.9255    0.2657 C   0  0  0  0  0  0  0  0  0  0  0  0
   -3.3890    4.3451   -0.4923 H   0  0  0  0  0  0  0  0  0  0  0  0
    0.8494    2.5109   -0.5857 H   0  0  0  0  0  0  0  0  0  0  0  0
    2.2015    0.4975   -0.3603 H   0  0  0  0  0  0  0  0  0  0  0  0
    1.1884   -1.7051    0.1832 H   0  0  0  0  0  0  0  0  0  0  0  0
   -1.2955   -1.8649    0.5047 H   0  0  0  0  0  0  0  0  0  0  0  0
   -5.6783    3.2023   -0.1197 B   0  0  0  0  0  0  0  0  0  0  0  0
   -5.2485    2.4616   -1.1376 F   0  0  0  0  0  0  0  0  0  0  0  0
   -4.2259    4.7512   -0.4504 F   0  0  0  0  0  0  0  0  0  0  0  0
   -6.7185    4.0013   -0.2773 F   0  0  0  0  0  0  0  0  0  0  0  0
   -5.2436    2.9086    1.1008 F   0  0  0  0  0  0  0  0  0  0  0  0
  1  8  1  0  0  0  0
  1  2  1  0  0  0  0
  2  3  1  0  0  0  0
  4  1  2  0  0  0  0
  5  6  2  0  0  0  0
  5  4  1  0  0  0  0
  6  7  1  0  0  0  0
  7 12  1  0  0  0  0
  7  8  2  0  0  0  0
  8 13  1  0  0  0  0
  9 16  1  0  0  0  0
 10  5  1  0  0  0  0
 11  6  1  0  0  0  0
 14 18  1  0  0  0  0
 15 14  1  0  0  0  0
 17 14  1  0  0  0  0
M  RAD  3   2   2   3   3   4   2
M  END
