Coordinates from ORCA-job PhN2+~BF4-_B3LYPG-6-31G_dp-CH-Scan-d09-49-n800
 OpenBabel11261919213D

 18 16  0  0  0  0  0  0  0  0999 V2000
   -1.6885    0.3373    0.0972 C   0  0  0  0  0  0  0  0  0  0  0  0
   -3.0584    0.1765    0.2586 N   0  0  0  0  0  0  0  0  0  0  0  0
   -4.1663    0.0933    0.3796 N   0  0  0  0  0  0  0  0  0  0  0  0
   -1.3004    1.6552   -0.2067 C   0  0  0  0  0  0  0  0  0  0  0  0
    0.1102    1.7224   -0.3558 C   0  0  0  0  0  0  0  0  0  0  0  0
    0.9556    0.6255   -0.2156 C   0  0  0  0  0  0  0  0  0  0  0  0
    0.4563   -0.6622    0.0937 C   0  0  0  0  0  0  0  0  0  0  0  0
   -0.8998   -0.8342    0.2591 C   0  0  0  0  0  0  0  0  0  0  0  0
   -3.0118    3.7004   -0.4428 H   0  0  0  0  0  0  0  0  0  0  0  0
    0.5663    2.6826   -0.5952 H   0  0  0  0  0  0  0  0  0  0  0  0
    2.0293    0.7485   -0.3459 H   0  0  0  0  0  0  0  0  0  0  0  0
    1.1326   -1.5040    0.1995 H   0  0  0  0  0  0  0  0  0  0  0  0
   -1.3390   -1.7985    0.4981 H   0  0  0  0  0  0  0  0  0  0  0  0
   -5.3865    3.1914   -0.1143 B   0  0  0  0  0  0  0  0  0  0  0  0
   -5.2238    2.3377   -1.1298 F   0  0  0  0  0  0  0  0  0  0  0  0
   -3.7540    4.2796   -0.4762 F   0  0  0  0  0  0  0  0  0  0  0  0
   -6.2552    4.1860   -0.2305 F   0  0  0  0  0  0  0  0  0  0  0  0
   -5.0204    2.7759    1.1020 F   0  0  0  0  0  0  0  0  0  0  0  0
  1  2  1  0  0  0  0
  1  8  1  0  0  0  0
  2  3  1  0  0  0  0
  4  1  2  0  0  0  0
  5  6  2  0  0  0  0
  5  4  1  0  0  0  0
  6  7  1  0  0  0  0
  7 12  1  0  0  0  0
  7  8  2  0  0  0  0
  8 13  1  0  0  0  0
 10  5  1  0  0  0  0
 11  6  1  0  0  0  0
 14 18  1  0  0  0  0
 15 14  1  0  0  0  0
 16  9  1  0  0  0  0
 17 14  1  0  0  0  0
M  RAD  3   2   2   3   3   4   2
M  END
