Coordinates from ORCA-job PhN2+~BF4-_B3LYPG-6-31G_dp-CH-Scan-d09-49-n800
 OpenBabel11261919213D

 18 16  0  0  0  0  0  0  0  0999 V2000
   -1.3924    0.2885    0.1399 C   0  0  0  0  0  0  0  0  0  0  0  0
   -2.7688    0.3165    0.3586 N   0  0  0  0  0  0  0  0  0  0  0  0
   -3.8730    0.4135    0.5160 N   0  0  0  0  0  0  0  0  0  0  0  0
   -0.8903    1.5488   -0.2187 C   0  0  0  0  0  0  0  0  0  0  0  0
    0.5160    1.4448   -0.4291 C   0  0  0  0  0  0  0  0  0  0  0  0
    1.2368    0.2628   -0.2931 C   0  0  0  0  0  0  0  0  0  0  0  0
    0.6106   -0.9546    0.0777 C   0  0  0  0  0  0  0  0  0  0  0  0
   -0.7464   -0.9673    0.3077 C   0  0  0  0  0  0  0  0  0  0  0  0
   -3.9120    4.8235   -0.4962 H   0  0  0  0  0  0  0  0  0  0  0  0
    1.0707    2.3394   -0.7163 H   0  0  0  0  0  0  0  0  0  0  0  0
    2.3107    0.2566   -0.4741 H   0  0  0  0  0  0  0  0  0  0  0  0
    1.1944   -1.8638    0.1793 H   0  0  0  0  0  0  0  0  0  0  0  0
   -1.2820   -1.8680    0.5957 H   0  0  0  0  0  0  0  0  0  0  0  0
   -5.7894    3.2076   -0.1722 B   0  0  0  0  0  0  0  0  0  0  0  0
   -4.8319    2.7273   -0.9692 F   0  0  0  0  0  0  0  0  0  0  0  0
   -4.6805    5.0876   -0.0419 F   0  0  0  0  0  0  0  0  0  0  0  0
   -6.8805    3.7231   -0.7084 F   0  0  0  0  0  0  0  0  0  0  0  0
   -5.7457    2.9270    1.1193 F   0  0  0  0  0  0  0  0  0  0  0  0
  1  8  1  0  0  0  0
  1  2  1  0  0  0  0
  2  3  1  0  0  0  0
  4  1  2  0  0  0  0
  5  6  2  0  0  0  0
  5  4  1  0  0  0  0
  6  7  1  0  0  0  0
  7 12  1  0  0  0  0
  7  8  2  0  0  0  0
  8 13  1  0  0  0  0
  9 16  1  0  0  0  0
 10  5  1  0  0  0  0
 11  6  1  0  0  0  0
 14 18  1  0  0  0  0
 15 14  1  0  0  0  0
 17 14  1  0  0  0  0
M  RAD  3   2   2   3   3   4   2
M  END
