Coordinates from ORCA-job PhN2+~BF4-_B3LYPG-6-31G_dp-CH-Scan-d09-49-n800
 OpenBabel11261919213D

 18 16  0  0  0  0  0  0  0  0999 V2000
   -1.6375    0.3237    0.1015 C   0  0  0  0  0  0  0  0  0  0  0  0
   -3.0113    0.1894    0.2645 N   0  0  0  0  0  0  0  0  0  0  0  0
   -4.1216    0.1340    0.3833 N   0  0  0  0  0  0  0  0  0  0  0  0
   -1.2345    1.6359   -0.2030 C   0  0  0  0  0  0  0  0  0  0  0  0
    0.1781    1.6797   -0.3545 C   0  0  0  0  0  0  0  0  0  0  0  0
    1.0067    0.5701   -0.2162 C   0  0  0  0  0  0  0  0  0  0  0  0
    0.4886   -0.7107    0.0944 C   0  0  0  0  0  0  0  0  0  0  0  0
   -0.8694   -0.8620    0.2626 C   0  0  0  0  0  0  0  0  0  0  0  0
   -3.1078    3.8849   -0.4527 H   0  0  0  0  0  0  0  0  0  0  0  0
    0.6499    2.6325   -0.5948 H   0  0  0  0  0  0  0  0  0  0  0  0
    2.0821    0.6760   -0.3487 H   0  0  0  0  0  0  0  0  0  0  0  0
    1.1526   -1.5625    0.1988 H   0  0  0  0  0  0  0  0  0  0  0  0
   -1.3234   -1.8194    0.5027 H   0  0  0  0  0  0  0  0  0  0  0  0
   -5.4887    3.1943   -0.1146 B   0  0  0  0  0  0  0  0  0  0  0  0
   -5.2527    2.3732   -1.1385 F   0  0  0  0  0  0  0  0  0  0  0  0
   -3.8757    4.4209   -0.4746 F   0  0  0  0  0  0  0  0  0  0  0  0
   -6.4021    4.1449   -0.2320 F   0  0  0  0  0  0  0  0  0  0  0  0
   -5.0871    2.8084    1.0968 F   0  0  0  0  0  0  0  0  0  0  0  0
  1  8  1  0  0  0  0
  1  2  1  0  0  0  0
  2  3  1  0  0  0  0
  4  1  2  0  0  0  0
  5  6  2  0  0  0  0
  5  4  1  0  0  0  0
  6  7  1  0  0  0  0
  7 12  1  0  0  0  0
  7  8  2  0  0  0  0
  8 13  1  0  0  0  0
 10  5  1  0  0  0  0
 11  6  1  0  0  0  0
 14 18  1  0  0  0  0
 15 14  1  0  0  0  0
 16  9  1  0  0  0  0
 17 14  1  0  0  0  0
M  RAD  3   2   2   3   3   4   2
M  END
