Coordinates from ORCA-job PhN2+~BF4-_B3LYPG-6-31G_dp-CH-Scan-d09-49-n800
 OpenBabel11261919213D

 18 16  0  0  0  0  0  0  0  0999 V2000
   -1.3935    0.2878    0.1400 C   0  0  0  0  0  0  0  0  0  0  0  0
   -2.7700    0.3149    0.3584 N   0  0  0  0  0  0  0  0  0  0  0  0
   -3.8741    0.4121    0.5161 N   0  0  0  0  0  0  0  0  0  0  0  0
   -0.8924    1.5486   -0.2185 C   0  0  0  0  0  0  0  0  0  0  0  0
    0.5140    1.4456   -0.4288 C   0  0  0  0  0  0  0  0  0  0  0  0
    1.2356    0.2642   -0.2930 C   0  0  0  0  0  0  0  0  0  0  0  0
    0.6104   -0.9537    0.0777 C   0  0  0  0  0  0  0  0  0  0  0  0
   -0.7466   -0.9675    0.3076 C   0  0  0  0  0  0  0  0  0  0  0  0
   -3.9089    4.8212   -0.4971 H   0  0  0  0  0  0  0  0  0  0  0  0
    1.0680    2.3407   -0.7159 H   0  0  0  0  0  0  0  0  0  0  0  0
    2.3096    0.2589   -0.4739 H   0  0  0  0  0  0  0  0  0  0  0  0
    1.1949   -1.8625    0.1792 H   0  0  0  0  0  0  0  0  0  0  0  0
   -1.2815   -1.8687    0.5955 H   0  0  0  0  0  0  0  0  0  0  0  0
   -5.7880    3.2076   -0.1720 B   0  0  0  0  0  0  0  0  0  0  0  0
   -4.8316    2.7260   -0.9693 F   0  0  0  0  0  0  0  0  0  0  0  0
   -4.6770    5.0863   -0.0428 F   0  0  0  0  0  0  0  0  0  0  0  0
   -6.8789    3.7242   -0.7077 F   0  0  0  0  0  0  0  0  0  0  0  0
   -5.7440    2.9274    1.1196 F   0  0  0  0  0  0  0  0  0  0  0  0
  1  8  1  0  0  0  0
  1  2  1  0  0  0  0
  2  3  1  0  0  0  0
  4  1  2  0  0  0  0
  5  6  2  0  0  0  0
  5  4  1  0  0  0  0
  6  7  1  0  0  0  0
  7 12  1  0  0  0  0
  7  8  2  0  0  0  0
  8 13  1  0  0  0  0
  9 16  1  0  0  0  0
 10  5  1  0  0  0  0
 11  6  1  0  0  0  0
 14 18  1  0  0  0  0
 15 14  1  0  0  0  0
 17 14  1  0  0  0  0
M  RAD  3   2   2   3   3   4   2
M  END
