Coordinates from ORCA-job PhN2+~BF4-_B3LYPG-6-31G_dp-CH-Scan-d09-49-n800
 OpenBabel11261919213D

 18 16  0  0  0  0  0  0  0  0999 V2000
   -1.4257    0.2790    0.1221 C   0  0  0  0  0  0  0  0  0  0  0  0
   -2.8048    0.2798    0.3240 N   0  0  0  0  0  0  0  0  0  0  0  0
   -3.9125    0.3548    0.4675 N   0  0  0  0  0  0  0  0  0  0  0  0
   -0.9445    1.5463   -0.2412 C   0  0  0  0  0  0  0  0  0  0  0  0
    0.4660    1.4688   -0.4335 C   0  0  0  0  0  0  0  0  0  0  0  0
    1.2089    0.3030   -0.2785 C   0  0  0  0  0  0  0  0  0  0  0  0
    0.6029   -0.9237    0.0950 C   0  0  0  0  0  0  0  0  0  0  0  0
   -0.7563   -0.9619    0.3084 C   0  0  0  0  0  0  0  0  0  0  0  0
   -3.8133    4.7431   -0.5200 H   0  0  0  0  0  0  0  0  0  0  0  0
    1.0061    2.3720   -0.7216 H   0  0  0  0  0  0  0  0  0  0  0  0
    2.2849    0.3173   -0.4460 H   0  0  0  0  0  0  0  0  0  0  0  0
    1.2035   -1.8201    0.2116 H   0  0  0  0  0  0  0  0  0  0  0  0
   -1.2771   -1.8709    0.5975 H   0  0  0  0  0  0  0  0  0  0  0  0
   -5.7547    3.2093   -0.1532 B   0  0  0  0  0  0  0  0  0  0  0  0
   -4.8530    2.6865   -0.9875 F   0  0  0  0  0  0  0  0  0  0  0  0
   -4.5680    5.0353   -0.0597 F   0  0  0  0  0  0  0  0  0  0  0  0
   -6.8430    3.7727   -0.6453 F   0  0  0  0  0  0  0  0  0  0  0  0
   -5.6732    2.9221    1.1355 F   0  0  0  0  0  0  0  0  0  0  0  0
  1  8  1  0  0  0  0
  1  2  1  0  0  0  0
  2  3  1  0  0  0  0
  4  1  2  0  0  0  0
  5  6  2  0  0  0  0
  5  4  1  0  0  0  0
  6  7  1  0  0  0  0
  7 12  1  0  0  0  0
  7  8  2  0  0  0  0
  8 13  1  0  0  0  0
  9 16  1  0  0  0  0
 10  5  1  0  0  0  0
 11  6  1  0  0  0  0
 14 18  1  0  0  0  0
 15 14  1  0  0  0  0
 17 14  1  0  0  0  0
M  RAD  3   2   2   3   3   4   2
M  END
