Coordinates from ORCA-job PhN2+~BF4-_B3LYPG-6-31G_dp-CH-Scan-d09-49-n800
 OpenBabel11261919213D

 18 16  0  0  0  0  0  0  0  0999 V2000
   -1.4530    0.2712    0.1104 C   0  0  0  0  0  0  0  0  0  0  0  0
   -2.8329    0.2497    0.3023 N   0  0  0  0  0  0  0  0  0  0  0  0
   -3.9424    0.3064    0.4391 N   0  0  0  0  0  0  0  0  0  0  0  0
   -0.9892    1.5450   -0.2542 C   0  0  0  0  0  0  0  0  0  0  0  0
    0.4239    1.4896   -0.4344 C   0  0  0  0  0  0  0  0  0  0  0  0
    1.1845    0.3368   -0.2680 C   0  0  0  0  0  0  0  0  0  0  0  0
    0.5956   -0.8981    0.1052 C   0  0  0  0  0  0  0  0  0  0  0  0
   -0.7646   -0.9576    0.3071 C   0  0  0  0  0  0  0  0  0  0  0  0
   -3.7293    4.6744   -0.5371 H   0  0  0  0  0  0  0  0  0  0  0  0
    0.9517    2.4003   -0.7217 H   0  0  0  0  0  0  0  0  0  0  0  0
    2.2616    0.3682   -0.4262 H   0  0  0  0  0  0  0  0  0  0  0  0
    1.2097   -1.7842    0.2306 H   0  0  0  0  0  0  0  0  0  0  0  0
   -1.2729   -1.8740    0.5955 H   0  0  0  0  0  0  0  0  0  0  0  0
   -5.7252    3.2110   -0.1403 B   0  0  0  0  0  0  0  0  0  0  0  0
   -4.8714    2.6504   -0.9996 F   0  0  0  0  0  0  0  0  0  0  0  0
   -4.4766    4.9889   -0.0793 F   0  0  0  0  0  0  0  0  0  0  0  0
   -6.8057    3.8154   -0.6005 F   0  0  0  0  0  0  0  0  0  0  0  0
   -5.6177    2.9199    1.1460 F   0  0  0  0  0  0  0  0  0  0  0  0
  1  2  1  0  0  0  0
  1  8  1  0  0  0  0
  2  3  1  0  0  0  0
  4  1  2  0  0  0  0
  5  6  2  0  0  0  0
  5  4  1  0  0  0  0
  6  7  1  0  0  0  0
  7 12  1  0  0  0  0
  7  8  2  0  0  0  0
  8 13  1  0  0  0  0
  9 16  1  0  0  0  0
 10  5  1  0  0  0  0
 11  6  1  0  0  0  0
 14 18  1  0  0  0  0
 15 14  1  0  0  0  0
 17 14  1  0  0  0  0
M  RAD  3   2   2   3   3   4   2
M  END
