Coordinates from ORCA-job PhN2+~BF4-_B3LYPG-6-31G_dp-CH-Scan-d09-49-n800
 OpenBabel11261919213D

 18 17  0  0  0  0  0  0  0  0999 V2000
   -2.1466    0.4843   -0.2203 C   0  0  0  0  0  0  0  0  0  0  0  0
   -3.4892    0.1476   -0.2701 N   0  0  0  0  0  0  0  0  0  0  0  0
   -4.5259   -0.2475   -0.3134 N   0  0  0  0  0  0  0  0  0  0  0  0
   -1.7066    1.6678   -0.8317 C   0  0  0  0  0  0  0  0  0  0  0  0
   -0.3382    1.9163   -0.7785 C   0  0  0  0  0  0  0  0  0  0  0  0
    0.5303    1.0302   -0.1384 C   0  0  0  0  0  0  0  0  0  0  0  0
    0.0517   -0.1400    0.4680 C   0  0  0  0  0  0  0  0  0  0  0  0
   -1.3027   -0.4323    0.4336 C   0  0  0  0  0  0  0  0  0  0  0  0
   -2.2949    2.2295   -1.2169 H   0  0  0  0  0  0  0  0  0  0  0  0
    0.0414    2.8269   -1.2287 H   0  0  0  0  0  0  0  0  0  0  0  0
    1.5924    1.2521   -0.1024 H   0  0  0  0  0  0  0  0  0  0  0  0
    0.7340   -0.8188    0.9679 H   0  0  0  0  0  0  0  0  0  0  0  0
   -1.7083   -1.3245    0.8964 H   0  0  0  0  0  0  0  0  0  0  0  0
   -4.2790    3.0621    0.2402 B   0  0  0  0  0  0  0  0  0  0  0  0
   -4.4172    2.3702   -1.0195 F   0  0  0  0  0  0  0  0  0  0  0  0
   -3.1080    3.8313    0.1642 F   0  0  0  0  0  0  0  0  0  0  0  0
   -5.3949    3.8132    0.5032 F   0  0  0  0  0  0  0  0  0  0  0  0
   -4.0922    2.0447    1.2215 F   0  0  0  0  0  0  0  0  0  0  0  0
  1  8  2  0  0  0  0
  2  1  1  0  0  0  0
  3  2  1  0  0  0  0
  4  5  2  0  0  0  0
  4  1  1  0  0  0  0
  5  6  1  0  0  0  0
  6 11  1  0  0  0  0
  6  7  2  0  0  0  0
  7 12  1  0  0  0  0
  8  7  1  0  0  0  0
  8 13  1  0  0  0  0
  9  4  1  0  0  0  0
 10  5  1  0  0  0  0
 14 17  1  0  0  0  0
 14 18  1  0  0  0  0
 15 14  1  0  0  0  0
 16 14  1  0  0  0  0
M  RAD  2   2   2   3   3
M  END
