Coordinates from ORCA-job PhN2+~BF4-_B3LYPG-6-31G_dp-CH-Scan-d09-49-n800
 OpenBabel11261919213D

 18 16  0  0  0  0  0  0  0  0999 V2000
   -1.7417    0.3609    0.1065 C   0  0  0  0  0  0  0  0  0  0  0  0
   -3.1065    0.1769    0.2801 N   0  0  0  0  0  0  0  0  0  0  0  0
   -4.2095    0.0630    0.4132 N   0  0  0  0  0  0  0  0  0  0  0  0
   -1.3638    1.6829   -0.1927 C   0  0  0  0  0  0  0  0  0  0  0  0
    0.0423    1.7692   -0.3533 C   0  0  0  0  0  0  0  0  0  0  0  0
    0.9005    0.6799   -0.2271 C   0  0  0  0  0  0  0  0  0  0  0  0
    0.4167   -0.6136    0.0778 C   0  0  0  0  0  0  0  0  0  0  0  0
   -0.9364   -0.8007    0.2535 C   0  0  0  0  0  0  0  0  0  0  0  0
   -2.9247    3.5101   -0.3982 H   0  0  0  0  0  0  0  0  0  0  0  0
    0.4840    2.7360   -0.5904 H   0  0  0  0  0  0  0  0  0  0  0  0
    1.9714    0.8154   -0.3657 H   0  0  0  0  0  0  0  0  0  0  0  0
    1.1016   -1.4496    0.1726 H   0  0  0  0  0  0  0  0  0  0  0  0
   -1.3628   -1.7712    0.4900 H   0  0  0  0  0  0  0  0  0  0  0  0
   -5.2579    3.1848   -0.1348 B   0  0  0  0  0  0  0  0  0  0  0  0
   -5.1454    2.2908   -1.1310 F   0  0  0  0  0  0  0  0  0  0  0  0
   -3.6467    4.1295   -0.4491 F   0  0  0  0  0  0  0  0  0  0  0  0
   -6.0974    4.2063   -0.2782 F   0  0  0  0  0  0  0  0  0  0  0  0
   -4.9776    2.7425    1.1016 F   0  0  0  0  0  0  0  0  0  0  0  0
  1  8  1  0  0  0  0
  1  2  1  0  0  0  0
  2  3  1  0  0  0  0
  4  1  2  0  0  0  0
  5  6  2  0  0  0  0
  5  4  1  0  0  0  0
  6  7  1  0  0  0  0
  7 12  1  0  0  0  0
  7  8  2  0  0  0  0
  8 13  1  0  0  0  0
 10  5  1  0  0  0  0
 11  6  1  0  0  0  0
 14 18  1  0  0  0  0
 15 14  1  0  0  0  0
 16  9  1  0  0  0  0
 17 14  1  0  0  0  0
M  RAD  3   2   2   3   3   4   2
M  END
