Coordinates from ORCA-job PhN2+~BF4-_B3LYPG-6-31G_dp-CH-Scan-d09-49-n800
 OpenBabel11261919213D

 18 17  0  0  0  0  0  0  0  0999 V2000
   -2.1271    0.4780   -0.1997 C   0  0  0  0  0  0  0  0  0  0  0  0
   -3.4727    0.1525   -0.2416 N   0  0  0  0  0  0  0  0  0  0  0  0
   -4.5158   -0.2256   -0.2805 N   0  0  0  0  0  0  0  0  0  0  0  0
   -1.6828    1.6643   -0.8028 C   0  0  0  0  0  0  0  0  0  0  0  0
   -0.3130    1.9048   -0.7617 C   0  0  0  0  0  0  0  0  0  0  0  0
    0.5549    1.0032   -0.1414 C   0  0  0  0  0  0  0  0  0  0  0  0
    0.0741   -0.1706    0.4564 C   0  0  0  0  0  0  0  0  0  0  0  0
   -1.2827   -0.4530    0.4341 C   0  0  0  0  0  0  0  0  0  0  0  0
   -2.3642    2.3159   -1.2178 H   0  0  0  0  0  0  0  0  0  0  0  0
    0.0703    2.8169   -1.2055 H   0  0  0  0  0  0  0  0  0  0  0  0
    1.6193    1.2160   -0.1148 H   0  0  0  0  0  0  0  0  0  0  0  0
    0.7571   -0.8603    0.9399 H   0  0  0  0  0  0  0  0  0  0  0  0
   -1.6895   -1.3482    0.8902 H   0  0  0  0  0  0  0  0  0  0  0  0
   -4.3176    3.0819    0.2232 B   0  0  0  0  0  0  0  0  0  0  0  0
   -4.4299    2.3745   -1.0324 F   0  0  0  0  0  0  0  0  0  0  0  0
   -3.1768    3.8922    0.1394 F   0  0  0  0  0  0  0  0  0  0  0  0
   -5.4617    3.7922    0.4791 F   0  0  0  0  0  0  0  0  0  0  0  0
   -4.0958    2.0785    1.2111 F   0  0  0  0  0  0  0  0  0  0  0  0
  1  8  2  0  0  0  0
  2  1  1  0  0  0  0
  3  2  1  0  0  0  0
  4  5  2  0  0  0  0
  4  1  1  0  0  0  0
  5  6  1  0  0  0  0
  6 11  1  0  0  0  0
  6  7  2  0  0  0  0
  7 12  1  0  0  0  0
  8  7  1  0  0  0  0
  8 13  1  0  0  0  0
  9  4  1  0  0  0  0
 10  5  1  0  0  0  0
 14 17  1  0  0  0  0
 14 18  1  0  0  0  0
 15 14  1  0  0  0  0
 16 14  1  0  0  0  0
M  RAD  2   2   2   3   3
M  END
