Coordinates from ORCA-job PhN2+~BF4-_B3LYPG-6-31G_dp-CH-Scan-d09-49-n800
 OpenBabel11261919213D

 18 16  0  0  0  0  0  0  0  0999 V2000
   -1.9242    0.4314    0.0894 C   0  0  0  0  0  0  0  0  0  0  0  0
   -3.2779    0.1791    0.2523 N   0  0  0  0  0  0  0  0  0  0  0  0
   -4.3705   -0.0000    0.3729 N   0  0  0  0  0  0  0  0  0  0  0  0
   -1.5554    1.7536   -0.2178 C   0  0  0  0  0  0  0  0  0  0  0  0
   -0.1653    1.9063   -0.3686 C   0  0  0  0  0  0  0  0  0  0  0  0
    0.7297    0.8468   -0.2234 C   0  0  0  0  0  0  0  0  0  0  0  0
    0.2837   -0.4528    0.0875 C   0  0  0  0  0  0  0  0  0  0  0  0
   -1.0673   -0.6845    0.2510 C   0  0  0  0  0  0  0  0  0  0  0  0
   -2.6085    2.9435   -0.3664 H   0  0  0  0  0  0  0  0  0  0  0  0
    0.2287    2.8903   -0.6089 H   0  0  0  0  0  0  0  0  0  0  0  0
    1.7953    1.0200   -0.3520 H   0  0  0  0  0  0  0  0  0  0  0  0
    0.9917   -1.2670    0.1984 H   0  0  0  0  0  0  0  0  0  0  0  0
   -1.4593   -1.6674    0.4915 H   0  0  0  0  0  0  0  0  0  0  0  0
   -4.8045    3.1358   -0.1461 B   0  0  0  0  0  0  0  0  0  0  0  0
   -4.9481    2.1599   -1.1106 F   0  0  0  0  0  0  0  0  0  0  0  0
   -3.3821    3.7549   -0.4524 F   0  0  0  0  0  0  0  0  0  0  0  0
   -5.6658    4.1731   -0.2336 F   0  0  0  0  0  0  0  0  0  0  0  0
   -4.6543    2.5902    1.1119 F   0  0  0  0  0  0  0  0  0  0  0  0
  1  8  1  0  0  0  0
  1  2  1  0  0  0  0
  2  3  1  0  0  0  0
  4  1  2  0  0  0  0
  5  6  2  0  0  0  0
  5  4  1  0  0  0  0
  6  7  1  0  0  0  0
  7 12  1  0  0  0  0
  7  8  2  0  0  0  0
  8 13  1  0  0  0  0
 10  5  1  0  0  0  0
 11  6  1  0  0  0  0
 14 18  1  0  0  0  0
 15 14  1  0  0  0  0
 16  9  1  0  0  0  0
 17 14  1  0  0  0  0
M  RAD  3   2   2   3   3   4   2
M  END
