Coordinates from ORCA-job PhN2+~BF4-_B3LYPG-6-31G_dp-CH-Scan-d09-49-n800
 OpenBabel11261919213D

 18 16  0  0  0  0  0  0  0  0999 V2000
   -1.5871    0.3071    0.1065 C   0  0  0  0  0  0  0  0  0  0  0  0
   -2.9635    0.1990    0.2726 N   0  0  0  0  0  0  0  0  0  0  0  0
   -4.0750    0.1701    0.3943 N   0  0  0  0  0  0  0  0  0  0  0  0
   -1.1702    1.6145   -0.1987 C   0  0  0  0  0  0  0  0  0  0  0  0
    0.2441    1.6352   -0.3537 C   0  0  0  0  0  0  0  0  0  0  0  0
    1.0565    0.5136   -0.2181 C   0  0  0  0  0  0  0  0  0  0  0  0
    0.5206   -0.7604    0.0936 C   0  0  0  0  0  0  0  0  0  0  0  0
   -0.8388   -0.8917    0.2658 C   0  0  0  0  0  0  0  0  0  0  0  0
   -3.2163    4.0830   -0.4722 H   0  0  0  0  0  0  0  0  0  0  0  0
    0.7307    2.5808   -0.5950 H   0  0  0  0  0  0  0  0  0  0  0  0
    2.1331    0.6032   -0.3538 H   0  0  0  0  0  0  0  0  0  0  0  0
    1.1728   -1.6216    0.1956 H   0  0  0  0  0  0  0  0  0  0  0  0
   -1.3068   -1.8422    0.5070 H   0  0  0  0  0  0  0  0  0  0  0  0
   -5.5785    3.1997   -0.1166 B   0  0  0  0  0  0  0  0  0  0  0  0
   -5.2574    2.4133   -1.1422 F   0  0  0  0  0  0  0  0  0  0  0  0
   -4.0140    4.5680   -0.4584 F   0  0  0  0  0  0  0  0  0  0  0  0
   -6.5432    4.0941   -0.2487 F   0  0  0  0  0  0  0  0  0  0  0  0
   -5.1611    2.8476    1.0970 F   0  0  0  0  0  0  0  0  0  0  0  0
  1  8  1  0  0  0  0
  1  2  1  0  0  0  0
  2  3  1  0  0  0  0
  4  1  2  0  0  0  0
  5  6  2  0  0  0  0
  5  4  1  0  0  0  0
  6  7  1  0  0  0  0
  7 12  1  0  0  0  0
  7  8  2  0  0  0  0
  8 13  1  0  0  0  0
  9 16  1  0  0  0  0
 10  5  1  0  0  0  0
 11  6  1  0  0  0  0
 14 18  1  0  0  0  0
 15 14  1  0  0  0  0
 17 14  1  0  0  0  0
M  RAD  3   2   2   3   3   4   2
M  END
