Coordinates from ORCA-job PhN2+~BF4-_B3LYPG-6-31G_dp-CH-Scan-d09-49-n800
 OpenBabel11261919213D

 18 17  0  0  0  0  0  0  0  0999 V2000
   -1.9896    0.5618   -0.1826 C   0  0  0  0  0  0  0  0  0  0  0  0
   -3.3548    0.3371   -0.2927 N   0  0  0  0  0  0  0  0  0  0  0  0
   -4.4295    0.0613   -0.3931 N   0  0  0  0  0  0  0  0  0  0  0  0
   -1.4760    1.8274   -0.5011 C   0  0  0  0  0  0  0  0  0  0  0  0
   -0.0971    1.9820   -0.3996 C   0  0  0  0  0  0  0  0  0  0  0  0
    0.7138    0.9205    0.0126 C   0  0  0  0  0  0  0  0  0  0  0  0
    0.1654   -0.3313    0.3237 C   0  0  0  0  0  0  0  0  0  0  0  0
   -1.2038   -0.5313    0.2238 C   0  0  0  0  0  0  0  0  0  0  0  0
   -2.1710    2.6228   -0.8089 H   0  0  0  0  0  0  0  0  0  0  0  0
    0.3437    2.9444   -0.6363 H   0  0  0  0  0  0  0  0  0  0  0  0
    1.7866    1.0667    0.0957 H   0  0  0  0  0  0  0  0  0  0  0  0
    0.8046   -1.1472    0.6428 H   0  0  0  0  0  0  0  0  0  0  0  0
   -1.6615   -1.4858    0.4583 H   0  0  0  0  0  0  0  0  0  0  0  0
   -4.6799    3.0131    0.0588 B   0  0  0  0  0  0  0  0  0  0  0  0
   -5.6952    2.0409   -0.1153 F   0  0  0  0  0  0  0  0  0  0  0  0
   -3.9728    3.1178   -1.1772 F   0  0  0  0  0  0  0  0  0  0  0  0
   -5.1824    4.2219    0.4568 F   0  0  0  0  0  0  0  0  0  0  0  0
   -3.7543    2.4909    1.0094 F   0  0  0  0  0  0  0  0  0  0  0  0
  1  8  2  0  0  0  0
  2  1  1  0  0  0  0
  3  2  1  0  0  0  0
  4  5  2  0  0  0  0
  4  1  1  0  0  0  0
  5  6  1  0  0  0  0
  6 11  1  0  0  0  0
  6  7  2  0  0  0  0
  7 12  1  0  0  0  0
  8  7  1  0  0  0  0
  8 13  1  0  0  0  0
  9  4  1  0  0  0  0
 10  5  1  0  0  0  0
 14 17  1  0  0  0  0
 14 18  1  0  0  0  0
 15 14  1  0  0  0  0
 16 14  1  0  0  0  0
M  RAD  2   2   2   3   3
M  END
