Coordinates from ORCA-job PhN2+~BF4-_B3LYPG-6-31G_dp-CH-Scan-d09-49-n800
 OpenBabel11261919213D

 18 16  0  0  0  0  0  0  0  0999 V2000
   -1.3895    0.2888    0.1414 C   0  0  0  0  0  0  0  0  0  0  0  0
   -2.7658    0.3198    0.3612 N   0  0  0  0  0  0  0  0  0  0  0  0
   -3.8694    0.4212    0.5198 N   0  0  0  0  0  0  0  0  0  0  0  0
   -0.8859    1.5486   -0.2167 C   0  0  0  0  0  0  0  0  0  0  0  0
    0.5200    1.4425   -0.4285 C   0  0  0  0  0  0  0  0  0  0  0  0
    1.2390    0.2593   -0.2942 C   0  0  0  0  0  0  0  0  0  0  0  0
    0.6112   -0.9574    0.0763 C   0  0  0  0  0  0  0  0  0  0  0  0
   -0.7456   -0.9681    0.3075 C   0  0  0  0  0  0  0  0  0  0  0  0
   -3.9214    4.8310   -0.4949 H   0  0  0  0  0  0  0  0  0  0  0  0
    1.0759    2.3365   -0.7156 H   0  0  0  0  0  0  0  0  0  0  0  0
    2.3127    0.2515   -0.4762 H   0  0  0  0  0  0  0  0  0  0  0  0
    1.1938   -1.8676    0.1766 H   0  0  0  0  0  0  0  0  0  0  0  0
   -1.2823   -1.8683    0.5953 H   0  0  0  0  0  0  0  0  0  0  0  0
   -5.7917    3.2070   -0.1736 B   0  0  0  0  0  0  0  0  0  0  0  0
   -4.8295    2.7316   -0.9676 F   0  0  0  0  0  0  0  0  0  0  0  0
   -4.6909    5.0923   -0.0407 F   0  0  0  0  0  0  0  0  0  0  0  0
   -6.8835    3.7175   -0.7132 F   0  0  0  0  0  0  0  0  0  0  0  0
   -5.7508    2.9271    1.1182 F   0  0  0  0  0  0  0  0  0  0  0  0
  1  8  1  0  0  0  0
  1  2  1  0  0  0  0
  2  3  1  0  0  0  0
  4  1  2  0  0  0  0
  5  6  2  0  0  0  0
  5  4  1  0  0  0  0
  6  7  1  0  0  0  0
  7 12  1  0  0  0  0
  7  8  2  0  0  0  0
  8 13  1  0  0  0  0
  9 16  1  0  0  0  0
 10  5  1  0  0  0  0
 11  6  1  0  0  0  0
 14 18  1  0  0  0  0
 15 14  1  0  0  0  0
 17 14  1  0  0  0  0
M  RAD  3   2   2   3   3   4   2
M  END
