Coordinates from ORCA-job PhN2+~BF4-_B3LYPG-6-31G_dp-CH-Scan-d09-49-n800
 OpenBabel11261919213D

 18 17  0  0  0  0  0  0  0  0999 V2000
   -2.1422    0.4843   -0.2191 C   0  0  0  0  0  0  0  0  0  0  0  0
   -3.4853    0.1490   -0.2694 N   0  0  0  0  0  0  0  0  0  0  0  0
   -4.5216   -0.2471   -0.3130 N   0  0  0  0  0  0  0  0  0  0  0  0
   -1.6989    1.6654   -0.8322 C   0  0  0  0  0  0  0  0  0  0  0  0
   -0.3300    1.9116   -0.7796 C   0  0  0  0  0  0  0  0  0  0  0  0
    0.5363    1.0241   -0.1382 C   0  0  0  0  0  0  0  0  0  0  0  0
    0.0550   -0.1442    0.4700 C   0  0  0  0  0  0  0  0  0  0  0  0
   -1.3000   -0.4334    0.4362 C   0  0  0  0  0  0  0  0  0  0  0  0
   -2.3170    2.2569   -1.2337 H   0  0  0  0  0  0  0  0  0  0  0  0
    0.0521    2.8205   -1.2310 H   0  0  0  0  0  0  0  0  0  0  0  0
    1.5990    1.2434   -0.1026 H   0  0  0  0  0  0  0  0  0  0  0  0
    0.7356   -0.8239    0.9707 H   0  0  0  0  0  0  0  0  0  0  0  0
   -1.7078   -1.3241    0.9001 H   0  0  0  0  0  0  0  0  0  0  0  0
   -4.2866    3.0637    0.2419 B   0  0  0  0  0  0  0  0  0  0  0  0
   -4.4215    2.3732   -1.0191 F   0  0  0  0  0  0  0  0  0  0  0  0
   -3.1204    3.8400    0.1665 F   0  0  0  0  0  0  0  0  0  0  0  0
   -5.4068    3.8080    0.5064 F   0  0  0  0  0  0  0  0  0  0  0  0
   -4.0939    2.0455    1.2212 F   0  0  0  0  0  0  0  0  0  0  0  0
  1  8  2  0  0  0  0
  2  1  1  0  0  0  0
  3  2  1  0  0  0  0
  4  5  2  0  0  0  0
  4  1  1  0  0  0  0
  5  6  1  0  0  0  0
  6 11  1  0  0  0  0
  6  7  2  0  0  0  0
  7 12  1  0  0  0  0
  8  7  1  0  0  0  0
  8 13  1  0  0  0  0
  9  4  1  0  0  0  0
 10  5  1  0  0  0  0
 14 17  1  0  0  0  0
 14 18  1  0  0  0  0
 15 14  1  0  0  0  0
 16 14  1  0  0  0  0
M  RAD  2   2   2   3   3
M  END
