Coordinates from ORCA-job PhN2+~BF4-_B3LYPG-6-31G_dp-CH-Scan-d09-49-n800
 OpenBabel11261919213D

 18 16  0  0  0  0  0  0  0  0999 V2000
   -1.8390    0.3852    0.0687 C   0  0  0  0  0  0  0  0  0  0  0  0
   -3.1990    0.1518    0.2101 N   0  0  0  0  0  0  0  0  0  0  0  0
   -4.2985   -0.0059    0.3159 N   0  0  0  0  0  0  0  0  0  0  0  0
   -1.4804    1.7104   -0.2424 C   0  0  0  0  0  0  0  0  0  0  0  0
   -0.0780    1.8409   -0.3679 C   0  0  0  0  0  0  0  0  0  0  0  0
    0.8086    0.7795   -0.2001 C   0  0  0  0  0  0  0  0  0  0  0  0
    0.3536   -0.5201    0.1129 C   0  0  0  0  0  0  0  0  0  0  0  0
   -0.9989   -0.7437    0.2549 C   0  0  0  0  0  0  0  0  0  0  0  0
   -2.7811    3.1914   -0.4441 H   0  0  0  0  0  0  0  0  0  0  0  0
    0.3364    2.8179   -0.6088 H   0  0  0  0  0  0  0  0  0  0  0  0
    1.8779    0.9459   -0.3115 H   0  0  0  0  0  0  0  0  0  0  0  0
    1.0582   -1.3351    0.2407 H   0  0  0  0  0  0  0  0  0  0  0  0
   -1.4021   -1.7226    0.4959 H   0  0  0  0  0  0  0  0  0  0  0  0
   -5.0241    3.1730   -0.1031 B   0  0  0  0  0  0  0  0  0  0  0  0
   -5.1489    2.2488   -1.0877 F   0  0  0  0  0  0  0  0  0  0  0  0
   -3.4865    3.8829   -0.5215 F   0  0  0  0  0  0  0  0  0  0  0  0
   -5.8176    4.2495   -0.1569 F   0  0  0  0  0  0  0  0  0  0  0  0
   -4.7345    2.6634    1.1199 F   0  0  0  0  0  0  0  0  0  0  0  0
  1  2  1  0  0  0  0
  1  8  2  0  0  0  0
  2  3  1  0  0  0  0
  4  1  1  0  0  0  0
  5  4  2  0  0  0  0
  5  6  1  0  0  0  0
  6  7  2  0  0  0  0
  7 12  1  0  0  0  0
  7  8  1  0  0  0  0
  8 13  1  0  0  0  0
 10  5  1  0  0  0  0
 11  6  1  0  0  0  0
 14 18  1  0  0  0  0
 15 14  1  0  0  0  0
 16  9  1  0  0  0  0
 17 14  1  0  0  0  0
M  RAD  3   2   2   3   3   4   2
M  END
