Coordinates from ORCA-job PhN2+~BF4-_B3LYPG-6-31G_dp-CH-Scan-d09-49-n800
 OpenBabel11261919213D

 18 16  0  0  0  0  0  0  0  0999 V2000
   -1.4657    0.2718    0.1106 C   0  0  0  0  0  0  0  0  0  0  0  0
   -2.8452    0.2413    0.3038 N   0  0  0  0  0  0  0  0  0  0  0  0
   -3.9553    0.2871    0.4398 N   0  0  0  0  0  0  0  0  0  0  0  0
   -1.0086    1.5481   -0.2541 C   0  0  0  0  0  0  0  0  0  0  0  0
    0.4047    1.5004   -0.4343 C   0  0  0  0  0  0  0  0  0  0  0  0
    1.1717    0.3519   -0.2682 C   0  0  0  0  0  0  0  0  0  0  0  0
    0.5896   -0.8863    0.1049 C   0  0  0  0  0  0  0  0  0  0  0  0
   -0.7702   -0.9532    0.3068 C   0  0  0  0  0  0  0  0  0  0  0  0
   -3.6873    4.6382   -0.5316 H   0  0  0  0  0  0  0  0  0  0  0  0
    0.9274    2.4140   -0.7216 H   0  0  0  0  0  0  0  0  0  0  0  0
    2.2486    0.3893   -0.4264 H   0  0  0  0  0  0  0  0  0  0  0  0
    1.2084   -1.7690    0.2301 H   0  0  0  0  0  0  0  0  0  0  0  0
   -1.2734   -1.8723    0.5952 H   0  0  0  0  0  0  0  0  0  0  0  0
   -5.7095    3.2085   -0.1407 B   0  0  0  0  0  0  0  0  0  0  0  0
   -4.8681    2.6312   -1.0012 F   0  0  0  0  0  0  0  0  0  0  0  0
   -4.4362    4.9656   -0.0855 F   0  0  0  0  0  0  0  0  0  0  0  0
   -6.7821    3.8285   -0.5988 F   0  0  0  0  0  0  0  0  0  0  0  0
   -5.6028    2.9179    1.1460 F   0  0  0  0  0  0  0  0  0  0  0  0
  1  2  1  0  0  0  0
  1  8  1  0  0  0  0
  2  3  1  0  0  0  0
  4  1  2  0  0  0  0
  5  6  2  0  0  0  0
  5  4  1  0  0  0  0
  6  7  1  0  0  0  0
  7 12  1  0  0  0  0
  7  8  2  0  0  0  0
  8 13  1  0  0  0  0
  9 16  1  0  0  0  0
 10  5  1  0  0  0  0
 11  6  1  0  0  0  0
 14 18  1  0  0  0  0
 15 14  1  0  0  0  0
 17 14  1  0  0  0  0
M  RAD  3   2   2   3   3   4   2
M  END
