Coordinates from ORCA-job PhN2+~BF4-_B3LYPG-6-31G_dp-CH-Scan-d09-49-n800
 OpenBabel11261919213D

 18 16  0  0  0  0  0  0  0  0999 V2000
   -1.7386    0.3597    0.1061 C   0  0  0  0  0  0  0  0  0  0  0  0
   -3.1036    0.1772    0.2793 N   0  0  0  0  0  0  0  0  0  0  0  0
   -4.2069    0.0648    0.4122 N   0  0  0  0  0  0  0  0  0  0  0  0
   -1.3600    1.6815   -0.1931 C   0  0  0  0  0  0  0  0  0  0  0  0
    0.0464    1.7666   -0.3531 C   0  0  0  0  0  0  0  0  0  0  0  0
    0.9038    0.6768   -0.2265 C   0  0  0  0  0  0  0  0  0  0  0  0
    0.4189   -0.6164    0.0784 C   0  0  0  0  0  0  0  0  0  0  0  0
   -0.9344   -0.8025    0.2536 C   0  0  0  0  0  0  0  0  0  0  0  0
   -2.9300    3.5206   -0.4004 H   0  0  0  0  0  0  0  0  0  0  0  0
    0.4891    2.7331   -0.5901 H   0  0  0  0  0  0  0  0  0  0  0  0
    1.9749    0.8114   -0.3647 H   0  0  0  0  0  0  0  0  0  0  0  0
    1.1033   -1.4529    0.1735 H   0  0  0  0  0  0  0  0  0  0  0  0
   -1.3616   -1.7727    0.4900 H   0  0  0  0  0  0  0  0  0  0  0  0
   -5.2653    3.1854   -0.1339 B   0  0  0  0  0  0  0  0  0  0  0  0
   -5.1499    2.2930   -1.1308 F   0  0  0  0  0  0  0  0  0  0  0  0
   -3.6532    4.1375   -0.4508 F   0  0  0  0  0  0  0  0  0  0  0  0
   -6.1063    4.2054   -0.2763 F   0  0  0  0  0  0  0  0  0  0  0  0
   -4.9805    2.7447    1.1017 F   0  0  0  0  0  0  0  0  0  0  0  0
  1  8  1  0  0  0  0
  1  2  1  0  0  0  0
  2  3  1  0  0  0  0
  4  1  2  0  0  0  0
  5  6  2  0  0  0  0
  5  4  1  0  0  0  0
  6  7  1  0  0  0  0
  7 12  1  0  0  0  0
  7  8  2  0  0  0  0
  8 13  1  0  0  0  0
 10  5  1  0  0  0  0
 11  6  1  0  0  0  0
 14 18  1  0  0  0  0
 15 14  1  0  0  0  0
 16  9  1  0  0  0  0
 17 14  1  0  0  0  0
M  RAD  3   2   2   3   3   4   2
M  END
