Coordinates from ORCA-job PhN2+~BF4-_B3LYPG-6-31G_dp-CH-Scan-d09-49-n800
 OpenBabel11261919213D

 18 16  0  0  0  0  0  0  0  0999 V2000
   -1.9688    0.4424   -0.0604 C   0  0  0  0  0  0  0  0  0  0  0  0
   -3.3275    0.1716   -0.0535 N   0  0  0  0  0  0  0  0  0  0  0  0
   -4.4195   -0.0448   -0.0764 N   0  0  0  0  0  0  0  0  0  0  0  0
   -1.5620    1.7369   -0.4245 C   0  0  0  0  0  0  0  0  0  0  0  0
   -0.1761    1.9271   -0.4308 C   0  0  0  0  0  0  0  0  0  0  0  0
    0.7082    0.9004   -0.0948 C   0  0  0  0  0  0  0  0  0  0  0  0
    0.2435   -0.3778    0.2630 C   0  0  0  0  0  0  0  0  0  0  0  0
   -1.1159   -0.6299    0.2843 C   0  0  0  0  0  0  0  0  0  0  0  0
   -2.5416    2.7574   -0.6975 H   0  0  0  0  0  0  0  0  0  0  0  0
    0.2189    2.9024   -0.6986 H   0  0  0  0  0  0  0  0  0  0  0  0
    1.7785    1.0883   -0.1062 H   0  0  0  0  0  0  0  0  0  0  0  0
    0.9433   -1.1648    0.5223 H   0  0  0  0  0  0  0  0  0  0  0  0
   -1.5171   -1.6009    0.5544 H   0  0  0  0  0  0  0  0  0  0  0  0
   -4.6869    3.1239   -0.0029 B   0  0  0  0  0  0  0  0  0  0  0  0
   -5.3595    2.1780   -0.7774 F   0  0  0  0  0  0  0  0  0  0  0  0
   -3.5371    3.6013   -0.8467 F   0  0  0  0  0  0  0  0  0  0  0  0
   -5.4432    4.2051    0.3253 F   0  0  0  0  0  0  0  0  0  0  0  0
   -4.0912    2.4964    1.0956 F   0  0  0  0  0  0  0  0  0  0  0  0
  1  2  1  0  0  0  0
  1  8  2  0  0  0  0
  3  2  1  0  0  0  0
  4  1  1  0  0  0  0
  5  4  2  0  0  0  0
  5  6  1  0  0  0  0
  6  7  2  0  0  0  0
  7  8  1  0  0  0  0
  7 12  1  0  0  0  0
  8 13  1  0  0  0  0
 10  5  1  0  0  0  0
 11  6  1  0  0  0  0
 14 17  1  0  0  0  0
 14 18  1  0  0  0  0
 15 14  1  0  0  0  0
 16  9  1  0  0  0  0
M  RAD  3   2   2   3   3   4   2
M  END
