Coordinates from ORCA-job PhN2+~BF4-_B3LYPG-6-31G_dp-CH-Scan-d09-49-n800
 OpenBabel11261919213D

 18 16  0  0  0  0  0  0  0  0999 V2000
   -1.8101    0.3744    0.0689 C   0  0  0  0  0  0  0  0  0  0  0  0
   -3.1725    0.1532    0.2090 N   0  0  0  0  0  0  0  0  0  0  0  0
   -4.2742    0.0078    0.3137 N   0  0  0  0  0  0  0  0  0  0  0  0
   -1.4477    1.6986   -0.2420 C   0  0  0  0  0  0  0  0  0  0  0  0
   -0.0429    1.8190   -0.3661 C   0  0  0  0  0  0  0  0  0  0  0  0
    0.8372    0.7526   -0.1979 C   0  0  0  0  0  0  0  0  0  0  0  0
    0.3749   -0.5453    0.1147 C   0  0  0  0  0  0  0  0  0  0  0  0
   -0.9786   -0.7614    0.2560 C   0  0  0  0  0  0  0  0  0  0  0  0
   -2.8260    3.2768   -0.4590 H   0  0  0  0  0  0  0  0  0  0  0  0
    0.3792    2.7931   -0.6068 H   0  0  0  0  0  0  0  0  0  0  0  0
    1.9077    0.9125   -0.3086 H   0  0  0  0  0  0  0  0  0  0  0  0
    1.0753   -1.3639    0.2427 H   0  0  0  0  0  0  0  0  0  0  0  0
   -1.3879   -1.7379    0.4967 H   0  0  0  0  0  0  0  0  0  0  0  0
   -5.0981    3.1809   -0.0960 B   0  0  0  0  0  0  0  0  0  0  0  0
   -5.1909    2.2693   -1.0886 F   0  0  0  0  0  0  0  0  0  0  0  0
   -3.5318    3.9449   -0.5314 F   0  0  0  0  0  0  0  0  0  0  0  0
   -5.8921    4.2531   -0.1490 F   0  0  0  0  0  0  0  0  0  0  0  0
   -4.7752    2.6854    1.1187 F   0  0  0  0  0  0  0  0  0  0  0  0
  1  2  1  0  0  0  0
  1  8  2  0  0  0  0
  2  3  1  0  0  0  0
  4  1  1  0  0  0  0
  5  4  2  0  0  0  0
  5  6  1  0  0  0  0
  6  7  2  0  0  0  0
  7 12  1  0  0  0  0
  7  8  1  0  0  0  0
  8 13  1  0  0  0  0
 10  5  1  0  0  0  0
 11  6  1  0  0  0  0
 14 18  1  0  0  0  0
 15 14  1  0  0  0  0
 16  9  1  0  0  0  0
 17 14  1  0  0  0  0
M  RAD  3   2   2   3   3   4   2
M  END
