Coordinates from ORCA-job PhN2+~BF4-_B3LYPG-6-31G_dp-CH-Scan-d09-49-n800
 OpenBabel11261919213D

 18 16  0  0  0  0  0  0  0  0999 V2000
   -1.5067    0.2912    0.1162 C   0  0  0  0  0  0  0  0  0  0  0  0
   -2.8875    0.2312    0.2873 N   0  0  0  0  0  0  0  0  0  0  0  0
   -3.9993    0.2504    0.4128 N   0  0  0  0  0  0  0  0  0  0  0  0
   -1.0570    1.5876   -0.1837 C   0  0  0  0  0  0  0  0  0  0  0  0
    0.3581    1.5645   -0.3461 C   0  0  0  0  0  0  0  0  0  0  0  0
    1.1365    0.4181   -0.2211 C   0  0  0  0  0  0  0  0  0  0  0  0
    0.5640   -0.8415    0.0872 C   0  0  0  0  0  0  0  0  0  0  0  0
   -0.7977   -0.9324    0.2663 C   0  0  0  0  0  0  0  0  0  0  0  0
   -3.4283    4.4020   -0.4967 H   0  0  0  0  0  0  0  0  0  0  0  0
    0.8734    2.4959   -0.5848 H   0  0  0  0  0  0  0  0  0  0  0  0
    2.2148    0.4751   -0.3624 H   0  0  0  0  0  0  0  0  0  0  0  0
    1.1909   -1.7223    0.1810 H   0  0  0  0  0  0  0  0  0  0  0  0
   -1.2937   -1.8694    0.5053 H   0  0  0  0  0  0  0  0  0  0  0  0
   -5.6953    3.2020   -0.1208 B   0  0  0  0  0  0  0  0  0  0  0  0
   -5.2410    2.4739   -1.1368 F   0  0  0  0  0  0  0  0  0  0  0  0
   -4.2734    4.7891   -0.4459 F   0  0  0  0  0  0  0  0  0  0  0  0
   -6.7522    3.9774   -0.2846 F   0  0  0  0  0  0  0  0  0  0  0  0
   -5.2594    2.9203    1.1018 F   0  0  0  0  0  0  0  0  0  0  0  0
  1  8  1  0  0  0  0
  1  2  1  0  0  0  0
  2  3  1  0  0  0  0
  4  1  2  0  0  0  0
  5  6  2  0  0  0  0
  5  4  1  0  0  0  0
  6  7  1  0  0  0  0
  7 12  1  0  0  0  0
  7  8  2  0  0  0  0
  8 13  1  0  0  0  0
  9 16  1  0  0  0  0
 10  5  1  0  0  0  0
 11  6  1  0  0  0  0
 14 18  1  0  0  0  0
 15 14  1  0  0  0  0
 17 14  1  0  0  0  0
M  RAD  3   2   2   3   3   4   2
M  END
