Coordinates from ORCA-job PhN2+~BF4-_B3LYPG-6-31G_dp-CH-Scan-d09-49-n800
 OpenBabel11261919213D

 18 17  0  0  0  0  0  0  0  0999 V2000
   -1.9772    0.4545   -0.0689 C   0  0  0  0  0  0  0  0  0  0  0  0
   -3.3366    0.1884   -0.0763 N   0  0  0  0  0  0  0  0  0  0  0  0
   -4.4275   -0.0311   -0.1152 N   0  0  0  0  0  0  0  0  0  0  0  0
   -1.5529    1.7410   -0.4386 C   0  0  0  0  0  0  0  0  0  0  0  0
   -0.1698    1.9319   -0.4372 C   0  0  0  0  0  0  0  0  0  0  0  0
    0.7067    0.9032   -0.0844 C   0  0  0  0  0  0  0  0  0  0  0  0
    0.2321   -0.3685    0.2794 C   0  0  0  0  0  0  0  0  0  0  0  0
   -1.1295   -0.6152    0.2906 C   0  0  0  0  0  0  0  0  0  0  0  0
   -2.4928    2.7255   -0.7236 H   0  0  0  0  0  0  0  0  0  0  0  0
    0.2276    2.9042   -0.7101 H   0  0  0  0  0  0  0  0  0  0  0  0
    1.7777    1.0862   -0.0879 H   0  0  0  0  0  0  0  0  0  0  0  0
    0.9254   -1.1568    0.5517 H   0  0  0  0  0  0  0  0  0  0  0  0
   -1.5362   -1.5824    0.5651 H   0  0  0  0  0  0  0  0  0  0  0  0
   -4.6704    3.1168   -0.0025 B   0  0  0  0  0  0  0  0  0  0  0  0
   -5.3789    2.1557   -0.7385 F   0  0  0  0  0  0  0  0  0  0  0  0
   -3.5878    3.6039   -0.8837 F   0  0  0  0  0  0  0  0  0  0  0  0
   -5.4389    4.1740    0.3821 F   0  0  0  0  0  0  0  0  0  0  0  0
   -4.0249    2.4818    1.0731 F   0  0  0  0  0  0  0  0  0  0  0  0
  1  8  2  0  0  0  0
  2  1  1  0  0  0  0
  3  2  1  0  0  0  0
  4  5  2  0  0  0  0
  4  1  1  0  0  0  0
  5  6  1  0  0  0  0
  6  7  2  0  0  0  0
  7  8  1  0  0  0  0
  7 12  1  0  0  0  0
  8 13  1  0  0  0  0
  9  4  1  0  0  0  0
 10  5  1  0  0  0  0
 11  6  1  0  0  0  0
 14 17  1  0  0  0  0
 14 18  1  0  0  0  0
 15 14  1  0  0  0  0
 16 14  1  0  0  0  0
M  RAD  2   2   2   3   3
M  END
