Coordinates from ORCA-job PhN2+~BF4-_B3LYPG-6-31G_dp-CH-Scan-d09-49-n800
 OpenBabel11261919213D

 18 16  0  0  0  0  0  0  0  0999 V2000
   -1.5683    0.3018    0.1098 C   0  0  0  0  0  0  0  0  0  0  0  0
   -2.9458    0.2049    0.2782 N   0  0  0  0  0  0  0  0  0  0  0  0
   -4.0575    0.1888    0.4019 N   0  0  0  0  0  0  0  0  0  0  0  0
   -1.1449    1.6074   -0.1934 C   0  0  0  0  0  0  0  0  0  0  0  0
    0.2697    1.6188   -0.3509 C   0  0  0  0  0  0  0  0  0  0  0  0
    1.0749    0.4917   -0.2192 C   0  0  0  0  0  0  0  0  0  0  0  0
    0.5315   -0.7797    0.0909 C   0  0  0  0  0  0  0  0  0  0  0  0
   -0.8284   -0.9026    0.2654 C   0  0  0  0  0  0  0  0  0  0  0  0
   -3.2626    4.1588   -0.4790 H   0  0  0  0  0  0  0  0  0  0  0  0
    0.7624    2.5615   -0.5910 H   0  0  0  0  0  0  0  0  0  0  0  0
    2.1520    0.5745   -0.3567 H   0  0  0  0  0  0  0  0  0  0  0  0
    1.1785   -1.6452    0.1897 H   0  0  0  0  0  0  0  0  0  0  0  0
   -1.3022   -1.8505    0.5055 H   0  0  0  0  0  0  0  0  0  0  0  0
   -5.6083    3.2001   -0.1180 B   0  0  0  0  0  0  0  0  0  0  0  0
   -5.2524    2.4260   -1.1407 F   0  0  0  0  0  0  0  0  0  0  0  0
   -4.0710    4.6231   -0.4562 F   0  0  0  0  0  0  0  0  0  0  0  0
   -6.5954    4.0676   -0.2596 F   0  0  0  0  0  0  0  0  0  0  0  0
   -5.1860    2.8664    1.0982 F   0  0  0  0  0  0  0  0  0  0  0  0
  1  8  1  0  0  0  0
  1  2  1  0  0  0  0
  2  3  1  0  0  0  0
  4  1  2  0  0  0  0
  5  6  2  0  0  0  0
  5  4  1  0  0  0  0
  6  7  1  0  0  0  0
  7 12  1  0  0  0  0
  7  8  2  0  0  0  0
  8 13  1  0  0  0  0
  9 16  1  0  0  0  0
 10  5  1  0  0  0  0
 11  6  1  0  0  0  0
 14 18  1  0  0  0  0
 15 14  1  0  0  0  0
 17 14  1  0  0  0  0
M  RAD  3   2   2   3   3   4   2
M  END
