Coordinates from ORCA-job PhN2+~BF4-_B3LYPG-6-31G_dp-CH-Scan-d09-49-n800
 OpenBabel11261919213D

 18 16  0  0  0  0  0  0  0  0999 V2000
   -1.6975    0.3424    0.0973 C   0  0  0  0  0  0  0  0  0  0  0  0
   -3.0666    0.1768    0.2600 N   0  0  0  0  0  0  0  0  0  0  0  0
   -4.1736    0.0860    0.3830 N   0  0  0  0  0  0  0  0  0  0  0  0
   -1.3102    1.6606   -0.2054 C   0  0  0  0  0  0  0  0  0  0  0  0
    0.0997    1.7308   -0.3548 C   0  0  0  0  0  0  0  0  0  0  0  0
    0.9469    0.6348   -0.2160 C   0  0  0  0  0  0  0  0  0  0  0  0
    0.4494   -0.6537    0.0919 C   0  0  0  0  0  0  0  0  0  0  0  0
   -0.9065   -0.8278    0.2575 C   0  0  0  0  0  0  0  0  0  0  0  0
   -2.9975    3.6673   -0.4395 H   0  0  0  0  0  0  0  0  0  0  0  0
    0.5539    2.6919   -0.5933 H   0  0  0  0  0  0  0  0  0  0  0  0
    2.0203    0.7596   -0.3464 H   0  0  0  0  0  0  0  0  0  0  0  0
    1.1266   -1.4949    0.1966 H   0  0  0  0  0  0  0  0  0  0  0  0
   -1.3440   -1.7931    0.4956 H   0  0  0  0  0  0  0  0  0  0  0  0
   -5.3642    3.1910   -0.1161 B   0  0  0  0  0  0  0  0  0  0  0  0
   -5.2168    2.3287   -1.1282 F   0  0  0  0  0  0  0  0  0  0  0  0
   -3.7378    4.2511   -0.4764 F   0  0  0  0  0  0  0  0  0  0  0  0
   -6.2266    4.1920   -0.2336 F   0  0  0  0  0  0  0  0  0  0  0  0
   -5.0093    2.7694    1.1028 F   0  0  0  0  0  0  0  0  0  0  0  0
  1  8  1  0  0  0  0
  1  2  1  0  0  0  0
  2  3  1  0  0  0  0
  4  1  2  0  0  0  0
  5  6  2  0  0  0  0
  5  4  1  0  0  0  0
  6  7  1  0  0  0  0
  7 12  1  0  0  0  0
  7  8  2  0  0  0  0
  8 13  1  0  0  0  0
 10  5  1  0  0  0  0
 11  6  1  0  0  0  0
 14 18  1  0  0  0  0
 15 14  1  0  0  0  0
 16  9  1  0  0  0  0
 17 14  1  0  0  0  0
M  RAD  3   2   2   3   3   4   2
M  END
