Coordinates from ORCA-job PhN2+~BF4-_B3LYPG-6-31G_dp-CH-Scan-d09-49-n800
 OpenBabel11261919213D

 18 17  0  0  0  0  0  0  0  0999 V2000
   -1.9868    0.5450   -0.1780 C   0  0  0  0  0  0  0  0  0  0  0  0
   -3.3513    0.3170   -0.2831 N   0  0  0  0  0  0  0  0  0  0  0  0
   -4.4284    0.0519   -0.3876 N   0  0  0  0  0  0  0  0  0  0  0  0
   -1.4804    1.8111   -0.5053 C   0  0  0  0  0  0  0  0  0  0  0  0
   -0.1025    1.9742   -0.4068 C   0  0  0  0  0  0  0  0  0  0  0  0
    0.7138    0.9186    0.0106 C   0  0  0  0  0  0  0  0  0  0  0  0
    0.1728   -0.3350    0.3289 C   0  0  0  0  0  0  0  0  0  0  0  0
   -1.1952   -0.5428    0.2331 C   0  0  0  0  0  0  0  0  0  0  0  0
   -2.2210    2.6376   -0.8267 H   0  0  0  0  0  0  0  0  0  0  0  0
    0.3339    2.9372   -0.6485 H   0  0  0  0  0  0  0  0  0  0  0  0
    1.7859    1.0708    0.0924 H   0  0  0  0  0  0  0  0  0  0  0  0
    0.8172   -1.1457    0.6509 H   0  0  0  0  0  0  0  0  0  0  0  0
   -1.6478   -1.4984    0.4732 H   0  0  0  0  0  0  0  0  0  0  0  0
   -4.6763    3.0286    0.0581 B   0  0  0  0  0  0  0  0  0  0  0  0
   -5.6760    2.0509   -0.1648 F   0  0  0  0  0  0  0  0  0  0  0  0
   -3.9518    3.1893   -1.1640 F   0  0  0  0  0  0  0  0  0  0  0  0
   -5.2014    4.2164    0.4887 F   0  0  0  0  0  0  0  0  0  0  0  0
   -3.7587    2.4866    1.0038 F   0  0  0  0  0  0  0  0  0  0  0  0
  1  8  2  0  0  0  0
  2  1  1  0  0  0  0
  3  2  1  0  0  0  0
  4  5  2  0  0  0  0
  4  1  1  0  0  0  0
  5  6  1  0  0  0  0
  6 11  1  0  0  0  0
  6  7  2  0  0  0  0
  7 12  1  0  0  0  0
  8  7  1  0  0  0  0
  8 13  1  0  0  0  0
  9  4  1  0  0  0  0
 10  5  1  0  0  0  0
 14 17  1  0  0  0  0
 14 18  1  0  0  0  0
 15 14  1  0  0  0  0
 16 14  1  0  0  0  0
M  RAD  2   2   2   3   3
M  END
