Coordinates from ORCA-job PhN2+~BF4-_B3LYPG-6-31G_dp-CH-Scan-d09-49-n800
 OpenBabel11261919213D

 18 16  0  0  0  0  0  0  0  0999 V2000
   -1.9230    0.4308    0.0899 C   0  0  0  0  0  0  0  0  0  0  0  0
   -3.2768    0.1786    0.2532 N   0  0  0  0  0  0  0  0  0  0  0  0
   -4.3693   -0.0003    0.3748 N   0  0  0  0  0  0  0  0  0  0  0  0
   -1.5548    1.7533   -0.2170 C   0  0  0  0  0  0  0  0  0  0  0  0
   -0.1645    1.9056   -0.3681 C   0  0  0  0  0  0  0  0  0  0  0  0
    0.7305    0.8460   -0.2237 C   0  0  0  0  0  0  0  0  0  0  0  0
    0.2846   -0.4538    0.0869 C   0  0  0  0  0  0  0  0  0  0  0  0
   -1.0663   -0.6854    0.2507 C   0  0  0  0  0  0  0  0  0  0  0  0
   -2.6111    2.9470   -0.3654 H   0  0  0  0  0  0  0  0  0  0  0  0
    0.2297    2.8896   -0.6082 H   0  0  0  0  0  0  0  0  0  0  0  0
    1.7960    1.0192   -0.3526 H   0  0  0  0  0  0  0  0  0  0  0  0
    0.9926   -1.2680    0.1971 H   0  0  0  0  0  0  0  0  0  0  0  0
   -1.4583   -1.6684    0.4910 H   0  0  0  0  0  0  0  0  0  0  0  0
   -4.8073    3.1361   -0.1465 B   0  0  0  0  0  0  0  0  0  0  0  0
   -4.9490    2.1609   -1.1113 F   0  0  0  0  0  0  0  0  0  0  0  0
   -3.3823    3.7558   -0.4515 F   0  0  0  0  0  0  0  0  0  0  0  0
   -5.6667    4.1746   -0.2357 F   0  0  0  0  0  0  0  0  0  0  0  0
   -4.6579    2.5915    1.1115 F   0  0  0  0  0  0  0  0  0  0  0  0
  1  8  1  0  0  0  0
  1  2  1  0  0  0  0
  2  3  1  0  0  0  0
  4  1  2  0  0  0  0
  5  6  2  0  0  0  0
  5  4  1  0  0  0  0
  6  7  1  0  0  0  0
  7 12  1  0  0  0  0
  7  8  2  0  0  0  0
  8 13  1  0  0  0  0
 10  5  1  0  0  0  0
 11  6  1  0  0  0  0
 14 18  1  0  0  0  0
 15 14  1  0  0  0  0
 16  9  1  0  0  0  0
 17 14  1  0  0  0  0
M  RAD  3   2   2   3   3   4   2
M  END
