Coordinates from ORCA-job PhN2+~BF4-_B3LYPG-6-31G_dp-CH-Scan-d09-49-n800
 OpenBabel11261919213D

 18 17  0  0  0  0  0  0  0  0999 V2000
   -1.9855    0.5392   -0.1758 C   0  0  0  0  0  0  0  0  0  0  0  0
   -3.3498    0.3099   -0.2792 N   0  0  0  0  0  0  0  0  0  0  0  0
   -4.4278    0.0472   -0.3809 N   0  0  0  0  0  0  0  0  0  0  0  0
   -1.4821    1.8058   -0.5059 C   0  0  0  0  0  0  0  0  0  0  0  0
   -0.1043    1.9715   -0.4090 C   0  0  0  0  0  0  0  0  0  0  0  0
    0.7140    0.9178    0.0091 C   0  0  0  0  0  0  0  0  0  0  0  0
    0.1757   -0.3366    0.3298 C   0  0  0  0  0  0  0  0  0  0  0  0
   -1.1919   -0.5471    0.2359 C   0  0  0  0  0  0  0  0  0  0  0  0
   -2.2399    2.6433   -0.8307 H   0  0  0  0  0  0  0  0  0  0  0  0
    0.3306    2.9348   -0.6523 H   0  0  0  0  0  0  0  0  0  0  0  0
    1.7860    1.0719    0.0896 H   0  0  0  0  0  0  0  0  0  0  0  0
    0.8221   -1.1455    0.6521 H   0  0  0  0  0  0  0  0  0  0  0  0
   -1.6426   -1.5031    0.4776 H   0  0  0  0  0  0  0  0  0  0  0  0
   -4.6757    3.0341    0.0575 B   0  0  0  0  0  0  0  0  0  0  0  0
   -5.6691    2.0559   -0.1863 F   0  0  0  0  0  0  0  0  0  0  0  0
   -3.9403    3.2140   -1.1572 F   0  0  0  0  0  0  0  0  0  0  0  0
   -5.2091    4.2150    0.4965 F   0  0  0  0  0  0  0  0  0  0  0  0
   -3.7642    2.4852    1.0042 F   0  0  0  0  0  0  0  0  0  0  0  0
  1  8  2  0  0  0  0
  2  1  1  0  0  0  0
  3  2  1  0  0  0  0
  4  5  2  0  0  0  0
  4  1  1  0  0  0  0
  5  6  1  0  0  0  0
  6 11  1  0  0  0  0
  6  7  2  0  0  0  0
  7 12  1  0  0  0  0
  8  7  1  0  0  0  0
  8 13  1  0  0  0  0
  9  4  1  0  0  0  0
 10  5  1  0  0  0  0
 14 17  1  0  0  0  0
 14 18  1  0  0  0  0
 15 14  1  0  0  0  0
 16 14  1  0  0  0  0
M  RAD  2   2   2   3   3
M  END
