Coordinates from ORCA-job PhN2+~BF4-_B3LYPG-6-31G_dp-CH-Scan-d09-49-n800
 OpenBabel11261919213D

 18 16  0  0  0  0  0  0  0  0999 V2000
   -1.6494    0.3268    0.1013 C   0  0  0  0  0  0  0  0  0  0  0  0
   -3.0223    0.1866    0.2644 N   0  0  0  0  0  0  0  0  0  0  0  0
   -4.1320    0.1258    0.3847 N   0  0  0  0  0  0  0  0  0  0  0  0
   -1.2501    1.6407   -0.2023 C   0  0  0  0  0  0  0  0  0  0  0  0
    0.1620    1.6903   -0.3541 C   0  0  0  0  0  0  0  0  0  0  0  0
    0.9947    0.5835   -0.2163 C   0  0  0  0  0  0  0  0  0  0  0  0
    0.4812   -0.6991    0.0936 C   0  0  0  0  0  0  0  0  0  0  0  0
   -0.8763   -0.8555    0.2617 C   0  0  0  0  0  0  0  0  0  0  0  0
   -3.0837    3.8378   -0.4505 H   0  0  0  0  0  0  0  0  0  0  0  0
    0.6299    2.6450   -0.5940 H   0  0  0  0  0  0  0  0  0  0  0  0
    2.0696    0.6936   -0.3489 H   0  0  0  0  0  0  0  0  0  0  0  0
    1.1482   -1.5485    0.1975 H   0  0  0  0  0  0  0  0  0  0  0  0
   -1.3266   -1.8147    0.5013 H   0  0  0  0  0  0  0  0  0  0  0  0
   -5.4658    3.1940   -0.1155 B   0  0  0  0  0  0  0  0  0  0  0  0
   -5.2489    2.3654   -1.1384 F   0  0  0  0  0  0  0  0  0  0  0  0
   -3.8450    4.3849   -0.4750 F   0  0  0  0  0  0  0  0  0  0  0  0
   -6.3664    4.1576   -0.2312 F   0  0  0  0  0  0  0  0  0  0  0  0
   -5.0727    2.7989    1.0966 F   0  0  0  0  0  0  0  0  0  0  0  0
  1  8  1  0  0  0  0
  1  2  1  0  0  0  0
  2  3  1  0  0  0  0
  4  1  2  0  0  0  0
  5  6  2  0  0  0  0
  5  4  1  0  0  0  0
  6  7  1  0  0  0  0
  7 12  1  0  0  0  0
  7  8  2  0  0  0  0
  8 13  1  0  0  0  0
 10  5  1  0  0  0  0
 11  6  1  0  0  0  0
 14 18  1  0  0  0  0
 15 14  1  0  0  0  0
 16  9  1  0  0  0  0
 17 14  1  0  0  0  0
M  RAD  3   2   2   3   3   4   2
M  END
