Coordinates from ORCA-job PhN2+~BF4-_B3LYPG-6-31G_dp-CH-Scan-d09-49-n800
 OpenBabel11261919213D

 18 16  0  0  0  0  0  0  0  0999 V2000
   -1.6083    0.3145    0.1028 C   0  0  0  0  0  0  0  0  0  0  0  0
   -2.9837    0.1942    0.2666 N   0  0  0  0  0  0  0  0  0  0  0  0
   -4.0948    0.1513    0.3861 N   0  0  0  0  0  0  0  0  0  0  0  0
   -1.1971    1.6234   -0.2038 C   0  0  0  0  0  0  0  0  0  0  0  0
    0.2167    1.6538   -0.3561 C   0  0  0  0  0  0  0  0  0  0  0  0
    1.0360    0.5375   -0.2169 C   0  0  0  0  0  0  0  0  0  0  0  0
    0.5075   -0.7389    0.0960 C   0  0  0  0  0  0  0  0  0  0  0  0
   -0.8515   -0.8785    0.2654 C   0  0  0  0  0  0  0  0  0  0  0  0
   -3.1683    3.9988   -0.4642 H   0  0  0  0  0  0  0  0  0  0  0  0
    0.6972    2.6020   -0.5981 H   0  0  0  0  0  0  0  0  0  0  0  0
    2.1123    0.6340   -0.3504 H   0  0  0  0  0  0  0  0  0  0  0  0
    1.1647   -1.5959    0.2010 H   0  0  0  0  0  0  0  0  0  0  0  0
   -1.3136   -1.8316    0.5073 H   0  0  0  0  0  0  0  0  0  0  0  0
   -5.5426    3.1981   -0.1148 B   0  0  0  0  0  0  0  0  0  0  0  0
   -5.2599    2.3977   -1.1418 F   0  0  0  0  0  0  0  0  0  0  0  0
   -3.9537    4.5053   -0.4627 F   0  0  0  0  0  0  0  0  0  0  0  0
   -6.4834    4.1196   -0.2380 F   0  0  0  0  0  0  0  0  0  0  0  0
   -5.1313    2.8280    1.0965 F   0  0  0  0  0  0  0  0  0  0  0  0
  1  8  1  0  0  0  0
  1  2  1  0  0  0  0
  2  3  1  0  0  0  0
  4  1  2  0  0  0  0
  5  6  2  0  0  0  0
  5  4  1  0  0  0  0
  6  7  1  0  0  0  0
  7 12  1  0  0  0  0
  7  8  2  0  0  0  0
  8 13  1  0  0  0  0
  9 16  1  0  0  0  0
 10  5  1  0  0  0  0
 11  6  1  0  0  0  0
 14 18  1  0  0  0  0
 15 14  1  0  0  0  0
 17 14  1  0  0  0  0
M  RAD  3   2   2   3   3   4   2
M  END
