Coordinates from ORCA-job PhN2+~BF4-_B3LYPG-6-31G_dp-CH-Scan-d09-49-n800
 OpenBabel11261919213D

 18 16  0  0  0  0  0  0  0  0999 V2000
   -1.4329    0.2765    0.1204 C   0  0  0  0  0  0  0  0  0  0  0  0
   -2.8120    0.2720    0.3205 N   0  0  0  0  0  0  0  0  0  0  0  0
   -3.9202    0.3437    0.4618 N   0  0  0  0  0  0  0  0  0  0  0  0
   -0.9568    1.5458   -0.2433 C   0  0  0  0  0  0  0  0  0  0  0  0
    0.4543    1.4743   -0.4336 C   0  0  0  0  0  0  0  0  0  0  0  0
    1.2020    0.3118   -0.2767 C   0  0  0  0  0  0  0  0  0  0  0  0
    0.6010   -0.9173    0.0969 C   0  0  0  0  0  0  0  0  0  0  0  0
   -0.7583   -0.9613    0.3085 C   0  0  0  0  0  0  0  0  0  0  0  0
   -3.7920    4.7253   -0.5232 H   0  0  0  0  0  0  0  0  0  0  0  0
    0.9908    2.3796   -0.7217 H   0  0  0  0  0  0  0  0  0  0  0  0
    2.2783    0.3307   -0.4427 H   0  0  0  0  0  0  0  0  0  0  0  0
    1.2054   -1.8109    0.2149 H   0  0  0  0  0  0  0  0  0  0  0  0
   -1.2755   -1.8724    0.5975 H   0  0  0  0  0  0  0  0  0  0  0  0
   -5.7463    3.2094   -0.1509 B   0  0  0  0  0  0  0  0  0  0  0  0
   -4.8541    2.6782   -0.9900 F   0  0  0  0  0  0  0  0  0  0  0  0
   -4.5445    5.0245   -0.0636 F   0  0  0  0  0  0  0  0  0  0  0  0
   -6.8326    3.7820   -0.6371 F   0  0  0  0  0  0  0  0  0  0  0  0
   -5.6603    2.9214    1.1374 F   0  0  0  0  0  0  0  0  0  0  0  0
  1  8  1  0  0  0  0
  1  2  1  0  0  0  0
  2  3  1  0  0  0  0
  4  1  2  0  0  0  0
  5  6  2  0  0  0  0
  5  4  1  0  0  0  0
  6  7  1  0  0  0  0
  7 12  1  0  0  0  0
  7  8  2  0  0  0  0
  8 13  1  0  0  0  0
  9 16  1  0  0  0  0
 10  5  1  0  0  0  0
 11  6  1  0  0  0  0
 14 18  1  0  0  0  0
 15 14  1  0  0  0  0
 17 14  1  0  0  0  0
M  RAD  3   2   2   3   3   4   2
M  END
