Coordinates from ORCA-job PhN2+~BF4-_B3LYPG-6-31G_dp-CH-Scan-d09-49-n800
 OpenBabel11261919213D

 18 16  0  0  0  0  0  0  0  0999 V2000
   -1.5058    0.2916    0.1162 C   0  0  0  0  0  0  0  0  0  0  0  0
   -2.8866    0.2322    0.2879 N   0  0  0  0  0  0  0  0  0  0  0  0
   -3.9985    0.2512    0.4121 N   0  0  0  0  0  0  0  0  0  0  0  0
   -1.0555    1.5875   -0.1847 C   0  0  0  0  0  0  0  0  0  0  0  0
    0.3596    1.5636   -0.3469 C   0  0  0  0  0  0  0  0  0  0  0  0
    1.1375    0.4169   -0.2215 C   0  0  0  0  0  0  0  0  0  0  0  0
    0.5643   -0.8422    0.0875 C   0  0  0  0  0  0  0  0  0  0  0  0
   -0.7974   -0.9324    0.2667 C   0  0  0  0  0  0  0  0  0  0  0  0
   -3.4307    4.4055   -0.4948 H   0  0  0  0  0  0  0  0  0  0  0  0
    0.8753    2.4946   -0.5862 H   0  0  0  0  0  0  0  0  0  0  0  0
    2.2158    0.4732   -0.3629 H   0  0  0  0  0  0  0  0  0  0  0  0
    1.1908   -1.7233    0.1818 H   0  0  0  0  0  0  0  0  0  0  0  0
   -1.2939   -1.8689    0.5064 H   0  0  0  0  0  0  0  0  0  0  0  0
   -5.6965    3.2018   -0.1213 B   0  0  0  0  0  0  0  0  0  0  0  0
   -5.2400    2.4750   -1.1372 F   0  0  0  0  0  0  0  0  0  0  0  0
   -4.2763    4.7913   -0.4440 F   0  0  0  0  0  0  0  0  0  0  0  0
   -6.7543    3.9758   -0.2858 F   0  0  0  0  0  0  0  0  0  0  0  0
   -5.2616    2.9201    1.1016 F   0  0  0  0  0  0  0  0  0  0  0  0
  1  8  1  0  0  0  0
  1  2  1  0  0  0  0
  2  3  1  0  0  0  0
  4  1  2  0  0  0  0
  5  6  2  0  0  0  0
  5  4  1  0  0  0  0
  6  7  1  0  0  0  0
  7 12  1  0  0  0  0
  7  8  2  0  0  0  0
  8 13  1  0  0  0  0
  9 16  1  0  0  0  0
 10  5  1  0  0  0  0
 11  6  1  0  0  0  0
 14 18  1  0  0  0  0
 15 14  1  0  0  0  0
 17 14  1  0  0  0  0
M  RAD  3   2   2   3   3   4   2
M  END
