Coordinates from ORCA-job PhN2+~BF4-_B3LYPG-6-31G_dp-CH-Scan-d09-49-n800
 OpenBabel11261919213D

 18 16  0  0  0  0  0  0  0  0999 V2000
   -1.7428    0.3612    0.1066 C   0  0  0  0  0  0  0  0  0  0  0  0
   -3.1074    0.1768    0.2803 N   0  0  0  0  0  0  0  0  0  0  0  0
   -4.2104    0.0624    0.4135 N   0  0  0  0  0  0  0  0  0  0  0  0
   -1.3651    1.6833   -0.1926 C   0  0  0  0  0  0  0  0  0  0  0  0
    0.0409    1.7700   -0.3534 C   0  0  0  0  0  0  0  0  0  0  0  0
    0.8994    0.6810   -0.2273 C   0  0  0  0  0  0  0  0  0  0  0  0
    0.4160   -0.6126    0.0777 C   0  0  0  0  0  0  0  0  0  0  0  0
   -0.9371   -0.8001    0.2535 C   0  0  0  0  0  0  0  0  0  0  0  0
   -2.9229    3.5066   -0.3975 H   0  0  0  0  0  0  0  0  0  0  0  0
    0.4823    2.7370   -0.5905 H   0  0  0  0  0  0  0  0  0  0  0  0
    1.9703    0.8168   -0.3660 H   0  0  0  0  0  0  0  0  0  0  0  0
    1.1011   -1.4485    0.1724 H   0  0  0  0  0  0  0  0  0  0  0  0
   -1.3632   -1.7707    0.4900 H   0  0  0  0  0  0  0  0  0  0  0  0
   -5.2555    3.1846   -0.1351 B   0  0  0  0  0  0  0  0  0  0  0  0
   -5.1440    2.2900   -1.1310 F   0  0  0  0  0  0  0  0  0  0  0  0
   -3.6446    4.1269   -0.4486 F   0  0  0  0  0  0  0  0  0  0  0  0
   -6.0943    4.2066   -0.2788 F   0  0  0  0  0  0  0  0  0  0  0  0
   -4.9765    2.7418    1.1016 F   0  0  0  0  0  0  0  0  0  0  0  0
  1  8  1  0  0  0  0
  1  2  1  0  0  0  0
  2  3  1  0  0  0  0
  4  1  2  0  0  0  0
  5  6  2  0  0  0  0
  5  4  1  0  0  0  0
  6  7  1  0  0  0  0
  7 12  1  0  0  0  0
  7  8  2  0  0  0  0
  8 13  1  0  0  0  0
 10  5  1  0  0  0  0
 11  6  1  0  0  0  0
 14 18  1  0  0  0  0
 15 14  1  0  0  0  0
 16  9  1  0  0  0  0
 17 14  1  0  0  0  0
M  RAD  3   2   2   3   3   4   2
M  END
