Coordinates from ORCA-job PhN2+~BF4-_B3LYPG-6-31G_dp-CH-Scan-d09-49-n800
 OpenBabel11261919213D

 18 16  0  0  0  0  0  0  0  0999 V2000
   -1.5528    0.3007    0.1106 C   0  0  0  0  0  0  0  0  0  0  0  0
   -2.9313    0.2115    0.2796 N   0  0  0  0  0  0  0  0  0  0  0  0
   -4.0430    0.2010    0.4046 N   0  0  0  0  0  0  0  0  0  0  0  0
   -1.1222    1.6036   -0.1913 C   0  0  0  0  0  0  0  0  0  0  0  0
    0.2927    1.6059   -0.3493 C   0  0  0  0  0  0  0  0  0  0  0  0
    1.0909    0.4738   -0.2191 C   0  0  0  0  0  0  0  0  0  0  0  0
    0.5396   -0.7946    0.0901 C   0  0  0  0  0  0  0  0  0  0  0  0
   -0.8209   -0.9090    0.2650 C   0  0  0  0  0  0  0  0  0  0  0  0
   -3.3014    4.2141   -0.4846 H   0  0  0  0  0  0  0  0  0  0  0  0
    0.7914    2.5458   -0.5886 H   0  0  0  0  0  0  0  0  0  0  0  0
    2.1684    0.5498   -0.3569 H   0  0  0  0  0  0  0  0  0  0  0  0
    1.1812   -1.6643    0.1878 H   0  0  0  0  0  0  0  0  0  0  0  0
   -1.3007   -1.8541    0.5045 H   0  0  0  0  0  0  0  0  0  0  0  0
   -5.6321    3.2016   -0.1179 B   0  0  0  0  0  0  0  0  0  0  0  0
   -5.2556    2.4362   -1.1395 F   0  0  0  0  0  0  0  0  0  0  0  0
   -4.1183    4.6618   -0.4557 F   0  0  0  0  0  0  0  0  0  0  0  0
   -6.6348    4.0500   -0.2634 F   0  0  0  0  0  0  0  0  0  0  0  0
   -5.2049    2.8794    1.0991 F   0  0  0  0  0  0  0  0  0  0  0  0
  1  8  1  0  0  0  0
  1  2  1  0  0  0  0
  2  3  1  0  0  0  0
  4  1  2  0  0  0  0
  5  6  2  0  0  0  0
  5  4  1  0  0  0  0
  6  7  1  0  0  0  0
  7 12  1  0  0  0  0
  7  8  2  0  0  0  0
  8 13  1  0  0  0  0
  9 16  1  0  0  0  0
 10  5  1  0  0  0  0
 11  6  1  0  0  0  0
 14 18  1  0  0  0  0
 15 14  1  0  0  0  0
 17 14  1  0  0  0  0
M  RAD  3   2   2   3   3   4   2
M  END
