Coordinates from ORCA-job PhN2+~BF4-_B3LYPG-6-31G_dp-CH-Scan-d09-49-n800
 OpenBabel11261919213D

 18 16  0  0  0  0  0  0  0  0999 V2000
   -1.9425    0.4270    0.0114 C   0  0  0  0  0  0  0  0  0  0  0  0
   -3.3000    0.1595    0.0946 N   0  0  0  0  0  0  0  0  0  0  0  0
   -4.3947   -0.0392    0.1440 N   0  0  0  0  0  0  0  0  0  0  0  0
   -1.5665    1.7390   -0.3275 C   0  0  0  0  0  0  0  0  0  0  0  0
   -0.1744    1.9105   -0.4019 C   0  0  0  0  0  0  0  0  0  0  0  0
    0.7229    0.8707   -0.1581 C   0  0  0  0  0  0  0  0  0  0  0  0
    0.2743   -0.4208    0.1792 C   0  0  0  0  0  0  0  0  0  0  0  0
   -1.0816   -0.6665    0.2699 C   0  0  0  0  0  0  0  0  0  0  0  0
   -2.6045    2.8711   -0.5424 H   0  0  0  0  0  0  0  0  0  0  0  0
    0.2185    2.8909   -0.6570 H   0  0  0  0  0  0  0  0  0  0  0  0
    1.7921    1.0548   -0.2274 H   0  0  0  0  0  0  0  0  0  0  0  0
    0.9841   -1.2190    0.3675 H   0  0  0  0  0  0  0  0  0  0  0  0
   -1.4744   -1.6448    0.5269 H   0  0  0  0  0  0  0  0  0  0  0  0
   -4.7591    3.1397   -0.0627 B   0  0  0  0  0  0  0  0  0  0  0  0
   -5.1722    2.1862   -0.9755 F   0  0  0  0  0  0  0  0  0  0  0  0
   -3.4249    3.6884   -0.6553 F   0  0  0  0  0  0  0  0  0  0  0  0
   -5.5779    4.2104    0.0585 F   0  0  0  0  0  0  0  0  0  0  0  0
   -4.3730    2.5552    1.1308 F   0  0  0  0  0  0  0  0  0  0  0  0
  1  2  1  0  0  0  0
  1  8  2  0  0  0  0
  2  3  1  0  0  0  0
  4  1  1  0  0  0  0
  5  4  2  0  0  0  0
  5  6  1  0  0  0  0
  6  7  2  0  0  0  0
  7  8  1  0  0  0  0
  7 12  1  0  0  0  0
  8 13  1  0  0  0  0
 10  5  1  0  0  0  0
 11  6  1  0  0  0  0
 14 17  1  0  0  0  0
 14 18  1  0  0  0  0
 15 14  1  0  0  0  0
 16  9  1  0  0  0  0
M  RAD  3   2   2   3   3   4   2
M  END
