Coordinates from ORCA-job PhN2+~BF4-_B3LYPG-6-31G_dp-CH-Scan-d09-49-n800
 OpenBabel11261919213D

 18 16  0  0  0  0  0  0  0  0999 V2000
   -1.6835    0.3366    0.0977 C   0  0  0  0  0  0  0  0  0  0  0  0
   -3.0538    0.1789    0.2596 N   0  0  0  0  0  0  0  0  0  0  0  0
   -4.1620    0.0993    0.3807 N   0  0  0  0  0  0  0  0  0  0  0  0
   -1.2938    1.6538   -0.2060 C   0  0  0  0  0  0  0  0  0  0  0  0
    0.1169    1.7190   -0.3555 C   0  0  0  0  0  0  0  0  0  0  0  0
    0.9606    0.6206   -0.2158 C   0  0  0  0  0  0  0  0  0  0  0  0
    0.4593   -0.6664    0.0934 C   0  0  0  0  0  0  0  0  0  0  0  0
   -0.8970   -0.8364    0.2592 C   0  0  0  0  0  0  0  0  0  0  0  0
   -3.0209    3.7120   -0.4428 H   0  0  0  0  0  0  0  0  0  0  0  0
    0.5744    2.6785   -0.5948 H   0  0  0  0  0  0  0  0  0  0  0  0
    2.0344    0.7419   -0.3463 H   0  0  0  0  0  0  0  0  0  0  0  0
    1.1343   -1.5093    0.1988 H   0  0  0  0  0  0  0  0  0  0  0  0
   -1.3376   -1.8001    0.4982 H   0  0  0  0  0  0  0  0  0  0  0  0
   -5.3958    3.1927   -0.1149 B   0  0  0  0  0  0  0  0  0  0  0  0
   -5.2292    2.3408   -1.1313 F   0  0  0  0  0  0  0  0  0  0  0  0
   -3.7649    4.2883   -0.4756 F   0  0  0  0  0  0  0  0  0  0  0  0
   -6.2667    4.1853   -0.2308 F   0  0  0  0  0  0  0  0  0  0  0  0
   -5.0285    2.7777    1.1012 F   0  0  0  0  0  0  0  0  0  0  0  0
  1  8  1  0  0  0  0
  1  2  1  0  0  0  0
  2  3  1  0  0  0  0
  4  1  2  0  0  0  0
  5  6  2  0  0  0  0
  5  4  1  0  0  0  0
  6  7  1  0  0  0  0
  7 12  1  0  0  0  0
  7  8  2  0  0  0  0
  8 13  1  0  0  0  0
 10  5  1  0  0  0  0
 11  6  1  0  0  0  0
 14 18  1  0  0  0  0
 15 14  1  0  0  0  0
 16  9  1  0  0  0  0
 17 14  1  0  0  0  0
M  RAD  3   2   2   3   3   4   2
M  END
