Coordinates from ORCA-job PhN2+~BF4-_B3LYPG-6-31G_dp-CH-Scan-d09-49-n800
 OpenBabel11261919213D

 18 16  0  0  0  0  0  0  0  0999 V2000
   -1.6228    0.3192    0.1012 C   0  0  0  0  0  0  0  0  0  0  0  0
   -2.9973    0.1911    0.2642 N   0  0  0  0  0  0  0  0  0  0  0  0
   -4.1080    0.1395    0.3826 N   0  0  0  0  0  0  0  0  0  0  0  0
   -1.2155    1.6295   -0.2054 C   0  0  0  0  0  0  0  0  0  0  0  0
    0.1978    1.6665   -0.3565 C   0  0  0  0  0  0  0  0  0  0  0  0
    1.0218    0.5537   -0.2163 C   0  0  0  0  0  0  0  0  0  0  0  0
    0.4984   -0.7246    0.0964 C   0  0  0  0  0  0  0  0  0  0  0  0
   -0.8602   -0.8700    0.2645 C   0  0  0  0  0  0  0  0  0  0  0  0
   -3.1376    3.9420   -0.4586 H   0  0  0  0  0  0  0  0  0  0  0  0
    0.6740    2.6168   -0.5983 H   0  0  0  0  0  0  0  0  0  0  0  0
    2.0977    0.6549   -0.3488 H   0  0  0  0  0  0  0  0  0  0  0  0
    1.1590   -1.5789    0.2023 H   0  0  0  0  0  0  0  0  0  0  0  0
   -1.3183   -1.8250    0.5062 H   0  0  0  0  0  0  0  0  0  0  0  0
   -5.5166    3.1971   -0.1143 B   0  0  0  0  0  0  0  0  0  0  0  0
   -5.2592    2.3865   -1.1405 F   0  0  0  0  0  0  0  0  0  0  0  0
   -3.9146    4.4630   -0.4671 F   0  0  0  0  0  0  0  0  0  0  0  0
   -6.4423    4.1349   -0.2332 F   0  0  0  0  0  0  0  0  0  0  0  0
   -5.1103    2.8169    1.0965 F   0  0  0  0  0  0  0  0  0  0  0  0
  1  2  1  0  0  0  0
  1  8  1  0  0  0  0
  2  3  1  0  0  0  0
  4  1  2  0  0  0  0
  5  6  2  0  0  0  0
  5  4  1  0  0  0  0
  6  7  1  0  0  0  0
  7 12  1  0  0  0  0
  7  8  2  0  0  0  0
  8 13  1  0  0  0  0
 10  5  1  0  0  0  0
 11  6  1  0  0  0  0
 14 18  1  0  0  0  0
 15 14  1  0  0  0  0
 16  9  1  0  0  0  0
 17 14  1  0  0  0  0
M  RAD  3   2   2   3   3   4   2
M  END
