Coordinates from ORCA-job PhN2+~BF4-_B3LYPG-6-31G_dp-CH-Scan-d09-49-n800
 OpenBabel11261919213D

 18 17  0  0  0  0  0  0  0  0999 V2000
   -2.1450    0.4843   -0.2205 C   0  0  0  0  0  0  0  0  0  0  0  0
   -3.4878    0.1476   -0.2710 N   0  0  0  0  0  0  0  0  0  0  0  0
   -4.5242   -0.2480   -0.3148 N   0  0  0  0  0  0  0  0  0  0  0  0
   -1.7035    1.6663   -0.8333 C   0  0  0  0  0  0  0  0  0  0  0  0
   -0.3350    1.9143   -0.7798 C   0  0  0  0  0  0  0  0  0  0  0  0
    0.5324    1.0283   -0.1380 C   0  0  0  0  0  0  0  0  0  0  0  0
    0.0526   -0.1408    0.4697 C   0  0  0  0  0  0  0  0  0  0  0  0
   -1.3019   -0.4322    0.4350 C   0  0  0  0  0  0  0  0  0  0  0  0
   -2.3047    2.2407   -1.2272 H   0  0  0  0  0  0  0  0  0  0  0  0
    0.0456    2.8240   -1.2309 H   0  0  0  0  0  0  0  0  0  0  0  0
    1.5947    1.2494   -0.1017 H   0  0  0  0  0  0  0  0  0  0  0  0
    0.7341   -0.8195    0.9708 H   0  0  0  0  0  0  0  0  0  0  0  0
   -1.7086   -1.3234    0.8988 H   0  0  0  0  0  0  0  0  0  0  0  0
   -4.2814    3.0621    0.2419 B   0  0  0  0  0  0  0  0  0  0  0  0
   -4.4194    2.3721   -1.0188 F   0  0  0  0  0  0  0  0  0  0  0  0
   -3.1107    3.8323    0.1669 F   0  0  0  0  0  0  0  0  0  0  0  0
   -5.3978    3.8121    0.5061 F   0  0  0  0  0  0  0  0  0  0  0  0
   -4.0934    2.0436    1.2217 F   0  0  0  0  0  0  0  0  0  0  0  0
  1  8  2  0  0  0  0
  2  1  1  0  0  0  0
  3  2  1  0  0  0  0
  4  5  2  0  0  0  0
  4  1  1  0  0  0  0
  5  6  1  0  0  0  0
  6 11  1  0  0  0  0
  6  7  2  0  0  0  0
  7 12  1  0  0  0  0
  8  7  1  0  0  0  0
  8 13  1  0  0  0  0
  9  4  1  0  0  0  0
 10  5  1  0  0  0  0
 14 17  1  0  0  0  0
 14 18  1  0  0  0  0
 15 14  1  0  0  0  0
 16 14  1  0  0  0  0
M  RAD  2   2   2   3   3
M  END
