Coordinates from ORCA-job PhN2+~BF4-_B3LYPG-6-31G_dp-CH-Scan-d09-49-n800
 OpenBabel11261919213D

 18 16  0  0  0  0  0  0  0  0999 V2000
   -1.6174    0.3171    0.1017 C   0  0  0  0  0  0  0  0  0  0  0  0
   -2.9922    0.1919    0.2649 N   0  0  0  0  0  0  0  0  0  0  0  0
   -4.1030    0.1435    0.3837 N   0  0  0  0  0  0  0  0  0  0  0  0
   -1.2088    1.6270   -0.2049 C   0  0  0  0  0  0  0  0  0  0  0  0
    0.2047    1.6617   -0.3564 C   0  0  0  0  0  0  0  0  0  0  0  0
    1.0271    0.5477   -0.2164 C   0  0  0  0  0  0  0  0  0  0  0  0
    0.5020   -0.7299    0.0964 C   0  0  0  0  0  0  0  0  0  0  0  0
   -0.8568   -0.8733    0.2649 C   0  0  0  0  0  0  0  0  0  0  0  0
   -3.1489    3.9634   -0.4611 H   0  0  0  0  0  0  0  0  0  0  0  0
    0.6824    2.6113   -0.5983 H   0  0  0  0  0  0  0  0  0  0  0  0
    2.1031    0.6473   -0.3493 H   0  0  0  0  0  0  0  0  0  0  0  0
    1.1614   -1.5852    0.2021 H   0  0  0  0  0  0  0  0  0  0  0  0
   -1.3163   -1.8277    0.5067 H   0  0  0  0  0  0  0  0  0  0  0  0
   -5.5265    3.1977   -0.1143 B   0  0  0  0  0  0  0  0  0  0  0  0
   -5.2600    2.3909   -1.1410 F   0  0  0  0  0  0  0  0  0  0  0  0
   -3.9291    4.4790   -0.4656 F   0  0  0  0  0  0  0  0  0  0  0  0
   -6.4577    4.1297   -0.2346 F   0  0  0  0  0  0  0  0  0  0  0  0
   -5.1181    2.8210    1.0965 F   0  0  0  0  0  0  0  0  0  0  0  0
  1  2  1  0  0  0  0
  1  8  1  0  0  0  0
  2  3  1  0  0  0  0
  4  1  2  0  0  0  0
  5  6  2  0  0  0  0
  5  4  1  0  0  0  0
  6  7  1  0  0  0  0
  7 12  1  0  0  0  0
  7  8  2  0  0  0  0
  8 13  1  0  0  0  0
 10  5  1  0  0  0  0
 11  6  1  0  0  0  0
 14 18  1  0  0  0  0
 15 14  1  0  0  0  0
 16  9  1  0  0  0  0
 17 14  1  0  0  0  0
M  RAD  3   2   2   3   3   4   2
M  END
