Coordinates from ORCA-job PhN2+~BF4-_B3LYPG-6-31G_dp-CH-Scan-d09-49-n800
 OpenBabel11261919213D

 18 16  0  0  0  0  0  0  0  0999 V2000
   -1.4927    0.2904    0.1172 C   0  0  0  0  0  0  0  0  0  0  0  0
   -2.8741    0.2400    0.2885 N   0  0  0  0  0  0  0  0  0  0  0  0
   -3.9857    0.2681    0.4146 N   0  0  0  0  0  0  0  0  0  0  0  0
   -1.0356    1.5838   -0.1835 C   0  0  0  0  0  0  0  0  0  0  0  0
    0.3794    1.5512   -0.3471 C   0  0  0  0  0  0  0  0  0  0  0  0
    1.1505    0.4000   -0.2222 C   0  0  0  0  0  0  0  0  0  0  0  0
    0.5701   -0.8558    0.0874 C   0  0  0  0  0  0  0  0  0  0  0  0
   -0.7919   -0.9380    0.2677 C   0  0  0  0  0  0  0  0  0  0  0  0
   -3.4719    4.4611   -0.5017 H   0  0  0  0  0  0  0  0  0  0  0  0
    0.9006    2.4792   -0.5868 H   0  0  0  0  0  0  0  0  0  0  0  0
    2.2290    0.4499   -0.3646 H   0  0  0  0  0  0  0  0  0  0  0  0
    1.1916   -1.7405    0.1811 H   0  0  0  0  0  0  0  0  0  0  0  0
   -1.2938   -1.8716    0.5075 H   0  0  0  0  0  0  0  0  0  0  0  0
   -5.7117    3.2004   -0.1218 B   0  0  0  0  0  0  0  0  0  0  0  0
   -5.2289    2.4890   -1.1363 F   0  0  0  0  0  0  0  0  0  0  0  0
   -4.3245    4.8282   -0.4353 F   0  0  0  0  0  0  0  0  0  0  0  0
   -6.7865    3.9488   -0.2929 F   0  0  0  0  0  0  0  0  0  0  0  0
   -5.2775    2.9290    1.1032 F   0  0  0  0  0  0  0  0  0  0  0  0
  1  8  1  0  0  0  0
  1  2  1  0  0  0  0
  2  3  1  0  0  0  0
  4  1  2  0  0  0  0
  5  6  2  0  0  0  0
  5  4  1  0  0  0  0
  6  7  1  0  0  0  0
  7 12  1  0  0  0  0
  7  8  2  0  0  0  0
  8 13  1  0  0  0  0
  9 16  1  0  0  0  0
 10  5  1  0  0  0  0
 11  6  1  0  0  0  0
 14 18  1  0  0  0  0
 15 14  1  0  0  0  0
 17 14  1  0  0  0  0
M  RAD  3   2   2   3   3   4   2
M  END
