Coordinates from ORCA-job PhN2+~BF4-_B3LYPG-6-31G_dp-CH-Scan-d09-49-n800
 OpenBabel11261919213D

 18 16  0  0  0  0  0  0  0  0999 V2000
   -1.6413    0.3240    0.1015 C   0  0  0  0  0  0  0  0  0  0  0  0
   -3.0148    0.1879    0.2643 N   0  0  0  0  0  0  0  0  0  0  0  0
   -4.1248    0.1316    0.3850 N   0  0  0  0  0  0  0  0  0  0  0  0
   -1.2399    1.6374   -0.2016 C   0  0  0  0  0  0  0  0  0  0  0  0
    0.1726    1.6832   -0.3531 C   0  0  0  0  0  0  0  0  0  0  0  0
    1.0027    0.5745   -0.2157 C   0  0  0  0  0  0  0  0  0  0  0  0
    0.4863   -0.7072    0.0936 C   0  0  0  0  0  0  0  0  0  0  0  0
   -0.8715   -0.8606    0.2616 C   0  0  0  0  0  0  0  0  0  0  0  0
   -3.1001    3.8707   -0.4548 H   0  0  0  0  0  0  0  0  0  0  0  0
    0.6431    2.6368   -0.5925 H   0  0  0  0  0  0  0  0  0  0  0  0
    2.0780    0.6820   -0.3482 H   0  0  0  0  0  0  0  0  0  0  0  0
    1.1515   -1.5582    0.1972 H   0  0  0  0  0  0  0  0  0  0  0  0
   -1.3241   -1.8188    0.5008 H   0  0  0  0  0  0  0  0  0  0  0  0
   -5.4817    3.1941   -0.1143 B   0  0  0  0  0  0  0  0  0  0  0  0
   -5.2520    2.3701   -1.1374 F   0  0  0  0  0  0  0  0  0  0  0  0
   -3.8659    4.4103   -0.4775 F   0  0  0  0  0  0  0  0  0  0  0  0
   -6.3912    4.1486   -0.2312 F   0  0  0  0  0  0  0  0  0  0  0  0
   -5.0809    2.8071    1.0972 F   0  0  0  0  0  0  0  0  0  0  0  0
  1  8  1  0  0  0  0
  1  2  1  0  0  0  0
  2  3  1  0  0  0  0
  4  1  2  0  0  0  0
  5  6  2  0  0  0  0
  5  4  1  0  0  0  0
  6  7  1  0  0  0  0
  7 12  1  0  0  0  0
  7  8  2  0  0  0  0
  8 13  1  0  0  0  0
 10  5  1  0  0  0  0
 11  6  1  0  0  0  0
 14 18  1  0  0  0  0
 15 14  1  0  0  0  0
 16  9  1  0  0  0  0
 17 14  1  0  0  0  0
M  RAD  3   2   2   3   3   4   2
M  END
