Coordinates from ORCA-job PhN2+~BF4-_B3LYPG-6-31G_dp-CH-Scan-d09-49-n800
 OpenBabel11261919213D

 18 16  0  0  0  0  0  0  0  0999 V2000
   -1.8948    0.4160    0.0959 C   0  0  0  0  0  0  0  0  0  0  0  0
   -3.2490    0.1684    0.2646 N   0  0  0  0  0  0  0  0  0  0  0  0
   -4.3424   -0.0047    0.3935 N   0  0  0  0  0  0  0  0  0  0  0  0
   -1.5353    1.7425   -0.2072 C   0  0  0  0  0  0  0  0  0  0  0  0
   -0.1413    1.8861   -0.3628 C   0  0  0  0  0  0  0  0  0  0  0  0
    0.7525    0.8250   -0.2271 C   0  0  0  0  0  0  0  0  0  0  0  0
    0.3069   -0.4771    0.0803 C   0  0  0  0  0  0  0  0  0  0  0  0
   -1.0427   -0.7066    0.2491 C   0  0  0  0  0  0  0  0  0  0  0  0
   -2.6719    3.0327   -0.3585 H   0  0  0  0  0  0  0  0  0  0  0  0
    0.2589    2.8688   -0.6011 H   0  0  0  0  0  0  0  0  0  0  0  0
    1.8180    0.9967   -0.3605 H   0  0  0  0  0  0  0  0  0  0  0  0
    1.0150   -1.2923    0.1836 H   0  0  0  0  0  0  0  0  0  0  0  0
   -1.4365   -1.6897    0.4871 H   0  0  0  0  0  0  0  0  0  0  0  0
   -4.8775    3.1468   -0.1487 B   0  0  0  0  0  0  0  0  0  0  0  0
   -4.9814    2.1889   -1.1222 F   0  0  0  0  0  0  0  0  0  0  0  0
   -3.4012    3.7904   -0.4388 F   0  0  0  0  0  0  0  0  0  0  0  0
   -5.7042    4.2037   -0.2580 F   0  0  0  0  0  0  0  0  0  0  0  0
   -4.7270    2.6177    1.1060 F   0  0  0  0  0  0  0  0  0  0  0  0
  1  8  1  0  0  0  0
  1  2  1  0  0  0  0
  2  3  1  0  0  0  0
  4  1  2  0  0  0  0
  5  6  2  0  0  0  0
  5  4  1  0  0  0  0
  6  7  1  0  0  0  0
  7 12  1  0  0  0  0
  7  8  2  0  0  0  0
  8 13  1  0  0  0  0
 10  5  1  0  0  0  0
 11  6  1  0  0  0  0
 14 18  1  0  0  0  0
 15 14  1  0  0  0  0
 16  9  1  0  0  0  0
 17 14  1  0  0  0  0
M  RAD  3   2   2   3   3   4   2
M  END
