Coordinates from ORCA-job PhN2+~BF4-_B3LYPG-6-31G_dp-CH-Scan-d09-49-n800
 OpenBabel11261919213D

 18 16  0  0  0  0  0  0  0  0999 V2000
   -1.7272    0.3554    0.1039 C   0  0  0  0  0  0  0  0  0  0  0  0
   -3.0933    0.1780    0.2746 N   0  0  0  0  0  0  0  0  0  0  0  0
   -4.1976    0.0711    0.4055 N   0  0  0  0  0  0  0  0  0  0  0  0
   -1.3459    1.6763   -0.1957 C   0  0  0  0  0  0  0  0  0  0  0  0
    0.0614    1.7571   -0.3529 C   0  0  0  0  0  0  0  0  0  0  0  0
    0.9157    0.6653   -0.2236 C   0  0  0  0  0  0  0  0  0  0  0  0
    0.4272   -0.6266    0.0815 C   0  0  0  0  0  0  0  0  0  0  0  0
   -0.9269   -0.8094    0.2541 C   0  0  0  0  0  0  0  0  0  0  0  0
   -2.9493    3.5586   -0.4105 H   0  0  0  0  0  0  0  0  0  0  0  0
    0.5074    2.7222   -0.5898 H   0  0  0  0  0  0  0  0  0  0  0  0
    1.9875    0.7971   -0.3596 H   0  0  0  0  0  0  0  0  0  0  0  0
    1.1094   -1.4646    0.1787 H   0  0  0  0  0  0  0  0  0  0  0  0
   -1.3570   -1.7782    0.4906 H   0  0  0  0  0  0  0  0  0  0  0  0
   -5.2922    3.1876   -0.1295 B   0  0  0  0  0  0  0  0  0  0  0  0
   -5.1689    2.3021   -1.1298 F   0  0  0  0  0  0  0  0  0  0  0  0
   -3.6769    4.1666   -0.4590 F   0  0  0  0  0  0  0  0  0  0  0  0
   -6.1389    4.2026   -0.2654 F   0  0  0  0  0  0  0  0  0  0  0  0
   -4.9883    2.7520    1.1020 F   0  0  0  0  0  0  0  0  0  0  0  0
  1  8  1  0  0  0  0
  1  2  1  0  0  0  0
  2  3  1  0  0  0  0
  4  1  2  0  0  0  0
  5  6  2  0  0  0  0
  5  4  1  0  0  0  0
  6  7  1  0  0  0  0
  7 12  1  0  0  0  0
  7  8  2  0  0  0  0
  8 13  1  0  0  0  0
 10  5  1  0  0  0  0
 11  6  1  0  0  0  0
 14 18  1  0  0  0  0
 15 14  1  0  0  0  0
 16  9  1  0  0  0  0
 17 14  1  0  0  0  0
M  RAD  3   2   2   3   3   4   2
M  END
