Coordinates from ORCA-job PhN2+~BF4-_B3LYPG-6-31G_dp-CH-Scan-d09-49-n800
 OpenBabel11261919213D

 18 16  0  0  0  0  0  0  0  0999 V2000
   -1.8263    0.3801    0.0673 C   0  0  0  0  0  0  0  0  0  0  0  0
   -3.1875    0.1517    0.2068 N   0  0  0  0  0  0  0  0  0  0  0  0
   -4.2880   -0.0009    0.3110 N   0  0  0  0  0  0  0  0  0  0  0  0
   -1.4663    1.7049   -0.2440 C   0  0  0  0  0  0  0  0  0  0  0  0
   -0.0627    1.8313   -0.3673 C   0  0  0  0  0  0  0  0  0  0  0  0
    0.8213    0.7680   -0.1978 C   0  0  0  0  0  0  0  0  0  0  0  0
    0.3631   -0.5309    0.1151 C   0  0  0  0  0  0  0  0  0  0  0  0
   -0.9899   -0.7515    0.2554 C   0  0  0  0  0  0  0  0  0  0  0  0
   -2.8014    3.2281   -0.4539 H   0  0  0  0  0  0  0  0  0  0  0  0
    0.3552    2.8069   -0.6081 H   0  0  0  0  0  0  0  0  0  0  0  0
    1.8912    0.9319   -0.3077 H   0  0  0  0  0  0  0  0  0  0  0  0
    1.0660   -1.3471    0.2442 H   0  0  0  0  0  0  0  0  0  0  0  0
   -1.3958   -1.7294    0.4962 H   0  0  0  0  0  0  0  0  0  0  0  0
   -5.0569    3.1769   -0.0980 B   0  0  0  0  0  0  0  0  0  0  0  0
   -5.1722    2.2583   -1.0855 F   0  0  0  0  0  0  0  0  0  0  0  0
   -3.5065    3.9087   -0.5300 F   0  0  0  0  0  0  0  0  0  0  0  0
   -5.8490    4.2527   -0.1488 F   0  0  0  0  0  0  0  0  0  0  0  0
   -4.7483    2.6735    1.1202 F   0  0  0  0  0  0  0  0  0  0  0  0
  1  2  1  0  0  0  0
  1  8  2  0  0  0  0
  2  3  1  0  0  0  0
  4  1  1  0  0  0  0
  5  4  2  0  0  0  0
  5  6  1  0  0  0  0
  6  7  2  0  0  0  0
  7 12  1  0  0  0  0
  7  8  1  0  0  0  0
  8 13  1  0  0  0  0
 10  5  1  0  0  0  0
 11  6  1  0  0  0  0
 14 18  1  0  0  0  0
 15 14  1  0  0  0  0
 16  9  1  0  0  0  0
 17 14  1  0  0  0  0
M  RAD  3   2   2   3   3   4   2
M  END
