Coordinates from ORCA-job PhN2+~BF4-_B3LYPG-6-31G_dp-CH-Scan-d09-49-n800
 OpenBabel11261919213D

 18 16  0  0  0  0  0  0  0  0999 V2000
   -1.6311    0.3212    0.1011 C   0  0  0  0  0  0  0  0  0  0  0  0
   -3.0052    0.1891    0.2632 N   0  0  0  0  0  0  0  0  0  0  0  0
   -4.1155    0.1351    0.3837 N   0  0  0  0  0  0  0  0  0  0  0  0
   -1.2265    1.6330   -0.2033 C   0  0  0  0  0  0  0  0  0  0  0  0
    0.1864    1.6741   -0.3545 C   0  0  0  0  0  0  0  0  0  0  0  0
    1.0133    0.5632   -0.2156 C   0  0  0  0  0  0  0  0  0  0  0  0
    0.4931   -0.7168    0.0953 C   0  0  0  0  0  0  0  0  0  0  0  0
   -0.8652   -0.8659    0.2630 C   0  0  0  0  0  0  0  0  0  0  0  0
   -3.1207    3.9096   -0.4589 H   0  0  0  0  0  0  0  0  0  0  0  0
    0.6600    2.6260   -0.5950 H   0  0  0  0  0  0  0  0  0  0  0  0
    2.0889    0.6674   -0.3478 H   0  0  0  0  0  0  0  0  0  0  0  0
    1.1558   -1.5695    0.2001 H   0  0  0  0  0  0  0  0  0  0  0  0
   -1.3208   -1.8225    0.5032 H   0  0  0  0  0  0  0  0  0  0  0  0
   -5.5009    3.1962   -0.1138 B   0  0  0  0  0  0  0  0  0  0  0  0
   -5.2577    2.3789   -1.1386 F   0  0  0  0  0  0  0  0  0  0  0  0
   -3.8926    4.4393   -0.4730 F   0  0  0  0  0  0  0  0  0  0  0  0
   -6.4192    4.1419   -0.2311 F   0  0  0  0  0  0  0  0  0  0  0  0
   -5.0960    2.8129    1.0970 F   0  0  0  0  0  0  0  0  0  0  0  0
  1  8  1  0  0  0  0
  1  2  1  0  0  0  0
  2  3  1  0  0  0  0
  4  1  2  0  0  0  0
  5  6  2  0  0  0  0
  5  4  1  0  0  0  0
  6  7  1  0  0  0  0
  7 12  1  0  0  0  0
  7  8  2  0  0  0  0
  8 13  1  0  0  0  0
 10  5  1  0  0  0  0
 11  6  1  0  0  0  0
 14 18  1  0  0  0  0
 15 14  1  0  0  0  0
 16  9  1  0  0  0  0
 17 14  1  0  0  0  0
M  RAD  3   2   2   3   3   4   2
M  END
