Coordinates from ORCA-job PhN2+~BF4-_B3LYPG-6-31G_dp-CH-Scan-d09-49-n800
 OpenBabel11261919213D

 18 16  0  0  0  0  0  0  0  0999 V2000
   -1.8205    0.3779    0.0674 C   0  0  0  0  0  0  0  0  0  0  0  0
   -3.1821    0.1520    0.2068 N   0  0  0  0  0  0  0  0  0  0  0  0
   -4.2831    0.0018    0.3109 N   0  0  0  0  0  0  0  0  0  0  0  0
   -1.4597    1.7025   -0.2438 C   0  0  0  0  0  0  0  0  0  0  0  0
   -0.0556    1.8269   -0.3670 C   0  0  0  0  0  0  0  0  0  0  0  0
    0.8270    0.7626   -0.1974 C   0  0  0  0  0  0  0  0  0  0  0  0
    0.3675   -0.5360    0.1154 C   0  0  0  0  0  0  0  0  0  0  0  0
   -0.9858   -0.7551    0.2557 C   0  0  0  0  0  0  0  0  0  0  0  0
   -2.8103    3.2452   -0.4569 H   0  0  0  0  0  0  0  0  0  0  0  0
    0.3637    2.8020   -0.6077 H   0  0  0  0  0  0  0  0  0  0  0  0
    1.8972    0.9252   -0.3072 H   0  0  0  0  0  0  0  0  0  0  0  0
    1.0695   -1.3529    0.2445 H   0  0  0  0  0  0  0  0  0  0  0  0
   -1.3928   -1.7325    0.4964 H   0  0  0  0  0  0  0  0  0  0  0  0
   -5.0719    3.1785   -0.0967 B   0  0  0  0  0  0  0  0  0  0  0  0
   -5.1807    2.2625   -1.0860 F   0  0  0  0  0  0  0  0  0  0  0  0
   -3.5155    3.9212   -0.5318 F   0  0  0  0  0  0  0  0  0  0  0  0
   -5.8639    4.2536   -0.1474 F   0  0  0  0  0  0  0  0  0  0  0  0
   -4.7568    2.6779    1.1198 F   0  0  0  0  0  0  0  0  0  0  0  0
  1  2  1  0  0  0  0
  1  8  2  0  0  0  0
  2  3  1  0  0  0  0
  4  1  1  0  0  0  0
  5  4  2  0  0  0  0
  5  6  1  0  0  0  0
  6  7  2  0  0  0  0
  7 12  1  0  0  0  0
  7  8  1  0  0  0  0
  8 13  1  0  0  0  0
 10  5  1  0  0  0  0
 11  6  1  0  0  0  0
 14 18  1  0  0  0  0
 15 14  1  0  0  0  0
 16  9  1  0  0  0  0
 17 14  1  0  0  0  0
M  RAD  3   2   2   3   3   4   2
M  END
