Coordinates from ORCA-job PhN2+~BF4-_B3LYPG-6-31G_dp-CH-Scan-d09-49-n800
 OpenBabel11261919213D

 18 16  0  0  0  0  0  0  0  0999 V2000
   -1.3251    0.3038    0.1484 C   0  0  0  0  0  0  0  0  0  0  0  0
   -2.6990    0.3836    0.3724 N   0  0  0  0  0  0  0  0  0  0  0  0
   -3.7977    0.5249    0.5359 N   0  0  0  0  0  0  0  0  0  0  0  0
   -0.7771    1.5491   -0.1932 C   0  0  0  0  0  0  0  0  0  0  0  0
    0.6239    1.3955   -0.4096 C   0  0  0  0  0  0  0  0  0  0  0  0
    1.2993    0.1851   -0.2934 C   0  0  0  0  0  0  0  0  0  0  0  0
    0.6282   -1.0132    0.0614 C   0  0  0  0  0  0  0  0  0  0  0  0
   -0.7276   -0.9782    0.2956 C   0  0  0  0  0  0  0  0  0  0  0  0
   -4.1206    4.9630   -0.5221 H   0  0  0  0  0  0  0  0  0  0  0  0
    1.2113    2.2727   -0.6852 H   0  0  0  0  0  0  0  0  0  0  0  0
    2.3718    0.1405   -0.4779 H   0  0  0  0  0  0  0  0  0  0  0  0
    1.1777   -1.9453    0.1474 H   0  0  0  0  0  0  0  0  0  0  0  0
   -1.2963   -1.8621    0.5720 H   0  0  0  0  0  0  0  0  0  0  0  0
   -5.8656    3.2157   -0.1722 B   0  0  0  0  0  0  0  0  0  0  0  0
   -4.8692    2.8094   -0.9626 F   0  0  0  0  0  0  0  0  0  0  0  0
   -4.8911    5.1767   -0.0454 F   0  0  0  0  0  0  0  0  0  0  0  0
   -6.9878    3.6490   -0.7167 F   0  0  0  0  0  0  0  0  0  0  0  0
   -5.8091    2.9432    1.1201 F   0  0  0  0  0  0  0  0  0  0  0  0
  1  8  1  0  0  0  0
  1  2  1  0  0  0  0
  2  3  1  0  0  0  0
  4  1  2  0  0  0  0
  5  6  2  0  0  0  0
  5  4  1  0  0  0  0
  6  7  1  0  0  0  0
  7 12  1  0  0  0  0
  7  8  2  0  0  0  0
  8 13  1  0  0  0  0
  9 16  1  0  0  0  0
 10  5  1  0  0  0  0
 11  6  1  0  0  0  0
 14 18  1  0  0  0  0
 15 14  1  0  0  0  0
 17 14  1  0  0  0  0
M  RAD  3   2   2   3   3   4   2
M  END
