Coordinates from ORCA-job PhN2+~BF4-_B3LYPG-6-31G_dp-CH-Scan-d09-49-n800
 OpenBabel11261919213D

 18 17  0  0  0  0  0  0  0  0999 V2000
   -2.1461    0.4843   -0.2202 C   0  0  0  0  0  0  0  0  0  0  0  0
   -3.4887    0.1475   -0.2705 N   0  0  0  0  0  0  0  0  0  0  0  0
   -4.5253   -0.2479   -0.3141 N   0  0  0  0  0  0  0  0  0  0  0  0
   -1.7059    1.6673   -0.8320 C   0  0  0  0  0  0  0  0  0  0  0  0
   -0.3374    1.9158   -0.7789 C   0  0  0  0  0  0  0  0  0  0  0  0
    0.5308    1.0297   -0.1384 C   0  0  0  0  0  0  0  0  0  0  0  0
    0.0520   -0.1402    0.4684 C   0  0  0  0  0  0  0  0  0  0  0  0
   -1.3024   -0.4323    0.4341 C   0  0  0  0  0  0  0  0  0  0  0  0
   -2.2976    2.2322   -1.2192 H   0  0  0  0  0  0  0  0  0  0  0  0
    0.0424    2.8261   -1.2294 H   0  0  0  0  0  0  0  0  0  0  0  0
    1.5930    1.2514   -0.1024 H   0  0  0  0  0  0  0  0  0  0  0  0
    0.7341   -0.8189    0.9686 H   0  0  0  0  0  0  0  0  0  0  0  0
   -1.7084   -1.3242    0.8973 H   0  0  0  0  0  0  0  0  0  0  0  0
   -4.2797    3.0622    0.2407 B   0  0  0  0  0  0  0  0  0  0  0  0
   -4.4176    2.3711   -1.0194 F   0  0  0  0  0  0  0  0  0  0  0  0
   -3.1087    3.8316    0.1652 F   0  0  0  0  0  0  0  0  0  0  0  0
   -5.3956    3.8132    0.5039 F   0  0  0  0  0  0  0  0  0  0  0  0
   -4.0928    2.0443    1.2214 F   0  0  0  0  0  0  0  0  0  0  0  0
  1  8  2  0  0  0  0
  2  1  1  0  0  0  0
  3  2  1  0  0  0  0
  4  5  2  0  0  0  0
  4  1  1  0  0  0  0
  5  6  1  0  0  0  0
  6 11  1  0  0  0  0
  6  7  2  0  0  0  0
  7 12  1  0  0  0  0
  8  7  1  0  0  0  0
  8 13  1  0  0  0  0
  9  4  1  0  0  0  0
 10  5  1  0  0  0  0
 14 17  1  0  0  0  0
 14 18  1  0  0  0  0
 15 14  1  0  0  0  0
 16 14  1  0  0  0  0
M  RAD  2   2   2   3   3
M  END
