Coordinates from ORCA-job PhN2+~BF4-_B3LYPG-6-31G_dp-CH-Scan-d09-49-n800
 OpenBabel11261919213D

 18 16  0  0  0  0  0  0  0  0999 V2000
   -1.4902    0.2701    0.1140 C   0  0  0  0  0  0  0  0  0  0  0  0
   -2.8685    0.2219    0.3101 N   0  0  0  0  0  0  0  0  0  0  0  0
   -3.9782    0.2536    0.4524 N   0  0  0  0  0  0  0  0  0  0  0  0
   -1.0475    1.5530   -0.2464 C   0  0  0  0  0  0  0  0  0  0  0  0
    0.3657    1.5218   -0.4292 C   0  0  0  0  0  0  0  0  0  0  0  0
    1.1460    0.3813   -0.2690 C   0  0  0  0  0  0  0  0  0  0  0  0
    0.5785   -0.8646    0.1000 C   0  0  0  0  0  0  0  0  0  0  0  0
   -0.7801   -0.9475    0.3040 C   0  0  0  0  0  0  0  0  0  0  0  0
   -3.6102    4.5706   -0.5259 H   0  0  0  0  0  0  0  0  0  0  0  0
    0.8777    2.4423   -0.7138 H   0  0  0  0  0  0  0  0  0  0  0  0
    2.2221    0.4316   -0.4288 H   0  0  0  0  0  0  0  0  0  0  0  0
    1.2073   -1.7409    0.2207 H   0  0  0  0  0  0  0  0  0  0  0  0
   -1.2724   -1.8734    0.5894 H   0  0  0  0  0  0  0  0  0  0  0  0
   -5.6771    3.2045   -0.1425 B   0  0  0  0  0  0  0  0  0  0  0  0
   -4.8577    2.5949   -1.0018 F   0  0  0  0  0  0  0  0  0  0  0  0
   -4.3614    4.9242   -0.1042 F   0  0  0  0  0  0  0  0  0  0  0  0
   -6.7352    3.8496   -0.6002 F   0  0  0  0  0  0  0  0  0  0  0  0
   -5.5727    2.9203    1.1461 F   0  0  0  0  0  0  0  0  0  0  0  0
  1  8  1  0  0  0  0
  1  2  1  0  0  0  0
  2  3  1  0  0  0  0
  4  1  2  0  0  0  0
  5  6  2  0  0  0  0
  5  4  1  0  0  0  0
  6  7  1  0  0  0  0
  7 12  1  0  0  0  0
  7  8  2  0  0  0  0
  8 13  1  0  0  0  0
  9 16  1  0  0  0  0
 10  5  1  0  0  0  0
 11  6  1  0  0  0  0
 14 18  1  0  0  0  0
 15 14  1  0  0  0  0
 17 14  1  0  0  0  0
M  RAD  3   2   2   3   3   4   2
M  END
