Coordinates from ORCA-job PhN2+~BF4-_B3LYPG-6-31G_dp-CH-Scan-d09-49-n800
 OpenBabel11261919213D

 18 16  0  0  0  0  0  0  0  0999 V2000
   -1.5063    0.2706    0.1174 C   0  0  0  0  0  0  0  0  0  0  0  0
   -2.8835    0.2121    0.3170 N   0  0  0  0  0  0  0  0  0  0  0  0
   -3.9930    0.2353    0.4619 N   0  0  0  0  0  0  0  0  0  0  0  0
   -1.0725    1.5569   -0.2419 C   0  0  0  0  0  0  0  0  0  0  0  0
    0.3404    1.5353   -0.4280 C   0  0  0  0  0  0  0  0  0  0  0  0
    1.1286    0.3997   -0.2716 C   0  0  0  0  0  0  0  0  0  0  0  0
    0.5701   -0.8504    0.0966 C   0  0  0  0  0  0  0  0  0  0  0  0
   -0.7875   -0.9425    0.3035 C   0  0  0  0  0  0  0  0  0  0  0  0
   -3.5610    4.5264   -0.5129 H   0  0  0  0  0  0  0  0  0  0  0  0
    0.8455    2.4596   -0.7122 H   0  0  0  0  0  0  0  0  0  0  0  0
    2.2039    0.4575   -0.4338 H   0  0  0  0  0  0  0  0  0  0  0  0
    1.2048   -1.7228    0.2143 H   0  0  0  0  0  0  0  0  0  0  0  0
   -1.2730   -1.8721    0.5886 H   0  0  0  0  0  0  0  0  0  0  0  0
   -5.6540    3.1998   -0.1464 B   0  0  0  0  0  0  0  0  0  0  0  0
   -4.8430    2.5731   -1.0013 F   0  0  0  0  0  0  0  0  0  0  0  0
   -4.3150    4.8975   -0.1115 F   0  0  0  0  0  0  0  0  0  0  0  0
   -6.7022    3.8577   -0.6086 F   0  0  0  0  0  0  0  0  0  0  0  0
   -5.5563    2.9195    1.1439 F   0  0  0  0  0  0  0  0  0  0  0  0
  1  8  1  0  0  0  0
  1  2  1  0  0  0  0
  2  3  1  0  0  0  0
  4  1  2  0  0  0  0
  5  6  2  0  0  0  0
  5  4  1  0  0  0  0
  6  7  1  0  0  0  0
  7 12  1  0  0  0  0
  7  8  2  0  0  0  0
  8 13  1  0  0  0  0
  9 16  1  0  0  0  0
 10  5  1  0  0  0  0
 11  6  1  0  0  0  0
 14 18  1  0  0  0  0
 15 14  1  0  0  0  0
 17 14  1  0  0  0  0
M  RAD  3   2   2   3   3   4   2
M  END
