Coordinates from ORCA-job PhN2+~BF4-_B3LYPG-6-31G_dp-CH-Scan-d09-49-n800
 OpenBabel11261919213D

 18 16  0  0  0  0  0  0  0  0999 V2000
   -1.7896    0.3737    0.0963 C   0  0  0  0  0  0  0  0  0  0  0  0
   -3.1515    0.1652    0.2606 N   0  0  0  0  0  0  0  0  0  0  0  0
   -4.2526    0.0302    0.3848 N   0  0  0  0  0  0  0  0  0  0  0  0
   -1.4232    1.6981   -0.2082 C   0  0  0  0  0  0  0  0  0  0  0  0
   -0.0193    1.8053   -0.3603 C   0  0  0  0  0  0  0  0  0  0  0  0
    0.8537    0.7290   -0.2216 C   0  0  0  0  0  0  0  0  0  0  0  0
    0.3857   -0.5681    0.0880 C   0  0  0  0  0  0  0  0  0  0  0  0
   -0.9664   -0.7729    0.2553 C   0  0  0  0  0  0  0  0  0  0  0  0
   -2.8480    3.3520   -0.4024 H   0  0  0  0  0  0  0  0  0  0  0  0
    0.4082    2.7774   -0.6003 H   0  0  0  0  0  0  0  0  0  0  0  0
    1.9232    0.8794   -0.3538 H   0  0  0  0  0  0  0  0  0  0  0  0
    1.0809   -1.3943    0.1930 H   0  0  0  0  0  0  0  0  0  0  0  0
   -1.3803   -1.7479    0.4946 H   0  0  0  0  0  0  0  0  0  0  0  0
   -5.1475    3.1779   -0.1277 B   0  0  0  0  0  0  0  0  0  0  0  0
   -5.1287    2.2705   -1.1246 F   0  0  0  0  0  0  0  0  0  0  0  0
   -3.5552    4.0081   -0.4632 F   0  0  0  0  0  0  0  0  0  0  0  0
   -5.9602    4.2289   -0.2406 F   0  0  0  0  0  0  0  0  0  0  0  0
   -4.8828    2.7006    1.1052 F   0  0  0  0  0  0  0  0  0  0  0  0
  1  8  1  0  0  0  0
  1  2  1  0  0  0  0
  2  3  1  0  0  0  0
  4  1  2  0  0  0  0
  5  6  2  0  0  0  0
  5  4  1  0  0  0  0
  6  7  1  0  0  0  0
  7 12  1  0  0  0  0
  7  8  2  0  0  0  0
  8 13  1  0  0  0  0
 10  5  1  0  0  0  0
 11  6  1  0  0  0  0
 14 18  1  0  0  0  0
 15 14  1  0  0  0  0
 16  9  1  0  0  0  0
 17 14  1  0  0  0  0
M  RAD  3   2   2   3   3   4   2
M  END
