Coordinates from ORCA-job PhN2+~BF4-_B3LYPG-6-31G_dp-CH-Scan-d09-49-n800
 OpenBabel11261919213D

 18 16  0  0  0  0  0  0  0  0999 V2000
   -1.6047    0.3137    0.1032 C   0  0  0  0  0  0  0  0  0  0  0  0
   -2.9803    0.1955    0.2674 N   0  0  0  0  0  0  0  0  0  0  0  0
   -4.0915    0.1545    0.3872 N   0  0  0  0  0  0  0  0  0  0  0  0
   -1.1921    1.6222   -0.2033 C   0  0  0  0  0  0  0  0  0  0  0  0
    0.2218    1.6506   -0.3560 C   0  0  0  0  0  0  0  0  0  0  0  0
    1.0397    0.5333   -0.2171 C   0  0  0  0  0  0  0  0  0  0  0  0
    0.5096   -0.7425    0.0958 C   0  0  0  0  0  0  0  0  0  0  0  0
   -0.8495   -0.8803    0.2655 C   0  0  0  0  0  0  0  0  0  0  0  0
   -3.1764    4.0127   -0.4652 H   0  0  0  0  0  0  0  0  0  0  0  0
    0.7035    2.5983   -0.5980 H   0  0  0  0  0  0  0  0  0  0  0  0
    2.1160    0.6284   -0.3509 H   0  0  0  0  0  0  0  0  0  0  0  0
    1.1657   -1.6004    0.2005 H   0  0  0  0  0  0  0  0  0  0  0  0
   -1.3129   -1.8328    0.5075 H   0  0  0  0  0  0  0  0  0  0  0  0
   -5.5489    3.1981   -0.1151 B   0  0  0  0  0  0  0  0  0  0  0  0
   -5.2598    2.4002   -1.1419 F   0  0  0  0  0  0  0  0  0  0  0  0
   -3.9638    4.5157   -0.4616 F   0  0  0  0  0  0  0  0  0  0  0  0
   -6.4937    4.1152   -0.2396 F   0  0  0  0  0  0  0  0  0  0  0  0
   -5.1366    2.8307    1.0966 F   0  0  0  0  0  0  0  0  0  0  0  0
  1  8  1  0  0  0  0
  1  2  1  0  0  0  0
  2  3  1  0  0  0  0
  4  1  2  0  0  0  0
  5  6  2  0  0  0  0
  5  4  1  0  0  0  0
  6  7  1  0  0  0  0
  7 12  1  0  0  0  0
  7  8  2  0  0  0  0
  8 13  1  0  0  0  0
  9 16  1  0  0  0  0
 10  5  1  0  0  0  0
 11  6  1  0  0  0  0
 14 18  1  0  0  0  0
 15 14  1  0  0  0  0
 17 14  1  0  0  0  0
M  RAD  3   2   2   3   3   4   2
M  END
