Coordinates from ORCA-job PhN2+~BF4-_B3LYPG-6-31G_dp-CH-Scan-d09-49-n800
 OpenBabel11261919213D

 18 16  0  0  0  0  0  0  0  0999 V2000
   -1.8503    0.3904    0.0727 C   0  0  0  0  0  0  0  0  0  0  0  0
   -3.2092    0.1531    0.2181 N   0  0  0  0  0  0  0  0  0  0  0  0
   -4.3075   -0.0085    0.3273 N   0  0  0  0  0  0  0  0  0  0  0  0
   -1.4927    1.7162   -0.2374 C   0  0  0  0  0  0  0  0  0  0  0  0
   -0.0917    1.8498   -0.3675 C   0  0  0  0  0  0  0  0  0  0  0  0
    0.7971    0.7893   -0.2044 C   0  0  0  0  0  0  0  0  0  0  0  0
    0.3448   -0.5110    0.1080 C   0  0  0  0  0  0  0  0  0  0  0  0
   -1.0072   -0.7367    0.2542 C   0  0  0  0  0  0  0  0  0  0  0  0
   -2.7616    3.1594   -0.4292 H   0  0  0  0  0  0  0  0  0  0  0  0
    0.3197    2.8279   -0.6083 H   0  0  0  0  0  0  0  0  0  0  0  0
    1.8657    0.9574   -0.3193 H   0  0  0  0  0  0  0  0  0  0  0  0
    1.0506   -1.3254    0.2324 H   0  0  0  0  0  0  0  0  0  0  0  0
   -1.4081   -1.7165    0.4949 H   0  0  0  0  0  0  0  0  0  0  0  0
   -4.9943    3.1688   -0.1111 B   0  0  0  0  0  0  0  0  0  0  0  0
   -5.1201    2.2391   -1.0937 F   0  0  0  0  0  0  0  0  0  0  0  0
   -3.4683    3.8617   -0.5074 F   0  0  0  0  0  0  0  0  0  0  0  0
   -5.7915    4.2440   -0.1725 F   0  0  0  0  0  0  0  0  0  0  0  0
   -4.7294    2.6541    1.1181 F   0  0  0  0  0  0  0  0  0  0  0  0
  1  2  1  0  0  0  0
  1  8  2  0  0  0  0
  2  3  1  0  0  0  0
  4  1  1  0  0  0  0
  5  4  2  0  0  0  0
  5  6  1  0  0  0  0
  6  7  2  0  0  0  0
  7 12  1  0  0  0  0
  7  8  1  0  0  0  0
  8 13  1  0  0  0  0
 10  5  1  0  0  0  0
 11  6  1  0  0  0  0
 14 18  1  0  0  0  0
 15 14  1  0  0  0  0
 16  9  1  0  0  0  0
 17 14  1  0  0  0  0
M  RAD  3   2   2   3   3   4   2
M  END
