Coordinates from ORCA-job PhN2+~BF4-_B3LYPG-6-31G_dp-CH-Scan-d09-49-n800
 OpenBabel11261919213D

 18 16  0  0  0  0  0  0  0  0999 V2000
   -1.5283    0.2956    0.1132 C   0  0  0  0  0  0  0  0  0  0  0  0
   -2.9081    0.2211    0.2831 N   0  0  0  0  0  0  0  0  0  0  0  0
   -4.0199    0.2254    0.4088 N   0  0  0  0  0  0  0  0  0  0  0  0
   -1.0877    1.5952   -0.1871 C   0  0  0  0  0  0  0  0  0  0  0  0
    0.3275    1.5843   -0.3469 C   0  0  0  0  0  0  0  0  0  0  0  0
    1.1154    0.4447   -0.2195 C   0  0  0  0  0  0  0  0  0  0  0  0
    0.5529   -0.8193    0.0885 C   0  0  0  0  0  0  0  0  0  0  0  0
   -0.8083   -0.9215    0.2651 C   0  0  0  0  0  0  0  0  0  0  0  0
   -3.3664    4.3111   -0.4920 H   0  0  0  0  0  0  0  0  0  0  0  0
    0.8349    2.5199   -0.5854 H   0  0  0  0  0  0  0  0  0  0  0  0
    2.1934    0.5109   -0.3588 H   0  0  0  0  0  0  0  0  0  0  0  0
    1.1869   -1.6948    0.1840 H   0  0  0  0  0  0  0  0  0  0  0  0
   -1.2966   -1.8625    0.5038 H   0  0  0  0  0  0  0  0  0  0  0  0
   -5.6675    3.2027   -0.1188 B   0  0  0  0  0  0  0  0  0  0  0  0
   -5.2528    2.4547   -1.1377 F   0  0  0  0  0  0  0  0  0  0  0  0
   -4.1981    4.7284   -0.4534 F   0  0  0  0  0  0  0  0  0  0  0  0
   -6.6979    4.0153   -0.2725 F   0  0  0  0  0  0  0  0  0  0  0  0
   -5.2335    2.9019    1.1006 F   0  0  0  0  0  0  0  0  0  0  0  0
  1  8  1  0  0  0  0
  1  2  1  0  0  0  0
  2  3  1  0  0  0  0
  4  1  2  0  0  0  0
  5  6  2  0  0  0  0
  5  4  1  0  0  0  0
  6  7  1  0  0  0  0
  7 12  1  0  0  0  0
  7  8  2  0  0  0  0
  8 13  1  0  0  0  0
  9 16  1  0  0  0  0
 10  5  1  0  0  0  0
 11  6  1  0  0  0  0
 14 18  1  0  0  0  0
 15 14  1  0  0  0  0
 17 14  1  0  0  0  0
M  RAD  3   2   2   3   3   4   2
M  END
