Coordinates from ORCA-job PhN2+~BF4-_B3LYPG-6-31G_dp-CH-Scan-d09-49-n800
 OpenBabel11261919213D

 18 16  0  0  0  0  0  0  0  0999 V2000
   -1.5171    0.2888    0.1162 C   0  0  0  0  0  0  0  0  0  0  0  0
   -2.8970    0.2230    0.2872 N   0  0  0  0  0  0  0  0  0  0  0  0
   -4.0089    0.2390    0.4119 N   0  0  0  0  0  0  0  0  0  0  0  0
   -1.0748    1.5883   -0.1840 C   0  0  0  0  0  0  0  0  0  0  0  0
    0.3404    1.5733   -0.3460 C   0  0  0  0  0  0  0  0  0  0  0  0
    1.1253    0.4314   -0.2209 C   0  0  0  0  0  0  0  0  0  0  0  0
    0.5601   -0.8315    0.0873 C   0  0  0  0  0  0  0  0  0  0  0  0
   -0.8011   -0.9305    0.2663 C   0  0  0  0  0  0  0  0  0  0  0  0
   -3.3985    4.3643   -0.4942 H   0  0  0  0  0  0  0  0  0  0  0  0
    0.8503    2.5076   -0.5848 H   0  0  0  0  0  0  0  0  0  0  0  0
    2.2033    0.4947   -0.3621 H   0  0  0  0  0  0  0  0  0  0  0  0
    1.1922   -1.7086    0.1811 H   0  0  0  0  0  0  0  0  0  0  0  0
   -1.2916   -1.8703    0.5052 H   0  0  0  0  0  0  0  0  0  0  0  0
   -5.6816    3.2033   -0.1207 B   0  0  0  0  0  0  0  0  0  0  0  0
   -5.2429    2.4665   -1.1376 F   0  0  0  0  0  0  0  0  0  0  0  0
   -4.2380    4.7646   -0.4495 F   0  0  0  0  0  0  0  0  0  0  0  0
   -6.7269    3.9948   -0.2813 F   0  0  0  0  0  0  0  0  0  0  0  0
   -5.2470    2.9144    1.1010 F   0  0  0  0  0  0  0  0  0  0  0  0
  1  8  1  0  0  0  0
  1  2  1  0  0  0  0
  2  3  1  0  0  0  0
  4  1  2  0  0  0  0
  5  6  2  0  0  0  0
  5  4  1  0  0  0  0
  6  7  1  0  0  0  0
  7 12  1  0  0  0  0
  7  8  2  0  0  0  0
  8 13  1  0  0  0  0
  9 16  1  0  0  0  0
 10  5  1  0  0  0  0
 11  6  1  0  0  0  0
 14 18  1  0  0  0  0
 15 14  1  0  0  0  0
 17 14  1  0  0  0  0
M  RAD  3   2   2   3   3   4   2
M  END
