Coordinates from ORCA-job PhN2+~BF4-_B3LYPG-6-31G_dp-CH-Scan-d09-49-n800
 OpenBabel11261919213D

 18 16  0  0  0  0  0  0  0  0999 V2000
   -1.7733    0.3703    0.1027 C   0  0  0  0  0  0  0  0  0  0  0  0
   -3.1359    0.1708    0.2725 N   0  0  0  0  0  0  0  0  0  0  0  0
   -4.2375    0.0423    0.4019 N   0  0  0  0  0  0  0  0  0  0  0  0
   -1.4027    1.6940   -0.1993 C   0  0  0  0  0  0  0  0  0  0  0  0
    0.0018    1.7934   -0.3573 C   0  0  0  0  0  0  0  0  0  0  0  0
    0.8692    0.7118   -0.2262 C   0  0  0  0  0  0  0  0  0  0  0  0
    0.3956   -0.5841    0.0814 C   0  0  0  0  0  0  0  0  0  0  0  0
   -0.9566   -0.7822    0.2544 C   0  0  0  0  0  0  0  0  0  0  0  0
   -2.8739    3.4074   -0.3940 H   0  0  0  0  0  0  0  0  0  0  0  0
    0.4342    2.7637   -0.5961 H   0  0  0  0  0  0  0  0  0  0  0  0
    1.9390    0.8565   -0.3630 H   0  0  0  0  0  0  0  0  0  0  0  0
    1.0870   -1.4143    0.1803 H   0  0  0  0  0  0  0  0  0  0  0  0
   -1.3749   -1.7556    0.4926 H   0  0  0  0  0  0  0  0  0  0  0  0
   -5.1847    3.1795   -0.1337 B   0  0  0  0  0  0  0  0  0  0  0  0
   -5.1239    2.2745   -1.1289 F   0  0  0  0  0  0  0  0  0  0  0  0
   -3.5856    4.0508   -0.4505 F   0  0  0  0  0  0  0  0  0  0  0  0
   -6.0082    4.2183   -0.2651 F   0  0  0  0  0  0  0  0  0  0  0  0
   -4.9236    2.7161    1.1032 F   0  0  0  0  0  0  0  0  0  0  0  0
  1  8  1  0  0  0  0
  1  2  1  0  0  0  0
  2  3  1  0  0  0  0
  4  1  2  0  0  0  0
  5  6  2  0  0  0  0
  5  4  1  0  0  0  0
  6  7  1  0  0  0  0
  7 12  1  0  0  0  0
  7  8  2  0  0  0  0
  8 13  1  0  0  0  0
 10  5  1  0  0  0  0
 11  6  1  0  0  0  0
 14 18  1  0  0  0  0
 15 14  1  0  0  0  0
 16  9  1  0  0  0  0
 17 14  1  0  0  0  0
M  RAD  3   2   2   3   3   4   2
M  END
