Coordinates from ORCA-job PhN2+~BF4-_B3LYPG-6-31G_dp-CH-Scan-d09-49-n800
 OpenBabel11261919213D

 18 16  0  0  0  0  0  0  0  0999 V2000
   -1.4452    0.2768    0.1159 C   0  0  0  0  0  0  0  0  0  0  0  0
   -2.8250    0.2643    0.3130 N   0  0  0  0  0  0  0  0  0  0  0  0
   -3.9338    0.3294    0.4523 N   0  0  0  0  0  0  0  0  0  0  0  0
   -0.9749    1.5479   -0.2485 C   0  0  0  0  0  0  0  0  0  0  0  0
    0.4371    1.4840   -0.4345 C   0  0  0  0  0  0  0  0  0  0  0  0
    1.1909    0.3260   -0.2734 C   0  0  0  0  0  0  0  0  0  0  0  0
    0.5954   -0.9057    0.1003 C   0  0  0  0  0  0  0  0  0  0  0  0
   -0.7643   -0.9568    0.3077 C   0  0  0  0  0  0  0  0  0  0  0  0
   -3.7541    4.6902   -0.5258 H   0  0  0  0  0  0  0  0  0  0  0  0
    0.9695    2.3918   -0.7224 H   0  0  0  0  0  0  0  0  0  0  0  0
    2.2675    0.3506   -0.4361 H   0  0  0  0  0  0  0  0  0  0  0  0
    1.2043   -1.7959    0.2216 H   0  0  0  0  0  0  0  0  0  0  0  0
   -1.2773   -1.8703    0.5967 H   0  0  0  0  0  0  0  0  0  0  0  0
   -5.7317    3.2063   -0.1464 B   0  0  0  0  0  0  0  0  0  0  0  0
   -4.8555    2.6617   -0.9937 F   0  0  0  0  0  0  0  0  0  0  0  0
   -4.5039    5.0023   -0.0705 F   0  0  0  0  0  0  0  0  0  0  0  0
   -6.8150    3.7929   -0.6225 F   0  0  0  0  0  0  0  0  0  0  0  0
   -5.6378    2.9176    1.1413 F   0  0  0  0  0  0  0  0  0  0  0  0
  1  8  1  0  0  0  0
  1  2  1  0  0  0  0
  2  3  1  0  0  0  0
  4  1  2  0  0  0  0
  5  6  2  0  0  0  0
  5  4  1  0  0  0  0
  6  7  1  0  0  0  0
  7 12  1  0  0  0  0
  7  8  2  0  0  0  0
  8 13  1  0  0  0  0
  9 16  1  0  0  0  0
 10  5  1  0  0  0  0
 11  6  1  0  0  0  0
 14 18  1  0  0  0  0
 15 14  1  0  0  0  0
 17 14  1  0  0  0  0
M  RAD  3   2   2   3   3   4   2
M  END
