Coordinates from ORCA-job PhN2+~BF4-_B3LYPG-6-31G_dp-CH-Scan-d09-49-n800
 OpenBabel11261919213D

 18 16  0  0  0  0  0  0  0  0999 V2000
   -1.6676    0.3321    0.0981 C   0  0  0  0  0  0  0  0  0  0  0  0
   -3.0393    0.1824    0.2591 N   0  0  0  0  0  0  0  0  0  0  0  0
   -4.1483    0.1114    0.3789 N   0  0  0  0  0  0  0  0  0  0  0  0
   -1.2732    1.6478   -0.2054 C   0  0  0  0  0  0  0  0  0  0  0  0
    0.1382    1.7058   -0.3547 C   0  0  0  0  0  0  0  0  0  0  0  0
    0.9768    0.6036   -0.2148 C   0  0  0  0  0  0  0  0  0  0  0  0
    0.4697   -0.6814    0.0944 C   0  0  0  0  0  0  0  0  0  0  0  0
   -0.8874   -0.8452    0.2599 C   0  0  0  0  0  0  0  0  0  0  0  0
   -3.0504    3.7681   -0.4492 H   0  0  0  0  0  0  0  0  0  0  0  0
    0.6007    2.6631   -0.5940 H   0  0  0  0  0  0  0  0  0  0  0  0
    2.0513    0.7198   -0.3453 H   0  0  0  0  0  0  0  0  0  0  0  0
    1.1409   -1.5273    0.1999 H   0  0  0  0  0  0  0  0  0  0  0  0
   -1.3326   -1.8068    0.4989 H   0  0  0  0  0  0  0  0  0  0  0  0
   -5.4285    3.1942   -0.1132 B   0  0  0  0  0  0  0  0  0  0  0  0
   -5.2420    2.3507   -1.1316 F   0  0  0  0  0  0  0  0  0  0  0  0
   -3.8025    4.3310   -0.4782 F   0  0  0  0  0  0  0  0  0  0  0  0
   -6.3125    4.1743   -0.2286 F   0  0  0  0  0  0  0  0  0  0  0  0
   -5.0472    2.7894    1.1009 F   0  0  0  0  0  0  0  0  0  0  0  0
  1  2  1  0  0  0  0
  1  8  1  0  0  0  0
  2  3  1  0  0  0  0
  4  1  2  0  0  0  0
  5  6  2  0  0  0  0
  5  4  1  0  0  0  0
  6  7  1  0  0  0  0
  7 12  1  0  0  0  0
  7  8  2  0  0  0  0
  8 13  1  0  0  0  0
 10  5  1  0  0  0  0
 11  6  1  0  0  0  0
 14 18  1  0  0  0  0
 15 14  1  0  0  0  0
 16  9  1  0  0  0  0
 17 14  1  0  0  0  0
M  RAD  3   2   2   3   3   4   2
M  END
