Coordinates from ORCA-job PhN2+~BF4-_B3LYPG-6-31G_dp-CH-Scan-d09-49-n800
 OpenBabel11261919213D

 18 16  0  0  0  0  0  0  0  0999 V2000
   -1.6917    0.3398    0.0970 C   0  0  0  0  0  0  0  0  0  0  0  0
   -3.0613    0.1768    0.2590 N   0  0  0  0  0  0  0  0  0  0  0  0
   -4.1687    0.0889    0.3810 N   0  0  0  0  0  0  0  0  0  0  0  0
   -1.3034    1.6576   -0.2063 C   0  0  0  0  0  0  0  0  0  0  0  0
    0.1069    1.7256   -0.3552 C   0  0  0  0  0  0  0  0  0  0  0  0
    0.9526    0.6288   -0.2155 C   0  0  0  0  0  0  0  0  0  0  0  0
    0.4536   -0.6591    0.0930 C   0  0  0  0  0  0  0  0  0  0  0  0
   -0.9025   -0.8315    0.2582 C   0  0  0  0  0  0  0  0  0  0  0  0
   -3.0073    3.6894   -0.4426 H   0  0  0  0  0  0  0  0  0  0  0  0
    0.5625    2.6861   -0.5940 H   0  0  0  0  0  0  0  0  0  0  0  0
    2.0263    0.7522   -0.3455 H   0  0  0  0  0  0  0  0  0  0  0  0
    1.1299   -1.5010    0.1984 H   0  0  0  0  0  0  0  0  0  0  0  0
   -1.3414   -1.7962    0.4968 H   0  0  0  0  0  0  0  0  0  0  0  0
   -5.3772    3.1918   -0.1149 B   0  0  0  0  0  0  0  0  0  0  0  0
   -5.2223    2.3337   -1.1288 F   0  0  0  0  0  0  0  0  0  0  0  0
   -3.7505    4.2684   -0.4771 F   0  0  0  0  0  0  0  0  0  0  0  0
   -6.2437    4.1889   -0.2311 F   0  0  0  0  0  0  0  0  0  0  0  0
   -5.0157    2.7732    1.1025 F   0  0  0  0  0  0  0  0  0  0  0  0
  1  8  1  0  0  0  0
  1  2  1  0  0  0  0
  2  3  1  0  0  0  0
  4  1  2  0  0  0  0
  5  6  2  0  0  0  0
  5  4  1  0  0  0  0
  6  7  1  0  0  0  0
  7 12  1  0  0  0  0
  7  8  2  0  0  0  0
  8 13  1  0  0  0  0
 10  5  1  0  0  0  0
 11  6  1  0  0  0  0
 14 18  1  0  0  0  0
 15 14  1  0  0  0  0
 16  9  1  0  0  0  0
 17 14  1  0  0  0  0
M  RAD  3   2   2   3   3   4   2
M  END
