Coordinates from ORCA-job PhN2+~BF4-_B3LYPG-6-31G_dp-CH-Scan-d09-49-n800
 OpenBabel11261919213D

 18 16  0  0  0  0  0  0  0  0999 V2000
   -1.3414    0.3007    0.1471 C   0  0  0  0  0  0  0  0  0  0  0  0
   -2.7159    0.3682    0.3714 N   0  0  0  0  0  0  0  0  0  0  0  0
   -3.8164    0.4970    0.5326 N   0  0  0  0  0  0  0  0  0  0  0  0
   -0.8046    1.5491   -0.2011 C   0  0  0  0  0  0  0  0  0  0  0  0
    0.5976    1.4071   -0.4172 C   0  0  0  0  0  0  0  0  0  0  0  0
    1.2841    0.2036   -0.2952 C   0  0  0  0  0  0  0  0  0  0  0  0
    0.6241   -0.9989    0.0659 C   0  0  0  0  0  0  0  0  0  0  0  0
   -0.7319   -0.9750    0.3005 C   0  0  0  0  0  0  0  0  0  0  0  0
   -4.0683    4.9309   -0.5076 H   0  0  0  0  0  0  0  0  0  0  0  0
    1.1768    2.2882   -0.6975 H   0  0  0  0  0  0  0  0  0  0  0  0
    2.3568    0.1679   -0.4800 H   0  0  0  0  0  0  0  0  0  0  0  0
    1.1820   -1.9255    0.1565 H   0  0  0  0  0  0  0  0  0  0  0  0
   -1.2924   -1.8626    0.5817 H   0  0  0  0  0  0  0  0  0  0  0  0
   -5.8474    3.2131   -0.1749 B   0  0  0  0  0  0  0  0  0  0  0  0
   -4.8558    2.7900   -0.9626 F   0  0  0  0  0  0  0  0  0  0  0  0
   -4.8408    5.1555   -0.0393 F   0  0  0  0  0  0  0  0  0  0  0  0
   -6.9599    3.6674   -0.7223 F   0  0  0  0  0  0  0  0  0  0  0  0
   -5.8005    2.9366    1.1169 F   0  0  0  0  0  0  0  0  0  0  0  0
  1  8  1  0  0  0  0
  1  2  1  0  0  0  0
  2  3  1  0  0  0  0
  4  1  2  0  0  0  0
  5  6  2  0  0  0  0
  5  4  1  0  0  0  0
  6  7  1  0  0  0  0
  7 12  1  0  0  0  0
  7  8  2  0  0  0  0
  8 13  1  0  0  0  0
  9 16  1  0  0  0  0
 10  5  1  0  0  0  0
 11  6  1  0  0  0  0
 14 18  1  0  0  0  0
 15 14  1  0  0  0  0
 17 14  1  0  0  0  0
M  RAD  3   2   2   3   3   4   2
M  END
