Coordinates from ORCA-job PhN2+~BF4-_B3LYPG-6-31G_dp-CH-Scan-d09-49-n800
 OpenBabel11261919213D

 18 16  0  0  0  0  0  0  0  0999 V2000
   -1.5327    0.2962    0.1130 C   0  0  0  0  0  0  0  0  0  0  0  0
   -2.9123    0.2195    0.2833 N   0  0  0  0  0  0  0  0  0  0  0  0
   -4.0242    0.2219    0.4082 N   0  0  0  0  0  0  0  0  0  0  0  0
   -1.0942    1.5964   -0.1880 C   0  0  0  0  0  0  0  0  0  0  0  0
    0.3209    1.5880   -0.3477 C   0  0  0  0  0  0  0  0  0  0  0  0
    1.1108    0.4498   -0.2199 C   0  0  0  0  0  0  0  0  0  0  0  0
    0.5505   -0.8149    0.0887 C   0  0  0  0  0  0  0  0  0  0  0  0
   -0.8105   -0.9195    0.2653 C   0  0  0  0  0  0  0  0  0  0  0  0
   -3.3545    4.2954   -0.4893 H   0  0  0  0  0  0  0  0  0  0  0  0
    0.8266    2.5244   -0.5866 H   0  0  0  0  0  0  0  0  0  0  0  0
    2.1887    0.5179   -0.3591 H   0  0  0  0  0  0  0  0  0  0  0  0
    1.1860   -1.6894    0.1846 H   0  0  0  0  0  0  0  0  0  0  0  0
   -1.2972   -1.8613    0.5045 H   0  0  0  0  0  0  0  0  0  0  0  0
   -5.6610    3.2018   -0.1190 B   0  0  0  0  0  0  0  0  0  0  0  0
   -5.2509    2.4514   -1.1382 F   0  0  0  0  0  0  0  0  0  0  0  0
   -4.1838    4.7178   -0.4528 F   0  0  0  0  0  0  0  0  0  0  0  0
   -6.6871    4.0199   -0.2724 F   0  0  0  0  0  0  0  0  0  0  0  0
   -5.2289    2.8979    1.1003 F   0  0  0  0  0  0  0  0  0  0  0  0
  1  8  1  0  0  0  0
  1  2  1  0  0  0  0
  2  3  1  0  0  0  0
  4  1  2  0  0  0  0
  5  6  2  0  0  0  0
  5  4  1  0  0  0  0
  6  7  1  0  0  0  0
  7 12  1  0  0  0  0
  7  8  2  0  0  0  0
  8 13  1  0  0  0  0
  9 16  1  0  0  0  0
 10  5  1  0  0  0  0
 11  6  1  0  0  0  0
 14 18  1  0  0  0  0
 15 14  1  0  0  0  0
 17 14  1  0  0  0  0
M  RAD  3   2   2   3   3   4   2
M  END
