Coordinates from ORCA-job PhN2+~BF4-_B3LYPG-6-31G_dp-CH-Scan-d09-49-n800
 OpenBabel11261919213D

 18 16  0  0  0  0  0  0  0  0999 V2000
   -1.3563    0.2958    0.1444 C   0  0  0  0  0  0  0  0  0  0  0  0
   -2.7318    0.3505    0.3663 N   0  0  0  0  0  0  0  0  0  0  0  0
   -3.8328    0.4709    0.5303 N   0  0  0  0  0  0  0  0  0  0  0  0
   -0.8302    1.5483   -0.2056 C   0  0  0  0  0  0  0  0  0  0  0  0
    0.5735    1.4183   -0.4195 C   0  0  0  0  0  0  0  0  0  0  0  0
    1.2707    0.2213   -0.2939 C   0  0  0  0  0  0  0  0  0  0  0  0
    0.6210   -0.9863    0.0689 C   0  0  0  0  0  0  0  0  0  0  0  0
   -0.7355   -0.9739    0.3015 C   0  0  0  0  0  0  0  0  0  0  0  0
   -4.0230    4.9010   -0.5084 H   0  0  0  0  0  0  0  0  0  0  0  0
    1.1453    2.3039   -0.7010 H   0  0  0  0  0  0  0  0  0  0  0  0
    2.3440    0.1949   -0.4771 H   0  0  0  0  0  0  0  0  0  0  0  0
    1.1870   -1.9077    0.1624 H   0  0  0  0  0  0  0  0  0  0  0  0
   -1.2884   -1.8660    0.5837 H   0  0  0  0  0  0  0  0  0  0  0  0
   -5.8313    3.2125   -0.1731 B   0  0  0  0  0  0  0  0  0  0  0  0
   -4.8503    2.7709   -0.9638 F   0  0  0  0  0  0  0  0  0  0  0  0
   -4.7934    5.1372   -0.0423 F   0  0  0  0  0  0  0  0  0  0  0  0
   -6.9379    3.6852   -0.7168 F   0  0  0  0  0  0  0  0  0  0  0  0
   -5.7845    2.9365    1.1190 F   0  0  0  0  0  0  0  0  0  0  0  0
  1  8  1  0  0  0  0
  1  2  1  0  0  0  0
  2  3  1  0  0  0  0
  4  1  2  0  0  0  0
  5  6  2  0  0  0  0
  5  4  1  0  0  0  0
  6  7  1  0  0  0  0
  7 12  1  0  0  0  0
  7  8  2  0  0  0  0
  8 13  1  0  0  0  0
  9 16  1  0  0  0  0
 10  5  1  0  0  0  0
 11  6  1  0  0  0  0
 14 18  1  0  0  0  0
 15 14  1  0  0  0  0
 17 14  1  0  0  0  0
M  RAD  3   2   2   3   3   4   2
M  END
