Coordinates from ORCA-job PhN2+~BF4-_B3LYPG-6-31G_dp-CH-Scan-d09-49-n800
 OpenBabel11261919213D

 18 16  0  0  0  0  0  0  0  0999 V2000
   -1.9039    0.4206    0.0946 C   0  0  0  0  0  0  0  0  0  0  0  0
   -3.2578    0.1711    0.2624 N   0  0  0  0  0  0  0  0  0  0  0  0
   -4.3507   -0.0044    0.3904 N   0  0  0  0  0  0  0  0  0  0  0  0
   -1.5425    1.7463   -0.2091 C   0  0  0  0  0  0  0  0  0  0  0  0
   -0.1495    1.8926   -0.3638 C   0  0  0  0  0  0  0  0  0  0  0  0
    0.7449    0.8321   -0.2265 C   0  0  0  0  0  0  0  0  0  0  0  0
    0.2997   -0.4695    0.0813 C   0  0  0  0  0  0  0  0  0  0  0  0
   -1.0502   -0.7000    0.2490 C   0  0  0  0  0  0  0  0  0  0  0  0
   -2.6535    3.0056   -0.3589 H   0  0  0  0  0  0  0  0  0  0  0  0
    0.2487    2.8759   -0.6023 H   0  0  0  0  0  0  0  0  0  0  0  0
    1.8103    1.0046   -0.3589 H   0  0  0  0  0  0  0  0  0  0  0  0
    1.0080   -1.2844    0.1859 H   0  0  0  0  0  0  0  0  0  0  0  0
   -1.4432   -1.6833    0.4873 H   0  0  0  0  0  0  0  0  0  0  0  0
   -4.8547    3.1431   -0.1488 B   0  0  0  0  0  0  0  0  0  0  0  0
   -4.9699    2.1798   -1.1194 F   0  0  0  0  0  0  0  0  0  0  0  0
   -3.3928    3.7772   -0.4414 F   0  0  0  0  0  0  0  0  0  0  0  0
   -5.6895    4.1958   -0.2541 F   0  0  0  0  0  0  0  0  0  0  0  0
   -4.7074    2.6100    1.1074 F   0  0  0  0  0  0  0  0  0  0  0  0
  1  8  1  0  0  0  0
  1  2  1  0  0  0  0
  2  3  1  0  0  0  0
  4  1  2  0  0  0  0
  5  6  2  0  0  0  0
  5  4  1  0  0  0  0
  6  7  1  0  0  0  0
  7 12  1  0  0  0  0
  7  8  2  0  0  0  0
  8 13  1  0  0  0  0
 10  5  1  0  0  0  0
 11  6  1  0  0  0  0
 14 18  1  0  0  0  0
 15 14  1  0  0  0  0
 16  9  1  0  0  0  0
 17 14  1  0  0  0  0
M  RAD  3   2   2   3   3   4   2
M  END
