Coordinates from ORCA-job PhN2+~BF4-_B3LYPG-6-31G_dp-CH-Scan-d09-49-n800
 OpenBabel11261919213D

 18 16  0  0  0  0  0  0  0  0999 V2000
   -1.6403    0.3239    0.1015 C   0  0  0  0  0  0  0  0  0  0  0  0
   -3.0139    0.1883    0.2642 N   0  0  0  0  0  0  0  0  0  0  0  0
   -4.1240    0.1327    0.3843 N   0  0  0  0  0  0  0  0  0  0  0  0
   -1.2384    1.6369   -0.2016 C   0  0  0  0  0  0  0  0  0  0  0  0
    0.1742    1.6824   -0.3531 C   0  0  0  0  0  0  0  0  0  0  0  0
    1.0039    0.5734   -0.2156 C   0  0  0  0  0  0  0  0  0  0  0  0
    0.4869   -0.7081    0.0938 C   0  0  0  0  0  0  0  0  0  0  0  0
   -0.8709   -0.8610    0.2616 C   0  0  0  0  0  0  0  0  0  0  0  0
   -3.1024    3.8735   -0.4551 H   0  0  0  0  0  0  0  0  0  0  0  0
    0.6450    2.6359   -0.5925 H   0  0  0  0  0  0  0  0  0  0  0  0
    2.0792    0.6805   -0.3480 H   0  0  0  0  0  0  0  0  0  0  0  0
    1.1518   -1.5593    0.1974 H   0  0  0  0  0  0  0  0  0  0  0  0
   -1.3239   -1.8191    0.5009 H   0  0  0  0  0  0  0  0  0  0  0  0
   -5.4835    3.1944   -0.1141 B   0  0  0  0  0  0  0  0  0  0  0  0
   -5.2530    2.3707   -1.1373 F   0  0  0  0  0  0  0  0  0  0  0  0
   -3.8686    4.4124   -0.4776 F   0  0  0  0  0  0  0  0  0  0  0  0
   -6.3939    4.1480   -0.2309 F   0  0  0  0  0  0  0  0  0  0  0  0
   -5.0820    2.8078    1.0973 F   0  0  0  0  0  0  0  0  0  0  0  0
  1  8  1  0  0  0  0
  1  2  1  0  0  0  0
  2  3  1  0  0  0  0
  4  1  2  0  0  0  0
  5  6  2  0  0  0  0
  5  4  1  0  0  0  0
  6  7  1  0  0  0  0
  7 12  1  0  0  0  0
  7  8  2  0  0  0  0
  8 13  1  0  0  0  0
 10  5  1  0  0  0  0
 11  6  1  0  0  0  0
 14 18  1  0  0  0  0
 15 14  1  0  0  0  0
 16  9  1  0  0  0  0
 17 14  1  0  0  0  0
M  RAD  3   2   2   3   3   4   2
M  END
