Coordinates from ORCA-job PhN2+~BF4-_B3LYPG-6-31G_dp-CH-Scan-d09-49-n800
 OpenBabel11261919213D

 18 16  0  0  0  0  0  0  0  0999 V2000
   -1.4216    0.2806    0.1242 C   0  0  0  0  0  0  0  0  0  0  0  0
   -2.8003    0.2855    0.3285 N   0  0  0  0  0  0  0  0  0  0  0  0
   -3.9081    0.3623    0.4703 N   0  0  0  0  0  0  0  0  0  0  0  0
   -0.9378    1.5465   -0.2408 C   0  0  0  0  0  0  0  0  0  0  0  0
    0.4722    1.4653   -0.4354 C   0  0  0  0  0  0  0  0  0  0  0  0
    1.2123    0.2976   -0.2810 C   0  0  0  0  0  0  0  0  0  0  0  0
    0.6038   -0.9273    0.0942 C   0  0  0  0  0  0  0  0  0  0  0  0
   -0.7551   -0.9619    0.3100 C   0  0  0  0  0  0  0  0  0  0  0  0
   -3.8249    4.7544   -0.5119 H   0  0  0  0  0  0  0  0  0  0  0  0
    1.0141    2.3669   -0.7250 H   0  0  0  0  0  0  0  0  0  0  0  0
    2.2881    0.3090   -0.4505 H   0  0  0  0  0  0  0  0  0  0  0  0
    1.2024   -1.8252    0.2103 H   0  0  0  0  0  0  0  0  0  0  0  0
   -1.2777   -1.8694    0.6006 H   0  0  0  0  0  0  0  0  0  0  0  0
   -5.7589    3.2085   -0.1566 B   0  0  0  0  0  0  0  0  0  0  0  0
   -4.8486    2.6925   -0.9858 F   0  0  0  0  0  0  0  0  0  0  0  0
   -4.5826    5.0415   -0.0532 F   0  0  0  0  0  0  0  0  0  0  0  0
   -6.8471    3.7665   -0.6551 F   0  0  0  0  0  0  0  0  0  0  0  0
   -5.6841    2.9199    1.1321 F   0  0  0  0  0  0  0  0  0  0  0  0
  1  8  1  0  0  0  0
  1  2  1  0  0  0  0
  2  3  1  0  0  0  0
  4  1  2  0  0  0  0
  5  6  2  0  0  0  0
  5  4  1  0  0  0  0
  6  7  1  0  0  0  0
  7 12  1  0  0  0  0
  7  8  2  0  0  0  0
  8 13  1  0  0  0  0
  9 16  1  0  0  0  0
 10  5  1  0  0  0  0
 11  6  1  0  0  0  0
 14 18  1  0  0  0  0
 15 14  1  0  0  0  0
 17 14  1  0  0  0  0
M  RAD  3   2   2   3   3   4   2
M  END
