Coordinates from ORCA-job PhN2+~BF4-_B3LYPG-6-31G_dp-CH-Scan-d09-49-n800
 OpenBabel11261919213D

 18 16  0  0  0  0  0  0  0  0999 V2000
   -1.5220    0.2940    0.1143 C   0  0  0  0  0  0  0  0  0  0  0  0
   -2.9021    0.2241    0.2849 N   0  0  0  0  0  0  0  0  0  0  0  0
   -4.0140    0.2331    0.4098 N   0  0  0  0  0  0  0  0  0  0  0  0
   -1.0789    1.5927   -0.1863 C   0  0  0  0  0  0  0  0  0  0  0  0
    0.3362    1.5784   -0.3469 C   0  0  0  0  0  0  0  0  0  0  0  0
    1.1215    0.4369   -0.2202 C   0  0  0  0  0  0  0  0  0  0  0  0
    0.5562   -0.8258    0.0881 C   0  0  0  0  0  0  0  0  0  0  0  0
   -0.8051   -0.9249    0.2656 C   0  0  0  0  0  0  0  0  0  0  0  0
   -3.3841    4.3388   -0.4921 H   0  0  0  0  0  0  0  0  0  0  0  0
    0.8458    2.5128   -0.5856 H   0  0  0  0  0  0  0  0  0  0  0  0
    2.1996    0.5005   -0.3602 H   0  0  0  0  0  0  0  0  0  0  0  0
    1.1882   -1.7028    0.1832 H   0  0  0  0  0  0  0  0  0  0  0  0
   -1.2956   -1.8647    0.5046 H   0  0  0  0  0  0  0  0  0  0  0  0
   -5.6757    3.2021   -0.1196 B   0  0  0  0  0  0  0  0  0  0  0  0
   -5.2483    2.4602   -1.1376 F   0  0  0  0  0  0  0  0  0  0  0  0
   -4.2201    4.7470   -0.4509 F   0  0  0  0  0  0  0  0  0  0  0  0
   -6.7142    4.0035   -0.2768 F   0  0  0  0  0  0  0  0  0  0  0  0
   -5.2414    2.9074    1.1008 F   0  0  0  0  0  0  0  0  0  0  0  0
  1  8  1  0  0  0  0
  1  2  1  0  0  0  0
  2  3  1  0  0  0  0
  4  1  2  0  0  0  0
  5  6  2  0  0  0  0
  5  4  1  0  0  0  0
  6  7  1  0  0  0  0
  7 12  1  0  0  0  0
  7  8  2  0  0  0  0
  8 13  1  0  0  0  0
  9 16  1  0  0  0  0
 10  5  1  0  0  0  0
 11  6  1  0  0  0  0
 14 18  1  0  0  0  0
 15 14  1  0  0  0  0
 17 14  1  0  0  0  0
M  RAD  3   2   2   3   3   4   2
M  END
