Coordinates from ORCA-job PhN2+~BF4-_B3LYPG-6-31G_dp-CH-Scan-d09-49-n800
 OpenBabel11261919213D

 18 16  0  0  0  0  0  0  0  0999 V2000
   -1.4863    0.2888    0.1175 C   0  0  0  0  0  0  0  0  0  0  0  0
   -2.8677    0.2436    0.2898 N   0  0  0  0  0  0  0  0  0  0  0  0
   -3.9795    0.2765    0.4133 N   0  0  0  0  0  0  0  0  0  0  0  0
   -1.0269    1.5807   -0.1862 C   0  0  0  0  0  0  0  0  0  0  0  0
    0.3882    1.5443   -0.3501 C   0  0  0  0  0  0  0  0  0  0  0  0
    1.1565    0.3914   -0.2235 C   0  0  0  0  0  0  0  0  0  0  0  0
    0.5733   -0.8626    0.0887 C   0  0  0  0  0  0  0  0  0  0  0  0
   -0.7889   -0.9412    0.2698 C   0  0  0  0  0  0  0  0  0  0  0  0
   -3.4936    4.4916   -0.5025 H   0  0  0  0  0  0  0  0  0  0  0  0
    0.9116    2.4705   -0.5917 H   0  0  0  0  0  0  0  0  0  0  0  0
    2.2351    0.4383   -0.3666 H   0  0  0  0  0  0  0  0  0  0  0  0
    1.1928   -1.7485    0.1840 H   0  0  0  0  0  0  0  0  0  0  0  0
   -1.2929   -1.8730    0.5119 H   0  0  0  0  0  0  0  0  0  0  0  0
   -5.7182    3.1996   -0.1232 B   0  0  0  0  0  0  0  0  0  0  0  0
   -5.2174    2.4999   -1.1371 F   0  0  0  0  0  0  0  0  0  0  0  0
   -4.3494    4.8490   -0.4233 F   0  0  0  0  0  0  0  0  0  0  0  0
   -6.8021    3.9336   -0.2996 F   0  0  0  0  0  0  0  0  0  0  0  0
   -5.2886    2.9307    1.1039 F   0  0  0  0  0  0  0  0  0  0  0  0
  1  8  1  0  0  0  0
  1  2  1  0  0  0  0
  2  3  1  0  0  0  0
  4  1  2  0  0  0  0
  5  6  2  0  0  0  0
  5  4  1  0  0  0  0
  6  7  1  0  0  0  0
  7 12  1  0  0  0  0
  7  8  2  0  0  0  0
  8 13  1  0  0  0  0
  9 16  1  0  0  0  0
 10  5  1  0  0  0  0
 11  6  1  0  0  0  0
 14 18  1  0  0  0  0
 15 14  1  0  0  0  0
 17 14  1  0  0  0  0
M  RAD  3   2   2   3   3   4   2
M  END
