Coordinates from ORCA-job PhN2+~BF4-_B3LYPG-6-31G_dp-CH-Scan-d09-49-n800
 OpenBabel11261919213D

 18 16  0  0  0  0  0  0  0  0999 V2000
   -1.4816    0.2896    0.1168 C   0  0  0  0  0  0  0  0  0  0  0  0
   -2.8634    0.2475    0.2892 N   0  0  0  0  0  0  0  0  0  0  0  0
   -3.9753    0.2820    0.4116 N   0  0  0  0  0  0  0  0  0  0  0  0
   -1.0188    1.5798   -0.1885 C   0  0  0  0  0  0  0  0  0  0  0  0
    0.3962    1.5397   -0.3518 C   0  0  0  0  0  0  0  0  0  0  0  0
    1.1616    0.3850   -0.2237 C   0  0  0  0  0  0  0  0  0  0  0  0
    0.5751   -0.8671    0.0899 C   0  0  0  0  0  0  0  0  0  0  0  0
   -0.7873   -0.9420    0.2707 C   0  0  0  0  0  0  0  0  0  0  0  0
   -3.5095    4.5100   -0.5047 H   0  0  0  0  0  0  0  0  0  0  0  0
    0.9220    2.4642   -0.5945 H   0  0  0  0  0  0  0  0  0  0  0  0
    2.2403    0.4290   -0.3666 H   0  0  0  0  0  0  0  0  0  0  0  0
    1.1923   -1.7545    0.1865 H   0  0  0  0  0  0  0  0  0  0  0  0
   -1.2938   -1.8722    0.5139 H   0  0  0  0  0  0  0  0  0  0  0  0
   -5.7236    3.1990   -0.1232 B   0  0  0  0  0  0  0  0  0  0  0  0
   -5.2130    2.5066   -1.1372 F   0  0  0  0  0  0  0  0  0  0  0  0
   -4.3666    4.8612   -0.4163 F   0  0  0  0  0  0  0  0  0  0  0  0
   -6.8130    3.9242   -0.3017 F   0  0  0  0  0  0  0  0  0  0  0  0
   -5.2957    2.9311    1.1045 F   0  0  0  0  0  0  0  0  0  0  0  0
  1  8  1  0  0  0  0
  1  2  1  0  0  0  0
  2  3  1  0  0  0  0
  4  1  2  0  0  0  0
  5  6  2  0  0  0  0
  5  4  1  0  0  0  0
  6  7  1  0  0  0  0
  7 12  1  0  0  0  0
  7  8  2  0  0  0  0
  8 13  1  0  0  0  0
  9 16  1  0  0  0  0
 10  5  1  0  0  0  0
 11  6  1  0  0  0  0
 14 18  1  0  0  0  0
 15 14  1  0  0  0  0
 17 14  1  0  0  0  0
M  RAD  3   2   2   3   3   4   2
M  END
