Coordinates from ORCA-job PhN2+~BF4-_B3LYPG-6-31G_dp-CH-Scan-d09-49-n800
 OpenBabel11261919213D

 18 16  0  0  0  0  0  0  0  0999 V2000
   -1.6357    0.3228    0.1013 C   0  0  0  0  0  0  0  0  0  0  0  0
   -3.0095    0.1891    0.2639 N   0  0  0  0  0  0  0  0  0  0  0  0
   -4.1198    0.1339    0.3835 N   0  0  0  0  0  0  0  0  0  0  0  0
   -1.2324    1.6351   -0.2031 C   0  0  0  0  0  0  0  0  0  0  0  0
    0.1803    1.6781   -0.3545 C   0  0  0  0  0  0  0  0  0  0  0  0
    1.0085    0.5682   -0.2159 C   0  0  0  0  0  0  0  0  0  0  0  0
    0.4899   -0.7124    0.0947 C   0  0  0  0  0  0  0  0  0  0  0  0
   -0.8682   -0.8632    0.2627 C   0  0  0  0  0  0  0  0  0  0  0  0
   -3.1112    3.8922   -0.4552 H   0  0  0  0  0  0  0  0  0  0  0  0
    0.6526    2.6307   -0.5948 H   0  0  0  0  0  0  0  0  0  0  0  0
    2.0840    0.6737   -0.3484 H   0  0  0  0  0  0  0  0  0  0  0  0
    1.1536   -1.5644    0.1993 H   0  0  0  0  0  0  0  0  0  0  0  0
   -1.3226   -1.8204    0.5028 H   0  0  0  0  0  0  0  0  0  0  0  0
   -5.4922    3.1949   -0.1143 B   0  0  0  0  0  0  0  0  0  0  0  0
   -5.2544    2.3748   -1.1384 F   0  0  0  0  0  0  0  0  0  0  0  0
   -3.8803    4.4265   -0.4741 F   0  0  0  0  0  0  0  0  0  0  0  0
   -6.4069    4.1441   -0.2316 F   0  0  0  0  0  0  0  0  0  0  0  0
   -5.0896    2.8096    1.0970 F   0  0  0  0  0  0  0  0  0  0  0  0
  1  8  1  0  0  0  0
  1  2  1  0  0  0  0
  2  3  1  0  0  0  0
  4  1  2  0  0  0  0
  5  6  2  0  0  0  0
  5  4  1  0  0  0  0
  6  7  1  0  0  0  0
  7 12  1  0  0  0  0
  7  8  2  0  0  0  0
  8 13  1  0  0  0  0
 10  5  1  0  0  0  0
 11  6  1  0  0  0  0
 14 18  1  0  0  0  0
 15 14  1  0  0  0  0
 16  9  1  0  0  0  0
 17 14  1  0  0  0  0
M  RAD  3   2   2   3   3   4   2
M  END
