Coordinates from ORCA-job PhN2+~BF4-_B3LYPG-6-31G_dp-CH-Scan-d09-49-n800
 OpenBabel11261919213D

 18 16  0  0  0  0  0  0  0  0999 V2000
   -1.5087    0.2927    0.1156 C   0  0  0  0  0  0  0  0  0  0  0  0
   -2.8894    0.2311    0.2872 N   0  0  0  0  0  0  0  0  0  0  0  0
   -4.0014    0.2472    0.4112 N   0  0  0  0  0  0  0  0  0  0  0  0
   -1.0594    1.5889   -0.1854 C   0  0  0  0  0  0  0  0  0  0  0  0
    0.3557    1.5664   -0.3471 C   0  0  0  0  0  0  0  0  0  0  0  0
    1.1347    0.4206   -0.2212 C   0  0  0  0  0  0  0  0  0  0  0  0
    0.5627   -0.8391    0.0878 C   0  0  0  0  0  0  0  0  0  0  0  0
   -0.7990   -0.9305    0.2665 C   0  0  0  0  0  0  0  0  0  0  0  0
   -3.4216    4.3918   -0.4935 H   0  0  0  0  0  0  0  0  0  0  0  0
    0.8705    2.4979   -0.5863 H   0  0  0  0  0  0  0  0  0  0  0  0
    2.2130    0.4780   -0.3622 H   0  0  0  0  0  0  0  0  0  0  0  0
    1.1899   -1.7195    0.1824 H   0  0  0  0  0  0  0  0  0  0  0  0
   -1.2946   -1.8675    0.5061 H   0  0  0  0  0  0  0  0  0  0  0  0
   -5.6931    3.2020   -0.1209 B   0  0  0  0  0  0  0  0  0  0  0  0
   -5.2430    2.4719   -1.1374 F   0  0  0  0  0  0  0  0  0  0  0  0
   -4.2654    4.7821   -0.4455 F   0  0  0  0  0  0  0  0  0  0  0  0
   -6.7468    3.9819   -0.2836 F   0  0  0  0  0  0  0  0  0  0  0  0
   -5.2581    2.9173    1.1013 F   0  0  0  0  0  0  0  0  0  0  0  0
  1  8  1  0  0  0  0
  1  2  1  0  0  0  0
  2  3  1  0  0  0  0
  4  1  2  0  0  0  0
  5  6  2  0  0  0  0
  5  4  1  0  0  0  0
  6  7  1  0  0  0  0
  7 12  1  0  0  0  0
  7  8  2  0  0  0  0
  8 13  1  0  0  0  0
  9 16  1  0  0  0  0
 10  5  1  0  0  0  0
 11  6  1  0  0  0  0
 14 18  1  0  0  0  0
 15 14  1  0  0  0  0
 17 14  1  0  0  0  0
M  RAD  3   2   2   3   3   4   2
M  END
