Coordinates from ORCA-job PhN2+~BF4-_B3LYPG-6-31G_dp-CH-Scan-d09-49-n800
 OpenBabel11261919213D

 18 16  0  0  0  0  0  0  0  0999 V2000
   -1.6514    0.3274    0.1013 C   0  0  0  0  0  0  0  0  0  0  0  0
   -3.0241    0.1861    0.2645 N   0  0  0  0  0  0  0  0  0  0  0  0
   -4.1337    0.1243    0.3860 N   0  0  0  0  0  0  0  0  0  0  0  0
   -1.2527    1.6415   -0.2023 C   0  0  0  0  0  0  0  0  0  0  0  0
    0.1593    1.6920   -0.3542 C   0  0  0  0  0  0  0  0  0  0  0  0
    0.9926    0.5857   -0.2165 C   0  0  0  0  0  0  0  0  0  0  0  0
    0.4799   -0.6972    0.0934 C   0  0  0  0  0  0  0  0  0  0  0  0
   -0.8775   -0.8544    0.2616 C   0  0  0  0  0  0  0  0  0  0  0  0
   -3.0800    3.8309   -0.4495 H   0  0  0  0  0  0  0  0  0  0  0  0
    0.6265    2.6469   -0.5941 H   0  0  0  0  0  0  0  0  0  0  0  0
    2.0675    0.6964   -0.3491 H   0  0  0  0  0  0  0  0  0  0  0  0
    1.1474   -1.5463    0.1973 H   0  0  0  0  0  0  0  0  0  0  0  0
   -1.3272   -1.8139    0.5012 H   0  0  0  0  0  0  0  0  0  0  0  0
   -5.4616    3.1939   -0.1160 B   0  0  0  0  0  0  0  0  0  0  0  0
   -5.2473    2.3645   -1.1390 F   0  0  0  0  0  0  0  0  0  0  0  0
   -3.8405    4.3795   -0.4744 F   0  0  0  0  0  0  0  0  0  0  0  0
   -6.3606    4.1592   -0.2314 F   0  0  0  0  0  0  0  0  0  0  0  0
   -5.0704    2.7969    1.0962 F   0  0  0  0  0  0  0  0  0  0  0  0
  1  8  1  0  0  0  0
  1  2  1  0  0  0  0
  2  3  1  0  0  0  0
  4  1  2  0  0  0  0
  5  6  2  0  0  0  0
  5  4  1  0  0  0  0
  6  7  1  0  0  0  0
  7 12  1  0  0  0  0
  7  8  2  0  0  0  0
  8 13  1  0  0  0  0
 10  5  1  0  0  0  0
 11  6  1  0  0  0  0
 14 18  1  0  0  0  0
 15 14  1  0  0  0  0
 16  9  1  0  0  0  0
 17 14  1  0  0  0  0
M  RAD  3   2   2   3   3   4   2
M  END
