Coordinates from ORCA-job PhN2+~BF4-_B3LYPG-6-31G_dp-CH-Scan-d09-49-n800
 OpenBabel11261919213D

 18 16  0  0  0  0  0  0  0  0999 V2000
   -1.6292    0.3213    0.1009 C   0  0  0  0  0  0  0  0  0  0  0  0
   -3.0034    0.1899    0.2626 N   0  0  0  0  0  0  0  0  0  0  0  0
   -4.1136    0.1361    0.3841 N   0  0  0  0  0  0  0  0  0  0  0  0
   -1.2234    1.6328   -0.2030 C   0  0  0  0  0  0  0  0  0  0  0  0
    0.1897    1.6726   -0.3541 C   0  0  0  0  0  0  0  0  0  0  0  0
    1.0155    0.5610   -0.2152 C   0  0  0  0  0  0  0  0  0  0  0  0
    0.4941   -0.7186    0.0953 C   0  0  0  0  0  0  0  0  0  0  0  0
   -0.8643   -0.8665    0.2628 C   0  0  0  0  0  0  0  0  0  0  0  0
   -3.1250    3.9160   -0.4612 H   0  0  0  0  0  0  0  0  0  0  0  0
    0.6641    2.6242   -0.5943 H   0  0  0  0  0  0  0  0  0  0  0  0
    2.0913    0.6643   -0.3473 H   0  0  0  0  0  0  0  0  0  0  0  0
    1.1560   -1.5720    0.2001 H   0  0  0  0  0  0  0  0  0  0  0  0
   -1.3208   -1.8227    0.5027 H   0  0  0  0  0  0  0  0  0  0  0  0
   -5.5045    3.1964   -0.1133 B   0  0  0  0  0  0  0  0  0  0  0  0
   -5.2598    2.3799   -1.1383 F   0  0  0  0  0  0  0  0  0  0  0  0
   -3.8980    4.4438   -0.4737 F   0  0  0  0  0  0  0  0  0  0  0  0
   -6.4244    4.1405   -0.2303 F   0  0  0  0  0  0  0  0  0  0  0  0
   -5.0981    2.8142    1.0972 F   0  0  0  0  0  0  0  0  0  0  0  0
  1  2  1  0  0  0  0
  1  8  1  0  0  0  0
  2  3  1  0  0  0  0
  4  1  2  0  0  0  0
  5  6  2  0  0  0  0
  5  4  1  0  0  0  0
  6  7  1  0  0  0  0
  7 12  1  0  0  0  0
  7  8  2  0  0  0  0
  8 13  1  0  0  0  0
 10  5  1  0  0  0  0
 11  6  1  0  0  0  0
 14 18  1  0  0  0  0
 15 14  1  0  0  0  0
 16  9  1  0  0  0  0
 17 14  1  0  0  0  0
M  RAD  3   2   2   3   3   4   2
M  END
