Coordinates from ORCA-job PhN2+~BF4-_B3LYPG-6-31G_dp-CH-Scan-d09-49-n800
 OpenBabel11261919213D

 18 16  0  0  0  0  0  0  0  0999 V2000
   -1.4103    0.2847    0.1370 C   0  0  0  0  0  0  0  0  0  0  0  0
   -2.7874    0.2997    0.3523 N   0  0  0  0  0  0  0  0  0  0  0  0
   -3.8923    0.3893    0.5092 N   0  0  0  0  0  0  0  0  0  0  0  0
   -0.9196    1.5496   -0.2212 C   0  0  0  0  0  0  0  0  0  0  0  0
    0.4881    1.4590   -0.4284 C   0  0  0  0  0  0  0  0  0  0  0  0
    1.2200    0.2841   -0.2900 C   0  0  0  0  0  0  0  0  0  0  0  0
    0.6048   -0.9390    0.0801 C   0  0  0  0  0  0  0  0  0  0  0  0
   -0.7526   -0.9646    0.3070 C   0  0  0  0  0  0  0  0  0  0  0  0
   -3.8575    4.7783   -0.5022 H   0  0  0  0  0  0  0  0  0  0  0  0
    1.0348    2.3587   -0.7150 H   0  0  0  0  0  0  0  0  0  0  0  0
    2.2943    0.2883   -0.4685 H   0  0  0  0  0  0  0  0  0  0  0  0
    1.1971   -1.8425    0.1836 H   0  0  0  0  0  0  0  0  0  0  0  0
   -1.2801   -1.8703    0.5943 H   0  0  0  0  0  0  0  0  0  0  0  0
   -5.7688    3.2055   -0.1677 B   0  0  0  0  0  0  0  0  0  0  0  0
   -4.8296    2.7038   -0.9731 F   0  0  0  0  0  0  0  0  0  0  0  0
   -4.6220    5.0614   -0.0525 F   0  0  0  0  0  0  0  0  0  0  0  0
   -6.8556    3.7399   -0.6940 F   0  0  0  0  0  0  0  0  0  0  0  0
   -5.7173    2.9273    1.1242 F   0  0  0  0  0  0  0  0  0  0  0  0
  1  8  1  0  0  0  0
  1  2  1  0  0  0  0
  2  3  1  0  0  0  0
  4  1  2  0  0  0  0
  5  6  2  0  0  0  0
  5  4  1  0  0  0  0
  6  7  1  0  0  0  0
  7 12  1  0  0  0  0
  7  8  2  0  0  0  0
  8 13  1  0  0  0  0
  9 16  1  0  0  0  0
 10  5  1  0  0  0  0
 11  6  1  0  0  0  0
 14 18  1  0  0  0  0
 15 14  1  0  0  0  0
 17 14  1  0  0  0  0
M  RAD  3   2   2   3   3   4   2
M  END
