Coordinates from ORCA-job PhN2+~BF4-_B3LYPG-6-31G_dp-CH-Scan-d09-49-n800
 OpenBabel11261919213D

 18 16  0  0  0  0  0  0  0  0999 V2000
   -1.5385    0.2970    0.1123 C   0  0  0  0  0  0  0  0  0  0  0  0
   -2.9178    0.2164    0.2816 N   0  0  0  0  0  0  0  0  0  0  0  0
   -4.0295    0.2153    0.4075 N   0  0  0  0  0  0  0  0  0  0  0  0
   -1.1024    1.5982   -0.1883 C   0  0  0  0  0  0  0  0  0  0  0  0
    0.3126    1.5933   -0.3475 C   0  0  0  0  0  0  0  0  0  0  0  0
    1.1052    0.4569   -0.2192 C   0  0  0  0  0  0  0  0  0  0  0  0
    0.5477   -0.8091    0.0890 C   0  0  0  0  0  0  0  0  0  0  0  0
   -0.8132   -0.9169    0.2649 C   0  0  0  0  0  0  0  0  0  0  0  0
   -3.3389    4.2712   -0.4899 H   0  0  0  0  0  0  0  0  0  0  0  0
    0.8161    2.5309   -0.5861 H   0  0  0  0  0  0  0  0  0  0  0  0
    2.1830    0.5276   -0.3579 H   0  0  0  0  0  0  0  0  0  0  0  0
    1.1851   -1.6820    0.1851 H   0  0  0  0  0  0  0  0  0  0  0  0
   -1.2977   -1.8598    0.5037 H   0  0  0  0  0  0  0  0  0  0  0  0
   -5.6532    3.2024   -0.1183 B   0  0  0  0  0  0  0  0  0  0  0  0
   -5.2544    2.4470   -1.1383 F   0  0  0  0  0  0  0  0  0  0  0  0
   -4.1645    4.7014   -0.4552 F   0  0  0  0  0  0  0  0  0  0  0  0
   -6.6721    4.0302   -0.2685 F   0  0  0  0  0  0  0  0  0  0  0  0
   -5.2214    2.8932    1.1000 F   0  0  0  0  0  0  0  0  0  0  0  0
  1  8  1  0  0  0  0
  1  2  1  0  0  0  0
  2  3  1  0  0  0  0
  4  1  2  0  0  0  0
  5  6  2  0  0  0  0
  5  4  1  0  0  0  0
  6  7  1  0  0  0  0
  7 12  1  0  0  0  0
  7  8  2  0  0  0  0
  8 13  1  0  0  0  0
  9 16  1  0  0  0  0
 10  5  1  0  0  0  0
 11  6  1  0  0  0  0
 14 18  1  0  0  0  0
 15 14  1  0  0  0  0
 17 14  1  0  0  0  0
M  RAD  3   2   2   3   3   4   2
M  END
