Coordinates from ORCA-job PhN2+~BF4-_B3LYPG-6-31G_dp-CH-Scan-d09-49-n800
 OpenBabel11261919213D

 18 16  0  0  0  0  0  0  0  0999 V2000
   -1.6648    0.3316    0.0995 C   0  0  0  0  0  0  0  0  0  0  0  0
   -3.0365    0.1836    0.2617 N   0  0  0  0  0  0  0  0  0  0  0  0
   -4.1456    0.1143    0.3825 N   0  0  0  0  0  0  0  0  0  0  0  0
   -1.2696    1.6470   -0.2042 C   0  0  0  0  0  0  0  0  0  0  0  0
    0.1418    1.7033   -0.3547 C   0  0  0  0  0  0  0  0  0  0  0  0
    0.9794    0.6003   -0.2159 C   0  0  0  0  0  0  0  0  0  0  0  0
    0.4713   -0.6843    0.0937 C   0  0  0  0  0  0  0  0  0  0  0  0
   -0.8858   -0.8467    0.2605 C   0  0  0  0  0  0  0  0  0  0  0  0
   -3.0548    3.7803   -0.4476 H   0  0  0  0  0  0  0  0  0  0  0  0
    0.6053    2.6601   -0.5944 H   0  0  0  0  0  0  0  0  0  0  0  0
    2.0539    0.7153   -0.3473 H   0  0  0  0  0  0  0  0  0  0  0  0
    1.1418   -1.5308    0.1985 H   0  0  0  0  0  0  0  0  0  0  0  0
   -1.3318   -1.8078    0.4999 H   0  0  0  0  0  0  0  0  0  0  0  0
   -5.4346    3.1933   -0.1150 B   0  0  0  0  0  0  0  0  0  0  0  0
   -5.2415    2.3539   -1.1352 F   0  0  0  0  0  0  0  0  0  0  0  0
   -3.8085    4.3405   -0.4757 F   0  0  0  0  0  0  0  0  0  0  0  0
   -6.3212    4.1708   -0.2300 F   0  0  0  0  0  0  0  0  0  0  0  0
   -5.0524    2.7885    1.0986 F   0  0  0  0  0  0  0  0  0  0  0  0
  1  8  1  0  0  0  0
  1  2  1  0  0  0  0
  2  3  1  0  0  0  0
  4  1  2  0  0  0  0
  5  6  2  0  0  0  0
  5  4  1  0  0  0  0
  6  7  1  0  0  0  0
  7 12  1  0  0  0  0
  7  8  2  0  0  0  0
  8 13  1  0  0  0  0
 10  5  1  0  0  0  0
 11  6  1  0  0  0  0
 14 18  1  0  0  0  0
 15 14  1  0  0  0  0
 16  9  1  0  0  0  0
 17 14  1  0  0  0  0
M  RAD  3   2   2   3   3   4   2
M  END
