Coordinates from ORCA-job PhN2+~BF4-_B3LYPG-6-31G_dp-CH-Scan-d09-49-n800
 OpenBabel11261919213D

 18 16  0  0  0  0  0  0  0  0999 V2000
   -1.9497    0.4311    0.0034 C   0  0  0  0  0  0  0  0  0  0  0  0
   -3.3075    0.1631    0.0773 N   0  0  0  0  0  0  0  0  0  0  0  0
   -4.4020   -0.0375    0.1179 N   0  0  0  0  0  0  0  0  0  0  0  0
   -1.5680    1.7402   -0.3395 C   0  0  0  0  0  0  0  0  0  0  0  0
   -0.1772    1.9145   -0.4067 C   0  0  0  0  0  0  0  0  0  0  0  0
    0.7186    0.8759   -0.1516 C   0  0  0  0  0  0  0  0  0  0  0  0
    0.2676   -0.4133    0.1894 C   0  0  0  0  0  0  0  0  0  0  0  0
   -1.0891   -0.6592    0.2726 C   0  0  0  0  0  0  0  0  0  0  0  0
   -2.5869    2.8476   -0.5595 H   0  0  0  0  0  0  0  0  0  0  0  0
    0.2151    2.8944   -0.6642 H   0  0  0  0  0  0  0  0  0  0  0  0
    1.7881    1.0598   -0.2148 H   0  0  0  0  0  0  0  0  0  0  0  0
    0.9761   -1.2106    0.3866 H   0  0  0  0  0  0  0  0  0  0  0  0
   -1.4829   -1.6364    0.5321 H   0  0  0  0  0  0  0  0  0  0  0  0
   -4.7410    3.1367   -0.0566 B   0  0  0  0  0  0  0  0  0  0  0  0
   -5.1830    2.1803   -0.9580 F   0  0  0  0  0  0  0  0  0  0  0  0
   -3.4345    3.6819   -0.6747 F   0  0  0  0  0  0  0  0  0  0  0  0
   -5.5667    4.2002    0.0928 F   0  0  0  0  0  0  0  0  0  0  0  0
   -4.3309    2.5443    1.1286 F   0  0  0  0  0  0  0  0  0  0  0  0
  1  2  1  0  0  0  0
  1  8  2  0  0  0  0
  2  3  1  0  0  0  0
  4  1  1  0  0  0  0
  5  4  2  0  0  0  0
  5  6  1  0  0  0  0
  6  7  2  0  0  0  0
  7  8  1  0  0  0  0
  7 12  1  0  0  0  0
  8 13  1  0  0  0  0
 10  5  1  0  0  0  0
 11  6  1  0  0  0  0
 14 17  1  0  0  0  0
 14 18  1  0  0  0  0
 15 14  1  0  0  0  0
 16  9  1  0  0  0  0
M  RAD  3   2   2   3   3   4   2
M  END
