Coordinates from ORCA-job PhN2+~BF4-_B3LYPG-6-31G_dp-CH-Scan-d09-49-n800
 OpenBabel11261919213D

 18 16  0  0  0  0  0  0  0  0999 V2000
   -1.6850    0.3366    0.0951 C   0  0  0  0  0  0  0  0  0  0  0  0
   -3.0555    0.1780    0.2544 N   0  0  0  0  0  0  0  0  0  0  0  0
   -4.1638    0.0975    0.3733 N   0  0  0  0  0  0  0  0  0  0  0  0
   -1.2954    1.6539   -0.2081 C   0  0  0  0  0  0  0  0  0  0  0  0
    0.1154    1.7200   -0.3552 C   0  0  0  0  0  0  0  0  0  0  0  0
    0.9595    0.6222   -0.2137 C   0  0  0  0  0  0  0  0  0  0  0  0
    0.4585   -0.6651    0.0949 C   0  0  0  0  0  0  0  0  0  0  0  0
   -0.8980   -0.8359    0.2582 C   0  0  0  0  0  0  0  0  0  0  0  0
   -3.0193    3.7079   -0.4481 H   0  0  0  0  0  0  0  0  0  0  0  0
    0.5728    2.6797   -0.5939 H   0  0  0  0  0  0  0  0  0  0  0  0
    2.0335    0.7441   -0.3423 H   0  0  0  0  0  0  0  0  0  0  0  0
    1.1338   -1.5076    0.2017 H   0  0  0  0  0  0  0  0  0  0  0  0
   -1.3385   -1.7998    0.4966 H   0  0  0  0  0  0  0  0  0  0  0  0
   -5.3928    3.1927   -0.1108 B   0  0  0  0  0  0  0  0  0  0  0  0
   -5.2304    2.3361   -1.1239 F   0  0  0  0  0  0  0  0  0  0  0  0
   -3.7630    4.2849   -0.4811 F   0  0  0  0  0  0  0  0  0  0  0  0
   -6.2636    4.1853   -0.2282 F   0  0  0  0  0  0  0  0  0  0  0  0
   -5.0222    2.7826    1.1060 F   0  0  0  0  0  0  0  0  0  0  0  0
  1  2  1  0  0  0  0
  1  8  1  0  0  0  0
  2  3  1  0  0  0  0
  4  1  2  0  0  0  0
  5  6  2  0  0  0  0
  5  4  1  0  0  0  0
  6  7  1  0  0  0  0
  7 12  1  0  0  0  0
  7  8  2  0  0  0  0
  8 13  1  0  0  0  0
 10  5  1  0  0  0  0
 11  6  1  0  0  0  0
 14 18  1  0  0  0  0
 15 14  1  0  0  0  0
 16  9  1  0  0  0  0
 17 14  1  0  0  0  0
M  RAD  3   2   2   3   3   4   2
M  END
