Coordinates from ORCA-job PhN2+~BF4-_B3LYPG-6-31G_dp-CH-Scan-d09-49-n800
 OpenBabel11261919213D

 18 16  0  0  0  0  0  0  0  0999 V2000
   -1.7534    0.3646    0.1069 C   0  0  0  0  0  0  0  0  0  0  0  0
   -3.1172    0.1751    0.2810 N   0  0  0  0  0  0  0  0  0  0  0  0
   -4.2196    0.0560    0.4143 N   0  0  0  0  0  0  0  0  0  0  0  0
   -1.3784    1.6875   -0.1926 C   0  0  0  0  0  0  0  0  0  0  0  0
    0.0270    1.7784   -0.3542 C   0  0  0  0  0  0  0  0  0  0  0  0
    0.8885    0.6917   -0.2284 C   0  0  0  0  0  0  0  0  0  0  0  0
    0.4087   -0.6029    0.0770 C   0  0  0  0  0  0  0  0  0  0  0  0
   -0.9439   -0.7939    0.2535 C   0  0  0  0  0  0  0  0  0  0  0  0
   -2.9050    3.4718   -0.3923 H   0  0  0  0  0  0  0  0  0  0  0  0
    0.4651    2.7467   -0.5917 H   0  0  0  0  0  0  0  0  0  0  0  0
    1.9589    0.8305   -0.3678 H   0  0  0  0  0  0  0  0  0  0  0  0
    1.0959   -1.4370    0.1715 H   0  0  0  0  0  0  0  0  0  0  0  0
   -1.3672   -1.7656    0.4903 H   0  0  0  0  0  0  0  0  0  0  0  0
   -5.2310    3.1826   -0.1368 B   0  0  0  0  0  0  0  0  0  0  0  0
   -5.1319    2.2833   -1.1312 F   0  0  0  0  0  0  0  0  0  0  0  0
   -3.6228    4.1004   -0.4451 F   0  0  0  0  0  0  0  0  0  0  0  0
   -6.0642    4.2100   -0.2811 F   0  0  0  0  0  0  0  0  0  0  0  0
   -4.9636    2.7339    1.1016 F   0  0  0  0  0  0  0  0  0  0  0  0
  1  8  1  0  0  0  0
  1  2  1  0  0  0  0
  2  3  1  0  0  0  0
  4  1  2  0  0  0  0
  5  6  2  0  0  0  0
  5  4  1  0  0  0  0
  6  7  1  0  0  0  0
  7 12  1  0  0  0  0
  7  8  2  0  0  0  0
  8 13  1  0  0  0  0
 10  5  1  0  0  0  0
 11  6  1  0  0  0  0
 14 18  1  0  0  0  0
 15 14  1  0  0  0  0
 16  9  1  0  0  0  0
 17 14  1  0  0  0  0
M  RAD  3   2   2   3   3   4   2
M  END
