Coordinates from ORCA-job PhN2+~BF4-_B3LYPG-6-31G_dp-CH-Scan-d09-49-n800
 OpenBabel11261919213D

 18 16  0  0  0  0  0  0  0  0999 V2000
   -1.9521    0.4327    0.0011 C   0  0  0  0  0  0  0  0  0  0  0  0
   -3.3100    0.1646    0.0720 N   0  0  0  0  0  0  0  0  0  0  0  0
   -4.4045   -0.0365    0.1098 N   0  0  0  0  0  0  0  0  0  0  0  0
   -1.5682    1.7406   -0.3433 C   0  0  0  0  0  0  0  0  0  0  0  0
   -0.1779    1.9158   -0.4084 C   0  0  0  0  0  0  0  0  0  0  0  0
    0.7173    0.8774   -0.1497 C   0  0  0  0  0  0  0  0  0  0  0  0
    0.2653   -0.4110    0.1927 C   0  0  0  0  0  0  0  0  0  0  0  0
   -1.0917   -0.6567    0.2736 C   0  0  0  0  0  0  0  0  0  0  0  0
   -2.5804    2.8401   -0.5648 H   0  0  0  0  0  0  0  0  0  0  0  0
    0.2143    2.8954   -0.6667 H   0  0  0  0  0  0  0  0  0  0  0  0
    1.7869    1.0611   -0.2111 H   0  0  0  0  0  0  0  0  0  0  0  0
    0.9733   -1.2080    0.3928 H   0  0  0  0  0  0  0  0  0  0  0  0
   -1.4858   -1.6334    0.5341 H   0  0  0  0  0  0  0  0  0  0  0  0
   -4.7352    3.1357   -0.0551 B   0  0  0  0  0  0  0  0  0  0  0  0
   -5.1856    2.1783   -0.9531 F   0  0  0  0  0  0  0  0  0  0  0  0
   -3.4384    3.6810   -0.6805 F   0  0  0  0  0  0  0  0  0  0  0  0
   -5.5640    4.1960    0.1042 F   0  0  0  0  0  0  0  0  0  0  0  0
   -4.3173    2.5402    1.1273 F   0  0  0  0  0  0  0  0  0  0  0  0
  1  2  1  0  0  0  0
  1  8  2  0  0  0  0
  2  3  1  0  0  0  0
  4  1  1  0  0  0  0
  5  4  2  0  0  0  0
  5  6  1  0  0  0  0
  6  7  2  0  0  0  0
  7  8  1  0  0  0  0
  7 12  1  0  0  0  0
  8 13  1  0  0  0  0
 10  5  1  0  0  0  0
 11  6  1  0  0  0  0
 14 17  1  0  0  0  0
 14 18  1  0  0  0  0
 15 14  1  0  0  0  0
 16  9  1  0  0  0  0
M  RAD  3   2   2   3   3   4   2
M  END
