Coordinates from ORCA-job PhN2+~BF4-_B3LYPG-6-31G_dp-CH-Scan-d09-49-n800
 OpenBabel11261919213D

 18 16  0  0  0  0  0  0  0  0999 V2000
   -1.7620    0.3670    0.1065 C   0  0  0  0  0  0  0  0  0  0  0  0
   -3.1251    0.1732    0.2802 N   0  0  0  0  0  0  0  0  0  0  0  0
   -4.2272    0.0511    0.4124 N   0  0  0  0  0  0  0  0  0  0  0  0
   -1.3893    1.6905   -0.1936 C   0  0  0  0  0  0  0  0  0  0  0  0
    0.0155    1.7849   -0.3550 C   0  0  0  0  0  0  0  0  0  0  0  0
    0.8798    0.7004   -0.2286 C   0  0  0  0  0  0  0  0  0  0  0  0
    0.4030   -0.5950    0.0774 C   0  0  0  0  0  0  0  0  0  0  0  0
   -0.9493   -0.7890    0.2537 C   0  0  0  0  0  0  0  0  0  0  0  0
   -2.8895    3.4450   -0.3903 H   0  0  0  0  0  0  0  0  0  0  0  0
    0.4511    2.7542   -0.5930 H   0  0  0  0  0  0  0  0  0  0  0  0
    1.9498    0.8418   -0.3680 H   0  0  0  0  0  0  0  0  0  0  0  0
    1.0921   -1.4276    0.1725 H   0  0  0  0  0  0  0  0  0  0  0  0
   -1.3702   -1.7617    0.4909 H   0  0  0  0  0  0  0  0  0  0  0  0
   -5.2125    3.1802   -0.1368 B   0  0  0  0  0  0  0  0  0  0  0  0
   -5.1245    2.2786   -1.1311 F   0  0  0  0  0  0  0  0  0  0  0  0
   -3.6043    4.0800   -0.4446 F   0  0  0  0  0  0  0  0  0  0  0  0
   -6.0406    4.2125   -0.2795 F   0  0  0  0  0  0  0  0  0  0  0  0
   -4.9506    2.7271    1.1019 F   0  0  0  0  0  0  0  0  0  0  0  0
  1  8  1  0  0  0  0
  1  2  1  0  0  0  0
  2  3  1  0  0  0  0
  4  1  2  0  0  0  0
  5  6  2  0  0  0  0
  5  4  1  0  0  0  0
  6  7  1  0  0  0  0
  7 12  1  0  0  0  0
  7  8  2  0  0  0  0
  8 13  1  0  0  0  0
 10  5  1  0  0  0  0
 11  6  1  0  0  0  0
 14 18  1  0  0  0  0
 15 14  1  0  0  0  0
 16  9  1  0  0  0  0
 17 14  1  0  0  0  0
M  RAD  3   2   2   3   3   4   2
M  END
