Coordinates from ORCA-job PhN2+~BF4-_B3LYPG-6-31G_dp-CH-Scan-d09-49-n800
 OpenBabel11261919213D

 18 16  0  0  0  0  0  0  0  0999 V2000
   -1.8031    0.3725    0.0717 C   0  0  0  0  0  0  0  0  0  0  0  0
   -3.1659    0.1547    0.2141 N   0  0  0  0  0  0  0  0  0  0  0  0
   -4.2680    0.0128    0.3205 N   0  0  0  0  0  0  0  0  0  0  0  0
   -1.4396    1.6965   -0.2385 C   0  0  0  0  0  0  0  0  0  0  0  0
   -0.0345    1.8138   -0.3653 C   0  0  0  0  0  0  0  0  0  0  0  0
    0.8438    0.7456   -0.1999 C   0  0  0  0  0  0  0  0  0  0  0  0
    0.3796   -0.5520    0.1124 C   0  0  0  0  0  0  0  0  0  0  0  0
   -0.9739   -0.7655    0.2563 C   0  0  0  0  0  0  0  0  0  0  0  0
   -2.8357    3.2992   -0.4559 H   0  0  0  0  0  0  0  0  0  0  0  0
    0.3894    2.7872   -0.6059 H   0  0  0  0  0  0  0  0  0  0  0  0
    1.9144    0.9033   -0.3127 H   0  0  0  0  0  0  0  0  0  0  0  0
    1.0788   -1.3720    0.2381 H   0  0  0  0  0  0  0  0  0  0  0  0
   -1.3848   -1.7415    0.4968 H   0  0  0  0  0  0  0  0  0  0  0  0
   -5.1156    3.1819   -0.0981 B   0  0  0  0  0  0  0  0  0  0  0  0
   -5.1918    2.2733   -1.0933 F   0  0  0  0  0  0  0  0  0  0  0  0
   -3.5421    3.9624   -0.5260 F   0  0  0  0  0  0  0  0  0  0  0  0
   -5.9124    4.2509   -0.1561 F   0  0  0  0  0  0  0  0  0  0  0  0
   -4.7926    2.6900    1.1170 F   0  0  0  0  0  0  0  0  0  0  0  0
  1  2  1  0  0  0  0
  1  8  2  0  0  0  0
  2  3  1  0  0  0  0
  4  1  1  0  0  0  0
  5  4  2  0  0  0  0
  5  6  1  0  0  0  0
  6  7  2  0  0  0  0
  7 12  1  0  0  0  0
  7  8  1  0  0  0  0
  8 13  1  0  0  0  0
 10  5  1  0  0  0  0
 11  6  1  0  0  0  0
 14 18  1  0  0  0  0
 15 14  1  0  0  0  0
 16  9  1  0  0  0  0
 17 14  1  0  0  0  0
M  RAD  3   2   2   3   3   4   2
M  END
