Coordinates from ORCA-job PhN2+~BF4-_B3LYPG-6-31G_dp-CH-Scan-d09-49-n800
 OpenBabel11261919213D

 18 16  0  0  0  0  0  0  0  0999 V2000
   -1.4938    0.2702    0.1144 C   0  0  0  0  0  0  0  0  0  0  0  0
   -2.8720    0.2191    0.3109 N   0  0  0  0  0  0  0  0  0  0  0  0
   -3.9815    0.2483    0.4554 N   0  0  0  0  0  0  0  0  0  0  0  0
   -1.0530    1.5541   -0.2447 C   0  0  0  0  0  0  0  0  0  0  0  0
    0.3602    1.5252   -0.4278 C   0  0  0  0  0  0  0  0  0  0  0  0
    1.1423    0.3857   -0.2689 C   0  0  0  0  0  0  0  0  0  0  0  0
    0.5766   -0.8614    0.0989 C   0  0  0  0  0  0  0  0  0  0  0  0
   -0.7818   -0.9465    0.3030 C   0  0  0  0  0  0  0  0  0  0  0  0
   -3.5988    4.5595   -0.5259 H   0  0  0  0  0  0  0  0  0  0  0  0
    0.8707    2.4468   -0.7115 H   0  0  0  0  0  0  0  0  0  0  0  0
    2.2183    0.4379   -0.4288 H   0  0  0  0  0  0  0  0  0  0  0  0
    1.2067   -1.7369    0.2185 H   0  0  0  0  0  0  0  0  0  0  0  0
   -1.2727   -1.8734    0.5875 H   0  0  0  0  0  0  0  0  0  0  0  0
   -5.6723    3.2039   -0.1425 B   0  0  0  0  0  0  0  0  0  0  0  0
   -4.8568    2.5890   -1.0017 F   0  0  0  0  0  0  0  0  0  0  0  0
   -4.3503    4.9178   -0.1086 F   0  0  0  0  0  0  0  0  0  0  0  0
   -6.7284    3.8524   -0.5999 F   0  0  0  0  0  0  0  0  0  0  0  0
   -5.5674    2.9216    1.1466 F   0  0  0  0  0  0  0  0  0  0  0  0
  1  8  1  0  0  0  0
  1  2  1  0  0  0  0
  2  3  1  0  0  0  0
  4  1  2  0  0  0  0
  5  6  2  0  0  0  0
  5  4  1  0  0  0  0
  6  7  1  0  0  0  0
  7 12  1  0  0  0  0
  7  8  2  0  0  0  0
  8 13  1  0  0  0  0
  9 16  1  0  0  0  0
 10  5  1  0  0  0  0
 11  6  1  0  0  0  0
 14 18  1  0  0  0  0
 15 14  1  0  0  0  0
 17 14  1  0  0  0  0
M  RAD  3   2   2   3   3   4   2
M  END
