Coordinates from ORCA-job PhN2+~BF4-_B3LYPG-6-31G_dp-CH-Scan-d09-49-n800
 OpenBabel11261919213D

 18 16  0  0  0  0  0  0  0  0999 V2000
   -1.3209    0.3057    0.1481 C   0  0  0  0  0  0  0  0  0  0  0  0
   -2.6947    0.3887    0.3719 N   0  0  0  0  0  0  0  0  0  0  0  0
   -3.7931    0.5317    0.5359 N   0  0  0  0  0  0  0  0  0  0  0  0
   -0.7692    1.5496   -0.1924 C   0  0  0  0  0  0  0  0  0  0  0  0
    0.6314    1.3924   -0.4083 C   0  0  0  0  0  0  0  0  0  0  0  0
    1.3034    0.1800   -0.2928 C   0  0  0  0  0  0  0  0  0  0  0  0
    0.6289   -1.0167    0.0607 C   0  0  0  0  0  0  0  0  0  0  0  0
   -0.7269   -0.9781    0.2945 C   0  0  0  0  0  0  0  0  0  0  0  0
   -4.1339    4.9707   -0.5244 H   0  0  0  0  0  0  0  0  0  0  0  0
    1.2213    2.2682   -0.6830 H   0  0  0  0  0  0  0  0  0  0  0  0
    2.3759    0.1326   -0.4770 H   0  0  0  0  0  0  0  0  0  0  0  0
    1.1758   -1.9503    0.1463 H   0  0  0  0  0  0  0  0  0  0  0  0
   -1.2981   -1.8606    0.5701 H   0  0  0  0  0  0  0  0  0  0  0  0
   -5.8704    3.2159   -0.1715 B   0  0  0  0  0  0  0  0  0  0  0  0
   -4.8727    2.8140   -0.9627 F   0  0  0  0  0  0  0  0  0  0  0  0
   -4.9040    5.1814   -0.0459 F   0  0  0  0  0  0  0  0  0  0  0  0
   -6.9949    3.6441   -0.7151 F   0  0  0  0  0  0  0  0  0  0  0  0
   -5.8116    2.9439    1.1207 F   0  0  0  0  0  0  0  0  0  0  0  0
  1  8  1  0  0  0  0
  1  2  1  0  0  0  0
  2  3  1  0  0  0  0
  4  1  2  0  0  0  0
  5  6  2  0  0  0  0
  5  4  1  0  0  0  0
  6  7  1  0  0  0  0
  7 12  1  0  0  0  0
  7  8  2  0  0  0  0
  8 13  1  0  0  0  0
  9 16  1  0  0  0  0
 10  5  1  0  0  0  0
 11  6  1  0  0  0  0
 14 18  1  0  0  0  0
 15 14  1  0  0  0  0
 17 14  1  0  0  0  0
M  RAD  3   2   2   3   3   4   2
M  END
