Coordinates from ORCA-job PhN2+~BF4-_B3LYPG-6-31G_dp-CH-Scan-d09-49-n800
 OpenBabel11261919213D

 18 16  0  0  0  0  0  0  0  0999 V2000
   -1.3118    0.3082    0.1487 C   0  0  0  0  0  0  0  0  0  0  0  0
   -2.6853    0.3986    0.3723 N   0  0  0  0  0  0  0  0  0  0  0  0
   -3.7828    0.5480    0.5368 N   0  0  0  0  0  0  0  0  0  0  0  0
   -0.7534    1.5499   -0.1886 C   0  0  0  0  0  0  0  0  0  0  0  0
    0.6464    1.3857   -0.4046 C   0  0  0  0  0  0  0  0  0  0  0  0
    1.3118    0.1694   -0.2919 C   0  0  0  0  0  0  0  0  0  0  0  0
    0.6306   -1.0244    0.0585 C   0  0  0  0  0  0  0  0  0  0  0  0
   -0.7250   -0.9791    0.2920 C   0  0  0  0  0  0  0  0  0  0  0  0
   -4.1636    4.9885   -0.5311 H   0  0  0  0  0  0  0  0  0  0  0  0
    1.2411    2.2589   -0.6770 H   0  0  0  0  0  0  0  0  0  0  0  0
    2.3840    0.1166   -0.4759 H   0  0  0  0  0  0  0  0  0  0  0  0
    1.1725   -1.9612    0.1419 H   0  0  0  0  0  0  0  0  0  0  0  0
   -1.3011   -1.8592    0.5652 H   0  0  0  0  0  0  0  0  0  0  0  0
   -5.8799    3.2167   -0.1701 B   0  0  0  0  0  0  0  0  0  0  0  0
   -4.8793    2.8251   -0.9629 F   0  0  0  0  0  0  0  0  0  0  0  0
   -4.9327    5.1925   -0.0482 F   0  0  0  0  0  0  0  0  0  0  0  0
   -7.0098    3.6325   -0.7122 F   0  0  0  0  0  0  0  0  0  0  0  0
   -5.8159    2.9464    1.1221 F   0  0  0  0  0  0  0  0  0  0  0  0
  1  8  1  0  0  0  0
  1  2  1  0  0  0  0
  2  3  1  0  0  0  0
  4  1  2  0  0  0  0
  5  6  2  0  0  0  0
  5  4  1  0  0  0  0
  6  7  1  0  0  0  0
  7 12  1  0  0  0  0
  7  8  2  0  0  0  0
  8 13  1  0  0  0  0
  9 16  1  0  0  0  0
 10  5  1  0  0  0  0
 11  6  1  0  0  0  0
 14 18  1  0  0  0  0
 15 14  1  0  0  0  0
 17 14  1  0  0  0  0
M  RAD  3   2   2   3   3   4   2
M  END
