Coordinates from ORCA-job PhN2+~BF4-_B3LYPG-6-31G_dp-CH-Scan-d09-49-n800
 OpenBabel11261919213D

 18 16  0  0  0  0  0  0  0  0999 V2000
   -1.5713    0.3047    0.1086 C   0  0  0  0  0  0  0  0  0  0  0  0
   -2.9489    0.2055    0.2762 N   0  0  0  0  0  0  0  0  0  0  0  0
   -4.0604    0.1857    0.4005 N   0  0  0  0  0  0  0  0  0  0  0  0
   -1.1476    1.6099   -0.1945 C   0  0  0  0  0  0  0  0  0  0  0  0
    0.2669    1.6218   -0.3511 C   0  0  0  0  0  0  0  0  0  0  0  0
    1.0725    0.4950   -0.2186 C   0  0  0  0  0  0  0  0  0  0  0  0
    0.5291   -0.7763    0.0915 C   0  0  0  0  0  0  0  0  0  0  0  0
   -0.8309   -0.8994    0.2650 C   0  0  0  0  0  0  0  0  0  0  0  0
   -3.2551    4.1439   -0.4790 H   0  0  0  0  0  0  0  0  0  0  0  0
    0.7594    2.5647   -0.5912 H   0  0  0  0  0  0  0  0  0  0  0  0
    2.1495    0.5781   -0.3553 H   0  0  0  0  0  0  0  0  0  0  0  0
    1.1761   -1.6417    0.1910 H   0  0  0  0  0  0  0  0  0  0  0  0
   -1.3046   -1.8474    0.5050 H   0  0  0  0  0  0  0  0  0  0  0  0
   -5.6037    3.1995   -0.1171 B   0  0  0  0  0  0  0  0  0  0  0  0
   -5.2555    2.4227   -1.1406 F   0  0  0  0  0  0  0  0  0  0  0  0
   -4.0615    4.6120   -0.4575 F   0  0  0  0  0  0  0  0  0  0  0  0
   -6.5867    4.0722   -0.2560 F   0  0  0  0  0  0  0  0  0  0  0  0
   -5.1813    2.8622    1.0982 F   0  0  0  0  0  0  0  0  0  0  0  0
  1  8  1  0  0  0  0
  1  2  1  0  0  0  0
  2  3  1  0  0  0  0
  4  1  2  0  0  0  0
  5  6  2  0  0  0  0
  5  4  1  0  0  0  0
  6  7  1  0  0  0  0
  7 12  1  0  0  0  0
  7  8  2  0  0  0  0
  8 13  1  0  0  0  0
  9 16  1  0  0  0  0
 10  5  1  0  0  0  0
 11  6  1  0  0  0  0
 14 18  1  0  0  0  0
 15 14  1  0  0  0  0
 17 14  1  0  0  0  0
M  RAD  3   2   2   3   3   4   2
M  END
