Coordinates from ORCA-job PhN2+~BF4-_B3LYPG-6-31G_dp-CH-Scan-d09-49-n800
 OpenBabel11261919213D

 18 17  0  0  0  0  0  0  0  0999 V2000
   -1.9874    0.5579   -0.1810 C   0  0  0  0  0  0  0  0  0  0  0  0
   -3.3526    0.3334   -0.2904 N   0  0  0  0  0  0  0  0  0  0  0  0
   -4.4277    0.0588   -0.3900 N   0  0  0  0  0  0  0  0  0  0  0  0
   -1.4745    1.8231   -0.5014 C   0  0  0  0  0  0  0  0  0  0  0  0
   -0.0959    1.9793   -0.4009 C   0  0  0  0  0  0  0  0  0  0  0  0
    0.7155    0.9184    0.0122 C   0  0  0  0  0  0  0  0  0  0  0  0
    0.1681   -0.3337    0.3248 C   0  0  0  0  0  0  0  0  0  0  0  0
   -1.2009   -0.5348    0.2261 C   0  0  0  0  0  0  0  0  0  0  0  0
   -2.1927    2.6373   -0.8158 H   0  0  0  0  0  0  0  0  0  0  0  0
    0.3446    2.9415   -0.6385 H   0  0  0  0  0  0  0  0  0  0  0  0
    1.7883    1.0653    0.0948 H   0  0  0  0  0  0  0  0  0  0  0  0
    0.8082   -1.1487    0.6442 H   0  0  0  0  0  0  0  0  0  0  0  0
   -1.6579   -1.4894    0.4616 H   0  0  0  0  0  0  0  0  0  0  0  0
   -4.6813    3.0164    0.0590 B   0  0  0  0  0  0  0  0  0  0  0  0
   -5.6929    2.0434   -0.1270 F   0  0  0  0  0  0  0  0  0  0  0  0
   -3.9684    3.1328   -1.1742 F   0  0  0  0  0  0  0  0  0  0  0  0
   -5.1882    4.2216    0.4622 F   0  0  0  0  0  0  0  0  0  0  0  0
   -3.7582    2.4904    1.0091 F   0  0  0  0  0  0  0  0  0  0  0  0
  1  8  2  0  0  0  0
  2  1  1  0  0  0  0
  3  2  1  0  0  0  0
  4  5  2  0  0  0  0
  4  1  1  0  0  0  0
  5  6  1  0  0  0  0
  6 11  1  0  0  0  0
  6  7  2  0  0  0  0
  7 12  1  0  0  0  0
  8  7  1  0  0  0  0
  8 13  1  0  0  0  0
  9  4  1  0  0  0  0
 10  5  1  0  0  0  0
 14 17  1  0  0  0  0
 14 18  1  0  0  0  0
 15 14  1  0  0  0  0
 16 14  1  0  0  0  0
M  RAD  2   2   2   3   3
M  END
