19
Coordinates from ORCA-job PhN2+~HSO4-_B3LYPG-6-31G_dp-CH-Scan-d09-49-n800
  C   -1.69198254919145     -0.22922113833668      0.85477046008604
  N   -2.84455183751165     -0.80712360600411      1.39494490048647
  N   -3.71854489141933     -1.29212637196424      1.89636037331081
  C   -0.57914131108401     -0.40306488142997      1.68888109198899
  C   0.55052333330797      0.23291958569787      1.08918888014554
  C   0.50935265021007      0.91110275709346     -0.12382346482813
  C   -0.68411888566160      1.00166203574468     -0.88701764468679
  C   -1.83516540917704      0.41604788267871     -0.40469743059430
  H   -3.24130515257772      3.11304703415987     -0.44649723849783
  H   1.50969412873498      0.19159896174467      1.60740189034121
  H   1.41044468587669      1.37979365903125     -0.51631248086045
  H   -0.68180109301857      1.50402810526560     -1.84947711583245
  H   -2.77433395889157      0.41980526083799     -0.95006598803346
  S   -5.30821528924867      2.55024935596060     -0.53153747826467
  O   -4.07605387863005      3.60210967207024     -0.55999564817928
  O   -4.93290302833531      1.40548528461385      0.27403116277712
  O   -6.49792974544621      3.34112484383343     -0.31559286612508
  O   -5.30987696804784      2.00606618690640     -2.06438423802105
  H   -5.81967579988861      2.63186737209630     -2.60742616521262
