Coordinates from ORCA-job 4-NO2PhN2+_B3LYPG-6-31G_dp-d09-49-n800
 OpenBabel11261918563D

 15 15  0  0  0  0  0  0  0  0999 V2000
   -1.3606   -0.0736   -0.0503 C   0  0  0  0  0  0  0  0  0  0  0  0
   -2.7398   -0.1537   -0.0402 N   0  0  0  0  0  0  0  0  0  0  0  0
   -3.8520   -0.2181   -0.0321 N   0  0  0  0  0  0  0  0  0  0  0  0
   -0.7776    1.2047   -0.1705 C   0  0  0  0  0  0  0  0  0  0  0  0
    0.6084    1.2673   -0.1795 C   0  0  0  0  0  0  0  0  0  0  0  0
    1.3371    0.0817   -0.0708 C   0  0  0  0  0  0  0  0  0  0  0  0
    2.8282    0.1677   -0.0832 N   0  0  0  0  0  0  0  0  0  0  0  0
    3.3058    1.2874   -0.1955 O   0  0  0  0  0  0  0  0  0  0  0  0
    3.4328   -0.8902    0.0195 O   0  0  0  0  0  0  0  0  0  0  0  0
    0.7518   -1.1798    0.0482 C   0  0  0  0  0  0  0  0  0  0  0  0
   -0.6321   -1.2756    0.0600 C   0  0  0  0  0  0  0  0  0  0  0  0
   -1.3780    2.0809   -0.2509 H   0  0  0  0  0  0  0  0  0  0  0  0
    1.1330    2.2117   -0.2689 H   0  0  0  0  0  0  0  0  0  0  0  0
    1.3824   -2.0575    0.1286 H   0  0  0  0  0  0  0  0  0  0  0  0
   -1.1359   -2.2317    0.1503 H   0  0  0  0  0  0  0  0  0  0  0  0
  1  2  1  0  0  0  0
  1 11  2  0  0  0  0
  2  3  1  0  0  0  0
  4  1  1  0  0  0  0
  5  4  2  0  0  0  0
  5  6  1  0  0  0  0
  6 10  2  0  0  0  0
  7  6  1  0  0  0  0
  7  9  2  0  0  0  0
  8  7  2  0  0  0  0
 10 11  1  0  0  0  0
 10 14  1  0  0  0  0
 11 15  1  0  0  0  0
 12  4  1  0  0  0  0
 13  5  1  0  0  0  0
M  RAD  2   2   2   3   3
M  END
