Coordinates from ORCA-job 4-NO2PhN2+_B3LYPG-6-31G_dp-d09-49-n800
 OpenBabel11261918563D

 15 15  0  0  0  0  0  0  0  0999 V2000
   -1.3546   -0.0882   -0.0489 C   0  0  0  0  0  0  0  0  0  0  0  0
   -2.7328   -0.1646   -0.0395 N   0  0  0  0  0  0  0  0  0  0  0  0
   -3.8451   -0.2270   -0.0318 N   0  0  0  0  0  0  0  0  0  0  0  0
   -0.7639    1.1836   -0.1684 C   0  0  0  0  0  0  0  0  0  0  0  0
    0.6183    1.2585   -0.1786 C   0  0  0  0  0  0  0  0  0  0  0  0
    1.3453    0.0708   -0.0697 C   0  0  0  0  0  0  0  0  0  0  0  0
    2.8369    0.1565   -0.0820 N   0  0  0  0  0  0  0  0  0  0  0  0
    3.3147    1.2760   -0.1954 O   0  0  0  0  0  0  0  0  0  0  0  0
    3.4411   -0.9015    0.0206 O   0  0  0  0  0  0  0  0  0  0  0  0
    0.7600   -1.1913    0.0494 C   0  0  0  0  0  0  0  0  0  0  0  0
   -0.6233   -1.2898    0.0613 C   0  0  0  0  0  0  0  0  0  0  0  0
   -1.5017    2.2501   -0.2658 H   0  0  0  0  0  0  0  0  0  0  0  0
    1.1423    2.2029   -0.2679 H   0  0  0  0  0  0  0  0  0  0  0  0
    1.3919   -2.0681    0.1298 H   0  0  0  0  0  0  0  0  0  0  0  0
   -1.1257   -2.2468    0.1517 H   0  0  0  0  0  0  0  0  0  0  0  0
  1  2  1  0  0  0  0
  1 11  2  0  0  0  0
  2  3  1  0  0  0  0
  4  1  1  0  0  0  0
  5  4  2  0  0  0  0
  5  6  1  0  0  0  0
  6 10  2  0  0  0  0
  7  6  1  0  0  0  0
  7  9  2  0  0  0  0
  8  7  2  0  0  0  0
 10 11  1  0  0  0  0
 10 14  1  0  0  0  0
 11 15  1  0  0  0  0
 12  4  1  0  0  0  0
 13  5  1  0  0  0  0
M  RAD  2   2   2   3   3
M  END
