Coordinates from ORCA-job 4-NO2PhN2+_B3LYPG-6-31G_dp-d09-49-n800
 OpenBabel11261918563D

 15 14  0  0  0  0  0  0  0  0999 V2000
   -1.3453   -0.1102   -0.0467 C   0  0  0  0  0  0  0  0  0  0  0  0
   -2.7224   -0.1781   -0.0381 N   0  0  0  0  0  0  0  0  0  0  0  0
   -3.8347   -0.2346   -0.0309 N   0  0  0  0  0  0  0  0  0  0  0  0
   -0.7410    1.1494   -0.1653 C   0  0  0  0  0  0  0  0  0  0  0  0
    0.6338    1.2456   -0.1776 C   0  0  0  0  0  0  0  0  0  0  0  0
    1.3584    0.0543   -0.0685 C   0  0  0  0  0  0  0  0  0  0  0  0
    2.8512    0.1399   -0.0815 N   0  0  0  0  0  0  0  0  0  0  0  0
    3.3290    1.2593   -0.1926 O   0  0  0  0  0  0  0  0  0  0  0  0
    3.4545   -0.9184    0.0225 O   0  0  0  0  0  0  0  0  0  0  0  0
    0.7728   -1.2086    0.0508 C   0  0  0  0  0  0  0  0  0  0  0  0
   -0.6101   -1.3114    0.0635 C   0  0  0  0  0  0  0  0  0  0  0  0
   -1.6950    2.4973   -0.2885 H   0  0  0  0  0  0  0  0  0  0  0  0
    1.1563    2.1907   -0.2673 H   0  0  0  0  0  0  0  0  0  0  0  0
    1.4064   -2.0841    0.1309 H   0  0  0  0  0  0  0  0  0  0  0  0
   -1.1104   -2.2698    0.1540 H   0  0  0  0  0  0  0  0  0  0  0  0
  1  2  1  0  0  0  0
  1 11  2  0  0  0  0
  2  3  1  0  0  0  0
  4  1  1  0  0  0  0
  5  4  2  0  0  0  0
  5  6  1  0  0  0  0
  6 10  2  0  0  0  0
  7  6  1  0  0  0  0
  7  9  2  0  0  0  0
  8  7  2  0  0  0  0
 10 11  1  0  0  0  0
 10 14  1  0  0  0  0
 11 15  1  0  0  0  0
 13  5  1  0  0  0  0
M  RAD  4   2   2   3   3   4   2  12   2
M  END
