Coordinates from ORCA-job 4-NO2PhN2+_B3LYPG-6-31G_dp-d09-49-n800
 OpenBabel11261918563D

 15 14  0  0  0  0  0  0  0  0999 V2000
   -1.2743   -0.3703   -0.0207 C   0  0  0  0  0  0  0  0  0  0  0  0
   -2.6557   -0.4928   -0.0065 N   0  0  0  0  0  0  0  0  0  0  0  0
   -3.7655   -0.5815    0.0040 N   0  0  0  0  0  0  0  0  0  0  0  0
   -0.7305    0.9028   -0.1397 C   0  0  0  0  0  0  0  0  0  0  0  0
    0.6285    1.0840   -0.1603 C   0  0  0  0  0  0  0  0  0  0  0  0
    1.4087   -0.0763   -0.0562 C   0  0  0  0  0  0  0  0  0  0  0  0
    2.9016    0.0867   -0.0776 N   0  0  0  0  0  0  0  0  0  0  0  0
    3.3260    1.2266   -0.1818 O   0  0  0  0  0  0  0  0  0  0  0  0
    3.5538   -0.9436    0.0156 O   0  0  0  0  0  0  0  0  0  0  0  0
    0.8865   -1.3699    0.0649 C   0  0  0  0  0  0  0  0  0  0  0  0
   -0.4870   -1.5447    0.0854 C   0  0  0  0  0  0  0  0  0  0  0  0
   -2.6320    4.9899   -0.5295 H   0  0  0  0  0  0  0  0  0  0  0  0
    1.1206    2.0492   -0.2505 H   0  0  0  0  0  0  0  0  0  0  0  0
    1.5637   -2.2118    0.1402 H   0  0  0  0  0  0  0  0  0  0  0  0
   -0.9411   -2.5271    0.1775 H   0  0  0  0  0  0  0  0  0  0  0  0
  1  2  1  0  0  0  0
  1 11  2  0  0  0  0
  2  3  1  0  0  0  0
  4  1  1  0  0  0  0
  5  4  2  0  0  0  0
  5  6  1  0  0  0  0
  6 10  2  0  0  0  0
  7  6  1  0  0  0  0
  7  9  2  0  0  0  0
  8  7  2  0  0  0  0
 10 11  1  0  0  0  0
 10 14  1  0  0  0  0
 11 15  1  0  0  0  0
 13  5  1  0  0  0  0
M  RAD  4   2   2   3   3   4   2  12   2
M  END
