Coordinates from ORCA-job 4-NO2PhN2+_B3LYPG-6-31G_dp-d09-49-n800
 OpenBabel11261918563D

 15 14  0  0  0  0  0  0  0  0999 V2000
   -1.2722   -0.3275   -0.0250 C   0  0  0  0  0  0  0  0  0  0  0  0
   -2.6545   -0.4322   -0.0127 N   0  0  0  0  0  0  0  0  0  0  0  0
   -3.7653   -0.5084   -0.0036 N   0  0  0  0  0  0  0  0  0  0  0  0
   -0.7094    0.9378   -0.1431 C   0  0  0  0  0  0  0  0  0  0  0  0
    0.6514    1.1018   -0.1617 C   0  0  0  0  0  0  0  0  0  0  0  0
    1.4157   -0.0691   -0.0564 C   0  0  0  0  0  0  0  0  0  0  0  0
    2.9107    0.0740   -0.0755 N   0  0  0  0  0  0  0  0  0  0  0  0
    3.3501    1.2078   -0.1829 O   0  0  0  0  0  0  0  0  0  0  0  0
    3.5487   -0.9650    0.0184 O   0  0  0  0  0  0  0  0  0  0  0  0
    0.8759   -1.3554    0.0639 C   0  0  0  0  0  0  0  0  0  0  0  0
   -0.5000   -1.5118    0.0822 C   0  0  0  0  0  0  0  0  0  0  0  0
   -2.6782    4.7032   -0.5014 H   0  0  0  0  0  0  0  0  0  0  0  0
    1.1560    2.0605   -0.2512 H   0  0  0  0  0  0  0  0  0  0  0  0
    1.5417   -2.2064    0.1402 H   0  0  0  0  0  0  0  0  0  0  0  0
   -0.9672   -2.4880    0.1736 H   0  0  0  0  0  0  0  0  0  0  0  0
  1  2  1  0  0  0  0
  1 11  2  0  0  0  0
  2  3  1  0  0  0  0
  4  1  1  0  0  0  0
  5  4  2  0  0  0  0
  5  6  1  0  0  0  0
  6 10  2  0  0  0  0
  7  6  1  0  0  0  0
  7  9  2  0  0  0  0
  8  7  2  0  0  0  0
 10 11  1  0  0  0  0
 10 14  1  0  0  0  0
 11 15  1  0  0  0  0
 13  5  1  0  0  0  0
M  RAD  4   2   2   3   3   4   2  12   2
M  END
