Coordinates from ORCA-job 4-NO2PhN2+_B3LYPG-6-31G_dp-d09-49-n800
 OpenBabel11261918563D

 15 15  0  0  0  0  0  0  0  0999 V2000
   -1.3614   -0.0718   -0.0505 C   0  0  0  0  0  0  0  0  0  0  0  0
   -2.7407   -0.1521   -0.0404 N   0  0  0  0  0  0  0  0  0  0  0  0
   -3.8530   -0.2165   -0.0322 N   0  0  0  0  0  0  0  0  0  0  0  0
   -0.7791    1.2071   -0.1707 C   0  0  0  0  0  0  0  0  0  0  0  0
    0.6072    1.2685   -0.1796 C   0  0  0  0  0  0  0  0  0  0  0  0
    1.3360    0.0831   -0.0709 C   0  0  0  0  0  0  0  0  0  0  0  0
    2.8271    0.1691   -0.0834 N   0  0  0  0  0  0  0  0  0  0  0  0
    3.3046    1.2889   -0.1955 O   0  0  0  0  0  0  0  0  0  0  0  0
    3.4317   -0.8887    0.0193 O   0  0  0  0  0  0  0  0  0  0  0  0
    0.7507   -1.1783    0.0480 C   0  0  0  0  0  0  0  0  0  0  0  0
   -0.6332   -1.2738    0.0599 C   0  0  0  0  0  0  0  0  0  0  0  0
   -1.3624    2.0587   -0.2489 H   0  0  0  0  0  0  0  0  0  0  0  0
    1.1317    2.2130   -0.2691 H   0  0  0  0  0  0  0  0  0  0  0  0
    1.3812   -2.0561    0.1285 H   0  0  0  0  0  0  0  0  0  0  0  0
   -1.1372   -2.2299    0.1502 H   0  0  0  0  0  0  0  0  0  0  0  0
  1  2  1  0  0  0  0
  1 11  2  0  0  0  0
  2  3  1  0  0  0  0
  4  1  1  0  0  0  0
  5  4  2  0  0  0  0
  5  6  1  0  0  0  0
  6 10  2  0  0  0  0
  7  6  1  0  0  0  0
  7  9  2  0  0  0  0
  8  7  2  0  0  0  0
 10 11  1  0  0  0  0
 10 14  1  0  0  0  0
 11 15  1  0  0  0  0
 12  4  1  0  0  0  0
 13  5  1  0  0  0  0
M  RAD  2   2   2   3   3
M  END
