Coordinates from ORCA-job 4-NO2PhN2+_B3LYPG-6-31G_dp-d09-49-n800
 OpenBabel11261918563D

 15 15  0  0  0  0  0  0  0  0999 V2000
   -1.3560   -0.0847   -0.0493 C   0  0  0  0  0  0  0  0  0  0  0  0
   -2.7344   -0.1623   -0.0395 N   0  0  0  0  0  0  0  0  0  0  0  0
   -3.8467   -0.2253   -0.0316 N   0  0  0  0  0  0  0  0  0  0  0  0
   -0.7673    1.1888   -0.1689 C   0  0  0  0  0  0  0  0  0  0  0  0
    0.6160    1.2605   -0.1789 C   0  0  0  0  0  0  0  0  0  0  0  0
    1.3433    0.0733   -0.0702 C   0  0  0  0  0  0  0  0  0  0  0  0
    2.8349    0.1591   -0.0825 N   0  0  0  0  0  0  0  0  0  0  0  0
    3.3126    1.2787   -0.1952 O   0  0  0  0  0  0  0  0  0  0  0  0
    3.4391   -0.8988    0.0208 O   0  0  0  0  0  0  0  0  0  0  0  0
    0.7581   -1.1887    0.0489 C   0  0  0  0  0  0  0  0  0  0  0  0
   -0.6254   -1.2864    0.0610 C   0  0  0  0  0  0  0  0  0  0  0  0
   -1.4725    2.2111   -0.2623 H   0  0  0  0  0  0  0  0  0  0  0  0
    1.1402    2.2048   -0.2683 H   0  0  0  0  0  0  0  0  0  0  0  0
    1.3897   -2.0657    0.1294 H   0  0  0  0  0  0  0  0  0  0  0  0
   -1.1281   -2.2432    0.1513 H   0  0  0  0  0  0  0  0  0  0  0  0
  1  2  1  0  0  0  0
  1 11  2  0  0  0  0
  2  3  1  0  0  0  0
  4  1  1  0  0  0  0
  5  4  2  0  0  0  0
  5  6  1  0  0  0  0
  6 10  2  0  0  0  0
  7  6  1  0  0  0  0
  7  9  2  0  0  0  0
  8  7  2  0  0  0  0
 10 11  1  0  0  0  0
 10 14  1  0  0  0  0
 11 15  1  0  0  0  0
 12  4  1  0  0  0  0
 13  5  1  0  0  0  0
M  RAD  2   2   2   3   3
M  END
