Coordinates from ORCA-job 4-NO2PhN2+_B3LYPG-6-31G_dp-d09-49-n800
 OpenBabel11261918563D

 15 15  0  0  0  0  0  0  0  0999 V2000
   -1.3579   -0.0800   -0.0497 C   0  0  0  0  0  0  0  0  0  0  0  0
   -2.7366   -0.1589   -0.0398 N   0  0  0  0  0  0  0  0  0  0  0  0
   -3.8489   -0.2226   -0.0318 N   0  0  0  0  0  0  0  0  0  0  0  0
   -0.7717    1.1956   -0.1696 C   0  0  0  0  0  0  0  0  0  0  0  0
    0.6128    1.2633   -0.1792 C   0  0  0  0  0  0  0  0  0  0  0  0
    1.3407    0.0768   -0.0705 C   0  0  0  0  0  0  0  0  0  0  0  0
    2.8320    0.1626   -0.0828 N   0  0  0  0  0  0  0  0  0  0  0  0
    3.3097    1.2823   -0.1954 O   0  0  0  0  0  0  0  0  0  0  0  0
    3.4364   -0.8952    0.0203 O   0  0  0  0  0  0  0  0  0  0  0  0
    0.7555   -1.1850    0.0486 C   0  0  0  0  0  0  0  0  0  0  0  0
   -0.6281   -1.2819    0.0606 C   0  0  0  0  0  0  0  0  0  0  0  0
   -1.4329    2.1572   -0.2575 H   0  0  0  0  0  0  0  0  0  0  0  0
    1.1373    2.2076   -0.2686 H   0  0  0  0  0  0  0  0  0  0  0  0
    1.3866   -2.0623    0.1291 H   0  0  0  0  0  0  0  0  0  0  0  0
   -1.1314   -2.2384    0.1509 H   0  0  0  0  0  0  0  0  0  0  0  0
  1  2  1  0  0  0  0
  1 11  2  0  0  0  0
  2  3  1  0  0  0  0
  4  1  1  0  0  0  0
  5  4  2  0  0  0  0
  5  6  1  0  0  0  0
  6 10  2  0  0  0  0
  7  6  1  0  0  0  0
  7  9  2  0  0  0  0
  8  7  2  0  0  0  0
 10 11  1  0  0  0  0
 10 14  1  0  0  0  0
 11 15  1  0  0  0  0
 12  4  1  0  0  0  0
 13  5  1  0  0  0  0
M  RAD  2   2   2   3   3
M  END
