Coordinates from ORCA-job 4-NO2PhN2+_B3LYPG-6-31G_dp-d09-49-n800
 OpenBabel11261918563D

 15 14  0  0  0  0  0  0  0  0999 V2000
   -1.2718   -0.2927   -0.0278 C   0  0  0  0  0  0  0  0  0  0  0  0
   -2.6545   -0.3829   -0.0162 N   0  0  0  0  0  0  0  0  0  0  0  0
   -3.7660   -0.4497   -0.0133 N   0  0  0  0  0  0  0  0  0  0  0  0
   -0.6933    0.9656   -0.1457 C   0  0  0  0  0  0  0  0  0  0  0  0
    0.6683    1.1174   -0.1634 C   0  0  0  0  0  0  0  0  0  0  0  0
    1.4201   -0.0618   -0.0572 C   0  0  0  0  0  0  0  0  0  0  0  0
    2.9164    0.0656   -0.0749 N   0  0  0  0  0  0  0  0  0  0  0  0
    3.3674    1.1947   -0.1839 O   0  0  0  0  0  0  0  0  0  0  0  0
    3.5433   -0.9799    0.0209 O   0  0  0  0  0  0  0  0  0  0  0  0
    0.8665   -1.3421    0.0630 C   0  0  0  0  0  0  0  0  0  0  0  0
   -0.5110   -1.4843    0.0802 C   0  0  0  0  0  0  0  0  0  0  0  0
   -2.6990    4.4557   -0.4759 H   0  0  0  0  0  0  0  0  0  0  0  0
    1.1820    2.0712   -0.2529 H   0  0  0  0  0  0  0  0  0  0  0  0
    1.5233   -2.2000    0.1401 H   0  0  0  0  0  0  0  0  0  0  0  0
   -0.9883   -2.4557    0.1716 H   0  0  0  0  0  0  0  0  0  0  0  0
  1  2  1  0  0  0  0
  1 11  2  0  0  0  0
  2  3  1  0  0  0  0
  4  1  1  0  0  0  0
  5  4  2  0  0  0  0
  5  6  1  0  0  0  0
  6 10  2  0  0  0  0
  7  6  1  0  0  0  0
  7  9  2  0  0  0  0
  8  7  2  0  0  0  0
 10 11  1  0  0  0  0
 10 14  1  0  0  0  0
 11 15  1  0  0  0  0
 13  5  1  0  0  0  0
M  RAD  4   2   2   3   3   4   2  12   2
M  END
