Coordinates from ORCA-job 4-NO2PhN2+_B3LYPG-6-31G_dp-d09-49-n800
 OpenBabel11261918563D

 15 14  0  0  0  0  0  0  0  0999 V2000
   -1.3324   -0.1339   -0.0446 C   0  0  0  0  0  0  0  0  0  0  0  0
   -2.7094   -0.1929   -0.0368 N   0  0  0  0  0  0  0  0  0  0  0  0
   -3.8218   -0.2430   -0.0303 N   0  0  0  0  0  0  0  0  0  0  0  0
   -0.7153    1.1140   -0.1621 C   0  0  0  0  0  0  0  0  0  0  0  0
    0.6520    1.2292   -0.1759 C   0  0  0  0  0  0  0  0  0  0  0  0
    1.3745    0.0342   -0.0664 C   0  0  0  0  0  0  0  0  0  0  0  0
    2.8691    0.1205   -0.0794 N   0  0  0  0  0  0  0  0  0  0  0  0
    3.3466    1.2395   -0.1907 O   0  0  0  0  0  0  0  0  0  0  0  0
    3.4709   -0.9385    0.0233 O   0  0  0  0  0  0  0  0  0  0  0  0
    0.7880   -1.2291    0.0528 C   0  0  0  0  0  0  0  0  0  0  0  0
   -0.5946   -1.3355    0.0658 C   0  0  0  0  0  0  0  0  0  0  0  0
   -1.9279    2.7803   -0.3145 H   0  0  0  0  0  0  0  0  0  0  0  0
    1.1748    2.1748   -0.2657 H   0  0  0  0  0  0  0  0  0  0  0  0
    1.4228   -2.1037    0.1328 H   0  0  0  0  0  0  0  0  0  0  0  0
   -1.0937   -2.2949    0.1564 H   0  0  0  0  0  0  0  0  0  0  0  0
  1  2  1  0  0  0  0
  1 11  2  0  0  0  0
  2  3  1  0  0  0  0
  4  1  1  0  0  0  0
  5  4  2  0  0  0  0
  5  6  1  0  0  0  0
  6 10  2  0  0  0  0
  7  6  1  0  0  0  0
  7  9  2  0  0  0  0
  8  7  2  0  0  0  0
 10 11  1  0  0  0  0
 10 14  1  0  0  0  0
 11 15  1  0  0  0  0
 13  5  1  0  0  0  0
M  RAD  4   2   2   3   3   4   2  12   2
M  END
