Coordinates from ORCA-job 4-NO2PhN2+_B3LYPG-6-31G_dp-d09-49-n800
 OpenBabel11261918563D

 15 14  0  0  0  0  0  0  0  0999 V2000
   -1.2749   -0.3819   -0.0197 C   0  0  0  0  0  0  0  0  0  0  0  0
   -2.6560   -0.5095   -0.0053 N   0  0  0  0  0  0  0  0  0  0  0  0
   -3.7655   -0.6020    0.0052 N   0  0  0  0  0  0  0  0  0  0  0  0
   -0.7365    0.8937   -0.1389 C   0  0  0  0  0  0  0  0  0  0  0  0
    0.6221    1.0792   -0.1597 C   0  0  0  0  0  0  0  0  0  0  0  0
    1.4067   -0.0781   -0.0555 C   0  0  0  0  0  0  0  0  0  0  0  0
    2.8989    0.0904   -0.0771 N   0  0  0  0  0  0  0  0  0  0  0  0
    3.3191    1.2318   -0.1832 O   0  0  0  0  0  0  0  0  0  0  0  0
    3.5550   -0.9376    0.0135 O   0  0  0  0  0  0  0  0  0  0  0  0
    0.8893   -1.3737    0.0658 C   0  0  0  0  0  0  0  0  0  0  0  0
   -0.4835   -1.5534    0.0864 C   0  0  0  0  0  0  0  0  0  0  0  0
   -2.6176    5.0667   -0.5366 H   0  0  0  0  0  0  0  0  0  0  0  0
    1.1108    2.0461   -0.2500 H   0  0  0  0  0  0  0  0  0  0  0  0
    1.5697   -2.2131    0.1410 H   0  0  0  0  0  0  0  0  0  0  0  0
   -0.9340   -2.5374    0.1787 H   0  0  0  0  0  0  0  0  0  0  0  0
  1  2  1  0  0  0  0
  1 11  2  0  0  0  0
  2  3  1  0  0  0  0
  4  1  1  0  0  0  0
  5  4  2  0  0  0  0
  5  6  1  0  0  0  0
  6 10  2  0  0  0  0
  7  6  1  0  0  0  0
  7  9  2  0  0  0  0
  8  7  2  0  0  0  0
 10 11  1  0  0  0  0
 10 14  1  0  0  0  0
 11 15  1  0  0  0  0
 13  5  1  0  0  0  0
M  RAD  4   2   2   3   3   4   2  12   2
M  END
