Coordinates from ORCA-job 4-NO2PhN2+_B3LYPG-6-31G_dp-d09-49-n800
 OpenBabel11261918563D

 15 14  0  0  0  0  0  0  0  0999 V2000
   -1.3415   -0.1180   -0.0461 C   0  0  0  0  0  0  0  0  0  0  0  0
   -2.7184   -0.1827   -0.0385 N   0  0  0  0  0  0  0  0  0  0  0  0
   -3.8308   -0.2371   -0.0321 N   0  0  0  0  0  0  0  0  0  0  0  0
   -0.7326    1.1375   -0.1640 C   0  0  0  0  0  0  0  0  0  0  0  0
    0.6396    1.2407   -0.1762 C   0  0  0  0  0  0  0  0  0  0  0  0
    1.3635    0.0482   -0.0667 C   0  0  0  0  0  0  0  0  0  0  0  0
    2.8568    0.1340   -0.0788 N   0  0  0  0  0  0  0  0  0  0  0  0
    3.3345    1.2528   -0.1947 O   0  0  0  0  0  0  0  0  0  0  0  0
    3.4596   -0.9250    0.0200 O   0  0  0  0  0  0  0  0  0  0  0  0
    0.7775   -1.2149    0.0523 C   0  0  0  0  0  0  0  0  0  0  0  0
   -0.6052   -1.3192    0.0644 C   0  0  0  0  0  0  0  0  0  0  0  0
   -1.7680    2.5868   -0.2968 H   0  0  0  0  0  0  0  0  0  0  0  0
    1.1619    2.1861   -0.2656 H   0  0  0  0  0  0  0  0  0  0  0  0
    1.4116   -2.0900    0.1326 H   0  0  0  0  0  0  0  0  0  0  0  0
   -1.1050   -2.2780    0.1547 H   0  0  0  0  0  0  0  0  0  0  0  0
  1  2  1  0  0  0  0
  1 11  2  0  0  0  0
  2  3  1  0  0  0  0
  4  1  1  0  0  0  0
  5  4  2  0  0  0  0
  5  6  1  0  0  0  0
  6 10  2  0  0  0  0
  7  6  1  0  0  0  0
  7  9  2  0  0  0  0
  8  7  2  0  0  0  0
 10 11  1  0  0  0  0
 10 14  1  0  0  0  0
 11 15  1  0  0  0  0
 13  5  1  0  0  0  0
M  RAD  4   2   2   3   3   4   2  12   2
M  END
