Coordinates from ORCA-job 4-NO2PhN2+_B3LYPG-6-31G_dp-d09-49-n800
 OpenBabel11261918563D

 15 14  0  0  0  0  0  0  0  0999 V2000
   -1.2982   -0.1818   -0.0399 C   0  0  0  0  0  0  0  0  0  0  0  0
   -2.6783   -0.2373   -0.0323 N   0  0  0  0  0  0  0  0  0  0  0  0
   -3.7906   -0.2831   -0.0261 N   0  0  0  0  0  0  0  0  0  0  0  0
   -0.6771    1.0582   -0.1563 C   0  0  0  0  0  0  0  0  0  0  0  0
    0.6842    1.1869   -0.1715 C   0  0  0  0  0  0  0  0  0  0  0  0
    1.4069   -0.0107   -0.0622 C   0  0  0  0  0  0  0  0  0  0  0  0
    2.9047    0.0801   -0.0755 N   0  0  0  0  0  0  0  0  0  0  0  0
    3.3808    1.1987   -0.1866 O   0  0  0  0  0  0  0  0  0  0  0  0
    3.5059   -0.9793    0.0260 O   0  0  0  0  0  0  0  0  0  0  0  0
    0.8214   -1.2757    0.0569 C   0  0  0  0  0  0  0  0  0  0  0  0
   -0.5602   -1.3862    0.0704 C   0  0  0  0  0  0  0  0  0  0  0  0
   -2.4075    3.4156   -0.3751 H   0  0  0  0  0  0  0  0  0  0  0  0
    1.2127    2.1314   -0.2607 H   0  0  0  0  0  0  0  0  0  0  0  0
    1.4576   -2.1492    0.1364 H   0  0  0  0  0  0  0  0  0  0  0  0
   -1.0589   -2.3466    0.1609 H   0  0  0  0  0  0  0  0  0  0  0  0
  1  2  1  0  0  0  0
  1 11  2  0  0  0  0
  2  3  1  0  0  0  0
  4  1  1  0  0  0  0
  5  4  2  0  0  0  0
  5  6  1  0  0  0  0
  6 10  2  0  0  0  0
  7  6  1  0  0  0  0
  7  9  2  0  0  0  0
  8  7  2  0  0  0  0
 10 11  1  0  0  0  0
 10 14  1  0  0  0  0
 11 15  1  0  0  0  0
 13  5  1  0  0  0  0
M  RAD  4   2   2   3   3   4   2  12   2
M  END
