Coordinates from ORCA-job 4-NO2PhN2+_B3LYPG-6-31G_dp-d09-49-n800
 OpenBabel11261918563D

 15 15  0  0  0  0  0  0  0  0999 V2000
   -1.3526   -0.0932   -0.0484 C   0  0  0  0  0  0  0  0  0  0  0  0
   -2.7305   -0.1679   -0.0391 N   0  0  0  0  0  0  0  0  0  0  0  0
   -3.8427   -0.2291   -0.0315 N   0  0  0  0  0  0  0  0  0  0  0  0
   -0.7589    1.1759   -0.1677 C   0  0  0  0  0  0  0  0  0  0  0  0
    0.6218    1.2556   -0.1784 C   0  0  0  0  0  0  0  0  0  0  0  0
    1.3482    0.0671   -0.0695 C   0  0  0  0  0  0  0  0  0  0  0  0
    2.8400    0.1528   -0.0820 N   0  0  0  0  0  0  0  0  0  0  0  0
    3.3178    1.2722   -0.1947 O   0  0  0  0  0  0  0  0  0  0  0  0
    3.4440   -0.9053    0.0212 O   0  0  0  0  0  0  0  0  0  0  0  0
    0.7629   -1.1952    0.0496 C   0  0  0  0  0  0  0  0  0  0  0  0
   -0.6204   -1.2947    0.0618 C   0  0  0  0  0  0  0  0  0  0  0  0
   -1.5445    2.3064   -0.2710 H   0  0  0  0  0  0  0  0  0  0  0  0
    1.1454    2.2001   -0.2678 H   0  0  0  0  0  0  0  0  0  0  0  0
    1.3952   -2.0717    0.1300 H   0  0  0  0  0  0  0  0  0  0  0  0
   -1.1222   -2.2520    0.1522 H   0  0  0  0  0  0  0  0  0  0  0  0
  1  2  1  0  0  0  0
  1 11  2  0  0  0  0
  2  3  1  0  0  0  0
  4  1  1  0  0  0  0
  5  4  2  0  0  0  0
  5  6  1  0  0  0  0
  6 10  2  0  0  0  0
  7  6  1  0  0  0  0
  7  9  2  0  0  0  0
  8  7  2  0  0  0  0
 10 11  1  0  0  0  0
 10 14  1  0  0  0  0
 11 15  1  0  0  0  0
 12  4  1  0  0  0  0
 13  5  1  0  0  0  0
M  RAD  2   2   2   3   3
M  END
