Coordinates from ORCA-job 4-NO2PhN2+_B3LYPG-6-31G_dp-d09-49-n800
 OpenBabel11261918563D

 15 14  0  0  0  0  0  0  0  0999 V2000
   -1.2728   -0.3473   -0.0230 C   0  0  0  0  0  0  0  0  0  0  0  0
   -2.6548   -0.4600   -0.0110 N   0  0  0  0  0  0  0  0  0  0  0  0
   -3.7652   -0.5416   -0.0028 N   0  0  0  0  0  0  0  0  0  0  0  0
   -0.7185    0.9214   -0.1408 C   0  0  0  0  0  0  0  0  0  0  0  0
    0.6414    1.0934   -0.1591 C   0  0  0  0  0  0  0  0  0  0  0  0
    1.4129   -0.0727   -0.0540 C   0  0  0  0  0  0  0  0  0  0  0  0
    2.9070    0.0795   -0.0728 N   0  0  0  0  0  0  0  0  0  0  0  0
    3.3396    1.2153   -0.1874 O   0  0  0  0  0  0  0  0  0  0  0  0
    3.5514   -0.9564    0.0119 O   0  0  0  0  0  0  0  0  0  0  0  0
    0.8810   -1.3624    0.0659 C   0  0  0  0  0  0  0  0  0  0  0  0
   -0.4938   -1.5272    0.0841 C   0  0  0  0  0  0  0  0  0  0  0  0
   -2.6619    4.8392   -0.5153 H   0  0  0  0  0  0  0  0  0  0  0  0
    1.1403    2.0552   -0.2483 H   0  0  0  0  0  0  0  0  0  0  0  0
    1.5520   -2.2093    0.1421 H   0  0  0  0  0  0  0  0  0  0  0  0
   -0.9552   -2.5062    0.1753 H   0  0  0  0  0  0  0  0  0  0  0  0
  1  2  1  0  0  0  0
  1 11  2  0  0  0  0
  2  3  1  0  0  0  0
  4  1  1  0  0  0  0
  5  4  2  0  0  0  0
  5  6  1  0  0  0  0
  6 10  2  0  0  0  0
  7  6  1  0  0  0  0
  7  9  2  0  0  0  0
  8  7  2  0  0  0  0
 10 11  1  0  0  0  0
 10 14  1  0  0  0  0
 11 15  1  0  0  0  0
 13  5  1  0  0  0  0
M  RAD  4   2   2   3   3   4   2  12   2
M  END
