Coordinates from ORCA-job 4-NO2PhN2+_B3LYPG-6-31G_dp-d09-49-n800
 OpenBabel11261918563D

 15 14  0  0  0  0  0  0  0  0999 V2000
   -1.2778   -0.4066   -0.0153 C   0  0  0  0  0  0  0  0  0  0  0  0
   -2.6579   -0.5453    0.0007 N   0  0  0  0  0  0  0  0  0  0  0  0
   -3.7668   -0.6457    0.0125 N   0  0  0  0  0  0  0  0  0  0  0  0
   -0.7507    0.8738   -0.1324 C   0  0  0  0  0  0  0  0  0  0  0  0
    0.6062    1.0708   -0.1546 C   0  0  0  0  0  0  0  0  0  0  0  0
    1.4007   -0.0801   -0.0548 C   0  0  0  0  0  0  0  0  0  0  0  0
    2.8914    0.1010   -0.0785 N   0  0  0  0  0  0  0  0  0  0  0  0
    3.3021    1.2461   -0.1813 O   0  0  0  0  0  0  0  0  0  0  0  0
    3.5565   -0.9218    0.0074 O   0  0  0  0  0  0  0  0  0  0  0  0
    0.8946   -1.3804    0.0643 C   0  0  0  0  0  0  0  0  0  0  0  0
   -0.4767   -1.5719    0.0867 C   0  0  0  0  0  0  0  0  0  0  0  0
   -2.5691    5.2136   -0.5605 H   0  0  0  0  0  0  0  0  0  0  0  0
    1.0874    2.0416   -0.2433 H   0  0  0  0  0  0  0  0  0  0  0  0
    1.5822   -2.2141    0.1363 H   0  0  0  0  0  0  0  0  0  0  0  0
   -0.9186   -2.5599    0.1774 H   0  0  0  0  0  0  0  0  0  0  0  0
  1  2  1  0  0  0  0
  1 11  2  0  0  0  0
  2  3  1  0  0  0  0
  4  1  1  0  0  0  0
  5  4  2  0  0  0  0
  5  6  1  0  0  0  0
  6 10  2  0  0  0  0
  7  6  1  0  0  0  0
  7  9  2  0  0  0  0
  8  7  2  0  0  0  0
 10 11  1  0  0  0  0
 10 14  1  0  0  0  0
 11 15  1  0  0  0  0
 13  5  1  0  0  0  0
M  RAD  4   2   2   3   3   4   2  12   2
M  END
