Coordinates from ORCA-job 4-NO2PhN2+_B3LYPG-6-31G_dp-d09-49-n800
 OpenBabel11261918563D

 15 14  0  0  0  0  0  0  0  0999 V2000
   -1.3474   -0.1057   -0.0472 C   0  0  0  0  0  0  0  0  0  0  0  0
   -2.7246   -0.1754   -0.0385 N   0  0  0  0  0  0  0  0  0  0  0  0
   -3.8369   -0.2333   -0.0314 N   0  0  0  0  0  0  0  0  0  0  0  0
   -0.7459    1.1565   -0.1658 C   0  0  0  0  0  0  0  0  0  0  0  0
    0.6305    1.2484   -0.1776 C   0  0  0  0  0  0  0  0  0  0  0  0
    1.3556    0.0579   -0.0686 C   0  0  0  0  0  0  0  0  0  0  0  0
    2.8481    0.1434   -0.0812 N   0  0  0  0  0  0  0  0  0  0  0  0
    3.3259    1.2628   -0.1937 O   0  0  0  0  0  0  0  0  0  0  0  0
    3.4516   -0.9149    0.0215 O   0  0  0  0  0  0  0  0  0  0  0  0
    0.7701   -1.2049    0.0506 C   0  0  0  0  0  0  0  0  0  0  0  0
   -0.6129   -1.3069    0.0631 C   0  0  0  0  0  0  0  0  0  0  0  0
   -1.6535    2.4455   -0.2838 H   0  0  0  0  0  0  0  0  0  0  0  0
    1.1532    2.1933   -0.2672 H   0  0  0  0  0  0  0  0  0  0  0  0
    1.4033   -2.0807    0.1308 H   0  0  0  0  0  0  0  0  0  0  0  0
   -1.1136   -2.2650    0.1535 H   0  0  0  0  0  0  0  0  0  0  0  0
  1  2  1  0  0  0  0
  1 11  2  0  0  0  0
  2  3  1  0  0  0  0
  4  1  1  0  0  0  0
  5  4  2  0  0  0  0
  5  6  1  0  0  0  0
  6 10  2  0  0  0  0
  7  6  1  0  0  0  0
  7  9  2  0  0  0  0
  8  7  2  0  0  0  0
 10 11  1  0  0  0  0
 10 14  1  0  0  0  0
 11 15  1  0  0  0  0
 13  5  1  0  0  0  0
M  RAD  4   2   2   3   3   4   2  12   2
M  END
