Coordinates from ORCA-job 4-NO2PhN2+_B3LYPG-6-31G_dp-d09-49-n800
 OpenBabel11261918563D

 15 14  0  0  0  0  0  0  0  0999 V2000
   -1.2972   -0.1838   -0.0396 C   0  0  0  0  0  0  0  0  0  0  0  0
   -2.6774   -0.2396   -0.0318 N   0  0  0  0  0  0  0  0  0  0  0  0
   -3.7897   -0.2857   -0.0254 N   0  0  0  0  0  0  0  0  0  0  0  0
   -0.6764    1.0562   -0.1562 C   0  0  0  0  0  0  0  0  0  0  0  0
    0.6849    1.1853   -0.1716 C   0  0  0  0  0  0  0  0  0  0  0  0
    1.4078   -0.0123   -0.0624 C   0  0  0  0  0  0  0  0  0  0  0  0
    2.9056    0.0789   -0.0761 N   0  0  0  0  0  0  0  0  0  0  0  0
    3.3815    1.1977   -0.1855 O   0  0  0  0  0  0  0  0  0  0  0  0
    3.5070   -0.9803    0.0270 O   0  0  0  0  0  0  0  0  0  0  0  0
    0.8225   -1.2774    0.0568 C   0  0  0  0  0  0  0  0  0  0  0  0
   -0.5590   -1.3882    0.0705 C   0  0  0  0  0  0  0  0  0  0  0  0
   -2.4215    3.4400   -0.3774 H   0  0  0  0  0  0  0  0  0  0  0  0
    1.2136    2.1298   -0.2609 H   0  0  0  0  0  0  0  0  0  0  0  0
    1.4589   -2.1507    0.1362 H   0  0  0  0  0  0  0  0  0  0  0  0
   -1.0574   -2.3487    0.1611 H   0  0  0  0  0  0  0  0  0  0  0  0
  1  2  1  0  0  0  0
  1 11  2  0  0  0  0
  2  3  1  0  0  0  0
  4  1  1  0  0  0  0
  5  4  2  0  0  0  0
  5  6  1  0  0  0  0
  6 10  2  0  0  0  0
  7  6  1  0  0  0  0
  7  9  2  0  0  0  0
  8  7  2  0  0  0  0
 10 11  1  0  0  0  0
 10 14  1  0  0  0  0
 11 15  1  0  0  0  0
 13  5  1  0  0  0  0
M  RAD  4   2   2   3   3   4   2  12   2
M  END
