Coordinates from ORCA-job 4-NO2PhN2+_B3LYPG-6-31G_dp-d09-49-n800
 OpenBabel11261918563D

 15 14  0  0  0  0  0  0  0  0999 V2000
   -1.3206   -0.1509   -0.0429 C   0  0  0  0  0  0  0  0  0  0  0  0
   -2.6985   -0.2061   -0.0355 N   0  0  0  0  0  0  0  0  0  0  0  0
   -3.8108   -0.2529   -0.0293 N   0  0  0  0  0  0  0  0  0  0  0  0
   -0.6984    1.0914   -0.1598 C   0  0  0  0  0  0  0  0  0  0  0  0
    0.6652    1.2151   -0.1744 C   0  0  0  0  0  0  0  0  0  0  0  0
    1.3869    0.0181   -0.0648 C   0  0  0  0  0  0  0  0  0  0  0  0
    2.8829    0.1054   -0.0778 N   0  0  0  0  0  0  0  0  0  0  0  0
    3.3602    1.2241   -0.1893 O   0  0  0  0  0  0  0  0  0  0  0  0
    3.4838   -0.9541    0.0240 O   0  0  0  0  0  0  0  0  0  0  0  0
    0.8000   -1.2455    0.0543 C   0  0  0  0  0  0  0  0  0  0  0  0
   -0.5823   -1.3536    0.0675 C   0  0  0  0  0  0  0  0  0  0  0  0
   -2.1085    3.0029   -0.3357 H   0  0  0  0  0  0  0  0  0  0  0  0
    1.1899    2.1604   -0.2639 H   0  0  0  0  0  0  0  0  0  0  0  0
    1.4351   -2.1198    0.1342 H   0  0  0  0  0  0  0  0  0  0  0  0
   -1.0813   -2.3133    0.1581 H   0  0  0  0  0  0  0  0  0  0  0  0
  1  2  1  0  0  0  0
  1 11  2  0  0  0  0
  2  3  1  0  0  0  0
  4  1  1  0  0  0  0
  5  4  2  0  0  0  0
  5  6  1  0  0  0  0
  6 10  2  0  0  0  0
  7  6  1  0  0  0  0
  7  9  2  0  0  0  0
  8  7  2  0  0  0  0
 10 11  1  0  0  0  0
 10 14  1  0  0  0  0
 11 15  1  0  0  0  0
 13  5  1  0  0  0  0
M  RAD  4   2   2   3   3   4   2  12   2
M  END
