Coordinates from ORCA-job 4-NO2PhN2+_B3LYPG-6-31G_dp-d09-49-n800
 OpenBabel11261918563D

 15 15  0  0  0  0  0  0  0  0999 V2000
   -1.3604   -0.0739   -0.0503 C   0  0  0  0  0  0  0  0  0  0  0  0
   -2.7397   -0.1540   -0.0400 N   0  0  0  0  0  0  0  0  0  0  0  0
   -3.8519   -0.2183   -0.0318 N   0  0  0  0  0  0  0  0  0  0  0  0
   -0.7773    1.2043   -0.1705 C   0  0  0  0  0  0  0  0  0  0  0  0
    0.6086    1.2671   -0.1796 C   0  0  0  0  0  0  0  0  0  0  0  0
    1.3373    0.0814   -0.0710 C   0  0  0  0  0  0  0  0  0  0  0  0
    2.8284    0.1674   -0.0836 N   0  0  0  0  0  0  0  0  0  0  0  0
    3.3060    1.2872   -0.1950 O   0  0  0  0  0  0  0  0  0  0  0  0
    3.4330   -0.8903    0.0201 O   0  0  0  0  0  0  0  0  0  0  0  0
    0.7520   -1.1800    0.0480 C   0  0  0  0  0  0  0  0  0  0  0  0
   -0.6319   -1.2759    0.0600 C   0  0  0  0  0  0  0  0  0  0  0  0
   -1.3806    2.0845   -0.2512 H   0  0  0  0  0  0  0  0  0  0  0  0
    1.1332    2.2115   -0.2691 H   0  0  0  0  0  0  0  0  0  0  0  0
    1.3826   -2.0578    0.1284 H   0  0  0  0  0  0  0  0  0  0  0  0
   -1.1357   -2.2320    0.1503 H   0  0  0  0  0  0  0  0  0  0  0  0
  1  2  1  0  0  0  0
  1 11  2  0  0  0  0
  2  3  1  0  0  0  0
  4  1  1  0  0  0  0
  5  4  2  0  0  0  0
  5  6  1  0  0  0  0
  6 10  2  0  0  0  0
  7  6  1  0  0  0  0
  7  9  2  0  0  0  0
  8  7  2  0  0  0  0
 10 11  1  0  0  0  0
 10 14  1  0  0  0  0
 11 15  1  0  0  0  0
 12  4  1  0  0  0  0
 13  5  1  0  0  0  0
M  RAD  2   2   2   3   3
M  END
