Coordinates from ORCA-job 4-NO2PhN2+_B3LYPG-6-31G_dp-d09-49-n800
 OpenBabel11261918563D

 15 15  0  0  0  0  0  0  0  0999 V2000
   -1.3498   -0.1001   -0.0477 C   0  0  0  0  0  0  0  0  0  0  0  0
   -2.7273   -0.1721   -0.0387 N   0  0  0  0  0  0  0  0  0  0  0  0
   -3.8396   -0.2315   -0.0314 N   0  0  0  0  0  0  0  0  0  0  0  0
   -0.7518    1.1652   -0.1667 C   0  0  0  0  0  0  0  0  0  0  0  0
    0.6265    1.2517   -0.1780 C   0  0  0  0  0  0  0  0  0  0  0  0
    1.3522    0.0621   -0.0690 C   0  0  0  0  0  0  0  0  0  0  0  0
    2.8444    0.1476   -0.0816 N   0  0  0  0  0  0  0  0  0  0  0  0
    3.3222    1.2670   -0.1941 O   0  0  0  0  0  0  0  0  0  0  0  0
    3.4481   -0.9105    0.0214 O   0  0  0  0  0  0  0  0  0  0  0  0
    0.7668   -1.2005    0.0502 C   0  0  0  0  0  0  0  0  0  0  0  0
   -0.6163   -1.3014    0.0625 C   0  0  0  0  0  0  0  0  0  0  0  0
   -1.6041    2.3832   -0.2781 H   0  0  0  0  0  0  0  0  0  0  0  0
    1.1496    2.1964   -0.2675 H   0  0  0  0  0  0  0  0  0  0  0  0
    1.3997   -2.0766    0.1304 H   0  0  0  0  0  0  0  0  0  0  0  0
   -1.1175   -2.2592    0.1529 H   0  0  0  0  0  0  0  0  0  0  0  0
  1  2  1  0  0  0  0
  1 11  2  0  0  0  0
  2  3  1  0  0  0  0
  4  1  1  0  0  0  0
  5  4  2  0  0  0  0
  5  6  1  0  0  0  0
  6 10  2  0  0  0  0
  7  6  1  0  0  0  0
  7  9  2  0  0  0  0
  8  7  2  0  0  0  0
 10 11  1  0  0  0  0
 10 14  1  0  0  0  0
 11 15  1  0  0  0  0
 12  4  1  0  0  0  0
 13  5  1  0  0  0  0
M  RAD  2   2   2   3   3
M  END
