Coordinates from ORCA-job 4-NO2PhN2+_B3LYPG-6-31G_dp-d09-49-n800
 OpenBabel11261918563D

 15 15  0  0  0  0  0  0  0  0999 V2000
   -1.3531   -0.0919   -0.0485 C   0  0  0  0  0  0  0  0  0  0  0  0
   -2.7311   -0.1671   -0.0391 N   0  0  0  0  0  0  0  0  0  0  0  0
   -3.8433   -0.2286   -0.0315 N   0  0  0  0  0  0  0  0  0  0  0  0
   -0.7601    1.1778   -0.1679 C   0  0  0  0  0  0  0  0  0  0  0  0
    0.6209    1.2564   -0.1785 C   0  0  0  0  0  0  0  0  0  0  0  0
    1.3474    0.0681   -0.0697 C   0  0  0  0  0  0  0  0  0  0  0  0
    2.8393    0.1537   -0.0821 N   0  0  0  0  0  0  0  0  0  0  0  0
    3.3170    1.2732   -0.1947 O   0  0  0  0  0  0  0  0  0  0  0  0
    3.4433   -0.9043    0.0212 O   0  0  0  0  0  0  0  0  0  0  0  0
    0.7622   -1.1942    0.0495 C   0  0  0  0  0  0  0  0  0  0  0  0
   -0.6211   -1.2935    0.0617 C   0  0  0  0  0  0  0  0  0  0  0  0
   -1.5337    2.2924   -0.2697 H   0  0  0  0  0  0  0  0  0  0  0  0
    1.1446    2.2008   -0.2679 H   0  0  0  0  0  0  0  0  0  0  0  0
    1.3944   -2.0708    0.1299 H   0  0  0  0  0  0  0  0  0  0  0  0
   -1.1231   -2.2507    0.1521 H   0  0  0  0  0  0  0  0  0  0  0  0
  1  2  1  0  0  0  0
  1 11  2  0  0  0  0
  2  3  1  0  0  0  0
  4  1  1  0  0  0  0
  5  4  2  0  0  0  0
  5  6  1  0  0  0  0
  6 10  2  0  0  0  0
  7  6  1  0  0  0  0
  7  9  2  0  0  0  0
  8  7  2  0  0  0  0
 10 11  1  0  0  0  0
 10 14  1  0  0  0  0
 11 15  1  0  0  0  0
 12  4  1  0  0  0  0
 13  5  1  0  0  0  0
M  RAD  2   2   2   3   3
M  END
