Coordinates from ORCA-job 4-NO2PhN2+_B3LYPG-6-31G_dp-d09-49-n800
 OpenBabel11261918563D

 15 14  0  0  0  0  0  0  0  0999 V2000
   -1.2715   -0.3059   -0.0272 C   0  0  0  0  0  0  0  0  0  0  0  0
   -2.6542   -0.4013   -0.0157 N   0  0  0  0  0  0  0  0  0  0  0  0
   -3.7654   -0.4709   -0.0072 N   0  0  0  0  0  0  0  0  0  0  0  0
   -0.6988    0.9550   -0.1450 C   0  0  0  0  0  0  0  0  0  0  0  0
    0.6626    1.1112   -0.1630 C   0  0  0  0  0  0  0  0  0  0  0  0
    1.4189   -0.0650   -0.0571 C   0  0  0  0  0  0  0  0  0  0  0  0
    2.9148    0.0680   -0.0752 N   0  0  0  0  0  0  0  0  0  0  0  0
    3.3616    1.1990   -0.1825 O   0  0  0  0  0  0  0  0  0  0  0  0
    3.5456   -0.9750    0.0210 O   0  0  0  0  0  0  0  0  0  0  0  0
    0.8702   -1.3475    0.0630 C   0  0  0  0  0  0  0  0  0  0  0  0
   -0.5067   -1.4949    0.0805 C   0  0  0  0  0  0  0  0  0  0  0  0
   -2.6965    4.5524   -0.4863 H   0  0  0  0  0  0  0  0  0  0  0  0
    1.1730    2.0668   -0.2524 H   0  0  0  0  0  0  0  0  0  0  0  0
    1.5303   -2.2029    0.1398 H   0  0  0  0  0  0  0  0  0  0  0  0
   -0.9803   -2.4680    0.1718 H   0  0  0  0  0  0  0  0  0  0  0  0
  1  2  1  0  0  0  0
  1 11  2  0  0  0  0
  2  3  1  0  0  0  0
  4  1  1  0  0  0  0
  5  4  2  0  0  0  0
  5  6  1  0  0  0  0
  6 10  2  0  0  0  0
  7  6  1  0  0  0  0
  7  9  2  0  0  0  0
  8  7  2  0  0  0  0
 10 11  1  0  0  0  0
 10 14  1  0  0  0  0
 11 15  1  0  0  0  0
 13  5  1  0  0  0  0
M  RAD  4   2   2   3   3   4   2  12   2
M  END
