Coordinates from ORCA-job 4-NO2PhN2+_B3LYPG-6-31G_dp-d09-49-n800
 OpenBabel11261918563D

 15 14  0  0  0  0  0  0  0  0999 V2000
   -1.2715   -0.3126   -0.0274 C   0  0  0  0  0  0  0  0  0  0  0  0
   -2.6539   -0.4111   -0.0167 N   0  0  0  0  0  0  0  0  0  0  0  0
   -3.7651   -0.4822   -0.0044 N   0  0  0  0  0  0  0  0  0  0  0  0
   -0.7020    0.9505   -0.1446 C   0  0  0  0  0  0  0  0  0  0  0  0
    0.6597    1.1083   -0.1615 C   0  0  0  0  0  0  0  0  0  0  0  0
    1.4182   -0.0665   -0.0554 C   0  0  0  0  0  0  0  0  0  0  0  0
    2.9138    0.0695   -0.0723 N   0  0  0  0  0  0  0  0  0  0  0  0
    3.3585    1.2007   -0.1852 O   0  0  0  0  0  0  0  0  0  0  0  0
    3.5467   -0.9730    0.0175 O   0  0  0  0  0  0  0  0  0  0  0  0
    0.8721   -1.3500    0.0640 C   0  0  0  0  0  0  0  0  0  0  0  0
   -0.5044   -1.5001    0.0806 C   0  0  0  0  0  0  0  0  0  0  0  0
   -2.6950    4.6016   -0.4921 H   0  0  0  0  0  0  0  0  0  0  0  0
    1.1688    2.0646   -0.2503 H   0  0  0  0  0  0  0  0  0  0  0  0
    1.5338   -2.2042    0.1411 H   0  0  0  0  0  0  0  0  0  0  0  0
   -0.9761   -2.4743    0.1714 H   0  0  0  0  0  0  0  0  0  0  0  0
  1  2  1  0  0  0  0
  1 11  2  0  0  0  0
  2  3  1  0  0  0  0
  4  1  1  0  0  0  0
  5  4  2  0  0  0  0
  5  6  1  0  0  0  0
  6 10  2  0  0  0  0
  7  6  1  0  0  0  0
  7  9  2  0  0  0  0
  8  7  2  0  0  0  0
 10 11  1  0  0  0  0
 10 14  1  0  0  0  0
 11 15  1  0  0  0  0
 13  5  1  0  0  0  0
M  RAD  4   2   2   3   3   4   2  12   2
M  END
