Coordinates from ORCA-job 4-NO2PhN2+_B3LYPG-6-31G_dp-d09-49-n800
 OpenBabel11261918563D

 15 14  0  0  0  0  0  0  0  0999 V2000
   -1.2796   -0.4162   -0.0141 C   0  0  0  0  0  0  0  0  0  0  0  0
   -2.6593   -0.5605    0.0026 N   0  0  0  0  0  0  0  0  0  0  0  0
   -3.7677   -0.6656    0.0150 N   0  0  0  0  0  0  0  0  0  0  0  0
   -0.7580    0.8664   -0.1310 C   0  0  0  0  0  0  0  0  0  0  0  0
    0.5986    1.0679   -0.1537 C   0  0  0  0  0  0  0  0  0  0  0  0
    1.3975   -0.0799   -0.0547 C   0  0  0  0  0  0  0  0  0  0  0  0
    2.8875    0.1067   -0.0791 N   0  0  0  0  0  0  0  0  0  0  0  0
    3.2938    1.2535   -0.1812 O   0  0  0  0  0  0  0  0  0  0  0  0
    3.5565   -0.9136    0.0057 O   0  0  0  0  0  0  0  0  0  0  0  0
    0.8963   -1.3821    0.0641 C   0  0  0  0  0  0  0  0  0  0  0  0
   -0.4742   -1.5786    0.0871 C   0  0  0  0  0  0  0  0  0  0  0  0
   -2.5386    5.2644   -0.5671 H   0  0  0  0  0  0  0  0  0  0  0  0
    1.0763    2.0405   -0.2422 H   0  0  0  0  0  0  0  0  0  0  0  0
    1.5870   -2.2134    0.1354 H   0  0  0  0  0  0  0  0  0  0  0  0
   -0.9124   -2.5683    0.1777 H   0  0  0  0  0  0  0  0  0  0  0  0
  1  2  1  0  0  0  0
  1 11  2  0  0  0  0
  2  3  1  0  0  0  0
  4  1  1  0  0  0  0
  5  4  2  0  0  0  0
  5  6  1  0  0  0  0
  6 10  2  0  0  0  0
  7  6  1  0  0  0  0
  7  9  2  0  0  0  0
  8  7  2  0  0  0  0
 10 11  1  0  0  0  0
 10 14  1  0  0  0  0
 11 15  1  0  0  0  0
 13  5  1  0  0  0  0
M  RAD  4   2   2   3   3   4   2  12   2
M  END
