Coordinates from ORCA-job 4-NO2PhN2+_B3LYPG-6-31G_dp-d09-49-n800
 OpenBabel11261918563D

 15 15  0  0  0  0  0  0  0  0999 V2000
   -1.3522   -0.0941   -0.0481 C   0  0  0  0  0  0  0  0  0  0  0  0
   -2.7300   -0.1683   -0.0376 N   0  0  0  0  0  0  0  0  0  0  0  0
   -3.8423   -0.2293   -0.0291 N   0  0  0  0  0  0  0  0  0  0  0  0
   -0.7579    1.1744   -0.1680 C   0  0  0  0  0  0  0  0  0  0  0  0
    0.6224    1.2549   -0.1800 C   0  0  0  0  0  0  0  0  0  0  0  0
    1.3487    0.0662   -0.0718 C   0  0  0  0  0  0  0  0  0  0  0  0
    2.8406    0.1517   -0.0858 N   0  0  0  0  0  0  0  0  0  0  0  0
    3.3184    1.2720   -0.1894 O   0  0  0  0  0  0  0  0  0  0  0  0
    3.4446   -0.9054    0.0265 O   0  0  0  0  0  0  0  0  0  0  0  0
    0.7634   -1.1961    0.0480 C   0  0  0  0  0  0  0  0  0  0  0  0
   -0.6198   -1.2956    0.0615 C   0  0  0  0  0  0  0  0  0  0  0  0
   -1.5525    2.3171   -0.2718 H   0  0  0  0  0  0  0  0  0  0  0  0
    1.1459    2.1994   -0.2700 H   0  0  0  0  0  0  0  0  0  0  0  0
    1.3958   -2.0726    0.1278 H   0  0  0  0  0  0  0  0  0  0  0  0
   -1.1216   -2.2530    0.1524 H   0  0  0  0  0  0  0  0  0  0  0  0
  1  2  1  0  0  0  0
  1 11  2  0  0  0  0
  2  3  1  0  0  0  0
  4  1  1  0  0  0  0
  5  4  2  0  0  0  0
  5  6  1  0  0  0  0
  6 10  2  0  0  0  0
  7  6  1  0  0  0  0
  7  9  2  0  0  0  0
  8  7  2  0  0  0  0
 10 11  1  0  0  0  0
 10 14  1  0  0  0  0
 11 15  1  0  0  0  0
 12  4  1  0  0  0  0
 13  5  1  0  0  0  0
M  RAD  2   2   2   3   3
M  END
