Coordinates from ORCA-job 4-NO2PhN2+_B3LYPG-6-31G_dp-d09-49-n800
 OpenBabel11261918563D

 15 14  0  0  0  0  0  0  0  0999 V2000
   -1.2785   -0.2332   -0.0350 C   0  0  0  0  0  0  0  0  0  0  0  0
   -2.6608   -0.3025   -0.0262 N   0  0  0  0  0  0  0  0  0  0  0  0
   -3.7729   -0.3560   -0.0192 N   0  0  0  0  0  0  0  0  0  0  0  0
   -0.6752    1.0141   -0.1521 C   0  0  0  0  0  0  0  0  0  0  0  0
    0.6868    1.1494   -0.1678 C   0  0  0  0  0  0  0  0  0  0  0  0
    1.4201   -0.0416   -0.0593 C   0  0  0  0  0  0  0  0  0  0  0  0
    2.9181    0.0632   -0.0740 N   0  0  0  0  0  0  0  0  0  0  0  0
    3.3853    1.1854   -0.1845 O   0  0  0  0  0  0  0  0  0  0  0  0
    3.5285   -0.9914    0.0260 O   0  0  0  0  0  0  0  0  0  0  0  0
    0.8464   -1.3125    0.0603 C   0  0  0  0  0  0  0  0  0  0  0  0
   -0.5335   -1.4343    0.0749 C   0  0  0  0  0  0  0  0  0  0  0  0
   -2.6381    3.9633   -0.4266 H   0  0  0  0  0  0  0  0  0  0  0  0
    1.2124    2.0964   -0.2571 H   0  0  0  0  0  0  0  0  0  0  0  0
    1.4900   -2.1804    0.1393 H   0  0  0  0  0  0  0  0  0  0  0  0
   -1.0250   -2.3985    0.1659 H   0  0  0  0  0  0  0  0  0  0  0  0
  1  2  1  0  0  0  0
  1 11  2  0  0  0  0
  2  3  1  0  0  0  0
  4  1  1  0  0  0  0
  5  4  2  0  0  0  0
  5  6  1  0  0  0  0
  6 10  2  0  0  0  0
  7  6  1  0  0  0  0
  7  9  2  0  0  0  0
  8  7  2  0  0  0  0
 10 11  1  0  0  0  0
 10 14  1  0  0  0  0
 11 15  1  0  0  0  0
 13  5  1  0  0  0  0
M  RAD  4   2   2   3   3   4   2  12   2
M  END
