Coordinates from ORCA-job 4-NO2PhN2+_B3LYPG-6-31G_dp-d09-49-n800
 OpenBabel11261918563D

 15 14  0  0  0  0  0  0  0  0999 V2000
   -1.2823   -0.2191   -0.0363 C   0  0  0  0  0  0  0  0  0  0  0  0
   -2.6642   -0.2840   -0.0278 N   0  0  0  0  0  0  0  0  0  0  0  0
   -3.7763   -0.3350   -0.0211 N   0  0  0  0  0  0  0  0  0  0  0  0
   -0.6733    1.0257   -0.1531 C   0  0  0  0  0  0  0  0  0  0  0  0
    0.6884    1.1586   -0.1686 C   0  0  0  0  0  0  0  0  0  0  0  0
    1.4181   -0.0347   -0.0599 C   0  0  0  0  0  0  0  0  0  0  0  0
    2.9162    0.0656   -0.0743 N   0  0  0  0  0  0  0  0  0  0  0  0
    3.3865    1.1865   -0.1849 O   0  0  0  0  0  0  0  0  0  0  0  0
    3.5235   -0.9907    0.0262 O   0  0  0  0  0  0  0  0  0  0  0  0
    0.8405   -1.3037    0.0595 C   0  0  0  0  0  0  0  0  0  0  0  0
   -0.5400   -1.4216    0.0737 C   0  0  0  0  0  0  0  0  0  0  0  0
   -2.5967    3.8271   -0.4139 H   0  0  0  0  0  0  0  0  0  0  0  0
    1.2156    2.1045   -0.2578 H   0  0  0  0  0  0  0  0  0  0  0  0
    1.4815   -2.1735    0.1386 H   0  0  0  0  0  0  0  0  0  0  0  0
   -1.0340   -2.3845    0.1645 H   0  0  0  0  0  0  0  0  0  0  0  0
  1  2  1  0  0  0  0
  1 11  2  0  0  0  0
  2  3  1  0  0  0  0
  4  1  1  0  0  0  0
  5  4  2  0  0  0  0
  5  6  1  0  0  0  0
  6 10  2  0  0  0  0
  7  6  1  0  0  0  0
  7  9  2  0  0  0  0
  8  7  2  0  0  0  0
 10 11  1  0  0  0  0
 10 14  1  0  0  0  0
 11 15  1  0  0  0  0
 13  5  1  0  0  0  0
M  RAD  4   2   2   3   3   4   2  12   2
M  END
