Coordinates from ORCA-job 4-NO2PhN2+_B3LYPG-6-31G_dp-d09-49-n800
 OpenBabel11261918563D

 15 14  0  0  0  0  0  0  0  0999 V2000
   -1.2714   -0.3147   -0.0264 C   0  0  0  0  0  0  0  0  0  0  0  0
   -2.6540   -0.4136   -0.0146 N   0  0  0  0  0  0  0  0  0  0  0  0
   -3.7651   -0.4855   -0.0060 N   0  0  0  0  0  0  0  0  0  0  0  0
   -0.7025    0.9478   -0.1442 C   0  0  0  0  0  0  0  0  0  0  0  0
    0.6585    1.1071   -0.1623 C   0  0  0  0  0  0  0  0  0  0  0  0
    1.4180   -0.0671   -0.0566 C   0  0  0  0  0  0  0  0  0  0  0  0
    2.9135    0.0699   -0.0750 N   0  0  0  0  0  0  0  0  0  0  0  0
    3.3574    1.2019   -0.1830 O   0  0  0  0  0  0  0  0  0  0  0  0
    3.5472   -0.9716    0.0198 O   0  0  0  0  0  0  0  0  0  0  0  0
    0.8727   -1.3510    0.0635 C   0  0  0  0  0  0  0  0  0  0  0  0
   -0.5038   -1.5019    0.0812 C   0  0  0  0  0  0  0  0  0  0  0  0
   -2.6937    4.6169   -0.4927 H   0  0  0  0  0  0  0  0  0  0  0  0
    1.1667    2.0639   -0.2517 H   0  0  0  0  0  0  0  0  0  0  0  0
    1.5350   -2.2048    0.1402 H   0  0  0  0  0  0  0  0  0  0  0  0
   -0.9750   -2.4762    0.1726 H   0  0  0  0  0  0  0  0  0  0  0  0
  1  2  1  0  0  0  0
  1 11  2  0  0  0  0
  2  3  1  0  0  0  0
  4  1  1  0  0  0  0
  5  4  2  0  0  0  0
  5  6  1  0  0  0  0
  6 10  2  0  0  0  0
  7  6  1  0  0  0  0
  7  9  2  0  0  0  0
  8  7  2  0  0  0  0
 10 11  1  0  0  0  0
 10 14  1  0  0  0  0
 11 15  1  0  0  0  0
 13  5  1  0  0  0  0
M  RAD  4   2   2   3   3   4   2  12   2
M  END
