Coordinates from ORCA-job 4-NO2PhN2+_B3LYPG-6-31G_dp-d09-49-n800
 OpenBabel11261918563D

 15 14  0  0  0  0  0  0  0  0999 V2000
   -1.3451   -0.1108   -0.0467 C   0  0  0  0  0  0  0  0  0  0  0  0
   -2.7221   -0.1784   -0.0382 N   0  0  0  0  0  0  0  0  0  0  0  0
   -3.8344   -0.2347   -0.0312 N   0  0  0  0  0  0  0  0  0  0  0  0
   -0.7403    1.1484   -0.1651 C   0  0  0  0  0  0  0  0  0  0  0  0
    0.6343    1.2453   -0.1773 C   0  0  0  0  0  0  0  0  0  0  0  0
    1.3588    0.0539   -0.0682 C   0  0  0  0  0  0  0  0  0  0  0  0
    2.8516    0.1395   -0.0809 N   0  0  0  0  0  0  0  0  0  0  0  0
    3.3293    1.2587   -0.1931 O   0  0  0  0  0  0  0  0  0  0  0  0
    3.4548   -0.9190    0.0218 O   0  0  0  0  0  0  0  0  0  0  0  0
    0.7731   -1.2091    0.0510 C   0  0  0  0  0  0  0  0  0  0  0  0
   -0.6097   -1.3120    0.0636 C   0  0  0  0  0  0  0  0  0  0  0  0
   -1.7007    2.5040   -0.2891 H   0  0  0  0  0  0  0  0  0  0  0  0
    1.1568    2.1904   -0.2670 H   0  0  0  0  0  0  0  0  0  0  0  0
    1.4068   -2.0845    0.1312 H   0  0  0  0  0  0  0  0  0  0  0  0
   -1.1100   -2.2705    0.1540 H   0  0  0  0  0  0  0  0  0  0  0  0
  1  2  1  0  0  0  0
  1 11  2  0  0  0  0
  2  3  1  0  0  0  0
  4  1  1  0  0  0  0
  5  4  2  0  0  0  0
  5  6  1  0  0  0  0
  6 10  2  0  0  0  0
  7  6  1  0  0  0  0
  7  9  2  0  0  0  0
  8  7  2  0  0  0  0
 10 11  1  0  0  0  0
 10 14  1  0  0  0  0
 11 15  1  0  0  0  0
 13  5  1  0  0  0  0
M  RAD  4   2   2   3   3   4   2  12   2
M  END
