Coordinates from ORCA-job 4-NO2PhN2+_B3LYPG-6-31G_dp-d09-49-n800
 OpenBabel11261918563D

 15 14  0  0  0  0  0  0  0  0999 V2000
   -1.2763   -0.3968   -0.0173 C   0  0  0  0  0  0  0  0  0  0  0  0
   -2.6570   -0.5307   -0.0022 N   0  0  0  0  0  0  0  0  0  0  0  0
   -3.7661   -0.6276    0.0101 N   0  0  0  0  0  0  0  0  0  0  0  0
   -0.7443    0.8815   -0.1352 C   0  0  0  0  0  0  0  0  0  0  0  0
    0.6135    1.0740   -0.1566 C   0  0  0  0  0  0  0  0  0  0  0  0
    1.4037   -0.0797   -0.0550 C   0  0  0  0  0  0  0  0  0  0  0  0
    2.8950    0.0957   -0.0777 N   0  0  0  0  0  0  0  0  0  0  0  0
    3.3099    1.2393   -0.1819 O   0  0  0  0  0  0  0  0  0  0  0  0
    3.5562   -0.9294    0.0100 O   0  0  0  0  0  0  0  0  0  0  0  0
    0.8926   -1.3781    0.0649 C   0  0  0  0  0  0  0  0  0  0  0  0
   -0.4792   -1.5648    0.0866 C   0  0  0  0  0  0  0  0  0  0  0  0
   -2.5944    5.1598   -0.5515 H   0  0  0  0  0  0  0  0  0  0  0  0
    1.0974    2.0433   -0.2458 H   0  0  0  0  0  0  0  0  0  0  0  0
    1.5772   -2.2142    0.1383 H   0  0  0  0  0  0  0  0  0  0  0  0
   -0.9246   -2.5512    0.1779 H   0  0  0  0  0  0  0  0  0  0  0  0
  1  2  1  0  0  0  0
  1 11  2  0  0  0  0
  2  3  1  0  0  0  0
  4  1  1  0  0  0  0
  5  4  2  0  0  0  0
  5  6  1  0  0  0  0
  6 10  2  0  0  0  0
  7  6  1  0  0  0  0
  7  9  2  0  0  0  0
  8  7  2  0  0  0  0
 10 11  1  0  0  0  0
 10 14  1  0  0  0  0
 11 15  1  0  0  0  0
 13  5  1  0  0  0  0
M  RAD  4   2   2   3   3   4   2  12   2
M  END
