Coordinates from ORCA-job 4-NO2PhN2+_B3LYPG-6-31G_dp-d09-49-n800
 OpenBabel11261918563D

 15 14  0  0  0  0  0  0  0  0999 V2000
   -1.2805   -0.2257   -0.0356 C   0  0  0  0  0  0  0  0  0  0  0  0
   -2.6626   -0.2925   -0.0271 N   0  0  0  0  0  0  0  0  0  0  0  0
   -3.7747   -0.3446   -0.0203 N   0  0  0  0  0  0  0  0  0  0  0  0
   -0.6738    1.0199   -0.1526 C   0  0  0  0  0  0  0  0  0  0  0  0
    0.6878    1.1543   -0.1682 C   0  0  0  0  0  0  0  0  0  0  0  0
    1.4192   -0.0380   -0.0596 C   0  0  0  0  0  0  0  0  0  0  0  0
    2.9173    0.0642   -0.0742 N   0  0  0  0  0  0  0  0  0  0  0  0
    3.3862    1.1858   -0.1847 O   0  0  0  0  0  0  0  0  0  0  0  0
    3.5259   -0.9913    0.0261 O   0  0  0  0  0  0  0  0  0  0  0  0
    0.8433   -1.3079    0.0599 C   0  0  0  0  0  0  0  0  0  0  0  0
   -0.5369   -1.4276    0.0743 C   0  0  0  0  0  0  0  0  0  0  0  0
   -2.6178    3.8918   -0.4200 H   0  0  0  0  0  0  0  0  0  0  0  0
    1.2143    2.1008   -0.2574 H   0  0  0  0  0  0  0  0  0  0  0  0
    1.4855   -2.1768    0.1389 H   0  0  0  0  0  0  0  0  0  0  0  0
   -1.0297   -2.3911    0.1652 H   0  0  0  0  0  0  0  0  0  0  0  0
  1  2  1  0  0  0  0
  1 11  2  0  0  0  0
  2  3  1  0  0  0  0
  4  1  1  0  0  0  0
  5  4  2  0  0  0  0
  5  6  1  0  0  0  0
  6 10  2  0  0  0  0
  7  6  1  0  0  0  0
  7  9  2  0  0  0  0
  8  7  2  0  0  0  0
 10 11  1  0  0  0  0
 10 14  1  0  0  0  0
 11 15  1  0  0  0  0
 13  5  1  0  0  0  0
M  RAD  4   2   2   3   3   4   2  12   2
M  END
