Coordinates from ORCA-job 4-NO2PhN2+_B3LYPG-6-31G_dp-d09-49-n800
 OpenBabel11261918563D

 15 14  0  0  0  0  0  0  0  0999 V2000
   -1.3030   -0.1743   -0.0407 C   0  0  0  0  0  0  0  0  0  0  0  0
   -2.6826   -0.2286   -0.0333 N   0  0  0  0  0  0  0  0  0  0  0  0
   -3.7949   -0.2737   -0.0269 N   0  0  0  0  0  0  0  0  0  0  0  0
   -0.6803    1.0651   -0.1571 C   0  0  0  0  0  0  0  0  0  0  0  0
    0.6811    1.1935   -0.1722 C   0  0  0  0  0  0  0  0  0  0  0  0
    1.4031   -0.0044   -0.0628 C   0  0  0  0  0  0  0  0  0  0  0  0
    2.9006    0.0851   -0.0760 N   0  0  0  0  0  0  0  0  0  0  0  0
    3.3773    1.2036   -0.1871 O   0  0  0  0  0  0  0  0  0  0  0  0
    3.5012   -0.9746    0.0259 O   0  0  0  0  0  0  0  0  0  0  0  0
    0.8167   -1.2689    0.0563 C   0  0  0  0  0  0  0  0  0  0  0  0
   -0.5651   -1.3785    0.0696 C   0  0  0  0  0  0  0  0  0  0  0  0
   -2.3478    3.3202   -0.3658 H   0  0  0  0  0  0  0  0  0  0  0  0
    1.2090    2.1381   -0.2615 H   0  0  0  0  0  0  0  0  0  0  0  0
    1.4524   -2.1427    0.1360 H   0  0  0  0  0  0  0  0  0  0  0  0
   -1.0641   -2.3387    0.1602 H   0  0  0  0  0  0  0  0  0  0  0  0
  1  2  1  0  0  0  0
  1 11  2  0  0  0  0
  2  3  1  0  0  0  0
  4  1  1  0  0  0  0
  5  4  2  0  0  0  0
  5  6  1  0  0  0  0
  6 10  2  0  0  0  0
  7  6  1  0  0  0  0
  7  9  2  0  0  0  0
  8  7  2  0  0  0  0
 10 11  1  0  0  0  0
 10 14  1  0  0  0  0
 11 15  1  0  0  0  0
 13  5  1  0  0  0  0
M  RAD  4   2   2   3   3   4   2  12   2
M  END
