Coordinates from ORCA-job 4-NO2PhN2+_B3LYPG-6-31G_dp-d09-49-n800
 OpenBabel11261918563D

 15 15  0  0  0  0  0  0  0  0999 V2000
   -1.3543   -0.0891   -0.0488 C   0  0  0  0  0  0  0  0  0  0  0  0
   -2.7324   -0.1652   -0.0393 N   0  0  0  0  0  0  0  0  0  0  0  0
   -3.8446   -0.2274   -0.0316 N   0  0  0  0  0  0  0  0  0  0  0  0
   -0.7630    1.1821   -0.1683 C   0  0  0  0  0  0  0  0  0  0  0  0
    0.6190    1.2580   -0.1787 C   0  0  0  0  0  0  0  0  0  0  0  0
    1.3458    0.0701   -0.0699 C   0  0  0  0  0  0  0  0  0  0  0  0
    2.8375    0.1558   -0.0823 N   0  0  0  0  0  0  0  0  0  0  0  0
    3.3153    1.2753   -0.1949 O   0  0  0  0  0  0  0  0  0  0  0  0
    3.4417   -0.9021    0.0210 O   0  0  0  0  0  0  0  0  0  0  0  0
    0.7606   -1.1921    0.0493 C   0  0  0  0  0  0  0  0  0  0  0  0
   -0.6228   -1.2907    0.0614 C   0  0  0  0  0  0  0  0  0  0  0  0
   -1.5097    2.2607   -0.2668 H   0  0  0  0  0  0  0  0  0  0  0  0
    1.1429    2.2024   -0.2681 H   0  0  0  0  0  0  0  0  0  0  0  0
    1.3925   -2.0688    0.1297 H   0  0  0  0  0  0  0  0  0  0  0  0
   -1.1251   -2.2478    0.1518 H   0  0  0  0  0  0  0  0  0  0  0  0
  1  2  1  0  0  0  0
  1 11  2  0  0  0  0
  2  3  1  0  0  0  0
  4  1  1  0  0  0  0
  5  4  2  0  0  0  0
  5  6  1  0  0  0  0
  6 10  2  0  0  0  0
  7  6  1  0  0  0  0
  7  9  2  0  0  0  0
  8  7  2  0  0  0  0
 10 11  1  0  0  0  0
 10 14  1  0  0  0  0
 11 15  1  0  0  0  0
 12  4  1  0  0  0  0
 13  5  1  0  0  0  0
M  RAD  2   2   2   3   3
M  END
