Coordinates from ORCA-job 4-NO2PhN2+_B3LYPG-6-31G_dp-d09-49-n800
 OpenBabel11261918563D

 15 14  0  0  0  0  0  0  0  0999 V2000
   -1.3033   -0.1742   -0.0406 C   0  0  0  0  0  0  0  0  0  0  0  0
   -2.6828   -0.2287   -0.0332 N   0  0  0  0  0  0  0  0  0  0  0  0
   -3.7951   -0.2737   -0.0271 N   0  0  0  0  0  0  0  0  0  0  0  0
   -0.6807    1.0655   -0.1571 C   0  0  0  0  0  0  0  0  0  0  0  0
    0.6808    1.1937   -0.1722 C   0  0  0  0  0  0  0  0  0  0  0  0
    1.4028   -0.0042   -0.0628 C   0  0  0  0  0  0  0  0  0  0  0  0
    2.9002    0.0855   -0.0760 N   0  0  0  0  0  0  0  0  0  0  0  0
    3.3769    1.2039   -0.1872 O   0  0  0  0  0  0  0  0  0  0  0  0
    3.5010   -0.9742    0.0258 O   0  0  0  0  0  0  0  0  0  0  0  0
    0.8165   -1.2687    0.0563 C   0  0  0  0  0  0  0  0  0  0  0  0
   -0.5653   -1.3784    0.0697 C   0  0  0  0  0  0  0  0  0  0  0  0
   -2.3441    3.3173   -0.3655 H   0  0  0  0  0  0  0  0  0  0  0  0
    1.2086    2.1383   -0.2615 H   0  0  0  0  0  0  0  0  0  0  0  0
    1.4522   -2.1424    0.1360 H   0  0  0  0  0  0  0  0  0  0  0  0
   -1.0642   -2.3385    0.1602 H   0  0  0  0  0  0  0  0  0  0  0  0
  1  2  1  0  0  0  0
  1 11  2  0  0  0  0
  2  3  1  0  0  0  0
  4  1  1  0  0  0  0
  5  4  2  0  0  0  0
  5  6  1  0  0  0  0
  6 10  2  0  0  0  0
  7  6  1  0  0  0  0
  7  9  2  0  0  0  0
  8  7  2  0  0  0  0
 10 11  1  0  0  0  0
 10 14  1  0  0  0  0
 11 15  1  0  0  0  0
 13  5  1  0  0  0  0
M  RAD  4   2   2   3   3   4   2  12   2
M  END
