Coordinates from ORCA-job 4-NO2PhN2+_B3LYPG-6-31G_dp-d09-49-n800
 OpenBabel11261918563D

 15 14  0  0  0  0  0  0  0  0999 V2000
   -1.2740   -0.3652   -0.0212 C   0  0  0  0  0  0  0  0  0  0  0  0
   -2.6555   -0.4857   -0.0075 N   0  0  0  0  0  0  0  0  0  0  0  0
   -3.7654   -0.5731    0.0026 N   0  0  0  0  0  0  0  0  0  0  0  0
   -0.7280    0.9072   -0.1399 C   0  0  0  0  0  0  0  0  0  0  0  0
    0.6314    1.0861   -0.1600 C   0  0  0  0  0  0  0  0  0  0  0  0
    1.4097   -0.0755   -0.0558 C   0  0  0  0  0  0  0  0  0  0  0  0
    2.9028    0.0850   -0.0766 N   0  0  0  0  0  0  0  0  0  0  0  0
    3.3290    1.2241   -0.1829 O   0  0  0  0  0  0  0  0  0  0  0  0
    3.5533   -0.9465    0.0149 O   0  0  0  0  0  0  0  0  0  0  0  0
    0.8853   -1.3683    0.0651 C   0  0  0  0  0  0  0  0  0  0  0  0
   -0.4885   -1.5408    0.0850 C   0  0  0  0  0  0  0  0  0  0  0  0
   -2.6386    4.9570   -0.5265 H   0  0  0  0  0  0  0  0  0  0  0  0
    1.1251    2.0505   -0.2500 H   0  0  0  0  0  0  0  0  0  0  0  0
    1.5611   -2.2113    0.1405 H   0  0  0  0  0  0  0  0  0  0  0  0
   -0.9442   -2.5224    0.1770 H   0  0  0  0  0  0  0  0  0  0  0  0
  1  2  1  0  0  0  0
  1 11  2  0  0  0  0
  2  3  1  0  0  0  0
  4  1  1  0  0  0  0
  5  4  2  0  0  0  0
  5  6  1  0  0  0  0
  6 10  2  0  0  0  0
  7  6  1  0  0  0  0
  7  9  2  0  0  0  0
  8  7  2  0  0  0  0
 10 11  1  0  0  0  0
 10 14  1  0  0  0  0
 11 15  1  0  0  0  0
 13  5  1  0  0  0  0
M  RAD  4   2   2   3   3   4   2  12   2
M  END
