Coordinates from ORCA-job 4-NO2PhN2+_B3LYPG-6-31G_dp-d09-49-n800
 OpenBabel11261918563D

 15 14  0  0  0  0  0  0  0  0999 V2000
   -1.3423   -0.1165   -0.0463 C   0  0  0  0  0  0  0  0  0  0  0  0
   -2.7192   -0.1819   -0.0388 N   0  0  0  0  0  0  0  0  0  0  0  0
   -3.8315   -0.2367   -0.0325 N   0  0  0  0  0  0  0  0  0  0  0  0
   -0.7342    1.1398   -0.1641 C   0  0  0  0  0  0  0  0  0  0  0  0
    0.6385    1.2417   -0.1760 C   0  0  0  0  0  0  0  0  0  0  0  0
    1.3625    0.0494   -0.0664 C   0  0  0  0  0  0  0  0  0  0  0  0
    2.8557    0.1352   -0.0782 N   0  0  0  0  0  0  0  0  0  0  0  0
    3.3334    1.2539   -0.1957 O   0  0  0  0  0  0  0  0  0  0  0  0
    3.4586   -0.9239    0.0190 O   0  0  0  0  0  0  0  0  0  0  0  0
    0.7766   -1.2137    0.0524 C   0  0  0  0  0  0  0  0  0  0  0  0
   -0.6062   -1.3177    0.0644 C   0  0  0  0  0  0  0  0  0  0  0  0
   -1.7539    2.5696   -0.2953 H   0  0  0  0  0  0  0  0  0  0  0  0
    1.1608    2.1871   -0.2653 H   0  0  0  0  0  0  0  0  0  0  0  0
    1.4106   -2.0888    0.1329 H   0  0  0  0  0  0  0  0  0  0  0  0
   -1.1060   -2.2764    0.1546 H   0  0  0  0  0  0  0  0  0  0  0  0
  1  2  1  0  0  0  0
  1 11  2  0  0  0  0
  2  3  1  0  0  0  0
  4  1  1  0  0  0  0
  5  4  2  0  0  0  0
  5  6  1  0  0  0  0
  6 10  2  0  0  0  0
  7  6  1  0  0  0  0
  7  9  2  0  0  0  0
  8  7  2  0  0  0  0
 10 11  1  0  0  0  0
 10 14  1  0  0  0  0
 11 15  1  0  0  0  0
 13  5  1  0  0  0  0
M  RAD  4   2   2   3   3   4   2  12   2
M  END
