Coordinates from ORCA-job 4-NO2PhN2+_B3LYPG-6-31G_dp-d09-49-n800
 OpenBabel11261918563D

 15 15  0  0  0  0  0  0  0  0999 V2000
   -1.3548   -0.0878   -0.0490 C   0  0  0  0  0  0  0  0  0  0  0  0
   -2.7330   -0.1644   -0.0393 N   0  0  0  0  0  0  0  0  0  0  0  0
   -3.8452   -0.2268   -0.0316 N   0  0  0  0  0  0  0  0  0  0  0  0
   -0.7642    1.1840   -0.1685 C   0  0  0  0  0  0  0  0  0  0  0  0
    0.6181    1.2587   -0.1788 C   0  0  0  0  0  0  0  0  0  0  0  0
    1.3451    0.0710   -0.0700 C   0  0  0  0  0  0  0  0  0  0  0  0
    2.8367    0.1567   -0.0824 N   0  0  0  0  0  0  0  0  0  0  0  0
    3.3145    1.2763   -0.1950 O   0  0  0  0  0  0  0  0  0  0  0  0
    3.4409   -0.9012    0.0211 O   0  0  0  0  0  0  0  0  0  0  0  0
    0.7599   -1.1911    0.0492 C   0  0  0  0  0  0  0  0  0  0  0  0
   -0.6235   -1.2895    0.0613 C   0  0  0  0  0  0  0  0  0  0  0  0
   -1.4990    2.2466   -0.2655 H   0  0  0  0  0  0  0  0  0  0  0  0
    1.1421    2.2030   -0.2681 H   0  0  0  0  0  0  0  0  0  0  0  0
    1.3917   -2.0679    0.1296 H   0  0  0  0  0  0  0  0  0  0  0  0
   -1.1260   -2.2465    0.1516 H   0  0  0  0  0  0  0  0  0  0  0  0
  1  2  1  0  0  0  0
  1 11  2  0  0  0  0
  2  3  1  0  0  0  0
  4  1  1  0  0  0  0
  5  4  2  0  0  0  0
  5  6  1  0  0  0  0
  6 10  2  0  0  0  0
  7  6  1  0  0  0  0
  7  9  2  0  0  0  0
  8  7  2  0  0  0  0
 10 11  1  0  0  0  0
 10 14  1  0  0  0  0
 11 15  1  0  0  0  0
 12  4  1  0  0  0  0
 13  5  1  0  0  0  0
M  RAD  2   2   2   3   3
M  END
