Coordinates from ORCA-job 4-NO2PhN2+_B3LYPG-6-31G_dp-d09-49-n800
 OpenBabel11261918563D

 15 14  0  0  0  0  0  0  0  0999 V2000
   -1.3370   -0.1263   -0.0453 C   0  0  0  0  0  0  0  0  0  0  0  0
   -2.7139   -0.1878   -0.0374 N   0  0  0  0  0  0  0  0  0  0  0  0
   -3.8262   -0.2398   -0.0308 N   0  0  0  0  0  0  0  0  0  0  0  0
   -0.7234    1.1249   -0.1630 C   0  0  0  0  0  0  0  0  0  0  0  0
    0.6460    1.2349   -0.1764 C   0  0  0  0  0  0  0  0  0  0  0  0
    1.3692    0.0410   -0.0669 C   0  0  0  0  0  0  0  0  0  0  0  0
    2.8631    0.1270   -0.0798 N   0  0  0  0  0  0  0  0  0  0  0  0
    3.3407    1.2460   -0.1918 O   0  0  0  0  0  0  0  0  0  0  0  0
    3.4654   -0.9319    0.0226 O   0  0  0  0  0  0  0  0  0  0  0  0
    0.7829   -1.2222    0.0523 C   0  0  0  0  0  0  0  0  0  0  0  0
   -0.5997   -1.3277    0.0651 C   0  0  0  0  0  0  0  0  0  0  0  0
   -1.8505    2.6867   -0.3057 H   0  0  0  0  0  0  0  0  0  0  0  0
    1.1684    2.1804   -0.2661 H   0  0  0  0  0  0  0  0  0  0  0  0
    1.4174   -2.0970    0.1324 H   0  0  0  0  0  0  0  0  0  0  0  0
   -1.0991   -2.2869    0.1556 H   0  0  0  0  0  0  0  0  0  0  0  0
  1  2  1  0  0  0  0
  1 11  2  0  0  0  0
  2  3  1  0  0  0  0
  4  1  1  0  0  0  0
  5  4  2  0  0  0  0
  5  6  1  0  0  0  0
  6 10  2  0  0  0  0
  7  6  1  0  0  0  0
  7  9  2  0  0  0  0
  8  7  2  0  0  0  0
 10 11  1  0  0  0  0
 10 14  1  0  0  0  0
 11 15  1  0  0  0  0
 13  5  1  0  0  0  0
M  RAD  4   2   2   3   3   4   2  12   2
M  END
