Coordinates from ORCA-job 4-NO2PhN2+_B3LYPG-6-31G_dp-d09-49-n800
 OpenBabel11261918563D

 15 14  0  0  0  0  0  0  0  0999 V2000
   -1.2772   -0.2396   -0.0344 C   0  0  0  0  0  0  0  0  0  0  0  0
   -2.6597   -0.3108   -0.0251 N   0  0  0  0  0  0  0  0  0  0  0  0
   -3.7717   -0.3655   -0.0181 N   0  0  0  0  0  0  0  0  0  0  0  0
   -0.6762    1.0085   -0.1516 C   0  0  0  0  0  0  0  0  0  0  0  0
    0.6856    1.1456   -0.1674 C   0  0  0  0  0  0  0  0  0  0  0  0
    1.4207   -0.0443   -0.0591 C   0  0  0  0  0  0  0  0  0  0  0  0
    2.9185    0.0626   -0.0740 N   0  0  0  0  0  0  0  0  0  0  0  0
    3.3842    1.1855   -0.1842 O   0  0  0  0  0  0  0  0  0  0  0  0
    3.5305   -0.9911    0.0258 O   0  0  0  0  0  0  0  0  0  0  0  0
    0.8488   -1.3162    0.0606 C   0  0  0  0  0  0  0  0  0  0  0  0
   -0.5309   -1.4399    0.0754 C   0  0  0  0  0  0  0  0  0  0  0  0
   -2.6518    4.0210   -0.4323 H   0  0  0  0  0  0  0  0  0  0  0  0
    1.2101    2.0932   -0.2567 H   0  0  0  0  0  0  0  0  0  0  0  0
    1.4937   -2.1831    0.1394 H   0  0  0  0  0  0  0  0  0  0  0  0
   -1.0210   -2.4048    0.1664 H   0  0  0  0  0  0  0  0  0  0  0  0
  1  2  1  0  0  0  0
  1 11  2  0  0  0  0
  2  3  1  0  0  0  0
  4  1  1  0  0  0  0
  5  4  2  0  0  0  0
  5  6  1  0  0  0  0
  6 10  2  0  0  0  0
  7  6  1  0  0  0  0
  7  9  2  0  0  0  0
  8  7  2  0  0  0  0
 10 11  1  0  0  0  0
 10 14  1  0  0  0  0
 11 15  1  0  0  0  0
 13  5  1  0  0  0  0
M  RAD  4   2   2   3   3   4   2  12   2
M  END
