Coordinates from ORCA-job 4-NO2PhN2+_B3LYPG-6-31G_dp-d09-49-n800
 OpenBabel11261918563D

 15 14  0  0  0  0  0  0  0  0999 V2000
   -1.3407   -0.1194   -0.0461 C   0  0  0  0  0  0  0  0  0  0  0  0
   -2.7177   -0.1837   -0.0389 N   0  0  0  0  0  0  0  0  0  0  0  0
   -3.8300   -0.2377   -0.0329 N   0  0  0  0  0  0  0  0  0  0  0  0
   -0.7310    1.1353   -0.1636 C   0  0  0  0  0  0  0  0  0  0  0  0
    0.6407    1.2398   -0.1755 C   0  0  0  0  0  0  0  0  0  0  0  0
    1.3645    0.0470   -0.0657 C   0  0  0  0  0  0  0  0  0  0  0  0
    2.8579    0.1329   -0.0773 N   0  0  0  0  0  0  0  0  0  0  0  0
    3.3355    1.2514   -0.1965 O   0  0  0  0  0  0  0  0  0  0  0  0
    3.4606   -0.9264    0.0182 O   0  0  0  0  0  0  0  0  0  0  0  0
    0.7785   -1.2161    0.0530 C   0  0  0  0  0  0  0  0  0  0  0  0
   -0.6043   -1.3206    0.0647 C   0  0  0  0  0  0  0  0  0  0  0  0
   -1.7822    2.6040   -0.2984 H   0  0  0  0  0  0  0  0  0  0  0  0
    1.1630    2.1852   -0.2647 H   0  0  0  0  0  0  0  0  0  0  0  0
    1.4127   -2.0911    0.1335 H   0  0  0  0  0  0  0  0  0  0  0  0
   -1.1040   -2.2795    0.1548 H   0  0  0  0  0  0  0  0  0  0  0  0
  1  2  1  0  0  0  0
  1 11  2  0  0  0  0
  2  3  1  0  0  0  0
  4  1  1  0  0  0  0
  5  4  2  0  0  0  0
  5  6  1  0  0  0  0
  6 10  2  0  0  0  0
  7  6  1  0  0  0  0
  7  9  2  0  0  0  0
  8  7  2  0  0  0  0
 10 11  1  0  0  0  0
 10 14  1  0  0  0  0
 11 15  1  0  0  0  0
 13  5  1  0  0  0  0
M  RAD  4   2   2   3   3   4   2  12   2
M  END
