Coordinates from ORCA-job 4-NO2PhN2+_B3LYPG-6-31G_dp-d09-49-n800
 OpenBabel11261918563D

 15 15  0  0  0  0  0  0  0  0999 V2000
   -1.3499   -0.0998   -0.0478 C   0  0  0  0  0  0  0  0  0  0  0  0
   -2.7274   -0.1719   -0.0388 N   0  0  0  0  0  0  0  0  0  0  0  0
   -3.8397   -0.2314   -0.0314 N   0  0  0  0  0  0  0  0  0  0  0  0
   -0.7521    1.1657   -0.1667 C   0  0  0  0  0  0  0  0  0  0  0  0
    0.6263    1.2519   -0.1780 C   0  0  0  0  0  0  0  0  0  0  0  0
    1.3520    0.0623   -0.0690 C   0  0  0  0  0  0  0  0  0  0  0  0
    2.8442    0.1479   -0.0816 N   0  0  0  0  0  0  0  0  0  0  0  0
    3.3220    1.2673   -0.1941 O   0  0  0  0  0  0  0  0  0  0  0  0
    3.4480   -0.9103    0.0214 O   0  0  0  0  0  0  0  0  0  0  0  0
    0.7666   -1.2003    0.0501 C   0  0  0  0  0  0  0  0  0  0  0  0
   -0.6165   -1.3011    0.0625 C   0  0  0  0  0  0  0  0  0  0  0  0
   -1.6014    2.3797   -0.2778 H   0  0  0  0  0  0  0  0  0  0  0  0
    1.1494    2.1966   -0.2675 H   0  0  0  0  0  0  0  0  0  0  0  0
    1.3995   -2.0764    0.1304 H   0  0  0  0  0  0  0  0  0  0  0  0
   -1.1177   -2.2589    0.1529 H   0  0  0  0  0  0  0  0  0  0  0  0
  1  2  1  0  0  0  0
  1 11  2  0  0  0  0
  2  3  1  0  0  0  0
  4  1  1  0  0  0  0
  5  4  2  0  0  0  0
  5  6  1  0  0  0  0
  6 10  2  0  0  0  0
  7  6  1  0  0  0  0
  7  9  2  0  0  0  0
  8  7  2  0  0  0  0
 10 11  1  0  0  0  0
 10 14  1  0  0  0  0
 11 15  1  0  0  0  0
 12  4  1  0  0  0  0
 13  5  1  0  0  0  0
M  RAD  2   2   2   3   3
M  END
