Coordinates from ORCA-job 4-NO2PhN2+_B3LYPG-6-31G_dp-d09-49-n800
 OpenBabel11261918563D

 15 14  0  0  0  0  0  0  0  0999 V2000
   -1.2783   -0.2347   -0.0347 C   0  0  0  0  0  0  0  0  0  0  0  0
   -2.6607   -0.3043   -0.0261 N   0  0  0  0  0  0  0  0  0  0  0  0
   -3.7728   -0.3581   -0.0205 N   0  0  0  0  0  0  0  0  0  0  0  0
   -0.6750    1.0123   -0.1516 C   0  0  0  0  0  0  0  0  0  0  0  0
    0.6866    1.1487   -0.1670 C   0  0  0  0  0  0  0  0  0  0  0  0
    1.4204   -0.0421   -0.0584 C   0  0  0  0  0  0  0  0  0  0  0  0
    2.9183    0.0630   -0.0727 N   0  0  0  0  0  0  0  0  0  0  0  0
    3.3852    1.1851   -0.1865 O   0  0  0  0  0  0  0  0  0  0  0  0
    3.5290   -0.9917    0.0239 O   0  0  0  0  0  0  0  0  0  0  0  0
    0.8470   -1.3132    0.0610 C   0  0  0  0  0  0  0  0  0  0  0  0
   -0.5329   -1.4356    0.0753 C   0  0  0  0  0  0  0  0  0  0  0  0
   -2.6419    3.9768   -0.4280 H   0  0  0  0  0  0  0  0  0  0  0  0
    1.2118    2.0960   -0.2561 H   0  0  0  0  0  0  0  0  0  0  0  0
    1.4908   -2.1809    0.1401 H   0  0  0  0  0  0  0  0  0  0  0  0
   -1.0240   -2.4001    0.1661 H   0  0  0  0  0  0  0  0  0  0  0  0
  1  2  1  0  0  0  0
  1 11  2  0  0  0  0
  2  3  1  0  0  0  0
  4  1  1  0  0  0  0
  5  4  2  0  0  0  0
  5  6  1  0  0  0  0
  6 10  2  0  0  0  0
  7  6  1  0  0  0  0
  7  9  2  0  0  0  0
  8  7  2  0  0  0  0
 10 11  1  0  0  0  0
 10 14  1  0  0  0  0
 11 15  1  0  0  0  0
 13  5  1  0  0  0  0
M  RAD  4   2   2   3   3   4   2  12   2
M  END
