Coordinates from ORCA-job 4-NO2PhN2+_B3LYPG-6-31G_dp-d09-49-n800
 OpenBabel11261918563D

 15 14  0  0  0  0  0  0  0  0999 V2000
   -1.3486   -0.1029   -0.0474 C   0  0  0  0  0  0  0  0  0  0  0  0
   -2.7260   -0.1738   -0.0386 N   0  0  0  0  0  0  0  0  0  0  0  0
   -3.8382   -0.2324   -0.0314 N   0  0  0  0  0  0  0  0  0  0  0  0
   -0.7488    1.1609   -0.1662 C   0  0  0  0  0  0  0  0  0  0  0  0
    0.6285    1.2500   -0.1778 C   0  0  0  0  0  0  0  0  0  0  0  0
    1.3539    0.0600   -0.0688 C   0  0  0  0  0  0  0  0  0  0  0  0
    2.8463    0.1455   -0.0814 N   0  0  0  0  0  0  0  0  0  0  0  0
    3.3240    1.2649   -0.1938 O   0  0  0  0  0  0  0  0  0  0  0  0
    3.4498   -0.9127    0.0215 O   0  0  0  0  0  0  0  0  0  0  0  0
    0.7684   -1.2027    0.0504 C   0  0  0  0  0  0  0  0  0  0  0  0
   -0.6146   -1.3042    0.0628 C   0  0  0  0  0  0  0  0  0  0  0  0
   -1.6287    2.4144   -0.2810 H   0  0  0  0  0  0  0  0  0  0  0  0
    1.1514    2.1949   -0.2673 H   0  0  0  0  0  0  0  0  0  0  0  0
    1.4015   -2.0786    0.1306 H   0  0  0  0  0  0  0  0  0  0  0  0
   -1.1155   -2.2621    0.1532 H   0  0  0  0  0  0  0  0  0  0  0  0
  1  2  1  0  0  0  0
  1 11  2  0  0  0  0
  2  3  1  0  0  0  0
  4  1  1  0  0  0  0
  5  4  2  0  0  0  0
  5  6  1  0  0  0  0
  6 10  2  0  0  0  0
  7  6  1  0  0  0  0
  7  9  2  0  0  0  0
  8  7  2  0  0  0  0
 10 11  1  0  0  0  0
 10 14  1  0  0  0  0
 11 15  1  0  0  0  0
 13  5  1  0  0  0  0
M  RAD  4   2   2   3   3   4   2  12   2
M  END
