Coordinates from ORCA-job 4-NO2PhN2+_B3LYPG-6-31G_dp-d09-49-n800
 OpenBabel11261918563D

 15 14  0  0  0  0  0  0  0  0999 V2000
   -1.2875   -0.2042   -0.0377 C   0  0  0  0  0  0  0  0  0  0  0  0
   -2.6688   -0.2649   -0.0296 N   0  0  0  0  0  0  0  0  0  0  0  0
   -3.7810   -0.3134   -0.0232 N   0  0  0  0  0  0  0  0  0  0  0  0
   -0.6730    1.0382   -0.1544 C   0  0  0  0  0  0  0  0  0  0  0  0
    0.6885    1.1691   -0.1697 C   0  0  0  0  0  0  0  0  0  0  0  0
    1.4149   -0.0263   -0.0607 C   0  0  0  0  0  0  0  0  0  0  0  0
    2.9131    0.0697   -0.0746 N   0  0  0  0  0  0  0  0  0  0  0  0
    3.3861    1.1895   -0.1854 O   0  0  0  0  0  0  0  0  0  0  0  0
    3.5174   -0.9882    0.0264 O   0  0  0  0  0  0  0  0  0  0  0  0
    0.8336   -1.2935    0.0585 C   0  0  0  0  0  0  0  0  0  0  0  0
   -0.5474   -1.4079    0.0724 C   0  0  0  0  0  0  0  0  0  0  0  0
   -2.5380    3.6737   -0.3993 H   0  0  0  0  0  0  0  0  0  0  0  0
    1.2169    2.1142   -0.2589 H   0  0  0  0  0  0  0  0  0  0  0  0
    1.4723   -2.1650    0.1379 H   0  0  0  0  0  0  0  0  0  0  0  0
   -1.0436   -2.3697    0.1631 H   0  0  0  0  0  0  0  0  0  0  0  0
  1  2  1  0  0  0  0
  1 11  2  0  0  0  0
  2  3  1  0  0  0  0
  4  1  1  0  0  0  0
  5  4  2  0  0  0  0
  5  6  1  0  0  0  0
  6 10  2  0  0  0  0
  7  6  1  0  0  0  0
  7  9  2  0  0  0  0
  8  7  2  0  0  0  0
 10 11  1  0  0  0  0
 10 14  1  0  0  0  0
 11 15  1  0  0  0  0
 13  5  1  0  0  0  0
M  RAD  4   2   2   3   3   4   2  12   2
M  END
