Coordinates from ORCA-job 4-NO2PhN2+_B3LYPG-6-31G_dp-d09-49-n800
 OpenBabel11261918563D

 15 14  0  0  0  0  0  0  0  0999 V2000
   -1.3264   -0.1429   -0.0437 C   0  0  0  0  0  0  0  0  0  0  0  0
   -2.7038   -0.1995   -0.0361 N   0  0  0  0  0  0  0  0  0  0  0  0
   -3.8161   -0.2476   -0.0297 N   0  0  0  0  0  0  0  0  0  0  0  0
   -0.7061    1.1017   -0.1608 C   0  0  0  0  0  0  0  0  0  0  0  0
    0.6590    1.2220   -0.1751 C   0  0  0  0  0  0  0  0  0  0  0  0
    1.3811    0.0258   -0.0657 C   0  0  0  0  0  0  0  0  0  0  0  0
    2.8764    0.1126   -0.0787 N   0  0  0  0  0  0  0  0  0  0  0  0
    3.3538    1.2315   -0.1896 O   0  0  0  0  0  0  0  0  0  0  0  0
    3.4777   -0.9467    0.0238 O   0  0  0  0  0  0  0  0  0  0  0  0
    0.7942   -1.2376    0.0535 C   0  0  0  0  0  0  0  0  0  0  0  0
   -0.5882   -1.3450    0.0667 C   0  0  0  0  0  0  0  0  0  0  0  0
   -2.0227    2.8960   -0.3257 H   0  0  0  0  0  0  0  0  0  0  0  0
    1.1827    2.1675   -0.2648 H   0  0  0  0  0  0  0  0  0  0  0  0
    1.4292   -2.1121    0.1334 H   0  0  0  0  0  0  0  0  0  0  0  0
   -1.0872   -2.3046    0.1573 H   0  0  0  0  0  0  0  0  0  0  0  0
  1  2  1  0  0  0  0
  1 11  2  0  0  0  0
  2  3  1  0  0  0  0
  4  1  1  0  0  0  0
  5  4  2  0  0  0  0
  5  6  1  0  0  0  0
  6 10  2  0  0  0  0
  7  6  1  0  0  0  0
  7  9  2  0  0  0  0
  8  7  2  0  0  0  0
 10 11  1  0  0  0  0
 10 14  1  0  0  0  0
 11 15  1  0  0  0  0
 13  5  1  0  0  0  0
M  RAD  4   2   2   3   3   4   2  12   2
M  END
