Coordinates from ORCA-job 4-NO2PhN2+_B3LYPG-6-31G_dp-d09-49-n800
 OpenBabel11261918563D

 15 14  0  0  0  0  0  0  0  0999 V2000
   -1.2863   -0.2071   -0.0373 C   0  0  0  0  0  0  0  0  0  0  0  0
   -2.6678   -0.2682   -0.0291 N   0  0  0  0  0  0  0  0  0  0  0  0
   -3.7800   -0.3174   -0.0230 N   0  0  0  0  0  0  0  0  0  0  0  0
   -0.6727    1.0354   -0.1541 C   0  0  0  0  0  0  0  0  0  0  0  0
    0.6886    1.1669   -0.1696 C   0  0  0  0  0  0  0  0  0  0  0  0
    1.4157   -0.0281   -0.0608 C   0  0  0  0  0  0  0  0  0  0  0  0
    2.9138    0.0687   -0.0749 N   0  0  0  0  0  0  0  0  0  0  0  0
    3.3863    1.1888   -0.1850 O   0  0  0  0  0  0  0  0  0  0  0  0
    3.5187   -0.9888    0.0268 O   0  0  0  0  0  0  0  0  0  0  0  0
    0.8350   -1.2956    0.0586 C   0  0  0  0  0  0  0  0  0  0  0  0
   -0.5459   -1.4106    0.0727 C   0  0  0  0  0  0  0  0  0  0  0  0
   -2.5510    3.7042   -0.4021 H   0  0  0  0  0  0  0  0  0  0  0  0
    1.2167    2.1122   -0.2589 H   0  0  0  0  0  0  0  0  0  0  0  0
    1.4741   -2.1668    0.1379 H   0  0  0  0  0  0  0  0  0  0  0  0
   -1.0418   -2.3725    0.1635 H   0  0  0  0  0  0  0  0  0  0  0  0
  1  2  1  0  0  0  0
  1 11  2  0  0  0  0
  2  3  1  0  0  0  0
  4  1  1  0  0  0  0
  5  4  2  0  0  0  0
  5  6  1  0  0  0  0
  6 10  2  0  0  0  0
  7  6  1  0  0  0  0
  7  9  2  0  0  0  0
  8  7  2  0  0  0  0
 10 11  1  0  0  0  0
 10 14  1  0  0  0  0
 11 15  1  0  0  0  0
 13  5  1  0  0  0  0
M  RAD  4   2   2   3   3   4   2  12   2
M  END
