Coordinates from ORCA-job 4-NO2PhN2+_B3LYPG-6-31G_dp-d09-49-n800
 OpenBabel11261918563D

 15 14  0  0  0  0  0  0  0  0999 V2000
   -1.2771   -0.4031   -0.0159 C   0  0  0  0  0  0  0  0  0  0  0  0
   -2.6574   -0.5404   -0.0000 N   0  0  0  0  0  0  0  0  0  0  0  0
   -3.7663   -0.6400    0.0117 N   0  0  0  0  0  0  0  0  0  0  0  0
   -0.7488    0.8768   -0.1333 C   0  0  0  0  0  0  0  0  0  0  0  0
    0.6087    1.0716   -0.1552 C   0  0  0  0  0  0  0  0  0  0  0  0
    1.4018   -0.0801   -0.0549 C   0  0  0  0  0  0  0  0  0  0  0  0
    2.8927    0.0991   -0.0784 N   0  0  0  0  0  0  0  0  0  0  0  0
    3.3048    1.2438   -0.1812 O   0  0  0  0  0  0  0  0  0  0  0  0
    3.5565   -0.9244    0.0084 O   0  0  0  0  0  0  0  0  0  0  0  0
    0.8940   -1.3797    0.0644 C   0  0  0  0  0  0  0  0  0  0  0  0
   -0.4775   -1.5693    0.0866 C   0  0  0  0  0  0  0  0  0  0  0  0
   -2.5780    5.1960   -0.5577 H   0  0  0  0  0  0  0  0  0  0  0  0
    1.0906    2.0421   -0.2441 H   0  0  0  0  0  0  0  0  0  0  0  0
    1.5804   -2.2144    0.1368 H   0  0  0  0  0  0  0  0  0  0  0  0
   -0.9208   -2.5567    0.1776 H   0  0  0  0  0  0  0  0  0  0  0  0
  1  2  1  0  0  0  0
  1 11  2  0  0  0  0
  2  3  1  0  0  0  0
  4  1  1  0  0  0  0
  5  4  2  0  0  0  0
  5  6  1  0  0  0  0
  6 10  2  0  0  0  0
  7  6  1  0  0  0  0
  7  9  2  0  0  0  0
  8  7  2  0  0  0  0
 10 11  1  0  0  0  0
 10 14  1  0  0  0  0
 11 15  1  0  0  0  0
 13  5  1  0  0  0  0
M  RAD  4   2   2   3   3   4   2  12   2
M  END
