Coordinates from ORCA-job 4-NO2PhN2+_B3LYPG-6-31G_dp-d09-49-n800
 OpenBabel11261918563D

 15 14  0  0  0  0  0  0  0  0999 V2000
   -1.3179   -0.1547   -0.0426 C   0  0  0  0  0  0  0  0  0  0  0  0
   -2.6960   -0.2093   -0.0350 N   0  0  0  0  0  0  0  0  0  0  0  0
   -3.8083   -0.2557   -0.0286 N   0  0  0  0  0  0  0  0  0  0  0  0
   -0.6950    1.0869   -0.1594 C   0  0  0  0  0  0  0  0  0  0  0  0
    0.6680    1.2117   -0.1744 C   0  0  0  0  0  0  0  0  0  0  0  0
    1.3896    0.0144   -0.0649 C   0  0  0  0  0  0  0  0  0  0  0  0
    2.8859    0.1020   -0.0782 N   0  0  0  0  0  0  0  0  0  0  0  0
    3.3631    1.2207   -0.1880 O   0  0  0  0  0  0  0  0  0  0  0  0
    3.4867   -0.9574    0.0253 O   0  0  0  0  0  0  0  0  0  0  0  0
    0.8027   -1.2493    0.0544 C   0  0  0  0  0  0  0  0  0  0  0  0
   -0.5796   -1.3576    0.0677 C   0  0  0  0  0  0  0  0  0  0  0  0
   -2.1483    3.0534   -0.3403 H   0  0  0  0  0  0  0  0  0  0  0  0
    1.1932    2.1569   -0.2640 H   0  0  0  0  0  0  0  0  0  0  0  0
    1.4379   -2.1235    0.1341 H   0  0  0  0  0  0  0  0  0  0  0  0
   -1.0786   -2.3174    0.1584 H   0  0  0  0  0  0  0  0  0  0  0  0
  1  2  1  0  0  0  0
  1 11  2  0  0  0  0
  2  3  1  0  0  0  0
  4  1  1  0  0  0  0
  5  4  2  0  0  0  0
  5  6  1  0  0  0  0
  6 10  2  0  0  0  0
  7  6  1  0  0  0  0
  7  9  2  0  0  0  0
  8  7  2  0  0  0  0
 10 11  1  0  0  0  0
 10 14  1  0  0  0  0
 11 15  1  0  0  0  0
 13  5  1  0  0  0  0
M  RAD  4   2   2   3   3   4   2  12   2
M  END
