Coordinates from ORCA-job 4-NO2PhN2+_B3LYPG-6-31G_dp-d09-49-n800
 OpenBabel11261918563D

 15 14  0  0  0  0  0  0  0  0999 V2000
   -1.2832   -0.4404   -0.0107 C   0  0  0  0  0  0  0  0  0  0  0  0
   -2.6617   -0.5966    0.0076 N   0  0  0  0  0  0  0  0  0  0  0  0
   -3.7692   -0.7107    0.0211 N   0  0  0  0  0  0  0  0  0  0  0  0
   -0.7737    0.8471   -0.1266 C   0  0  0  0  0  0  0  0  0  0  0  0
    0.5813    1.0601   -0.1507 C   0  0  0  0  0  0  0  0  0  0  0  0
    1.3905   -0.0807   -0.0544 C   0  0  0  0  0  0  0  0  0  0  0  0
    2.8787    0.1191   -0.0804 N   0  0  0  0  0  0  0  0  0  0  0  0
    3.2749    1.2697   -0.1806 O   0  0  0  0  0  0  0  0  0  0  0  0
    3.5568   -0.8954    0.0011 O   0  0  0  0  0  0  0  0  0  0  0  0
    0.9009   -1.3875    0.0634 C   0  0  0  0  0  0  0  0  0  0  0  0
   -0.4678   -1.5959    0.0880 C   0  0  0  0  0  0  0  0  0  0  0  0
   -2.4757    5.3976   -0.5854 H   0  0  0  0  0  0  0  0  0  0  0  0
    1.0499    2.0370   -0.2386 H   0  0  0  0  0  0  0  0  0  0  0  0
    1.5989   -2.2127    0.1328 H   0  0  0  0  0  0  0  0  0  0  0  0
   -0.8972   -2.5895    0.1779 H   0  0  0  0  0  0  0  0  0  0  0  0
  1  2  1  0  0  0  0
  1 11  2  0  0  0  0
  2  3  1  0  0  0  0
  4  1  1  0  0  0  0
  5  4  2  0  0  0  0
  5  6  1  0  0  0  0
  6 10  2  0  0  0  0
  7  6  1  0  0  0  0
  7  9  2  0  0  0  0
  8  7  2  0  0  0  0
 10 11  1  0  0  0  0
 10 14  1  0  0  0  0
 11 15  1  0  0  0  0
 13  5  1  0  0  0  0
M  RAD  4   2   2   3   3   4   2  12   2
M  END
