Coordinates from ORCA-job 4-NO2PhN2+_B3LYPG-6-31G_dp-d09-49-n800
 OpenBabel11261918563D

 15 14  0  0  0  0  0  0  0  0999 V2000
   -1.3019   -0.1762   -0.0404 C   0  0  0  0  0  0  0  0  0  0  0  0
   -2.6815   -0.2311   -0.0330 N   0  0  0  0  0  0  0  0  0  0  0  0
   -3.7938   -0.2766   -0.0265 N   0  0  0  0  0  0  0  0  0  0  0  0
   -0.6795    1.0636   -0.1569 C   0  0  0  0  0  0  0  0  0  0  0  0
    0.6819    1.1919   -0.1720 C   0  0  0  0  0  0  0  0  0  0  0  0
    1.4039   -0.0060   -0.0626 C   0  0  0  0  0  0  0  0  0  0  0  0
    2.9015    0.0839   -0.0758 N   0  0  0  0  0  0  0  0  0  0  0  0
    3.3781    1.2024   -0.1869 O   0  0  0  0  0  0  0  0  0  0  0  0
    3.5023   -0.9758    0.0259 O   0  0  0  0  0  0  0  0  0  0  0  0
    0.8178   -1.2706    0.0564 C   0  0  0  0  0  0  0  0  0  0  0  0
   -0.5639   -1.3805    0.0698 C   0  0  0  0  0  0  0  0  0  0  0  0
   -2.3622    3.3447   -0.3683 H   0  0  0  0  0  0  0  0  0  0  0  0
    1.2099    2.1365   -0.2613 H   0  0  0  0  0  0  0  0  0  0  0  0
    1.4536   -2.1443    0.1360 H   0  0  0  0  0  0  0  0  0  0  0  0
   -1.0628   -2.3407    0.1603 H   0  0  0  0  0  0  0  0  0  0  0  0
  1  2  1  0  0  0  0
  1 11  2  0  0  0  0
  2  3  1  0  0  0  0
  4  1  1  0  0  0  0
  5  4  2  0  0  0  0
  5  6  1  0  0  0  0
  6 10  2  0  0  0  0
  7  6  1  0  0  0  0
  7  9  2  0  0  0  0
  8  7  2  0  0  0  0
 10 11  1  0  0  0  0
 10 14  1  0  0  0  0
 11 15  1  0  0  0  0
 13  5  1  0  0  0  0
M  RAD  4   2   2   3   3   4   2  12   2
M  END
