Coordinates from ORCA-job 4-NO2PhN2+_B3LYPG-6-31G_dp-d09-49-n800
 OpenBabel11261918563D

 15 14  0  0  0  0  0  0  0  0999 V2000
   -1.2848   -0.2114   -0.0374 C   0  0  0  0  0  0  0  0  0  0  0  0
   -2.6663   -0.2740   -0.0295 N   0  0  0  0  0  0  0  0  0  0  0  0
   -3.7785   -0.3235   -0.0204 N   0  0  0  0  0  0  0  0  0  0  0  0
   -0.6729    1.0321   -0.1540 C   0  0  0  0  0  0  0  0  0  0  0  0
    0.6887    1.1638   -0.1693 C   0  0  0  0  0  0  0  0  0  0  0  0
    1.4166   -0.0306   -0.0604 C   0  0  0  0  0  0  0  0  0  0  0  0
    2.9148    0.0674   -0.0743 N   0  0  0  0  0  0  0  0  0  0  0  0
    3.3865    1.1878   -0.1847 O   0  0  0  0  0  0  0  0  0  0  0  0
    3.5205   -0.9896    0.0267 O   0  0  0  0  0  0  0  0  0  0  0  0
    0.8370   -1.2986    0.0589 C   0  0  0  0  0  0  0  0  0  0  0  0
   -0.5437   -1.4146    0.0727 C   0  0  0  0  0  0  0  0  0  0  0  0
   -2.5690    3.7493   -0.4069 H   0  0  0  0  0  0  0  0  0  0  0  0
    1.2167    2.1093   -0.2583 H   0  0  0  0  0  0  0  0  0  0  0  0
    1.4768   -2.1693    0.1381 H   0  0  0  0  0  0  0  0  0  0  0  0
   -1.0390   -2.3769    0.1633 H   0  0  0  0  0  0  0  0  0  0  0  0
  1  2  1  0  0  0  0
  1 11  2  0  0  0  0
  2  3  1  0  0  0  0
  4  1  1  0  0  0  0
  5  4  2  0  0  0  0
  5  6  1  0  0  0  0
  6 10  2  0  0  0  0
  7  6  1  0  0  0  0
  7  9  2  0  0  0  0
  8  7  2  0  0  0  0
 10 11  1  0  0  0  0
 10 14  1  0  0  0  0
 11 15  1  0  0  0  0
 13  5  1  0  0  0  0
M  RAD  4   2   2   3   3   4   2  12   2
M  END
