Coordinates from ORCA-job 4-NO2PhN2+_B3LYPG-6-31G_dp-d09-49-n800
 OpenBabel11261918563D

 15 15  0  0  0  0  0  0  0  0999 V2000
   -1.3551   -0.0869   -0.0490 C   0  0  0  0  0  0  0  0  0  0  0  0
   -2.7334   -0.1638   -0.0393 N   0  0  0  0  0  0  0  0  0  0  0  0
   -3.8456   -0.2264   -0.0314 N   0  0  0  0  0  0  0  0  0  0  0  0
   -0.7652    1.1855   -0.1686 C   0  0  0  0  0  0  0  0  0  0  0  0
    0.6174    1.2592   -0.1789 C   0  0  0  0  0  0  0  0  0  0  0  0
    1.3446    0.0717   -0.0702 C   0  0  0  0  0  0  0  0  0  0  0  0
    2.8362    0.1574   -0.0827 N   0  0  0  0  0  0  0  0  0  0  0  0
    3.3139    1.2770   -0.1946 O   0  0  0  0  0  0  0  0  0  0  0  0
    3.4404   -0.9004    0.0215 O   0  0  0  0  0  0  0  0  0  0  0  0
    0.7593   -1.1904    0.0490 C   0  0  0  0  0  0  0  0  0  0  0  0
   -0.6241   -1.2886    0.0611 C   0  0  0  0  0  0  0  0  0  0  0  0
   -1.4910    2.2360   -0.2645 H   0  0  0  0  0  0  0  0  0  0  0  0
    1.1415    2.2035   -0.2684 H   0  0  0  0  0  0  0  0  0  0  0  0
    1.3911   -2.0673    0.1293 H   0  0  0  0  0  0  0  0  0  0  0  0
   -1.1266   -2.2455    0.1515 H   0  0  0  0  0  0  0  0  0  0  0  0
  1  2  1  0  0  0  0
  1 11  2  0  0  0  0
  2  3  1  0  0  0  0
  4  1  1  0  0  0  0
  5  4  2  0  0  0  0
  5  6  1  0  0  0  0
  6 10  2  0  0  0  0
  7  6  1  0  0  0  0
  7  9  2  0  0  0  0
  8  7  2  0  0  0  0
 10 11  1  0  0  0  0
 10 14  1  0  0  0  0
 11 15  1  0  0  0  0
 12  4  1  0  0  0  0
 13  5  1  0  0  0  0
M  RAD  2   2   2   3   3
M  END
