Coordinates from ORCA-job 4-NO2PhN2+_B3LYPG-6-31G_dp-d09-49-n800
 OpenBabel11261918563D

 15 14  0  0  0  0  0  0  0  0999 V2000
   -1.2955   -0.1874   -0.0393 C   0  0  0  0  0  0  0  0  0  0  0  0
   -2.6759   -0.2440   -0.0315 N   0  0  0  0  0  0  0  0  0  0  0  0
   -3.7882   -0.2905   -0.0252 N   0  0  0  0  0  0  0  0  0  0  0  0
   -0.6755    1.0527   -0.1557 C   0  0  0  0  0  0  0  0  0  0  0  0
    0.6857    1.1825   -0.1710 C   0  0  0  0  0  0  0  0  0  0  0  0
    1.4092   -0.0147   -0.0618 C   0  0  0  0  0  0  0  0  0  0  0  0
    2.9071    0.0772   -0.0752 N   0  0  0  0  0  0  0  0  0  0  0  0
    3.3825    1.1960   -0.1861 O   0  0  0  0  0  0  0  0  0  0  0  0
    3.5089   -0.9820    0.0262 O   0  0  0  0  0  0  0  0  0  0  0  0
    0.8245   -1.2802    0.0572 C   0  0  0  0  0  0  0  0  0  0  0  0
   -0.5569   -1.3917    0.0708 C   0  0  0  0  0  0  0  0  0  0  0  0
   -2.4430    3.4818   -0.3816 H   0  0  0  0  0  0  0  0  0  0  0  0
    1.2142    2.1272   -0.2601 H   0  0  0  0  0  0  0  0  0  0  0  0
    1.4613   -2.1532    0.1367 H   0  0  0  0  0  0  0  0  0  0  0  0
   -1.0549   -2.3525    0.1614 H   0  0  0  0  0  0  0  0  0  0  0  0
  1  2  1  0  0  0  0
  1 11  2  0  0  0  0
  2  3  1  0  0  0  0
  4  1  1  0  0  0  0
  5  4  2  0  0  0  0
  5  6  1  0  0  0  0
  6 10  2  0  0  0  0
  7  6  1  0  0  0  0
  7  9  2  0  0  0  0
  8  7  2  0  0  0  0
 10 11  1  0  0  0  0
 10 14  1  0  0  0  0
 11 15  1  0  0  0  0
 13  5  1  0  0  0  0
M  RAD  4   2   2   3   3   4   2  12   2
M  END
