Coordinates from ORCA-job 4-NO2PhN2+_B3LYPG-6-31G_dp-d09-49-n800
 OpenBabel11261918563D

 15 14  0  0  0  0  0  0  0  0999 V2000
   -1.2725   -0.3346   -0.0244 C   0  0  0  0  0  0  0  0  0  0  0  0
   -2.6548   -0.4418   -0.0121 N   0  0  0  0  0  0  0  0  0  0  0  0
   -3.7654   -0.5197   -0.0019 N   0  0  0  0  0  0  0  0  0  0  0  0
   -0.7123    0.9318   -0.1425 C   0  0  0  0  0  0  0  0  0  0  0  0
    0.6482    1.0991   -0.1613 C   0  0  0  0  0  0  0  0  0  0  0  0
    1.4149   -0.0704   -0.0561 C   0  0  0  0  0  0  0  0  0  0  0  0
    2.9095    0.0756   -0.0753 N   0  0  0  0  0  0  0  0  0  0  0  0
    3.3467    1.2103   -0.1830 O   0  0  0  0  0  0  0  0  0  0  0  0
    3.5497   -0.9622    0.0176 O   0  0  0  0  0  0  0  0  0  0  0  0
    0.8777   -1.3578    0.0641 C   0  0  0  0  0  0  0  0  0  0  0  0
   -0.4978   -1.5173    0.0826 C   0  0  0  0  0  0  0  0  0  0  0  0
   -2.6737    4.7515   -0.5065 H   0  0  0  0  0  0  0  0  0  0  0  0
    1.1507    2.0588   -0.2508 H   0  0  0  0  0  0  0  0  0  0  0  0
    1.5453   -2.2074    0.1403 H   0  0  0  0  0  0  0  0  0  0  0  0
   -0.9628   -2.4946    0.1740 H   0  0  0  0  0  0  0  0  0  0  0  0
  1  2  1  0  0  0  0
  1 11  2  0  0  0  0
  2  3  1  0  0  0  0
  4  1  1  0  0  0  0
  5  4  2  0  0  0  0
  5  6  1  0  0  0  0
  6 10  2  0  0  0  0
  7  6  1  0  0  0  0
  7  9  2  0  0  0  0
  8  7  2  0  0  0  0
 10 11  1  0  0  0  0
 10 14  1  0  0  0  0
 11 15  1  0  0  0  0
 13  5  1  0  0  0  0
M  RAD  4   2   2   3   3   4   2  12   2
M  END
