Coordinates from ORCA-job 4-NO2PhN2+_B3LYPG-6-31G_dp-d09-49-n800
 OpenBabel11261918563D

 15 14  0  0  0  0  0  0  0  0999 V2000
   -1.3476   -0.1054   -0.0472 C   0  0  0  0  0  0  0  0  0  0  0  0
   -2.7248   -0.1752   -0.0385 N   0  0  0  0  0  0  0  0  0  0  0  0
   -3.8371   -0.2331   -0.0313 N   0  0  0  0  0  0  0  0  0  0  0  0
   -0.7462    1.1570   -0.1659 C   0  0  0  0  0  0  0  0  0  0  0  0
    0.6303    1.2486   -0.1776 C   0  0  0  0  0  0  0  0  0  0  0  0
    1.3554    0.0581   -0.0686 C   0  0  0  0  0  0  0  0  0  0  0  0
    2.8479    0.1437   -0.0813 N   0  0  0  0  0  0  0  0  0  0  0  0
    3.3257    1.2630   -0.1936 O   0  0  0  0  0  0  0  0  0  0  0  0
    3.4514   -0.9146    0.0216 O   0  0  0  0  0  0  0  0  0  0  0  0
    0.7699   -1.2047    0.0506 C   0  0  0  0  0  0  0  0  0  0  0  0
   -0.6131   -1.3066    0.0630 C   0  0  0  0  0  0  0  0  0  0  0  0
   -1.6507    2.4420   -0.2835 H   0  0  0  0  0  0  0  0  0  0  0  0
    1.1530    2.1935   -0.2672 H   0  0  0  0  0  0  0  0  0  0  0  0
    1.4031   -2.0804    0.1308 H   0  0  0  0  0  0  0  0  0  0  0  0
   -1.1138   -2.2647    0.1535 H   0  0  0  0  0  0  0  0  0  0  0  0
  1  2  1  0  0  0  0
  1 11  2  0  0  0  0
  2  3  1  0  0  0  0
  4  1  1  0  0  0  0
  5  4  2  0  0  0  0
  5  6  1  0  0  0  0
  6 10  2  0  0  0  0
  7  6  1  0  0  0  0
  7  9  2  0  0  0  0
  8  7  2  0  0  0  0
 10 11  1  0  0  0  0
 10 14  1  0  0  0  0
 11 15  1  0  0  0  0
 13  5  1  0  0  0  0
M  RAD  4   2   2   3   3   4   2  12   2
M  END
