Coordinates from ORCA-job 4-NO2PhN2+_B3LYPG-6-31G_dp-d09-49-n800
 OpenBabel11261918563D

 15 14  0  0  0  0  0  0  0  0999 V2000
   -1.2725   -0.3414   -0.0235 C   0  0  0  0  0  0  0  0  0  0  0  0
   -2.6545   -0.4516   -0.0109 N   0  0  0  0  0  0  0  0  0  0  0  0
   -3.7651   -0.5316   -0.0015 N   0  0  0  0  0  0  0  0  0  0  0  0
   -0.7157    0.9265   -0.1418 C   0  0  0  0  0  0  0  0  0  0  0  0
    0.6447    1.0957   -0.1610 C   0  0  0  0  0  0  0  0  0  0  0  0
    1.4139   -0.0719   -0.0561 C   0  0  0  0  0  0  0  0  0  0  0  0
    2.9082    0.0773   -0.0759 N   0  0  0  0  0  0  0  0  0  0  0  0
    3.3430    1.2130   -0.1829 O   0  0  0  0  0  0  0  0  0  0  0  0
    3.5507   -0.9591    0.0171 O   0  0  0  0  0  0  0  0  0  0  0  0
    0.8795   -1.3605    0.0644 C   0  0  0  0  0  0  0  0  0  0  0  0
   -0.4956   -1.5226    0.0833 C   0  0  0  0  0  0  0  0  0  0  0  0
   -2.6690    4.8005   -0.5111 H   0  0  0  0  0  0  0  0  0  0  0  0
    1.1454    2.0565   -0.2506 H   0  0  0  0  0  0  0  0  0  0  0  0
    1.5489   -2.2087    0.1403 H   0  0  0  0  0  0  0  0  0  0  0  0
   -0.9587   -2.5008    0.1749 H   0  0  0  0  0  0  0  0  0  0  0  0
  1  2  1  0  0  0  0
  1 11  2  0  0  0  0
  2  3  1  0  0  0  0
  4  1  1  0  0  0  0
  5  4  2  0  0  0  0
  5  6  1  0  0  0  0
  6 10  2  0  0  0  0
  7  6  1  0  0  0  0
  7  9  2  0  0  0  0
  8  7  2  0  0  0  0
 10 11  1  0  0  0  0
 10 14  1  0  0  0  0
 11 15  1  0  0  0  0
 13  5  1  0  0  0  0
M  RAD  4   2   2   3   3   4   2  12   2
M  END
