Coordinates from ORCA-job 4-NO2PhN2+_B3LYPG-6-31G_dp-d09-49-n800
 OpenBabel11261918563D

 15 14  0  0  0  0  0  0  0  0999 V2000
   -1.2730   -0.2704   -0.0311 C   0  0  0  0  0  0  0  0  0  0  0  0
   -2.6558   -0.3523   -0.0210 N   0  0  0  0  0  0  0  0  0  0  0  0
   -3.7675   -0.4133   -0.0133 N   0  0  0  0  0  0  0  0  0  0  0  0
   -0.6849    0.9836   -0.1485 C   0  0  0  0  0  0  0  0  0  0  0  0
    0.6770    1.1285   -0.1652 C   0  0  0  0  0  0  0  0  0  0  0  0
    1.4213   -0.0555   -0.0579 C   0  0  0  0  0  0  0  0  0  0  0  0
    2.9184    0.0628   -0.0742 N   0  0  0  0  0  0  0  0  0  0  0  0
    3.3760    1.1892   -0.1835 O   0  0  0  0  0  0  0  0  0  0  0  0
    3.5386   -0.9864    0.0236 O   0  0  0  0  0  0  0  0  0  0  0  0
    0.8596   -1.3321    0.0620 C   0  0  0  0  0  0  0  0  0  0  0  0
   -0.5189   -1.4660    0.0779 C   0  0  0  0  0  0  0  0  0  0  0  0
   -2.6923    4.2821   -0.4586 H   0  0  0  0  0  0  0  0  0  0  0  0
    1.1958    2.0794   -0.2545 H   0  0  0  0  0  0  0  0  0  0  0  0
    1.5111   -2.1941    0.1400 H   0  0  0  0  0  0  0  0  0  0  0  0
   -1.0020   -2.4345    0.1690 H   0  0  0  0  0  0  0  0  0  0  0  0
  1  2  1  0  0  0  0
  1 11  2  0  0  0  0
  2  3  1  0  0  0  0
  4  1  1  0  0  0  0
  5  4  2  0  0  0  0
  5  6  1  0  0  0  0
  6 10  2  0  0  0  0
  7  6  1  0  0  0  0
  7  9  2  0  0  0  0
  8  7  2  0  0  0  0
 10 11  1  0  0  0  0
 10 14  1  0  0  0  0
 11 15  1  0  0  0  0
 13  5  1  0  0  0  0
M  RAD  4   2   2   3   3   4   2  12   2
M  END
