Coordinates from ORCA-job 4-NO2PhN2+_B3LYPG-6-31G_dp-d09-49-n800
 OpenBabel11261918563D

 15 14  0  0  0  0  0  0  0  0999 V2000
   -1.2715   -0.3014   -0.0277 C   0  0  0  0  0  0  0  0  0  0  0  0
   -2.6542   -0.3951   -0.0165 N   0  0  0  0  0  0  0  0  0  0  0  0
   -3.7655   -0.4636   -0.0081 N   0  0  0  0  0  0  0  0  0  0  0  0
   -0.6969    0.9587   -0.1454 C   0  0  0  0  0  0  0  0  0  0  0  0
    0.6646    1.1132   -0.1631 C   0  0  0  0  0  0  0  0  0  0  0  0
    1.4193   -0.0640   -0.0570 C   0  0  0  0  0  0  0  0  0  0  0  0
    2.9154    0.0672   -0.0747 N   0  0  0  0  0  0  0  0  0  0  0  0
    3.3636    1.1975   -0.1830 O   0  0  0  0  0  0  0  0  0  0  0  0
    3.5449   -0.9767    0.0209 O   0  0  0  0  0  0  0  0  0  0  0  0
    0.8690   -1.3457    0.0630 C   0  0  0  0  0  0  0  0  0  0  0  0
   -0.5081   -1.4913    0.0802 C   0  0  0  0  0  0  0  0  0  0  0  0
   -2.6980    4.5201   -0.4830 H   0  0  0  0  0  0  0  0  0  0  0  0
    1.1762    2.0681   -0.2524 H   0  0  0  0  0  0  0  0  0  0  0  0
    1.5279   -2.2020    0.1400 H   0  0  0  0  0  0  0  0  0  0  0  0
   -0.9831   -2.4638    0.1714 H   0  0  0  0  0  0  0  0  0  0  0  0
  1  2  1  0  0  0  0
  1 11  2  0  0  0  0
  2  3  1  0  0  0  0
  4  1  1  0  0  0  0
  5  4  2  0  0  0  0
  5  6  1  0  0  0  0
  6 10  2  0  0  0  0
  7  6  1  0  0  0  0
  7  9  2  0  0  0  0
  8  7  2  0  0  0  0
 10 11  1  0  0  0  0
 10 14  1  0  0  0  0
 11 15  1  0  0  0  0
 13  5  1  0  0  0  0
M  RAD  4   2   2   3   3   4   2  12   2
M  END
