Coordinates from ORCA-job 4-NO2PhN2+_B3LYPG-6-31G_dp-d09-49-n800
 OpenBabel11261918563D

 15 14  0  0  0  0  0  0  0  0999 V2000
   -1.2773   -0.2392   -0.0359 C   0  0  0  0  0  0  0  0  0  0  0  0
   -2.6598   -0.3104   -0.0289 N   0  0  0  0  0  0  0  0  0  0  0  0
   -3.7717   -0.3641   -0.0119 N   0  0  0  0  0  0  0  0  0  0  0  0
   -0.6761    1.0088   -0.1522 C   0  0  0  0  0  0  0  0  0  0  0  0
    0.6856    1.1459   -0.1669 C   0  0  0  0  0  0  0  0  0  0  0  0
    1.4206   -0.0440   -0.0581 C   0  0  0  0  0  0  0  0  0  0  0  0
    2.9185    0.0629   -0.0717 N   0  0  0  0  0  0  0  0  0  0  0  0
    3.3843    1.1855   -0.1850 O   0  0  0  0  0  0  0  0  0  0  0  0
    3.5303   -0.9912    0.0247 O   0  0  0  0  0  0  0  0  0  0  0  0
    0.8487   -1.3159    0.0608 C   0  0  0  0  0  0  0  0  0  0  0  0
   -0.5311   -1.4395    0.0743 C   0  0  0  0  0  0  0  0  0  0  0  0
   -2.6506    4.0160   -0.4335 H   0  0  0  0  0  0  0  0  0  0  0  0
    1.2102    2.0936   -0.2555 H   0  0  0  0  0  0  0  0  0  0  0  0
    1.4934   -2.1829    0.1400 H   0  0  0  0  0  0  0  0  0  0  0  0
   -1.0214   -2.4044    0.1645 H   0  0  0  0  0  0  0  0  0  0  0  0
  1  2  1  0  0  0  0
  1 11  2  0  0  0  0
  2  3  1  0  0  0  0
  4  1  1  0  0  0  0
  5  4  2  0  0  0  0
  5  6  1  0  0  0  0
  6 10  2  0  0  0  0
  7  6  1  0  0  0  0
  7  9  2  0  0  0  0
  8  7  2  0  0  0  0
 10 11  1  0  0  0  0
 10 14  1  0  0  0  0
 11 15  1  0  0  0  0
 13  5  1  0  0  0  0
M  RAD  4   2   2   3   3   4   2  12   2
M  END
