Coordinates from ORCA-job 4-NO2PhN2+_B3LYPG-6-31G_dp-d09-49-n800
 OpenBabel11261918563D

 15 14  0  0  0  0  0  0  0  0999 V2000
   -1.2714   -0.3086   -0.0270 C   0  0  0  0  0  0  0  0  0  0  0  0
   -2.6540   -0.4050   -0.0155 N   0  0  0  0  0  0  0  0  0  0  0  0
   -3.7652   -0.4752   -0.0069 N   0  0  0  0  0  0  0  0  0  0  0  0
   -0.6998    0.9529   -0.1447 C   0  0  0  0  0  0  0  0  0  0  0  0
    0.6615    1.1098   -0.1626 C   0  0  0  0  0  0  0  0  0  0  0  0
    1.4187   -0.0658   -0.0568 C   0  0  0  0  0  0  0  0  0  0  0  0
    2.9145    0.0685   -0.0749 N   0  0  0  0  0  0  0  0  0  0  0  0
    3.3604    1.1997   -0.1829 O   0  0  0  0  0  0  0  0  0  0  0  0
    3.5462   -0.9742    0.0203 O   0  0  0  0  0  0  0  0  0  0  0  0
    0.8711   -1.3487    0.0633 C   0  0  0  0  0  0  0  0  0  0  0  0
   -0.5058   -1.4970    0.0807 C   0  0  0  0  0  0  0  0  0  0  0  0
   -2.6971    4.5733   -0.4884 H   0  0  0  0  0  0  0  0  0  0  0  0
    1.1713    2.0657   -0.2520 H   0  0  0  0  0  0  0  0  0  0  0  0
    1.5318   -2.2036    0.1401 H   0  0  0  0  0  0  0  0  0  0  0  0
   -0.9787   -2.4705    0.1720 H   0  0  0  0  0  0  0  0  0  0  0  0
  1  2  1  0  0  0  0
  1 11  2  0  0  0  0
  2  3  1  0  0  0  0
  4  1  1  0  0  0  0
  5  4  2  0  0  0  0
  5  6  1  0  0  0  0
  6 10  2  0  0  0  0
  7  6  1  0  0  0  0
  7  9  2  0  0  0  0
  8  7  2  0  0  0  0
 10 11  1  0  0  0  0
 10 14  1  0  0  0  0
 11 15  1  0  0  0  0
 13  5  1  0  0  0  0
M  RAD  4   2   2   3   3   4   2  12   2
M  END
