Coordinates from ORCA-job 4-NO2PhN2+_B3LYPG-6-31G_dp-d09-49-n800
 OpenBabel11261918563D

 15 14  0  0  0  0  0  0  0  0999 V2000
   -1.3478   -0.1047   -0.0473 C   0  0  0  0  0  0  0  0  0  0  0  0
   -2.7251   -0.1749   -0.0389 N   0  0  0  0  0  0  0  0  0  0  0  0
   -3.8374   -0.2331   -0.0320 N   0  0  0  0  0  0  0  0  0  0  0  0
   -0.7469    1.1580   -0.1659 C   0  0  0  0  0  0  0  0  0  0  0  0
    0.6298    1.2490   -0.1772 C   0  0  0  0  0  0  0  0  0  0  0  0
    1.3550    0.0586   -0.0681 C   0  0  0  0  0  0  0  0  0  0  0  0
    2.8475    0.1442   -0.0803 N   0  0  0  0  0  0  0  0  0  0  0  0
    3.3253    1.2634   -0.1950 O   0  0  0  0  0  0  0  0  0  0  0  0
    3.4510   -0.9143    0.0202 O   0  0  0  0  0  0  0  0  0  0  0  0
    0.7695   -1.2042    0.0510 C   0  0  0  0  0  0  0  0  0  0  0  0
   -0.6135   -1.3060    0.0631 C   0  0  0  0  0  0  0  0  0  0  0  0
   -1.6452    2.4352   -0.2829 H   0  0  0  0  0  0  0  0  0  0  0  0
    1.1526    2.1939   -0.2666 H   0  0  0  0  0  0  0  0  0  0  0  0
    1.4027   -2.0799    0.1313 H   0  0  0  0  0  0  0  0  0  0  0  0
   -1.1142   -2.2640    0.1534 H   0  0  0  0  0  0  0  0  0  0  0  0
  1  2  1  0  0  0  0
  1 11  2  0  0  0  0
  2  3  1  0  0  0  0
  4  1  1  0  0  0  0
  5  4  2  0  0  0  0
  5  6  1  0  0  0  0
  6 10  2  0  0  0  0
  7  6  1  0  0  0  0
  7  9  2  0  0  0  0
  8  7  2  0  0  0  0
 10 11  1  0  0  0  0
 10 14  1  0  0  0  0
 11 15  1  0  0  0  0
 13  5  1  0  0  0  0
M  RAD  4   2   2   3   3   4   2  12   2
M  END
