Coordinates from ORCA-job 4-NO2PhN2+_B3LYPG-6-31G_dp-d09-49-n800
 OpenBabel11261918563D

 15 14  0  0  0  0  0  0  0  0999 V2000
   -1.2753   -0.3855   -0.0190 C   0  0  0  0  0  0  0  0  0  0  0  0
   -2.6562   -0.5148   -0.0046 N   0  0  0  0  0  0  0  0  0  0  0  0
   -3.7657   -0.6085    0.0061 N   0  0  0  0  0  0  0  0  0  0  0  0
   -0.7386    0.8908   -0.1379 C   0  0  0  0  0  0  0  0  0  0  0  0
    0.6199    1.0779   -0.1587 C   0  0  0  0  0  0  0  0  0  0  0  0
    1.4059   -0.0785   -0.0554 C   0  0  0  0  0  0  0  0  0  0  0  0
    2.8978    0.0919   -0.0774 N   0  0  0  0  0  0  0  0  0  0  0  0
    3.3167    1.2337   -0.1829 O   0  0  0  0  0  0  0  0  0  0  0  0
    3.5553   -0.9354    0.0123 O   0  0  0  0  0  0  0  0  0  0  0  0
    0.8901   -1.3747    0.0656 C   0  0  0  0  0  0  0  0  0  0  0  0
   -0.4825   -1.5562    0.0866 C   0  0  0  0  0  0  0  0  0  0  0  0
   -2.6112    5.0892   -0.5403 H   0  0  0  0  0  0  0  0  0  0  0  0
    1.1074    2.0454   -0.2487 H   0  0  0  0  0  0  0  0  0  0  0  0
    1.5715   -2.2133    0.1404 H   0  0  0  0  0  0  0  0  0  0  0  0
   -0.9317   -2.5408    0.1787 H   0  0  0  0  0  0  0  0  0  0  0  0
  1  2  1  0  0  0  0
  1 11  2  0  0  0  0
  2  3  1  0  0  0  0
  4  1  1  0  0  0  0
  5  4  2  0  0  0  0
  5  6  1  0  0  0  0
  6 10  2  0  0  0  0
  7  6  1  0  0  0  0
  7  9  2  0  0  0  0
  8  7  2  0  0  0  0
 10 11  1  0  0  0  0
 10 14  1  0  0  0  0
 11 15  1  0  0  0  0
 13  5  1  0  0  0  0
M  RAD  4   2   2   3   3   4   2  12   2
M  END
