Coordinates from ORCA-job 4-NO2PhN2+_B3LYPG-6-31G_dp-d09-49-n800
 OpenBabel11261918563D

 15 14  0  0  0  0  0  0  0  0999 V2000
   -1.3079   -0.1675   -0.0413 C   0  0  0  0  0  0  0  0  0  0  0  0
   -2.6870   -0.2214   -0.0336 N   0  0  0  0  0  0  0  0  0  0  0  0
   -3.7994   -0.2666   -0.0273 N   0  0  0  0  0  0  0  0  0  0  0  0
   -0.6845    1.0722   -0.1580 C   0  0  0  0  0  0  0  0  0  0  0  0
    0.6772    1.1998   -0.1733 C   0  0  0  0  0  0  0  0  0  0  0  0
    1.3988    0.0018   -0.0639 C   0  0  0  0  0  0  0  0  0  0  0  0
    2.8959    0.0905   -0.0774 N   0  0  0  0  0  0  0  0  0  0  0  0
    3.3730    1.2091   -0.1865 O   0  0  0  0  0  0  0  0  0  0  0  0
    3.4964   -0.9691    0.0267 O   0  0  0  0  0  0  0  0  0  0  0  0
    0.8120   -1.2623    0.0554 C   0  0  0  0  0  0  0  0  0  0  0  0
   -0.5700   -1.3714    0.0689 C   0  0  0  0  0  0  0  0  0  0  0  0
   -2.2835    3.2290   -0.3568 H   0  0  0  0  0  0  0  0  0  0  0  0
    1.2043    2.1446   -0.2628 H   0  0  0  0  0  0  0  0  0  0  0  0
    1.4474   -2.1363    0.1350 H   0  0  0  0  0  0  0  0  0  0  0  0
   -1.0691   -2.3314    0.1596 H   0  0  0  0  0  0  0  0  0  0  0  0
  1  2  1  0  0  0  0
  1 11  2  0  0  0  0
  2  3  1  0  0  0  0
  4  1  1  0  0  0  0
  5  4  2  0  0  0  0
  5  6  1  0  0  0  0
  6 10  2  0  0  0  0
  7  6  1  0  0  0  0
  7  9  2  0  0  0  0
  8  7  2  0  0  0  0
 10 11  1  0  0  0  0
 10 14  1  0  0  0  0
 11 15  1  0  0  0  0
 13  5  1  0  0  0  0
M  RAD  4   2   2   3   3   4   2  12   2
M  END
