Coordinates from ORCA-job 4-NO2PhN2+_B3LYPG-6-31G_dp-d09-49-n800
 OpenBabel11261918563D

 15 15  0  0  0  0  0  0  0  0999 V2000
   -1.3573   -0.0816   -0.0496 C   0  0  0  0  0  0  0  0  0  0  0  0
   -2.7359   -0.1600   -0.0397 N   0  0  0  0  0  0  0  0  0  0  0  0
   -3.8481   -0.2236   -0.0317 N   0  0  0  0  0  0  0  0  0  0  0  0
   -0.7702    1.1934   -0.1694 C   0  0  0  0  0  0  0  0  0  0  0  0
    0.6139    1.2624   -0.1791 C   0  0  0  0  0  0  0  0  0  0  0  0
    1.3416    0.0756   -0.0703 C   0  0  0  0  0  0  0  0  0  0  0  0
    2.8330    0.1615   -0.0827 N   0  0  0  0  0  0  0  0  0  0  0  0
    3.3107    1.2811   -0.1953 O   0  0  0  0  0  0  0  0  0  0  0  0
    3.4374   -0.8964    0.0205 O   0  0  0  0  0  0  0  0  0  0  0  0
    0.7563   -1.1862    0.0487 C   0  0  0  0  0  0  0  0  0  0  0  0
   -0.6272   -1.2834    0.0607 C   0  0  0  0  0  0  0  0  0  0  0  0
   -1.4461    2.1752   -0.2591 H   0  0  0  0  0  0  0  0  0  0  0  0
    1.1382    2.2066   -0.2685 H   0  0  0  0  0  0  0  0  0  0  0  0
    1.3876   -2.0634    0.1292 H   0  0  0  0  0  0  0  0  0  0  0  0
   -1.1303   -2.2400    0.1510 H   0  0  0  0  0  0  0  0  0  0  0  0
  1  2  1  0  0  0  0
  1 11  2  0  0  0  0
  2  3  1  0  0  0  0
  4  1  1  0  0  0  0
  5  4  2  0  0  0  0
  5  6  1  0  0  0  0
  6 10  2  0  0  0  0
  7  6  1  0  0  0  0
  7  9  2  0  0  0  0
  8  7  2  0  0  0  0
 10 11  1  0  0  0  0
 10 14  1  0  0  0  0
 11 15  1  0  0  0  0
 12  4  1  0  0  0  0
 13  5  1  0  0  0  0
M  RAD  2   2   2   3   3
M  END
