Coordinates from ORCA-job 4-NO2PhN2+_B3LYPG-6-31G_dp-d09-49-n800
 OpenBabel11261918563D

 15 15  0  0  0  0  0  0  0  0999 V2000
   -1.3583   -0.0791   -0.0498 C   0  0  0  0  0  0  0  0  0  0  0  0
   -2.7371   -0.1582   -0.0398 N   0  0  0  0  0  0  0  0  0  0  0  0
   -3.8493   -0.2221   -0.0318 N   0  0  0  0  0  0  0  0  0  0  0  0
   -0.7726    1.1970   -0.1697 C   0  0  0  0  0  0  0  0  0  0  0  0
    0.6122    1.2639   -0.1793 C   0  0  0  0  0  0  0  0  0  0  0  0
    1.3402    0.0775   -0.0706 C   0  0  0  0  0  0  0  0  0  0  0  0
    2.8315    0.1633   -0.0829 N   0  0  0  0  0  0  0  0  0  0  0  0
    3.3092    1.2830   -0.1953 O   0  0  0  0  0  0  0  0  0  0  0  0
    3.4359   -0.8945    0.0204 O   0  0  0  0  0  0  0  0  0  0  0  0
    0.7549   -1.1842    0.0485 C   0  0  0  0  0  0  0  0  0  0  0  0
   -0.6287   -1.2810    0.0604 C   0  0  0  0  0  0  0  0  0  0  0  0
   -1.4251    2.1464   -0.2566 H   0  0  0  0  0  0  0  0  0  0  0  0
    1.1367    2.2081   -0.2687 H   0  0  0  0  0  0  0  0  0  0  0  0
    1.3860   -2.0616    0.1289 H   0  0  0  0  0  0  0  0  0  0  0  0
   -1.1320   -2.2374    0.1508 H   0  0  0  0  0  0  0  0  0  0  0  0
  1  2  1  0  0  0  0
  1 11  2  0  0  0  0
  2  3  1  0  0  0  0
  4  1  1  0  0  0  0
  5  4  2  0  0  0  0
  5  6  1  0  0  0  0
  6 10  2  0  0  0  0
  7  6  1  0  0  0  0
  7  9  2  0  0  0  0
  8  7  2  0  0  0  0
 10 11  1  0  0  0  0
 10 14  1  0  0  0  0
 11 15  1  0  0  0  0
 12  4  1  0  0  0  0
 13  5  1  0  0  0  0
M  RAD  2   2   2   3   3
M  END
