Coordinates from ORCA-job 4-NO2PhN2+_B3LYPG-6-31G_dp-d09-49-n800
 OpenBabel11261918563D

 15 15  0  0  0  0  0  0  0  0999 V2000
   -1.3585   -0.0785   -0.0501 C   0  0  0  0  0  0  0  0  0  0  0  0
   -2.7374   -0.1579   -0.0416 N   0  0  0  0  0  0  0  0  0  0  0  0
   -3.8496   -0.2220   -0.0348 N   0  0  0  0  0  0  0  0  0  0  0  0
   -0.7732    1.1979   -0.1693 C   0  0  0  0  0  0  0  0  0  0  0  0
    0.6118    1.2644   -0.1772 C   0  0  0  0  0  0  0  0  0  0  0  0
    1.3399    0.0782   -0.0677 C   0  0  0  0  0  0  0  0  0  0  0  0
    2.8312    0.1643   -0.0781 N   0  0  0  0  0  0  0  0  0  0  0  0
    3.3087    1.2828   -0.2019 O   0  0  0  0  0  0  0  0  0  0  0  0
    3.4355   -0.8946    0.0138 O   0  0  0  0  0  0  0  0  0  0  0  0
    0.7546   -1.1835    0.0505 C   0  0  0  0  0  0  0  0  0  0  0  0
   -0.6291   -1.2803    0.0609 C   0  0  0  0  0  0  0  0  0  0  0  0
   -1.4198    2.1392   -0.2561 H   0  0  0  0  0  0  0  0  0  0  0  0
    1.1362    2.2088   -0.2659 H   0  0  0  0  0  0  0  0  0  0  0  0
    1.3856   -2.0609    0.1317 H   0  0  0  0  0  0  0  0  0  0  0  0
   -1.1325   -2.2368    0.1506 H   0  0  0  0  0  0  0  0  0  0  0  0
  1  2  1  0  0  0  0
  1 11  2  0  0  0  0
  2  3  1  0  0  0  0
  4  1  1  0  0  0  0
  5  4  2  0  0  0  0
  5  6  1  0  0  0  0
  6 10  2  0  0  0  0
  7  6  1  0  0  0  0
  7  9  2  0  0  0  0
  8  7  2  0  0  0  0
 10 11  1  0  0  0  0
 10 14  1  0  0  0  0
 11 15  1  0  0  0  0
 12  4  1  0  0  0  0
 13  5  1  0  0  0  0
M  RAD  2   2   2   3   3
M  END
