Coordinates from ORCA-job 4-NO2PhN2+_B3LYPG-6-31G_dp-d09-49-n800
 OpenBabel11261918563D

 15 14  0  0  0  0  0  0  0  0999 V2000
   -1.3051   -0.1716   -0.0409 C   0  0  0  0  0  0  0  0  0  0  0  0
   -2.6845   -0.2259   -0.0328 N   0  0  0  0  0  0  0  0  0  0  0  0
   -3.7968   -0.2712   -0.0262 N   0  0  0  0  0  0  0  0  0  0  0  0
   -0.6822    1.0681   -0.1569 C   0  0  0  0  0  0  0  0  0  0  0  0
    0.6793    1.1961   -0.1721 C   0  0  0  0  0  0  0  0  0  0  0  0
    1.4012   -0.0018   -0.0629 C   0  0  0  0  0  0  0  0  0  0  0  0
    2.8985    0.0875   -0.0760 N   0  0  0  0  0  0  0  0  0  0  0  0
    3.3753    1.2060   -0.1870 O   0  0  0  0  0  0  0  0  0  0  0  0
    3.4992   -0.9722    0.0256 O   0  0  0  0  0  0  0  0  0  0  0  0
    0.8147   -1.2662    0.0557 C   0  0  0  0  0  0  0  0  0  0  0  0
   -0.5672   -1.3757    0.0691 C   0  0  0  0  0  0  0  0  0  0  0  0
   -2.3198    3.2830   -0.3640 H   0  0  0  0  0  0  0  0  0  0  0  0
    1.2068    2.1408   -0.2613 H   0  0  0  0  0  0  0  0  0  0  0  0
    1.4503   -2.1401    0.1351 H   0  0  0  0  0  0  0  0  0  0  0  0
   -1.0661   -2.3358    0.1593 H   0  0  0  0  0  0  0  0  0  0  0  0
  1  2  1  0  0  0  0
  1 11  2  0  0  0  0
  2  3  1  0  0  0  0
  4  1  1  0  0  0  0
  5  4  2  0  0  0  0
  5  6  1  0  0  0  0
  6 10  2  0  0  0  0
  7  6  1  0  0  0  0
  7  9  2  0  0  0  0
  8  7  2  0  0  0  0
 10 11  1  0  0  0  0
 10 14  1  0  0  0  0
 11 15  1  0  0  0  0
 13  5  1  0  0  0  0
M  RAD  4   2   2   3   3   4   2  12   2
M  END
