Coordinates from ORCA-job 4-NO2PhN2+_B3LYPG-6-31G_dp-d09-49-n800
 OpenBabel11261918563D

 15 14  0  0  0  0  0  0  0  0999 V2000
   -1.2724   -0.3391   -0.0240 C   0  0  0  0  0  0  0  0  0  0  0  0
   -2.6546   -0.4481   -0.0108 N   0  0  0  0  0  0  0  0  0  0  0  0
   -3.7652   -0.5273   -0.0011 N   0  0  0  0  0  0  0  0  0  0  0  0
   -0.7144    0.9280   -0.1422 C   0  0  0  0  0  0  0  0  0  0  0  0
    0.6459    1.0969   -0.1612 C   0  0  0  0  0  0  0  0  0  0  0  0
    1.4143   -0.0714   -0.0562 C   0  0  0  0  0  0  0  0  0  0  0  0
    2.9087    0.0767   -0.0756 N   0  0  0  0  0  0  0  0  0  0  0  0
    3.3443    1.2121   -0.1825 O   0  0  0  0  0  0  0  0  0  0  0  0
    3.5504   -0.9601    0.0176 O   0  0  0  0  0  0  0  0  0  0  0  0
    0.8789   -1.3596    0.0641 C   0  0  0  0  0  0  0  0  0  0  0  0
   -0.4963   -1.5209    0.0828 C   0  0  0  0  0  0  0  0  0  0  0  0
   -2.6707    4.7838   -0.5098 H   0  0  0  0  0  0  0  0  0  0  0  0
    1.1472    2.0573   -0.2507 H   0  0  0  0  0  0  0  0  0  0  0  0
    1.5477   -2.2083    0.1400 H   0  0  0  0  0  0  0  0  0  0  0  0
   -0.9601   -2.4988    0.1743 H   0  0  0  0  0  0  0  0  0  0  0  0
  1  2  1  0  0  0  0
  1 11  2  0  0  0  0
  2  3  1  0  0  0  0
  4  1  1  0  0  0  0
  5  4  2  0  0  0  0
  5  6  1  0  0  0  0
  6 10  2  0  0  0  0
  7  6  1  0  0  0  0
  7  9  2  0  0  0  0
  8  7  2  0  0  0  0
 10 11  1  0  0  0  0
 10 14  1  0  0  0  0
 11 15  1  0  0  0  0
 13  5  1  0  0  0  0
M  RAD  4   2   2   3   3   4   2  12   2
M  END
