Coordinates from ORCA-job 4-NO2PhN2+_B3LYPG-6-31G_dp-d09-49-n800
 OpenBabel11261918563D

 15 14  0  0  0  0  0  0  0  0999 V2000
   -1.2822   -0.2199   -0.0364 C   0  0  0  0  0  0  0  0  0  0  0  0
   -2.6641   -0.2849   -0.0281 N   0  0  0  0  0  0  0  0  0  0  0  0
   -3.7762   -0.3359   -0.0201 N   0  0  0  0  0  0  0  0  0  0  0  0
   -0.6731    1.0246   -0.1531 C   0  0  0  0  0  0  0  0  0  0  0  0
    0.6886    1.1582   -0.1686 C   0  0  0  0  0  0  0  0  0  0  0  0
    1.4184   -0.0351   -0.0599 C   0  0  0  0  0  0  0  0  0  0  0  0
    2.9165    0.0652   -0.0741 N   0  0  0  0  0  0  0  0  0  0  0  0
    3.3867    1.1862   -0.1847 O   0  0  0  0  0  0  0  0  0  0  0  0
    3.5238   -0.9911    0.0264 O   0  0  0  0  0  0  0  0  0  0  0  0
    0.8408   -1.3042    0.0594 C   0  0  0  0  0  0  0  0  0  0  0  0
   -0.5396   -1.4224    0.0736 C   0  0  0  0  0  0  0  0  0  0  0  0
   -2.6005    3.8354   -0.4149 H   0  0  0  0  0  0  0  0  0  0  0  0
    1.2156    2.1043   -0.2578 H   0  0  0  0  0  0  0  0  0  0  0  0
    1.4820   -2.1738    0.1386 H   0  0  0  0  0  0  0  0  0  0  0  0
   -1.0333   -2.3855    0.1643 H   0  0  0  0  0  0  0  0  0  0  0  0
  1  2  1  0  0  0  0
  1 11  2  0  0  0  0
  2  3  1  0  0  0  0
  4  1  1  0  0  0  0
  5  4  2  0  0  0  0
  5  6  1  0  0  0  0
  6 10  2  0  0  0  0
  7  6  1  0  0  0  0
  7  9  2  0  0  0  0
  8  7  2  0  0  0  0
 10 11  1  0  0  0  0
 10 14  1  0  0  0  0
 11 15  1  0  0  0  0
 13  5  1  0  0  0  0
M  RAD  4   2   2   3   3   4   2  12   2
M  END
