Coordinates from ORCA-job 4-NO2PhN2+_B3LYPG-6-31G_dp-d09-49-n800
 OpenBabel11261918563D

 15 14  0  0  0  0  0  0  0  0999 V2000
   -1.2732   -0.2671   -0.0314 C   0  0  0  0  0  0  0  0  0  0  0  0
   -2.6559   -0.3477   -0.0215 N   0  0  0  0  0  0  0  0  0  0  0  0
   -3.7677   -0.4081   -0.0138 N   0  0  0  0  0  0  0  0  0  0  0  0
   -0.6838    0.9862   -0.1489 C   0  0  0  0  0  0  0  0  0  0  0  0
    0.6781    1.1300   -0.1654 C   0  0  0  0  0  0  0  0  0  0  0  0
    1.4214   -0.0545   -0.0580 C   0  0  0  0  0  0  0  0  0  0  0  0
    2.9186    0.0626   -0.0741 N   0  0  0  0  0  0  0  0  0  0  0  0
    3.3770    1.1885   -0.1836 O   0  0  0  0  0  0  0  0  0  0  0  0
    3.5379   -0.9871    0.0238 O   0  0  0  0  0  0  0  0  0  0  0  0
    0.8585   -1.3306    0.0619 C   0  0  0  0  0  0  0  0  0  0  0  0
   -0.5201   -1.4633    0.0776 C   0  0  0  0  0  0  0  0  0  0  0  0
   -2.6903    4.2561   -0.4559 H   0  0  0  0  0  0  0  0  0  0  0  0
    1.1976    2.0806   -0.2547 H   0  0  0  0  0  0  0  0  0  0  0  0
    1.5092   -2.1931    0.1400 H   0  0  0  0  0  0  0  0  0  0  0  0
   -1.0040   -2.4313    0.1687 H   0  0  0  0  0  0  0  0  0  0  0  0
  1  2  1  0  0  0  0
  1 11  2  0  0  0  0
  2  3  1  0  0  0  0
  4  1  1  0  0  0  0
  5  4  2  0  0  0  0
  5  6  1  0  0  0  0
  6 10  2  0  0  0  0
  7  6  1  0  0  0  0
  7  9  2  0  0  0  0
  8  7  2  0  0  0  0
 10 11  1  0  0  0  0
 10 14  1  0  0  0  0
 11 15  1  0  0  0  0
 13  5  1  0  0  0  0
M  RAD  4   2   2   3   3   4   2  12   2
M  END
