Coordinates from ORCA-job 4-NO2PhN2+_B3LYPG-6-31G_dp-d09-49-n800
 OpenBabel11261918563D

 15 14  0  0  0  0  0  0  0  0999 V2000
   -1.3093   -0.1661   -0.0415 C   0  0  0  0  0  0  0  0  0  0  0  0
   -2.6882   -0.2202   -0.0341 N   0  0  0  0  0  0  0  0  0  0  0  0
   -3.8005   -0.2658   -0.0279 N   0  0  0  0  0  0  0  0  0  0  0  0
   -0.6860    1.0740   -0.1580 C   0  0  0  0  0  0  0  0  0  0  0  0
    0.6758    1.2012   -0.1730 C   0  0  0  0  0  0  0  0  0  0  0  0
    1.3975    0.0034   -0.0635 C   0  0  0  0  0  0  0  0  0  0  0  0
    2.8946    0.0922   -0.0766 N   0  0  0  0  0  0  0  0  0  0  0  0
    3.3715    1.2106   -0.1879 O   0  0  0  0  0  0  0  0  0  0  0  0
    3.4952   -0.9676    0.0253 O   0  0  0  0  0  0  0  0  0  0  0  0
    0.8108   -1.2607    0.0556 C   0  0  0  0  0  0  0  0  0  0  0  0
   -0.5712   -1.3697    0.0689 C   0  0  0  0  0  0  0  0  0  0  0  0
   -2.2653    3.2081   -0.3549 H   0  0  0  0  0  0  0  0  0  0  0  0
    1.2026    2.1461   -0.2624 H   0  0  0  0  0  0  0  0  0  0  0  0
    1.4463   -2.1347    0.1354 H   0  0  0  0  0  0  0  0  0  0  0  0
   -1.0702   -2.3297    0.1595 H   0  0  0  0  0  0  0  0  0  0  0  0
  1  2  1  0  0  0  0
  1 11  2  0  0  0  0
  2  3  1  0  0  0  0
  4  1  1  0  0  0  0
  5  4  2  0  0  0  0
  5  6  1  0  0  0  0
  6 10  2  0  0  0  0
  7  6  1  0  0  0  0
  7  9  2  0  0  0  0
  8  7  2  0  0  0  0
 10 11  1  0  0  0  0
 10 14  1  0  0  0  0
 11 15  1  0  0  0  0
 13  5  1  0  0  0  0
M  RAD  4   2   2   3   3   4   2  12   2
M  END
