Coordinates from ORCA-job 4-NO2PhN2+_B3LYPG-6-31G_dp-d09-49-n800
 OpenBabel11261918563D

 15 14  0  0  0  0  0  0  0  0999 V2000
   -1.2894   -0.1999   -0.0381 C   0  0  0  0  0  0  0  0  0  0  0  0
   -2.6704   -0.2595   -0.0301 N   0  0  0  0  0  0  0  0  0  0  0  0
   -3.7827   -0.3076   -0.0237 N   0  0  0  0  0  0  0  0  0  0  0  0
   -0.6735    1.0418   -0.1547 C   0  0  0  0  0  0  0  0  0  0  0  0
    0.6879    1.1723   -0.1701 C   0  0  0  0  0  0  0  0  0  0  0  0
    1.4136   -0.0235   -0.0610 C   0  0  0  0  0  0  0  0  0  0  0  0
    2.9117    0.0714   -0.0748 N   0  0  0  0  0  0  0  0  0  0  0  0
    3.3853    1.1910   -0.1856 O   0  0  0  0  0  0  0  0  0  0  0  0
    3.5154   -0.9867    0.0264 O   0  0  0  0  0  0  0  0  0  0  0  0
    0.8314   -1.2903    0.0582 C   0  0  0  0  0  0  0  0  0  0  0  0
   -0.5497   -1.4038    0.0720 C   0  0  0  0  0  0  0  0  0  0  0  0
   -2.5157    3.6263   -0.3949 H   0  0  0  0  0  0  0  0  0  0  0  0
    1.2165    2.1173   -0.2592 H   0  0  0  0  0  0  0  0  0  0  0  0
    1.4696   -2.1622    0.1376 H   0  0  0  0  0  0  0  0  0  0  0  0
   -1.0465   -2.3653    0.1627 H   0  0  0  0  0  0  0  0  0  0  0  0
  1  2  1  0  0  0  0
  1 11  2  0  0  0  0
  2  3  1  0  0  0  0
  4  1  1  0  0  0  0
  5  4  2  0  0  0  0
  5  6  1  0  0  0  0
  6 10  2  0  0  0  0
  7  6  1  0  0  0  0
  7  9  2  0  0  0  0
  8  7  2  0  0  0  0
 10 11  1  0  0  0  0
 10 14  1  0  0  0  0
 11 15  1  0  0  0  0
 13  5  1  0  0  0  0
M  RAD  4   2   2   3   3   4   2  12   2
M  END
