Coordinates from ORCA-job 4-NO2PhN2+_B3LYPG-6-31G_dp-d09-49-n800
 OpenBabel11261918563D

 15 15  0  0  0  0  0  0  0  0999 V2000
   -1.3630   -0.0679   -0.0509 C   0  0  0  0  0  0  0  0  0  0  0  0
   -2.7427   -0.1485   -0.0407 N   0  0  0  0  0  0  0  0  0  0  0  0
   -3.8550   -0.2128   -0.0325 N   0  0  0  0  0  0  0  0  0  0  0  0
   -0.7825    1.2120   -0.1712 C   0  0  0  0  0  0  0  0  0  0  0  0
    0.6044    1.2711   -0.1797 C   0  0  0  0  0  0  0  0  0  0  0  0
    1.3339    0.0862   -0.0711 C   0  0  0  0  0  0  0  0  0  0  0  0
    2.8248    0.1723   -0.0836 N   0  0  0  0  0  0  0  0  0  0  0  0
    3.3022    1.2922   -0.1955 O   0  0  0  0  0  0  0  0  0  0  0  0
    3.4295   -0.8855    0.0186 O   0  0  0  0  0  0  0  0  0  0  0  0
    0.7485   -1.1750    0.0478 C   0  0  0  0  0  0  0  0  0  0  0  0
   -0.6356   -1.2701    0.0596 C   0  0  0  0  0  0  0  0  0  0  0  0
   -1.3286    2.0104   -0.2448 H   0  0  0  0  0  0  0  0  0  0  0  0
    1.1288    2.2158   -0.2693 H   0  0  0  0  0  0  0  0  0  0  0  0
    1.3787   -2.0531    0.1282 H   0  0  0  0  0  0  0  0  0  0  0  0
   -1.1399   -2.2259    0.1499 H   0  0  0  0  0  0  0  0  0  0  0  0
  1  2  1  0  0  0  0
  1 11  2  0  0  0  0
  2  3  1  0  0  0  0
  4  1  1  0  0  0  0
  5  4  2  0  0  0  0
  5  6  1  0  0  0  0
  6 10  2  0  0  0  0
  7  6  1  0  0  0  0
  7  9  2  0  0  0  0
  8  7  2  0  0  0  0
 10 11  1  0  0  0  0
 10 14  1  0  0  0  0
 11 15  1  0  0  0  0
 12  4  1  0  0  0  0
 13  5  1  0  0  0  0
M  RAD  2   2   2   3   3
M  END
