Coordinates from ORCA-job 4-NO2PhN2+_B3LYPG-6-31G_dp-d09-49-n800
 OpenBabel11261918563D

 15 15  0  0  0  0  0  0  0  0999 V2000
   -1.3627   -0.0685   -0.0509 C   0  0  0  0  0  0  0  0  0  0  0  0
   -2.7424   -0.1492   -0.0412 N   0  0  0  0  0  0  0  0  0  0  0  0
   -3.8547   -0.2135   -0.0334 N   0  0  0  0  0  0  0  0  0  0  0  0
   -0.7820    1.2113   -0.1709 C   0  0  0  0  0  0  0  0  0  0  0  0
    0.6049    1.2707   -0.1791 C   0  0  0  0  0  0  0  0  0  0  0  0
    1.3342    0.0858   -0.0702 C   0  0  0  0  0  0  0  0  0  0  0  0
    2.8252    0.1720   -0.0821 N   0  0  0  0  0  0  0  0  0  0  0  0
    3.3026    1.2915   -0.1974 O   0  0  0  0  0  0  0  0  0  0  0  0
    3.4298   -0.8862    0.0167 O   0  0  0  0  0  0  0  0  0  0  0  0
    0.7488   -1.1754    0.0484 C   0  0  0  0  0  0  0  0  0  0  0  0
   -0.6353   -1.2706    0.0598 C   0  0  0  0  0  0  0  0  0  0  0  0
   -1.3338    2.0179   -0.2455 H   0  0  0  0  0  0  0  0  0  0  0  0
    1.1292    2.2154   -0.2684 H   0  0  0  0  0  0  0  0  0  0  0  0
    1.3791   -2.0535    0.1291 H   0  0  0  0  0  0  0  0  0  0  0  0
   -1.1395   -2.2265    0.1499 H   0  0  0  0  0  0  0  0  0  0  0  0
  1  2  1  0  0  0  0
  1 11  2  0  0  0  0
  2  3  1  0  0  0  0
  4  1  1  0  0  0  0
  5  4  2  0  0  0  0
  5  6  1  0  0  0  0
  6 10  2  0  0  0  0
  7  6  1  0  0  0  0
  7  9  2  0  0  0  0
  8  7  2  0  0  0  0
 10 11  1  0  0  0  0
 10 14  1  0  0  0  0
 11 15  1  0  0  0  0
 12  4  1  0  0  0  0
 13  5  1  0  0  0  0
M  RAD  2   2   2   3   3
M  END
