Coordinates from ORCA-job 4-NO2PhN2+_B3LYPG-6-31G_dp-d09-49-n800
 OpenBabel11261918563D

 15 14  0  0  0  0  0  0  0  0999 V2000
   -1.2812   -0.4262   -0.0127 C   0  0  0  0  0  0  0  0  0  0  0  0
   -2.6604   -0.5754    0.0046 N   0  0  0  0  0  0  0  0  0  0  0  0
   -3.7684   -0.6844    0.0175 N   0  0  0  0  0  0  0  0  0  0  0  0
   -0.7647    0.8585   -0.1292 C   0  0  0  0  0  0  0  0  0  0  0  0
    0.5913    1.0648   -0.1524 C   0  0  0  0  0  0  0  0  0  0  0  0
    1.3945   -0.0801   -0.0546 C   0  0  0  0  0  0  0  0  0  0  0  0
    2.8837    0.1121   -0.0796 N   0  0  0  0  0  0  0  0  0  0  0  0
    3.2859    1.2604   -0.1809 O   0  0  0  0  0  0  0  0  0  0  0  0
    3.5566   -0.9058    0.0037 O   0  0  0  0  0  0  0  0  0  0  0  0
    0.8981   -1.3842    0.0638 C   0  0  0  0  0  0  0  0  0  0  0  0
   -0.4716   -1.5857    0.0875 C   0  0  0  0  0  0  0  0  0  0  0  0
   -2.5112    5.3180   -0.5745 H   0  0  0  0  0  0  0  0  0  0  0  0
    1.0650    2.0393   -0.2407 H   0  0  0  0  0  0  0  0  0  0  0  0
    1.5919   -2.2130    0.1343 H   0  0  0  0  0  0  0  0  0  0  0  0
   -0.9062   -2.5770    0.1778 H   0  0  0  0  0  0  0  0  0  0  0  0
  1  2  1  0  0  0  0
  1 11  2  0  0  0  0
  2  3  1  0  0  0  0
  4  1  1  0  0  0  0
  5  4  2  0  0  0  0
  5  6  1  0  0  0  0
  6 10  2  0  0  0  0
  7  6  1  0  0  0  0
  7  9  2  0  0  0  0
  8  7  2  0  0  0  0
 10 11  1  0  0  0  0
 10 14  1  0  0  0  0
 11 15  1  0  0  0  0
 13  5  1  0  0  0  0
M  RAD  4   2   2   3   3   4   2  12   2
M  END
