Coordinates from ORCA-job 4-NO2PhN2+_B3LYPG-6-31G_dp-d09-49-n800
 OpenBabel11261918563D

 15 14  0  0  0  0  0  0  0  0999 V2000
   -1.3353   -0.1292   -0.0450 C   0  0  0  0  0  0  0  0  0  0  0  0
   -2.7123   -0.1897   -0.0373 N   0  0  0  0  0  0  0  0  0  0  0  0
   -3.8246   -0.2410   -0.0309 N   0  0  0  0  0  0  0  0  0  0  0  0
   -0.7204    1.1208   -0.1626 C   0  0  0  0  0  0  0  0  0  0  0  0
    0.6482    1.2328   -0.1760 C   0  0  0  0  0  0  0  0  0  0  0  0
    1.3712    0.0385   -0.0665 C   0  0  0  0  0  0  0  0  0  0  0  0
    2.8653    0.1246   -0.0792 N   0  0  0  0  0  0  0  0  0  0  0  0
    3.3429    1.2436   -0.1918 O   0  0  0  0  0  0  0  0  0  0  0  0
    3.4674   -0.9344    0.0224 O   0  0  0  0  0  0  0  0  0  0  0  0
    0.7848   -1.2248    0.0526 C   0  0  0  0  0  0  0  0  0  0  0  0
   -0.5978   -1.3306    0.0654 C   0  0  0  0  0  0  0  0  0  0  0  0
   -1.8791    2.7213   -0.3090 H   0  0  0  0  0  0  0  0  0  0  0  0
    1.1708    2.1784   -0.2657 H   0  0  0  0  0  0  0  0  0  0  0  0
    1.4194   -2.0995    0.1327 H   0  0  0  0  0  0  0  0  0  0  0  0
   -1.0971   -2.2899    0.1559 H   0  0  0  0  0  0  0  0  0  0  0  0
  1  2  1  0  0  0  0
  1 11  2  0  0  0  0
  2  3  1  0  0  0  0
  4  1  1  0  0  0  0
  5  4  2  0  0  0  0
  5  6  1  0  0  0  0
  6 10  2  0  0  0  0
  7  6  1  0  0  0  0
  7  9  2  0  0  0  0
  8  7  2  0  0  0  0
 10 11  1  0  0  0  0
 10 14  1  0  0  0  0
 11 15  1  0  0  0  0
 13  5  1  0  0  0  0
M  RAD  4   2   2   3   3   4   2  12   2
M  END
