Coordinates from ORCA-job 4-NO2PhN2+_B3LYPG-6-31G_dp-d09-49-n800
 OpenBabel11261918563D

 15 14  0  0  0  0  0  0  0  0999 V2000
   -1.2772   -0.2401   -0.0343 C   0  0  0  0  0  0  0  0  0  0  0  0
   -2.6596   -0.3116   -0.0257 N   0  0  0  0  0  0  0  0  0  0  0  0
   -3.7716   -0.3664   -0.0183 N   0  0  0  0  0  0  0  0  0  0  0  0
   -0.6764    1.0082   -0.1514 C   0  0  0  0  0  0  0  0  0  0  0  0
    0.6855    1.1453   -0.1670 C   0  0  0  0  0  0  0  0  0  0  0  0
    1.4207   -0.0445   -0.0585 C   0  0  0  0  0  0  0  0  0  0  0  0
    2.9186    0.0626   -0.0732 N   0  0  0  0  0  0  0  0  0  0  0  0
    3.3842    1.1853   -0.1853 O   0  0  0  0  0  0  0  0  0  0  0  0
    3.5306   -0.9913    0.0246 O   0  0  0  0  0  0  0  0  0  0  0  0
    0.8490   -1.3164    0.0610 C   0  0  0  0  0  0  0  0  0  0  0  0
   -0.5306   -1.4403    0.0755 C   0  0  0  0  0  0  0  0  0  0  0  0
   -2.6532    4.0259   -0.4329 H   0  0  0  0  0  0  0  0  0  0  0  0
    1.2100    2.0930   -0.2561 H   0  0  0  0  0  0  0  0  0  0  0  0
    1.4940   -2.1833    0.1399 H   0  0  0  0  0  0  0  0  0  0  0  0
   -1.0206   -2.4053    0.1664 H   0  0  0  0  0  0  0  0  0  0  0  0
  1  2  1  0  0  0  0
  1 11  2  0  0  0  0
  2  3  1  0  0  0  0
  4  1  1  0  0  0  0
  5  4  2  0  0  0  0
  5  6  1  0  0  0  0
  6 10  2  0  0  0  0
  7  6  1  0  0  0  0
  7  9  2  0  0  0  0
  8  7  2  0  0  0  0
 10 11  1  0  0  0  0
 10 14  1  0  0  0  0
 11 15  1  0  0  0  0
 13  5  1  0  0  0  0
M  RAD  4   2   2   3   3   4   2  12   2
M  END
