Coordinates from ORCA-job 4-NO2PhN2+_B3LYPG-6-31G_dp-d09-49-n800
 OpenBabel11261918563D

 15 14  0  0  0  0  0  0  0  0999 V2000
   -1.3320   -0.1344   -0.0445 C   0  0  0  0  0  0  0  0  0  0  0  0
   -2.7091   -0.1932   -0.0369 N   0  0  0  0  0  0  0  0  0  0  0  0
   -3.8214   -0.2432   -0.0304 N   0  0  0  0  0  0  0  0  0  0  0  0
   -0.7147    1.1132   -0.1620 C   0  0  0  0  0  0  0  0  0  0  0  0
    0.6524    1.2288   -0.1758 C   0  0  0  0  0  0  0  0  0  0  0  0
    1.3749    0.0337   -0.0663 C   0  0  0  0  0  0  0  0  0  0  0  0
    2.8695    0.1201   -0.0791 N   0  0  0  0  0  0  0  0  0  0  0  0
    3.3470    1.2390   -0.1909 O   0  0  0  0  0  0  0  0  0  0  0  0
    3.4713   -0.9390    0.0231 O   0  0  0  0  0  0  0  0  0  0  0  0
    0.7884   -1.2296    0.0529 C   0  0  0  0  0  0  0  0  0  0  0  0
   -0.5942   -1.3361    0.0659 C   0  0  0  0  0  0  0  0  0  0  0  0
   -1.9338    2.7872   -0.3152 H   0  0  0  0  0  0  0  0  0  0  0  0
    1.1753    2.1744   -0.2655 H   0  0  0  0  0  0  0  0  0  0  0  0
    1.4231   -2.1042    0.1329 H   0  0  0  0  0  0  0  0  0  0  0  0
   -1.0933   -2.2955    0.1564 H   0  0  0  0  0  0  0  0  0  0  0  0
  1  2  1  0  0  0  0
  1 11  2  0  0  0  0
  2  3  1  0  0  0  0
  4  1  1  0  0  0  0
  5  4  2  0  0  0  0
  5  6  1  0  0  0  0
  6 10  2  0  0  0  0
  7  6  1  0  0  0  0
  7  9  2  0  0  0  0
  8  7  2  0  0  0  0
 10 11  1  0  0  0  0
 10 14  1  0  0  0  0
 11 15  1  0  0  0  0
 13  5  1  0  0  0  0
M  RAD  4   2   2   3   3   4   2  12   2
M  END
