Coordinates from ORCA-job 4-NO2PhN2+_B3LYPG-6-31G_dp-d09-49-n800
 OpenBabel11261918563D

 15 14  0  0  0  0  0  0  0  0999 V2000
   -1.2716   -0.2972   -0.0291 C   0  0  0  0  0  0  0  0  0  0  0  0
   -2.6543   -0.3892   -0.0188 N   0  0  0  0  0  0  0  0  0  0  0  0
   -3.7657   -0.4560   -0.0035 N   0  0  0  0  0  0  0  0  0  0  0  0
   -0.6951    0.9621   -0.1465 C   0  0  0  0  0  0  0  0  0  0  0  0
    0.6664    1.1152   -0.1638 C   0  0  0  0  0  0  0  0  0  0  0  0
    1.4197   -0.0630   -0.0575 C   0  0  0  0  0  0  0  0  0  0  0  0
    2.9159    0.0664   -0.0748 N   0  0  0  0  0  0  0  0  0  0  0  0
    3.3655    1.1963   -0.1812 O   0  0  0  0  0  0  0  0  0  0  0  0
    3.5441   -0.9781    0.0230 O   0  0  0  0  0  0  0  0  0  0  0  0
    0.8677   -1.3440    0.0622 C   0  0  0  0  0  0  0  0  0  0  0  0
   -0.5096   -1.4879    0.0789 C   0  0  0  0  0  0  0  0  0  0  0  0
   -2.6985    4.4879   -0.4807 H   0  0  0  0  0  0  0  0  0  0  0  0
    1.1791    2.0696   -0.2529 H   0  0  0  0  0  0  0  0  0  0  0  0
    1.5256   -2.2011    0.1394 H   0  0  0  0  0  0  0  0  0  0  0  0
   -0.9857   -2.4599    0.1698 H   0  0  0  0  0  0  0  0  0  0  0  0
  1  2  1  0  0  0  0
  1 11  2  0  0  0  0
  2  3  1  0  0  0  0
  4  1  1  0  0  0  0
  5  4  2  0  0  0  0
  5  6  1  0  0  0  0
  6 10  2  0  0  0  0
  7  6  1  0  0  0  0
  7  9  2  0  0  0  0
  8  7  2  0  0  0  0
 10 11  1  0  0  0  0
 10 14  1  0  0  0  0
 11 15  1  0  0  0  0
 13  5  1  0  0  0  0
M  RAD  4   2   2   3   3   4   2  12   2
M  END
