Coordinates from ORCA-job 4-NO2PhN2+_B3LYPG-6-31G_dp-d09-49-n800
 OpenBabel11261918563D

 15 14  0  0  0  0  0  0  0  0999 V2000
   -1.3218   -0.1493   -0.0432 C   0  0  0  0  0  0  0  0  0  0  0  0
   -2.6996   -0.2048   -0.0364 N   0  0  0  0  0  0  0  0  0  0  0  0
   -3.8119   -0.2519   -0.0308 N   0  0  0  0  0  0  0  0  0  0  0  0
   -0.6999    1.0935   -0.1596 C   0  0  0  0  0  0  0  0  0  0  0  0
    0.6640    1.2166   -0.1735 C   0  0  0  0  0  0  0  0  0  0  0  0
    1.3858    0.0198   -0.0636 C   0  0  0  0  0  0  0  0  0  0  0  0
    2.8816    0.1071   -0.0757 N   0  0  0  0  0  0  0  0  0  0  0  0
    3.3589    1.2252   -0.1923 O   0  0  0  0  0  0  0  0  0  0  0  0
    3.4825   -0.9529    0.0209 O   0  0  0  0  0  0  0  0  0  0  0  0
    0.7988   -1.2439    0.0551 C   0  0  0  0  0  0  0  0  0  0  0  0
   -0.5835   -1.3518    0.0675 C   0  0  0  0  0  0  0  0  0  0  0  0
   -2.0914    2.9814   -0.3340 H   0  0  0  0  0  0  0  0  0  0  0  0
    1.1884    2.1620   -0.2627 H   0  0  0  0  0  0  0  0  0  0  0  0
    1.4339   -2.1181    0.1352 H   0  0  0  0  0  0  0  0  0  0  0  0
   -1.0825   -2.3116    0.1578 H   0  0  0  0  0  0  0  0  0  0  0  0
  1  2  1  0  0  0  0
  1 11  2  0  0  0  0
  2  3  1  0  0  0  0
  4  1  1  0  0  0  0
  5  4  2  0  0  0  0
  5  6  1  0  0  0  0
  6 10  2  0  0  0  0
  7  6  1  0  0  0  0
  7  9  2  0  0  0  0
  8  7  2  0  0  0  0
 10 11  1  0  0  0  0
 10 14  1  0  0  0  0
 11 15  1  0  0  0  0
 13  5  1  0  0  0  0
M  RAD  4   2   2   3   3   4   2  12   2
M  END
