Coordinates from ORCA-job 4-NO2PhN2+_B3LYPG-6-31G_dp-d09-49-n800
 OpenBabel11261918563D

 15 14  0  0  0  0  0  0  0  0999 V2000
   -1.2721   -0.3267   -0.0251 C   0  0  0  0  0  0  0  0  0  0  0  0
   -2.6544   -0.4309   -0.0129 N   0  0  0  0  0  0  0  0  0  0  0  0
   -3.7653   -0.5069   -0.0039 N   0  0  0  0  0  0  0  0  0  0  0  0
   -0.7089    0.9385   -0.1432 C   0  0  0  0  0  0  0  0  0  0  0  0
    0.6519    1.1021   -0.1617 C   0  0  0  0  0  0  0  0  0  0  0  0
    1.4159   -0.0690   -0.0564 C   0  0  0  0  0  0  0  0  0  0  0  0
    2.9109    0.0737   -0.0754 N   0  0  0  0  0  0  0  0  0  0  0  0
    3.3506    1.2074   -0.1829 O   0  0  0  0  0  0  0  0  0  0  0  0
    3.5486   -0.9655    0.0185 O   0  0  0  0  0  0  0  0  0  0  0  0
    0.8757   -1.3551    0.0639 C   0  0  0  0  0  0  0  0  0  0  0  0
   -0.5002   -1.5111    0.0821 C   0  0  0  0  0  0  0  0  0  0  0  0
   -2.6795    4.6974   -0.5008 H   0  0  0  0  0  0  0  0  0  0  0  0
    1.1568    2.0607   -0.2513 H   0  0  0  0  0  0  0  0  0  0  0  0
    1.5412   -2.2063    0.1402 H   0  0  0  0  0  0  0  0  0  0  0  0
   -0.9678   -2.4872    0.1736 H   0  0  0  0  0  0  0  0  0  0  0  0
  1  2  1  0  0  0  0
  1 11  2  0  0  0  0
  2  3  1  0  0  0  0
  4  1  1  0  0  0  0
  5  4  2  0  0  0  0
  5  6  1  0  0  0  0
  6 10  2  0  0  0  0
  7  6  1  0  0  0  0
  7  9  2  0  0  0  0
  8  7  2  0  0  0  0
 10 11  1  0  0  0  0
 10 14  1  0  0  0  0
 11 15  1  0  0  0  0
 13  5  1  0  0  0  0
M  RAD  4   2   2   3   3   4   2  12   2
M  END
