Coordinates from ORCA-job 4-NO2PhN2+_B3LYPG-6-31G_dp-d09-49-n800
 OpenBabel11261918563D

 15 14  0  0  0  0  0  0  0  0999 V2000
   -1.3395   -0.1218   -0.0458 C   0  0  0  0  0  0  0  0  0  0  0  0
   -2.7164   -0.1851   -0.0386 N   0  0  0  0  0  0  0  0  0  0  0  0
   -3.8287   -0.2384   -0.0325 N   0  0  0  0  0  0  0  0  0  0  0  0
   -0.7284    1.1318   -0.1634 C   0  0  0  0  0  0  0  0  0  0  0  0
    0.6425    1.2382   -0.1756 C   0  0  0  0  0  0  0  0  0  0  0  0
    1.3660    0.0450   -0.0659 C   0  0  0  0  0  0  0  0  0  0  0  0
    2.8596    0.1310   -0.0776 N   0  0  0  0  0  0  0  0  0  0  0  0
    3.3372    1.2495   -0.1956 O   0  0  0  0  0  0  0  0  0  0  0  0
    3.4622   -0.9283    0.0190 O   0  0  0  0  0  0  0  0  0  0  0  0
    0.7800   -1.2181    0.0530 C   0  0  0  0  0  0  0  0  0  0  0  0
   -0.6028   -1.3230    0.0649 C   0  0  0  0  0  0  0  0  0  0  0  0
   -1.8049    2.6315   -0.3008 H   0  0  0  0  0  0  0  0  0  0  0  0
    1.1648    2.1837   -0.2649 H   0  0  0  0  0  0  0  0  0  0  0  0
    1.4142   -2.0931    0.1334 H   0  0  0  0  0  0  0  0  0  0  0  0
   -1.1023   -2.2820    0.1551 H   0  0  0  0  0  0  0  0  0  0  0  0
  1  2  1  0  0  0  0
  1 11  2  0  0  0  0
  2  3  1  0  0  0  0
  4  1  1  0  0  0  0
  5  4  2  0  0  0  0
  5  6  1  0  0  0  0
  6 10  2  0  0  0  0
  7  6  1  0  0  0  0
  7  9  2  0  0  0  0
  8  7  2  0  0  0  0
 10 11  1  0  0  0  0
 10 14  1  0  0  0  0
 11 15  1  0  0  0  0
 13  5  1  0  0  0  0
M  RAD  4   2   2   3   3   4   2  12   2
M  END
