Coordinates from ORCA-job 4-NO2PhN2+_B3LYPG-6-31G_dp-d09-49-n800
 OpenBabel11261918563D

 15 15  0  0  0  0  0  0  0  0999 V2000
   -1.3520   -0.0948   -0.0483 C   0  0  0  0  0  0  0  0  0  0  0  0
   -2.7297   -0.1689   -0.0390 N   0  0  0  0  0  0  0  0  0  0  0  0
   -3.8420   -0.2297   -0.0315 N   0  0  0  0  0  0  0  0  0  0  0  0
   -0.7573    1.1735   -0.1674 C   0  0  0  0  0  0  0  0  0  0  0  0
    0.6228    1.2547   -0.1783 C   0  0  0  0  0  0  0  0  0  0  0  0
    1.3491    0.0660   -0.0694 C   0  0  0  0  0  0  0  0  0  0  0  0
    2.8410    0.1516   -0.0819 N   0  0  0  0  0  0  0  0  0  0  0  0
    3.3188    1.2710   -0.1946 O   0  0  0  0  0  0  0  0  0  0  0  0
    3.4450   -0.9065    0.0212 O   0  0  0  0  0  0  0  0  0  0  0  0
    0.7638   -1.1964    0.0498 C   0  0  0  0  0  0  0  0  0  0  0  0
   -0.6194   -1.2962    0.0620 C   0  0  0  0  0  0  0  0  0  0  0  0
   -1.5579    2.3239   -0.2726 H   0  0  0  0  0  0  0  0  0  0  0  0
    1.1463    2.1993   -0.2677 H   0  0  0  0  0  0  0  0  0  0  0  0
    1.3962   -2.0728    0.1301 H   0  0  0  0  0  0  0  0  0  0  0  0
   -1.1211   -2.2537    0.1524 H   0  0  0  0  0  0  0  0  0  0  0  0
  1  2  1  0  0  0  0
  1 11  2  0  0  0  0
  2  3  1  0  0  0  0
  4  1  1  0  0  0  0
  5  4  2  0  0  0  0
  5  6  1  0  0  0  0
  6 10  2  0  0  0  0
  7  6  1  0  0  0  0
  7  9  2  0  0  0  0
  8  7  2  0  0  0  0
 10 11  1  0  0  0  0
 10 14  1  0  0  0  0
 11 15  1  0  0  0  0
 12  4  1  0  0  0  0
 13  5  1  0  0  0  0
M  RAD  2   2   2   3   3
M  END
