Coordinates from ORCA-job 4-NO2PhN2+_B3LYPG-6-31G_dp-d09-49-n800
 OpenBabel11261918563D

 15 14  0  0  0  0  0  0  0  0999 V2000
   -1.2715   -0.3043   -0.0273 C   0  0  0  0  0  0  0  0  0  0  0  0
   -2.6542   -0.3992   -0.0161 N   0  0  0  0  0  0  0  0  0  0  0  0
   -3.7655   -0.4685   -0.0079 N   0  0  0  0  0  0  0  0  0  0  0  0
   -0.6981    0.9562   -0.1450 C   0  0  0  0  0  0  0  0  0  0  0  0
    0.6632    1.1118   -0.1629 C   0  0  0  0  0  0  0  0  0  0  0  0
    1.4190   -0.0647   -0.0569 C   0  0  0  0  0  0  0  0  0  0  0  0
    2.9150    0.0678   -0.0749 N   0  0  0  0  0  0  0  0  0  0  0  0
    3.3622    1.1985   -0.1831 O   0  0  0  0  0  0  0  0  0  0  0  0
    3.5454   -0.9756    0.0205 O   0  0  0  0  0  0  0  0  0  0  0  0
    0.8698   -1.3469    0.0632 C   0  0  0  0  0  0  0  0  0  0  0  0
   -0.5072   -1.4936    0.0805 C   0  0  0  0  0  0  0  0  0  0  0  0
   -2.6970    4.5416   -0.4852 H   0  0  0  0  0  0  0  0  0  0  0  0
    1.1741    2.0672   -0.2523 H   0  0  0  0  0  0  0  0  0  0  0  0
    1.5295   -2.2026    0.1401 H   0  0  0  0  0  0  0  0  0  0  0  0
   -0.9813   -2.4665    0.1717 H   0  0  0  0  0  0  0  0  0  0  0  0
  1  2  1  0  0  0  0
  1 11  2  0  0  0  0
  2  3  1  0  0  0  0
  4  1  1  0  0  0  0
  5  4  2  0  0  0  0
  5  6  1  0  0  0  0
  6 10  2  0  0  0  0
  7  6  1  0  0  0  0
  7  9  2  0  0  0  0
  8  7  2  0  0  0  0
 10 11  1  0  0  0  0
 10 14  1  0  0  0  0
 11 15  1  0  0  0  0
 13  5  1  0  0  0  0
M  RAD  4   2   2   3   3   4   2  12   2
M  END
