Coordinates from ORCA-job 4-NO2PhN2+_B3LYPG-6-31G_dp-d09-49-n800
 OpenBabel11261918563D

 15 14  0  0  0  0  0  0  0  0999 V2000
   -1.3005   -0.1782   -0.0402 C   0  0  0  0  0  0  0  0  0  0  0  0
   -2.6802   -0.2333   -0.0322 N   0  0  0  0  0  0  0  0  0  0  0  0
   -3.7926   -0.2791   -0.0257 N   0  0  0  0  0  0  0  0  0  0  0  0
   -0.6784    1.0615   -0.1569 C   0  0  0  0  0  0  0  0  0  0  0  0
    0.6829    1.1899   -0.1725 C   0  0  0  0  0  0  0  0  0  0  0  0
    1.4051   -0.0079   -0.0633 C   0  0  0  0  0  0  0  0  0  0  0  0
    2.9028    0.0822   -0.0771 N   0  0  0  0  0  0  0  0  0  0  0  0
    3.3792    1.2010   -0.1850 O   0  0  0  0  0  0  0  0  0  0  0  0
    3.5037   -0.9771    0.0279 O   0  0  0  0  0  0  0  0  0  0  0  0
    0.8192   -1.2726    0.0561 C   0  0  0  0  0  0  0  0  0  0  0  0
   -0.5625   -1.3826    0.0699 C   0  0  0  0  0  0  0  0  0  0  0  0
   -2.3803    3.3719   -0.3706 H   0  0  0  0  0  0  0  0  0  0  0  0
    1.2112    2.1344   -0.2619 H   0  0  0  0  0  0  0  0  0  0  0  0
    1.4551   -2.1463    0.1355 H   0  0  0  0  0  0  0  0  0  0  0  0
   -1.0614   -2.3428    0.1607 H   0  0  0  0  0  0  0  0  0  0  0  0
  1  2  1  0  0  0  0
  1 11  2  0  0  0  0
  2  3  1  0  0  0  0
  4  1  1  0  0  0  0
  5  4  2  0  0  0  0
  5  6  1  0  0  0  0
  6 10  2  0  0  0  0
  7  6  1  0  0  0  0
  7  9  2  0  0  0  0
  8  7  2  0  0  0  0
 10 11  1  0  0  0  0
 10 14  1  0  0  0  0
 11 15  1  0  0  0  0
 13  5  1  0  0  0  0
M  RAD  4   2   2   3   3   4   2  12   2
M  END
