Coordinates from ORCA-job 4-NO2PhN2+_B3LYPG-6-31G_dp-d09-49-n800
 OpenBabel11261918563D

 15 14  0  0  0  0  0  0  0  0999 V2000
   -1.3260   -0.1434   -0.0436 C   0  0  0  0  0  0  0  0  0  0  0  0
   -2.7035   -0.1999   -0.0361 N   0  0  0  0  0  0  0  0  0  0  0  0
   -3.8158   -0.2479   -0.0298 N   0  0  0  0  0  0  0  0  0  0  0  0
   -0.7055    1.1010   -0.1607 C   0  0  0  0  0  0  0  0  0  0  0  0
    0.6594    1.2216   -0.1750 C   0  0  0  0  0  0  0  0  0  0  0  0
    1.3815    0.0253   -0.0655 C   0  0  0  0  0  0  0  0  0  0  0  0
    2.8768    0.1122   -0.0784 N   0  0  0  0  0  0  0  0  0  0  0  0
    3.3542    1.2309   -0.1898 O   0  0  0  0  0  0  0  0  0  0  0  0
    3.4781   -0.9472    0.0235 O   0  0  0  0  0  0  0  0  0  0  0  0
    0.7946   -1.2382    0.0537 C   0  0  0  0  0  0  0  0  0  0  0  0
   -0.5878   -1.3456    0.0667 C   0  0  0  0  0  0  0  0  0  0  0  0
   -2.0285    2.9030   -0.3264 H   0  0  0  0  0  0  0  0  0  0  0  0
    1.1832    2.1671   -0.2646 H   0  0  0  0  0  0  0  0  0  0  0  0
    1.4296   -2.1126    0.1335 H   0  0  0  0  0  0  0  0  0  0  0  0
   -1.0868   -2.3052    0.1573 H   0  0  0  0  0  0  0  0  0  0  0  0
  1  2  1  0  0  0  0
  1 11  2  0  0  0  0
  2  3  1  0  0  0  0
  4  1  1  0  0  0  0
  5  4  2  0  0  0  0
  5  6  1  0  0  0  0
  6 10  2  0  0  0  0
  7  6  1  0  0  0  0
  7  9  2  0  0  0  0
  8  7  2  0  0  0  0
 10 11  1  0  0  0  0
 10 14  1  0  0  0  0
 11 15  1  0  0  0  0
 13  5  1  0  0  0  0
M  RAD  4   2   2   3   3   4   2  12   2
M  END
