Coordinates from ORCA-job 4-NO2PhN2+_B3LYPG-6-31G_dp-d09-49-n800
 OpenBabel11261918563D

 15 14  0  0  0  0  0  0  0  0999 V2000
   -1.3331   -0.1328   -0.0447 C   0  0  0  0  0  0  0  0  0  0  0  0
   -2.7101   -0.1921   -0.0371 N   0  0  0  0  0  0  0  0  0  0  0  0
   -3.8224   -0.2425   -0.0307 N   0  0  0  0  0  0  0  0  0  0  0  0
   -0.7165    1.1156   -0.1621 C   0  0  0  0  0  0  0  0  0  0  0  0
    0.6511    1.2301   -0.1758 C   0  0  0  0  0  0  0  0  0  0  0  0
    1.3737    0.0352   -0.0662 C   0  0  0  0  0  0  0  0  0  0  0  0
    2.8682    0.1215   -0.0789 N   0  0  0  0  0  0  0  0  0  0  0  0
    3.3457    1.2404   -0.1915 O   0  0  0  0  0  0  0  0  0  0  0  0
    3.4701   -0.9376    0.0225 O   0  0  0  0  0  0  0  0  0  0  0  0
    0.7872   -1.2281    0.0530 C   0  0  0  0  0  0  0  0  0  0  0  0
   -0.5953   -1.3344    0.0657 C   0  0  0  0  0  0  0  0  0  0  0  0
   -1.9164    2.7664   -0.3133 H   0  0  0  0  0  0  0  0  0  0  0  0
    1.1738    2.1757   -0.2654 H   0  0  0  0  0  0  0  0  0  0  0  0
    1.4220   -2.1027    0.1330 H   0  0  0  0  0  0  0  0  0  0  0  0
   -1.0945   -2.2938    0.1563 H   0  0  0  0  0  0  0  0  0  0  0  0
  1  2  1  0  0  0  0
  1 11  2  0  0  0  0
  2  3  1  0  0  0  0
  4  1  1  0  0  0  0
  5  4  2  0  0  0  0
  5  6  1  0  0  0  0
  6 10  2  0  0  0  0
  7  6  1  0  0  0  0
  7  9  2  0  0  0  0
  8  7  2  0  0  0  0
 10 11  1  0  0  0  0
 10 14  1  0  0  0  0
 11 15  1  0  0  0  0
 13  5  1  0  0  0  0
M  RAD  4   2   2   3   3   4   2  12   2
M  END
