Coordinates from ORCA-job 4-NO2PhN2+_B3LYPG-6-31G_dp-d09-49-n800
 OpenBabel11261918563D

 15 14  0  0  0  0  0  0  0  0999 V2000
   -1.3059   -0.1703   -0.0412 C   0  0  0  0  0  0  0  0  0  0  0  0
   -2.6852   -0.2245   -0.0338 N   0  0  0  0  0  0  0  0  0  0  0  0
   -3.7976   -0.2696   -0.0261 N   0  0  0  0  0  0  0  0  0  0  0  0
   -0.6827    1.0692   -0.1574 C   0  0  0  0  0  0  0  0  0  0  0  0
    0.6788    1.1972   -0.1724 C   0  0  0  0  0  0  0  0  0  0  0  0
    1.4006   -0.0007   -0.0631 C   0  0  0  0  0  0  0  0  0  0  0  0
    2.8978    0.0883   -0.0761 N   0  0  0  0  0  0  0  0  0  0  0  0
    3.3748    1.2068   -0.1871 O   0  0  0  0  0  0  0  0  0  0  0  0
    3.4984   -0.9714    0.0255 O   0  0  0  0  0  0  0  0  0  0  0  0
    0.8139   -1.2650    0.0558 C   0  0  0  0  0  0  0  0  0  0  0  0
   -0.5680   -1.3744    0.0690 C   0  0  0  0  0  0  0  0  0  0  0  0
   -2.3101    3.2670   -0.3617 H   0  0  0  0  0  0  0  0  0  0  0  0
    1.2062    2.1420   -0.2616 H   0  0  0  0  0  0  0  0  0  0  0  0
    1.4495   -2.1390    0.1354 H   0  0  0  0  0  0  0  0  0  0  0  0
   -1.0670   -2.3344    0.1595 H   0  0  0  0  0  0  0  0  0  0  0  0
  1  2  1  0  0  0  0
  1 11  2  0  0  0  0
  2  3  1  0  0  0  0
  4  1  1  0  0  0  0
  5  4  2  0  0  0  0
  5  6  1  0  0  0  0
  6 10  2  0  0  0  0
  7  6  1  0  0  0  0
  7  9  2  0  0  0  0
  8  7  2  0  0  0  0
 10 11  1  0  0  0  0
 10 14  1  0  0  0  0
 11 15  1  0  0  0  0
 13  5  1  0  0  0  0
M  RAD  4   2   2   3   3   4   2  12   2
M  END
