Coordinates from ORCA-job 4-NO2PhN2+_B3LYPG-6-31G_dp-d09-49-n800
 OpenBabel11261918563D

 15 14  0  0  0  0  0  0  0  0999 V2000
   -1.2886   -0.2019   -0.0380 C   0  0  0  0  0  0  0  0  0  0  0  0
   -2.6697   -0.2620   -0.0299 N   0  0  0  0  0  0  0  0  0  0  0  0
   -3.7820   -0.3105   -0.0234 N   0  0  0  0  0  0  0  0  0  0  0  0
   -0.6733    1.0401   -0.1546 C   0  0  0  0  0  0  0  0  0  0  0  0
    0.6881    1.1709   -0.1699 C   0  0  0  0  0  0  0  0  0  0  0  0
    1.4141   -0.0248   -0.0609 C   0  0  0  0  0  0  0  0  0  0  0  0
    2.9122    0.0707   -0.0747 N   0  0  0  0  0  0  0  0  0  0  0  0
    3.3856    1.1904   -0.1855 O   0  0  0  0  0  0  0  0  0  0  0  0
    3.5163   -0.9873    0.0265 O   0  0  0  0  0  0  0  0  0  0  0  0
    0.8323   -1.2917    0.0583 C   0  0  0  0  0  0  0  0  0  0  0  0
   -0.5486   -1.4057    0.0722 C   0  0  0  0  0  0  0  0  0  0  0  0
   -2.5254    3.6480   -0.3969 H   0  0  0  0  0  0  0  0  0  0  0  0
    1.2166    2.1159   -0.2591 H   0  0  0  0  0  0  0  0  0  0  0  0
    1.4708   -2.1634    0.1377 H   0  0  0  0  0  0  0  0  0  0  0  0
   -1.0451   -2.3673    0.1629 H   0  0  0  0  0  0  0  0  0  0  0  0
  1  2  1  0  0  0  0
  1 11  2  0  0  0  0
  2  3  1  0  0  0  0
  4  1  1  0  0  0  0
  5  4  2  0  0  0  0
  5  6  1  0  0  0  0
  6 10  2  0  0  0  0
  7  6  1  0  0  0  0
  7  9  2  0  0  0  0
  8  7  2  0  0  0  0
 10 11  1  0  0  0  0
 10 14  1  0  0  0  0
 11 15  1  0  0  0  0
 13  5  1  0  0  0  0
M  RAD  4   2   2   3   3   4   2  12   2
M  END
