Coordinates from ORCA-job 4-NO2PhN2+_B3LYPG-6-31G_dp-d09-49-n800
 OpenBabel11261918563D

 15 15  0  0  0  0  0  0  0  0999 V2000
   -1.3574   -0.0813   -0.0496 C   0  0  0  0  0  0  0  0  0  0  0  0
   -2.7361   -0.1598   -0.0397 N   0  0  0  0  0  0  0  0  0  0  0  0
   -3.8483   -0.2234   -0.0317 N   0  0  0  0  0  0  0  0  0  0  0  0
   -0.7705    1.1938   -0.1694 C   0  0  0  0  0  0  0  0  0  0  0  0
    0.6137    1.2626   -0.1791 C   0  0  0  0  0  0  0  0  0  0  0  0
    1.3414    0.0759   -0.0704 C   0  0  0  0  0  0  0  0  0  0  0  0
    2.8328    0.1617   -0.0827 N   0  0  0  0  0  0  0  0  0  0  0  0
    3.3105    1.2813   -0.1953 O   0  0  0  0  0  0  0  0  0  0  0  0
    3.4372   -0.8962    0.0205 O   0  0  0  0  0  0  0  0  0  0  0  0
    0.7562   -1.1860    0.0487 C   0  0  0  0  0  0  0  0  0  0  0  0
   -0.6274   -1.2831    0.0606 C   0  0  0  0  0  0  0  0  0  0  0  0
   -1.4435    2.1716   -0.2588 H   0  0  0  0  0  0  0  0  0  0  0  0
    1.1381    2.2069   -0.2685 H   0  0  0  0  0  0  0  0  0  0  0  0
    1.3874   -2.0632    0.1291 H   0  0  0  0  0  0  0  0  0  0  0  0
   -1.1305   -2.2397    0.1510 H   0  0  0  0  0  0  0  0  0  0  0  0
  1  2  1  0  0  0  0
  1 11  2  0  0  0  0
  2  3  1  0  0  0  0
  4  1  1  0  0  0  0
  5  4  2  0  0  0  0
  5  6  1  0  0  0  0
  6 10  2  0  0  0  0
  7  6  1  0  0  0  0
  7  9  2  0  0  0  0
  8  7  2  0  0  0  0
 10 11  1  0  0  0  0
 10 14  1  0  0  0  0
 11 15  1  0  0  0  0
 12  4  1  0  0  0  0
 13  5  1  0  0  0  0
M  RAD  2   2   2   3   3
M  END
