Coordinates from ORCA-job 4-NO2PhN2+_B3LYPG-6-31G_dp-d09-49-n800
 OpenBabel11261918563D

 15 14  0  0  0  0  0  0  0  0999 V2000
   -1.2721   -0.2836   -0.0295 C   0  0  0  0  0  0  0  0  0  0  0  0
   -2.6550   -0.3703   -0.0191 N   0  0  0  0  0  0  0  0  0  0  0  0
   -3.7665   -0.4342   -0.0113 N   0  0  0  0  0  0  0  0  0  0  0  0
   -0.6894    0.9727   -0.1470 C   0  0  0  0  0  0  0  0  0  0  0  0
    0.6721    1.1219   -0.1642 C   0  0  0  0  0  0  0  0  0  0  0  0
    1.4208   -0.0594   -0.0574 C   0  0  0  0  0  0  0  0  0  0  0  0
    2.9175    0.0642   -0.0744 N   0  0  0  0  0  0  0  0  0  0  0  0
    3.3712    1.1922   -0.1833 O   0  0  0  0  0  0  0  0  0  0  0  0
    3.5415   -0.9829    0.0224 O   0  0  0  0  0  0  0  0  0  0  0  0
    0.8637   -1.3381    0.0624 C   0  0  0  0  0  0  0  0  0  0  0  0
   -0.5142   -1.4769    0.0789 C   0  0  0  0  0  0  0  0  0  0  0  0
   -2.6986    4.3860   -0.4693 H   0  0  0  0  0  0  0  0  0  0  0  0
    1.1879    2.0745   -0.2535 H   0  0  0  0  0  0  0  0  0  0  0  0
    1.5183   -2.1977    0.1400 H   0  0  0  0  0  0  0  0  0  0  0  0
   -0.9939   -2.4471    0.1700 H   0  0  0  0  0  0  0  0  0  0  0  0
  1  2  1  0  0  0  0
  1 11  2  0  0  0  0
  2  3  1  0  0  0  0
  4  1  1  0  0  0  0
  5  4  2  0  0  0  0
  5  6  1  0  0  0  0
  6 10  2  0  0  0  0
  7  6  1  0  0  0  0
  7  9  2  0  0  0  0
  8  7  2  0  0  0  0
 10 11  1  0  0  0  0
 10 14  1  0  0  0  0
 11 15  1  0  0  0  0
 13  5  1  0  0  0  0
M  RAD  4   2   2   3   3   4   2  12   2
M  END
