Coordinates from ORCA-job 4-NO2PhN2+_B3LYPG-6-31G_dp-d09-49-n800
 OpenBabel11261918563D

 15 14  0  0  0  0  0  0  0  0999 V2000
   -1.2770   -0.2406   -0.0342 C   0  0  0  0  0  0  0  0  0  0  0  0
   -2.6593   -0.3123   -0.0252 N   0  0  0  0  0  0  0  0  0  0  0  0
   -3.7714   -0.3673   -0.0182 N   0  0  0  0  0  0  0  0  0  0  0  0
   -0.6766    1.0080   -0.1514 C   0  0  0  0  0  0  0  0  0  0  0  0
    0.6854    1.1449   -0.1673 C   0  0  0  0  0  0  0  0  0  0  0  0
    1.4207   -0.0448   -0.0589 C   0  0  0  0  0  0  0  0  0  0  0  0
    2.9185    0.0624   -0.0739 N   0  0  0  0  0  0  0  0  0  0  0  0
    3.3840    1.1854   -0.1845 O   0  0  0  0  0  0  0  0  0  0  0  0
    3.5308   -0.9912    0.0255 O   0  0  0  0  0  0  0  0  0  0  0  0
    0.8492   -1.3168    0.0608 C   0  0  0  0  0  0  0  0  0  0  0  0
   -0.5304   -1.4407    0.0756 C   0  0  0  0  0  0  0  0  0  0  0  0
   -2.6545    4.0309   -0.4332 H   0  0  0  0  0  0  0  0  0  0  0  0
    1.2100    2.0925   -0.2565 H   0  0  0  0  0  0  0  0  0  0  0  0
    1.4942   -2.1836    0.1396 H   0  0  0  0  0  0  0  0  0  0  0  0
   -1.0203   -2.4058    0.1666 H   0  0  0  0  0  0  0  0  0  0  0  0
  1  2  1  0  0  0  0
  1 11  2  0  0  0  0
  2  3  1  0  0  0  0
  4  1  1  0  0  0  0
  5  4  2  0  0  0  0
  5  6  1  0  0  0  0
  6 10  2  0  0  0  0
  7  6  1  0  0  0  0
  7  9  2  0  0  0  0
  8  7  2  0  0  0  0
 10 11  1  0  0  0  0
 10 14  1  0  0  0  0
 11 15  1  0  0  0  0
 13  5  1  0  0  0  0
M  RAD  4   2   2   3   3   4   2  12   2
M  END
