Coordinates from ORCA-job 4-NO2PhN2+_B3LYPG-6-31G_dp-d09-49-n800
 OpenBabel11261918563D

 15 14  0  0  0  0  0  0  0  0999 V2000
   -1.2823   -0.2195   -0.0363 C   0  0  0  0  0  0  0  0  0  0  0  0
   -2.6642   -0.2845   -0.0280 N   0  0  0  0  0  0  0  0  0  0  0  0
   -3.7764   -0.3355   -0.0213 N   0  0  0  0  0  0  0  0  0  0  0  0
   -0.6732    1.0251   -0.1530 C   0  0  0  0  0  0  0  0  0  0  0  0
    0.6885    1.1586   -0.1684 C   0  0  0  0  0  0  0  0  0  0  0  0
    1.4183   -0.0348   -0.0596 C   0  0  0  0  0  0  0  0  0  0  0  0
    2.9164    0.0654   -0.0737 N   0  0  0  0  0  0  0  0  0  0  0  0
    3.3867    1.1862   -0.1856 O   0  0  0  0  0  0  0  0  0  0  0  0
    3.5236   -0.9911    0.0255 O   0  0  0  0  0  0  0  0  0  0  0  0
    0.8406   -1.3038    0.0597 C   0  0  0  0  0  0  0  0  0  0  0  0
   -0.5398   -1.4220    0.0738 C   0  0  0  0  0  0  0  0  0  0  0  0
   -2.5986    3.8311   -0.4144 H   0  0  0  0  0  0  0  0  0  0  0  0
    1.2157    2.1046   -0.2574 H   0  0  0  0  0  0  0  0  0  0  0  0
    1.4817   -2.1736    0.1389 H   0  0  0  0  0  0  0  0  0  0  0  0
   -1.0336   -2.3851    0.1645 H   0  0  0  0  0  0  0  0  0  0  0  0
  1  2  1  0  0  0  0
  1 11  2  0  0  0  0
  2  3  1  0  0  0  0
  4  1  1  0  0  0  0
  5  4  2  0  0  0  0
  5  6  1  0  0  0  0
  6 10  2  0  0  0  0
  7  6  1  0  0  0  0
  7  9  2  0  0  0  0
  8  7  2  0  0  0  0
 10 11  1  0  0  0  0
 10 14  1  0  0  0  0
 11 15  1  0  0  0  0
 13  5  1  0  0  0  0
M  RAD  4   2   2   3   3   4   2  12   2
M  END
