Coordinates from ORCA-job 4-NO2PhN2+_B3LYPG-6-31G_dp-d09-49-n800
 OpenBabel11261918563D

 15 14  0  0  0  0  0  0  0  0999 V2000
   -1.3286   -0.1396   -0.0440 C   0  0  0  0  0  0  0  0  0  0  0  0
   -2.7059   -0.1970   -0.0361 N   0  0  0  0  0  0  0  0  0  0  0  0
   -3.8182   -0.2458   -0.0296 N   0  0  0  0  0  0  0  0  0  0  0  0
   -0.7094    1.1061   -0.1613 C   0  0  0  0  0  0  0  0  0  0  0  0
    0.6565    1.2246   -0.1757 C   0  0  0  0  0  0  0  0  0  0  0  0
    1.3787    0.0288   -0.0663 C   0  0  0  0  0  0  0  0  0  0  0  0
    2.8737    0.1154   -0.0796 N   0  0  0  0  0  0  0  0  0  0  0  0
    3.3512    1.2345   -0.1891 O   0  0  0  0  0  0  0  0  0  0  0  0
    3.4752   -0.9436    0.0245 O   0  0  0  0  0  0  0  0  0  0  0  0
    0.7920   -1.2345    0.0530 C   0  0  0  0  0  0  0  0  0  0  0  0
   -0.5905   -1.3416    0.0663 C   0  0  0  0  0  0  0  0  0  0  0  0
   -1.9883    2.8538   -0.3215 H   0  0  0  0  0  0  0  0  0  0  0  0
    1.1798    2.1702   -0.2655 H   0  0  0  0  0  0  0  0  0  0  0  0
    1.4269   -2.1090    0.1328 H   0  0  0  0  0  0  0  0  0  0  0  0
   -1.0896   -2.3011    0.1570 H   0  0  0  0  0  0  0  0  0  0  0  0
  1  2  1  0  0  0  0
  1 11  2  0  0  0  0
  2  3  1  0  0  0  0
  4  1  1  0  0  0  0
  5  4  2  0  0  0  0
  5  6  1  0  0  0  0
  6 10  2  0  0  0  0
  7  6  1  0  0  0  0
  7  9  2  0  0  0  0
  8  7  2  0  0  0  0
 10 11  1  0  0  0  0
 10 14  1  0  0  0  0
 11 15  1  0  0  0  0
 13  5  1  0  0  0  0
M  RAD  4   2   2   3   3   4   2  12   2
M  END
