Coordinates from ORCA-job 4-NO2PhN2+_B3LYPG-6-31G_dp-d09-49-n800
 OpenBabel11261918563D

 15 14  0  0  0  0  0  0  0  0999 V2000
   -1.2723   -0.3321   -0.0246 C   0  0  0  0  0  0  0  0  0  0  0  0
   -2.6546   -0.4384   -0.0121 N   0  0  0  0  0  0  0  0  0  0  0  0
   -3.7653   -0.5157   -0.0028 N   0  0  0  0  0  0  0  0  0  0  0  0
   -0.7112    0.9337   -0.1427 C   0  0  0  0  0  0  0  0  0  0  0  0
    0.6493    1.0999   -0.1615 C   0  0  0  0  0  0  0  0  0  0  0  0
    1.4152   -0.0700   -0.0563 C   0  0  0  0  0  0  0  0  0  0  0  0
    2.9100    0.0750   -0.0755 N   0  0  0  0  0  0  0  0  0  0  0  0
    3.3479    1.2094   -0.1828 O   0  0  0  0  0  0  0  0  0  0  0  0
    3.5494   -0.9632    0.0181 O   0  0  0  0  0  0  0  0  0  0  0  0
    0.8771   -1.3570    0.0640 C   0  0  0  0  0  0  0  0  0  0  0  0
   -0.4985   -1.5154    0.0825 C   0  0  0  0  0  0  0  0  0  0  0  0
   -2.6757    4.7351   -0.5047 H   0  0  0  0  0  0  0  0  0  0  0  0
    1.1525    2.0594   -0.2510 H   0  0  0  0  0  0  0  0  0  0  0  0
    1.5440   -2.2071    0.1402 H   0  0  0  0  0  0  0  0  0  0  0  0
   -0.9644   -2.4923    0.1740 H   0  0  0  0  0  0  0  0  0  0  0  0
  1  2  1  0  0  0  0
  1 11  2  0  0  0  0
  2  3  1  0  0  0  0
  4  1  1  0  0  0  0
  5  4  2  0  0  0  0
  5  6  1  0  0  0  0
  6 10  2  0  0  0  0
  7  6  1  0  0  0  0
  7  9  2  0  0  0  0
  8  7  2  0  0  0  0
 10 11  1  0  0  0  0
 10 14  1  0  0  0  0
 11 15  1  0  0  0  0
 13  5  1  0  0  0  0
M  RAD  4   2   2   3   3   4   2  12   2
M  END
