Coordinates from ORCA-job 4-NO2PhN2+_B3LYPG-6-31G_dp-d09-49-n800
 OpenBabel11261918563D

 15 15  0  0  0  0  0  0  0  0999 V2000
   -1.3501   -0.0995   -0.0478 C   0  0  0  0  0  0  0  0  0  0  0  0
   -2.7276   -0.1717   -0.0388 N   0  0  0  0  0  0  0  0  0  0  0  0
   -3.8399   -0.2313   -0.0315 N   0  0  0  0  0  0  0  0  0  0  0  0
   -0.7524    1.1661   -0.1667 C   0  0  0  0  0  0  0  0  0  0  0  0
    0.6261    1.2521   -0.1780 C   0  0  0  0  0  0  0  0  0  0  0  0
    1.3518    0.0625   -0.0691 C   0  0  0  0  0  0  0  0  0  0  0  0
    2.8440    0.1481   -0.0816 N   0  0  0  0  0  0  0  0  0  0  0  0
    3.3218    1.2675   -0.1941 O   0  0  0  0  0  0  0  0  0  0  0  0
    3.4478   -0.9101    0.0213 O   0  0  0  0  0  0  0  0  0  0  0  0
    0.7664   -1.2000    0.0501 C   0  0  0  0  0  0  0  0  0  0  0  0
   -0.6166   -1.3008    0.0625 C   0  0  0  0  0  0  0  0  0  0  0  0
   -1.5986    2.3761   -0.2774 H   0  0  0  0  0  0  0  0  0  0  0  0
    1.1493    2.1968   -0.2675 H   0  0  0  0  0  0  0  0  0  0  0  0
    1.3993   -2.0761    0.1304 H   0  0  0  0  0  0  0  0  0  0  0  0
   -1.1179   -2.2586    0.1529 H   0  0  0  0  0  0  0  0  0  0  0  0
  1  2  1  0  0  0  0
  1 11  2  0  0  0  0
  2  3  1  0  0  0  0
  4  1  1  0  0  0  0
  5  4  2  0  0  0  0
  5  6  1  0  0  0  0
  6 10  2  0  0  0  0
  7  6  1  0  0  0  0
  7  9  2  0  0  0  0
  8  7  2  0  0  0  0
 10 11  1  0  0  0  0
 10 14  1  0  0  0  0
 11 15  1  0  0  0  0
 12  4  1  0  0  0  0
 13  5  1  0  0  0  0
M  RAD  2   2   2   3   3
M  END
