Coordinates from ORCA-job 4-NO2PhN2+_B3LYPG-6-31G_dp-d09-49-n800
 OpenBabel11261918563D

 15 14  0  0  0  0  0  0  0  0999 V2000
   -1.2907   -0.1972   -0.0387 C   0  0  0  0  0  0  0  0  0  0  0  0
   -2.6717   -0.2558   -0.0311 N   0  0  0  0  0  0  0  0  0  0  0  0
   -3.7840   -0.3033   -0.0228 N   0  0  0  0  0  0  0  0  0  0  0  0
   -0.6733    1.0435   -0.1550 C   0  0  0  0  0  0  0  0  0  0  0  0
    0.6877    1.1747   -0.1703 C   0  0  0  0  0  0  0  0  0  0  0  0
    1.4129   -0.0216   -0.0611 C   0  0  0  0  0  0  0  0  0  0  0  0
    2.9109    0.0725   -0.0747 N   0  0  0  0  0  0  0  0  0  0  0  0
    3.3850    1.1918   -0.1855 O   0  0  0  0  0  0  0  0  0  0  0  0
    3.5140   -0.9860    0.0265 O   0  0  0  0  0  0  0  0  0  0  0  0
    0.8299   -1.2880    0.0580 C   0  0  0  0  0  0  0  0  0  0  0  0
   -0.5513   -1.4013    0.0716 C   0  0  0  0  0  0  0  0  0  0  0  0
   -2.5016    3.5949   -0.3923 H   0  0  0  0  0  0  0  0  0  0  0  0
    1.2161    2.1197   -0.2594 H   0  0  0  0  0  0  0  0  0  0  0  0
    1.4677   -2.1602    0.1374 H   0  0  0  0  0  0  0  0  0  0  0  0
   -1.0482   -2.3626    0.1621 H   0  0  0  0  0  0  0  0  0  0  0  0
  1  2  1  0  0  0  0
  1 11  2  0  0  0  0
  2  3  1  0  0  0  0
  4  1  1  0  0  0  0
  5  4  2  0  0  0  0
  5  6  1  0  0  0  0
  6 10  2  0  0  0  0
  7  6  1  0  0  0  0
  7  9  2  0  0  0  0
  8  7  2  0  0  0  0
 10 11  1  0  0  0  0
 10 14  1  0  0  0  0
 11 15  1  0  0  0  0
 13  5  1  0  0  0  0
M  RAD  4   2   2   3   3   4   2  12   2
M  END
