Coordinates from ORCA-job 4-NO2PhN2+_B3LYPG-6-31G_dp-d09-49-n800
 OpenBabel11261918563D

 15 14  0  0  0  0  0  0  0  0999 V2000
   -1.2758   -0.3916   -0.0179 C   0  0  0  0  0  0  0  0  0  0  0  0
   -2.6565   -0.5235   -0.0030 N   0  0  0  0  0  0  0  0  0  0  0  0
   -3.7658   -0.6192    0.0079 N   0  0  0  0  0  0  0  0  0  0  0  0
   -0.7419    0.8859   -0.1363 C   0  0  0  0  0  0  0  0  0  0  0  0
    0.6163    1.0757   -0.1574 C   0  0  0  0  0  0  0  0  0  0  0  0
    1.4046   -0.0792   -0.0552 C   0  0  0  0  0  0  0  0  0  0  0  0
    2.8962    0.0940   -0.0777 N   0  0  0  0  0  0  0  0  0  0  0  0
    3.3129    1.2368   -0.1824 O   0  0  0  0  0  0  0  0  0  0  0  0
    3.5558   -0.9320    0.0109 O   0  0  0  0  0  0  0  0  0  0  0  0
    0.8915   -1.3766    0.0652 C   0  0  0  0  0  0  0  0  0  0  0  0
   -0.4807   -1.5608    0.0866 C   0  0  0  0  0  0  0  0  0  0  0  0
   -2.6017    5.1277   -0.5465 H   0  0  0  0  0  0  0  0  0  0  0  0
    1.1019    2.0442   -0.2470 H   0  0  0  0  0  0  0  0  0  0  0  0
    1.5746   -2.2138    0.1391 H   0  0  0  0  0  0  0  0  0  0  0  0
   -0.9279   -2.5463    0.1783 H   0  0  0  0  0  0  0  0  0  0  0  0
  1  2  1  0  0  0  0
  1 11  2  0  0  0  0
  2  3  1  0  0  0  0
  4  1  1  0  0  0  0
  5  4  2  0  0  0  0
  5  6  1  0  0  0  0
  6 10  2  0  0  0  0
  7  6  1  0  0  0  0
  7  9  2  0  0  0  0
  8  7  2  0  0  0  0
 10 11  1  0  0  0  0
 10 14  1  0  0  0  0
 11 15  1  0  0  0  0
 13  5  1  0  0  0  0
M  RAD  4   2   2   3   3   4   2  12   2
M  END
