Coordinates from ORCA-job 4-NO2PhN2+_B3LYPG-6-31G_dp-d09-49-n800
 OpenBabel11261918563D

 15 14  0  0  0  0  0  0  0  0999 V2000
   -1.3406   -0.1197   -0.0459 C   0  0  0  0  0  0  0  0  0  0  0  0
   -2.7175   -0.1837   -0.0378 N   0  0  0  0  0  0  0  0  0  0  0  0
   -3.8298   -0.2375   -0.0311 N   0  0  0  0  0  0  0  0  0  0  0  0
   -0.7306    1.1347   -0.1639 C   0  0  0  0  0  0  0  0  0  0  0  0
    0.6410    1.2395   -0.1768 C   0  0  0  0  0  0  0  0  0  0  0  0
    1.3647    0.0466   -0.0675 C   0  0  0  0  0  0  0  0  0  0  0  0
    2.8581    0.1324   -0.0803 N   0  0  0  0  0  0  0  0  0  0  0  0
    3.3358    1.2516   -0.1924 O   0  0  0  0  0  0  0  0  0  0  0  0
    3.4608   -0.9262    0.0223 O   0  0  0  0  0  0  0  0  0  0  0  0
    0.7786   -1.2165    0.0517 C   0  0  0  0  0  0  0  0  0  0  0  0
   -0.6041   -1.3210    0.0644 C   0  0  0  0  0  0  0  0  0  0  0  0
   -1.7851    2.6073   -0.2984 H   0  0  0  0  0  0  0  0  0  0  0  0
    1.1632    2.1849   -0.2665 H   0  0  0  0  0  0  0  0  0  0  0  0
    1.4128   -2.0915    0.1319 H   0  0  0  0  0  0  0  0  0  0  0  0
   -1.1038   -2.2798    0.1550 H   0  0  0  0  0  0  0  0  0  0  0  0
  1  2  1  0  0  0  0
  1 11  2  0  0  0  0
  2  3  1  0  0  0  0
  4  1  1  0  0  0  0
  5  4  2  0  0  0  0
  5  6  1  0  0  0  0
  6 10  2  0  0  0  0
  7  6  1  0  0  0  0
  7  9  2  0  0  0  0
  8  7  2  0  0  0  0
 10 11  1  0  0  0  0
 10 14  1  0  0  0  0
 11 15  1  0  0  0  0
 13  5  1  0  0  0  0
M  RAD  4   2   2   3   3   4   2  12   2
M  END
