Coordinates from ORCA-job 4-NO2PhN2+_B3LYPG-6-31G_dp-d09-49-n800
 OpenBabel11261918563D

 15 14  0  0  0  0  0  0  0  0999 V2000
   -1.2745   -0.3751   -0.0203 C   0  0  0  0  0  0  0  0  0  0  0  0
   -2.6557   -0.4997   -0.0062 N   0  0  0  0  0  0  0  0  0  0  0  0
   -3.7655   -0.5901    0.0042 N   0  0  0  0  0  0  0  0  0  0  0  0
   -0.7330    0.8993   -0.1393 C   0  0  0  0  0  0  0  0  0  0  0  0
    0.6260    1.0820   -0.1598 C   0  0  0  0  0  0  0  0  0  0  0  0
    1.4079   -0.0771   -0.0556 C   0  0  0  0  0  0  0  0  0  0  0  0
    2.9005    0.0881   -0.0769 N   0  0  0  0  0  0  0  0  0  0  0  0
    3.3233    1.2285   -0.1831 O   0  0  0  0  0  0  0  0  0  0  0  0
    3.5544   -0.9414    0.0141 O   0  0  0  0  0  0  0  0  0  0  0  0
    0.8877   -1.3715    0.0655 C   0  0  0  0  0  0  0  0  0  0  0  0
   -0.4856   -1.5483    0.0858 C   0  0  0  0  0  0  0  0  0  0  0  0
   -2.6270    5.0226   -0.5326 H   0  0  0  0  0  0  0  0  0  0  0  0
    1.1168    2.0478   -0.2500 H   0  0  0  0  0  0  0  0  0  0  0  0
    1.5662   -2.2124    0.1408 H   0  0  0  0  0  0  0  0  0  0  0  0
   -0.9381   -2.5314    0.1780 H   0  0  0  0  0  0  0  0  0  0  0  0
  1  2  1  0  0  0  0
  1 11  2  0  0  0  0
  2  3  1  0  0  0  0
  4  1  1  0  0  0  0
  5  4  2  0  0  0  0
  5  6  1  0  0  0  0
  6 10  2  0  0  0  0
  7  6  1  0  0  0  0
  7  9  2  0  0  0  0
  8  7  2  0  0  0  0
 10 11  1  0  0  0  0
 10 14  1  0  0  0  0
 11 15  1  0  0  0  0
 13  5  1  0  0  0  0
M  RAD  4   2   2   3   3   4   2  12   2
M  END
