Coordinates from ORCA-job 4-NO2PhN2+_B3LYPG-6-31G_dp-d09-49-n800
 OpenBabel11261918563D

 15 14  0  0  0  0  0  0  0  0999 V2000
   -1.3089   -0.1666   -0.0414 C   0  0  0  0  0  0  0  0  0  0  0  0
   -2.6878   -0.2208   -0.0340 N   0  0  0  0  0  0  0  0  0  0  0  0
   -3.8002   -0.2664   -0.0278 N   0  0  0  0  0  0  0  0  0  0  0  0
   -0.6856    1.0734   -0.1580 C   0  0  0  0  0  0  0  0  0  0  0  0
    0.6762    1.2007   -0.1731 C   0  0  0  0  0  0  0  0  0  0  0  0
    1.3979    0.0029   -0.0636 C   0  0  0  0  0  0  0  0  0  0  0  0
    2.8950    0.0917   -0.0768 N   0  0  0  0  0  0  0  0  0  0  0  0
    3.3719    1.2102   -0.1876 O   0  0  0  0  0  0  0  0  0  0  0  0
    3.4956   -0.9680    0.0256 O   0  0  0  0  0  0  0  0  0  0  0  0
    0.8112   -1.2612    0.0556 C   0  0  0  0  0  0  0  0  0  0  0  0
   -0.5708   -1.3703    0.0689 C   0  0  0  0  0  0  0  0  0  0  0  0
   -2.2707    3.2156   -0.3556 H   0  0  0  0  0  0  0  0  0  0  0  0
    1.2030    2.1456   -0.2625 H   0  0  0  0  0  0  0  0  0  0  0  0
    1.4467   -2.1352    0.1353 H   0  0  0  0  0  0  0  0  0  0  0  0
   -1.0698   -2.3303    0.1595 H   0  0  0  0  0  0  0  0  0  0  0  0
  1  2  1  0  0  0  0
  1 11  2  0  0  0  0
  2  3  1  0  0  0  0
  4  1  1  0  0  0  0
  5  4  2  0  0  0  0
  5  6  1  0  0  0  0
  6 10  2  0  0  0  0
  7  6  1  0  0  0  0
  7  9  2  0  0  0  0
  8  7  2  0  0  0  0
 10 11  1  0  0  0  0
 10 14  1  0  0  0  0
 11 15  1  0  0  0  0
 13  5  1  0  0  0  0
M  RAD  4   2   2   3   3   4   2  12   2
M  END
