Coordinates from ORCA-job 4-NO2PhN2+_B3LYPG-6-31G_dp-d09-49-n800
 OpenBabel11261918563D

 15 14  0  0  0  0  0  0  0  0999 V2000
   -1.2778   -0.2363   -0.0347 C   0  0  0  0  0  0  0  0  0  0  0  0
   -2.6602   -0.3066   -0.0257 N   0  0  0  0  0  0  0  0  0  0  0  0
   -3.7722   -0.3607   -0.0188 N   0  0  0  0  0  0  0  0  0  0  0  0
   -0.6757    1.0114   -0.1518 C   0  0  0  0  0  0  0  0  0  0  0  0
    0.6862    1.1474   -0.1676 C   0  0  0  0  0  0  0  0  0  0  0  0
    1.4204   -0.0430   -0.0592 C   0  0  0  0  0  0  0  0  0  0  0  0
    2.9183    0.0628   -0.0741 N   0  0  0  0  0  0  0  0  0  0  0  0
    3.3848    1.1854   -0.1844 O   0  0  0  0  0  0  0  0  0  0  0  0
    3.5295   -0.9913    0.0259 O   0  0  0  0  0  0  0  0  0  0  0  0
    0.8476   -1.3144    0.0605 C   0  0  0  0  0  0  0  0  0  0  0  0
   -0.5322   -1.4370    0.0752 C   0  0  0  0  0  0  0  0  0  0  0  0
   -2.6454    3.9919   -0.4294 H   0  0  0  0  0  0  0  0  0  0  0  0
    1.2113    2.0947   -0.2569 H   0  0  0  0  0  0  0  0  0  0  0  0
    1.4918   -2.1818    0.1394 H   0  0  0  0  0  0  0  0  0  0  0  0
   -1.0231   -2.4016    0.1662 H   0  0  0  0  0  0  0  0  0  0  0  0
  1  2  1  0  0  0  0
  1 11  2  0  0  0  0
  2  3  1  0  0  0  0
  4  1  1  0  0  0  0
  5  4  2  0  0  0  0
  5  6  1  0  0  0  0
  6 10  2  0  0  0  0
  7  6  1  0  0  0  0
  7  9  2  0  0  0  0
  8  7  2  0  0  0  0
 10 11  1  0  0  0  0
 10 14  1  0  0  0  0
 11 15  1  0  0  0  0
 13  5  1  0  0  0  0
M  RAD  4   2   2   3   3   4   2  12   2
M  END
