Coordinates from ORCA-job 4-NO2PhN2+_B3LYPG-6-31G_dp-d09-49-n800
 OpenBabel11261918563D

 15 14  0  0  0  0  0  0  0  0999 V2000
   -1.2858   -0.2088   -0.0373 C   0  0  0  0  0  0  0  0  0  0  0  0
   -2.6672   -0.2706   -0.0295 N   0  0  0  0  0  0  0  0  0  0  0  0
   -3.7795   -0.3201   -0.0240 N   0  0  0  0  0  0  0  0  0  0  0  0
   -0.6728    1.0341   -0.1536 C   0  0  0  0  0  0  0  0  0  0  0  0
    0.6887    1.1659   -0.1685 C   0  0  0  0  0  0  0  0  0  0  0  0
    1.4161   -0.0289   -0.0594 C   0  0  0  0  0  0  0  0  0  0  0  0
    2.9142    0.0683   -0.0728 N   0  0  0  0  0  0  0  0  0  0  0  0
    3.3864    1.1881   -0.1877 O   0  0  0  0  0  0  0  0  0  0  0  0
    3.5194   -0.9894    0.0239 O   0  0  0  0  0  0  0  0  0  0  0  0
    0.8358   -1.2967    0.0596 C   0  0  0  0  0  0  0  0  0  0  0  0
   -0.5450   -1.4122    0.0730 C   0  0  0  0  0  0  0  0  0  0  0  0
   -2.5581    3.7223   -0.4042 H   0  0  0  0  0  0  0  0  0  0  0  0
    1.2167    2.1113   -0.2574 H   0  0  0  0  0  0  0  0  0  0  0  0
    1.4752   -2.1677    0.1390 H   0  0  0  0  0  0  0  0  0  0  0  0
   -1.0406   -2.3743    0.1635 H   0  0  0  0  0  0  0  0  0  0  0  0
  1  2  1  0  0  0  0
  1 11  2  0  0  0  0
  2  3  1  0  0  0  0
  4  1  1  0  0  0  0
  5  4  2  0  0  0  0
  5  6  1  0  0  0  0
  6 10  2  0  0  0  0
  7  6  1  0  0  0  0
  7  9  2  0  0  0  0
  8  7  2  0  0  0  0
 10 11  1  0  0  0  0
 10 14  1  0  0  0  0
 11 15  1  0  0  0  0
 13  5  1  0  0  0  0
M  RAD  4   2   2   3   3   4   2  12   2
M  END
