Coordinates from ORCA-job 4-NO2PhN2+_B3LYPG-6-31G_dp-d09-49-n800
 OpenBabel11261918563D

 15 14  0  0  0  0  0  0  0  0999 V2000
   -1.2724   -0.3353   -0.0242 C   0  0  0  0  0  0  0  0  0  0  0  0
   -2.6545   -0.4430   -0.0117 N   0  0  0  0  0  0  0  0  0  0  0  0
   -3.7652   -0.5213   -0.0023 N   0  0  0  0  0  0  0  0  0  0  0  0
   -0.7129    0.9314   -0.1424 C   0  0  0  0  0  0  0  0  0  0  0  0
    0.6477    1.0985   -0.1613 C   0  0  0  0  0  0  0  0  0  0  0  0
    1.4147   -0.0707   -0.0563 C   0  0  0  0  0  0  0  0  0  0  0  0
    2.9093    0.0758   -0.0757 N   0  0  0  0  0  0  0  0  0  0  0  0
    3.3461    1.2107   -0.1829 O   0  0  0  0  0  0  0  0  0  0  0  0
    3.5498   -0.9617    0.0177 O   0  0  0  0  0  0  0  0  0  0  0  0
    0.8779   -1.3583    0.0641 C   0  0  0  0  0  0  0  0  0  0  0  0
   -0.4975   -1.5179    0.0828 C   0  0  0  0  0  0  0  0  0  0  0  0
   -2.6730    4.7574   -0.5069 H   0  0  0  0  0  0  0  0  0  0  0  0
    1.1501    2.0583   -0.2509 H   0  0  0  0  0  0  0  0  0  0  0  0
    1.5457   -2.2077    0.1402 H   0  0  0  0  0  0  0  0  0  0  0  0
   -0.9625   -2.4952    0.1743 H   0  0  0  0  0  0  0  0  0  0  0  0
  1  2  1  0  0  0  0
  1 11  2  0  0  0  0
  2  3  1  0  0  0  0
  4  1  1  0  0  0  0
  5  4  2  0  0  0  0
  5  6  1  0  0  0  0
  6 10  2  0  0  0  0
  7  6  1  0  0  0  0
  7  9  2  0  0  0  0
  8  7  2  0  0  0  0
 10 11  1  0  0  0  0
 10 14  1  0  0  0  0
 11 15  1  0  0  0  0
 13  5  1  0  0  0  0
M  RAD  4   2   2   3   3   4   2  12   2
M  END
