Coordinates from ORCA-job 4-NO2PhN2+_B3LYPG-6-31G_dp-d09-49-n800
 OpenBabel11261918563D

 15 14  0  0  0  0  0  0  0  0999 V2000
   -1.3193   -0.1528   -0.0429 C   0  0  0  0  0  0  0  0  0  0  0  0
   -2.6972   -0.2078   -0.0369 N   0  0  0  0  0  0  0  0  0  0  0  0
   -3.8095   -0.2546   -0.0319 N   0  0  0  0  0  0  0  0  0  0  0  0
   -0.6967    1.0892   -0.1589 C   0  0  0  0  0  0  0  0  0  0  0  0
    0.6666    1.2136   -0.1721 C   0  0  0  0  0  0  0  0  0  0  0  0
    1.3883    0.0165   -0.0620 C   0  0  0  0  0  0  0  0  0  0  0  0
    2.8844    0.1042   -0.0732 N   0  0  0  0  0  0  0  0  0  0  0  0
    3.3616    1.2217   -0.1951 O   0  0  0  0  0  0  0  0  0  0  0  0
    3.4851   -0.9564    0.0181 O   0  0  0  0  0  0  0  0  0  0  0  0
    0.8013   -1.2472    0.0563 C   0  0  0  0  0  0  0  0  0  0  0  0
   -0.5809   -1.3555    0.0681 C   0  0  0  0  0  0  0  0  0  0  0  0
   -2.1284    3.0281   -0.3386 H   0  0  0  0  0  0  0  0  0  0  0  0
    1.1915    2.1590   -0.2610 H   0  0  0  0  0  0  0  0  0  0  0  0
    1.4365   -2.1214    0.1367 H   0  0  0  0  0  0  0  0  0  0  0  0
   -1.0799   -2.3154    0.1580 H   0  0  0  0  0  0  0  0  0  0  0  0
  1  2  1  0  0  0  0
  1 11  2  0  0  0  0
  2  3  1  0  0  0  0
  4  1  1  0  0  0  0
  5  4  2  0  0  0  0
  5  6  1  0  0  0  0
  6 10  2  0  0  0  0
  7  6  1  0  0  0  0
  7  9  2  0  0  0  0
  8  7  2  0  0  0  0
 10 11  1  0  0  0  0
 10 14  1  0  0  0  0
 11 15  1  0  0  0  0
 13  5  1  0  0  0  0
M  RAD  4   2   2   3   3   4   2  12   2
M  END
