Coordinates from ORCA-job 4-NO2PhN2+_B3LYPG-6-31G_dp-d09-49-n800
 OpenBabel11261918563D

 15 14  0  0  0  0  0  0  0  0999 V2000
   -1.2850   -0.2109   -0.0371 C   0  0  0  0  0  0  0  0  0  0  0  0
   -2.6665   -0.2733   -0.0288 N   0  0  0  0  0  0  0  0  0  0  0  0
   -3.7788   -0.3229   -0.0222 N   0  0  0  0  0  0  0  0  0  0  0  0
   -0.6727    1.0323   -0.1538 C   0  0  0  0  0  0  0  0  0  0  0  0
    0.6888    1.1643   -0.1692 C   0  0  0  0  0  0  0  0  0  0  0  0
    1.4166   -0.0303   -0.0604 C   0  0  0  0  0  0  0  0  0  0  0  0
    2.9147    0.0675   -0.0744 N   0  0  0  0  0  0  0  0  0  0  0  0
    3.3866    1.1878   -0.1851 O   0  0  0  0  0  0  0  0  0  0  0  0
    3.5203   -0.9897    0.0264 O   0  0  0  0  0  0  0  0  0  0  0  0
    0.8368   -1.2982    0.0589 C   0  0  0  0  0  0  0  0  0  0  0  0
   -0.5439   -1.4142    0.0730 C   0  0  0  0  0  0  0  0  0  0  0  0
   -2.5674    3.7445   -0.4061 H   0  0  0  0  0  0  0  0  0  0  0  0
    1.2167    2.1098   -0.2584 H   0  0  0  0  0  0  0  0  0  0  0  0
    1.4765   -2.1690    0.1382 H   0  0  0  0  0  0  0  0  0  0  0  0
   -1.0392   -2.3764    0.1637 H   0  0  0  0  0  0  0  0  0  0  0  0
  1  2  1  0  0  0  0
  1 11  2  0  0  0  0
  2  3  1  0  0  0  0
  4  1  1  0  0  0  0
  5  4  2  0  0  0  0
  5  6  1  0  0  0  0
  6 10  2  0  0  0  0
  7  6  1  0  0  0  0
  7  9  2  0  0  0  0
  8  7  2  0  0  0  0
 10 11  1  0  0  0  0
 10 14  1  0  0  0  0
 11 15  1  0  0  0  0
 13  5  1  0  0  0  0
M  RAD  4   2   2   3   3   4   2  12   2
M  END
