Coordinates from ORCA-job 4-NO2PhN2+_B3LYPG-6-31G_dp-d09-49-n800
 OpenBabel11261918563D

 15 14  0  0  0  0  0  0  0  0999 V2000
   -1.3040   -0.1729   -0.0407 C   0  0  0  0  0  0  0  0  0  0  0  0
   -2.6836   -0.2271   -0.0333 N   0  0  0  0  0  0  0  0  0  0  0  0
   -3.7959   -0.2723   -0.0273 N   0  0  0  0  0  0  0  0  0  0  0  0
   -0.6811    1.0666   -0.1572 C   0  0  0  0  0  0  0  0  0  0  0  0
    0.6803    1.1948   -0.1723 C   0  0  0  0  0  0  0  0  0  0  0  0
    1.4022   -0.0031   -0.0629 C   0  0  0  0  0  0  0  0  0  0  0  0
    2.8996    0.0863   -0.0762 N   0  0  0  0  0  0  0  0  0  0  0  0
    3.3764    1.2047   -0.1872 O   0  0  0  0  0  0  0  0  0  0  0  0
    3.5002   -0.9735    0.0258 O   0  0  0  0  0  0  0  0  0  0  0  0
    0.8157   -1.2675    0.0562 C   0  0  0  0  0  0  0  0  0  0  0  0
   -0.5662   -1.3770    0.0696 C   0  0  0  0  0  0  0  0  0  0  0  0
   -2.3343    3.3012   -0.3640 H   0  0  0  0  0  0  0  0  0  0  0  0
    1.2080    2.1395   -0.2617 H   0  0  0  0  0  0  0  0  0  0  0  0
    1.4513   -2.1414    0.1358 H   0  0  0  0  0  0  0  0  0  0  0  0
   -1.0652   -2.3372    0.1601 H   0  0  0  0  0  0  0  0  0  0  0  0
  1  2  1  0  0  0  0
  1 11  2  0  0  0  0
  2  3  1  0  0  0  0
  4  1  1  0  0  0  0
  5  4  2  0  0  0  0
  5  6  1  0  0  0  0
  6 10  2  0  0  0  0
  7  6  1  0  0  0  0
  7  9  2  0  0  0  0
  8  7  2  0  0  0  0
 10 11  1  0  0  0  0
 10 14  1  0  0  0  0
 11 15  1  0  0  0  0
 13  5  1  0  0  0  0
M  RAD  4   2   2   3   3   4   2  12   2
M  END
