Coordinates from ORCA-job 4-NO2PhN2+_B3LYPG-6-31G_dp-d09-49-n800
 OpenBabel11261918563D

 15 14  0  0  0  0  0  0  0  0999 V2000
   -1.3132   -0.1609   -0.0420 C   0  0  0  0  0  0  0  0  0  0  0  0
   -2.6917   -0.2151   -0.0346 N   0  0  0  0  0  0  0  0  0  0  0  0
   -3.8040   -0.2609   -0.0285 N   0  0  0  0  0  0  0  0  0  0  0  0
   -0.6899    1.0797   -0.1586 C   0  0  0  0  0  0  0  0  0  0  0  0
    0.6724    1.2061   -0.1735 C   0  0  0  0  0  0  0  0  0  0  0  0
    1.3940    0.0084   -0.0640 C   0  0  0  0  0  0  0  0  0  0  0  0
    2.8907    0.0966   -0.0770 N   0  0  0  0  0  0  0  0  0  0  0  0
    3.3678    1.2151   -0.1883 O   0  0  0  0  0  0  0  0  0  0  0  0
    3.4913   -0.9631    0.0249 O   0  0  0  0  0  0  0  0  0  0  0  0
    0.8071   -1.2555    0.0552 C   0  0  0  0  0  0  0  0  0  0  0  0
   -0.5750   -1.3642    0.0684 C   0  0  0  0  0  0  0  0  0  0  0  0
   -2.2130    3.1374   -0.3483 H   0  0  0  0  0  0  0  0  0  0  0  0
    1.1985    2.1511   -0.2629 H   0  0  0  0  0  0  0  0  0  0  0  0
    1.4424   -2.1296    0.1350 H   0  0  0  0  0  0  0  0  0  0  0  0
   -1.0740   -2.3241    0.1590 H   0  0  0  0  0  0  0  0  0  0  0  0
  1  2  1  0  0  0  0
  1 11  2  0  0  0  0
  2  3  1  0  0  0  0
  4  1  1  0  0  0  0
  5  4  2  0  0  0  0
  5  6  1  0  0  0  0
  6 10  2  0  0  0  0
  7  6  1  0  0  0  0
  7  9  2  0  0  0  0
  8  7  2  0  0  0  0
 10 11  1  0  0  0  0
 10 14  1  0  0  0  0
 11 15  1  0  0  0  0
 13  5  1  0  0  0  0
M  RAD  4   2   2   3   3   4   2  12   2
M  END
