Coordinates from ORCA-job 4-NO2PhN2+_B3LYPG-6-31G_dp-d09-49-n800
 OpenBabel11261918563D

 15 14  0  0  0  0  0  0  0  0999 V2000
   -1.2748   -0.3769   -0.0207 C   0  0  0  0  0  0  0  0  0  0  0  0
   -2.6560   -0.5022   -0.0071 N   0  0  0  0  0  0  0  0  0  0  0  0
   -3.7657   -0.5925    0.0068 N   0  0  0  0  0  0  0  0  0  0  0  0
   -0.7336    0.8975   -0.1395 C   0  0  0  0  0  0  0  0  0  0  0  0
    0.6252    1.0816   -0.1597 C   0  0  0  0  0  0  0  0  0  0  0  0
    1.4077   -0.0772   -0.0554 C   0  0  0  0  0  0  0  0  0  0  0  0
    2.9002    0.0886   -0.0763 N   0  0  0  0  0  0  0  0  0  0  0  0
    3.3224    1.2292   -0.1830 O   0  0  0  0  0  0  0  0  0  0  0  0
    3.5545   -0.9406    0.0139 O   0  0  0  0  0  0  0  0  0  0  0  0
    0.8880   -1.3719    0.0655 C   0  0  0  0  0  0  0  0  0  0  0  0
   -0.4851   -1.5497    0.0855 C   0  0  0  0  0  0  0  0  0  0  0  0
   -2.6248    5.0331   -0.5341 H   0  0  0  0  0  0  0  0  0  0  0  0
    1.1153    2.0478   -0.2497 H   0  0  0  0  0  0  0  0  0  0  0  0
    1.5671   -2.2124    0.1409 H   0  0  0  0  0  0  0  0  0  0  0  0
   -0.9369   -2.5331    0.1774 H   0  0  0  0  0  0  0  0  0  0  0  0
  1  2  1  0  0  0  0
  1 11  2  0  0  0  0
  2  3  1  0  0  0  0
  4  1  1  0  0  0  0
  5  4  2  0  0  0  0
  5  6  1  0  0  0  0
  6 10  2  0  0  0  0
  7  6  1  0  0  0  0
  7  9  2  0  0  0  0
  8  7  2  0  0  0  0
 10 11  1  0  0  0  0
 10 14  1  0  0  0  0
 11 15  1  0  0  0  0
 13  5  1  0  0  0  0
M  RAD  4   2   2   3   3   4   2  12   2
M  END
