Coordinates from ORCA-job 4-NO2PhN2+_B3LYPG-6-31G_dp-d09-49-n800
 OpenBabel11261918563D

 15 14  0  0  0  0  0  0  0  0999 V2000
   -1.2738   -0.3634   -0.0214 C   0  0  0  0  0  0  0  0  0  0  0  0
   -2.6553   -0.4831   -0.0077 N   0  0  0  0  0  0  0  0  0  0  0  0
   -3.7654   -0.5699    0.0024 N   0  0  0  0  0  0  0  0  0  0  0  0
   -0.7270    0.9087   -0.1401 C   0  0  0  0  0  0  0  0  0  0  0  0
    0.6325    1.0867   -0.1601 C   0  0  0  0  0  0  0  0  0  0  0  0
    1.4100   -0.0753   -0.0558 C   0  0  0  0  0  0  0  0  0  0  0  0
    2.9032    0.0844   -0.0765 N   0  0  0  0  0  0  0  0  0  0  0  0
    3.3302    1.2232   -0.1829 O   0  0  0  0  0  0  0  0  0  0  0  0
    3.5532   -0.9475    0.0150 O   0  0  0  0  0  0  0  0  0  0  0  0
    0.8849   -1.3678    0.0651 C   0  0  0  0  0  0  0  0  0  0  0  0
   -0.4890   -1.5394    0.0849 C   0  0  0  0  0  0  0  0  0  0  0  0
   -2.6415    4.9457   -0.5254 H   0  0  0  0  0  0  0  0  0  0  0  0
    1.1267    2.0508   -0.2500 H   0  0  0  0  0  0  0  0  0  0  0  0
    1.5602   -2.2112    0.1405 H   0  0  0  0  0  0  0  0  0  0  0  0
   -0.9453   -2.5208    0.1768 H   0  0  0  0  0  0  0  0  0  0  0  0
  1  2  1  0  0  0  0
  1 11  2  0  0  0  0
  2  3  1  0  0  0  0
  4  1  1  0  0  0  0
  5  4  2  0  0  0  0
  5  6  1  0  0  0  0
  6 10  2  0  0  0  0
  7  6  1  0  0  0  0
  7  9  2  0  0  0  0
  8  7  2  0  0  0  0
 10 11  1  0  0  0  0
 10 14  1  0  0  0  0
 11 15  1  0  0  0  0
 13  5  1  0  0  0  0
M  RAD  4   2   2   3   3   4   2  12   2
M  END
