Coordinates from ORCA-job 4-NO2PhN2+_B3LYPG-6-31G_dp-d09-49-n800
 OpenBabel11261918563D

 15 14  0  0  0  0  0  0  0  0999 V2000
   -1.2769   -0.4018   -0.0161 C   0  0  0  0  0  0  0  0  0  0  0  0
   -2.6572   -0.5385   -0.0005 N   0  0  0  0  0  0  0  0  0  0  0  0
   -3.7662   -0.6375    0.0111 N   0  0  0  0  0  0  0  0  0  0  0  0
   -0.7479    0.8778   -0.1336 C   0  0  0  0  0  0  0  0  0  0  0  0
    0.6098    1.0720   -0.1554 C   0  0  0  0  0  0  0  0  0  0  0  0
    1.4022   -0.0802   -0.0549 C   0  0  0  0  0  0  0  0  0  0  0  0
    2.8932    0.0983   -0.0782 N   0  0  0  0  0  0  0  0  0  0  0  0
    3.3059    1.2427   -0.1816 O   0  0  0  0  0  0  0  0  0  0  0  0
    3.5565   -0.9255    0.0086 O   0  0  0  0  0  0  0  0  0  0  0  0
    0.8937   -1.3795    0.0646 C   0  0  0  0  0  0  0  0  0  0  0  0
   -0.4778   -1.5684    0.0867 C   0  0  0  0  0  0  0  0  0  0  0  0
   -2.5822    5.1896   -0.5564 H   0  0  0  0  0  0  0  0  0  0  0  0
    1.0921    2.0422   -0.2445 H   0  0  0  0  0  0  0  0  0  0  0  0
    1.5798   -2.2144    0.1372 H   0  0  0  0  0  0  0  0  0  0  0  0
   -0.9216   -2.5556    0.1777 H   0  0  0  0  0  0  0  0  0  0  0  0
  1  2  1  0  0  0  0
  1 11  2  0  0  0  0
  2  3  1  0  0  0  0
  4  1  1  0  0  0  0
  5  4  2  0  0  0  0
  5  6  1  0  0  0  0
  6 10  2  0  0  0  0
  7  6  1  0  0  0  0
  7  9  2  0  0  0  0
  8  7  2  0  0  0  0
 10 11  1  0  0  0  0
 10 14  1  0  0  0  0
 11 15  1  0  0  0  0
 13  5  1  0  0  0  0
M  RAD  4   2   2   3   3   4   2  12   2
M  END
