Coordinates from ORCA-job 4-NO2PhN2+_B3LYPG-6-31G_dp-d09-49-n800
 OpenBabel11261918563D

 15 15  0  0  0  0  0  0  0  0999 V2000
   -1.3607   -0.0733   -0.0504 C   0  0  0  0  0  0  0  0  0  0  0  0
   -2.7400   -0.1535   -0.0402 N   0  0  0  0  0  0  0  0  0  0  0  0
   -3.8522   -0.2178   -0.0321 N   0  0  0  0  0  0  0  0  0  0  0  0
   -0.7779    1.2051   -0.1705 C   0  0  0  0  0  0  0  0  0  0  0  0
    0.6082    1.2675   -0.1795 C   0  0  0  0  0  0  0  0  0  0  0  0
    1.3369    0.0819   -0.0709 C   0  0  0  0  0  0  0  0  0  0  0  0
    2.8281    0.1679   -0.0833 N   0  0  0  0  0  0  0  0  0  0  0  0
    3.3056    1.2877   -0.1955 O   0  0  0  0  0  0  0  0  0  0  0  0
    3.4326   -0.8899    0.0195 O   0  0  0  0  0  0  0  0  0  0  0  0
    0.7516   -1.1795    0.0481 C   0  0  0  0  0  0  0  0  0  0  0  0
   -0.6323   -1.2753    0.0600 C   0  0  0  0  0  0  0  0  0  0  0  0
   -1.3754    2.0772   -0.2505 H   0  0  0  0  0  0  0  0  0  0  0  0
    1.1328    2.2119   -0.2690 H   0  0  0  0  0  0  0  0  0  0  0  0
    1.3822   -2.0573    0.1286 H   0  0  0  0  0  0  0  0  0  0  0  0
   -1.1361   -2.2314    0.1503 H   0  0  0  0  0  0  0  0  0  0  0  0
  1  2  1  0  0  0  0
  1 11  2  0  0  0  0
  2  3  1  0  0  0  0
  4  1  1  0  0  0  0
  5  4  2  0  0  0  0
  5  6  1  0  0  0  0
  6 10  2  0  0  0  0
  7  6  1  0  0  0  0
  7  9  2  0  0  0  0
  8  7  2  0  0  0  0
 10 11  1  0  0  0  0
 10 14  1  0  0  0  0
 11 15  1  0  0  0  0
 12  4  1  0  0  0  0
 13  5  1  0  0  0  0
M  RAD  2   2   2   3   3
M  END
