Coordinates from ORCA-job 4-NO2PhN2+_B3LYPG-6-31G_dp-d09-49-n800
 OpenBabel11261918563D

 15 14  0  0  0  0  0  0  0  0999 V2000
   -1.2813   -0.2223   -0.0360 C   0  0  0  0  0  0  0  0  0  0  0  0
   -2.6633   -0.2882   -0.0274 N   0  0  0  0  0  0  0  0  0  0  0  0
   -3.7755   -0.3398   -0.0206 N   0  0  0  0  0  0  0  0  0  0  0  0
   -0.6736    1.0228   -0.1529 C   0  0  0  0  0  0  0  0  0  0  0  0
    0.6881    1.1564   -0.1684 C   0  0  0  0  0  0  0  0  0  0  0  0
    1.4187   -0.0364   -0.0598 C   0  0  0  0  0  0  0  0  0  0  0  0
    2.9167    0.0649   -0.0742 N   0  0  0  0  0  0  0  0  0  0  0  0
    3.3863    1.1862   -0.1848 O   0  0  0  0  0  0  0  0  0  0  0  0
    3.5247   -0.9910    0.0262 O   0  0  0  0  0  0  0  0  0  0  0  0
    0.8419   -1.3059    0.0597 C   0  0  0  0  0  0  0  0  0  0  0  0
   -0.5384   -1.4246    0.0740 C   0  0  0  0  0  0  0  0  0  0  0  0
   -2.6072    3.8594   -0.4170 H   0  0  0  0  0  0  0  0  0  0  0  0
    1.2149    2.1026   -0.2576 H   0  0  0  0  0  0  0  0  0  0  0  0
    1.4835   -2.1752    0.1387 H   0  0  0  0  0  0  0  0  0  0  0  0
   -1.0319   -2.3878    0.1648 H   0  0  0  0  0  0  0  0  0  0  0  0
  1  2  1  0  0  0  0
  1 11  2  0  0  0  0
  2  3  1  0  0  0  0
  4  1  1  0  0  0  0
  5  4  2  0  0  0  0
  5  6  1  0  0  0  0
  6 10  2  0  0  0  0
  7  6  1  0  0  0  0
  7  9  2  0  0  0  0
  8  7  2  0  0  0  0
 10 11  1  0  0  0  0
 10 14  1  0  0  0  0
 11 15  1  0  0  0  0
 13  5  1  0  0  0  0
M  RAD  4   2   2   3   3   4   2  12   2
M  END
