Coordinates from ORCA-job 4-NO2PhN2+_B3LYPG-6-31G_dp-d09-49-n800
 OpenBabel11261918563D

 15 14  0  0  0  0  0  0  0  0999 V2000
   -1.2912   -0.1957   -0.0385 C   0  0  0  0  0  0  0  0  0  0  0  0
   -2.6721   -0.2541   -0.0307 N   0  0  0  0  0  0  0  0  0  0  0  0
   -3.7844   -0.3015   -0.0243 N   0  0  0  0  0  0  0  0  0  0  0  0
   -0.6739    1.0455   -0.1550 C   0  0  0  0  0  0  0  0  0  0  0  0
    0.6875    1.1756   -0.1704 C   0  0  0  0  0  0  0  0  0  0  0  0
    1.4123   -0.0207   -0.0613 C   0  0  0  0  0  0  0  0  0  0  0  0
    2.9103    0.0731   -0.0749 N   0  0  0  0  0  0  0  0  0  0  0  0
    3.3846    1.1924   -0.1858 O   0  0  0  0  0  0  0  0  0  0  0  0
    3.5133   -0.9854    0.0263 O   0  0  0  0  0  0  0  0  0  0  0  0
    0.8292   -1.2870    0.0579 C   0  0  0  0  0  0  0  0  0  0  0  0
   -0.5520   -1.3998    0.0717 C   0  0  0  0  0  0  0  0  0  0  0  0
   -2.4936    3.5785   -0.3904 H   0  0  0  0  0  0  0  0  0  0  0  0
    1.2161    2.1205   -0.2595 H   0  0  0  0  0  0  0  0  0  0  0  0
    1.4668   -2.1593    0.1374 H   0  0  0  0  0  0  0  0  0  0  0  0
   -1.0493   -2.3610    0.1623 H   0  0  0  0  0  0  0  0  0  0  0  0
  1  2  1  0  0  0  0
  1 11  2  0  0  0  0
  2  3  1  0  0  0  0
  4  1  1  0  0  0  0
  5  4  2  0  0  0  0
  5  6  1  0  0  0  0
  6 10  2  0  0  0  0
  7  6  1  0  0  0  0
  7  9  2  0  0  0  0
  8  7  2  0  0  0  0
 10 11  1  0  0  0  0
 10 14  1  0  0  0  0
 11 15  1  0  0  0  0
 13  5  1  0  0  0  0
M  RAD  4   2   2   3   3   4   2  12   2
M  END
