Coordinates from ORCA-job 4-NO2PhN2+_B3LYPG-6-31G_dp-d09-49-n800
 OpenBabel11261918563D

 15 14  0  0  0  0  0  0  0  0999 V2000
   -1.2779   -0.2357   -0.0348 C   0  0  0  0  0  0  0  0  0  0  0  0
   -2.6603   -0.3055   -0.0260 N   0  0  0  0  0  0  0  0  0  0  0  0
   -3.7723   -0.3594   -0.0184 N   0  0  0  0  0  0  0  0  0  0  0  0
   -0.6752    1.0114   -0.1519 C   0  0  0  0  0  0  0  0  0  0  0  0
    0.6863    1.1477   -0.1677 C   0  0  0  0  0  0  0  0  0  0  0  0
    1.4204   -0.0427   -0.0592 C   0  0  0  0  0  0  0  0  0  0  0  0
    2.9183    0.0629   -0.0740 N   0  0  0  0  0  0  0  0  0  0  0  0
    3.3849    1.1854   -0.1844 O   0  0  0  0  0  0  0  0  0  0  0  0
    3.5294   -0.9913    0.0260 O   0  0  0  0  0  0  0  0  0  0  0  0
    0.8474   -1.3141    0.0604 C   0  0  0  0  0  0  0  0  0  0  0  0
   -0.5325   -1.4365    0.0751 C   0  0  0  0  0  0  0  0  0  0  0  0
   -2.6443    3.9864   -0.4290 H   0  0  0  0  0  0  0  0  0  0  0  0
    1.2114    2.0951   -0.2569 H   0  0  0  0  0  0  0  0  0  0  0  0
    1.4915   -2.1816    0.1394 H   0  0  0  0  0  0  0  0  0  0  0  0
   -1.0235   -2.4010    0.1660 H   0  0  0  0  0  0  0  0  0  0  0  0
  1  2  1  0  0  0  0
  1 11  2  0  0  0  0
  2  3  1  0  0  0  0
  4  1  1  0  0  0  0
  5  4  2  0  0  0  0
  5  6  1  0  0  0  0
  6 10  2  0  0  0  0
  7  6  1  0  0  0  0
  7  9  2  0  0  0  0
  8  7  2  0  0  0  0
 10 11  1  0  0  0  0
 10 14  1  0  0  0  0
 11 15  1  0  0  0  0
 13  5  1  0  0  0  0
M  RAD  4   2   2   3   3   4   2  12   2
M  END
