Coordinates from ORCA-job 4-NO2PhN2+_B3LYPG-6-31G_dp-d09-49-n800
 OpenBabel11261918563D

 15 14  0  0  0  0  0  0  0  0999 V2000
   -1.3014   -0.1768   -0.0404 C   0  0  0  0  0  0  0  0  0  0  0  0
   -2.6811   -0.2317   -0.0328 N   0  0  0  0  0  0  0  0  0  0  0  0
   -3.7935   -0.2772   -0.0267 N   0  0  0  0  0  0  0  0  0  0  0  0
   -0.6792    1.0630   -0.1568 C   0  0  0  0  0  0  0  0  0  0  0  0
    0.6822    1.1914   -0.1720 C   0  0  0  0  0  0  0  0  0  0  0  0
    1.4043   -0.0065   -0.0626 C   0  0  0  0  0  0  0  0  0  0  0  0
    2.9019    0.0834   -0.0758 N   0  0  0  0  0  0  0  0  0  0  0  0
    3.3784    1.2019   -0.1869 O   0  0  0  0  0  0  0  0  0  0  0  0
    3.5027   -0.9762    0.0259 O   0  0  0  0  0  0  0  0  0  0  0  0
    0.8182   -1.2712    0.0565 C   0  0  0  0  0  0  0  0  0  0  0  0
   -0.5635   -1.3811    0.0699 C   0  0  0  0  0  0  0  0  0  0  0  0
   -2.3676    3.3523   -0.3690 H   0  0  0  0  0  0  0  0  0  0  0  0
    1.2104    2.1360   -0.2612 H   0  0  0  0  0  0  0  0  0  0  0  0
    1.4540   -2.1449    0.1361 H   0  0  0  0  0  0  0  0  0  0  0  0
   -1.0624   -2.3413    0.1605 H   0  0  0  0  0  0  0  0  0  0  0  0
  1  2  1  0  0  0  0
  1 11  2  0  0  0  0
  2  3  1  0  0  0  0
  4  1  1  0  0  0  0
  5  4  2  0  0  0  0
  5  6  1  0  0  0  0
  6 10  2  0  0  0  0
  7  6  1  0  0  0  0
  7  9  2  0  0  0  0
  8  7  2  0  0  0  0
 10 11  1  0  0  0  0
 10 14  1  0  0  0  0
 11 15  1  0  0  0  0
 13  5  1  0  0  0  0
M  RAD  4   2   2   3   3   4   2  12   2
M  END
