Coordinates from ORCA-job 4-NO2PhN2+_B3LYPG-6-31G_dp-d09-49-n800
 OpenBabel11261918563D

 15 14  0  0  0  0  0  0  0  0999 V2000
   -1.3293   -0.1385   -0.0441 C   0  0  0  0  0  0  0  0  0  0  0  0
   -2.7066   -0.1962   -0.0367 N   0  0  0  0  0  0  0  0  0  0  0  0
   -3.8189   -0.2453   -0.0304 N   0  0  0  0  0  0  0  0  0  0  0  0
   -0.7105    1.1076   -0.1613 C   0  0  0  0  0  0  0  0  0  0  0  0
    0.6556    1.2256   -0.1753 C   0  0  0  0  0  0  0  0  0  0  0  0
    1.3779    0.0299   -0.0657 C   0  0  0  0  0  0  0  0  0  0  0  0
    2.8728    0.1165   -0.0785 N   0  0  0  0  0  0  0  0  0  0  0  0
    3.3503    1.2353   -0.1909 O   0  0  0  0  0  0  0  0  0  0  0  0
    3.4744   -0.9428    0.0228 O   0  0  0  0  0  0  0  0  0  0  0  0
    0.7912   -1.2335    0.0534 C   0  0  0  0  0  0  0  0  0  0  0  0
   -0.5913   -1.3404    0.0663 C   0  0  0  0  0  0  0  0  0  0  0  0
   -1.9768    2.8397   -0.3203 H   0  0  0  0  0  0  0  0  0  0  0  0
    1.1788    2.1712   -0.2649 H   0  0  0  0  0  0  0  0  0  0  0  0
    1.4261   -2.1080    0.1334 H   0  0  0  0  0  0  0  0  0  0  0  0
   -1.0903   -2.3000    0.1568 H   0  0  0  0  0  0  0  0  0  0  0  0
  1  2  1  0  0  0  0
  1 11  2  0  0  0  0
  2  3  1  0  0  0  0
  4  1  1  0  0  0  0
  5  4  2  0  0  0  0
  5  6  1  0  0  0  0
  6 10  2  0  0  0  0
  7  6  1  0  0  0  0
  7  9  2  0  0  0  0
  8  7  2  0  0  0  0
 10 11  1  0  0  0  0
 10 14  1  0  0  0  0
 11 15  1  0  0  0  0
 13  5  1  0  0  0  0
M  RAD  4   2   2   3   3   4   2  12   2
M  END
