Coordinates from ORCA-job 4-NO2PhN2+_B3LYPG-6-31G_dp-d09-49-n800
 OpenBabel11261918563D

 15 14  0  0  0  0  0  0  0  0999 V2000
   -1.2746   -0.3761   -0.0202 C   0  0  0  0  0  0  0  0  0  0  0  0
   -2.6558   -0.5012   -0.0060 N   0  0  0  0  0  0  0  0  0  0  0  0
   -3.7655   -0.5920    0.0043 N   0  0  0  0  0  0  0  0  0  0  0  0
   -0.7336    0.8984   -0.1392 C   0  0  0  0  0  0  0  0  0  0  0  0
    0.6253    1.0816   -0.1597 C   0  0  0  0  0  0  0  0  0  0  0  0
    1.4077   -0.0772   -0.0556 C   0  0  0  0  0  0  0  0  0  0  0  0
    2.9002    0.0886   -0.0769 N   0  0  0  0  0  0  0  0  0  0  0  0
    3.3226    1.2291   -0.1831 O   0  0  0  0  0  0  0  0  0  0  0  0
    3.5544   -0.9407    0.0140 O   0  0  0  0  0  0  0  0  0  0  0  0
    0.8879   -1.3718    0.0656 C   0  0  0  0  0  0  0  0  0  0  0  0
   -0.4853   -1.5490    0.0859 C   0  0  0  0  0  0  0  0  0  0  0  0
   -2.6248    5.0285   -0.5331 H   0  0  0  0  0  0  0  0  0  0  0  0
    1.1157    2.0476   -0.2500 H   0  0  0  0  0  0  0  0  0  0  0  0
    1.5667   -2.2125    0.1408 H   0  0  0  0  0  0  0  0  0  0  0  0
   -0.9376   -2.5322    0.1781 H   0  0  0  0  0  0  0  0  0  0  0  0
  1  2  1  0  0  0  0
  1 11  2  0  0  0  0
  2  3  1  0  0  0  0
  4  1  1  0  0  0  0
  5  4  2  0  0  0  0
  5  6  1  0  0  0  0
  6 10  2  0  0  0  0
  7  6  1  0  0  0  0
  7  9  2  0  0  0  0
  8  7  2  0  0  0  0
 10 11  1  0  0  0  0
 10 14  1  0  0  0  0
 11 15  1  0  0  0  0
 13  5  1  0  0  0  0
M  RAD  4   2   2   3   3   4   2  12   2
M  END
