Coordinates from ORCA-job 4-NO2PhN2+_B3LYPG-6-31G_dp-d09-49-n800
 OpenBabel11261918563D

 15 14  0  0  0  0  0  0  0  0999 V2000
   -1.3150   -0.1584   -0.0422 C   0  0  0  0  0  0  0  0  0  0  0  0
   -2.6934   -0.2128   -0.0348 N   0  0  0  0  0  0  0  0  0  0  0  0
   -3.8057   -0.2588   -0.0287 N   0  0  0  0  0  0  0  0  0  0  0  0
   -0.6918    1.0825   -0.1589 C   0  0  0  0  0  0  0  0  0  0  0  0
    0.6707    1.2083   -0.1737 C   0  0  0  0  0  0  0  0  0  0  0  0
    1.3923    0.0108   -0.0642 C   0  0  0  0  0  0  0  0  0  0  0  0
    2.8888    0.0987   -0.0772 N   0  0  0  0  0  0  0  0  0  0  0  0
    3.3660    1.2173   -0.1886 O   0  0  0  0  0  0  0  0  0  0  0  0
    3.4895   -0.9609    0.0247 O   0  0  0  0  0  0  0  0  0  0  0  0
    0.8054   -1.2530    0.0550 C   0  0  0  0  0  0  0  0  0  0  0  0
   -0.5768   -1.3616    0.0682 C   0  0  0  0  0  0  0  0  0  0  0  0
   -2.1878    3.1043   -0.3452 H   0  0  0  0  0  0  0  0  0  0  0  0
    1.1964    2.1534   -0.2632 H   0  0  0  0  0  0  0  0  0  0  0  0
    1.4406   -2.1272    0.1348 H   0  0  0  0  0  0  0  0  0  0  0  0
   -1.0758   -2.3215    0.1588 H   0  0  0  0  0  0  0  0  0  0  0  0
  1  2  1  0  0  0  0
  1 11  2  0  0  0  0
  2  3  1  0  0  0  0
  4  1  1  0  0  0  0
  5  4  2  0  0  0  0
  5  6  1  0  0  0  0
  6 10  2  0  0  0  0
  7  6  1  0  0  0  0
  7  9  2  0  0  0  0
  8  7  2  0  0  0  0
 10 11  1  0  0  0  0
 10 14  1  0  0  0  0
 11 15  1  0  0  0  0
 13  5  1  0  0  0  0
M  RAD  4   2   2   3   3   4   2  12   2
M  END
