Coordinates from ORCA-job 4-NO2PhN2+_B3LYPG-6-31G_dp-d09-49-n800
 OpenBabel11261918563D

 15 14  0  0  0  0  0  0  0  0999 V2000
   -1.3009   -0.1777   -0.0403 C   0  0  0  0  0  0  0  0  0  0  0  0
   -2.6806   -0.2327   -0.0328 N   0  0  0  0  0  0  0  0  0  0  0  0
   -3.7929   -0.2784   -0.0266 N   0  0  0  0  0  0  0  0  0  0  0  0
   -0.6789    1.0620   -0.1567 C   0  0  0  0  0  0  0  0  0  0  0  0
    0.6825    1.1904   -0.1718 C   0  0  0  0  0  0  0  0  0  0  0  0
    1.4048   -0.0073   -0.0625 C   0  0  0  0  0  0  0  0  0  0  0  0
    2.9024    0.0829   -0.0758 N   0  0  0  0  0  0  0  0  0  0  0  0
    3.3788    1.2014   -0.1869 O   0  0  0  0  0  0  0  0  0  0  0  0
    3.5033   -0.9767    0.0259 O   0  0  0  0  0  0  0  0  0  0  0  0
    0.8188   -1.2720    0.0566 C   0  0  0  0  0  0  0  0  0  0  0  0
   -0.5629   -1.3820    0.0700 C   0  0  0  0  0  0  0  0  0  0  0  0
   -2.3747    3.3644   -0.3701 H   0  0  0  0  0  0  0  0  0  0  0  0
    1.2107    2.1350   -0.2611 H   0  0  0  0  0  0  0  0  0  0  0  0
    1.4548   -2.1457    0.1362 H   0  0  0  0  0  0  0  0  0  0  0  0
   -1.0617   -2.3423    0.1605 H   0  0  0  0  0  0  0  0  0  0  0  0
  1  2  1  0  0  0  0
  1 11  2  0  0  0  0
  2  3  1  0  0  0  0
  4  1  1  0  0  0  0
  5  4  2  0  0  0  0
  5  6  1  0  0  0  0
  6 10  2  0  0  0  0
  7  6  1  0  0  0  0
  7  9  2  0  0  0  0
  8  7  2  0  0  0  0
 10 11  1  0  0  0  0
 10 14  1  0  0  0  0
 11 15  1  0  0  0  0
 13  5  1  0  0  0  0
M  RAD  4   2   2   3   3   4   2  12   2
M  END
