Coordinates from ORCA-job 4-NO2PhN2+_B3LYPG-6-31G_dp-d09-49-n800
 OpenBabel11261918563D

 15 15  0  0  0  0  0  0  0  0999 V2000
   -1.3536   -0.0907   -0.0487 C   0  0  0  0  0  0  0  0  0  0  0  0
   -2.7316   -0.1663   -0.0392 N   0  0  0  0  0  0  0  0  0  0  0  0
   -3.8439   -0.2281   -0.0315 N   0  0  0  0  0  0  0  0  0  0  0  0
   -0.7614    1.1797   -0.1680 C   0  0  0  0  0  0  0  0  0  0  0  0
    0.6200    1.2571   -0.1786 C   0  0  0  0  0  0  0  0  0  0  0  0
    1.3467    0.0690   -0.0698 C   0  0  0  0  0  0  0  0  0  0  0  0
    2.8385    0.1546   -0.0822 N   0  0  0  0  0  0  0  0  0  0  0  0
    3.3163    1.2741   -0.1948 O   0  0  0  0  0  0  0  0  0  0  0  0
    3.4426   -0.9033    0.0212 O   0  0  0  0  0  0  0  0  0  0  0  0
    0.7615   -1.1933    0.0494 C   0  0  0  0  0  0  0  0  0  0  0  0
   -0.6218   -1.2922    0.0616 C   0  0  0  0  0  0  0  0  0  0  0  0
   -1.5230    2.2783   -0.2684 H   0  0  0  0  0  0  0  0  0  0  0  0
    1.1438    2.2015   -0.2680 H   0  0  0  0  0  0  0  0  0  0  0  0
    1.3935   -2.0699    0.1298 H   0  0  0  0  0  0  0  0  0  0  0  0
   -1.1240   -2.2494    0.1519 H   0  0  0  0  0  0  0  0  0  0  0  0
  1  2  1  0  0  0  0
  1 11  2  0  0  0  0
  2  3  1  0  0  0  0
  4  1  1  0  0  0  0
  5  4  2  0  0  0  0
  5  6  1  0  0  0  0
  6 10  2  0  0  0  0
  7  6  1  0  0  0  0
  7  9  2  0  0  0  0
  8  7  2  0  0  0  0
 10 11  1  0  0  0  0
 10 14  1  0  0  0  0
 11 15  1  0  0  0  0
 12  4  1  0  0  0  0
 13  5  1  0  0  0  0
M  RAD  2   2   2   3   3
M  END
