Coordinates from ORCA-job 4-NO2PhN2+_B3LYPG-6-31G_dp-d09-49-n800
 OpenBabel11261918563D

 15 14  0  0  0  0  0  0  0  0999 V2000
   -1.3409   -0.1191   -0.0459 C   0  0  0  0  0  0  0  0  0  0  0  0
   -2.7178   -0.1834   -0.0377 N   0  0  0  0  0  0  0  0  0  0  0  0
   -3.8301   -0.2374   -0.0308 N   0  0  0  0  0  0  0  0  0  0  0  0
   -0.7313    1.1357   -0.1641 C   0  0  0  0  0  0  0  0  0  0  0  0
    0.6405    1.2398   -0.1770 C   0  0  0  0  0  0  0  0  0  0  0  0
    1.3643    0.0471   -0.0678 C   0  0  0  0  0  0  0  0  0  0  0  0
    2.8577    0.1329   -0.0807 N   0  0  0  0  0  0  0  0  0  0  0  0
    3.3353    1.2521   -0.1920 O   0  0  0  0  0  0  0  0  0  0  0  0
    3.4604   -0.9257    0.0228 O   0  0  0  0  0  0  0  0  0  0  0  0
    0.7783   -1.2160    0.0515 C   0  0  0  0  0  0  0  0  0  0  0  0
   -0.6045   -1.3204    0.0643 C   0  0  0  0  0  0  0  0  0  0  0  0
   -1.7793    2.6006   -0.2978 H   0  0  0  0  0  0  0  0  0  0  0  0
    1.1628    2.1852   -0.2667 H   0  0  0  0  0  0  0  0  0  0  0  0
    1.4124   -2.0911    0.1316 H   0  0  0  0  0  0  0  0  0  0  0  0
   -1.1042   -2.2792    0.1549 H   0  0  0  0  0  0  0  0  0  0  0  0
  1  2  1  0  0  0  0
  1 11  2  0  0  0  0
  2  3  1  0  0  0  0
  4  1  1  0  0  0  0
  5  4  2  0  0  0  0
  5  6  1  0  0  0  0
  6 10  2  0  0  0  0
  7  6  1  0  0  0  0
  7  9  2  0  0  0  0
  8  7  2  0  0  0  0
 10 11  1  0  0  0  0
 10 14  1  0  0  0  0
 11 15  1  0  0  0  0
 13  5  1  0  0  0  0
M  RAD  4   2   2   3   3   4   2  12   2
M  END
