Coordinates from ORCA-job 4-NO2PhN2+_B3LYPG-6-31G_dp-d09-49-n800
 OpenBabel11261918563D

 15 14  0  0  0  0  0  0  0  0999 V2000
   -1.2788   -0.4115   -0.0147 C   0  0  0  0  0  0  0  0  0  0  0  0
   -2.6587   -0.5532    0.0017 N   0  0  0  0  0  0  0  0  0  0  0  0
   -3.7673   -0.6563    0.0138 N   0  0  0  0  0  0  0  0  0  0  0  0
   -0.7545    0.8699   -0.1317 C   0  0  0  0  0  0  0  0  0  0  0  0
    0.6022    1.0694   -0.1542 C   0  0  0  0  0  0  0  0  0  0  0  0
    1.3990   -0.0799   -0.0548 C   0  0  0  0  0  0  0  0  0  0  0  0
    2.8893    0.1041   -0.0788 N   0  0  0  0  0  0  0  0  0  0  0  0
    3.2977    1.2501   -0.1812 O   0  0  0  0  0  0  0  0  0  0  0  0
    3.5564   -0.9174    0.0066 O   0  0  0  0  0  0  0  0  0  0  0  0
    0.8954   -1.3812    0.0642 C   0  0  0  0  0  0  0  0  0  0  0  0
   -0.4755   -1.5753    0.0869 C   0  0  0  0  0  0  0  0  0  0  0  0
   -2.5527    5.2395   -0.5638 H   0  0  0  0  0  0  0  0  0  0  0  0
    1.0818    2.0410   -0.2428 H   0  0  0  0  0  0  0  0  0  0  0  0
    1.5846   -2.2137    0.1358 H   0  0  0  0  0  0  0  0  0  0  0  0
   -0.9155   -2.5642    0.1776 H   0  0  0  0  0  0  0  0  0  0  0  0
  1  2  1  0  0  0  0
  1 11  2  0  0  0  0
  2  3  1  0  0  0  0
  4  1  1  0  0  0  0
  5  4  2  0  0  0  0
  5  6  1  0  0  0  0
  6 10  2  0  0  0  0
  7  6  1  0  0  0  0
  7  9  2  0  0  0  0
  8  7  2  0  0  0  0
 10 11  1  0  0  0  0
 10 14  1  0  0  0  0
 11 15  1  0  0  0  0
 13  5  1  0  0  0  0
M  RAD  4   2   2   3   3   4   2  12   2
M  END
