Coordinates from ORCA-job 4-NO2PhN2+_B3LYPG-6-31G_dp-d09-49-n800
 OpenBabel11261918563D

 15 14  0  0  0  0  0  0  0  0999 V2000
   -1.3455   -0.1099   -0.0468 C   0  0  0  0  0  0  0  0  0  0  0  0
   -2.7226   -0.1779   -0.0383 N   0  0  0  0  0  0  0  0  0  0  0  0
   -3.8349   -0.2345   -0.0313 N   0  0  0  0  0  0  0  0  0  0  0  0
   -0.7413    1.1499   -0.1653 C   0  0  0  0  0  0  0  0  0  0  0  0
    0.6336    1.2458   -0.1773 C   0  0  0  0  0  0  0  0  0  0  0  0
    1.3583    0.0546   -0.0682 C   0  0  0  0  0  0  0  0  0  0  0  0
    2.8510    0.1402   -0.0809 N   0  0  0  0  0  0  0  0  0  0  0  0
    3.3288    1.2594   -0.1933 O   0  0  0  0  0  0  0  0  0  0  0  0
    3.4543   -0.9182    0.0217 O   0  0  0  0  0  0  0  0  0  0  0  0
    0.7726   -1.2083    0.0510 C   0  0  0  0  0  0  0  0  0  0  0  0
   -0.6103   -1.3111    0.0635 C   0  0  0  0  0  0  0  0  0  0  0  0
   -1.6923    2.4938   -0.2882 H   0  0  0  0  0  0  0  0  0  0  0  0
    1.1561    2.1909   -0.2669 H   0  0  0  0  0  0  0  0  0  0  0  0
    1.4062   -2.0838    0.1312 H   0  0  0  0  0  0  0  0  0  0  0  0
   -1.1106   -2.2695    0.1540 H   0  0  0  0  0  0  0  0  0  0  0  0
  1  2  1  0  0  0  0
  1 11  2  0  0  0  0
  2  3  1  0  0  0  0
  4  1  1  0  0  0  0
  5  4  2  0  0  0  0
  5  6  1  0  0  0  0
  6 10  2  0  0  0  0
  7  6  1  0  0  0  0
  7  9  2  0  0  0  0
  8  7  2  0  0  0  0
 10 11  1  0  0  0  0
 10 14  1  0  0  0  0
 11 15  1  0  0  0  0
 13  5  1  0  0  0  0
M  RAD  4   2   2   3   3   4   2  12   2
M  END
