Coordinates from ORCA-job 4-NO2PhN2+_B3LYPG-6-31G_dp-d09-49-n800
 OpenBabel11261918563D

 15 14  0  0  0  0  0  0  0  0999 V2000
   -1.3390   -0.1226   -0.0457 C   0  0  0  0  0  0  0  0  0  0  0  0
   -2.7159   -0.1855   -0.0376 N   0  0  0  0  0  0  0  0  0  0  0  0
   -3.8283   -0.2385   -0.0309 N   0  0  0  0  0  0  0  0  0  0  0  0
   -0.7275    1.1304   -0.1636 C   0  0  0  0  0  0  0  0  0  0  0  0
    0.6432    1.2375   -0.1767 C   0  0  0  0  0  0  0  0  0  0  0  0
    1.3666    0.0442   -0.0673 C   0  0  0  0  0  0  0  0  0  0  0  0
    2.8603    0.1300   -0.0801 N   0  0  0  0  0  0  0  0  0  0  0  0
    3.3379    1.2492   -0.1921 O   0  0  0  0  0  0  0  0  0  0  0  0
    3.4628   -0.9287    0.0226 O   0  0  0  0  0  0  0  0  0  0  0  0
    0.7805   -1.2190    0.0520 C   0  0  0  0  0  0  0  0  0  0  0  0
   -0.6022   -1.3239    0.0647 C   0  0  0  0  0  0  0  0  0  0  0  0
   -1.8134    2.6419   -0.3016 H   0  0  0  0  0  0  0  0  0  0  0  0
    1.1655    2.1830   -0.2664 H   0  0  0  0  0  0  0  0  0  0  0  0
    1.4148   -2.0939    0.1321 H   0  0  0  0  0  0  0  0  0  0  0  0
   -1.1017   -2.2829    0.1553 H   0  0  0  0  0  0  0  0  0  0  0  0
  1  2  1  0  0  0  0
  1 11  2  0  0  0  0
  2  3  1  0  0  0  0
  4  1  1  0  0  0  0
  5  4  2  0  0  0  0
  5  6  1  0  0  0  0
  6 10  2  0  0  0  0
  7  6  1  0  0  0  0
  7  9  2  0  0  0  0
  8  7  2  0  0  0  0
 10 11  1  0  0  0  0
 10 14  1  0  0  0  0
 11 15  1  0  0  0  0
 13  5  1  0  0  0  0
M  RAD  4   2   2   3   3   4   2  12   2
M  END
