Coordinates from ORCA-job 4-NO2PhN2+_B3LYPG-6-31G_dp-d09-49-n800
 OpenBabel11261918563D

 15 14  0  0  0  0  0  0  0  0999 V2000
   -1.2809   -0.4240   -0.0130 C   0  0  0  0  0  0  0  0  0  0  0  0
   -2.6601   -0.5722    0.0042 N   0  0  0  0  0  0  0  0  0  0  0  0
   -3.7682   -0.6804    0.0169 N   0  0  0  0  0  0  0  0  0  0  0  0
   -0.7632    0.8603   -0.1296 C   0  0  0  0  0  0  0  0  0  0  0  0
    0.5929    1.0654   -0.1527 C   0  0  0  0  0  0  0  0  0  0  0  0
    1.3952   -0.0801   -0.0546 C   0  0  0  0  0  0  0  0  0  0  0  0
    2.8846    0.1109   -0.0795 N   0  0  0  0  0  0  0  0  0  0  0  0
    3.2876    1.2590   -0.1810 O   0  0  0  0  0  0  0  0  0  0  0  0
    3.5565   -0.9075    0.0041 O   0  0  0  0  0  0  0  0  0  0  0  0
    0.8977   -1.3838    0.0639 C   0  0  0  0  0  0  0  0  0  0  0  0
   -0.4722   -1.5841    0.0874 C   0  0  0  0  0  0  0  0  0  0  0  0
   -2.5170    5.3063   -0.5729 H   0  0  0  0  0  0  0  0  0  0  0  0
    1.0673    2.0396   -0.2410 H   0  0  0  0  0  0  0  0  0  0  0  0
    1.5908   -2.2131    0.1346 H   0  0  0  0  0  0  0  0  0  0  0  0
   -0.9076   -2.5751    0.1778 H   0  0  0  0  0  0  0  0  0  0  0  0
  1  2  1  0  0  0  0
  1 11  2  0  0  0  0
  2  3  1  0  0  0  0
  4  1  1  0  0  0  0
  5  4  2  0  0  0  0
  5  6  1  0  0  0  0
  6 10  2  0  0  0  0
  7  6  1  0  0  0  0
  7  9  2  0  0  0  0
  8  7  2  0  0  0  0
 10 11  1  0  0  0  0
 10 14  1  0  0  0  0
 11 15  1  0  0  0  0
 13  5  1  0  0  0  0
M  RAD  4   2   2   3   3   4   2  12   2
M  END
