Coordinates from ORCA-job 4-NO2PhN2+_B3LYPG-6-31G_dp-d09-49-n800
 OpenBabel11261918563D

 15 15  0  0  0  0  0  0  0  0999 V2000
   -1.3530   -0.0922   -0.0485 C   0  0  0  0  0  0  0  0  0  0  0  0
   -2.7309   -0.1673   -0.0392 N   0  0  0  0  0  0  0  0  0  0  0  0
   -3.8432   -0.2288   -0.0317 N   0  0  0  0  0  0  0  0  0  0  0  0
   -0.7598    1.1774   -0.1678 C   0  0  0  0  0  0  0  0  0  0  0  0
    0.6211    1.2562   -0.1784 C   0  0  0  0  0  0  0  0  0  0  0  0
    1.3476    0.0678   -0.0695 C   0  0  0  0  0  0  0  0  0  0  0  0
    2.8395    0.1535   -0.0819 N   0  0  0  0  0  0  0  0  0  0  0  0
    3.3172    1.2729   -0.1950 O   0  0  0  0  0  0  0  0  0  0  0  0
    3.4435   -0.9046    0.0209 O   0  0  0  0  0  0  0  0  0  0  0  0
    0.7623   -1.1945    0.0496 C   0  0  0  0  0  0  0  0  0  0  0  0
   -0.6209   -1.2938    0.0617 C   0  0  0  0  0  0  0  0  0  0  0  0
   -1.5364    2.2960   -0.2700 H   0  0  0  0  0  0  0  0  0  0  0  0
    1.1448    2.2006   -0.2678 H   0  0  0  0  0  0  0  0  0  0  0  0
    1.3946   -2.0710    0.1300 H   0  0  0  0  0  0  0  0  0  0  0  0
   -1.1229   -2.2510    0.1521 H   0  0  0  0  0  0  0  0  0  0  0  0
  1  2  1  0  0  0  0
  1 11  2  0  0  0  0
  2  3  1  0  0  0  0
  4  1  1  0  0  0  0
  5  4  2  0  0  0  0
  5  6  1  0  0  0  0
  6 10  2  0  0  0  0
  7  6  1  0  0  0  0
  7  9  2  0  0  0  0
  8  7  2  0  0  0  0
 10 11  1  0  0  0  0
 10 14  1  0  0  0  0
 11 15  1  0  0  0  0
 12  4  1  0  0  0  0
 13  5  1  0  0  0  0
M  RAD  2   2   2   3   3
M  END
