Coordinates from ORCA-job 4-NO2PhN2+_B3LYPG-6-31G_dp-d09-49-n800
 OpenBabel11261918563D

 15 14  0  0  0  0  0  0  0  0999 V2000
   -1.3336   -0.1320   -0.0449 C   0  0  0  0  0  0  0  0  0  0  0  0
   -2.7106   -0.1917   -0.0383 N   0  0  0  0  0  0  0  0  0  0  0  0
   -3.8229   -0.2424   -0.0328 N   0  0  0  0  0  0  0  0  0  0  0  0
   -0.7174    1.1168   -0.1618 C   0  0  0  0  0  0  0  0  0  0  0  0
    0.6504    1.2309   -0.1743 C   0  0  0  0  0  0  0  0  0  0  0  0
    1.3732    0.0362   -0.0643 C   0  0  0  0  0  0  0  0  0  0  0  0
    2.8676    0.1226   -0.0757 N   0  0  0  0  0  0  0  0  0  0  0  0
    3.3450    1.2407   -0.1961 O   0  0  0  0  0  0  0  0  0  0  0  0
    3.4694   -0.9373    0.0179 O   0  0  0  0  0  0  0  0  0  0  0  0
    0.7867   -1.2272    0.0543 C   0  0  0  0  0  0  0  0  0  0  0  0
   -0.5959   -1.3335    0.0660 C   0  0  0  0  0  0  0  0  0  0  0  0
   -1.9078    2.7560   -0.3126 H   0  0  0  0  0  0  0  0  0  0  0  0
    1.1731    2.1765   -0.2635 H   0  0  0  0  0  0  0  0  0  0  0  0
    1.4214   -2.1018    0.1348 H   0  0  0  0  0  0  0  0  0  0  0  0
   -1.0951   -2.2929    0.1560 H   0  0  0  0  0  0  0  0  0  0  0  0
  1  2  1  0  0  0  0
  1 11  2  0  0  0  0
  2  3  1  0  0  0  0
  4  1  1  0  0  0  0
  5  4  2  0  0  0  0
  5  6  1  0  0  0  0
  6 10  2  0  0  0  0
  7  6  1  0  0  0  0
  7  9  2  0  0  0  0
  8  7  2  0  0  0  0
 10 11  1  0  0  0  0
 10 14  1  0  0  0  0
 11 15  1  0  0  0  0
 13  5  1  0  0  0  0
M  RAD  4   2   2   3   3   4   2  12   2
M  END
