Coordinates from ORCA-job 4-NO2PhN2+_B3LYPG-6-31G_dp-d09-49-n800
 OpenBabel11261918563D

 15 14  0  0  0  0  0  0  0  0999 V2000
   -1.2865   -0.2067   -0.0375 C   0  0  0  0  0  0  0  0  0  0  0  0
   -2.6678   -0.2679   -0.0294 N   0  0  0  0  0  0  0  0  0  0  0  0
   -3.7801   -0.3169   -0.0228 N   0  0  0  0  0  0  0  0  0  0  0  0
   -0.6729    1.0360   -0.1542 C   0  0  0  0  0  0  0  0  0  0  0  0
    0.6886    1.1672   -0.1695 C   0  0  0  0  0  0  0  0  0  0  0  0
    1.4155   -0.0278   -0.0606 C   0  0  0  0  0  0  0  0  0  0  0  0
    2.9137    0.0689   -0.0745 N   0  0  0  0  0  0  0  0  0  0  0  0
    3.3863    1.1889   -0.1853 O   0  0  0  0  0  0  0  0  0  0  0  0
    3.5185   -0.9887    0.0265 O   0  0  0  0  0  0  0  0  0  0  0  0
    0.8348   -1.2953    0.0587 C   0  0  0  0  0  0  0  0  0  0  0  0
   -0.5461   -1.4102    0.0726 C   0  0  0  0  0  0  0  0  0  0  0  0
   -2.5493    3.7001   -0.4018 H   0  0  0  0  0  0  0  0  0  0  0  0
    1.2169    2.1124   -0.2587 H   0  0  0  0  0  0  0  0  0  0  0  0
    1.4739   -2.1666    0.1380 H   0  0  0  0  0  0  0  0  0  0  0  0
   -1.0420   -2.3721    0.1633 H   0  0  0  0  0  0  0  0  0  0  0  0
  1  2  1  0  0  0  0
  1 11  2  0  0  0  0
  2  3  1  0  0  0  0
  4  1  1  0  0  0  0
  5  4  2  0  0  0  0
  5  6  1  0  0  0  0
  6 10  2  0  0  0  0
  7  6  1  0  0  0  0
  7  9  2  0  0  0  0
  8  7  2  0  0  0  0
 10 11  1  0  0  0  0
 10 14  1  0  0  0  0
 11 15  1  0  0  0  0
 13  5  1  0  0  0  0
M  RAD  4   2   2   3   3   4   2  12   2
M  END
