Coordinates from ORCA-job 4-NO2PhN2+_B3LYPG-6-31G_dp-d09-49-n800
 OpenBabel11261918563D

 15 14  0  0  0  0  0  0  0  0999 V2000
   -1.2818   -0.2203   -0.0360 C   0  0  0  0  0  0  0  0  0  0  0  0
   -2.6637   -0.2853   -0.0281 N   0  0  0  0  0  0  0  0  0  0  0  0
   -3.7759   -0.3368   -0.0233 N   0  0  0  0  0  0  0  0  0  0  0  0
   -0.6731    1.0243   -0.1525 C   0  0  0  0  0  0  0  0  0  0  0  0
    0.6884    1.1578   -0.1674 C   0  0  0  0  0  0  0  0  0  0  0  0
    1.4184   -0.0353   -0.0584 C   0  0  0  0  0  0  0  0  0  0  0  0
    2.9165    0.0654   -0.0720 N   0  0  0  0  0  0  0  0  0  0  0  0
    3.3865    1.1860   -0.1882 O   0  0  0  0  0  0  0  0  0  0  0  0
    3.5240   -0.9913    0.0227 O   0  0  0  0  0  0  0  0  0  0  0  0
    0.8410   -1.3045    0.0606 C   0  0  0  0  0  0  0  0  0  0  0  0
   -0.5394   -1.4228    0.0742 C   0  0  0  0  0  0  0  0  0  0  0  0
   -2.6020    3.8399   -0.4153 H   0  0  0  0  0  0  0  0  0  0  0  0
    1.2154    2.1039   -0.2562 H   0  0  0  0  0  0  0  0  0  0  0  0
    1.4823   -2.1741    0.1399 H   0  0  0  0  0  0  0  0  0  0  0  0
   -1.0332   -2.3858    0.1647 H   0  0  0  0  0  0  0  0  0  0  0  0
  1  2  1  0  0  0  0
  1 11  2  0  0  0  0
  2  3  1  0  0  0  0
  4  1  1  0  0  0  0
  5  4  2  0  0  0  0
  5  6  1  0  0  0  0
  6 10  2  0  0  0  0
  7  6  1  0  0  0  0
  7  9  2  0  0  0  0
  8  7  2  0  0  0  0
 10 11  1  0  0  0  0
 10 14  1  0  0  0  0
 11 15  1  0  0  0  0
 13  5  1  0  0  0  0
M  RAD  4   2   2   3   3   4   2  12   2
M  END
