Coordinates from ORCA-job 4-NO2PhN2+_B3LYPG-6-31G_dp-d09-49-n800
 OpenBabel11261918563D

 15 14  0  0  0  0  0  0  0  0999 V2000
   -1.3348   -0.1300   -0.0450 C   0  0  0  0  0  0  0  0  0  0  0  0
   -2.7118   -0.1902   -0.0372 N   0  0  0  0  0  0  0  0  0  0  0  0
   -3.8241   -0.2413   -0.0307 N   0  0  0  0  0  0  0  0  0  0  0  0
   -0.7195    1.1196   -0.1625 C   0  0  0  0  0  0  0  0  0  0  0  0
    0.6489    1.2322   -0.1761 C   0  0  0  0  0  0  0  0  0  0  0  0
    1.3718    0.0377   -0.0666 C   0  0  0  0  0  0  0  0  0  0  0  0
    2.8660    0.1239   -0.0795 N   0  0  0  0  0  0  0  0  0  0  0  0
    3.3435    1.2429   -0.1914 O   0  0  0  0  0  0  0  0  0  0  0  0
    3.4681   -0.9351    0.0228 O   0  0  0  0  0  0  0  0  0  0  0  0
    0.7854   -1.2255    0.0526 C   0  0  0  0  0  0  0  0  0  0  0  0
   -0.5973   -1.3315    0.0654 C   0  0  0  0  0  0  0  0  0  0  0  0
   -1.8878    2.7317   -0.3100 H   0  0  0  0  0  0  0  0  0  0  0  0
    1.1715    2.1778   -0.2658 H   0  0  0  0  0  0  0  0  0  0  0  0
    1.4200   -2.1002    0.1326 H   0  0  0  0  0  0  0  0  0  0  0  0
   -1.0965   -2.2908    0.1560 H   0  0  0  0  0  0  0  0  0  0  0  0
  1  2  1  0  0  0  0
  1 11  2  0  0  0  0
  2  3  1  0  0  0  0
  4  1  1  0  0  0  0
  5  4  2  0  0  0  0
  5  6  1  0  0  0  0
  6 10  2  0  0  0  0
  7  6  1  0  0  0  0
  7  9  2  0  0  0  0
  8  7  2  0  0  0  0
 10 11  1  0  0  0  0
 10 14  1  0  0  0  0
 11 15  1  0  0  0  0
 13  5  1  0  0  0  0
M  RAD  4   2   2   3   3   4   2  12   2
M  END
