Coordinates from ORCA-job 4-NO2PhN2+_B3LYPG-6-31G_dp-d09-49-n800
 OpenBabel11261918563D

 15 14  0  0  0  0  0  0  0  0999 V2000
   -1.2745   -0.3743   -0.0204 C   0  0  0  0  0  0  0  0  0  0  0  0
   -2.6557   -0.4984   -0.0063 N   0  0  0  0  0  0  0  0  0  0  0  0
   -3.7655   -0.5885    0.0041 N   0  0  0  0  0  0  0  0  0  0  0  0
   -0.7325    0.8998   -0.1393 C   0  0  0  0  0  0  0  0  0  0  0  0
    0.6265    1.0824   -0.1598 C   0  0  0  0  0  0  0  0  0  0  0  0
    1.4081   -0.0770   -0.0556 C   0  0  0  0  0  0  0  0  0  0  0  0
    2.9007    0.0878   -0.0769 N   0  0  0  0  0  0  0  0  0  0  0  0
    3.3239    1.2280   -0.1830 O   0  0  0  0  0  0  0  0  0  0  0  0
    3.5543   -0.9419    0.0142 O   0  0  0  0  0  0  0  0  0  0  0  0
    0.8874   -1.3712    0.0655 C   0  0  0  0  0  0  0  0  0  0  0  0
   -0.4858   -1.5477    0.0858 C   0  0  0  0  0  0  0  0  0  0  0  0
   -2.6283    5.0169   -0.5321 H   0  0  0  0  0  0  0  0  0  0  0  0
    1.1175    2.0481   -0.2500 H   0  0  0  0  0  0  0  0  0  0  0  0
    1.5658   -2.2123    0.1407 H   0  0  0  0  0  0  0  0  0  0  0  0
   -0.9386   -2.5306    0.1779 H   0  0  0  0  0  0  0  0  0  0  0  0
  1  2  1  0  0  0  0
  1 11  2  0  0  0  0
  2  3  1  0  0  0  0
  4  1  1  0  0  0  0
  5  4  2  0  0  0  0
  5  6  1  0  0  0  0
  6 10  2  0  0  0  0
  7  6  1  0  0  0  0
  7  9  2  0  0  0  0
  8  7  2  0  0  0  0
 10 11  1  0  0  0  0
 10 14  1  0  0  0  0
 11 15  1  0  0  0  0
 13  5  1  0  0  0  0
M  RAD  4   2   2   3   3   4   2  12   2
M  END
