Coordinates from ORCA-job 4-NO2PhN2+_B3LYPG-6-31G_dp-d09-49-n800
 OpenBabel11261918563D

 15 15  0  0  0  0  0  0  0  0999 V2000
   -1.3648   -0.0638   -0.0512 C   0  0  0  0  0  0  0  0  0  0  0  0
   -2.7449   -0.1443   -0.0410 N   0  0  0  0  0  0  0  0  0  0  0  0
   -3.8571   -0.2083   -0.0329 N   0  0  0  0  0  0  0  0  0  0  0  0
   -0.7856    1.2168   -0.1714 C   0  0  0  0  0  0  0  0  0  0  0  0
    0.6015    1.2741   -0.1798 C   0  0  0  0  0  0  0  0  0  0  0  0
    1.3314    0.0896   -0.0714 C   0  0  0  0  0  0  0  0  0  0  0  0
    2.8221    0.1758   -0.0840 N   0  0  0  0  0  0  0  0  0  0  0  0
    3.2995    1.2956   -0.1969 O   0  0  0  0  0  0  0  0  0  0  0  0
    3.4270   -0.8819    0.0194 O   0  0  0  0  0  0  0  0  0  0  0  0
    0.7460   -1.1715    0.0473 C   0  0  0  0  0  0  0  0  0  0  0  0
   -0.6382   -1.2661    0.0591 C   0  0  0  0  0  0  0  0  0  0  0  0
   -1.2925    1.9573   -0.2399 H   0  0  0  0  0  0  0  0  0  0  0  0
    1.1259    2.2189   -0.2694 H   0  0  0  0  0  0  0  0  0  0  0  0
    1.3764   -2.0495    0.1276 H   0  0  0  0  0  0  0  0  0  0  0  0
   -1.1432   -2.2216    0.1492 H   0  0  0  0  0  0  0  0  0  0  0  0
  1  2  1  0  0  0  0
  1 11  2  0  0  0  0
  2  3  1  0  0  0  0
  4  1  1  0  0  0  0
  5  4  2  0  0  0  0
  5  6  1  0  0  0  0
  6 10  2  0  0  0  0
  7  6  1  0  0  0  0
  7  9  2  0  0  0  0
  8  7  2  0  0  0  0
 10 11  1  0  0  0  0
 10 14  1  0  0  0  0
 11 15  1  0  0  0  0
 12  4  1  0  0  0  0
 13  5  1  0  0  0  0
M  RAD  2   2   2   3   3
M  END
