Coordinates from ORCA-job 4-NO2PhN2+_B3LYPG-6-31G_dp-d09-49-n800
 OpenBabel11261918563D

 15 14  0  0  0  0  0  0  0  0999 V2000
   -1.2735   -0.2646   -0.0318 C   0  0  0  0  0  0  0  0  0  0  0  0
   -2.6563   -0.3444   -0.0217 N   0  0  0  0  0  0  0  0  0  0  0  0
   -3.7681   -0.4041   -0.0140 N   0  0  0  0  0  0  0  0  0  0  0  0
   -0.6830    0.9883   -0.1493 C   0  0  0  0  0  0  0  0  0  0  0  0
    0.6789    1.1314   -0.1656 C   0  0  0  0  0  0  0  0  0  0  0  0
    1.4215   -0.0537   -0.0581 C   0  0  0  0  0  0  0  0  0  0  0  0
    2.9187    0.0624   -0.0741 N   0  0  0  0  0  0  0  0  0  0  0  0
    3.3779    1.1881   -0.1835 O   0  0  0  0  0  0  0  0  0  0  0  0
    3.5373   -0.9877    0.0242 O   0  0  0  0  0  0  0  0  0  0  0  0
    0.8578   -1.3294    0.0617 C   0  0  0  0  0  0  0  0  0  0  0  0
   -0.5210   -1.4612    0.0773 C   0  0  0  0  0  0  0  0  0  0  0  0
   -2.6882    4.2356   -0.4539 H   0  0  0  0  0  0  0  0  0  0  0  0
    1.1990    2.0817   -0.2548 H   0  0  0  0  0  0  0  0  0  0  0  0
    1.5079   -2.1924    0.1399 H   0  0  0  0  0  0  0  0  0  0  0  0
   -1.0056   -2.4289    0.1684 H   0  0  0  0  0  0  0  0  0  0  0  0
  1  2  1  0  0  0  0
  1 11  2  0  0  0  0
  2  3  1  0  0  0  0
  4  1  1  0  0  0  0
  5  4  2  0  0  0  0
  5  6  1  0  0  0  0
  6 10  2  0  0  0  0
  7  6  1  0  0  0  0
  7  9  2  0  0  0  0
  8  7  2  0  0  0  0
 10 11  1  0  0  0  0
 10 14  1  0  0  0  0
 11 15  1  0  0  0  0
 13  5  1  0  0  0  0
M  RAD  4   2   2   3   3   4   2  12   2
M  END
