Coordinates from ORCA-job 4-NO2PhN2+_B3LYPG-6-31G_dp-d09-49-n800
 OpenBabel11261918563D

 15 14  0  0  0  0  0  0  0  0999 V2000
   -1.2797   -0.2282   -0.0355 C   0  0  0  0  0  0  0  0  0  0  0  0
   -2.6619   -0.2960   -0.0268 N   0  0  0  0  0  0  0  0  0  0  0  0
   -3.7740   -0.3486   -0.0195 N   0  0  0  0  0  0  0  0  0  0  0  0
   -0.6744    1.0181   -0.1525 C   0  0  0  0  0  0  0  0  0  0  0  0
    0.6874    1.1525   -0.1681 C   0  0  0  0  0  0  0  0  0  0  0  0
    1.4195   -0.0392   -0.0596 C   0  0  0  0  0  0  0  0  0  0  0  0
    2.9175    0.0640   -0.0742 N   0  0  0  0  0  0  0  0  0  0  0  0
    3.3858    1.1858   -0.1845 O   0  0  0  0  0  0  0  0  0  0  0  0
    3.5268   -0.9912    0.0262 O   0  0  0  0  0  0  0  0  0  0  0  0
    0.8444   -1.3095    0.0600 C   0  0  0  0  0  0  0  0  0  0  0  0
   -0.5358   -1.4298    0.0745 C   0  0  0  0  0  0  0  0  0  0  0  0
   -2.6243    3.9160   -0.4224 H   0  0  0  0  0  0  0  0  0  0  0  0
    1.2136    2.0991   -0.2573 H   0  0  0  0  0  0  0  0  0  0  0  0
    1.4870   -2.1781    0.1390 H   0  0  0  0  0  0  0  0  0  0  0  0
   -1.0282   -2.3936    0.1653 H   0  0  0  0  0  0  0  0  0  0  0  0
  1  2  1  0  0  0  0
  1 11  2  0  0  0  0
  2  3  1  0  0  0  0
  4  1  1  0  0  0  0
  5  4  2  0  0  0  0
  5  6  1  0  0  0  0
  6 10  2  0  0  0  0
  7  6  1  0  0  0  0
  7  9  2  0  0  0  0
  8  7  2  0  0  0  0
 10 11  1  0  0  0  0
 10 14  1  0  0  0  0
 11 15  1  0  0  0  0
 13  5  1  0  0  0  0
M  RAD  4   2   2   3   3   4   2  12   2
M  END
