Coordinates from ORCA-job 4-NO2PhN2+_B3LYPG-6-31G_dp-d09-49-n800
 OpenBabel11261918563D

 15 14  0  0  0  0  0  0  0  0999 V2000
   -1.3381   -0.1243   -0.0456 C   0  0  0  0  0  0  0  0  0  0  0  0
   -2.7150   -0.1867   -0.0384 N   0  0  0  0  0  0  0  0  0  0  0  0
   -3.8273   -0.2393   -0.0325 N   0  0  0  0  0  0  0  0  0  0  0  0
   -0.7256    1.1279   -0.1630 C   0  0  0  0  0  0  0  0  0  0  0  0
    0.6445    1.2364   -0.1754 C   0  0  0  0  0  0  0  0  0  0  0  0
    1.3678    0.0428   -0.0656 C   0  0  0  0  0  0  0  0  0  0  0  0
    2.8616    0.1289   -0.0774 N   0  0  0  0  0  0  0  0  0  0  0  0
    3.3392    1.2474   -0.1954 O   0  0  0  0  0  0  0  0  0  0  0  0
    3.4640   -0.9305    0.0191 O   0  0  0  0  0  0  0  0  0  0  0  0
    0.7816   -1.2204    0.0532 C   0  0  0  0  0  0  0  0  0  0  0  0
   -0.6011   -1.3256    0.0651 C   0  0  0  0  0  0  0  0  0  0  0  0
   -1.8305    2.6626   -0.3037 H   0  0  0  0  0  0  0  0  0  0  0  0
    1.1668    2.1819   -0.2647 H   0  0  0  0  0  0  0  0  0  0  0  0
    1.4160   -2.0952    0.1336 H   0  0  0  0  0  0  0  0  0  0  0  0
   -1.1005   -2.2847    0.1553 H   0  0  0  0  0  0  0  0  0  0  0  0
  1  2  1  0  0  0  0
  1 11  2  0  0  0  0
  2  3  1  0  0  0  0
  4  1  1  0  0  0  0
  5  4  2  0  0  0  0
  5  6  1  0  0  0  0
  6 10  2  0  0  0  0
  7  6  1  0  0  0  0
  7  9  2  0  0  0  0
  8  7  2  0  0  0  0
 10 11  1  0  0  0  0
 10 14  1  0  0  0  0
 11 15  1  0  0  0  0
 13  5  1  0  0  0  0
M  RAD  4   2   2   3   3   4   2  12   2
M  END
