Coordinates from ORCA-job 4-NO2PhN2+_B3LYPG-6-31G_dp-d09-49-n800
 OpenBabel11261918563D

 15 14  0  0  0  0  0  0  0  0999 V2000
   -1.3270   -0.1421   -0.0437 C   0  0  0  0  0  0  0  0  0  0  0  0
   -2.7043   -0.1988   -0.0352 N   0  0  0  0  0  0  0  0  0  0  0  0
   -3.8166   -0.2470   -0.0281 N   0  0  0  0  0  0  0  0  0  0  0  0
   -0.7069    1.1028   -0.1613 C   0  0  0  0  0  0  0  0  0  0  0  0
    0.6584    1.2225   -0.1765 C   0  0  0  0  0  0  0  0  0  0  0  0
    1.3805    0.0264   -0.0674 C   0  0  0  0  0  0  0  0  0  0  0  0
    2.8757    0.1131   -0.0815 N   0  0  0  0  0  0  0  0  0  0  0  0
    3.3531    1.2325   -0.1860 O   0  0  0  0  0  0  0  0  0  0  0  0
    3.4770   -0.9455    0.0275 O   0  0  0  0  0  0  0  0  0  0  0  0
    0.7937   -1.2370    0.0523 C   0  0  0  0  0  0  0  0  0  0  0  0
   -0.5888   -1.3442    0.0663 C   0  0  0  0  0  0  0  0  0  0  0  0
   -2.0141    2.8855   -0.3244 H   0  0  0  0  0  0  0  0  0  0  0  0
    1.1819    2.1680   -0.2666 H   0  0  0  0  0  0  0  0  0  0  0  0
    1.4286   -2.1115    0.1318 H   0  0  0  0  0  0  0  0  0  0  0  0
   -1.0878   -2.3038    0.1573 H   0  0  0  0  0  0  0  0  0  0  0  0
  1  2  1  0  0  0  0
  1 11  2  0  0  0  0
  2  3  1  0  0  0  0
  4  1  1  0  0  0  0
  5  4  2  0  0  0  0
  5  6  1  0  0  0  0
  6 10  2  0  0  0  0
  7  6  1  0  0  0  0
  7  9  2  0  0  0  0
  8  7  2  0  0  0  0
 10 11  1  0  0  0  0
 10 14  1  0  0  0  0
 11 15  1  0  0  0  0
 13  5  1  0  0  0  0
M  RAD  4   2   2   3   3   4   2  12   2
M  END
