Coordinates from ORCA-job 4-NO2PhN2+_B3LYPG-6-31G_dp-d09-49-n800
 OpenBabel11261918563D

 15 14  0  0  0  0  0  0  0  0999 V2000
   -1.2752   -0.3846   -0.0192 C   0  0  0  0  0  0  0  0  0  0  0  0
   -2.6562   -0.5133   -0.0048 N   0  0  0  0  0  0  0  0  0  0  0  0
   -3.7657   -0.6066    0.0057 N   0  0  0  0  0  0  0  0  0  0  0  0
   -0.7380    0.8915   -0.1382 C   0  0  0  0  0  0  0  0  0  0  0  0
    0.6206    1.0783   -0.1589 C   0  0  0  0  0  0  0  0  0  0  0  0
    1.4061   -0.0784   -0.0555 C   0  0  0  0  0  0  0  0  0  0  0  0
    2.8982    0.0914   -0.0774 N   0  0  0  0  0  0  0  0  0  0  0  0
    3.3175    1.2331   -0.1830 O   0  0  0  0  0  0  0  0  0  0  0  0
    3.5552   -0.9361    0.0126 O   0  0  0  0  0  0  0  0  0  0  0  0
    0.8899   -1.3744    0.0657 C   0  0  0  0  0  0  0  0  0  0  0  0
   -0.4828   -1.5555    0.0866 C   0  0  0  0  0  0  0  0  0  0  0  0
   -2.6133    5.0833   -0.5392 H   0  0  0  0  0  0  0  0  0  0  0  0
    1.1084    2.0456   -0.2491 H   0  0  0  0  0  0  0  0  0  0  0  0
    1.5710   -2.2132    0.1406 H   0  0  0  0  0  0  0  0  0  0  0  0
   -0.9323   -2.5399    0.1788 H   0  0  0  0  0  0  0  0  0  0  0  0
  1  2  1  0  0  0  0
  1 11  2  0  0  0  0
  2  3  1  0  0  0  0
  4  1  1  0  0  0  0
  5  4  2  0  0  0  0
  5  6  1  0  0  0  0
  6 10  2  0  0  0  0
  7  6  1  0  0  0  0
  7  9  2  0  0  0  0
  8  7  2  0  0  0  0
 10 11  1  0  0  0  0
 10 14  1  0  0  0  0
 11 15  1  0  0  0  0
 13  5  1  0  0  0  0
M  RAD  4   2   2   3   3   4   2  12   2
M  END
