Coordinates from ORCA-job 4-NO2PhN2+_B3LYPG-6-31G_dp-d09-49-n800
 OpenBabel11261918563D

 15 14  0  0  0  0  0  0  0  0999 V2000
   -1.3466   -0.1075   -0.0471 C   0  0  0  0  0  0  0  0  0  0  0  0
   -2.7237   -0.1766   -0.0392 N   0  0  0  0  0  0  0  0  0  0  0  0
   -3.8360   -0.2340   -0.0327 N   0  0  0  0  0  0  0  0  0  0  0  0
   -0.7439    1.1537   -0.1653 C   0  0  0  0  0  0  0  0  0  0  0  0
    0.6318    1.2474   -0.1765 C   0  0  0  0  0  0  0  0  0  0  0  0
    1.3567    0.0566   -0.0671 C   0  0  0  0  0  0  0  0  0  0  0  0
    2.8494    0.1422   -0.0789 N   0  0  0  0  0  0  0  0  0  0  0  0
    3.3271    1.2610   -0.1965 O   0  0  0  0  0  0  0  0  0  0  0  0
    3.4527   -0.9166    0.0186 O   0  0  0  0  0  0  0  0  0  0  0  0
    0.7711   -1.2063    0.0517 C   0  0  0  0  0  0  0  0  0  0  0  0
   -0.6118   -1.3087    0.0635 C   0  0  0  0  0  0  0  0  0  0  0  0
   -1.6701    2.4662   -0.2858 H   0  0  0  0  0  0  0  0  0  0  0  0
    1.1544    2.1924   -0.2658 H   0  0  0  0  0  0  0  0  0  0  0  0
    1.4046   -2.0819    0.1322 H   0  0  0  0  0  0  0  0  0  0  0  0
   -1.1123   -2.2669    0.1536 H   0  0  0  0  0  0  0  0  0  0  0  0
  1  2  1  0  0  0  0
  1 11  2  0  0  0  0
  2  3  1  0  0  0  0
  4  1  1  0  0  0  0
  5  4  2  0  0  0  0
  5  6  1  0  0  0  0
  6 10  2  0  0  0  0
  7  6  1  0  0  0  0
  7  9  2  0  0  0  0
  8  7  2  0  0  0  0
 10 11  1  0  0  0  0
 10 14  1  0  0  0  0
 11 15  1  0  0  0  0
 13  5  1  0  0  0  0
M  RAD  4   2   2   3   3   4   2  12   2
M  END
