Coordinates from ORCA-job 4-NO2PhN2+_B3LYPG-6-31G_dp-d09-49-n800
 OpenBabel11261918563D

 15 14  0  0  0  0  0  0  0  0999 V2000
   -1.3126   -0.1617   -0.0419 C   0  0  0  0  0  0  0  0  0  0  0  0
   -2.6912   -0.2158   -0.0342 N   0  0  0  0  0  0  0  0  0  0  0  0
   -3.8035   -0.2616   -0.0279 N   0  0  0  0  0  0  0  0  0  0  0  0
   -0.6893    1.0788   -0.1586 C   0  0  0  0  0  0  0  0  0  0  0  0
    0.6730    1.2052   -0.1738 C   0  0  0  0  0  0  0  0  0  0  0  0
    1.3946    0.0076   -0.0644 C   0  0  0  0  0  0  0  0  0  0  0  0
    2.8913    0.0958   -0.0778 N   0  0  0  0  0  0  0  0  0  0  0  0
    3.3684    1.2145   -0.1871 O   0  0  0  0  0  0  0  0  0  0  0  0
    3.4919   -0.9637    0.0262 O   0  0  0  0  0  0  0  0  0  0  0  0
    0.8077   -1.2563    0.0549 C   0  0  0  0  0  0  0  0  0  0  0  0
   -0.5744   -1.3650    0.0684 C   0  0  0  0  0  0  0  0  0  0  0  0
   -2.2213    3.1485   -0.3492 H   0  0  0  0  0  0  0  0  0  0  0  0
    1.1991    2.1503   -0.2634 H   0  0  0  0  0  0  0  0  0  0  0  0
    1.4430   -2.1304    0.1345 H   0  0  0  0  0  0  0  0  0  0  0  0
   -1.0734   -2.3250    0.1591 H   0  0  0  0  0  0  0  0  0  0  0  0
  1  2  1  0  0  0  0
  1 11  2  0  0  0  0
  2  3  1  0  0  0  0
  4  1  1  0  0  0  0
  5  4  2  0  0  0  0
  5  6  1  0  0  0  0
  6 10  2  0  0  0  0
  7  6  1  0  0  0  0
  7  9  2  0  0  0  0
  8  7  2  0  0  0  0
 10 11  1  0  0  0  0
 10 14  1  0  0  0  0
 11 15  1  0  0  0  0
 13  5  1  0  0  0  0
M  RAD  4   2   2   3   3   4   2  12   2
M  END
