Coordinates from ORCA-job 4-NO2PhN2+_B3LYPG-6-31G_dp-d09-49-n800
 OpenBabel11261918563D

 15 14  0  0  0  0  0  0  0  0999 V2000
   -1.2792   -0.2306   -0.0351 C   0  0  0  0  0  0  0  0  0  0  0  0
   -2.6614   -0.2991   -0.0267 N   0  0  0  0  0  0  0  0  0  0  0  0
   -3.7735   -0.3521   -0.0198 N   0  0  0  0  0  0  0  0  0  0  0  0
   -0.6746    1.0159   -0.1521 C   0  0  0  0  0  0  0  0  0  0  0  0
    0.6872    1.1511   -0.1679 C   0  0  0  0  0  0  0  0  0  0  0  0
    1.4198   -0.0404   -0.0594 C   0  0  0  0  0  0  0  0  0  0  0  0
    2.9178    0.0635   -0.0742 N   0  0  0  0  0  0  0  0  0  0  0  0
    3.3856    1.1855   -0.1847 O   0  0  0  0  0  0  0  0  0  0  0  0
    3.5276   -0.9914    0.0259 O   0  0  0  0  0  0  0  0  0  0  0  0
    0.8453   -1.3110    0.0603 C   0  0  0  0  0  0  0  0  0  0  0  0
   -0.5347   -1.4320    0.0748 C   0  0  0  0  0  0  0  0  0  0  0  0
   -2.6314    3.9391   -0.4242 H   0  0  0  0  0  0  0  0  0  0  0  0
    1.2130    2.0979   -0.2572 H   0  0  0  0  0  0  0  0  0  0  0  0
    1.4885   -2.1792    0.1393 H   0  0  0  0  0  0  0  0  0  0  0  0
   -1.0266   -2.3960    0.1657 H   0  0  0  0  0  0  0  0  0  0  0  0
  1  2  1  0  0  0  0
  1 11  2  0  0  0  0
  2  3  1  0  0  0  0
  4  1  1  0  0  0  0
  5  4  2  0  0  0  0
  5  6  1  0  0  0  0
  6 10  2  0  0  0  0
  7  6  1  0  0  0  0
  7  9  2  0  0  0  0
  8  7  2  0  0  0  0
 10 11  1  0  0  0  0
 10 14  1  0  0  0  0
 11 15  1  0  0  0  0
 13  5  1  0  0  0  0
M  RAD  4   2   2   3   3   4   2  12   2
M  END
