Coordinates from ORCA-job 4-NO2PhN2+_B3LYPG-6-31G_dp-d09-49-n800
 OpenBabel11261918563D

 15 14  0  0  0  0  0  0  0  0999 V2000
   -1.3175   -0.1552   -0.0425 C   0  0  0  0  0  0  0  0  0  0  0  0
   -2.6956   -0.2098   -0.0351 N   0  0  0  0  0  0  0  0  0  0  0  0
   -3.8079   -0.2561   -0.0290 N   0  0  0  0  0  0  0  0  0  0  0  0
   -0.6946    1.0862   -0.1593 C   0  0  0  0  0  0  0  0  0  0  0  0
    0.6684    1.2112   -0.1740 C   0  0  0  0  0  0  0  0  0  0  0  0
    1.3900    0.0139   -0.0645 C   0  0  0  0  0  0  0  0  0  0  0  0
    2.8863    0.1016   -0.0775 N   0  0  0  0  0  0  0  0  0  0  0  0
    3.3636    1.2202   -0.1888 O   0  0  0  0  0  0  0  0  0  0  0  0
    3.4871   -0.9580    0.0245 O   0  0  0  0  0  0  0  0  0  0  0  0
    0.8031   -1.2498    0.0547 C   0  0  0  0  0  0  0  0  0  0  0  0
   -0.5792   -1.3581    0.0679 C   0  0  0  0  0  0  0  0  0  0  0  0
   -2.1540    3.0606   -0.3411 H   0  0  0  0  0  0  0  0  0  0  0  0
    1.1936    2.1565   -0.2635 H   0  0  0  0  0  0  0  0  0  0  0  0
    1.4383   -2.1240    0.1345 H   0  0  0  0  0  0  0  0  0  0  0  0
   -1.0782   -2.3180    0.1585 H   0  0  0  0  0  0  0  0  0  0  0  0
  1  2  1  0  0  0  0
  1 11  2  0  0  0  0
  2  3  1  0  0  0  0
  4  1  1  0  0  0  0
  5  4  2  0  0  0  0
  5  6  1  0  0  0  0
  6 10  2  0  0  0  0
  7  6  1  0  0  0  0
  7  9  2  0  0  0  0
  8  7  2  0  0  0  0
 10 11  1  0  0  0  0
 10 14  1  0  0  0  0
 11 15  1  0  0  0  0
 13  5  1  0  0  0  0
M  RAD  4   2   2   3   3   4   2  12   2
M  END
