Coordinates from ORCA-job 4-NO2PhN2+_B3LYPG-6-31G_dp-d09-49-n800
 OpenBabel11261918563D

 15 14  0  0  0  0  0  0  0  0999 V2000
   -1.2746   -0.2553   -0.0326 C   0  0  0  0  0  0  0  0  0  0  0  0
   -2.6573   -0.3318   -0.0231 N   0  0  0  0  0  0  0  0  0  0  0  0
   -3.7692   -0.3895   -0.0158 N   0  0  0  0  0  0  0  0  0  0  0  0
   -0.6800    0.9957   -0.1500 C   0  0  0  0  0  0  0  0  0  0  0  0
    0.6819    1.1365   -0.1662 C   0  0  0  0  0  0  0  0  0  0  0  0
    1.4215   -0.0505   -0.0584 C   0  0  0  0  0  0  0  0  0  0  0  0
    2.9190    0.0620   -0.0741 N   0  0  0  0  0  0  0  0  0  0  0  0
    3.3808    1.1865   -0.1839 O   0  0  0  0  0  0  0  0  0  0  0  0
    3.5350   -0.9896    0.0247 O   0  0  0  0  0  0  0  0  0  0  0  0
    0.8546   -1.3247    0.0614 C   0  0  0  0  0  0  0  0  0  0  0  0
   -0.5245   -1.4534    0.0767 C   0  0  0  0  0  0  0  0  0  0  0  0
   -2.6790    4.1589   -0.4461 H   0  0  0  0  0  0  0  0  0  0  0  0
    1.2037    2.0858   -0.2555 H   0  0  0  0  0  0  0  0  0  0  0  0
    1.5027   -2.1892    0.1398 H   0  0  0  0  0  0  0  0  0  0  0  0
   -1.0112   -2.4201    0.1678 H   0  0  0  0  0  0  0  0  0  0  0  0
  1  2  1  0  0  0  0
  1 11  2  0  0  0  0
  2  3  1  0  0  0  0
  4  1  1  0  0  0  0
  5  4  2  0  0  0  0
  5  6  1  0  0  0  0
  6 10  2  0  0  0  0
  7  6  1  0  0  0  0
  7  9  2  0  0  0  0
  8  7  2  0  0  0  0
 10 11  1  0  0  0  0
 10 14  1  0  0  0  0
 11 15  1  0  0  0  0
 13  5  1  0  0  0  0
M  RAD  4   2   2   3   3   4   2  12   2
M  END
