Coordinates from ORCA-job 4-NO2PhN2+_B3LYPG-6-31G_dp-d09-49-n800
 OpenBabel11261918563D

 15 14  0  0  0  0  0  0  0  0999 V2000
   -1.2720   -0.3249   -0.0253 C   0  0  0  0  0  0  0  0  0  0  0  0
   -2.6543   -0.4283   -0.0131 N   0  0  0  0  0  0  0  0  0  0  0  0
   -3.7652   -0.5037   -0.0041 N   0  0  0  0  0  0  0  0  0  0  0  0
   -0.7079    0.9399   -0.1433 C   0  0  0  0  0  0  0  0  0  0  0  0
    0.6530    1.1028   -0.1618 C   0  0  0  0  0  0  0  0  0  0  0  0
    1.4162   -0.0688   -0.0565 C   0  0  0  0  0  0  0  0  0  0  0  0
    2.9113    0.0730   -0.0754 N   0  0  0  0  0  0  0  0  0  0  0  0
    3.3517    1.2065   -0.1829 O   0  0  0  0  0  0  0  0  0  0  0  0
    3.5484   -0.9665    0.0187 O   0  0  0  0  0  0  0  0  0  0  0  0
    0.8752   -1.3546    0.0638 C   0  0  0  0  0  0  0  0  0  0  0  0
   -0.5007   -1.5097    0.0820 C   0  0  0  0  0  0  0  0  0  0  0  0
   -2.6820    4.6858   -0.4996 H   0  0  0  0  0  0  0  0  0  0  0  0
    1.1583    2.0612   -0.2513 H   0  0  0  0  0  0  0  0  0  0  0  0
    1.5403   -2.2061    0.1402 H   0  0  0  0  0  0  0  0  0  0  0  0
   -0.9689   -2.4855    0.1734 H   0  0  0  0  0  0  0  0  0  0  0  0
  1  2  1  0  0  0  0
  1 11  2  0  0  0  0
  2  3  1  0  0  0  0
  4  1  1  0  0  0  0
  5  4  2  0  0  0  0
  5  6  1  0  0  0  0
  6 10  2  0  0  0  0
  7  6  1  0  0  0  0
  7  9  2  0  0  0  0
  8  7  2  0  0  0  0
 10 11  1  0  0  0  0
 10 14  1  0  0  0  0
 11 15  1  0  0  0  0
 13  5  1  0  0  0  0
M  RAD  4   2   2   3   3   4   2  12   2
M  END
