Coordinates from ORCA-job 4-NO2PhN2+_B3LYPG-6-31G_dp-d09-49-n800
 OpenBabel11261918563D

 15 14  0  0  0  0  0  0  0  0999 V2000
   -1.3245   -0.1456   -0.0433 C   0  0  0  0  0  0  0  0  0  0  0  0
   -2.7021   -0.2015   -0.0348 N   0  0  0  0  0  0  0  0  0  0  0  0
   -3.8144   -0.2491   -0.0277 N   0  0  0  0  0  0  0  0  0  0  0  0
   -0.7035    1.0982   -0.1609 C   0  0  0  0  0  0  0  0  0  0  0  0
    0.6611    1.2196   -0.1763 C   0  0  0  0  0  0  0  0  0  0  0  0
    1.3830    0.0231   -0.0672 C   0  0  0  0  0  0  0  0  0  0  0  0
    2.8785    0.1099   -0.0815 N   0  0  0  0  0  0  0  0  0  0  0  0
    3.3559    1.2294   -0.1854 O   0  0  0  0  0  0  0  0  0  0  0  0
    3.4797   -0.9487    0.0280 O   0  0  0  0  0  0  0  0  0  0  0  0
    0.7961   -1.2404    0.0525 C   0  0  0  0  0  0  0  0  0  0  0  0
   -0.5862   -1.3479    0.0666 C   0  0  0  0  0  0  0  0  0  0  0  0
   -2.0513    2.9316   -0.3287 H   0  0  0  0  0  0  0  0  0  0  0  0
    1.1851    2.1650   -0.2664 H   0  0  0  0  0  0  0  0  0  0  0  0
    1.4312   -2.1148    0.1320 H   0  0  0  0  0  0  0  0  0  0  0  0
   -1.0852   -2.3075    0.1577 H   0  0  0  0  0  0  0  0  0  0  0  0
  1  2  1  0  0  0  0
  1 11  2  0  0  0  0
  2  3  1  0  0  0  0
  4  1  1  0  0  0  0
  5  4  2  0  0  0  0
  5  6  1  0  0  0  0
  6 10  2  0  0  0  0
  7  6  1  0  0  0  0
  7  9  2  0  0  0  0
  8  7  2  0  0  0  0
 10 11  1  0  0  0  0
 10 14  1  0  0  0  0
 11 15  1  0  0  0  0
 13  5  1  0  0  0  0
M  RAD  4   2   2   3   3   4   2  12   2
M  END
