Coordinates from ORCA-job 4-NO2PhN2+_B3LYPG-6-31G_dp-d09-49-n800
 OpenBabel11261918563D

 15 14  0  0  0  0  0  0  0  0999 V2000
   -1.3091   -0.1663   -0.0414 C   0  0  0  0  0  0  0  0  0  0  0  0
   -2.6880   -0.2205   -0.0341 N   0  0  0  0  0  0  0  0  0  0  0  0
   -3.8004   -0.2661   -0.0279 N   0  0  0  0  0  0  0  0  0  0  0  0
   -0.6858    1.0737   -0.1580 C   0  0  0  0  0  0  0  0  0  0  0  0
    0.6760    1.2010   -0.1730 C   0  0  0  0  0  0  0  0  0  0  0  0
    1.3977    0.0032   -0.0635 C   0  0  0  0  0  0  0  0  0  0  0  0
    2.8948    0.0919   -0.0766 N   0  0  0  0  0  0  0  0  0  0  0  0
    3.3717    1.2104   -0.1879 O   0  0  0  0  0  0  0  0  0  0  0  0
    3.4954   -0.9678    0.0253 O   0  0  0  0  0  0  0  0  0  0  0  0
    0.8110   -1.2609    0.0556 C   0  0  0  0  0  0  0  0  0  0  0  0
   -0.5710   -1.3700    0.0689 C   0  0  0  0  0  0  0  0  0  0  0  0
   -2.2680    3.2118   -0.3553 H   0  0  0  0  0  0  0  0  0  0  0  0
    1.2028    2.1459   -0.2624 H   0  0  0  0  0  0  0  0  0  0  0  0
    1.4465   -2.1349    0.1354 H   0  0  0  0  0  0  0  0  0  0  0  0
   -1.0700   -2.3300    0.1595 H   0  0  0  0  0  0  0  0  0  0  0  0
  1  2  1  0  0  0  0
  1 11  2  0  0  0  0
  2  3  1  0  0  0  0
  4  1  1  0  0  0  0
  5  4  2  0  0  0  0
  5  6  1  0  0  0  0
  6 10  2  0  0  0  0
  7  6  1  0  0  0  0
  7  9  2  0  0  0  0
  8  7  2  0  0  0  0
 10 11  1  0  0  0  0
 10 14  1  0  0  0  0
 11 15  1  0  0  0  0
 13  5  1  0  0  0  0
M  RAD  4   2   2   3   3   4   2  12   2
M  END
