Coordinates from ORCA-job 4-NO2PhN2+_B3LYPG-6-31G_dp-d09-49-n800
 OpenBabel11261918563D

 15 14  0  0  0  0  0  0  0  0999 V2000
   -1.3097   -0.1655   -0.0416 C   0  0  0  0  0  0  0  0  0  0  0  0
   -2.6886   -0.2197   -0.0345 N   0  0  0  0  0  0  0  0  0  0  0  0
   -3.8009   -0.2653   -0.0287 N   0  0  0  0  0  0  0  0  0  0  0  0
   -0.6864    1.0746   -0.1579 C   0  0  0  0  0  0  0  0  0  0  0  0
    0.6755    1.2018   -0.1726 C   0  0  0  0  0  0  0  0  0  0  0  0
    1.3972    0.0040   -0.0629 C   0  0  0  0  0  0  0  0  0  0  0  0
    2.8942    0.0927   -0.0756 N   0  0  0  0  0  0  0  0  0  0  0  0
    3.3711    1.2109   -0.1894 O   0  0  0  0  0  0  0  0  0  0  0  0
    3.4948   -0.9672    0.0237 O   0  0  0  0  0  0  0  0  0  0  0  0
    0.8104   -1.2601    0.0560 C   0  0  0  0  0  0  0  0  0  0  0  0
   -0.5716   -1.3691    0.0689 C   0  0  0  0  0  0  0  0  0  0  0  0
   -2.2599    3.2006   -0.3544 H   0  0  0  0  0  0  0  0  0  0  0  0
    1.2022    2.1467   -0.2618 H   0  0  0  0  0  0  0  0  0  0  0  0
    1.4458   -2.1341    0.1359 H   0  0  0  0  0  0  0  0  0  0  0  0
   -1.0706   -2.3291    0.1594 H   0  0  0  0  0  0  0  0  0  0  0  0
  1  2  1  0  0  0  0
  1 11  2  0  0  0  0
  2  3  1  0  0  0  0
  4  1  1  0  0  0  0
  5  4  2  0  0  0  0
  5  6  1  0  0  0  0
  6 10  2  0  0  0  0
  7  6  1  0  0  0  0
  7  9  2  0  0  0  0
  8  7  2  0  0  0  0
 10 11  1  0  0  0  0
 10 14  1  0  0  0  0
 11 15  1  0  0  0  0
 13  5  1  0  0  0  0
M  RAD  4   2   2   3   3   4   2  12   2
M  END
