Coordinates from ORCA-job 4-NO2PhN2+_B3LYPG-6-31G_dp-d09-49-n800
 OpenBabel11261918563D

 15 14  0  0  0  0  0  0  0  0999 V2000
   -1.2900   -0.1984   -0.0382 C   0  0  0  0  0  0  0  0  0  0  0  0
   -2.6710   -0.2578   -0.0303 N   0  0  0  0  0  0  0  0  0  0  0  0
   -3.7832   -0.3058   -0.0240 N   0  0  0  0  0  0  0  0  0  0  0  0
   -0.6740    1.0437   -0.1549 C   0  0  0  0  0  0  0  0  0  0  0  0
    0.6878    1.1735   -0.1702 C   0  0  0  0  0  0  0  0  0  0  0  0
    1.4131   -0.0225   -0.0611 C   0  0  0  0  0  0  0  0  0  0  0  0
    2.9112    0.0720   -0.0748 N   0  0  0  0  0  0  0  0  0  0  0  0
    3.3851    1.1914   -0.1857 O   0  0  0  0  0  0  0  0  0  0  0  0
    3.5146   -0.9863    0.0264 O   0  0  0  0  0  0  0  0  0  0  0  0
    0.8306   -1.2891    0.0581 C   0  0  0  0  0  0  0  0  0  0  0  0
   -0.5505   -1.4023    0.0719 C   0  0  0  0  0  0  0  0  0  0  0  0
   -2.5079    3.6095   -0.3933 H   0  0  0  0  0  0  0  0  0  0  0  0
    1.2166    2.1183   -0.2593 H   0  0  0  0  0  0  0  0  0  0  0  0
    1.4686   -2.1612    0.1375 H   0  0  0  0  0  0  0  0  0  0  0  0
   -1.0474   -2.3637    0.1626 H   0  0  0  0  0  0  0  0  0  0  0  0
  1  2  1  0  0  0  0
  1 11  2  0  0  0  0
  2  3  1  0  0  0  0
  4  1  1  0  0  0  0
  5  4  2  0  0  0  0
  5  6  1  0  0  0  0
  6 10  2  0  0  0  0
  7  6  1  0  0  0  0
  7  9  2  0  0  0  0
  8  7  2  0  0  0  0
 10 11  1  0  0  0  0
 10 14  1  0  0  0  0
 11 15  1  0  0  0  0
 13  5  1  0  0  0  0
M  RAD  4   2   2   3   3   4   2  12   2
M  END
