Coordinates from ORCA-job 4-NO2PhN2+_B3LYPG-6-31G_dp-d09-49-n800
 OpenBabel11261918563D

 15 14  0  0  0  0  0  0  0  0999 V2000
   -1.3403   -0.1203   -0.0459 C   0  0  0  0  0  0  0  0  0  0  0  0
   -2.7172   -0.1841   -0.0379 N   0  0  0  0  0  0  0  0  0  0  0  0
   -3.8295   -0.2378   -0.0313 N   0  0  0  0  0  0  0  0  0  0  0  0
   -0.7300    1.1339   -0.1638 C   0  0  0  0  0  0  0  0  0  0  0  0
    0.6414    1.2391   -0.1766 C   0  0  0  0  0  0  0  0  0  0  0  0
    1.3651    0.0462   -0.0672 C   0  0  0  0  0  0  0  0  0  0  0  0
    2.8585    0.1320   -0.0798 N   0  0  0  0  0  0  0  0  0  0  0  0
    3.3362    1.2510   -0.1929 O   0  0  0  0  0  0  0  0  0  0  0  0
    3.4612   -0.9268    0.0218 O   0  0  0  0  0  0  0  0  0  0  0  0
    0.7790   -1.2170    0.0520 C   0  0  0  0  0  0  0  0  0  0  0  0
   -0.6037   -1.3215    0.0645 C   0  0  0  0  0  0  0  0  0  0  0  0
   -1.7907    2.6143   -0.2991 H   0  0  0  0  0  0  0  0  0  0  0  0
    1.1637    2.1845   -0.2662 H   0  0  0  0  0  0  0  0  0  0  0  0
    1.4132   -2.0920    0.1321 H   0  0  0  0  0  0  0  0  0  0  0  0
   -1.1034   -2.2804    0.1550 H   0  0  0  0  0  0  0  0  0  0  0  0
  1  2  1  0  0  0  0
  1 11  2  0  0  0  0
  2  3  1  0  0  0  0
  4  1  1  0  0  0  0
  5  4  2  0  0  0  0
  5  6  1  0  0  0  0
  6 10  2  0  0  0  0
  7  6  1  0  0  0  0
  7  9  2  0  0  0  0
  8  7  2  0  0  0  0
 10 11  1  0  0  0  0
 10 14  1  0  0  0  0
 11 15  1  0  0  0  0
 13  5  1  0  0  0  0
M  RAD  4   2   2   3   3   4   2  12   2
M  END
