Coordinates from ORCA-job 4-NO2PhN2+_B3LYPG-6-31G_dp-d09-49-n800
 OpenBabel11261918563D

 15 14  0  0  0  0  0  0  0  0999 V2000
   -1.3462   -0.1084   -0.0469 C   0  0  0  0  0  0  0  0  0  0  0  0
   -2.7233   -0.1770   -0.0384 N   0  0  0  0  0  0  0  0  0  0  0  0
   -3.8356   -0.2341   -0.0313 N   0  0  0  0  0  0  0  0  0  0  0  0
   -0.7429    1.1522   -0.1655 C   0  0  0  0  0  0  0  0  0  0  0  0
    0.6325    1.2467   -0.1775 C   0  0  0  0  0  0  0  0  0  0  0  0
    1.3573    0.0557   -0.0684 C   0  0  0  0  0  0  0  0  0  0  0  0
    2.8500    0.1413   -0.0810 N   0  0  0  0  0  0  0  0  0  0  0  0
    3.3277    1.2606   -0.1934 O   0  0  0  0  0  0  0  0  0  0  0  0
    3.4533   -0.9170    0.0217 O   0  0  0  0  0  0  0  0  0  0  0  0
    0.7717   -1.2071    0.0508 C   0  0  0  0  0  0  0  0  0  0  0  0
   -0.6112   -1.3096    0.0633 C   0  0  0  0  0  0  0  0  0  0  0  0
   -1.6784    2.4766   -0.2866 H   0  0  0  0  0  0  0  0  0  0  0  0
    1.1551    2.1918   -0.2670 H   0  0  0  0  0  0  0  0  0  0  0  0
    1.4052   -2.0827    0.1310 H   0  0  0  0  0  0  0  0  0  0  0  0
   -1.1117   -2.2679    0.1538 H   0  0  0  0  0  0  0  0  0  0  0  0
  1  2  1  0  0  0  0
  1 11  2  0  0  0  0
  2  3  1  0  0  0  0
  4  1  1  0  0  0  0
  5  4  2  0  0  0  0
  5  6  1  0  0  0  0
  6 10  2  0  0  0  0
  7  6  1  0  0  0  0
  7  9  2  0  0  0  0
  8  7  2  0  0  0  0
 10 11  1  0  0  0  0
 10 14  1  0  0  0  0
 11 15  1  0  0  0  0
 13  5  1  0  0  0  0
M  RAD  4   2   2   3   3   4   2  12   2
M  END
