Coordinates from ORCA-job 4-NO2PhN2+_B3LYPG-6-31G_dp-d09-49-n800
 OpenBabel11261918563D

 15 14  0  0  0  0  0  0  0  0999 V2000
   -1.2741   -0.2596   -0.0322 C   0  0  0  0  0  0  0  0  0  0  0  0
   -2.6568   -0.3377   -0.0225 N   0  0  0  0  0  0  0  0  0  0  0  0
   -3.7686   -0.3963   -0.0151 N   0  0  0  0  0  0  0  0  0  0  0  0
   -0.6814    0.9924   -0.1496 C   0  0  0  0  0  0  0  0  0  0  0  0
    0.6806    1.1342   -0.1660 C   0  0  0  0  0  0  0  0  0  0  0  0
    1.4215   -0.0520   -0.0583 C   0  0  0  0  0  0  0  0  0  0  0  0
    2.9189    0.0621   -0.0741 N   0  0  0  0  0  0  0  0  0  0  0  0
    3.3795    1.1872   -0.1837 O   0  0  0  0  0  0  0  0  0  0  0  0
    3.5361   -0.9888    0.0245 O   0  0  0  0  0  0  0  0  0  0  0  0
    0.8561   -1.3269    0.0615 C   0  0  0  0  0  0  0  0  0  0  0  0
   -0.5229   -1.4570    0.0770 C   0  0  0  0  0  0  0  0  0  0  0  0
   -2.6836    4.1946   -0.4497 H   0  0  0  0  0  0  0  0  0  0  0  0
    1.2016    2.0839   -0.2552 H   0  0  0  0  0  0  0  0  0  0  0  0
    1.5051   -2.1907    0.1398 H   0  0  0  0  0  0  0  0  0  0  0  0
   -1.0085   -2.4242    0.1681 H   0  0  0  0  0  0  0  0  0  0  0  0
  1  2  1  0  0  0  0
  1 11  2  0  0  0  0
  2  3  1  0  0  0  0
  4  1  1  0  0  0  0
  5  4  2  0  0  0  0
  5  6  1  0  0  0  0
  6 10  2  0  0  0  0
  7  6  1  0  0  0  0
  7  9  2  0  0  0  0
  8  7  2  0  0  0  0
 10 11  1  0  0  0  0
 10 14  1  0  0  0  0
 11 15  1  0  0  0  0
 13  5  1  0  0  0  0
M  RAD  4   2   2   3   3   4   2  12   2
M  END
