Coordinates from ORCA-job 4-NO2PhN2+_B3LYPG-6-31G_dp-d09-49-n800
 OpenBabel11261918563D

 15 14  0  0  0  0  0  0  0  0999 V2000
   -1.2717   -0.2942   -0.0287 C   0  0  0  0  0  0  0  0  0  0  0  0
   -2.6544   -0.3850   -0.0181 N   0  0  0  0  0  0  0  0  0  0  0  0
   -3.7659   -0.4515   -0.0079 N   0  0  0  0  0  0  0  0  0  0  0  0
   -0.6938    0.9644   -0.1462 C   0  0  0  0  0  0  0  0  0  0  0  0
    0.6677    1.1167   -0.1635 C   0  0  0  0  0  0  0  0  0  0  0  0
    1.4200   -0.0622   -0.0571 C   0  0  0  0  0  0  0  0  0  0  0  0
    2.9163    0.0659   -0.0744 N   0  0  0  0  0  0  0  0  0  0  0  0
    3.3668    1.1953   -0.1828 O   0  0  0  0  0  0  0  0  0  0  0  0
    3.5436   -0.9793    0.0217 O   0  0  0  0  0  0  0  0  0  0  0  0
    0.8669   -1.3427    0.0627 C   0  0  0  0  0  0  0  0  0  0  0  0
   -0.5106   -1.4855    0.0794 C   0  0  0  0  0  0  0  0  0  0  0  0
   -2.6990    4.4662   -0.4780 H   0  0  0  0  0  0  0  0  0  0  0  0
    1.1811    2.0707   -0.2527 H   0  0  0  0  0  0  0  0  0  0  0  0
    1.5241   -2.2004    0.1399 H   0  0  0  0  0  0  0  0  0  0  0  0
   -0.9875   -2.4571    0.1704 H   0  0  0  0  0  0  0  0  0  0  0  0
  1  2  1  0  0  0  0
  1 11  2  0  0  0  0
  2  3  1  0  0  0  0
  4  1  1  0  0  0  0
  5  4  2  0  0  0  0
  5  6  1  0  0  0  0
  6 10  2  0  0  0  0
  7  6  1  0  0  0  0
  7  9  2  0  0  0  0
  8  7  2  0  0  0  0
 10 11  1  0  0  0  0
 10 14  1  0  0  0  0
 11 15  1  0  0  0  0
 13  5  1  0  0  0  0
M  RAD  4   2   2   3   3   4   2  12   2
M  END
