Coordinates from ORCA-job 4-NO2PhN2+_B3LYPG-6-31G_dp-d09-49-n800
 OpenBabel11261918563D

 15 14  0  0  0  0  0  0  0  0999 V2000
   -1.2744   -0.3727   -0.0204 C   0  0  0  0  0  0  0  0  0  0  0  0
   -2.6557   -0.4963   -0.0066 N   0  0  0  0  0  0  0  0  0  0  0  0
   -3.7655   -0.5860    0.0036 N   0  0  0  0  0  0  0  0  0  0  0  0
   -0.7318    0.9012   -0.1394 C   0  0  0  0  0  0  0  0  0  0  0  0
    0.6273    1.0830   -0.1598 C   0  0  0  0  0  0  0  0  0  0  0  0
    1.4083   -0.0767   -0.0556 C   0  0  0  0  0  0  0  0  0  0  0  0
    2.9011    0.0874   -0.0769 N   0  0  0  0  0  0  0  0  0  0  0  0
    3.3247    1.2275   -0.1832 O   0  0  0  0  0  0  0  0  0  0  0  0
    3.5541   -0.9426    0.0142 O   0  0  0  0  0  0  0  0  0  0  0  0
    0.8871   -1.3707    0.0655 C   0  0  0  0  0  0  0  0  0  0  0  0
   -0.4863   -1.5465    0.0857 C   0  0  0  0  0  0  0  0  0  0  0  0
   -2.6296    5.0064   -0.5311 H   0  0  0  0  0  0  0  0  0  0  0  0
    1.1187    2.0485   -0.2499 H   0  0  0  0  0  0  0  0  0  0  0  0
    1.5650   -2.2121    0.1408 H   0  0  0  0  0  0  0  0  0  0  0  0
   -0.9397   -2.5291    0.1778 H   0  0  0  0  0  0  0  0  0  0  0  0
  1  2  1  0  0  0  0
  1 11  2  0  0  0  0
  2  3  1  0  0  0  0
  4  1  1  0  0  0  0
  5  4  2  0  0  0  0
  5  6  1  0  0  0  0
  6 10  2  0  0  0  0
  7  6  1  0  0  0  0
  7  9  2  0  0  0  0
  8  7  2  0  0  0  0
 10 11  1  0  0  0  0
 10 14  1  0  0  0  0
 11 15  1  0  0  0  0
 13  5  1  0  0  0  0
M  RAD  4   2   2   3   3   4   2  12   2
M  END
