Coordinates from ORCA-job 4-NO2PhN2+_B3LYPG-6-31G_dp-d09-49-n800
 OpenBabel11261918563D

 15 14  0  0  0  0  0  0  0  0999 V2000
   -1.3279   -0.1407   -0.0439 C   0  0  0  0  0  0  0  0  0  0  0  0
   -2.7052   -0.1978   -0.0359 N   0  0  0  0  0  0  0  0  0  0  0  0
   -3.8175   -0.2464   -0.0293 N   0  0  0  0  0  0  0  0  0  0  0  0
   -0.7083    1.1046   -0.1612 C   0  0  0  0  0  0  0  0  0  0  0  0
    0.6573    1.2237   -0.1758 C   0  0  0  0  0  0  0  0  0  0  0  0
    1.3795    0.0278   -0.0664 C   0  0  0  0  0  0  0  0  0  0  0  0
    2.8746    0.1144   -0.0799 N   0  0  0  0  0  0  0  0  0  0  0  0
    3.3520    1.2335   -0.1885 O   0  0  0  0  0  0  0  0  0  0  0  0
    3.4760   -0.9446    0.0250 O   0  0  0  0  0  0  0  0  0  0  0  0
    0.7927   -1.2356    0.0529 C   0  0  0  0  0  0  0  0  0  0  0  0
   -0.5897   -1.3427    0.0663 C   0  0  0  0  0  0  0  0  0  0  0  0
   -1.9998    2.8679   -0.3229 H   0  0  0  0  0  0  0  0  0  0  0  0
    1.1807    2.1693   -0.2656 H   0  0  0  0  0  0  0  0  0  0  0  0
    1.4277   -2.1101    0.1327 H   0  0  0  0  0  0  0  0  0  0  0  0
   -1.0888   -2.3023    0.1571 H   0  0  0  0  0  0  0  0  0  0  0  0
  1  2  1  0  0  0  0
  1 11  2  0  0  0  0
  2  3  1  0  0  0  0
  4  1  1  0  0  0  0
  5  4  2  0  0  0  0
  5  6  1  0  0  0  0
  6 10  2  0  0  0  0
  7  6  1  0  0  0  0
  7  9  2  0  0  0  0
  8  7  2  0  0  0  0
 10 11  1  0  0  0  0
 10 14  1  0  0  0  0
 11 15  1  0  0  0  0
 13  5  1  0  0  0  0
M  RAD  4   2   2   3   3   4   2  12   2
M  END
