Coordinates from ORCA-job 4-NO2PhN2+_B3LYPG-6-31G_dp-d09-49-n800
 OpenBabel11261918563D

 15 14  0  0  0  0  0  0  0  0999 V2000
   -1.2832   -0.4397   -0.0108 C   0  0  0  0  0  0  0  0  0  0  0  0
   -2.6618   -0.5953    0.0074 N   0  0  0  0  0  0  0  0  0  0  0  0
   -3.7693   -0.7091    0.0209 N   0  0  0  0  0  0  0  0  0  0  0  0
   -0.7730    0.8475   -0.1268 C   0  0  0  0  0  0  0  0  0  0  0  0
    0.5817    1.0606   -0.1509 C   0  0  0  0  0  0  0  0  0  0  0  0
    1.3906   -0.0805   -0.0544 C   0  0  0  0  0  0  0  0  0  0  0  0
    2.8788    0.1189   -0.0804 N   0  0  0  0  0  0  0  0  0  0  0  0
    3.2754    1.2693   -0.1806 O   0  0  0  0  0  0  0  0  0  0  0  0
    3.5567   -0.8958    0.0014 O   0  0  0  0  0  0  0  0  0  0  0  0
    0.9007   -1.3872    0.0634 C   0  0  0  0  0  0  0  0  0  0  0  0
   -0.4681   -1.5954    0.0880 C   0  0  0  0  0  0  0  0  0  0  0  0
   -2.4770    5.3920   -0.5845 H   0  0  0  0  0  0  0  0  0  0  0  0
    1.0510    2.0372   -0.2388 H   0  0  0  0  0  0  0  0  0  0  0  0
    1.5985   -2.2125    0.1329 H   0  0  0  0  0  0  0  0  0  0  0  0
   -0.8977   -2.5889    0.1780 H   0  0  0  0  0  0  0  0  0  0  0  0
  1  2  1  0  0  0  0
  1 11  2  0  0  0  0
  2  3  1  0  0  0  0
  4  1  1  0  0  0  0
  5  4  2  0  0  0  0
  5  6  1  0  0  0  0
  6 10  2  0  0  0  0
  7  6  1  0  0  0  0
  7  9  2  0  0  0  0
  8  7  2  0  0  0  0
 10 11  1  0  0  0  0
 10 14  1  0  0  0  0
 11 15  1  0  0  0  0
 13  5  1  0  0  0  0
M  RAD  4   2   2   3   3   4   2  12   2
M  END
