Coordinates from ORCA-job 4-NO2PhN2+_B3LYPG-6-31G_dp-d09-49-n800
 OpenBabel11261918563D

 15 14  0  0  0  0  0  0  0  0999 V2000
   -1.2718   -0.2914   -0.0287 C   0  0  0  0  0  0  0  0  0  0  0  0
   -2.6545   -0.3813   -0.0178 N   0  0  0  0  0  0  0  0  0  0  0  0
   -3.7660   -0.4474   -0.0099 N   0  0  0  0  0  0  0  0  0  0  0  0
   -0.6929    0.9668   -0.1463 C   0  0  0  0  0  0  0  0  0  0  0  0
    0.6688    1.1179   -0.1636 C   0  0  0  0  0  0  0  0  0  0  0  0
    1.4201   -0.0615   -0.0572 C   0  0  0  0  0  0  0  0  0  0  0  0
    2.9165    0.0655   -0.0746 N   0  0  0  0  0  0  0  0  0  0  0  0
    3.3678    1.1945   -0.1831 O   0  0  0  0  0  0  0  0  0  0  0  0
    3.5430   -0.9802    0.0217 O   0  0  0  0  0  0  0  0  0  0  0  0
    0.8661   -1.3415    0.0627 C   0  0  0  0  0  0  0  0  0  0  0  0
   -0.5115   -1.4832    0.0795 C   0  0  0  0  0  0  0  0  0  0  0  0
   -2.6985    4.4455   -0.4756 H   0  0  0  0  0  0  0  0  0  0  0  0
    1.1829    2.0716   -0.2529 H   0  0  0  0  0  0  0  0  0  0  0  0
    1.5226   -2.1997    0.1399 H   0  0  0  0  0  0  0  0  0  0  0  0
   -0.9892   -2.4544    0.1706 H   0  0  0  0  0  0  0  0  0  0  0  0
  1  2  1  0  0  0  0
  1 11  2  0  0  0  0
  2  3  1  0  0  0  0
  4  1  1  0  0  0  0
  5  4  2  0  0  0  0
  5  6  1  0  0  0  0
  6 10  2  0  0  0  0
  7  6  1  0  0  0  0
  7  9  2  0  0  0  0
  8  7  2  0  0  0  0
 10 11  1  0  0  0  0
 10 14  1  0  0  0  0
 11 15  1  0  0  0  0
 13  5  1  0  0  0  0
M  RAD  4   2   2   3   3   4   2  12   2
M  END
