Coordinates from ORCA-job 4-NO2PhN2+_B3LYPG-6-31G_dp-d09-49-n800
 OpenBabel11261918563D

 15 14  0  0  0  0  0  0  0  0999 V2000
   -1.2785   -0.2317   -0.0365 C   0  0  0  0  0  0  0  0  0  0  0  0
   -2.6606   -0.2999   -0.0291 N   0  0  0  0  0  0  0  0  0  0  0  0
   -3.7728   -0.3527   -0.0127 N   0  0  0  0  0  0  0  0  0  0  0  0
   -0.6744    1.0145   -0.1530 C   0  0  0  0  0  0  0  0  0  0  0  0
    0.6867    1.1499   -0.1680 C   0  0  0  0  0  0  0  0  0  0  0  0
    1.4197   -0.0410   -0.0593 C   0  0  0  0  0  0  0  0  0  0  0  0
    2.9177    0.0637   -0.0733 N   0  0  0  0  0  0  0  0  0  0  0  0
    3.3850    1.1860   -0.1833 O   0  0  0  0  0  0  0  0  0  0  0  0
    3.5281   -0.9908    0.0270 O   0  0  0  0  0  0  0  0  0  0  0  0
    0.8457   -1.3119    0.0598 C   0  0  0  0  0  0  0  0  0  0  0  0
   -0.5343   -1.4330    0.0736 C   0  0  0  0  0  0  0  0  0  0  0  0
   -2.6337    3.9480   -0.4266 H   0  0  0  0  0  0  0  0  0  0  0  0
    1.2123    2.0970   -0.2569 H   0  0  0  0  0  0  0  0  0  0  0  0
    1.4890   -2.1800    0.1390 H   0  0  0  0  0  0  0  0  0  0  0  0
   -1.0263   -2.3969    0.1640 H   0  0  0  0  0  0  0  0  0  0  0  0
  1  2  1  0  0  0  0
  1 11  2  0  0  0  0
  2  3  1  0  0  0  0
  4  1  1  0  0  0  0
  5  4  2  0  0  0  0
  5  6  1  0  0  0  0
  6 10  2  0  0  0  0
  7  6  1  0  0  0  0
  7  9  2  0  0  0  0
  8  7  2  0  0  0  0
 10 11  1  0  0  0  0
 10 14  1  0  0  0  0
 11 15  1  0  0  0  0
 13  5  1  0  0  0  0
M  RAD  4   2   2   3   3   4   2  12   2
M  END
