Coordinates from ORCA-job 4-NO2PhN2+_B3LYPG-6-31G_dp-d09-49-n800
 OpenBabel11261918563D

 15 14  0  0  0  0  0  0  0  0999 V2000
   -1.3262   -0.1432   -0.0437 C   0  0  0  0  0  0  0  0  0  0  0  0
   -2.7036   -0.1998   -0.0369 N   0  0  0  0  0  0  0  0  0  0  0  0
   -3.8159   -0.2480   -0.0312 N   0  0  0  0  0  0  0  0  0  0  0  0
   -0.7058    1.1014   -0.1604 C   0  0  0  0  0  0  0  0  0  0  0  0
    0.6592    1.2219   -0.1740 C   0  0  0  0  0  0  0  0  0  0  0  0
    1.3813    0.0257   -0.0642 C   0  0  0  0  0  0  0  0  0  0  0  0
    2.8766    0.1126   -0.0763 N   0  0  0  0  0  0  0  0  0  0  0  0
    3.3540    1.2309   -0.1928 O   0  0  0  0  0  0  0  0  0  0  0  0
    3.4778   -0.9472    0.0205 O   0  0  0  0  0  0  0  0  0  0  0  0
    0.7944   -1.2378    0.0546 C   0  0  0  0  0  0  0  0  0  0  0  0
   -0.5880   -1.3453    0.0669 C   0  0  0  0  0  0  0  0  0  0  0  0
   -2.0256    2.8996   -0.3263 H   0  0  0  0  0  0  0  0  0  0  0  0
    1.1829    2.1674   -0.2633 H   0  0  0  0  0  0  0  0  0  0  0  0
    1.4294   -2.1122    0.1347 H   0  0  0  0  0  0  0  0  0  0  0  0
   -1.0870   -2.3049    0.1572 H   0  0  0  0  0  0  0  0  0  0  0  0
  1  2  1  0  0  0  0
  1 11  2  0  0  0  0
  2  3  1  0  0  0  0
  4  1  1  0  0  0  0
  5  4  2  0  0  0  0
  5  6  1  0  0  0  0
  6 10  2  0  0  0  0
  7  6  1  0  0  0  0
  7  9  2  0  0  0  0
  8  7  2  0  0  0  0
 10 11  1  0  0  0  0
 10 14  1  0  0  0  0
 11 15  1  0  0  0  0
 13  5  1  0  0  0  0
M  RAD  4   2   2   3   3   4   2  12   2
M  END
