Coordinates from ORCA-job 4-NO2PhN2+_B3LYPG-6-31G_dp-d09-49-n800
 OpenBabel11261918563D

 15 14  0  0  0  0  0  0  0  0999 V2000
   -1.2733   -0.3550   -0.0221 C   0  0  0  0  0  0  0  0  0  0  0  0
   -2.6551   -0.4708   -0.0079 N   0  0  0  0  0  0  0  0  0  0  0  0
   -3.7653   -0.5550    0.0026 N   0  0  0  0  0  0  0  0  0  0  0  0
   -0.7226    0.9152   -0.1411 C   0  0  0  0  0  0  0  0  0  0  0  0
    0.6372    1.0902   -0.1618 C   0  0  0  0  0  0  0  0  0  0  0  0
    1.4115   -0.0741   -0.0576 C   0  0  0  0  0  0  0  0  0  0  0  0
    2.9052    0.0814   -0.0791 N   0  0  0  0  0  0  0  0  0  0  0  0
    3.3351    1.2196   -0.1791 O   0  0  0  0  0  0  0  0  0  0  0  0
    3.5522   -0.9516    0.0197 O   0  0  0  0  0  0  0  0  0  0  0  0
    0.8828   -1.3650    0.0636 C   0  0  0  0  0  0  0  0  0  0  0  0
   -0.4916   -1.5331    0.0840 C   0  0  0  0  0  0  0  0  0  0  0  0
   -2.6519    4.8899   -0.5197 H   0  0  0  0  0  0  0  0  0  0  0  0
    1.1338    2.0530   -0.2521 H   0  0  0  0  0  0  0  0  0  0  0  0
    1.5559   -2.2103    0.1389 H   0  0  0  0  0  0  0  0  0  0  0  0
   -0.9504   -2.5132    0.1762 H   0  0  0  0  0  0  0  0  0  0  0  0
  1  2  1  0  0  0  0
  1 11  2  0  0  0  0
  2  3  1  0  0  0  0
  4  1  1  0  0  0  0
  5  4  2  0  0  0  0
  5  6  1  0  0  0  0
  6 10  2  0  0  0  0
  7  6  1  0  0  0  0
  7  9  2  0  0  0  0
  8  7  2  0  0  0  0
 10 11  1  0  0  0  0
 10 14  1  0  0  0  0
 11 15  1  0  0  0  0
 13  5  1  0  0  0  0
M  RAD  4   2   2   3   3   4   2  12   2
M  END
