Coordinates from ORCA-job 4-NO2PhN2+_B3LYPG-6-31G_dp-d09-49-n800
 OpenBabel11261918563D

 15 14  0  0  0  0  0  0  0  0999 V2000
   -1.3471   -0.1063   -0.0472 C   0  0  0  0  0  0  0  0  0  0  0  0
   -2.7243   -0.1759   -0.0394 N   0  0  0  0  0  0  0  0  0  0  0  0
   -3.8366   -0.2336   -0.0330 N   0  0  0  0  0  0  0  0  0  0  0  0
   -0.7453    1.1556   -0.1654 C   0  0  0  0  0  0  0  0  0  0  0  0
    0.6309    1.2481   -0.1764 C   0  0  0  0  0  0  0  0  0  0  0  0
    1.3560    0.0575   -0.0670 C   0  0  0  0  0  0  0  0  0  0  0  0
    2.8485    0.1432   -0.0786 N   0  0  0  0  0  0  0  0  0  0  0  0
    3.3263    1.2619   -0.1971 O   0  0  0  0  0  0  0  0  0  0  0  0
    3.4519   -0.9157    0.0180 O   0  0  0  0  0  0  0  0  0  0  0  0
    0.7704   -1.2053    0.0518 C   0  0  0  0  0  0  0  0  0  0  0  0
   -0.6125   -1.3075    0.0634 C   0  0  0  0  0  0  0  0  0  0  0  0
   -1.6590    2.4524   -0.2846 H   0  0  0  0  0  0  0  0  0  0  0  0
    1.1536    2.1931   -0.2656 H   0  0  0  0  0  0  0  0  0  0  0  0
    1.4038   -2.0810    0.1323 H   0  0  0  0  0  0  0  0  0  0  0  0
   -1.1132   -2.2656    0.1535 H   0  0  0  0  0  0  0  0  0  0  0  0
  1  2  1  0  0  0  0
  1 11  2  0  0  0  0
  2  3  1  0  0  0  0
  4  1  1  0  0  0  0
  5  4  2  0  0  0  0
  5  6  1  0  0  0  0
  6 10  2  0  0  0  0
  7  6  1  0  0  0  0
  7  9  2  0  0  0  0
  8  7  2  0  0  0  0
 10 11  1  0  0  0  0
 10 14  1  0  0  0  0
 11 15  1  0  0  0  0
 13  5  1  0  0  0  0
M  RAD  4   2   2   3   3   4   2  12   2
M  END
