Coordinates from ORCA-job 4-NO2PhN2+_B3LYPG-6-31G_dp-d09-49-n800
 OpenBabel11261918563D

 15 14  0  0  0  0  0  0  0  0999 V2000
   -1.3056   -0.1712   -0.0416 C   0  0  0  0  0  0  0  0  0  0  0  0
   -2.6849   -0.2254   -0.0344 N   0  0  0  0  0  0  0  0  0  0  0  0
   -3.7973   -0.2707   -0.0284 N   0  0  0  0  0  0  0  0  0  0  0  0
   -0.6826    1.0685   -0.1587 C   0  0  0  0  0  0  0  0  0  0  0  0
    0.6789    1.1965   -0.1734 C   0  0  0  0  0  0  0  0  0  0  0  0
    1.4008   -0.0013   -0.0632 C   0  0  0  0  0  0  0  0  0  0  0  0
    2.8981    0.0880   -0.0761 N   0  0  0  0  0  0  0  0  0  0  0  0
    3.3749    1.2064   -0.1878 O   0  0  0  0  0  0  0  0  0  0  0  0
    3.4988   -0.9716    0.0263 O   0  0  0  0  0  0  0  0  0  0  0  0
    0.8143   -1.2656    0.0565 C   0  0  0  0  0  0  0  0  0  0  0  0
   -0.5675   -1.3750    0.0696 C   0  0  0  0  0  0  0  0  0  0  0  0
   -2.3145    3.2759   -0.3584 H   0  0  0  0  0  0  0  0  0  0  0  0
    1.2064    2.1412   -0.2631 H   0  0  0  0  0  0  0  0  0  0  0  0
    1.4500   -2.1394    0.1369 H   0  0  0  0  0  0  0  0  0  0  0  0
   -1.0665   -2.3351    0.1605 H   0  0  0  0  0  0  0  0  0  0  0  0
  1  2  1  0  0  0  0
  1 11  2  0  0  0  0
  2  3  1  0  0  0  0
  4  1  1  0  0  0  0
  5  4  2  0  0  0  0
  5  6  1  0  0  0  0
  6 10  2  0  0  0  0
  7  6  1  0  0  0  0
  7  9  2  0  0  0  0
  8  7  2  0  0  0  0
 10 11  1  0  0  0  0
 10 14  1  0  0  0  0
 11 15  1  0  0  0  0
 13  5  1  0  0  0  0
M  RAD  4   2   2   3   3   4   2  12   2
M  END
