Coordinates from ORCA-job 4-NO2PhN2+_B3LYPG-6-31G_dp-d09-49-n800
 OpenBabel11261918563D

 15 14  0  0  0  0  0  0  0  0999 V2000
   -1.3433   -0.1144   -0.0464 C   0  0  0  0  0  0  0  0  0  0  0  0
   -2.7203   -0.1805   -0.0381 N   0  0  0  0  0  0  0  0  0  0  0  0
   -3.8326   -0.2358   -0.0312 N   0  0  0  0  0  0  0  0  0  0  0  0
   -0.7364    1.1428   -0.1646 C   0  0  0  0  0  0  0  0  0  0  0  0
    0.6370    1.2430   -0.1771 C   0  0  0  0  0  0  0  0  0  0  0  0
    1.3611    0.0510   -0.0679 C   0  0  0  0  0  0  0  0  0  0  0  0
    2.8542    0.1366   -0.0806 N   0  0  0  0  0  0  0  0  0  0  0  0
    3.3319    1.2559   -0.1928 O   0  0  0  0  0  0  0  0  0  0  0  0
    3.4572   -0.9219    0.0219 O   0  0  0  0  0  0  0  0  0  0  0  0
    0.7753   -1.2120    0.0513 C   0  0  0  0  0  0  0  0  0  0  0  0
   -0.6075   -1.3156    0.0639 C   0  0  0  0  0  0  0  0  0  0  0  0
   -1.7343    2.5453   -0.2929 H   0  0  0  0  0  0  0  0  0  0  0  0
    1.1593    2.1883   -0.2668 H   0  0  0  0  0  0  0  0  0  0  0  0
    1.4092   -2.0873    0.1314 H   0  0  0  0  0  0  0  0  0  0  0  0
   -1.1075   -2.2742    0.1544 H   0  0  0  0  0  0  0  0  0  0  0  0
  1  2  1  0  0  0  0
  1 11  2  0  0  0  0
  2  3  1  0  0  0  0
  4  1  1  0  0  0  0
  5  4  2  0  0  0  0
  5  6  1  0  0  0  0
  6 10  2  0  0  0  0
  7  6  1  0  0  0  0
  7  9  2  0  0  0  0
  8  7  2  0  0  0  0
 10 11  1  0  0  0  0
 10 14  1  0  0  0  0
 11 15  1  0  0  0  0
 13  5  1  0  0  0  0
M  RAD  4   2   2   3   3   4   2  12   2
M  END
