Coordinates from ORCA-job 4-NO2PhN2+_B3LYPG-6-31G_dp-d09-49-n800
 OpenBabel11261918563D

 15 14  0  0  0  0  0  0  0  0999 V2000
   -1.3327   -0.1333   -0.0446 C   0  0  0  0  0  0  0  0  0  0  0  0
   -2.7098   -0.1925   -0.0369 N   0  0  0  0  0  0  0  0  0  0  0  0
   -3.8221   -0.2427   -0.0305 N   0  0  0  0  0  0  0  0  0  0  0  0
   -0.7159    1.1148   -0.1621 C   0  0  0  0  0  0  0  0  0  0  0  0
    0.6515    1.2297   -0.1759 C   0  0  0  0  0  0  0  0  0  0  0  0
    1.3741    0.0347   -0.0664 C   0  0  0  0  0  0  0  0  0  0  0  0
    2.8686    0.1210   -0.0792 N   0  0  0  0  0  0  0  0  0  0  0  0
    3.3462    1.2400   -0.1910 O   0  0  0  0  0  0  0  0  0  0  0  0
    3.4705   -0.9380    0.0230 O   0  0  0  0  0  0  0  0  0  0  0  0
    0.7876   -1.2286    0.0529 C   0  0  0  0  0  0  0  0  0  0  0  0
   -0.5950   -1.3349    0.0658 C   0  0  0  0  0  0  0  0  0  0  0  0
   -1.9222    2.7733   -0.3139 H   0  0  0  0  0  0  0  0  0  0  0  0
    1.1743    2.1753   -0.2656 H   0  0  0  0  0  0  0  0  0  0  0  0
    1.4224   -2.1032    0.1329 H   0  0  0  0  0  0  0  0  0  0  0  0
   -1.0941   -2.2944    0.1563 H   0  0  0  0  0  0  0  0  0  0  0  0
  1  2  1  0  0  0  0
  1 11  2  0  0  0  0
  2  3  1  0  0  0  0
  4  1  1  0  0  0  0
  5  4  2  0  0  0  0
  5  6  1  0  0  0  0
  6 10  2  0  0  0  0
  7  6  1  0  0  0  0
  7  9  2  0  0  0  0
  8  7  2  0  0  0  0
 10 11  1  0  0  0  0
 10 14  1  0  0  0  0
 11 15  1  0  0  0  0
 13  5  1  0  0  0  0
M  RAD  4   2   2   3   3   4   2  12   2
M  END
