Coordinates from ORCA-job 4-NO2PhN2+_B3LYPG-6-31G_dp-d09-49-n800
 OpenBabel11261918563D

 15 14  0  0  0  0  0  0  0  0999 V2000
   -1.2807   -0.4230   -0.0132 C   0  0  0  0  0  0  0  0  0  0  0  0
   -2.6601   -0.5707    0.0039 N   0  0  0  0  0  0  0  0  0  0  0  0
   -3.7682   -0.6785    0.0166 N   0  0  0  0  0  0  0  0  0  0  0  0
   -0.7626    0.8610   -0.1298 C   0  0  0  0  0  0  0  0  0  0  0  0
    0.5936    1.0658   -0.1529 C   0  0  0  0  0  0  0  0  0  0  0  0
    1.3954   -0.0800   -0.0546 C   0  0  0  0  0  0  0  0  0  0  0  0
    2.8849    0.1105   -0.0794 N   0  0  0  0  0  0  0  0  0  0  0  0
    3.2883    1.2583   -0.1812 O   0  0  0  0  0  0  0  0  0  0  0  0
    3.5565   -0.9082    0.0043 O   0  0  0  0  0  0  0  0  0  0  0  0
    0.8975   -1.3835    0.0640 C   0  0  0  0  0  0  0  0  0  0  0  0
   -0.4724   -1.5834    0.0874 C   0  0  0  0  0  0  0  0  0  0  0  0
   -2.5195    5.3005   -0.5719 H   0  0  0  0  0  0  0  0  0  0  0  0
    1.0687    2.0396   -0.2413 H   0  0  0  0  0  0  0  0  0  0  0  0
    1.5903   -2.2131    0.1348 H   0  0  0  0  0  0  0  0  0  0  0  0
   -0.9082   -2.5742    0.1779 H   0  0  0  0  0  0  0  0  0  0  0  0
  1  2  1  0  0  0  0
  1 11  2  0  0  0  0
  2  3  1  0  0  0  0
  4  1  1  0  0  0  0
  5  4  2  0  0  0  0
  5  6  1  0  0  0  0
  6 10  2  0  0  0  0
  7  6  1  0  0  0  0
  7  9  2  0  0  0  0
  8  7  2  0  0  0  0
 10 11  1  0  0  0  0
 10 14  1  0  0  0  0
 11 15  1  0  0  0  0
 13  5  1  0  0  0  0
M  RAD  4   2   2   3   3   4   2  12   2
M  END
