Coordinates from ORCA-job 4-NO2PhN2+_B3LYPG-6-31G_dp-d09-49-n800
 OpenBabel11261918563D

 15 14  0  0  0  0  0  0  0  0999 V2000
   -1.2756   -0.3891   -0.0184 C   0  0  0  0  0  0  0  0  0  0  0  0
   -2.6564   -0.5199   -0.0036 N   0  0  0  0  0  0  0  0  0  0  0  0
   -3.7658   -0.6148    0.0072 N   0  0  0  0  0  0  0  0  0  0  0  0
   -0.7406    0.8880   -0.1369 C   0  0  0  0  0  0  0  0  0  0  0  0
    0.6178    1.0766   -0.1579 C   0  0  0  0  0  0  0  0  0  0  0  0
    1.4051   -0.0789   -0.0553 C   0  0  0  0  0  0  0  0  0  0  0  0
    2.8969    0.0932   -0.0776 N   0  0  0  0  0  0  0  0  0  0  0  0
    3.3145    1.2356   -0.1826 O   0  0  0  0  0  0  0  0  0  0  0  0
    3.5556   -0.9334    0.0115 O   0  0  0  0  0  0  0  0  0  0  0  0
    0.8909   -1.3758    0.0654 C   0  0  0  0  0  0  0  0  0  0  0  0
   -0.4815   -1.5588    0.0866 C   0  0  0  0  0  0  0  0  0  0  0  0
   -2.6054    5.1114   -0.5440 H   0  0  0  0  0  0  0  0  0  0  0  0
    1.1041    2.0447   -0.2477 H   0  0  0  0  0  0  0  0  0  0  0  0
    1.5733   -2.2136    0.1396 H   0  0  0  0  0  0  0  0  0  0  0  0
   -0.9295   -2.5440    0.1784 H   0  0  0  0  0  0  0  0  0  0  0  0
  1  2  1  0  0  0  0
  1 11  2  0  0  0  0
  2  3  1  0  0  0  0
  4  1  1  0  0  0  0
  5  4  2  0  0  0  0
  5  6  1  0  0  0  0
  6 10  2  0  0  0  0
  7  6  1  0  0  0  0
  7  9  2  0  0  0  0
  8  7  2  0  0  0  0
 10 11  1  0  0  0  0
 10 14  1  0  0  0  0
 11 15  1  0  0  0  0
 13  5  1  0  0  0  0
M  RAD  4   2   2   3   3   4   2  12   2
M  END
