Coordinates from ORCA-job 4-NO2PhN2+_B3LYPG-6-31G_dp-d09-49-n800
 OpenBabel11261918563D

 15 14  0  0  0  0  0  0  0  0999 V2000
   -1.2791   -0.4128   -0.0146 C   0  0  0  0  0  0  0  0  0  0  0  0
   -2.6589   -0.5550    0.0018 N   0  0  0  0  0  0  0  0  0  0  0  0
   -3.7675   -0.6586    0.0139 N   0  0  0  0  0  0  0  0  0  0  0  0
   -0.7552    0.8688   -0.1315 C   0  0  0  0  0  0  0  0  0  0  0  0
    0.6011    1.0692   -0.1540 C   0  0  0  0  0  0  0  0  0  0  0  0
    1.3985   -0.0798   -0.0546 C   0  0  0  0  0  0  0  0  0  0  0  0
    2.8888    0.1048   -0.0786 N   0  0  0  0  0  0  0  0  0  0  0  0
    3.2966    1.2510   -0.1817 O   0  0  0  0  0  0  0  0  0  0  0  0
    3.5564   -0.9164    0.0060 O   0  0  0  0  0  0  0  0  0  0  0  0
    0.8956   -1.3814    0.0643 C   0  0  0  0  0  0  0  0  0  0  0  0
   -0.4752   -1.5762    0.0870 C   0  0  0  0  0  0  0  0  0  0  0  0
   -2.5490    5.2455   -0.5645 H   0  0  0  0  0  0  0  0  0  0  0  0
    1.0807    2.0409   -0.2425 H   0  0  0  0  0  0  0  0  0  0  0  0
    1.5852   -2.2135    0.1359 H   0  0  0  0  0  0  0  0  0  0  0  0
   -0.9147   -2.5653    0.1776 H   0  0  0  0  0  0  0  0  0  0  0  0
  1  2  1  0  0  0  0
  1 11  2  0  0  0  0
  2  3  1  0  0  0  0
  4  1  1  0  0  0  0
  5  4  2  0  0  0  0
  5  6  1  0  0  0  0
  6 10  2  0  0  0  0
  7  6  1  0  0  0  0
  7  9  2  0  0  0  0
  8  7  2  0  0  0  0
 10 11  1  0  0  0  0
 10 14  1  0  0  0  0
 11 15  1  0  0  0  0
 13  5  1  0  0  0  0
M  RAD  4   2   2   3   3   4   2  12   2
M  END
