Coordinates from ORCA-job 4-NO2PhN2+_B3LYPG-6-31G_dp-d09-49-n800
 OpenBabel11261918563D

 15 14  0  0  0  0  0  0  0  0999 V2000
   -1.2736   -0.3601   -0.0217 C   0  0  0  0  0  0  0  0  0  0  0  0
   -2.6552   -0.4783   -0.0081 N   0  0  0  0  0  0  0  0  0  0  0  0
   -3.7653   -0.5641    0.0018 N   0  0  0  0  0  0  0  0  0  0  0  0
   -0.7253    0.9115   -0.1403 C   0  0  0  0  0  0  0  0  0  0  0  0
    0.6343    1.0881   -0.1602 C   0  0  0  0  0  0  0  0  0  0  0  0
    1.4106   -0.0748   -0.0558 C   0  0  0  0  0  0  0  0  0  0  0  0
    2.9040    0.0833   -0.0764 N   0  0  0  0  0  0  0  0  0  0  0  0
    3.3321    1.2217   -0.1829 O   0  0  0  0  0  0  0  0  0  0  0  0
    3.5528   -0.9492    0.0153 O   0  0  0  0  0  0  0  0  0  0  0  0
    0.8841   -1.3667    0.0649 C   0  0  0  0  0  0  0  0  0  0  0  0
   -0.4900   -1.5369    0.0846 C   0  0  0  0  0  0  0  0  0  0  0  0
   -2.6456    4.9236   -0.5233 H   0  0  0  0  0  0  0  0  0  0  0  0
    1.1295    2.0517   -0.2501 H   0  0  0  0  0  0  0  0  0  0  0  0
    1.5585   -2.2108    0.1404 H   0  0  0  0  0  0  0  0  0  0  0  0
   -0.9474   -2.5177    0.1764 H   0  0  0  0  0  0  0  0  0  0  0  0
  1  2  1  0  0  0  0
  1 11  2  0  0  0  0
  2  3  1  0  0  0  0
  4  1  1  0  0  0  0
  5  4  2  0  0  0  0
  5  6  1  0  0  0  0
  6 10  2  0  0  0  0
  7  6  1  0  0  0  0
  7  9  2  0  0  0  0
  8  7  2  0  0  0  0
 10 11  1  0  0  0  0
 10 14  1  0  0  0  0
 11 15  1  0  0  0  0
 13  5  1  0  0  0  0
M  RAD  4   2   2   3   3   4   2  12   2
M  END
