Coordinates from ORCA-job 4-NO2PhN2+_B3LYPG-6-31G_dp-d09-49-n800
 OpenBabel11261918563D

 15 14  0  0  0  0  0  0  0  0999 V2000
   -1.2961   -0.1859   -0.0394 C   0  0  0  0  0  0  0  0  0  0  0  0
   -2.6764   -0.2423   -0.0317 N   0  0  0  0  0  0  0  0  0  0  0  0
   -3.7887   -0.2886   -0.0254 N   0  0  0  0  0  0  0  0  0  0  0  0
   -0.6760    1.0544   -0.1559 C   0  0  0  0  0  0  0  0  0  0  0  0
    0.6854    1.1835   -0.1711 C   0  0  0  0  0  0  0  0  0  0  0  0
    1.4086   -0.0138   -0.0619 C   0  0  0  0  0  0  0  0  0  0  0  0
    2.9065    0.0779   -0.0753 N   0  0  0  0  0  0  0  0  0  0  0  0
    3.3821    1.1967   -0.1863 O   0  0  0  0  0  0  0  0  0  0  0  0
    3.5082   -0.9813    0.0261 O   0  0  0  0  0  0  0  0  0  0  0  0
    0.8238   -1.2792    0.0572 C   0  0  0  0  0  0  0  0  0  0  0  0
   -0.5577   -1.3903    0.0707 C   0  0  0  0  0  0  0  0  0  0  0  0
   -2.4347    3.4653   -0.3799 H   0  0  0  0  0  0  0  0  0  0  0  0
    1.2141    2.1280   -0.2603 H   0  0  0  0  0  0  0  0  0  0  0  0
    1.4604   -2.1523    0.1367 H   0  0  0  0  0  0  0  0  0  0  0  0
   -1.0559   -2.3509    0.1613 H   0  0  0  0  0  0  0  0  0  0  0  0
  1  2  1  0  0  0  0
  1 11  2  0  0  0  0
  2  3  1  0  0  0  0
  4  1  1  0  0  0  0
  5  4  2  0  0  0  0
  5  6  1  0  0  0  0
  6 10  2  0  0  0  0
  7  6  1  0  0  0  0
  7  9  2  0  0  0  0
  8  7  2  0  0  0  0
 10 11  1  0  0  0  0
 10 14  1  0  0  0  0
 11 15  1  0  0  0  0
 13  5  1  0  0  0  0
M  RAD  4   2   2   3   3   4   2  12   2
M  END
