Coordinates from ORCA-job 4-NO2PhN2+_B3LYPG-6-31G_dp-d09-49-n800
 OpenBabel11261918563D

 15 14  0  0  0  0  0  0  0  0999 V2000
   -1.2737   -0.3625   -0.0215 C   0  0  0  0  0  0  0  0  0  0  0  0
   -2.6553   -0.4817   -0.0078 N   0  0  0  0  0  0  0  0  0  0  0  0
   -3.7653   -0.5682    0.0022 N   0  0  0  0  0  0  0  0  0  0  0  0
   -0.7265    0.9095   -0.1401 C   0  0  0  0  0  0  0  0  0  0  0  0
    0.6330    1.0871   -0.1601 C   0  0  0  0  0  0  0  0  0  0  0  0
    1.4102   -0.0752   -0.0558 C   0  0  0  0  0  0  0  0  0  0  0  0
    2.9035    0.0840   -0.0765 N   0  0  0  0  0  0  0  0  0  0  0  0
    3.3307    1.2227   -0.1829 O   0  0  0  0  0  0  0  0  0  0  0  0
    3.5531   -0.9480    0.0151 O   0  0  0  0  0  0  0  0  0  0  0  0
    0.8847   -1.3675    0.0650 C   0  0  0  0  0  0  0  0  0  0  0  0
   -0.4893   -1.5388    0.0848 C   0  0  0  0  0  0  0  0  0  0  0  0
   -2.6430    4.9399   -0.5249 H   0  0  0  0  0  0  0  0  0  0  0  0
    1.1275    2.0510   -0.2500 H   0  0  0  0  0  0  0  0  0  0  0  0
    1.5598   -2.2111    0.1405 H   0  0  0  0  0  0  0  0  0  0  0  0
   -0.9459   -2.5200    0.1767 H   0  0  0  0  0  0  0  0  0  0  0  0
  1  2  1  0  0  0  0
  1 11  2  0  0  0  0
  2  3  1  0  0  0  0
  4  1  1  0  0  0  0
  5  4  2  0  0  0  0
  5  6  1  0  0  0  0
  6 10  2  0  0  0  0
  7  6  1  0  0  0  0
  7  9  2  0  0  0  0
  8  7  2  0  0  0  0
 10 11  1  0  0  0  0
 10 14  1  0  0  0  0
 11 15  1  0  0  0  0
 13  5  1  0  0  0  0
M  RAD  4   2   2   3   3   4   2  12   2
M  END
