Coordinates from ORCA-job 4-NO2PhN2+_B3LYPG-6-31G_dp-d09-49-n800
 OpenBabel11261918563D

 15 14  0  0  0  0  0  0  0  0999 V2000
   -1.2811   -0.4253   -0.0128 C   0  0  0  0  0  0  0  0  0  0  0  0
   -2.6604   -0.5739    0.0044 N   0  0  0  0  0  0  0  0  0  0  0  0
   -3.7684   -0.6824    0.0172 N   0  0  0  0  0  0  0  0  0  0  0  0
   -0.7638    0.8590   -0.1294 C   0  0  0  0  0  0  0  0  0  0  0  0
    0.5919    1.0653   -0.1527 C   0  0  0  0  0  0  0  0  0  0  0  0
    1.3947   -0.0800   -0.0546 C   0  0  0  0  0  0  0  0  0  0  0  0
    2.8840    0.1117   -0.0796 N   0  0  0  0  0  0  0  0  0  0  0  0
    3.2866    1.2599   -0.1810 O   0  0  0  0  0  0  0  0  0  0  0  0
    3.5565   -0.9064    0.0040 O   0  0  0  0  0  0  0  0  0  0  0  0
    0.8979   -1.3840    0.0639 C   0  0  0  0  0  0  0  0  0  0  0  0
   -0.4719   -1.5850    0.0875 C   0  0  0  0  0  0  0  0  0  0  0  0
   -2.5134    5.3120   -0.5735 H   0  0  0  0  0  0  0  0  0  0  0  0
    1.0663    2.0394   -0.2410 H   0  0  0  0  0  0  0  0  0  0  0  0
    1.5914   -2.2129    0.1345 H   0  0  0  0  0  0  0  0  0  0  0  0
   -0.9068   -2.5762    0.1779 H   0  0  0  0  0  0  0  0  0  0  0  0
  1  2  1  0  0  0  0
  1 11  2  0  0  0  0
  2  3  1  0  0  0  0
  4  1  1  0  0  0  0
  5  4  2  0  0  0  0
  5  6  1  0  0  0  0
  6 10  2  0  0  0  0
  7  6  1  0  0  0  0
  7  9  2  0  0  0  0
  8  7  2  0  0  0  0
 10 11  1  0  0  0  0
 10 14  1  0  0  0  0
 11 15  1  0  0  0  0
 13  5  1  0  0  0  0
M  RAD  4   2   2   3   3   4   2  12   2
M  END
