Coordinates from ORCA-job 4-NO2PhN2+_B3LYPG-6-31G_dp-d09-49-n800
 OpenBabel11261918563D

 15 14  0  0  0  0  0  0  0  0999 V2000
   -1.2800   -0.4185   -0.0138 C   0  0  0  0  0  0  0  0  0  0  0  0
   -2.6595   -0.5639    0.0030 N   0  0  0  0  0  0  0  0  0  0  0  0
   -3.7679   -0.6700    0.0155 N   0  0  0  0  0  0  0  0  0  0  0  0
   -0.7596    0.8646   -0.1306 C   0  0  0  0  0  0  0  0  0  0  0  0
    0.5969    1.0672   -0.1534 C   0  0  0  0  0  0  0  0  0  0  0  0
    1.3968   -0.0800   -0.0547 C   0  0  0  0  0  0  0  0  0  0  0  0
    2.8866    0.1080   -0.0792 N   0  0  0  0  0  0  0  0  0  0  0  0
    3.2919    1.2552   -0.1812 O   0  0  0  0  0  0  0  0  0  0  0  0
    3.5565   -0.9117    0.0052 O   0  0  0  0  0  0  0  0  0  0  0  0
    0.8967   -1.3826    0.0641 C   0  0  0  0  0  0  0  0  0  0  0  0
   -0.4736   -1.5802    0.0872 C   0  0  0  0  0  0  0  0  0  0  0  0
   -2.5320    5.2766   -0.5687 H   0  0  0  0  0  0  0  0  0  0  0  0
    1.0737    2.0402   -0.2419 H   0  0  0  0  0  0  0  0  0  0  0  0
    1.5881   -2.2133    0.1352 H   0  0  0  0  0  0  0  0  0  0  0  0
   -0.9110   -2.5703    0.1778 H   0  0  0  0  0  0  0  0  0  0  0  0
  1  2  1  0  0  0  0
  1 11  2  0  0  0  0
  2  3  1  0  0  0  0
  4  1  1  0  0  0  0
  5  4  2  0  0  0  0
  5  6  1  0  0  0  0
  6 10  2  0  0  0  0
  7  6  1  0  0  0  0
  7  9  2  0  0  0  0
  8  7  2  0  0  0  0
 10 11  1  0  0  0  0
 10 14  1  0  0  0  0
 11 15  1  0  0  0  0
 13  5  1  0  0  0  0
M  RAD  4   2   2   3   3   4   2  12   2
M  END
