Coordinates from ORCA-job 4-NO2PhN2+_B3LYPG-6-31G_dp-d09-49-n800
 OpenBabel11261918563D

 15 14  0  0  0  0  0  0  0  0999 V2000
   -1.2747   -0.3776   -0.0200 C   0  0  0  0  0  0  0  0  0  0  0  0
   -2.6559   -0.5030   -0.0059 N   0  0  0  0  0  0  0  0  0  0  0  0
   -3.7656   -0.5938    0.0044 N   0  0  0  0  0  0  0  0  0  0  0  0
   -0.7339    0.8969   -0.1391 C   0  0  0  0  0  0  0  0  0  0  0  0
    0.6248    1.0812   -0.1597 C   0  0  0  0  0  0  0  0  0  0  0  0
    1.4076   -0.0774   -0.0556 C   0  0  0  0  0  0  0  0  0  0  0  0
    2.9000    0.0888   -0.0770 N   0  0  0  0  0  0  0  0  0  0  0  0
    3.3220    1.2294   -0.1831 O   0  0  0  0  0  0  0  0  0  0  0  0
    3.5546   -0.9403    0.0139 O   0  0  0  0  0  0  0  0  0  0  0  0
    0.8882   -1.3722    0.0656 C   0  0  0  0  0  0  0  0  0  0  0  0
   -0.4848   -1.5502    0.0861 C   0  0  0  0  0  0  0  0  0  0  0  0
   -2.6245    5.0383   -0.5340 H   0  0  0  0  0  0  0  0  0  0  0  0
    1.1147    2.0474   -0.2500 H   0  0  0  0  0  0  0  0  0  0  0  0
    1.5674   -2.2126    0.1409 H   0  0  0  0  0  0  0  0  0  0  0  0
   -0.9366   -2.5337    0.1783 H   0  0  0  0  0  0  0  0  0  0  0  0
  1  2  1  0  0  0  0
  1 11  2  0  0  0  0
  2  3  1  0  0  0  0
  4  1  1  0  0  0  0
  5  4  2  0  0  0  0
  5  6  1  0  0  0  0
  6 10  2  0  0  0  0
  7  6  1  0  0  0  0
  7  9  2  0  0  0  0
  8  7  2  0  0  0  0
 10 11  1  0  0  0  0
 10 14  1  0  0  0  0
 11 15  1  0  0  0  0
 13  5  1  0  0  0  0
M  RAD  4   2   2   3   3   4   2  12   2
M  END
