Coordinates from ORCA-job 4-NO2PhN2+_B3LYPG-6-31G_dp-d09-49-n800
 OpenBabel11261918563D

 15 14  0  0  0  0  0  0  0  0999 V2000
   -1.2753   -0.2508   -0.0331 C   0  0  0  0  0  0  0  0  0  0  0  0
   -2.6579   -0.3259   -0.0237 N   0  0  0  0  0  0  0  0  0  0  0  0
   -3.7698   -0.3828   -0.0164 N   0  0  0  0  0  0  0  0  0  0  0  0
   -0.6791    0.9995   -0.1504 C   0  0  0  0  0  0  0  0  0  0  0  0
    0.6829    1.1390   -0.1665 C   0  0  0  0  0  0  0  0  0  0  0  0
    1.4213   -0.0488   -0.0586 C   0  0  0  0  0  0  0  0  0  0  0  0
    2.9189    0.0622   -0.0740 N   0  0  0  0  0  0  0  0  0  0  0  0
    3.3817    1.1863   -0.1840 O   0  0  0  0  0  0  0  0  0  0  0  0
    3.5337   -0.9900    0.0250 O   0  0  0  0  0  0  0  0  0  0  0  0
    0.8530   -1.3223    0.0611 C   0  0  0  0  0  0  0  0  0  0  0  0
   -0.5263   -1.4495    0.0763 C   0  0  0  0  0  0  0  0  0  0  0  0
   -2.6713    4.1198   -0.4422 H   0  0  0  0  0  0  0  0  0  0  0  0
    1.2056    2.0877   -0.2558 H   0  0  0  0  0  0  0  0  0  0  0  0
    1.5001   -2.1876    0.1397 H   0  0  0  0  0  0  0  0  0  0  0  0
   -1.0141   -2.4157    0.1674 H   0  0  0  0  0  0  0  0  0  0  0  0
  1  2  1  0  0  0  0
  1 11  2  0  0  0  0
  2  3  1  0  0  0  0
  4  1  1  0  0  0  0
  5  4  2  0  0  0  0
  5  6  1  0  0  0  0
  6 10  2  0  0  0  0
  7  6  1  0  0  0  0
  7  9  2  0  0  0  0
  8  7  2  0  0  0  0
 10 11  1  0  0  0  0
 10 14  1  0  0  0  0
 11 15  1  0  0  0  0
 13  5  1  0  0  0  0
M  RAD  4   2   2   3   3   4   2  12   2
M  END
