Coordinates from ORCA-job 4-NO2PhN2+_B3LYPG-6-31G_dp-d09-49-n800
 OpenBabel11261918563D

 15 14  0  0  0  0  0  0  0  0999 V2000
   -1.2895   -0.1995   -0.0382 C   0  0  0  0  0  0  0  0  0  0  0  0
   -2.6705   -0.2590   -0.0302 N   0  0  0  0  0  0  0  0  0  0  0  0
   -3.7828   -0.3071   -0.0237 N   0  0  0  0  0  0  0  0  0  0  0  0
   -0.6735    1.0422   -0.1548 C   0  0  0  0  0  0  0  0  0  0  0  0
    0.6879    1.1726   -0.1701 C   0  0  0  0  0  0  0  0  0  0  0  0
    1.4134   -0.0233   -0.0610 C   0  0  0  0  0  0  0  0  0  0  0  0
    2.9115    0.0716   -0.0748 N   0  0  0  0  0  0  0  0  0  0  0  0
    3.3853    1.1911   -0.1856 O   0  0  0  0  0  0  0  0  0  0  0  0
    3.5152   -0.9866    0.0264 O   0  0  0  0  0  0  0  0  0  0  0  0
    0.8311   -1.2900    0.0582 C   0  0  0  0  0  0  0  0  0  0  0  0
   -0.5499   -1.4035    0.0720 C   0  0  0  0  0  0  0  0  0  0  0  0
   -2.5137    3.6219   -0.3945 H   0  0  0  0  0  0  0  0  0  0  0  0
    1.2164    2.1176   -0.2593 H   0  0  0  0  0  0  0  0  0  0  0  0
    1.4693   -2.1619    0.1376 H   0  0  0  0  0  0  0  0  0  0  0  0
   -1.0467   -2.3649    0.1626 H   0  0  0  0  0  0  0  0  0  0  0  0
  1  2  1  0  0  0  0
  1 11  2  0  0  0  0
  2  3  1  0  0  0  0
  4  1  1  0  0  0  0
  5  4  2  0  0  0  0
  5  6  1  0  0  0  0
  6 10  2  0  0  0  0
  7  6  1  0  0  0  0
  7  9  2  0  0  0  0
  8  7  2  0  0  0  0
 10 11  1  0  0  0  0
 10 14  1  0  0  0  0
 11 15  1  0  0  0  0
 13  5  1  0  0  0  0
M  RAD  4   2   2   3   3   4   2  12   2
M  END
