Coordinates from ORCA-job 4-NO2PhN2+_B3LYPG-6-31G_dp-d09-49-n800
 OpenBabel11261918563D

 15 14  0  0  0  0  0  0  0  0999 V2000
   -1.2761   -0.3951   -0.0174 C   0  0  0  0  0  0  0  0  0  0  0  0
   -2.6567   -0.5284   -0.0022 N   0  0  0  0  0  0  0  0  0  0  0  0
   -3.7659   -0.6251    0.0090 N   0  0  0  0  0  0  0  0  0  0  0  0
   -0.7437    0.8831   -0.1355 C   0  0  0  0  0  0  0  0  0  0  0  0
    0.6143    1.0744   -0.1568 C   0  0  0  0  0  0  0  0  0  0  0  0
    1.4039   -0.0796   -0.0551 C   0  0  0  0  0  0  0  0  0  0  0  0
    2.8954    0.0953   -0.0778 N   0  0  0  0  0  0  0  0  0  0  0  0
    3.3108    1.2386   -0.1821 O   0  0  0  0  0  0  0  0  0  0  0  0
    3.5561   -0.9301    0.0102 O   0  0  0  0  0  0  0  0  0  0  0  0
    0.8923   -1.3776    0.0651 C   0  0  0  0  0  0  0  0  0  0  0  0
   -0.4797   -1.5634    0.0867 C   0  0  0  0  0  0  0  0  0  0  0  0
   -2.5966    5.1494   -0.5498 H   0  0  0  0  0  0  0  0  0  0  0  0
    1.0988    2.0435   -0.2463 H   0  0  0  0  0  0  0  0  0  0  0  0
    1.5764   -2.2141    0.1386 H   0  0  0  0  0  0  0  0  0  0  0  0
   -0.9258   -2.5495    0.1782 H   0  0  0  0  0  0  0  0  0  0  0  0
  1  2  1  0  0  0  0
  1 11  2  0  0  0  0
  2  3  1  0  0  0  0
  4  1  1  0  0  0  0
  5  4  2  0  0  0  0
  5  6  1  0  0  0  0
  6 10  2  0  0  0  0
  7  6  1  0  0  0  0
  7  9  2  0  0  0  0
  8  7  2  0  0  0  0
 10 11  1  0  0  0  0
 10 14  1  0  0  0  0
 11 15  1  0  0  0  0
 13  5  1  0  0  0  0
M  RAD  4   2   2   3   3   4   2  12   2
M  END
