Coordinates from ORCA-job 4-NO2PhN2+_B3LYPG-6-31G_dp-d09-49-n800
 OpenBabel11261918563D

 15 14  0  0  0  0  0  0  0  0999 V2000
   -1.2714   -0.3066   -0.0281 C   0  0  0  0  0  0  0  0  0  0  0  0
   -2.6540   -0.4022   -0.0177 N   0  0  0  0  0  0  0  0  0  0  0  0
   -3.7653   -0.4715   -0.0026 N   0  0  0  0  0  0  0  0  0  0  0  0
   -0.6990    0.9542   -0.1455 C   0  0  0  0  0  0  0  0  0  0  0  0
    0.6622    1.1108   -0.1629 C   0  0  0  0  0  0  0  0  0  0  0  0
    1.4188   -0.0652   -0.0568 C   0  0  0  0  0  0  0  0  0  0  0  0
    2.9146    0.0683   -0.0743 N   0  0  0  0  0  0  0  0  0  0  0  0
    3.3612    1.1993   -0.1820 O   0  0  0  0  0  0  0  0  0  0  0  0
    3.5458   -0.9747    0.0212 O   0  0  0  0  0  0  0  0  0  0  0  0
    0.8704   -1.3478    0.0629 C   0  0  0  0  0  0  0  0  0  0  0  0
   -0.5065   -1.4955    0.0798 C   0  0  0  0  0  0  0  0  0  0  0  0
   -2.6965    4.5574   -0.4877 H   0  0  0  0  0  0  0  0  0  0  0  0
    1.1724    2.0666   -0.2520 H   0  0  0  0  0  0  0  0  0  0  0  0
    1.5306   -2.2031    0.1398 H   0  0  0  0  0  0  0  0  0  0  0  0
   -0.9800   -2.4687    0.1706 H   0  0  0  0  0  0  0  0  0  0  0  0
  1  2  1  0  0  0  0
  1 11  2  0  0  0  0
  2  3  1  0  0  0  0
  4  1  1  0  0  0  0
  5  4  2  0  0  0  0
  5  6  1  0  0  0  0
  6 10  2  0  0  0  0
  7  6  1  0  0  0  0
  7  9  2  0  0  0  0
  8  7  2  0  0  0  0
 10 11  1  0  0  0  0
 10 14  1  0  0  0  0
 11 15  1  0  0  0  0
 13  5  1  0  0  0  0
M  RAD  4   2   2   3   3   4   2  12   2
M  END
