Coordinates from ORCA-job 4-NO2PhN2+_B3LYPG-6-31G_dp-d09-49-n800
 OpenBabel11261918563D

 15 14  0  0  0  0  0  0  0  0999 V2000
   -1.2835   -0.4424   -0.0104 C   0  0  0  0  0  0  0  0  0  0  0  0
   -2.6619   -0.5995    0.0079 N   0  0  0  0  0  0  0  0  0  0  0  0
   -3.7693   -0.7144    0.0216 N   0  0  0  0  0  0  0  0  0  0  0  0
   -0.7749    0.8455   -0.1263 C   0  0  0  0  0  0  0  0  0  0  0  0
    0.5800    1.0594   -0.1505 C   0  0  0  0  0  0  0  0  0  0  0  0
    1.3900   -0.0808   -0.0543 C   0  0  0  0  0  0  0  0  0  0  0  0
    2.8780    0.1201   -0.0805 N   0  0  0  0  0  0  0  0  0  0  0  0
    3.2734    1.2709   -0.1805 O   0  0  0  0  0  0  0  0  0  0  0  0
    3.5569   -0.8940    0.0008 O   0  0  0  0  0  0  0  0  0  0  0  0
    0.9013   -1.3879    0.0634 C   0  0  0  0  0  0  0  0  0  0  0  0
   -0.4672   -1.5973    0.0881 C   0  0  0  0  0  0  0  0  0  0  0  0
   -2.4710    5.4088   -0.5868 H   0  0  0  0  0  0  0  0  0  0  0  0
    1.0479    2.0367   -0.2383 H   0  0  0  0  0  0  0  0  0  0  0  0
    1.5999   -2.2127    0.1326 H   0  0  0  0  0  0  0  0  0  0  0  0
   -0.8960   -2.5912    0.1780 H   0  0  0  0  0  0  0  0  0  0  0  0
  1  2  1  0  0  0  0
  1 11  2  0  0  0  0
  2  3  1  0  0  0  0
  4  1  1  0  0  0  0
  5  4  2  0  0  0  0
  5  6  1  0  0  0  0
  6 10  2  0  0  0  0
  7  6  1  0  0  0  0
  7  9  2  0  0  0  0
  8  7  2  0  0  0  0
 10 11  1  0  0  0  0
 10 14  1  0  0  0  0
 11 15  1  0  0  0  0
 13  5  1  0  0  0  0
M  RAD  4   2   2   3   3   4   2  12   2
M  END
