Coordinates from ORCA-job 4-NO2PhN2+_B3LYPG-6-31G_dp-d09-49-n800
 OpenBabel11261918563D

 15 14  0  0  0  0  0  0  0  0999 V2000
   -1.2999   -0.1790   -0.0401 C   0  0  0  0  0  0  0  0  0  0  0  0
   -2.6797   -0.2342   -0.0316 N   0  0  0  0  0  0  0  0  0  0  0  0
   -3.7920   -0.2802   -0.0248 N   0  0  0  0  0  0  0  0  0  0  0  0
   -0.6780    1.0605   -0.1570 C   0  0  0  0  0  0  0  0  0  0  0  0
    0.6833    1.1890   -0.1730 C   0  0  0  0  0  0  0  0  0  0  0  0
    1.4057   -0.0088   -0.0640 C   0  0  0  0  0  0  0  0  0  0  0  0
    2.9034    0.0815   -0.0784 N   0  0  0  0  0  0  0  0  0  0  0  0
    3.3797    1.2006   -0.1831 O   0  0  0  0  0  0  0  0  0  0  0  0
    3.5043   -0.9775    0.0297 O   0  0  0  0  0  0  0  0  0  0  0  0
    0.8198   -1.2735    0.0556 C   0  0  0  0  0  0  0  0  0  0  0  0
   -0.5619   -1.3835    0.0699 C   0  0  0  0  0  0  0  0  0  0  0  0
   -2.3877    3.3837   -0.3716 H   0  0  0  0  0  0  0  0  0  0  0  0
    1.2116    2.1335   -0.2626 H   0  0  0  0  0  0  0  0  0  0  0  0
    1.4557   -2.1471    0.1349 H   0  0  0  0  0  0  0  0  0  0  0  0
   -1.0607   -2.3437    0.1608 H   0  0  0  0  0  0  0  0  0  0  0  0
  1  2  1  0  0  0  0
  1 11  2  0  0  0  0
  2  3  1  0  0  0  0
  4  1  1  0  0  0  0
  5  4  2  0  0  0  0
  5  6  1  0  0  0  0
  6 10  2  0  0  0  0
  7  6  1  0  0  0  0
  7  9  2  0  0  0  0
  8  7  2  0  0  0  0
 10 11  1  0  0  0  0
 10 14  1  0  0  0  0
 11 15  1  0  0  0  0
 13  5  1  0  0  0  0
M  RAD  4   2   2   3   3   4   2  12   2
M  END
