Coordinates from ORCA-job 4-NO2PhN2+_B3LYPG-6-31G_dp-d09-49-n800
 OpenBabel11261918563D

 15 14  0  0  0  0  0  0  0  0999 V2000
   -1.2747   -0.2541   -0.0328 C   0  0  0  0  0  0  0  0  0  0  0  0
   -2.6573   -0.3303   -0.0233 N   0  0  0  0  0  0  0  0  0  0  0  0
   -3.7692   -0.3878   -0.0159 N   0  0  0  0  0  0  0  0  0  0  0  0
   -0.6798    0.9969   -0.1501 C   0  0  0  0  0  0  0  0  0  0  0  0
    0.6821    1.1371   -0.1663 C   0  0  0  0  0  0  0  0  0  0  0  0
    1.4214   -0.0501   -0.0585 C   0  0  0  0  0  0  0  0  0  0  0  0
    2.9190    0.0620   -0.0741 N   0  0  0  0  0  0  0  0  0  0  0  0
    3.3811    1.1864   -0.1839 O   0  0  0  0  0  0  0  0  0  0  0  0
    3.5347   -0.9897    0.0248 O   0  0  0  0  0  0  0  0  0  0  0  0
    0.8542   -1.3242    0.0613 C   0  0  0  0  0  0  0  0  0  0  0  0
   -0.5249   -1.4524    0.0766 C   0  0  0  0  0  0  0  0  0  0  0  0
   -2.6775    4.1491   -0.4452 H   0  0  0  0  0  0  0  0  0  0  0  0
    1.2043    2.0861   -0.2555 H   0  0  0  0  0  0  0  0  0  0  0  0
    1.5020   -2.1889    0.1397 H   0  0  0  0  0  0  0  0  0  0  0  0
   -1.0120   -2.4189    0.1676 H   0  0  0  0  0  0  0  0  0  0  0  0
  1  2  1  0  0  0  0
  1 11  2  0  0  0  0
  2  3  1  0  0  0  0
  4  1  1  0  0  0  0
  5  4  2  0  0  0  0
  5  6  1  0  0  0  0
  6 10  2  0  0  0  0
  7  6  1  0  0  0  0
  7  9  2  0  0  0  0
  8  7  2  0  0  0  0
 10 11  1  0  0  0  0
 10 14  1  0  0  0  0
 11 15  1  0  0  0  0
 13  5  1  0  0  0  0
M  RAD  4   2   2   3   3   4   2  12   2
M  END
