Coordinates from ORCA-job 4-NO2PhN2+_B3LYPG-6-31G_dp-d09-49-n800
 OpenBabel11261918563D

 15 14  0  0  0  0  0  0  0  0999 V2000
   -1.2856   -0.2092   -0.0373 C   0  0  0  0  0  0  0  0  0  0  0  0
   -2.6671   -0.2712   -0.0291 N   0  0  0  0  0  0  0  0  0  0  0  0
   -3.7793   -0.3206   -0.0224 N   0  0  0  0  0  0  0  0  0  0  0  0
   -0.6728    1.0337   -0.1539 C   0  0  0  0  0  0  0  0  0  0  0  0
    0.6887    1.1655   -0.1694 C   0  0  0  0  0  0  0  0  0  0  0  0
    1.4162   -0.0293   -0.0605 C   0  0  0  0  0  0  0  0  0  0  0  0
    2.9143    0.0680   -0.0744 N   0  0  0  0  0  0  0  0  0  0  0  0
    3.3865    1.1882   -0.1852 O   0  0  0  0  0  0  0  0  0  0  0  0
    3.5196   -0.9893    0.0264 O   0  0  0  0  0  0  0  0  0  0  0  0
    0.8360   -1.2970    0.0588 C   0  0  0  0  0  0  0  0  0  0  0  0
   -0.5448   -1.4126    0.0728 C   0  0  0  0  0  0  0  0  0  0  0  0
   -2.5600    3.7267   -0.4044 H   0  0  0  0  0  0  0  0  0  0  0  0
    1.2168    2.1109   -0.2585 H   0  0  0  0  0  0  0  0  0  0  0  0
    1.4754   -2.1680    0.1381 H   0  0  0  0  0  0  0  0  0  0  0  0
   -1.0403   -2.3747    0.1635 H   0  0  0  0  0  0  0  0  0  0  0  0
  1  2  1  0  0  0  0
  1 11  2  0  0  0  0
  2  3  1  0  0  0  0
  4  1  1  0  0  0  0
  5  4  2  0  0  0  0
  5  6  1  0  0  0  0
  6 10  2  0  0  0  0
  7  6  1  0  0  0  0
  7  9  2  0  0  0  0
  8  7  2  0  0  0  0
 10 11  1  0  0  0  0
 10 14  1  0  0  0  0
 11 15  1  0  0  0  0
 13  5  1  0  0  0  0
M  RAD  4   2   2   3   3   4   2  12   2
M  END
