Coordinates from ORCA-job 4-NO2PhN2+_B3LYPG-6-31G_dp-d09-49-n800
 OpenBabel11261918563D

 15 14  0  0  0  0  0  0  0  0999 V2000
   -1.2742   -0.2583   -0.0314 C   0  0  0  0  0  0  0  0  0  0  0  0
   -2.6569   -0.3357   -0.0200 N   0  0  0  0  0  0  0  0  0  0  0  0
   -3.7688   -0.3946   -0.0173 N   0  0  0  0  0  0  0  0  0  0  0  0
   -0.6809    0.9931   -0.1497 C   0  0  0  0  0  0  0  0  0  0  0  0
    0.6808    1.1346   -0.1675 C   0  0  0  0  0  0  0  0  0  0  0  0
    1.4215   -0.0517   -0.0602 C   0  0  0  0  0  0  0  0  0  0  0  0
    2.9189    0.0618   -0.0778 N   0  0  0  0  0  0  0  0  0  0  0  0
    3.3798    1.1875   -0.1803 O   0  0  0  0  0  0  0  0  0  0  0  0
    3.5358   -0.9885    0.0284 O   0  0  0  0  0  0  0  0  0  0  0  0
    0.8556   -1.3264    0.0604 C   0  0  0  0  0  0  0  0  0  0  0  0
   -0.5233   -1.4560    0.0774 C   0  0  0  0  0  0  0  0  0  0  0  0
   -2.6818    4.1846   -0.4474 H   0  0  0  0  0  0  0  0  0  0  0  0
    1.2020    2.0842   -0.2575 H   0  0  0  0  0  0  0  0  0  0  0  0
    1.5044   -2.1904    0.1383 H   0  0  0  0  0  0  0  0  0  0  0  0
   -1.0094   -2.4229    0.1692 H   0  0  0  0  0  0  0  0  0  0  0  0
  1  2  1  0  0  0  0
  1 11  2  0  0  0  0
  2  3  1  0  0  0  0
  4  1  1  0  0  0  0
  5  4  2  0  0  0  0
  5  6  1  0  0  0  0
  6 10  2  0  0  0  0
  7  6  1  0  0  0  0
  7  9  2  0  0  0  0
  8  7  2  0  0  0  0
 10 11  1  0  0  0  0
 10 14  1  0  0  0  0
 11 15  1  0  0  0  0
 13  5  1  0  0  0  0
M  RAD  4   2   2   3   3   4   2  12   2
M  END
