Coordinates from ORCA-job 4-NO2PhN2+_B3LYPG-6-31G_dp-d09-49-n800
 OpenBabel11261918563D

 15 14  0  0  0  0  0  0  0  0999 V2000
   -1.2815   -0.4283   -0.0124 C   0  0  0  0  0  0  0  0  0  0  0  0
   -2.6606   -0.5786    0.0051 N   0  0  0  0  0  0  0  0  0  0  0  0
   -3.7685   -0.6883    0.0181 N   0  0  0  0  0  0  0  0  0  0  0  0
   -0.7661    0.8568   -0.1288 C   0  0  0  0  0  0  0  0  0  0  0  0
    0.5898    1.0641   -0.1522 C   0  0  0  0  0  0  0  0  0  0  0  0
    1.3939   -0.0802   -0.0545 C   0  0  0  0  0  0  0  0  0  0  0  0
    2.8830    0.1132   -0.0797 N   0  0  0  0  0  0  0  0  0  0  0  0
    3.2842    1.2619   -0.1809 O   0  0  0  0  0  0  0  0  0  0  0  0
    3.5566   -0.9042    0.0033 O   0  0  0  0  0  0  0  0  0  0  0  0
    0.8985   -1.3847    0.0638 C   0  0  0  0  0  0  0  0  0  0  0  0
   -0.4710   -1.5872    0.0876 C   0  0  0  0  0  0  0  0  0  0  0  0
   -2.5056    5.3296   -0.5761 H   0  0  0  0  0  0  0  0  0  0  0  0
    1.0627    2.0389   -0.2404 H   0  0  0  0  0  0  0  0  0  0  0  0
    1.5929   -2.2129    0.1341 H   0  0  0  0  0  0  0  0  0  0  0  0
   -0.9049   -2.5788    0.1778 H   0  0  0  0  0  0  0  0  0  0  0  0
  1  2  1  0  0  0  0
  1 11  2  0  0  0  0
  2  3  1  0  0  0  0
  4  1  1  0  0  0  0
  5  4  2  0  0  0  0
  5  6  1  0  0  0  0
  6 10  2  0  0  0  0
  7  6  1  0  0  0  0
  7  9  2  0  0  0  0
  8  7  2  0  0  0  0
 10 11  1  0  0  0  0
 10 14  1  0  0  0  0
 11 15  1  0  0  0  0
 13  5  1  0  0  0  0
M  RAD  4   2   2   3   3   4   2  12   2
M  END
