Coordinates from ORCA-job 4-NO2PhN2+_B3LYPG-6-31G_dp-d09-49-n800
 OpenBabel11261918563D

 15 14  0  0  0  0  0  0  0  0999 V2000
   -1.3290   -0.1391   -0.0441 C   0  0  0  0  0  0  0  0  0  0  0  0
   -2.7062   -0.1966   -0.0365 N   0  0  0  0  0  0  0  0  0  0  0  0
   -3.8186   -0.2455   -0.0301 N   0  0  0  0  0  0  0  0  0  0  0  0
   -0.7099    1.1068   -0.1613 C   0  0  0  0  0  0  0  0  0  0  0  0
    0.6561    1.2251   -0.1754 C   0  0  0  0  0  0  0  0  0  0  0  0
    1.3783    0.0294   -0.0659 C   0  0  0  0  0  0  0  0  0  0  0  0
    2.8733    0.1160   -0.0788 N   0  0  0  0  0  0  0  0  0  0  0  0
    3.3507    1.2348   -0.1903 O   0  0  0  0  0  0  0  0  0  0  0  0
    3.4748   -0.9432    0.0233 O   0  0  0  0  0  0  0  0  0  0  0  0
    0.7916   -1.2340    0.0533 C   0  0  0  0  0  0  0  0  0  0  0  0
   -0.5909   -1.3410    0.0663 C   0  0  0  0  0  0  0  0  0  0  0  0
   -1.9826    2.8467   -0.3209 H   0  0  0  0  0  0  0  0  0  0  0  0
    1.1793    2.1707   -0.2651 H   0  0  0  0  0  0  0  0  0  0  0  0
    1.4265   -2.1085    0.1332 H   0  0  0  0  0  0  0  0  0  0  0  0
   -1.0899   -2.3006    0.1569 H   0  0  0  0  0  0  0  0  0  0  0  0
  1  2  1  0  0  0  0
  1 11  2  0  0  0  0
  2  3  1  0  0  0  0
  4  1  1  0  0  0  0
  5  4  2  0  0  0  0
  5  6  1  0  0  0  0
  6 10  2  0  0  0  0
  7  6  1  0  0  0  0
  7  9  2  0  0  0  0
  8  7  2  0  0  0  0
 10 11  1  0  0  0  0
 10 14  1  0  0  0  0
 11 15  1  0  0  0  0
 13  5  1  0  0  0  0
M  RAD  4   2   2   3   3   4   2  12   2
M  END
