Coordinates from ORCA-job 4-NO2PhN2+_B3LYPG-6-31G_dp-d09-49-n800
 OpenBabel11261918563D

 15 15  0  0  0  0  0  0  0  0999 V2000
   -1.3494   -0.1010   -0.0476 C   0  0  0  0  0  0  0  0  0  0  0  0
   -2.7269   -0.1726   -0.0387 N   0  0  0  0  0  0  0  0  0  0  0  0
   -3.8391   -0.2318   -0.0314 N   0  0  0  0  0  0  0  0  0  0  0  0
   -0.7507    1.1637   -0.1665 C   0  0  0  0  0  0  0  0  0  0  0  0
    0.6272    1.2512   -0.1779 C   0  0  0  0  0  0  0  0  0  0  0  0
    1.3528    0.0614   -0.0689 C   0  0  0  0  0  0  0  0  0  0  0  0
    2.8450    0.1469   -0.0815 N   0  0  0  0  0  0  0  0  0  0  0  0
    3.3228    1.2663   -0.1940 O   0  0  0  0  0  0  0  0  0  0  0  0
    3.4487   -0.9113    0.0214 O   0  0  0  0  0  0  0  0  0  0  0  0
    0.7673   -1.2013    0.0502 C   0  0  0  0  0  0  0  0  0  0  0  0
   -0.6157   -1.3023    0.0626 C   0  0  0  0  0  0  0  0  0  0  0  0
   -1.6123    2.3935   -0.2790 H   0  0  0  0  0  0  0  0  0  0  0  0
    1.1502    2.1959   -0.2674 H   0  0  0  0  0  0  0  0  0  0  0  0
    1.4003   -2.0773    0.1305 H   0  0  0  0  0  0  0  0  0  0  0  0
   -1.1168   -2.2602    0.1530 H   0  0  0  0  0  0  0  0  0  0  0  0
  1  2  1  0  0  0  0
  1 11  2  0  0  0  0
  2  3  1  0  0  0  0
  4  1  1  0  0  0  0
  5  4  2  0  0  0  0
  5  6  1  0  0  0  0
  6 10  2  0  0  0  0
  7  6  1  0  0  0  0
  7  9  2  0  0  0  0
  8  7  2  0  0  0  0
 10 11  1  0  0  0  0
 10 14  1  0  0  0  0
 11 15  1  0  0  0  0
 12  4  1  0  0  0  0
 13  5  1  0  0  0  0
M  RAD  2   2   2   3   3
M  END
