Coordinates from ORCA-job 4-NO2PhN2+_B3LYPG-6-31G_dp-d09-49-n800
 OpenBabel11261918563D

 15 14  0  0  0  0  0  0  0  0999 V2000
   -1.3157   -0.1576   -0.0423 C   0  0  0  0  0  0  0  0  0  0  0  0
   -2.6939   -0.2120   -0.0349 N   0  0  0  0  0  0  0  0  0  0  0  0
   -3.8063   -0.2581   -0.0288 N   0  0  0  0  0  0  0  0  0  0  0  0
   -0.6925    1.0834   -0.1590 C   0  0  0  0  0  0  0  0  0  0  0  0
    0.6701    1.2090   -0.1738 C   0  0  0  0  0  0  0  0  0  0  0  0
    1.3918    0.0116   -0.0643 C   0  0  0  0  0  0  0  0  0  0  0  0
    2.8882    0.0995   -0.0773 N   0  0  0  0  0  0  0  0  0  0  0  0
    3.3654    1.2180   -0.1886 O   0  0  0  0  0  0  0  0  0  0  0  0
    3.4889   -0.9602    0.0247 O   0  0  0  0  0  0  0  0  0  0  0  0
    0.8048   -1.2522    0.0549 C   0  0  0  0  0  0  0  0  0  0  0  0
   -0.5774   -1.3607    0.0681 C   0  0  0  0  0  0  0  0  0  0  0  0
   -2.1794    3.0934   -0.3442 H   0  0  0  0  0  0  0  0  0  0  0  0
    1.1957    2.1542   -0.2633 H   0  0  0  0  0  0  0  0  0  0  0  0
    1.4400   -2.1264    0.1347 H   0  0  0  0  0  0  0  0  0  0  0  0
   -1.0764   -2.3206    0.1587 H   0  0  0  0  0  0  0  0  0  0  0  0
  1  2  1  0  0  0  0
  1 11  2  0  0  0  0
  2  3  1  0  0  0  0
  4  1  1  0  0  0  0
  5  4  2  0  0  0  0
  5  6  1  0  0  0  0
  6 10  2  0  0  0  0
  7  6  1  0  0  0  0
  7  9  2  0  0  0  0
  8  7  2  0  0  0  0
 10 11  1  0  0  0  0
 10 14  1  0  0  0  0
 11 15  1  0  0  0  0
 13  5  1  0  0  0  0
M  RAD  4   2   2   3   3   4   2  12   2
M  END
