Coordinates from ORCA-job 4-NO2PhN2+_B3LYPG-6-31G_dp-d09-49-n800
 OpenBabel11261918563D

 15 14  0  0  0  0  0  0  0  0999 V2000
   -1.2734   -0.2666   -0.0316 C   0  0  0  0  0  0  0  0  0  0  0  0
   -2.6561   -0.3472   -0.0219 N   0  0  0  0  0  0  0  0  0  0  0  0
   -3.7679   -0.4073   -0.0138 N   0  0  0  0  0  0  0  0  0  0  0  0
   -0.6837    0.9869   -0.1489 C   0  0  0  0  0  0  0  0  0  0  0  0
    0.6783    1.1305   -0.1652 C   0  0  0  0  0  0  0  0  0  0  0  0
    1.4214   -0.0542   -0.0577 C   0  0  0  0  0  0  0  0  0  0  0  0
    2.9186    0.0626   -0.0736 N   0  0  0  0  0  0  0  0  0  0  0  0
    3.3773    1.1883   -0.1842 O   0  0  0  0  0  0  0  0  0  0  0  0
    3.5377   -0.9874    0.0233 O   0  0  0  0  0  0  0  0  0  0  0  0
    0.8583   -1.3302    0.0620 C   0  0  0  0  0  0  0  0  0  0  0  0
   -0.5203   -1.4628    0.0776 C   0  0  0  0  0  0  0  0  0  0  0  0
   -2.6896    4.2512   -0.4555 H   0  0  0  0  0  0  0  0  0  0  0  0
    1.1980    2.0810   -0.2544 H   0  0  0  0  0  0  0  0  0  0  0  0
    1.5090   -2.1928    0.1402 H   0  0  0  0  0  0  0  0  0  0  0  0
   -1.0043   -2.4309    0.1685 H   0  0  0  0  0  0  0  0  0  0  0  0
  1  2  1  0  0  0  0
  1 11  2  0  0  0  0
  2  3  1  0  0  0  0
  4  1  1  0  0  0  0
  5  4  2  0  0  0  0
  5  6  1  0  0  0  0
  6 10  2  0  0  0  0
  7  6  1  0  0  0  0
  7  9  2  0  0  0  0
  8  7  2  0  0  0  0
 10 11  1  0  0  0  0
 10 14  1  0  0  0  0
 11 15  1  0  0  0  0
 13  5  1  0  0  0  0
M  RAD  4   2   2   3   3   4   2  12   2
M  END
