Coordinates from ORCA-job 4-NO2PhN2+_B3LYPG-6-31G_dp-d09-49-n800
 OpenBabel11261918563D

 15 14  0  0  0  0  0  0  0  0999 V2000
   -1.3488   -0.1026   -0.0475 C   0  0  0  0  0  0  0  0  0  0  0  0
   -2.7261   -0.1736   -0.0386 N   0  0  0  0  0  0  0  0  0  0  0  0
   -3.8384   -0.2323   -0.0314 N   0  0  0  0  0  0  0  0  0  0  0  0
   -0.7491    1.1613   -0.1663 C   0  0  0  0  0  0  0  0  0  0  0  0
    0.6283    1.2502   -0.1778 C   0  0  0  0  0  0  0  0  0  0  0  0
    1.3537    0.0602   -0.0688 C   0  0  0  0  0  0  0  0  0  0  0  0
    2.8461    0.1458   -0.0814 N   0  0  0  0  0  0  0  0  0  0  0  0
    3.3238    1.2651   -0.1939 O   0  0  0  0  0  0  0  0  0  0  0  0
    3.4497   -0.9125    0.0214 O   0  0  0  0  0  0  0  0  0  0  0  0
    0.7682   -1.2025    0.0504 C   0  0  0  0  0  0  0  0  0  0  0  0
   -0.6148   -1.3039    0.0628 C   0  0  0  0  0  0  0  0  0  0  0  0
   -1.6260    2.4109   -0.2807 H   0  0  0  0  0  0  0  0  0  0  0  0
    1.1512    2.1950   -0.2673 H   0  0  0  0  0  0  0  0  0  0  0  0
    1.4013   -2.0784    0.1306 H   0  0  0  0  0  0  0  0  0  0  0  0
   -1.1157   -2.2618    0.1532 H   0  0  0  0  0  0  0  0  0  0  0  0
  1  2  1  0  0  0  0
  1 11  2  0  0  0  0
  2  3  1  0  0  0  0
  4  1  1  0  0  0  0
  5  4  2  0  0  0  0
  5  6  1  0  0  0  0
  6 10  2  0  0  0  0
  7  6  1  0  0  0  0
  7  9  2  0  0  0  0
  8  7  2  0  0  0  0
 10 11  1  0  0  0  0
 10 14  1  0  0  0  0
 11 15  1  0  0  0  0
 13  5  1  0  0  0  0
M  RAD  4   2   2   3   3   4   2  12   2
M  END
