Coordinates from ORCA-job 4-NO2PhN2+_B3LYPG-6-31G_dp-d09-49-n800
 OpenBabel11261918563D

 15 15  0  0  0  0  0  0  0  0999 V2000
   -1.3637   -0.0665   -0.0510 C   0  0  0  0  0  0  0  0  0  0  0  0
   -2.7435   -0.1471   -0.0408 N   0  0  0  0  0  0  0  0  0  0  0  0
   -3.8557   -0.2113   -0.0326 N   0  0  0  0  0  0  0  0  0  0  0  0
   -0.7836    1.2138   -0.1713 C   0  0  0  0  0  0  0  0  0  0  0  0
    0.6034    1.2721   -0.1798 C   0  0  0  0  0  0  0  0  0  0  0  0
    1.3330    0.0874   -0.0712 C   0  0  0  0  0  0  0  0  0  0  0  0
    2.8239    0.1735   -0.0838 N   0  0  0  0  0  0  0  0  0  0  0  0
    3.3012    1.2934   -0.1955 O   0  0  0  0  0  0  0  0  0  0  0  0
    3.4286   -0.8843    0.0184 O   0  0  0  0  0  0  0  0  0  0  0  0
    0.7476   -1.1737    0.0477 C   0  0  0  0  0  0  0  0  0  0  0  0
   -0.6366   -1.2686    0.0595 C   0  0  0  0  0  0  0  0  0  0  0  0
   -1.3156    1.9916   -0.2432 H   0  0  0  0  0  0  0  0  0  0  0  0
    1.1276    2.2169   -0.2694 H   0  0  0  0  0  0  0  0  0  0  0  0
    1.3777   -2.0519    0.1280 H   0  0  0  0  0  0  0  0  0  0  0  0
   -1.1410   -2.2244    0.1498 H   0  0  0  0  0  0  0  0  0  0  0  0
  1  2  1  0  0  0  0
  1 11  2  0  0  0  0
  2  3  1  0  0  0  0
  4  1  1  0  0  0  0
  5  4  2  0  0  0  0
  5  6  1  0  0  0  0
  6 10  2  0  0  0  0
  7  6  1  0  0  0  0
  7  9  2  0  0  0  0
  8  7  2  0  0  0  0
 10 11  1  0  0  0  0
 10 14  1  0  0  0  0
 11 15  1  0  0  0  0
 12  4  1  0  0  0  0
 13  5  1  0  0  0  0
M  RAD  2   2   2   3   3
M  END
