Coordinates from ORCA-job 4-NO2PhN2+_B3LYPG-6-31G_dp-d09-49-n800
 OpenBabel11261918563D

 15 14  0  0  0  0  0  0  0  0999 V2000
   -1.2717   -0.2963   -0.0283 C   0  0  0  0  0  0  0  0  0  0  0  0
   -2.6544   -0.3879   -0.0171 N   0  0  0  0  0  0  0  0  0  0  0  0
   -3.7658   -0.4550   -0.0088 N   0  0  0  0  0  0  0  0  0  0  0  0
   -0.6946    0.9625   -0.1459 C   0  0  0  0  0  0  0  0  0  0  0  0
    0.6668    1.1157   -0.1633 C   0  0  0  0  0  0  0  0  0  0  0  0
    1.4198   -0.0627   -0.0571 C   0  0  0  0  0  0  0  0  0  0  0  0
    2.9160    0.0663   -0.0746 N   0  0  0  0  0  0  0  0  0  0  0  0
    3.3659    1.1959   -0.1830 O   0  0  0  0  0  0  0  0  0  0  0  0
    3.5440   -0.9786    0.0214 O   0  0  0  0  0  0  0  0  0  0  0  0
    0.8675   -1.3436    0.0628 C   0  0  0  0  0  0  0  0  0  0  0  0
   -0.5099   -1.4872    0.0798 C   0  0  0  0  0  0  0  0  0  0  0  0
   -2.6988    4.4821   -0.4794 H   0  0  0  0  0  0  0  0  0  0  0  0
    1.1796    2.0700   -0.2526 H   0  0  0  0  0  0  0  0  0  0  0  0
    1.5252   -2.2008    0.1399 H   0  0  0  0  0  0  0  0  0  0  0  0
   -0.9861   -2.4591    0.1709 H   0  0  0  0  0  0  0  0  0  0  0  0
  1  2  1  0  0  0  0
  1 11  2  0  0  0  0
  2  3  1  0  0  0  0
  4  1  1  0  0  0  0
  5  4  2  0  0  0  0
  5  6  1  0  0  0  0
  6 10  2  0  0  0  0
  7  6  1  0  0  0  0
  7  9  2  0  0  0  0
  8  7  2  0  0  0  0
 10 11  1  0  0  0  0
 10 14  1  0  0  0  0
 11 15  1  0  0  0  0
 13  5  1  0  0  0  0
M  RAD  4   2   2   3   3   4   2  12   2
M  END
