Coordinates from ORCA-job 4-NO2PhN2+_B3LYPG-6-31G_dp-d09-49-n800
 OpenBabel11261918563D

 15 14  0  0  0  0  0  0  0  0999 V2000
   -1.3310   -0.1361   -0.0444 C   0  0  0  0  0  0  0  0  0  0  0  0
   -2.7081   -0.1944   -0.0367 N   0  0  0  0  0  0  0  0  0  0  0  0
   -3.8204   -0.2440   -0.0303 N   0  0  0  0  0  0  0  0  0  0  0  0
   -0.7130    1.1109   -0.1617 C   0  0  0  0  0  0  0  0  0  0  0  0
    0.6537    1.2275   -0.1757 C   0  0  0  0  0  0  0  0  0  0  0  0
    1.3761    0.0322   -0.0662 C   0  0  0  0  0  0  0  0  0  0  0  0
    2.8709    0.1186   -0.0790 N   0  0  0  0  0  0  0  0  0  0  0  0
    3.3483    1.2375   -0.1907 O   0  0  0  0  0  0  0  0  0  0  0  0
    3.4725   -0.9405    0.0232 O   0  0  0  0  0  0  0  0  0  0  0  0
    0.7895   -1.2311    0.0531 C   0  0  0  0  0  0  0  0  0  0  0  0
   -0.5930   -1.3378    0.0660 C   0  0  0  0  0  0  0  0  0  0  0  0
   -1.9510    2.8082   -0.3172 H   0  0  0  0  0  0  0  0  0  0  0  0
    1.1767    2.1731   -0.2654 H   0  0  0  0  0  0  0  0  0  0  0  0
    1.4243   -2.1057    0.1330 H   0  0  0  0  0  0  0  0  0  0  0  0
   -1.0921   -2.2973    0.1566 H   0  0  0  0  0  0  0  0  0  0  0  0
  1  2  1  0  0  0  0
  1 11  2  0  0  0  0
  2  3  1  0  0  0  0
  4  1  1  0  0  0  0
  5  4  2  0  0  0  0
  5  6  1  0  0  0  0
  6 10  2  0  0  0  0
  7  6  1  0  0  0  0
  7  9  2  0  0  0  0
  8  7  2  0  0  0  0
 10 11  1  0  0  0  0
 10 14  1  0  0  0  0
 11 15  1  0  0  0  0
 13  5  1  0  0  0  0
M  RAD  4   2   2   3   3   4   2  12   2
M  END
