Coordinates from ORCA-job 4-NO2PhN2+_B3LYPG-6-31G_dp-d09-49-n800
 OpenBabel11261918563D

 15 15  0  0  0  0  0  0  0  0999 V2000
   -1.3645   -0.0644   -0.0511 C   0  0  0  0  0  0  0  0  0  0  0  0
   -2.7445   -0.1448   -0.0403 N   0  0  0  0  0  0  0  0  0  0  0  0
   -3.8568   -0.2088   -0.0316 N   0  0  0  0  0  0  0  0  0  0  0  0
   -0.7852    1.2162   -0.1716 C   0  0  0  0  0  0  0  0  0  0  0  0
    0.6019    1.2735   -0.1806 C   0  0  0  0  0  0  0  0  0  0  0  0
    1.3318    0.0890   -0.0725 C   0  0  0  0  0  0  0  0  0  0  0  0
    2.8226    0.1751   -0.0859 N   0  0  0  0  0  0  0  0  0  0  0  0
    3.2999    1.2954   -0.1938 O   0  0  0  0  0  0  0  0  0  0  0  0
    3.4274   -0.8822    0.0215 O   0  0  0  0  0  0  0  0  0  0  0  0
    0.7463   -1.1720    0.0466 C   0  0  0  0  0  0  0  0  0  0  0  0
   -0.6379   -1.2667    0.0590 C   0  0  0  0  0  0  0  0  0  0  0  0
   -1.2975    1.9651   -0.2407 H   0  0  0  0  0  0  0  0  0  0  0  0
    1.1261    2.2183   -0.2705 H   0  0  0  0  0  0  0  0  0  0  0  0
    1.3766   -2.0502    0.1266 H   0  0  0  0  0  0  0  0  0  0  0  0
   -1.1426   -2.2223    0.1494 H   0  0  0  0  0  0  0  0  0  0  0  0
  1  2  1  0  0  0  0
  1 11  2  0  0  0  0
  2  3  1  0  0  0  0
  4  1  1  0  0  0  0
  5  4  2  0  0  0  0
  5  6  1  0  0  0  0
  6 10  2  0  0  0  0
  7  6  1  0  0  0  0
  7  9  2  0  0  0  0
  8  7  2  0  0  0  0
 10 11  1  0  0  0  0
 10 14  1  0  0  0  0
 11 15  1  0  0  0  0
 12  4  1  0  0  0  0
 13  5  1  0  0  0  0
M  RAD  2   2   2   3   3
M  END
