Coordinates from ORCA-job 4-NO2PhN2+_B3LYPG-6-31G_dp-d09-49-n800
 OpenBabel11261918563D

 15 14  0  0  0  0  0  0  0  0999 V2000
   -1.2868   -0.2059   -0.0379 C   0  0  0  0  0  0  0  0  0  0  0  0
   -2.6681   -0.2670   -0.0301 N   0  0  0  0  0  0  0  0  0  0  0  0
   -3.7804   -0.3157   -0.0214 N   0  0  0  0  0  0  0  0  0  0  0  0
   -0.6730    1.0368   -0.1544 C   0  0  0  0  0  0  0  0  0  0  0  0
    0.6886    1.1678   -0.1696 C   0  0  0  0  0  0  0  0  0  0  0  0
    1.4153   -0.0273   -0.0606 C   0  0  0  0  0  0  0  0  0  0  0  0
    2.9135    0.0691   -0.0744 N   0  0  0  0  0  0  0  0  0  0  0  0
    3.3862    1.1891   -0.1851 O   0  0  0  0  0  0  0  0  0  0  0  0
    3.5181   -0.9885    0.0267 O   0  0  0  0  0  0  0  0  0  0  0  0
    0.8344   -1.2947    0.0585 C   0  0  0  0  0  0  0  0  0  0  0  0
   -0.5465   -1.4095    0.0723 C   0  0  0  0  0  0  0  0  0  0  0  0
   -2.5455    3.6914   -0.4013 H   0  0  0  0  0  0  0  0  0  0  0  0
    1.2169    2.1130   -0.2587 H   0  0  0  0  0  0  0  0  0  0  0  0
    1.4734   -2.1661    0.1379 H   0  0  0  0  0  0  0  0  0  0  0  0
   -1.0426   -2.3713    0.1629 H   0  0  0  0  0  0  0  0  0  0  0  0
  1  2  1  0  0  0  0
  1 11  2  0  0  0  0
  2  3  1  0  0  0  0
  4  1  1  0  0  0  0
  5  4  2  0  0  0  0
  5  6  1  0  0  0  0
  6 10  2  0  0  0  0
  7  6  1  0  0  0  0
  7  9  2  0  0  0  0
  8  7  2  0  0  0  0
 10 11  1  0  0  0  0
 10 14  1  0  0  0  0
 11 15  1  0  0  0  0
 13  5  1  0  0  0  0
M  RAD  4   2   2   3   3   4   2  12   2
M  END
