Coordinates from ORCA-job 4-NO2PhN2+_B3LYPG-6-31G_dp-d09-49-n800
 OpenBabel11261918563D

 15 14  0  0  0  0  0  0  0  0999 V2000
   -1.3138   -0.1600   -0.0421 C   0  0  0  0  0  0  0  0  0  0  0  0
   -2.6923   -0.2143   -0.0347 N   0  0  0  0  0  0  0  0  0  0  0  0
   -3.8046   -0.2602   -0.0286 N   0  0  0  0  0  0  0  0  0  0  0  0
   -0.6905    1.0806   -0.1587 C   0  0  0  0  0  0  0  0  0  0  0  0
    0.6719    1.2068   -0.1735 C   0  0  0  0  0  0  0  0  0  0  0  0
    1.3935    0.0092   -0.0640 C   0  0  0  0  0  0  0  0  0  0  0  0
    2.8901    0.0973   -0.0771 N   0  0  0  0  0  0  0  0  0  0  0  0
    3.3672    1.2158   -0.1884 O   0  0  0  0  0  0  0  0  0  0  0  0
    3.4907   -0.9624    0.0248 O   0  0  0  0  0  0  0  0  0  0  0  0
    0.8065   -1.2547    0.0551 C   0  0  0  0  0  0  0  0  0  0  0  0
   -0.5756   -1.3633    0.0683 C   0  0  0  0  0  0  0  0  0  0  0  0
   -2.2046    3.1264   -0.3473 H   0  0  0  0  0  0  0  0  0  0  0  0
    1.1978    2.1519   -0.2630 H   0  0  0  0  0  0  0  0  0  0  0  0
    1.4418   -2.1288    0.1349 H   0  0  0  0  0  0  0  0  0  0  0  0
   -1.0746   -2.3232    0.1589 H   0  0  0  0  0  0  0  0  0  0  0  0
  1  2  1  0  0  0  0
  1 11  2  0  0  0  0
  2  3  1  0  0  0  0
  4  1  1  0  0  0  0
  5  4  2  0  0  0  0
  5  6  1  0  0  0  0
  6 10  2  0  0  0  0
  7  6  1  0  0  0  0
  7  9  2  0  0  0  0
  8  7  2  0  0  0  0
 10 11  1  0  0  0  0
 10 14  1  0  0  0  0
 11 15  1  0  0  0  0
 13  5  1  0  0  0  0
M  RAD  4   2   2   3   3   4   2  12   2
M  END
