Coordinates from ORCA-job 4-NO2PhN2+_B3LYPG-6-31G_dp-d09-49-n800
 OpenBabel11261918563D

 15 15  0  0  0  0  0  0  0  0999 V2000
   -1.3550   -0.0872   -0.0492 C   0  0  0  0  0  0  0  0  0  0  0  0
   -2.7332   -0.1641   -0.0405 N   0  0  0  0  0  0  0  0  0  0  0  0
   -3.8455   -0.2268   -0.0335 N   0  0  0  0  0  0  0  0  0  0  0  0
   -0.7648    1.1851   -0.1682 C   0  0  0  0  0  0  0  0  0  0  0  0
    0.6177    1.2592   -0.1775 C   0  0  0  0  0  0  0  0  0  0  0  0
    1.3448    0.0717   -0.0682 C   0  0  0  0  0  0  0  0  0  0  0  0
    2.8364    0.1575   -0.0794 N   0  0  0  0  0  0  0  0  0  0  0  0
    3.3141    1.2763   -0.1992 O   0  0  0  0  0  0  0  0  0  0  0  0
    3.4405   -0.9011    0.0169 O   0  0  0  0  0  0  0  0  0  0  0  0
    0.7595   -1.1905    0.0504 C   0  0  0  0  0  0  0  0  0  0  0  0
   -0.6239   -1.2888    0.0615 C   0  0  0  0  0  0  0  0  0  0  0  0
   -1.4937    2.2395   -0.2650 H   0  0  0  0  0  0  0  0  0  0  0  0
    1.1417    2.2035   -0.2664 H   0  0  0  0  0  0  0  0  0  0  0  0
    1.3913   -2.0673    0.1313 H   0  0  0  0  0  0  0  0  0  0  0  0
   -1.1264   -2.2458    0.1515 H   0  0  0  0  0  0  0  0  0  0  0  0
  1  2  1  0  0  0  0
  1 11  2  0  0  0  0
  2  3  1  0  0  0  0
  4  1  1  0  0  0  0
  5  4  2  0  0  0  0
  5  6  1  0  0  0  0
  6 10  2  0  0  0  0
  7  6  1  0  0  0  0
  7  9  2  0  0  0  0
  8  7  2  0  0  0  0
 10 11  1  0  0  0  0
 10 14  1  0  0  0  0
 11 15  1  0  0  0  0
 12  4  1  0  0  0  0
 13  5  1  0  0  0  0
M  RAD  2   2   2   3   3
M  END
