Coordinates from ORCA-job 4-NO2PhN2+_B3LYPG-6-31G_dp-d09-49-n800
 OpenBabel11261918563D

 15 14  0  0  0  0  0  0  0  0999 V2000
   -1.2843   -0.2122   -0.0369 C   0  0  0  0  0  0  0  0  0  0  0  0
   -2.6657   -0.2748   -0.0286 N   0  0  0  0  0  0  0  0  0  0  0  0
   -3.7781   -0.3249   -0.0223 N   0  0  0  0  0  0  0  0  0  0  0  0
   -0.6728    1.0314   -0.1537 C   0  0  0  0  0  0  0  0  0  0  0  0
    0.6887    1.1631   -0.1691 C   0  0  0  0  0  0  0  0  0  0  0  0
    1.4167   -0.0311   -0.0602 C   0  0  0  0  0  0  0  0  0  0  0  0
    2.9148    0.0672   -0.0743 N   0  0  0  0  0  0  0  0  0  0  0  0
    3.3863    1.1876   -0.1853 O   0  0  0  0  0  0  0  0  0  0  0  0
    3.5208   -0.9898    0.0262 O   0  0  0  0  0  0  0  0  0  0  0  0
    0.8373   -1.2993    0.0591 C   0  0  0  0  0  0  0  0  0  0  0  0
   -0.5432   -1.4153    0.0732 C   0  0  0  0  0  0  0  0  0  0  0  0
   -2.5726    3.7582   -0.4074 H   0  0  0  0  0  0  0  0  0  0  0  0
    1.2166    2.1086   -0.2582 H   0  0  0  0  0  0  0  0  0  0  0  0
    1.4773   -2.1699    0.1383 H   0  0  0  0  0  0  0  0  0  0  0  0
   -1.0384   -2.3776    0.1639 H   0  0  0  0  0  0  0  0  0  0  0  0
  1  2  1  0  0  0  0
  1 11  2  0  0  0  0
  2  3  1  0  0  0  0
  4  1  1  0  0  0  0
  5  4  2  0  0  0  0
  5  6  1  0  0  0  0
  6 10  2  0  0  0  0
  7  6  1  0  0  0  0
  7  9  2  0  0  0  0
  8  7  2  0  0  0  0
 10 11  1  0  0  0  0
 10 14  1  0  0  0  0
 11 15  1  0  0  0  0
 13  5  1  0  0  0  0
M  RAD  4   2   2   3   3   4   2  12   2
M  END
