Coordinates from ORCA-job 4-NO2PhN2+_B3LYPG-6-31G_dp-d09-49-n800
 OpenBabel11261918563D

 15 14  0  0  0  0  0  0  0  0999 V2000
   -1.2720   -0.2844   -0.0305 C   0  0  0  0  0  0  0  0  0  0  0  0
   -2.6548   -0.3716   -0.0210 N   0  0  0  0  0  0  0  0  0  0  0  0
   -3.7663   -0.4352   -0.0065 N   0  0  0  0  0  0  0  0  0  0  0  0
   -0.6900    0.9724   -0.1475 C   0  0  0  0  0  0  0  0  0  0  0  0
    0.6717    1.1214   -0.1640 C   0  0  0  0  0  0  0  0  0  0  0  0
    1.4207   -0.0596   -0.0571 C   0  0  0  0  0  0  0  0  0  0  0  0
    2.9174    0.0645   -0.0734 N   0  0  0  0  0  0  0  0  0  0  0  0
    3.3708    1.1925   -0.1829 O   0  0  0  0  0  0  0  0  0  0  0  0
    3.5417   -0.9825    0.0225 O   0  0  0  0  0  0  0  0  0  0  0  0
    0.8640   -1.3385    0.0623 C   0  0  0  0  0  0  0  0  0  0  0  0
   -0.5139   -1.4776    0.0781 C   0  0  0  0  0  0  0  0  0  0  0  0
   -2.6986    4.3918   -0.4710 H   0  0  0  0  0  0  0  0  0  0  0  0
    1.1875    2.0741   -0.2529 H   0  0  0  0  0  0  0  0  0  0  0  0
    1.5187   -2.1980    0.1400 H   0  0  0  0  0  0  0  0  0  0  0  0
   -0.9935   -2.4479    0.1688 H   0  0  0  0  0  0  0  0  0  0  0  0
  1  2  1  0  0  0  0
  1 11  2  0  0  0  0
  2  3  1  0  0  0  0
  4  1  1  0  0  0  0
  5  4  2  0  0  0  0
  5  6  1  0  0  0  0
  6 10  2  0  0  0  0
  7  6  1  0  0  0  0
  7  9  2  0  0  0  0
  8  7  2  0  0  0  0
 10 11  1  0  0  0  0
 10 14  1  0  0  0  0
 11 15  1  0  0  0  0
 13  5  1  0  0  0  0
M  RAD  4   2   2   3   3   4   2  12   2
M  END
