Coordinates from ORCA-job 4-NO2PhN2+_B3LYPG-6-31G_dp-d09-49-n800
 OpenBabel11261918563D

 15 14  0  0  0  0  0  0  0  0999 V2000
   -1.3490   -0.1019   -0.0476 C   0  0  0  0  0  0  0  0  0  0  0  0
   -2.7264   -0.1732   -0.0389 N   0  0  0  0  0  0  0  0  0  0  0  0
   -3.8387   -0.2322   -0.0319 N   0  0  0  0  0  0  0  0  0  0  0  0
   -0.7498    1.1623   -0.1663 C   0  0  0  0  0  0  0  0  0  0  0  0
    0.6279    1.2506   -0.1775 C   0  0  0  0  0  0  0  0  0  0  0  0
    1.3533    0.0607   -0.0684 C   0  0  0  0  0  0  0  0  0  0  0  0
    2.8456    0.1463   -0.0807 N   0  0  0  0  0  0  0  0  0  0  0  0
    3.3234    1.2655   -0.1949 O   0  0  0  0  0  0  0  0  0  0  0  0
    3.4493   -0.9121    0.0204 O   0  0  0  0  0  0  0  0  0  0  0  0
    0.7679   -1.2020    0.0506 C   0  0  0  0  0  0  0  0  0  0  0  0
   -0.6151   -1.3032    0.0628 C   0  0  0  0  0  0  0  0  0  0  0  0
   -1.6205    2.4040   -0.2801 H   0  0  0  0  0  0  0  0  0  0  0  0
    1.1508    2.1954   -0.2669 H   0  0  0  0  0  0  0  0  0  0  0  0
    1.4009   -2.0779    0.1310 H   0  0  0  0  0  0  0  0  0  0  0  0
   -1.1162   -2.2611    0.1531 H   0  0  0  0  0  0  0  0  0  0  0  0
  1  2  1  0  0  0  0
  1 11  2  0  0  0  0
  2  3  1  0  0  0  0
  4  1  1  0  0  0  0
  5  4  2  0  0  0  0
  5  6  1  0  0  0  0
  6 10  2  0  0  0  0
  7  6  1  0  0  0  0
  7  9  2  0  0  0  0
  8  7  2  0  0  0  0
 10 11  1  0  0  0  0
 10 14  1  0  0  0  0
 11 15  1  0  0  0  0
 13  5  1  0  0  0  0
M  RAD  4   2   2   3   3   4   2  12   2
M  END
