Coordinates from ORCA-job 4-NO2PhN2+_B3LYPG-6-31G_dp-d09-49-n800
 OpenBabel11261918563D

 15 14  0  0  0  0  0  0  0  0999 V2000
   -1.2759   -0.2473   -0.0335 C   0  0  0  0  0  0  0  0  0  0  0  0
   -2.6585   -0.3211   -0.0243 N   0  0  0  0  0  0  0  0  0  0  0  0
   -3.7704   -0.3772   -0.0171 N   0  0  0  0  0  0  0  0  0  0  0  0
   -0.6779    1.0021   -0.1508 C   0  0  0  0  0  0  0  0  0  0  0  0
    0.6839    1.1411   -0.1669 C   0  0  0  0  0  0  0  0  0  0  0  0
    1.4212   -0.0474   -0.0587 C   0  0  0  0  0  0  0  0  0  0  0  0
    2.9189    0.0621   -0.0740 N   0  0  0  0  0  0  0  0  0  0  0  0
    3.3827    1.1858   -0.1841 O   0  0  0  0  0  0  0  0  0  0  0  0
    3.5328   -0.9905    0.0253 O   0  0  0  0  0  0  0  0  0  0  0  0
    0.8517   -1.3204    0.0610 C   0  0  0  0  0  0  0  0  0  0  0  0
   -0.5277   -1.4465    0.0761 C   0  0  0  0  0  0  0  0  0  0  0  0
   -2.6663    4.0894   -0.4390 H   0  0  0  0  0  0  0  0  0  0  0  0
    1.2071    2.0895   -0.2562 H   0  0  0  0  0  0  0  0  0  0  0  0
    1.4981   -2.1862    0.1397 H   0  0  0  0  0  0  0  0  0  0  0  0
   -1.0162   -2.4123    0.1671 H   0  0  0  0  0  0  0  0  0  0  0  0
  1  2  1  0  0  0  0
  1 11  2  0  0  0  0
  2  3  1  0  0  0  0
  4  1  1  0  0  0  0
  5  4  2  0  0  0  0
  5  6  1  0  0  0  0
  6 10  2  0  0  0  0
  7  6  1  0  0  0  0
  7  9  2  0  0  0  0
  8  7  2  0  0  0  0
 10 11  1  0  0  0  0
 10 14  1  0  0  0  0
 11 15  1  0  0  0  0
 13  5  1  0  0  0  0
M  RAD  4   2   2   3   3   4   2  12   2
M  END
