Coordinates from ORCA-job 4-NO2PhN2+_B3LYPG-6-31G_dp-d09-49-n800
 OpenBabel11261918563D

 15 14  0  0  0  0  0  0  0  0999 V2000
   -1.2853   -0.2105   -0.0368 C   0  0  0  0  0  0  0  0  0  0  0  0
   -2.6668   -0.2728   -0.0281 N   0  0  0  0  0  0  0  0  0  0  0  0
   -3.7791   -0.3224   -0.0232 N   0  0  0  0  0  0  0  0  0  0  0  0
   -0.6727    1.0326   -0.1538 C   0  0  0  0  0  0  0  0  0  0  0  0
    0.6889    1.1647   -0.1696 C   0  0  0  0  0  0  0  0  0  0  0  0
    1.4166   -0.0300   -0.0608 C   0  0  0  0  0  0  0  0  0  0  0  0
    2.9147    0.0675   -0.0753 N   0  0  0  0  0  0  0  0  0  0  0  0
    3.3867    1.1879   -0.1845 O   0  0  0  0  0  0  0  0  0  0  0  0
    3.5201   -0.9897    0.0272 O   0  0  0  0  0  0  0  0  0  0  0  0
    0.8365   -1.2979    0.0587 C   0  0  0  0  0  0  0  0  0  0  0  0
   -0.5442   -1.4138    0.0731 C   0  0  0  0  0  0  0  0  0  0  0  0
   -2.5656    3.7400   -0.4053 H   0  0  0  0  0  0  0  0  0  0  0  0
    1.2168    2.1102   -0.2589 H   0  0  0  0  0  0  0  0  0  0  0  0
    1.4762   -2.1687    0.1378 H   0  0  0  0  0  0  0  0  0  0  0  0
   -1.0394   -2.3760    0.1641 H   0  0  0  0  0  0  0  0  0  0  0  0
  1  2  1  0  0  0  0
  1 11  2  0  0  0  0
  2  3  1  0  0  0  0
  4  1  1  0  0  0  0
  5  4  2  0  0  0  0
  5  6  1  0  0  0  0
  6 10  2  0  0  0  0
  7  6  1  0  0  0  0
  7  9  2  0  0  0  0
  8  7  2  0  0  0  0
 10 11  1  0  0  0  0
 10 14  1  0  0  0  0
 11 15  1  0  0  0  0
 13  5  1  0  0  0  0
M  RAD  4   2   2   3   3   4   2  12   2
M  END
