Coordinates from ORCA-job 4-NO2PhN2+_B3LYPG-6-31G_dp-d09-49-n800
 OpenBabel11261918563D

 15 14  0  0  0  0  0  0  0  0999 V2000
   -1.3436   -0.1138   -0.0464 C   0  0  0  0  0  0  0  0  0  0  0  0
   -2.7206   -0.1802   -0.0380 N   0  0  0  0  0  0  0  0  0  0  0  0
   -3.8329   -0.2357   -0.0310 N   0  0  0  0  0  0  0  0  0  0  0  0
   -0.7371    1.1438   -0.1648 C   0  0  0  0  0  0  0  0  0  0  0  0
    0.6365    1.2433   -0.1773 C   0  0  0  0  0  0  0  0  0  0  0  0
    1.3608    0.0514   -0.0682 C   0  0  0  0  0  0  0  0  0  0  0  0
    2.8538    0.1371   -0.0810 N   0  0  0  0  0  0  0  0  0  0  0  0
    3.3315    1.2564   -0.1924 O   0  0  0  0  0  0  0  0  0  0  0  0
    3.4568   -0.9213    0.0224 O   0  0  0  0  0  0  0  0  0  0  0  0
    0.7750   -1.2115    0.0511 C   0  0  0  0  0  0  0  0  0  0  0  0
   -0.6079   -1.3150    0.0638 C   0  0  0  0  0  0  0  0  0  0  0  0
   -1.7286    2.5386   -0.2922 H   0  0  0  0  0  0  0  0  0  0  0  0
    1.1589    2.1886   -0.2670 H   0  0  0  0  0  0  0  0  0  0  0  0
    1.4088   -2.0869    0.1312 H   0  0  0  0  0  0  0  0  0  0  0  0
   -1.1079   -2.2736    0.1544 H   0  0  0  0  0  0  0  0  0  0  0  0
  1  2  1  0  0  0  0
  1 11  2  0  0  0  0
  2  3  1  0  0  0  0
  4  1  1  0  0  0  0
  5  4  2  0  0  0  0
  5  6  1  0  0  0  0
  6 10  2  0  0  0  0
  7  6  1  0  0  0  0
  7  9  2  0  0  0  0
  8  7  2  0  0  0  0
 10 11  1  0  0  0  0
 10 14  1  0  0  0  0
 11 15  1  0  0  0  0
 13  5  1  0  0  0  0
M  RAD  4   2   2   3   3   4   2  12   2
M  END
