Coordinates from ORCA-job 4-NO2PhN2+_B3LYPG-6-31G_dp-d09-49-n800
 OpenBabel11261918563D

 15 15  0  0  0  0  0  0  0  0999 V2000
   -1.3568   -0.0828   -0.0495 C   0  0  0  0  0  0  0  0  0  0  0  0
   -2.7353   -0.1609   -0.0396 N   0  0  0  0  0  0  0  0  0  0  0  0
   -3.8475   -0.2243   -0.0317 N   0  0  0  0  0  0  0  0  0  0  0  0
   -0.7691    1.1915   -0.1692 C   0  0  0  0  0  0  0  0  0  0  0  0
    0.6147    1.2616   -0.1790 C   0  0  0  0  0  0  0  0  0  0  0  0
    1.3423    0.0747   -0.0703 C   0  0  0  0  0  0  0  0  0  0  0  0
    2.8337    0.1605   -0.0826 N   0  0  0  0  0  0  0  0  0  0  0  0
    3.3114    1.2801   -0.1953 O   0  0  0  0  0  0  0  0  0  0  0  0
    3.4381   -0.8974    0.0207 O   0  0  0  0  0  0  0  0  0  0  0  0
    0.7570   -1.1872    0.0488 C   0  0  0  0  0  0  0  0  0  0  0  0
   -0.6265   -1.2846    0.0608 C   0  0  0  0  0  0  0  0  0  0  0  0
   -1.4566    2.1896   -0.2604 H   0  0  0  0  0  0  0  0  0  0  0  0
    1.1390    2.2059   -0.2684 H   0  0  0  0  0  0  0  0  0  0  0  0
    1.3884   -2.0643    0.1293 H   0  0  0  0  0  0  0  0  0  0  0  0
   -1.1294   -2.2413    0.1511 H   0  0  0  0  0  0  0  0  0  0  0  0
  1  2  1  0  0  0  0
  1 11  2  0  0  0  0
  2  3  1  0  0  0  0
  4  1  1  0  0  0  0
  5  4  2  0  0  0  0
  5  6  1  0  0  0  0
  6 10  2  0  0  0  0
  7  6  1  0  0  0  0
  7  9  2  0  0  0  0
  8  7  2  0  0  0  0
 10 11  1  0  0  0  0
 10 14  1  0  0  0  0
 11 15  1  0  0  0  0
 12  4  1  0  0  0  0
 13  5  1  0  0  0  0
M  RAD  2   2   2   3   3
M  END
