Coordinates from ORCA-job 4-NO2PhN2+_B3LYPG-6-31G_dp-d09-49-n800
 OpenBabel11261918563D

 15 14  0  0  0  0  0  0  0  0999 V2000
   -1.2791   -0.2312   -0.0352 C   0  0  0  0  0  0  0  0  0  0  0  0
   -2.6613   -0.2997   -0.0265 N   0  0  0  0  0  0  0  0  0  0  0  0
   -3.7734   -0.3529   -0.0198 N   0  0  0  0  0  0  0  0  0  0  0  0
   -0.6747    1.0156   -0.1522 C   0  0  0  0  0  0  0  0  0  0  0  0
    0.6871    1.1508   -0.1677 C   0  0  0  0  0  0  0  0  0  0  0  0
    1.4199   -0.0406   -0.0592 C   0  0  0  0  0  0  0  0  0  0  0  0
    2.9179    0.0634   -0.0737 N   0  0  0  0  0  0  0  0  0  0  0  0
    3.3856    1.1854   -0.1851 O   0  0  0  0  0  0  0  0  0  0  0  0
    3.5278   -0.9915    0.0255 O   0  0  0  0  0  0  0  0  0  0  0  0
    0.8455   -1.3112    0.0604 C   0  0  0  0  0  0  0  0  0  0  0  0
   -0.5345   -1.4325    0.0748 C   0  0  0  0  0  0  0  0  0  0  0  0
   -2.6329    3.9439   -0.4249 H   0  0  0  0  0  0  0  0  0  0  0  0
    1.2130    2.0977   -0.2569 H   0  0  0  0  0  0  0  0  0  0  0  0
    1.4887   -2.1794    0.1394 H   0  0  0  0  0  0  0  0  0  0  0  0
   -1.0263   -2.3965    0.1657 H   0  0  0  0  0  0  0  0  0  0  0  0
  1  2  1  0  0  0  0
  1 11  2  0  0  0  0
  2  3  1  0  0  0  0
  4  1  1  0  0  0  0
  5  4  2  0  0  0  0
  5  6  1  0  0  0  0
  6 10  2  0  0  0  0
  7  6  1  0  0  0  0
  7  9  2  0  0  0  0
  8  7  2  0  0  0  0
 10 11  1  0  0  0  0
 10 14  1  0  0  0  0
 11 15  1  0  0  0  0
 13  5  1  0  0  0  0
M  RAD  4   2   2   3   3   4   2  12   2
M  END
