Coordinates from ORCA-job 4-NO2PhN2+_B3LYPG-6-31G_dp-d09-49-n800
 OpenBabel11261918563D

 15 14  0  0  0  0  0  0  0  0999 V2000
   -1.2723   -0.3398   -0.0237 C   0  0  0  0  0  0  0  0  0  0  0  0
   -2.6545   -0.4490   -0.0100 N   0  0  0  0  0  0  0  0  0  0  0  0
   -3.7651   -0.5278   -0.0003 N   0  0  0  0  0  0  0  0  0  0  0  0
   -0.7145    0.9267   -0.1423 C   0  0  0  0  0  0  0  0  0  0  0  0
    0.6453    1.0962   -0.1621 C   0  0  0  0  0  0  0  0  0  0  0  0
    1.4142   -0.0717   -0.0575 C   0  0  0  0  0  0  0  0  0  0  0  0
    2.9085    0.0769   -0.0779 N   0  0  0  0  0  0  0  0  0  0  0  0
    3.3438    1.2129   -0.1798 O   0  0  0  0  0  0  0  0  0  0  0  0
    3.5506   -0.9592    0.0204 O   0  0  0  0  0  0  0  0  0  0  0  0
    0.8792   -1.3601    0.0633 C   0  0  0  0  0  0  0  0  0  0  0  0
   -0.4961   -1.5215    0.0829 C   0  0  0  0  0  0  0  0  0  0  0  0
   -2.6699    4.7887   -0.5099 H   0  0  0  0  0  0  0  0  0  0  0  0
    1.1461    2.0569   -0.2521 H   0  0  0  0  0  0  0  0  0  0  0  0
    1.5482   -2.2086    0.1390 H   0  0  0  0  0  0  0  0  0  0  0  0
   -0.9599   -2.4994    0.1748 H   0  0  0  0  0  0  0  0  0  0  0  0
  1  2  1  0  0  0  0
  1 11  2  0  0  0  0
  2  3  1  0  0  0  0
  4  1  1  0  0  0  0
  5  4  2  0  0  0  0
  5  6  1  0  0  0  0
  6 10  2  0  0  0  0
  7  6  1  0  0  0  0
  7  9  2  0  0  0  0
  8  7  2  0  0  0  0
 10 11  1  0  0  0  0
 10 14  1  0  0  0  0
 11 15  1  0  0  0  0
 13  5  1  0  0  0  0
M  RAD  4   2   2   3   3   4   2  12   2
M  END
