Coordinates from ORCA-job 4-NO2PhN2+_B3LYPG-6-31G_dp-d09-49-n800
 OpenBabel11261918563D

 15 14  0  0  0  0  0  0  0  0999 V2000
   -1.3232   -0.1475   -0.0433 C   0  0  0  0  0  0  0  0  0  0  0  0
   -2.7008   -0.2031   -0.0358 N   0  0  0  0  0  0  0  0  0  0  0  0
   -3.8131   -0.2505   -0.0296 N   0  0  0  0  0  0  0  0  0  0  0  0
   -0.7016    1.0958   -0.1602 C   0  0  0  0  0  0  0  0  0  0  0  0
    0.6626    1.2181   -0.1746 C   0  0  0  0  0  0  0  0  0  0  0  0
    1.3844    0.0215   -0.0651 C   0  0  0  0  0  0  0  0  0  0  0  0
    2.8801    0.1086   -0.0781 N   0  0  0  0  0  0  0  0  0  0  0  0
    3.3574    1.2273   -0.1895 O   0  0  0  0  0  0  0  0  0  0  0  0
    3.4811   -0.9509    0.0238 O   0  0  0  0  0  0  0  0  0  0  0  0
    0.7975   -1.2421    0.0540 C   0  0  0  0  0  0  0  0  0  0  0  0
   -0.5849   -1.3498    0.0671 C   0  0  0  0  0  0  0  0  0  0  0  0
   -2.0714    2.9564   -0.3314 H   0  0  0  0  0  0  0  0  0  0  0  0
    1.1867    2.1636   -0.2642 H   0  0  0  0  0  0  0  0  0  0  0  0
    1.4326   -2.1164    0.1339 H   0  0  0  0  0  0  0  0  0  0  0  0
   -1.0839   -2.3096    0.1577 H   0  0  0  0  0  0  0  0  0  0  0  0
  1  2  1  0  0  0  0
  1 11  2  0  0  0  0
  2  3  1  0  0  0  0
  4  1  1  0  0  0  0
  5  4  2  0  0  0  0
  5  6  1  0  0  0  0
  6 10  2  0  0  0  0
  7  6  1  0  0  0  0
  7  9  2  0  0  0  0
  8  7  2  0  0  0  0
 10 11  1  0  0  0  0
 10 14  1  0  0  0  0
 11 15  1  0  0  0  0
 13  5  1  0  0  0  0
M  RAD  4   2   2   3   3   4   2  12   2
M  END
