Coordinates from ORCA-job 4-NO2PhN2+_B3LYPG-6-31G_dp-d09-49-n800
 OpenBabel11261918563D

 15 14  0  0  0  0  0  0  0  0999 V2000
   -1.3379   -0.1246   -0.0455 C   0  0  0  0  0  0  0  0  0  0  0  0
   -2.7149   -0.1867   -0.0375 N   0  0  0  0  0  0  0  0  0  0  0  0
   -3.8272   -0.2392   -0.0309 N   0  0  0  0  0  0  0  0  0  0  0  0
   -0.7252    1.1274   -0.1633 C   0  0  0  0  0  0  0  0  0  0  0  0
    0.6447    1.2361   -0.1765 C   0  0  0  0  0  0  0  0  0  0  0  0
    1.3680    0.0425   -0.0671 C   0  0  0  0  0  0  0  0  0  0  0  0
    2.8618    0.1284   -0.0799 N   0  0  0  0  0  0  0  0  0  0  0  0
    3.3394    1.2475   -0.1919 O   0  0  0  0  0  0  0  0  0  0  0  0
    3.4642   -0.9304    0.0226 O   0  0  0  0  0  0  0  0  0  0  0  0
    0.7818   -1.2207    0.0521 C   0  0  0  0  0  0  0  0  0  0  0  0
   -0.6009   -1.3260    0.0649 C   0  0  0  0  0  0  0  0  0  0  0  0
   -1.8334    2.6659   -0.3038 H   0  0  0  0  0  0  0  0  0  0  0  0
    1.1671    2.1816   -0.2662 H   0  0  0  0  0  0  0  0  0  0  0  0
    1.4162   -2.0956    0.1322 H   0  0  0  0  0  0  0  0  0  0  0  0
   -1.1003   -2.2850    0.1555 H   0  0  0  0  0  0  0  0  0  0  0  0
  1  2  1  0  0  0  0
  1 11  2  0  0  0  0
  2  3  1  0  0  0  0
  4  1  1  0  0  0  0
  5  4  2  0  0  0  0
  5  6  1  0  0  0  0
  6 10  2  0  0  0  0
  7  6  1  0  0  0  0
  7  9  2  0  0  0  0
  8  7  2  0  0  0  0
 10 11  1  0  0  0  0
 10 14  1  0  0  0  0
 11 15  1  0  0  0  0
 13  5  1  0  0  0  0
M  RAD  4   2   2   3   3   4   2  12   2
M  END
