Coordinates from ORCA-job 4-NO2PhN2+_B3LYPG-6-31G_dp-d09-49-n800
 OpenBabel11261918563D

 15 15  0  0  0  0  0  0  0  0999 V2000
   -1.3519   -0.0951   -0.0482 C   0  0  0  0  0  0  0  0  0  0  0  0
   -2.7296   -0.1690   -0.0389 N   0  0  0  0  0  0  0  0  0  0  0  0
   -3.8419   -0.2298   -0.0313 N   0  0  0  0  0  0  0  0  0  0  0  0
   -0.7570    1.1730   -0.1674 C   0  0  0  0  0  0  0  0  0  0  0  0
    0.6231    1.2545   -0.1784 C   0  0  0  0  0  0  0  0  0  0  0  0
    1.3493    0.0657   -0.0696 C   0  0  0  0  0  0  0  0  0  0  0  0
    2.8412    0.1513   -0.0822 N   0  0  0  0  0  0  0  0  0  0  0  0
    3.3190    1.2709   -0.1941 O   0  0  0  0  0  0  0  0  0  0  0  0
    3.4452   -0.9067    0.0217 O   0  0  0  0  0  0  0  0  0  0  0  0
    0.7639   -1.1967    0.0496 C   0  0  0  0  0  0  0  0  0  0  0  0
   -0.6192   -1.2965    0.0620 C   0  0  0  0  0  0  0  0  0  0  0  0
   -1.5606    2.3275   -0.2729 H   0  0  0  0  0  0  0  0  0  0  0  0
    1.1465    2.1991   -0.2679 H   0  0  0  0  0  0  0  0  0  0  0  0
    1.3964   -2.0731    0.1299 H   0  0  0  0  0  0  0  0  0  0  0  0
   -1.1209   -2.2540    0.1524 H   0  0  0  0  0  0  0  0  0  0  0  0
  1  2  1  0  0  0  0
  1 11  2  0  0  0  0
  2  3  1  0  0  0  0
  4  1  1  0  0  0  0
  5  4  2  0  0  0  0
  5  6  1  0  0  0  0
  6 10  2  0  0  0  0
  7  6  1  0  0  0  0
  7  9  2  0  0  0  0
  8  7  2  0  0  0  0
 10 11  1  0  0  0  0
 10 14  1  0  0  0  0
 11 15  1  0  0  0  0
 12  4  1  0  0  0  0
 13  5  1  0  0  0  0
M  RAD  2   2   2   3   3
M  END
