Coordinates from ORCA-job 4-NO2PhN2+_B3LYPG-6-31G_dp-d09-49-n800
 OpenBabel11261918563D

 15 14  0  0  0  0  0  0  0  0999 V2000
   -1.3071   -0.1687   -0.0415 C   0  0  0  0  0  0  0  0  0  0  0  0
   -2.6863   -0.2227   -0.0341 N   0  0  0  0  0  0  0  0  0  0  0  0
   -3.7986   -0.2677   -0.0277 N   0  0  0  0  0  0  0  0  0  0  0  0
   -0.6838    1.0710   -0.1581 C   0  0  0  0  0  0  0  0  0  0  0  0
    0.6778    1.1987   -0.1730 C   0  0  0  0  0  0  0  0  0  0  0  0
    1.3995    0.0008   -0.0633 C   0  0  0  0  0  0  0  0  0  0  0  0
    2.8967    0.0897   -0.0763 N   0  0  0  0  0  0  0  0  0  0  0  0
    3.3736    1.2081   -0.1877 O   0  0  0  0  0  0  0  0  0  0  0  0
    3.4972   -0.9700    0.0259 O   0  0  0  0  0  0  0  0  0  0  0  0
    0.8128   -1.2634    0.0559 C   0  0  0  0  0  0  0  0  0  0  0  0
   -0.5692   -1.3726    0.0691 C   0  0  0  0  0  0  0  0  0  0  0  0
   -2.2942    3.2443   -0.3577 H   0  0  0  0  0  0  0  0  0  0  0  0
    1.2051    2.1435   -0.2624 H   0  0  0  0  0  0  0  0  0  0  0  0
    1.4482   -2.1373    0.1358 H   0  0  0  0  0  0  0  0  0  0  0  0
   -1.0682   -2.3326    0.1597 H   0  0  0  0  0  0  0  0  0  0  0  0
  1  2  1  0  0  0  0
  1 11  2  0  0  0  0
  2  3  1  0  0  0  0
  4  1  1  0  0  0  0
  5  4  2  0  0  0  0
  5  6  1  0  0  0  0
  6 10  2  0  0  0  0
  7  6  1  0  0  0  0
  7  9  2  0  0  0  0
  8  7  2  0  0  0  0
 10 11  1  0  0  0  0
 10 14  1  0  0  0  0
 11 15  1  0  0  0  0
 13  5  1  0  0  0  0
M  RAD  4   2   2   3   3   4   2  12   2
M  END
