Coordinates from ORCA-job 4-NO2PhN2+_B3LYPG-6-31G_dp-d09-49-n800
 OpenBabel11261918563D

 15 14  0  0  0  0  0  0  0  0999 V2000
   -1.2827   -0.4357   -0.0114 C   0  0  0  0  0  0  0  0  0  0  0  0
   -2.6614   -0.5894    0.0066 N   0  0  0  0  0  0  0  0  0  0  0  0
   -3.7691   -0.7017    0.0199 N   0  0  0  0  0  0  0  0  0  0  0  0
   -0.7705    0.8507   -0.1275 C   0  0  0  0  0  0  0  0  0  0  0  0
    0.5845    1.0619   -0.1514 C   0  0  0  0  0  0  0  0  0  0  0  0
    1.3917   -0.0803   -0.0545 C   0  0  0  0  0  0  0  0  0  0  0  0
    2.8802    0.1169   -0.0802 N   0  0  0  0  0  0  0  0  0  0  0  0
    3.2784    1.2668   -0.1807 O   0  0  0  0  0  0  0  0  0  0  0  0
    3.5566   -0.8987    0.0021 O   0  0  0  0  0  0  0  0  0  0  0  0
    0.8999   -1.3863    0.0635 C   0  0  0  0  0  0  0  0  0  0  0  0
   -0.4691   -1.5925    0.0879 C   0  0  0  0  0  0  0  0  0  0  0  0
   -2.4868    5.3694   -0.5815 H   0  0  0  0  0  0  0  0  0  0  0  0
    1.0552    2.0379   -0.2394 H   0  0  0  0  0  0  0  0  0  0  0  0
    1.5966   -2.2126    0.1333 H   0  0  0  0  0  0  0  0  0  0  0  0
   -0.9002   -2.5853    0.1779 H   0  0  0  0  0  0  0  0  0  0  0  0
  1  2  1  0  0  0  0
  1 11  2  0  0  0  0
  2  3  1  0  0  0  0
  4  1  1  0  0  0  0
  5  4  2  0  0  0  0
  5  6  1  0  0  0  0
  6 10  2  0  0  0  0
  7  6  1  0  0  0  0
  7  9  2  0  0  0  0
  8  7  2  0  0  0  0
 10 11  1  0  0  0  0
 10 14  1  0  0  0  0
 11 15  1  0  0  0  0
 13  5  1  0  0  0  0
M  RAD  4   2   2   3   3   4   2  12   2
M  END
