Coordinates from ORCA-job 4-NO2PhN2+_B3LYPG-6-31G_dp-d09-49-n800
 OpenBabel11261918563D

 15 14  0  0  0  0  0  0  0  0999 V2000
   -1.2724   -0.3300   -0.0244 C   0  0  0  0  0  0  0  0  0  0  0  0
   -2.6548   -0.4354   -0.0120 N   0  0  0  0  0  0  0  0  0  0  0  0
   -3.7655   -0.5123   -0.0047 N   0  0  0  0  0  0  0  0  0  0  0  0
   -0.7102    0.9356   -0.1426 C   0  0  0  0  0  0  0  0  0  0  0  0
    0.6504    1.1011   -0.1615 C   0  0  0  0  0  0  0  0  0  0  0  0
    1.4155   -0.0695   -0.0563 C   0  0  0  0  0  0  0  0  0  0  0  0
    2.9103    0.0745   -0.0755 N   0  0  0  0  0  0  0  0  0  0  0  0
    3.3490    1.2086   -0.1834 O   0  0  0  0  0  0  0  0  0  0  0  0
    3.5490   -0.9642    0.0178 O   0  0  0  0  0  0  0  0  0  0  0  0
    0.8764   -1.3561    0.0641 C   0  0  0  0  0  0  0  0  0  0  0  0
   -0.4992   -1.5137    0.0826 C   0  0  0  0  0  0  0  0  0  0  0  0
   -2.6765    4.7192   -0.5028 H   0  0  0  0  0  0  0  0  0  0  0  0
    1.1542    2.0602   -0.2511 H   0  0  0  0  0  0  0  0  0  0  0  0
    1.5429   -2.2066    0.1403 H   0  0  0  0  0  0  0  0  0  0  0  0
   -0.9656   -2.4903    0.1742 H   0  0  0  0  0  0  0  0  0  0  0  0
  1  2  1  0  0  0  0
  1 11  2  0  0  0  0
  2  3  1  0  0  0  0
  4  1  1  0  0  0  0
  5  4  2  0  0  0  0
  5  6  1  0  0  0  0
  6 10  2  0  0  0  0
  7  6  1  0  0  0  0
  7  9  2  0  0  0  0
  8  7  2  0  0  0  0
 10 11  1  0  0  0  0
 10 14  1  0  0  0  0
 11 15  1  0  0  0  0
 13  5  1  0  0  0  0
M  RAD  4   2   2   3   3   4   2  12   2
M  END
