Coordinates from ORCA-job 4-NO2PhN2+_B3LYPG-6-31G_dp-d09-49-n800
 OpenBabel11261918563D

 15 14  0  0  0  0  0  0  0  0999 V2000
   -1.2821   -0.4316   -0.0119 C   0  0  0  0  0  0  0  0  0  0  0  0
   -2.6610   -0.5834    0.0057 N   0  0  0  0  0  0  0  0  0  0  0  0
   -3.7689   -0.6942    0.0189 N   0  0  0  0  0  0  0  0  0  0  0  0
   -0.7679    0.8540   -0.1283 C   0  0  0  0  0  0  0  0  0  0  0  0
    0.5874    1.0632   -0.1519 C   0  0  0  0  0  0  0  0  0  0  0  0
    1.3928   -0.0801   -0.0545 C   0  0  0  0  0  0  0  0  0  0  0  0
    2.8817    0.1149   -0.0800 N   0  0  0  0  0  0  0  0  0  0  0  0
    3.2816    1.2641   -0.1808 O   0  0  0  0  0  0  0  0  0  0  0  0
    3.5566   -0.9016    0.0028 O   0  0  0  0  0  0  0  0  0  0  0  0
    0.8991   -1.3853    0.0637 C   0  0  0  0  0  0  0  0  0  0  0  0
   -0.4702   -1.5896    0.0877 C   0  0  0  0  0  0  0  0  0  0  0  0
   -2.4968    5.3467   -0.5783 H   0  0  0  0  0  0  0  0  0  0  0  0
    1.0595    2.0385   -0.2400 H   0  0  0  0  0  0  0  0  0  0  0  0
    1.5946   -2.2127    0.1338 H   0  0  0  0  0  0  0  0  0  0  0  0
   -0.9028   -2.5818    0.1779 H   0  0  0  0  0  0  0  0  0  0  0  0
  1  2  1  0  0  0  0
  1 11  2  0  0  0  0
  2  3  1  0  0  0  0
  4  1  1  0  0  0  0
  5  4  2  0  0  0  0
  5  6  1  0  0  0  0
  6 10  2  0  0  0  0
  7  6  1  0  0  0  0
  7  9  2  0  0  0  0
  8  7  2  0  0  0  0
 10 11  1  0  0  0  0
 10 14  1  0  0  0  0
 11 15  1  0  0  0  0
 13  5  1  0  0  0  0
M  RAD  4   2   2   3   3   4   2  12   2
M  END
