Coordinates from ORCA-job 4-NO2PhN2+_B3LYPG-6-31G_dp-d09-49-n800
 OpenBabel11261918563D

 15 14  0  0  0  0  0  0  0  0999 V2000
   -1.2774   -0.2385   -0.0344 C   0  0  0  0  0  0  0  0  0  0  0  0
   -2.6598   -0.3095   -0.0254 N   0  0  0  0  0  0  0  0  0  0  0  0
   -3.7718   -0.3640   -0.0184 N   0  0  0  0  0  0  0  0  0  0  0  0
   -0.6762    1.0096   -0.1516 C   0  0  0  0  0  0  0  0  0  0  0  0
    0.6857    1.1461   -0.1675 C   0  0  0  0  0  0  0  0  0  0  0  0
    1.4206   -0.0439   -0.0591 C   0  0  0  0  0  0  0  0  0  0  0  0
    2.9184    0.0627   -0.0740 N   0  0  0  0  0  0  0  0  0  0  0  0
    3.3844    1.1855   -0.1843 O   0  0  0  0  0  0  0  0  0  0  0  0
    3.5302   -0.9912    0.0258 O   0  0  0  0  0  0  0  0  0  0  0  0
    0.8484   -1.3156    0.0606 C   0  0  0  0  0  0  0  0  0  0  0  0
   -0.5313   -1.4389    0.0754 C   0  0  0  0  0  0  0  0  0  0  0  0
   -2.6497    4.0115   -0.4313 H   0  0  0  0  0  0  0  0  0  0  0  0
    1.2105    2.0936   -0.2567 H   0  0  0  0  0  0  0  0  0  0  0  0
    1.4931   -2.1827    0.1395 H   0  0  0  0  0  0  0  0  0  0  0  0
   -1.0217   -2.4037    0.1664 H   0  0  0  0  0  0  0  0  0  0  0  0
  1  2  1  0  0  0  0
  1 11  2  0  0  0  0
  2  3  1  0  0  0  0
  4  1  1  0  0  0  0
  5  4  2  0  0  0  0
  5  6  1  0  0  0  0
  6 10  2  0  0  0  0
  7  6  1  0  0  0  0
  7  9  2  0  0  0  0
  8  7  2  0  0  0  0
 10 11  1  0  0  0  0
 10 14  1  0  0  0  0
 11 15  1  0  0  0  0
 13  5  1  0  0  0  0
M  RAD  4   2   2   3   3   4   2  12   2
M  END
