Coordinates from ORCA-job 4-NO2PhN2+_B3LYPG-6-31G_dp-d09-49-n800
 OpenBabel11261918563D

 15 14  0  0  0  0  0  0  0  0999 V2000
   -1.3440   -0.1129   -0.0466 C   0  0  0  0  0  0  0  0  0  0  0  0
   -2.7210   -0.1798   -0.0391 N   0  0  0  0  0  0  0  0  0  0  0  0
   -3.8333   -0.2356   -0.0329 N   0  0  0  0  0  0  0  0  0  0  0  0
   -0.7381    1.1453   -0.1645 C   0  0  0  0  0  0  0  0  0  0  0  0
    0.6358    1.2440   -0.1760 C   0  0  0  0  0  0  0  0  0  0  0  0
    1.3602    0.0523   -0.0664 C   0  0  0  0  0  0  0  0  0  0  0  0
    2.8532    0.1381   -0.0780 N   0  0  0  0  0  0  0  0  0  0  0  0
    3.3308    1.2567   -0.1966 O   0  0  0  0  0  0  0  0  0  0  0  0
    3.4562   -0.9210    0.0182 O   0  0  0  0  0  0  0  0  0  0  0  0
    0.7744   -1.2107    0.0523 C   0  0  0  0  0  0  0  0  0  0  0  0
   -0.6084   -1.3141    0.0641 C   0  0  0  0  0  0  0  0  0  0  0  0
   -1.7202    2.5283   -0.2915 H   0  0  0  0  0  0  0  0  0  0  0  0
    1.1582    2.1893   -0.2652 H   0  0  0  0  0  0  0  0  0  0  0  0
    1.4082   -2.0860    0.1329 H   0  0  0  0  0  0  0  0  0  0  0  0
   -1.1085   -2.2727    0.1542 H   0  0  0  0  0  0  0  0  0  0  0  0
  1  2  1  0  0  0  0
  1 11  2  0  0  0  0
  2  3  1  0  0  0  0
  4  1  1  0  0  0  0
  5  4  2  0  0  0  0
  5  6  1  0  0  0  0
  6 10  2  0  0  0  0
  7  6  1  0  0  0  0
  7  9  2  0  0  0  0
  8  7  2  0  0  0  0
 10 11  1  0  0  0  0
 10 14  1  0  0  0  0
 11 15  1  0  0  0  0
 13  5  1  0  0  0  0
M  RAD  4   2   2   3   3   4   2  12   2
M  END
