Coordinates from ORCA-job 4-NO2PhN2+_B3LYPG-6-31G_dp-d09-49-n800
 OpenBabel11261918563D

 15 14  0  0  0  0  0  0  0  0999 V2000
   -1.2965   -0.1852   -0.0395 C   0  0  0  0  0  0  0  0  0  0  0  0
   -2.6768   -0.2414   -0.0323 N   0  0  0  0  0  0  0  0  0  0  0  0
   -3.7891   -0.2878   -0.0265 N   0  0  0  0  0  0  0  0  0  0  0  0
   -0.6760    1.0549   -0.1557 C   0  0  0  0  0  0  0  0  0  0  0  0
    0.6852    1.1842   -0.1706 C   0  0  0  0  0  0  0  0  0  0  0  0
    1.4083   -0.0132   -0.0612 C   0  0  0  0  0  0  0  0  0  0  0  0
    2.9062    0.0783   -0.0743 N   0  0  0  0  0  0  0  0  0  0  0  0
    3.3819    1.1968   -0.1880 O   0  0  0  0  0  0  0  0  0  0  0  0
    3.5078   -0.9812    0.0244 O   0  0  0  0  0  0  0  0  0  0  0  0
    0.8233   -1.2785    0.0576 C   0  0  0  0  0  0  0  0  0  0  0  0
   -0.5582   -1.3895    0.0709 C   0  0  0  0  0  0  0  0  0  0  0  0
   -2.4302    3.4568   -0.3792 H   0  0  0  0  0  0  0  0  0  0  0  0
    1.2139    2.1288   -0.2596 H   0  0  0  0  0  0  0  0  0  0  0  0
    1.4599   -2.1516    0.1373 H   0  0  0  0  0  0  0  0  0  0  0  0
   -1.0564   -2.3502    0.1612 H   0  0  0  0  0  0  0  0  0  0  0  0
  1  2  1  0  0  0  0
  1 11  2  0  0  0  0
  2  3  1  0  0  0  0
  4  1  1  0  0  0  0
  5  4  2  0  0  0  0
  5  6  1  0  0  0  0
  6 10  2  0  0  0  0
  7  6  1  0  0  0  0
  7  9  2  0  0  0  0
  8  7  2  0  0  0  0
 10 11  1  0  0  0  0
 10 14  1  0  0  0  0
 11 15  1  0  0  0  0
 13  5  1  0  0  0  0
M  RAD  4   2   2   3   3   4   2  12   2
M  END
