Coordinates from ORCA-job 4-NO2PhN2+_B3LYPG-6-31G_dp-d09-49-n800
 OpenBabel11261918563D

 15 15  0  0  0  0  0  0  0  0999 V2000
   -1.3510   -0.0973   -0.0480 C   0  0  0  0  0  0  0  0  0  0  0  0
   -2.7286   -0.1704   -0.0389 N   0  0  0  0  0  0  0  0  0  0  0  0
   -3.8409   -0.2306   -0.0315 N   0  0  0  0  0  0  0  0  0  0  0  0
   -0.7547    1.1696   -0.1671 C   0  0  0  0  0  0  0  0  0  0  0  0
    0.6246    1.2533   -0.1781 C   0  0  0  0  0  0  0  0  0  0  0  0
    1.3505    0.0641   -0.0692 C   0  0  0  0  0  0  0  0  0  0  0  0
    2.8426    0.1497   -0.0817 N   0  0  0  0  0  0  0  0  0  0  0  0
    3.3204    1.2691   -0.1944 O   0  0  0  0  0  0  0  0  0  0  0  0
    3.4464   -0.9084    0.0213 O   0  0  0  0  0  0  0  0  0  0  0  0
    0.7652   -1.1984    0.0500 C   0  0  0  0  0  0  0  0  0  0  0  0
   -0.6179   -1.2987    0.0622 C   0  0  0  0  0  0  0  0  0  0  0  0
   -1.5796    2.3519   -0.2752 H   0  0  0  0  0  0  0  0  0  0  0  0
    1.1479    2.1979   -0.2676 H   0  0  0  0  0  0  0  0  0  0  0  0
    1.3978   -2.0746    0.1303 H   0  0  0  0  0  0  0  0  0  0  0  0
   -1.1194   -2.2563    0.1526 H   0  0  0  0  0  0  0  0  0  0  0  0
  1  2  1  0  0  0  0
  1 11  2  0  0  0  0
  2  3  1  0  0  0  0
  4  1  1  0  0  0  0
  5  4  2  0  0  0  0
  5  6  1  0  0  0  0
  6 10  2  0  0  0  0
  7  6  1  0  0  0  0
  7  9  2  0  0  0  0
  8  7  2  0  0  0  0
 10 11  1  0  0  0  0
 10 14  1  0  0  0  0
 11 15  1  0  0  0  0
 12  4  1  0  0  0  0
 13  5  1  0  0  0  0
M  RAD  2   2   2   3   3
M  END
