Coordinates from ORCA-job 4-NO2PhN2+_B3LYPG-6-31G_dp-d09-49-n800
 OpenBabel11261918563D

 15 15  0  0  0  0  0  0  0  0999 V2000
   -1.3594   -0.0763   -0.0501 C   0  0  0  0  0  0  0  0  0  0  0  0
   -2.7384   -0.1560   -0.0400 N   0  0  0  0  0  0  0  0  0  0  0  0
   -3.8507   -0.2202   -0.0319 N   0  0  0  0  0  0  0  0  0  0  0  0
   -0.7751    1.2009   -0.1701 C   0  0  0  0  0  0  0  0  0  0  0  0
    0.6103    1.2656   -0.1794 C   0  0  0  0  0  0  0  0  0  0  0  0
    1.3386    0.0796   -0.0707 C   0  0  0  0  0  0  0  0  0  0  0  0
    2.8299    0.1655   -0.0831 N   0  0  0  0  0  0  0  0  0  0  0  0
    3.3075    1.2852   -0.1954 O   0  0  0  0  0  0  0  0  0  0  0  0
    3.4344   -0.8923    0.0200 O   0  0  0  0  0  0  0  0  0  0  0  0
    0.7534   -1.1820    0.0483 C   0  0  0  0  0  0  0  0  0  0  0  0
   -0.6304   -1.2783    0.0602 C   0  0  0  0  0  0  0  0  0  0  0  0
   -1.4015    2.1138   -0.2537 H   0  0  0  0  0  0  0  0  0  0  0  0
    1.1348    2.2099   -0.2688 H   0  0  0  0  0  0  0  0  0  0  0  0
    1.3842   -2.0596    0.1288 H   0  0  0  0  0  0  0  0  0  0  0  0
   -1.1340   -2.2345    0.1505 H   0  0  0  0  0  0  0  0  0  0  0  0
  1  2  1  0  0  0  0
  1 11  2  0  0  0  0
  2  3  1  0  0  0  0
  4  1  1  0  0  0  0
  5  4  2  0  0  0  0
  5  6  1  0  0  0  0
  6 10  2  0  0  0  0
  7  6  1  0  0  0  0
  7  9  2  0  0  0  0
  8  7  2  0  0  0  0
 10 11  1  0  0  0  0
 10 14  1  0  0  0  0
 11 15  1  0  0  0  0
 12  4  1  0  0  0  0
 13  5  1  0  0  0  0
M  RAD  2   2   2   3   3
M  END
