Coordinates from ORCA-job 4-NO2PhN2+_B3LYPG-6-31G_dp-d09-49-n800
 OpenBabel11261918563D

 15 14  0  0  0  0  0  0  0  0999 V2000
   -1.3116   -0.1630   -0.0417 C   0  0  0  0  0  0  0  0  0  0  0  0
   -2.6902   -0.2171   -0.0340 N   0  0  0  0  0  0  0  0  0  0  0  0
   -3.8026   -0.2628   -0.0276 N   0  0  0  0  0  0  0  0  0  0  0  0
   -0.6882    1.0773   -0.1585 C   0  0  0  0  0  0  0  0  0  0  0  0
    0.6739    1.2040   -0.1738 C   0  0  0  0  0  0  0  0  0  0  0  0
    1.3955    0.0063   -0.0645 C   0  0  0  0  0  0  0  0  0  0  0  0
    2.8923    0.0946   -0.0780 N   0  0  0  0  0  0  0  0  0  0  0  0
    3.3694    1.2133   -0.1866 O   0  0  0  0  0  0  0  0  0  0  0  0
    3.4930   -0.9648    0.0267 O   0  0  0  0  0  0  0  0  0  0  0  0
    0.8087   -1.2577    0.0549 C   0  0  0  0  0  0  0  0  0  0  0  0
   -0.5734   -1.3665    0.0685 C   0  0  0  0  0  0  0  0  0  0  0  0
   -2.2351    3.1670   -0.3509 H   0  0  0  0  0  0  0  0  0  0  0  0
    1.2002    2.1490   -0.2634 H   0  0  0  0  0  0  0  0  0  0  0  0
    1.4440   -2.1318    0.1345 H   0  0  0  0  0  0  0  0  0  0  0  0
   -1.0724   -2.3265    0.1593 H   0  0  0  0  0  0  0  0  0  0  0  0
  1  2  1  0  0  0  0
  1 11  2  0  0  0  0
  2  3  1  0  0  0  0
  4  1  1  0  0  0  0
  5  4  2  0  0  0  0
  5  6  1  0  0  0  0
  6 10  2  0  0  0  0
  7  6  1  0  0  0  0
  7  9  2  0  0  0  0
  8  7  2  0  0  0  0
 10 11  1  0  0  0  0
 10 14  1  0  0  0  0
 11 15  1  0  0  0  0
 13  5  1  0  0  0  0
M  RAD  4   2   2   3   3   4   2  12   2
M  END
