Coordinates from ORCA-job 4-NO2PhN2+_B3LYPG-6-31G_dp-d09-49-n800
 OpenBabel11261918563D

 15 14  0  0  0  0  0  0  0  0999 V2000
   -1.2716   -0.3181   -0.0261 C   0  0  0  0  0  0  0  0  0  0  0  0
   -2.6540   -0.4184   -0.0143 N   0  0  0  0  0  0  0  0  0  0  0  0
   -3.7651   -0.4913   -0.0053 N   0  0  0  0  0  0  0  0  0  0  0  0
   -0.7043    0.9454   -0.1439 C   0  0  0  0  0  0  0  0  0  0  0  0
    0.6569    1.1058   -0.1621 C   0  0  0  0  0  0  0  0  0  0  0  0
    1.4175   -0.0676   -0.0564 C   0  0  0  0  0  0  0  0  0  0  0  0
    2.9128    0.0708   -0.0748 N   0  0  0  0  0  0  0  0  0  0  0  0
    3.3555    1.2032   -0.1833 O   0  0  0  0  0  0  0  0  0  0  0  0
    3.5474   -0.9702    0.0191 O   0  0  0  0  0  0  0  0  0  0  0  0
    0.8736   -1.3522    0.0637 C   0  0  0  0  0  0  0  0  0  0  0  0
   -0.5027   -1.5045    0.0814 C   0  0  0  0  0  0  0  0  0  0  0  0
   -2.6906    4.6397   -0.4951 H   0  0  0  0  0  0  0  0  0  0  0  0
    1.1643    2.0630   -0.2514 H   0  0  0  0  0  0  0  0  0  0  0  0
    1.5368   -2.2052    0.1403 H   0  0  0  0  0  0  0  0  0  0  0  0
   -0.9729   -2.4793    0.1728 H   0  0  0  0  0  0  0  0  0  0  0  0
  1  2  1  0  0  0  0
  1 11  2  0  0  0  0
  2  3  1  0  0  0  0
  4  1  1  0  0  0  0
  5  4  2  0  0  0  0
  5  6  1  0  0  0  0
  6 10  2  0  0  0  0
  7  6  1  0  0  0  0
  7  9  2  0  0  0  0
  8  7  2  0  0  0  0
 10 11  1  0  0  0  0
 10 14  1  0  0  0  0
 11 15  1  0  0  0  0
 13  5  1  0  0  0  0
M  RAD  4   2   2   3   3   4   2  12   2
M  END
