Coordinates from ORCA-job 4-NO2PhN2+_B3LYPG-6-31G_dp-d09-49-n800
 OpenBabel11261918563D

 15 15  0  0  0  0  0  0  0  0999 V2000
   -1.3640   -0.0656   -0.0511 C   0  0  0  0  0  0  0  0  0  0  0  0
   -2.7439   -0.1462   -0.0410 N   0  0  0  0  0  0  0  0  0  0  0  0
   -3.8562   -0.2103   -0.0329 N   0  0  0  0  0  0  0  0  0  0  0  0
   -0.7844    1.2149   -0.1714 C   0  0  0  0  0  0  0  0  0  0  0  0
    0.6028    1.2727   -0.1797 C   0  0  0  0  0  0  0  0  0  0  0  0
    1.3325    0.0881   -0.0711 C   0  0  0  0  0  0  0  0  0  0  0  0
    2.8234    0.1743   -0.0835 N   0  0  0  0  0  0  0  0  0  0  0  0
    3.3007    1.2941   -0.1961 O   0  0  0  0  0  0  0  0  0  0  0  0
    3.4281   -0.8835    0.0180 O   0  0  0  0  0  0  0  0  0  0  0  0
    0.7471   -1.1730    0.0477 C   0  0  0  0  0  0  0  0  0  0  0  0
   -0.6371   -1.2678    0.0594 C   0  0  0  0  0  0  0  0  0  0  0  0
   -1.3078    1.9803   -0.2422 H   0  0  0  0  0  0  0  0  0  0  0  0
    1.1269    2.2176   -0.2693 H   0  0  0  0  0  0  0  0  0  0  0  0
    1.3772   -2.0511    0.1281 H   0  0  0  0  0  0  0  0  0  0  0  0
   -1.1416   -2.2235    0.1496 H   0  0  0  0  0  0  0  0  0  0  0  0
  1  2  1  0  0  0  0
  1 11  2  0  0  0  0
  2  3  1  0  0  0  0
  4  1  1  0  0  0  0
  5  4  2  0  0  0  0
  5  6  1  0  0  0  0
  6 10  2  0  0  0  0
  7  6  1  0  0  0  0
  7  9  2  0  0  0  0
  8  7  2  0  0  0  0
 10 11  1  0  0  0  0
 10 14  1  0  0  0  0
 11 15  1  0  0  0  0
 12  4  1  0  0  0  0
 13  5  1  0  0  0  0
M  RAD  2   2   2   3   3
M  END
