Coordinates from ORCA-job 4-NO2PhN2+_B3LYPG-6-31G_dp-d09-49-n800
 OpenBabel11261918563D

 15 14  0  0  0  0  0  0  0  0999 V2000
   -1.2784   -0.4092   -0.0150 C   0  0  0  0  0  0  0  0  0  0  0  0
   -2.6584   -0.5491    0.0012 N   0  0  0  0  0  0  0  0  0  0  0  0
   -3.7671   -0.6507    0.0132 N   0  0  0  0  0  0  0  0  0  0  0  0
   -0.7524    0.8716   -0.1321 C   0  0  0  0  0  0  0  0  0  0  0  0
    0.6041    1.0703   -0.1545 C   0  0  0  0  0  0  0  0  0  0  0  0
    1.3998   -0.0800   -0.0549 C   0  0  0  0  0  0  0  0  0  0  0  0
    2.8903    0.1025   -0.0787 N   0  0  0  0  0  0  0  0  0  0  0  0
    3.2998    1.2481   -0.1812 O   0  0  0  0  0  0  0  0  0  0  0  0
    3.5564   -0.9196    0.0073 O   0  0  0  0  0  0  0  0  0  0  0  0
    0.8949   -1.3807    0.0642 C   0  0  0  0  0  0  0  0  0  0  0  0
   -0.4761   -1.5736    0.0868 C   0  0  0  0  0  0  0  0  0  0  0  0
   -2.5610    5.2261   -0.5619 H   0  0  0  0  0  0  0  0  0  0  0  0
    1.0851    2.0412   -0.2432 H   0  0  0  0  0  0  0  0  0  0  0  0
    1.5834   -2.2138    0.1361 H   0  0  0  0  0  0  0  0  0  0  0  0
   -0.9170   -2.5621    0.1776 H   0  0  0  0  0  0  0  0  0  0  0  0
  1  2  1  0  0  0  0
  1 11  2  0  0  0  0
  2  3  1  0  0  0  0
  4  1  1  0  0  0  0
  5  4  2  0  0  0  0
  5  6  1  0  0  0  0
  6 10  2  0  0  0  0
  7  6  1  0  0  0  0
  7  9  2  0  0  0  0
  8  7  2  0  0  0  0
 10 11  1  0  0  0  0
 10 14  1  0  0  0  0
 11 15  1  0  0  0  0
 13  5  1  0  0  0  0
M  RAD  4   2   2   3   3   4   2  12   2
M  END
