Coordinates from ORCA-job 4-NO2PhN2+_B3LYPG-6-31G_dp-d09-49-n800
 OpenBabel11261918563D

 15 14  0  0  0  0  0  0  0  0999 V2000
   -1.3002   -0.1783   -0.0402 C   0  0  0  0  0  0  0  0  0  0  0  0
   -2.6801   -0.2335   -0.0327 N   0  0  0  0  0  0  0  0  0  0  0  0
   -3.7924   -0.2795   -0.0265 N   0  0  0  0  0  0  0  0  0  0  0  0
   -0.6781    1.0612   -0.1566 C   0  0  0  0  0  0  0  0  0  0  0  0
    0.6832    1.1897   -0.1718 C   0  0  0  0  0  0  0  0  0  0  0  0
    1.4054   -0.0081   -0.0624 C   0  0  0  0  0  0  0  0  0  0  0  0
    2.9031    0.0820   -0.0757 N   0  0  0  0  0  0  0  0  0  0  0  0
    3.3796    1.2005   -0.1868 O   0  0  0  0  0  0  0  0  0  0  0  0
    3.5039   -0.9776    0.0260 O   0  0  0  0  0  0  0  0  0  0  0  0
    0.8194   -1.2728    0.0566 C   0  0  0  0  0  0  0  0  0  0  0  0
   -0.5623   -1.3827    0.0701 C   0  0  0  0  0  0  0  0  0  0  0  0
   -2.3835    3.3752   -0.3711 H   0  0  0  0  0  0  0  0  0  0  0  0
    1.2115    2.1343   -0.2610 H   0  0  0  0  0  0  0  0  0  0  0  0
    1.4552   -2.1465    0.1363 H   0  0  0  0  0  0  0  0  0  0  0  0
   -1.0612   -2.3429    0.1606 H   0  0  0  0  0  0  0  0  0  0  0  0
  1  2  1  0  0  0  0
  1 11  2  0  0  0  0
  2  3  1  0  0  0  0
  4  1  1  0  0  0  0
  5  4  2  0  0  0  0
  5  6  1  0  0  0  0
  6 10  2  0  0  0  0
  7  6  1  0  0  0  0
  7  9  2  0  0  0  0
  8  7  2  0  0  0  0
 10 11  1  0  0  0  0
 10 14  1  0  0  0  0
 11 15  1  0  0  0  0
 13  5  1  0  0  0  0
M  RAD  4   2   2   3   3   4   2  12   2
M  END
