Coordinates from ORCA-job 4-NO2PhN2+_B3LYPG-6-31G_dp-d09-49-n800
 OpenBabel11261918563D

 15 14  0  0  0  0  0  0  0  0999 V2000
   -1.2715   -0.3165   -0.0262 C   0  0  0  0  0  0  0  0  0  0  0  0
   -2.6541   -0.4162   -0.0144 N   0  0  0  0  0  0  0  0  0  0  0  0
   -3.7651   -0.4887   -0.0056 N   0  0  0  0  0  0  0  0  0  0  0  0
   -0.7035    0.9465   -0.1441 C   0  0  0  0  0  0  0  0  0  0  0  0
    0.6576    1.1064   -0.1623 C   0  0  0  0  0  0  0  0  0  0  0  0
    1.4176   -0.0673   -0.0566 C   0  0  0  0  0  0  0  0  0  0  0  0
    2.9131    0.0705   -0.0751 N   0  0  0  0  0  0  0  0  0  0  0  0
    3.3564    1.2027   -0.1829 O   0  0  0  0  0  0  0  0  0  0  0  0
    3.5474   -0.9707    0.0196 O   0  0  0  0  0  0  0  0  0  0  0  0
    0.8731   -1.3516    0.0635 C   0  0  0  0  0  0  0  0  0  0  0  0
   -0.5033   -1.5032    0.0813 C   0  0  0  0  0  0  0  0  0  0  0  0
   -2.6915    4.6287   -0.4939 H   0  0  0  0  0  0  0  0  0  0  0  0
    1.1653    2.0634   -0.2517 H   0  0  0  0  0  0  0  0  0  0  0  0
    1.5359   -2.2050    0.1402 H   0  0  0  0  0  0  0  0  0  0  0  0
   -0.9739   -2.4778    0.1727 H   0  0  0  0  0  0  0  0  0  0  0  0
  1  2  1  0  0  0  0
  1 11  2  0  0  0  0
  2  3  1  0  0  0  0
  4  1  1  0  0  0  0
  5  4  2  0  0  0  0
  5  6  1  0  0  0  0
  6 10  2  0  0  0  0
  7  6  1  0  0  0  0
  7  9  2  0  0  0  0
  8  7  2  0  0  0  0
 10 11  1  0  0  0  0
 10 14  1  0  0  0  0
 11 15  1  0  0  0  0
 13  5  1  0  0  0  0
M  RAD  4   2   2   3   3   4   2  12   2
M  END
