Coordinates from ORCA-job 4-NO2PhN2+_B3LYPG-6-31G_dp-d09-49-n800
 OpenBabel11261918563D

 15 14  0  0  0  0  0  0  0  0999 V2000
   -1.2727   -0.3457   -0.0231 C   0  0  0  0  0  0  0  0  0  0  0  0
   -2.6547   -0.4577   -0.0104 N   0  0  0  0  0  0  0  0  0  0  0  0
   -3.7652   -0.5390   -0.0008 N   0  0  0  0  0  0  0  0  0  0  0  0
   -0.7178    0.9229   -0.1414 C   0  0  0  0  0  0  0  0  0  0  0  0
    0.6423    1.0940   -0.1608 C   0  0  0  0  0  0  0  0  0  0  0  0
    1.4132   -0.0726   -0.0560 C   0  0  0  0  0  0  0  0  0  0  0  0
    2.9073    0.0787   -0.0760 N   0  0  0  0  0  0  0  0  0  0  0  0
    3.3405    1.2150   -0.1830 O   0  0  0  0  0  0  0  0  0  0  0  0
    3.5512   -0.9568    0.0166 O   0  0  0  0  0  0  0  0  0  0  0  0
    0.8806   -1.3619    0.0646 C   0  0  0  0  0  0  0  0  0  0  0  0
   -0.4943   -1.5259    0.0836 C   0  0  0  0  0  0  0  0  0  0  0  0
   -2.6636    4.8286   -0.5138 H   0  0  0  0  0  0  0  0  0  0  0  0
    1.1418    2.0554   -0.2505 H   0  0  0  0  0  0  0  0  0  0  0  0
    1.5511   -2.2092    0.1404 H   0  0  0  0  0  0  0  0  0  0  0  0
   -0.9561   -2.5047    0.1753 H   0  0  0  0  0  0  0  0  0  0  0  0
  1  2  1  0  0  0  0
  1 11  2  0  0  0  0
  2  3  1  0  0  0  0
  4  1  1  0  0  0  0
  5  4  2  0  0  0  0
  5  6  1  0  0  0  0
  6 10  2  0  0  0  0
  7  6  1  0  0  0  0
  7  9  2  0  0  0  0
  8  7  2  0  0  0  0
 10 11  1  0  0  0  0
 10 14  1  0  0  0  0
 11 15  1  0  0  0  0
 13  5  1  0  0  0  0
M  RAD  4   2   2   3   3   4   2  12   2
M  END
