Coordinates from ORCA-job 4-NO2PhN2+_B3LYPG-6-31G_dp-d09-49-n800
 OpenBabel11261918563D

 15 14  0  0  0  0  0  0  0  0999 V2000
   -1.2736   -0.3616   -0.0215 C   0  0  0  0  0  0  0  0  0  0  0  0
   -2.6552   -0.4804   -0.0079 N   0  0  0  0  0  0  0  0  0  0  0  0
   -3.7653   -0.5667    0.0021 N   0  0  0  0  0  0  0  0  0  0  0  0
   -0.7260    0.9101   -0.1402 C   0  0  0  0  0  0  0  0  0  0  0  0
    0.6335    1.0874   -0.1601 C   0  0  0  0  0  0  0  0  0  0  0  0
    1.4104   -0.0751   -0.0558 C   0  0  0  0  0  0  0  0  0  0  0  0
    2.9037    0.0837   -0.0765 N   0  0  0  0  0  0  0  0  0  0  0  0
    3.3313    1.2223   -0.1829 O   0  0  0  0  0  0  0  0  0  0  0  0
    3.5530   -0.9485    0.0152 O   0  0  0  0  0  0  0  0  0  0  0  0
    0.8845   -1.3672    0.0650 C   0  0  0  0  0  0  0  0  0  0  0  0
   -0.4896   -1.5381    0.0848 C   0  0  0  0  0  0  0  0  0  0  0  0
   -2.6444    4.9342   -0.5243 H   0  0  0  0  0  0  0  0  0  0  0  0
    1.1283    2.0512   -0.2500 H   0  0  0  0  0  0  0  0  0  0  0  0
    1.5593   -2.2111    0.1405 H   0  0  0  0  0  0  0  0  0  0  0  0
   -0.9464   -2.5192    0.1766 H   0  0  0  0  0  0  0  0  0  0  0  0
  1  2  1  0  0  0  0
  1 11  2  0  0  0  0
  2  3  1  0  0  0  0
  4  1  1  0  0  0  0
  5  4  2  0  0  0  0
  5  6  1  0  0  0  0
  6 10  2  0  0  0  0
  7  6  1  0  0  0  0
  7  9  2  0  0  0  0
  8  7  2  0  0  0  0
 10 11  1  0  0  0  0
 10 14  1  0  0  0  0
 11 15  1  0  0  0  0
 13  5  1  0  0  0  0
M  RAD  4   2   2   3   3   4   2  12   2
M  END
