Coordinates from ORCA-job 4-NO2PhN2+_B3LYPG-6-31G_dp-d09-49-n800
 OpenBabel11261918563D

 15 14  0  0  0  0  0  0  0  0999 V2000
   -1.3429   -0.1153   -0.0462 C   0  0  0  0  0  0  0  0  0  0  0  0
   -2.7198   -0.1810   -0.0368 N   0  0  0  0  0  0  0  0  0  0  0  0
   -3.8321   -0.2360   -0.0290 N   0  0  0  0  0  0  0  0  0  0  0  0
   -0.7355    1.1415   -0.1650 C   0  0  0  0  0  0  0  0  0  0  0  0
    0.6376    1.2422   -0.1786 C   0  0  0  0  0  0  0  0  0  0  0  0
    1.3617    0.0500   -0.0699 C   0  0  0  0  0  0  0  0  0  0  0  0
    2.8549    0.1356   -0.0840 N   0  0  0  0  0  0  0  0  0  0  0  0
    3.3325    1.2556   -0.1881 O   0  0  0  0  0  0  0  0  0  0  0  0
    3.4578   -0.9221    0.0267 O   0  0  0  0  0  0  0  0  0  0  0  0
    0.7759   -1.2129    0.0499 C   0  0  0  0  0  0  0  0  0  0  0  0
   -0.6069   -1.3165    0.0637 C   0  0  0  0  0  0  0  0  0  0  0  0
   -1.7426    2.5558   -0.2936 H   0  0  0  0  0  0  0  0  0  0  0  0
    1.1599    2.1875   -0.2687 H   0  0  0  0  0  0  0  0  0  0  0  0
    1.4098   -2.0882    0.1296 H   0  0  0  0  0  0  0  0  0  0  0  0
   -1.1069   -2.2752    0.1546 H   0  0  0  0  0  0  0  0  0  0  0  0
  1  2  1  0  0  0  0
  1 11  2  0  0  0  0
  2  3  1  0  0  0  0
  4  1  1  0  0  0  0
  5  4  2  0  0  0  0
  5  6  1  0  0  0  0
  6 10  2  0  0  0  0
  7  6  1  0  0  0  0
  7  9  2  0  0  0  0
  8  7  2  0  0  0  0
 10 11  1  0  0  0  0
 10 14  1  0  0  0  0
 11 15  1  0  0  0  0
 13  5  1  0  0  0  0
M  RAD  4   2   2   3   3   4   2  12   2
M  END
