Coordinates from ORCA-job 4-NO2PhN2+_B3LYPG-6-31G_dp-d09-49-n800
 OpenBabel11261918563D

 15 14  0  0  0  0  0  0  0  0999 V2000
   -1.3386   -0.1235   -0.0456 C   0  0  0  0  0  0  0  0  0  0  0  0
   -2.7155   -0.1860   -0.0376 N   0  0  0  0  0  0  0  0  0  0  0  0
   -3.8278   -0.2388   -0.0310 N   0  0  0  0  0  0  0  0  0  0  0  0
   -0.7265    1.1291   -0.1634 C   0  0  0  0  0  0  0  0  0  0  0  0
    0.6438    1.2369   -0.1766 C   0  0  0  0  0  0  0  0  0  0  0  0
    1.3672    0.0434   -0.0672 C   0  0  0  0  0  0  0  0  0  0  0  0
    2.8609    0.1293   -0.0800 N   0  0  0  0  0  0  0  0  0  0  0  0
    3.3385    1.2484   -0.1921 O   0  0  0  0  0  0  0  0  0  0  0  0
    3.4634   -0.9294    0.0225 O   0  0  0  0  0  0  0  0  0  0  0  0
    0.7811   -1.2197    0.0521 C   0  0  0  0  0  0  0  0  0  0  0  0
   -0.6016   -1.3248    0.0648 C   0  0  0  0  0  0  0  0  0  0  0  0
   -1.8220    2.6521   -0.3025 H   0  0  0  0  0  0  0  0  0  0  0  0
    1.1662    2.1824   -0.2663 H   0  0  0  0  0  0  0  0  0  0  0  0
    1.4154   -2.0946    0.1322 H   0  0  0  0  0  0  0  0  0  0  0  0
   -1.1011   -2.2838    0.1554 H   0  0  0  0  0  0  0  0  0  0  0  0
  1  2  1  0  0  0  0
  1 11  2  0  0  0  0
  2  3  1  0  0  0  0
  4  1  1  0  0  0  0
  5  4  2  0  0  0  0
  5  6  1  0  0  0  0
  6 10  2  0  0  0  0
  7  6  1  0  0  0  0
  7  9  2  0  0  0  0
  8  7  2  0  0  0  0
 10 11  1  0  0  0  0
 10 14  1  0  0  0  0
 11 15  1  0  0  0  0
 13  5  1  0  0  0  0
M  RAD  4   2   2   3   3   4   2  12   2
M  END
