Coordinates from ORCA-job 4-NO2PhN2+_B3LYPG-6-31G_dp-d09-49-n800
 OpenBabel11261918563D

 15 14  0  0  0  0  0  0  0  0999 V2000
   -1.3271   -0.1418   -0.0438 C   0  0  0  0  0  0  0  0  0  0  0  0
   -2.7045   -0.1987   -0.0364 N   0  0  0  0  0  0  0  0  0  0  0  0
   -3.8168   -0.2471   -0.0302 N   0  0  0  0  0  0  0  0  0  0  0  0
   -0.7072    1.1032   -0.1609 C   0  0  0  0  0  0  0  0  0  0  0  0
    0.6582    1.2229   -0.1750 C   0  0  0  0  0  0  0  0  0  0  0  0
    1.3803    0.0269   -0.0654 C   0  0  0  0  0  0  0  0  0  0  0  0
    2.8755    0.1136   -0.0782 N   0  0  0  0  0  0  0  0  0  0  0  0
    3.3529    1.2324   -0.1905 O   0  0  0  0  0  0  0  0  0  0  0  0
    3.4768   -0.9458    0.0229 O   0  0  0  0  0  0  0  0  0  0  0  0
    0.7935   -1.2366    0.0537 C   0  0  0  0  0  0  0  0  0  0  0  0
   -0.5890   -1.3438    0.0666 C   0  0  0  0  0  0  0  0  0  0  0  0
   -2.0112    2.8819   -0.3244 H   0  0  0  0  0  0  0  0  0  0  0  0
    1.1817    2.1685   -0.2646 H   0  0  0  0  0  0  0  0  0  0  0  0
    1.4284   -2.1110    0.1336 H   0  0  0  0  0  0  0  0  0  0  0  0
   -1.0880   -2.3035    0.1571 H   0  0  0  0  0  0  0  0  0  0  0  0
  1  2  1  0  0  0  0
  1 11  2  0  0  0  0
  2  3  1  0  0  0  0
  4  1  1  0  0  0  0
  5  4  2  0  0  0  0
  5  6  1  0  0  0  0
  6 10  2  0  0  0  0
  7  6  1  0  0  0  0
  7  9  2  0  0  0  0
  8  7  2  0  0  0  0
 10 11  1  0  0  0  0
 10 14  1  0  0  0  0
 11 15  1  0  0  0  0
 13  5  1  0  0  0  0
M  RAD  4   2   2   3   3   4   2  12   2
M  END
