Coordinates from ORCA-job 4-NO2PhN2+_B3LYPG-6-31G_dp-d09-49-n800
 OpenBabel11261918563D

 15 14  0  0  0  0  0  0  0  0999 V2000
   -1.2811   -0.2234   -0.0359 C   0  0  0  0  0  0  0  0  0  0  0  0
   -2.6631   -0.2896   -0.0273 N   0  0  0  0  0  0  0  0  0  0  0  0
   -3.7752   -0.3415   -0.0205 N   0  0  0  0  0  0  0  0  0  0  0  0
   -0.6738    1.0221   -0.1528 C   0  0  0  0  0  0  0  0  0  0  0  0
    0.6879    1.1557   -0.1684 C   0  0  0  0  0  0  0  0  0  0  0  0
    1.4188   -0.0368   -0.0597 C   0  0  0  0  0  0  0  0  0  0  0  0
    2.9168    0.0648   -0.0742 N   0  0  0  0  0  0  0  0  0  0  0  0
    3.3862    1.1861   -0.1847 O   0  0  0  0  0  0  0  0  0  0  0  0
    3.5250   -0.9910    0.0262 O   0  0  0  0  0  0  0  0  0  0  0  0
    0.8423   -1.3065    0.0597 C   0  0  0  0  0  0  0  0  0  0  0  0
   -0.5380   -1.4255    0.0741 C   0  0  0  0  0  0  0  0  0  0  0  0
   -2.6099    3.8692   -0.4179 H   0  0  0  0  0  0  0  0  0  0  0  0
    1.2147    2.1020   -0.2575 H   0  0  0  0  0  0  0  0  0  0  0  0
    1.4841   -2.1757    0.1388 H   0  0  0  0  0  0  0  0  0  0  0  0
   -1.0313   -2.3888    0.1649 H   0  0  0  0  0  0  0  0  0  0  0  0
  1  2  1  0  0  0  0
  1 11  2  0  0  0  0
  2  3  1  0  0  0  0
  4  1  1  0  0  0  0
  5  4  2  0  0  0  0
  5  6  1  0  0  0  0
  6 10  2  0  0  0  0
  7  6  1  0  0  0  0
  7  9  2  0  0  0  0
  8  7  2  0  0  0  0
 10 11  1  0  0  0  0
 10 14  1  0  0  0  0
 11 15  1  0  0  0  0
 13  5  1  0  0  0  0
M  RAD  4   2   2   3   3   4   2  12   2
M  END
