Coordinates from ORCA-job 4-NO2PhN2+_B3LYPG-6-31G_dp-d09-49-n800
 OpenBabel11261918563D

 15 14  0  0  0  0  0  0  0  0999 V2000
   -1.3483   -0.1035   -0.0474 C   0  0  0  0  0  0  0  0  0  0  0  0
   -2.7257   -0.1741   -0.0383 N   0  0  0  0  0  0  0  0  0  0  0  0
   -3.8379   -0.2326   -0.0310 N   0  0  0  0  0  0  0  0  0  0  0  0
   -0.7482    1.1599   -0.1662 C   0  0  0  0  0  0  0  0  0  0  0  0
    0.6290    1.2496   -0.1780 C   0  0  0  0  0  0  0  0  0  0  0  0
    1.3543    0.0594   -0.0691 C   0  0  0  0  0  0  0  0  0  0  0  0
    2.8467    0.1450   -0.0820 N   0  0  0  0  0  0  0  0  0  0  0  0
    3.3244    1.2645   -0.1929 O   0  0  0  0  0  0  0  0  0  0  0  0
    3.4502   -0.9131    0.0224 O   0  0  0  0  0  0  0  0  0  0  0  0
    0.7688   -1.2033    0.0502 C   0  0  0  0  0  0  0  0  0  0  0  0
   -0.6142   -1.3048    0.0628 C   0  0  0  0  0  0  0  0  0  0  0  0
   -1.6342    2.4214   -0.2816 H   0  0  0  0  0  0  0  0  0  0  0  0
    1.1518    2.1945   -0.2677 H   0  0  0  0  0  0  0  0  0  0  0  0
    1.4019   -2.0791    0.1303 H   0  0  0  0  0  0  0  0  0  0  0  0
   -1.1151   -2.2627    0.1533 H   0  0  0  0  0  0  0  0  0  0  0  0
  1  2  1  0  0  0  0
  1 11  2  0  0  0  0
  2  3  1  0  0  0  0
  4  1  1  0  0  0  0
  5  4  2  0  0  0  0
  5  6  1  0  0  0  0
  6 10  2  0  0  0  0
  7  6  1  0  0  0  0
  7  9  2  0  0  0  0
  8  7  2  0  0  0  0
 10 11  1  0  0  0  0
 10 14  1  0  0  0  0
 11 15  1  0  0  0  0
 13  5  1  0  0  0  0
M  RAD  4   2   2   3   3   4   2  12   2
M  END
