Coordinates from ORCA-job 4-NO2PhN2+_B3LYPG-6-31G_dp-d09-49-n800
 OpenBabel11261918563D

 15 14  0  0  0  0  0  0  0  0999 V2000
   -1.2992   -0.1799   -0.0400 C   0  0  0  0  0  0  0  0  0  0  0  0
   -2.6791   -0.2352   -0.0325 N   0  0  0  0  0  0  0  0  0  0  0  0
   -3.7914   -0.2811   -0.0262 N   0  0  0  0  0  0  0  0  0  0  0  0
   -0.6774    1.0598   -0.1564 C   0  0  0  0  0  0  0  0  0  0  0  0
    0.6839    1.1884   -0.1716 C   0  0  0  0  0  0  0  0  0  0  0  0
    1.4062   -0.0094   -0.0623 C   0  0  0  0  0  0  0  0  0  0  0  0
    2.9040    0.0810   -0.0756 N   0  0  0  0  0  0  0  0  0  0  0  0
    3.3803    1.1995   -0.1867 O   0  0  0  0  0  0  0  0  0  0  0  0
    3.5049   -0.9786    0.0260 O   0  0  0  0  0  0  0  0  0  0  0  0
    0.8204   -1.2742    0.0568 C   0  0  0  0  0  0  0  0  0  0  0  0
   -0.5613   -1.3843    0.0702 C   0  0  0  0  0  0  0  0  0  0  0  0
   -2.3962    3.3948   -0.3731 H   0  0  0  0  0  0  0  0  0  0  0  0
    1.2123    2.1329   -0.2608 H   0  0  0  0  0  0  0  0  0  0  0  0
    1.4563   -2.1478    0.1363 H   0  0  0  0  0  0  0  0  0  0  0  0
   -1.0601   -2.3446    0.1607 H   0  0  0  0  0  0  0  0  0  0  0  0
  1  2  1  0  0  0  0
  1 11  2  0  0  0  0
  2  3  1  0  0  0  0
  4  1  1  0  0  0  0
  5  4  2  0  0  0  0
  5  6  1  0  0  0  0
  6 10  2  0  0  0  0
  7  6  1  0  0  0  0
  7  9  2  0  0  0  0
  8  7  2  0  0  0  0
 10 11  1  0  0  0  0
 10 14  1  0  0  0  0
 11 15  1  0  0  0  0
 13  5  1  0  0  0  0
M  RAD  4   2   2   3   3   4   2  12   2
M  END
