Coordinates from ORCA-job 4-NO2PhN2+_B3LYPG-6-31G_dp-d09-49-n800
 OpenBabel11261918563D

 15 14  0  0  0  0  0  0  0  0999 V2000
   -1.2742   -0.3686   -0.0209 C   0  0  0  0  0  0  0  0  0  0  0  0
   -2.6556   -0.4906   -0.0070 N   0  0  0  0  0  0  0  0  0  0  0  0
   -3.7655   -0.5791    0.0032 N   0  0  0  0  0  0  0  0  0  0  0  0
   -0.7298    0.9045   -0.1397 C   0  0  0  0  0  0  0  0  0  0  0  0
    0.6294    1.0847   -0.1599 C   0  0  0  0  0  0  0  0  0  0  0  0
    1.4090   -0.0760   -0.0557 C   0  0  0  0  0  0  0  0  0  0  0  0
    2.9019    0.0862   -0.0767 N   0  0  0  0  0  0  0  0  0  0  0  0
    3.3269    1.2257   -0.1830 O   0  0  0  0  0  0  0  0  0  0  0  0
    3.5537   -0.9446    0.0146 O   0  0  0  0  0  0  0  0  0  0  0  0
    0.8861   -1.3694    0.0652 C   0  0  0  0  0  0  0  0  0  0  0  0
   -0.4875   -1.5434    0.0853 C   0  0  0  0  0  0  0  0  0  0  0  0
   -2.6339    4.9793   -0.5286 H   0  0  0  0  0  0  0  0  0  0  0  0
    1.1221    2.0496   -0.2500 H   0  0  0  0  0  0  0  0  0  0  0  0
    1.5629   -2.2117    0.1406 H   0  0  0  0  0  0  0  0  0  0  0  0
   -0.9421   -2.5255    0.1773 H   0  0  0  0  0  0  0  0  0  0  0  0
  1  2  1  0  0  0  0
  1 11  2  0  0  0  0
  2  3  1  0  0  0  0
  4  1  1  0  0  0  0
  5  4  2  0  0  0  0
  5  6  1  0  0  0  0
  6 10  2  0  0  0  0
  7  6  1  0  0  0  0
  7  9  2  0  0  0  0
  8  7  2  0  0  0  0
 10 11  1  0  0  0  0
 10 14  1  0  0  0  0
 11 15  1  0  0  0  0
 13  5  1  0  0  0  0
M  RAD  4   2   2   3   3   4   2  12   2
M  END
