Coordinates from ORCA-job 4-NO2PhN2+_B3LYPG-6-31G_dp-d09-49-n800
 OpenBabel11261918563D

 15 14  0  0  0  0  0  0  0  0999 V2000
   -1.3358   -0.1283   -0.0452 C   0  0  0  0  0  0  0  0  0  0  0  0
   -2.7127   -0.1893   -0.0384 N   0  0  0  0  0  0  0  0  0  0  0  0
   -3.8250   -0.2408   -0.0327 N   0  0  0  0  0  0  0  0  0  0  0  0
   -0.7213    1.1221   -0.1623 C   0  0  0  0  0  0  0  0  0  0  0  0
    0.6476    1.2336   -0.1748 C   0  0  0  0  0  0  0  0  0  0  0  0
    1.3706    0.0394   -0.0649 C   0  0  0  0  0  0  0  0  0  0  0  0
    2.8647    0.1256   -0.0764 N   0  0  0  0  0  0  0  0  0  0  0  0
    3.3422    1.2439   -0.1959 O   0  0  0  0  0  0  0  0  0  0  0  0
    3.4668   -0.9340    0.0183 O   0  0  0  0  0  0  0  0  0  0  0  0
    0.7842   -1.2239    0.0538 C   0  0  0  0  0  0  0  0  0  0  0  0
   -0.5984   -1.3297    0.0656 C   0  0  0  0  0  0  0  0  0  0  0  0
   -1.8705    2.7110   -0.3083 H   0  0  0  0  0  0  0  0  0  0  0  0
    1.1700    2.1792   -0.2640 H   0  0  0  0  0  0  0  0  0  0  0  0
    1.4188   -2.0986    0.1343 H   0  0  0  0  0  0  0  0  0  0  0  0
   -1.0977   -2.2890    0.1557 H   0  0  0  0  0  0  0  0  0  0  0  0
  1  2  1  0  0  0  0
  1 11  2  0  0  0  0
  2  3  1  0  0  0  0
  4  1  1  0  0  0  0
  5  4  2  0  0  0  0
  5  6  1  0  0  0  0
  6 10  2  0  0  0  0
  7  6  1  0  0  0  0
  7  9  2  0  0  0  0
  8  7  2  0  0  0  0
 10 11  1  0  0  0  0
 10 14  1  0  0  0  0
 11 15  1  0  0  0  0
 13  5  1  0  0  0  0
M  RAD  4   2   2   3   3   4   2  12   2
M  END
