Coordinates from ORCA-job 4-NO2PhN2+_B3LYPG-6-31G_dp-d09-49-n800
 OpenBabel11261918563D

 15 14  0  0  0  0  0  0  0  0999 V2000
   -1.3057   -0.1706   -0.0410 C   0  0  0  0  0  0  0  0  0  0  0  0
   -2.6850   -0.2247   -0.0338 N   0  0  0  0  0  0  0  0  0  0  0  0
   -3.7973   -0.2699   -0.0279 N   0  0  0  0  0  0  0  0  0  0  0  0
   -0.6825    1.0690   -0.1573 C   0  0  0  0  0  0  0  0  0  0  0  0
    0.6790    1.1970   -0.1723 C   0  0  0  0  0  0  0  0  0  0  0  0
    1.4007   -0.0010   -0.0628 C   0  0  0  0  0  0  0  0  0  0  0  0
    2.8981    0.0881   -0.0757 N   0  0  0  0  0  0  0  0  0  0  0  0
    3.3750    1.2064   -0.1881 O   0  0  0  0  0  0  0  0  0  0  0  0
    3.4986   -0.9718    0.0247 O   0  0  0  0  0  0  0  0  0  0  0  0
    0.8141   -1.2652    0.0562 C   0  0  0  0  0  0  0  0  0  0  0  0
   -0.5678   -1.3746    0.0694 C   0  0  0  0  0  0  0  0  0  0  0  0
   -2.3131    3.2707   -0.3612 H   0  0  0  0  0  0  0  0  0  0  0  0
    1.2065    2.1417   -0.2614 H   0  0  0  0  0  0  0  0  0  0  0  0
    1.4497   -2.1392    0.1360 H   0  0  0  0  0  0  0  0  0  0  0  0
   -1.0668   -2.3347    0.1599 H   0  0  0  0  0  0  0  0  0  0  0  0
  1  2  1  0  0  0  0
  1 11  2  0  0  0  0
  2  3  1  0  0  0  0
  4  1  1  0  0  0  0
  5  4  2  0  0  0  0
  5  6  1  0  0  0  0
  6 10  2  0  0  0  0
  7  6  1  0  0  0  0
  7  9  2  0  0  0  0
  8  7  2  0  0  0  0
 10 11  1  0  0  0  0
 10 14  1  0  0  0  0
 11 15  1  0  0  0  0
 13  5  1  0  0  0  0
M  RAD  4   2   2   3   3   4   2  12   2
M  END
