Coordinates from ORCA-job 4-NO2PhN2+_B3LYPG-6-31G_dp-d09-49-n800
 OpenBabel11261918563D

 15 15  0  0  0  0  0  0  0  0999 V2000
   -1.3597   -0.0757   -0.0501 C   0  0  0  0  0  0  0  0  0  0  0  0
   -2.7388   -0.1555   -0.0401 N   0  0  0  0  0  0  0  0  0  0  0  0
   -3.8510   -0.2197   -0.0320 N   0  0  0  0  0  0  0  0  0  0  0  0
   -0.7757    1.2017   -0.1702 C   0  0  0  0  0  0  0  0  0  0  0  0
    0.6099    1.2660   -0.1794 C   0  0  0  0  0  0  0  0  0  0  0  0
    1.3383    0.0801   -0.0707 C   0  0  0  0  0  0  0  0  0  0  0  0
    2.8295    0.1660   -0.0831 N   0  0  0  0  0  0  0  0  0  0  0  0
    3.3071    1.2857   -0.1955 O   0  0  0  0  0  0  0  0  0  0  0  0
    3.4340   -0.8918    0.0199 O   0  0  0  0  0  0  0  0  0  0  0  0
    0.7530   -1.1815    0.0483 C   0  0  0  0  0  0  0  0  0  0  0  0
   -0.6308   -1.2777    0.0602 C   0  0  0  0  0  0  0  0  0  0  0  0
   -1.3963    2.1064   -0.2531 H   0  0  0  0  0  0  0  0  0  0  0  0
    1.1345    2.2103   -0.2688 H   0  0  0  0  0  0  0  0  0  0  0  0
    1.3838   -2.0591    0.1288 H   0  0  0  0  0  0  0  0  0  0  0  0
   -1.1344   -2.2339    0.1505 H   0  0  0  0  0  0  0  0  0  0  0  0
  1  2  1  0  0  0  0
  1 11  2  0  0  0  0
  2  3  1  0  0  0  0
  4  1  1  0  0  0  0
  5  4  2  0  0  0  0
  5  6  1  0  0  0  0
  6 10  2  0  0  0  0
  7  6  1  0  0  0  0
  7  9  2  0  0  0  0
  8  7  2  0  0  0  0
 10 11  1  0  0  0  0
 10 14  1  0  0  0  0
 11 15  1  0  0  0  0
 12  4  1  0  0  0  0
 13  5  1  0  0  0  0
M  RAD  2   2   2   3   3
M  END
