Coordinates from ORCA-job 4-NO2PhN2+_B3LYPG-6-31G_dp-d09-49-n800
 OpenBabel11261918563D

 15 14  0  0  0  0  0  0  0  0999 V2000
   -1.2755   -0.3873   -0.0187 C   0  0  0  0  0  0  0  0  0  0  0  0
   -2.6563   -0.5172   -0.0042 N   0  0  0  0  0  0  0  0  0  0  0  0
   -3.7658   -0.6113    0.0065 N   0  0  0  0  0  0  0  0  0  0  0  0
   -0.7394    0.8892   -0.1374 C   0  0  0  0  0  0  0  0  0  0  0  0
    0.6189    1.0774   -0.1583 C   0  0  0  0  0  0  0  0  0  0  0  0
    1.4055   -0.0786   -0.0553 C   0  0  0  0  0  0  0  0  0  0  0  0
    2.8974    0.0924   -0.0774 N   0  0  0  0  0  0  0  0  0  0  0  0
    3.3157    1.2345   -0.1829 O   0  0  0  0  0  0  0  0  0  0  0  0
    3.5554   -0.9346    0.0118 O   0  0  0  0  0  0  0  0  0  0  0  0
    0.8905   -1.3752    0.0656 C   0  0  0  0  0  0  0  0  0  0  0  0
   -0.4820   -1.5575    0.0866 C   0  0  0  0  0  0  0  0  0  0  0  0
   -2.6086    5.0999   -0.5420 H   0  0  0  0  0  0  0  0  0  0  0  0
    1.1058    2.0452   -0.2482 H   0  0  0  0  0  0  0  0  0  0  0  0
    1.5724   -2.2134    0.1401 H   0  0  0  0  0  0  0  0  0  0  0  0
   -0.9306   -2.5424    0.1786 H   0  0  0  0  0  0  0  0  0  0  0  0
  1  2  1  0  0  0  0
  1 11  2  0  0  0  0
  2  3  1  0  0  0  0
  4  1  1  0  0  0  0
  5  4  2  0  0  0  0
  5  6  1  0  0  0  0
  6 10  2  0  0  0  0
  7  6  1  0  0  0  0
  7  9  2  0  0  0  0
  8  7  2  0  0  0  0
 10 11  1  0  0  0  0
 10 14  1  0  0  0  0
 11 15  1  0  0  0  0
 13  5  1  0  0  0  0
M  RAD  4   2   2   3   3   4   2  12   2
M  END
