Coordinates from ORCA-job 4-NO2PhN2+_B3LYPG-6-31G_dp-d09-49-n800
 OpenBabel11261918563D

 15 15  0  0  0  0  0  0  0  0999 V2000
   -1.3634   -0.0670   -0.0509 C   0  0  0  0  0  0  0  0  0  0  0  0
   -2.7432   -0.1476   -0.0404 N   0  0  0  0  0  0  0  0  0  0  0  0
   -3.8554   -0.2118   -0.0321 N   0  0  0  0  0  0  0  0  0  0  0  0
   -0.7832    1.2131   -0.1713 C   0  0  0  0  0  0  0  0  0  0  0  0
    0.6038    1.2716   -0.1801 C   0  0  0  0  0  0  0  0  0  0  0  0
    1.3333    0.0869   -0.0716 C   0  0  0  0  0  0  0  0  0  0  0  0
    2.8243    0.1730   -0.0845 N   0  0  0  0  0  0  0  0  0  0  0  0
    3.3016    1.2930   -0.1944 O   0  0  0  0  0  0  0  0  0  0  0  0
    3.4290   -0.8847    0.0195 O   0  0  0  0  0  0  0  0  0  0  0  0
    0.7479   -1.1743    0.0474 C   0  0  0  0  0  0  0  0  0  0  0  0
   -0.6362   -1.2692    0.0594 C   0  0  0  0  0  0  0  0  0  0  0  0
   -1.3208    1.9992   -0.2438 H   0  0  0  0  0  0  0  0  0  0  0  0
    1.1281    2.2164   -0.2698 H   0  0  0  0  0  0  0  0  0  0  0  0
    1.3781   -2.0524    0.1276 H   0  0  0  0  0  0  0  0  0  0  0  0
   -1.1405   -2.2250    0.1498 H   0  0  0  0  0  0  0  0  0  0  0  0
  1  2  1  0  0  0  0
  1 11  2  0  0  0  0
  2  3  1  0  0  0  0
  4  1  1  0  0  0  0
  5  4  2  0  0  0  0
  5  6  1  0  0  0  0
  6 10  2  0  0  0  0
  7  6  1  0  0  0  0
  7  9  2  0  0  0  0
  8  7  2  0  0  0  0
 10 11  1  0  0  0  0
 10 14  1  0  0  0  0
 11 15  1  0  0  0  0
 12  4  1  0  0  0  0
 13  5  1  0  0  0  0
M  RAD  2   2   2   3   3
M  END
