Coordinates from ORCA-job 4-NO2PhN2+_B3LYPG-6-31G_dp-d09-49-n800
 OpenBabel11261918563D

 15 15  0  0  0  0  0  0  0  0999 V2000
   -1.3620   -0.0703   -0.0506 C   0  0  0  0  0  0  0  0  0  0  0  0
   -2.7415   -0.1508   -0.0405 N   0  0  0  0  0  0  0  0  0  0  0  0
   -3.8537   -0.2152   -0.0323 N   0  0  0  0  0  0  0  0  0  0  0  0
   -0.7804    1.2090   -0.1709 C   0  0  0  0  0  0  0  0  0  0  0  0
    0.6061    1.2695   -0.1797 C   0  0  0  0  0  0  0  0  0  0  0  0
    1.3352    0.0843   -0.0710 C   0  0  0  0  0  0  0  0  0  0  0  0
    2.8262    0.1703   -0.0835 N   0  0  0  0  0  0  0  0  0  0  0  0
    3.3037    1.2901   -0.1954 O   0  0  0  0  0  0  0  0  0  0  0  0
    3.4309   -0.8875    0.0191 O   0  0  0  0  0  0  0  0  0  0  0  0
    0.7499   -1.1770    0.0479 C   0  0  0  0  0  0  0  0  0  0  0  0
   -0.6341   -1.2724    0.0597 C   0  0  0  0  0  0  0  0  0  0  0  0
   -1.3494    2.0402   -0.2473 H   0  0  0  0  0  0  0  0  0  0  0  0
    1.1306    2.2140   -0.2692 H   0  0  0  0  0  0  0  0  0  0  0  0
    1.3803   -2.0549    0.1283 H   0  0  0  0  0  0  0  0  0  0  0  0
   -1.1382   -2.2283    0.1500 H   0  0  0  0  0  0  0  0  0  0  0  0
  1  2  1  0  0  0  0
  1 11  2  0  0  0  0
  2  3  1  0  0  0  0
  4  1  1  0  0  0  0
  5  4  2  0  0  0  0
  5  6  1  0  0  0  0
  6 10  2  0  0  0  0
  7  6  1  0  0  0  0
  7  9  2  0  0  0  0
  8  7  2  0  0  0  0
 10 11  1  0  0  0  0
 10 14  1  0  0  0  0
 11 15  1  0  0  0  0
 12  4  1  0  0  0  0
 13  5  1  0  0  0  0
M  RAD  2   2   2   3   3
M  END
