Coordinates from ORCA-job 4-NO2PhN2+_B3LYPG-6-31G_dp-d09-49-n800
 OpenBabel11261918563D

 15 14  0  0  0  0  0  0  0  0999 V2000
   -1.3398   -0.1212   -0.0458 C   0  0  0  0  0  0  0  0  0  0  0  0
   -2.7167   -0.1846   -0.0377 N   0  0  0  0  0  0  0  0  0  0  0  0
   -3.8290   -0.2380   -0.0310 N   0  0  0  0  0  0  0  0  0  0  0  0
   -0.7290    1.1326   -0.1637 C   0  0  0  0  0  0  0  0  0  0  0  0
    0.6421    1.2385   -0.1767 C   0  0  0  0  0  0  0  0  0  0  0  0
    1.3656    0.0454   -0.0674 C   0  0  0  0  0  0  0  0  0  0  0  0
    2.8592    0.1312   -0.0801 N   0  0  0  0  0  0  0  0  0  0  0  0
    3.3368    1.2504   -0.1923 O   0  0  0  0  0  0  0  0  0  0  0  0
    3.4618   -0.9275    0.0223 O   0  0  0  0  0  0  0  0  0  0  0  0
    0.7796   -1.2177    0.0519 C   0  0  0  0  0  0  0  0  0  0  0  0
   -0.6032   -1.3224    0.0646 C   0  0  0  0  0  0  0  0  0  0  0  0
   -1.7992    2.6246   -0.3000 H   0  0  0  0  0  0  0  0  0  0  0  0
    1.1643    2.1840   -0.2664 H   0  0  0  0  0  0  0  0  0  0  0  0
    1.4138   -2.0927    0.1320 H   0  0  0  0  0  0  0  0  0  0  0  0
   -1.1027   -2.2814    0.1551 H   0  0  0  0  0  0  0  0  0  0  0  0
  1  2  1  0  0  0  0
  1 11  2  0  0  0  0
  2  3  1  0  0  0  0
  4  1  1  0  0  0  0
  5  4  2  0  0  0  0
  5  6  1  0  0  0  0
  6 10  2  0  0  0  0
  7  6  1  0  0  0  0
  7  9  2  0  0  0  0
  8  7  2  0  0  0  0
 10 11  1  0  0  0  0
 10 14  1  0  0  0  0
 11 15  1  0  0  0  0
 13  5  1  0  0  0  0
M  RAD  4   2   2   3   3   4   2  12   2
M  END
