Coordinates from ORCA-job 4-NO2PhN2+_B3LYPG-6-31G_dp-d09-49-n800
 OpenBabel11261918563D

 15 14  0  0  0  0  0  0  0  0999 V2000
   -1.2967   -0.1849   -0.0396 C   0  0  0  0  0  0  0  0  0  0  0  0
   -2.6769   -0.2409   -0.0317 N   0  0  0  0  0  0  0  0  0  0  0  0
   -3.7892   -0.2872   -0.0256 N   0  0  0  0  0  0  0  0  0  0  0  0
   -0.6761    1.0551   -0.1559 C   0  0  0  0  0  0  0  0  0  0  0  0
    0.6851    1.1844   -0.1712 C   0  0  0  0  0  0  0  0  0  0  0  0
    1.4082   -0.0130   -0.0620 C   0  0  0  0  0  0  0  0  0  0  0  0
    2.9060    0.0784   -0.0754 N   0  0  0  0  0  0  0  0  0  0  0  0
    3.3818    1.1972   -0.1863 O   0  0  0  0  0  0  0  0  0  0  0  0
    3.5076   -0.9808    0.0261 O   0  0  0  0  0  0  0  0  0  0  0  0
    0.8231   -1.2782    0.0570 C   0  0  0  0  0  0  0  0  0  0  0  0
   -0.5584   -1.3892    0.0706 C   0  0  0  0  0  0  0  0  0  0  0  0
   -2.4279    3.4526   -0.3788 H   0  0  0  0  0  0  0  0  0  0  0  0
    1.2138    2.1289   -0.2604 H   0  0  0  0  0  0  0  0  0  0  0  0
    1.4596   -2.1515    0.1365 H   0  0  0  0  0  0  0  0  0  0  0  0
   -1.0567   -2.3498    0.1611 H   0  0  0  0  0  0  0  0  0  0  0  0
  1  2  1  0  0  0  0
  1 11  2  0  0  0  0
  2  3  1  0  0  0  0
  4  1  1  0  0  0  0
  5  4  2  0  0  0  0
  5  6  1  0  0  0  0
  6 10  2  0  0  0  0
  7  6  1  0  0  0  0
  7  9  2  0  0  0  0
  8  7  2  0  0  0  0
 10 11  1  0  0  0  0
 10 14  1  0  0  0  0
 11 15  1  0  0  0  0
 13  5  1  0  0  0  0
M  RAD  4   2   2   3   3   4   2  12   2
M  END
