Coordinates from ORCA-job 4-NO2PhN2+_B3LYPG-6-31G_dp-d09-49-n800
 OpenBabel11261918563D

 15 14  0  0  0  0  0  0  0  0999 V2000
   -1.2933   -0.1917   -0.0389 C   0  0  0  0  0  0  0  0  0  0  0  0
   -2.6739   -0.2493   -0.0319 N   0  0  0  0  0  0  0  0  0  0  0  0
   -3.7862   -0.2965   -0.0266 N   0  0  0  0  0  0  0  0  0  0  0  0
   -0.6746    1.0490   -0.1549 C   0  0  0  0  0  0  0  0  0  0  0  0
    0.6866    1.1790   -0.1694 C   0  0  0  0  0  0  0  0  0  0  0  0
    1.4108   -0.0177   -0.0600 C   0  0  0  0  0  0  0  0  0  0  0  0
    2.9088    0.0753   -0.0727 N   0  0  0  0  0  0  0  0  0  0  0  0
    3.3836    1.1938   -0.1894 O   0  0  0  0  0  0  0  0  0  0  0  0
    3.5112   -0.9841    0.0227 O   0  0  0  0  0  0  0  0  0  0  0  0
    0.8269   -1.2837    0.0587 C   0  0  0  0  0  0  0  0  0  0  0  0
   -0.5544   -1.3958    0.0716 C   0  0  0  0  0  0  0  0  0  0  0  0
   -2.4696    3.5321   -0.3865 H   0  0  0  0  0  0  0  0  0  0  0  0
    1.2152    2.1238   -0.2582 H   0  0  0  0  0  0  0  0  0  0  0  0
    1.4641   -2.1563    0.1384 H   0  0  0  0  0  0  0  0  0  0  0  0
   -1.0520   -2.3568    0.1618 H   0  0  0  0  0  0  0  0  0  0  0  0
  1  2  1  0  0  0  0
  1 11  2  0  0  0  0
  2  3  1  0  0  0  0
  4  1  1  0  0  0  0
  5  4  2  0  0  0  0
  5  6  1  0  0  0  0
  6 10  2  0  0  0  0
  7  6  1  0  0  0  0
  7  9  2  0  0  0  0
  8  7  2  0  0  0  0
 10 11  1  0  0  0  0
 10 14  1  0  0  0  0
 11 15  1  0  0  0  0
 13  5  1  0  0  0  0
M  RAD  4   2   2   3   3   4   2  12   2
M  END
