Coordinates from ORCA-job 4-NO2PhN2+_B3LYPG-6-31G_dp-d09-49-n800
 OpenBabel11261918563D

 15 14  0  0  0  0  0  0  0  0999 V2000
   -1.2897   -0.1992   -0.0382 C   0  0  0  0  0  0  0  0  0  0  0  0
   -2.6707   -0.2586   -0.0307 N   0  0  0  0  0  0  0  0  0  0  0  0
   -3.7830   -0.3066   -0.0245 N   0  0  0  0  0  0  0  0  0  0  0  0
   -0.6736    1.0425   -0.1546 C   0  0  0  0  0  0  0  0  0  0  0  0
    0.6878    1.1730   -0.1695 C   0  0  0  0  0  0  0  0  0  0  0  0
    1.4133   -0.0229   -0.0603 C   0  0  0  0  0  0  0  0  0  0  0  0
    2.9114    0.0719   -0.0736 N   0  0  0  0  0  0  0  0  0  0  0  0
    3.3852    1.1911   -0.1872 O   0  0  0  0  0  0  0  0  0  0  0  0
    3.5150   -0.9866    0.0248 O   0  0  0  0  0  0  0  0  0  0  0  0
    0.8310   -1.2896    0.0586 C   0  0  0  0  0  0  0  0  0  0  0  0
   -0.5501   -1.4031    0.0721 C   0  0  0  0  0  0  0  0  0  0  0  0
   -2.5116    3.6176   -0.3942 H   0  0  0  0  0  0  0  0  0  0  0  0
    1.2164    2.1179   -0.2585 H   0  0  0  0  0  0  0  0  0  0  0  0
    1.4691   -2.1616    0.1382 H   0  0  0  0  0  0  0  0  0  0  0  0
   -1.0470   -2.3645    0.1625 H   0  0  0  0  0  0  0  0  0  0  0  0
  1  2  1  0  0  0  0
  1 11  2  0  0  0  0
  2  3  1  0  0  0  0
  4  1  1  0  0  0  0
  5  4  2  0  0  0  0
  5  6  1  0  0  0  0
  6 10  2  0  0  0  0
  7  6  1  0  0  0  0
  7  9  2  0  0  0  0
  8  7  2  0  0  0  0
 10 11  1  0  0  0  0
 10 14  1  0  0  0  0
 11 15  1  0  0  0  0
 13  5  1  0  0  0  0
M  RAD  4   2   2   3   3   4   2  12   2
M  END
