Coordinates from ORCA-job 4-NO2PhN2+_B3LYPG-6-31G_dp-d09-49-n800
 OpenBabel11261918563D

 15 15  0  0  0  0  0  0  0  0999 V2000
   -1.3639   -0.0659   -0.0509 C   0  0  0  0  0  0  0  0  0  0  0  0
   -2.7438   -0.1464   -0.0399 N   0  0  0  0  0  0  0  0  0  0  0  0
   -3.8560   -0.2105   -0.0310 N   0  0  0  0  0  0  0  0  0  0  0  0
   -0.7841    1.2145   -0.1716 C   0  0  0  0  0  0  0  0  0  0  0  0
    0.6030    1.2724   -0.1809 C   0  0  0  0  0  0  0  0  0  0  0  0
    1.3327    0.0877   -0.0728 C   0  0  0  0  0  0  0  0  0  0  0  0
    2.8236    0.1738   -0.0864 N   0  0  0  0  0  0  0  0  0  0  0  0
    3.3009    1.2943   -0.1921 O   0  0  0  0  0  0  0  0  0  0  0  0
    3.4283   -0.8834    0.0219 O   0  0  0  0  0  0  0  0  0  0  0  0
    0.7472   -1.1733    0.0465 C   0  0  0  0  0  0  0  0  0  0  0  0
   -0.6370   -1.2681    0.0591 C   0  0  0  0  0  0  0  0  0  0  0  0
   -1.3104    1.9841   -0.2425 H   0  0  0  0  0  0  0  0  0  0  0  0
    1.1271    2.2172   -0.2709 H   0  0  0  0  0  0  0  0  0  0  0  0
    1.3774   -2.0515    0.1265 H   0  0  0  0  0  0  0  0  0  0  0  0
   -1.1414   -2.2238    0.1498 H   0  0  0  0  0  0  0  0  0  0  0  0
  1  2  1  0  0  0  0
  1 11  2  0  0  0  0
  2  3  1  0  0  0  0
  4  1  1  0  0  0  0
  5  4  2  0  0  0  0
  5  6  1  0  0  0  0
  6 10  2  0  0  0  0
  7  6  1  0  0  0  0
  7  9  2  0  0  0  0
  8  7  2  0  0  0  0
 10 11  1  0  0  0  0
 10 14  1  0  0  0  0
 11 15  1  0  0  0  0
 12  4  1  0  0  0  0
 13  5  1  0  0  0  0
M  RAD  2   2   2   3   3
M  END
