Coordinates from ORCA-job 4-NO2PhN2+_B3LYPG-6-31G_dp-d09-49-n800
 OpenBabel11261918563D

 15 14  0  0  0  0  0  0  0  0999 V2000
   -1.3159   -0.1574   -0.0423 C   0  0  0  0  0  0  0  0  0  0  0  0
   -2.6941   -0.2118   -0.0349 N   0  0  0  0  0  0  0  0  0  0  0  0
   -3.8064   -0.2579   -0.0288 N   0  0  0  0  0  0  0  0  0  0  0  0
   -0.6927    1.0837   -0.1590 C   0  0  0  0  0  0  0  0  0  0  0  0
    0.6699    1.2093   -0.1738 C   0  0  0  0  0  0  0  0  0  0  0  0
    1.3916    0.0118   -0.0643 C   0  0  0  0  0  0  0  0  0  0  0  0
    2.8880    0.0997   -0.0773 N   0  0  0  0  0  0  0  0  0  0  0  0
    3.3652    1.2182   -0.1886 O   0  0  0  0  0  0  0  0  0  0  0  0
    3.4887   -0.9600    0.0246 O   0  0  0  0  0  0  0  0  0  0  0  0
    0.8046   -1.2519    0.0549 C   0  0  0  0  0  0  0  0  0  0  0  0
   -0.5776   -1.3604    0.0681 C   0  0  0  0  0  0  0  0  0  0  0  0
   -2.1766    3.0897   -0.3438 H   0  0  0  0  0  0  0  0  0  0  0  0
    1.1955    2.1545   -0.2633 H   0  0  0  0  0  0  0  0  0  0  0  0
    1.4398   -2.1261    0.1347 H   0  0  0  0  0  0  0  0  0  0  0  0
   -1.0766   -2.3203    0.1587 H   0  0  0  0  0  0  0  0  0  0  0  0
  1  2  1  0  0  0  0
  1 11  2  0  0  0  0
  2  3  1  0  0  0  0
  4  1  1  0  0  0  0
  5  4  2  0  0  0  0
  5  6  1  0  0  0  0
  6 10  2  0  0  0  0
  7  6  1  0  0  0  0
  7  9  2  0  0  0  0
  8  7  2  0  0  0  0
 10 11  1  0  0  0  0
 10 14  1  0  0  0  0
 11 15  1  0  0  0  0
 13  5  1  0  0  0  0
M  RAD  4   2   2   3   3   4   2  12   2
M  END
