Coordinates from ORCA-job 4-NO2PhN2+_B3LYPG-6-31G_dp-d09-49-n800
 OpenBabel11261918563D

 15 15  0  0  0  0  0  0  0  0999 V2000
   -1.3638   -0.0662   -0.0510 C   0  0  0  0  0  0  0  0  0  0  0  0
   -2.7437   -0.1468   -0.0408 N   0  0  0  0  0  0  0  0  0  0  0  0
   -3.8559   -0.2110   -0.0327 N   0  0  0  0  0  0  0  0  0  0  0  0
   -0.7839    1.2141   -0.1713 C   0  0  0  0  0  0  0  0  0  0  0  0
    0.6032    1.2723   -0.1798 C   0  0  0  0  0  0  0  0  0  0  0  0
    1.3328    0.0876   -0.0712 C   0  0  0  0  0  0  0  0  0  0  0  0
    2.8237    0.1738   -0.0838 N   0  0  0  0  0  0  0  0  0  0  0  0
    3.3011    1.2937   -0.1955 O   0  0  0  0  0  0  0  0  0  0  0  0
    3.4284   -0.8840    0.0183 O   0  0  0  0  0  0  0  0  0  0  0  0
    0.7474   -1.1735    0.0477 C   0  0  0  0  0  0  0  0  0  0  0  0
   -0.6368   -1.2683    0.0594 C   0  0  0  0  0  0  0  0  0  0  0  0
   -1.3129    1.9879   -0.2429 H   0  0  0  0  0  0  0  0  0  0  0  0
    1.1274    2.2171   -0.2694 H   0  0  0  0  0  0  0  0  0  0  0  0
    1.3775   -2.0516    0.1280 H   0  0  0  0  0  0  0  0  0  0  0  0
   -1.1412   -2.2241    0.1497 H   0  0  0  0  0  0  0  0  0  0  0  0
  1  2  1  0  0  0  0
  1 11  2  0  0  0  0
  2  3  1  0  0  0  0
  4  1  1  0  0  0  0
  5  4  2  0  0  0  0
  5  6  1  0  0  0  0
  6 10  2  0  0  0  0
  7  6  1  0  0  0  0
  7  9  2  0  0  0  0
  8  7  2  0  0  0  0
 10 11  1  0  0  0  0
 10 14  1  0  0  0  0
 11 15  1  0  0  0  0
 12  4  1  0  0  0  0
 13  5  1  0  0  0  0
M  RAD  2   2   2   3   3
M  END
