Coordinates from ORCA-job 4-NO2PhN2+_B3LYPG-6-31G_dp-d09-49-n800
 OpenBabel11261918563D

 15 14  0  0  0  0  0  0  0  0999 V2000
   -1.3481   -0.1041   -0.0473 C   0  0  0  0  0  0  0  0  0  0  0  0
   -2.7254   -0.1745   -0.0386 N   0  0  0  0  0  0  0  0  0  0  0  0
   -3.8377   -0.2328   -0.0314 N   0  0  0  0  0  0  0  0  0  0  0  0
   -0.7475    1.1589   -0.1661 C   0  0  0  0  0  0  0  0  0  0  0  0
    0.6294    1.2493   -0.1777 C   0  0  0  0  0  0  0  0  0  0  0  0
    1.3546    0.0590   -0.0687 C   0  0  0  0  0  0  0  0  0  0  0  0
    2.8471    0.1446   -0.0813 N   0  0  0  0  0  0  0  0  0  0  0  0
    3.3249    1.2640   -0.1937 O   0  0  0  0  0  0  0  0  0  0  0  0
    3.4506   -0.9137    0.0215 O   0  0  0  0  0  0  0  0  0  0  0  0
    0.7691   -1.2037    0.0505 C   0  0  0  0  0  0  0  0  0  0  0  0
   -0.6139   -1.3054    0.0629 C   0  0  0  0  0  0  0  0  0  0  0  0
   -1.6397    2.4282   -0.2822 H   0  0  0  0  0  0  0  0  0  0  0  0
    1.1522    2.1942   -0.2672 H   0  0  0  0  0  0  0  0  0  0  0  0
    1.4023   -2.0795    0.1307 H   0  0  0  0  0  0  0  0  0  0  0  0
   -1.1147   -2.2634    0.1534 H   0  0  0  0  0  0  0  0  0  0  0  0
  1  2  1  0  0  0  0
  1 11  2  0  0  0  0
  2  3  1  0  0  0  0
  4  1  1  0  0  0  0
  5  4  2  0  0  0  0
  5  6  1  0  0  0  0
  6 10  2  0  0  0  0
  7  6  1  0  0  0  0
  7  9  2  0  0  0  0
  8  7  2  0  0  0  0
 10 11  1  0  0  0  0
 10 14  1  0  0  0  0
 11 15  1  0  0  0  0
 13  5  1  0  0  0  0
M  RAD  4   2   2   3   3   4   2  12   2
M  END
