Coordinates from ORCA-job 4-NO2PhN2+_B3LYPG-6-31G_dp-d09-49-n800
 OpenBabel11261918563D

 15 14  0  0  0  0  0  0  0  0999 V2000
   -1.2818   -0.4304   -0.0121 C   0  0  0  0  0  0  0  0  0  0  0  0
   -2.6608   -0.5817    0.0055 N   0  0  0  0  0  0  0  0  0  0  0  0
   -3.7687   -0.6922    0.0186 N   0  0  0  0  0  0  0  0  0  0  0  0
   -0.7674    0.8552   -0.1284 C   0  0  0  0  0  0  0  0  0  0  0  0
    0.5884    1.0634   -0.1519 C   0  0  0  0  0  0  0  0  0  0  0  0
    1.3933   -0.0802   -0.0545 C   0  0  0  0  0  0  0  0  0  0  0  0
    2.8822    0.1142   -0.0799 N   0  0  0  0  0  0  0  0  0  0  0  0
    3.2826    1.2632   -0.1808 O   0  0  0  0  0  0  0  0  0  0  0  0
    3.5566   -0.9027    0.0029 O   0  0  0  0  0  0  0  0  0  0  0  0
    0.8989   -1.3852    0.0637 C   0  0  0  0  0  0  0  0  0  0  0  0
   -0.4705   -1.5887    0.0877 C   0  0  0  0  0  0  0  0  0  0  0  0
   -2.5003    5.3411   -0.5777 H   0  0  0  0  0  0  0  0  0  0  0  0
    1.0605    2.0386   -0.2400 H   0  0  0  0  0  0  0  0  0  0  0  0
    1.5940   -2.2129    0.1339 H   0  0  0  0  0  0  0  0  0  0  0  0
   -0.9035   -2.5807    0.1778 H   0  0  0  0  0  0  0  0  0  0  0  0
  1  2  1  0  0  0  0
  1 11  2  0  0  0  0
  2  3  1  0  0  0  0
  4  1  1  0  0  0  0
  5  4  2  0  0  0  0
  5  6  1  0  0  0  0
  6 10  2  0  0  0  0
  7  6  1  0  0  0  0
  7  9  2  0  0  0  0
  8  7  2  0  0  0  0
 10 11  1  0  0  0  0
 10 14  1  0  0  0  0
 11 15  1  0  0  0  0
 13  5  1  0  0  0  0
M  RAD  4   2   2   3   3   4   2  12   2
M  END
