Coordinates from ORCA-job 4-NO2PhN2+_B3LYPG-6-31G_dp-d09-49-n800
 OpenBabel11261918563D

 15 14  0  0  0  0  0  0  0  0999 V2000
   -1.3482   -0.1038   -0.0474 C   0  0  0  0  0  0  0  0  0  0  0  0
   -2.7255   -0.1743   -0.0386 N   0  0  0  0  0  0  0  0  0  0  0  0
   -3.8378   -0.2326   -0.0314 N   0  0  0  0  0  0  0  0  0  0  0  0
   -0.7478    1.1593   -0.1661 C   0  0  0  0  0  0  0  0  0  0  0  0
    0.6292    1.2495   -0.1777 C   0  0  0  0  0  0  0  0  0  0  0  0
    1.3545    0.0593   -0.0687 C   0  0  0  0  0  0  0  0  0  0  0  0
    2.8469    0.1448   -0.0814 N   0  0  0  0  0  0  0  0  0  0  0  0
    3.3247    1.2642   -0.1937 O   0  0  0  0  0  0  0  0  0  0  0  0
    3.4504   -0.9134    0.0215 O   0  0  0  0  0  0  0  0  0  0  0  0
    0.7690   -1.2034    0.0505 C   0  0  0  0  0  0  0  0  0  0  0  0
   -0.6140   -1.3051    0.0629 C   0  0  0  0  0  0  0  0  0  0  0  0
   -1.6370    2.4246   -0.2819 H   0  0  0  0  0  0  0  0  0  0  0  0
    1.1520    2.1944   -0.2673 H   0  0  0  0  0  0  0  0  0  0  0  0
    1.4021   -2.0793    0.1307 H   0  0  0  0  0  0  0  0  0  0  0  0
   -1.1149   -2.2631    0.1533 H   0  0  0  0  0  0  0  0  0  0  0  0
  1  2  1  0  0  0  0
  1 11  2  0  0  0  0
  2  3  1  0  0  0  0
  4  1  1  0  0  0  0
  5  4  2  0  0  0  0
  5  6  1  0  0  0  0
  6 10  2  0  0  0  0
  7  6  1  0  0  0  0
  7  9  2  0  0  0  0
  8  7  2  0  0  0  0
 10 11  1  0  0  0  0
 10 14  1  0  0  0  0
 11 15  1  0  0  0  0
 13  5  1  0  0  0  0
M  RAD  4   2   2   3   3   4   2  12   2
M  END
