Coordinates from ORCA-job 4-NO2PhN2+_B3LYPG-6-31G_dp-d09-49-n800
 OpenBabel11261918563D

 15 14  0  0  0  0  0  0  0  0999 V2000
   -1.2873   -0.2047   -0.0377 C   0  0  0  0  0  0  0  0  0  0  0  0
   -2.6686   -0.2654   -0.0296 N   0  0  0  0  0  0  0  0  0  0  0  0
   -3.7808   -0.3141   -0.0230 N   0  0  0  0  0  0  0  0  0  0  0  0
   -0.6731    1.0378   -0.1543 C   0  0  0  0  0  0  0  0  0  0  0  0
    0.6884    1.1687   -0.1697 C   0  0  0  0  0  0  0  0  0  0  0  0
    1.4150   -0.0266   -0.0607 C   0  0  0  0  0  0  0  0  0  0  0  0
    2.9131    0.0696   -0.0746 N   0  0  0  0  0  0  0  0  0  0  0  0
    3.3860    1.1895   -0.1854 O   0  0  0  0  0  0  0  0  0  0  0  0
    3.5176   -0.9881    0.0265 O   0  0  0  0  0  0  0  0  0  0  0  0
    0.8338   -1.2939    0.0585 C   0  0  0  0  0  0  0  0  0  0  0  0
   -0.5471   -1.4083    0.0724 C   0  0  0  0  0  0  0  0  0  0  0  0
   -2.5396    3.6784   -0.3998 H   0  0  0  0  0  0  0  0  0  0  0  0
    1.2168    2.1138   -0.2589 H   0  0  0  0  0  0  0  0  0  0  0  0
    1.4726   -2.1653    0.1379 H   0  0  0  0  0  0  0  0  0  0  0  0
   -1.0434   -2.3701    0.1631 H   0  0  0  0  0  0  0  0  0  0  0  0
  1  2  1  0  0  0  0
  1 11  2  0  0  0  0
  2  3  1  0  0  0  0
  4  1  1  0  0  0  0
  5  4  2  0  0  0  0
  5  6  1  0  0  0  0
  6 10  2  0  0  0  0
  7  6  1  0  0  0  0
  7  9  2  0  0  0  0
  8  7  2  0  0  0  0
 10 11  1  0  0  0  0
 10 14  1  0  0  0  0
 11 15  1  0  0  0  0
 13  5  1  0  0  0  0
M  RAD  4   2   2   3   3   4   2  12   2
M  END
