Coordinates from ORCA-job 4-NO2PhN2+_B3LYPG-6-31G_dp-d09-49-n800
 OpenBabel11261918563D

 15 14  0  0  0  0  0  0  0  0999 V2000
   -1.3154   -0.1579   -0.0423 C   0  0  0  0  0  0  0  0  0  0  0  0
   -2.6938   -0.2123   -0.0350 N   0  0  0  0  0  0  0  0  0  0  0  0
   -3.8061   -0.2583   -0.0289 N   0  0  0  0  0  0  0  0  0  0  0  0
   -0.6923    1.0831   -0.1589 C   0  0  0  0  0  0  0  0  0  0  0  0
    0.6703    1.2088   -0.1737 C   0  0  0  0  0  0  0  0  0  0  0  0
    1.3919    0.0113   -0.0641 C   0  0  0  0  0  0  0  0  0  0  0  0
    2.8884    0.0992   -0.0771 N   0  0  0  0  0  0  0  0  0  0  0  0
    3.3656    1.2177   -0.1888 O   0  0  0  0  0  0  0  0  0  0  0  0
    3.4891   -0.9605    0.0244 O   0  0  0  0  0  0  0  0  0  0  0  0
    0.8050   -1.2525    0.0550 C   0  0  0  0  0  0  0  0  0  0  0  0
   -0.5772   -1.3610    0.0681 C   0  0  0  0  0  0  0  0  0  0  0  0
   -2.1822    3.0970   -0.3445 H   0  0  0  0  0  0  0  0  0  0  0  0
    1.1960    2.1540   -0.2631 H   0  0  0  0  0  0  0  0  0  0  0  0
    1.4402   -2.1267    0.1348 H   0  0  0  0  0  0  0  0  0  0  0  0
   -1.0762   -2.3209    0.1587 H   0  0  0  0  0  0  0  0  0  0  0  0
  1  2  1  0  0  0  0
  1 11  2  0  0  0  0
  2  3  1  0  0  0  0
  4  1  1  0  0  0  0
  5  4  2  0  0  0  0
  5  6  1  0  0  0  0
  6 10  2  0  0  0  0
  7  6  1  0  0  0  0
  7  9  2  0  0  0  0
  8  7  2  0  0  0  0
 10 11  1  0  0  0  0
 10 14  1  0  0  0  0
 11 15  1  0  0  0  0
 13  5  1  0  0  0  0
M  RAD  4   2   2   3   3   4   2  12   2
M  END
