Coordinates from ORCA-job 4-NO2PhN2+_B3LYPG-6-31G_dp-d09-49-n800
 OpenBabel11261918563D

 15 14  0  0  0  0  0  0  0  0999 V2000
   -1.3130   -0.1611   -0.0419 C   0  0  0  0  0  0  0  0  0  0  0  0
   -2.6915   -0.2153   -0.0346 N   0  0  0  0  0  0  0  0  0  0  0  0
   -3.8039   -0.2611   -0.0284 N   0  0  0  0  0  0  0  0  0  0  0  0
   -0.6897    1.0794   -0.1586 C   0  0  0  0  0  0  0  0  0  0  0  0
    0.6726    1.2058   -0.1735 C   0  0  0  0  0  0  0  0  0  0  0  0
    1.3942    0.0082   -0.0639 C   0  0  0  0  0  0  0  0  0  0  0  0
    2.8909    0.0964   -0.0770 N   0  0  0  0  0  0  0  0  0  0  0  0
    3.3680    1.2149   -0.1883 O   0  0  0  0  0  0  0  0  0  0  0  0
    3.4915   -0.9633    0.0249 O   0  0  0  0  0  0  0  0  0  0  0  0
    0.8073   -1.2557    0.0552 C   0  0  0  0  0  0  0  0  0  0  0  0
   -0.5748   -1.3645    0.0684 C   0  0  0  0  0  0  0  0  0  0  0  0
   -2.2157    3.1411   -0.3486 H   0  0  0  0  0  0  0  0  0  0  0  0
    1.1987    2.1509   -0.2629 H   0  0  0  0  0  0  0  0  0  0  0  0
    1.4426   -2.1299    0.1350 H   0  0  0  0  0  0  0  0  0  0  0  0
   -1.0738   -2.3244    0.1590 H   0  0  0  0  0  0  0  0  0  0  0  0
  1  2  1  0  0  0  0
  1 11  2  0  0  0  0
  2  3  1  0  0  0  0
  4  1  1  0  0  0  0
  5  4  2  0  0  0  0
  5  6  1  0  0  0  0
  6 10  2  0  0  0  0
  7  6  1  0  0  0  0
  7  9  2  0  0  0  0
  8  7  2  0  0  0  0
 10 11  1  0  0  0  0
 10 14  1  0  0  0  0
 11 15  1  0  0  0  0
 13  5  1  0  0  0  0
M  RAD  4   2   2   3   3   4   2  12   2
M  END
