Coordinates from ORCA-job 4-NO2PhN2+_B3LYPG-6-31G_dp-d09-49-n800
 OpenBabel11261918563D

 15 14  0  0  0  0  0  0  0  0999 V2000
   -1.2888   -0.2016   -0.0380 C   0  0  0  0  0  0  0  0  0  0  0  0
   -2.6699   -0.2615   -0.0294 N   0  0  0  0  0  0  0  0  0  0  0  0
   -3.7821   -0.3099   -0.0224 N   0  0  0  0  0  0  0  0  0  0  0  0
   -0.6733    1.0403   -0.1549 C   0  0  0  0  0  0  0  0  0  0  0  0
    0.6881    1.1711   -0.1707 C   0  0  0  0  0  0  0  0  0  0  0  0
    1.4140   -0.0246   -0.0619 C   0  0  0  0  0  0  0  0  0  0  0  0
    2.9121    0.0707   -0.0762 N   0  0  0  0  0  0  0  0  0  0  0  0
    3.3855    1.1907   -0.1834 O   0  0  0  0  0  0  0  0  0  0  0  0
    3.5161   -0.9870    0.0286 O   0  0  0  0  0  0  0  0  0  0  0  0
    0.8321   -1.2915    0.0577 C   0  0  0  0  0  0  0  0  0  0  0  0
   -0.5489   -1.4054    0.0720 C   0  0  0  0  0  0  0  0  0  0  0  0
   -2.5233    3.6438   -0.3963 H   0  0  0  0  0  0  0  0  0  0  0  0
    1.2165    2.1161   -0.2601 H   0  0  0  0  0  0  0  0  0  0  0  0
    1.4706   -2.1632    0.1369 H   0  0  0  0  0  0  0  0  0  0  0  0
   -1.0454   -2.3669    0.1629 H   0  0  0  0  0  0  0  0  0  0  0  0
  1  2  1  0  0  0  0
  1 11  2  0  0  0  0
  2  3  1  0  0  0  0
  4  1  1  0  0  0  0
  5  4  2  0  0  0  0
  5  6  1  0  0  0  0
  6 10  2  0  0  0  0
  7  6  1  0  0  0  0
  7  9  2  0  0  0  0
  8  7  2  0  0  0  0
 10 11  1  0  0  0  0
 10 14  1  0  0  0  0
 11 15  1  0  0  0  0
 13  5  1  0  0  0  0
M  RAD  4   2   2   3   3   4   2  12   2
M  END
