Coordinates from ORCA-job 4-NO2PhN2+_B3LYPG-6-31G_dp-d09-49-n800
 OpenBabel11261918563D

 15 14  0  0  0  0  0  0  0  0999 V2000
   -1.2826   -0.2182   -0.0364 C   0  0  0  0  0  0  0  0  0  0  0  0
   -2.6644   -0.2828   -0.0279 N   0  0  0  0  0  0  0  0  0  0  0  0
   -3.7766   -0.3338   -0.0212 N   0  0  0  0  0  0  0  0  0  0  0  0
   -0.6733    1.0264   -0.1532 C   0  0  0  0  0  0  0  0  0  0  0  0
    0.6884    1.1592   -0.1687 C   0  0  0  0  0  0  0  0  0  0  0  0
    1.4179   -0.0342   -0.0600 C   0  0  0  0  0  0  0  0  0  0  0  0
    2.9160    0.0658   -0.0743 N   0  0  0  0  0  0  0  0  0  0  0  0
    3.3864    1.1867   -0.1849 O   0  0  0  0  0  0  0  0  0  0  0  0
    3.5231   -0.9905    0.0262 O   0  0  0  0  0  0  0  0  0  0  0  0
    0.8400   -1.3031    0.0594 C   0  0  0  0  0  0  0  0  0  0  0  0
   -0.5404   -1.4208    0.0736 C   0  0  0  0  0  0  0  0  0  0  0  0
   -2.5932    3.8181   -0.4131 H   0  0  0  0  0  0  0  0  0  0  0  0
    1.2157    2.1051   -0.2579 H   0  0  0  0  0  0  0  0  0  0  0  0
    1.4810   -2.1730    0.1385 H   0  0  0  0  0  0  0  0  0  0  0  0
   -1.0346   -2.3837    0.1644 H   0  0  0  0  0  0  0  0  0  0  0  0
  1  2  1  0  0  0  0
  1 11  2  0  0  0  0
  2  3  1  0  0  0  0
  4  1  1  0  0  0  0
  5  4  2  0  0  0  0
  5  6  1  0  0  0  0
  6 10  2  0  0  0  0
  7  6  1  0  0  0  0
  7  9  2  0  0  0  0
  8  7  2  0  0  0  0
 10 11  1  0  0  0  0
 10 14  1  0  0  0  0
 11 15  1  0  0  0  0
 13  5  1  0  0  0  0
M  RAD  4   2   2   3   3   4   2  12   2
M  END
