Coordinates from ORCA-job 4-NO2PhN2+_B3LYPG-6-31G_dp-d09-49-n800
 OpenBabel11261918563D

 15 14  0  0  0  0  0  0  0  0999 V2000
   -1.2762   -0.2452   -0.0338 C   0  0  0  0  0  0  0  0  0  0  0  0
   -2.6587   -0.3184   -0.0245 N   0  0  0  0  0  0  0  0  0  0  0  0
   -3.7707   -0.3742   -0.0174 N   0  0  0  0  0  0  0  0  0  0  0  0
   -0.6777    1.0041   -0.1510 C   0  0  0  0  0  0  0  0  0  0  0  0
    0.6842    1.1423   -0.1670 C   0  0  0  0  0  0  0  0  0  0  0  0
    1.4210   -0.0466   -0.0588 C   0  0  0  0  0  0  0  0  0  0  0  0
    2.9187    0.0624   -0.0740 N   0  0  0  0  0  0  0  0  0  0  0  0
    3.3830    1.1859   -0.1842 O   0  0  0  0  0  0  0  0  0  0  0  0
    3.5321   -0.9906    0.0254 O   0  0  0  0  0  0  0  0  0  0  0  0
    0.8509   -1.3193    0.0609 C   0  0  0  0  0  0  0  0  0  0  0  0
   -0.5286   -1.4447    0.0759 C   0  0  0  0  0  0  0  0  0  0  0  0
   -2.6617    4.0705   -0.4371 H   0  0  0  0  0  0  0  0  0  0  0  0
    1.2079    2.0904   -0.2563 H   0  0  0  0  0  0  0  0  0  0  0  0
    1.4969   -2.1854    0.1396 H   0  0  0  0  0  0  0  0  0  0  0  0
   -1.0176   -2.4102    0.1670 H   0  0  0  0  0  0  0  0  0  0  0  0
  1  2  1  0  0  0  0
  1 11  2  0  0  0  0
  2  3  1  0  0  0  0
  4  1  1  0  0  0  0
  5  4  2  0  0  0  0
  5  6  1  0  0  0  0
  6 10  2  0  0  0  0
  7  6  1  0  0  0  0
  7  9  2  0  0  0  0
  8  7  2  0  0  0  0
 10 11  1  0  0  0  0
 10 14  1  0  0  0  0
 11 15  1  0  0  0  0
 13  5  1  0  0  0  0
M  RAD  4   2   2   3   3   4   2  12   2
M  END
