Coordinates from ORCA-job 4-NO2PhN2+_B3LYPG-6-31G_dp-d09-49-n800
 OpenBabel11261918563D

 15 14  0  0  0  0  0  0  0  0999 V2000
   -1.2821   -0.4324   -0.0118 C   0  0  0  0  0  0  0  0  0  0  0  0
   -2.6610   -0.5847    0.0059 N   0  0  0  0  0  0  0  0  0  0  0  0
   -3.7688   -0.6960    0.0191 N   0  0  0  0  0  0  0  0  0  0  0  0
   -0.7687    0.8535   -0.1280 C   0  0  0  0  0  0  0  0  0  0  0  0
    0.5869    1.0627   -0.1517 C   0  0  0  0  0  0  0  0  0  0  0  0
    1.3927   -0.0803   -0.0545 C   0  0  0  0  0  0  0  0  0  0  0  0
    2.8815    0.1152   -0.0800 N   0  0  0  0  0  0  0  0  0  0  0  0
    3.2810    1.2646   -0.1808 O   0  0  0  0  0  0  0  0  0  0  0  0
    3.5567   -0.9012    0.0025 O   0  0  0  0  0  0  0  0  0  0  0  0
    0.8993   -1.3856    0.0636 C   0  0  0  0  0  0  0  0  0  0  0  0
   -0.4699   -1.5902    0.0877 C   0  0  0  0  0  0  0  0  0  0  0  0
   -2.4952    5.3525   -0.5793 H   0  0  0  0  0  0  0  0  0  0  0  0
    1.0583    2.0383   -0.2397 H   0  0  0  0  0  0  0  0  0  0  0  0
    1.5950   -2.2128    0.1336 H   0  0  0  0  0  0  0  0  0  0  0  0
   -0.9022   -2.5825    0.1778 H   0  0  0  0  0  0  0  0  0  0  0  0
  1  2  1  0  0  0  0
  1 11  2  0  0  0  0
  2  3  1  0  0  0  0
  4  1  1  0  0  0  0
  5  4  2  0  0  0  0
  5  6  1  0  0  0  0
  6 10  2  0  0  0  0
  7  6  1  0  0  0  0
  7  9  2  0  0  0  0
  8  7  2  0  0  0  0
 10 11  1  0  0  0  0
 10 14  1  0  0  0  0
 11 15  1  0  0  0  0
 13  5  1  0  0  0  0
M  RAD  4   2   2   3   3   4   2  12   2
M  END
