Coordinates from ORCA-job 4-NO2PhN2+_B3LYPG-6-31G_dp-d09-49-n800
 OpenBabel11261918563D

 15 15  0  0  0  0  0  0  0  0999 V2000
   -1.3580   -0.0797   -0.0496 C   0  0  0  0  0  0  0  0  0  0  0  0
   -2.7368   -0.1585   -0.0383 N   0  0  0  0  0  0  0  0  0  0  0  0
   -3.8490   -0.2222   -0.0292 N   0  0  0  0  0  0  0  0  0  0  0  0
   -0.7720    1.1961   -0.1701 C   0  0  0  0  0  0  0  0  0  0  0  0
    0.6126    1.2633   -0.1809 C   0  0  0  0  0  0  0  0  0  0  0  0
    1.3405    0.0768   -0.0729 C   0  0  0  0  0  0  0  0  0  0  0  0
    2.8319    0.1625   -0.0869 N   0  0  0  0  0  0  0  0  0  0  0  0
    3.3095    1.2831   -0.1899 O   0  0  0  0  0  0  0  0  0  0  0  0
    3.4363   -0.8944    0.0258 O   0  0  0  0  0  0  0  0  0  0  0  0
    0.7553   -1.1849    0.0468 C   0  0  0  0  0  0  0  0  0  0  0  0
   -0.6283   -1.2816    0.0601 C   0  0  0  0  0  0  0  0  0  0  0  0
   -1.4303    2.1537   -0.2571 H   0  0  0  0  0  0  0  0  0  0  0  0
    1.1371    2.2075   -0.2709 H   0  0  0  0  0  0  0  0  0  0  0  0
    1.3864   -2.0623    0.1267 H   0  0  0  0  0  0  0  0  0  0  0  0
   -1.1316   -2.2380    0.1509 H   0  0  0  0  0  0  0  0  0  0  0  0
  1  2  1  0  0  0  0
  1 11  2  0  0  0  0
  2  3  1  0  0  0  0
  4  1  1  0  0  0  0
  5  4  2  0  0  0  0
  5  6  1  0  0  0  0
  6 10  2  0  0  0  0
  7  6  1  0  0  0  0
  7  9  2  0  0  0  0
  8  7  2  0  0  0  0
 10 11  1  0  0  0  0
 10 14  1  0  0  0  0
 11 15  1  0  0  0  0
 12  4  1  0  0  0  0
 13  5  1  0  0  0  0
M  RAD  2   2   2   3   3
M  END
