Coordinates from ORCA-job 4-NO2PhN2+_B3LYPG-6-31G_dp-d09-49-n800
 OpenBabel11261918563D

 15 14  0  0  0  0  0  0  0  0999 V2000
   -1.2723   -0.3293   -0.0248 C   0  0  0  0  0  0  0  0  0  0  0  0
   -2.6546   -0.4347   -0.0125 N   0  0  0  0  0  0  0  0  0  0  0  0
   -3.7653   -0.5115   -0.0033 N   0  0  0  0  0  0  0  0  0  0  0  0
   -0.7103    0.9364   -0.1429 C   0  0  0  0  0  0  0  0  0  0  0  0
    0.6505    1.1011   -0.1616 C   0  0  0  0  0  0  0  0  0  0  0  0
    1.4154   -0.0694   -0.0564 C   0  0  0  0  0  0  0  0  0  0  0  0
    2.9103    0.0745   -0.0755 N   0  0  0  0  0  0  0  0  0  0  0  0
    3.3491    1.2086   -0.1829 O   0  0  0  0  0  0  0  0  0  0  0  0
    3.5489   -0.9641    0.0183 O   0  0  0  0  0  0  0  0  0  0  0  0
    0.8763   -1.3560    0.0639 C   0  0  0  0  0  0  0  0  0  0  0  0
   -0.4995   -1.5131    0.0823 C   0  0  0  0  0  0  0  0  0  0  0  0
   -2.6760    4.7147   -0.5026 H   0  0  0  0  0  0  0  0  0  0  0  0
    1.1545    2.0601   -0.2511 H   0  0  0  0  0  0  0  0  0  0  0  0
    1.5426   -2.2066    0.1402 H   0  0  0  0  0  0  0  0  0  0  0  0
   -0.9662   -2.4896    0.1738 H   0  0  0  0  0  0  0  0  0  0  0  0
  1  2  1  0  0  0  0
  1 11  2  0  0  0  0
  2  3  1  0  0  0  0
  4  1  1  0  0  0  0
  5  4  2  0  0  0  0
  5  6  1  0  0  0  0
  6 10  2  0  0  0  0
  7  6  1  0  0  0  0
  7  9  2  0  0  0  0
  8  7  2  0  0  0  0
 10 11  1  0  0  0  0
 10 14  1  0  0  0  0
 11 15  1  0  0  0  0
 13  5  1  0  0  0  0
M  RAD  4   2   2   3   3   4   2  12   2
M  END
