Coordinates from ORCA-job 4-NO2PhN2+_B3LYPG-6-31G_dp-d09-49-n800
 OpenBabel11261918563D

 15 14  0  0  0  0  0  0  0  0999 V2000
   -1.3236   -0.1469   -0.0433 C   0  0  0  0  0  0  0  0  0  0  0  0
   -2.7012   -0.2027   -0.0358 N   0  0  0  0  0  0  0  0  0  0  0  0
   -3.8135   -0.2501   -0.0296 N   0  0  0  0  0  0  0  0  0  0  0  0
   -0.7021    1.0965   -0.1602 C   0  0  0  0  0  0  0  0  0  0  0  0
    0.6621    1.2186   -0.1747 C   0  0  0  0  0  0  0  0  0  0  0  0
    1.3840    0.0220   -0.0652 C   0  0  0  0  0  0  0  0  0  0  0  0
    2.8796    0.1091   -0.0781 N   0  0  0  0  0  0  0  0  0  0  0  0
    3.3570    1.2278   -0.1895 O   0  0  0  0  0  0  0  0  0  0  0  0
    3.4807   -0.9504    0.0237 O   0  0  0  0  0  0  0  0  0  0  0  0
    0.7971   -1.2416    0.0540 C   0  0  0  0  0  0  0  0  0  0  0  0
   -0.5853   -1.3493    0.0671 C   0  0  0  0  0  0  0  0  0  0  0  0
   -2.0657    2.9492   -0.3307 H   0  0  0  0  0  0  0  0  0  0  0  0
    1.1863    2.1640   -0.2643 H   0  0  0  0  0  0  0  0  0  0  0  0
    1.4322   -2.1159    0.1338 H   0  0  0  0  0  0  0  0  0  0  0  0
   -1.0843   -2.3090    0.1577 H   0  0  0  0  0  0  0  0  0  0  0  0
  1  2  1  0  0  0  0
  1 11  2  0  0  0  0
  2  3  1  0  0  0  0
  4  1  1  0  0  0  0
  5  4  2  0  0  0  0
  5  6  1  0  0  0  0
  6 10  2  0  0  0  0
  7  6  1  0  0  0  0
  7  9  2  0  0  0  0
  8  7  2  0  0  0  0
 10 11  1  0  0  0  0
 10 14  1  0  0  0  0
 11 15  1  0  0  0  0
 13  5  1  0  0  0  0
M  RAD  4   2   2   3   3   4   2  12   2
M  END
