Coordinates from ORCA-job 4-NO2PhN2+_B3LYPG-6-31G_dp-d09-49-n800
 OpenBabel11261918563D

 15 15  0  0  0  0  0  0  0  0999 V2000
   -1.3555   -0.0860   -0.0491 C   0  0  0  0  0  0  0  0  0  0  0  0
   -2.7338   -0.1631   -0.0395 N   0  0  0  0  0  0  0  0  0  0  0  0
   -3.8461   -0.2259   -0.0316 N   0  0  0  0  0  0  0  0  0  0  0  0
   -0.7660    1.1869   -0.1687 C   0  0  0  0  0  0  0  0  0  0  0  0
    0.6168    1.2598   -0.1788 C   0  0  0  0  0  0  0  0  0  0  0  0
    1.3440    0.0724   -0.0701 C   0  0  0  0  0  0  0  0  0  0  0  0
    2.8356    0.1582   -0.0824 N   0  0  0  0  0  0  0  0  0  0  0  0
    3.3133    1.2777   -0.1952 O   0  0  0  0  0  0  0  0  0  0  0  0
    3.4399   -0.8997    0.0209 O   0  0  0  0  0  0  0  0  0  0  0  0
    0.7588   -1.1896    0.0491 C   0  0  0  0  0  0  0  0  0  0  0  0
   -0.6246   -1.2877    0.0611 C   0  0  0  0  0  0  0  0  0  0  0  0
   -1.4831    2.2253   -0.2636 H   0  0  0  0  0  0  0  0  0  0  0  0
    1.1410    2.2041   -0.2682 H   0  0  0  0  0  0  0  0  0  0  0  0
    1.3905   -2.0666    0.1295 H   0  0  0  0  0  0  0  0  0  0  0  0
   -1.1273   -2.2445    0.1514 H   0  0  0  0  0  0  0  0  0  0  0  0
  1  2  1  0  0  0  0
  1 11  2  0  0  0  0
  2  3  1  0  0  0  0
  4  1  1  0  0  0  0
  5  4  2  0  0  0  0
  5  6  1  0  0  0  0
  6 10  2  0  0  0  0
  7  6  1  0  0  0  0
  7  9  2  0  0  0  0
  8  7  2  0  0  0  0
 10 11  1  0  0  0  0
 10 14  1  0  0  0  0
 11 15  1  0  0  0  0
 12  4  1  0  0  0  0
 13  5  1  0  0  0  0
M  RAD  2   2   2   3   3
M  END
