Coordinates from ORCA-job 4-NO2PhN2+_B3LYPG-6-31G_dp-d09-49-n800
 OpenBabel11261918563D

 15 14  0  0  0  0  0  0  0  0999 V2000
   -1.3101   -0.1650   -0.0416 C   0  0  0  0  0  0  0  0  0  0  0  0
   -2.6890   -0.2191   -0.0342 N   0  0  0  0  0  0  0  0  0  0  0  0
   -3.8013   -0.2647   -0.0281 N   0  0  0  0  0  0  0  0  0  0  0  0
   -0.6868    1.0752   -0.1581 C   0  0  0  0  0  0  0  0  0  0  0  0
    0.6751    1.2022   -0.1731 C   0  0  0  0  0  0  0  0  0  0  0  0
    1.3968    0.0045   -0.0636 C   0  0  0  0  0  0  0  0  0  0  0  0
    2.8938    0.0931   -0.0767 N   0  0  0  0  0  0  0  0  0  0  0  0
    3.3708    1.2115   -0.1880 O   0  0  0  0  0  0  0  0  0  0  0  0
    3.4944   -0.9666    0.0252 O   0  0  0  0  0  0  0  0  0  0  0  0
    0.8100   -1.2596    0.0555 C   0  0  0  0  0  0  0  0  0  0  0  0
   -0.5720   -1.3685    0.0688 C   0  0  0  0  0  0  0  0  0  0  0  0
   -2.2544    3.1931   -0.3535 H   0  0  0  0  0  0  0  0  0  0  0  0
    1.2017    2.1472   -0.2625 H   0  0  0  0  0  0  0  0  0  0  0  0
    1.4454   -2.1336    0.1353 H   0  0  0  0  0  0  0  0  0  0  0  0
   -1.0710   -2.3285    0.1594 H   0  0  0  0  0  0  0  0  0  0  0  0
  1  2  1  0  0  0  0
  1 11  2  0  0  0  0
  2  3  1  0  0  0  0
  4  1  1  0  0  0  0
  5  4  2  0  0  0  0
  5  6  1  0  0  0  0
  6 10  2  0  0  0  0
  7  6  1  0  0  0  0
  7  9  2  0  0  0  0
  8  7  2  0  0  0  0
 10 11  1  0  0  0  0
 10 14  1  0  0  0  0
 11 15  1  0  0  0  0
 13  5  1  0  0  0  0
M  RAD  4   2   2   3   3   4   2  12   2
M  END
