Coordinates from ORCA-job 4-NO2PhN2+_B3LYPG-6-31G_dp-d09-49-n800
 OpenBabel11261918563D

 15 14  0  0  0  0  0  0  0  0999 V2000
   -1.3128   -0.1614   -0.0419 C   0  0  0  0  0  0  0  0  0  0  0  0
   -2.6914   -0.2156   -0.0346 N   0  0  0  0  0  0  0  0  0  0  0  0
   -3.8037   -0.2614   -0.0285 N   0  0  0  0  0  0  0  0  0  0  0  0
   -0.6895    1.0791   -0.1585 C   0  0  0  0  0  0  0  0  0  0  0  0
    0.6728    1.2055   -0.1734 C   0  0  0  0  0  0  0  0  0  0  0  0
    1.3944    0.0079   -0.0639 C   0  0  0  0  0  0  0  0  0  0  0  0
    2.8911    0.0961   -0.0769 N   0  0  0  0  0  0  0  0  0  0  0  0
    3.3682    1.2146   -0.1884 O   0  0  0  0  0  0  0  0  0  0  0  0
    3.4917   -0.9636    0.0248 O   0  0  0  0  0  0  0  0  0  0  0  0
    0.8075   -1.2560    0.0553 C   0  0  0  0  0  0  0  0  0  0  0  0
   -0.5746   -1.3647    0.0685 C   0  0  0  0  0  0  0  0  0  0  0  0
   -2.2185    3.1448   -0.3490 H   0  0  0  0  0  0  0  0  0  0  0  0
    1.1989    2.1506   -0.2628 H   0  0  0  0  0  0  0  0  0  0  0  0
    1.4428   -2.1301    0.1351 H   0  0  0  0  0  0  0  0  0  0  0  0
   -1.0736   -2.3247    0.1590 H   0  0  0  0  0  0  0  0  0  0  0  0
  1  2  1  0  0  0  0
  1 11  2  0  0  0  0
  2  3  1  0  0  0  0
  4  1  1  0  0  0  0
  5  4  2  0  0  0  0
  5  6  1  0  0  0  0
  6 10  2  0  0  0  0
  7  6  1  0  0  0  0
  7  9  2  0  0  0  0
  8  7  2  0  0  0  0
 10 11  1  0  0  0  0
 10 14  1  0  0  0  0
 11 15  1  0  0  0  0
 13  5  1  0  0  0  0
M  RAD  4   2   2   3   3   4   2  12   2
M  END
