Coordinates from ORCA-job 4-NO2PhN2+_B3LYPG-6-31G_dp-d09-49-n800
 OpenBabel11261918563D

 15 14  0  0  0  0  0  0  0  0999 V2000
   -1.2716   -0.3023   -0.0274 C   0  0  0  0  0  0  0  0  0  0  0  0
   -2.6541   -0.3967   -0.0166 N   0  0  0  0  0  0  0  0  0  0  0  0
   -3.7655   -0.4657   -0.0104 N   0  0  0  0  0  0  0  0  0  0  0  0
   -0.6977    0.9589   -0.1449 C   0  0  0  0  0  0  0  0  0  0  0  0
    0.6643    1.1131   -0.1619 C   0  0  0  0  0  0  0  0  0  0  0  0
    1.4192   -0.0641   -0.0556 C   0  0  0  0  0  0  0  0  0  0  0  0
    2.9152    0.0674   -0.0726 N   0  0  0  0  0  0  0  0  0  0  0  0
    3.3632    1.1973   -0.1862 O   0  0  0  0  0  0  0  0  0  0  0  0
    3.5449   -0.9769    0.0175 O   0  0  0  0  0  0  0  0  0  0  0  0
    0.8692   -1.3459    0.0640 C   0  0  0  0  0  0  0  0  0  0  0  0
   -0.5078   -1.4919    0.0807 C   0  0  0  0  0  0  0  0  0  0  0  0
   -2.6978    4.5265   -0.4838 H   0  0  0  0  0  0  0  0  0  0  0  0
    1.1760    2.0679   -0.2509 H   0  0  0  0  0  0  0  0  0  0  0  0
    1.5283   -2.2020    0.1412 H   0  0  0  0  0  0  0  0  0  0  0  0
   -0.9824   -2.4646    0.1717 H   0  0  0  0  0  0  0  0  0  0  0  0
  1  2  1  0  0  0  0
  1 11  2  0  0  0  0
  2  3  1  0  0  0  0
  4  1  1  0  0  0  0
  5  4  2  0  0  0  0
  5  6  1  0  0  0  0
  6 10  2  0  0  0  0
  7  6  1  0  0  0  0
  7  9  2  0  0  0  0
  8  7  2  0  0  0  0
 10 11  1  0  0  0  0
 10 14  1  0  0  0  0
 11 15  1  0  0  0  0
 13  5  1  0  0  0  0
M  RAD  4   2   2   3   3   4   2  12   2
M  END
