Coordinates from ORCA-job 4-NO2PhN2+_B3LYPG-6-31G_dp-d09-49-n800
 OpenBabel11261918563D

 15 14  0  0  0  0  0  0  0  0999 V2000
   -1.3243   -0.1458   -0.0434 C   0  0  0  0  0  0  0  0  0  0  0  0
   -2.7019   -0.2018   -0.0359 N   0  0  0  0  0  0  0  0  0  0  0  0
   -3.8142   -0.2494   -0.0297 N   0  0  0  0  0  0  0  0  0  0  0  0
   -0.7032    1.0978   -0.1604 C   0  0  0  0  0  0  0  0  0  0  0  0
    0.6613    1.2195   -0.1748 C   0  0  0  0  0  0  0  0  0  0  0  0
    1.3832    0.0230   -0.0652 C   0  0  0  0  0  0  0  0  0  0  0  0
    2.8787    0.1100   -0.0783 N   0  0  0  0  0  0  0  0  0  0  0  0
    3.3561    1.2287   -0.1896 O   0  0  0  0  0  0  0  0  0  0  0  0
    3.4799   -0.9494    0.0236 O   0  0  0  0  0  0  0  0  0  0  0  0
    0.7963   -1.2405    0.0539 C   0  0  0  0  0  0  0  0  0  0  0  0
   -0.5860   -1.3481    0.0670 C   0  0  0  0  0  0  0  0  0  0  0  0
   -2.0543    2.9350   -0.3294 H   0  0  0  0  0  0  0  0  0  0  0  0
    1.1853    2.1650   -0.2644 H   0  0  0  0  0  0  0  0  0  0  0  0
    1.4314   -2.1149    0.1337 H   0  0  0  0  0  0  0  0  0  0  0  0
   -1.0850   -2.3078    0.1576 H   0  0  0  0  0  0  0  0  0  0  0  0
  1  2  1  0  0  0  0
  1 11  2  0  0  0  0
  2  3  1  0  0  0  0
  4  1  1  0  0  0  0
  5  4  2  0  0  0  0
  5  6  1  0  0  0  0
  6 10  2  0  0  0  0
  7  6  1  0  0  0  0
  7  9  2  0  0  0  0
  8  7  2  0  0  0  0
 10 11  1  0  0  0  0
 10 14  1  0  0  0  0
 11 15  1  0  0  0  0
 13  5  1  0  0  0  0
M  RAD  4   2   2   3   3   4   2  12   2
M  END
