Coordinates from ORCA-job 4-NO2PhN2+_B3LYPG-6-31G_dp-d09-49-n800
 OpenBabel11261918563D

 15 14  0  0  0  0  0  0  0  0999 V2000
   -1.2892   -0.2004   -0.0381 C   0  0  0  0  0  0  0  0  0  0  0  0
   -2.6702   -0.2601   -0.0301 N   0  0  0  0  0  0  0  0  0  0  0  0
   -3.7825   -0.3083   -0.0236 N   0  0  0  0  0  0  0  0  0  0  0  0
   -0.6735    1.0415   -0.1547 C   0  0  0  0  0  0  0  0  0  0  0  0
    0.6879    1.1720   -0.1700 C   0  0  0  0  0  0  0  0  0  0  0  0
    1.4137   -0.0238   -0.0610 C   0  0  0  0  0  0  0  0  0  0  0  0
    2.9118    0.0713   -0.0748 N   0  0  0  0  0  0  0  0  0  0  0  0
    3.3853    1.1909   -0.1856 O   0  0  0  0  0  0  0  0  0  0  0  0
    3.5155   -0.9868    0.0264 O   0  0  0  0  0  0  0  0  0  0  0  0
    0.8316   -1.2906    0.0583 C   0  0  0  0  0  0  0  0  0  0  0  0
   -0.5495   -1.4042    0.0721 C   0  0  0  0  0  0  0  0  0  0  0  0
   -2.5175    3.6308   -0.3953 H   0  0  0  0  0  0  0  0  0  0  0  0
    1.2164    2.1169   -0.2592 H   0  0  0  0  0  0  0  0  0  0  0  0
    1.4698   -2.1625    0.1376 H   0  0  0  0  0  0  0  0  0  0  0  0
   -1.0463   -2.3657    0.1627 H   0  0  0  0  0  0  0  0  0  0  0  0
  1  2  1  0  0  0  0
  1 11  2  0  0  0  0
  2  3  1  0  0  0  0
  4  1  1  0  0  0  0
  5  4  2  0  0  0  0
  5  6  1  0  0  0  0
  6 10  2  0  0  0  0
  7  6  1  0  0  0  0
  7  9  2  0  0  0  0
  8  7  2  0  0  0  0
 10 11  1  0  0  0  0
 10 14  1  0  0  0  0
 11 15  1  0  0  0  0
 13  5  1  0  0  0  0
M  RAD  4   2   2   3   3   4   2  12   2
M  END
