Coordinates from ORCA-job 4-NO2PhN2+_B3LYPG-6-31G_dp-d09-49-n800
 OpenBabel11261918563D

 15 14  0  0  0  0  0  0  0  0999 V2000
   -1.2751   -0.3829   -0.0194 C   0  0  0  0  0  0  0  0  0  0  0  0
   -2.6561   -0.5110   -0.0051 N   0  0  0  0  0  0  0  0  0  0  0  0
   -3.7656   -0.6038    0.0053 N   0  0  0  0  0  0  0  0  0  0  0  0
   -0.7372    0.8928   -0.1386 C   0  0  0  0  0  0  0  0  0  0  0  0
    0.6214    1.0789   -0.1592 C   0  0  0  0  0  0  0  0  0  0  0  0
    1.4064   -0.0781   -0.0556 C   0  0  0  0  0  0  0  0  0  0  0  0
    2.8985    0.0909   -0.0774 N   0  0  0  0  0  0  0  0  0  0  0  0
    3.3184    1.2324   -0.1830 O   0  0  0  0  0  0  0  0  0  0  0  0
    3.5551   -0.9369    0.0131 O   0  0  0  0  0  0  0  0  0  0  0  0
    0.8895   -1.3739    0.0657 C   0  0  0  0  0  0  0  0  0  0  0  0
   -0.4833   -1.5542    0.0865 C   0  0  0  0  0  0  0  0  0  0  0  0
   -2.6153    5.0725   -0.5377 H   0  0  0  0  0  0  0  0  0  0  0  0
    1.1098    2.0460   -0.2495 H   0  0  0  0  0  0  0  0  0  0  0  0
    1.5702   -2.2131    0.1407 H   0  0  0  0  0  0  0  0  0  0  0  0
   -0.9334   -2.5383    0.1788 H   0  0  0  0  0  0  0  0  0  0  0  0
  1  2  1  0  0  0  0
  1 11  2  0  0  0  0
  2  3  1  0  0  0  0
  4  1  1  0  0  0  0
  5  4  2  0  0  0  0
  5  6  1  0  0  0  0
  6 10  2  0  0  0  0
  7  6  1  0  0  0  0
  7  9  2  0  0  0  0
  8  7  2  0  0  0  0
 10 11  1  0  0  0  0
 10 14  1  0  0  0  0
 11 15  1  0  0  0  0
 13  5  1  0  0  0  0
M  RAD  4   2   2   3   3   4   2  12   2
M  END
