Coordinates from ORCA-job 4-NO2PhN2+_B3LYPG-6-31G_dp-d09-49-n800
 OpenBabel11261918563D

 15 14  0  0  0  0  0  0  0  0999 V2000
   -1.2732   -0.2678   -0.0313 C   0  0  0  0  0  0  0  0  0  0  0  0
   -2.6560   -0.3487   -0.0213 N   0  0  0  0  0  0  0  0  0  0  0  0
   -3.7677   -0.4091   -0.0138 N   0  0  0  0  0  0  0  0  0  0  0  0
   -0.6840    0.9858   -0.1488 C   0  0  0  0  0  0  0  0  0  0  0  0
    0.6779    1.1298   -0.1654 C   0  0  0  0  0  0  0  0  0  0  0  0
    1.4214   -0.0547   -0.0580 C   0  0  0  0  0  0  0  0  0  0  0  0
    2.9186    0.0626   -0.0742 N   0  0  0  0  0  0  0  0  0  0  0  0
    3.3769    1.1886   -0.1836 O   0  0  0  0  0  0  0  0  0  0  0  0
    3.5380   -0.9870    0.0238 O   0  0  0  0  0  0  0  0  0  0  0  0
    0.8588   -1.3309    0.0619 C   0  0  0  0  0  0  0  0  0  0  0  0
   -0.5198   -1.4638    0.0777 C   0  0  0  0  0  0  0  0  0  0  0  0
   -2.6909    4.2613   -0.4564 H   0  0  0  0  0  0  0  0  0  0  0  0
    1.1973    2.0804   -0.2547 H   0  0  0  0  0  0  0  0  0  0  0  0
    1.5096   -2.1933    0.1399 H   0  0  0  0  0  0  0  0  0  0  0  0
   -1.0036   -2.4320    0.1688 H   0  0  0  0  0  0  0  0  0  0  0  0
  1  2  1  0  0  0  0
  1 11  2  0  0  0  0
  2  3  1  0  0  0  0
  4  1  1  0  0  0  0
  5  4  2  0  0  0  0
  5  6  1  0  0  0  0
  6 10  2  0  0  0  0
  7  6  1  0  0  0  0
  7  9  2  0  0  0  0
  8  7  2  0  0  0  0
 10 11  1  0  0  0  0
 10 14  1  0  0  0  0
 11 15  1  0  0  0  0
 13  5  1  0  0  0  0
M  RAD  4   2   2   3   3   4   2  12   2
M  END
