Coordinates from ORCA-job 4-NO2PhN2+_B3LYPG-6-31G_dp-d09-49-n800
 OpenBabel11261918563D

 15 14  0  0  0  0  0  0  0  0999 V2000
   -1.2947   -0.1892   -0.0389 C   0  0  0  0  0  0  0  0  0  0  0  0
   -2.6752   -0.2462   -0.0305 N   0  0  0  0  0  0  0  0  0  0  0  0
   -3.7875   -0.2929   -0.0253 N   0  0  0  0  0  0  0  0  0  0  0  0
   -0.6752    1.0512   -0.1557 C   0  0  0  0  0  0  0  0  0  0  0  0
    0.6862    1.1811   -0.1715 C   0  0  0  0  0  0  0  0  0  0  0  0
    1.4099   -0.0161   -0.0625 C   0  0  0  0  0  0  0  0  0  0  0  0
    2.9079    0.0760   -0.0767 N   0  0  0  0  0  0  0  0  0  0  0  0
    3.3831    1.1953   -0.1845 O   0  0  0  0  0  0  0  0  0  0  0  0
    3.5099   -0.9827    0.0279 O   0  0  0  0  0  0  0  0  0  0  0  0
    0.8255   -1.2816    0.0569 C   0  0  0  0  0  0  0  0  0  0  0  0
   -0.5559   -1.3934    0.0711 C   0  0  0  0  0  0  0  0  0  0  0  0
   -2.4544    3.5028   -0.3829 H   0  0  0  0  0  0  0  0  0  0  0  0
    1.2148    2.1257   -0.2610 H   0  0  0  0  0  0  0  0  0  0  0  0
    1.4625   -2.1545    0.1362 H   0  0  0  0  0  0  0  0  0  0  0  0
   -1.0536   -2.3543    0.1620 H   0  0  0  0  0  0  0  0  0  0  0  0
  1  2  1  0  0  0  0
  1 11  2  0  0  0  0
  2  3  1  0  0  0  0
  4  1  1  0  0  0  0
  5  4  2  0  0  0  0
  5  6  1  0  0  0  0
  6 10  2  0  0  0  0
  7  6  1  0  0  0  0
  7  9  2  0  0  0  0
  8  7  2  0  0  0  0
 10 11  1  0  0  0  0
 10 14  1  0  0  0  0
 11 15  1  0  0  0  0
 13  5  1  0  0  0  0
M  RAD  4   2   2   3   3   4   2  12   2
M  END
