Coordinates from ORCA-job 4-NO2PhN2+_B3LYPG-6-31G_dp-d09-49-n800
 OpenBabel11261918563D

 15 14  0  0  0  0  0  0  0  0999 V2000
   -1.3029   -0.1749   -0.0406 C   0  0  0  0  0  0  0  0  0  0  0  0
   -2.6825   -0.2295   -0.0331 N   0  0  0  0  0  0  0  0  0  0  0  0
   -3.7948   -0.2747   -0.0270 N   0  0  0  0  0  0  0  0  0  0  0  0
   -0.6805    1.0648   -0.1571 C   0  0  0  0  0  0  0  0  0  0  0  0
    0.6809    1.1931   -0.1722 C   0  0  0  0  0  0  0  0  0  0  0  0
    1.4030   -0.0047   -0.0628 C   0  0  0  0  0  0  0  0  0  0  0  0
    2.9006    0.0851   -0.0760 N   0  0  0  0  0  0  0  0  0  0  0  0
    3.3771    1.2036   -0.1871 O   0  0  0  0  0  0  0  0  0  0  0  0
    3.5014   -0.9745    0.0258 O   0  0  0  0  0  0  0  0  0  0  0  0
    0.8169   -1.2693    0.0563 C   0  0  0  0  0  0  0  0  0  0  0  0
   -0.5649   -1.3790    0.0697 C   0  0  0  0  0  0  0  0  0  0  0  0
   -2.3487    3.3256   -0.3663 H   0  0  0  0  0  0  0  0  0  0  0  0
    1.2088    2.1377   -0.2614 H   0  0  0  0  0  0  0  0  0  0  0  0
    1.4527   -2.1430    0.1360 H   0  0  0  0  0  0  0  0  0  0  0  0
   -1.0638   -2.3392    0.1603 H   0  0  0  0  0  0  0  0  0  0  0  0
  1  2  1  0  0  0  0
  1 11  2  0  0  0  0
  2  3  1  0  0  0  0
  4  1  1  0  0  0  0
  5  4  2  0  0  0  0
  5  6  1  0  0  0  0
  6 10  2  0  0  0  0
  7  6  1  0  0  0  0
  7  9  2  0  0  0  0
  8  7  2  0  0  0  0
 10 11  1  0  0  0  0
 10 14  1  0  0  0  0
 11 15  1  0  0  0  0
 13  5  1  0  0  0  0
M  RAD  4   2   2   3   3   4   2  12   2
M  END
