Coordinates from ORCA-job 4-NO2PhN2+_B3LYPG-6-31G_dp-d09-49-n800
 OpenBabel11261918563D

 15 14  0  0  0  0  0  0  0  0999 V2000
   -1.3469   -0.1069   -0.0471 C   0  0  0  0  0  0  0  0  0  0  0  0
   -2.7240   -0.1761   -0.0384 N   0  0  0  0  0  0  0  0  0  0  0  0
   -3.8363   -0.2336   -0.0313 N   0  0  0  0  0  0  0  0  0  0  0  0
   -0.7446    1.1546   -0.1657 C   0  0  0  0  0  0  0  0  0  0  0  0
    0.6314    1.2477   -0.1775 C   0  0  0  0  0  0  0  0  0  0  0  0
    1.3563    0.0569   -0.0685 C   0  0  0  0  0  0  0  0  0  0  0  0
    2.8489    0.1425   -0.0811 N   0  0  0  0  0  0  0  0  0  0  0  0
    3.3267    1.2618   -0.1935 O   0  0  0  0  0  0  0  0  0  0  0  0
    3.4523   -0.9158    0.0216 O   0  0  0  0  0  0  0  0  0  0  0  0
    0.7708   -1.2059    0.0507 C   0  0  0  0  0  0  0  0  0  0  0  0
   -0.6122   -1.3081    0.0632 C   0  0  0  0  0  0  0  0  0  0  0  0
   -1.6646    2.4593   -0.2851 H   0  0  0  0  0  0  0  0  0  0  0  0
    1.1540    2.1927   -0.2671 H   0  0  0  0  0  0  0  0  0  0  0  0
    1.4042   -2.0815    0.1309 H   0  0  0  0  0  0  0  0  0  0  0  0
   -1.1127   -2.2663    0.1536 H   0  0  0  0  0  0  0  0  0  0  0  0
  1  2  1  0  0  0  0
  1 11  2  0  0  0  0
  2  3  1  0  0  0  0
  4  1  1  0  0  0  0
  5  4  2  0  0  0  0
  5  6  1  0  0  0  0
  6 10  2  0  0  0  0
  7  6  1  0  0  0  0
  7  9  2  0  0  0  0
  8  7  2  0  0  0  0
 10 11  1  0  0  0  0
 10 14  1  0  0  0  0
 11 15  1  0  0  0  0
 13  5  1  0  0  0  0
M  RAD  4   2   2   3   3   4   2  12   2
M  END
