Coordinates from ORCA-job 4-NO2PhN2+_B3LYPG-6-31G_dp-d09-49-n800
 OpenBabel11261918563D

 15 14  0  0  0  0  0  0  0  0999 V2000
   -1.2755   -0.3881   -0.0186 C   0  0  0  0  0  0  0  0  0  0  0  0
   -2.6564   -0.5184   -0.0038 N   0  0  0  0  0  0  0  0  0  0  0  0
   -3.7658   -0.6129    0.0071 N   0  0  0  0  0  0  0  0  0  0  0  0
   -0.7399    0.8886   -0.1373 C   0  0  0  0  0  0  0  0  0  0  0  0
    0.6184    1.0770   -0.1582 C   0  0  0  0  0  0  0  0  0  0  0  0
    1.4054   -0.0788   -0.0553 C   0  0  0  0  0  0  0  0  0  0  0  0
    2.8972    0.0927   -0.0775 N   0  0  0  0  0  0  0  0  0  0  0  0
    3.3152    1.2350   -0.1826 O   0  0  0  0  0  0  0  0  0  0  0  0
    3.5555   -0.9341    0.0118 O   0  0  0  0  0  0  0  0  0  0  0  0
    0.8907   -1.3755    0.0654 C   0  0  0  0  0  0  0  0  0  0  0  0
   -0.4818   -1.5582    0.0865 C   0  0  0  0  0  0  0  0  0  0  0  0
   -2.6074    5.1055   -0.5430 H   0  0  0  0  0  0  0  0  0  0  0  0
    1.1051    2.0449   -0.2480 H   0  0  0  0  0  0  0  0  0  0  0  0
    1.5728   -2.2135    0.1397 H   0  0  0  0  0  0  0  0  0  0  0  0
   -0.9301   -2.5432    0.1784 H   0  0  0  0  0  0  0  0  0  0  0  0
  1  2  1  0  0  0  0
  1 11  2  0  0  0  0
  2  3  1  0  0  0  0
  4  1  1  0  0  0  0
  5  4  2  0  0  0  0
  5  6  1  0  0  0  0
  6 10  2  0  0  0  0
  7  6  1  0  0  0  0
  7  9  2  0  0  0  0
  8  7  2  0  0  0  0
 10 11  1  0  0  0  0
 10 14  1  0  0  0  0
 11 15  1  0  0  0  0
 13  5  1  0  0  0  0
M  RAD  4   2   2   3   3   4   2  12   2
M  END
