Coordinates from ORCA-job 4-NO2PhN2+_B3LYPG-6-31G_dp-d09-49-n800
 OpenBabel11261918563D

 15 15  0  0  0  0  0  0  0  0999 V2000
   -1.3502   -0.0991   -0.0477 C   0  0  0  0  0  0  0  0  0  0  0  0
   -2.7277   -0.1715   -0.0378 N   0  0  0  0  0  0  0  0  0  0  0  0
   -3.8400   -0.2311   -0.0298 N   0  0  0  0  0  0  0  0  0  0  0  0
   -0.7528    1.1667   -0.1671 C   0  0  0  0  0  0  0  0  0  0  0  0
    0.6259    1.2521   -0.1791 C   0  0  0  0  0  0  0  0  0  0  0  0
    1.3516    0.0626   -0.0706 C   0  0  0  0  0  0  0  0  0  0  0  0
    2.8438    0.1481   -0.0842 N   0  0  0  0  0  0  0  0  0  0  0  0
    3.3216    1.2681   -0.1907 O   0  0  0  0  0  0  0  0  0  0  0  0
    3.4476   -0.9095    0.0248 O   0  0  0  0  0  0  0  0  0  0  0  0
    0.7663   -1.1999    0.0490 C   0  0  0  0  0  0  0  0  0  0  0  0
   -0.6168   -1.3005    0.0622 C   0  0  0  0  0  0  0  0  0  0  0  0
   -1.5959    2.3728   -0.2770 H   0  0  0  0  0  0  0  0  0  0  0  0
    1.1490    2.1967   -0.2690 H   0  0  0  0  0  0  0  0  0  0  0  0
    1.3991   -2.0761    0.1289 H   0  0  0  0  0  0  0  0  0  0  0  0
   -1.1181   -2.2582    0.1529 H   0  0  0  0  0  0  0  0  0  0  0  0
  1  2  1  0  0  0  0
  1 11  2  0  0  0  0
  2  3  1  0  0  0  0
  4  1  1  0  0  0  0
  5  4  2  0  0  0  0
  5  6  1  0  0  0  0
  6 10  2  0  0  0  0
  7  6  1  0  0  0  0
  7  9  2  0  0  0  0
  8  7  2  0  0  0  0
 10 11  1  0  0  0  0
 10 14  1  0  0  0  0
 11 15  1  0  0  0  0
 12  4  1  0  0  0  0
 13  5  1  0  0  0  0
M  RAD  2   2   2   3   3
M  END
