Coordinates from ORCA-job 4-NO2PhN2+_B3LYPG-6-31G_dp-d09-49-n800
 OpenBabel11261918563D

 15 14  0  0  0  0  0  0  0  0999 V2000
   -1.2890   -0.2008   -0.0381 C   0  0  0  0  0  0  0  0  0  0  0  0
   -2.6701   -0.2606   -0.0300 N   0  0  0  0  0  0  0  0  0  0  0  0
   -3.7824   -0.3089   -0.0236 N   0  0  0  0  0  0  0  0  0  0  0  0
   -0.6735    1.0412   -0.1547 C   0  0  0  0  0  0  0  0  0  0  0  0
    0.6879    1.1717   -0.1700 C   0  0  0  0  0  0  0  0  0  0  0  0
    1.4138   -0.0240   -0.0610 C   0  0  0  0  0  0  0  0  0  0  0  0
    2.9119    0.0712   -0.0747 N   0  0  0  0  0  0  0  0  0  0  0  0
    3.3854    1.1908   -0.1856 O   0  0  0  0  0  0  0  0  0  0  0  0
    3.5157   -0.9869    0.0264 O   0  0  0  0  0  0  0  0  0  0  0  0
    0.8318   -1.2909    0.0583 C   0  0  0  0  0  0  0  0  0  0  0  0
   -0.5493   -1.4046    0.0721 C   0  0  0  0  0  0  0  0  0  0  0  0
   -2.5193    3.6353   -0.3957 H   0  0  0  0  0  0  0  0  0  0  0  0
    1.2164    2.1166   -0.2592 H   0  0  0  0  0  0  0  0  0  0  0  0
    1.4701   -2.1627    0.1377 H   0  0  0  0  0  0  0  0  0  0  0  0
   -1.0460   -2.3661    0.1628 H   0  0  0  0  0  0  0  0  0  0  0  0
  1  2  1  0  0  0  0
  1 11  2  0  0  0  0
  2  3  1  0  0  0  0
  4  1  1  0  0  0  0
  5  4  2  0  0  0  0
  5  6  1  0  0  0  0
  6 10  2  0  0  0  0
  7  6  1  0  0  0  0
  7  9  2  0  0  0  0
  8  7  2  0  0  0  0
 10 11  1  0  0  0  0
 10 14  1  0  0  0  0
 11 15  1  0  0  0  0
 13  5  1  0  0  0  0
M  RAD  4   2   2   3   3   4   2  12   2
M  END
