Coordinates from ORCA-job 4-NO2PhN2+_B3LYPG-6-31G_dp-d09-49-n800
 OpenBabel11261918563D

 15 14  0  0  0  0  0  0  0  0999 V2000
   -1.3299   -0.1377   -0.0443 C   0  0  0  0  0  0  0  0  0  0  0  0
   -2.7071   -0.1957   -0.0377 N   0  0  0  0  0  0  0  0  0  0  0  0
   -3.8194   -0.2450   -0.0322 N   0  0  0  0  0  0  0  0  0  0  0  0
   -0.7113    1.1087   -0.1611 C   0  0  0  0  0  0  0  0  0  0  0  0
    0.6550    1.2263   -0.1741 C   0  0  0  0  0  0  0  0  0  0  0  0
    1.3773    0.0309   -0.0641 C   0  0  0  0  0  0  0  0  0  0  0  0
    2.8722    0.1175   -0.0757 N   0  0  0  0  0  0  0  0  0  0  0  0
    3.3496    1.2356   -0.1948 O   0  0  0  0  0  0  0  0  0  0  0  0
    3.4737   -0.9424    0.0189 O   0  0  0  0  0  0  0  0  0  0  0  0
    0.7906   -1.2326    0.0545 C   0  0  0  0  0  0  0  0  0  0  0  0
   -0.5919   -1.3395    0.0665 C   0  0  0  0  0  0  0  0  0  0  0  0
   -1.9681    2.8292   -0.3195 H   0  0  0  0  0  0  0  0  0  0  0  0
    1.1781    2.1720   -0.2633 H   0  0  0  0  0  0  0  0  0  0  0  0
    1.4255   -2.1071    0.1349 H   0  0  0  0  0  0  0  0  0  0  0  0
   -1.0909   -2.2991    0.1566 H   0  0  0  0  0  0  0  0  0  0  0  0
  1  2  1  0  0  0  0
  1 11  2  0  0  0  0
  2  3  1  0  0  0  0
  4  1  1  0  0  0  0
  5  4  2  0  0  0  0
  5  6  1  0  0  0  0
  6 10  2  0  0  0  0
  7  6  1  0  0  0  0
  7  9  2  0  0  0  0
  8  7  2  0  0  0  0
 10 11  1  0  0  0  0
 10 14  1  0  0  0  0
 11 15  1  0  0  0  0
 13  5  1  0  0  0  0
M  RAD  4   2   2   3   3   4   2  12   2
M  END
