Coordinates from ORCA-job 4-NO2PhN2+_B3LYPG-6-31G_dp-d09-49-n800
 OpenBabel11261918563D

 15 15  0  0  0  0  0  0  0  0999 V2000
   -1.3601   -0.0748   -0.0502 C   0  0  0  0  0  0  0  0  0  0  0  0
   -2.7392   -0.1547   -0.0401 N   0  0  0  0  0  0  0  0  0  0  0  0
   -3.8514   -0.2190   -0.0320 N   0  0  0  0  0  0  0  0  0  0  0  0
   -0.7765    1.2030   -0.1703 C   0  0  0  0  0  0  0  0  0  0  0  0
    0.6093    1.2665   -0.1795 C   0  0  0  0  0  0  0  0  0  0  0  0
    1.3378    0.0808   -0.0708 C   0  0  0  0  0  0  0  0  0  0  0  0
    2.8289    0.1667   -0.0832 N   0  0  0  0  0  0  0  0  0  0  0  0
    3.3065    1.2864   -0.1954 O   0  0  0  0  0  0  0  0  0  0  0  0
    3.4335   -0.8911    0.0198 O   0  0  0  0  0  0  0  0  0  0  0  0
    0.7525   -1.1808    0.0482 C   0  0  0  0  0  0  0  0  0  0  0  0
   -0.6313   -1.2768    0.0601 C   0  0  0  0  0  0  0  0  0  0  0  0
   -1.3885    2.0955   -0.2521 H   0  0  0  0  0  0  0  0  0  0  0  0
    1.1338    2.2109   -0.2689 H   0  0  0  0  0  0  0  0  0  0  0  0
    1.3832   -2.0584    0.1287 H   0  0  0  0  0  0  0  0  0  0  0  0
   -1.1350   -2.2330    0.1504 H   0  0  0  0  0  0  0  0  0  0  0  0
  1  2  1  0  0  0  0
  1 11  2  0  0  0  0
  2  3  1  0  0  0  0
  4  1  1  0  0  0  0
  5  4  2  0  0  0  0
  5  6  1  0  0  0  0
  6 10  2  0  0  0  0
  7  6  1  0  0  0  0
  7  9  2  0  0  0  0
  8  7  2  0  0  0  0
 10 11  1  0  0  0  0
 10 14  1  0  0  0  0
 11 15  1  0  0  0  0
 12  4  1  0  0  0  0
 13  5  1  0  0  0  0
M  RAD  2   2   2   3   3
M  END
