23
Coordinates from ORCA-job 4-NO2PhN2+~TfO-_B3LYPG-6-31G_dp-CH-Scan-d09-49-n800
  C   -1.99611476433291     -0.20425737541871      0.54180284287303
  N   -3.10342690214302     -0.48670487049747      1.36297493548176
  N   -3.95754199154283     -0.63361980520786      2.06658538821921
  C   -1.33613218115362      0.95058742441896      0.95778230218355
  C   -0.22556134984694      1.20107386069271      0.09580107907147
  C   0.07787858464225      0.36931364412128     -0.97199156912578
  N   1.24499572056187      0.69237965821884     -1.83498965905484
  O   1.90259123200508      1.69037030086564     -1.55559902378812
  O   1.47713572172721     -0.05930439289303     -2.78206431054020
  C   -0.66134936937752     -0.78693126542202     -1.30907631129385
  C   -1.74973310611396     -1.10240287173282     -0.52887616855033
  H   -5.53391531715483      2.76163046886815     -0.80537959824040
  H   0.41587509990703      2.06279773377858      0.25834399232601
  H   -0.36261779224769     -1.38772710689478     -2.15754595954354
  H   -2.37067050362459     -1.97125911308480     -0.72564316083939
  S   -5.43126174376215      0.95981332592273     -1.96835031359299
  C   -3.85049381122975      1.20657725350993     -2.93086802844025
  O   -5.06928321875585      0.33893582251173     -0.69821373784760
  O   -6.41685134168330      0.40499905837576     -2.86996734929421
  O   -5.82382883532080      2.51346574421858     -1.70071290502421
  F   -2.97824400811417      1.86889448305862     -2.17167144767924
  F   -3.36388424524137      0.00472670911814     -3.23516143546504
  F   -4.09976587719825      1.89024131347182     -4.03997956183499
