23
Coordinates from ORCA-job 4-NO2PhN2+~TfO-_B3LYPG-6-31G_dp-CH-Scan-d09-49-n800
  C   -1.54512725765133     -0.65502479711131     -0.09467661941878
  N   -2.86441569713806     -1.10505643027963      0.08891613221613
  N   -3.93382231185907     -1.39738160251035      0.21988580928201
  C   -1.48750392474928      0.68748973616626     -0.47458154228682
  C   -0.12390170885681      1.07640135292162     -0.64204811006223
  C   0.92637632067512      0.19331637370217     -0.44122233012593
  N   2.32237513156685      0.66686712668575     -0.63800854487007
  O   2.48600394333869      1.83568508794951     -0.97457125736751
  O   3.22842259521896     -0.14238880678757     -0.44038500889812
  C   0.76114635692476     -1.15448334860018     -0.05308269646716
  C   -0.52193231963737     -1.61381346349476      0.13287680292676
  H   -4.68646153582353      2.79020451618843     -1.09888595081381
  H   0.12620347015351      2.09125174712342     -0.93789562229709
  H   1.62953781672343     -1.78342008039283      0.08801777370240
  H   -0.72911939949660     -2.63681751653834      0.43359371846524
  S   -6.28534125051788      1.56270375238502     -1.83949798850391
  C   -5.98224683055987      1.68031691479833     -3.67693472714256
  O   -5.48870738975260      0.44740961275189     -1.34449724431905
  O   -7.71111077663410      1.68052999032919     -1.62054746859022
  O   -5.60540236818623      2.96013916387243     -1.37225605216393
  F   -4.67205546680343      1.79620235644799     -3.89637897511083
  F   -6.43761104944867      0.56730048622947     -4.24783030223981
  F   -6.61750634748644      2.73616782816346     -4.17278979591464
