23
Coordinates from ORCA-job 4-NO2PhN2+~TfO-_B3LYPG-6-31G_dp-CH-Scan-d09-49-n800
  C   -2.00014702601402     -0.20923045153547      0.53755070321787
  N   -3.10673203658372     -0.49714595984688      1.35790567164306
  N   -3.96091624965626     -0.64858567527961      2.06046208948574
  C   -1.35114701454303      0.95344038670555      0.94897931378798
  C   -0.24040000909899      1.20868821003212      0.08867219214063
  C   0.07321263405988      0.37365145578053     -0.97361981015532
  N   1.24015574331210      0.70178776116588     -1.83492361921622
  O   1.89443708461015      1.70126504480126     -1.55311241748323
  O   1.48484082047787     -0.05627463585350     -2.77371080312761
  C   -0.65536963440656     -0.79048043649232     -1.30658768055331
  C   -1.74330463560868     -1.11087271350635     -0.52773088415600
  H   -5.49907670864531      2.77288241858086     -0.79881589667856
  H   0.39317068552639      2.07677067878107      0.24817941177757
  H   -0.34912625776788     -1.39326667409304     -2.15096276889850
  H   -2.35619422040269     -1.98609221687170     -0.72149294025131
  S   -5.43186217252129      0.96965990905388     -1.96366193182909
  C   -3.85221442598960      1.19682142339736     -2.93285359881802
  O   -5.07189403543207      0.33984407383222     -0.69747148302917
  O   -6.42988034041744      0.43160635039228     -2.86172686980893
  O   -5.80199812333776      2.52776659802023     -1.69065978737439
  F   -2.97129047918231      1.85522290877933     -2.18014028875609
  F   -3.37745729137554     -0.01091440782102     -3.23245625174902
  F   -4.09900630700334      1.87705595197727     -4.04462235016804
