23
Coordinates from ORCA-job 4-NO2PhN2+~TfO-_B3LYPG-6-31G_dp-CH-Scan-d09-49-n800
  C   -1.89653910196669     -0.19358681601999      0.61099337467610
  N   -3.05355663202911     -0.51881694499862      1.34319063527506
  N   -3.94692902230260     -0.71325701740767      1.98361700392750
  C   -1.21966864115030      0.88374498825074      1.17992333876146
  C   -0.05413563748027      1.17494033554951      0.40755343068382
  C   0.27920298759779      0.44462727892922     -0.72353037839566
  N   1.50591592247663      0.80200504709946     -1.48426103579181
  O   2.17625393907737      1.74561410659076     -1.07627283489828
  O   1.77332261866227      0.12893363936461     -2.47995425313386
  C   -0.48357605842636     -0.63633810794051     -1.22029025422314
  C   -1.62574093155131     -0.98300092070419     -0.53650194395298
  H   -4.78874564176966      2.81405392590606     -1.02841514893754
  H   0.60716644025017      1.98881471625340      0.69292109856546
  H   -0.15923812776394     -1.15542478695141     -2.11181628889998
  H   -2.27076985119955     -1.79453374914424     -0.85967127357324
  S   -5.53798217043097      1.00941762204283     -1.91836363517430
  C   -4.51977786423882      0.93901093143758     -3.48146566634998
  O   -4.76147796244243      0.34374243242188     -0.87755015271578
  O   -6.89725184515851      0.64494597884727     -2.25112180138748
  O   -5.50643569433428      2.61129061951731     -1.65448405413792
  F   -3.33577030685041      1.50763327066707     -3.25020338890599
  F   -4.34911650582687     -0.33979397339988     -3.80821926905445
  F   -5.14734991314225      1.57957742368878     -4.45887750235698
