23
Coordinates from ORCA-job 4-NO2PhN2+~TfO-_B3LYPG-6-31G_dp-CH-Scan-d09-49-n800
  C   -1.46076403627981     -0.56456152038930      0.01680442398199
  N   -2.80155223188098     -0.92141989875151      0.25478652503124
  N   -3.88419143986529     -1.12649382455736      0.43588226818828
  C   -1.32555699954642      0.79230418550164     -0.27672504005535
  C   0.05162583643203      1.09373125895726     -0.50603599827612
  C   1.04030505457746      0.12383023081827     -0.43614742499641
  N   2.45397458989434      0.50650948284532     -0.69362332963507
  O   2.68449341197136      1.67591728248209     -0.98646329666949
  O   3.30726633432736     -0.37529910329696     -0.59576498186914
  C   0.79580207686161     -1.23287609750436     -0.12687458284300
  C   -0.50473848993524     -1.61017055774671      0.11416209454866
  H   -5.24763069827854      3.04017876377560     -1.04027448190022
  H   0.36052966479856      2.10701894795911     -0.74727528691939
  H   1.62071687322836     -1.93107674671671     -0.08551745273234
  H   -0.77132754993070     -2.63382094160782      0.36187936377815
  S   -6.43295454253952      1.48484618516808     -1.92867711573041
  C   -5.99137635214354      1.71905093617541     -3.72616561913780
  O   -5.44326895757961      0.58217217433547     -1.35575327781907
  O   -7.85991333475516      1.25745770809832     -1.85106640620382
  O   -6.15281528574213      2.99413492089735     -1.39539161157553
  F   -4.73449992964509      2.15696451809553     -3.81152792174102
  F   -6.10159332444510      0.54422903687874     -4.34166098183497
  F   -6.81473066952403      2.60097305858250     -4.28136986558918
