23
Coordinates from ORCA-job 4-NO2PhN2+~TfO-_B3LYPG-6-31G_dp-CH-Scan-d09-49-n800
  C   -2.02431155316021     -0.22674984341924      0.51981916818722
  N   -3.12725890234206     -0.53772041233827      1.33697962293286
  N   -3.98024970821109     -0.70920777576297      2.03620056726773
  C   -1.42218521375288      0.96818800335482      0.90957430599670
  C   -0.30864190680149      1.23961396198803      0.05811251357799
  C   0.04925127484371      0.38904367676088     -0.97766983341225
  N   1.21828902769616      0.73407672235112     -1.82929441720509
  O   1.83900263973369      1.75785266298942     -1.55891381604838
  O   1.49068427249649     -0.02842505364783     -2.75670631916507
  C   -0.63677341897367     -0.80513499015952     -1.29321001855120
  C   -1.72453714609529     -1.14289183686493     -0.52124330357221
  H   -5.32869579003891      2.80074548872410     -0.76812615766772
  H   0.29239761016696      2.13288067730867      0.20367540903330
  H   -0.30022063059158     -1.41614541764686     -2.11992865433285
  H   -2.30674713591322     -2.04122754550969     -0.70390792873970
  S   -5.42079411798674      1.00690276982798     -1.94320322526297
  C   -3.84825749114604      1.15486571783621     -2.93897758049117
  O   -5.07554428039059      0.34091954289157     -0.69183540447492
  O   -6.46568168701502      0.54139022812999     -2.82806293445049
  O   -5.69188376618946      2.58008427845182     -1.64393629424097
  F   -2.93430733883403      1.79625588163576     -2.21064204738935
  F   -3.41980476282947     -0.07413230685084     -3.22105352166768
  F   -4.08592997466534      1.82241556994974     -4.06045013032374
