Coordinates from ORCA-job 4-NO2PhN2+~TsO-_B3LYPG-6-31G_dp-CH-Scan-d09-49-n800
 OpenBabel11261919023D

 33 33  0  0  0  0  0  0  0  0999 V2000
   -2.7960    1.0822   -0.2663 C   0  0  0  0  0  0  0  0  0  0  0  0
   -3.8952    0.2611    0.1363 N   0  0  0  0  0  0  0  0  0  0  0  0
   -5.0073    0.6940    0.3786 N   0  0  0  0  0  0  0  0  0  0  0  0
   -2.6307    1.5513   -1.5508 C   0  0  0  0  0  0  0  0  0  0  0  0
   -1.5590    2.2510   -2.0293 C   0  0  0  0  0  0  0  0  0  0  0  0
   -0.5399    2.4827   -1.0928 C   0  0  0  0  0  0  0  0  0  0  0  0
    0.6547    3.2289   -1.5250 N   0  0  0  0  0  0  0  0  0  0  0  0
    0.6921    3.6116   -2.6925 O   0  0  0  0  0  0  0  0  0  0  0  0
    1.5343    3.4210   -0.6876 O   0  0  0  0  0  0  0  0  0  0  0  0
   -0.6201    2.0278    0.2230 C   0  0  0  0  0  0  0  0  0  0  0  0
   -1.7428    1.3153    0.6360 C   0  0  0  0  0  0  0  0  0  0  0  0
   -4.5372    1.0094   -3.1266 H   0  0  0  0  0  0  0  0  0  0  0  0
   -1.4666    2.6122   -3.0454 H   0  0  0  0  0  0  0  0  0  0  0  0
    0.1978    2.2312    0.9025 H   0  0  0  0  0  0  0  0  0  0  0  0
   -1.8230    0.9407    1.6516 H   0  0  0  0  0  0  0  0  0  0  0  0
   -5.9844    5.2511    1.2551 C   0  0  0  0  0  0  0  0  0  0  0  0
   -5.7627    6.5925    0.9523 C   0  0  0  0  0  0  0  0  0  0  0  0
   -5.9226    7.0780   -0.3540 C   0  0  0  0  0  0  0  0  0  0  0  0
   -6.3130    6.1818   -1.3617 C   0  0  0  0  0  0  0  0  0  0  0  0
   -6.5408    4.8376   -1.0822 C   0  0  0  0  0  0  0  0  0  0  0  0
   -6.3689    4.3868    0.2288 C   0  0  0  0  0  0  0  0  0  0  0  0
   -5.8705    4.8766    2.2663 H   0  0  0  0  0  0  0  0  0  0  0  0
   -5.4628    7.2745    1.7428 H   0  0  0  0  0  0  0  0  0  0  0  0
   -6.4435    6.5434   -2.3778 H   0  0  0  0  0  0  0  0  0  0  0  0
   -6.8524    4.1473   -1.8579 H   0  0  0  0  0  0  0  0  0  0  0  0
   -6.6643    2.6747    0.6013 S   0  0  0  0  0  0  0  0  0  0  0  0
   -6.8655    2.4966    2.0336 O   0  0  0  0  0  0  0  0  0  0  0  0
   -5.0828    2.1470    0.2361 O   0  0  0  0  0  0  0  0  0  0  0  0
   -7.5637    2.0892   -0.3831 O   0  0  0  0  0  0  0  0  0  0  0  0
   -5.7099    8.5389   -0.6664 C   0  0  0  0  0  0  0  0  0  0  0  0
   -6.6622    9.0826   -0.6488 H   0  0  0  0  0  0  0  0  0  0  0  0
   -5.0479    9.0132    0.0634 H   0  0  0  0  0  0  0  0  0  0  0  0
   -5.2768    8.6755   -1.6617 H   0  0  0  0  0  0  0  0  0  0  0  0
  1  2  1  0  0  0  0
  1 11  2  0  0  0  0
  2  3  1  0  0  0  0
  4  1  1  0  0  0  0
  5  4  2  0  0  0  0
  5  6  1  0  0  0  0
  6 10  2  0  0  0  0
  7  6  1  0  0  0  0
  7  9  2  0  0  0  0
  8  7  2  0  0  0  0
 10 11  1  0  0  0  0
 10 14  1  0  0  0  0
 11 15  1  0  0  0  0
 13  5  1  0  0  0  0
 16 22  1  0  0  0  0
 17 16  1  0  0  0  0
 17 23  1  0  0  0  0
 18 17  2  0  0  0  0
 19 20  2  0  0  0  0
 19 18  1  0  0  0  0
 20 21  1  0  0  0  0
 21 26  1  0  0  0  0
 21 16  2  0  0  0  0
 24 19  1  0  0  0  0
 25 20  1  0  0  0  0
 26 27  2  0  0  0  0
 28  3  1  0  0  0  0
 28 26  1  0  0  0  0
 29 26  2  0  0  0  0
 30 31  1  0  0  0  0
 30 18  1  0  0  0  0
 30 32  1  0  0  0  0
 33 30  1  0  0  0  0
M  RAD  4   2   2   3   2   4   2  12   2
M  END
