Coordinates from ORCA-job 4-NO2PhN2+~TsO-_B3LYPG-6-31G_dp-CH-Scan-d09-49-n800
 OpenBabel11261919023D

 33 33  0  0  0  0  0  0  0  0999 V2000
   -2.8083    1.0749   -0.2829 C   0  0  0  0  0  0  0  0  0  0  0  0
   -3.9062    0.2581    0.1290 N   0  0  0  0  0  0  0  0  0  0  0  0
   -5.0181    0.6881    0.3702 N   0  0  0  0  0  0  0  0  0  0  0  0
   -2.6315    1.4694   -1.5956 C   0  0  0  0  0  0  0  0  0  0  0  0
   -1.5471    2.1630   -2.0693 C   0  0  0  0  0  0  0  0  0  0  0  0
   -0.5598    2.4660   -1.1228 C   0  0  0  0  0  0  0  0  0  0  0  0
    0.6322    3.2103   -1.5624 N   0  0  0  0  0  0  0  0  0  0  0  0
    0.6946    3.5322   -2.7475 O   0  0  0  0  0  0  0  0  0  0  0  0
    1.4867    3.4631   -0.7149 O   0  0  0  0  0  0  0  0  0  0  0  0
   -0.6669    2.0839    0.2138 C   0  0  0  0  0  0  0  0  0  0  0  0
   -1.7890    1.3753    0.6347 C   0  0  0  0  0  0  0  0  0  0  0  0
   -4.1677    0.9376   -2.9195 H   0  0  0  0  0  0  0  0  0  0  0  0
   -1.4321    2.4699   -3.1002 H   0  0  0  0  0  0  0  0  0  0  0  0
    0.1283    2.3398    0.9024 H   0  0  0  0  0  0  0  0  0  0  0  0
   -1.8901    1.0559    1.6667 H   0  0  0  0  0  0  0  0  0  0  0  0
   -5.9773    5.2405    1.2533 C   0  0  0  0  0  0  0  0  0  0  0  0
   -5.7523    6.5846    0.9662 C   0  0  0  0  0  0  0  0  0  0  0  0
   -5.9222    7.0882   -0.3321 C   0  0  0  0  0  0  0  0  0  0  0  0
   -6.3265    6.2073   -1.3476 C   0  0  0  0  0  0  0  0  0  0  0  0
   -6.5577    4.8604   -1.0834 C   0  0  0  0  0  0  0  0  0  0  0  0
   -6.3752    4.3911    0.2195 C   0  0  0  0  0  0  0  0  0  0  0  0
   -5.8559    4.8524    2.2584 H   0  0  0  0  0  0  0  0  0  0  0  0
   -5.4419    7.2547    1.7627 H   0  0  0  0  0  0  0  0  0  0  0  0
   -6.4654    6.5829   -2.3575 H   0  0  0  0  0  0  0  0  0  0  0  0
   -6.8809    4.1819   -1.8648 H   0  0  0  0  0  0  0  0  0  0  0  0
   -6.6737    2.6749    0.5723 S   0  0  0  0  0  0  0  0  0  0  0  0
   -6.8852    2.4834    2.0015 O   0  0  0  0  0  0  0  0  0  0  0  0
   -5.0959    2.1482    0.2098 O   0  0  0  0  0  0  0  0  0  0  0  0
   -7.5710    2.1029   -0.4228 O   0  0  0  0  0  0  0  0  0  0  0  0
   -5.7057    8.5522   -0.6267 C   0  0  0  0  0  0  0  0  0  0  0  0
   -6.6526    9.1034   -0.5739 H   0  0  0  0  0  0  0  0  0  0  0  0
   -5.0201    9.0092    0.0923 H   0  0  0  0  0  0  0  0  0  0  0  0
   -5.2991    8.7020   -1.6311 H   0  0  0  0  0  0  0  0  0  0  0  0
  1  2  1  0  0  0  0
  1 11  2  0  0  0  0
  2  3  1  0  0  0  0
  4  1  1  0  0  0  0
  5  4  2  0  0  0  0
  5  6  1  0  0  0  0
  6 10  2  0  0  0  0
  7  6  1  0  0  0  0
  7  9  2  0  0  0  0
  8  7  2  0  0  0  0
 10 11  1  0  0  0  0
 10 14  1  0  0  0  0
 11 15  1  0  0  0  0
 13  5  1  0  0  0  0
 16 22  1  0  0  0  0
 17 16  1  0  0  0  0
 17 23  1  0  0  0  0
 18 17  2  0  0  0  0
 19 20  2  0  0  0  0
 19 18  1  0  0  0  0
 20 21  1  0  0  0  0
 21 26  1  0  0  0  0
 21 16  2  0  0  0  0
 24 19  1  0  0  0  0
 25 20  1  0  0  0  0
 26 27  2  0  0  0  0
 28  3  1  0  0  0  0
 28 26  1  0  0  0  0
 29 26  2  0  0  0  0
 30 31  1  0  0  0  0
 30 18  1  0  0  0  0
 30 32  1  0  0  0  0
 33 30  1  0  0  0  0
M  RAD  4   2   2   3   2   4   2  12   2
M  END
