Coordinates from ORCA-job 4-NO2PhN2+~TsO-_B3LYPG-6-31G_dp-CH-Scan-d09-49-n800
 OpenBabel11261919023D

 33 33  0  0  0  0  0  0  0  0999 V2000
   -2.7803    1.0837   -0.2189 C   0  0  0  0  0  0  0  0  0  0  0  0
   -3.8738    0.2935    0.2491 N   0  0  0  0  0  0  0  0  0  0  0  0
   -4.9956    0.7102    0.4536 N   0  0  0  0  0  0  0  0  0  0  0  0
   -2.6970    1.4988   -1.5444 C   0  0  0  0  0  0  0  0  0  0  0  0
   -1.5937    2.1661   -2.0376 C   0  0  0  0  0  0  0  0  0  0  0  0
   -0.5454    2.4155   -1.1477 C   0  0  0  0  0  0  0  0  0  0  0  0
    0.6428    3.1324   -1.6379 N   0  0  0  0  0  0  0  0  0  0  0  0
    0.6491    3.4807   -2.8175 O   0  0  0  0  0  0  0  0  0  0  0  0
    1.5527    3.3388   -0.8364 O   0  0  0  0  0  0  0  0  0  0  0  0
   -0.5849    2.0035    0.1833 C   0  0  0  0  0  0  0  0  0  0  0  0
   -1.7036    1.3174    0.6467 C   0  0  0  0  0  0  0  0  0  0  0  0
   -3.9263    1.1739   -2.5089 H   0  0  0  0  0  0  0  0  0  0  0  0
   -1.5213    2.4958   -3.0651 H   0  0  0  0  0  0  0  0  0  0  0  0
    0.2571    2.2150    0.8301 H   0  0  0  0  0  0  0  0  0  0  0  0
   -1.7558    0.9678    1.6718 H   0  0  0  0  0  0  0  0  0  0  0  0
   -6.0360    5.2392    1.2249 C   0  0  0  0  0  0  0  0  0  0  0  0
   -5.8150    6.5887    0.9621 C   0  0  0  0  0  0  0  0  0  0  0  0
   -5.9600    7.1098   -0.3325 C   0  0  0  0  0  0  0  0  0  0  0  0
   -6.3349    6.2407   -1.3687 C   0  0  0  0  0  0  0  0  0  0  0  0
   -6.5609    4.8881   -1.1285 C   0  0  0  0  0  0  0  0  0  0  0  0
   -6.4036    4.4011    0.1706 C   0  0  0  0  0  0  0  0  0  0  0  0
   -5.9346    4.8382    2.2273 H   0  0  0  0  0  0  0  0  0  0  0  0
   -5.5273    7.2494    1.7749 H   0  0  0  0  0  0  0  0  0  0  0  0
   -6.4550    6.6299   -2.3759 H   0  0  0  0  0  0  0  0  0  0  0  0
   -6.8626    4.2184   -1.9259 H   0  0  0  0  0  0  0  0  0  0  0  0
   -6.6946    2.6768    0.4935 S   0  0  0  0  0  0  0  0  0  0  0  0
   -6.9820    2.4723    1.9078 O   0  0  0  0  0  0  0  0  0  0  0  0
   -5.1022    2.1736    0.2067 O   0  0  0  0  0  0  0  0  0  0  0  0
   -7.5350    2.1048   -0.5515 O   0  0  0  0  0  0  0  0  0  0  0  0
   -5.7488    8.5799   -0.5996 C   0  0  0  0  0  0  0  0  0  0  0  0
   -6.6922    9.1317   -0.5053 H   0  0  0  0  0  0  0  0  0  0  0  0
   -5.0415    9.0189    0.1097 H   0  0  0  0  0  0  0  0  0  0  0  0
   -5.3716    8.7529   -1.6115 H   0  0  0  0  0  0  0  0  0  0  0  0
  1  2  1  0  0  0  0
  1 11  2  0  0  0  0
  2  3  1  0  0  0  0
  4  1  1  0  0  0  0
  5  4  2  0  0  0  0
  5  6  1  0  0  0  0
  6 10  2  0  0  0  0
  7  6  1  0  0  0  0
  7  9  2  0  0  0  0
  8  7  2  0  0  0  0
 10 11  1  0  0  0  0
 10 14  1  0  0  0  0
 11 15  1  0  0  0  0
 13  5  1  0  0  0  0
 16 22  1  0  0  0  0
 17 16  1  0  0  0  0
 17 23  1  0  0  0  0
 18 17  2  0  0  0  0
 19 20  2  0  0  0  0
 19 18  1  0  0  0  0
 20 21  1  0  0  0  0
 21 26  1  0  0  0  0
 21 16  2  0  0  0  0
 24 19  1  0  0  0  0
 25 20  1  0  0  0  0
 26 27  2  0  0  0  0
 28  3  1  0  0  0  0
 28 26  1  0  0  0  0
 29 26  2  0  0  0  0
 30 31  1  0  0  0  0
 30 18  1  0  0  0  0
 30 32  1  0  0  0  0
 33 30  1  0  0  0  0
M  RAD  4   2   2   3   2   4   2  12   2
M  END
