Coordinates from ORCA-job 4-NO2PhN2+~TsO-_B3LYPG-6-31G_dp-CH-Scan-d09-49-n800
 OpenBabel11261919023D

 33 33  0  0  0  0  0  0  0  0999 V2000
   -2.2130    1.1569   -0.3404 C   0  0  0  0  0  0  0  0  0  0  0  0
   -3.4862    0.7071    0.0708 N   0  0  0  0  0  0  0  0  0  0  0  0
   -4.5070    0.3854    0.3787 N   0  0  0  0  0  0  0  0  0  0  0  0
   -2.2436    2.2644   -1.1877 C   0  0  0  0  0  0  0  0  0  0  0  0
   -0.9194    2.6362   -1.5538 C   0  0  0  0  0  0  0  0  0  0  0  0
    0.1951    1.9400   -1.1055 C   0  0  0  0  0  0  0  0  0  0  0  0
    1.5472    2.3786   -1.5359 N   0  0  0  0  0  0  0  0  0  0  0  0
    1.6224    3.3478   -2.2866 O   0  0  0  0  0  0  0  0  0  0  0  0
    2.5132    1.7439   -1.1119 O   0  0  0  0  0  0  0  0  0  0  0  0
    0.1278    0.8238   -0.2474 C   0  0  0  0  0  0  0  0  0  0  0  0
   -1.1194    0.4052    0.1602 C   0  0  0  0  0  0  0  0  0  0  0  0
   -5.2251    4.3045   -1.1142 H   0  0  0  0  0  0  0  0  0  0  0  0
   -0.7462    3.4882   -2.2058 H   0  0  0  0  0  0  0  0  0  0  0  0
    1.0366    0.3306    0.0689 H   0  0  0  0  0  0  0  0  0  0  0  0
   -1.2490   -0.4445    0.8246 H   0  0  0  0  0  0  0  0  0  0  0  0
   -7.0071    5.6232    1.1876 C   0  0  0  0  0  0  0  0  0  0  0  0
   -6.9263    6.9115    0.6702 C   0  0  0  0  0  0  0  0  0  0  0  0
   -6.5088    7.2134   -0.6663 C   0  0  0  0  0  0  0  0  0  0  0  0
   -6.1794    6.1611   -1.4742 C   0  0  0  0  0  0  0  0  0  0  0  0
   -6.2266    4.7645   -1.0010 C   0  0  0  0  0  0  0  0  0  0  0  0
   -6.6702    4.5423    0.3828 C   0  0  0  0  0  0  0  0  0  0  0  0
   -7.3522    5.4398    2.1993 H   0  0  0  0  0  0  0  0  0  0  0  0
   -7.2049    7.7451    1.3128 H   0  0  0  0  0  0  0  0  0  0  0  0
   -5.8555    6.3341   -2.4973 H   0  0  0  0  0  0  0  0  0  0  0  0
   -6.8165    4.1138   -1.6697 H   0  0  0  0  0  0  0  0  0  0  0  0
   -6.7072    2.8527    1.0335 S   0  0  0  0  0  0  0  0  0  0  0  0
   -7.7368    2.8901    2.0855 O   0  0  0  0  0  0  0  0  0  0  0  0
   -5.2966    2.7945    1.5141 O   0  0  0  0  0  0  0  0  0  0  0  0
   -6.9915    2.0235   -0.1550 O   0  0  0  0  0  0  0  0  0  0  0  0
   -6.4561    8.6496   -1.1236 C   0  0  0  0  0  0  0  0  0  0  0  0
   -7.4412    9.1234   -1.0485 H   0  0  0  0  0  0  0  0  0  0  0  0
   -5.7662    9.2335   -0.5050 H   0  0  0  0  0  0  0  0  0  0  0  0
   -6.1240    8.7236   -2.1614 H   0  0  0  0  0  0  0  0  0  0  0  0
  1  2  1  0  0  0  0
  1 11  2  0  0  0  0
  2  3  1  0  0  0  0
  4  1  1  0  0  0  0
  5  4  2  0  0  0  0
  5  6  1  0  0  0  0
  6 10  2  0  0  0  0
  7  9  2  0  0  0  0
  7  6  1  0  0  0  0
  8  7  2  0  0  0  0
 10 14  1  0  0  0  0
 10 11  1  0  0  0  0
 11 15  1  0  0  0  0
 12 20  1  0  0  0  0
 13  5  1  0  0  0  0
 16 22  1  0  0  0  0
 17 16  1  0  0  0  0
 17 23  1  0  0  0  0
 18 17  1  0  0  0  0
 19 20  1  0  0  0  0
 19 18  2  0  0  0  0
 20 21  1  0  0  0  0
 21 26  1  0  0  0  0
 21 16  2  0  0  0  0
 24 19  1  0  0  0  0
 25 20  1  0  0  0  0
 26 28  2  0  0  0  0
 26 27  1  0  0  0  0
 29 26  2  0  0  0  0
 30 31  1  0  0  0  0
 30 18  1  0  0  0  0
 30 32  1  0  0  0  0
 33 30  1  0  0  0  0
M  RAD  5   2   2   3   3   4   2  17   2  27   2
M  END
