Coordinates from ORCA-job 4-NO2PhN2+~TsO-_B3LYPG-6-31G_dp-CH-Scan-d09-49-n800
 OpenBabel11261919023D

 33 33  0  0  0  0  0  0  0  0999 V2000
   -2.8026    1.0792   -0.2773 C   0  0  0  0  0  0  0  0  0  0  0  0
   -3.9017    0.2582    0.1252 N   0  0  0  0  0  0  0  0  0  0  0  0
   -5.0134    0.6907    0.3681 N   0  0  0  0  0  0  0  0  0  0  0  0
   -2.6244    1.5153   -1.5727 C   0  0  0  0  0  0  0  0  0  0  0  0
   -1.5486    2.2136   -2.0483 C   0  0  0  0  0  0  0  0  0  0  0  0
   -0.5478    2.4793   -1.1022 C   0  0  0  0  0  0  0  0  0  0  0  0
    0.6464    3.2261   -1.5335 N   0  0  0  0  0  0  0  0  0  0  0  0
    0.6994    3.5801   -2.7096 O   0  0  0  0  0  0  0  0  0  0  0  0
    1.5115    3.4463   -0.6879 O   0  0  0  0  0  0  0  0  0  0  0  0
   -0.6450    2.0576    0.2235 C   0  0  0  0  0  0  0  0  0  0  0  0
   -1.7680    1.3456    0.6364 C   0  0  0  0  0  0  0  0  0  0  0  0
   -4.4057    0.9513   -3.0819 H   0  0  0  0  0  0  0  0  0  0  0  0
   -1.4432    2.5499   -3.0714 H   0  0  0  0  0  0  0  0  0  0  0  0
    0.1596    2.2864    0.9106 H   0  0  0  0  0  0  0  0  0  0  0  0
   -1.8612    0.9968    1.6598 H   0  0  0  0  0  0  0  0  0  0  0  0
   -5.9742    5.2463    1.2554 C   0  0  0  0  0  0  0  0  0  0  0  0
   -5.7512    6.5885    0.9577 C   0  0  0  0  0  0  0  0  0  0  0  0
   -5.9207    7.0813   -0.3446 C   0  0  0  0  0  0  0  0  0  0  0  0
   -6.3223    6.1916   -1.3536 C   0  0  0  0  0  0  0  0  0  0  0  0
   -6.5516    4.8466   -1.0791 C   0  0  0  0  0  0  0  0  0  0  0  0
   -6.3697    4.3883    0.2279 C   0  0  0  0  0  0  0  0  0  0  0  0
   -5.8529    4.8662    2.2636 H   0  0  0  0  0  0  0  0  0  0  0  0
   -5.4427    7.2655    1.7492 H   0  0  0  0  0  0  0  0  0  0  0  0
   -6.4605    6.5589   -2.3667 H   0  0  0  0  0  0  0  0  0  0  0  0
   -6.8722    4.1613   -1.8556 H   0  0  0  0  0  0  0  0  0  0  0  0
   -6.6666    2.6750    0.5940 S   0  0  0  0  0  0  0  0  0  0  0  0
   -6.8644    2.4915    2.0262 O   0  0  0  0  0  0  0  0  0  0  0  0
   -5.0883    2.1459    0.2221 O   0  0  0  0  0  0  0  0  0  0  0  0
   -7.5707    2.0956   -0.3900 O   0  0  0  0  0  0  0  0  0  0  0  0
   -5.7063    8.5432   -0.6511 C   0  0  0  0  0  0  0  0  0  0  0  0
   -6.6563    9.0903   -0.6194 H   0  0  0  0  0  0  0  0  0  0  0  0
   -5.0342    9.0110    0.0736 H   0  0  0  0  0  0  0  0  0  0  0  0
   -5.2843    8.6841   -1.6506 H   0  0  0  0  0  0  0  0  0  0  0  0
  1  2  1  0  0  0  0
  1 11  2  0  0  0  0
  2  3  1  0  0  0  0
  4  1  1  0  0  0  0
  5  4  2  0  0  0  0
  5  6  1  0  0  0  0
  6 10  2  0  0  0  0
  7  6  1  0  0  0  0
  7  9  2  0  0  0  0
  8  7  2  0  0  0  0
 10 11  1  0  0  0  0
 10 14  1  0  0  0  0
 11 15  1  0  0  0  0
 13  5  1  0  0  0  0
 16 22  1  0  0  0  0
 17 16  1  0  0  0  0
 17 23  1  0  0  0  0
 18 17  2  0  0  0  0
 19 20  2  0  0  0  0
 19 18  1  0  0  0  0
 20 21  1  0  0  0  0
 21 26  1  0  0  0  0
 21 16  2  0  0  0  0
 24 19  1  0  0  0  0
 25 20  1  0  0  0  0
 26 27  2  0  0  0  0
 28  3  1  0  0  0  0
 28 26  1  0  0  0  0
 29 26  2  0  0  0  0
 30 31  1  0  0  0  0
 30 18  1  0  0  0  0
 30 32  1  0  0  0  0
 33 30  1  0  0  0  0
M  RAD  4   2   2   3   2   4   2  12   2
M  END
