Coordinates from ORCA-job 4-NO2PhN2+~TsO-_B3LYPG-6-31G_dp-CH-Scan-d09-49-n800
 OpenBabel11261919023D

 33 34  0  0  0  0  0  0  0  0999 V2000
   -2.5882    1.1468   -0.1177 C   0  0  0  0  0  0  0  0  0  0  0  0
   -3.7513    0.5073    0.3770 N   0  0  0  0  0  0  0  0  0  0  0  0
   -4.8749    0.8770    0.5841 N   0  0  0  0  0  0  0  0  0  0  0  0
   -2.5508    2.3912   -0.7762 C   0  0  0  0  0  0  0  0  0  0  0  0
   -1.3235    2.8665   -1.2304 C   0  0  0  0  0  0  0  0  0  0  0  0
   -0.1712    2.1135   -1.0175 C   0  0  0  0  0  0  0  0  0  0  0  0
    1.1221    2.6399   -1.4981 N   0  0  0  0  0  0  0  0  0  0  0  0
    1.1132    3.7286   -2.0682 O   0  0  0  0  0  0  0  0  0  0  0  0
    2.1215    1.9543   -1.2952 O   0  0  0  0  0  0  0  0  0  0  0  0
   -0.1944    0.8795   -0.3716 C   0  0  0  0  0  0  0  0  0  0  0  0
   -1.4184    0.3927    0.0689 C   0  0  0  0  0  0  0  0  0  0  0  0
   -3.3196    2.8795   -0.9067 H   0  0  0  0  0  0  0  0  0  0  0  0
   -1.2487    3.8175   -1.7425 H   0  0  0  0  0  0  0  0  0  0  0  0
    0.7261    0.3271   -0.2339 H   0  0  0  0  0  0  0  0  0  0  0  0
   -1.4928   -0.5685    0.5639 H   0  0  0  0  0  0  0  0  0  0  0  0
   -6.1209    5.4781    1.1033 C   0  0  0  0  0  0  0  0  0  0  0  0
   -6.0414    6.8169    0.7275 C   0  0  0  0  0  0  0  0  0  0  0  0
   -6.3806    7.2282   -0.5705 C   0  0  0  0  0  0  0  0  0  0  0  0
   -6.8031    6.2589   -1.4928 C   0  0  0  0  0  0  0  0  0  0  0  0
   -6.8893    4.9148   -1.1373 C   0  0  0  0  0  0  0  0  0  0  0  0
   -6.5417    4.5373    0.1612 C   0  0  0  0  0  0  0  0  0  0  0  0
   -5.8727    5.1615    2.1102 H   0  0  0  0  0  0  0  0  0  0  0  0
   -5.7161    7.5561    1.4544 H   0  0  0  0  0  0  0  0  0  0  0  0
   -7.0739    6.5623   -2.5003 H   0  0  0  0  0  0  0  0  0  0  0  0
   -7.2308    4.1668   -1.8443 H   0  0  0  0  0  0  0  0  0  0  0  0
   -6.6566    2.8208    0.6314 S   0  0  0  0  0  0  0  0  0  0  0  0
   -6.8084    2.7178    2.0797 O   0  0  0  0  0  0  0  0  0  0  0  0
   -5.0964    2.4093    0.2361 O   0  0  0  0  0  0  0  0  0  0  0  0
   -7.5646    2.1253   -0.2758 O   0  0  0  0  0  0  0  0  0  0  0  0
   -6.3259    8.6865   -0.9559 C   0  0  0  0  0  0  0  0  0  0  0  0
   -7.2841    9.1802   -0.7499 H   0  0  0  0  0  0  0  0  0  0  0  0
   -5.5570    9.2219   -0.3921 H   0  0  0  0  0  0  0  0  0  0  0  0
   -6.1190    8.8120   -2.0227 H   0  0  0  0  0  0  0  0  0  0  0  0
  1 11  1  0  0  0  0
  1  2  1  0  0  0  0
  2  3  1  0  0  0  0
  4  1  2  0  0  0  0
  5  6  2  0  0  0  0
  5  4  1  0  0  0  0
  6 10  1  0  0  0  0
  7  9  2  0  0  0  0
  7  6  1  0  0  0  0
  8  7  2  0  0  0  0
 10 14  1  0  0  0  0
 10 11  2  0  0  0  0
 11 15  1  0  0  0  0
 12  4  1  0  0  0  0
 13  5  1  0  0  0  0
 16 22  1  0  0  0  0
 17 16  1  0  0  0  0
 17 23  1  0  0  0  0
 18 17  2  0  0  0  0
 19 20  2  0  0  0  0
 19 18  1  0  0  0  0
 20 21  1  0  0  0  0
 21 26  1  0  0  0  0
 21 16  2  0  0  0  0
 24 19  1  0  0  0  0
 25 20  1  0  0  0  0
 26 27  2  0  0  0  0
 28  3  1  0  0  0  0
 28 26  1  0  0  0  0
 29 26  2  0  0  0  0
 30 31  1  0  0  0  0
 30 18  1  0  0  0  0
 30 32  1  0  0  0  0
 33 30  1  0  0  0  0
M  RAD  2   2   2   3   2
M  END
