Coordinates from ORCA-job 4-NO2PhN2+~TsO-_B3LYPG-6-31G_dp-CH-Scan-d09-49-n800
 OpenBabel11261919023D

 33 34  0  0  0  0  0  0  0  0999 V2000
   -2.6499    1.1145   -0.1836 C   0  0  0  0  0  0  0  0  0  0  0  0
   -3.8047    0.4292    0.2785 N   0  0  0  0  0  0  0  0  0  0  0  0
   -4.9317    0.8123    0.4621 N   0  0  0  0  0  0  0  0  0  0  0  0
   -2.6551    2.0714   -1.2096 C   0  0  0  0  0  0  0  0  0  0  0  0
   -1.4515    2.6098   -1.6471 C   0  0  0  0  0  0  0  0  0  0  0  0
   -0.2661    2.1958   -1.0413 C   0  0  0  0  0  0  0  0  0  0  0  0
    1.0075    2.7835   -1.4972 N   0  0  0  0  0  0  0  0  0  0  0  0
    0.9564    3.6186   -2.3978 O   0  0  0  0  0  0  0  0  0  0  0  0
    2.0390    2.3853   -0.9599 O   0  0  0  0  0  0  0  0  0  0  0  0
   -0.2400    1.2393   -0.0285 C   0  0  0  0  0  0  0  0  0  0  0  0
   -1.4430    0.6789    0.3830 C   0  0  0  0  0  0  0  0  0  0  0  0
   -3.6624    2.4067   -1.6902 H   0  0  0  0  0  0  0  0  0  0  0  0
   -1.4155    3.3475   -2.4387 H   0  0  0  0  0  0  0  0  0  0  0  0
    0.7068    0.9399    0.4016 H   0  0  0  0  0  0  0  0  0  0  0  0
   -1.4685   -0.0915    1.1459 H   0  0  0  0  0  0  0  0  0  0  0  0
   -6.0493    5.3882    1.1304 C   0  0  0  0  0  0  0  0  0  0  0  0
   -5.9295    6.7362    0.8034 C   0  0  0  0  0  0  0  0  0  0  0  0
   -6.2601    7.2052   -0.4777 C   0  0  0  0  0  0  0  0  0  0  0  0
   -6.7160    6.2843   -1.4326 C   0  0  0  0  0  0  0  0  0  0  0  0
   -6.8430    4.9311   -1.1260 C   0  0  0  0  0  0  0  0  0  0  0  0
   -6.5025    4.4963    0.1561 C   0  0  0  0  0  0  0  0  0  0  0  0
   -5.8066    5.0278    2.1238 H   0  0  0  0  0  0  0  0  0  0  0  0
   -5.5784    7.4379    1.5549 H   0  0  0  0  0  0  0  0  0  0  0  0
   -6.9807    6.6327   -2.4270 H   0  0  0  0  0  0  0  0  0  0  0  0
   -7.2102    4.2205   -1.8581 H   0  0  0  0  0  0  0  0  0  0  0  0
   -6.6704    2.7698    0.5635 S   0  0  0  0  0  0  0  0  0  0  0  0
   -6.8385    2.6154    2.0048 O   0  0  0  0  0  0  0  0  0  0  0  0
   -5.1076    2.3322    0.1689 O   0  0  0  0  0  0  0  0  0  0  0  0
   -7.5803    2.1283   -0.3804 O   0  0  0  0  0  0  0  0  0  0  0  0
   -6.1594    8.6742   -0.8085 C   0  0  0  0  0  0  0  0  0  0  0  0
   -7.0759    9.2026   -0.5169 H   0  0  0  0  0  0  0  0  0  0  0  0
   -5.3295    9.1488   -0.2771 H   0  0  0  0  0  0  0  0  0  0  0  0
   -6.0170    8.8351   -1.8807 H   0  0  0  0  0  0  0  0  0  0  0  0
  1  2  1  0  0  0  0
  1 11  2  0  0  0  0
  2  3  1  0  0  0  0
  4  1  1  0  0  0  0
  5  4  2  0  0  0  0
  5  6  1  0  0  0  0
  6 10  2  0  0  0  0
  7  6  1  0  0  0  0
  7  9  2  0  0  0  0
  8  7  2  0  0  0  0
 10 11  1  0  0  0  0
 10 14  1  0  0  0  0
 11 15  1  0  0  0  0
 12  4  1  0  0  0  0
 13  5  1  0  0  0  0
 16 22  1  0  0  0  0
 17 16  1  0  0  0  0
 17 23  1  0  0  0  0
 18 17  2  0  0  0  0
 19 20  2  0  0  0  0
 19 18  1  0  0  0  0
 20 21  1  0  0  0  0
 21 26  1  0  0  0  0
 21 16  2  0  0  0  0
 24 19  1  0  0  0  0
 25 20  1  0  0  0  0
 26 27  2  0  0  0  0
 28  3  1  0  0  0  0
 28 26  1  0  0  0  0
 29 26  2  0  0  0  0
 30 31  1  0  0  0  0
 30 18  1  0  0  0  0
 30 32  1  0  0  0  0
 33 30  1  0  0  0  0
M  RAD  2   2   2   3   2
M  END
