Coordinates from ORCA-job 4-NO2PhN2+~TsO-_B3LYPG-6-31G_dp-CH-Scan-d09-49-n800
 OpenBabel11261919023D

 33 33  0  0  0  0  0  0  0  0999 V2000
   -2.2034    1.1435   -0.3672 C   0  0  0  0  0  0  0  0  0  0  0  0
   -3.4825    0.6971    0.0295 N   0  0  0  0  0  0  0  0  0  0  0  0
   -4.5079    0.3777    0.3245 N   0  0  0  0  0  0  0  0  0  0  0  0
   -2.2253    2.2214   -1.2519 C   0  0  0  0  0  0  0  0  0  0  0  0
   -0.8961    2.5914   -1.6022 C   0  0  0  0  0  0  0  0  0  0  0  0
    0.2138    1.9208   -1.1061 C   0  0  0  0  0  0  0  0  0  0  0  0
    1.5715    2.3562   -1.5218 N   0  0  0  0  0  0  0  0  0  0  0  0
    1.6558    3.3012   -2.3017 O   0  0  0  0  0  0  0  0  0  0  0  0
    2.5331    1.7467   -1.0528 O   0  0  0  0  0  0  0  0  0  0  0  0
    0.1368    0.8340   -0.2116 C   0  0  0  0  0  0  0  0  0  0  0  0
   -1.1156    0.4185    0.1828 C   0  0  0  0  0  0  0  0  0  0  0  0
   -5.2471    4.3155   -1.1326 H   0  0  0  0  0  0  0  0  0  0  0  0
   -0.7152    3.4218   -2.2796 H   0  0  0  0  0  0  0  0  0  0  0  0
    1.0424    0.3600    0.1411 H   0  0  0  0  0  0  0  0  0  0  0  0
   -1.2532   -0.4090    0.8732 H   0  0  0  0  0  0  0  0  0  0  0  0
   -7.0043    5.6271    1.1956 C   0  0  0  0  0  0  0  0  0  0  0  0
   -6.9306    6.9174    0.6819 C   0  0  0  0  0  0  0  0  0  0  0  0
   -6.5262    7.2249   -0.6575 C   0  0  0  0  0  0  0  0  0  0  0  0
   -6.2030    6.1761   -1.4724 C   0  0  0  0  0  0  0  0  0  0  0  0
   -6.2455    4.7774   -1.0044 C   0  0  0  0  0  0  0  0  0  0  0  0
   -6.6734    4.5497    0.3838 C   0  0  0  0  0  0  0  0  0  0  0  0
   -7.3384    5.4392    2.2102 H   0  0  0  0  0  0  0  0  0  0  0  0
   -7.2042    7.7483    1.3300 H   0  0  0  0  0  0  0  0  0  0  0  0
   -5.8891    6.3533   -2.4979 H   0  0  0  0  0  0  0  0  0  0  0  0
   -6.8468    4.1320   -1.6682 H   0  0  0  0  0  0  0  0  0  0  0  0
   -6.6991    2.8577    1.0287 S   0  0  0  0  0  0  0  0  0  0  0  0
   -7.6994    2.8933    2.1085 O   0  0  0  0  0  0  0  0  0  0  0  0
   -5.2758    2.7948    1.4703 O   0  0  0  0  0  0  0  0  0  0  0  0
   -7.0177    2.0348   -0.1552 O   0  0  0  0  0  0  0  0  0  0  0  0
   -6.4797    8.6629   -1.1097 C   0  0  0  0  0  0  0  0  0  0  0  0
   -7.4651    9.1346   -1.0251 H   0  0  0  0  0  0  0  0  0  0  0  0
   -5.7861    9.2458   -0.4944 H   0  0  0  0  0  0  0  0  0  0  0  0
   -6.1559    8.7415   -2.1499 H   0  0  0  0  0  0  0  0  0  0  0  0
  1  2  1  0  0  0  0
  1 11  2  0  0  0  0
  2  3  1  0  0  0  0
  4  1  1  0  0  0  0
  5  4  2  0  0  0  0
  5  6  1  0  0  0  0
  6 10  2  0  0  0  0
  7  6  1  0  0  0  0
  7  9  2  0  0  0  0
  8  7  2  0  0  0  0
 10 14  1  0  0  0  0
 10 11  1  0  0  0  0
 11 15  1  0  0  0  0
 12 20  1  0  0  0  0
 13  5  1  0  0  0  0
 16 22  1  0  0  0  0
 17 16  1  0  0  0  0
 17 23  1  0  0  0  0
 18 17  1  0  0  0  0
 19 20  1  0  0  0  0
 19 18  2  0  0  0  0
 20 21  1  0  0  0  0
 21 26  1  0  0  0  0
 21 16  2  0  0  0  0
 24 19  1  0  0  0  0
 25 20  1  0  0  0  0
 26 28  2  0  0  0  0
 26 27  1  0  0  0  0
 29 26  2  0  0  0  0
 30 31  1  0  0  0  0
 30 18  1  0  0  0  0
 30 32  1  0  0  0  0
 33 30  1  0  0  0  0
M  RAD  5   2   2   3   3   4   2  17   2  27   2
M  END
