Coordinates from ORCA-job 4-NO2PhN2+~TsO-_B3LYPG-6-31G_dp-CH-Scan-d09-49-n800
 OpenBabel11261919023D

 33 33  0  0  0  0  0  0  0  0999 V2000
   -2.7932    1.0779   -0.2458 C   0  0  0  0  0  0  0  0  0  0  0  0
   -3.8881    0.2771    0.2019 N   0  0  0  0  0  0  0  0  0  0  0  0
   -5.0058    0.6992    0.4209 N   0  0  0  0  0  0  0  0  0  0  0  0
   -2.6751    1.4757   -1.5711 C   0  0  0  0  0  0  0  0  0  0  0  0
   -1.5777    2.1545   -2.0549 C   0  0  0  0  0  0  0  0  0  0  0  0
   -0.5558    2.4340   -1.1423 C   0  0  0  0  0  0  0  0  0  0  0  0
    0.6326    3.1629   -1.6140 N   0  0  0  0  0  0  0  0  0  0  0  0
    0.6611    3.4965   -2.7975 O   0  0  0  0  0  0  0  0  0  0  0  0
    1.5181    3.3970   -0.7931 O   0  0  0  0  0  0  0  0  0  0  0  0
   -0.6228    2.0418    0.1937 C   0  0  0  0  0  0  0  0  0  0  0  0
   -1.7420    1.3460    0.6419 C   0  0  0  0  0  0  0  0  0  0  0  0
   -3.9717    1.0832   -2.6326 H   0  0  0  0  0  0  0  0  0  0  0  0
   -1.4873    2.4694   -3.0856 H   0  0  0  0  0  0  0  0  0  0  0  0
    0.1990    2.2776    0.8578 H   0  0  0  0  0  0  0  0  0  0  0  0
   -1.8140    1.0141    1.6719 H   0  0  0  0  0  0  0  0  0  0  0  0
   -6.0138    5.2382    1.2359 C   0  0  0  0  0  0  0  0  0  0  0  0
   -5.7901    6.5858    0.9653 C   0  0  0  0  0  0  0  0  0  0  0  0
   -5.9434    7.1016   -0.3304 C   0  0  0  0  0  0  0  0  0  0  0  0
   -6.3293    6.2293   -1.3599 C   0  0  0  0  0  0  0  0  0  0  0  0
   -6.5583    4.8787   -1.1120 C   0  0  0  0  0  0  0  0  0  0  0  0
   -6.3927    4.3970    0.1881 C   0  0  0  0  0  0  0  0  0  0  0  0
   -5.9057    4.8410    2.2391 H   0  0  0  0  0  0  0  0  0  0  0  0
   -5.4939    7.2491    1.7729 H   0  0  0  0  0  0  0  0  0  0  0  0
   -6.4556    6.6144   -2.3678 H   0  0  0  0  0  0  0  0  0  0  0  0
   -6.8683    4.2067   -1.9043 H   0  0  0  0  0  0  0  0  0  0  0  0
   -6.6878    2.6755    0.5205 S   0  0  0  0  0  0  0  0  0  0  0  0
   -6.9495    2.4751    1.9402 O   0  0  0  0  0  0  0  0  0  0  0  0
   -5.1008    2.1629    0.2071 O   0  0  0  0  0  0  0  0  0  0  0  0
   -7.5488    2.1048   -0.5079 O   0  0  0  0  0  0  0  0  0  0  0  0
   -5.7291    8.5697   -0.6061 C   0  0  0  0  0  0  0  0  0  0  0  0
   -6.6726    9.1229   -0.5221 H   0  0  0  0  0  0  0  0  0  0  0  0
   -5.0259    9.0129    0.1047 H   0  0  0  0  0  0  0  0  0  0  0  0
   -5.3451    8.7352   -1.6167 H   0  0  0  0  0  0  0  0  0  0  0  0
  1  2  1  0  0  0  0
  1 11  2  0  0  0  0
  2  3  1  0  0  0  0
  4  1  1  0  0  0  0
  5  4  2  0  0  0  0
  5  6  1  0  0  0  0
  6 10  2  0  0  0  0
  7  6  1  0  0  0  0
  7  9  2  0  0  0  0
  8  7  2  0  0  0  0
 10 11  1  0  0  0  0
 10 14  1  0  0  0  0
 11 15  1  0  0  0  0
 13  5  1  0  0  0  0
 16 22  1  0  0  0  0
 17 16  1  0  0  0  0
 17 23  1  0  0  0  0
 18 17  2  0  0  0  0
 19 20  2  0  0  0  0
 19 18  1  0  0  0  0
 20 21  1  0  0  0  0
 21 26  1  0  0  0  0
 21 16  2  0  0  0  0
 24 19  1  0  0  0  0
 25 20  1  0  0  0  0
 26 27  2  0  0  0  0
 28  3  1  0  0  0  0
 28 26  1  0  0  0  0
 29 26  2  0  0  0  0
 30 31  1  0  0  0  0
 30 18  1  0  0  0  0
 30 32  1  0  0  0  0
 33 30  1  0  0  0  0
M  RAD  4   2   2   3   2   4   2  12   2
M  END
