Coordinates from ORCA-job 4-NO2PhN2+~TsO-_B3LYPG-6-31G_dp-CH-Scan-d09-49-n800
 OpenBabel11261919023D

 33 34  0  0  0  0  0  0  0  0999 V2000
   -2.6431    1.1175   -0.1775 C   0  0  0  0  0  0  0  0  0  0  0  0
   -3.7993    0.4382    0.2892 N   0  0  0  0  0  0  0  0  0  0  0  0
   -4.9265    0.8196    0.4735 N   0  0  0  0  0  0  0  0  0  0  0  0
   -2.6507    2.1096   -1.1710 C   0  0  0  0  0  0  0  0  0  0  0  0
   -1.4430    2.6400   -1.6093 C   0  0  0  0  0  0  0  0  0  0  0  0
   -0.2551    2.1848   -1.0394 C   0  0  0  0  0  0  0  0  0  0  0  0
    1.0211    2.7653   -1.4979 N   0  0  0  0  0  0  0  0  0  0  0  0
    0.9691    3.6385   -2.3614 O   0  0  0  0  0  0  0  0  0  0  0  0
    2.0536    2.3379   -0.9856 O   0  0  0  0  0  0  0  0  0  0  0  0
   -0.2289    1.1944   -0.0600 C   0  0  0  0  0  0  0  0  0  0  0  0
   -1.4350    0.6424    0.3536 C   0  0  0  0  0  0  0  0  0  0  0  0
   -3.6157    2.4642   -1.6033 H   0  0  0  0  0  0  0  0  0  0  0  0
   -1.4067    3.4041   -2.3755 H   0  0  0  0  0  0  0  0  0  0  0  0
    0.7194    0.8638    0.3431 H   0  0  0  0  0  0  0  0  0  0  0  0
   -1.4621   -0.1524    1.0909 H   0  0  0  0  0  0  0  0  0  0  0  0
   -6.0563    5.3975    1.1262 C   0  0  0  0  0  0  0  0  0  0  0  0
   -5.9405    6.7447    0.7944 C   0  0  0  0  0  0  0  0  0  0  0  0
   -6.2740    7.2084   -0.4878 C   0  0  0  0  0  0  0  0  0  0  0  0
   -6.7289    6.2830   -1.4389 C   0  0  0  0  0  0  0  0  0  0  0  0
   -6.8519    4.9306   -1.1275 C   0  0  0  0  0  0  0  0  0  0  0  0
   -6.5086    4.5011    0.1556 C   0  0  0  0  0  0  0  0  0  0  0  0
   -5.8113    5.0411    2.1204 H   0  0  0  0  0  0  0  0  0  0  0  0
   -5.5901    7.4499    1.5430 H   0  0  0  0  0  0  0  0  0  0  0  0
   -6.9958    6.6273   -2.4341 H   0  0  0  0  0  0  0  0  0  0  0  0
   -7.2184    4.2165   -1.8567 H   0  0  0  0  0  0  0  0  0  0  0  0
   -6.6708    2.7753    0.5693 S   0  0  0  0  0  0  0  0  0  0  0  0
   -6.8335    2.6257    2.0118 O   0  0  0  0  0  0  0  0  0  0  0  0
   -5.1093    2.3402    0.1706 O   0  0  0  0  0  0  0  0  0  0  0  0
   -7.5830    2.1289   -0.3690 O   0  0  0  0  0  0  0  0  0  0  0  0
   -6.1776    8.6766   -0.8239 C   0  0  0  0  0  0  0  0  0  0  0  0
   -7.0961    9.2031   -0.5350 H   0  0  0  0  0  0  0  0  0  0  0  0
   -5.3497    9.1557   -0.2935 H   0  0  0  0  0  0  0  0  0  0  0  0
   -6.0349    8.8341   -1.8965 H   0  0  0  0  0  0  0  0  0  0  0  0
  1  2  1  0  0  0  0
  1 11  2  0  0  0  0
  2  3  1  0  0  0  0
  4  1  1  0  0  0  0
  5  4  2  0  0  0  0
  5  6  1  0  0  0  0
  6 10  2  0  0  0  0
  7  6  1  0  0  0  0
  7  9  2  0  0  0  0
  8  7  2  0  0  0  0
 10 14  1  0  0  0  0
 10 11  1  0  0  0  0
 11 15  1  0  0  0  0
 12  4  1  0  0  0  0
 13  5  1  0  0  0  0
 16 22  1  0  0  0  0
 17 16  1  0  0  0  0
 17 23  1  0  0  0  0
 18 17  2  0  0  0  0
 19 20  2  0  0  0  0
 19 18  1  0  0  0  0
 20 21  1  0  0  0  0
 21 26  1  0  0  0  0
 21 16  2  0  0  0  0
 24 19  1  0  0  0  0
 25 20  1  0  0  0  0
 26 27  2  0  0  0  0
 28  3  1  0  0  0  0
 28 26  1  0  0  0  0
 29 26  2  0  0  0  0
 30 31  1  0  0  0  0
 30 18  1  0  0  0  0
 30 32  1  0  0  0  0
 33 30  1  0  0  0  0
M  RAD  2   2   2   3   2
M  END
