Coordinates from ORCA-job 4-NO2PhN2+~TsO-_B3LYPG-6-31G_dp-CH-Scan-d09-49-n800
 OpenBabel11261919023D

 33 33  0  0  0  0  0  0  0  0999 V2000
   -2.8028    1.0749   -0.2694 C   0  0  0  0  0  0  0  0  0  0  0  0
   -3.8998    0.2652    0.1573 N   0  0  0  0  0  0  0  0  0  0  0  0
   -5.0138    0.6921    0.3901 N   0  0  0  0  0  0  0  0  0  0  0  0
   -2.6522    1.4693   -1.5890 C   0  0  0  0  0  0  0  0  0  0  0  0
   -1.5606    2.1567   -2.0651 C   0  0  0  0  0  0  0  0  0  0  0  0
   -0.5590    2.4503   -1.1328 C   0  0  0  0  0  0  0  0  0  0  0  0
    0.6316    3.1880   -1.5857 N   0  0  0  0  0  0  0  0  0  0  0  0
    0.6806    3.5137   -2.7706 O   0  0  0  0  0  0  0  0  0  0  0  0
    1.4996    3.4326   -0.7494 O   0  0  0  0  0  0  0  0  0  0  0  0
   -0.6494    2.0647    0.2039 C   0  0  0  0  0  0  0  0  0  0  0  0
   -1.7705    1.3617    0.6361 C   0  0  0  0  0  0  0  0  0  0  0  0
   -4.0543    1.0121   -2.7729 H   0  0  0  0  0  0  0  0  0  0  0  0
   -1.4556    2.4665   -3.0960 H   0  0  0  0  0  0  0  0  0  0  0  0
    0.1569    2.3126    0.8824 H   0  0  0  0  0  0  0  0  0  0  0  0
   -1.8595    1.0375    1.6674 H   0  0  0  0  0  0  0  0  0  0  0  0
   -5.9929    5.2401    1.2458 C   0  0  0  0  0  0  0  0  0  0  0  0
   -5.7689    6.5858    0.9658 C   0  0  0  0  0  0  0  0  0  0  0  0
   -5.9324    7.0947   -0.3312 C   0  0  0  0  0  0  0  0  0  0  0  0
   -6.3291    6.2175   -1.3527 C   0  0  0  0  0  0  0  0  0  0  0  0
   -6.5590    4.8689   -1.0955 C   0  0  0  0  0  0  0  0  0  0  0  0
   -6.3830    4.3942    0.2061 C   0  0  0  0  0  0  0  0  0  0  0  0
   -5.8767    4.8480    2.2501 H   0  0  0  0  0  0  0  0  0  0  0  0
   -5.4643    7.2530    1.7670 H   0  0  0  0  0  0  0  0  0  0  0  0
   -6.4632    6.5972   -2.3617 H   0  0  0  0  0  0  0  0  0  0  0  0
   -6.8769    4.1932   -1.8815 H   0  0  0  0  0  0  0  0  0  0  0  0
   -6.6798    2.6756    0.5500 S   0  0  0  0  0  0  0  0  0  0  0  0
   -6.9136    2.4803    1.9754 O   0  0  0  0  0  0  0  0  0  0  0  0
   -5.0981    2.1550    0.2091 O   0  0  0  0  0  0  0  0  0  0  0  0
   -7.5615    2.1041   -0.4598 O   0  0  0  0  0  0  0  0  0  0  0  0
   -5.7174    8.5606   -0.6176 C   0  0  0  0  0  0  0  0  0  0  0  0
   -6.6625    9.1129   -0.5484 H   0  0  0  0  0  0  0  0  0  0  0  0
   -5.0221    9.0111    0.0962 H   0  0  0  0  0  0  0  0  0  0  0  0
   -5.3232    8.7176   -1.6258 H   0  0  0  0  0  0  0  0  0  0  0  0
  1  2  1  0  0  0  0
  1 11  2  0  0  0  0
  2  3  1  0  0  0  0
  4  1  1  0  0  0  0
  5  4  2  0  0  0  0
  5  6  1  0  0  0  0
  6 10  2  0  0  0  0
  7  6  1  0  0  0  0
  7  9  2  0  0  0  0
  8  7  2  0  0  0  0
 10 11  1  0  0  0  0
 10 14  1  0  0  0  0
 11 15  1  0  0  0  0
 13  5  1  0  0  0  0
 16 22  1  0  0  0  0
 17 16  1  0  0  0  0
 17 23  1  0  0  0  0
 18 17  2  0  0  0  0
 19 20  2  0  0  0  0
 19 18  1  0  0  0  0
 20 21  1  0  0  0  0
 21 26  1  0  0  0  0
 21 16  2  0  0  0  0
 24 19  1  0  0  0  0
 25 20  1  0  0  0  0
 26 27  2  0  0  0  0
 28  3  1  0  0  0  0
 28 26  1  0  0  0  0
 29 26  2  0  0  0  0
 30 31  1  0  0  0  0
 30 18  1  0  0  0  0
 30 32  1  0  0  0  0
 33 30  1  0  0  0  0
M  RAD  4   2   2   3   2   4   2  12   2
M  END
