Coordinates from ORCA-job 4-NO2PhN2+~TsO-_B3LYPG-6-31G_dp-CH-Scan-d09-49-n800
 OpenBabel11261919023D

 33 33  0  0  0  0  0  0  0  0999 V2000
   -2.8003    1.0803   -0.2741 C   0  0  0  0  0  0  0  0  0  0  0  0
   -3.8997    0.2591    0.1275 N   0  0  0  0  0  0  0  0  0  0  0  0
   -5.0114    0.6918    0.3703 N   0  0  0  0  0  0  0  0  0  0  0  0
   -2.6254    1.5280   -1.5655 C   0  0  0  0  0  0  0  0  0  0  0  0
   -1.5510    2.2269   -2.0416 C   0  0  0  0  0  0  0  0  0  0  0  0
   -0.5445    2.4809   -1.0978 C   0  0  0  0  0  0  0  0  0  0  0  0
    0.6502    3.2277   -1.5286 N   0  0  0  0  0  0  0  0  0  0  0  0
    0.6990    3.5907   -2.7020 O   0  0  0  0  0  0  0  0  0  0  0  0
    1.5201    3.4371   -0.6853 O   0  0  0  0  0  0  0  0  0  0  0  0
   -0.6367    2.0476    0.2244 C   0  0  0  0  0  0  0  0  0  0  0  0
   -1.7598    1.3353    0.6365 C   0  0  0  0  0  0  0  0  0  0  0  0
   -4.4561    0.9681   -3.1054 H   0  0  0  0  0  0  0  0  0  0  0  0
   -1.4494    2.5720   -3.0623 H   0  0  0  0  0  0  0  0  0  0  0  0
    0.1720    2.2676    0.9096 H   0  0  0  0  0  0  0  0  0  0  0  0
   -1.8492    0.9775    1.6573 H   0  0  0  0  0  0  0  0  0  0  0  0
   -5.9757    5.2479    1.2551 C   0  0  0  0  0  0  0  0  0  0  0  0
   -5.7534    6.5898    0.9553 C   0  0  0  0  0  0  0  0  0  0  0  0
   -5.9216    7.0802   -0.3481 C   0  0  0  0  0  0  0  0  0  0  0  0
   -6.3211    6.1884   -1.3561 C   0  0  0  0  0  0  0  0  0  0  0  0
   -6.5497    4.8437   -1.0795 C   0  0  0  0  0  0  0  0  0  0  0  0
   -6.3692    4.3878    0.2286 C   0  0  0  0  0  0  0  0  0  0  0  0
   -5.8553    4.8697    2.2641 H   0  0  0  0  0  0  0  0  0  0  0  0
   -5.4464    7.2685    1.7460 H   0  0  0  0  0  0  0  0  0  0  0  0
   -6.4583    6.5538   -2.3699 H   0  0  0  0  0  0  0  0  0  0  0  0
   -6.8687    4.1568   -1.8552 H   0  0  0  0  0  0  0  0  0  0  0  0
   -6.6653    2.6750    0.5973 S   0  0  0  0  0  0  0  0  0  0  0  0
   -6.8628    2.4935    2.0297 O   0  0  0  0  0  0  0  0  0  0  0  0
   -5.0863    2.1462    0.2261 O   0  0  0  0  0  0  0  0  0  0  0  0
   -7.5689    2.0935   -0.3858 O   0  0  0  0  0  0  0  0  0  0  0  0
   -5.7080    8.5417   -0.6570 C   0  0  0  0  0  0  0  0  0  0  0  0
   -6.6588    9.0878   -0.6290 H   0  0  0  0  0  0  0  0  0  0  0  0
   -5.0385    9.0118    0.0687 H   0  0  0  0  0  0  0  0  0  0  0  0
   -5.2834    8.6811   -1.6555 H   0  0  0  0  0  0  0  0  0  0  0  0
  1  2  1  0  0  0  0
  1 11  2  0  0  0  0
  2  3  1  0  0  0  0
  4  1  1  0  0  0  0
  5  4  2  0  0  0  0
  5  6  1  0  0  0  0
  6 10  2  0  0  0  0
  7  6  1  0  0  0  0
  7  9  2  0  0  0  0
  8  7  2  0  0  0  0
 10 11  1  0  0  0  0
 10 14  1  0  0  0  0
 11 15  1  0  0  0  0
 13  5  1  0  0  0  0
 16 22  1  0  0  0  0
 17 16  1  0  0  0  0
 17 23  1  0  0  0  0
 18 17  2  0  0  0  0
 19 20  2  0  0  0  0
 19 18  1  0  0  0  0
 20 21  1  0  0  0  0
 21 26  1  0  0  0  0
 21 16  2  0  0  0  0
 24 19  1  0  0  0  0
 25 20  1  0  0  0  0
 26 27  2  0  0  0  0
 28  3  1  0  0  0  0
 28 26  1  0  0  0  0
 29 26  2  0  0  0  0
 30 31  1  0  0  0  0
 30 18  1  0  0  0  0
 30 32  1  0  0  0  0
 33 30  1  0  0  0  0
M  RAD  4   2   2   3   2   4   2  12   2
M  END
