Coordinates from ORCA-job 4-NO2PhN2+~TsO-_B3LYPG-6-31G_dp-CH-Scan-d09-49-n800
 OpenBabel11261919023D

 33 33  0  0  0  0  0  0  0  0999 V2000
   -2.7603    1.0985   -0.2055 C   0  0  0  0  0  0  0  0  0  0  0  0
   -3.8603    0.2837    0.2057 N   0  0  0  0  0  0  0  0  0  0  0  0
   -4.9682    0.7181    0.4789 N   0  0  0  0  0  0  0  0  0  0  0  0
   -2.7206    1.8700   -1.3434 C   0  0  0  0  0  0  0  0  0  0  0  0
   -1.6626    2.5831   -1.8233 C   0  0  0  0  0  0  0  0  0  0  0  0
   -0.4949    2.4855   -1.0480 C   0  0  0  0  0  0  0  0  0  0  0  0
    0.7039    3.2223   -1.4906 N   0  0  0  0  0  0  0  0  0  0  0  0
    0.6104    3.8899   -2.5180 O   0  0  0  0  0  0  0  0  0  0  0  0
    1.7150    3.1199   -0.7993 O   0  0  0  0  0  0  0  0  0  0  0  0
   -0.4326    1.7116    0.1104 C   0  0  0  0  0  0  0  0  0  0  0  0
   -1.5581    1.0041    0.5226 C   0  0  0  0  0  0  0  0  0  0  0  0
   -5.1720    1.9059   -3.0683 H   0  0  0  0  0  0  0  0  0  0  0  0
   -1.6753    3.1813   -2.7262 H   0  0  0  0  0  0  0  0  0  0  0  0
    0.4957    1.6645    0.6650 H   0  0  0  0  0  0  0  0  0  0  0  0
   -1.5344    0.3819    1.4125 H   0  0  0  0  0  0  0  0  0  0  0  0
   -6.1622    5.3229    1.2681 C   0  0  0  0  0  0  0  0  0  0  0  0
   -5.9582    6.6522    0.9043 C   0  0  0  0  0  0  0  0  0  0  0  0
   -5.9541    7.0436   -0.4425 C   0  0  0  0  0  0  0  0  0  0  0  0
   -6.1578    6.0649   -1.4283 C   0  0  0  0  0  0  0  0  0  0  0  0
   -6.3675    4.7319   -1.0889 C   0  0  0  0  0  0  0  0  0  0  0  0
   -6.3637    4.3767    0.2627 C   0  0  0  0  0  0  0  0  0  0  0  0
   -6.1725    5.0185    2.3090 H   0  0  0  0  0  0  0  0  0  0  0  0
   -5.8003    7.3977    1.6787 H   0  0  0  0  0  0  0  0  0  0  0  0
   -6.1545    6.3526   -2.4762 H   0  0  0  0  0  0  0  0  0  0  0  0
   -6.5278    3.9779   -1.8521 H   0  0  0  0  0  0  0  0  0  0  0  0
   -6.6447    2.6814    0.7120 S   0  0  0  0  0  0  0  0  0  0  0  0
   -6.8742    2.5694    2.1464 O   0  0  0  0  0  0  0  0  0  0  0  0
   -5.0423    2.1633    0.4016 O   0  0  0  0  0  0  0  0  0  0  0  0
   -7.5084    2.0292   -0.2612 O   0  0  0  0  0  0  0  0  0  0  0  0
   -5.7638    8.4907   -0.8258 C   0  0  0  0  0  0  0  0  0  0  0  0
   -6.7325    8.9907   -0.9460 H   0  0  0  0  0  0  0  0  0  0  0  0
   -5.2059    9.0387   -0.0613 H   0  0  0  0  0  0  0  0  0  0  0  0
   -5.2289    8.5852   -1.7752 H   0  0  0  0  0  0  0  0  0  0  0  0
  1  2  1  0  0  0  0
  1 11  2  0  0  0  0
  2  3  1  0  0  0  0
  4  1  1  0  0  0  0
  5  4  2  0  0  0  0
  5  6  1  0  0  0  0
  6 10  2  0  0  0  0
  7  6  1  0  0  0  0
  7  9  2  0  0  0  0
  8  7  2  0  0  0  0
 10 11  1  0  0  0  0
 10 14  1  0  0  0  0
 11 15  1  0  0  0  0
 13  5  1  0  0  0  0
 16 22  1  0  0  0  0
 17 16  1  0  0  0  0
 17 23  1  0  0  0  0
 18 17  2  0  0  0  0
 19 20  2  0  0  0  0
 19 18  1  0  0  0  0
 20 21  1  0  0  0  0
 21 26  1  0  0  0  0
 21 16  2  0  0  0  0
 24 19  1  0  0  0  0
 25 20  1  0  0  0  0
 26 27  2  0  0  0  0
 28  3  1  0  0  0  0
 28 26  1  0  0  0  0
 29 26  2  0  0  0  0
 30 18  1  0  0  0  0
 30 32  1  0  0  0  0
 31 30  1  0  0  0  0
 33 30  1  0  0  0  0
M  RAD  4   2   2   3   2   4   2  12   2
M  END
