Coordinates from ORCA-job 4-NO2PhN2+~TsO-_B3LYPG-6-31G_dp-CH-Scan-d09-49-n800
 OpenBabel11261919023D

 33 33  0  0  0  0  0  0  0  0999 V2000
   -2.8003    1.0755   -0.2632 C   0  0  0  0  0  0  0  0  0  0  0  0
   -3.8968    0.2683    0.1693 N   0  0  0  0  0  0  0  0  0  0  0  0
   -5.0118    0.6939    0.3985 N   0  0  0  0  0  0  0  0  0  0  0  0
   -2.6589    1.4703   -1.5848 C   0  0  0  0  0  0  0  0  0  0  0  0
   -1.5655    2.1554   -2.0628 C   0  0  0  0  0  0  0  0  0  0  0  0
   -0.5584    2.4456   -1.1358 C   0  0  0  0  0  0  0  0  0  0  0  0
    0.6315    3.1810   -1.5939 N   0  0  0  0  0  0  0  0  0  0  0  0
    0.6752    3.5079   -2.7787 O   0  0  0  0  0  0  0  0  0  0  0  0
    1.5045    3.4225   -0.7620 O   0  0  0  0  0  0  0  0  0  0  0  0
   -0.6425    2.0587    0.2009 C   0  0  0  0  0  0  0  0  0  0  0  0
   -1.7630    1.3576    0.6375 C   0  0  0  0  0  0  0  0  0  0  0  0
   -4.0261    1.0331   -2.7298 H   0  0  0  0  0  0  0  0  0  0  0  0
   -1.4644    2.4662   -3.0936 H   0  0  0  0  0  0  0  0  0  0  0  0
    0.1681    2.3036    0.8754 H   0  0  0  0  0  0  0  0  0  0  0  0
   -1.8474    1.0316    1.6686 H   0  0  0  0  0  0  0  0  0  0  0  0
   -5.9989    5.2396    1.2431 C   0  0  0  0  0  0  0  0  0  0  0  0
   -5.7749    6.5858    0.9658 C   0  0  0  0  0  0  0  0  0  0  0  0
   -5.9355    7.0967   -0.3309 C   0  0  0  0  0  0  0  0  0  0  0  0
   -6.3291    6.2209   -1.3546 C   0  0  0  0  0  0  0  0  0  0  0  0
   -6.5588    4.8718   -1.1001 C   0  0  0  0  0  0  0  0  0  0  0  0
   -6.3857    4.3950    0.2011 C   0  0  0  0  0  0  0  0  0  0  0  0
   -5.8850    4.8460    2.2471 H   0  0  0  0  0  0  0  0  0  0  0  0
   -5.4727    7.2519    1.7689 H   0  0  0  0  0  0  0  0  0  0  0  0
   -6.4610    6.6022   -2.3633 H   0  0  0  0  0  0  0  0  0  0  0  0
   -6.8744    4.1971   -1.8879 H   0  0  0  0  0  0  0  0  0  0  0  0
   -6.6821    2.6756    0.5416 S   0  0  0  0  0  0  0  0  0  0  0  0
   -6.9239    2.4788    1.9654 O   0  0  0  0  0  0  0  0  0  0  0  0
   -5.0989    2.1572    0.2086 O   0  0  0  0  0  0  0  0  0  0  0  0
   -7.5579    2.1043   -0.4735 O   0  0  0  0  0  0  0  0  0  0  0  0
   -5.7207    8.5633   -0.6141 C   0  0  0  0  0  0  0  0  0  0  0  0
   -6.6654    9.1159   -0.5404 H   0  0  0  0  0  0  0  0  0  0  0  0
   -5.0229    9.0116    0.0986 H   0  0  0  0  0  0  0  0  0  0  0  0
   -5.3298    8.7227   -1.6232 H   0  0  0  0  0  0  0  0  0  0  0  0
  1  2  1  0  0  0  0
  1 11  2  0  0  0  0
  2  3  1  0  0  0  0
  4  1  1  0  0  0  0
  5  4  2  0  0  0  0
  5  6  1  0  0  0  0
  6 10  2  0  0  0  0
  7  6  1  0  0  0  0
  7  9  2  0  0  0  0
  8  7  2  0  0  0  0
 10 11  1  0  0  0  0
 10 14  1  0  0  0  0
 11 15  1  0  0  0  0
 13  5  1  0  0  0  0
 16 22  1  0  0  0  0
 17 16  1  0  0  0  0
 17 23  1  0  0  0  0
 18 17  2  0  0  0  0
 19 20  2  0  0  0  0
 19 18  1  0  0  0  0
 20 21  1  0  0  0  0
 21 26  1  0  0  0  0
 21 16  2  0  0  0  0
 24 19  1  0  0  0  0
 25 20  1  0  0  0  0
 26 27  2  0  0  0  0
 28  3  1  0  0  0  0
 28 26  1  0  0  0  0
 29 26  2  0  0  0  0
 30 31  1  0  0  0  0
 30 18  1  0  0  0  0
 30 32  1  0  0  0  0
 33 30  1  0  0  0  0
M  RAD  4   2   2   3   2   4   2  12   2
M  END
