Coordinates from ORCA-job 4-NO2PhN2+~TsO-_B3LYPG-6-31G_dp-CH-Scan-d09-49-n800
 OpenBabel11261919023D

 33 34  0  0  0  0  0  0  0  0999 V2000
   -2.6836    1.1079   -0.1808 C   0  0  0  0  0  0  0  0  0  0  0  0
   -3.8223    0.3956    0.2880 N   0  0  0  0  0  0  0  0  0  0  0  0
   -4.9508    0.7876    0.4631 N   0  0  0  0  0  0  0  0  0  0  0  0
   -2.7003    1.9238   -1.3200 C   0  0  0  0  0  0  0  0  0  0  0  0
   -1.5186    2.4939   -1.7743 C   0  0  0  0  0  0  0  0  0  0  0  0
   -0.3401    2.2497   -1.0696 C   0  0  0  0  0  0  0  0  0  0  0  0
    0.9114    2.8677   -1.5428 N   0  0  0  0  0  0  0  0  0  0  0  0
    0.8497    3.5791   -2.5439 O   0  0  0  0  0  0  0  0  0  0  0  0
    1.9365    2.6311   -0.9066 O   0  0  0  0  0  0  0  0  0  0  0  0
   -0.3021    1.4333    0.0590 C   0  0  0  0  0  0  0  0  0  0  0  0
   -1.4824    0.8386    0.4892 C   0  0  0  0  0  0  0  0  0  0  0  0
   -3.7289    2.1219   -1.8959 H   0  0  0  0  0  0  0  0  0  0  0  0
   -1.4932    3.1258   -2.6528 H   0  0  0  0  0  0  0  0  0  0  0  0
    0.6396    1.2628    0.5645 H   0  0  0  0  0  0  0  0  0  0  0  0
   -1.4918    0.1718    1.3444 H   0  0  0  0  0  0  0  0  0  0  0  0
   -6.0411    5.3404    1.1471 C   0  0  0  0  0  0  0  0  0  0  0  0
   -5.8942    6.6911    0.8435 C   0  0  0  0  0  0  0  0  0  0  0  0
   -6.1828    7.1830   -0.4392 C   0  0  0  0  0  0  0  0  0  0  0  0
   -6.6245    6.2825   -1.4199 C   0  0  0  0  0  0  0  0  0  0  0  0
   -6.7779    4.9270   -1.1373 C   0  0  0  0  0  0  0  0  0  0  0  0
   -6.4789    4.4693    0.1471 C   0  0  0  0  0  0  0  0  0  0  0  0
   -5.8307    4.9625    2.1413 H   0  0  0  0  0  0  0  0  0  0  0  0
   -5.5544    7.3768    1.6145 H   0  0  0  0  0  0  0  0  0  0  0  0
   -6.8567    6.6488   -2.4159 H   0  0  0  0  0  0  0  0  0  0  0  0
   -7.1339    4.2323   -1.8899 H   0  0  0  0  0  0  0  0  0  0  0  0
   -6.6820    2.7410    0.5250 S   0  0  0  0  0  0  0  0  0  0  0  0
   -6.8911    2.5668    1.9581 O   0  0  0  0  0  0  0  0  0  0  0  0
   -5.1078    2.2874    0.1673 O   0  0  0  0  0  0  0  0  0  0  0  0
   -7.5680    2.1217   -0.4553 O   0  0  0  0  0  0  0  0  0  0  0  0
   -6.0528    8.6551   -0.7451 C   0  0  0  0  0  0  0  0  0  0  0  0
   -6.9693    9.1921   -0.4697 H   0  0  0  0  0  0  0  0  0  0  0  0
   -5.2306    9.1098   -0.1850 H   0  0  0  0  0  0  0  0  0  0  0  0
   -5.8798    8.8297   -1.8105 H   0  0  0  0  0  0  0  0  0  0  0  0
  1  2  1  0  0  0  0
  1 11  2  0  0  0  0
  2  3  1  0  0  0  0
  4  1  1  0  0  0  0
  5  4  2  0  0  0  0
  5  6  1  0  0  0  0
  6 10  2  0  0  0  0
  7  6  1  0  0  0  0
  7  9  2  0  0  0  0
  8  7  2  0  0  0  0
 10 11  1  0  0  0  0
 10 14  1  0  0  0  0
 11 15  1  0  0  0  0
 12  4  1  0  0  0  0
 13  5  1  0  0  0  0
 16 22  1  0  0  0  0
 17 16  1  0  0  0  0
 17 23  1  0  0  0  0
 18 17  2  0  0  0  0
 19 20  2  0  0  0  0
 19 18  1  0  0  0  0
 20 21  1  0  0  0  0
 21 26  1  0  0  0  0
 21 16  2  0  0  0  0
 24 19  1  0  0  0  0
 25 20  1  0  0  0  0
 26 27  2  0  0  0  0
 28  3  1  0  0  0  0
 28 26  1  0  0  0  0
 29 26  2  0  0  0  0
 30 31  1  0  0  0  0
 30 18  1  0  0  0  0
 30 32  1  0  0  0  0
 33 30  1  0  0  0  0
M  RAD  2   2   2   3   2
M  END
