Coordinates from ORCA-job 4-NO2PhN2+~TsO-_B3LYPG-6-31G_dp-CH-Scan-d09-49-n800
 OpenBabel11261919033D

 33 33  0  0  0  0  0  0  0  0999 V2000
   -2.8355    0.7152   -0.9931 C   0  0  0  0  0  0  0  0  0  0  0  0
   -3.9170   -0.1587   -0.7477 N   0  0  0  0  0  0  0  0  0  0  0  0
   -4.7509   -0.8888   -0.6407 N   0  0  0  0  0  0  0  0  0  0  0  0
   -2.1781    0.4110   -2.1845 C   0  0  0  0  0  0  0  0  0  0  0  0
   -1.0983    1.3184   -2.3880 C   0  0  0  0  0  0  0  0  0  0  0  0
   -0.7801    2.2995   -1.4578 C   0  0  0  0  0  0  0  0  0  0  0  0
    0.3597    3.2081   -1.7252 N   0  0  0  0  0  0  0  0  0  0  0  0
    1.1391    2.9034   -2.6241 O   0  0  0  0  0  0  0  0  0  0  0  0
    0.4457    4.2296   -1.0393 O   0  0  0  0  0  0  0  0  0  0  0  0
   -1.5046    2.5163   -0.2651 C   0  0  0  0  0  0  0  0  0  0  0  0
   -2.5881    1.7031   -0.0061 C   0  0  0  0  0  0  0  0  0  0  0  0
   -4.0598    4.3430   -0.1160 H   0  0  0  0  0  0  0  0  0  0  0  0
   -0.4913    1.2621   -3.2880 H   0  0  0  0  0  0  0  0  0  0  0  0
   -1.1979    3.2990    0.4167 H   0  0  0  0  0  0  0  0  0  0  0  0
   -3.2067    1.8212    0.8800 H   0  0  0  0  0  0  0  0  0  0  0  0
   -6.8513    5.2979    1.1473 C   0  0  0  0  0  0  0  0  0  0  0  0
   -6.7263    6.6184    0.7216 C   0  0  0  0  0  0  0  0  0  0  0  0
   -5.7989    7.0554   -0.2776 C   0  0  0  0  0  0  0  0  0  0  0  0
   -4.9950    6.1053   -0.8446 C   0  0  0  0  0  0  0  0  0  0  0  0
   -5.0588    4.6841   -0.4490 C   0  0  0  0  0  0  0  0  0  0  0  0
   -6.0389    4.3227    0.5891 C   0  0  0  0  0  0  0  0  0  0  0  0
   -7.5812    5.0095    1.8968 H   0  0  0  0  0  0  0  0  0  0  0  0
   -7.3765    7.3682    1.1691 H   0  0  0  0  0  0  0  0  0  0  0  0
   -4.2737    6.3810   -1.6102 H   0  0  0  0  0  0  0  0  0  0  0  0
   -5.2169    4.0273   -1.3231 H   0  0  0  0  0  0  0  0  0  0  0  0
   -6.1157    2.6076    1.1688 S   0  0  0  0  0  0  0  0  0  0  0  0
   -7.4362    2.4880    1.8013 O   0  0  0  0  0  0  0  0  0  0  0  0
   -4.9452    2.6434    2.0900 O   0  0  0  0  0  0  0  0  0  0  0  0
   -5.8923    1.8205   -0.0664 O   0  0  0  0  0  0  0  0  0  0  0  0
   -5.7477    8.5127   -0.6619 C   0  0  0  0  0  0  0  0  0  0  0  0
   -6.7170    8.8526   -1.0425 H   0  0  0  0  0  0  0  0  0  0  0  0
   -5.5006    9.1377    0.2030 H   0  0  0  0  0  0  0  0  0  0  0  0
   -4.9975    8.6931   -1.4349 H   0  0  0  0  0  0  0  0  0  0  0  0
  1  2  1  0  0  0  0
  1 11  2  0  0  0  0
  2  3  1  0  0  0  0
  4  1  1  0  0  0  0
  5  4  2  0  0  0  0
  5  6  1  0  0  0  0
  6 10  2  0  0  0  0
  7  6  1  0  0  0  0
  7  9  2  0  0  0  0
  8  7  2  0  0  0  0
 10 11  1  0  0  0  0
 10 14  1  0  0  0  0
 11 15  1  0  0  0  0
 13  5  1  0  0  0  0
 16 22  1  0  0  0  0
 17 16  1  0  0  0  0
 17 23  1  0  0  0  0
 18 17  1  0  0  0  0
 19 20  1  0  0  0  0
 19 18  2  0  0  0  0
 20 12  1  0  0  0  0
 20 21  1  0  0  0  0
 21 16  2  0  0  0  0
 21 26  1  0  0  0  0
 24 19  1  0  0  0  0
 25 20  1  0  0  0  0
 26 27  2  0  0  0  0
 26 28  1  0  0  0  0
 29 26  2  0  0  0  0
 30 18  1  0  0  0  0
 30 32  1  0  0  0  0
 31 30  1  0  0  0  0
 33 30  1  0  0  0  0
M  RAD  5   2   2   3   3   4   2  17   2  28   2
M  END
