Coordinates from ORCA-job 4-NO2PhN2+~TsO-_B3LYPG-6-31G_dp-CH-Scan-d09-49-n800
 OpenBabel11261919023D

 33 33  0  0  0  0  0  0  0  0999 V2000
   -2.7421    1.0984   -0.1725 C   0  0  0  0  0  0  0  0  0  0  0  0
   -3.8430    0.2920    0.2516 N   0  0  0  0  0  0  0  0  0  0  0  0
   -4.9536    0.7296    0.5123 N   0  0  0  0  0  0  0  0  0  0  0  0
   -2.7242    1.9342   -1.2639 C   0  0  0  0  0  0  0  0  0  0  0  0
   -1.6674    2.6483   -1.7440 C   0  0  0  0  0  0  0  0  0  0  0  0
   -0.4734    2.4757   -1.0230 C   0  0  0  0  0  0  0  0  0  0  0  0
    0.7274    3.2075   -1.4708 N   0  0  0  0  0  0  0  0  0  0  0  0
    0.6110    3.9403   -2.4501 O   0  0  0  0  0  0  0  0  0  0  0  0
    1.7607    3.0407   -0.8267 O   0  0  0  0  0  0  0  0  0  0  0  0
   -0.3865    1.6320    0.0839 C   0  0  0  0  0  0  0  0  0  0  0  0
   -1.5141    0.9294    0.4981 C   0  0  0  0  0  0  0  0  0  0  0  0
   -5.2810    2.1140   -3.0913 H   0  0  0  0  0  0  0  0  0  0  0  0
   -1.6974    3.2984   -2.6102 H   0  0  0  0  0  0  0  0  0  0  0  0
    0.5611    1.5283    0.5964 H   0  0  0  0  0  0  0  0  0  0  0  0
   -1.4746    0.2536    1.3476 H   0  0  0  0  0  0  0  0  0  0  0  0
   -6.1634    5.3305    1.2548 C   0  0  0  0  0  0  0  0  0  0  0  0
   -5.9668    6.6584    0.8820 C   0  0  0  0  0  0  0  0  0  0  0  0
   -5.9739    7.0420   -0.4671 C   0  0  0  0  0  0  0  0  0  0  0  0
   -6.1810    6.0570   -1.4457 C   0  0  0  0  0  0  0  0  0  0  0  0
   -6.3836    4.7250   -1.0975 C   0  0  0  0  0  0  0  0  0  0  0  0
   -6.3686    4.3777    0.2562 C   0  0  0  0  0  0  0  0  0  0  0  0
   -6.1652    5.0321    2.2974 H   0  0  0  0  0  0  0  0  0  0  0  0
   -5.8061    7.4089    1.6509 H   0  0  0  0  0  0  0  0  0  0  0  0
   -6.1861    6.3384   -2.4953 H   0  0  0  0  0  0  0  0  0  0  0  0
   -6.5456    3.9662   -1.8561 H   0  0  0  0  0  0  0  0  0  0  0  0
   -6.6411    2.6847    0.7183 S   0  0  0  0  0  0  0  0  0  0  0  0
   -6.8650    2.5819    2.1544 O   0  0  0  0  0  0  0  0  0  0  0  0
   -5.0354    2.1703    0.4081 O   0  0  0  0  0  0  0  0  0  0  0  0
   -7.5041    2.0208   -0.2472 O   0  0  0  0  0  0  0  0  0  0  0  0
   -5.7921    8.4876   -0.8600 C   0  0  0  0  0  0  0  0  0  0  0  0
   -6.7636    8.9824   -0.9786 H   0  0  0  0  0  0  0  0  0  0  0  0
   -5.2330    9.0428   -0.1016 H   0  0  0  0  0  0  0  0  0  0  0  0
   -5.2622    8.5788   -1.8126 H   0  0  0  0  0  0  0  0  0  0  0  0
  1  2  1  0  0  0  0
  1 11  2  0  0  0  0
  2  3  1  0  0  0  0
  4  1  1  0  0  0  0
  5  4  2  0  0  0  0
  5  6  1  0  0  0  0
  6 10  2  0  0  0  0
  7  6  1  0  0  0  0
  7  9  2  0  0  0  0
  8  7  2  0  0  0  0
 10 11  1  0  0  0  0
 10 14  1  0  0  0  0
 11 15  1  0  0  0  0
 13  5  1  0  0  0  0
 16 22  1  0  0  0  0
 17 16  1  0  0  0  0
 17 23  1  0  0  0  0
 18 17  2  0  0  0  0
 19 20  2  0  0  0  0
 19 18  1  0  0  0  0
 20 21  1  0  0  0  0
 21 26  1  0  0  0  0
 21 16  2  0  0  0  0
 24 19  1  0  0  0  0
 25 20  1  0  0  0  0
 26 27  2  0  0  0  0
 28  3  1  0  0  0  0
 28 26  1  0  0  0  0
 29 26  2  0  0  0  0
 30 18  1  0  0  0  0
 30 32  1  0  0  0  0
 31 30  1  0  0  0  0
 33 30  1  0  0  0  0
M  RAD  4   2   2   3   2   4   2  12   2
M  END
