Coordinates from ORCA-job 4-NO2PhN2+~TsO-_B3LYPG-6-31G_dp-CH-Scan-d09-49-n800
 OpenBabel11261919023D

 33 33  0  0  0  0  0  0  0  0999 V2000
   -2.9493    0.8307   -0.9665 C   0  0  0  0  0  0  0  0  0  0  0  0
   -3.9288   -0.1738   -0.7815 N   0  0  0  0  0  0  0  0  0  0  0  0
   -4.6828   -0.9913   -0.7316 N   0  0  0  0  0  0  0  0  0  0  0  0
   -2.4163    0.8046   -2.2539 C   0  0  0  0  0  0  0  0  0  0  0  0
   -1.4503    1.8484   -2.3895 C   0  0  0  0  0  0  0  0  0  0  0  0
   -1.1356    2.7037   -1.3422 C   0  0  0  0  0  0  0  0  0  0  0  0
   -0.1536    3.7903   -1.5632 N   0  0  0  0  0  0  0  0  0  0  0  0
    0.5820    3.7123   -2.5430 O   0  0  0  0  0  0  0  0  0  0  0  0
   -0.1540    4.7253   -0.7578 O   0  0  0  0  0  0  0  0  0  0  0  0
   -1.7326    2.6333   -0.0629 C   0  0  0  0  0  0  0  0  0  0  0  0
   -2.6854    1.6581    0.1532 C   0  0  0  0  0  0  0  0  0  0  0  0
   -4.0229    3.9668   -0.2094 H   0  0  0  0  0  0  0  0  0  0  0  0
   -0.9386    2.0053   -3.3360 H   0  0  0  0  0  0  0  0  0  0  0  0
   -1.4343    3.3273    0.7122 H   0  0  0  0  0  0  0  0  0  0  0  0
   -3.2146    1.5681    1.0975 H   0  0  0  0  0  0  0  0  0  0  0  0
   -6.6255    5.2435    1.1376 C   0  0  0  0  0  0  0  0  0  0  0  0
   -6.3841    6.5250    0.6504 C   0  0  0  0  0  0  0  0  0  0  0  0
   -5.4758    6.8221   -0.4150 C   0  0  0  0  0  0  0  0  0  0  0  0
   -4.8170    5.7682   -0.9868 C   0  0  0  0  0  0  0  0  0  0  0  0
   -5.0050    4.3821   -0.5223 C   0  0  0  0  0  0  0  0  0  0  0  0
   -5.9571    4.1643    0.5760 C   0  0  0  0  0  0  0  0  0  0  0  0
   -7.3395    5.0656    1.9350 H   0  0  0  0  0  0  0  0  0  0  0  0
   -6.9229    7.3571    1.1001 H   0  0  0  0  0  0  0  0  0  0  0  0
   -4.1167    5.9348   -1.8016 H   0  0  0  0  0  0  0  0  0  0  0  0
   -5.2472    3.6944   -1.3515 H   0  0  0  0  0  0  0  0  0  0  0  0
   -6.1795    2.4918    1.2406 S   0  0  0  0  0  0  0  0  0  0  0  0
   -7.5214    2.5105    1.8391 O   0  0  0  0  0  0  0  0  0  0  0  0
   -5.0350    2.4995    2.1951 O   0  0  0  0  0  0  0  0  0  0  0  0
   -5.9857    1.6178    0.0612 O   0  0  0  0  0  0  0  0  0  0  0  0
   -5.2863    8.2497   -0.8620 C   0  0  0  0  0  0  0  0  0  0  0  0
   -6.2347    8.6888   -1.1896 H   0  0  0  0  0  0  0  0  0  0  0  0
   -4.9054    8.8695   -0.0429 H   0  0  0  0  0  0  0  0  0  0  0  0
   -4.5781    8.3140   -1.6911 H   0  0  0  0  0  0  0  0  0  0  0  0
  1  2  1  0  0  0  0
  1 11  2  0  0  0  0
  2  3  1  0  0  0  0
  4  1  1  0  0  0  0
  5  4  2  0  0  0  0
  5  6  1  0  0  0  0
  6 10  2  0  0  0  0
  7  6  1  0  0  0  0
  7  9  2  0  0  0  0
  8  7  2  0  0  0  0
 10 11  1  0  0  0  0
 10 14  1  0  0  0  0
 11 15  1  0  0  0  0
 13  5  1  0  0  0  0
 16 22  1  0  0  0  0
 17 23  1  0  0  0  0
 17 16  1  0  0  0  0
 18 17  1  0  0  0  0
 19 20  1  0  0  0  0
 19 18  2  0  0  0  0
 20 12  1  0  0  0  0
 20 21  1  0  0  0  0
 21 16  2  0  0  0  0
 21 26  1  0  0  0  0
 24 19  1  0  0  0  0
 25 20  1  0  0  0  0
 26 27  2  0  0  0  0
 26 28  1  0  0  0  0
 29 26  2  0  0  0  0
 30 18  1  0  0  0  0
 30 32  1  0  0  0  0
 31 30  1  0  0  0  0
 33 30  1  0  0  0  0
M  RAD  5   2   2   3   3   4   2  17   2  28   2
M  END
