Coordinates from ORCA-job 4-NO2PhN2+~TsO-_B3LYPG-6-31G_dp-CH-Scan-d09-49-n800
 OpenBabel11261919023D

 33 33  0  0  0  0  0  0  0  0999 V2000
   -2.7947    1.0775   -0.2493 C   0  0  0  0  0  0  0  0  0  0  0  0
   -3.8898    0.2753    0.1954 N   0  0  0  0  0  0  0  0  0  0  0  0
   -5.0070    0.6981    0.4165 N   0  0  0  0  0  0  0  0  0  0  0  0
   -2.6720    1.4743   -1.5741 C   0  0  0  0  0  0  0  0  0  0  0  0
   -1.5754    2.1545   -2.0567 C   0  0  0  0  0  0  0  0  0  0  0  0
   -0.5565    2.4366   -1.1411 C   0  0  0  0  0  0  0  0  0  0  0  0
    0.6321    3.1669   -1.6102 N   0  0  0  0  0  0  0  0  0  0  0  0
    0.6647    3.4968   -2.7946 O   0  0  0  0  0  0  0  0  0  0  0  0
    1.5161    3.4008   -0.7877 O   0  0  0  0  0  0  0  0  0  0  0  0
   -0.6270    2.0457    0.1951 C   0  0  0  0  0  0  0  0  0  0  0  0
   -1.7463    1.3488    0.6411 C   0  0  0  0  0  0  0  0  0  0  0  0
   -3.9804    1.0733   -2.6504 H   0  0  0  0  0  0  0  0  0  0  0  0
   -1.4828    2.4683   -3.0874 H   0  0  0  0  0  0  0  0  0  0  0  0
    0.1925    2.2837    0.8613 H   0  0  0  0  0  0  0  0  0  0  0  0
   -1.8209    1.0184    1.6714 H   0  0  0  0  0  0  0  0  0  0  0  0
   -6.0110    5.2384    1.2373 C   0  0  0  0  0  0  0  0  0  0  0  0
   -5.7874    6.5858    0.9656 C   0  0  0  0  0  0  0  0  0  0  0  0
   -5.9419    7.1007   -0.3303 C   0  0  0  0  0  0  0  0  0  0  0  0
   -6.3292    6.2278   -1.3588 C   0  0  0  0  0  0  0  0  0  0  0  0
   -6.5584    4.8775   -1.1097 C   0  0  0  0  0  0  0  0  0  0  0  0
   -6.3914    4.3966    0.1906 C   0  0  0  0  0  0  0  0  0  0  0  0
   -5.9020    4.8419    2.2407 H   0  0  0  0  0  0  0  0  0  0  0  0
   -5.4900    7.2496    1.7723 H   0  0  0  0  0  0  0  0  0  0  0  0
   -6.4565    6.6122   -2.3669 H   0  0  0  0  0  0  0  0  0  0  0  0
   -6.8694    4.2049   -1.9012 H   0  0  0  0  0  0  0  0  0  0  0  0
   -6.6868    2.6755    0.5244 S   0  0  0  0  0  0  0  0  0  0  0  0
   -6.9447    2.4757    1.9450 O   0  0  0  0  0  0  0  0  0  0  0  0
   -5.1004    2.1618    0.2074 O   0  0  0  0  0  0  0  0  0  0  0  0
   -7.5506    2.1047   -0.5015 O   0  0  0  0  0  0  0  0  0  0  0  0
   -5.7275    8.5685   -0.6074 C   0  0  0  0  0  0  0  0  0  0  0  0
   -6.6713    9.1216   -0.5252 H   0  0  0  0  0  0  0  0  0  0  0  0
   -5.0254    9.0127    0.1038 H   0  0  0  0  0  0  0  0  0  0  0  0
   -5.3422    8.7329   -1.6177 H   0  0  0  0  0  0  0  0  0  0  0  0
  1  2  1  0  0  0  0
  1 11  2  0  0  0  0
  2  3  1  0  0  0  0
  4  1  1  0  0  0  0
  5  4  2  0  0  0  0
  5  6  1  0  0  0  0
  6 10  2  0  0  0  0
  7  6  1  0  0  0  0
  7  9  2  0  0  0  0
  8  7  2  0  0  0  0
 10 11  1  0  0  0  0
 10 14  1  0  0  0  0
 11 15  1  0  0  0  0
 13  5  1  0  0  0  0
 16 22  1  0  0  0  0
 17 16  1  0  0  0  0
 17 23  1  0  0  0  0
 18 17  2  0  0  0  0
 19 20  2  0  0  0  0
 19 18  1  0  0  0  0
 20 21  1  0  0  0  0
 21 26  1  0  0  0  0
 21 16  2  0  0  0  0
 24 19  1  0  0  0  0
 25 20  1  0  0  0  0
 26 27  2  0  0  0  0
 28  3  1  0  0  0  0
 28 26  1  0  0  0  0
 29 26  2  0  0  0  0
 30 31  1  0  0  0  0
 30 18  1  0  0  0  0
 30 32  1  0  0  0  0
 33 30  1  0  0  0  0
M  RAD  4   2   2   3   2   4   2  12   2
M  END
