Coordinates from ORCA-job 4-NO2PhN2+~TsO-_B3LYPG-6-31G_dp-CH-Scan-d09-49-n800
 OpenBabel11261919023D

 33 34  0  0  0  0  0  0  0  0999 V2000
   -2.7541    1.0944   -0.1803 C   0  0  0  0  0  0  0  0  0  0  0  0
   -3.8504    0.3263    0.3144 N   0  0  0  0  0  0  0  0  0  0  0  0
   -4.9766    0.7352    0.5010 N   0  0  0  0  0  0  0  0  0  0  0  0
   -2.7250    1.5665   -1.4929 C   0  0  0  0  0  0  0  0  0  0  0  0
   -1.6077    2.2081   -1.9978 C   0  0  0  0  0  0  0  0  0  0  0  0
   -0.5106    2.3733   -1.1498 C   0  0  0  0  0  0  0  0  0  0  0  0
    0.6839    3.0630   -1.6635 N   0  0  0  0  0  0  0  0  0  0  0  0
    0.6508    3.4667   -2.8250 O   0  0  0  0  0  0  0  0  0  0  0  0
    1.6383    3.1927   -0.8987 O   0  0  0  0  0  0  0  0  0  0  0  0
   -0.5056    1.9012    0.1615 C   0  0  0  0  0  0  0  0  0  0  0  0
   -1.6301    1.2382    0.6429 C   0  0  0  0  0  0  0  0  0  0  0  0
   -3.8787    1.3684   -2.3242 H   0  0  0  0  0  0  0  0  0  0  0  0
   -1.5647    2.5826   -3.0117 H   0  0  0  0  0  0  0  0  0  0  0  0
    0.3738    2.0464    0.7762 H   0  0  0  0  0  0  0  0  0  0  0  0
   -1.6512    0.8385    1.6505 H   0  0  0  0  0  0  0  0  0  0  0  0
   -6.0719    5.2524    1.2076 C   0  0  0  0  0  0  0  0  0  0  0  0
   -5.8625    6.6048    0.9509 C   0  0  0  0  0  0  0  0  0  0  0  0
   -6.0033    7.1288   -0.3431 C   0  0  0  0  0  0  0  0  0  0  0  0
   -6.3616    6.2594   -1.3847 C   0  0  0  0  0  0  0  0  0  0  0  0
   -6.5755    4.9036   -1.1503 C   0  0  0  0  0  0  0  0  0  0  0  0
   -6.4229    4.4138    0.1480 C   0  0  0  0  0  0  0  0  0  0  0  0
   -5.9744    4.8494    2.2096 H   0  0  0  0  0  0  0  0  0  0  0  0
   -5.5877    7.2657    1.7680 H   0  0  0  0  0  0  0  0  0  0  0  0
   -6.4786    6.6507   -2.3914 H   0  0  0  0  0  0  0  0  0  0  0  0
   -6.8654    4.2335   -1.9519 H   0  0  0  0  0  0  0  0  0  0  0  0
   -6.6995    2.6853    0.4641 S   0  0  0  0  0  0  0  0  0  0  0  0
   -7.0178    2.4780    1.8714 O   0  0  0  0  0  0  0  0  0  0  0  0
   -5.1005    2.2001    0.2109 O   0  0  0  0  0  0  0  0  0  0  0  0
   -7.5124    2.1059   -0.5992 O   0  0  0  0  0  0  0  0  0  0  0  0
   -5.8056    8.6021   -0.6032 C   0  0  0  0  0  0  0  0  0  0  0  0
   -6.7513    9.1470   -0.4931 H   0  0  0  0  0  0  0  0  0  0  0  0
   -5.0924    9.0413    0.1002 H   0  0  0  0  0  0  0  0  0  0  0  0
   -5.4423    8.7844   -1.6185 H   0  0  0  0  0  0  0  0  0  0  0  0
  1  2  1  0  0  0  0
  1 11  2  0  0  0  0
  2  3  1  0  0  0  0
  4  1  1  0  0  0  0
  5  4  2  0  0  0  0
  5  6  1  0  0  0  0
  6 10  2  0  0  0  0
  7  6  1  0  0  0  0
  7  9  2  0  0  0  0
  8  7  2  0  0  0  0
 10 11  1  0  0  0  0
 10 14  1  0  0  0  0
 11 15  1  0  0  0  0
 12  4  1  0  0  0  0
 13  5  1  0  0  0  0
 16 22  1  0  0  0  0
 17 16  1  0  0  0  0
 17 23  1  0  0  0  0
 18 17  2  0  0  0  0
 19 20  2  0  0  0  0
 19 18  1  0  0  0  0
 20 21  1  0  0  0  0
 21 26  1  0  0  0  0
 21 16  2  0  0  0  0
 24 19  1  0  0  0  0
 25 20  1  0  0  0  0
 26 27  2  0  0  0  0
 28 26  1  0  0  0  0
 28  3  1  0  0  0  0
 29 26  2  0  0  0  0
 30 31  1  0  0  0  0
 30 18  1  0  0  0  0
 30 32  1  0  0  0  0
 33 30  1  0  0  0  0
M  RAD  2   2   2   3   2
M  END
