Coordinates from ORCA-job 4-NO2PhN2+~TsO-_B3LYPG-6-31G_dp-CH-Scan-d09-49-n800
 OpenBabel11261919023D

 33 34  0  0  0  0  0  0  0  0999 V2000
   -2.7198    1.1053   -0.1615 C   0  0  0  0  0  0  0  0  0  0  0  0
   -3.8316    0.3645    0.3354 N   0  0  0  0  0  0  0  0  0  0  0  0
   -4.9609    0.7652    0.5086 N   0  0  0  0  0  0  0  0  0  0  0  0
   -2.7365    1.7244   -1.4160 C   0  0  0  0  0  0  0  0  0  0  0  0
   -1.5908    2.3304   -1.9094 C   0  0  0  0  0  0  0  0  0  0  0  0
   -0.4385    2.3148   -1.1225 C   0  0  0  0  0  0  0  0  0  0  0  0
    0.7783    2.9682   -1.6333 N   0  0  0  0  0  0  0  0  0  0  0  0
    0.7124    3.5063   -2.7374 O   0  0  0  0  0  0  0  0  0  0  0  0
    1.7819    2.9345   -0.9235 O   0  0  0  0  0  0  0  0  0  0  0  0
   -0.3968    1.6943    0.1247 C   0  0  0  0  0  0  0  0  0  0  0  0
   -1.5430    1.0639    0.5970 C   0  0  0  0  0  0  0  0  0  0  0  0
   -3.8110    1.7219   -2.1032 H   0  0  0  0  0  0  0  0  0  0  0  0
   -1.5713    2.8150   -2.8766 H   0  0  0  0  0  0  0  0  0  0  0  0
    0.5249    1.6994    0.6924 H   0  0  0  0  0  0  0  0  0  0  0  0
   -1.5415    0.5472    1.5501 H   0  0  0  0  0  0  0  0  0  0  0  0
   -6.0748    5.2858    1.1798 C   0  0  0  0  0  0  0  0  0  0  0  0
   -5.8909    6.6390    0.9094 C   0  0  0  0  0  0  0  0  0  0  0  0
   -6.0817    7.1543   -0.3820 C   0  0  0  0  0  0  0  0  0  0  0  0
   -6.4638    6.2750   -1.4062 C   0  0  0  0  0  0  0  0  0  0  0  0
   -6.6529    4.9176   -1.1577 C   0  0  0  0  0  0  0  0  0  0  0  0
   -6.4508    4.4366    0.1370 C   0  0  0  0  0  0  0  0  0  0  0  0
   -5.9393    4.8897    2.1802 H   0  0  0  0  0  0  0  0  0  0  0  0
   -5.5975    7.3079    1.7135 H   0  0  0  0  0  0  0  0  0  0  0  0
   -6.6201    6.6594   -2.4102 H   0  0  0  0  0  0  0  0  0  0  0  0
   -6.9623    4.2396   -1.9452 H   0  0  0  0  0  0  0  0  0  0  0  0
   -6.6980    2.7064    0.4716 S   0  0  0  0  0  0  0  0  0  0  0  0
   -6.9916    2.5082    1.8859 O   0  0  0  0  0  0  0  0  0  0  0  0
   -5.1028    2.2389    0.1962 O   0  0  0  0  0  0  0  0  0  0  0  0
   -7.5250    2.1108   -0.5722 O   0  0  0  0  0  0  0  0  0  0  0  0
   -5.9118    8.6288   -0.6548 C   0  0  0  0  0  0  0  0  0  0  0  0
   -6.8498    9.1686   -0.4744 H   0  0  0  0  0  0  0  0  0  0  0  0
   -5.1518    9.0718   -0.0047 H   0  0  0  0  0  0  0  0  0  0  0  0
   -5.6246    8.8140   -1.6935 H   0  0  0  0  0  0  0  0  0  0  0  0
  1  2  1  0  0  0  0
  1 11  2  0  0  0  0
  2  3  1  0  0  0  0
  4  1  1  0  0  0  0
  5  4  2  0  0  0  0
  5  6  1  0  0  0  0
  6 10  2  0  0  0  0
  7  6  1  0  0  0  0
  7  9  2  0  0  0  0
  8  7  2  0  0  0  0
 10 11  1  0  0  0  0
 10 14  1  0  0  0  0
 11 15  1  0  0  0  0
 12  4  1  0  0  0  0
 13  5  1  0  0  0  0
 16 22  1  0  0  0  0
 17 16  1  0  0  0  0
 17 23  1  0  0  0  0
 18 17  2  0  0  0  0
 19 20  2  0  0  0  0
 19 18  1  0  0  0  0
 20 21  1  0  0  0  0
 21 26  1  0  0  0  0
 21 16  2  0  0  0  0
 24 19  1  0  0  0  0
 25 20  1  0  0  0  0
 26 27  2  0  0  0  0
 28 26  1  0  0  0  0
 28  3  1  0  0  0  0
 29 26  2  0  0  0  0
 30 31  1  0  0  0  0
 30 18  1  0  0  0  0
 30 32  1  0  0  0  0
 33 30  1  0  0  0  0
M  RAD  2   2   2   3   2
M  END
