Coordinates from ORCA-job 4-NO2PhN2+~TsO-_B3LYPG-6-31G_dp-CH-Scan-d09-49-n800
 OpenBabel11261919023D

 33 33  0  0  0  0  0  0  0  0999 V2000
   -2.8060    1.0775   -0.2811 C   0  0  0  0  0  0  0  0  0  0  0  0
   -3.9044    0.2574    0.1241 N   0  0  0  0  0  0  0  0  0  0  0  0
   -5.0160    0.6891    0.3672 N   0  0  0  0  0  0  0  0  0  0  0  0
   -2.6247    1.4944   -1.5836 C   0  0  0  0  0  0  0  0  0  0  0  0
   -1.5464    2.1913   -2.0587 C   0  0  0  0  0  0  0  0  0  0  0  0
   -0.5536    2.4759   -1.1105 C   0  0  0  0  0  0  0  0  0  0  0  0
    0.6396    3.2225   -1.5442 N   0  0  0  0  0  0  0  0  0  0  0  0
    0.6982    3.5614   -2.7246 O   0  0  0  0  0  0  0  0  0  0  0  0
    1.4978    3.4595   -0.6961 O   0  0  0  0  0  0  0  0  0  0  0  0
   -0.6574    2.0733    0.2205 C   0  0  0  0  0  0  0  0  0  0  0  0
   -1.7800    1.3620    0.6359 C   0  0  0  0  0  0  0  0  0  0  0  0
   -4.3164    0.9304   -3.0310 H   0  0  0  0  0  0  0  0  0  0  0  0
   -1.4355    2.5134   -3.0857 H   0  0  0  0  0  0  0  0  0  0  0  0
    0.1413    2.3160    0.9096 H   0  0  0  0  0  0  0  0  0  0  0  0
   -1.8782    1.0277    1.6637 H   0  0  0  0  0  0  0  0  0  0  0  0
   -5.9743    5.2434    1.2557 C   0  0  0  0  0  0  0  0  0  0  0  0
   -5.7499    6.5864    0.9621 C   0  0  0  0  0  0  0  0  0  0  0  0
   -5.9194    7.0833   -0.3387 C   0  0  0  0  0  0  0  0  0  0  0  0
   -6.3225    6.1972   -1.3502 C   0  0  0  0  0  0  0  0  0  0  0  0
   -6.5532    4.8516   -1.0796 C   0  0  0  0  0  0  0  0  0  0  0  0
   -6.3712    4.3890    0.2258 C   0  0  0  0  0  0  0  0  0  0  0  0
   -5.8530    4.8603    2.2627 H   0  0  0  0  0  0  0  0  0  0  0  0
   -5.4403    7.2606    1.7554 H   0  0  0  0  0  0  0  0  0  0  0  0
   -6.4609    6.5677   -2.3620 H   0  0  0  0  0  0  0  0  0  0  0  0
   -6.8751    4.1691   -1.8580 H   0  0  0  0  0  0  0  0  0  0  0  0
   -6.6693    2.6747    0.5868 S   0  0  0  0  0  0  0  0  0  0  0  0
   -6.8707    2.4879    2.0181 O   0  0  0  0  0  0  0  0  0  0  0  0
   -5.0916    2.1458    0.2167 O   0  0  0  0  0  0  0  0  0  0  0  0
   -7.5721    2.0987   -0.4005 O   0  0  0  0  0  0  0  0  0  0  0  0
   -5.7034    8.5460   -0.6407 C   0  0  0  0  0  0  0  0  0  0  0  0
   -6.6523    9.0948   -0.6029 H   0  0  0  0  0  0  0  0  0  0  0  0
   -5.0274    9.0098    0.0830 H   0  0  0  0  0  0  0  0  0  0  0  0
   -5.2854    8.6898   -1.6414 H   0  0  0  0  0  0  0  0  0  0  0  0
  1  2  1  0  0  0  0
  1 11  2  0  0  0  0
  2  3  1  0  0  0  0
  4  1  1  0  0  0  0
  5  4  2  0  0  0  0
  5  6  1  0  0  0  0
  6 10  2  0  0  0  0
  7  6  1  0  0  0  0
  7  9  2  0  0  0  0
  8  7  2  0  0  0  0
 10 11  1  0  0  0  0
 10 14  1  0  0  0  0
 11 15  1  0  0  0  0
 13  5  1  0  0  0  0
 16 22  1  0  0  0  0
 17 16  1  0  0  0  0
 17 23  1  0  0  0  0
 18 17  2  0  0  0  0
 19 20  2  0  0  0  0
 19 18  1  0  0  0  0
 20 21  1  0  0  0  0
 21 26  1  0  0  0  0
 21 16  2  0  0  0  0
 24 19  1  0  0  0  0
 25 20  1  0  0  0  0
 26 27  2  0  0  0  0
 28  3  1  0  0  0  0
 28 26  1  0  0  0  0
 29 26  2  0  0  0  0
 30 31  1  0  0  0  0
 30 18  1  0  0  0  0
 30 32  1  0  0  0  0
 33 30  1  0  0  0  0
M  RAD  4   2   2   3   2   4   2  12   2
M  END
