Coordinates from ORCA-job 4-NO2PhN2+~TsO-_B3LYPG-6-31G_dp-CH-Scan-d09-49-n800
 OpenBabel11261919023D

 33 33  0  0  0  0  0  0  0  0999 V2000
   -2.7739    1.0864   -0.2082 C   0  0  0  0  0  0  0  0  0  0  0  0
   -3.8678    0.3015    0.2673 N   0  0  0  0  0  0  0  0  0  0  0  0
   -4.9908    0.7161    0.4666 N   0  0  0  0  0  0  0  0  0  0  0  0
   -2.7056    1.5145   -1.5314 C   0  0  0  0  0  0  0  0  0  0  0  0
   -1.5991    2.1758   -2.0281 C   0  0  0  0  0  0  0  0  0  0  0  0
   -0.5378    2.4056   -1.1488 C   0  0  0  0  0  0  0  0  0  0  0  0
    0.6514    3.1160   -1.6457 N   0  0  0  0  0  0  0  0  0  0  0  0
    0.6473    3.4762   -2.8218 O   0  0  0  0  0  0  0  0  0  0  0  0
    1.5728    3.3053   -0.8531 O   0  0  0  0  0  0  0  0  0  0  0  0
   -0.5650    1.9797    0.1781 C   0  0  0  0  0  0  0  0  0  0  0  0
   -1.6847    1.2989    0.6468 C   0  0  0  0  0  0  0  0  0  0  0  0
   -3.9138    1.2228   -2.4589 H   0  0  0  0  0  0  0  0  0  0  0  0
   -1.5348    2.5159   -3.0528 H   0  0  0  0  0  0  0  0  0  0  0  0
    0.2868    2.1756    0.8169 H   0  0  0  0  0  0  0  0  0  0  0  0
   -1.7281    0.9375    1.6682 H   0  0  0  0  0  0  0  0  0  0  0  0
   -6.0456    5.2417    1.2203 C   0  0  0  0  0  0  0  0  0  0  0  0
   -5.8270    6.5919    0.9596 C   0  0  0  0  0  0  0  0  0  0  0  0
   -5.9698    7.1141   -0.3349 C   0  0  0  0  0  0  0  0  0  0  0  0
   -6.3400    6.2454   -1.3729 C   0  0  0  0  0  0  0  0  0  0  0  0
   -6.5634    4.8919   -1.1348 C   0  0  0  0  0  0  0  0  0  0  0  0
   -6.4084    4.4038    0.1641 C   0  0  0  0  0  0  0  0  0  0  0  0
   -5.9461    4.8399    2.2226 H   0  0  0  0  0  0  0  0  0  0  0  0
   -5.5430    7.2524    1.7739 H   0  0  0  0  0  0  0  0  0  0  0  0
   -6.4584    6.6354   -2.3800 H   0  0  0  0  0  0  0  0  0  0  0  0
   -6.8617    4.2224   -1.9336 H   0  0  0  0  0  0  0  0  0  0  0  0
   -6.6963    2.6785    0.4846 S   0  0  0  0  0  0  0  0  0  0  0  0
   -6.9931    2.4729    1.8968 O   0  0  0  0  0  0  0  0  0  0  0  0
   -5.1020    2.1797    0.2078 O   0  0  0  0  0  0  0  0  0  0  0  0
   -7.5288    2.1048   -0.5660 O   0  0  0  0  0  0  0  0  0  0  0  0
   -5.7615    8.5851   -0.5996 C   0  0  0  0  0  0  0  0  0  0  0  0
   -6.7054    9.1355   -0.5017 H   0  0  0  0  0  0  0  0  0  0  0  0
   -5.0529    9.0237    0.1087 H   0  0  0  0  0  0  0  0  0  0  0  0
   -5.3872    8.7607   -1.6121 H   0  0  0  0  0  0  0  0  0  0  0  0
  1  2  1  0  0  0  0
  1 11  2  0  0  0  0
  2  3  1  0  0  0  0
  4  1  1  0  0  0  0
  5  4  2  0  0  0  0
  5  6  1  0  0  0  0
  6 10  2  0  0  0  0
  7  6  1  0  0  0  0
  7  9  2  0  0  0  0
  8  7  2  0  0  0  0
 10 11  1  0  0  0  0
 10 14  1  0  0  0  0
 11 15  1  0  0  0  0
 13  5  1  0  0  0  0
 16 22  1  0  0  0  0
 17 16  1  0  0  0  0
 17 23  1  0  0  0  0
 18 17  2  0  0  0  0
 19 20  2  0  0  0  0
 19 18  1  0  0  0  0
 20 21  1  0  0  0  0
 21 26  1  0  0  0  0
 21 16  2  0  0  0  0
 24 19  1  0  0  0  0
 25 20  1  0  0  0  0
 26 27  2  0  0  0  0
 28  3  1  0  0  0  0
 28 26  1  0  0  0  0
 29 26  2  0  0  0  0
 30 31  1  0  0  0  0
 30 18  1  0  0  0  0
 30 32  1  0  0  0  0
 33 30  1  0  0  0  0
M  RAD  4   2   2   3   2   4   2  12   2
M  END
