Coordinates from ORCA-job 4-NO2PhN2+~TsO-_B3LYPG-6-31G_dp-CH-Scan-d09-49-n800
 OpenBabel11261919023D

 33 33  0  0  0  0  0  0  0  0999 V2000
   -2.9037    0.7960   -0.9587 C   0  0  0  0  0  0  0  0  0  0  0  0
   -3.9054   -0.1789   -0.7447 N   0  0  0  0  0  0  0  0  0  0  0  0
   -4.6764   -0.9786   -0.6688 N   0  0  0  0  0  0  0  0  0  0  0  0
   -2.3115    0.6655   -2.2138 C   0  0  0  0  0  0  0  0  0  0  0  0
   -1.3199    1.6797   -2.3805 C   0  0  0  0  0  0  0  0  0  0  0  0
   -1.0256    2.5954   -1.3794 C   0  0  0  0  0  0  0  0  0  0  0  0
    0.0017    3.6339   -1.6250 N   0  0  0  0  0  0  0  0  0  0  0  0
    0.7687    3.4733   -2.5702 O   0  0  0  0  0  0  0  0  0  0  0  0
    0.0054    4.6151   -0.8768 O   0  0  0  0  0  0  0  0  0  0  0  0
   -1.6815    2.6297   -0.1282 C   0  0  0  0  0  0  0  0  0  0  0  0
   -2.6704    1.6970    0.1104 C   0  0  0  0  0  0  0  0  0  0  0  0
   -4.0630    4.0441   -0.2353 H   0  0  0  0  0  0  0  0  0  0  0  0
   -0.7685    1.7621   -3.3141 H   0  0  0  0  0  0  0  0  0  0  0  0
   -1.3967    3.3675    0.6106 H   0  0  0  0  0  0  0  0  0  0  0  0
   -3.2395    1.6803    1.0360 H   0  0  0  0  0  0  0  0  0  0  0  0
   -6.6808    5.2592    1.1558 C   0  0  0  0  0  0  0  0  0  0  0  0
   -6.4626    6.5539    0.6936 C   0  0  0  0  0  0  0  0  0  0  0  0
   -5.5618    6.8875   -0.3678 C   0  0  0  0  0  0  0  0  0  0  0  0
   -4.8859    5.8571   -0.9615 C   0  0  0  0  0  0  0  0  0  0  0  0
   -5.0510    4.4578   -0.5263 C   0  0  0  0  0  0  0  0  0  0  0  0
   -5.9950    4.2031    0.5720 C   0  0  0  0  0  0  0  0  0  0  0  0
   -7.3899    5.0532    1.9509 H   0  0  0  0  0  0  0  0  0  0  0  0
   -7.0147    7.3677    1.1605 H   0  0  0  0  0  0  0  0  0  0  0  0
   -4.1911    6.0520   -1.7747 H   0  0  0  0  0  0  0  0  0  0  0  0
   -5.2988    3.7895   -1.3701 H   0  0  0  0  0  0  0  0  0  0  0  0
   -6.1882    2.5144    1.2019 S   0  0  0  0  0  0  0  0  0  0  0  0
   -7.5311    2.4959    1.7979 O   0  0  0  0  0  0  0  0  0  0  0  0
   -5.0459    2.5258    2.1594 O   0  0  0  0  0  0  0  0  0  0  0  0
   -5.9745    1.6686    0.0058 O   0  0  0  0  0  0  0  0  0  0  0  0
   -5.3989    8.3269   -0.7865 C   0  0  0  0  0  0  0  0  0  0  0  0
   -6.3560    8.7556   -1.1022 H   0  0  0  0  0  0  0  0  0  0  0  0
   -5.0264    8.9367    0.0439 H   0  0  0  0  0  0  0  0  0  0  0  0
   -4.6948    8.4206   -1.6163 H   0  0  0  0  0  0  0  0  0  0  0  0
  1  2  1  0  0  0  0
  1 11  2  0  0  0  0
  2  3  1  0  0  0  0
  4  1  1  0  0  0  0
  5  4  2  0  0  0  0
  5  6  1  0  0  0  0
  6 10  2  0  0  0  0
  7  6  1  0  0  0  0
  7  9  2  0  0  0  0
  8  7  2  0  0  0  0
 10 11  1  0  0  0  0
 10 14  1  0  0  0  0
 11 15  1  0  0  0  0
 13  5  1  0  0  0  0
 16 22  1  0  0  0  0
 17 16  1  0  0  0  0
 17 23  1  0  0  0  0
 18 17  1  0  0  0  0
 19 20  1  0  0  0  0
 19 18  2  0  0  0  0
 20 12  1  0  0  0  0
 20 21  1  0  0  0  0
 21 16  2  0  0  0  0
 21 26  1  0  0  0  0
 24 19  1  0  0  0  0
 25 20  1  0  0  0  0
 26 27  2  0  0  0  0
 26 28  1  0  0  0  0
 29 26  2  0  0  0  0
 30 18  1  0  0  0  0
 30 32  1  0  0  0  0
 31 30  1  0  0  0  0
 33 30  1  0  0  0  0
M  RAD  5   2   2   3   3   4   2  17   2  28   2
M  END
