Coordinates from ORCA-job 4-NO2PhN2+~TsO-_B3LYPG-6-31G_dp-CH-Scan-d09-49-n800
 OpenBabel11261919023D

 33 33  0  0  0  0  0  0  0  0999 V2000
   -2.2417    1.1832   -0.2997 C   0  0  0  0  0  0  0  0  0  0  0  0
   -3.5026    0.7207    0.1339 N   0  0  0  0  0  0  0  0  0  0  0  0
   -4.5138    0.3868    0.4600 N   0  0  0  0  0  0  0  0  0  0  0  0
   -2.2884    2.3259   -1.0979 C   0  0  0  0  0  0  0  0  0  0  0  0
   -0.9744    2.7063   -1.4888 C   0  0  0  0  0  0  0  0  0  0  0  0
    0.1486    1.9851   -1.1057 C   0  0  0  0  0  0  0  0  0  0  0  0
    1.4896    2.4341   -1.5593 N   0  0  0  0  0  0  0  0  0  0  0  0
    1.5474    3.4293   -2.2767 O   0  0  0  0  0  0  0  0  0  0  0  0
    2.4642    1.7793   -1.1890 O   0  0  0  0  0  0  0  0  0  0  0  0
    0.0997    0.8338   -0.2944 C   0  0  0  0  0  0  0  0  0  0  0  0
   -1.1374    0.4054    0.1334 C   0  0  0  0  0  0  0  0  0  0  0  0
   -5.1873    4.2750   -1.0891 H   0  0  0  0  0  0  0  0  0  0  0  0
   -0.8156    3.5845   -2.1086 H   0  0  0  0  0  0  0  0  0  0  0  0
    1.0141    0.3220   -0.0277 H   0  0  0  0  0  0  0  0  0  0  0  0
   -1.2522   -0.4715    0.7643 H   0  0  0  0  0  0  0  0  0  0  0  0
   -6.9952    5.6085    1.1757 C   0  0  0  0  0  0  0  0  0  0  0  0
   -6.8977    6.8941    0.6544 C   0  0  0  0  0  0  0  0  0  0  0  0
   -6.4634    7.1865   -0.6785 C   0  0  0  0  0  0  0  0  0  0  0  0
   -6.1331    6.1278   -1.4782 C   0  0  0  0  0  0  0  0  0  0  0  0
   -6.1926    4.7346   -0.9978 C   0  0  0  0  0  0  0  0  0  0  0  0
   -6.6578    4.5216    0.3793 C   0  0  0  0  0  0  0  0  0  0  0  0
   -7.3554    5.4330    2.1836 H   0  0  0  0  0  0  0  0  0  0  0  0
   -7.1767    7.7325    1.2904 H   0  0  0  0  0  0  0  0  0  0  0  0
   -5.7969    6.2937   -2.4984 H   0  0  0  0  0  0  0  0  0  0  0  0
   -6.7660    4.0769   -1.6735 H   0  0  0  0  0  0  0  0  0  0  0  0
   -6.7234    2.8353    1.0372 S   0  0  0  0  0  0  0  0  0  0  0  0
   -7.8072    2.8801    2.0335 O   0  0  0  0  0  0  0  0  0  0  0  0
   -5.3407    2.7763    1.5919 O   0  0  0  0  0  0  0  0  0  0  0  0
   -6.9462    1.9976   -0.1588 O   0  0  0  0  0  0  0  0  0  0  0  0
   -6.3952    8.6200   -1.1422 C   0  0  0  0  0  0  0  0  0  0  0  0
   -7.3766    9.1027   -1.0760 H   0  0  0  0  0  0  0  0  0  0  0  0
   -5.7044    9.2008   -0.5216 H   0  0  0  0  0  0  0  0  0  0  0  0
   -6.0551    8.6860   -2.1780 H   0  0  0  0  0  0  0  0  0  0  0  0
  1 11  1  0  0  0  0
  1  2  1  0  0  0  0
  2  3  1  0  0  0  0
  4  1  2  0  0  0  0
  5  6  2  0  0  0  0
  5  4  1  0  0  0  0
  6 10  1  0  0  0  0
  7  9  2  0  0  0  0
  7  6  1  0  0  0  0
  8  7  2  0  0  0  0
 10 14  1  0  0  0  0
 10 11  2  0  0  0  0
 11 15  1  0  0  0  0
 12 20  1  0  0  0  0
 13  5  1  0  0  0  0
 16 22  1  0  0  0  0
 17 16  1  0  0  0  0
 17 23  1  0  0  0  0
 18 17  1  0  0  0  0
 19 20  1  0  0  0  0
 19 18  2  0  0  0  0
 20 21  1  0  0  0  0
 21 26  1  0  0  0  0
 21 16  2  0  0  0  0
 24 19  1  0  0  0  0
 25 20  1  0  0  0  0
 26 28  2  0  0  0  0
 26 27  1  0  0  0  0
 29 26  2  0  0  0  0
 30 31  1  0  0  0  0
 30 18  1  0  0  0  0
 30 32  1  0  0  0  0
 33 30  1  0  0  0  0
M  RAD  5   2   2   3   3   4   2  17   2  27   2
M  END
