Coordinates from ORCA-job 4-NO2PhN2+~TsO-_B3LYPG-6-31G_dp-CH-Scan-d09-49-n800
 OpenBabel11261919023D

 33 33  0  0  0  0  0  0  0  0999 V2000
   -2.7856    1.0878   -0.2468 C   0  0  0  0  0  0  0  0  0  0  0  0
   -3.8841    0.2673    0.1595 N   0  0  0  0  0  0  0  0  0  0  0  0
   -4.9969    0.6998    0.4031 N   0  0  0  0  0  0  0  0  0  0  0  0
   -2.6529    1.6225   -1.5084 C   0  0  0  0  0  0  0  0  0  0  0  0
   -1.5864    2.3248   -1.9915 C   0  0  0  0  0  0  0  0  0  0  0  0
   -0.5294    2.4864   -1.0816 C   0  0  0  0  0  0  0  0  0  0  0  0
    0.6652    3.2308   -1.5185 N   0  0  0  0  0  0  0  0  0  0  0  0
    0.6691    3.6726   -2.6655 O   0  0  0  0  0  0  0  0  0  0  0  0
    1.5774    3.3617   -0.7048 O   0  0  0  0  0  0  0  0  0  0  0  0
   -0.5723    1.9634    0.2105 C   0  0  0  0  0  0  0  0  0  0  0  0
   -1.6940    1.2508    0.6259 C   0  0  0  0  0  0  0  0  0  0  0  0
   -4.7237    1.1743   -3.1368 H   0  0  0  0  0  0  0  0  0  0  0  0
   -1.5215    2.7367   -2.9905 H   0  0  0  0  0  0  0  0  0  0  0  0
    0.2737    2.1139    0.8688 H   0  0  0  0  0  0  0  0  0  0  0  0
   -1.7462    0.8229    1.6221 H   0  0  0  0  0  0  0  0  0  0  0  0
   -6.0192    5.2631    1.2572 C   0  0  0  0  0  0  0  0  0  0  0  0
   -5.7994    6.6025    0.9440 C   0  0  0  0  0  0  0  0  0  0  0  0
   -5.9269    7.0706   -0.3722 C   0  0  0  0  0  0  0  0  0  0  0  0
   -6.2822    6.1591   -1.3791 C   0  0  0  0  0  0  0  0  0  0  0  0
   -6.5079    4.8168   -1.0893 C   0  0  0  0  0  0  0  0  0  0  0  0
   -6.3691    4.3836    0.2317 C   0  0  0  0  0  0  0  0  0  0  0  0
   -5.9298    4.9014    2.2755 H   0  0  0  0  0  0  0  0  0  0  0  0
   -5.5261    7.2963    1.7338 H   0  0  0  0  0  0  0  0  0  0  0  0
   -6.3868    6.5071   -2.4030 H   0  0  0  0  0  0  0  0  0  0  0  0
   -6.7917    4.1144   -1.8649 H   0  0  0  0  0  0  0  0  0  0  0  0
   -6.6620    2.6742    0.6169 S   0  0  0  0  0  0  0  0  0  0  0  0
   -6.8744    2.5077    2.0489 O   0  0  0  0  0  0  0  0  0  0  0  0
   -5.0743    2.1503    0.2683 O   0  0  0  0  0  0  0  0  0  0  0  0
   -7.5500    2.0757   -0.3699 O   0  0  0  0  0  0  0  0  0  0  0  0
   -5.7167    8.5292   -0.6969 C   0  0  0  0  0  0  0  0  0  0  0  0
   -6.6732    9.0657   -0.7113 H   0  0  0  0  0  0  0  0  0  0  0  0
   -5.0782    9.0177    0.0443 H   0  0  0  0  0  0  0  0  0  0  0  0
   -5.2582    8.6568   -1.6819 H   0  0  0  0  0  0  0  0  0  0  0  0
  1  2  1  0  0  0  0
  1 11  2  0  0  0  0
  2  3  1  0  0  0  0
  4  1  1  0  0  0  0
  5  4  2  0  0  0  0
  5  6  1  0  0  0  0
  6 10  2  0  0  0  0
  7  6  1  0  0  0  0
  7  9  2  0  0  0  0
  8  7  2  0  0  0  0
 10 11  1  0  0  0  0
 10 14  1  0  0  0  0
 11 15  1  0  0  0  0
 13  5  1  0  0  0  0
 16 22  1  0  0  0  0
 17 16  1  0  0  0  0
 17 23  1  0  0  0  0
 18 17  2  0  0  0  0
 19 20  2  0  0  0  0
 19 18  1  0  0  0  0
 20 21  1  0  0  0  0
 21 26  1  0  0  0  0
 21 16  2  0  0  0  0
 24 19  1  0  0  0  0
 25 20  1  0  0  0  0
 26 27  2  0  0  0  0
 28  3  1  0  0  0  0
 28 26  1  0  0  0  0
 29 26  2  0  0  0  0
 30 18  1  0  0  0  0
 30 32  1  0  0  0  0
 31 30  1  0  0  0  0
 33 30  1  0  0  0  0
M  RAD  4   2   2   3   2   4   2  12   2
M  END
