Coordinates from ORCA-job 4-NO2PhN2+~TsO-_B3LYPG-6-31G_dp-CH-Scan-d09-49-n800
 OpenBabel11261919023D

 33 33  0  0  0  0  0  0  0  0999 V2000
   -2.9594    0.8400   -0.9733 C   0  0  0  0  0  0  0  0  0  0  0  0
   -3.9376   -0.1675   -0.7969 N   0  0  0  0  0  0  0  0  0  0  0  0
   -4.6907   -0.9862   -0.7545 N   0  0  0  0  0  0  0  0  0  0  0  0
   -2.4367    0.8358   -2.2645 C   0  0  0  0  0  0  0  0  0  0  0  0
   -1.4713    1.8812   -2.3909 C   0  0  0  0  0  0  0  0  0  0  0  0
   -1.1483    2.7191   -1.3326 C   0  0  0  0  0  0  0  0  0  0  0  0
   -0.1685    3.8098   -1.5437 N   0  0  0  0  0  0  0  0  0  0  0  0
    0.5561    3.7503   -2.5329 O   0  0  0  0  0  0  0  0  0  0  0  0
   -0.1675    4.7347   -0.7268 O   0  0  0  0  0  0  0  0  0  0  0  0
   -1.7358    2.6275   -0.0506 C   0  0  0  0  0  0  0  0  0  0  0  0
   -2.6866    1.6485    0.1570 C   0  0  0  0  0  0  0  0  0  0  0  0
   -4.0173    3.9559   -0.2051 H   0  0  0  0  0  0  0  0  0  0  0  0
   -0.9673    2.0536   -3.3389 H   0  0  0  0  0  0  0  0  0  0  0  0
   -1.4337    3.3093    0.7330 H   0  0  0  0  0  0  0  0  0  0  0  0
   -3.2099    1.5453    1.1025 H   0  0  0  0  0  0  0  0  0  0  0  0
   -6.6153    5.2424    1.1372 C   0  0  0  0  0  0  0  0  0  0  0  0
   -6.3719    6.5210    0.6433 C   0  0  0  0  0  0  0  0  0  0  0  0
   -5.4652    6.8107   -0.4255 C   0  0  0  0  0  0  0  0  0  0  0  0
   -4.8099    5.7525   -0.9933 C   0  0  0  0  0  0  0  0  0  0  0  0
   -4.9994    4.3692   -0.5210 C   0  0  0  0  0  0  0  0  0  0  0  0
   -5.9506    4.1590    0.5796 C   0  0  0  0  0  0  0  0  0  0  0  0
   -7.3281    5.0699    1.9369 H   0  0  0  0  0  0  0  0  0  0  0  0
   -6.9080    7.3565    1.0900 H   0  0  0  0  0  0  0  0  0  0  0  0
   -4.1109    5.9133   -1.8104 H   0  0  0  0  0  0  0  0  0  0  0  0
   -5.2410    3.6764   -1.3459 H   0  0  0  0  0  0  0  0  0  0  0  0
   -6.1756    2.4904    1.2531 S   0  0  0  0  0  0  0  0  0  0  0  0
   -7.5148    2.5162    1.8574 O   0  0  0  0  0  0  0  0  0  0  0  0
   -5.0269    2.4974    2.2024 O   0  0  0  0  0  0  0  0  0  0  0  0
   -5.9899    1.6120    0.0758 O   0  0  0  0  0  0  0  0  0  0  0  0
   -5.2736    8.2356   -0.8801 C   0  0  0  0  0  0  0  0  0  0  0  0
   -6.2216    8.6751   -1.2081 H   0  0  0  0  0  0  0  0  0  0  0  0
   -4.8896    8.8587   -0.0649 H   0  0  0  0  0  0  0  0  0  0  0  0
   -4.5668    8.2941   -1.7109 H   0  0  0  0  0  0  0  0  0  0  0  0
  1  2  1  0  0  0  0
  1 11  2  0  0  0  0
  2  3  1  0  0  0  0
  4  1  1  0  0  0  0
  5  4  2  0  0  0  0
  5  6  1  0  0  0  0
  6 10  2  0  0  0  0
  7  6  1  0  0  0  0
  7  9  2  0  0  0  0
  8  7  2  0  0  0  0
 10 11  1  0  0  0  0
 10 14  1  0  0  0  0
 11 15  1  0  0  0  0
 13  5  1  0  0  0  0
 16 22  1  0  0  0  0
 17 23  1  0  0  0  0
 17 16  1  0  0  0  0
 18 17  1  0  0  0  0
 19 20  1  0  0  0  0
 19 18  2  0  0  0  0
 20 12  1  0  0  0  0
 20 21  1  0  0  0  0
 21 16  2  0  0  0  0
 21 26  1  0  0  0  0
 24 19  1  0  0  0  0
 25 20  1  0  0  0  0
 26 27  2  0  0  0  0
 26 28  1  0  0  0  0
 29 26  2  0  0  0  0
 30 18  1  0  0  0  0
 30 32  1  0  0  0  0
 31 30  1  0  0  0  0
 33 30  1  0  0  0  0
M  RAD  5   2   2   3   3   4   2  17   2  28   2
M  END
