Coordinates from ORCA-job 4-NO2PhN2+~TsO-_B3LYPG-6-31G_dp-CH-Scan-d09-49-n800
 OpenBabel11261919033D

 33 33  0  0  0  0  0  0  0  0999 V2000
   -2.8584    0.7394   -0.9792 C   0  0  0  0  0  0  0  0  0  0  0  0
   -3.9101   -0.1731   -0.7419 N   0  0  0  0  0  0  0  0  0  0  0  0
   -4.7214   -0.9294   -0.6433 N   0  0  0  0  0  0  0  0  0  0  0  0
   -2.2161    0.4918   -2.1917 C   0  0  0  0  0  0  0  0  0  0  0  0
   -1.1700    1.4415   -2.3859 C   0  0  0  0  0  0  0  0  0  0  0  0
   -0.8661    2.4050   -1.4330 C   0  0  0  0  0  0  0  0  0  0  0  0
    0.2338    3.3622   -1.6955 N   0  0  0  0  0  0  0  0  0  0  0  0
    1.0162    3.1039   -2.6062 O   0  0  0  0  0  0  0  0  0  0  0  0
    0.2840    4.3758   -0.9941 O   0  0  0  0  0  0  0  0  0  0  0  0
   -1.5732    2.5610   -0.2200 C   0  0  0  0  0  0  0  0  0  0  0  0
   -2.6233    1.7033    0.0341 C   0  0  0  0  0  0  0  0  0  0  0  0
   -4.0600    4.2342   -0.1615 H   0  0  0  0  0  0  0  0  0  0  0  0
   -0.5797    1.4328   -3.2988 H   0  0  0  0  0  0  0  0  0  0  0  0
   -1.2789    3.3320    0.4802 H   0  0  0  0  0  0  0  0  0  0  0  0
   -3.2290    1.7765    0.9339 H   0  0  0  0  0  0  0  0  0  0  0  0
   -6.7926    5.2851    1.1517 C   0  0  0  0  0  0  0  0  0  0  0  0
   -6.6332    6.5975    0.7141 C   0  0  0  0  0  0  0  0  0  0  0  0
   -5.7134    6.9975   -0.3073 C   0  0  0  0  0  0  0  0  0  0  0  0
   -4.9545    6.0176   -0.8853 C   0  0  0  0  0  0  0  0  0  0  0  0
   -5.0558    4.6027   -0.4772 C   0  0  0  0  0  0  0  0  0  0  0  0
   -6.0245    4.2796    0.5831 C   0  0  0  0  0  0  0  0  0  0  0  0
   -7.5166    5.0259    1.9173 H   0  0  0  0  0  0  0  0  0  0  0  0
   -7.2492    7.3711    1.1694 H   0  0  0  0  0  0  0  0  0  0  0  0
   -4.2412    6.2643   -1.6681 H   0  0  0  0  0  0  0  0  0  0  0  0
   -5.2481    3.9422   -1.3415 H   0  0  0  0  0  0  0  0  0  0  0  0
   -6.1447    2.5726    1.1796 S   0  0  0  0  0  0  0  0  0  0  0  0
   -7.4751    2.4890    1.7970 O   0  0  0  0  0  0  0  0  0  0  0  0
   -4.9859    2.5994    2.1164 O   0  0  0  0  0  0  0  0  0  0  0  0
   -5.9215    1.7645   -0.0414 O   0  0  0  0  0  0  0  0  0  0  0  0
   -5.6216    8.4499   -0.7025 C   0  0  0  0  0  0  0  0  0  0  0  0
   -6.5877    8.8215   -1.0607 H   0  0  0  0  0  0  0  0  0  0  0  0
   -5.3303    9.0709    0.1516 H   0  0  0  0  0  0  0  0  0  0  0  0
   -4.8855    8.5993   -1.4955 H   0  0  0  0  0  0  0  0  0  0  0  0
  1  2  1  0  0  0  0
  1 11  2  0  0  0  0
  2  3  1  0  0  0  0
  4  1  1  0  0  0  0
  5  4  2  0  0  0  0
  5  6  1  0  0  0  0
  6 10  2  0  0  0  0
  7  6  1  0  0  0  0
  7  9  2  0  0  0  0
  8  7  2  0  0  0  0
 10 11  1  0  0  0  0
 10 14  1  0  0  0  0
 11 15  1  0  0  0  0
 13  5  1  0  0  0  0
 16 22  1  0  0  0  0
 17 16  1  0  0  0  0
 17 23  1  0  0  0  0
 18 17  1  0  0  0  0
 19 20  1  0  0  0  0
 19 18  2  0  0  0  0
 20 12  1  0  0  0  0
 20 21  1  0  0  0  0
 21 16  2  0  0  0  0
 21 26  1  0  0  0  0
 24 19  1  0  0  0  0
 25 20  1  0  0  0  0
 26 27  2  0  0  0  0
 26 28  1  0  0  0  0
 29 26  2  0  0  0  0
 30 18  1  0  0  0  0
 30 32  1  0  0  0  0
 31 30  1  0  0  0  0
 33 30  1  0  0  0  0
M  RAD  5   2   2   3   3   4   2  17   2  28   2
M  END
