Coordinates from ORCA-job 4-NO2PhN2+~TsO-_B3LYPG-6-31G_dp-CH-Scan-d09-49-n800
 OpenBabel11261919033D

 33 33  0  0  0  0  0  0  0  0999 V2000
   -2.8796    0.7679   -0.9683 C   0  0  0  0  0  0  0  0  0  0  0  0
   -3.9062   -0.1760   -0.7398 N   0  0  0  0  0  0  0  0  0  0  0  0
   -4.6976   -0.9541   -0.6501 N   0  0  0  0  0  0  0  0  0  0  0  0
   -2.2576    0.5729   -2.2006 C   0  0  0  0  0  0  0  0  0  0  0  0
   -1.2385    1.5551   -2.3840 C   0  0  0  0  0  0  0  0  0  0  0  0
   -0.9409    2.4981   -1.4093 C   0  0  0  0  0  0  0  0  0  0  0  0
    0.1253    3.4941   -1.6653 N   0  0  0  0  0  0  0  0  0  0  0  0
    0.9056    3.2778   -2.5884 O   0  0  0  0  0  0  0  0  0  0  0  0
    0.1518    4.4947   -0.9438 O   0  0  0  0  0  0  0  0  0  0  0  0
   -1.6269    2.5989   -0.1782 C   0  0  0  0  0  0  0  0  0  0  0  0
   -2.6487    1.7054    0.0699 C   0  0  0  0  0  0  0  0  0  0  0  0
   -4.0639    4.1383   -0.2002 H   0  0  0  0  0  0  0  0  0  0  0  0
   -0.6659    1.5889   -3.3078 H   0  0  0  0  0  0  0  0  0  0  0  0
   -1.3388    3.3563    0.5392 H   0  0  0  0  0  0  0  0  0  0  0  0
   -3.2393    1.7381    0.9819 H   0  0  0  0  0  0  0  0  0  0  0  0
   -6.7399    5.2725    1.1552 C   0  0  0  0  0  0  0  0  0  0  0  0
   -6.5506    6.5767    0.7063 C   0  0  0  0  0  0  0  0  0  0  0  0
   -5.6396    6.9439   -0.3352 C   0  0  0  0  0  0  0  0  0  0  0  0
   -4.9221    5.9384   -0.9223 C   0  0  0  0  0  0  0  0  0  0  0  0
   -5.0560    4.5305   -0.5019 C   0  0  0  0  0  0  0  0  0  0  0  0
   -6.0128    4.2413    0.5778 C   0  0  0  0  0  0  0  0  0  0  0  0
   -7.4572    5.0396    1.9355 H   0  0  0  0  0  0  0  0  0  0  0  0
   -7.1348    7.3707    1.1682 H   0  0  0  0  0  0  0  0  0  0  0  0
   -4.2175    6.1594   -1.7204 H   0  0  0  0  0  0  0  0  0  0  0  0
   -5.2775    3.8667   -1.3567 H   0  0  0  0  0  0  0  0  0  0  0  0
   -6.1702    2.5426    1.1898 S   0  0  0  0  0  0  0  0  0  0  0  0
   -7.5076    2.4912    1.7957 O   0  0  0  0  0  0  0  0  0  0  0  0
   -5.0204    2.5614    2.1380 O   0  0  0  0  0  0  0  0  0  0  0  0
   -5.9504    1.7162   -0.0190 O   0  0  0  0  0  0  0  0  0  0  0  0
   -5.5117    8.3906   -0.7409 C   0  0  0  0  0  0  0  0  0  0  0  0
   -6.4741    8.7914   -1.0766 H   0  0  0  0  0  0  0  0  0  0  0  0
   -5.1786    9.0060    0.1020 H   0  0  0  0  0  0  0  0  0  0  0  0
   -4.7916    8.5122   -1.5530 H   0  0  0  0  0  0  0  0  0  0  0  0
  1  2  1  0  0  0  0
  1 11  2  0  0  0  0
  2  3  1  0  0  0  0
  4  1  1  0  0  0  0
  5  4  2  0  0  0  0
  5  6  1  0  0  0  0
  6 10  2  0  0  0  0
  7  6  1  0  0  0  0
  7  9  2  0  0  0  0
  8  7  2  0  0  0  0
 10 11  1  0  0  0  0
 10 14  1  0  0  0  0
 11 15  1  0  0  0  0
 13  5  1  0  0  0  0
 16 22  1  0  0  0  0
 17 16  1  0  0  0  0
 17 23  1  0  0  0  0
 18 17  1  0  0  0  0
 19 20  1  0  0  0  0
 19 18  2  0  0  0  0
 20 12  1  0  0  0  0
 20 21  1  0  0  0  0
 21 16  2  0  0  0  0
 21 26  1  0  0  0  0
 24 19  1  0  0  0  0
 25 20  1  0  0  0  0
 26 27  2  0  0  0  0
 26 28  1  0  0  0  0
 29 26  2  0  0  0  0
 30 18  1  0  0  0  0
 30 32  1  0  0  0  0
 31 30  1  0  0  0  0
 33 30  1  0  0  0  0
M  RAD  5   2   2   3   3   4   2  17   2  28   2
M  END
