Coordinates from ORCA-job 4-NO2PhN2+~TsO-_B3LYPG-6-31G_dp-CH-Scan-d09-49-n800
 OpenBabel11261919023D

 33 33  0  0  0  0  0  0  0  0999 V2000
   -2.8031    1.0748   -0.2703 C   0  0  0  0  0  0  0  0  0  0  0  0
   -3.9002    0.2648    0.1556 N   0  0  0  0  0  0  0  0  0  0  0  0
   -5.0141    0.6918    0.3889 N   0  0  0  0  0  0  0  0  0  0  0  0
   -2.6511    1.4693   -1.5895 C   0  0  0  0  0  0  0  0  0  0  0  0
   -1.5599    2.1570   -2.0654 C   0  0  0  0  0  0  0  0  0  0  0  0
   -0.5590    2.4510   -1.1323 C   0  0  0  0  0  0  0  0  0  0  0  0
    0.6317    3.1891   -1.5844 N   0  0  0  0  0  0  0  0  0  0  0  0
    0.6812    3.5149   -2.7692 O   0  0  0  0  0  0  0  0  0  0  0  0
    1.4988    3.4343   -0.7474 O   0  0  0  0  0  0  0  0  0  0  0  0
   -0.6504    2.0656    0.2044 C   0  0  0  0  0  0  0  0  0  0  0  0
   -1.7716    1.3623    0.6359 C   0  0  0  0  0  0  0  0  0  0  0  0
   -4.0597    1.0086   -2.7803 H   0  0  0  0  0  0  0  0  0  0  0  0
   -1.4543    2.4666   -3.0962 H   0  0  0  0  0  0  0  0  0  0  0  0
    0.1554    2.3139    0.8835 H   0  0  0  0  0  0  0  0  0  0  0  0
   -1.8612    1.0383    1.6673 H   0  0  0  0  0  0  0  0  0  0  0  0
   -5.9920    5.2401    1.2462 C   0  0  0  0  0  0  0  0  0  0  0  0
   -5.7680    6.5858    0.9658 C   0  0  0  0  0  0  0  0  0  0  0  0
   -5.9319    7.0944   -0.3313 C   0  0  0  0  0  0  0  0  0  0  0  0
   -6.3290    6.2169   -1.3524 C   0  0  0  0  0  0  0  0  0  0  0  0
   -6.5590    4.8685   -1.0948 C   0  0  0  0  0  0  0  0  0  0  0  0
   -6.3825    4.3940    0.2069 C   0  0  0  0  0  0  0  0  0  0  0  0
   -5.8755    4.8483    2.2505 H   0  0  0  0  0  0  0  0  0  0  0  0
   -5.4630    7.2531    1.7668 H   0  0  0  0  0  0  0  0  0  0  0  0
   -6.4634    6.5965   -2.3614 H   0  0  0  0  0  0  0  0  0  0  0  0
   -6.8772    4.1926   -1.8805 H   0  0  0  0  0  0  0  0  0  0  0  0
   -6.6795    2.6756    0.5513 S   0  0  0  0  0  0  0  0  0  0  0  0
   -6.9120    2.4805    1.9768 O   0  0  0  0  0  0  0  0  0  0  0  0
   -5.0980    2.1546    0.2092 O   0  0  0  0  0  0  0  0  0  0  0  0
   -7.5620    2.1040   -0.4577 O   0  0  0  0  0  0  0  0  0  0  0  0
   -5.7168    8.5602   -0.6182 C   0  0  0  0  0  0  0  0  0  0  0  0
   -6.6620    9.1124   -0.5497 H   0  0  0  0  0  0  0  0  0  0  0  0
   -5.0219    9.0110    0.0958 H   0  0  0  0  0  0  0  0  0  0  0  0
   -5.3222    8.7168   -1.6262 H   0  0  0  0  0  0  0  0  0  0  0  0
  1  2  1  0  0  0  0
  1 11  2  0  0  0  0
  2  3  1  0  0  0  0
  4  1  1  0  0  0  0
  5  4  2  0  0  0  0
  5  6  1  0  0  0  0
  6 10  2  0  0  0  0
  7  6  1  0  0  0  0
  7  9  2  0  0  0  0
  8  7  2  0  0  0  0
 10 11  1  0  0  0  0
 10 14  1  0  0  0  0
 11 15  1  0  0  0  0
 13  5  1  0  0  0  0
 16 22  1  0  0  0  0
 17 16  1  0  0  0  0
 17 23  1  0  0  0  0
 18 17  2  0  0  0  0
 19 20  2  0  0  0  0
 19 18  1  0  0  0  0
 20 21  1  0  0  0  0
 21 26  1  0  0  0  0
 21 16  2  0  0  0  0
 24 19  1  0  0  0  0
 25 20  1  0  0  0  0
 26 27  2  0  0  0  0
 28  3  1  0  0  0  0
 28 26  1  0  0  0  0
 29 26  2  0  0  0  0
 30 31  1  0  0  0  0
 30 18  1  0  0  0  0
 30 32  1  0  0  0  0
 33 30  1  0  0  0  0
M  RAD  4   2   2   3   2   4   2  12   2
M  END
