Coordinates from ORCA-job 4-NO2PhN2+~TsO-_B3LYPG-6-31G_dp-CH-Scan-d09-49-n800
 OpenBabel11261919033D

 33 33  0  0  0  0  0  0  0  0999 V2000
   -2.8810    0.7699   -0.9673 C   0  0  0  0  0  0  0  0  0  0  0  0
   -3.9060   -0.1756   -0.7390 N   0  0  0  0  0  0  0  0  0  0  0  0
   -4.6963   -0.9550   -0.6495 N   0  0  0  0  0  0  0  0  0  0  0  0
   -2.2602    0.5776   -2.2006 C   0  0  0  0  0  0  0  0  0  0  0  0
   -1.2426    1.5615   -2.3838 C   0  0  0  0  0  0  0  0  0  0  0  0
   -0.9453    2.5037   -1.4082 C   0  0  0  0  0  0  0  0  0  0  0  0
    0.1189    3.5017   -1.6641 N   0  0  0  0  0  0  0  0  0  0  0  0
    0.8987    3.2877   -2.5882 O   0  0  0  0  0  0  0  0  0  0  0  0
    0.1440    4.5018   -0.9419 O   0  0  0  0  0  0  0  0  0  0  0  0
   -1.6301    2.6017   -0.1762 C   0  0  0  0  0  0  0  0  0  0  0  0
   -2.6502    1.7064    0.0719 C   0  0  0  0  0  0  0  0  0  0  0  0
   -4.0639    4.1326   -0.2017 H   0  0  0  0  0  0  0  0  0  0  0  0
   -0.6711    1.5973   -3.3081 H   0  0  0  0  0  0  0  0  0  0  0  0
   -1.3424    3.3587    0.5419 H   0  0  0  0  0  0  0  0  0  0  0  0
   -3.2399    1.7371    0.9844 H   0  0  0  0  0  0  0  0  0  0  0  0
   -6.7372    5.2714    1.1550 C   0  0  0  0  0  0  0  0  0  0  0  0
   -6.5460    6.5752    0.7056 C   0  0  0  0  0  0  0  0  0  0  0  0
   -5.6351    6.9405   -0.3366 C   0  0  0  0  0  0  0  0  0  0  0  0
   -4.9197    5.9336   -0.9239 C   0  0  0  0  0  0  0  0  0  0  0  0
   -5.0556    4.5261   -0.5030 C   0  0  0  0  0  0  0  0  0  0  0  0
   -6.0122    4.2389    0.5774 C   0  0  0  0  0  0  0  0  0  0  0  0
   -7.4543    5.0400    1.9358 H   0  0  0  0  0  0  0  0  0  0  0  0
   -7.1285    7.3703    1.1677 H   0  0  0  0  0  0  0  0  0  0  0  0
   -4.2153    6.1532   -1.7226 H   0  0  0  0  0  0  0  0  0  0  0  0
   -5.2785    3.8623   -1.3573 H   0  0  0  0  0  0  0  0  0  0  0  0
   -6.1720    2.5406    1.1901 S   0  0  0  0  0  0  0  0  0  0  0  0
   -7.5100    2.4910    1.7948 O   0  0  0  0  0  0  0  0  0  0  0  0
   -5.0230    2.5588    2.1394 O   0  0  0  0  0  0  0  0  0  0  0  0
   -5.9518    1.7134   -0.0181 O   0  0  0  0  0  0  0  0  0  0  0  0
   -5.5049    8.3870   -0.7427 C   0  0  0  0  0  0  0  0  0  0  0  0
   -6.4670    8.7894   -1.0776 H   0  0  0  0  0  0  0  0  0  0  0  0
   -5.1698    9.0019    0.0997 H   0  0  0  0  0  0  0  0  0  0  0  0
   -4.7854    8.5070   -1.5557 H   0  0  0  0  0  0  0  0  0  0  0  0
  1  2  1  0  0  0  0
  1 11  2  0  0  0  0
  2  3  1  0  0  0  0
  4  1  1  0  0  0  0
  5  4  2  0  0  0  0
  5  6  1  0  0  0  0
  6 10  2  0  0  0  0
  7  6  1  0  0  0  0
  7  9  2  0  0  0  0
  8  7  2  0  0  0  0
 10 11  1  0  0  0  0
 10 14  1  0  0  0  0
 11 15  1  0  0  0  0
 13  5  1  0  0  0  0
 16 22  1  0  0  0  0
 17 16  1  0  0  0  0
 17 23  1  0  0  0  0
 18 17  1  0  0  0  0
 19 20  1  0  0  0  0
 19 18  2  0  0  0  0
 20 12  1  0  0  0  0
 20 21  1  0  0  0  0
 21 16  2  0  0  0  0
 21 26  1  0  0  0  0
 24 19  1  0  0  0  0
 25 20  1  0  0  0  0
 26 27  2  0  0  0  0
 26 28  1  0  0  0  0
 29 26  2  0  0  0  0
 30 18  1  0  0  0  0
 30 32  1  0  0  0  0
 31 30  1  0  0  0  0
 33 30  1  0  0  0  0
M  RAD  5   2   2   3   3   4   2  17   2  28   2
M  END
