Coordinates from ORCA-job 4-NO2PhN2+~TsO-_B3LYPG-6-31G_dp-CH-Scan-d09-49-n800
 OpenBabel11261919023D

 33 33  0  0  0  0  0  0  0  0999 V2000
   -2.7296    1.1322   -0.9227 C   0  0  0  0  0  0  0  0  0  0  0  0
   -3.9587    0.4354   -0.8144 N   0  0  0  0  0  0  0  0  0  0  0  0
   -4.9112   -0.1404   -0.8448 N   0  0  0  0  0  0  0  0  0  0  0  0
   -2.3598    1.3388   -2.2486 C   0  0  0  0  0  0  0  0  0  0  0  0
   -1.1075    2.0088   -2.3121 C   0  0  0  0  0  0  0  0  0  0  0  0
   -0.4044    2.3524   -1.1634 C   0  0  0  0  0  0  0  0  0  0  0  0
    0.9028    3.0444   -1.2948 N   0  0  0  0  0  0  0  0  0  0  0  0
    1.3283    3.2556   -2.4280 O   0  0  0  0  0  0  0  0  0  0  0  0
    1.4816    3.3734   -0.2589 O   0  0  0  0  0  0  0  0  0  0  0  0
   -0.8676    2.1022    0.1450 C   0  0  0  0  0  0  0  0  0  0  0  0
   -2.0858    1.4734    0.2905 C   0  0  0  0  0  0  0  0  0  0  0  0
   -4.8412    3.9918   -1.0393 H   0  0  0  0  0  0  0  0  0  0  0  0
   -0.6652    2.2694   -3.2698 H   0  0  0  0  0  0  0  0  0  0  0  0
   -0.2749    2.4141    0.9941 H   0  0  0  0  0  0  0  0  0  0  0  0
   -2.5385    1.2865    1.2574 H   0  0  0  0  0  0  0  0  0  0  0  0
   -6.5194    5.3401    1.3466 C   0  0  0  0  0  0  0  0  0  0  0  0
   -6.4191    6.6373    0.8457 C   0  0  0  0  0  0  0  0  0  0  0  0
   -6.0197    6.9510   -0.4924 C   0  0  0  0  0  0  0  0  0  0  0  0
   -5.7287    5.9033   -1.3222 C   0  0  0  0  0  0  0  0  0  0  0  0
   -5.8098    4.4983   -0.8733 C   0  0  0  0  0  0  0  0  0  0  0  0
   -6.2199    4.2671    0.5231 C   0  0  0  0  0  0  0  0  0  0  0  0
   -6.8371    5.1462    2.3655 H   0  0  0  0  0  0  0  0  0  0  0  0
   -6.6619    7.4667    1.5079 H   0  0  0  0  0  0  0  0  0  0  0  0
   -5.4217    6.0847   -2.3491 H   0  0  0  0  0  0  0  0  0  0  0  0
   -6.4743    3.9071   -1.5289 H   0  0  0  0  0  0  0  0  0  0  0  0
   -6.2898    2.5634    1.1396 S   0  0  0  0  0  0  0  0  0  0  0  0
   -7.0008    2.6602    2.4222 O   0  0  0  0  0  0  0  0  0  0  0  0
   -4.8256    2.2910    1.2259 O   0  0  0  0  0  0  0  0  0  0  0  0
   -6.9721    1.8489    0.0391 O   0  0  0  0  0  0  0  0  0  0  0  0
   -5.9399    8.3923   -0.9288 C   0  0  0  0  0  0  0  0  0  0  0  0
   -6.9144    8.8850   -0.8386 H   0  0  0  0  0  0  0  0  0  0  0  0
   -5.2332    8.9519   -0.3069 H   0  0  0  0  0  0  0  0  0  0  0  0
   -5.6145    8.4751   -1.9680 H   0  0  0  0  0  0  0  0  0  0  0  0
  1  2  1  0  0  0  0
  1 11  2  0  0  0  0
  3  2  1  0  0  0  0
  4  1  1  0  0  0  0
  5  4  2  0  0  0  0
  5  6  1  0  0  0  0
  6 10  2  0  0  0  0
  7  6  1  0  0  0  0
  7  9  2  0  0  0  0
  8  7  2  0  0  0  0
 10 11  1  0  0  0  0
 10 14  1  0  0  0  0
 11 15  1  0  0  0  0
 12 20  1  0  0  0  0
 13  5  1  0  0  0  0
 16 22  1  0  0  0  0
 17 16  1  0  0  0  0
 17 23  1  0  0  0  0
 18 17  1  0  0  0  0
 19 20  1  0  0  0  0
 19 18  2  0  0  0  0
 20 21  1  0  0  0  0
 21 26  1  0  0  0  0
 21 16  2  0  0  0  0
 24 19  1  0  0  0  0
 25 20  1  0  0  0  0
 26 28  2  0  0  0  0
 26 27  1  0  0  0  0
 29 26  2  0  0  0  0
 30 31  1  0  0  0  0
 30 18  1  0  0  0  0
 30 32  1  0  0  0  0
 33 30  1  0  0  0  0
M  RAD  5   2   2   3   3   4   2  17   2  27   2
M  END
