Coordinates from ORCA-job 4-NO2PhN2+~TsO-_B3LYPG-6-31G_dp-CH-Scan-d09-49-n800
 OpenBabel11261919023D

 33 33  0  0  0  0  0  0  0  0999 V2000
   -3.0030    0.8862   -0.9787 C   0  0  0  0  0  0  0  0  0  0  0  0
   -3.9640   -0.1415   -0.8197 N   0  0  0  0  0  0  0  0  0  0  0  0
   -4.7045   -0.9720   -0.7946 N   0  0  0  0  0  0  0  0  0  0  0  0
   -2.5405    0.9641   -2.2908 C   0  0  0  0  0  0  0  0  0  0  0  0
   -1.5842    2.0197   -2.3965 C   0  0  0  0  0  0  0  0  0  0  0  0
   -1.2122    2.7909   -1.3033 C   0  0  0  0  0  0  0  0  0  0  0  0
   -0.2403    3.8929   -1.4912 N   0  0  0  0  0  0  0  0  0  0  0  0
    0.4417    3.8916   -2.5121 O   0  0  0  0  0  0  0  0  0  0  0  0
   -0.1957    4.7630   -0.6176 O   0  0  0  0  0  0  0  0  0  0  0  0
   -1.7445    2.6225   -0.0048 C   0  0  0  0  0  0  0  0  0  0  0  0
   -2.6848    1.6290    0.1846 C   0  0  0  0  0  0  0  0  0  0  0  0
   -3.9914    3.9029   -0.1885 H   0  0  0  0  0  0  0  0  0  0  0  0
   -1.1246    2.2527   -3.3539 H   0  0  0  0  0  0  0  0  0  0  0  0
   -1.4124    3.2610    0.8033 H   0  0  0  0  0  0  0  0  0  0  0  0
   -3.1731    1.4737    1.1416 H   0  0  0  0  0  0  0  0  0  0  0  0
   -6.5824    5.2281    1.1215 C   0  0  0  0  0  0  0  0  0  0  0  0
   -6.3266    6.4972    0.6094 C   0  0  0  0  0  0  0  0  0  0  0  0
   -5.4153    6.7628   -0.4614 C   0  0  0  0  0  0  0  0  0  0  0  0
   -4.7681    5.6902   -1.0116 C   0  0  0  0  0  0  0  0  0  0  0  0
   -4.9697    4.3165   -0.5181 C   0  0  0  0  0  0  0  0  0  0  0  0
   -5.9263    4.1306    0.5817 C   0  0  0  0  0  0  0  0  0  0  0  0
   -7.2983    5.0738    1.9221 H   0  0  0  0  0  0  0  0  0  0  0  0
   -6.8560    7.3439    1.0427 H   0  0  0  0  0  0  0  0  0  0  0  0
   -4.0664    5.8324   -1.8297 H   0  0  0  0  0  0  0  0  0  0  0  0
   -5.2086    3.6113   -1.3332 H   0  0  0  0  0  0  0  0  0  0  0  0
   -6.1693    2.4743    1.2801 S   0  0  0  0  0  0  0  0  0  0  0  0
   -7.5040    2.5281    1.8926 O   0  0  0  0  0  0  0  0  0  0  0  0
   -5.0140    2.4760    2.2207 O   0  0  0  0  0  0  0  0  0  0  0  0
   -6.0068    1.5760    0.1138 O   0  0  0  0  0  0  0  0  0  0  0  0
   -5.2103    8.1789   -0.9375 C   0  0  0  0  0  0  0  0  0  0  0  0
   -6.1535    8.6208   -1.2760 H   0  0  0  0  0  0  0  0  0  0  0  0
   -4.8244    8.8114   -0.1306 H   0  0  0  0  0  0  0  0  0  0  0  0
   -4.5000    8.2186   -1.7663 H   0  0  0  0  0  0  0  0  0  0  0  0
  1  2  1  0  0  0  0
  1 11  2  0  0  0  0
  2  3  1  0  0  0  0
  4  1  1  0  0  0  0
  5  4  2  0  0  0  0
  5  6  1  0  0  0  0
  6 10  2  0  0  0  0
  7  6  1  0  0  0  0
  7  9  2  0  0  0  0
  8  7  2  0  0  0  0
 10 11  1  0  0  0  0
 10 14  1  0  0  0  0
 11 15  1  0  0  0  0
 13  5  1  0  0  0  0
 16 22  1  0  0  0  0
 17 23  1  0  0  0  0
 17 16  1  0  0  0  0
 18 17  1  0  0  0  0
 19 20  1  0  0  0  0
 19 18  2  0  0  0  0
 20 12  1  0  0  0  0
 20 21  1  0  0  0  0
 21 16  2  0  0  0  0
 21 26  1  0  0  0  0
 24 19  1  0  0  0  0
 25 20  1  0  0  0  0
 26 27  2  0  0  0  0
 26 28  1  0  0  0  0
 29 26  2  0  0  0  0
 30 18  1  0  0  0  0
 30 32  1  0  0  0  0
 31 30  1  0  0  0  0
 33 30  1  0  0  0  0
M  RAD  5   2   2   3   3   4   2  17   2  28   2
M  END
