Coordinates from ORCA-job 4-NO2PhN2+~TsO-_B3LYPG-6-31G_dp-CH-Scan-d09-49-n800
 OpenBabel11261919023D

 33 33  0  0  0  0  0  0  0  0999 V2000
   -2.7952    1.0827   -0.2644 C   0  0  0  0  0  0  0  0  0  0  0  0
   -3.8942    0.2614    0.1387 N   0  0  0  0  0  0  0  0  0  0  0  0
   -5.0064    0.6943    0.3811 N   0  0  0  0  0  0  0  0  0  0  0  0
   -2.6326    1.5566   -1.5473 C   0  0  0  0  0  0  0  0  0  0  0  0
   -1.5615    2.2567   -2.0265 C   0  0  0  0  0  0  0  0  0  0  0  0
   -0.5394    2.4833   -1.0919 C   0  0  0  0  0  0  0  0  0  0  0  0
    0.6551    3.2295   -1.5248 N   0  0  0  0  0  0  0  0  0  0  0  0
    0.6891    3.6176   -2.6906 O   0  0  0  0  0  0  0  0  0  0  0  0
    1.5366    3.4184   -0.6888 O   0  0  0  0  0  0  0  0  0  0  0  0
   -0.6164    2.0234    0.2223 C   0  0  0  0  0  0  0  0  0  0  0  0
   -1.7389    1.3108    0.6358 C   0  0  0  0  0  0  0  0  0  0  0  0
   -4.5554    1.0202   -3.1292 H   0  0  0  0  0  0  0  0  0  0  0  0
   -1.4715    2.6217   -3.0414 H   0  0  0  0  0  0  0  0  0  0  0  0
    0.2037    2.2230    0.9002 H   0  0  0  0  0  0  0  0  0  0  0  0
   -1.8167    0.9322    1.6501 H   0  0  0  0  0  0  0  0  0  0  0  0
   -5.9871    5.2517    1.2553 C   0  0  0  0  0  0  0  0  0  0  0  0
   -5.7654    6.5930    0.9518 C   0  0  0  0  0  0  0  0  0  0  0  0
   -5.9224    7.0772   -0.3553 C   0  0  0  0  0  0  0  0  0  0  0  0
   -6.3098    6.1799   -1.3632 C   0  0  0  0  0  0  0  0  0  0  0  0
   -6.5377    4.8359   -1.0830 C   0  0  0  0  0  0  0  0  0  0  0  0
   -6.3687    4.3863    0.2289 C   0  0  0  0  0  0  0  0  0  0  0  0
   -5.8754    4.8782    2.2670 H   0  0  0  0  0  0  0  0  0  0  0  0
   -5.4676    7.2758    1.7423 H   0  0  0  0  0  0  0  0  0  0  0  0
   -6.4380    6.5405   -2.3799 H   0  0  0  0  0  0  0  0  0  0  0  0
   -6.8470    4.1446   -1.8588 H   0  0  0  0  0  0  0  0  0  0  0  0
   -6.6642    2.6745    0.6021 S   0  0  0  0  0  0  0  0  0  0  0  0
   -6.8669    2.4972    2.0343 O   0  0  0  0  0  0  0  0  0  0  0  0
   -5.0820    2.1471    0.2389 O   0  0  0  0  0  0  0  0  0  0  0  0
   -7.5622    2.0880   -0.3829 O   0  0  0  0  0  0  0  0  0  0  0  0
   -5.7096    8.5379   -0.6686 C   0  0  0  0  0  0  0  0  0  0  0  0
   -6.6622    9.0812   -0.6539 H   0  0  0  0  0  0  0  0  0  0  0  0
   -5.0497    9.0133    0.0624 H   0  0  0  0  0  0  0  0  0  0  0  0
   -5.2741    8.6738   -1.6629 H   0  0  0  0  0  0  0  0  0  0  0  0
  1  2  1  0  0  0  0
  1 11  2  0  0  0  0
  2  3  1  0  0  0  0
  4  1  1  0  0  0  0
  5  4  2  0  0  0  0
  5  6  1  0  0  0  0
  6 10  2  0  0  0  0
  7  6  1  0  0  0  0
  7  9  2  0  0  0  0
  8  7  2  0  0  0  0
 10 11  1  0  0  0  0
 10 14  1  0  0  0  0
 11 15  1  0  0  0  0
 13  5  1  0  0  0  0
 16 22  1  0  0  0  0
 17 16  1  0  0  0  0
 17 23  1  0  0  0  0
 18 17  2  0  0  0  0
 19 20  2  0  0  0  0
 19 18  1  0  0  0  0
 20 21  1  0  0  0  0
 21 26  1  0  0  0  0
 21 16  2  0  0  0  0
 24 19  1  0  0  0  0
 25 20  1  0  0  0  0
 26 27  2  0  0  0  0
 28  3  1  0  0  0  0
 28 26  1  0  0  0  0
 29 26  2  0  0  0  0
 30 31  1  0  0  0  0
 30 18  1  0  0  0  0
 30 32  1  0  0  0  0
 33 30  1  0  0  0  0
M  RAD  4   2   2   3   2   4   2  12   2
M  END
