Coordinates from ORCA-job 4-NO2PhN2+~TsO-_B3LYPG-6-31G_dp-CH-Scan-d09-49-n800
 OpenBabel11261919033D

 33 33  0  0  0  0  0  0  0  0999 V2000
   -2.8452    0.7263   -0.9876 C   0  0  0  0  0  0  0  0  0  0  0  0
   -3.9137   -0.1645   -0.7452 N   0  0  0  0  0  0  0  0  0  0  0  0
   -4.7376   -0.9064   -0.6418 N   0  0  0  0  0  0  0  0  0  0  0  0
   -2.1929    0.4450   -2.1875 C   0  0  0  0  0  0  0  0  0  0  0  0
   -1.1275    1.3707   -2.3876 C   0  0  0  0  0  0  0  0  0  0  0  0
   -0.8160    2.3453   -1.4483 C   0  0  0  0  0  0  0  0  0  0  0  0
    0.3072    3.2744   -1.7139 N   0  0  0  0  0  0  0  0  0  0  0  0
    1.0927    2.9851   -2.6125 O   0  0  0  0  0  0  0  0  0  0  0  0
    0.3812    4.2902   -1.0179 O   0  0  0  0  0  0  0  0  0  0  0  0
   -1.5344    2.5372   -0.2474 C   0  0  0  0  0  0  0  0  0  0  0  0
   -2.6041    1.7053    0.0098 C   0  0  0  0  0  0  0  0  0  0  0  0
   -4.0615    4.2950   -0.1383 H   0  0  0  0  0  0  0  0  0  0  0  0
   -0.5270    1.3340   -3.2930 H   0  0  0  0  0  0  0  0  0  0  0  0
   -1.2336    3.3157    0.4418 H   0  0  0  0  0  0  0  0  0  0  0  0
   -3.2180    1.8051    0.9014 H   0  0  0  0  0  0  0  0  0  0  0  0
   -6.8258    5.2927    1.1507 C   0  0  0  0  0  0  0  0  0  0  0  0
   -6.6859    6.6098    0.7199 C   0  0  0  0  0  0  0  0  0  0  0  0
   -5.7628    7.0306   -0.2901 C   0  0  0  0  0  0  0  0  0  0  0  0
   -4.9794    6.0672   -0.8632 C   0  0  0  0  0  0  0  0  0  0  0  0
   -5.0595    4.6485   -0.4624 C   0  0  0  0  0  0  0  0  0  0  0  0
   -6.0337    4.3039    0.5867 C   0  0  0  0  0  0  0  0  0  0  0  0
   -7.5526    5.0171    1.9081 H   0  0  0  0  0  0  0  0  0  0  0  0
   -7.3206    7.3702    1.1719 H   0  0  0  0  0  0  0  0  0  0  0  0
   -4.2623    6.3301   -1.6372 H   0  0  0  0  0  0  0  0  0  0  0  0
   -5.2340    3.9902   -1.3322 H   0  0  0  0  0  0  0  0  0  0  0  0
   -6.1294    2.5923    1.1739 S   0  0  0  0  0  0  0  0  0  0  0  0
   -7.4542    2.4890    1.8002 O   0  0  0  0  0  0  0  0  0  0  0  0
   -4.9636    2.6247    2.1016 O   0  0  0  0  0  0  0  0  0  0  0  0
   -5.9064    1.7951   -0.0546 O   0  0  0  0  0  0  0  0  0  0  0  0
   -5.6939    8.4859   -0.6789 C   0  0  0  0  0  0  0  0  0  0  0  0
   -6.6623    8.8399   -1.0485 H   0  0  0  0  0  0  0  0  0  0  0  0
   -5.4264    9.1092    0.1813 H   0  0  0  0  0  0  0  0  0  0  0  0
   -4.9505    8.6528   -1.4614 H   0  0  0  0  0  0  0  0  0  0  0  0
  1  2  1  0  0  0  0
  1 11  2  0  0  0  0
  2  3  1  0  0  0  0
  4  1  1  0  0  0  0
  5  4  2  0  0  0  0
  5  6  1  0  0  0  0
  6 10  2  0  0  0  0
  7  6  1  0  0  0  0
  7  9  2  0  0  0  0
  8  7  2  0  0  0  0
 10 11  1  0  0  0  0
 10 14  1  0  0  0  0
 11 15  1  0  0  0  0
 13  5  1  0  0  0  0
 16 22  1  0  0  0  0
 17 16  1  0  0  0  0
 17 23  1  0  0  0  0
 18 17  1  0  0  0  0
 19 20  1  0  0  0  0
 19 18  2  0  0  0  0
 20 12  1  0  0  0  0
 20 21  1  0  0  0  0
 21 16  2  0  0  0  0
 21 26  1  0  0  0  0
 24 19  1  0  0  0  0
 25 20  1  0  0  0  0
 26 27  2  0  0  0  0
 26 28  1  0  0  0  0
 29 26  2  0  0  0  0
 30 18  1  0  0  0  0
 30 32  1  0  0  0  0
 31 30  1  0  0  0  0
 33 30  1  0  0  0  0
M  RAD  5   2   2   3   3   4   2  17   2  28   2
M  END
