Coordinates from ORCA-job 4-NO2PhN2+~TsO-_B3LYPG-6-31G_dp-CH-Scan-d09-49-n800
 OpenBabel11261919023D

 33 33  0  0  0  0  0  0  0  0999 V2000
   -2.8055    1.0773   -0.2805 C   0  0  0  0  0  0  0  0  0  0  0  0
   -3.9042    0.2571    0.1242 N   0  0  0  0  0  0  0  0  0  0  0  0
   -5.0157    0.6891    0.3674 N   0  0  0  0  0  0  0  0  0  0  0  0
   -2.6246    1.4972   -1.5819 C   0  0  0  0  0  0  0  0  0  0  0  0
   -1.5467    2.1942   -2.0572 C   0  0  0  0  0  0  0  0  0  0  0  0
   -0.5526    2.4757   -1.1092 C   0  0  0  0  0  0  0  0  0  0  0  0
    0.6409    3.2221   -1.5427 N   0  0  0  0  0  0  0  0  0  0  0  0
    0.6953    3.5694   -2.7207 O   0  0  0  0  0  0  0  0  0  0  0  0
    1.4969    3.4626   -0.6933 O   0  0  0  0  0  0  0  0  0  0  0  0
   -0.6555    2.0703    0.2210 C   0  0  0  0  0  0  0  0  0  0  0  0
   -1.7782    1.3590    0.6360 C   0  0  0  0  0  0  0  0  0  0  0  0
   -4.3329    0.9321   -3.0412 H   0  0  0  0  0  0  0  0  0  0  0  0
   -1.4366    2.5184   -3.0836 H   0  0  0  0  0  0  0  0  0  0  0  0
    0.1441    2.3108    0.9098 H   0  0  0  0  0  0  0  0  0  0  0  0
   -1.8758    1.0225    1.6632 H   0  0  0  0  0  0  0  0  0  0  0  0
   -5.9738    5.2439    1.2557 C   0  0  0  0  0  0  0  0  0  0  0  0
   -5.7495    6.5866    0.9613 C   0  0  0  0  0  0  0  0  0  0  0  0
   -5.9189    7.0829   -0.3398 C   0  0  0  0  0  0  0  0  0  0  0  0
   -6.3219    6.1961   -1.3508 C   0  0  0  0  0  0  0  0  0  0  0  0
   -6.5525    4.8507   -1.0795 C   0  0  0  0  0  0  0  0  0  0  0  0
   -6.3706    4.3888    0.2262 C   0  0  0  0  0  0  0  0  0  0  0  0
   -5.8525    4.8612    2.2629 H   0  0  0  0  0  0  0  0  0  0  0  0
   -5.4399    7.2613    1.7543 H   0  0  0  0  0  0  0  0  0  0  0  0
   -6.4603    6.5661   -2.3628 H   0  0  0  0  0  0  0  0  0  0  0  0
   -6.8744    4.1677   -1.8575 H   0  0  0  0  0  0  0  0  0  0  0  0
   -6.6687    2.6747    0.5882 S   0  0  0  0  0  0  0  0  0  0  0  0
   -6.8695    2.4886    2.0196 O   0  0  0  0  0  0  0  0  0  0  0  0
   -5.0911    2.1456    0.2176 O   0  0  0  0  0  0  0  0  0  0  0  0
   -7.5719    2.0982   -0.3985 O   0  0  0  0  0  0  0  0  0  0  0  0
   -5.7030    8.5453   -0.6427 C   0  0  0  0  0  0  0  0  0  0  0  0
   -6.6520    9.0940   -0.6059 H   0  0  0  0  0  0  0  0  0  0  0  0
   -5.0276    9.0097    0.0812 H   0  0  0  0  0  0  0  0  0  0  0  0
   -5.2844    8.6886   -1.6431 H   0  0  0  0  0  0  0  0  0  0  0  0
  1  2  1  0  0  0  0
  1 11  2  0  0  0  0
  2  3  1  0  0  0  0
  4  1  1  0  0  0  0
  5  4  2  0  0  0  0
  5  6  1  0  0  0  0
  6 10  2  0  0  0  0
  7  6  1  0  0  0  0
  7  9  2  0  0  0  0
  8  7  2  0  0  0  0
 10 11  1  0  0  0  0
 10 14  1  0  0  0  0
 11 15  1  0  0  0  0
 13  5  1  0  0  0  0
 16 22  1  0  0  0  0
 17 16  1  0  0  0  0
 17 23  1  0  0  0  0
 18 17  2  0  0  0  0
 19 20  2  0  0  0  0
 19 18  1  0  0  0  0
 20 21  1  0  0  0  0
 21 26  1  0  0  0  0
 21 16  2  0  0  0  0
 24 19  1  0  0  0  0
 25 20  1  0  0  0  0
 26 27  2  0  0  0  0
 28  3  1  0  0  0  0
 28 26  1  0  0  0  0
 29 26  2  0  0  0  0
 30 31  1  0  0  0  0
 30 18  1  0  0  0  0
 30 32  1  0  0  0  0
 33 30  1  0  0  0  0
M  RAD  4   2   2   3   2   4   2  12   2
M  END
