Coordinates from ORCA-job 4-NO2PhN2+~TsO-_B3LYPG-6-31G_dp-CH-Scan-d09-49-n800
 OpenBabel11261919023D

 33 33  0  0  0  0  0  0  0  0999 V2000
   -2.8038    1.0747   -0.2717 C   0  0  0  0  0  0  0  0  0  0  0  0
   -3.9010    0.2641    0.1529 N   0  0  0  0  0  0  0  0  0  0  0  0
   -5.0147    0.6914    0.3870 N   0  0  0  0  0  0  0  0  0  0  0  0
   -2.6497    1.4691   -1.5905 C   0  0  0  0  0  0  0  0  0  0  0  0
   -1.5589    2.1573   -2.0660 C   0  0  0  0  0  0  0  0  0  0  0  0
   -0.5592    2.4521   -1.1317 C   0  0  0  0  0  0  0  0  0  0  0  0
    0.6316    3.1907   -1.5826 N   0  0  0  0  0  0  0  0  0  0  0  0
    0.6825    3.5159   -2.7675 O   0  0  0  0  0  0  0  0  0  0  0  0
    1.4977    3.4363   -0.7447 O   0  0  0  0  0  0  0  0  0  0  0  0
   -0.6520    2.0670    0.2050 C   0  0  0  0  0  0  0  0  0  0  0  0
   -1.7733    1.3633    0.6356 C   0  0  0  0  0  0  0  0  0  0  0  0
   -4.0643    1.0043   -2.7886 H   0  0  0  0  0  0  0  0  0  0  0  0
   -1.4524    2.4667   -3.0968 H   0  0  0  0  0  0  0  0  0  0  0  0
    0.1528    2.3160    0.8849 H   0  0  0  0  0  0  0  0  0  0  0  0
   -1.8640    1.0397    1.6670 H   0  0  0  0  0  0  0  0  0  0  0  0
   -5.9907    5.2402    1.2468 C   0  0  0  0  0  0  0  0  0  0  0  0
   -5.7666    6.5857    0.9658 C   0  0  0  0  0  0  0  0  0  0  0  0
   -5.9312    7.0939   -0.3314 C   0  0  0  0  0  0  0  0  0  0  0  0
   -6.3291    6.2162   -1.3519 C   0  0  0  0  0  0  0  0  0  0  0  0
   -6.5592    4.8679   -1.0938 C   0  0  0  0  0  0  0  0  0  0  0  0
   -6.3820    4.3938    0.2079 C   0  0  0  0  0  0  0  0  0  0  0  0
   -5.8735    4.8487    2.2511 H   0  0  0  0  0  0  0  0  0  0  0  0
   -5.4610    7.2533    1.7663 H   0  0  0  0  0  0  0  0  0  0  0  0
   -6.4641    6.5954   -2.3610 H   0  0  0  0  0  0  0  0  0  0  0  0
   -6.8780    4.1918   -1.8791 H   0  0  0  0  0  0  0  0  0  0  0  0
   -6.6790    2.6755    0.5531 S   0  0  0  0  0  0  0  0  0  0  0  0
   -6.9097    2.4808    1.9790 O   0  0  0  0  0  0  0  0  0  0  0  0
   -5.0980    2.1541    0.2091 O   0  0  0  0  0  0  0  0  0  0  0  0
   -7.5630    2.1040   -0.4546 O   0  0  0  0  0  0  0  0  0  0  0  0
   -5.7160    8.5596   -0.6189 C   0  0  0  0  0  0  0  0  0  0  0  0
   -6.6614    9.1118   -0.5514 H   0  0  0  0  0  0  0  0  0  0  0  0
   -5.0216    9.0109    0.0953 H   0  0  0  0  0  0  0  0  0  0  0  0
   -5.3208    8.7156   -1.6268 H   0  0  0  0  0  0  0  0  0  0  0  0
  1  2  1  0  0  0  0
  1 11  2  0  0  0  0
  2  3  1  0  0  0  0
  4  1  1  0  0  0  0
  5  4  2  0  0  0  0
  5  6  1  0  0  0  0
  6 10  2  0  0  0  0
  7  6  1  0  0  0  0
  7  9  2  0  0  0  0
  8  7  2  0  0  0  0
 10 11  1  0  0  0  0
 10 14  1  0  0  0  0
 11 15  1  0  0  0  0
 13  5  1  0  0  0  0
 16 22  1  0  0  0  0
 17 16  1  0  0  0  0
 17 23  1  0  0  0  0
 18 17  2  0  0  0  0
 19 20  2  0  0  0  0
 19 18  1  0  0  0  0
 20 21  1  0  0  0  0
 21 26  1  0  0  0  0
 21 16  2  0  0  0  0
 24 19  1  0  0  0  0
 25 20  1  0  0  0  0
 26 27  2  0  0  0  0
 28  3  1  0  0  0  0
 28 26  1  0  0  0  0
 29 26  2  0  0  0  0
 30 31  1  0  0  0  0
 30 18  1  0  0  0  0
 30 32  1  0  0  0  0
 33 30  1  0  0  0  0
M  RAD  4   2   2   3   2   4   2  12   2
M  END
