Coordinates from ORCA-job 4-NO2PhN2+~TsO-_B3LYPG-6-31G_dp-CH-Scan-d09-49-n800
 OpenBabel11261919023D

 33 33  0  0  0  0  0  0  0  0999 V2000
   -2.8005    1.0800   -0.2744 C   0  0  0  0  0  0  0  0  0  0  0  0
   -3.8999    0.2589    0.1273 N   0  0  0  0  0  0  0  0  0  0  0  0
   -5.0117    0.6917    0.3701 N   0  0  0  0  0  0  0  0  0  0  0  0
   -2.6253    1.5268   -1.5662 C   0  0  0  0  0  0  0  0  0  0  0  0
   -1.5508    2.2256   -2.0422 C   0  0  0  0  0  0  0  0  0  0  0  0
   -0.5448    2.4805   -1.0983 C   0  0  0  0  0  0  0  0  0  0  0  0
    0.6499    3.2272   -1.5291 N   0  0  0  0  0  0  0  0  0  0  0  0
    0.6982    3.5910   -2.7023 O   0  0  0  0  0  0  0  0  0  0  0  0
    1.5186    3.4392   -0.6851 O   0  0  0  0  0  0  0  0  0  0  0  0
   -0.6374    2.0483    0.2243 C   0  0  0  0  0  0  0  0  0  0  0  0
   -1.7606    1.3361    0.6365 C   0  0  0  0  0  0  0  0  0  0  0  0
   -4.4516    0.9665   -3.1033 H   0  0  0  0  0  0  0  0  0  0  0  0
   -1.4489    2.5698   -3.0631 H   0  0  0  0  0  0  0  0  0  0  0  0
    0.1709    2.2690    0.9097 H   0  0  0  0  0  0  0  0  0  0  0  0
   -1.8503    0.9791    1.6575 H   0  0  0  0  0  0  0  0  0  0  0  0
   -5.9754    5.2477    1.2551 C   0  0  0  0  0  0  0  0  0  0  0  0
   -5.7530    6.5897    0.9555 C   0  0  0  0  0  0  0  0  0  0  0  0
   -5.9214    7.0803   -0.3479 C   0  0  0  0  0  0  0  0  0  0  0  0
   -6.3211    6.1886   -1.3559 C   0  0  0  0  0  0  0  0  0  0  0  0
   -6.5499    4.8439   -1.0795 C   0  0  0  0  0  0  0  0  0  0  0  0
   -6.3692    4.3879    0.2285 C   0  0  0  0  0  0  0  0  0  0  0  0
   -5.8550    4.8694    2.2640 H   0  0  0  0  0  0  0  0  0  0  0  0
   -5.4459    7.2682    1.7462 H   0  0  0  0  0  0  0  0  0  0  0  0
   -6.4585    6.5542   -2.3697 H   0  0  0  0  0  0  0  0  0  0  0  0
   -6.8690    4.1572   -1.8553 H   0  0  0  0  0  0  0  0  0  0  0  0
   -6.6654    2.6750    0.5970 S   0  0  0  0  0  0  0  0  0  0  0  0
   -6.8629    2.4933    2.0294 O   0  0  0  0  0  0  0  0  0  0  0  0
   -5.0865    2.1461    0.2257 O   0  0  0  0  0  0  0  0  0  0  0  0
   -7.5691    2.0938   -0.3862 O   0  0  0  0  0  0  0  0  0  0  0  0
   -5.7076    8.5418   -0.6565 C   0  0  0  0  0  0  0  0  0  0  0  0
   -6.6583    9.0880   -0.6282 H   0  0  0  0  0  0  0  0  0  0  0  0
   -5.0379    9.0116    0.0691 H   0  0  0  0  0  0  0  0  0  0  0  0
   -5.2832    8.6813   -1.6551 H   0  0  0  0  0  0  0  0  0  0  0  0
  1  2  1  0  0  0  0
  1 11  2  0  0  0  0
  2  3  1  0  0  0  0
  4  1  1  0  0  0  0
  5  4  2  0  0  0  0
  5  6  1  0  0  0  0
  6 10  2  0  0  0  0
  7  6  1  0  0  0  0
  7  9  2  0  0  0  0
  8  7  2  0  0  0  0
 10 11  1  0  0  0  0
 10 14  1  0  0  0  0
 11 15  1  0  0  0  0
 13  5  1  0  0  0  0
 16 22  1  0  0  0  0
 17 16  1  0  0  0  0
 17 23  1  0  0  0  0
 18 17  2  0  0  0  0
 19 20  2  0  0  0  0
 19 18  1  0  0  0  0
 20 21  1  0  0  0  0
 21 26  1  0  0  0  0
 21 16  2  0  0  0  0
 24 19  1  0  0  0  0
 25 20  1  0  0  0  0
 26 27  2  0  0  0  0
 28  3  1  0  0  0  0
 28 26  1  0  0  0  0
 29 26  2  0  0  0  0
 30 31  1  0  0  0  0
 30 18  1  0  0  0  0
 30 32  1  0  0  0  0
 33 30  1  0  0  0  0
M  RAD  4   2   2   3   2   4   2  12   2
M  END
