Coordinates from ORCA-job 4-NO2PhN2+~TsO-_B3LYPG-6-31G_dp-CH-Scan-d09-49-n800
 OpenBabel11261919023D

 33 33  0  0  0  0  0  0  0  0999 V2000
   -2.8048    1.0745   -0.2744 C   0  0  0  0  0  0  0  0  0  0  0  0
   -3.9023    0.2628    0.1477 N   0  0  0  0  0  0  0  0  0  0  0  0
   -5.0155    0.6906    0.3833 N   0  0  0  0  0  0  0  0  0  0  0  0
   -2.6463    1.4685   -1.5922 C   0  0  0  0  0  0  0  0  0  0  0  0
   -1.5564    2.1578   -2.0670 C   0  0  0  0  0  0  0  0  0  0  0  0
   -0.5595    2.4545   -1.1301 C   0  0  0  0  0  0  0  0  0  0  0  0
    0.6316    3.1942   -1.5787 N   0  0  0  0  0  0  0  0  0  0  0  0
    0.6850    3.5186   -2.7637 O   0  0  0  0  0  0  0  0  0  0  0  0
    1.4953    3.4415   -0.7388 O   0  0  0  0  0  0  0  0  0  0  0  0
   -0.6553    2.0703    0.2067 C   0  0  0  0  0  0  0  0  0  0  0  0
   -1.7768    1.3656    0.6352 C   0  0  0  0  0  0  0  0  0  0  0  0
   -4.0800    0.9925   -2.8113 H   0  0  0  0  0  0  0  0  0  0  0  0
   -1.4481    2.4665   -3.0978 H   0  0  0  0  0  0  0  0  0  0  0  0
    0.1474    2.3208    0.8884 H   0  0  0  0  0  0  0  0  0  0  0  0
   -1.8698    1.0431    1.6667 H   0  0  0  0  0  0  0  0  0  0  0  0
   -5.9878    5.2403    1.2480 C   0  0  0  0  0  0  0  0  0  0  0  0
   -5.7636    6.5855    0.9658 C   0  0  0  0  0  0  0  0  0  0  0  0
   -5.9296    7.0929   -0.3315 C   0  0  0  0  0  0  0  0  0  0  0  0
   -6.3291    6.2146   -1.3510 C   0  0  0  0  0  0  0  0  0  0  0  0
   -6.5593    4.8666   -1.0916 C   0  0  0  0  0  0  0  0  0  0  0  0
   -6.3807    4.3934    0.2102 C   0  0  0  0  0  0  0  0  0  0  0  0
   -5.8695    4.8494    2.2525 H   0  0  0  0  0  0  0  0  0  0  0  0
   -5.4568    7.2536    1.7655 H   0  0  0  0  0  0  0  0  0  0  0  0
   -6.4651    6.5932   -2.3602 H   0  0  0  0  0  0  0  0  0  0  0  0
   -6.8792    4.1901   -1.8761 H   0  0  0  0  0  0  0  0  0  0  0  0
   -6.6780    2.6755    0.5569 S   0  0  0  0  0  0  0  0  0  0  0  0
   -6.9048    2.4814    1.9835 O   0  0  0  0  0  0  0  0  0  0  0  0
   -5.0976    2.1530    0.2091 O   0  0  0  0  0  0  0  0  0  0  0  0
   -7.5646    2.1039   -0.4483 O   0  0  0  0  0  0  0  0  0  0  0  0
   -5.7143    8.5583   -0.6204 C   0  0  0  0  0  0  0  0  0  0  0  0
   -6.6598    9.1104   -0.5551 H   0  0  0  0  0  0  0  0  0  0  0  0
   -5.0211    9.0106    0.0944 H   0  0  0  0  0  0  0  0  0  0  0  0
   -5.3173    8.7132   -1.6278 H   0  0  0  0  0  0  0  0  0  0  0  0
  1  2  1  0  0  0  0
  1 11  2  0  0  0  0
  2  3  1  0  0  0  0
  4  1  1  0  0  0  0
  5  4  2  0  0  0  0
  5  6  1  0  0  0  0
  6 10  2  0  0  0  0
  7  6  1  0  0  0  0
  7  9  2  0  0  0  0
  8  7  2  0  0  0  0
 10 11  1  0  0  0  0
 10 14  1  0  0  0  0
 11 15  1  0  0  0  0
 13  5  1  0  0  0  0
 16 22  1  0  0  0  0
 17 16  1  0  0  0  0
 17 23  1  0  0  0  0
 18 17  2  0  0  0  0
 19 20  2  0  0  0  0
 19 18  1  0  0  0  0
 20 21  1  0  0  0  0
 21 26  1  0  0  0  0
 21 16  2  0  0  0  0
 24 19  1  0  0  0  0
 25 20  1  0  0  0  0
 26 27  2  0  0  0  0
 28  3  1  0  0  0  0
 28 26  1  0  0  0  0
 29 26  2  0  0  0  0
 30 31  1  0  0  0  0
 30 18  1  0  0  0  0
 30 32  1  0  0  0  0
 33 30  1  0  0  0  0
M  RAD  4   2   2   3   2   4   2  12   2
M  END
