Coordinates from ORCA-job 4-NO2PhN2+~TsO-_B3LYPG-6-31G_dp-CH-Scan-d09-49-n800
 OpenBabel11261919023D

 33 33  0  0  0  0  0  0  0  0999 V2000
   -2.7596    1.0983   -0.2045 C   0  0  0  0  0  0  0  0  0  0  0  0
   -3.8597    0.2837    0.2066 N   0  0  0  0  0  0  0  0  0  0  0  0
   -4.9677    0.7183    0.4791 N   0  0  0  0  0  0  0  0  0  0  0  0
   -2.7202    1.8719   -1.3411 C   0  0  0  0  0  0  0  0  0  0  0  0
   -1.6622    2.5852   -1.8205 C   0  0  0  0  0  0  0  0  0  0  0  0
   -0.4939    2.4854   -1.0463 C   0  0  0  0  0  0  0  0  0  0  0  0
    0.7050    3.2223   -1.4886 N   0  0  0  0  0  0  0  0  0  0  0  0
    0.6111    3.8918   -2.5148 O   0  0  0  0  0  0  0  0  0  0  0  0
    1.7166    3.1181   -0.7983 O   0  0  0  0  0  0  0  0  0  0  0  0
   -0.4311    1.7093    0.1105 C   0  0  0  0  0  0  0  0  0  0  0  0
   -1.5567    1.0018    0.5224 C   0  0  0  0  0  0  0  0  0  0  0  0
   -5.1793    1.9106   -3.0724 H   0  0  0  0  0  0  0  0  0  0  0  0
   -1.6752    3.1851   -2.7224 H   0  0  0  0  0  0  0  0  0  0  0  0
    0.4976    1.6606    0.6643 H   0  0  0  0  0  0  0  0  0  0  0  0
   -1.5327    0.3780    1.4111 H   0  0  0  0  0  0  0  0  0  0  0  0
   -6.1601    5.3227    1.2673 C   0  0  0  0  0  0  0  0  0  0  0  0
   -5.9564    6.6520    0.9033 C   0  0  0  0  0  0  0  0  0  0  0  0
   -5.9547    7.0436   -0.4435 C   0  0  0  0  0  0  0  0  0  0  0  0
   -6.1606    6.0650   -1.4290 C   0  0  0  0  0  0  0  0  0  0  0  0
   -6.3700    4.7320   -1.0894 C   0  0  0  0  0  0  0  0  0  0  0  0
   -6.3638    4.3767    0.2622 C   0  0  0  0  0  0  0  0  0  0  0  0
   -6.1686    5.0182    2.3082 H   0  0  0  0  0  0  0  0  0  0  0  0
   -5.7968    7.3974    1.6774 H   0  0  0  0  0  0  0  0  0  0  0  0
   -6.1592    6.3528   -2.4768 H   0  0  0  0  0  0  0  0  0  0  0  0
   -6.5320    3.9782   -1.8524 H   0  0  0  0  0  0  0  0  0  0  0  0
   -6.6444    2.6814    0.7119 S   0  0  0  0  0  0  0  0  0  0  0  0
   -6.8734    2.5696    2.1465 O   0  0  0  0  0  0  0  0  0  0  0  0
   -5.0420    2.1634    0.4011 O   0  0  0  0  0  0  0  0  0  0  0  0
   -7.5084    2.0290   -0.2609 O   0  0  0  0  0  0  0  0  0  0  0  0
   -5.7648    8.4906   -0.8269 C   0  0  0  0  0  0  0  0  0  0  0  0
   -6.7336    8.9908   -0.9455 H   0  0  0  0  0  0  0  0  0  0  0  0
   -5.2054    9.0385   -0.0634 H   0  0  0  0  0  0  0  0  0  0  0  0
   -5.2315    8.5851   -1.7773 H   0  0  0  0  0  0  0  0  0  0  0  0
  1  2  1  0  0  0  0
  1 11  2  0  0  0  0
  2  3  1  0  0  0  0
  4  1  1  0  0  0  0
  5  4  2  0  0  0  0
  5  6  1  0  0  0  0
  6 10  2  0  0  0  0
  7  6  1  0  0  0  0
  7  9  2  0  0  0  0
  8  7  2  0  0  0  0
 10 11  1  0  0  0  0
 10 14  1  0  0  0  0
 11 15  1  0  0  0  0
 13  5  1  0  0  0  0
 16 22  1  0  0  0  0
 17 16  1  0  0  0  0
 17 23  1  0  0  0  0
 18 17  2  0  0  0  0
 19 20  2  0  0  0  0
 19 18  1  0  0  0  0
 20 21  1  0  0  0  0
 21 26  1  0  0  0  0
 21 16  2  0  0  0  0
 24 19  1  0  0  0  0
 25 20  1  0  0  0  0
 26 27  2  0  0  0  0
 28  3  1  0  0  0  0
 28 26  1  0  0  0  0
 29 26  2  0  0  0  0
 30 18  1  0  0  0  0
 30 32  1  0  0  0  0
 31 30  1  0  0  0  0
 33 30  1  0  0  0  0
M  RAD  4   2   2   3   2   4   2  12   2
M  END
