Coordinates from ORCA-job 4-NO2PhN2+~TsO-_B3LYPG-6-31G_dp-CH-Scan-d09-49-n800
 OpenBabel11261919023D

 33 33  0  0  0  0  0  0  0  0999 V2000
   -2.8040    1.0747   -0.2724 C   0  0  0  0  0  0  0  0  0  0  0  0
   -3.9013    0.2638    0.1515 N   0  0  0  0  0  0  0  0  0  0  0  0
   -5.0148    0.6912    0.3860 N   0  0  0  0  0  0  0  0  0  0  0  0
   -2.6486    1.4689   -1.5909 C   0  0  0  0  0  0  0  0  0  0  0  0
   -1.5581    2.1574   -2.0662 C   0  0  0  0  0  0  0  0  0  0  0  0
   -0.5593    2.4529   -1.1312 C   0  0  0  0  0  0  0  0  0  0  0  0
    0.6317    3.1918   -1.5815 N   0  0  0  0  0  0  0  0  0  0  0  0
    0.6834    3.5165   -2.7664 O   0  0  0  0  0  0  0  0  0  0  0  0
    1.4972    3.4377   -0.7430 O   0  0  0  0  0  0  0  0  0  0  0  0
   -0.6529    2.0680    0.2055 C   0  0  0  0  0  0  0  0  0  0  0  0
   -1.7743    1.3640    0.6355 C   0  0  0  0  0  0  0  0  0  0  0  0
   -4.0698    1.0006   -2.7960 H   0  0  0  0  0  0  0  0  0  0  0  0
   -1.4511    2.4666   -3.0970 H   0  0  0  0  0  0  0  0  0  0  0  0
    0.1513    2.3174    0.8860 H   0  0  0  0  0  0  0  0  0  0  0  0
   -1.8656    1.0407    1.6670 H   0  0  0  0  0  0  0  0  0  0  0  0
   -5.9899    5.2402    1.2471 C   0  0  0  0  0  0  0  0  0  0  0  0
   -5.7658    6.5857    0.9658 C   0  0  0  0  0  0  0  0  0  0  0  0
   -5.9307    7.0936   -0.3314 C   0  0  0  0  0  0  0  0  0  0  0  0
   -6.3291    6.2158   -1.3517 C   0  0  0  0  0  0  0  0  0  0  0  0
   -6.5592    4.8675   -1.0932 C   0  0  0  0  0  0  0  0  0  0  0  0
   -6.3816    4.3937    0.2086 C   0  0  0  0  0  0  0  0  0  0  0  0
   -5.8725    4.8489    2.2515 H   0  0  0  0  0  0  0  0  0  0  0  0
   -5.4599    7.2534    1.7661 H   0  0  0  0  0  0  0  0  0  0  0  0
   -6.4643    6.5948   -2.3608 H   0  0  0  0  0  0  0  0  0  0  0  0
   -6.8782    4.1913   -1.8782 H   0  0  0  0  0  0  0  0  0  0  0  0
   -6.6787    2.6755    0.5542 S   0  0  0  0  0  0  0  0  0  0  0  0
   -6.9083    2.4810    1.9803 O   0  0  0  0  0  0  0  0  0  0  0  0
   -5.0978    2.1538    0.2091 O   0  0  0  0  0  0  0  0  0  0  0  0
   -7.5634    2.1040   -0.4529 O   0  0  0  0  0  0  0  0  0  0  0  0
   -5.7156    8.5592   -0.6193 C   0  0  0  0  0  0  0  0  0  0  0  0
   -6.6610    9.1114   -0.5524 H   0  0  0  0  0  0  0  0  0  0  0  0
   -5.0215    9.0108    0.0951 H   0  0  0  0  0  0  0  0  0  0  0  0
   -5.3198    8.7149   -1.6271 H   0  0  0  0  0  0  0  0  0  0  0  0
  1  2  1  0  0  0  0
  1 11  2  0  0  0  0
  2  3  1  0  0  0  0
  4  1  1  0  0  0  0
  5  4  2  0  0  0  0
  5  6  1  0  0  0  0
  6 10  2  0  0  0  0
  7  6  1  0  0  0  0
  7  9  2  0  0  0  0
  8  7  2  0  0  0  0
 10 11  1  0  0  0  0
 10 14  1  0  0  0  0
 11 15  1  0  0  0  0
 13  5  1  0  0  0  0
 16 22  1  0  0  0  0
 17 16  1  0  0  0  0
 17 23  1  0  0  0  0
 18 17  2  0  0  0  0
 19 20  2  0  0  0  0
 19 18  1  0  0  0  0
 20 21  1  0  0  0  0
 21 26  1  0  0  0  0
 21 16  2  0  0  0  0
 24 19  1  0  0  0  0
 25 20  1  0  0  0  0
 26 27  2  0  0  0  0
 28  3  1  0  0  0  0
 28 26  1  0  0  0  0
 29 26  2  0  0  0  0
 30 31  1  0  0  0  0
 30 18  1  0  0  0  0
 30 32  1  0  0  0  0
 33 30  1  0  0  0  0
M  RAD  4   2   2   3   2   4   2  12   2
M  END
