Coordinates from ORCA-job 4-NO2PhN2+~TsO-_B3LYPG-6-31G_dp-CH-Scan-d09-49-n800
 OpenBabel11261919023D

 33 33  0  0  0  0  0  0  0  0999 V2000
   -2.2799    1.2056   -0.2810 C   0  0  0  0  0  0  0  0  0  0  0  0
   -3.5309    0.7262    0.1616 N   0  0  0  0  0  0  0  0  0  0  0  0
   -4.5329    0.3794    0.5020 N   0  0  0  0  0  0  0  0  0  0  0  0
   -2.3407    2.3745   -1.0398 C   0  0  0  0  0  0  0  0  0  0  0  0
   -1.0354    2.7702   -1.4422 C   0  0  0  0  0  0  0  0  0  0  0  0
    0.0954    2.0383   -1.1042 C   0  0  0  0  0  0  0  0  0  0  0  0
    1.4271    2.5045   -1.5676 N   0  0  0  0  0  0  0  0  0  0  0  0
    1.4697    3.5214   -2.2550 O   0  0  0  0  0  0  0  0  0  0  0  0
    2.4096    1.8431   -1.2321 O   0  0  0  0  0  0  0  0  0  0  0  0
    0.0624    0.8609   -0.3311 C   0  0  0  0  0  0  0  0  0  0  0  0
   -1.1664    0.4164    0.1049 C   0  0  0  0  0  0  0  0  0  0  0  0
   -5.1484    4.2347   -1.0547 H   0  0  0  0  0  0  0  0  0  0  0  0
   -0.8891    3.6686   -2.0353 H   0  0  0  0  0  0  0  0  0  0  0  0
    0.9820    0.3418   -0.0983 H   0  0  0  0  0  0  0  0  0  0  0  0
   -1.2685   -0.4812    0.7080 H   0  0  0  0  0  0  0  0  0  0  0  0
   -6.9799    5.5940    1.1680 C   0  0  0  0  0  0  0  0  0  0  0  0
   -6.8627    6.8752    0.6395 C   0  0  0  0  0  0  0  0  0  0  0  0
   -6.4096    7.1536   -0.6898 C   0  0  0  0  0  0  0  0  0  0  0  0
   -6.0799    6.0859   -1.4779 C   0  0  0  0  0  0  0  0  0  0  0  0
   -6.1557    4.6976   -0.9876 C   0  0  0  0  0  0  0  0  0  0  0  0
   -6.6442    4.4986    0.3828 C   0  0  0  0  0  0  0  0  0  0  0  0
   -7.3552    5.4294    2.1721 H   0  0  0  0  0  0  0  0  0  0  0  0
   -7.1410    7.7207    1.2664 H   0  0  0  0  0  0  0  0  0  0  0  0
   -5.7298    6.2413   -2.4951 H   0  0  0  0  0  0  0  0  0  0  0  0
   -6.7149    4.0336   -1.6686 H   0  0  0  0  0  0  0  0  0  0  0  0
   -6.7375    2.8173    1.0502 S   0  0  0  0  0  0  0  0  0  0  0  0
   -7.8429    2.8771    2.0216 O   0  0  0  0  0  0  0  0  0  0  0  0
   -5.3683    2.7479    1.6362 O   0  0  0  0  0  0  0  0  0  0  0  0
   -6.9407    1.9731   -0.1452 O   0  0  0  0  0  0  0  0  0  0  0  0
   -6.3225    8.5830   -1.1633 C   0  0  0  0  0  0  0  0  0  0  0  0
   -7.2992    9.0763   -1.1089 H   0  0  0  0  0  0  0  0  0  0  0  0
   -5.6308    9.1611   -0.5411 H   0  0  0  0  0  0  0  0  0  0  0  0
   -5.9728    8.6377   -2.1966 H   0  0  0  0  0  0  0  0  0  0  0  0
  1 11  1  0  0  0  0
  1  2  1  0  0  0  0
  2  3  1  0  0  0  0
  4  1  2  0  0  0  0
  5  6  2  0  0  0  0
  5  4  1  0  0  0  0
  6 10  1  0  0  0  0
  7  9  2  0  0  0  0
  7  6  1  0  0  0  0
  8  7  2  0  0  0  0
 10 14  1  0  0  0  0
 10 11  2  0  0  0  0
 11 15  1  0  0  0  0
 12 20  1  0  0  0  0
 13  5  1  0  0  0  0
 16 22  1  0  0  0  0
 17 16  1  0  0  0  0
 17 23  1  0  0  0  0
 18 17  1  0  0  0  0
 19 20  1  0  0  0  0
 19 18  2  0  0  0  0
 20 21  1  0  0  0  0
 21 26  1  0  0  0  0
 21 16  2  0  0  0  0
 24 19  1  0  0  0  0
 25 20  1  0  0  0  0
 26 28  2  0  0  0  0
 26 27  1  0  0  0  0
 29 26  2  0  0  0  0
 30 31  1  0  0  0  0
 30 18  1  0  0  0  0
 30 32  1  0  0  0  0
 33 30  1  0  0  0  0
M  RAD  5   2   2   3   3   4   2  17   2  27   2
M  END
