Coordinates from ORCA-job 4-NO2PhN2+~TsO-_B3LYPG-6-31G_dp-CH-Scan-d09-49-n800
 OpenBabel11261919033D

 33 33  0  0  0  0  0  0  0  0999 V2000
   -2.8545    0.7350   -0.9814 C   0  0  0  0  0  0  0  0  0  0  0  0
   -3.9111   -0.1715   -0.7430 N   0  0  0  0  0  0  0  0  0  0  0  0
   -4.7261   -0.9236   -0.6433 N   0  0  0  0  0  0  0  0  0  0  0  0
   -2.2093    0.4782   -2.1905 C   0  0  0  0  0  0  0  0  0  0  0  0
   -1.1577    1.4212   -2.3861 C   0  0  0  0  0  0  0  0  0  0  0  0
   -0.8517    2.3876   -1.4366 C   0  0  0  0  0  0  0  0  0  0  0  0
    0.2549    3.3369   -1.6997 N   0  0  0  0  0  0  0  0  0  0  0  0
    1.0359    3.0721   -2.6096 O   0  0  0  0  0  0  0  0  0  0  0  0
    0.3097    4.3528   -1.0019 O   0  0  0  0  0  0  0  0  0  0  0  0
   -1.5621    2.5533   -0.2269 C   0  0  0  0  0  0  0  0  0  0  0  0
   -2.6178    1.7028    0.0279 C   0  0  0  0  0  0  0  0  0  0  0  0
   -4.0602    4.2517   -0.1555 H   0  0  0  0  0  0  0  0  0  0  0  0
   -0.5644    1.4049   -3.2969 H   0  0  0  0  0  0  0  0  0  0  0  0
   -1.2659    3.3262    0.4706 H   0  0  0  0  0  0  0  0  0  0  0  0
   -3.2258    1.7831    0.9255 H   0  0  0  0  0  0  0  0  0  0  0  0
   -6.8018    5.2875    1.1513 C   0  0  0  0  0  0  0  0  0  0  0  0
   -6.6481    6.6013    0.7157 C   0  0  0  0  0  0  0  0  0  0  0  0
   -5.7274    7.0073   -0.3025 C   0  0  0  0  0  0  0  0  0  0  0  0
   -4.9615    6.0320   -0.8792 C   0  0  0  0  0  0  0  0  0  0  0  0
   -5.0567    4.6160   -0.4733 C   0  0  0  0  0  0  0  0  0  0  0  0
   -6.0269    4.2867    0.5839 C   0  0  0  0  0  0  0  0  0  0  0  0
   -7.5266    5.0236    1.9147 H   0  0  0  0  0  0  0  0  0  0  0  0
   -7.2693    7.3712    1.1702 H   0  0  0  0  0  0  0  0  0  0  0  0
   -4.2471    6.2834   -1.6596 H   0  0  0  0  0  0  0  0  0  0  0  0
   -5.2442    3.9562   -1.3392 H   0  0  0  0  0  0  0  0  0  0  0  0
   -6.1400    2.5783    1.1777 S   0  0  0  0  0  0  0  0  0  0  0  0
   -7.4688    2.4889    1.7978 O   0  0  0  0  0  0  0  0  0  0  0  0
   -4.9792    2.6066    2.1119 O   0  0  0  0  0  0  0  0  0  0  0  0
   -5.9170    1.7732   -0.0454 O   0  0  0  0  0  0  0  0  0  0  0  0
   -5.6421    8.4606   -0.6958 C   0  0  0  0  0  0  0  0  0  0  0  0
   -6.6090    8.8270   -1.0574 H   0  0  0  0  0  0  0  0  0  0  0  0
   -5.3578    9.0823    0.1601 H   0  0  0  0  0  0  0  0  0  0  0  0
   -4.9039    8.6150   -1.4858 H   0  0  0  0  0  0  0  0  0  0  0  0
  1  2  1  0  0  0  0
  1 11  2  0  0  0  0
  2  3  1  0  0  0  0
  4  1  1  0  0  0  0
  5  4  2  0  0  0  0
  5  6  1  0  0  0  0
  6 10  2  0  0  0  0
  7  6  1  0  0  0  0
  7  9  2  0  0  0  0
  8  7  2  0  0  0  0
 10 11  1  0  0  0  0
 10 14  1  0  0  0  0
 11 15  1  0  0  0  0
 13  5  1  0  0  0  0
 16 22  1  0  0  0  0
 17 16  1  0  0  0  0
 17 23  1  0  0  0  0
 18 17  1  0  0  0  0
 19 20  1  0  0  0  0
 19 18  2  0  0  0  0
 20 12  1  0  0  0  0
 20 21  1  0  0  0  0
 21 16  2  0  0  0  0
 21 26  1  0  0  0  0
 24 19  1  0  0  0  0
 25 20  1  0  0  0  0
 26 27  2  0  0  0  0
 26 28  1  0  0  0  0
 29 26  2  0  0  0  0
 30 18  1  0  0  0  0
 30 32  1  0  0  0  0
 31 30  1  0  0  0  0
 33 30  1  0  0  0  0
M  RAD  5   2   2   3   3   4   2  17   2  28   2
M  END
