Coordinates from ORCA-job 4-NO2PhN2+~TsO-_B3LYPG-6-31G_dp-CH-Scan-d09-49-n800
 OpenBabel11261919023D

 33 33  0  0  0  0  0  0  0  0999 V2000
   -2.7932    1.0836   -0.2597 C   0  0  0  0  0  0  0  0  0  0  0  0
   -3.8918    0.2626    0.1450 N   0  0  0  0  0  0  0  0  0  0  0  0
   -5.0040    0.6954    0.3879 N   0  0  0  0  0  0  0  0  0  0  0  0
   -2.6380    1.5697   -1.5388 C   0  0  0  0  0  0  0  0  0  0  0  0
   -1.5683    2.2700   -2.0200 C   0  0  0  0  0  0  0  0  0  0  0  0
   -0.5381    2.4836   -1.0911 C   0  0  0  0  0  0  0  0  0  0  0  0
    0.6561    3.2292   -1.5261 N   0  0  0  0  0  0  0  0  0  0  0  0
    0.6806    3.6321   -2.6871 O   0  0  0  0  0  0  0  0  0  0  0  0
    1.5423    3.4113   -0.6937 O   0  0  0  0  0  0  0  0  0  0  0  0
   -0.6069    2.0113    0.2191 C   0  0  0  0  0  0  0  0  0  0  0  0
   -1.7288    1.2987    0.6342 C   0  0  0  0  0  0  0  0  0  0  0  0
   -4.5932    1.0508   -3.1275 H   0  0  0  0  0  0  0  0  0  0  0  0
   -1.4846    2.6444   -3.0322 H   0  0  0  0  0  0  0  0  0  0  0  0
    0.2192    2.2011    0.8925 H   0  0  0  0  0  0  0  0  0  0  0  0
   -1.8003    0.9104    1.6453 H   0  0  0  0  0  0  0  0  0  0  0  0
   -5.9962    5.2540    1.2562 C   0  0  0  0  0  0  0  0  0  0  0  0
   -5.7744    6.5949    0.9511 C   0  0  0  0  0  0  0  0  0  0  0  0
   -5.9222    7.0755   -0.3584 C   0  0  0  0  0  0  0  0  0  0  0  0
   -6.3003    6.1751   -1.3670 C   0  0  0  0  0  0  0  0  0  0  0  0
   -6.5281    4.8314   -1.0852 C   0  0  0  0  0  0  0  0  0  0  0  0
   -6.3686    4.3855    0.2291 C   0  0  0  0  0  0  0  0  0  0  0  0
   -5.8916    4.8830    2.2697 H   0  0  0  0  0  0  0  0  0  0  0  0
   -5.4838    7.2801    1.7422 H   0  0  0  0  0  0  0  0  0  0  0  0
   -6.4211    6.5330   -2.3856 H   0  0  0  0  0  0  0  0  0  0  0  0
   -6.8300    4.1377   -1.8617 H   0  0  0  0  0  0  0  0  0  0  0  0
   -6.6640    2.6741    0.6043 S   0  0  0  0  0  0  0  0  0  0  0  0
   -6.8712    2.4990    2.0361 O   0  0  0  0  0  0  0  0  0  0  0  0
   -5.0801    2.1477    0.2466 O   0  0  0  0  0  0  0  0  0  0  0  0
   -7.5583    2.0851   -0.3827 O   0  0  0  0  0  0  0  0  0  0  0  0
   -5.7094    8.5358   -0.6737 C   0  0  0  0  0  0  0  0  0  0  0  0
   -6.6630    9.0775   -0.6677 H   0  0  0  0  0  0  0  0  0  0  0  0
   -5.0560    9.0142    0.0612 H   0  0  0  0  0  0  0  0  0  0  0  0
   -5.2664    8.6699   -1.6649 H   0  0  0  0  0  0  0  0  0  0  0  0
  1  2  1  0  0  0  0
  1 11  2  0  0  0  0
  2  3  1  0  0  0  0
  4  1  1  0  0  0  0
  5  4  2  0  0  0  0
  5  6  1  0  0  0  0
  6 10  2  0  0  0  0
  7  6  1  0  0  0  0
  7  9  2  0  0  0  0
  8  7  2  0  0  0  0
 10 11  1  0  0  0  0
 10 14  1  0  0  0  0
 11 15  1  0  0  0  0
 13  5  1  0  0  0  0
 16 22  1  0  0  0  0
 17 16  1  0  0  0  0
 17 23  1  0  0  0  0
 18 17  2  0  0  0  0
 19 20  2  0  0  0  0
 19 18  1  0  0  0  0
 20 21  1  0  0  0  0
 21 26  1  0  0  0  0
 21 16  2  0  0  0  0
 24 19  1  0  0  0  0
 25 20  1  0  0  0  0
 26 27  2  0  0  0  0
 28  3  1  0  0  0  0
 28 26  1  0  0  0  0
 29 26  2  0  0  0  0
 30 31  1  0  0  0  0
 30 18  1  0  0  0  0
 30 32  1  0  0  0  0
 33 30  1  0  0  0  0
M  RAD  4   2   2   3   2   4   2  12   2
M  END
