Coordinates from ORCA-job 4-NO2PhN2+~TsO-_B3LYPG-6-31G_dp-CH-Scan-d09-49-n800
 OpenBabel11261919023D

 33 34  0  0  0  0  0  0  0  0999 V2000
   -2.7681    1.0888   -0.1996 C   0  0  0  0  0  0  0  0  0  0  0  0
   -3.8625    0.3088    0.2819 N   0  0  0  0  0  0  0  0  0  0  0  0
   -4.9866    0.7217    0.4771 N   0  0  0  0  0  0  0  0  0  0  0  0
   -2.7118    1.5287   -1.5204 C   0  0  0  0  0  0  0  0  0  0  0  0
   -1.6021    2.1843   -2.0197 C   0  0  0  0  0  0  0  0  0  0  0  0
   -0.5300    2.3961   -1.1494 C   0  0  0  0  0  0  0  0  0  0  0  0
    0.6606    3.1004   -1.6517 N   0  0  0  0  0  0  0  0  0  0  0  0
    0.6479    3.4719   -2.8243 O   0  0  0  0  0  0  0  0  0  0  0  0
    1.5916    3.2739   -0.8668 O   0  0  0  0  0  0  0  0  0  0  0  0
   -0.5474    1.9576    0.1735 C   0  0  0  0  0  0  0  0  0  0  0  0
   -1.6683    1.2820    0.6463 C   0  0  0  0  0  0  0  0  0  0  0  0
   -3.9039    1.2652   -2.4187 H   0  0  0  0  0  0  0  0  0  0  0  0
   -1.5444    2.5338   -3.0417 H   0  0  0  0  0  0  0  0  0  0  0  0
    0.3127    2.1394    0.8053 H   0  0  0  0  0  0  0  0  0  0  0  0
   -1.7048    0.9100    1.6641 H   0  0  0  0  0  0  0  0  0  0  0  0
   -6.0538    5.2446    1.2166 C   0  0  0  0  0  0  0  0  0  0  0  0
   -5.8378    6.5955    0.9573 C   0  0  0  0  0  0  0  0  0  0  0  0
   -5.9794    7.1184   -0.3370 C   0  0  0  0  0  0  0  0  0  0  0  0
   -6.3456    6.2497   -1.3763 C   0  0  0  0  0  0  0  0  0  0  0  0
   -6.5664    4.8955   -1.1396 C   0  0  0  0  0  0  0  0  0  0  0  0
   -6.4127    4.4066    0.1591 C   0  0  0  0  0  0  0  0  0  0  0  0
   -5.9554    4.8423    2.2187 H   0  0  0  0  0  0  0  0  0  0  0  0
   -5.5569    7.2560    1.7727 H   0  0  0  0  0  0  0  0  0  0  0  0
   -6.4632    6.6402   -2.3833 H   0  0  0  0  0  0  0  0  0  0  0  0
   -6.8619    4.2259   -1.9395 H   0  0  0  0  0  0  0  0  0  0  0  0
   -6.6975    2.6803    0.4779 S   0  0  0  0  0  0  0  0  0  0  0  0
   -7.0014    2.4741    1.8885 O   0  0  0  0  0  0  0  0  0  0  0  0
   -5.1015    2.1856    0.2088 O   0  0  0  0  0  0  0  0  0  0  0  0
   -7.5236    2.1051   -0.5771 O   0  0  0  0  0  0  0  0  0  0  0  0
   -5.7740    8.5901   -0.6000 C   0  0  0  0  0  0  0  0  0  0  0  0
   -6.7185    9.1389   -0.4988 H   0  0  0  0  0  0  0  0  0  0  0  0
   -5.0643    9.0287    0.1072 H   0  0  0  0  0  0  0  0  0  0  0  0
   -5.4025    8.7678   -1.6132 H   0  0  0  0  0  0  0  0  0  0  0  0
  1  2  1  0  0  0  0
  1 11  2  0  0  0  0
  2  3  1  0  0  0  0
  4  1  1  0  0  0  0
  5  4  2  0  0  0  0
  5  6  1  0  0  0  0
  6 10  2  0  0  0  0
  7  6  1  0  0  0  0
  7  9  2  0  0  0  0
  8  7  2  0  0  0  0
 10 11  1  0  0  0  0
 10 14  1  0  0  0  0
 11 15  1  0  0  0  0
 12  4  1  0  0  0  0
 13  5  1  0  0  0  0
 16 22  1  0  0  0  0
 17 16  1  0  0  0  0
 17 23  1  0  0  0  0
 18 17  2  0  0  0  0
 19 20  2  0  0  0  0
 19 18  1  0  0  0  0
 20 21  1  0  0  0  0
 21 26  1  0  0  0  0
 21 16  2  0  0  0  0
 24 19  1  0  0  0  0
 25 20  1  0  0  0  0
 26 27  2  0  0  0  0
 28  3  1  0  0  0  0
 28 26  1  0  0  0  0
 29 26  2  0  0  0  0
 30 31  1  0  0  0  0
 30 18  1  0  0  0  0
 30 32  1  0  0  0  0
 33 30  1  0  0  0  0
M  RAD  2   2   2   3   2
M  END
