Coordinates from ORCA-job 4-NO2PhN2+~TsO-_B3LYPG-6-31G_dp-CH-Scan-d09-49-n800
 OpenBabel11261919023D

 33 34  0  0  0  0  0  0  0  0999 V2000
   -2.7548    1.0942   -0.1811 C   0  0  0  0  0  0  0  0  0  0  0  0
   -3.8509    0.3254    0.3130 N   0  0  0  0  0  0  0  0  0  0  0  0
   -4.9770    0.7345    0.5001 N   0  0  0  0  0  0  0  0  0  0  0  0
   -2.7245    1.5646   -1.4942 C   0  0  0  0  0  0  0  0  0  0  0  0
   -1.6077    2.2069   -1.9989 C   0  0  0  0  0  0  0  0  0  0  0  0
   -0.5117    2.3747   -1.1498 C   0  0  0  0  0  0  0  0  0  0  0  0
    0.6825    3.0652   -1.6631 N   0  0  0  0  0  0  0  0  0  0  0  0
    0.6505    3.4666   -2.8254 O   0  0  0  0  0  0  0  0  0  0  0  0
    1.6360    3.1968   -0.8974 O   0  0  0  0  0  0  0  0  0  0  0  0
   -0.5076    1.9043    0.1621 C   0  0  0  0  0  0  0  0  0  0  0  0
   -1.6319    1.2406    0.6432 C   0  0  0  0  0  0  0  0  0  0  0  0
   -3.8810    1.3631   -2.3293 H   0  0  0  0  0  0  0  0  0  0  0  0
   -1.5641    2.5802   -3.0132 H   0  0  0  0  0  0  0  0  0  0  0  0
    0.3708    2.0514    0.7776 H   0  0  0  0  0  0  0  0  0  0  0  0
   -1.6537    0.8423    1.6513 H   0  0  0  0  0  0  0  0  0  0  0  0
   -6.0712    5.2520    1.2081 C   0  0  0  0  0  0  0  0  0  0  0  0
   -5.8615    6.6042    0.9513 C   0  0  0  0  0  0  0  0  0  0  0  0
   -6.0020    7.1282   -0.3428 C   0  0  0  0  0  0  0  0  0  0  0  0
   -6.3604    6.2589   -1.3843 C   0  0  0  0  0  0  0  0  0  0  0  0
   -6.5746    4.9031   -1.1499 C   0  0  0  0  0  0  0  0  0  0  0  0
   -6.4224    4.4133    0.1485 C   0  0  0  0  0  0  0  0  0  0  0  0
   -5.9739    4.8490    2.2102 H   0  0  0  0  0  0  0  0  0  0  0  0
   -5.5866    7.2652    1.7684 H   0  0  0  0  0  0  0  0  0  0  0  0
   -6.4772    6.6501   -2.3910 H   0  0  0  0  0  0  0  0  0  0  0  0
   -6.8645    4.2330   -1.9514 H   0  0  0  0  0  0  0  0  0  0  0  0
   -6.6994    2.6850    0.4646 S   0  0  0  0  0  0  0  0  0  0  0  0
   -7.0173    2.4777    1.8720 O   0  0  0  0  0  0  0  0  0  0  0  0
   -5.1004    2.1993    0.2111 O   0  0  0  0  0  0  0  0  0  0  0  0
   -7.5126    2.1058   -0.5984 O   0  0  0  0  0  0  0  0  0  0  0  0
   -5.8038    8.6014   -0.6030 C   0  0  0  0  0  0  0  0  0  0  0  0
   -6.7496    9.1465   -0.4936 H   0  0  0  0  0  0  0  0  0  0  0  0
   -5.0911    9.0406    0.1009 H   0  0  0  0  0  0  0  0  0  0  0  0
   -5.4399    8.7836   -1.6180 H   0  0  0  0  0  0  0  0  0  0  0  0
  1  2  1  0  0  0  0
  1 11  2  0  0  0  0
  2  3  1  0  0  0  0
  4  1  1  0  0  0  0
  5  4  2  0  0  0  0
  5  6  1  0  0  0  0
  6 10  2  0  0  0  0
  7  6  1  0  0  0  0
  7  9  2  0  0  0  0
  8  7  2  0  0  0  0
 10 11  1  0  0  0  0
 10 14  1  0  0  0  0
 11 15  1  0  0  0  0
 12  4  1  0  0  0  0
 13  5  1  0  0  0  0
 16 22  1  0  0  0  0
 17 16  1  0  0  0  0
 17 23  1  0  0  0  0
 18 17  2  0  0  0  0
 19 20  2  0  0  0  0
 19 18  1  0  0  0  0
 20 21  1  0  0  0  0
 21 26  1  0  0  0  0
 21 16  2  0  0  0  0
 24 19  1  0  0  0  0
 25 20  1  0  0  0  0
 26 27  2  0  0  0  0
 28 26  1  0  0  0  0
 28  3  1  0  0  0  0
 29 26  2  0  0  0  0
 30 31  1  0  0  0  0
 30 18  1  0  0  0  0
 30 32  1  0  0  0  0
 33 30  1  0  0  0  0
M  RAD  2   2   2   3   2
M  END
