Coordinates from ORCA-job 4-NO2PhN2+~TsO-_B3LYPG-6-31G_dp-CH-Scan-d09-49-n800
 OpenBabel11261919023D

 33 34  0  0  0  0  0  0  0  0999 V2000
   -2.7200    1.1051   -0.1616 C   0  0  0  0  0  0  0  0  0  0  0  0
   -3.8316    0.3643    0.3354 N   0  0  0  0  0  0  0  0  0  0  0  0
   -4.9609    0.7650    0.5089 N   0  0  0  0  0  0  0  0  0  0  0  0
   -2.7362    1.7230   -1.4166 C   0  0  0  0  0  0  0  0  0  0  0  0
   -1.5908    2.3291   -1.9102 C   0  0  0  0  0  0  0  0  0  0  0  0
   -0.4388    2.3149   -1.1227 C   0  0  0  0  0  0  0  0  0  0  0  0
    0.7778    2.9684   -1.6337 N   0  0  0  0  0  0  0  0  0  0  0  0
    0.7117    3.5070   -2.7375 O   0  0  0  0  0  0  0  0  0  0  0  0
    1.7807    2.9374   -0.9226 O   0  0  0  0  0  0  0  0  0  0  0  0
   -0.3974    1.6956    0.1250 C   0  0  0  0  0  0  0  0  0  0  0  0
   -1.5434    1.0651    0.5975 C   0  0  0  0  0  0  0  0  0  0  0  0
   -3.8145    1.7191   -2.1071 H   0  0  0  0  0  0  0  0  0  0  0  0
   -1.5711    2.8128   -2.8779 H   0  0  0  0  0  0  0  0  0  0  0  0
    0.5240    1.7018    0.6932 H   0  0  0  0  0  0  0  0  0  0  0  0
   -1.5421    0.5493    1.5510 H   0  0  0  0  0  0  0  0  0  0  0  0
   -6.0747    5.2856    1.1801 C   0  0  0  0  0  0  0  0  0  0  0  0
   -5.8906    6.6388    0.9097 C   0  0  0  0  0  0  0  0  0  0  0  0
   -6.0811    7.1541   -0.3817 C   0  0  0  0  0  0  0  0  0  0  0  0
   -6.4629    6.2749   -1.4060 C   0  0  0  0  0  0  0  0  0  0  0  0
   -6.6521    4.9176   -1.1576 C   0  0  0  0  0  0  0  0  0  0  0  0
   -6.4505    4.4364    0.1372 C   0  0  0  0  0  0  0  0  0  0  0  0
   -5.9395    4.8895    2.1805 H   0  0  0  0  0  0  0  0  0  0  0  0
   -5.5975    7.3077    1.7140 H   0  0  0  0  0  0  0  0  0  0  0  0
   -6.6189    6.6593   -2.4100 H   0  0  0  0  0  0  0  0  0  0  0  0
   -6.9613    4.2396   -1.9452 H   0  0  0  0  0  0  0  0  0  0  0  0
   -6.6978    2.7062    0.4717 S   0  0  0  0  0  0  0  0  0  0  0  0
   -6.9918    2.5080    1.8859 O   0  0  0  0  0  0  0  0  0  0  0  0
   -5.1026    2.2387    0.1966 O   0  0  0  0  0  0  0  0  0  0  0  0
   -7.5246    2.1107   -0.5724 O   0  0  0  0  0  0  0  0  0  0  0  0
   -5.9110    8.6287   -0.6544 C   0  0  0  0  0  0  0  0  0  0  0  0
   -6.8493    9.1684   -0.4750 H   0  0  0  0  0  0  0  0  0  0  0  0
   -5.1518    9.0717   -0.0036 H   0  0  0  0  0  0  0  0  0  0  0  0
   -5.6229    8.8138   -1.6928 H   0  0  0  0  0  0  0  0  0  0  0  0
  1  2  1  0  0  0  0
  1 11  2  0  0  0  0
  2  3  1  0  0  0  0
  4  1  1  0  0  0  0
  5  4  2  0  0  0  0
  5  6  1  0  0  0  0
  6 10  2  0  0  0  0
  7  6  1  0  0  0  0
  7  9  2  0  0  0  0
  8  7  2  0  0  0  0
 10 11  1  0  0  0  0
 10 14  1  0  0  0  0
 11 15  1  0  0  0  0
 12  4  1  0  0  0  0
 13  5  1  0  0  0  0
 16 22  1  0  0  0  0
 17 16  1  0  0  0  0
 17 23  1  0  0  0  0
 18 17  2  0  0  0  0
 19 20  2  0  0  0  0
 19 18  1  0  0  0  0
 20 21  1  0  0  0  0
 21 26  1  0  0  0  0
 21 16  2  0  0  0  0
 24 19  1  0  0  0  0
 25 20  1  0  0  0  0
 26 27  2  0  0  0  0
 28 26  1  0  0  0  0
 28  3  1  0  0  0  0
 29 26  2  0  0  0  0
 30 31  1  0  0  0  0
 30 18  1  0  0  0  0
 30 32  1  0  0  0  0
 33 30  1  0  0  0  0
M  RAD  2   2   2   3   2
M  END
