Coordinates from ORCA-job 4-NO2PhN2+~TsO-_B3LYPG-6-31G_dp-CH-Scan-d09-49-n800
 OpenBabel11261919023D

 33 34  0  0  0  0  0  0  0  0999 V2000
   -2.6495    1.1142   -0.1839 C   0  0  0  0  0  0  0  0  0  0  0  0
   -3.8047    0.4297    0.2781 N   0  0  0  0  0  0  0  0  0  0  0  0
   -4.9317    0.8126    0.4618 N   0  0  0  0  0  0  0  0  0  0  0  0
   -2.6549    2.0778   -1.2039 C   0  0  0  0  0  0  0  0  0  0  0  0
   -1.4505    2.6152   -1.6408 C   0  0  0  0  0  0  0  0  0  0  0  0
   -0.2647    2.1936   -1.0411 C   0  0  0  0  0  0  0  0  0  0  0  0
    1.0095    2.7802   -1.4967 N   0  0  0  0  0  0  0  0  0  0  0  0
    0.9577    3.6284   -2.3851 O   0  0  0  0  0  0  0  0  0  0  0  0
    2.0404    2.3825   -0.9580 O   0  0  0  0  0  0  0  0  0  0  0  0
   -0.2388    1.2306   -0.0345 C   0  0  0  0  0  0  0  0  0  0  0  0
   -1.4424    0.6714    0.3768 C   0  0  0  0  0  0  0  0  0  0  0  0
   -3.6537    2.4167   -1.6755 H   0  0  0  0  0  0  0  0  0  0  0  0
   -1.4143    3.3580   -2.4277 H   0  0  0  0  0  0  0  0  0  0  0  0
    0.7082    0.9256    0.3912 H   0  0  0  0  0  0  0  0  0  0  0  0
   -1.4684   -0.1038    1.1348 H   0  0  0  0  0  0  0  0  0  0  0  0
   -6.0478    5.3898    1.1291 C   0  0  0  0  0  0  0  0  0  0  0  0
   -5.9287    6.7375    0.8007 C   0  0  0  0  0  0  0  0  0  0  0  0
   -6.2619    7.2054   -0.4801 C   0  0  0  0  0  0  0  0  0  0  0  0
   -6.7199    6.2837   -1.4333 C   0  0  0  0  0  0  0  0  0  0  0  0
   -6.8462    4.9308   -1.1254 C   0  0  0  0  0  0  0  0  0  0  0  0
   -6.5031    4.4970    0.1564 C   0  0  0  0  0  0  0  0  0  0  0  0
   -5.8030    5.0301    2.1222 H   0  0  0  0  0  0  0  0  0  0  0  0
   -5.5760    7.4398    1.5508 H   0  0  0  0  0  0  0  0  0  0  0  0
   -6.9866    6.6313   -2.4274 H   0  0  0  0  0  0  0  0  0  0  0  0
   -7.2149    4.2195   -1.8561 H   0  0  0  0  0  0  0  0  0  0  0  0
   -6.6701    2.7708    0.5656 S   0  0  0  0  0  0  0  0  0  0  0  0
   -6.8349    2.6176    2.0074 O   0  0  0  0  0  0  0  0  0  0  0  0
   -5.1083    2.3329    0.1678 O   0  0  0  0  0  0  0  0  0  0  0  0
   -7.5822    2.1287   -0.3757 O   0  0  0  0  0  0  0  0  0  0  0  0
   -6.1619    8.6742   -0.8124 C   0  0  0  0  0  0  0  0  0  0  0  0
   -7.0779    9.2027   -0.5195 H   0  0  0  0  0  0  0  0  0  0  0  0
   -5.3310    9.1492   -0.2830 H   0  0  0  0  0  0  0  0  0  0  0  0
   -6.0215    8.8342   -1.8850 H   0  0  0  0  0  0  0  0  0  0  0  0
  1  2  1  0  0  0  0
  1 11  2  0  0  0  0
  2  3  1  0  0  0  0
  4  1  1  0  0  0  0
  5  4  2  0  0  0  0
  5  6  1  0  0  0  0
  6 10  2  0  0  0  0
  7  6  1  0  0  0  0
  7  9  2  0  0  0  0
  8  7  2  0  0  0  0
 10 11  1  0  0  0  0
 10 14  1  0  0  0  0
 11 15  1  0  0  0  0
 12  4  1  0  0  0  0
 13  5  1  0  0  0  0
 16 22  1  0  0  0  0
 17 16  1  0  0  0  0
 17 23  1  0  0  0  0
 18 17  2  0  0  0  0
 19 20  2  0  0  0  0
 19 18  1  0  0  0  0
 20 21  1  0  0  0  0
 21 26  1  0  0  0  0
 21 16  2  0  0  0  0
 24 19  1  0  0  0  0
 25 20  1  0  0  0  0
 26 27  2  0  0  0  0
 28  3  1  0  0  0  0
 28 26  1  0  0  0  0
 29 26  2  0  0  0  0
 30 31  1  0  0  0  0
 30 18  1  0  0  0  0
 30 32  1  0  0  0  0
 33 30  1  0  0  0  0
M  RAD  2   2   2   3   2
M  END
