Coordinates from ORCA-job 4-NO2PhN2+~TsO-_B3LYPG-6-31G_dp-CH-Scan-d09-49-n800
 OpenBabel11261919023D

 33 33  0  0  0  0  0  0  0  0999 V2000
   -2.9133    0.8012   -0.9564 C   0  0  0  0  0  0  0  0  0  0  0  0
   -3.9072   -0.1836   -0.7491 N   0  0  0  0  0  0  0  0  0  0  0  0
   -4.6719   -0.9898   -0.6790 N   0  0  0  0  0  0  0  0  0  0  0  0
   -2.3364    0.6982   -2.2212 C   0  0  0  0  0  0  0  0  0  0  0  0
   -1.3553    1.7242   -2.3811 C   0  0  0  0  0  0  0  0  0  0  0  0
   -1.0610    2.6283   -1.3695 C   0  0  0  0  0  0  0  0  0  0  0  0
   -0.0522    3.6854   -1.6119 N   0  0  0  0  0  0  0  0  0  0  0  0
    0.7099    3.5473   -2.5645 O   0  0  0  0  0  0  0  0  0  0  0  0
   -0.0567    4.6572   -0.8514 O   0  0  0  0  0  0  0  0  0  0  0  0
   -1.7010    2.6340   -0.1094 C   0  0  0  0  0  0  0  0  0  0  0  0
   -2.6756    1.6853    0.1258 C   0  0  0  0  0  0  0  0  0  0  0  0
   -4.0529    4.0195   -0.2336 H   0  0  0  0  0  0  0  0  0  0  0  0
   -0.8137    1.8262   -3.3184 H   0  0  0  0  0  0  0  0  0  0  0  0
   -1.4155    3.3627    0.6383 H   0  0  0  0  0  0  0  0  0  0  0  0
   -3.2333    1.6476    1.0575 H   0  0  0  0  0  0  0  0  0  0  0  0
   -6.6630    5.2545    1.1504 C   0  0  0  0  0  0  0  0  0  0  0  0
   -6.4366    6.5459    0.6829 C   0  0  0  0  0  0  0  0  0  0  0  0
   -5.5341    6.8694   -0.3800 C   0  0  0  0  0  0  0  0  0  0  0  0
   -4.8653    5.8322   -0.9699 C   0  0  0  0  0  0  0  0  0  0  0  0
   -5.0389    4.4362   -0.5286 C   0  0  0  0  0  0  0  0  0  0  0  0
   -5.9844    4.1916    0.5705 C   0  0  0  0  0  0  0  0  0  0  0  0
   -7.3731    5.0564    1.9466 H   0  0  0  0  0  0  0  0  0  0  0  0
   -6.9832    7.3651    1.1468 H   0  0  0  0  0  0  0  0  0  0  0  0
   -4.1693    6.0193   -1.7839 H   0  0  0  0  0  0  0  0  0  0  0  0
   -5.2874    3.7641   -1.3691 H   0  0  0  0  0  0  0  0  0  0  0  0
   -6.1877    2.5066    1.2080 S   0  0  0  0  0  0  0  0  0  0  0  0
   -7.5315    2.4985    1.8021 O   0  0  0  0  0  0  0  0  0  0  0  0
   -5.0468    2.5163    2.1671 O   0  0  0  0  0  0  0  0  0  0  0  0
   -5.9772    1.6536    0.0164 O   0  0  0  0  0  0  0  0  0  0  0  0
   -5.3615    8.3061   -0.8045 C   0  0  0  0  0  0  0  0  0  0  0  0
   -6.3157    8.7400   -1.1219 H   0  0  0  0  0  0  0  0  0  0  0  0
   -4.9848    8.9167    0.0235 H   0  0  0  0  0  0  0  0  0  0  0  0
   -4.6568    8.3917   -1.6346 H   0  0  0  0  0  0  0  0  0  0  0  0
  1  2  1  0  0  0  0
  1 11  2  0  0  0  0
  2  3  1  0  0  0  0
  4  1  1  0  0  0  0
  5  4  2  0  0  0  0
  5  6  1  0  0  0  0
  6 10  2  0  0  0  0
  7  6  1  0  0  0  0
  7  9  2  0  0  0  0
  8  7  2  0  0  0  0
 10 11  1  0  0  0  0
 10 14  1  0  0  0  0
 11 15  1  0  0  0  0
 13  5  1  0  0  0  0
 16 22  1  0  0  0  0
 17 23  1  0  0  0  0
 17 16  1  0  0  0  0
 18 17  1  0  0  0  0
 19 20  1  0  0  0  0
 19 18  2  0  0  0  0
 20 12  1  0  0  0  0
 20 21  1  0  0  0  0
 21 16  2  0  0  0  0
 21 26  1  0  0  0  0
 24 19  1  0  0  0  0
 25 20  1  0  0  0  0
 26 27  2  0  0  0  0
 26 28  1  0  0  0  0
 29 26  2  0  0  0  0
 30 18  1  0  0  0  0
 30 32  1  0  0  0  0
 31 30  1  0  0  0  0
 33 30  1  0  0  0  0
M  RAD  5   2   2   3   3   4   2  17   2  28   2
M  END
