Coordinates from ORCA-job 4-NO2PhN2+~TsO-_B3LYPG-6-31G_dp-CH-Scan-d09-49-n800
 OpenBabel11261919023D

 33 33  0  0  0  0  0  0  0  0999 V2000
   -2.9949    0.8767   -0.9779 C   0  0  0  0  0  0  0  0  0  0  0  0
   -3.9587   -0.1476   -0.8153 N   0  0  0  0  0  0  0  0  0  0  0  0
   -4.7013   -0.9762   -0.7867 N   0  0  0  0  0  0  0  0  0  0  0  0
   -2.5209    0.9389   -2.2868 C   0  0  0  0  0  0  0  0  0  0  0  0
   -1.5638    1.9934   -2.3965 C   0  0  0  0  0  0  0  0  0  0  0  0
   -1.2021    2.7781   -1.3096 C   0  0  0  0  0  0  0  0  0  0  0  0
   -0.2301    3.8792   -1.5023 N   0  0  0  0  0  0  0  0  0  0  0  0
    0.4617    3.8661   -2.5165 O   0  0  0  0  0  0  0  0  0  0  0  0
   -0.1952    4.7603   -0.6393 O   0  0  0  0  0  0  0  0  0  0  0  0
   -1.7446    2.6241   -0.0135 C   0  0  0  0  0  0  0  0  0  0  0  0
   -2.6860    1.6326    0.1796 C   0  0  0  0  0  0  0  0  0  0  0  0
   -3.9944    3.9148   -0.1873 H   0  0  0  0  0  0  0  0  0  0  0  0
   -1.0957    2.2151   -3.3526 H   0  0  0  0  0  0  0  0  0  0  0  0
   -1.4185    3.2713    0.7902 H   0  0  0  0  0  0  0  0  0  0  0  0
   -3.1810    1.4869    1.1348 H   0  0  0  0  0  0  0  0  0  0  0  0
   -6.5889    5.2306    1.1236 C   0  0  0  0  0  0  0  0  0  0  0  0
   -6.3352    6.5014    0.6150 C   0  0  0  0  0  0  0  0  0  0  0  0
   -5.4237    6.7716   -0.4546 C   0  0  0  0  0  0  0  0  0  0  0  0
   -4.7742    5.7018   -1.0072 C   0  0  0  0  0  0  0  0  0  0  0  0
   -4.9734    4.3264   -0.5174 C   0  0  0  0  0  0  0  0  0  0  0  0
   -5.9304    4.1357    0.5812 C   0  0  0  0  0  0  0  0  0  0  0  0
   -7.3052    5.0728    1.9232 H   0  0  0  0  0  0  0  0  0  0  0  0
   -6.8665    7.3460    1.0502 H   0  0  0  0  0  0  0  0  0  0  0  0
   -4.0721    5.8475   -1.8245 H   0  0  0  0  0  0  0  0  0  0  0  0
   -5.2094    3.6221   -1.3340 H   0  0  0  0  0  0  0  0  0  0  0  0
   -6.1704    2.4771    1.2752 S   0  0  0  0  0  0  0  0  0  0  0  0
   -7.5065    2.5257    1.8849 O   0  0  0  0  0  0  0  0  0  0  0  0
   -5.0171    2.4802    2.2184 O   0  0  0  0  0  0  0  0  0  0  0  0
   -6.0025    1.5817    0.1074 O   0  0  0  0  0  0  0  0  0  0  0  0
   -5.2210    8.1894   -0.9266 C   0  0  0  0  0  0  0  0  0  0  0  0
   -6.1649    8.6309   -1.2636 H   0  0  0  0  0  0  0  0  0  0  0  0
   -4.8358    8.8202   -0.1180 H   0  0  0  0  0  0  0  0  0  0  0  0
   -4.5108    8.2326   -1.7554 H   0  0  0  0  0  0  0  0  0  0  0  0
  1  2  1  0  0  0  0
  1 11  2  0  0  0  0
  2  3  1  0  0  0  0
  4  1  1  0  0  0  0
  5  4  2  0  0  0  0
  5  6  1  0  0  0  0
  6 10  2  0  0  0  0
  7  6  1  0  0  0  0
  7  9  2  0  0  0  0
  8  7  2  0  0  0  0
 10 11  1  0  0  0  0
 10 14  1  0  0  0  0
 11 15  1  0  0  0  0
 13  5  1  0  0  0  0
 16 22  1  0  0  0  0
 17 23  1  0  0  0  0
 17 16  1  0  0  0  0
 18 17  1  0  0  0  0
 19 20  1  0  0  0  0
 19 18  2  0  0  0  0
 20 12  1  0  0  0  0
 20 21  1  0  0  0  0
 21 16  2  0  0  0  0
 21 26  1  0  0  0  0
 24 19  1  0  0  0  0
 25 20  1  0  0  0  0
 26 27  2  0  0  0  0
 26 28  1  0  0  0  0
 29 26  2  0  0  0  0
 30 18  1  0  0  0  0
 30 32  1  0  0  0  0
 31 30  1  0  0  0  0
 33 30  1  0  0  0  0
M  RAD  5   2   2   3   3   4   2  17   2  28   2
M  END
