Coordinates from ORCA-job 4-NO2PhN2+~TsO-_B3LYPG-6-31G_dp-CH-Scan-d09-49-n800
 OpenBabel11261919023D

 33 33  0  0  0  0  0  0  0  0999 V2000
   -2.2839    1.2072   -0.2766 C   0  0  0  0  0  0  0  0  0  0  0  0
   -3.5328    0.7254    0.1693 N   0  0  0  0  0  0  0  0  0  0  0  0
   -4.5348    0.3777    0.5087 N   0  0  0  0  0  0  0  0  0  0  0  0
   -2.3483    2.3766   -1.0343 C   0  0  0  0  0  0  0  0  0  0  0  0
   -1.0449    2.7749   -1.4397 C   0  0  0  0  0  0  0  0  0  0  0  0
    0.0880    2.0444   -1.1055 C   0  0  0  0  0  0  0  0  0  0  0  0
    1.4177    2.5131   -1.5720 N   0  0  0  0  0  0  0  0  0  0  0  0
    1.4567    3.5302   -2.2595 O   0  0  0  0  0  0  0  0  0  0  0  0
    2.4022    1.8535   -1.2390 O   0  0  0  0  0  0  0  0  0  0  0  0
    0.0588    0.8663   -0.3334 C   0  0  0  0  0  0  0  0  0  0  0  0
   -1.1681    0.4194    0.1054 C   0  0  0  0  0  0  0  0  0  0  0  0
   -5.1425    4.2301   -1.0499 H   0  0  0  0  0  0  0  0  0  0  0  0
   -0.9016    3.6741   -2.0323 H   0  0  0  0  0  0  0  0  0  0  0  0
    0.9799    0.3484   -0.1035 H   0  0  0  0  0  0  0  0  0  0  0  0
   -1.2671   -0.4788    0.7081 H   0  0  0  0  0  0  0  0  0  0  0  0
   -6.9799    5.5916    1.1662 C   0  0  0  0  0  0  0  0  0  0  0  0
   -6.8596    6.8725    0.6378 C   0  0  0  0  0  0  0  0  0  0  0  0
   -6.4021    7.1502   -0.6900 C   0  0  0  0  0  0  0  0  0  0  0  0
   -6.0711    6.0818   -1.4770 C   0  0  0  0  0  0  0  0  0  0  0  0
   -6.1498    4.6938   -0.9865 C   0  0  0  0  0  0  0  0  0  0  0  0
   -6.6429    4.4957    0.3823 C   0  0  0  0  0  0  0  0  0  0  0  0
   -7.3586    5.4276    2.1692 H   0  0  0  0  0  0  0  0  0  0  0  0
   -7.1389    7.7185    1.2636 H   0  0  0  0  0  0  0  0  0  0  0  0
   -5.7178    6.2366   -2.4931 H   0  0  0  0  0  0  0  0  0  0  0  0
   -6.7068    4.0299   -1.6693 H   0  0  0  0  0  0  0  0  0  0  0  0
   -6.7407    2.8146    1.0495 S   0  0  0  0  0  0  0  0  0  0  0  0
   -7.8500    2.8755    2.0164 O   0  0  0  0  0  0  0  0  0  0  0  0
   -5.3740    2.7438    1.6412 O   0  0  0  0  0  0  0  0  0  0  0  0
   -6.9397    1.9703   -0.1466 O   0  0  0  0  0  0  0  0  0  0  0  0
   -6.3120    8.5792   -1.1638 C   0  0  0  0  0  0  0  0  0  0  0  0
   -7.2883    9.0737   -1.1123 H   0  0  0  0  0  0  0  0  0  0  0  0
   -5.6215    9.1568   -0.5397 H   0  0  0  0  0  0  0  0  0  0  0  0
   -5.9593    8.6332   -2.1960 H   0  0  0  0  0  0  0  0  0  0  0  0
  1 11  1  0  0  0  0
  1  2  1  0  0  0  0
  2  3  1  0  0  0  0
  4  1  2  0  0  0  0
  5  6  2  0  0  0  0
  5  4  1  0  0  0  0
  6 10  1  0  0  0  0
  7  9  2  0  0  0  0
  7  6  1  0  0  0  0
  8  7  2  0  0  0  0
 10 14  1  0  0  0  0
 10 11  2  0  0  0  0
 11 15  1  0  0  0  0
 12 20  1  0  0  0  0
 13  5  1  0  0  0  0
 16 22  1  0  0  0  0
 17 16  1  0  0  0  0
 17 23  1  0  0  0  0
 18 17  1  0  0  0  0
 19 20  1  0  0  0  0
 19 18  2  0  0  0  0
 20 21  1  0  0  0  0
 21 26  1  0  0  0  0
 21 16  2  0  0  0  0
 24 19  1  0  0  0  0
 25 20  1  0  0  0  0
 26 28  2  0  0  0  0
 26 27  1  0  0  0  0
 29 26  2  0  0  0  0
 30 31  1  0  0  0  0
 30 18  1  0  0  0  0
 30 32  1  0  0  0  0
 33 30  1  0  0  0  0
M  RAD  5   2   2   3   3   4   2  17   2  27   2
M  END
