Coordinates from ORCA-job 4-NO2PhN2+~TsO-_B3LYPG-6-31G_dp-CH-Scan-d09-49-n800
 OpenBabel11261919023D

 33 33  0  0  0  0  0  0  0  0999 V2000
   -2.2572    1.1921   -0.2933 C   0  0  0  0  0  0  0  0  0  0  0  0
   -3.5147    0.7230    0.1426 N   0  0  0  0  0  0  0  0  0  0  0  0
   -4.5218    0.3842    0.4762 N   0  0  0  0  0  0  0  0  0  0  0  0
   -2.3092    2.3469   -1.0737 C   0  0  0  0  0  0  0  0  0  0  0  0
   -0.9984    2.7335   -1.4683 C   0  0  0  0  0  0  0  0  0  0  0  0
    0.1275    2.0067   -1.1043 C   0  0  0  0  0  0  0  0  0  0  0  0
    1.4651    2.4628   -1.5608 N   0  0  0  0  0  0  0  0  0  0  0  0
    1.5174    3.4687   -2.2636 O   0  0  0  0  0  0  0  0  0  0  0  0
    2.4426    1.8047   -1.2047 O   0  0  0  0  0  0  0  0  0  0  0  0
    0.0844    0.8434   -0.3102 C   0  0  0  0  0  0  0  0  0  0  0  0
   -1.1497    0.4083    0.1199 C   0  0  0  0  0  0  0  0  0  0  0  0
   -5.1733    4.2580   -1.0767 H   0  0  0  0  0  0  0  0  0  0  0  0
   -0.8441    3.6209   -2.0759 H   0  0  0  0  0  0  0  0  0  0  0  0
    1.0007    0.3277   -0.0578 H   0  0  0  0  0  0  0  0  0  0  0  0
   -1.2598   -0.4781    0.7382 H   0  0  0  0  0  0  0  0  0  0  0  0
   -6.9874    5.6032    1.1733 C   0  0  0  0  0  0  0  0  0  0  0  0
   -6.8824    6.8868    0.6485 C   0  0  0  0  0  0  0  0  0  0  0  0
   -6.4422    7.1731   -0.6837 C   0  0  0  0  0  0  0  0  0  0  0  0
   -6.1134    6.1104   -1.4788 C   0  0  0  0  0  0  0  0  0  0  0  0
   -6.1792    4.7194   -0.9939 C   0  0  0  0  0  0  0  0  0  0  0  0
   -6.6521    4.5125    0.3813 C   0  0  0  0  0  0  0  0  0  0  0  0
   -7.3524    5.4326    2.1803 H   0  0  0  0  0  0  0  0  0  0  0  0
   -7.1600    7.7284    1.2809 H   0  0  0  0  0  0  0  0  0  0  0  0
   -5.7728    6.2717   -2.4983 H   0  0  0  0  0  0  0  0  0  0  0  0
   -6.7480    4.0590   -1.6708 H   0  0  0  0  0  0  0  0  0  0  0  0
   -6.7282    2.8283    1.0433 S   0  0  0  0  0  0  0  0  0  0  0  0
   -7.8205    2.8789    2.0300 O   0  0  0  0  0  0  0  0  0  0  0  0
   -5.3507    2.7659    1.6102 O   0  0  0  0  0  0  0  0  0  0  0  0
   -6.9432    1.9878   -0.1523 O   0  0  0  0  0  0  0  0  0  0  0  0
   -6.3665    8.6048   -1.1519 C   0  0  0  0  0  0  0  0  0  0  0  0
   -7.3459    9.0920   -1.0894 H   0  0  0  0  0  0  0  0  0  0  0  0
   -5.6745    9.1845   -0.5317 H   0  0  0  0  0  0  0  0  0  0  0  0
   -6.0239    8.6659   -2.1871 H   0  0  0  0  0  0  0  0  0  0  0  0
  1 11  1  0  0  0  0
  1  2  1  0  0  0  0
  2  3  1  0  0  0  0
  4  1  2  0  0  0  0
  5  6  2  0  0  0  0
  5  4  1  0  0  0  0
  6 10  1  0  0  0  0
  7  9  2  0  0  0  0
  7  6  1  0  0  0  0
  8  7  2  0  0  0  0
 10 14  1  0  0  0  0
 10 11  2  0  0  0  0
 11 15  1  0  0  0  0
 12 20  1  0  0  0  0
 13  5  1  0  0  0  0
 16 22  1  0  0  0  0
 17 16  1  0  0  0  0
 17 23  1  0  0  0  0
 18 17  1  0  0  0  0
 19 20  1  0  0  0  0
 19 18  2  0  0  0  0
 20 21  1  0  0  0  0
 21 26  1  0  0  0  0
 21 16  2  0  0  0  0
 24 19  1  0  0  0  0
 25 20  1  0  0  0  0
 26 28  2  0  0  0  0
 26 27  1  0  0  0  0
 29 26  2  0  0  0  0
 30 31  1  0  0  0  0
 30 18  1  0  0  0  0
 30 32  1  0  0  0  0
 33 30  1  0  0  0  0
M  RAD  5   2   2   3   3   4   2  17   2  27   2
M  END
