Coordinates from ORCA-job 4-NO2PhN2+~TsO-_B3LYPG-6-31G_dp-CH-Scan-d09-49-n800
 OpenBabel11261919033D

 33 33  0  0  0  0  0  0  0  0999 V2000
   -2.8627    0.7443   -0.9766 C   0  0  0  0  0  0  0  0  0  0  0  0
   -3.9088   -0.1752   -0.7411 N   0  0  0  0  0  0  0  0  0  0  0  0
   -4.7159   -0.9363   -0.6444 N   0  0  0  0  0  0  0  0  0  0  0  0
   -2.2242    0.5079   -2.1933 C   0  0  0  0  0  0  0  0  0  0  0  0
   -1.1843    1.4652   -2.3855 C   0  0  0  0  0  0  0  0  0  0  0  0
   -0.8825    2.4248   -1.4281 C   0  0  0  0  0  0  0  0  0  0  0  0
    0.2096    3.3910   -1.6895 N   0  0  0  0  0  0  0  0  0  0  0  0
    0.9920    3.1419   -2.6026 O   0  0  0  0  0  0  0  0  0  0  0  0
    0.2534    4.4027   -0.9847 O   0  0  0  0  0  0  0  0  0  0  0  0
   -1.5855    2.5688   -0.2111 C   0  0  0  0  0  0  0  0  0  0  0  0
   -2.6292    1.7029    0.0420 C   0  0  0  0  0  0  0  0  0  0  0  0
   -4.0601    4.2142   -0.1696 H   0  0  0  0  0  0  0  0  0  0  0  0
   -0.5977    1.4657   -3.3008 H   0  0  0  0  0  0  0  0  0  0  0  0
   -1.2929    3.3373    0.4928 H   0  0  0  0  0  0  0  0  0  0  0  0
   -3.2318    1.7673    0.9444 H   0  0  0  0  0  0  0  0  0  0  0  0
   -6.7814    5.2825    1.1522 C   0  0  0  0  0  0  0  0  0  0  0  0
   -6.6157    6.5933    0.7123 C   0  0  0  0  0  0  0  0  0  0  0  0
   -5.6975    6.9865   -0.3131 C   0  0  0  0  0  0  0  0  0  0  0  0
   -4.9469    6.0011   -0.8929 C   0  0  0  0  0  0  0  0  0  0  0  0
   -5.0551    4.5876   -0.4823 C   0  0  0  0  0  0  0  0  0  0  0  0
   -6.0217    4.2716    0.5819 C   0  0  0  0  0  0  0  0  0  0  0  0
   -7.5043    5.0288    1.9208 H   0  0  0  0  0  0  0  0  0  0  0  0
   -7.2252    7.3713    1.1689 H   0  0  0  0  0  0  0  0  0  0  0  0
   -4.2352    6.2425   -1.6788 H   0  0  0  0  0  0  0  0  0  0  0  0
   -5.2535    3.9264   -1.3447 H   0  0  0  0  0  0  0  0  0  0  0  0
   -6.1499    2.5662    1.1816 S   0  0  0  0  0  0  0  0  0  0  0  0
   -7.4820    2.4894    1.7963 O   0  0  0  0  0  0  0  0  0  0  0  0
   -4.9932    2.5913    2.1211 O   0  0  0  0  0  0  0  0  0  0  0  0
   -5.9271    1.7542   -0.0368 O   0  0  0  0  0  0  0  0  0  0  0  0
   -5.5980    8.4378   -0.7105 C   0  0  0  0  0  0  0  0  0  0  0  0
   -6.5634    8.8154   -1.0643 H   0  0  0  0  0  0  0  0  0  0  0  0
   -5.2983    9.0578    0.1415 H   0  0  0  0  0  0  0  0  0  0  0  0
   -4.8649    8.5813   -1.5073 H   0  0  0  0  0  0  0  0  0  0  0  0
  1  2  1  0  0  0  0
  1 11  2  0  0  0  0
  2  3  1  0  0  0  0
  4  1  1  0  0  0  0
  5  4  2  0  0  0  0
  5  6  1  0  0  0  0
  6 10  2  0  0  0  0
  7  6  1  0  0  0  0
  7  9  2  0  0  0  0
  8  7  2  0  0  0  0
 10 11  1  0  0  0  0
 10 14  1  0  0  0  0
 11 15  1  0  0  0  0
 13  5  1  0  0  0  0
 16 22  1  0  0  0  0
 17 16  1  0  0  0  0
 17 23  1  0  0  0  0
 18 17  1  0  0  0  0
 19 20  1  0  0  0  0
 19 18  2  0  0  0  0
 20 12  1  0  0  0  0
 20 21  1  0  0  0  0
 21 16  2  0  0  0  0
 21 26  1  0  0  0  0
 24 19  1  0  0  0  0
 25 20  1  0  0  0  0
 26 27  2  0  0  0  0
 26 28  1  0  0  0  0
 29 26  2  0  0  0  0
 30 18  1  0  0  0  0
 30 32  1  0  0  0  0
 31 30  1  0  0  0  0
 33 30  1  0  0  0  0
M  RAD  5   2   2   3   3   4   2  17   2  28   2
M  END
