Coordinates from ORCA-job 4-NO2PhN2+~TsO-_B3LYPG-6-31G_dp-CH-Scan-d09-49-n800
 OpenBabel11261919023D

 33 33  0  0  0  0  0  0  0  0999 V2000
   -2.7746    1.0963   -0.2224 C   0  0  0  0  0  0  0  0  0  0  0  0
   -3.8709    0.2773    0.1908 N   0  0  0  0  0  0  0  0  0  0  0  0
   -4.9808    0.7094    0.4542 N   0  0  0  0  0  0  0  0  0  0  0  0
   -2.7031    1.7628   -1.4241 C   0  0  0  0  0  0  0  0  0  0  0  0
   -1.6452    2.4717   -1.9127 C   0  0  0  0  0  0  0  0  0  0  0  0
   -0.5190    2.4919   -1.0731 C   0  0  0  0  0  0  0  0  0  0  0  0
    0.6748    3.2333   -1.5191 N   0  0  0  0  0  0  0  0  0  0  0  0
    0.6133    3.8036   -2.6061 O   0  0  0  0  0  0  0  0  0  0  0  0
    1.6508    3.2328   -0.7719 O   0  0  0  0  0  0  0  0  0  0  0  0
   -0.4930    1.8303    0.1542 C   0  0  0  0  0  0  0  0  0  0  0  0
   -1.6135    1.1187    0.5739 C   0  0  0  0  0  0  0  0  0  0  0  0
   -4.9921    1.5446   -3.0865 H   0  0  0  0  0  0  0  0  0  0  0  0
   -1.6312    2.9856   -2.8657 H   0  0  0  0  0  0  0  0  0  0  0  0
    0.4046    1.8728    0.7576 H   0  0  0  0  0  0  0  0  0  0  0  0
   -1.6146    0.5835    1.5186 H   0  0  0  0  0  0  0  0  0  0  0  0
   -6.1232    5.2988    1.2712 C   0  0  0  0  0  0  0  0  0  0  0  0
   -5.9078    6.6327    0.9314 C   0  0  0  0  0  0  0  0  0  0  0  0
   -5.9329    7.0540   -0.4060 C   0  0  0  0  0  0  0  0  0  0  0  0
   -6.1791    6.1010   -1.4073 C   0  0  0  0  0  0  0  0  0  0  0  0
   -6.4000    4.7640   -1.0916 C   0  0  0  0  0  0  0  0  0  0  0  0
   -6.3657    4.3783    0.2511 C   0  0  0  0  0  0  0  0  0  0  0  0
   -6.1114    4.9717    2.3051 H   0  0  0  0  0  0  0  0  0  0  0  0
   -5.7180    7.3582    1.7173 H   0  0  0  0  0  0  0  0  0  0  0  0
   -6.2007    6.4123   -2.4482 H   0  0  0  0  0  0  0  0  0  0  0  0
   -6.5966    4.0300   -1.8653 H   0  0  0  0  0  0  0  0  0  0  0  0
   -6.6557    2.6766    0.6700 S   0  0  0  0  0  0  0  0  0  0  0  0
   -6.8892    2.5406    2.1018 O   0  0  0  0  0  0  0  0  0  0  0  0
   -5.0575    2.1572    0.3539 O   0  0  0  0  0  0  0  0  0  0  0  0
   -7.5223    2.0478   -0.3163 O   0  0  0  0  0  0  0  0  0  0  0  0
   -5.7287    8.5059   -0.7629 C   0  0  0  0  0  0  0  0  0  0  0  0
   -6.6924    9.0170   -0.8764 H   0  0  0  0  0  0  0  0  0  0  0  0
   -5.1669    9.0350    0.0119 H   0  0  0  0  0  0  0  0  0  0  0  0
   -5.1910    8.6122   -1.7097 H   0  0  0  0  0  0  0  0  0  0  0  0
  1  2  1  0  0  0  0
  1 11  2  0  0  0  0
  2  3  1  0  0  0  0
  4  1  1  0  0  0  0
  5  4  2  0  0  0  0
  5  6  1  0  0  0  0
  6 10  2  0  0  0  0
  7  6  1  0  0  0  0
  7  9  2  0  0  0  0
  8  7  2  0  0  0  0
 10 11  1  0  0  0  0
 10 14  1  0  0  0  0
 11 15  1  0  0  0  0
 13  5  1  0  0  0  0
 16 22  1  0  0  0  0
 17 16  1  0  0  0  0
 17 23  1  0  0  0  0
 18 17  2  0  0  0  0
 19 20  2  0  0  0  0
 19 18  1  0  0  0  0
 20 21  1  0  0  0  0
 21 26  1  0  0  0  0
 21 16  2  0  0  0  0
 24 19  1  0  0  0  0
 25 20  1  0  0  0  0
 26 27  2  0  0  0  0
 28  3  1  0  0  0  0
 28 26  1  0  0  0  0
 29 26  2  0  0  0  0
 30 18  1  0  0  0  0
 30 32  1  0  0  0  0
 31 30  1  0  0  0  0
 33 30  1  0  0  0  0
M  RAD  4   2   2   3   2   4   2  12   2
M  END
