Coordinates from ORCA-job 4-NO2PhN2+~TsO-_B3LYPG-6-31G_dp-CH-Scan-d09-49-n800
 OpenBabel11261919033D

 33 33  0  0  0  0  0  0  0  0999 V2000
   -2.8760    0.7625   -0.9700 C   0  0  0  0  0  0  0  0  0  0  0  0
   -3.9066   -0.1762   -0.7398 N   0  0  0  0  0  0  0  0  0  0  0  0
   -4.7014   -0.9508   -0.6484 N   0  0  0  0  0  0  0  0  0  0  0  0
   -2.2499    0.5582   -2.1988 C   0  0  0  0  0  0  0  0  0  0  0  0
   -1.2266    1.5353   -2.3844 C   0  0  0  0  0  0  0  0  0  0  0  0
   -0.9286    2.4825   -1.4137 C   0  0  0  0  0  0  0  0  0  0  0  0
    0.1429    3.4723   -1.6712 N   0  0  0  0  0  0  0  0  0  0  0  0
    0.9244    3.2485   -2.5915 O   0  0  0  0  0  0  0  0  0  0  0  0
    0.1726    4.4757   -0.9538 O   0  0  0  0  0  0  0  0  0  0  0  0
   -1.6186    2.5928   -0.1858 C   0  0  0  0  0  0  0  0  0  0  0  0
   -2.6449    1.7051    0.0637 C   0  0  0  0  0  0  0  0  0  0  0  0
   -4.0625    4.1549   -0.1927 H   0  0  0  0  0  0  0  0  0  0  0  0
   -0.6508    1.5617   -3.3063 H   0  0  0  0  0  0  0  0  0  0  0  0
   -1.3300    3.3530    0.5285 H   0  0  0  0  0  0  0  0  0  0  0  0
   -3.2383    1.7447    0.9735 H   0  0  0  0  0  0  0  0  0  0  0  0
   -6.7491    5.2746    1.1543 C   0  0  0  0  0  0  0  0  0  0  0  0
   -6.5648    6.5803    0.7074 C   0  0  0  0  0  0  0  0  0  0  0  0
   -5.6518    6.9531   -0.3302 C   0  0  0  0  0  0  0  0  0  0  0  0
   -4.9268    5.9519   -0.9155 C   0  0  0  0  0  0  0  0  0  0  0  0
   -5.0552    4.5428   -0.4973 C   0  0  0  0  0  0  0  0  0  0  0  0
   -6.0146    4.2478    0.5787 C   0  0  0  0  0  0  0  0  0  0  0  0
   -7.4680    5.0371    1.9318 H   0  0  0  0  0  0  0  0  0  0  0  0
   -7.1548    7.3708    1.1680 H   0  0  0  0  0  0  0  0  0  0  0  0
   -4.2203    6.1774   -1.7107 H   0  0  0  0  0  0  0  0  0  0  0  0
   -5.2712    3.8794   -1.3537 H   0  0  0  0  0  0  0  0  0  0  0  0
   -6.1659    2.5475    1.1881 S   0  0  0  0  0  0  0  0  0  0  0  0
   -7.5024    2.4908    1.7956 O   0  0  0  0  0  0  0  0  0  0  0  0
   -5.0149    2.5678    2.1347 O   0  0  0  0  0  0  0  0  0  0  0  0
   -5.9452    1.7242   -0.0227 O   0  0  0  0  0  0  0  0  0  0  0  0
   -5.5300    8.4009   -0.7341 C   0  0  0  0  0  0  0  0  0  0  0  0
   -6.4931    8.7966   -1.0741 H   0  0  0  0  0  0  0  0  0  0  0  0
   -5.2044    9.0174    0.1109 H   0  0  0  0  0  0  0  0  0  0  0  0
   -4.8067    8.5272   -1.5427 H   0  0  0  0  0  0  0  0  0  0  0  0
  1  2  1  0  0  0  0
  1 11  2  0  0  0  0
  2  3  1  0  0  0  0
  4  1  1  0  0  0  0
  5  4  2  0  0  0  0
  5  6  1  0  0  0  0
  6 10  2  0  0  0  0
  7  6  1  0  0  0  0
  7  9  2  0  0  0  0
  8  7  2  0  0  0  0
 10 11  1  0  0  0  0
 10 14  1  0  0  0  0
 11 15  1  0  0  0  0
 13  5  1  0  0  0  0
 16 22  1  0  0  0  0
 17 16  1  0  0  0  0
 17 23  1  0  0  0  0
 18 17  1  0  0  0  0
 19 20  1  0  0  0  0
 19 18  2  0  0  0  0
 20 12  1  0  0  0  0
 20 21  1  0  0  0  0
 21 16  2  0  0  0  0
 21 26  1  0  0  0  0
 24 19  1  0  0  0  0
 25 20  1  0  0  0  0
 26 27  2  0  0  0  0
 26 28  1  0  0  0  0
 29 26  2  0  0  0  0
 30 18  1  0  0  0  0
 30 32  1  0  0  0  0
 31 30  1  0  0  0  0
 33 30  1  0  0  0  0
M  RAD  5   2   2   3   3   4   2  17   2  28   2
M  END
