Coordinates from ORCA-job 4-NO2PhN2+~TsO-_B3LYPG-6-31G_dp-CH-Scan-d09-49-n800
 OpenBabel11261919023D

 33 33  0  0  0  0  0  0  0  0999 V2000
   -2.8072    1.0742   -0.2799 C   0  0  0  0  0  0  0  0  0  0  0  0
   -3.9050    0.2598    0.1364 N   0  0  0  0  0  0  0  0  0  0  0  0
   -5.0174    0.6889    0.3752 N   0  0  0  0  0  0  0  0  0  0  0  0
   -2.6381    1.4670   -1.5955 C   0  0  0  0  0  0  0  0  0  0  0  0
   -1.5508    2.1586   -2.0691 C   0  0  0  0  0  0  0  0  0  0  0  0
   -0.5599    2.4600   -1.1266 C   0  0  0  0  0  0  0  0  0  0  0  0
    0.6317    3.2021   -1.5701 N   0  0  0  0  0  0  0  0  0  0  0  0
    0.6895    3.5266   -2.7547 O   0  0  0  0  0  0  0  0  0  0  0  0
    1.4883    3.4561   -0.7249 O   0  0  0  0  0  0  0  0  0  0  0  0
   -0.6629    2.0783    0.2105 C   0  0  0  0  0  0  0  0  0  0  0  0
   -1.7849    1.3716    0.6346 C   0  0  0  0  0  0  0  0  0  0  0  0
   -4.1197    0.9619   -2.8665 H   0  0  0  0  0  0  0  0  0  0  0  0
   -1.4381    2.4653   -3.1002 H   0  0  0  0  0  0  0  0  0  0  0  0
    0.1351    2.3328    0.8963 H   0  0  0  0  0  0  0  0  0  0  0  0
   -1.8830    1.0518    1.6667 H   0  0  0  0  0  0  0  0  0  0  0  0
   -5.9812    5.2403    1.2508 C   0  0  0  0  0  0  0  0  0  0  0  0
   -5.7565    6.5850    0.9660 C   0  0  0  0  0  0  0  0  0  0  0  0
   -5.9255    7.0905   -0.3316 C   0  0  0  0  0  0  0  0  0  0  0  0
   -6.3283    6.2110   -1.3488 C   0  0  0  0  0  0  0  0  0  0  0  0
   -6.5591    4.8636   -1.0869 C   0  0  0  0  0  0  0  0  0  0  0  0
   -6.3776    4.3923    0.2153 C   0  0  0  0  0  0  0  0  0  0  0  0
   -5.8606    4.8508    2.2555 H   0  0  0  0  0  0  0  0  0  0  0  0
   -5.4471    7.2540    1.7639 H   0  0  0  0  0  0  0  0  0  0  0  0
   -6.4665    6.5881   -2.3582 H   0  0  0  0  0  0  0  0  0  0  0  0
   -6.8814    4.1862   -1.8696 H   0  0  0  0  0  0  0  0  0  0  0  0
   -6.6756    2.6753    0.5652 S   0  0  0  0  0  0  0  0  0  0  0  0
   -6.8936    2.4825    1.9934 O   0  0  0  0  0  0  0  0  0  0  0  0
   -5.0969    2.1503    0.2088 O   0  0  0  0  0  0  0  0  0  0  0  0
   -7.5686    2.1037   -0.4342 O   0  0  0  0  0  0  0  0  0  0  0  0
   -5.7095    8.5552   -0.6235 C   0  0  0  0  0  0  0  0  0  0  0  0
   -6.6556    9.1070   -0.5639 H   0  0  0  0  0  0  0  0  0  0  0  0
   -5.0195    9.0097    0.0929 H   0  0  0  0  0  0  0  0  0  0  0  0
   -5.3083    8.7074   -1.6297 H   0  0  0  0  0  0  0  0  0  0  0  0
  1  2  1  0  0  0  0
  1 11  2  0  0  0  0
  2  3  1  0  0  0  0
  4  1  1  0  0  0  0
  5  4  2  0  0  0  0
  5  6  1  0  0  0  0
  6 10  2  0  0  0  0
  7  6  1  0  0  0  0
  7  9  2  0  0  0  0
  8  7  2  0  0  0  0
 10 11  1  0  0  0  0
 10 14  1  0  0  0  0
 11 15  1  0  0  0  0
 13  5  1  0  0  0  0
 16 22  1  0  0  0  0
 17 16  1  0  0  0  0
 17 23  1  0  0  0  0
 18 17  2  0  0  0  0
 19 20  2  0  0  0  0
 19 18  1  0  0  0  0
 20 21  1  0  0  0  0
 21 26  1  0  0  0  0
 21 16  2  0  0  0  0
 24 19  1  0  0  0  0
 25 20  1  0  0  0  0
 26 27  2  0  0  0  0
 28  3  1  0  0  0  0
 28 26  1  0  0  0  0
 29 26  2  0  0  0  0
 30 31  1  0  0  0  0
 30 18  1  0  0  0  0
 30 32  1  0  0  0  0
 33 30  1  0  0  0  0
M  RAD  4   2   2   3   2   4   2  12   2
M  END
