Coordinates from ORCA-job 4-NO2PhN2+~TsO-_B3LYPG-6-31G_dp-CH-Scan-d09-49-n800
 OpenBabel11261919023D

 33 33  0  0  0  0  0  0  0  0999 V2000
   -2.7462    1.1614   -0.9120 C   0  0  0  0  0  0  0  0  0  0  0  0
   -3.9648    0.4448   -0.8217 N   0  0  0  0  0  0  0  0  0  0  0  0
   -4.9088   -0.1440   -0.8651 N   0  0  0  0  0  0  0  0  0  0  0  0
   -2.3975    1.4412   -2.2305 C   0  0  0  0  0  0  0  0  0  0  0  0
   -1.1537    2.1282   -2.2757 C   0  0  0  0  0  0  0  0  0  0  0  0
   -0.4374    2.4186   -1.1205 C   0  0  0  0  0  0  0  0  0  0  0  0
    0.8606    3.1308   -1.2338 N   0  0  0  0  0  0  0  0  0  0  0  0
    1.2648    3.4099   -2.3602 O   0  0  0  0  0  0  0  0  0  0  0  0
    1.4538    3.4066   -0.1906 O   0  0  0  0  0  0  0  0  0  0  0  0
   -0.8796    2.0963    0.1792 C   0  0  0  0  0  0  0  0  0  0  0  0
   -2.0892    1.4479    0.3080 C   0  0  0  0  0  0  0  0  0  0  0  0
   -4.9823    3.9068   -1.1620 H   0  0  0  0  0  0  0  0  0  0  0  0
   -0.7285    2.4447   -3.2242 H   0  0  0  0  0  0  0  0  0  0  0  0
   -0.2785    2.3712    1.0353 H   0  0  0  0  0  0  0  0  0  0  0  0
   -2.5258    1.2072    1.2704 H   0  0  0  0  0  0  0  0  0  0  0  0
   -6.4049    5.3227    1.3508 C   0  0  0  0  0  0  0  0  0  0  0  0
   -6.2834    6.6150    0.8437 C   0  0  0  0  0  0  0  0  0  0  0  0
   -5.9738    6.9142   -0.5215 C   0  0  0  0  0  0  0  0  0  0  0  0
   -5.7985    5.8571   -1.3714 C   0  0  0  0  0  0  0  0  0  0  0  0
   -5.9101    4.4561   -0.9172 C   0  0  0  0  0  0  0  0  0  0  0  0
   -6.2189    4.2390    0.5070 C   0  0  0  0  0  0  0  0  0  0  0  0
   -6.6561    5.1415    2.3906 H   0  0  0  0  0  0  0  0  0  0  0  0
   -6.4378    7.4526    1.5219 H   0  0  0  0  0  0  0  0  0  0  0  0
   -5.5643    6.0276   -2.4192 H   0  0  0  0  0  0  0  0  0  0  0  0
   -6.6490    3.8962   -1.5185 H   0  0  0  0  0  0  0  0  0  0  0  0
   -6.3098    2.5404    1.1339 S   0  0  0  0  0  0  0  0  0  0  0  0
   -7.0203    2.6572    2.4155 O   0  0  0  0  0  0  0  0  0  0  0  0
   -4.8465    2.2611    1.2269 O   0  0  0  0  0  0  0  0  0  0  0  0
   -6.9948    1.8168    0.0422 O   0  0  0  0  0  0  0  0  0  0  0  0
   -5.8597    8.3516   -0.9631 C   0  0  0  0  0  0  0  0  0  0  0  0
   -6.7983    8.8910   -0.7937 H   0  0  0  0  0  0  0  0  0  0  0  0
   -5.0779    8.8736   -0.4012 H   0  0  0  0  0  0  0  0  0  0  0  0
   -5.6165    8.4223   -2.0256 H   0  0  0  0  0  0  0  0  0  0  0  0
  1  2  1  0  0  0  0
  1 11  2  0  0  0  0
  3  2  1  0  0  0  0
  4  1  1  0  0  0  0
  5  4  2  0  0  0  0
  5  6  1  0  0  0  0
  6 10  2  0  0  0  0
  7  6  1  0  0  0  0
  7  9  2  0  0  0  0
  8  7  2  0  0  0  0
 10 11  1  0  0  0  0
 10 14  1  0  0  0  0
 11 15  1  0  0  0  0
 12 20  1  0  0  0  0
 13  5  1  0  0  0  0
 16 22  1  0  0  0  0
 17 16  1  0  0  0  0
 17 23  1  0  0  0  0
 18 17  1  0  0  0  0
 19 20  1  0  0  0  0
 19 18  2  0  0  0  0
 20 21  1  0  0  0  0
 21 26  1  0  0  0  0
 21 16  2  0  0  0  0
 24 19  1  0  0  0  0
 25 20  1  0  0  0  0
 26 28  2  0  0  0  0
 26 27  1  0  0  0  0
 29 26  2  0  0  0  0
 30 31  1  0  0  0  0
 30 18  1  0  0  0  0
 30 32  1  0  0  0  0
 33 30  1  0  0  0  0
M  RAD  5   2   2   3   3   4   2  17   2  27   2
M  END
