Coordinates from ORCA-job 4-NO2PhN2+~TsO-_B3LYPG-6-31G_dp-CH-Scan-d09-49-n800
 OpenBabel11261919023D

 33 33  0  0  0  0  0  0  0  0999 V2000
   -2.7809    1.0892   -0.2428 C   0  0  0  0  0  0  0  0  0  0  0  0
   -3.8809    0.2692    0.1601 N   0  0  0  0  0  0  0  0  0  0  0  0
   -4.9935    0.7023    0.4053 N   0  0  0  0  0  0  0  0  0  0  0  0
   -2.6603    1.6637   -1.4876 C   0  0  0  0  0  0  0  0  0  0  0  0
   -1.5947    2.3686   -1.9670 C   0  0  0  0  0  0  0  0  0  0  0  0
   -0.5210    2.4882   -1.0698 C   0  0  0  0  0  0  0  0  0  0  0  0
    0.6755    3.2323   -1.5028 N   0  0  0  0  0  0  0  0  0  0  0  0
    0.6649    3.7128   -2.6341 O   0  0  0  0  0  0  0  0  0  0  0  0
    1.6034    3.3239   -0.7016 O   0  0  0  0  0  0  0  0  0  0  0  0
   -0.5490    1.9235    0.2051 C   0  0  0  0  0  0  0  0  0  0  0  0
   -1.6721    1.2106    0.6157 C   0  0  0  0  0  0  0  0  0  0  0  0
   -4.8218    1.2672   -3.1613 H   0  0  0  0  0  0  0  0  0  0  0  0
   -1.5405    2.8113   -2.9536 H   0  0  0  0  0  0  0  0  0  0  0  0
    0.3097    2.0423    0.8535 H   0  0  0  0  0  0  0  0  0  0  0  0
   -1.7136    0.7506    1.5982 H   0  0  0  0  0  0  0  0  0  0  0  0
   -6.0264    5.2711    1.2571 C   0  0  0  0  0  0  0  0  0  0  0  0
   -5.8096    6.6089    0.9351 C   0  0  0  0  0  0  0  0  0  0  0  0
   -5.9319    7.0668   -0.3851 C   0  0  0  0  0  0  0  0  0  0  0  0
   -6.2785    6.1466   -1.3871 C   0  0  0  0  0  0  0  0  0  0  0  0
   -6.5012    4.8057   -1.0887 C   0  0  0  0  0  0  0  0  0  0  0  0
   -6.3681    4.3830    0.2363 C   0  0  0  0  0  0  0  0  0  0  0  0
   -5.9408    4.9171    2.2785 H   0  0  0  0  0  0  0  0  0  0  0  0
   -5.5429    7.3095    1.7212 H   0  0  0  0  0  0  0  0  0  0  0  0
   -6.3785    6.4866   -2.4141 H   0  0  0  0  0  0  0  0  0  0  0  0
   -6.7780    4.0967   -1.8608 H   0  0  0  0  0  0  0  0  0  0  0  0
   -6.6578    2.6757    0.6326 S   0  0  0  0  0  0  0  0  0  0  0  0
   -6.8632    2.5169    2.0665 O   0  0  0  0  0  0  0  0  0  0  0  0
   -5.0700    2.1516    0.2799 O   0  0  0  0  0  0  0  0  0  0  0  0
   -7.5490    2.0701   -0.3467 O   0  0  0  0  0  0  0  0  0  0  0  0
   -5.7252    8.5237   -0.7196 C   0  0  0  0  0  0  0  0  0  0  0  0
   -6.6835    9.0565   -0.7430 H   0  0  0  0  0  0  0  0  0  0  0  0
   -5.0924    9.0200    0.0214 H   0  0  0  0  0  0  0  0  0  0  0  0
   -5.2618    8.6456   -1.7031 H   0  0  0  0  0  0  0  0  0  0  0  0
  1  2  1  0  0  0  0
  1 11  2  0  0  0  0
  2  3  1  0  0  0  0
  4  1  1  0  0  0  0
  5  4  2  0  0  0  0
  5  6  1  0  0  0  0
  6 10  2  0  0  0  0
  7  6  1  0  0  0  0
  7  9  2  0  0  0  0
  8  7  2  0  0  0  0
 10 11  1  0  0  0  0
 10 14  1  0  0  0  0
 11 15  1  0  0  0  0
 13  5  1  0  0  0  0
 16 22  1  0  0  0  0
 17 16  1  0  0  0  0
 17 23  1  0  0  0  0
 18 17  2  0  0  0  0
 19 20  2  0  0  0  0
 19 18  1  0  0  0  0
 20 21  1  0  0  0  0
 21 26  1  0  0  0  0
 21 16  2  0  0  0  0
 24 19  1  0  0  0  0
 25 20  1  0  0  0  0
 26 27  2  0  0  0  0
 28  3  1  0  0  0  0
 28 26  1  0  0  0  0
 29 26  2  0  0  0  0
 30 18  1  0  0  0  0
 30 32  1  0  0  0  0
 31 30  1  0  0  0  0
 33 30  1  0  0  0  0
M  RAD  4   2   2   3   2   4   2  12   2
M  END
