Coordinates from ORCA-job 4-NO2PhN2+~TsO-_B3LYPG-6-31G_dp-CH-Scan-d09-49-n800
 OpenBabel11261919023D

 33 33  0  0  0  0  0  0  0  0999 V2000
   -2.8080    1.0759   -0.2834 C   0  0  0  0  0  0  0  0  0  0  0  0
   -3.9061    0.2572    0.1248 N   0  0  0  0  0  0  0  0  0  0  0  0
   -5.0177    0.6881    0.3674 N   0  0  0  0  0  0  0  0  0  0  0  0
   -2.6268    1.4782   -1.5918 C   0  0  0  0  0  0  0  0  0  0  0  0
   -1.5455    2.1736   -2.0661 C   0  0  0  0  0  0  0  0  0  0  0  0
   -0.5578    2.4713   -1.1175 C   0  0  0  0  0  0  0  0  0  0  0  0
    0.6347    3.2171   -1.5539 N   0  0  0  0  0  0  0  0  0  0  0  0
    0.6969    3.5447   -2.7373 O   0  0  0  0  0  0  0  0  0  0  0  0
    1.4889    3.4658   -0.7049 O   0  0  0  0  0  0  0  0  0  0  0  0
   -0.6654    2.0825    0.2173 C   0  0  0  0  0  0  0  0  0  0  0  0
   -1.7877    1.3725    0.6352 C   0  0  0  0  0  0  0  0  0  0  0  0
   -4.2338    0.9252   -2.9757 H   0  0  0  0  0  0  0  0  0  0  0  0
   -1.4310    2.4853   -3.0956 H   0  0  0  0  0  0  0  0  0  0  0  0
    0.1298    2.3349    0.9070 H   0  0  0  0  0  0  0  0  0  0  0  0
   -1.8890    1.0485    1.6659 H   0  0  0  0  0  0  0  0  0  0  0  0
   -5.9749    5.2415    1.2550 C   0  0  0  0  0  0  0  0  0  0  0  0
   -5.7499    6.5850    0.9649 C   0  0  0  0  0  0  0  0  0  0  0  0
   -5.9199    7.0857   -0.3344 C   0  0  0  0  0  0  0  0  0  0  0  0
   -6.3243    6.2026   -1.3480 C   0  0  0  0  0  0  0  0  0  0  0  0
   -6.5556    4.8564   -1.0809 C   0  0  0  0  0  0  0  0  0  0  0  0
   -6.3729    4.3900    0.2231 C   0  0  0  0  0  0  0  0  0  0  0  0
   -5.8532    4.8555    2.2609 H   0  0  0  0  0  0  0  0  0  0  0  0
   -5.4393    7.2569    1.7599 H   0  0  0  0  0  0  0  0  0  0  0  0
   -6.4632    6.5760   -2.3587 H   0  0  0  0  0  0  0  0  0  0  0  0
   -6.8786    4.1762   -1.8609 H   0  0  0  0  0  0  0  0  0  0  0  0
   -6.6716    2.6747    0.5796 S   0  0  0  0  0  0  0  0  0  0  0  0
   -6.8774    2.4851    2.0099 O   0  0  0  0  0  0  0  0  0  0  0  0
   -5.0942    2.1466    0.2123 O   0  0  0  0  0  0  0  0  0  0  0  0
   -7.5723    2.1012   -0.4114 O   0  0  0  0  0  0  0  0  0  0  0  0
   -5.7034    8.5491   -0.6324 C   0  0  0  0  0  0  0  0  0  0  0  0
   -6.6511    9.0993   -0.5869 H   0  0  0  0  0  0  0  0  0  0  0  0
   -5.0224    9.0091    0.0891 H   0  0  0  0  0  0  0  0  0  0  0  0
   -5.2910    8.6960   -1.6349 H   0  0  0  0  0  0  0  0  0  0  0  0
  1  2  1  0  0  0  0
  1 11  2  0  0  0  0
  2  3  1  0  0  0  0
  4  1  1  0  0  0  0
  5  4  2  0  0  0  0
  5  6  1  0  0  0  0
  6 10  2  0  0  0  0
  7  6  1  0  0  0  0
  7  9  2  0  0  0  0
  8  7  2  0  0  0  0
 10 11  1  0  0  0  0
 10 14  1  0  0  0  0
 11 15  1  0  0  0  0
 13  5  1  0  0  0  0
 16 22  1  0  0  0  0
 17 16  1  0  0  0  0
 17 23  1  0  0  0  0
 18 17  2  0  0  0  0
 19 20  2  0  0  0  0
 19 18  1  0  0  0  0
 20 21  1  0  0  0  0
 21 26  1  0  0  0  0
 21 16  2  0  0  0  0
 24 19  1  0  0  0  0
 25 20  1  0  0  0  0
 26 27  2  0  0  0  0
 28  3  1  0  0  0  0
 28 26  1  0  0  0  0
 29 26  2  0  0  0  0
 30 31  1  0  0  0  0
 30 18  1  0  0  0  0
 30 32  1  0  0  0  0
 33 30  1  0  0  0  0
M  RAD  4   2   2   3   2   4   2  12   2
M  END
