Coordinates from ORCA-job 4-NO2PhN2+~TsO-_B3LYPG-6-31G_dp-CH-Scan-d09-49-n800
 OpenBabel11261919023D

 33 34  0  0  0  0  0  0  0  0999 V2000
   -2.7607    1.0917   -0.1890 C   0  0  0  0  0  0  0  0  0  0  0  0
   -3.8560    0.3180    0.2998 N   0  0  0  0  0  0  0  0  0  0  0  0
   -4.9812    0.7287    0.4905 N   0  0  0  0  0  0  0  0  0  0  0  0
   -2.7195    1.5485   -1.5058 C   0  0  0  0  0  0  0  0  0  0  0  0
   -1.6060    2.1968   -2.0083 C   0  0  0  0  0  0  0  0  0  0  0  0
   -0.5202    2.3841   -1.1499 C   0  0  0  0  0  0  0  0  0  0  0  0
    0.6723    3.0808   -1.6586 N   0  0  0  0  0  0  0  0  0  0  0  0
    0.6485    3.4687   -2.8257 O   0  0  0  0  0  0  0  0  0  0  0  0
    1.6160    3.2317   -0.8843 O   0  0  0  0  0  0  0  0  0  0  0  0
   -0.5250    1.9280    0.1671 C   0  0  0  0  0  0  0  0  0  0  0  0
   -1.6477    1.2589    0.6448 C   0  0  0  0  0  0  0  0  0  0  0  0
   -3.8901    1.3208   -2.3666 H   0  0  0  0  0  0  0  0  0  0  0  0
   -1.5565    2.5595   -3.0261 H   0  0  0  0  0  0  0  0  0  0  0  0
    0.3456    2.0906    0.7897 H   0  0  0  0  0  0  0  0  0  0  0  0
   -1.6756    0.8723    1.6573 H   0  0  0  0  0  0  0  0  0  0  0  0
   -6.0640    5.2486    1.2118 C   0  0  0  0  0  0  0  0  0  0  0  0
   -5.8514    6.6003    0.9541 C   0  0  0  0  0  0  0  0  0  0  0  0
   -5.9918    7.1238   -0.3401 C   0  0  0  0  0  0  0  0  0  0  0  0
   -6.3532    6.2548   -1.3809 C   0  0  0  0  0  0  0  0  0  0  0  0
   -6.5704    4.8997   -1.1456 C   0  0  0  0  0  0  0  0  0  0  0  0
   -6.4181    4.4103    0.1530 C   0  0  0  0  0  0  0  0  0  0  0  0
   -5.9667    4.8459    2.2140 H   0  0  0  0  0  0  0  0  0  0  0  0
   -5.5742    7.2610    1.7705 H   0  0  0  0  0  0  0  0  0  0  0  0
   -6.4698    6.6457   -2.3878 H   0  0  0  0  0  0  0  0  0  0  0  0
   -6.8624    4.2298   -1.9466 H   0  0  0  0  0  0  0  0  0  0  0  0
   -6.6986    2.6828    0.4701 S   0  0  0  0  0  0  0  0  0  0  0  0
   -7.0111    2.4760    1.8788 O   0  0  0  0  0  0  0  0  0  0  0  0
   -5.1009    2.1932    0.2103 O   0  0  0  0  0  0  0  0  0  0  0  0
   -7.5171    2.1054   -0.5898 O   0  0  0  0  0  0  0  0  0  0  0  0
   -5.7903    8.5964   -0.6015 C   0  0  0  0  0  0  0  0  0  0  0  0
   -6.7355    9.1431   -0.4960 H   0  0  0  0  0  0  0  0  0  0  0  0
   -5.0792    9.0353    0.1042 H   0  0  0  0  0  0  0  0  0  0  0  0
   -5.4227    8.7766   -1.6155 H   0  0  0  0  0  0  0  0  0  0  0  0
  1  2  1  0  0  0  0
  1 11  2  0  0  0  0
  2  3  1  0  0  0  0
  4  1  1  0  0  0  0
  5  4  2  0  0  0  0
  5  6  1  0  0  0  0
  6 10  2  0  0  0  0
  7  6  1  0  0  0  0
  7  9  2  0  0  0  0
  8  7  2  0  0  0  0
 10 11  1  0  0  0  0
 10 14  1  0  0  0  0
 11 15  1  0  0  0  0
 12  4  1  0  0  0  0
 13  5  1  0  0  0  0
 16 22  1  0  0  0  0
 17 16  1  0  0  0  0
 17 23  1  0  0  0  0
 18 17  2  0  0  0  0
 19 20  2  0  0  0  0
 19 18  1  0  0  0  0
 20 21  1  0  0  0  0
 21 26  1  0  0  0  0
 21 16  2  0  0  0  0
 24 19  1  0  0  0  0
 25 20  1  0  0  0  0
 26 27  2  0  0  0  0
 28 26  1  0  0  0  0
 28  3  1  0  0  0  0
 29 26  2  0  0  0  0
 30 31  1  0  0  0  0
 30 18  1  0  0  0  0
 30 32  1  0  0  0  0
 33 30  1  0  0  0  0
M  RAD  2   2   2   3   2
M  END
