Coordinates from ORCA-job 4-NO2PhN2+~TsO-_B3LYPG-6-31G_dp-CH-Scan-d09-49-n800
 OpenBabel11261919023D

 33 33  0  0  0  0  0  0  0  0999 V2000
   -2.7769    1.0851   -0.2130 C   0  0  0  0  0  0  0  0  0  0  0  0
   -3.8706    0.2977    0.2591 N   0  0  0  0  0  0  0  0  0  0  0  0
   -4.9930    0.7133    0.4607 N   0  0  0  0  0  0  0  0  0  0  0  0
   -2.7018    1.5071   -1.5374 C   0  0  0  0  0  0  0  0  0  0  0  0
   -1.5968    2.1713   -2.0325 C   0  0  0  0  0  0  0  0  0  0  0  0
   -0.5415    2.4103   -1.1483 C   0  0  0  0  0  0  0  0  0  0  0  0
    0.6472    3.1238   -1.6422 N   0  0  0  0  0  0  0  0  0  0  0  0
    0.6478    3.4783   -2.8200 O   0  0  0  0  0  0  0  0  0  0  0  0
    1.5633    3.3212   -0.8455 O   0  0  0  0  0  0  0  0  0  0  0  0
   -0.5743    1.9909    0.1805 C   0  0  0  0  0  0  0  0  0  0  0  0
   -1.6934    1.3077    0.6469 C   0  0  0  0  0  0  0  0  0  0  0  0
   -3.9192    1.2002   -2.4815 H   0  0  0  0  0  0  0  0  0  0  0  0
   -1.5289    2.5065   -3.0586 H   0  0  0  0  0  0  0  0  0  0  0  0
    0.2731    2.1942    0.8230 H   0  0  0  0  0  0  0  0  0  0  0  0
   -1.7408    0.9518    1.6701 H   0  0  0  0  0  0  0  0  0  0  0  0
   -6.0412    5.2404    1.2224 C   0  0  0  0  0  0  0  0  0  0  0  0
   -5.8214    6.5903    0.9607 C   0  0  0  0  0  0  0  0  0  0  0  0
   -5.9651    7.1121   -0.3338 C   0  0  0  0  0  0  0  0  0  0  0  0
   -6.3374    6.2432   -1.3710 C   0  0  0  0  0  0  0  0  0  0  0  0
   -6.5621    4.8902   -1.1320 C   0  0  0  0  0  0  0  0  0  0  0  0
   -6.4062    4.4025    0.1670 C   0  0  0  0  0  0  0  0  0  0  0  0
   -5.9409    4.8389    2.2247 H   0  0  0  0  0  0  0  0  0  0  0  0
   -5.5357    7.2508    1.7744 H   0  0  0  0  0  0  0  0  0  0  0  0
   -6.4566    6.6329   -2.3781 H   0  0  0  0  0  0  0  0  0  0  0  0
   -6.8621    4.2206   -1.9302 H   0  0  0  0  0  0  0  0  0  0  0  0
   -6.6956    2.6776    0.4886 S   0  0  0  0  0  0  0  0  0  0  0  0
   -6.9882    2.4725    1.9017 O   0  0  0  0  0  0  0  0  0  0  0  0
   -5.1021    2.1768    0.2072 O   0  0  0  0  0  0  0  0  0  0  0  0
   -7.5317    2.1048   -0.5596 O   0  0  0  0  0  0  0  0  0  0  0  0
   -5.7554    8.5826   -0.5995 C   0  0  0  0  0  0  0  0  0  0  0  0
   -6.6990    9.1337   -0.5033 H   0  0  0  0  0  0  0  0  0  0  0  0
   -5.0473    9.0213    0.1093 H   0  0  0  0  0  0  0  0  0  0  0  0
   -5.3797    8.7570   -1.6118 H   0  0  0  0  0  0  0  0  0  0  0  0
  1  2  1  0  0  0  0
  1 11  2  0  0  0  0
  2  3  1  0  0  0  0
  4  1  1  0  0  0  0
  5  4  2  0  0  0  0
  5  6  1  0  0  0  0
  6 10  2  0  0  0  0
  7  6  1  0  0  0  0
  7  9  2  0  0  0  0
  8  7  2  0  0  0  0
 10 11  1  0  0  0  0
 10 14  1  0  0  0  0
 11 15  1  0  0  0  0
 13  5  1  0  0  0  0
 16 22  1  0  0  0  0
 17 16  1  0  0  0  0
 17 23  1  0  0  0  0
 18 17  2  0  0  0  0
 19 20  2  0  0  0  0
 19 18  1  0  0  0  0
 20 21  1  0  0  0  0
 21 26  1  0  0  0  0
 21 16  2  0  0  0  0
 24 19  1  0  0  0  0
 25 20  1  0  0  0  0
 26 27  2  0  0  0  0
 28  3  1  0  0  0  0
 28 26  1  0  0  0  0
 29 26  2  0  0  0  0
 30 31  1  0  0  0  0
 30 18  1  0  0  0  0
 30 32  1  0  0  0  0
 33 30  1  0  0  0  0
M  RAD  4   2   2   3   2   4   2  12   2
M  END
