Coordinates from ORCA-job 4-NO2PhN2+~TsO-_B3LYPG-6-31G_dp-CH-Scan-d09-49-n800
 OpenBabel11261919023D

 33 33  0  0  0  0  0  0  0  0999 V2000
   -2.7411    1.0988   -0.1690 C   0  0  0  0  0  0  0  0  0  0  0  0
   -3.8415    0.2926    0.2565 N   0  0  0  0  0  0  0  0  0  0  0  0
   -4.9524    0.7301    0.5158 N   0  0  0  0  0  0  0  0  0  0  0  0
   -2.7255    1.9392   -1.2570 C   0  0  0  0  0  0  0  0  0  0  0  0
   -1.6692    2.6539   -1.7371 C   0  0  0  0  0  0  0  0  0  0  0  0
   -0.4731    2.4765   -1.0208 C   0  0  0  0  0  0  0  0  0  0  0  0
    0.7273    3.2085   -1.4692 N   0  0  0  0  0  0  0  0  0  0  0  0
    0.6097    3.9433   -2.4469 O   0  0  0  0  0  0  0  0  0  0  0  0
    1.7633    3.0346   -0.8313 O   0  0  0  0  0  0  0  0  0  0  0  0
   -0.3838    1.6276    0.0821 C   0  0  0  0  0  0  0  0  0  0  0  0
   -1.5111    0.9249    0.4967 C   0  0  0  0  0  0  0  0  0  0  0  0
   -5.2895    2.1286   -3.0906 H   0  0  0  0  0  0  0  0  0  0  0  0
   -1.7009    3.3079   -2.6005 H   0  0  0  0  0  0  0  0  0  0  0  0
    0.5653    1.5203    0.5911 H   0  0  0  0  0  0  0  0  0  0  0  0
   -1.4701    0.2452    1.3431 H   0  0  0  0  0  0  0  0  0  0  0  0
   -6.1631    5.3302    1.2534 C   0  0  0  0  0  0  0  0  0  0  0  0
   -5.9667    6.6581    0.8803 C   0  0  0  0  0  0  0  0  0  0  0  0
   -5.9743    7.0414   -0.4689 C   0  0  0  0  0  0  0  0  0  0  0  0
   -6.1817    6.0561   -1.4472 C   0  0  0  0  0  0  0  0  0  0  0  0
   -6.3840    4.7242   -1.0986 C   0  0  0  0  0  0  0  0  0  0  0  0
   -6.3685    4.3773    0.2550 C   0  0  0  0  0  0  0  0  0  0  0  0
   -6.1646    5.0320    2.2961 H   0  0  0  0  0  0  0  0  0  0  0  0
   -5.8058    7.4087    1.6490 H   0  0  0  0  0  0  0  0  0  0  0  0
   -6.1872    6.3373   -2.4969 H   0  0  0  0  0  0  0  0  0  0  0  0
   -6.5460    3.9652   -1.8570 H   0  0  0  0  0  0  0  0  0  0  0  0
   -6.6411    2.6844    0.7175 S   0  0  0  0  0  0  0  0  0  0  0  0
   -6.8659    2.5819    2.1534 O   0  0  0  0  0  0  0  0  0  0  0  0
   -5.0349    2.1703    0.4086 O   0  0  0  0  0  0  0  0  0  0  0  0
   -7.5030    2.0198   -0.2484 O   0  0  0  0  0  0  0  0  0  0  0  0
   -5.7928    8.4869   -0.8622 C   0  0  0  0  0  0  0  0  0  0  0  0
   -6.7644    8.9816   -0.9806 H   0  0  0  0  0  0  0  0  0  0  0  0
   -5.2335    9.0423   -0.1040 H   0  0  0  0  0  0  0  0  0  0  0  0
   -5.2632    8.5780   -1.8149 H   0  0  0  0  0  0  0  0  0  0  0  0
  1  2  1  0  0  0  0
  1 11  2  0  0  0  0
  2  3  1  0  0  0  0
  4  1  1  0  0  0  0
  5  4  2  0  0  0  0
  5  6  1  0  0  0  0
  6 10  2  0  0  0  0
  7  6  1  0  0  0  0
  7  9  2  0  0  0  0
  8  7  2  0  0  0  0
 10 11  1  0  0  0  0
 10 14  1  0  0  0  0
 11 15  1  0  0  0  0
 13  5  1  0  0  0  0
 16 22  1  0  0  0  0
 17 16  1  0  0  0  0
 17 23  1  0  0  0  0
 18 17  2  0  0  0  0
 19 20  2  0  0  0  0
 19 18  1  0  0  0  0
 20 21  1  0  0  0  0
 21 26  1  0  0  0  0
 21 16  2  0  0  0  0
 24 19  1  0  0  0  0
 25 20  1  0  0  0  0
 26 27  2  0  0  0  0
 28  3  1  0  0  0  0
 28 26  1  0  0  0  0
 29 26  2  0  0  0  0
 30 18  1  0  0  0  0
 30 32  1  0  0  0  0
 31 30  1  0  0  0  0
 33 30  1  0  0  0  0
M  RAD  4   2   2   3   2   4   2  12   2
M  END
