Coordinates from ORCA-job 4-NO2PhN2+~TsO-_B3LYPG-6-31G_dp-CH-Scan-d09-49-n800
 OpenBabel11261919033D

 33 33  0  0  0  0  0  0  0  0999 V2000
   -2.8391    0.7194   -0.9910 C   0  0  0  0  0  0  0  0  0  0  0  0
   -3.9160   -0.1607   -0.7468 N   0  0  0  0  0  0  0  0  0  0  0  0
   -4.7463   -0.8950   -0.6411 N   0  0  0  0  0  0  0  0  0  0  0  0
   -2.1834    0.4236   -2.1854 C   0  0  0  0  0  0  0  0  0  0  0  0
   -1.1087    1.3376   -2.3876 C   0  0  0  0  0  0  0  0  0  0  0  0
   -0.7930    2.3163   -1.4540 C   0  0  0  0  0  0  0  0  0  0  0  0
    0.3409    3.2323   -1.7205 N   0  0  0  0  0  0  0  0  0  0  0  0
    1.1211    2.9345   -2.6210 O   0  0  0  0  0  0  0  0  0  0  0  0
    0.4213    4.2528   -1.0323 O   0  0  0  0  0  0  0  0  0  0  0  0
   -1.5156    2.5240   -0.2583 C   0  0  0  0  0  0  0  0  0  0  0  0
   -2.5941    1.7040   -0.0002 C   0  0  0  0  0  0  0  0  0  0  0  0
   -4.0606    4.3248   -0.1244 H   0  0  0  0  0  0  0  0  0  0  0  0
   -0.5040    1.2885   -3.2895 H   0  0  0  0  0  0  0  0  0  0  0  0
   -1.2110    3.3052    0.4262 H   0  0  0  0  0  0  0  0  0  0  0  0
   -3.2112    1.8154    0.8879 H   0  0  0  0  0  0  0  0  0  0  0  0
   -6.8420    5.2960    1.1486 C   0  0  0  0  0  0  0  0  0  0  0  0
   -6.7113    6.6153    0.7210 C   0  0  0  0  0  0  0  0  0  0  0  0
   -5.7854    7.0461   -0.2822 C   0  0  0  0  0  0  0  0  0  0  0  0
   -4.9892    6.0910   -0.8515 C   0  0  0  0  0  0  0  0  0  0  0  0
   -5.0591    4.6707   -0.4540 C   0  0  0  0  0  0  0  0  0  0  0  0
   -6.0371    4.3157    0.5883 C   0  0  0  0  0  0  0  0  0  0  0  0
   -7.5708    5.0124    1.9010 H   0  0  0  0  0  0  0  0  0  0  0  0
   -7.3558    7.3691    1.1702 H   0  0  0  0  0  0  0  0  0  0  0  0
   -4.2693    6.3619   -1.6202 H   0  0  0  0  0  0  0  0  0  0  0  0
   -5.2236    4.0134   -1.3265 H   0  0  0  0  0  0  0  0  0  0  0  0
   -6.1209    2.6018    1.1707 S   0  0  0  0  0  0  0  0  0  0  0  0
   -7.4430    2.4881    1.8009 O   0  0  0  0  0  0  0  0  0  0  0  0
   -4.9522    2.6363    2.0944 O   0  0  0  0  0  0  0  0  0  0  0  0
   -5.8975    1.8113   -0.0622 O   0  0  0  0  0  0  0  0  0  0  0  0
   -5.7275    8.5027   -0.6681 C   0  0  0  0  0  0  0  0  0  0  0  0
   -6.6965    8.8479   -1.0448 H   0  0  0  0  0  0  0  0  0  0  0  0
   -5.4730    9.1272    0.1951 H   0  0  0  0  0  0  0  0  0  0  0  0
   -4.9797    8.6781   -1.4446 H   0  0  0  0  0  0  0  0  0  0  0  0
  1  2  1  0  0  0  0
  1 11  2  0  0  0  0
  2  3  1  0  0  0  0
  4  1  1  0  0  0  0
  5  4  2  0  0  0  0
  5  6  1  0  0  0  0
  6 10  2  0  0  0  0
  7  6  1  0  0  0  0
  7  9  2  0  0  0  0
  8  7  2  0  0  0  0
 10 11  1  0  0  0  0
 10 14  1  0  0  0  0
 11 15  1  0  0  0  0
 13  5  1  0  0  0  0
 16 22  1  0  0  0  0
 17 16  1  0  0  0  0
 17 23  1  0  0  0  0
 18 17  1  0  0  0  0
 19 20  1  0  0  0  0
 19 18  2  0  0  0  0
 20 12  1  0  0  0  0
 20 21  1  0  0  0  0
 21 16  2  0  0  0  0
 21 26  1  0  0  0  0
 24 19  1  0  0  0  0
 25 20  1  0  0  0  0
 26 27  2  0  0  0  0
 26 28  1  0  0  0  0
 29 26  2  0  0  0  0
 30 18  1  0  0  0  0
 30 32  1  0  0  0  0
 31 30  1  0  0  0  0
 33 30  1  0  0  0  0
M  RAD  5   2   2   3   3   4   2  17   2  28   2
M  END
