Coordinates from ORCA-job 4-NO2PhN2+~TsO-_B3LYPG-6-31G_dp-CH-Scan-d09-49-n800
 OpenBabel11261919023D

 33 33  0  0  0  0  0  0  0  0999 V2000
   -2.2307    1.1752   -0.3119 C   0  0  0  0  0  0  0  0  0  0  0  0
   -3.4960    0.7183    0.1150 N   0  0  0  0  0  0  0  0  0  0  0  0
   -4.5098    0.3893    0.4379 N   0  0  0  0  0  0  0  0  0  0  0  0
   -2.2713    2.3093   -1.1228 C   0  0  0  0  0  0  0  0  0  0  0  0
   -0.9537    2.6853   -1.5064 C   0  0  0  0  0  0  0  0  0  0  0  0
    0.1660    1.9684   -1.1058 C   0  0  0  0  0  0  0  0  0  0  0  0
    1.5109    2.4125   -1.5525 N   0  0  0  0  0  0  0  0  0  0  0  0
    1.5753    3.4022   -2.2770 O   0  0  0  0  0  0  0  0  0  0  0  0
    2.4822    1.7616   -1.1671 O   0  0  0  0  0  0  0  0  0  0  0  0
    0.1101    0.8259   -0.2825 C   0  0  0  0  0  0  0  0  0  0  0  0
   -1.1306    0.4020    0.1394 C   0  0  0  0  0  0  0  0  0  0  0  0
   -5.1997    4.2862   -1.0967 H   0  0  0  0  0  0  0  0  0  0  0  0
   -0.7895    3.5567   -2.1343 H   0  0  0  0  0  0  0  0  0  0  0  0
    1.0223    0.3172   -0.0024 H   0  0  0  0  0  0  0  0  0  0  0  0
   -1.2509   -0.4679    0.7789 H   0  0  0  0  0  0  0  0  0  0  0  0
   -7.0011    5.6142    1.1793 C   0  0  0  0  0  0  0  0  0  0  0  0
   -6.9099    6.9007    0.6589 C   0  0  0  0  0  0  0  0  0  0  0  0
   -6.4806    7.1961   -0.6751 C   0  0  0  0  0  0  0  0  0  0  0  0
   -6.1494    6.1396   -1.4770 C   0  0  0  0  0  0  0  0  0  0  0  0
   -6.2041    4.7454   -0.9986 C   0  0  0  0  0  0  0  0  0  0  0  0
   -6.6626    4.5293    0.3806 C   0  0  0  0  0  0  0  0  0  0  0  0
   -7.3566    5.4363    2.1884 H   0  0  0  0  0  0  0  0  0  0  0  0
   -7.1897    7.7375    1.2967 H   0  0  0  0  0  0  0  0  0  0  0  0
   -5.8169    6.3078   -2.4981 H   0  0  0  0  0  0  0  0  0  0  0  0
   -6.7822    4.0893   -1.6721 H   0  0  0  0  0  0  0  0  0  0  0  0
   -6.7174    2.8421    1.0367 S   0  0  0  0  0  0  0  0  0  0  0  0
   -7.7854    2.8833    2.0499 O   0  0  0  0  0  0  0  0  0  0  0  0
   -5.3259    2.7856    1.5695 O   0  0  0  0  0  0  0  0  0  0  0  0
   -6.9574    2.0064   -0.1572 O   0  0  0  0  0  0  0  0  0  0  0  0
   -6.4184    8.6304   -1.1371 C   0  0  0  0  0  0  0  0  0  0  0  0
   -7.4014    9.1095   -1.0687 H   0  0  0  0  0  0  0  0  0  0  0  0
   -5.7287    9.2130   -0.5170 H   0  0  0  0  0  0  0  0  0  0  0  0
   -6.0804    8.6991   -2.1734 H   0  0  0  0  0  0  0  0  0  0  0  0
  1  2  1  0  0  0  0
  1 11  2  0  0  0  0
  2  3  1  0  0  0  0
  4  1  1  0  0  0  0
  5  4  2  0  0  0  0
  5  6  1  0  0  0  0
  6 10  2  0  0  0  0
  7  9  2  0  0  0  0
  7  6  1  0  0  0  0
  8  7  2  0  0  0  0
 10 14  1  0  0  0  0
 10 11  1  0  0  0  0
 11 15  1  0  0  0  0
 12 20  1  0  0  0  0
 13  5  1  0  0  0  0
 16 22  1  0  0  0  0
 17 16  1  0  0  0  0
 17 23  1  0  0  0  0
 18 17  1  0  0  0  0
 19 20  1  0  0  0  0
 19 18  2  0  0  0  0
 20 21  1  0  0  0  0
 21 26  1  0  0  0  0
 21 16  2  0  0  0  0
 24 19  1  0  0  0  0
 25 20  1  0  0  0  0
 26 28  2  0  0  0  0
 26 27  1  0  0  0  0
 29 26  2  0  0  0  0
 30 31  1  0  0  0  0
 30 18  1  0  0  0  0
 30 32  1  0  0  0  0
 33 30  1  0  0  0  0
M  RAD  5   2   2   3   3   4   2  17   2  27   2
M  END
