Coordinates from ORCA-job 4-NO2PhN2+~TsO-_B3LYPG-6-31G_dp-CH-Scan-d09-49-n800
 OpenBabel11261919023D

 33 33  0  0  0  0  0  0  0  0999 V2000
   -2.7912    1.0852   -0.2557 C   0  0  0  0  0  0  0  0  0  0  0  0
   -3.8894    0.2642    0.1502 N   0  0  0  0  0  0  0  0  0  0  0  0
   -5.0019    0.6967    0.3931 N   0  0  0  0  0  0  0  0  0  0  0  0
   -2.6420    1.5815   -1.5315 C   0  0  0  0  0  0  0  0  0  0  0  0
   -1.5734    2.2822   -2.0141 C   0  0  0  0  0  0  0  0  0  0  0  0
   -0.5367    2.4850   -1.0899 C   0  0  0  0  0  0  0  0  0  0  0  0
    0.6571    3.2305   -1.5263 N   0  0  0  0  0  0  0  0  0  0  0  0
    0.6790    3.6360   -2.6864 O   0  0  0  0  0  0  0  0  0  0  0  0
    1.5522    3.3968   -0.7000 O   0  0  0  0  0  0  0  0  0  0  0  0
   -0.5987    2.0020    0.2169 C   0  0  0  0  0  0  0  0  0  0  0  0
   -1.7202    1.2894    0.6330 C   0  0  0  0  0  0  0  0  0  0  0  0
   -4.6226    1.0777   -3.1260 H   0  0  0  0  0  0  0  0  0  0  0  0
   -1.4946    2.6645   -3.0237 H   0  0  0  0  0  0  0  0  0  0  0  0
    0.2321    2.1836    0.8865 H   0  0  0  0  0  0  0  0  0  0  0  0
   -1.7867    0.8928    1.6412 H   0  0  0  0  0  0  0  0  0  0  0  0
   -6.0042    5.2560    1.2569 C   0  0  0  0  0  0  0  0  0  0  0  0
   -5.7826    6.5966    0.9506 C   0  0  0  0  0  0  0  0  0  0  0  0
   -5.9232    7.0745   -0.3607 C   0  0  0  0  0  0  0  0  0  0  0  0
   -6.2938    6.1716   -1.3698 C   0  0  0  0  0  0  0  0  0  0  0  0
   -6.5213    4.8281   -1.0869 C   0  0  0  0  0  0  0  0  0  0  0  0
   -6.3691    4.3849    0.2292 C   0  0  0  0  0  0  0  0  0  0  0  0
   -5.9050    4.8870    2.2717 H   0  0  0  0  0  0  0  0  0  0  0  0
   -5.4978    7.2838    1.7421 H   0  0  0  0  0  0  0  0  0  0  0  0
   -6.4089    6.5273   -2.3899 H   0  0  0  0  0  0  0  0  0  0  0  0
   -6.8172    4.1324   -1.8639 H   0  0  0  0  0  0  0  0  0  0  0  0
   -6.6641    2.6739    0.6059 S   0  0  0  0  0  0  0  0  0  0  0  0
   -6.8746    2.5004    2.0374 O   0  0  0  0  0  0  0  0  0  0  0  0
   -5.0787    2.1485    0.2525 O   0  0  0  0  0  0  0  0  0  0  0  0
   -7.5553    2.0827   -0.3825 O   0  0  0  0  0  0  0  0  0  0  0  0
   -5.7108    8.5345   -0.6775 C   0  0  0  0  0  0  0  0  0  0  0  0
   -6.6653    9.0747   -0.6782 H   0  0  0  0  0  0  0  0  0  0  0  0
   -5.0625    9.0153    0.0603 H   0  0  0  0  0  0  0  0  0  0  0  0
   -5.2622    8.6674   -1.6664 H   0  0  0  0  0  0  0  0  0  0  0  0
  1  2  1  0  0  0  0
  1 11  2  0  0  0  0
  2  3  1  0  0  0  0
  4  1  1  0  0  0  0
  5  4  2  0  0  0  0
  5  6  1  0  0  0  0
  6 10  2  0  0  0  0
  7  6  1  0  0  0  0
  7  9  2  0  0  0  0
  8  7  2  0  0  0  0
 10 11  1  0  0  0  0
 10 14  1  0  0  0  0
 11 15  1  0  0  0  0
 13  5  1  0  0  0  0
 16 22  1  0  0  0  0
 17 16  1  0  0  0  0
 17 23  1  0  0  0  0
 18 17  2  0  0  0  0
 19 20  2  0  0  0  0
 19 18  1  0  0  0  0
 20 21  1  0  0  0  0
 21 26  1  0  0  0  0
 21 16  2  0  0  0  0
 24 19  1  0  0  0  0
 25 20  1  0  0  0  0
 26 27  2  0  0  0  0
 28  3  1  0  0  0  0
 28 26  1  0  0  0  0
 29 26  2  0  0  0  0
 30 18  1  0  0  0  0
 30 32  1  0  0  0  0
 31 30  1  0  0  0  0
 33 30  1  0  0  0  0
M  RAD  4   2   2   3   2   4   2  12   2
M  END
