Coordinates from ORCA-job 4-NO2PhN2+~TsO-_B3LYPG-6-31G_dp-CH-Scan-d09-49-n800
 OpenBabel11261919023D

 33 33  0  0  0  0  0  0  0  0999 V2000
   -2.7903    1.0857   -0.2538 C   0  0  0  0  0  0  0  0  0  0  0  0
   -3.8884    0.2649    0.1528 N   0  0  0  0  0  0  0  0  0  0  0  0
   -5.0009    0.6973    0.3957 N   0  0  0  0  0  0  0  0  0  0  0  0
   -2.6443    1.5880   -1.5276 C   0  0  0  0  0  0  0  0  0  0  0  0
   -1.5761    2.2887   -2.0108 C   0  0  0  0  0  0  0  0  0  0  0  0
   -0.5357    2.4850   -1.0892 C   0  0  0  0  0  0  0  0  0  0  0  0
    0.6581    3.2301   -1.5264 N   0  0  0  0  0  0  0  0  0  0  0  0
    0.6762    3.6420   -2.6843 O   0  0  0  0  0  0  0  0  0  0  0  0
    1.5559    3.3917   -0.7021 O   0  0  0  0  0  0  0  0  0  0  0  0
   -0.5941    1.9958    0.2154 C   0  0  0  0  0  0  0  0  0  0  0  0
   -1.7155    1.2833    0.6320 C   0  0  0  0  0  0  0  0  0  0  0  0
   -4.6381    1.0934   -3.1248 H   0  0  0  0  0  0  0  0  0  0  0  0
   -1.5000    2.6756   -3.0189 H   0  0  0  0  0  0  0  0  0  0  0  0
    0.2395    2.1725    0.8829 H   0  0  0  0  0  0  0  0  0  0  0  0
   -1.7792    0.8818    1.6384 H   0  0  0  0  0  0  0  0  0  0  0  0
   -6.0080    5.2572    1.2572 C   0  0  0  0  0  0  0  0  0  0  0  0
   -5.7865    6.5976    0.9500 C   0  0  0  0  0  0  0  0  0  0  0  0
   -5.9236    7.0739   -0.3623 C   0  0  0  0  0  0  0  0  0  0  0  0
   -6.2905    6.1695   -1.3715 C   0  0  0  0  0  0  0  0  0  0  0  0
   -6.5178    4.8262   -1.0876 C   0  0  0  0  0  0  0  0  0  0  0  0
   -6.3692    4.3847    0.2294 C   0  0  0  0  0  0  0  0  0  0  0  0
   -5.9115    4.8894    2.2727 H   0  0  0  0  0  0  0  0  0  0  0  0
   -5.5046    7.2859    1.7415 H   0  0  0  0  0  0  0  0  0  0  0  0
   -6.4028    6.5239   -2.3923 H   0  0  0  0  0  0  0  0  0  0  0  0
   -6.8108    4.1293   -1.8648 H   0  0  0  0  0  0  0  0  0  0  0  0
   -6.6641    2.6739    0.6072 S   0  0  0  0  0  0  0  0  0  0  0  0
   -6.8759    2.5014    2.0386 O   0  0  0  0  0  0  0  0  0  0  0  0
   -5.0780    2.1489    0.2556 O   0  0  0  0  0  0  0  0  0  0  0  0
   -7.5540    2.0815   -0.3816 O   0  0  0  0  0  0  0  0  0  0  0  0
   -5.7114    8.5337   -0.6802 C   0  0  0  0  0  0  0  0  0  0  0  0
   -6.6663    9.0732   -0.6841 H   0  0  0  0  0  0  0  0  0  0  0  0
   -5.0656    9.0159    0.0589 H   0  0  0  0  0  0  0  0  0  0  0  0
   -5.2601    8.6658   -1.6679 H   0  0  0  0  0  0  0  0  0  0  0  0
  1  2  1  0  0  0  0
  1 11  2  0  0  0  0
  2  3  1  0  0  0  0
  4  1  1  0  0  0  0
  5  4  2  0  0  0  0
  5  6  1  0  0  0  0
  6 10  2  0  0  0  0
  7  6  1  0  0  0  0
  7  9  2  0  0  0  0
  8  7  2  0  0  0  0
 10 11  1  0  0  0  0
 10 14  1  0  0  0  0
 11 15  1  0  0  0  0
 13  5  1  0  0  0  0
 16 22  1  0  0  0  0
 17 16  1  0  0  0  0
 17 23  1  0  0  0  0
 18 17  2  0  0  0  0
 19 20  2  0  0  0  0
 19 18  1  0  0  0  0
 20 21  1  0  0  0  0
 21 26  1  0  0  0  0
 21 16  2  0  0  0  0
 24 19  1  0  0  0  0
 25 20  1  0  0  0  0
 26 27  2  0  0  0  0
 28  3  1  0  0  0  0
 28 26  1  0  0  0  0
 29 26  2  0  0  0  0
 30 18  1  0  0  0  0
 30 32  1  0  0  0  0
 31 30  1  0  0  0  0
 33 30  1  0  0  0  0
M  RAD  4   2   2   3   2   4   2  12   2
M  END
