Coordinates from ORCA-job 4-NO2PhN2+~TsO-_B3LYPG-6-31G_dp-CH-Scan-d09-49-n800
 OpenBabel11261919023D

 33 33  0  0  0  0  0  0  0  0999 V2000
   -2.7242    1.0953   -0.1330 C   0  0  0  0  0  0  0  0  0  0  0  0
   -3.8243    0.3003    0.3114 N   0  0  0  0  0  0  0  0  0  0  0  0
   -4.9378    0.7425    0.5575 N   0  0  0  0  0  0  0  0  0  0  0  0
   -2.7334    2.0195   -1.1502 C   0  0  0  0  0  0  0  0  0  0  0  0
   -1.6785    2.7396   -1.6253 C   0  0  0  0  0  0  0  0  0  0  0  0
   -0.4555    2.4691   -0.9874 C   0  0  0  0  0  0  0  0  0  0  0  0
    0.7458    3.2007   -1.4369 N   0  0  0  0  0  0  0  0  0  0  0  0
    0.6038    4.0210   -2.3403 O   0  0  0  0  0  0  0  0  0  0  0  0
    1.8059    2.9418   -0.8718 O   0  0  0  0  0  0  0  0  0  0  0  0
   -0.3393    1.5288    0.0360 C   0  0  0  0  0  0  0  0  0  0  0  0
   -1.4683    0.8289    0.4499 C   0  0  0  0  0  0  0  0  0  0  0  0
   -5.3287    2.3706   -3.1133 H   0  0  0  0  0  0  0  0  0  0  0  0
   -1.7290    3.4615   -2.4320 H   0  0  0  0  0  0  0  0  0  0  0  0
    0.6297    1.3514    0.4840 H   0  0  0  0  0  0  0  0  0  0  0  0
   -1.4116    0.0806    1.2355 H   0  0  0  0  0  0  0  0  0  0  0  0
   -6.1585    5.3414    1.2382 C   0  0  0  0  0  0  0  0  0  0  0  0
   -5.9706    6.6663    0.8506 C   0  0  0  0  0  0  0  0  0  0  0  0
   -5.9970    7.0375   -0.5020 C   0  0  0  0  0  0  0  0  0  0  0  0
   -6.2144    6.0430   -1.4686 C   0  0  0  0  0  0  0  0  0  0  0  0
   -6.4095    4.7138   -1.1053 C   0  0  0  0  0  0  0  0  0  0  0  0
   -6.3747    4.3790    0.2510 C   0  0  0  0  0  0  0  0  0  0  0  0
   -6.1452    5.0526    2.2835 H   0  0  0  0  0  0  0  0  0  0  0  0
   -5.8015    7.4243    1.6103 H   0  0  0  0  0  0  0  0  0  0  0  0
   -6.2339    6.3143   -2.5207 H   0  0  0  0  0  0  0  0  0  0  0  0
   -6.5785    3.9473   -1.8554 H   0  0  0  0  0  0  0  0  0  0  0  0
   -6.6367    2.6900    0.7328 S   0  0  0  0  0  0  0  0  0  0  0  0
   -6.8413    2.6001    2.1725 O   0  0  0  0  0  0  0  0  0  0  0  0
   -5.0304    2.1762    0.4087 O   0  0  0  0  0  0  0  0  0  0  0  0
   -7.5082    2.0128   -0.2153 O   0  0  0  0  0  0  0  0  0  0  0  0
   -5.8245    8.4798   -0.9104 C   0  0  0  0  0  0  0  0  0  0  0  0
   -6.7990    8.9704   -1.0224 H   0  0  0  0  0  0  0  0  0  0  0  0
   -5.2584    9.0438   -0.1638 H   0  0  0  0  0  0  0  0  0  0  0  0
   -5.3061    8.5638   -1.8700 H   0  0  0  0  0  0  0  0  0  0  0  0
  1  2  1  0  0  0  0
  1 11  2  0  0  0  0
  2  3  1  0  0  0  0
  4  1  1  0  0  0  0
  5  4  2  0  0  0  0
  5  6  1  0  0  0  0
  6 10  2  0  0  0  0
  7  6  1  0  0  0  0
  7  9  2  0  0  0  0
  8  7  2  0  0  0  0
 10 11  1  0  0  0  0
 10 14  1  0  0  0  0
 11 15  1  0  0  0  0
 13  5  1  0  0  0  0
 16 22  1  0  0  0  0
 17 16  1  0  0  0  0
 17 23  1  0  0  0  0
 18 17  2  0  0  0  0
 19 20  2  0  0  0  0
 19 18  1  0  0  0  0
 20 21  1  0  0  0  0
 21 26  1  0  0  0  0
 21 16  2  0  0  0  0
 24 19  1  0  0  0  0
 25 20  1  0  0  0  0
 26 27  2  0  0  0  0
 28  3  1  0  0  0  0
 28 26  1  0  0  0  0
 29 26  2  0  0  0  0
 30 18  1  0  0  0  0
 30 32  1  0  0  0  0
 31 30  1  0  0  0  0
 33 30  1  0  0  0  0
M  RAD  4   2   2   3   2   4   2  12   2
M  END
