Coordinates from ORCA-job 4-NO2PhN2+~TsO-_B3LYPG-6-31G_dp-CH-Scan-d09-49-n800
 OpenBabel11261919033D

 33 33  0  0  0  0  0  0  0  0999 V2000
   -2.8337    0.7131   -0.9942 C   0  0  0  0  0  0  0  0  0  0  0  0
   -3.9175   -0.1577   -0.7482 N   0  0  0  0  0  0  0  0  0  0  0  0
   -4.7532   -0.8858   -0.6408 N   0  0  0  0  0  0  0  0  0  0  0  0
   -2.1756    0.4048   -2.1841 C   0  0  0  0  0  0  0  0  0  0  0  0
   -1.0932    1.3089   -2.3882 C   0  0  0  0  0  0  0  0  0  0  0  0
   -0.7737    2.2913   -1.4597 C   0  0  0  0  0  0  0  0  0  0  0  0
    0.3689    3.1962   -1.7275 N   0  0  0  0  0  0  0  0  0  0  0  0
    1.1480    2.8881   -2.6255 O   0  0  0  0  0  0  0  0  0  0  0  0
    0.4576    4.2182   -1.0426 O   0  0  0  0  0  0  0  0  0  0  0  0
   -1.4992    2.5124   -0.2684 C   0  0  0  0  0  0  0  0  0  0  0  0
   -2.5851    1.7026   -0.0091 C   0  0  0  0  0  0  0  0  0  0  0  0
   -4.0594    4.3521   -0.1117 H   0  0  0  0  0  0  0  0  0  0  0  0
   -0.4852    1.2491   -3.2873 H   0  0  0  0  0  0  0  0  0  0  0  0
   -1.1914    3.2958    0.4121 H   0  0  0  0  0  0  0  0  0  0  0  0
   -3.2045    1.8240    0.8761 H   0  0  0  0  0  0  0  0  0  0  0  0
   -6.8558    5.2989    1.1466 C   0  0  0  0  0  0  0  0  0  0  0  0
   -6.7336    6.6199    0.7218 C   0  0  0  0  0  0  0  0  0  0  0  0
   -5.8056    7.0599   -0.2753 C   0  0  0  0  0  0  0  0  0  0  0  0
   -4.9980    6.1124   -0.8413 C   0  0  0  0  0  0  0  0  0  0  0  0
   -5.0586    4.6908   -0.4466 C   0  0  0  0  0  0  0  0  0  0  0  0
   -6.0398    4.3262    0.5895 C   0  0  0  0  0  0  0  0  0  0  0  0
   -7.5862    5.0080    1.8947 H   0  0  0  0  0  0  0  0  0  0  0  0
   -7.3867    7.3677    1.1686 H   0  0  0  0  0  0  0  0  0  0  0  0
   -4.2759    6.3904   -1.6054 H   0  0  0  0  0  0  0  0  0  0  0  0
   -5.2135    4.0342   -1.3214 H   0  0  0  0  0  0  0  0  0  0  0  0
   -6.1131    2.6104    1.1679 S   0  0  0  0  0  0  0  0  0  0  0  0
   -7.4328    2.4882    1.8016 O   0  0  0  0  0  0  0  0  0  0  0  0
   -4.9417    2.6470    2.0879 O   0  0  0  0  0  0  0  0  0  0  0  0
   -5.8898    1.8249   -0.0683 O   0  0  0  0  0  0  0  0  0  0  0  0
   -5.7577    8.5175   -0.6589 C   0  0  0  0  0  0  0  0  0  0  0  0
   -6.7272    8.8549   -1.0413 H   0  0  0  0  0  0  0  0  0  0  0  0
   -5.5141    9.1429    0.2068 H   0  0  0  0  0  0  0  0  0  0  0  0
   -5.0065    8.7005   -1.4303 H   0  0  0  0  0  0  0  0  0  0  0  0
  1  2  1  0  0  0  0
  1 11  2  0  0  0  0
  2  3  1  0  0  0  0
  4  1  1  0  0  0  0
  5  4  2  0  0  0  0
  5  6  1  0  0  0  0
  6 10  2  0  0  0  0
  7  6  1  0  0  0  0
  7  9  2  0  0  0  0
  8  7  2  0  0  0  0
 10 11  1  0  0  0  0
 10 14  1  0  0  0  0
 11 15  1  0  0  0  0
 13  5  1  0  0  0  0
 16 22  1  0  0  0  0
 17 16  1  0  0  0  0
 17 23  1  0  0  0  0
 18 17  1  0  0  0  0
 19 20  1  0  0  0  0
 19 18  2  0  0  0  0
 20 12  1  0  0  0  0
 20 21  1  0  0  0  0
 21 16  2  0  0  0  0
 21 26  1  0  0  0  0
 24 19  1  0  0  0  0
 25 20  1  0  0  0  0
 26 27  2  0  0  0  0
 26 28  1  0  0  0  0
 29 26  2  0  0  0  0
 30 18  1  0  0  0  0
 30 32  1  0  0  0  0
 31 30  1  0  0  0  0
 33 30  1  0  0  0  0
M  RAD  5   2   2   3   3   4   2  17   2  28   2
M  END
