Coordinates from ORCA-job 4-NO2PhN2+~TsO-_B3LYPG-6-31G_dp-CH-Scan-d09-49-n800
 OpenBabel11261919023D

 33 33  0  0  0  0  0  0  0  0999 V2000
   -2.7975    1.0764   -0.2560 C   0  0  0  0  0  0  0  0  0  0  0  0
   -3.8932    0.2719    0.1830 N   0  0  0  0  0  0  0  0  0  0  0  0
   -5.0094    0.6960    0.4079 N   0  0  0  0  0  0  0  0  0  0  0  0
   -2.6661    1.4720   -1.5794 C   0  0  0  0  0  0  0  0  0  0  0  0
   -1.5709    2.1546   -2.0598 C   0  0  0  0  0  0  0  0  0  0  0  0
   -0.5576    2.4407   -1.1388 C   0  0  0  0  0  0  0  0  0  0  0  0
    0.6316    3.1735   -1.6027 N   0  0  0  0  0  0  0  0  0  0  0  0
    0.6693    3.5021   -2.7873 O   0  0  0  0  0  0  0  0  0  0  0  0
    1.5102    3.4114   -0.7757 O   0  0  0  0  0  0  0  0  0  0  0  0
   -0.6345    2.0519    0.1977 C   0  0  0  0  0  0  0  0  0  0  0  0
   -1.7544    1.3530    0.6393 C   0  0  0  0  0  0  0  0  0  0  0  0
   -3.9987    1.0552   -2.6851 H   0  0  0  0  0  0  0  0  0  0  0  0
   -1.4743    2.4669   -3.0906 H   0  0  0  0  0  0  0  0  0  0  0  0
    0.1807    2.2933    0.8678 H   0  0  0  0  0  0  0  0  0  0  0  0
   -1.8336    1.0248    1.6700 H   0  0  0  0  0  0  0  0  0  0  0  0
   -6.0053    5.2389    1.2400 C   0  0  0  0  0  0  0  0  0  0  0  0
   -5.7814    6.5857    0.9657 C   0  0  0  0  0  0  0  0  0  0  0  0
   -5.9388    7.0988   -0.3305 C   0  0  0  0  0  0  0  0  0  0  0  0
   -6.3292    6.2246   -1.3568 C   0  0  0  0  0  0  0  0  0  0  0  0
   -6.5587    4.8748   -1.1052 C   0  0  0  0  0  0  0  0  0  0  0  0
   -6.3888    4.3958    0.1955 C   0  0  0  0  0  0  0  0  0  0  0  0
   -5.8939    4.8438    2.2436 H   0  0  0  0  0  0  0  0  0  0  0  0
   -5.4817    7.2506    1.7707 H   0  0  0  0  0  0  0  0  0  0  0  0
   -6.4587    6.6076   -2.3652 H   0  0  0  0  0  0  0  0  0  0  0  0
   -6.8719    4.2013   -1.8950 H   0  0  0  0  0  0  0  0  0  0  0  0
   -6.6847    2.6755    0.5324 S   0  0  0  0  0  0  0  0  0  0  0  0
   -6.9351    2.4772    1.9545 O   0  0  0  0  0  0  0  0  0  0  0  0
   -5.0998    2.1596    0.2078 O   0  0  0  0  0  0  0  0  0  0  0  0
   -7.5542    2.1046   -0.4885 O   0  0  0  0  0  0  0  0  0  0  0  0
   -5.7242    8.5661   -0.6105 C   0  0  0  0  0  0  0  0  0  0  0  0
   -6.6683    9.1190   -0.5319 H   0  0  0  0  0  0  0  0  0  0  0  0
   -5.0238    9.0121    0.1012 H   0  0  0  0  0  0  0  0  0  0  0  0
   -5.3366    8.7282   -1.6204 H   0  0  0  0  0  0  0  0  0  0  0  0
  1  2  1  0  0  0  0
  1 11  2  0  0  0  0
  2  3  1  0  0  0  0
  4  1  1  0  0  0  0
  5  4  2  0  0  0  0
  5  6  1  0  0  0  0
  6 10  2  0  0  0  0
  7  6  1  0  0  0  0
  7  9  2  0  0  0  0
  8  7  2  0  0  0  0
 10 11  1  0  0  0  0
 10 14  1  0  0  0  0
 11 15  1  0  0  0  0
 13  5  1  0  0  0  0
 16 22  1  0  0  0  0
 17 16  1  0  0  0  0
 17 23  1  0  0  0  0
 18 17  2  0  0  0  0
 19 20  2  0  0  0  0
 19 18  1  0  0  0  0
 20 21  1  0  0  0  0
 21 26  1  0  0  0  0
 21 16  2  0  0  0  0
 24 19  1  0  0  0  0
 25 20  1  0  0  0  0
 26 27  2  0  0  0  0
 28  3  1  0  0  0  0
 28 26  1  0  0  0  0
 29 26  2  0  0  0  0
 30 31  1  0  0  0  0
 30 18  1  0  0  0  0
 30 32  1  0  0  0  0
 33 30  1  0  0  0  0
M  RAD  4   2   2   3   2   4   2  12   2
M  END
