Coordinates from ORCA-job 4-NO2PhN2+~TsO-_B3LYPG-6-31G_dp-CH-Scan-d09-49-n800
 OpenBabel11261919033D

 33 33  0  0  0  0  0  0  0  0999 V2000
   -2.8381    0.7181   -0.9918 C   0  0  0  0  0  0  0  0  0  0  0  0
   -3.9158   -0.1611   -0.7481 N   0  0  0  0  0  0  0  0  0  0  0  0
   -4.7468   -0.8948   -0.6430 N   0  0  0  0  0  0  0  0  0  0  0  0
   -2.1820    0.4214   -2.1859 C   0  0  0  0  0  0  0  0  0  0  0  0
   -1.1064    1.3344   -2.3876 C   0  0  0  0  0  0  0  0  0  0  0  0
   -0.7903    2.3129   -1.4539 C   0  0  0  0  0  0  0  0  0  0  0  0
    0.3448    3.2277   -1.7199 N   0  0  0  0  0  0  0  0  0  0  0  0
    1.1251    2.9291   -2.6200 O   0  0  0  0  0  0  0  0  0  0  0  0
    0.4259    4.2481   -1.0316 O   0  0  0  0  0  0  0  0  0  0  0  0
   -1.5132    2.5215   -0.2586 C   0  0  0  0  0  0  0  0  0  0  0  0
   -2.5928    1.7026   -0.0010 C   0  0  0  0  0  0  0  0  0  0  0  0
   -4.0614    4.3282   -0.1257 H   0  0  0  0  0  0  0  0  0  0  0  0
   -0.5012    1.2846   -3.2892 H   0  0  0  0  0  0  0  0  0  0  0  0
   -1.2083    3.3023    0.4260 H   0  0  0  0  0  0  0  0  0  0  0  0
   -3.2101    1.8146    0.8869 H   0  0  0  0  0  0  0  0  0  0  0  0
   -6.8426    5.2969    1.1493 C   0  0  0  0  0  0  0  0  0  0  0  0
   -6.7132    6.6164    0.7220 C   0  0  0  0  0  0  0  0  0  0  0  0
   -5.7884    7.0482   -0.2817 C   0  0  0  0  0  0  0  0  0  0  0  0
   -4.9918    6.0939   -0.8518 C   0  0  0  0  0  0  0  0  0  0  0  0
   -5.0604    4.6734   -0.4546 C   0  0  0  0  0  0  0  0  0  0  0  0
   -6.0374    4.3173    0.5882 C   0  0  0  0  0  0  0  0  0  0  0  0
   -7.5706    5.0126    1.9022 H   0  0  0  0  0  0  0  0  0  0  0  0
   -7.3579    7.3696    1.1718 H   0  0  0  0  0  0  0  0  0  0  0  0
   -4.2727    6.3654   -1.6209 H   0  0  0  0  0  0  0  0  0  0  0  0
   -5.2249    4.0162   -1.3272 H   0  0  0  0  0  0  0  0  0  0  0  0
   -6.1197    2.6033    1.1704 S   0  0  0  0  0  0  0  0  0  0  0  0
   -7.4411    2.4892    1.8021 O   0  0  0  0  0  0  0  0  0  0  0  0
   -4.9498    2.6383    2.0927 O   0  0  0  0  0  0  0  0  0  0  0  0
   -5.8974    1.8125   -0.0626 O   0  0  0  0  0  0  0  0  0  0  0  0
   -5.7319    8.5049   -0.6674 C   0  0  0  0  0  0  0  0  0  0  0  0
   -6.7013    8.8495   -1.0433 H   0  0  0  0  0  0  0  0  0  0  0  0
   -5.4772    9.1294    0.1958 H   0  0  0  0  0  0  0  0  0  0  0  0
   -4.9847    8.6811   -1.4443 H   0  0  0  0  0  0  0  0  0  0  0  0
  1  2  1  0  0  0  0
  1 11  2  0  0  0  0
  2  3  1  0  0  0  0
  4  1  1  0  0  0  0
  5  4  2  0  0  0  0
  5  6  1  0  0  0  0
  6 10  2  0  0  0  0
  7  6  1  0  0  0  0
  7  9  2  0  0  0  0
  8  7  2  0  0  0  0
 10 11  1  0  0  0  0
 10 14  1  0  0  0  0
 11 15  1  0  0  0  0
 13  5  1  0  0  0  0
 16 22  1  0  0  0  0
 17 16  1  0  0  0  0
 17 23  1  0  0  0  0
 18 17  1  0  0  0  0
 19 20  1  0  0  0  0
 19 18  2  0  0  0  0
 20 12  1  0  0  0  0
 20 21  1  0  0  0  0
 21 16  2  0  0  0  0
 21 26  1  0  0  0  0
 24 19  1  0  0  0  0
 25 20  1  0  0  0  0
 26 27  2  0  0  0  0
 26 28  1  0  0  0  0
 29 26  2  0  0  0  0
 30 18  1  0  0  0  0
 30 32  1  0  0  0  0
 31 30  1  0  0  0  0
 33 30  1  0  0  0  0
M  RAD  5   2   2   3   3   4   2  17   2  28   2
M  END
