Coordinates from ORCA-job 4-NO2PhN2+~TsO-_B3LYPG-6-31G_dp-CH-Scan-d09-49-n800
 OpenBabel11261919023D

 33 33  0  0  0  0  0  0  0  0999 V2000
   -2.8081    1.0747   -0.2824 C   0  0  0  0  0  0  0  0  0  0  0  0
   -3.9060    0.2585    0.1305 N   0  0  0  0  0  0  0  0  0  0  0  0
   -5.0180    0.6883    0.3712 N   0  0  0  0  0  0  0  0  0  0  0  0
   -2.6329    1.4683   -1.5960 C   0  0  0  0  0  0  0  0  0  0  0  0
   -1.5477    2.1614   -2.0696 C   0  0  0  0  0  0  0  0  0  0  0  0
   -0.5599    2.4647   -1.1239 C   0  0  0  0  0  0  0  0  0  0  0  0
    0.6319    3.2085   -1.5644 N   0  0  0  0  0  0  0  0  0  0  0  0
    0.6939    3.5299   -2.7496 O   0  0  0  0  0  0  0  0  0  0  0  0
    1.4870    3.4615   -0.7174 O   0  0  0  0  0  0  0  0  0  0  0  0
   -0.6664    2.0832    0.2130 C   0  0  0  0  0  0  0  0  0  0  0  0
   -1.7885    1.3751    0.6347 C   0  0  0  0  0  0  0  0  0  0  0  0
   -4.1549    0.9422   -2.9069 H   0  0  0  0  0  0  0  0  0  0  0  0
   -1.4331    2.4679   -3.1006 H   0  0  0  0  0  0  0  0  0  0  0  0
    0.1292    2.3393    0.9011 H   0  0  0  0  0  0  0  0  0  0  0  0
   -1.8891    1.0560    1.6668 H   0  0  0  0  0  0  0  0  0  0  0  0
   -5.9782    5.2404    1.2528 C   0  0  0  0  0  0  0  0  0  0  0  0
   -5.7533    6.5847    0.9663 C   0  0  0  0  0  0  0  0  0  0  0  0
   -5.9230    7.0888   -0.3318 C   0  0  0  0  0  0  0  0  0  0  0  0
   -6.3269    6.2083   -1.3477 C   0  0  0  0  0  0  0  0  0  0  0  0
   -6.5581    4.8613   -1.0841 C   0  0  0  0  0  0  0  0  0  0  0  0
   -6.3757    4.3914    0.2185 C   0  0  0  0  0  0  0  0  0  0  0  0
   -5.8570    4.8519    2.2578 H   0  0  0  0  0  0  0  0  0  0  0  0
   -5.4431    7.2545    1.7631 H   0  0  0  0  0  0  0  0  0  0  0  0
   -6.4657    6.5843   -2.3575 H   0  0  0  0  0  0  0  0  0  0  0  0
   -6.8811    4.1831   -1.8659 H   0  0  0  0  0  0  0  0  0  0  0  0
   -6.6742    2.6750    0.5706 S   0  0  0  0  0  0  0  0  0  0  0  0
   -6.8872    2.4831    1.9996 O   0  0  0  0  0  0  0  0  0  0  0  0
   -5.0962    2.1486    0.2095 O   0  0  0  0  0  0  0  0  0  0  0  0
   -7.5705    2.1031   -0.4255 O   0  0  0  0  0  0  0  0  0  0  0  0
   -5.7066    8.5530   -0.6257 C   0  0  0  0  0  0  0  0  0  0  0  0
   -6.6532    9.1043   -0.5712 H   0  0  0  0  0  0  0  0  0  0  0  0
   -5.0199    9.0093    0.0927 H   0  0  0  0  0  0  0  0  0  0  0  0
   -5.3012    8.7034   -1.6305 H   0  0  0  0  0  0  0  0  0  0  0  0
  1  2  1  0  0  0  0
  1 11  2  0  0  0  0
  2  3  1  0  0  0  0
  4  1  1  0  0  0  0
  5  4  2  0  0  0  0
  5  6  1  0  0  0  0
  6 10  2  0  0  0  0
  7  6  1  0  0  0  0
  7  9  2  0  0  0  0
  8  7  2  0  0  0  0
 10 11  1  0  0  0  0
 10 14  1  0  0  0  0
 11 15  1  0  0  0  0
 13  5  1  0  0  0  0
 16 22  1  0  0  0  0
 17 16  1  0  0  0  0
 17 23  1  0  0  0  0
 18 17  2  0  0  0  0
 19 20  2  0  0  0  0
 19 18  1  0  0  0  0
 20 21  1  0  0  0  0
 21 26  1  0  0  0  0
 21 16  2  0  0  0  0
 24 19  1  0  0  0  0
 25 20  1  0  0  0  0
 26 27  2  0  0  0  0
 28  3  1  0  0  0  0
 28 26  1  0  0  0  0
 29 26  2  0  0  0  0
 30 31  1  0  0  0  0
 30 18  1  0  0  0  0
 30 32  1  0  0  0  0
 33 30  1  0  0  0  0
M  RAD  4   2   2   3   2   4   2  12   2
M  END
