Coordinates from ORCA-job 4-NO2PhN2+~TsO-_B3LYPG-6-31G_dp-CH-Scan-d09-49-n800
 OpenBabel11261919023D

 33 33  0  0  0  0  0  0  0  0999 V2000
   -2.7488    1.0992   -0.1833 C   0  0  0  0  0  0  0  0  0  0  0  0
   -3.8490    0.2889    0.2359 N   0  0  0  0  0  0  0  0  0  0  0  0
   -4.9588    0.7249    0.5005 N   0  0  0  0  0  0  0  0  0  0  0  0
   -2.7237    1.9112   -1.2926 C   0  0  0  0  0  0  0  0  0  0  0  0
   -1.6669    2.6253   -1.7729 C   0  0  0  0  0  0  0  0  0  0  0  0
   -0.4819    2.4808   -1.0313 C   0  0  0  0  0  0  0  0  0  0  0  0
    0.7178    3.2148   -1.4775 N   0  0  0  0  0  0  0  0  0  0  0  0
    0.6099    3.9210   -2.4772 O   0  0  0  0  0  0  0  0  0  0  0  0
    1.7440    3.0706   -0.8166 O   0  0  0  0  0  0  0  0  0  0  0  0
   -0.4032    1.6630    0.0954 C   0  0  0  0  0  0  0  0  0  0  0  0
   -1.5297    0.9581    0.5091 C   0  0  0  0  0  0  0  0  0  0  0  0
   -5.2487    2.0383   -3.0828 H   0  0  0  0  0  0  0  0  0  0  0  0
   -1.6911    3.2562   -2.6533 H   0  0  0  0  0  0  0  0  0  0  0  0
    0.5377    1.5805    0.6240 H   0  0  0  0  0  0  0  0  0  0  0  0
   -1.4953    0.3021    1.3741 H   0  0  0  0  0  0  0  0  0  0  0  0
   -6.1606    5.3261    1.2588 C   0  0  0  0  0  0  0  0  0  0  0  0
   -5.9608    6.6546    0.8899 C   0  0  0  0  0  0  0  0  0  0  0  0
   -5.9655    7.0419   -0.4582 C   0  0  0  0  0  0  0  0  0  0  0  0
   -6.1736    6.0599   -1.4397 C   0  0  0  0  0  0  0  0  0  0  0  0
   -6.3792    4.7275   -1.0952 C   0  0  0  0  0  0  0  0  0  0  0  0
   -6.3667    4.3765    0.2574 C   0  0  0  0  0  0  0  0  0  0  0  0
   -6.1644    5.0249    2.3006 H   0  0  0  0  0  0  0  0  0  0  0  0
   -5.7994    7.4027    1.6610 H   0  0  0  0  0  0  0  0  0  0  0  0
   -6.1771    6.3443   -2.4885 H   0  0  0  0  0  0  0  0  0  0  0  0
   -6.5424    3.9710   -1.8556 H   0  0  0  0  0  0  0  0  0  0  0  0
   -6.6429    2.6826    0.7140 S   0  0  0  0  0  0  0  0  0  0  0  0
   -6.8715    2.5760    2.1490 O   0  0  0  0  0  0  0  0  0  0  0  0
   -5.0379    2.1673    0.4065 O   0  0  0  0  0  0  0  0  0  0  0  0
   -7.5042    2.0231   -0.2562 O   0  0  0  0  0  0  0  0  0  0  0  0
   -5.7800    8.4881   -0.8470 C   0  0  0  0  0  0  0  0  0  0  0  0
   -6.7503    8.9853   -0.9659 H   0  0  0  0  0  0  0  0  0  0  0  0
   -5.2209    9.0401   -0.0863 H   0  0  0  0  0  0  0  0  0  0  0  0
   -5.2485    8.5807   -1.7985 H   0  0  0  0  0  0  0  0  0  0  0  0
  1  2  1  0  0  0  0
  1 11  2  0  0  0  0
  2  3  1  0  0  0  0
  4  1  1  0  0  0  0
  5  4  2  0  0  0  0
  5  6  1  0  0  0  0
  6 10  2  0  0  0  0
  7  6  1  0  0  0  0
  7  9  2  0  0  0  0
  8  7  2  0  0  0  0
 10 11  1  0  0  0  0
 10 14  1  0  0  0  0
 11 15  1  0  0  0  0
 13  5  1  0  0  0  0
 16 22  1  0  0  0  0
 17 16  1  0  0  0  0
 17 23  1  0  0  0  0
 18 17  2  0  0  0  0
 19 20  2  0  0  0  0
 19 18  1  0  0  0  0
 20 21  1  0  0  0  0
 21 26  1  0  0  0  0
 21 16  2  0  0  0  0
 24 19  1  0  0  0  0
 25 20  1  0  0  0  0
 26 27  2  0  0  0  0
 28  3  1  0  0  0  0
 28 26  1  0  0  0  0
 29 26  2  0  0  0  0
 30 18  1  0  0  0  0
 30 32  1  0  0  0  0
 31 30  1  0  0  0  0
 33 30  1  0  0  0  0
M  RAD  4   2   2   3   2   4   2  12   2
M  END
