Coordinates from ORCA-job 4-NO2PhN2+~TsO-_B3LYPG-6-31G_dp-CH-Scan-d09-49-n800
 OpenBabel11261919023D

 33 33  0  0  0  0  0  0  0  0999 V2000
   -2.9987    0.8809   -0.9787 C   0  0  0  0  0  0  0  0  0  0  0  0
   -3.9616   -0.1446   -0.8179 N   0  0  0  0  0  0  0  0  0  0  0  0
   -4.7036   -0.9738   -0.7907 N   0  0  0  0  0  0  0  0  0  0  0  0
   -2.5292    0.9501   -2.2887 C   0  0  0  0  0  0  0  0  0  0  0  0
   -1.5722    2.0049   -2.3965 C   0  0  0  0  0  0  0  0  0  0  0  0
   -1.2062    2.7835   -1.3067 C   0  0  0  0  0  0  0  0  0  0  0  0
   -0.2339    3.8849   -1.4969 N   0  0  0  0  0  0  0  0  0  0  0  0
    0.4541    3.8767   -2.5137 O   0  0  0  0  0  0  0  0  0  0  0  0
   -0.1952    4.7612   -0.6293 O   0  0  0  0  0  0  0  0  0  0  0  0
   -1.7447    2.6232   -0.0098 C   0  0  0  0  0  0  0  0  0  0  0  0
   -2.6859    1.6311    0.1814 C   0  0  0  0  0  0  0  0  0  0  0  0
   -3.9932    3.9100   -0.1879 H   0  0  0  0  0  0  0  0  0  0  0  0
   -1.1074    2.2312   -3.3530 H   0  0  0  0  0  0  0  0  0  0  0  0
   -1.4164    3.2664    0.7962 H   0  0  0  0  0  0  0  0  0  0  0  0
   -3.1782    1.4814    1.1373 H   0  0  0  0  0  0  0  0  0  0  0  0
   -6.5858    5.2296    1.1230 C   0  0  0  0  0  0  0  0  0  0  0  0
   -6.3313    6.4997    0.6127 C   0  0  0  0  0  0  0  0  0  0  0  0
   -5.4204    6.7678   -0.4577 C   0  0  0  0  0  0  0  0  0  0  0  0
   -4.7721    5.6967   -1.0095 C   0  0  0  0  0  0  0  0  0  0  0  0
   -4.9720    4.3221   -0.5178 C   0  0  0  0  0  0  0  0  0  0  0  0
   -5.9285    4.1336    0.5817 C   0  0  0  0  0  0  0  0  0  0  0  0
   -7.3016    5.0734    1.9234 H   0  0  0  0  0  0  0  0  0  0  0  0
   -6.8616    7.3452    1.0473 H   0  0  0  0  0  0  0  0  0  0  0  0
   -4.0705    5.8409   -1.8274 H   0  0  0  0  0  0  0  0  0  0  0  0
   -5.2091    3.6171   -1.3335 H   0  0  0  0  0  0  0  0  0  0  0  0
   -6.1694    2.4759    1.2776 S   0  0  0  0  0  0  0  0  0  0  0  0
   -7.5047    2.5263    1.8891 O   0  0  0  0  0  0  0  0  0  0  0  0
   -5.0151    2.4782    2.2195 O   0  0  0  0  0  0  0  0  0  0  0  0
   -6.0040    1.5799    0.1101 O   0  0  0  0  0  0  0  0  0  0  0  0
   -5.2168    8.1848   -0.9317 C   0  0  0  0  0  0  0  0  0  0  0  0
   -6.1606    8.6265   -1.2689 H   0  0  0  0  0  0  0  0  0  0  0  0
   -4.8309    8.8163   -0.1241 H   0  0  0  0  0  0  0  0  0  0  0  0
   -4.5070    8.2264   -1.7609 H   0  0  0  0  0  0  0  0  0  0  0  0
  1  2  1  0  0  0  0
  1 11  2  0  0  0  0
  2  3  1  0  0  0  0
  4  1  1  0  0  0  0
  5  4  2  0  0  0  0
  5  6  1  0  0  0  0
  6 10  2  0  0  0  0
  7  6  1  0  0  0  0
  7  9  2  0  0  0  0
  8  7  2  0  0  0  0
 10 11  1  0  0  0  0
 10 14  1  0  0  0  0
 11 15  1  0  0  0  0
 13  5  1  0  0  0  0
 16 22  1  0  0  0  0
 17 23  1  0  0  0  0
 17 16  1  0  0  0  0
 18 17  1  0  0  0  0
 19 20  1  0  0  0  0
 19 18  2  0  0  0  0
 20 12  1  0  0  0  0
 20 21  1  0  0  0  0
 21 16  2  0  0  0  0
 21 26  1  0  0  0  0
 24 19  1  0  0  0  0
 25 20  1  0  0  0  0
 26 27  2  0  0  0  0
 26 28  1  0  0  0  0
 29 26  2  0  0  0  0
 30 18  1  0  0  0  0
 30 32  1  0  0  0  0
 31 30  1  0  0  0  0
 33 30  1  0  0  0  0
M  RAD  5   2   2   3   3   4   2  17   2  28   2
M  END
