Coordinates from ORCA-job 4-NO2PhN2+~TsO-_B3LYPG-6-31G_dp-CH-Scan-d09-49-n800
 OpenBabel11261919023D

 33 33  0  0  0  0  0  0  0  0999 V2000
   -2.2094    1.1521   -0.3473 C   0  0  0  0  0  0  0  0  0  0  0  0
   -3.4841    0.7032    0.0603 N   0  0  0  0  0  0  0  0  0  0  0  0
   -4.5068    0.3828    0.3633 N   0  0  0  0  0  0  0  0  0  0  0  0
   -2.2384    2.2507   -1.2061 C   0  0  0  0  0  0  0  0  0  0  0  0
   -0.9130    2.6224   -1.5680 C   0  0  0  0  0  0  0  0  0  0  0  0
    0.2008    1.9342   -1.1056 C   0  0  0  0  0  0  0  0  0  0  0  0
    1.5542    2.3723   -1.5322 N   0  0  0  0  0  0  0  0  0  0  0  0
    1.6313    3.3339   -2.2924 O   0  0  0  0  0  0  0  0  0  0  0  0
    2.5194    1.7444   -1.0961 O   0  0  0  0  0  0  0  0  0  0  0  0
    0.1315    0.8267   -0.2363 C   0  0  0  0  0  0  0  0  0  0  0  0
   -1.1169    0.4087    0.1679 C   0  0  0  0  0  0  0  0  0  0  0  0
   -5.2321    4.3079   -1.1202 H   0  0  0  0  0  0  0  0  0  0  0  0
   -0.7381    3.4680   -2.2278 H   0  0  0  0  0  0  0  0  0  0  0  0
    1.0397    0.3395    0.0906 H   0  0  0  0  0  0  0  0  0  0  0  0
   -1.2483   -0.4345    0.8404 H   0  0  0  0  0  0  0  0  0  0  0  0
   -7.0064    5.6244    1.1899 C   0  0  0  0  0  0  0  0  0  0  0  0
   -6.9275    6.9134    0.6738 C   0  0  0  0  0  0  0  0  0  0  0  0
   -6.5140    7.2172   -0.6636 C   0  0  0  0  0  0  0  0  0  0  0  0
   -6.1867    6.1660   -1.4738 C   0  0  0  0  0  0  0  0  0  0  0  0
   -6.2327    4.7687   -1.0024 C   0  0  0  0  0  0  0  0  0  0  0  0
   -6.6715    4.5447    0.3828 C   0  0  0  0  0  0  0  0  0  0  0  0
   -7.3482    5.4396    2.2025 H   0  0  0  0  0  0  0  0  0  0  0  0
   -7.2045    7.7461    1.3182 H   0  0  0  0  0  0  0  0  0  0  0  0
   -5.8658    6.3404   -2.4976 H   0  0  0  0  0  0  0  0  0  0  0  0
   -6.8262    4.1198   -1.6697 H   0  0  0  0  0  0  0  0  0  0  0  0
   -6.7055    2.8542    1.0311 S   0  0  0  0  0  0  0  0  0  0  0  0
   -7.7274    2.8906    2.0906 O   0  0  0  0  0  0  0  0  0  0  0  0
   -5.2915    2.7946    1.5013 O   0  0  0  0  0  0  0  0  0  0  0  0
   -6.9990    2.0274   -0.1567 O   0  0  0  0  0  0  0  0  0  0  0  0
   -6.4630    8.6540   -1.1191 C   0  0  0  0  0  0  0  0  0  0  0  0
   -7.4481    9.1273   -1.0410 H   0  0  0  0  0  0  0  0  0  0  0  0
   -5.7718    9.2374   -0.5015 H   0  0  0  0  0  0  0  0  0  0  0  0
   -6.1334    8.7295   -2.1576 H   0  0  0  0  0  0  0  0  0  0  0  0
  1  2  1  0  0  0  0
  1 11  2  0  0  0  0
  2  3  1  0  0  0  0
  4  1  1  0  0  0  0
  5  4  2  0  0  0  0
  5  6  1  0  0  0  0
  6 10  2  0  0  0  0
  7  6  1  0  0  0  0
  7  9  2  0  0  0  0
  8  7  2  0  0  0  0
 10 14  1  0  0  0  0
 10 11  1  0  0  0  0
 11 15  1  0  0  0  0
 12 20  1  0  0  0  0
 13  5  1  0  0  0  0
 16 22  1  0  0  0  0
 17 16  1  0  0  0  0
 17 23  1  0  0  0  0
 18 17  1  0  0  0  0
 19 20  1  0  0  0  0
 19 18  2  0  0  0  0
 20 21  1  0  0  0  0
 21 26  1  0  0  0  0
 21 16  2  0  0  0  0
 24 19  1  0  0  0  0
 25 20  1  0  0  0  0
 26 28  2  0  0  0  0
 26 27  1  0  0  0  0
 29 26  2  0  0  0  0
 30 31  1  0  0  0  0
 30 18  1  0  0  0  0
 30 32  1  0  0  0  0
 33 30  1  0  0  0  0
M  RAD  5   2   2   3   3   4   2  17   2  27   2
M  END
