Coordinates from ORCA-job 4-NO2PhN2+~TsO-_B3LYPG-6-31G_dp-CH-Scan-d09-49-n800
 OpenBabel11261919023D

 33 33  0  0  0  0  0  0  0  0999 V2000
   -2.7826    1.0827   -0.2229 C   0  0  0  0  0  0  0  0  0  0  0  0
   -3.8761    0.2907    0.2422 N   0  0  0  0  0  0  0  0  0  0  0  0
   -4.9973    0.7082    0.4487 N   0  0  0  0  0  0  0  0  0  0  0  0
   -2.6941    1.4942   -1.5488 C   0  0  0  0  0  0  0  0  0  0  0  0
   -1.5918    2.1637   -2.0406 C   0  0  0  0  0  0  0  0  0  0  0  0
   -0.5478    2.4188   -1.1471 C   0  0  0  0  0  0  0  0  0  0  0  0
    0.6402    3.1379   -1.6347 N   0  0  0  0  0  0  0  0  0  0  0  0
    0.6501    3.4828   -2.8153 O   0  0  0  0  0  0  0  0  0  0  0  0
    1.5463    3.3492   -0.8302 O   0  0  0  0  0  0  0  0  0  0  0  0
   -0.5915    2.0108    0.1849 C   0  0  0  0  0  0  0  0  0  0  0  0
   -1.7100    1.3229    0.6462 C   0  0  0  0  0  0  0  0  0  0  0  0
   -3.9303    1.1588   -2.5257 H   0  0  0  0  0  0  0  0  0  0  0  0
   -1.5165    2.4904   -3.0688 H   0  0  0  0  0  0  0  0  0  0  0  0
    0.2472    2.2268    0.8345 H   0  0  0  0  0  0  0  0  0  0  0  0
   -1.7653    0.9767    1.6724 H   0  0  0  0  0  0  0  0  0  0  0  0
   -6.0325    5.2386    1.2265 C   0  0  0  0  0  0  0  0  0  0  0  0
   -5.8108    6.5878    0.9627 C   0  0  0  0  0  0  0  0  0  0  0  0
   -5.9569    7.1083   -0.3320 C   0  0  0  0  0  0  0  0  0  0  0  0
   -6.3335    6.2390   -1.3673 C   0  0  0  0  0  0  0  0  0  0  0  0
   -6.5603    4.8867   -1.1262 C   0  0  0  0  0  0  0  0  0  0  0  0
   -6.4019    4.4003    0.1730 C   0  0  0  0  0  0  0  0  0  0  0  0
   -5.9302    4.8380    2.2289 H   0  0  0  0  0  0  0  0  0  0  0  0
   -5.5217    7.2487    1.7748 H   0  0  0  0  0  0  0  0  0  0  0  0
   -6.4545    6.6277   -2.3746 H   0  0  0  0  0  0  0  0  0  0  0  0
   -6.8634    4.2168   -1.9230 H   0  0  0  0  0  0  0  0  0  0  0  0
   -6.6938    2.6764    0.4971 S   0  0  0  0  0  0  0  0  0  0  0  0
   -6.9776    2.4723    1.9121 O   0  0  0  0  0  0  0  0  0  0  0  0
   -5.1022    2.1716    0.2064 O   0  0  0  0  0  0  0  0  0  0  0  0
   -7.5373    2.1048   -0.5456 O   0  0  0  0  0  0  0  0  0  0  0  0
   -5.7449    8.5781   -0.6001 C   0  0  0  0  0  0  0  0  0  0  0  0
   -6.6881    9.1304   -0.5071 H   0  0  0  0  0  0  0  0  0  0  0  0
   -5.0379    9.0174    0.1093 H   0  0  0  0  0  0  0  0  0  0  0  0
   -5.3669    8.7501   -1.6119 H   0  0  0  0  0  0  0  0  0  0  0  0
  1  2  1  0  0  0  0
  1 11  2  0  0  0  0
  2  3  1  0  0  0  0
  4  1  1  0  0  0  0
  5  4  2  0  0  0  0
  5  6  1  0  0  0  0
  6 10  2  0  0  0  0
  7  6  1  0  0  0  0
  7  9  2  0  0  0  0
  8  7  2  0  0  0  0
 10 11  1  0  0  0  0
 10 14  1  0  0  0  0
 11 15  1  0  0  0  0
 13  5  1  0  0  0  0
 16 22  1  0  0  0  0
 17 16  1  0  0  0  0
 17 23  1  0  0  0  0
 18 17  2  0  0  0  0
 19 20  2  0  0  0  0
 19 18  1  0  0  0  0
 20 21  1  0  0  0  0
 21 26  1  0  0  0  0
 21 16  2  0  0  0  0
 24 19  1  0  0  0  0
 25 20  1  0  0  0  0
 26 27  2  0  0  0  0
 28  3  1  0  0  0  0
 28 26  1  0  0  0  0
 29 26  2  0  0  0  0
 30 31  1  0  0  0  0
 30 18  1  0  0  0  0
 30 32  1  0  0  0  0
 33 30  1  0  0  0  0
M  RAD  4   2   2   3   2   4   2  12   2
M  END
