Coordinates from ORCA-job 4-NO2PhN2+~TsO-_B3LYPG-6-31G_dp-CH-Scan-d09-49-n800
 OpenBabel11261919033D

 33 33  0  0  0  0  0  0  0  0999 V2000
   -2.8459    0.7268   -0.9875 C   0  0  0  0  0  0  0  0  0  0  0  0
   -3.9142   -0.1647   -0.7460 N   0  0  0  0  0  0  0  0  0  0  0  0
   -4.7380   -0.9068   -0.6433 N   0  0  0  0  0  0  0  0  0  0  0  0
   -2.1940    0.4475   -2.1879 C   0  0  0  0  0  0  0  0  0  0  0  0
   -1.1289    1.3738   -2.3870 C   0  0  0  0  0  0  0  0  0  0  0  0
   -0.8174    2.3471   -1.4463 C   0  0  0  0  0  0  0  0  0  0  0  0
    0.3054    3.2769   -1.7108 N   0  0  0  0  0  0  0  0  0  0  0  0
    1.0864    2.9929   -2.6150 O   0  0  0  0  0  0  0  0  0  0  0  0
    0.3749    4.2956   -1.0185 O   0  0  0  0  0  0  0  0  0  0  0  0
   -1.5355    2.5370   -0.2449 C   0  0  0  0  0  0  0  0  0  0  0  0
   -2.6048    1.7043    0.0113 C   0  0  0  0  0  0  0  0  0  0  0  0
   -4.0613    4.2923   -0.1394 H   0  0  0  0  0  0  0  0  0  0  0  0
   -0.5287    1.3387   -3.2926 H   0  0  0  0  0  0  0  0  0  0  0  0
   -1.2347    3.3146    0.4454 H   0  0  0  0  0  0  0  0  0  0  0  0
   -3.2184    1.8025    0.9034 H   0  0  0  0  0  0  0  0  0  0  0  0
   -6.8243    5.2926    1.1508 C   0  0  0  0  0  0  0  0  0  0  0  0
   -6.6836    6.6094    0.7195 C   0  0  0  0  0  0  0  0  0  0  0  0
   -5.7606    7.0292   -0.2910 C   0  0  0  0  0  0  0  0  0  0  0  0
   -4.9782    6.0650   -0.8643 C   0  0  0  0  0  0  0  0  0  0  0  0
   -5.0592    4.6465   -0.4630 C   0  0  0  0  0  0  0  0  0  0  0  0
   -6.0331    4.3030    0.5867 C   0  0  0  0  0  0  0  0  0  0  0  0
   -7.5509    5.0178    1.9086 H   0  0  0  0  0  0  0  0  0  0  0  0
   -7.3174    7.3705    1.1716 H   0  0  0  0  0  0  0  0  0  0  0  0
   -4.2613    6.3271   -1.6387 H   0  0  0  0  0  0  0  0  0  0  0  0
   -5.2346    3.9881   -1.3325 H   0  0  0  0  0  0  0  0  0  0  0  0
   -6.1297    2.5916    1.1743 S   0  0  0  0  0  0  0  0  0  0  0  0
   -7.4546    2.4888    1.8006 O   0  0  0  0  0  0  0  0  0  0  0  0
   -4.9641    2.6236    2.1022 O   0  0  0  0  0  0  0  0  0  0  0  0
   -5.9068    1.7945   -0.0542 O   0  0  0  0  0  0  0  0  0  0  0  0
   -5.6908    8.4844   -0.6803 C   0  0  0  0  0  0  0  0  0  0  0  0
   -6.6592    8.8390   -1.0495 H   0  0  0  0  0  0  0  0  0  0  0  0
   -5.4224    9.1077    0.1795 H   0  0  0  0  0  0  0  0  0  0  0  0
   -4.9477    8.6504   -1.4633 H   0  0  0  0  0  0  0  0  0  0  0  0
  1  2  1  0  0  0  0
  1 11  2  0  0  0  0
  2  3  1  0  0  0  0
  4  1  1  0  0  0  0
  5  4  2  0  0  0  0
  5  6  1  0  0  0  0
  6 10  2  0  0  0  0
  7  6  1  0  0  0  0
  7  9  2  0  0  0  0
  8  7  2  0  0  0  0
 10 11  1  0  0  0  0
 10 14  1  0  0  0  0
 11 15  1  0  0  0  0
 13  5  1  0  0  0  0
 16 22  1  0  0  0  0
 17 16  1  0  0  0  0
 17 23  1  0  0  0  0
 18 17  1  0  0  0  0
 19 20  1  0  0  0  0
 19 18  2  0  0  0  0
 20 12  1  0  0  0  0
 20 21  1  0  0  0  0
 21 16  2  0  0  0  0
 21 26  1  0  0  0  0
 24 19  1  0  0  0  0
 25 20  1  0  0  0  0
 26 27  2  0  0  0  0
 26 28  1  0  0  0  0
 29 26  2  0  0  0  0
 30 18  1  0  0  0  0
 30 32  1  0  0  0  0
 31 30  1  0  0  0  0
 33 30  1  0  0  0  0
M  RAD  5   2   2   3   3   4   2  17   2  28   2
M  END
