Coordinates from ORCA-job 4-NO2PhN2+~TsO-_B3LYPG-6-31G_dp-CH-Scan-d09-49-n800
 OpenBabel11261919033D

 33 33  0  0  0  0  0  0  0  0999 V2000
   -2.8312    0.7095   -0.9965 C   0  0  0  0  0  0  0  0  0  0  0  0
   -3.9184   -0.1571   -0.7509 N   0  0  0  0  0  0  0  0  0  0  0  0
   -4.7566   -0.8822   -0.6436 N   0  0  0  0  0  0  0  0  0  0  0  0
   -2.1725    0.3973   -2.1851 C   0  0  0  0  0  0  0  0  0  0  0  0
   -1.0865    1.2968   -2.3890 C   0  0  0  0  0  0  0  0  0  0  0  0
   -0.7645    2.2791   -1.4612 C   0  0  0  0  0  0  0  0  0  0  0  0
    0.3823    3.1790   -1.7284 N   0  0  0  0  0  0  0  0  0  0  0  0
    1.1604    2.8675   -2.6260 O   0  0  0  0  0  0  0  0  0  0  0  0
    0.4753    4.2005   -1.0434 O   0  0  0  0  0  0  0  0  0  0  0  0
   -1.4908    2.5046   -0.2713 C   0  0  0  0  0  0  0  0  0  0  0  0
   -2.5802    1.6994   -0.0124 C   0  0  0  0  0  0  0  0  0  0  0  0
   -4.0594    4.3654   -0.1083 H   0  0  0  0  0  0  0  0  0  0  0  0
   -0.4773    1.2335   -3.2870 H   0  0  0  0  0  0  0  0  0  0  0  0
   -1.1809    3.2878    0.4085 H   0  0  0  0  0  0  0  0  0  0  0  0
   -3.2003    1.8242    0.8718 H   0  0  0  0  0  0  0  0  0  0  0  0
   -6.8610    5.3009    1.1467 C   0  0  0  0  0  0  0  0  0  0  0  0
   -6.7433    6.6227    0.7228 C   0  0  0  0  0  0  0  0  0  0  0  0
   -5.8157    7.0668   -0.2729 C   0  0  0  0  0  0  0  0  0  0  0  0
   -5.0035    6.1228   -0.8381 C   0  0  0  0  0  0  0  0  0  0  0  0
   -5.0592    4.7006   -0.4443 C   0  0  0  0  0  0  0  0  0  0  0  0
   -6.0405    4.3317    0.5903 C   0  0  0  0  0  0  0  0  0  0  0  0
   -7.5912    5.0068    1.8937 H   0  0  0  0  0  0  0  0  0  0  0  0
   -7.4000    7.3677    1.1691 H   0  0  0  0  0  0  0  0  0  0  0  0
   -4.2814    6.4040   -1.6010 H   0  0  0  0  0  0  0  0  0  0  0  0
   -5.2109    4.0443   -1.3198 H   0  0  0  0  0  0  0  0  0  0  0  0
   -6.1083    2.6152    1.1671 S   0  0  0  0  0  0  0  0  0  0  0  0
   -7.4261    2.4894    1.8040 O   0  0  0  0  0  0  0  0  0  0  0  0
   -4.9345    2.6530    2.0840 O   0  0  0  0  0  0  0  0  0  0  0  0
   -5.8865    1.8315   -0.0706 O   0  0  0  0  0  0  0  0  0  0  0  0
   -5.7730    8.5248   -0.6557 C   0  0  0  0  0  0  0  0  0  0  0  0
   -6.7432    8.8584   -1.0396 H   0  0  0  0  0  0  0  0  0  0  0  0
   -5.5335    9.1507    0.2107 H   0  0  0  0  0  0  0  0  0  0  0  0
   -5.0213    8.7112   -1.4257 H   0  0  0  0  0  0  0  0  0  0  0  0
  1  2  1  0  0  0  0
  1 11  2  0  0  0  0
  2  3  1  0  0  0  0
  4  1  1  0  0  0  0
  5  4  2  0  0  0  0
  5  6  1  0  0  0  0
  6 10  2  0  0  0  0
  7  6  1  0  0  0  0
  7  9  2  0  0  0  0
  8  7  2  0  0  0  0
 10 11  1  0  0  0  0
 10 14  1  0  0  0  0
 11 15  1  0  0  0  0
 13  5  1  0  0  0  0
 16 22  1  0  0  0  0
 17 16  1  0  0  0  0
 17 23  1  0  0  0  0
 18 17  1  0  0  0  0
 19 20  1  0  0  0  0
 19 18  2  0  0  0  0
 20 12  1  0  0  0  0
 20 21  1  0  0  0  0
 21 16  2  0  0  0  0
 21 26  1  0  0  0  0
 24 19  1  0  0  0  0
 25 20  1  0  0  0  0
 26 27  2  0  0  0  0
 26 28  1  0  0  0  0
 29 26  2  0  0  0  0
 30 18  1  0  0  0  0
 30 32  1  0  0  0  0
 31 30  1  0  0  0  0
 33 30  1  0  0  0  0
M  RAD  5   2   2   3   3   4   2  17   2  28   2
M  END
