Coordinates from ORCA-job 4-NO2PhN2+~TsO-_B3LYPG-6-31G_dp-CH-Scan-d09-49-n800
 OpenBabel11261919033D

 33 33  0  0  0  0  0  0  0  0999 V2000
   -2.8834    0.7734   -0.9663 C   0  0  0  0  0  0  0  0  0  0  0  0
   -3.9058   -0.1755   -0.7393 N   0  0  0  0  0  0  0  0  0  0  0  0
   -4.6938   -0.9572   -0.6511 N   0  0  0  0  0  0  0  0  0  0  0  0
   -2.2655    0.5876   -2.2020 C   0  0  0  0  0  0  0  0  0  0  0  0
   -1.2507    1.5748   -2.3836 C   0  0  0  0  0  0  0  0  0  0  0  0
   -0.9535    2.5140   -1.4051 C   0  0  0  0  0  0  0  0  0  0  0  0
    0.1071    3.5161   -1.6598 N   0  0  0  0  0  0  0  0  0  0  0  0
    0.8861    3.3073   -2.5858 O   0  0  0  0  0  0  0  0  0  0  0  0
    0.1304    4.5140   -0.9345 O   0  0  0  0  0  0  0  0  0  0  0  0
   -1.6355    2.6054   -0.1710 C   0  0  0  0  0  0  0  0  0  0  0  0
   -2.6525    1.7062    0.0761 C   0  0  0  0  0  0  0  0  0  0  0  0
   -4.0649    4.1218   -0.2069 H   0  0  0  0  0  0  0  0  0  0  0  0
   -0.6814    1.6157   -3.3090 H   0  0  0  0  0  0  0  0  0  0  0  0
   -1.3481    3.3603    0.5494 H   0  0  0  0  0  0  0  0  0  0  0  0
   -3.2402    1.7320    0.9901 H   0  0  0  0  0  0  0  0  0  0  0  0
   -6.7309    5.2701    1.1556 C   0  0  0  0  0  0  0  0  0  0  0  0
   -6.5364    6.5729    0.7049 C   0  0  0  0  0  0  0  0  0  0  0  0
   -5.6271    6.9345   -0.3400 C   0  0  0  0  0  0  0  0  0  0  0  0
   -4.9167    5.9247   -0.9286 C   0  0  0  0  0  0  0  0  0  0  0  0
   -5.0563    4.5181   -0.5062 C   0  0  0  0  0  0  0  0  0  0  0  0
   -6.0109    4.2347    0.5768 C   0  0  0  0  0  0  0  0  0  0  0  0
   -7.4468    5.0417    1.9384 H   0  0  0  0  0  0  0  0  0  0  0  0
   -7.1151    7.3703    1.1679 H   0  0  0  0  0  0  0  0  0  0  0  0
   -4.2138    6.1414   -1.7293 H   0  0  0  0  0  0  0  0  0  0  0  0
   -5.2828    3.8540   -1.3593 H   0  0  0  0  0  0  0  0  0  0  0  0
   -6.1745    2.5374    1.1913 S   0  0  0  0  0  0  0  0  0  0  0  0
   -7.5131    2.4914    1.7952 O   0  0  0  0  0  0  0  0  0  0  0  0
   -5.0263    2.5548    2.1415 O   0  0  0  0  0  0  0  0  0  0  0  0
   -5.9553    1.7082   -0.0156 O   0  0  0  0  0  0  0  0  0  0  0  0
   -5.4930    8.3802   -0.7474 C   0  0  0  0  0  0  0  0  0  0  0  0
   -6.4546    8.7860   -1.0793 H   0  0  0  0  0  0  0  0  0  0  0  0
   -5.1527    8.9944    0.0935 H   0  0  0  0  0  0  0  0  0  0  0  0
   -4.7757    8.4970   -1.5628 H   0  0  0  0  0  0  0  0  0  0  0  0
  1  2  1  0  0  0  0
  1 11  2  0  0  0  0
  2  3  1  0  0  0  0
  4  1  1  0  0  0  0
  5  4  2  0  0  0  0
  5  6  1  0  0  0  0
  6 10  2  0  0  0  0
  7  6  1  0  0  0  0
  7  9  2  0  0  0  0
  8  7  2  0  0  0  0
 10 11  1  0  0  0  0
 10 14  1  0  0  0  0
 11 15  1  0  0  0  0
 13  5  1  0  0  0  0
 16 22  1  0  0  0  0
 17 16  1  0  0  0  0
 17 23  1  0  0  0  0
 18 17  1  0  0  0  0
 19 20  1  0  0  0  0
 19 18  2  0  0  0  0
 20 12  1  0  0  0  0
 20 21  1  0  0  0  0
 21 16  2  0  0  0  0
 21 26  1  0  0  0  0
 24 19  1  0  0  0  0
 25 20  1  0  0  0  0
 26 27  2  0  0  0  0
 26 28  1  0  0  0  0
 29 26  2  0  0  0  0
 30 18  1  0  0  0  0
 30 32  1  0  0  0  0
 31 30  1  0  0  0  0
 33 30  1  0  0  0  0
M  RAD  5   2   2   3   3   4   2  17   2  28   2
M  END
