Coordinates from ORCA-job 4-NO2PhN2+~TsO-_B3LYPG-6-31G_dp-CH-Scan-d09-49-n800
 OpenBabel11261919033D

 33 33  0  0  0  0  0  0  0  0999 V2000
   -2.8960    0.7894   -0.9611 C   0  0  0  0  0  0  0  0  0  0  0  0
   -3.9046   -0.1767   -0.7418 N   0  0  0  0  0  0  0  0  0  0  0  0
   -4.6813   -0.9704   -0.6609 N   0  0  0  0  0  0  0  0  0  0  0  0
   -2.2935    0.6380   -2.2090 C   0  0  0  0  0  0  0  0  0  0  0  0
   -1.2937    1.6428   -2.3815 C   0  0  0  0  0  0  0  0  0  0  0  0
   -0.9984    2.5672   -1.3887 C   0  0  0  0  0  0  0  0  0  0  0  0
    0.0418    3.5918   -1.6375 N   0  0  0  0  0  0  0  0  0  0  0  0
    0.8150    3.4120   -2.5743 O   0  0  0  0  0  0  0  0  0  0  0  0
    0.0542    4.5785   -0.8966 O   0  0  0  0  0  0  0  0  0  0  0  0
   -1.6647    2.6230   -0.1438 C   0  0  0  0  0  0  0  0  0  0  0  0
   -2.6644    1.7029    0.0980 C   0  0  0  0  0  0  0  0  0  0  0  0
   -4.0672    4.0685   -0.2303 H   0  0  0  0  0  0  0  0  0  0  0  0
   -0.7358    1.7101   -3.3124 H   0  0  0  0  0  0  0  0  0  0  0  0
   -1.3792    3.3674    0.5881 H   0  0  0  0  0  0  0  0  0  0  0  0
   -3.2409    1.7022    1.0192 H   0  0  0  0  0  0  0  0  0  0  0  0
   -6.6979    5.2632    1.1574 C   0  0  0  0  0  0  0  0  0  0  0  0
   -6.4875    6.5608    0.6995 C   0  0  0  0  0  0  0  0  0  0  0  0
   -5.5852    6.9036   -0.3578 C   0  0  0  0  0  0  0  0  0  0  0  0
   -4.8995    5.8799   -0.9516 C   0  0  0  0  0  0  0  0  0  0  0  0
   -5.0564    4.4779   -0.5214 C   0  0  0  0  0  0  0  0  0  0  0  0
   -6.0023    4.2138    0.5735 C   0  0  0  0  0  0  0  0  0  0  0  0
   -7.4083    5.0498    1.9495 H   0  0  0  0  0  0  0  0  0  0  0  0
   -7.0472    7.3693    1.1664 H   0  0  0  0  0  0  0  0  0  0  0  0
   -4.2031    6.0821   -1.7618 H   0  0  0  0  0  0  0  0  0  0  0  0
   -5.2999    3.8120   -1.3683 H   0  0  0  0  0  0  0  0  0  0  0  0
   -6.1856    2.5219    1.1977 S   0  0  0  0  0  0  0  0  0  0  0  0
   -7.5269    2.4941    1.7967 O   0  0  0  0  0  0  0  0  0  0  0  0
   -5.0411    2.5351    2.1525 O   0  0  0  0  0  0  0  0  0  0  0  0
   -5.9702    1.6820   -0.0024 O   0  0  0  0  0  0  0  0  0  0  0  0
   -5.4315    8.3454   -0.7720 C   0  0  0  0  0  0  0  0  0  0  0  0
   -6.3906    8.7675   -1.0908 H   0  0  0  0  0  0  0  0  0  0  0  0
   -5.0674    8.9559    0.0616 H   0  0  0  0  0  0  0  0  0  0  0  0
   -4.7246    8.4467   -1.5985 H   0  0  0  0  0  0  0  0  0  0  0  0
  1  2  1  0  0  0  0
  1 11  2  0  0  0  0
  2  3  1  0  0  0  0
  4  1  1  0  0  0  0
  5  4  2  0  0  0  0
  5  6  1  0  0  0  0
  6 10  2  0  0  0  0
  7  6  1  0  0  0  0
  7  9  2  0  0  0  0
  8  7  2  0  0  0  0
 10 11  1  0  0  0  0
 10 14  1  0  0  0  0
 11 15  1  0  0  0  0
 13  5  1  0  0  0  0
 16 22  1  0  0  0  0
 17 16  1  0  0  0  0
 17 23  1  0  0  0  0
 18 17  1  0  0  0  0
 19 20  1  0  0  0  0
 19 18  2  0  0  0  0
 20 12  1  0  0  0  0
 20 21  1  0  0  0  0
 21 16  2  0  0  0  0
 21 26  1  0  0  0  0
 24 19  1  0  0  0  0
 25 20  1  0  0  0  0
 26 27  2  0  0  0  0
 26 28  1  0  0  0  0
 29 26  2  0  0  0  0
 30 18  1  0  0  0  0
 30 32  1  0  0  0  0
 31 30  1  0  0  0  0
 33 30  1  0  0  0  0
M  RAD  5   2   2   3   3   4   2  17   2  28   2
M  END
