Coordinates from ORCA-job 4-NO2PhN2+~TsO-_B3LYPG-6-31G_dp-CH-Scan-d09-49-n800
 OpenBabel11261919023D

 33 33  0  0  0  0  0  0  0  0999 V2000
   -2.7956    1.0771   -0.2514 C   0  0  0  0  0  0  0  0  0  0  0  0
   -3.8909    0.2742    0.1915 N   0  0  0  0  0  0  0  0  0  0  0  0
   -5.0078    0.6974    0.4137 N   0  0  0  0  0  0  0  0  0  0  0  0
   -2.6703    1.4734   -1.5758 C   0  0  0  0  0  0  0  0  0  0  0  0
   -1.5741    2.1544   -2.0577 C   0  0  0  0  0  0  0  0  0  0  0  0
   -0.5570    2.4378   -1.1405 C   0  0  0  0  0  0  0  0  0  0  0  0
    0.6318    3.1689   -1.6080 N   0  0  0  0  0  0  0  0  0  0  0  0
    0.6658    3.4987   -2.7924 O   0  0  0  0  0  0  0  0  0  0  0  0
    1.5139    3.4044   -0.7839 O   0  0  0  0  0  0  0  0  0  0  0  0
   -0.6295    2.0477    0.1958 C   0  0  0  0  0  0  0  0  0  0  0  0
   -1.7490    1.3501    0.6404 C   0  0  0  0  0  0  0  0  0  0  0  0
   -3.9844    1.0680   -2.6598 H   0  0  0  0  0  0  0  0  0  0  0  0
   -1.4802    2.4677   -3.0885 H   0  0  0  0  0  0  0  0  0  0  0  0
    0.1887    2.2867    0.8632 H   0  0  0  0  0  0  0  0  0  0  0  0
   -1.8250    1.0204    1.6709 H   0  0  0  0  0  0  0  0  0  0  0  0
   -6.0092    5.2385    1.2381 C   0  0  0  0  0  0  0  0  0  0  0  0
   -5.7854    6.5857    0.9656 C   0  0  0  0  0  0  0  0  0  0  0  0
   -5.9409    7.1001   -0.3304 C   0  0  0  0  0  0  0  0  0  0  0  0
   -6.3292    6.2268   -1.3581 C   0  0  0  0  0  0  0  0  0  0  0  0
   -6.5585    4.8767   -1.1083 C   0  0  0  0  0  0  0  0  0  0  0  0
   -6.3906    4.3964    0.1921 C   0  0  0  0  0  0  0  0  0  0  0  0
   -5.8993    4.8424    2.2415 H   0  0  0  0  0  0  0  0  0  0  0  0
   -5.4873    7.2498    1.7718 H   0  0  0  0  0  0  0  0  0  0  0  0
   -6.4573    6.6108   -2.3663 H   0  0  0  0  0  0  0  0  0  0  0  0
   -6.8703    4.2038   -1.8993 H   0  0  0  0  0  0  0  0  0  0  0  0
   -6.6862    2.6755    0.5269 S   0  0  0  0  0  0  0  0  0  0  0  0
   -6.9417    2.4761    1.9479 O   0  0  0  0  0  0  0  0  0  0  0  0
   -5.1003    2.1610    0.2074 O   0  0  0  0  0  0  0  0  0  0  0  0
   -7.5518    2.1047   -0.4975 O   0  0  0  0  0  0  0  0  0  0  0  0
   -5.7264    8.5677   -0.6083 C   0  0  0  0  0  0  0  0  0  0  0  0
   -6.6702    9.1208   -0.5272 H   0  0  0  0  0  0  0  0  0  0  0  0
   -5.0247    9.0124    0.1030 H   0  0  0  0  0  0  0  0  0  0  0  0
   -5.3405    8.7314   -1.6186 H   0  0  0  0  0  0  0  0  0  0  0  0
  1  2  1  0  0  0  0
  1 11  2  0  0  0  0
  2  3  1  0  0  0  0
  4  1  1  0  0  0  0
  5  4  2  0  0  0  0
  5  6  1  0  0  0  0
  6 10  2  0  0  0  0
  7  6  1  0  0  0  0
  7  9  2  0  0  0  0
  8  7  2  0  0  0  0
 10 11  1  0  0  0  0
 10 14  1  0  0  0  0
 11 15  1  0  0  0  0
 13  5  1  0  0  0  0
 16 22  1  0  0  0  0
 17 16  1  0  0  0  0
 17 23  1  0  0  0  0
 18 17  2  0  0  0  0
 19 20  2  0  0  0  0
 19 18  1  0  0  0  0
 20 21  1  0  0  0  0
 21 26  1  0  0  0  0
 21 16  2  0  0  0  0
 24 19  1  0  0  0  0
 25 20  1  0  0  0  0
 26 27  2  0  0  0  0
 28  3  1  0  0  0  0
 28 26  1  0  0  0  0
 29 26  2  0  0  0  0
 30 31  1  0  0  0  0
 30 18  1  0  0  0  0
 30 32  1  0  0  0  0
 33 30  1  0  0  0  0
M  RAD  4   2   2   3   2   4   2  12   2
M  END
