Coordinates from ORCA-job 4-NO2PhN2+~TsO-_B3LYPG-6-31G_dp-CH-Scan-d09-49-n800
 OpenBabel11261919023D

 33 33  0  0  0  0  0  0  0  0999 V2000
   -2.7839    1.0883   -0.2459 C   0  0  0  0  0  0  0  0  0  0  0  0
   -3.8829    0.2680    0.1590 N   0  0  0  0  0  0  0  0  0  0  0  0
   -4.9956    0.7007    0.4036 N   0  0  0  0  0  0  0  0  0  0  0  0
   -2.6555    1.6390   -1.5008 C   0  0  0  0  0  0  0  0  0  0  0  0
   -1.5894    2.3424   -1.9823 C   0  0  0  0  0  0  0  0  0  0  0  0
   -0.5260    2.4873   -1.0769 C   0  0  0  0  0  0  0  0  0  0  0  0
    0.6695    3.2316   -1.5118 N   0  0  0  0  0  0  0  0  0  0  0  0
    0.6681    3.6886   -2.6528 O   0  0  0  0  0  0  0  0  0  0  0  0
    1.5876    3.3471   -0.7025 O   0  0  0  0  0  0  0  0  0  0  0  0
   -0.5633    1.9478    0.2086 C   0  0  0  0  0  0  0  0  0  0  0  0
   -1.6856    1.2350    0.6218 C   0  0  0  0  0  0  0  0  0  0  0  0
   -4.7639    1.2109   -3.1441 H   0  0  0  0  0  0  0  0  0  0  0  0
   -1.5286    2.7666   -2.9765 H   0  0  0  0  0  0  0  0  0  0  0  0
    0.2875    2.0858    0.8635 H   0  0  0  0  0  0  0  0  0  0  0  0
   -1.7338    0.7945    1.6127 H   0  0  0  0  0  0  0  0  0  0  0  0
   -6.0215    5.2660    1.2570 C   0  0  0  0  0  0  0  0  0  0  0  0
   -5.8028    6.6048    0.9403 C   0  0  0  0  0  0  0  0  0  0  0  0
   -5.9288    7.0690   -0.3774 C   0  0  0  0  0  0  0  0  0  0  0  0
   -6.2812    6.1541   -1.3823 C   0  0  0  0  0  0  0  0  0  0  0  0
   -6.5058    4.8124   -1.0890 C   0  0  0  0  0  0  0  0  0  0  0  0
   -6.3687    4.3832    0.2334 C   0  0  0  0  0  0  0  0  0  0  0  0
   -5.9332    4.9073    2.2765 H   0  0  0  0  0  0  0  0  0  0  0  0
   -5.5317    7.3012    1.7286 H   0  0  0  0  0  0  0  0  0  0  0  0
   -6.3844    6.4990   -2.4073 H   0  0  0  0  0  0  0  0  0  0  0  0
   -6.7873    4.1074   -1.8632 H   0  0  0  0  0  0  0  0  0  0  0  0
   -6.6604    2.6747    0.6230 S   0  0  0  0  0  0  0  0  0  0  0  0
   -6.8701    2.5112    2.0558 O   0  0  0  0  0  0  0  0  0  0  0  0
   -5.0725    2.1507    0.2730 O   0  0  0  0  0  0  0  0  0  0  0  0
   -7.5495    2.0733   -0.3609 O   0  0  0  0  0  0  0  0  0  0  0  0
   -5.7199    8.5269   -0.7060 C   0  0  0  0  0  0  0  0  0  0  0  0
   -6.6770    9.0621   -0.7232 H   0  0  0  0  0  0  0  0  0  0  0  0
   -5.0830    9.0183    0.0347 H   0  0  0  0  0  0  0  0  0  0  0  0
   -5.2601    8.6523   -1.6907 H   0  0  0  0  0  0  0  0  0  0  0  0
  1  2  1  0  0  0  0
  1 11  2  0  0  0  0
  2  3  1  0  0  0  0
  4  1  1  0  0  0  0
  5  4  2  0  0  0  0
  5  6  1  0  0  0  0
  6 10  2  0  0  0  0
  7  6  1  0  0  0  0
  7  9  2  0  0  0  0
  8  7  2  0  0  0  0
 10 11  1  0  0  0  0
 10 14  1  0  0  0  0
 11 15  1  0  0  0  0
 13  5  1  0  0  0  0
 16 22  1  0  0  0  0
 17 16  1  0  0  0  0
 17 23  1  0  0  0  0
 18 17  2  0  0  0  0
 19 20  2  0  0  0  0
 19 18  1  0  0  0  0
 20 21  1  0  0  0  0
 21 26  1  0  0  0  0
 21 16  2  0  0  0  0
 24 19  1  0  0  0  0
 25 20  1  0  0  0  0
 26 27  2  0  0  0  0
 28  3  1  0  0  0  0
 28 26  1  0  0  0  0
 29 26  2  0  0  0  0
 30 18  1  0  0  0  0
 30 32  1  0  0  0  0
 31 30  1  0  0  0  0
 33 30  1  0  0  0  0
M  RAD  4   2   2   3   2   4   2  12   2
M  END
