Coordinates from ORCA-job 4-NO2PhN2+~TsO-_B3LYPG-6-31G_dp-CH-Scan-d09-49-n800
 OpenBabel11261919023D

 33 33  0  0  0  0  0  0  0  0999 V2000
   -2.7913    1.0789   -0.2412 C   0  0  0  0  0  0  0  0  0  0  0  0
   -3.8857    0.2796    0.2100 N   0  0  0  0  0  0  0  0  0  0  0  0
   -5.0042    0.7007    0.4263 N   0  0  0  0  0  0  0  0  0  0  0  0
   -2.6790    1.4782   -1.5671 C   0  0  0  0  0  0  0  0  0  0  0  0
   -1.5807    2.1555   -2.0524 C   0  0  0  0  0  0  0  0  0  0  0  0
   -0.5549    2.4316   -1.1433 C   0  0  0  0  0  0  0  0  0  0  0  0
    0.6332    3.1589   -1.6182 N   0  0  0  0  0  0  0  0  0  0  0  0
    0.6589    3.4926   -2.8018 O   0  0  0  0  0  0  0  0  0  0  0  0
    1.5230    3.3885   -0.8007 O   0  0  0  0  0  0  0  0  0  0  0  0
   -0.6175    2.0373    0.1922 C   0  0  0  0  0  0  0  0  0  0  0  0
   -1.7364    1.3427    0.6431 C   0  0  0  0  0  0  0  0  0  0  0  0
   -3.9607    1.0965   -2.6102 H   0  0  0  0  0  0  0  0  0  0  0  0
   -1.4930    2.4720   -3.0828 H   0  0  0  0  0  0  0  0  0  0  0  0
    0.2073    2.2702    0.8536 H   0  0  0  0  0  0  0  0  0  0  0  0
   -1.8053    1.0089    1.6726 H   0  0  0  0  0  0  0  0  0  0  0  0
   -6.0170    5.2378    1.2338 C   0  0  0  0  0  0  0  0  0  0  0  0
   -5.7935    6.5857    0.9649 C   0  0  0  0  0  0  0  0  0  0  0  0
   -5.9456    7.1028   -0.3305 C   0  0  0  0  0  0  0  0  0  0  0  0
   -6.3303    6.2314   -1.3612 C   0  0  0  0  0  0  0  0  0  0  0  0
   -6.5591    4.8805   -1.1149 C   0  0  0  0  0  0  0  0  0  0  0  0
   -6.3945    4.3975    0.1849 C   0  0  0  0  0  0  0  0  0  0  0  0
   -5.9098    4.8397    2.2367 H   0  0  0  0  0  0  0  0  0  0  0  0
   -5.4982    7.2483    1.7734 H   0  0  0  0  0  0  0  0  0  0  0  0
   -6.4557    6.6175   -2.3689 H   0  0  0  0  0  0  0  0  0  0  0  0
   -6.8681    4.2091   -1.9082 H   0  0  0  0  0  0  0  0  0  0  0  0
   -6.6893    2.6755    0.5153 S   0  0  0  0  0  0  0  0  0  0  0  0
   -6.9555    2.4741    1.9341 O   0  0  0  0  0  0  0  0  0  0  0  0
   -5.1013    2.1643    0.2065 O   0  0  0  0  0  0  0  0  0  0  0  0
   -7.5468    2.1048   -0.5161 O   0  0  0  0  0  0  0  0  0  0  0  0
   -5.7315    8.5712   -0.6044 C   0  0  0  0  0  0  0  0  0  0  0  0
   -6.6747    9.1245   -0.5177 H   0  0  0  0  0  0  0  0  0  0  0  0
   -5.0269    9.0132    0.1057 H   0  0  0  0  0  0  0  0  0  0  0  0
   -5.3494    8.7382   -1.6155 H   0  0  0  0  0  0  0  0  0  0  0  0
  1  2  1  0  0  0  0
  1 11  2  0  0  0  0
  2  3  1  0  0  0  0
  4  1  1  0  0  0  0
  5  4  2  0  0  0  0
  5  6  1  0  0  0  0
  6 10  2  0  0  0  0
  7  6  1  0  0  0  0
  7  9  2  0  0  0  0
  8  7  2  0  0  0  0
 10 11  1  0  0  0  0
 10 14  1  0  0  0  0
 11 15  1  0  0  0  0
 13  5  1  0  0  0  0
 16 22  1  0  0  0  0
 17 16  1  0  0  0  0
 17 23  1  0  0  0  0
 18 17  2  0  0  0  0
 19 20  2  0  0  0  0
 19 18  1  0  0  0  0
 20 21  1  0  0  0  0
 21 26  1  0  0  0  0
 21 16  2  0  0  0  0
 24 19  1  0  0  0  0
 25 20  1  0  0  0  0
 26 27  2  0  0  0  0
 28  3  1  0  0  0  0
 28 26  1  0  0  0  0
 29 26  2  0  0  0  0
 30 31  1  0  0  0  0
 30 18  1  0  0  0  0
 30 32  1  0  0  0  0
 33 30  1  0  0  0  0
M  RAD  4   2   2   3   2   4   2  12   2
M  END
