Coordinates from ORCA-job 4-NO2PhN2+~TsO-_B3LYPG-6-31G_dp-CH-Scan-d09-49-n800
 OpenBabel11261919023D

 33 33  0  0  0  0  0  0  0  0999 V2000
   -2.9939    0.8754   -0.9776 C   0  0  0  0  0  0  0  0  0  0  0  0
   -3.9579   -0.1484   -0.8145 N   0  0  0  0  0  0  0  0  0  0  0  0
   -4.7006   -0.9769   -0.7854 N   0  0  0  0  0  0  0  0  0  0  0  0
   -2.5185    0.9354   -2.2862 C   0  0  0  0  0  0  0  0  0  0  0  0
   -1.5613    1.9898   -2.3965 C   0  0  0  0  0  0  0  0  0  0  0  0
   -1.2008    2.7763   -1.3104 C   0  0  0  0  0  0  0  0  0  0  0  0
   -0.2287    3.8772   -1.5040 N   0  0  0  0  0  0  0  0  0  0  0  0
    0.4628    3.8635   -2.5183 O   0  0  0  0  0  0  0  0  0  0  0  0
   -0.1963    4.7608   -0.6435 O   0  0  0  0  0  0  0  0  0  0  0  0
   -1.7446    2.6244   -0.0147 C   0  0  0  0  0  0  0  0  0  0  0  0
   -2.6862    1.6331    0.1791 C   0  0  0  0  0  0  0  0  0  0  0  0
   -3.9945    3.9164   -0.1863 H   0  0  0  0  0  0  0  0  0  0  0  0
   -1.0921    2.2099   -3.3524 H   0  0  0  0  0  0  0  0  0  0  0  0
   -1.4192    3.2729    0.7883 H   0  0  0  0  0  0  0  0  0  0  0  0
   -3.1820    1.4888    1.1340 H   0  0  0  0  0  0  0  0  0  0  0  0
   -6.5901    5.2307    1.1234 C   0  0  0  0  0  0  0  0  0  0  0  0
   -6.3365    6.5019    0.6154 C   0  0  0  0  0  0  0  0  0  0  0  0
   -5.4245    6.7728   -0.4535 C   0  0  0  0  0  0  0  0  0  0  0  0
   -4.7743    5.7033   -1.0061 C   0  0  0  0  0  0  0  0  0  0  0  0
   -4.9733    4.3277   -0.5169 C   0  0  0  0  0  0  0  0  0  0  0  0
   -5.9309    4.1363    0.5811 C   0  0  0  0  0  0  0  0  0  0  0  0
   -7.3068    5.0724    1.9226 H   0  0  0  0  0  0  0  0  0  0  0  0
   -6.8683    7.3461    1.0506 H   0  0  0  0  0  0  0  0  0  0  0  0
   -4.0718    5.8496   -1.8229 H   0  0  0  0  0  0  0  0  0  0  0  0
   -5.2086    3.6236   -1.3339 H   0  0  0  0  0  0  0  0  0  0  0  0
   -6.1708    2.4774    1.2744 S   0  0  0  0  0  0  0  0  0  0  0  0
   -7.5072    2.5256    1.8836 O   0  0  0  0  0  0  0  0  0  0  0  0
   -5.0178    2.4808    2.2181 O   0  0  0  0  0  0  0  0  0  0  0  0
   -6.0022    1.5822    0.1067 O   0  0  0  0  0  0  0  0  0  0  0  0
   -5.2220    8.1907   -0.9249 C   0  0  0  0  0  0  0  0  0  0  0  0
   -6.1659    8.6321   -1.2623 H   0  0  0  0  0  0  0  0  0  0  0  0
   -4.8374    8.8213   -0.1159 H   0  0  0  0  0  0  0  0  0  0  0  0
   -4.5114    8.2345   -1.7534 H   0  0  0  0  0  0  0  0  0  0  0  0
  1  2  1  0  0  0  0
  1 11  2  0  0  0  0
  2  3  1  0  0  0  0
  4  1  1  0  0  0  0
  5  4  2  0  0  0  0
  5  6  1  0  0  0  0
  6 10  2  0  0  0  0
  7  6  1  0  0  0  0
  7  9  2  0  0  0  0
  8  7  2  0  0  0  0
 10 11  1  0  0  0  0
 10 14  1  0  0  0  0
 11 15  1  0  0  0  0
 13  5  1  0  0  0  0
 16 22  1  0  0  0  0
 17 23  1  0  0  0  0
 17 16  1  0  0  0  0
 18 17  1  0  0  0  0
 19 20  1  0  0  0  0
 19 18  2  0  0  0  0
 20 12  1  0  0  0  0
 20 21  1  0  0  0  0
 21 16  2  0  0  0  0
 21 26  1  0  0  0  0
 24 19  1  0  0  0  0
 25 20  1  0  0  0  0
 26 27  2  0  0  0  0
 26 28  1  0  0  0  0
 29 26  2  0  0  0  0
 30 18  1  0  0  0  0
 30 32  1  0  0  0  0
 31 30  1  0  0  0  0
 33 30  1  0  0  0  0
M  RAD  5   2   2   3   3   4   2  17   2  28   2
M  END
