Coordinates from ORCA-job 4-NO2PhN2+~TsO-_B3LYPG-6-31G_dp-CH-Scan-d09-49-n800
 OpenBabel11261919023D

 33 33  0  0  0  0  0  0  0  0999 V2000
   -2.7513    1.1671   -0.9115 C   0  0  0  0  0  0  0  0  0  0  0  0
   -3.9683    0.4477   -0.8225 N   0  0  0  0  0  0  0  0  0  0  0  0
   -4.9110   -0.1430   -0.8666 N   0  0  0  0  0  0  0  0  0  0  0  0
   -2.4062    1.4554   -2.2290 C   0  0  0  0  0  0  0  0  0  0  0  0
   -1.1632    2.1441   -2.2731 C   0  0  0  0  0  0  0  0  0  0  0  0
   -0.4442    2.4279   -1.1178 C   0  0  0  0  0  0  0  0  0  0  0  0
    0.8529    3.1418   -1.2300 N   0  0  0  0  0  0  0  0  0  0  0  0
    1.2551    3.4264   -2.3558 O   0  0  0  0  0  0  0  0  0  0  0  0
    1.4473    3.4138   -0.1865 O   0  0  0  0  0  0  0  0  0  0  0  0
   -0.8832    2.0976    0.1809 C   0  0  0  0  0  0  0  0  0  0  0  0
   -2.0919    1.4476    0.3086 C   0  0  0  0  0  0  0  0  0  0  0  0
   -4.9877    3.8962   -1.1656 H   0  0  0  0  0  0  0  0  0  0  0  0
   -0.7408    2.4673   -3.2205 H   0  0  0  0  0  0  0  0  0  0  0  0
   -0.2806    2.3684    1.0373 H   0  0  0  0  0  0  0  0  0  0  0  0
   -2.5265    1.2013    1.2706 H   0  0  0  0  0  0  0  0  0  0  0  0
   -6.3975    5.3200    1.3507 C   0  0  0  0  0  0  0  0  0  0  0  0
   -6.2727    6.6114    0.8420 C   0  0  0  0  0  0  0  0  0  0  0  0
   -5.9658    6.9081   -0.5243 C   0  0  0  0  0  0  0  0  0  0  0  0
   -5.7970    5.8497   -1.3738 C   0  0  0  0  0  0  0  0  0  0  0  0
   -5.9126    4.4495   -0.9180 C   0  0  0  0  0  0  0  0  0  0  0  0
   -6.2179    4.2350    0.5074 C   0  0  0  0  0  0  0  0  0  0  0  0
   -6.6465    5.1409    2.3914 H   0  0  0  0  0  0  0  0  0  0  0  0
   -6.4222    7.4502    1.5198 H   0  0  0  0  0  0  0  0  0  0  0  0
   -5.5652    6.0182   -2.4224 H   0  0  0  0  0  0  0  0  0  0  0  0
   -6.6555    3.8919   -1.5165 H   0  0  0  0  0  0  0  0  0  0  0  0
   -6.3119    2.5371    1.1356 S   0  0  0  0  0  0  0  0  0  0  0  0
   -7.0230    2.6550    2.4167 O   0  0  0  0  0  0  0  0  0  0  0  0
   -4.8487    2.2576    1.2295 O   0  0  0  0  0  0  0  0  0  0  0  0
   -6.9967    1.8132    0.0440 O   0  0  0  0  0  0  0  0  0  0  0  0
   -5.8476    8.3447   -0.9676 C   0  0  0  0  0  0  0  0  0  0  0  0
   -6.7836    8.8878   -0.7959 H   0  0  0  0  0  0  0  0  0  0  0  0
   -5.0622    8.8643   -0.4085 H   0  0  0  0  0  0  0  0  0  0  0  0
   -5.6072    8.4135   -2.0308 H   0  0  0  0  0  0  0  0  0  0  0  0
  1  2  1  0  0  0  0
  1 11  2  0  0  0  0
  3  2  1  0  0  0  0
  4  1  1  0  0  0  0
  5  4  2  0  0  0  0
  5  6  1  0  0  0  0
  6 10  2  0  0  0  0
  7  6  1  0  0  0  0
  7  9  2  0  0  0  0
  8  7  2  0  0  0  0
 10 11  1  0  0  0  0
 10 14  1  0  0  0  0
 11 15  1  0  0  0  0
 12 20  1  0  0  0  0
 13  5  1  0  0  0  0
 16 22  1  0  0  0  0
 17 16  1  0  0  0  0
 17 23  1  0  0  0  0
 18 17  1  0  0  0  0
 19 20  1  0  0  0  0
 19 18  2  0  0  0  0
 20 21  1  0  0  0  0
 21 26  1  0  0  0  0
 21 16  2  0  0  0  0
 24 19  1  0  0  0  0
 25 20  1  0  0  0  0
 26 28  2  0  0  0  0
 26 27  1  0  0  0  0
 29 26  2  0  0  0  0
 30 31  1  0  0  0  0
 30 18  1  0  0  0  0
 30 32  1  0  0  0  0
 33 30  1  0  0  0  0
M  RAD  5   2   2   3   3   4   2  17   2  27   2
M  END
