Coordinates from ORCA-job 4-NO2PhN2+~TsO-_B3LYPG-6-31G_dp-CH-Scan-d09-49-n800
 OpenBabel11261919033D

 33 33  0  0  0  0  0  0  0  0999 V2000
   -2.8302    0.7082   -0.9973 C   0  0  0  0  0  0  0  0  0  0  0  0
   -3.9188   -0.1564   -0.7515 N   0  0  0  0  0  0  0  0  0  0  0  0
   -4.7582   -0.8802   -0.6439 N   0  0  0  0  0  0  0  0  0  0  0  0
   -2.1710    0.3934   -2.1850 C   0  0  0  0  0  0  0  0  0  0  0  0
   -1.0833    1.2907   -2.3892 C   0  0  0  0  0  0  0  0  0  0  0  0
   -0.7604    2.2737   -1.4624 C   0  0  0  0  0  0  0  0  0  0  0  0
    0.3883    3.1711   -1.7298 N   0  0  0  0  0  0  0  0  0  0  0  0
    1.1661    2.8574   -2.6269 O   0  0  0  0  0  0  0  0  0  0  0  0
    0.4830    4.1930   -1.0455 O   0  0  0  0  0  0  0  0  0  0  0  0
   -1.4872    2.5019   -0.2733 C   0  0  0  0  0  0  0  0  0  0  0  0
   -2.5782    1.6989   -0.0143 C   0  0  0  0  0  0  0  0  0  0  0  0
   -4.0589    4.3716   -0.1050 H   0  0  0  0  0  0  0  0  0  0  0  0
   -0.4734    1.2252   -3.2866 H   0  0  0  0  0  0  0  0  0  0  0  0
   -1.1766    3.2855    0.4056 H   0  0  0  0  0  0  0  0  0  0  0  0
   -3.1988    1.8258    0.8693 H   0  0  0  0  0  0  0  0  0  0  0  0
   -6.8639    5.3015    1.1462 C   0  0  0  0  0  0  0  0  0  0  0  0
   -6.7482    6.6236    0.7228 C   0  0  0  0  0  0  0  0  0  0  0  0
   -5.8201    7.0698   -0.2715 C   0  0  0  0  0  0  0  0  0  0  0  0
   -5.0053    6.1274   -0.8358 C   0  0  0  0  0  0  0  0  0  0  0  0
   -5.0588    4.7051   -0.4425 C   0  0  0  0  0  0  0  0  0  0  0  0
   -6.0409    4.3340    0.5906 C   0  0  0  0  0  0  0  0  0  0  0  0
   -7.5946    5.0058    1.8922 H   0  0  0  0  0  0  0  0  0  0  0  0
   -7.4068    7.3673    1.1685 H   0  0  0  0  0  0  0  0  0  0  0  0
   -4.2827    6.4102   -1.5976 H   0  0  0  0  0  0  0  0  0  0  0  0
   -5.2082    4.0488   -1.3185 H   0  0  0  0  0  0  0  0  0  0  0  0
   -6.1064    2.6172    1.1667 S   0  0  0  0  0  0  0  0  0  0  0  0
   -7.4237    2.4896    1.8043 O   0  0  0  0  0  0  0  0  0  0  0  0
   -4.9320    2.6554    2.0827 O   0  0  0  0  0  0  0  0  0  0  0  0
   -5.8849    1.8344   -0.0718 O   0  0  0  0  0  0  0  0  0  0  0  0
   -5.7797    8.5279   -0.6538 C   0  0  0  0  0  0  0  0  0  0  0  0
   -6.7500    8.8598   -1.0390 H   0  0  0  0  0  0  0  0  0  0  0  0
   -5.5426    9.1541    0.2130 H   0  0  0  0  0  0  0  0  0  0  0  0
   -5.0272    8.7160   -1.4228 H   0  0  0  0  0  0  0  0  0  0  0  0
  1  2  1  0  0  0  0
  1 11  2  0  0  0  0
  2  3  1  0  0  0  0
  4  1  1  0  0  0  0
  5  4  2  0  0  0  0
  5  6  1  0  0  0  0
  6 10  2  0  0  0  0
  7  6  1  0  0  0  0
  7  9  2  0  0  0  0
  8  7  2  0  0  0  0
 10 11  1  0  0  0  0
 10 14  1  0  0  0  0
 11 15  1  0  0  0  0
 13  5  1  0  0  0  0
 16 22  1  0  0  0  0
 17 16  1  0  0  0  0
 17 23  1  0  0  0  0
 18 17  1  0  0  0  0
 19 20  1  0  0  0  0
 19 18  2  0  0  0  0
 20 12  1  0  0  0  0
 20 21  1  0  0  0  0
 21 16  2  0  0  0  0
 21 26  1  0  0  0  0
 24 19  1  0  0  0  0
 25 20  1  0  0  0  0
 26 27  2  0  0  0  0
 26 28  1  0  0  0  0
 29 26  2  0  0  0  0
 30 18  1  0  0  0  0
 30 32  1  0  0  0  0
 31 30  1  0  0  0  0
 33 30  1  0  0  0  0
M  RAD  5   2   2   3   3   4   2  17   2  28   2
M  END
