Coordinates from ORCA-job 4-NO2PhN2+~TsO-_B3LYPG-6-31G_dp-CH-Scan-d09-49-n800
 OpenBabel11261919023D

 33 33  0  0  0  0  0  0  0  0999 V2000
   -2.7534    1.0984   -0.1953 C   0  0  0  0  0  0  0  0  0  0  0  0
   -3.8546    0.2864    0.2179 N   0  0  0  0  0  0  0  0  0  0  0  0
   -4.9634    0.7222    0.4865 N   0  0  0  0  0  0  0  0  0  0  0  0
   -2.7206    1.8963   -1.3148 C   0  0  0  0  0  0  0  0  0  0  0  0
   -1.6623    2.6101   -1.7925 C   0  0  0  0  0  0  0  0  0  0  0  0
   -0.4850    2.4820   -1.0361 C   0  0  0  0  0  0  0  0  0  0  0  0
    0.7154    3.2170   -1.4782 N   0  0  0  0  0  0  0  0  0  0  0  0
    0.6148    3.9098   -2.4880 O   0  0  0  0  0  0  0  0  0  0  0  0
    1.7348    3.0878   -0.8038 O   0  0  0  0  0  0  0  0  0  0  0  0
   -0.4146    1.6795    0.1022 C   0  0  0  0  0  0  0  0  0  0  0  0
   -1.5416    0.9737    0.5127 C   0  0  0  0  0  0  0  0  0  0  0  0
   -5.2185    1.9889   -3.0845 H   0  0  0  0  0  0  0  0  0  0  0  0
   -1.6806    3.2296   -2.6811 H   0  0  0  0  0  0  0  0  0  0  0  0
    0.5208    1.6094    0.6423 H   0  0  0  0  0  0  0  0  0  0  0  0
   -1.5129    0.3295    1.3868 H   0  0  0  0  0  0  0  0  0  0  0  0
   -6.1582    5.3261    1.2631 C   0  0  0  0  0  0  0  0  0  0  0  0
   -5.9576    6.6547    0.8948 C   0  0  0  0  0  0  0  0  0  0  0  0
   -5.9628    7.0429   -0.4529 C   0  0  0  0  0  0  0  0  0  0  0  0
   -6.1722    6.0617   -1.4350 C   0  0  0  0  0  0  0  0  0  0  0  0
   -6.3785    4.7291   -1.0912 C   0  0  0  0  0  0  0  0  0  0  0  0
   -6.3654    4.3773    0.2613 C   0  0  0  0  0  0  0  0  0  0  0  0
   -6.1614    5.0242    2.3047 H   0  0  0  0  0  0  0  0  0  0  0  0
   -5.7953    7.4022    1.6663 H   0  0  0  0  0  0  0  0  0  0  0  0
   -6.1760    6.3468   -2.4836 H   0  0  0  0  0  0  0  0  0  0  0  0
   -6.5428    3.9732   -1.8518 H   0  0  0  0  0  0  0  0  0  0  0  0
   -6.6423    2.6831    0.7166 S   0  0  0  0  0  0  0  0  0  0  0  0
   -6.8661    2.5749    2.1524 O   0  0  0  0  0  0  0  0  0  0  0  0
   -5.0396    2.1659    0.4026 O   0  0  0  0  0  0  0  0  0  0  0  0
   -7.5084    2.0264   -0.2513 O   0  0  0  0  0  0  0  0  0  0  0  0
   -5.7765    8.4892   -0.8409 C   0  0  0  0  0  0  0  0  0  0  0  0
   -6.7465    8.9873   -0.9584 H   0  0  0  0  0  0  0  0  0  0  0  0
   -5.2162    9.0402   -0.0803 H   0  0  0  0  0  0  0  0  0  0  0  0
   -5.2458    8.5820   -1.7929 H   0  0  0  0  0  0  0  0  0  0  0  0
  1  2  1  0  0  0  0
  1 11  2  0  0  0  0
  2  3  1  0  0  0  0
  4  1  1  0  0  0  0
  5  4  2  0  0  0  0
  5  6  1  0  0  0  0
  6 10  2  0  0  0  0
  7  6  1  0  0  0  0
  7  9  2  0  0  0  0
  8  7  2  0  0  0  0
 10 11  1  0  0  0  0
 10 14  1  0  0  0  0
 11 15  1  0  0  0  0
 13  5  1  0  0  0  0
 16 22  1  0  0  0  0
 17 16  1  0  0  0  0
 17 23  1  0  0  0  0
 18 17  2  0  0  0  0
 19 20  2  0  0  0  0
 19 18  1  0  0  0  0
 20 21  1  0  0  0  0
 21 26  1  0  0  0  0
 21 16  2  0  0  0  0
 24 19  1  0  0  0  0
 25 20  1  0  0  0  0
 26 27  2  0  0  0  0
 28  3  1  0  0  0  0
 28 26  1  0  0  0  0
 29 26  2  0  0  0  0
 30 18  1  0  0  0  0
 30 32  1  0  0  0  0
 31 30  1  0  0  0  0
 33 30  1  0  0  0  0
M  RAD  4   2   2   3   2   4   2  12   2
M  END
