Coordinates from ORCA-job 4-NO2PhN2+~TsO-_B3LYPG-6-31G_dp-CH-Scan-d09-49-n800
 OpenBabel11261919023D

 33 33  0  0  0  0  0  0  0  0999 V2000
   -2.8028    1.0790   -0.2775 C   0  0  0  0  0  0  0  0  0  0  0  0
   -3.9019    0.2581    0.1251 N   0  0  0  0  0  0  0  0  0  0  0  0
   -5.0135    0.6906    0.3680 N   0  0  0  0  0  0  0  0  0  0  0  0
   -2.6244    1.5143   -1.5732 C   0  0  0  0  0  0  0  0  0  0  0  0
   -1.5486    2.2125   -2.0488 C   0  0  0  0  0  0  0  0  0  0  0  0
   -0.5481    2.4790   -1.1026 C   0  0  0  0  0  0  0  0  0  0  0  0
    0.6461    3.2258   -1.5340 N   0  0  0  0  0  0  0  0  0  0  0  0
    0.6989    3.5799   -2.7100 O   0  0  0  0  0  0  0  0  0  0  0  0
    1.5104    3.4476   -0.6880 O   0  0  0  0  0  0  0  0  0  0  0  0
   -0.6456    2.0582    0.2233 C   0  0  0  0  0  0  0  0  0  0  0  0
   -1.7686    1.3463    0.6363 C   0  0  0  0  0  0  0  0  0  0  0  0
   -4.4015    0.9503   -3.0795 H   0  0  0  0  0  0  0  0  0  0  0  0
   -1.4428    2.5482   -3.0721 H   0  0  0  0  0  0  0  0  0  0  0  0
    0.1587    2.2876    0.9106 H   0  0  0  0  0  0  0  0  0  0  0  0
   -1.8620    0.9981    1.6600 H   0  0  0  0  0  0  0  0  0  0  0  0
   -5.9741    5.2461    1.2554 C   0  0  0  0  0  0  0  0  0  0  0  0
   -5.7510    6.5884    0.9579 C   0  0  0  0  0  0  0  0  0  0  0  0
   -5.9205    7.0814   -0.3444 C   0  0  0  0  0  0  0  0  0  0  0  0
   -6.3223    6.1919   -1.3535 C   0  0  0  0  0  0  0  0  0  0  0  0
   -6.5517    4.8468   -1.0791 C   0  0  0  0  0  0  0  0  0  0  0  0
   -6.3697    4.3883    0.2278 C   0  0  0  0  0  0  0  0  0  0  0  0
   -5.8528    4.8660    2.2636 H   0  0  0  0  0  0  0  0  0  0  0  0
   -5.4424    7.2653    1.7494 H   0  0  0  0  0  0  0  0  0  0  0  0
   -6.4605    6.5593   -2.3665 H   0  0  0  0  0  0  0  0  0  0  0  0
   -6.8724    4.1617   -1.8557 H   0  0  0  0  0  0  0  0  0  0  0  0
   -6.6667    2.6750    0.5937 S   0  0  0  0  0  0  0  0  0  0  0  0
   -6.8646    2.4914    2.0259 O   0  0  0  0  0  0  0  0  0  0  0  0
   -5.0885    2.1458    0.2218 O   0  0  0  0  0  0  0  0  0  0  0  0
   -7.5708    2.0958   -0.3904 O   0  0  0  0  0  0  0  0  0  0  0  0
   -5.7060    8.5433   -0.6507 C   0  0  0  0  0  0  0  0  0  0  0  0
   -6.6560    9.0905   -0.6187 H   0  0  0  0  0  0  0  0  0  0  0  0
   -5.0337    9.0109    0.0740 H   0  0  0  0  0  0  0  0  0  0  0  0
   -5.2843    8.6843   -1.6502 H   0  0  0  0  0  0  0  0  0  0  0  0
  1  2  1  0  0  0  0
  1 11  2  0  0  0  0
  2  3  1  0  0  0  0
  4  1  1  0  0  0  0
  5  4  2  0  0  0  0
  5  6  1  0  0  0  0
  6 10  2  0  0  0  0
  7  6  1  0  0  0  0
  7  9  2  0  0  0  0
  8  7  2  0  0  0  0
 10 11  1  0  0  0  0
 10 14  1  0  0  0  0
 11 15  1  0  0  0  0
 13  5  1  0  0  0  0
 16 22  1  0  0  0  0
 17 16  1  0  0  0  0
 17 23  1  0  0  0  0
 18 17  2  0  0  0  0
 19 20  2  0  0  0  0
 19 18  1  0  0  0  0
 20 21  1  0  0  0  0
 21 26  1  0  0  0  0
 21 16  2  0  0  0  0
 24 19  1  0  0  0  0
 25 20  1  0  0  0  0
 26 27  2  0  0  0  0
 28  3  1  0  0  0  0
 28 26  1  0  0  0  0
 29 26  2  0  0  0  0
 30 31  1  0  0  0  0
 30 18  1  0  0  0  0
 30 32  1  0  0  0  0
 33 30  1  0  0  0  0
M  RAD  4   2   2   3   2   4   2  12   2
M  END
