Coordinates from ORCA-job 4-NO2PhN2+~TsO-_B3LYPG-6-31G_dp-CH-Scan-d09-49-n800
 OpenBabel11261919023D

 33 33  0  0  0  0  0  0  0  0999 V2000
   -2.9510    0.8330   -0.9661 C   0  0  0  0  0  0  0  0  0  0  0  0
   -3.9299   -0.1720   -0.7808 N   0  0  0  0  0  0  0  0  0  0  0  0
   -4.6834   -0.9900   -0.7309 N   0  0  0  0  0  0  0  0  0  0  0  0
   -2.4199    0.8086   -2.2543 C   0  0  0  0  0  0  0  0  0  0  0  0
   -1.4542    1.8527   -2.3900 C   0  0  0  0  0  0  0  0  0  0  0  0
   -1.1382    2.7067   -1.3421 C   0  0  0  0  0  0  0  0  0  0  0  0
   -0.1566    3.7938   -1.5634 N   0  0  0  0  0  0  0  0  0  0  0  0
    0.5774    3.7171   -2.5444 O   0  0  0  0  0  0  0  0  0  0  0  0
   -0.1562    4.7279   -0.7570 O   0  0  0  0  0  0  0  0  0  0  0  0
   -1.7333    2.6348   -0.0622 C   0  0  0  0  0  0  0  0  0  0  0  0
   -2.6857    1.6591    0.1542 C   0  0  0  0  0  0  0  0  0  0  0  0
   -4.0214    3.9648   -0.2066 H   0  0  0  0  0  0  0  0  0  0  0  0
   -0.9438    2.0107   -3.3371 H   0  0  0  0  0  0  0  0  0  0  0  0
   -1.4343    3.3280    0.7133 H   0  0  0  0  0  0  0  0  0  0  0  0
   -3.2138    1.5682    1.0989 H   0  0  0  0  0  0  0  0  0  0  0  0
   -6.6250    5.2423    1.1364 C   0  0  0  0  0  0  0  0  0  0  0  0
   -6.3827    6.5236    0.6490 C   0  0  0  0  0  0  0  0  0  0  0  0
   -5.4732    6.8198   -0.4157 C   0  0  0  0  0  0  0  0  0  0  0  0
   -4.8142    5.7655   -0.9863 C   0  0  0  0  0  0  0  0  0  0  0  0
   -5.0031    4.3797   -0.5213 C   0  0  0  0  0  0  0  0  0  0  0  0
   -5.9565    4.1627    0.5760 C   0  0  0  0  0  0  0  0  0  0  0  0
   -7.3399    5.0650    1.9332 H   0  0  0  0  0  0  0  0  0  0  0  0
   -6.9217    7.3561    1.0978 H   0  0  0  0  0  0  0  0  0  0  0  0
   -4.1131    5.9314   -1.8005 H   0  0  0  0  0  0  0  0  0  0  0  0
   -5.2438    3.6914   -1.3504 H   0  0  0  0  0  0  0  0  0  0  0  0
   -6.1804    2.4906    1.2412 S   0  0  0  0  0  0  0  0  0  0  0  0
   -7.5231    2.5101    1.8377 O   0  0  0  0  0  0  0  0  0  0  0  0
   -5.0372    2.4982    2.1971 O   0  0  0  0  0  0  0  0  0  0  0  0
   -5.9854    1.6159    0.0625 O   0  0  0  0  0  0  0  0  0  0  0  0
   -5.2829    8.2472   -0.8632 C   0  0  0  0  0  0  0  0  0  0  0  0
   -6.2308    8.6865   -1.1919 H   0  0  0  0  0  0  0  0  0  0  0  0
   -4.9025    8.8672   -0.0439 H   0  0  0  0  0  0  0  0  0  0  0  0
   -4.5738    8.3109   -1.6915 H   0  0  0  0  0  0  0  0  0  0  0  0
  1  2  1  0  0  0  0
  1 11  2  0  0  0  0
  2  3  1  0  0  0  0
  4  1  1  0  0  0  0
  5  4  2  0  0  0  0
  5  6  1  0  0  0  0
  6 10  2  0  0  0  0
  7  6  1  0  0  0  0
  7  9  2  0  0  0  0
  8  7  2  0  0  0  0
 10 11  1  0  0  0  0
 10 14  1  0  0  0  0
 11 15  1  0  0  0  0
 13  5  1  0  0  0  0
 16 22  1  0  0  0  0
 17 23  1  0  0  0  0
 17 16  1  0  0  0  0
 18 17  1  0  0  0  0
 19 20  1  0  0  0  0
 19 18  2  0  0  0  0
 20 12  1  0  0  0  0
 20 21  1  0  0  0  0
 21 16  2  0  0  0  0
 21 26  1  0  0  0  0
 24 19  1  0  0  0  0
 25 20  1  0  0  0  0
 26 27  2  0  0  0  0
 26 28  1  0  0  0  0
 29 26  2  0  0  0  0
 30 18  1  0  0  0  0
 30 32  1  0  0  0  0
 31 30  1  0  0  0  0
 33 30  1  0  0  0  0
M  RAD  5   2   2   3   3   4   2  17   2  28   2
M  END
