Coordinates from ORCA-job 4-NO2PhN2+~TsO-_B3LYPG-6-31G_dp-CH-Scan-d09-49-n800
 OpenBabel11261919023D

 33 34  0  0  0  0  0  0  0  0999 V2000
   -2.7463    1.0976   -0.1708 C   0  0  0  0  0  0  0  0  0  0  0  0
   -3.8441    0.3362    0.3299 N   0  0  0  0  0  0  0  0  0  0  0  0
   -4.9714    0.7428    0.5121 N   0  0  0  0  0  0  0  0  0  0  0  0
   -2.7315    1.5920   -1.4764 C   0  0  0  0  0  0  0  0  0  0  0  0
   -1.6096    2.2257   -1.9832 C   0  0  0  0  0  0  0  0  0  0  0  0
   -0.4986    2.3606   -1.1483 C   0  0  0  0  0  0  0  0  0  0  0  0
    0.6986    3.0420   -1.6670 N   0  0  0  0  0  0  0  0  0  0  0  0
    0.6543    3.4686   -2.8199 O   0  0  0  0  0  0  0  0  0  0  0  0
    1.6663    3.1422   -0.9145 O   0  0  0  0  0  0  0  0  0  0  0  0
   -0.4818    1.8654    0.1543 C   0  0  0  0  0  0  0  0  0  0  0  0
   -1.6091    1.2098    0.6390 C   0  0  0  0  0  0  0  0  0  0  0  0
   -3.8621    1.4321   -2.2702 H   0  0  0  0  0  0  0  0  0  0  0  0
   -1.5743    2.6173   -2.9910 H   0  0  0  0  0  0  0  0  0  0  0  0
    0.4081    1.9869    0.7588 H   0  0  0  0  0  0  0  0  0  0  0  0
   -1.6223    0.7914    1.6391 H   0  0  0  0  0  0  0  0  0  0  0  0
   -6.0795    5.2574    1.2021 C   0  0  0  0  0  0  0  0  0  0  0  0
   -5.8743    6.6104    0.9457 C   0  0  0  0  0  0  0  0  0  0  0  0
   -6.0177    7.1345   -0.3481 C   0  0  0  0  0  0  0  0  0  0  0  0
   -6.3743    6.2644   -1.3896 C   0  0  0  0  0  0  0  0  0  0  0  0
   -6.5839    4.9079   -1.1555 C   0  0  0  0  0  0  0  0  0  0  0  0
   -6.4289    4.4179    0.1425 C   0  0  0  0  0  0  0  0  0  0  0  0
   -5.9801    4.8544    2.2039 H   0  0  0  0  0  0  0  0  0  0  0  0
   -5.6008    7.2718    1.7628 H   0  0  0  0  0  0  0  0  0  0  0  0
   -6.4934    6.6558   -2.3960 H   0  0  0  0  0  0  0  0  0  0  0  0
   -6.8727    4.2372   -1.9569 H   0  0  0  0  0  0  0  0  0  0  0  0
   -6.7004    2.6885    0.4584 S   0  0  0  0  0  0  0  0  0  0  0  0
   -7.0232    2.4811    1.8647 O   0  0  0  0  0  0  0  0  0  0  0  0
   -5.1004    2.2082    0.2104 O   0  0  0  0  0  0  0  0  0  0  0  0
   -7.5087    2.1066   -0.6072 O   0  0  0  0  0  0  0  0  0  0  0  0
   -5.8246    8.6085   -0.6076 C   0  0  0  0  0  0  0  0  0  0  0  0
   -6.7706    9.1515   -0.4901 H   0  0  0  0  0  0  0  0  0  0  0  0
   -5.1075    9.0482    0.0915 H   0  0  0  0  0  0  0  0  0  0  0  0
   -5.4688    8.7930   -1.6251 H   0  0  0  0  0  0  0  0  0  0  0  0
  1  2  1  0  0  0  0
  1 11  2  0  0  0  0
  2  3  1  0  0  0  0
  4  1  1  0  0  0  0
  5  4  2  0  0  0  0
  5  6  1  0  0  0  0
  6 10  2  0  0  0  0
  7  6  1  0  0  0  0
  7  9  2  0  0  0  0
  8  7  2  0  0  0  0
 10 11  1  0  0  0  0
 10 14  1  0  0  0  0
 11 15  1  0  0  0  0
 12  4  1  0  0  0  0
 13  5  1  0  0  0  0
 16 22  1  0  0  0  0
 17 16  1  0  0  0  0
 17 23  1  0  0  0  0
 18 17  2  0  0  0  0
 19 20  2  0  0  0  0
 19 18  1  0  0  0  0
 20 21  1  0  0  0  0
 21 26  1  0  0  0  0
 21 16  2  0  0  0  0
 24 19  1  0  0  0  0
 25 20  1  0  0  0  0
 26 27  2  0  0  0  0
 28 26  1  0  0  0  0
 28  3  1  0  0  0  0
 29 26  2  0  0  0  0
 30 31  1  0  0  0  0
 30 18  1  0  0  0  0
 30 32  1  0  0  0  0
 33 30  1  0  0  0  0
M  RAD  2   2   2   3   2
M  END
