Coordinates from ORCA-job 4-NO2PhN2+~TsO-_B3LYPG-6-31G_dp-CH-Scan-d09-49-n800
 OpenBabel11261919023D

 33 33  0  0  0  0  0  0  0  0999 V2000
   -2.2161    1.1621   -0.3316 C   0  0  0  0  0  0  0  0  0  0  0  0
   -3.4873    0.7115    0.0849 N   0  0  0  0  0  0  0  0  0  0  0  0
   -4.5063    0.3885    0.3977 N   0  0  0  0  0  0  0  0  0  0  0  0
   -2.2488    2.2780   -1.1676 C   0  0  0  0  0  0  0  0  0  0  0  0
   -0.9263    2.6495   -1.5394 C   0  0  0  0  0  0  0  0  0  0  0  0
    0.1893    1.9456   -1.1059 C   0  0  0  0  0  0  0  0  0  0  0  0
    1.5396    2.3843   -1.5417 N   0  0  0  0  0  0  0  0  0  0  0  0
    1.6124    3.3601   -2.2839 O   0  0  0  0  0  0  0  0  0  0  0  0
    2.5066    1.7432   -1.1299 O   0  0  0  0  0  0  0  0  0  0  0  0
    0.1245    0.8211   -0.2585 C   0  0  0  0  0  0  0  0  0  0  0  0
   -1.1211    0.4023    0.1537 C   0  0  0  0  0  0  0  0  0  0  0  0
   -5.2175    4.3018   -1.1086 H   0  0  0  0  0  0  0  0  0  0  0  0
   -0.7550    3.5074   -2.1840 H   0  0  0  0  0  0  0  0  0  0  0  0
    1.0339    0.3219    0.0464 H   0  0  0  0  0  0  0  0  0  0  0  0
   -1.2487   -0.4536    0.8105 H   0  0  0  0  0  0  0  0  0  0  0  0
   -7.0078    5.6214    1.1849 C   0  0  0  0  0  0  0  0  0  0  0  0
   -6.9250    6.9093    0.6668 C   0  0  0  0  0  0  0  0  0  0  0  0
   -6.5035    7.2099   -0.6687 C   0  0  0  0  0  0  0  0  0  0  0  0
   -6.1719    6.1567   -1.4748 C   0  0  0  0  0  0  0  0  0  0  0  0
   -6.2203    4.7607   -1.0002 C   0  0  0  0  0  0  0  0  0  0  0  0
   -6.6687    4.5398    0.3820 C   0  0  0  0  0  0  0  0  0  0  0  0
   -7.3564    5.4391    2.1956 H   0  0  0  0  0  0  0  0  0  0  0  0
   -7.2052    7.7435    1.3078 H   0  0  0  0  0  0  0  0  0  0  0  0
   -5.8450    6.3287   -2.4971 H   0  0  0  0  0  0  0  0  0  0  0  0
   -6.8060    4.1081   -1.6707 H   0  0  0  0  0  0  0  0  0  0  0  0
   -6.7095    2.8508    1.0344 S   0  0  0  0  0  0  0  0  0  0  0  0
   -7.7507    2.8884    2.0750 O   0  0  0  0  0  0  0  0  0  0  0  0
   -5.3043    2.7944    1.5305 O   0  0  0  0  0  0  0  0  0  0  0  0
   -6.9799    2.0193   -0.1558 O   0  0  0  0  0  0  0  0  0  0  0  0
   -6.4492    8.6456   -1.1273 C   0  0  0  0  0  0  0  0  0  0  0  0
   -7.4342    9.1199   -1.0548 H   0  0  0  0  0  0  0  0  0  0  0  0
   -5.7603    9.2298   -0.5077 H   0  0  0  0  0  0  0  0  0  0  0  0
   -6.1146    8.7185   -2.1644 H   0  0  0  0  0  0  0  0  0  0  0  0
  1  2  1  0  0  0  0
  1 11  2  0  0  0  0
  2  3  1  0  0  0  0
  4  1  1  0  0  0  0
  5  4  2  0  0  0  0
  5  6  1  0  0  0  0
  6 10  2  0  0  0  0
  7  9  2  0  0  0  0
  7  6  1  0  0  0  0
  8  7  2  0  0  0  0
 10 14  1  0  0  0  0
 10 11  1  0  0  0  0
 11 15  1  0  0  0  0
 12 20  1  0  0  0  0
 13  5  1  0  0  0  0
 16 22  1  0  0  0  0
 17 16  1  0  0  0  0
 17 23  1  0  0  0  0
 18 17  1  0  0  0  0
 19 20  1  0  0  0  0
 19 18  2  0  0  0  0
 20 21  1  0  0  0  0
 21 26  1  0  0  0  0
 21 16  2  0  0  0  0
 24 19  1  0  0  0  0
 25 20  1  0  0  0  0
 26 28  2  0  0  0  0
 26 27  1  0  0  0  0
 29 26  2  0  0  0  0
 30 31  1  0  0  0  0
 30 18  1  0  0  0  0
 30 32  1  0  0  0  0
 33 30  1  0  0  0  0
M  RAD  5   2   2   3   3   4   2  17   2  27   2
M  END
