Coordinates from ORCA-job 4-NO2PhN2+~TsO-_B3LYPG-6-31G_dp-CH-Scan-d09-49-n800
 OpenBabel11261919033D

 33 33  0  0  0  0  0  0  0  0999 V2000
   -2.8651    0.7472   -0.9752 C   0  0  0  0  0  0  0  0  0  0  0  0
   -3.9081   -0.1763   -0.7409 N   0  0  0  0  0  0  0  0  0  0  0  0
   -4.7125   -0.9402   -0.6455 N   0  0  0  0  0  0  0  0  0  0  0  0
   -2.2287    0.5171   -2.1943 C   0  0  0  0  0  0  0  0  0  0  0  0
   -1.1923    1.4787   -2.3850 C   0  0  0  0  0  0  0  0  0  0  0  0
   -0.8918    2.4362   -1.4251 C   0  0  0  0  0  0  0  0  0  0  0  0
    0.1958    3.4076   -1.6857 N   0  0  0  0  0  0  0  0  0  0  0  0
    0.9783    3.1636   -2.6002 O   0  0  0  0  0  0  0  0  0  0  0  0
    0.2357    4.4181   -0.9791 O   0  0  0  0  0  0  0  0  0  0  0  0
   -1.5925    2.5734   -0.2059 C   0  0  0  0  0  0  0  0  0  0  0  0
   -2.6325    1.7028    0.0464 C   0  0  0  0  0  0  0  0  0  0  0  0
   -4.0605    4.2027   -0.1746 H   0  0  0  0  0  0  0  0  0  0  0  0
   -0.6076    1.4844   -3.3016 H   0  0  0  0  0  0  0  0  0  0  0  0
   -1.3011    3.3404    0.5000 H   0  0  0  0  0  0  0  0  0  0  0  0
   -3.2334    1.7621    0.9503 H   0  0  0  0  0  0  0  0  0  0  0  0
   -6.7747    5.2811    1.1527 C   0  0  0  0  0  0  0  0  0  0  0  0
   -6.6053    6.5909    0.7116 C   0  0  0  0  0  0  0  0  0  0  0  0
   -5.6883    6.9801   -0.3165 C   0  0  0  0  0  0  0  0  0  0  0  0
   -4.9430    5.9916   -0.8977 C   0  0  0  0  0  0  0  0  0  0  0  0
   -5.0552    4.5789   -0.4857 C   0  0  0  0  0  0  0  0  0  0  0  0
   -6.0202    4.2670    0.5810 C   0  0  0  0  0  0  0  0  0  0  0  0
   -7.4967    5.0306    1.9232 H   0  0  0  0  0  0  0  0  0  0  0  0
   -7.2108    7.3714    1.1692 H   0  0  0  0  0  0  0  0  0  0  0  0
   -4.2325    6.2298   -1.6856 H   0  0  0  0  0  0  0  0  0  0  0  0
   -5.2570    3.9172   -1.3469 H   0  0  0  0  0  0  0  0  0  0  0  0
   -6.1530    2.5626    1.1827 S   0  0  0  0  0  0  0  0  0  0  0  0
   -7.4860    2.4899    1.7960 O   0  0  0  0  0  0  0  0  0  0  0  0
   -4.9974    2.5870    2.1236 O   0  0  0  0  0  0  0  0  0  0  0  0
   -5.9306    1.7480   -0.0339 O   0  0  0  0  0  0  0  0  0  0  0  0
   -5.5844    8.4308   -0.7150 C   0  0  0  0  0  0  0  0  0  0  0  0
   -6.5495    8.8121   -1.0657 H   0  0  0  0  0  0  0  0  0  0  0  0
   -5.2792    9.0500    0.1355 H   0  0  0  0  0  0  0  0  0  0  0  0
   -4.8535    8.5709   -1.5145 H   0  0  0  0  0  0  0  0  0  0  0  0
  1  2  1  0  0  0  0
  1 11  2  0  0  0  0
  2  3  1  0  0  0  0
  4  1  1  0  0  0  0
  5  4  2  0  0  0  0
  5  6  1  0  0  0  0
  6 10  2  0  0  0  0
  7  6  1  0  0  0  0
  7  9  2  0  0  0  0
  8  7  2  0  0  0  0
 10 11  1  0  0  0  0
 10 14  1  0  0  0  0
 11 15  1  0  0  0  0
 13  5  1  0  0  0  0
 16 22  1  0  0  0  0
 17 16  1  0  0  0  0
 17 23  1  0  0  0  0
 18 17  1  0  0  0  0
 19 20  1  0  0  0  0
 19 18  2  0  0  0  0
 20 12  1  0  0  0  0
 20 21  1  0  0  0  0
 21 16  2  0  0  0  0
 21 26  1  0  0  0  0
 24 19  1  0  0  0  0
 25 20  1  0  0  0  0
 26 27  2  0  0  0  0
 26 28  1  0  0  0  0
 29 26  2  0  0  0  0
 30 18  1  0  0  0  0
 30 32  1  0  0  0  0
 31 30  1  0  0  0  0
 33 30  1  0  0  0  0
M  RAD  5   2   2   3   3   4   2  17   2  28   2
M  END
