Coordinates from ORCA-job 4-NO2PhN2+~TsO-_B3LYPG-6-31G_dp-CH-Scan-d09-49-n800
 OpenBabel11261919033D

 33 33  0  0  0  0  0  0  0  0999 V2000
   -2.8859    0.7769   -0.9651 C   0  0  0  0  0  0  0  0  0  0  0  0
   -3.9055   -0.1754   -0.7394 N   0  0  0  0  0  0  0  0  0  0  0  0
   -4.6913   -0.9595   -0.6525 N   0  0  0  0  0  0  0  0  0  0  0  0
   -2.2708    0.5975   -2.2032 C   0  0  0  0  0  0  0  0  0  0  0  0
   -1.2589    1.5881   -2.3832 C   0  0  0  0  0  0  0  0  0  0  0  0
   -0.9620    2.5245   -1.4020 C   0  0  0  0  0  0  0  0  0  0  0  0
    0.0949    3.5307   -1.6557 N   0  0  0  0  0  0  0  0  0  0  0  0
    0.8729    3.3272   -2.5837 O   0  0  0  0  0  0  0  0  0  0  0  0
    0.1162    4.5266   -0.9275 O   0  0  0  0  0  0  0  0  0  0  0  0
   -1.6411    2.6093   -0.1658 C   0  0  0  0  0  0  0  0  0  0  0  0
   -2.6549    1.7062    0.0804 C   0  0  0  0  0  0  0  0  0  0  0  0
   -4.0656    4.1109   -0.2118 H   0  0  0  0  0  0  0  0  0  0  0  0
   -0.6919    1.6340   -3.3098 H   0  0  0  0  0  0  0  0  0  0  0  0
   -1.3540    3.3622    0.5567 H   0  0  0  0  0  0  0  0  0  0  0  0
   -3.2406    1.7271    0.9958 H   0  0  0  0  0  0  0  0  0  0  0  0
   -6.7246    5.2687    1.1561 C   0  0  0  0  0  0  0  0  0  0  0  0
   -6.5269    6.5705    0.7040 C   0  0  0  0  0  0  0  0  0  0  0  0
   -5.6189    6.9283   -0.3433 C   0  0  0  0  0  0  0  0  0  0  0  0
   -4.9135    5.9158   -0.9331 C   0  0  0  0  0  0  0  0  0  0  0  0
   -5.0566    4.5100   -0.5093 C   0  0  0  0  0  0  0  0  0  0  0  0
   -6.0095    4.2304    0.5761 C   0  0  0  0  0  0  0  0  0  0  0  0
   -7.4394    5.0433    1.9407 H   0  0  0  0  0  0  0  0  0  0  0  0
   -7.1017    7.3701    1.1679 H   0  0  0  0  0  0  0  0  0  0  0  0
   -4.2119    6.1296   -1.7358 H   0  0  0  0  0  0  0  0  0  0  0  0
   -5.2867    3.8456   -1.3612 H   0  0  0  0  0  0  0  0  0  0  0  0
   -6.1771    2.5342    1.1925 S   0  0  0  0  0  0  0  0  0  0  0  0
   -7.5163    2.4918    1.7953 O   0  0  0  0  0  0  0  0  0  0  0  0
   -5.0297    2.5506    2.1436 O   0  0  0  0  0  0  0  0  0  0  0  0
   -5.9585    1.7029   -0.0131 O   0  0  0  0  0  0  0  0  0  0  0  0
   -5.4808    8.3733   -0.7520 C   0  0  0  0  0  0  0  0  0  0  0  0
   -6.4419    8.7825   -1.0812 H   0  0  0  0  0  0  0  0  0  0  0  0
   -5.1356    8.9867    0.0875 H   0  0  0  0  0  0  0  0  0  0  0  0
   -4.7656    8.4870   -1.5697 H   0  0  0  0  0  0  0  0  0  0  0  0
  1  2  1  0  0  0  0
  1 11  2  0  0  0  0
  2  3  1  0  0  0  0
  4  1  1  0  0  0  0
  5  4  2  0  0  0  0
  5  6  1  0  0  0  0
  6 10  2  0  0  0  0
  7  6  1  0  0  0  0
  7  9  2  0  0  0  0
  8  7  2  0  0  0  0
 10 11  1  0  0  0  0
 10 14  1  0  0  0  0
 11 15  1  0  0  0  0
 13  5  1  0  0  0  0
 16 22  1  0  0  0  0
 17 16  1  0  0  0  0
 17 23  1  0  0  0  0
 18 17  1  0  0  0  0
 19 20  1  0  0  0  0
 19 18  2  0  0  0  0
 20 12  1  0  0  0  0
 20 21  1  0  0  0  0
 21 16  2  0  0  0  0
 21 26  1  0  0  0  0
 24 19  1  0  0  0  0
 25 20  1  0  0  0  0
 26 27  2  0  0  0  0
 26 28  1  0  0  0  0
 29 26  2  0  0  0  0
 30 18  1  0  0  0  0
 30 32  1  0  0  0  0
 31 30  1  0  0  0  0
 33 30  1  0  0  0  0
M  RAD  5   2   2   3   3   4   2  17   2  28   2
M  END
