Coordinates from ORCA-job 4-NO2PhN2+~TsO-_B3LYPG-6-31G_dp-CH-Scan-d09-49-n800
 OpenBabel11261919023D

 33 33  0  0  0  0  0  0  0  0999 V2000
   -2.9478    0.8296   -0.9651 C   0  0  0  0  0  0  0  0  0  0  0  0
   -3.9272   -0.1746   -0.7787 N   0  0  0  0  0  0  0  0  0  0  0  0
   -4.6810   -0.9922   -0.7277 N   0  0  0  0  0  0  0  0  0  0  0  0
   -2.4136    0.8002   -2.2522 C   0  0  0  0  0  0  0  0  0  0  0  0
   -1.4477    1.8440   -2.3892 C   0  0  0  0  0  0  0  0  0  0  0  0
   -1.1343    2.7019   -1.3437 C   0  0  0  0  0  0  0  0  0  0  0  0
   -0.1523    3.7883   -1.5665 N   0  0  0  0  0  0  0  0  0  0  0  0
    0.5840    3.7082   -2.5456 O   0  0  0  0  0  0  0  0  0  0  0  0
   -0.1539    4.7254   -0.7637 O   0  0  0  0  0  0  0  0  0  0  0  0
   -1.7323    2.6347   -0.0647 C   0  0  0  0  0  0  0  0  0  0  0  0
   -2.6851    1.6597    0.1529 C   0  0  0  0  0  0  0  0  0  0  0  0
   -4.0233    3.9681   -0.2089 H   0  0  0  0  0  0  0  0  0  0  0  0
   -0.9352    1.9988   -3.3356 H   0  0  0  0  0  0  0  0  0  0  0  0
   -1.4346    3.3305    0.7089 H   0  0  0  0  0  0  0  0  0  0  0  0
   -3.2152    1.5716    1.0969 H   0  0  0  0  0  0  0  0  0  0  0  0
   -6.6270    5.2434    1.1372 C   0  0  0  0  0  0  0  0  0  0  0  0
   -6.3856    6.5253    0.6511 C   0  0  0  0  0  0  0  0  0  0  0  0
   -5.4765    6.8233   -0.4134 C   0  0  0  0  0  0  0  0  0  0  0  0
   -4.8171    5.7700   -0.9854 C   0  0  0  0  0  0  0  0  0  0  0  0
   -5.0053    4.3835   -0.5222 C   0  0  0  0  0  0  0  0  0  0  0  0
   -5.9581    4.1647    0.5753 C   0  0  0  0  0  0  0  0  0  0  0  0
   -7.3416    5.0647    1.9340 H   0  0  0  0  0  0  0  0  0  0  0  0
   -6.9249    7.3569    1.1010 H   0  0  0  0  0  0  0  0  0  0  0  0
   -4.1162    5.9373   -1.7996 H   0  0  0  0  0  0  0  0  0  0  0  0
   -5.2468    3.6965   -1.3520 H   0  0  0  0  0  0  0  0  0  0  0  0
   -6.1808    2.4918    1.2387 S   0  0  0  0  0  0  0  0  0  0  0  0
   -7.5235    2.5100    1.8354 O   0  0  0  0  0  0  0  0  0  0  0  0
   -5.0374    2.4996    2.1945 O   0  0  0  0  0  0  0  0  0  0  0  0
   -5.9853    1.6179    0.0594 O   0  0  0  0  0  0  0  0  0  0  0  0
   -5.2871    8.2513   -0.8592 C   0  0  0  0  0  0  0  0  0  0  0  0
   -6.2353    8.6905   -1.1872 H   0  0  0  0  0  0  0  0  0  0  0  0
   -4.9068    8.8705   -0.0394 H   0  0  0  0  0  0  0  0  0  0  0  0
   -4.5783    8.3164   -1.6877 H   0  0  0  0  0  0  0  0  0  0  0  0
  1  2  1  0  0  0  0
  1 11  2  0  0  0  0
  2  3  1  0  0  0  0
  4  1  1  0  0  0  0
  5  4  2  0  0  0  0
  5  6  1  0  0  0  0
  6 10  2  0  0  0  0
  7  6  1  0  0  0  0
  7  9  2  0  0  0  0
  8  7  2  0  0  0  0
 10 11  1  0  0  0  0
 10 14  1  0  0  0  0
 11 15  1  0  0  0  0
 13  5  1  0  0  0  0
 16 22  1  0  0  0  0
 17 23  1  0  0  0  0
 17 16  1  0  0  0  0
 18 17  1  0  0  0  0
 19 20  1  0  0  0  0
 19 18  2  0  0  0  0
 20 12  1  0  0  0  0
 20 21  1  0  0  0  0
 21 16  2  0  0  0  0
 21 26  1  0  0  0  0
 24 19  1  0  0  0  0
 25 20  1  0  0  0  0
 26 27  2  0  0  0  0
 26 28  1  0  0  0  0
 29 26  2  0  0  0  0
 30 18  1  0  0  0  0
 30 32  1  0  0  0  0
 31 30  1  0  0  0  0
 33 30  1  0  0  0  0
M  RAD  5   2   2   3   3   4   2  17   2  28   2
M  END
