Coordinates from ORCA-job 4-NO2PhN2+~TsO-_B3LYPG-6-31G_dp-CH-Scan-d09-49-n800
 OpenBabel11261919023D

 33 33  0  0  0  0  0  0  0  0999 V2000
   -2.7799    1.0839   -0.2180 C   0  0  0  0  0  0  0  0  0  0  0  0
   -3.8734    0.2941    0.2506 N   0  0  0  0  0  0  0  0  0  0  0  0
   -4.9952    0.7106    0.4547 N   0  0  0  0  0  0  0  0  0  0  0  0
   -2.6979    1.5002   -1.5433 C   0  0  0  0  0  0  0  0  0  0  0  0
   -1.5944    2.1672   -2.0368 C   0  0  0  0  0  0  0  0  0  0  0  0
   -0.5449    2.4148   -1.1478 C   0  0  0  0  0  0  0  0  0  0  0  0
    0.6433    3.1313   -1.6385 N   0  0  0  0  0  0  0  0  0  0  0  0
    0.6487    3.4806   -2.8178 O   0  0  0  0  0  0  0  0  0  0  0  0
    1.5542    3.3361   -0.8378 O   0  0  0  0  0  0  0  0  0  0  0  0
   -0.5833    2.0015    0.1828 C   0  0  0  0  0  0  0  0  0  0  0  0
   -1.7021    1.3158    0.6466 C   0  0  0  0  0  0  0  0  0  0  0  0
   -3.9246    1.1785   -2.5039 H   0  0  0  0  0  0  0  0  0  0  0  0
   -1.5227    2.4978   -3.0640 H   0  0  0  0  0  0  0  0  0  0  0  0
    0.2596    2.2116    0.8290 H   0  0  0  0  0  0  0  0  0  0  0  0
   -1.7535    0.9651    1.6714 H   0  0  0  0  0  0  0  0  0  0  0  0
   -6.0367    5.2394    1.2245 C   0  0  0  0  0  0  0  0  0  0  0  0
   -5.8159    6.5889    0.9618 C   0  0  0  0  0  0  0  0  0  0  0  0
   -5.9607    7.1101   -0.3328 C   0  0  0  0  0  0  0  0  0  0  0  0
   -6.3352    6.2411   -1.3691 C   0  0  0  0  0  0  0  0  0  0  0  0
   -6.5611    4.8884   -1.1291 C   0  0  0  0  0  0  0  0  0  0  0  0
   -6.4040    4.4013    0.1700 C   0  0  0  0  0  0  0  0  0  0  0  0
   -5.9355    4.8383    2.2268 H   0  0  0  0  0  0  0  0  0  0  0  0
   -5.5285    7.2496    1.7747 H   0  0  0  0  0  0  0  0  0  0  0  0
   -6.4552    6.6303   -2.3763 H   0  0  0  0  0  0  0  0  0  0  0  0
   -6.8626    4.2187   -1.9266 H   0  0  0  0  0  0  0  0  0  0  0  0
   -6.6947    2.6769    0.4928 S   0  0  0  0  0  0  0  0  0  0  0  0
   -6.9830    2.4723    1.9068 O   0  0  0  0  0  0  0  0  0  0  0  0
   -5.1022    2.1740    0.2067 O   0  0  0  0  0  0  0  0  0  0  0  0
   -7.5345    2.1048   -0.5527 O   0  0  0  0  0  0  0  0  0  0  0  0
   -5.7497    8.5803   -0.5997 C   0  0  0  0  0  0  0  0  0  0  0  0
   -6.6931    9.1320   -0.5051 H   0  0  0  0  0  0  0  0  0  0  0  0
   -5.0422    9.0191    0.1095 H   0  0  0  0  0  0  0  0  0  0  0  0
   -5.3728    8.7534   -1.6117 H   0  0  0  0  0  0  0  0  0  0  0  0
  1  2  1  0  0  0  0
  1 11  2  0  0  0  0
  2  3  1  0  0  0  0
  4  1  1  0  0  0  0
  5  4  2  0  0  0  0
  5  6  1  0  0  0  0
  6 10  2  0  0  0  0
  7  6  1  0  0  0  0
  7  9  2  0  0  0  0
  8  7  2  0  0  0  0
 10 11  1  0  0  0  0
 10 14  1  0  0  0  0
 11 15  1  0  0  0  0
 13  5  1  0  0  0  0
 16 22  1  0  0  0  0
 17 16  1  0  0  0  0
 17 23  1  0  0  0  0
 18 17  2  0  0  0  0
 19 20  2  0  0  0  0
 19 18  1  0  0  0  0
 20 21  1  0  0  0  0
 21 26  1  0  0  0  0
 21 16  2  0  0  0  0
 24 19  1  0  0  0  0
 25 20  1  0  0  0  0
 26 27  2  0  0  0  0
 28  3  1  0  0  0  0
 28 26  1  0  0  0  0
 29 26  2  0  0  0  0
 30 31  1  0  0  0  0
 30 18  1  0  0  0  0
 30 32  1  0  0  0  0
 33 30  1  0  0  0  0
M  RAD  4   2   2   3   2   4   2  12   2
M  END
