Coordinates from ORCA-job 4-NO2PhN2+~TsO-_B3LYPG-6-31G_dp-CH-Scan-d09-49-n800
 OpenBabel11261919023D

 33 33  0  0  0  0  0  0  0  0999 V2000
   -2.7360    1.0984   -0.1595 C   0  0  0  0  0  0  0  0  0  0  0  0
   -3.8364    0.2957    0.2722 N   0  0  0  0  0  0  0  0  0  0  0  0
   -4.9481    0.7345    0.5278 N   0  0  0  0  0  0  0  0  0  0  0  0
   -2.7261    1.9543   -1.2352 C   0  0  0  0  0  0  0  0  0  0  0  0
   -1.6700    2.6684   -1.7167 C   0  0  0  0  0  0  0  0  0  0  0  0
   -0.4675    2.4721   -1.0161 C   0  0  0  0  0  0  0  0  0  0  0  0
    0.7333    3.2024   -1.4671 N   0  0  0  0  0  0  0  0  0  0  0  0
    0.6100    3.9530   -2.4319 O   0  0  0  0  0  0  0  0  0  0  0  0
    1.7752    3.0109   -0.8441 O   0  0  0  0  0  0  0  0  0  0  0  0
   -0.3719    1.6062    0.0729 C   0  0  0  0  0  0  0  0  0  0  0  0
   -1.4997    0.9056    0.4894 C   0  0  0  0  0  0  0  0  0  0  0  0
   -5.2990    2.1761   -3.0958 H   0  0  0  0  0  0  0  0  0  0  0  0
   -1.7060    3.3348   -2.5703 H   0  0  0  0  0  0  0  0  0  0  0  0
    0.5819    1.4845    0.5696 H   0  0  0  0  0  0  0  0  0  0  0  0
   -1.4550    0.2129    1.3251 H   0  0  0  0  0  0  0  0  0  0  0  0
   -6.1675    5.3335    1.2506 C   0  0  0  0  0  0  0  0  0  0  0  0
   -5.9733    6.6611    0.8756 C   0  0  0  0  0  0  0  0  0  0  0  0
   -5.9810    7.0425   -0.4742 C   0  0  0  0  0  0  0  0  0  0  0  0
   -6.1860    6.0553   -1.4512 C   0  0  0  0  0  0  0  0  0  0  0  0
   -6.3863    4.7235   -1.1007 C   0  0  0  0  0  0  0  0  0  0  0  0
   -6.3707    4.3786    0.2535 C   0  0  0  0  0  0  0  0  0  0  0  0
   -6.1689    5.0368    2.2938 H   0  0  0  0  0  0  0  0  0  0  0  0
   -5.8141    7.4132    1.6433 H   0  0  0  0  0  0  0  0  0  0  0  0
   -6.1913    6.3349   -2.5012 H   0  0  0  0  0  0  0  0  0  0  0  0
   -6.5462    3.9631   -1.8583 H   0  0  0  0  0  0  0  0  0  0  0  0
   -6.6407    2.6862    0.7190 S   0  0  0  0  0  0  0  0  0  0  0  0
   -6.8639    2.5857    2.1553 O   0  0  0  0  0  0  0  0  0  0  0  0
   -5.0336    2.1732    0.4095 O   0  0  0  0  0  0  0  0  0  0  0  0
   -7.5025    2.0186   -0.2450 O   0  0  0  0  0  0  0  0  0  0  0  0
   -5.8019    8.4877   -0.8695 C   0  0  0  0  0  0  0  0  0  0  0  0
   -6.7743    8.9804   -0.9891 H   0  0  0  0  0  0  0  0  0  0  0  0
   -5.2440    9.0452   -0.1119 H   0  0  0  0  0  0  0  0  0  0  0  0
   -5.2721    8.5784   -1.8222 H   0  0  0  0  0  0  0  0  0  0  0  0
  1  2  1  0  0  0  0
  1 11  2  0  0  0  0
  2  3  1  0  0  0  0
  4  1  1  0  0  0  0
  5  4  2  0  0  0  0
  5  6  1  0  0  0  0
  6 10  2  0  0  0  0
  7  6  1  0  0  0  0
  7  9  2  0  0  0  0
  8  7  2  0  0  0  0
 10 11  1  0  0  0  0
 10 14  1  0  0  0  0
 11 15  1  0  0  0  0
 13  5  1  0  0  0  0
 16 22  1  0  0  0  0
 17 16  1  0  0  0  0
 17 23  1  0  0  0  0
 18 17  2  0  0  0  0
 19 20  2  0  0  0  0
 19 18  1  0  0  0  0
 20 21  1  0  0  0  0
 21 26  1  0  0  0  0
 21 16  2  0  0  0  0
 24 19  1  0  0  0  0
 25 20  1  0  0  0  0
 26 27  2  0  0  0  0
 28  3  1  0  0  0  0
 28 26  1  0  0  0  0
 29 26  2  0  0  0  0
 30 18  1  0  0  0  0
 30 32  1  0  0  0  0
 31 30  1  0  0  0  0
 33 30  1  0  0  0  0
M  RAD  4   2   2   3   2   4   2  12   2
M  END
