Coordinates from ORCA-job 4-NO2PhN2+~TsO-_B3LYPG-6-31G_dp-CH-Scan-d09-49-n800
 OpenBabel11261919023D

 33 34  0  0  0  0  0  0  0  0999 V2000
   -2.7627    1.0907   -0.1917 C   0  0  0  0  0  0  0  0  0  0  0  0
   -3.8577    0.3154    0.2953 N   0  0  0  0  0  0  0  0  0  0  0  0
   -4.9826    0.7268    0.4871 N   0  0  0  0  0  0  0  0  0  0  0  0
   -2.7172    1.5423   -1.5099 C   0  0  0  0  0  0  0  0  0  0  0  0
   -1.6048    2.1924   -2.0117 C   0  0  0  0  0  0  0  0  0  0  0  0
   -0.5227    2.3868   -1.1500 C   0  0  0  0  0  0  0  0  0  0  0  0
    0.6693    3.0853   -1.6572 N   0  0  0  0  0  0  0  0  0  0  0  0
    0.6472    3.4713   -2.8250 O   0  0  0  0  0  0  0  0  0  0  0  0
    1.6080    3.2461   -0.8789 O   0  0  0  0  0  0  0  0  0  0  0  0
   -0.5311    1.9361    0.1688 C   0  0  0  0  0  0  0  0  0  0  0  0
   -1.6533    1.2654    0.6454 C   0  0  0  0  0  0  0  0  0  0  0  0
   -3.8959    1.3040   -2.3825 H   0  0  0  0  0  0  0  0  0  0  0  0
   -1.5530    2.5510   -3.0308 H   0  0  0  0  0  0  0  0  0  0  0  0
    0.3367    2.1043    0.7940 H   0  0  0  0  0  0  0  0  0  0  0  0
   -1.6836    0.8833    1.6596 H   0  0  0  0  0  0  0  0  0  0  0  0
   -6.0613    5.2475    1.2132 C   0  0  0  0  0  0  0  0  0  0  0  0
   -5.8477    6.5990    0.9551 C   0  0  0  0  0  0  0  0  0  0  0  0
   -5.9882    7.1224   -0.3392 C   0  0  0  0  0  0  0  0  0  0  0  0
   -6.3507    6.2534   -1.3796 C   0  0  0  0  0  0  0  0  0  0  0  0
   -6.5689    4.8986   -1.1440 C   0  0  0  0  0  0  0  0  0  0  0  0
   -6.4165    4.4093    0.1546 C   0  0  0  0  0  0  0  0  0  0  0  0
   -5.9639    4.8449    2.2153 H   0  0  0  0  0  0  0  0  0  0  0  0
   -5.5696    7.2596    1.7713 H   0  0  0  0  0  0  0  0  0  0  0  0
   -6.4674    6.6443   -2.3865 H   0  0  0  0  0  0  0  0  0  0  0  0
   -6.8617    4.2288   -1.9448 H   0  0  0  0  0  0  0  0  0  0  0  0
   -6.6983    2.6822    0.4721 S   0  0  0  0  0  0  0  0  0  0  0  0
   -7.0087    2.4755    1.8812 O   0  0  0  0  0  0  0  0  0  0  0  0
   -5.1010    2.1911    0.2101 O   0  0  0  0  0  0  0  0  0  0  0  0
   -7.5186    2.1053   -0.5866 O   0  0  0  0  0  0  0  0  0  0  0  0
   -5.7856    8.5947   -0.6009 C   0  0  0  0  0  0  0  0  0  0  0  0
   -6.7306    9.1420   -0.4967 H   0  0  0  0  0  0  0  0  0  0  0  0
   -5.0750    9.0335    0.1053 H   0  0  0  0  0  0  0  0  0  0  0  0
   -5.4167    8.7743   -1.6147 H   0  0  0  0  0  0  0  0  0  0  0  0
  1  2  1  0  0  0  0
  1 11  2  0  0  0  0
  2  3  1  0  0  0  0
  4  1  1  0  0  0  0
  5  4  2  0  0  0  0
  5  6  1  0  0  0  0
  6 10  2  0  0  0  0
  7  6  1  0  0  0  0
  7  9  2  0  0  0  0
  8  7  2  0  0  0  0
 10 11  1  0  0  0  0
 10 14  1  0  0  0  0
 11 15  1  0  0  0  0
 12  4  1  0  0  0  0
 13  5  1  0  0  0  0
 16 22  1  0  0  0  0
 17 16  1  0  0  0  0
 17 23  1  0  0  0  0
 18 17  2  0  0  0  0
 19 20  2  0  0  0  0
 19 18  1  0  0  0  0
 20 21  1  0  0  0  0
 21 26  1  0  0  0  0
 21 16  2  0  0  0  0
 24 19  1  0  0  0  0
 25 20  1  0  0  0  0
 26 27  2  0  0  0  0
 28 26  1  0  0  0  0
 28  3  1  0  0  0  0
 29 26  2  0  0  0  0
 30 31  1  0  0  0  0
 30 18  1  0  0  0  0
 30 32  1  0  0  0  0
 33 30  1  0  0  0  0
M  RAD  2   2   2   3   2
M  END
