Coordinates from ORCA-job 4-NO2PhN2+~TsO-_B3LYPG-6-31G_dp-CH-Scan-d09-49-n800
 OpenBabel11261919023D

 33 33  0  0  0  0  0  0  0  0999 V2000
   -2.7806    1.0894   -0.2422 C   0  0  0  0  0  0  0  0  0  0  0  0
   -3.8806    0.2693    0.1609 N   0  0  0  0  0  0  0  0  0  0  0  0
   -4.9932    0.7024    0.4063 N   0  0  0  0  0  0  0  0  0  0  0  0
   -2.6613    1.6665   -1.4858 C   0  0  0  0  0  0  0  0  0  0  0  0
   -1.5959    2.3716   -1.9653 C   0  0  0  0  0  0  0  0  0  0  0  0
   -0.5207    2.4883   -1.0694 C   0  0  0  0  0  0  0  0  0  0  0  0
    0.6758    3.2323   -1.5026 N   0  0  0  0  0  0  0  0  0  0  0  0
    0.6638    3.7156   -2.6326 O   0  0  0  0  0  0  0  0  0  0  0  0
    1.6050    3.3213   -0.7026 O   0  0  0  0  0  0  0  0  0  0  0  0
   -0.5472    1.9207    0.2042 C   0  0  0  0  0  0  0  0  0  0  0  0
   -1.6703    1.2078    0.6149 C   0  0  0  0  0  0  0  0  0  0  0  0
   -4.8279    1.2744   -3.1621 H   0  0  0  0  0  0  0  0  0  0  0  0
   -1.5427    2.8165   -2.9510 H   0  0  0  0  0  0  0  0  0  0  0  0
    0.3125    2.0372    0.8516 H   0  0  0  0  0  0  0  0  0  0  0  0
   -1.7108    0.7456    1.5964 H   0  0  0  0  0  0  0  0  0  0  0  0
   -6.0281    5.2718    1.2574 C   0  0  0  0  0  0  0  0  0  0  0  0
   -5.8114    6.6095    0.9348 C   0  0  0  0  0  0  0  0  0  0  0  0
   -5.9321    7.0665   -0.3858 C   0  0  0  0  0  0  0  0  0  0  0  0
   -6.2769    6.1455   -1.3878 C   0  0  0  0  0  0  0  0  0  0  0  0
   -6.4995    4.8047   -1.0888 C   0  0  0  0  0  0  0  0  0  0  0  0
   -6.3680    4.3829    0.2367 C   0  0  0  0  0  0  0  0  0  0  0  0
   -5.9437    4.9184    2.2791 H   0  0  0  0  0  0  0  0  0  0  0  0
   -5.5460    7.3107    1.7209 H   0  0  0  0  0  0  0  0  0  0  0  0
   -6.3756    6.4848   -2.4151 H   0  0  0  0  0  0  0  0  0  0  0  0
   -6.7748    4.0951   -1.8608 H   0  0  0  0  0  0  0  0  0  0  0  0
   -6.6577    2.6757    0.6336 S   0  0  0  0  0  0  0  0  0  0  0  0
   -6.8632    2.5175    2.0676 O   0  0  0  0  0  0  0  0  0  0  0  0
   -5.0697    2.1518    0.2814 O   0  0  0  0  0  0  0  0  0  0  0  0
   -7.5486    2.0696   -0.3455 O   0  0  0  0  0  0  0  0  0  0  0  0
   -5.7255    8.5233   -0.7210 C   0  0  0  0  0  0  0  0  0  0  0  0
   -6.6841    9.0557   -0.7462 H   0  0  0  0  0  0  0  0  0  0  0  0
   -5.0941    9.0204    0.0206 H   0  0  0  0  0  0  0  0  0  0  0  0
   -5.2607    8.6447   -1.7039 H   0  0  0  0  0  0  0  0  0  0  0  0
  1  2  1  0  0  0  0
  1 11  2  0  0  0  0
  2  3  1  0  0  0  0
  4  1  1  0  0  0  0
  5  4  2  0  0  0  0
  5  6  1  0  0  0  0
  6 10  2  0  0  0  0
  7  6  1  0  0  0  0
  7  9  2  0  0  0  0
  8  7  2  0  0  0  0
 10 11  1  0  0  0  0
 10 14  1  0  0  0  0
 11 15  1  0  0  0  0
 13  5  1  0  0  0  0
 16 22  1  0  0  0  0
 17 16  1  0  0  0  0
 17 23  1  0  0  0  0
 18 17  2  0  0  0  0
 19 20  2  0  0  0  0
 19 18  1  0  0  0  0
 20 21  1  0  0  0  0
 21 26  1  0  0  0  0
 21 16  2  0  0  0  0
 24 19  1  0  0  0  0
 25 20  1  0  0  0  0
 26 27  2  0  0  0  0
 28  3  1  0  0  0  0
 28 26  1  0  0  0  0
 29 26  2  0  0  0  0
 30 18  1  0  0  0  0
 30 32  1  0  0  0  0
 31 30  1  0  0  0  0
 33 30  1  0  0  0  0
M  RAD  4   2   2   3   2   4   2  12   2
M  END
