Coordinates from ORCA-job 4-NO2PhN2+~TsO-_B3LYPG-6-31G_dp-CH-Scan-d09-49-n800
 OpenBabel11261919023D

 33 33  0  0  0  0  0  0  0  0999 V2000
   -2.8022    1.0746   -0.2676 C   0  0  0  0  0  0  0  0  0  0  0  0
   -3.8991    0.2658    0.1608 N   0  0  0  0  0  0  0  0  0  0  0  0
   -5.0134    0.6924    0.3926 N   0  0  0  0  0  0  0  0  0  0  0  0
   -2.6542    1.4692   -1.5877 C   0  0  0  0  0  0  0  0  0  0  0  0
   -1.5621    2.1558   -2.0645 C   0  0  0  0  0  0  0  0  0  0  0  0
   -0.5588    2.4482   -1.1338 C   0  0  0  0  0  0  0  0  0  0  0  0
    0.6318    3.1850   -1.5882 N   0  0  0  0  0  0  0  0  0  0  0  0
    0.6764    3.5163   -2.7717 O   0  0  0  0  0  0  0  0  0  0  0  0
    1.4986    3.4337   -0.7519 O   0  0  0  0  0  0  0  0  0  0  0  0
   -0.6473    2.0622    0.2029 C   0  0  0  0  0  0  0  0  0  0  0  0
   -1.7684    1.3599    0.6365 C   0  0  0  0  0  0  0  0  0  0  0  0
   -4.0471    1.0179   -2.7609 H   0  0  0  0  0  0  0  0  0  0  0  0
   -1.4583    2.4659   -3.0953 H   0  0  0  0  0  0  0  0  0  0  0  0
    0.1603    2.3091    0.8802 H   0  0  0  0  0  0  0  0  0  0  0  0
   -1.8560    1.0351    1.6677 H   0  0  0  0  0  0  0  0  0  0  0  0
   -5.9943    5.2399    1.2450 C   0  0  0  0  0  0  0  0  0  0  0  0
   -5.7702    6.5858    0.9657 C   0  0  0  0  0  0  0  0  0  0  0  0
   -5.9328    7.0952   -0.3313 C   0  0  0  0  0  0  0  0  0  0  0  0
   -6.3287    6.2183   -1.3533 C   0  0  0  0  0  0  0  0  0  0  0  0
   -6.5587    4.8697   -1.0968 C   0  0  0  0  0  0  0  0  0  0  0  0
   -6.3835    4.3944    0.2047 C   0  0  0  0  0  0  0  0  0  0  0  0
   -5.8788    4.8475    2.2492 H   0  0  0  0  0  0  0  0  0  0  0  0
   -5.4662    7.2527    1.7674 H   0  0  0  0  0  0  0  0  0  0  0  0
   -6.4622    6.5985   -2.3623 H   0  0  0  0  0  0  0  0  0  0  0  0
   -6.8760    4.1942   -1.8833 H   0  0  0  0  0  0  0  0  0  0  0  0
   -6.6804    2.6756    0.5477 S   0  0  0  0  0  0  0  0  0  0  0  0
   -6.9165    2.4800    1.9726 O   0  0  0  0  0  0  0  0  0  0  0  0
   -5.0983    2.1555    0.2091 O   0  0  0  0  0  0  0  0  0  0  0  0
   -7.5605    2.1042   -0.4635 O   0  0  0  0  0  0  0  0  0  0  0  0
   -5.7178    8.5613   -0.6169 C   0  0  0  0  0  0  0  0  0  0  0  0
   -6.6627    9.1137   -0.5463 H   0  0  0  0  0  0  0  0  0  0  0  0
   -5.0216    9.0111    0.0965 H   0  0  0  0  0  0  0  0  0  0  0  0
   -5.3246    8.7188   -1.6254 H   0  0  0  0  0  0  0  0  0  0  0  0
  1  2  1  0  0  0  0
  1 11  2  0  0  0  0
  2  3  1  0  0  0  0
  4  1  1  0  0  0  0
  5  4  2  0  0  0  0
  5  6  1  0  0  0  0
  6 10  2  0  0  0  0
  7  6  1  0  0  0  0
  7  9  2  0  0  0  0
  8  7  2  0  0  0  0
 10 11  1  0  0  0  0
 10 14  1  0  0  0  0
 11 15  1  0  0  0  0
 13  5  1  0  0  0  0
 16 22  1  0  0  0  0
 17 16  1  0  0  0  0
 17 23  1  0  0  0  0
 18 17  2  0  0  0  0
 19 20  2  0  0  0  0
 19 18  1  0  0  0  0
 20 21  1  0  0  0  0
 21 26  1  0  0  0  0
 21 16  2  0  0  0  0
 24 19  1  0  0  0  0
 25 20  1  0  0  0  0
 26 27  2  0  0  0  0
 28  3  1  0  0  0  0
 28 26  1  0  0  0  0
 29 26  2  0  0  0  0
 30 31  1  0  0  0  0
 30 18  1  0  0  0  0
 30 32  1  0  0  0  0
 33 30  1  0  0  0  0
M  RAD  4   2   2   3   2   4   2  12   2
M  END
