Coordinates from ORCA-job 4-NO2PhN2+~TsO-_B3LYPG-6-31G_dp-CH-Scan-d09-49-n800
 OpenBabel11261919023D

 33 33  0  0  0  0  0  0  0  0999 V2000
   -2.7892    1.0864   -0.2520 C   0  0  0  0  0  0  0  0  0  0  0  0
   -3.8872    0.2656    0.1547 N   0  0  0  0  0  0  0  0  0  0  0  0
   -4.9998    0.6979    0.3978 N   0  0  0  0  0  0  0  0  0  0  0  0
   -2.6462    1.5950   -1.5235 C   0  0  0  0  0  0  0  0  0  0  0  0
   -1.5785    2.2961   -2.0070 C   0  0  0  0  0  0  0  0  0  0  0  0
   -0.5347    2.4857   -1.0878 C   0  0  0  0  0  0  0  0  0  0  0  0
    0.6591    3.2308   -1.5252 N   0  0  0  0  0  0  0  0  0  0  0  0
    0.6754    3.6461   -2.6820 O   0  0  0  0  0  0  0  0  0  0  0  0
    1.5611    3.3843   -0.7039 O   0  0  0  0  0  0  0  0  0  0  0  0
   -0.5896    1.9899    0.2144 C   0  0  0  0  0  0  0  0  0  0  0  0
   -1.7109    1.2773    0.6311 C   0  0  0  0  0  0  0  0  0  0  0  0
   -4.6567    1.1092   -3.1270 H   0  0  0  0  0  0  0  0  0  0  0  0
   -1.5049    2.6879   -3.0134 H   0  0  0  0  0  0  0  0  0  0  0  0
    0.2466    2.1616    0.8801 H   0  0  0  0  0  0  0  0  0  0  0  0
   -1.7721    0.8707    1.6356 H   0  0  0  0  0  0  0  0  0  0  0  0
   -6.0111    5.2583    1.2573 C   0  0  0  0  0  0  0  0  0  0  0  0
   -5.7899    6.5986    0.9491 C   0  0  0  0  0  0  0  0  0  0  0  0
   -5.9243    7.0733   -0.3640 C   0  0  0  0  0  0  0  0  0  0  0  0
   -6.2880    6.1674   -1.3731 C   0  0  0  0  0  0  0  0  0  0  0  0
   -6.5151    4.8243   -1.0882 C   0  0  0  0  0  0  0  0  0  0  0  0
   -6.3693    4.3844    0.2297 C   0  0  0  0  0  0  0  0  0  0  0  0
   -5.9166    4.8917    2.2734 H   0  0  0  0  0  0  0  0  0  0  0  0
   -5.5102    7.2880    1.7405 H   0  0  0  0  0  0  0  0  0  0  0  0
   -6.3982    6.5206   -2.3946 H   0  0  0  0  0  0  0  0  0  0  0  0
   -6.8057    4.1263   -1.8653 H   0  0  0  0  0  0  0  0  0  0  0  0
   -6.6638    2.6738    0.6087 S   0  0  0  0  0  0  0  0  0  0  0  0
   -6.8764    2.5025    2.0401 O   0  0  0  0  0  0  0  0  0  0  0  0
   -5.0772    2.1492    0.2585 O   0  0  0  0  0  0  0  0  0  0  0  0
   -7.5527    2.0801   -0.3802 O   0  0  0  0  0  0  0  0  0  0  0  0
   -5.7124    8.5329   -0.6831 C   0  0  0  0  0  0  0  0  0  0  0  0
   -6.6677    9.0716   -0.6897 H   0  0  0  0  0  0  0  0  0  0  0  0
   -5.0686    9.0163    0.0569 H   0  0  0  0  0  0  0  0  0  0  0  0
   -5.2590    8.6641   -1.6700 H   0  0  0  0  0  0  0  0  0  0  0  0
  1  2  1  0  0  0  0
  1 11  2  0  0  0  0
  2  3  1  0  0  0  0
  4  1  1  0  0  0  0
  5  4  2  0  0  0  0
  5  6  1  0  0  0  0
  6 10  2  0  0  0  0
  7  6  1  0  0  0  0
  7  9  2  0  0  0  0
  8  7  2  0  0  0  0
 10 11  1  0  0  0  0
 10 14  1  0  0  0  0
 11 15  1  0  0  0  0
 13  5  1  0  0  0  0
 16 22  1  0  0  0  0
 17 16  1  0  0  0  0
 17 23  1  0  0  0  0
 18 17  2  0  0  0  0
 19 20  2  0  0  0  0
 19 18  1  0  0  0  0
 20 21  1  0  0  0  0
 21 26  1  0  0  0  0
 21 16  2  0  0  0  0
 24 19  1  0  0  0  0
 25 20  1  0  0  0  0
 26 27  2  0  0  0  0
 28  3  1  0  0  0  0
 28 26  1  0  0  0  0
 29 26  2  0  0  0  0
 30 18  1  0  0  0  0
 30 32  1  0  0  0  0
 31 30  1  0  0  0  0
 33 30  1  0  0  0  0
M  RAD  4   2   2   3   2   4   2  12   2
M  END
