Coordinates from ORCA-job 4-NO2PhN2+~TsO-_B3LYPG-6-31G_dp-CH-Scan-d09-49-n800
 OpenBabel11261919023D

 33 34  0  0  0  0  0  0  0  0999 V2000
   -2.5880    1.1450   -0.1243 C   0  0  0  0  0  0  0  0  0  0  0  0
   -3.7526    0.5061    0.3676 N   0  0  0  0  0  0  0  0  0  0  0  0
   -4.8764    0.8752    0.5731 N   0  0  0  0  0  0  0  0  0  0  0  0
   -2.5510    2.3790   -0.8019 C   0  0  0  0  0  0  0  0  0  0  0  0
   -1.3225    2.8543   -1.2529 C   0  0  0  0  0  0  0  0  0  0  0  0
   -0.1681    2.1112   -1.0172 C   0  0  0  0  0  0  0  0  0  0  0  0
    1.1267    2.6374   -1.4939 N   0  0  0  0  0  0  0  0  0  0  0  0
    1.1172    3.7169   -2.0813 O   0  0  0  0  0  0  0  0  0  0  0  0
    2.1280    1.9609   -1.2706 O   0  0  0  0  0  0  0  0  0  0  0  0
   -0.1905    0.8872   -0.3525 C   0  0  0  0  0  0  0  0  0  0  0  0
   -1.4158    0.4001    0.0837 C   0  0  0  0  0  0  0  0  0  0  0  0
   -3.3382    2.8710   -0.9502 H   0  0  0  0  0  0  0  0  0  0  0  0
   -1.2481    3.7973   -1.7794 H   0  0  0  0  0  0  0  0  0  0  0  0
    0.7316    0.3422   -0.1978 H   0  0  0  0  0  0  0  0  0  0  0  0
   -1.4896   -0.5544    0.5918 H   0  0  0  0  0  0  0  0  0  0  0  0
   -6.1166    5.4767    1.1035 C   0  0  0  0  0  0  0  0  0  0  0  0
   -6.0375    6.8161    0.7300 C   0  0  0  0  0  0  0  0  0  0  0  0
   -6.3818    7.2302   -0.5659 C   0  0  0  0  0  0  0  0  0  0  0  0
   -6.8088    6.2630   -1.4883 C   0  0  0  0  0  0  0  0  0  0  0  0
   -6.8947    4.9183   -1.1350 C   0  0  0  0  0  0  0  0  0  0  0  0
   -6.5420    4.5380    0.1614 C   0  0  0  0  0  0  0  0  0  0  0  0
   -5.8644    5.1579    2.1088 H   0  0  0  0  0  0  0  0  0  0  0  0
   -5.7085    7.5537    1.4569 H   0  0  0  0  0  0  0  0  0  0  0  0
   -7.0836    6.5686   -2.4940 H   0  0  0  0  0  0  0  0  0  0  0  0
   -7.2398    4.1718   -1.8419 H   0  0  0  0  0  0  0  0  0  0  0  0
   -6.6564    2.8207    0.6287 S   0  0  0  0  0  0  0  0  0  0  0  0
   -6.8041    2.7150    2.0773 O   0  0  0  0  0  0  0  0  0  0  0  0
   -5.0978    2.4091    0.2281 O   0  0  0  0  0  0  0  0  0  0  0  0
   -7.5677    2.1275   -0.2771 O   0  0  0  0  0  0  0  0  0  0  0  0
   -6.3274    8.6892   -0.9487 C   0  0  0  0  0  0  0  0  0  0  0  0
   -7.2834    9.1840   -0.7348 H   0  0  0  0  0  0  0  0  0  0  0  0
   -5.5538    9.2222   -0.3891 H   0  0  0  0  0  0  0  0  0  0  0  0
   -6.1278    8.8165   -2.0165 H   0  0  0  0  0  0  0  0  0  0  0  0
  1 11  1  0  0  0  0
  1  2  1  0  0  0  0
  2  3  1  0  0  0  0
  4  1  2  0  0  0  0
  5  6  2  0  0  0  0
  5  4  1  0  0  0  0
  6 10  1  0  0  0  0
  7  9  2  0  0  0  0
  7  6  1  0  0  0  0
  8  7  2  0  0  0  0
 10 14  1  0  0  0  0
 10 11  2  0  0  0  0
 11 15  1  0  0  0  0
 12  4  1  0  0  0  0
 13  5  1  0  0  0  0
 16 22  1  0  0  0  0
 17 16  1  0  0  0  0
 17 23  1  0  0  0  0
 18 17  2  0  0  0  0
 19 20  2  0  0  0  0
 19 18  1  0  0  0  0
 20 21  1  0  0  0  0
 21 26  1  0  0  0  0
 21 16  2  0  0  0  0
 24 19  1  0  0  0  0
 25 20  1  0  0  0  0
 26 27  2  0  0  0  0
 28  3  1  0  0  0  0
 28 26  1  0  0  0  0
 29 26  2  0  0  0  0
 30 31  1  0  0  0  0
 30 18  1  0  0  0  0
 30 32  1  0  0  0  0
 33 30  1  0  0  0  0
M  RAD  2   2   2   3   2
M  END
