Coordinates from ORCA-job 4-NO2PhN2+~TsO-_B3LYPG-6-31G_dp-CH-Scan-d09-49-n800
 OpenBabel11261919023D

 33 33  0  0  0  0  0  0  0  0999 V2000
   -2.8014    1.0752   -0.2658 C   0  0  0  0  0  0  0  0  0  0  0  0
   -3.8981    0.2670    0.1644 N   0  0  0  0  0  0  0  0  0  0  0  0
   -5.0127    0.6931    0.3950 N   0  0  0  0  0  0  0  0  0  0  0  0
   -2.6563    1.4698   -1.5866 C   0  0  0  0  0  0  0  0  0  0  0  0
   -1.5636    2.1558   -2.0638 C   0  0  0  0  0  0  0  0  0  0  0  0
   -0.5587    2.4474   -1.1347 C   0  0  0  0  0  0  0  0  0  0  0  0
    0.6315    3.1837   -1.5907 N   0  0  0  0  0  0  0  0  0  0  0  0
    0.6773    3.5101   -2.7755 O   0  0  0  0  0  0  0  0  0  0  0  0
    1.5025    3.4265   -0.7570 O   0  0  0  0  0  0  0  0  0  0  0  0
   -0.6453    2.0611    0.2020 C   0  0  0  0  0  0  0  0  0  0  0  0
   -1.7661    1.3592    0.6369 C   0  0  0  0  0  0  0  0  0  0  0  0
   -4.0360    1.0252   -2.7460 H   0  0  0  0  0  0  0  0  0  0  0  0
   -1.4609    2.4662   -3.0946 H   0  0  0  0  0  0  0  0  0  0  0  0
    0.1635    2.3072    0.8782 H   0  0  0  0  0  0  0  0  0  0  0  0
   -1.8523    1.0339    1.6681 H   0  0  0  0  0  0  0  0  0  0  0  0
   -5.9965    5.2398    1.2442 C   0  0  0  0  0  0  0  0  0  0  0  0
   -5.7725    6.5858    0.9658 C   0  0  0  0  0  0  0  0  0  0  0  0
   -5.9343    7.0959   -0.3310 C   0  0  0  0  0  0  0  0  0  0  0  0
   -6.3292    6.2196   -1.3538 C   0  0  0  0  0  0  0  0  0  0  0  0
   -6.5590    4.8707   -1.0982 C   0  0  0  0  0  0  0  0  0  0  0  0
   -6.3847    4.3947    0.2031 C   0  0  0  0  0  0  0  0  0  0  0  0
   -5.8816    4.8468    2.2482 H   0  0  0  0  0  0  0  0  0  0  0  0
   -5.4693    7.2523    1.7681 H   0  0  0  0  0  0  0  0  0  0  0  0
   -6.4620    6.6003   -2.3626 H   0  0  0  0  0  0  0  0  0  0  0  0
   -6.8756    4.1956   -1.8853 H   0  0  0  0  0  0  0  0  0  0  0  0
   -6.6812    2.6756    0.5450 S   0  0  0  0  0  0  0  0  0  0  0  0
   -6.9198    2.4794    1.9694 O   0  0  0  0  0  0  0  0  0  0  0  0
   -5.0986    2.1563    0.2087 O   0  0  0  0  0  0  0  0  0  0  0  0
   -7.5594    2.1043   -0.4680 O   0  0  0  0  0  0  0  0  0  0  0  0
   -5.7194    8.5622   -0.6155 C   0  0  0  0  0  0  0  0  0  0  0  0
   -6.6643    9.1147   -0.5435 H   0  0  0  0  0  0  0  0  0  0  0  0
   -5.0226    9.0114    0.0976 H   0  0  0  0  0  0  0  0  0  0  0  0
   -5.3273    8.7207   -1.6243 H   0  0  0  0  0  0  0  0  0  0  0  0
  1  2  1  0  0  0  0
  1 11  2  0  0  0  0
  2  3  1  0  0  0  0
  4  1  1  0  0  0  0
  5  4  2  0  0  0  0
  5  6  1  0  0  0  0
  6 10  2  0  0  0  0
  7  6  1  0  0  0  0
  7  9  2  0  0  0  0
  8  7  2  0  0  0  0
 10 11  1  0  0  0  0
 10 14  1  0  0  0  0
 11 15  1  0  0  0  0
 13  5  1  0  0  0  0
 16 22  1  0  0  0  0
 17 16  1  0  0  0  0
 17 23  1  0  0  0  0
 18 17  2  0  0  0  0
 19 20  2  0  0  0  0
 19 18  1  0  0  0  0
 20 21  1  0  0  0  0
 21 26  1  0  0  0  0
 21 16  2  0  0  0  0
 24 19  1  0  0  0  0
 25 20  1  0  0  0  0
 26 27  2  0  0  0  0
 28  3  1  0  0  0  0
 28 26  1  0  0  0  0
 29 26  2  0  0  0  0
 30 31  1  0  0  0  0
 30 18  1  0  0  0  0
 30 32  1  0  0  0  0
 33 30  1  0  0  0  0
M  RAD  4   2   2   3   2   4   2  12   2
M  END
