Coordinates from ORCA-job 4-NO2PhN2+~TsO-_B3LYPG-6-31G_dp-CH-Scan-d09-49-n800
 OpenBabel11261919023D

 33 33  0  0  0  0  0  0  0  0999 V2000
   -2.8082    1.0755   -0.2834 C   0  0  0  0  0  0  0  0  0  0  0  0
   -3.9061    0.2579    0.1271 N   0  0  0  0  0  0  0  0  0  0  0  0
   -5.0179    0.6881    0.3688 N   0  0  0  0  0  0  0  0  0  0  0  0
   -2.6294    1.4722   -1.5946 C   0  0  0  0  0  0  0  0  0  0  0  0
   -1.5461    2.1666   -2.0684 C   0  0  0  0  0  0  0  0  0  0  0  0
   -0.5592    2.4685   -1.1209 C   0  0  0  0  0  0  0  0  0  0  0  0
    0.6328    3.2136   -1.5592 N   0  0  0  0  0  0  0  0  0  0  0  0
    0.6975    3.5335   -2.7446 O   0  0  0  0  0  0  0  0  0  0  0  0
    1.4887    3.4621   -0.7118 O   0  0  0  0  0  0  0  0  0  0  0  0
   -0.6670    2.0847    0.2152 C   0  0  0  0  0  0  0  0  0  0  0  0
   -1.7891    1.3754    0.6350 C   0  0  0  0  0  0  0  0  0  0  0  0
   -4.1908    0.9312   -2.9410 H   0  0  0  0  0  0  0  0  0  0  0  0
   -1.4310    2.4747   -3.0989 H   0  0  0  0  0  0  0  0  0  0  0  0
    0.1278    2.3400    0.9045 H   0  0  0  0  0  0  0  0  0  0  0  0
   -1.8906    1.0549    1.6666 H   0  0  0  0  0  0  0  0  0  0  0  0
   -5.9765    5.2408    1.2540 C   0  0  0  0  0  0  0  0  0  0  0  0
   -5.7515    6.5847    0.9660 C   0  0  0  0  0  0  0  0  0  0  0  0
   -5.9216    7.0873   -0.3326 C   0  0  0  0  0  0  0  0  0  0  0  0
   -6.3259    6.2057   -1.3475 C   0  0  0  0  0  0  0  0  0  0  0  0
   -6.5571    4.8591   -1.0823 C   0  0  0  0  0  0  0  0  0  0  0  0
   -6.3744    4.3907    0.2209 C   0  0  0  0  0  0  0  0  0  0  0  0
   -5.8549    4.8534    2.2595 H   0  0  0  0  0  0  0  0  0  0  0  0
   -5.4410    7.2554    1.7620 H   0  0  0  0  0  0  0  0  0  0  0  0
   -6.4649    6.5806   -2.3576 H   0  0  0  0  0  0  0  0  0  0  0  0
   -6.8803    4.1800   -1.8632 H   0  0  0  0  0  0  0  0  0  0  0  0
   -6.6729    2.6748    0.5749 S   0  0  0  0  0  0  0  0  0  0  0  0
   -6.8823    2.4839    2.0046 O   0  0  0  0  0  0  0  0  0  0  0  0
   -5.0954    2.1476    0.2105 O   0  0  0  0  0  0  0  0  0  0  0  0
   -7.5716    2.1023   -0.4186 O   0  0  0  0  0  0  0  0  0  0  0  0
   -5.7051    8.5512   -0.6283 C   0  0  0  0  0  0  0  0  0  0  0  0
   -6.6522    9.1020   -0.5782 H   0  0  0  0  0  0  0  0  0  0  0  0
   -5.0211    9.0092    0.0916 H   0  0  0  0  0  0  0  0  0  0  0  0
   -5.2963    8.7000   -1.6320 H   0  0  0  0  0  0  0  0  0  0  0  0
  1  2  1  0  0  0  0
  1 11  2  0  0  0  0
  2  3  1  0  0  0  0
  4  1  1  0  0  0  0
  5  4  2  0  0  0  0
  5  6  1  0  0  0  0
  6 10  2  0  0  0  0
  7  6  1  0  0  0  0
  7  9  2  0  0  0  0
  8  7  2  0  0  0  0
 10 11  1  0  0  0  0
 10 14  1  0  0  0  0
 11 15  1  0  0  0  0
 13  5  1  0  0  0  0
 16 22  1  0  0  0  0
 17 16  1  0  0  0  0
 17 23  1  0  0  0  0
 18 17  2  0  0  0  0
 19 20  2  0  0  0  0
 19 18  1  0  0  0  0
 20 21  1  0  0  0  0
 21 26  1  0  0  0  0
 21 16  2  0  0  0  0
 24 19  1  0  0  0  0
 25 20  1  0  0  0  0
 26 27  2  0  0  0  0
 28  3  1  0  0  0  0
 28 26  1  0  0  0  0
 29 26  2  0  0  0  0
 30 31  1  0  0  0  0
 30 18  1  0  0  0  0
 30 32  1  0  0  0  0
 33 30  1  0  0  0  0
M  RAD  4   2   2   3   2   4   2  12   2
M  END
