Coordinates from ORCA-job 4-NO2PhN2+~TsO-_B3LYPG-6-31G_dp-CH-Scan-d09-49-n800
 OpenBabel11261919023D

 33 34  0  0  0  0  0  0  0  0999 V2000
   -2.7197    1.1059   -0.1618 C   0  0  0  0  0  0  0  0  0  0  0  0
   -3.8312    0.3647    0.3349 N   0  0  0  0  0  0  0  0  0  0  0  0
   -4.9607    0.7651    0.5082 N   0  0  0  0  0  0  0  0  0  0  0  0
   -2.7348    1.7218   -1.4177 C   0  0  0  0  0  0  0  0  0  0  0  0
   -1.5896    2.3284   -1.9111 C   0  0  0  0  0  0  0  0  0  0  0  0
   -0.4386    2.3168   -1.1221 C   0  0  0  0  0  0  0  0  0  0  0  0
    0.7778    2.9710   -1.6325 N   0  0  0  0  0  0  0  0  0  0  0  0
    0.7161    3.4965   -2.7428 O   0  0  0  0  0  0  0  0  0  0  0  0
    1.7835    2.9307   -0.9258 O   0  0  0  0  0  0  0  0  0  0  0  0
   -0.3981    1.6994    0.1266 C   0  0  0  0  0  0  0  0  0  0  0  0
   -1.5440    1.0684    0.5987 C   0  0  0  0  0  0  0  0  0  0  0  0
   -3.8165    1.7153   -2.1123 H   0  0  0  0  0  0  0  0  0  0  0  0
   -1.5693    2.8106   -2.8795 H   0  0  0  0  0  0  0  0  0  0  0  0
    0.5226    1.7074    0.6960 H   0  0  0  0  0  0  0  0  0  0  0  0
   -1.5434    0.5541    1.5531 H   0  0  0  0  0  0  0  0  0  0  0  0
   -6.0754    5.2854    1.1805 C   0  0  0  0  0  0  0  0  0  0  0  0
   -5.8915    6.6387    0.9106 C   0  0  0  0  0  0  0  0  0  0  0  0
   -6.0816    7.1543   -0.3807 C   0  0  0  0  0  0  0  0  0  0  0  0
   -6.4630    6.2753   -1.4054 C   0  0  0  0  0  0  0  0  0  0  0  0
   -6.6521    4.9179   -1.1574 C   0  0  0  0  0  0  0  0  0  0  0  0
   -6.4507    4.4364    0.1373 C   0  0  0  0  0  0  0  0  0  0  0  0
   -5.9405    4.8890    2.1808 H   0  0  0  0  0  0  0  0  0  0  0  0
   -5.5987    7.3074    1.7151 H   0  0  0  0  0  0  0  0  0  0  0  0
   -6.6187    6.6600   -2.4094 H   0  0  0  0  0  0  0  0  0  0  0  0
   -6.9609    4.2401   -1.9454 H   0  0  0  0  0  0  0  0  0  0  0  0
   -6.6979    2.7061    0.4712 S   0  0  0  0  0  0  0  0  0  0  0  0
   -6.9922    2.5074    1.8853 O   0  0  0  0  0  0  0  0  0  0  0  0
   -5.1025    2.2389    0.1963 O   0  0  0  0  0  0  0  0  0  0  0  0
   -7.5243    2.1108   -0.5733 O   0  0  0  0  0  0  0  0  0  0  0  0
   -5.9117    8.6290   -0.6530 C   0  0  0  0  0  0  0  0  0  0  0  0
   -6.8503    9.1684   -0.4744 H   0  0  0  0  0  0  0  0  0  0  0  0
   -5.1532    9.0721   -0.0013 H   0  0  0  0  0  0  0  0  0  0  0  0
   -5.6225    8.8144   -1.6911 H   0  0  0  0  0  0  0  0  0  0  0  0
  1  2  1  0  0  0  0
  1 11  2  0  0  0  0
  2  3  1  0  0  0  0
  4  1  1  0  0  0  0
  5  4  2  0  0  0  0
  5  6  1  0  0  0  0
  6 10  2  0  0  0  0
  7  6  1  0  0  0  0
  7  9  2  0  0  0  0
  8  7  2  0  0  0  0
 10 11  1  0  0  0  0
 10 14  1  0  0  0  0
 11 15  1  0  0  0  0
 12  4  1  0  0  0  0
 13  5  1  0  0  0  0
 16 22  1  0  0  0  0
 17 16  1  0  0  0  0
 17 23  1  0  0  0  0
 18 17  2  0  0  0  0
 19 20  2  0  0  0  0
 19 18  1  0  0  0  0
 20 21  1  0  0  0  0
 21 26  1  0  0  0  0
 21 16  2  0  0  0  0
 24 19  1  0  0  0  0
 25 20  1  0  0  0  0
 26 27  2  0  0  0  0
 28 26  1  0  0  0  0
 28  3  1  0  0  0  0
 29 26  2  0  0  0  0
 30 31  1  0  0  0  0
 30 18  1  0  0  0  0
 30 32  1  0  0  0  0
 33 30  1  0  0  0  0
M  RAD  2   2   2   3   2
M  END
