Coordinates from ORCA-job 4-NO2PhN2+~TsO-_B3LYPG-6-31G_dp-CH-Scan-d09-49-n800
 OpenBabel11261919023D

 33 33  0  0  0  0  0  0  0  0999 V2000
   -2.7839    1.0822   -0.2259 C   0  0  0  0  0  0  0  0  0  0  0  0
   -3.8776    0.2889    0.2370 N   0  0  0  0  0  0  0  0  0  0  0  0
   -4.9984    0.7069    0.4450 N   0  0  0  0  0  0  0  0  0  0  0  0
   -2.6914    1.4910   -1.5520 C   0  0  0  0  0  0  0  0  0  0  0  0
   -1.5897    2.1618   -2.0427 C   0  0  0  0  0  0  0  0  0  0  0  0
   -0.5490    2.4211   -1.1465 C   0  0  0  0  0  0  0  0  0  0  0  0
    0.6389    3.1416   -1.6320 N   0  0  0  0  0  0  0  0  0  0  0  0
    0.6520    3.4833   -2.8135 O   0  0  0  0  0  0  0  0  0  0  0  0
    1.5426    3.3557   -0.8255 O   0  0  0  0  0  0  0  0  0  0  0  0
   -0.5960    2.0159    0.1863 C   0  0  0  0  0  0  0  0  0  0  0  0
   -1.7146    1.3269    0.6459 C   0  0  0  0  0  0  0  0  0  0  0  0
   -3.9356    1.1471   -2.5406 H   0  0  0  0  0  0  0  0  0  0  0  0
   -1.5123    2.4864   -3.0715 H   0  0  0  0  0  0  0  0  0  0  0  0
    0.2402    2.2353    0.8380 H   0  0  0  0  0  0  0  0  0  0  0  0
   -1.7722    0.9832    1.6728 H   0  0  0  0  0  0  0  0  0  0  0  0
   -6.0299    5.2384    1.2277 C   0  0  0  0  0  0  0  0  0  0  0  0
   -5.8078    6.5873    0.9632 C   0  0  0  0  0  0  0  0  0  0  0  0
   -5.9550    7.1074   -0.3316 C   0  0  0  0  0  0  0  0  0  0  0  0
   -6.3330    6.2379   -1.3662 C   0  0  0  0  0  0  0  0  0  0  0  0
   -6.5602    4.8858   -1.1244 C   0  0  0  0  0  0  0  0  0  0  0  0
   -6.4007    4.3998    0.1749 C   0  0  0  0  0  0  0  0  0  0  0  0
   -5.9268    4.8380    2.2302 H   0  0  0  0  0  0  0  0  0  0  0  0
   -5.5177    7.2484    1.7748 H   0  0  0  0  0  0  0  0  0  0  0  0
   -6.4547    6.6263   -2.3735 H   0  0  0  0  0  0  0  0  0  0  0  0
   -6.8643    4.2157   -1.9206 H   0  0  0  0  0  0  0  0  0  0  0  0
   -6.6931    2.6762    0.4999 S   0  0  0  0  0  0  0  0  0  0  0  0
   -6.9740    2.4725    1.9155 O   0  0  0  0  0  0  0  0  0  0  0  0
   -5.1021    2.1704    0.2061 O   0  0  0  0  0  0  0  0  0  0  0  0
   -7.5390    2.1048   -0.5410 O   0  0  0  0  0  0  0  0  0  0  0  0
   -5.7426    8.5770   -0.6005 C   0  0  0  0  0  0  0  0  0  0  0  0
   -6.6858    9.1295   -0.5082 H   0  0  0  0  0  0  0  0  0  0  0  0
   -5.0358    9.0166    0.1089 H   0  0  0  0  0  0  0  0  0  0  0  0
   -5.3641    8.7482   -1.6123 H   0  0  0  0  0  0  0  0  0  0  0  0
  1  2  1  0  0  0  0
  1 11  2  0  0  0  0
  2  3  1  0  0  0  0
  4  1  1  0  0  0  0
  5  4  2  0  0  0  0
  5  6  1  0  0  0  0
  6 10  2  0  0  0  0
  7  6  1  0  0  0  0
  7  9  2  0  0  0  0
  8  7  2  0  0  0  0
 10 11  1  0  0  0  0
 10 14  1  0  0  0  0
 11 15  1  0  0  0  0
 13  5  1  0  0  0  0
 16 22  1  0  0  0  0
 17 16  1  0  0  0  0
 17 23  1  0  0  0  0
 18 17  2  0  0  0  0
 19 20  2  0  0  0  0
 19 18  1  0  0  0  0
 20 21  1  0  0  0  0
 21 26  1  0  0  0  0
 21 16  2  0  0  0  0
 24 19  1  0  0  0  0
 25 20  1  0  0  0  0
 26 27  2  0  0  0  0
 28  3  1  0  0  0  0
 28 26  1  0  0  0  0
 29 26  2  0  0  0  0
 30 31  1  0  0  0  0
 30 18  1  0  0  0  0
 30 32  1  0  0  0  0
 33 30  1  0  0  0  0
M  RAD  4   2   2   3   2   4   2  12   2
M  END
