Coordinates from ORCA-job 4-NO2PhN2+~TsO-_B3LYPG-6-31G_dp-CH-Scan-d09-49-n800
 OpenBabel11261919023D

 33 33  0  0  0  0  0  0  0  0999 V2000
   -2.7909    1.0790   -0.2404 C   0  0  0  0  0  0  0  0  0  0  0  0
   -3.8853    0.2801    0.2115 N   0  0  0  0  0  0  0  0  0  0  0  0
   -5.0040    0.7010    0.4273 N   0  0  0  0  0  0  0  0  0  0  0  0
   -2.6797    1.4787   -1.5664 C   0  0  0  0  0  0  0  0  0  0  0  0
   -1.5812    2.1557   -2.0520 C   0  0  0  0  0  0  0  0  0  0  0  0
   -0.5546    2.4311   -1.1435 C   0  0  0  0  0  0  0  0  0  0  0  0
    0.6334    3.1581   -1.6190 N   0  0  0  0  0  0  0  0  0  0  0  0
    0.6586    3.4917   -2.8026 O   0  0  0  0  0  0  0  0  0  0  0  0
    1.5241    3.3866   -0.8022 O   0  0  0  0  0  0  0  0  0  0  0  0
   -0.6165    2.0363    0.1919 C   0  0  0  0  0  0  0  0  0  0  0  0
   -1.7353    1.3421    0.6432 C   0  0  0  0  0  0  0  0  0  0  0  0
   -3.9584    1.0991   -2.6058 H   0  0  0  0  0  0  0  0  0  0  0  0
   -1.4940    2.4725   -3.0823 H   0  0  0  0  0  0  0  0  0  0  0  0
    0.2089    2.2687    0.8528 H   0  0  0  0  0  0  0  0  0  0  0  0
   -1.8037    1.0078    1.6727 H   0  0  0  0  0  0  0  0  0  0  0  0
   -6.0176    5.2377    1.2335 C   0  0  0  0  0  0  0  0  0  0  0  0
   -5.7942    6.5857    0.9648 C   0  0  0  0  0  0  0  0  0  0  0  0
   -5.9461    7.1030   -0.3305 C   0  0  0  0  0  0  0  0  0  0  0  0
   -6.3304    6.2318   -1.3614 C   0  0  0  0  0  0  0  0  0  0  0  0
   -6.5592    4.8808   -1.1155 C   0  0  0  0  0  0  0  0  0  0  0  0
   -6.3949    4.3976    0.1843 C   0  0  0  0  0  0  0  0  0  0  0  0
   -5.9107    4.8395    2.2363 H   0  0  0  0  0  0  0  0  0  0  0  0
   -5.4992    7.2482    1.7735 H   0  0  0  0  0  0  0  0  0  0  0  0
   -6.4557    6.6180   -2.3691 H   0  0  0  0  0  0  0  0  0  0  0  0
   -6.8680    4.2095   -1.9089 H   0  0  0  0  0  0  0  0  0  0  0  0
   -6.6895    2.6755    0.5143 S   0  0  0  0  0  0  0  0  0  0  0  0
   -6.9566    2.4740    1.9330 O   0  0  0  0  0  0  0  0  0  0  0  0
   -5.1014    2.1646    0.2063 O   0  0  0  0  0  0  0  0  0  0  0  0
   -7.5464    2.1048   -0.5176 O   0  0  0  0  0  0  0  0  0  0  0  0
   -5.7321    8.5715   -0.6041 C   0  0  0  0  0  0  0  0  0  0  0  0
   -6.6753    9.1248   -0.5170 H   0  0  0  0  0  0  0  0  0  0  0  0
   -5.0273    9.0133    0.1060 H   0  0  0  0  0  0  0  0  0  0  0  0
   -5.3502    8.7388   -1.6153 H   0  0  0  0  0  0  0  0  0  0  0  0
  1  2  1  0  0  0  0
  1 11  2  0  0  0  0
  2  3  1  0  0  0  0
  4  1  1  0  0  0  0
  5  4  2  0  0  0  0
  5  6  1  0  0  0  0
  6 10  2  0  0  0  0
  7  6  1  0  0  0  0
  7  9  2  0  0  0  0
  8  7  2  0  0  0  0
 10 11  1  0  0  0  0
 10 14  1  0  0  0  0
 11 15  1  0  0  0  0
 13  5  1  0  0  0  0
 16 22  1  0  0  0  0
 17 16  1  0  0  0  0
 17 23  1  0  0  0  0
 18 17  2  0  0  0  0
 19 20  2  0  0  0  0
 19 18  1  0  0  0  0
 20 21  1  0  0  0  0
 21 26  1  0  0  0  0
 21 16  2  0  0  0  0
 24 19  1  0  0  0  0
 25 20  1  0  0  0  0
 26 27  2  0  0  0  0
 28  3  1  0  0  0  0
 28 26  1  0  0  0  0
 29 26  2  0  0  0  0
 30 31  1  0  0  0  0
 30 18  1  0  0  0  0
 30 32  1  0  0  0  0
 33 30  1  0  0  0  0
M  RAD  4   2   2   3   2   4   2  12   2
M  END
