Coordinates from ORCA-job 4-NO2PhN2+~TsO-_B3LYPG-6-31G_dp-CH-Scan-d09-49-n800
 OpenBabel11261919023D

 33 33  0  0  0  0  0  0  0  0999 V2000
   -2.7865    1.0810   -0.2308 C   0  0  0  0  0  0  0  0  0  0  0  0
   -3.8803    0.2857    0.2284 N   0  0  0  0  0  0  0  0  0  0  0  0
   -5.0004    0.7047    0.4390 N   0  0  0  0  0  0  0  0  0  0  0  0
   -2.6876    1.4863   -1.5571 C   0  0  0  0  0  0  0  0  0  0  0  0
   -1.5870    2.1593   -2.0460 C   0  0  0  0  0  0  0  0  0  0  0  0
   -0.5512    2.4246   -1.1456 C   0  0  0  0  0  0  0  0  0  0  0  0
    0.6366    3.1474   -1.6278 N   0  0  0  0  0  0  0  0  0  0  0  0
    0.6535    3.4868   -2.8099 O   0  0  0  0  0  0  0  0  0  0  0  0
    1.5354    3.3676   -0.8175 O   0  0  0  0  0  0  0  0  0  0  0  0
   -0.6033    2.0233    0.1882 C   0  0  0  0  0  0  0  0  0  0  0  0
   -1.7219    1.3324    0.6451 C   0  0  0  0  0  0  0  0  0  0  0  0
   -3.9419    1.1303   -2.5617 H   0  0  0  0  0  0  0  0  0  0  0  0
   -1.5063    2.4810   -3.0754 H   0  0  0  0  0  0  0  0  0  0  0  0
    0.2291    2.2474    0.8431 H   0  0  0  0  0  0  0  0  0  0  0  0
   -1.7832    0.9921    1.6730 H   0  0  0  0  0  0  0  0  0  0  0  0
   -6.0256    5.2380    1.2296 C   0  0  0  0  0  0  0  0  0  0  0  0
   -5.8029    6.5866    0.9638 C   0  0  0  0  0  0  0  0  0  0  0  0
   -5.9516    7.1058   -0.3311 C   0  0  0  0  0  0  0  0  0  0  0  0
   -6.3319    6.2358   -1.3646 C   0  0  0  0  0  0  0  0  0  0  0  0
   -6.5598    4.8841   -1.1214 C   0  0  0  0  0  0  0  0  0  0  0  0
   -6.3987    4.3989    0.1780 C   0  0  0  0  0  0  0  0  0  0  0  0
   -5.9212    4.8383    2.2322 H   0  0  0  0  0  0  0  0  0  0  0  0
   -5.5111    7.2481    1.7744 H   0  0  0  0  0  0  0  0  0  0  0  0
   -6.4548    6.6235   -2.3720 H   0  0  0  0  0  0  0  0  0  0  0  0
   -6.8656    4.2137   -1.9167 H   0  0  0  0  0  0  0  0  0  0  0  0
   -6.6920    2.6759    0.5046 S   0  0  0  0  0  0  0  0  0  0  0  0
   -6.9683    2.4728    1.9212 O   0  0  0  0  0  0  0  0  0  0  0  0
   -5.1020    2.1683    0.2060 O   0  0  0  0  0  0  0  0  0  0  0  0
   -7.5416    2.1048   -0.5333 O   0  0  0  0  0  0  0  0  0  0  0  0
   -5.7386    8.5751   -0.6016 C   0  0  0  0  0  0  0  0  0  0  0  0
   -6.6816    9.1279   -0.5108 H   0  0  0  0  0  0  0  0  0  0  0  0
   -5.0322    9.0152    0.1079 H   0  0  0  0  0  0  0  0  0  0  0  0
   -5.3591    8.7450   -1.6132 H   0  0  0  0  0  0  0  0  0  0  0  0
  1  2  1  0  0  0  0
  1 11  2  0  0  0  0
  2  3  1  0  0  0  0
  4  1  1  0  0  0  0
  5  4  2  0  0  0  0
  5  6  1  0  0  0  0
  6 10  2  0  0  0  0
  7  6  1  0  0  0  0
  7  9  2  0  0  0  0
  8  7  2  0  0  0  0
 10 11  1  0  0  0  0
 10 14  1  0  0  0  0
 11 15  1  0  0  0  0
 13  5  1  0  0  0  0
 16 22  1  0  0  0  0
 17 16  1  0  0  0  0
 17 23  1  0  0  0  0
 18 17  2  0  0  0  0
 19 20  2  0  0  0  0
 19 18  1  0  0  0  0
 20 21  1  0  0  0  0
 21 26  1  0  0  0  0
 21 16  2  0  0  0  0
 24 19  1  0  0  0  0
 25 20  1  0  0  0  0
 26 27  2  0  0  0  0
 28  3  1  0  0  0  0
 28 26  1  0  0  0  0
 29 26  2  0  0  0  0
 30 31  1  0  0  0  0
 30 18  1  0  0  0  0
 30 32  1  0  0  0  0
 33 30  1  0  0  0  0
M  RAD  4   2   2   3   2   4   2  12   2
M  END
