Coordinates from ORCA-job 4-NO2PhN2+~TsO-_B3LYPG-6-31G_dp-CH-Scan-d09-49-n800
 OpenBabel11261919033D

 33 33  0  0  0  0  0  0  0  0999 V2000
   -2.8595    0.7406   -0.9782 C   0  0  0  0  0  0  0  0  0  0  0  0
   -3.9094   -0.1741   -0.7415 N   0  0  0  0  0  0  0  0  0  0  0  0
   -4.7193   -0.9321   -0.6436 N   0  0  0  0  0  0  0  0  0  0  0  0
   -2.2181    0.4960   -2.1919 C   0  0  0  0  0  0  0  0  0  0  0  0
   -1.1740    1.4483   -2.3855 C   0  0  0  0  0  0  0  0  0  0  0  0
   -0.8712    2.4111   -1.4315 C   0  0  0  0  0  0  0  0  0  0  0  0
    0.2260    3.3712   -1.6939 N   0  0  0  0  0  0  0  0  0  0  0  0
    1.0088    3.1156   -2.6049 O   0  0  0  0  0  0  0  0  0  0  0  0
    0.2736    4.3847   -0.9920 O   0  0  0  0  0  0  0  0  0  0  0  0
   -1.5773    2.5636   -0.2174 C   0  0  0  0  0  0  0  0  0  0  0  0
   -2.6253    1.7032    0.0365 C   0  0  0  0  0  0  0  0  0  0  0  0
   -4.0600    4.2283   -0.1642 H   0  0  0  0  0  0  0  0  0  0  0  0
   -0.5846    1.4422   -3.2990 H   0  0  0  0  0  0  0  0  0  0  0  0
   -1.2838    3.3341    0.4837 H   0  0  0  0  0  0  0  0  0  0  0  0
   -3.2301    1.7737    0.9370 H   0  0  0  0  0  0  0  0  0  0  0  0
   -6.7890    5.2843    1.1518 C   0  0  0  0  0  0  0  0  0  0  0  0
   -6.6277    6.5962    0.7137 C   0  0  0  0  0  0  0  0  0  0  0  0
   -5.7085    6.9943   -0.3090 C   0  0  0  0  0  0  0  0  0  0  0  0
   -4.9522    6.0127   -0.8877 C   0  0  0  0  0  0  0  0  0  0  0  0
   -5.0556    4.5982   -0.4790 C   0  0  0  0  0  0  0  0  0  0  0  0
   -6.0237    4.2772    0.5825 C   0  0  0  0  0  0  0  0  0  0  0  0
   -7.5127    5.0267    1.9184 H   0  0  0  0  0  0  0  0  0  0  0  0
   -7.2416    7.3712    1.1696 H   0  0  0  0  0  0  0  0  0  0  0  0
   -4.2394    6.2578   -1.6715 H   0  0  0  0  0  0  0  0  0  0  0  0
   -5.2497    3.9375   -1.3428 H   0  0  0  0  0  0  0  0  0  0  0  0
   -6.1464    2.5706    1.1800 S   0  0  0  0  0  0  0  0  0  0  0  0
   -7.4774    2.4893    1.7965 O   0  0  0  0  0  0  0  0  0  0  0  0
   -4.9883    2.5971    2.1176 O   0  0  0  0  0  0  0  0  0  0  0  0
   -5.9234    1.7610   -0.0400 O   0  0  0  0  0  0  0  0  0  0  0  0
   -5.6142    8.4464   -0.7047 C   0  0  0  0  0  0  0  0  0  0  0  0
   -6.5802    8.8199   -1.0613 H   0  0  0  0  0  0  0  0  0  0  0  0
   -5.3202    9.0669    0.1488 H   0  0  0  0  0  0  0  0  0  0  0  0
   -4.8792    8.5940   -1.4989 H   0  0  0  0  0  0  0  0  0  0  0  0
  1  2  1  0  0  0  0
  1 11  2  0  0  0  0
  2  3  1  0  0  0  0
  4  1  1  0  0  0  0
  5  4  2  0  0  0  0
  5  6  1  0  0  0  0
  6 10  2  0  0  0  0
  7  6  1  0  0  0  0
  7  9  2  0  0  0  0
  8  7  2  0  0  0  0
 10 11  1  0  0  0  0
 10 14  1  0  0  0  0
 11 15  1  0  0  0  0
 13  5  1  0  0  0  0
 16 22  1  0  0  0  0
 17 16  1  0  0  0  0
 17 23  1  0  0  0  0
 18 17  1  0  0  0  0
 19 20  1  0  0  0  0
 19 18  2  0  0  0  0
 20 12  1  0  0  0  0
 20 21  1  0  0  0  0
 21 16  2  0  0  0  0
 21 26  1  0  0  0  0
 24 19  1  0  0  0  0
 25 20  1  0  0  0  0
 26 27  2  0  0  0  0
 26 28  1  0  0  0  0
 29 26  2  0  0  0  0
 30 18  1  0  0  0  0
 30 32  1  0  0  0  0
 31 30  1  0  0  0  0
 33 30  1  0  0  0  0
M  RAD  5   2   2   3   3   4   2  17   2  28   2
M  END
