Coordinates from ORCA-job 4-NO2PhN2+~TsO-_B3LYPG-6-31G_dp-CH-Scan-d09-49-n800
 OpenBabel11261919023D

 33 33  0  0  0  0  0  0  0  0999 V2000
   -2.9760    0.8563   -0.9755 C   0  0  0  0  0  0  0  0  0  0  0  0
   -3.9468   -0.1595   -0.8048 N   0  0  0  0  0  0  0  0  0  0  0  0
   -4.6944   -0.9834   -0.7690 N   0  0  0  0  0  0  0  0  0  0  0  0
   -2.4757    0.8816   -2.2761 C   0  0  0  0  0  0  0  0  0  0  0  0
   -1.5153    1.9324   -2.3953 C   0  0  0  0  0  0  0  0  0  0  0  0
   -1.1755    2.7472   -1.3237 C   0  0  0  0  0  0  0  0  0  0  0  0
   -0.2009    3.8440   -1.5276 N   0  0  0  0  0  0  0  0  0  0  0  0
    0.5116    3.8036   -2.5265 O   0  0  0  0  0  0  0  0  0  0  0  0
   -0.1842    4.7487   -0.6887 O   0  0  0  0  0  0  0  0  0  0  0  0
   -1.7417    2.6276   -0.0342 C   0  0  0  0  0  0  0  0  0  0  0  0
   -2.6873    1.6419    0.1677 C   0  0  0  0  0  0  0  0  0  0  0  0
   -4.0042    3.9389   -0.1908 H   0  0  0  0  0  0  0  0  0  0  0  0
   -1.0277    2.1271   -3.3474 H   0  0  0  0  0  0  0  0  0  0  0  0
   -1.4284    3.2945    0.7585 H   0  0  0  0  0  0  0  0  0  0  0  0
   -3.1974    1.5189    1.1183 H   0  0  0  0  0  0  0  0  0  0  0  0
   -6.6045    5.2364    1.1292 C   0  0  0  0  0  0  0  0  0  0  0  0
   -6.3560    6.5115    0.6288 C   0  0  0  0  0  0  0  0  0  0  0  0
   -5.4449    6.7925   -0.4384 C   0  0  0  0  0  0  0  0  0  0  0  0
   -4.7904    5.7291   -0.9975 C   0  0  0  0  0  0  0  0  0  0  0  0
   -4.9845    4.3495   -0.5170 C   0  0  0  0  0  0  0  0  0  0  0  0
   -5.9409    4.1479    0.5803 C   0  0  0  0  0  0  0  0  0  0  0  0
   -7.3206    5.0704    1.9273 H   0  0  0  0  0  0  0  0  0  0  0  0
   -6.8913    7.3510    1.0689 H   0  0  0  0  0  0  0  0  0  0  0  0
   -4.0881    5.8832   -1.8130 H   0  0  0  0  0  0  0  0  0  0  0  0
   -5.2198    3.6505   -1.3382 H   0  0  0  0  0  0  0  0  0  0  0  0
   -6.1735    2.4840    1.2636 S   0  0  0  0  0  0  0  0  0  0  0  0
   -7.5120    2.5211    1.8690 O   0  0  0  0  0  0  0  0  0  0  0  0
   -5.0235    2.4901    2.2111 O   0  0  0  0  0  0  0  0  0  0  0  0
   -5.9954    1.5955    0.0923 O   0  0  0  0  0  0  0  0  0  0  0  0
   -5.2478    8.2142   -0.9009 C   0  0  0  0  0  0  0  0  0  0  0  0
   -6.1935    8.6541   -1.2351 H   0  0  0  0  0  0  0  0  0  0  0  0
   -4.8653    8.8411   -0.0881 H   0  0  0  0  0  0  0  0  0  0  0  0
   -4.5378    8.2658   -1.7293 H   0  0  0  0  0  0  0  0  0  0  0  0
  1  2  1  0  0  0  0
  1 11  2  0  0  0  0
  2  3  1  0  0  0  0
  4  1  1  0  0  0  0
  5  4  2  0  0  0  0
  5  6  1  0  0  0  0
  6 10  2  0  0  0  0
  7  6  1  0  0  0  0
  7  9  2  0  0  0  0
  8  7  2  0  0  0  0
 10 11  1  0  0  0  0
 10 14  1  0  0  0  0
 11 15  1  0  0  0  0
 13  5  1  0  0  0  0
 16 22  1  0  0  0  0
 17 23  1  0  0  0  0
 17 16  1  0  0  0  0
 18 17  1  0  0  0  0
 19 20  1  0  0  0  0
 19 18  2  0  0  0  0
 20 12  1  0  0  0  0
 20 21  1  0  0  0  0
 21 16  2  0  0  0  0
 21 26  1  0  0  0  0
 24 19  1  0  0  0  0
 25 20  1  0  0  0  0
 26 27  2  0  0  0  0
 26 28  1  0  0  0  0
 29 26  2  0  0  0  0
 30 18  1  0  0  0  0
 30 32  1  0  0  0  0
 31 30  1  0  0  0  0
 33 30  1  0  0  0  0
M  RAD  5   2   2   3   3   4   2  17   2  28   2
M  END
