Coordinates from ORCA-job 4-NO2PhN2+~TsO-_B3LYPG-6-31G_dp-CH-Scan-d09-49-n800
 OpenBabel11261919023D

 33 33  0  0  0  0  0  0  0  0999 V2000
   -2.8033    1.0786   -0.2782 C   0  0  0  0  0  0  0  0  0  0  0  0
   -3.9024    0.2579    0.1247 N   0  0  0  0  0  0  0  0  0  0  0  0
   -5.0140    0.6903    0.3678 N   0  0  0  0  0  0  0  0  0  0  0  0
   -2.6243    1.5109   -1.5750 C   0  0  0  0  0  0  0  0  0  0  0  0
   -1.5481    2.2088   -2.0505 C   0  0  0  0  0  0  0  0  0  0  0  0
   -0.5489    2.4784   -1.1038 C   0  0  0  0  0  0  0  0  0  0  0  0
    0.6451    3.2251   -1.5356 N   0  0  0  0  0  0  0  0  0  0  0  0
    0.6984    3.5778   -2.7120 O   0  0  0  0  0  0  0  0  0  0  0  0
    1.5078    3.4505   -0.6888 O   0  0  0  0  0  0  0  0  0  0  0  0
   -0.6476    2.0607    0.2229 C   0  0  0  0  0  0  0  0  0  0  0  0
   -1.7706    1.3489    0.6363 C   0  0  0  0  0  0  0  0  0  0  0  0
   -4.3882    0.9462   -3.0727 H   0  0  0  0  0  0  0  0  0  0  0  0
   -1.4414    2.5422   -3.0744 H   0  0  0  0  0  0  0  0  0  0  0  0
    0.1557    2.2923    0.9106 H   0  0  0  0  0  0  0  0  0  0  0  0
   -1.8649    1.0031    1.6606 H   0  0  0  0  0  0  0  0  0  0  0  0
   -5.9739    5.2457    1.2555 C   0  0  0  0  0  0  0  0  0  0  0  0
   -5.7506    6.5881    0.9586 C   0  0  0  0  0  0  0  0  0  0  0  0
   -5.9202    7.0817   -0.3435 C   0  0  0  0  0  0  0  0  0  0  0  0
   -6.3223    6.1927   -1.3529 C   0  0  0  0  0  0  0  0  0  0  0  0
   -6.5519    4.8476   -1.0791 C   0  0  0  0  0  0  0  0  0  0  0  0
   -6.3699    4.3884    0.2276 C   0  0  0  0  0  0  0  0  0  0  0  0
   -5.8525    4.8651    2.2634 H   0  0  0  0  0  0  0  0  0  0  0  0
   -5.4418    7.2645    1.7503 H   0  0  0  0  0  0  0  0  0  0  0  0
   -6.4607    6.5606   -2.3657 H   0  0  0  0  0  0  0  0  0  0  0  0
   -6.8729    4.1629   -1.8559 H   0  0  0  0  0  0  0  0  0  0  0  0
   -6.6670    2.6749    0.5927 S   0  0  0  0  0  0  0  0  0  0  0  0
   -6.8653    2.4909    2.0247 O   0  0  0  0  0  0  0  0  0  0  0  0
   -5.0890    2.1458    0.2209 O   0  0  0  0  0  0  0  0  0  0  0  0
   -7.5711    2.0963   -0.3918 O   0  0  0  0  0  0  0  0  0  0  0  0
   -5.7055    8.5438   -0.6492 C   0  0  0  0  0  0  0  0  0  0  0  0
   -6.6553    9.0912   -0.6161 H   0  0  0  0  0  0  0  0  0  0  0  0
   -5.0325    9.0107    0.0753 H   0  0  0  0  0  0  0  0  0  0  0  0
   -5.2844    8.6852   -1.6489 H   0  0  0  0  0  0  0  0  0  0  0  0
  1  2  1  0  0  0  0
  1 11  2  0  0  0  0
  2  3  1  0  0  0  0
  4  1  1  0  0  0  0
  5  4  2  0  0  0  0
  5  6  1  0  0  0  0
  6 10  2  0  0  0  0
  7  6  1  0  0  0  0
  7  9  2  0  0  0  0
  8  7  2  0  0  0  0
 10 11  1  0  0  0  0
 10 14  1  0  0  0  0
 11 15  1  0  0  0  0
 13  5  1  0  0  0  0
 16 22  1  0  0  0  0
 17 16  1  0  0  0  0
 17 23  1  0  0  0  0
 18 17  2  0  0  0  0
 19 20  2  0  0  0  0
 19 18  1  0  0  0  0
 20 21  1  0  0  0  0
 21 26  1  0  0  0  0
 21 16  2  0  0  0  0
 24 19  1  0  0  0  0
 25 20  1  0  0  0  0
 26 27  2  0  0  0  0
 28  3  1  0  0  0  0
 28 26  1  0  0  0  0
 29 26  2  0  0  0  0
 30 31  1  0  0  0  0
 30 18  1  0  0  0  0
 30 32  1  0  0  0  0
 33 30  1  0  0  0  0
M  RAD  4   2   2   3   2   4   2  12   2
M  END
