Coordinates from ORCA-job 4-NO2PhN2+~TsO-_B3LYPG-6-31G_dp-CH-Scan-d09-49-n800
 OpenBabel11261919023D

 33 34  0  0  0  0  0  0  0  0999 V2000
   -2.6446    1.1166   -0.1790 C   0  0  0  0  0  0  0  0  0  0  0  0
   -3.8005    0.4361    0.2863 N   0  0  0  0  0  0  0  0  0  0  0  0
   -4.9273    0.8180    0.4722 N   0  0  0  0  0  0  0  0  0  0  0  0
   -2.6517    2.1055   -1.1754 C   0  0  0  0  0  0  0  0  0  0  0  0
   -1.4448    2.6375   -1.6132 C   0  0  0  0  0  0  0  0  0  0  0  0
   -0.2571    2.1867   -1.0395 C   0  0  0  0  0  0  0  0  0  0  0  0
    1.0188    2.7686   -1.4970 N   0  0  0  0  0  0  0  0  0  0  0  0
    0.9667    3.6384   -2.3640 O   0  0  0  0  0  0  0  0  0  0  0  0
    2.0511    2.3456   -0.9807 O   0  0  0  0  0  0  0  0  0  0  0  0
   -0.2307    1.1992   -0.0570 C   0  0  0  0  0  0  0  0  0  0  0  0
   -1.4363    0.6456    0.3557 C   0  0  0  0  0  0  0  0  0  0  0  0
   -3.6254    2.4596   -1.6144 H   0  0  0  0  0  0  0  0  0  0  0  0
   -1.4086    3.3993   -2.3818 H   0  0  0  0  0  0  0  0  0  0  0  0
    0.7175    0.8720    0.3490 H   0  0  0  0  0  0  0  0  0  0  0  0
   -1.4633   -0.1472    1.0951 H   0  0  0  0  0  0  0  0  0  0  0  0
   -6.0550    5.3967    1.1271 C   0  0  0  0  0  0  0  0  0  0  0  0
   -5.9388    6.7439    0.7953 C   0  0  0  0  0  0  0  0  0  0  0  0
   -6.2717    7.2076   -0.4870 C   0  0  0  0  0  0  0  0  0  0  0  0
   -6.7263    6.2824   -1.4384 C   0  0  0  0  0  0  0  0  0  0  0  0
   -6.8497    4.9300   -1.1270 C   0  0  0  0  0  0  0  0  0  0  0  0
   -6.5071    4.5004    0.1563 C   0  0  0  0  0  0  0  0  0  0  0  0
   -5.8106    5.0402    2.1214 H   0  0  0  0  0  0  0  0  0  0  0  0
   -5.5887    7.4490    1.5441 H   0  0  0  0  0  0  0  0  0  0  0  0
   -6.9927    6.6267   -2.4336 H   0  0  0  0  0  0  0  0  0  0  0  0
   -7.2159    4.2159   -1.8563 H   0  0  0  0  0  0  0  0  0  0  0  0
   -6.6700    2.7746    0.5698 S   0  0  0  0  0  0  0  0  0  0  0  0
   -6.8344    2.6249    2.0121 O   0  0  0  0  0  0  0  0  0  0  0  0
   -5.1080    2.3392    0.1729 O   0  0  0  0  0  0  0  0  0  0  0  0
   -7.5813    2.1284   -0.3696 O   0  0  0  0  0  0  0  0  0  0  0  0
   -6.1749    8.6758   -0.8230 C   0  0  0  0  0  0  0  0  0  0  0  0
   -7.0932    9.2026   -0.5340 H   0  0  0  0  0  0  0  0  0  0  0  0
   -5.3467    9.1546   -0.2928 H   0  0  0  0  0  0  0  0  0  0  0  0
   -6.0323    8.8333   -1.8957 H   0  0  0  0  0  0  0  0  0  0  0  0
  1  2  1  0  0  0  0
  1 11  2  0  0  0  0
  2  3  1  0  0  0  0
  4  1  1  0  0  0  0
  5  4  2  0  0  0  0
  5  6  1  0  0  0  0
  6 10  2  0  0  0  0
  7  6  1  0  0  0  0
  7  9  2  0  0  0  0
  8  7  2  0  0  0  0
 10 14  1  0  0  0  0
 10 11  1  0  0  0  0
 11 15  1  0  0  0  0
 12  4  1  0  0  0  0
 13  5  1  0  0  0  0
 16 22  1  0  0  0  0
 17 16  1  0  0  0  0
 17 23  1  0  0  0  0
 18 17  2  0  0  0  0
 19 20  2  0  0  0  0
 19 18  1  0  0  0  0
 20 21  1  0  0  0  0
 21 26  1  0  0  0  0
 21 16  2  0  0  0  0
 24 19  1  0  0  0  0
 25 20  1  0  0  0  0
 26 27  2  0  0  0  0
 28  3  1  0  0  0  0
 28 26  1  0  0  0  0
 29 26  2  0  0  0  0
 30 31  1  0  0  0  0
 30 18  1  0  0  0  0
 30 32  1  0  0  0  0
 33 30  1  0  0  0  0
M  RAD  2   2   2   3   2
M  END
