Coordinates from ORCA-job 4-NO2PhN2+~TsO-_B3LYPG-6-31G_dp-CH-Scan-d09-49-n800
 OpenBabel11261919023D

 33 33  0  0  0  0  0  0  0  0999 V2000
   -2.8065    1.0776   -0.2820 C   0  0  0  0  0  0  0  0  0  0  0  0
   -3.9047    0.2576    0.1238 N   0  0  0  0  0  0  0  0  0  0  0  0
   -5.0163    0.6889    0.3668 N   0  0  0  0  0  0  0  0  0  0  0  0
   -2.6248    1.4897   -1.5864 C   0  0  0  0  0  0  0  0  0  0  0  0
   -1.5457    2.1864   -2.0611 C   0  0  0  0  0  0  0  0  0  0  0  0
   -0.5550    2.4757   -1.1124 C   0  0  0  0  0  0  0  0  0  0  0  0
    0.6378    3.2225   -1.5467 N   0  0  0  0  0  0  0  0  0  0  0  0
    0.7017    3.5502   -2.7299 O   0  0  0  0  0  0  0  0  0  0  0  0
    1.4983    3.4564   -0.7000 O   0  0  0  0  0  0  0  0  0  0  0  0
   -0.6603    2.0777    0.2198 C   0  0  0  0  0  0  0  0  0  0  0  0
   -1.7827    1.3666    0.6358 C   0  0  0  0  0  0  0  0  0  0  0  0
   -4.2913    0.9272   -3.0161 H   0  0  0  0  0  0  0  0  0  0  0  0
   -1.4335    2.5050   -3.0890 H   0  0  0  0  0  0  0  0  0  0  0  0
    0.1370    2.3239    0.9094 H   0  0  0  0  0  0  0  0  0  0  0  0
   -1.8822    1.0358    1.6646 H   0  0  0  0  0  0  0  0  0  0  0  0
   -5.9748    5.2428    1.2557 C   0  0  0  0  0  0  0  0  0  0  0  0
   -5.7503    6.5860    0.9633 C   0  0  0  0  0  0  0  0  0  0  0  0
   -5.9201    7.0842   -0.3370 C   0  0  0  0  0  0  0  0  0  0  0  0
   -6.3235    6.1990   -1.3492 C   0  0  0  0  0  0  0  0  0  0  0  0
   -6.5542    4.8532   -1.0798 C   0  0  0  0  0  0  0  0  0  0  0  0
   -6.3719    4.3893    0.2252 C   0  0  0  0  0  0  0  0  0  0  0  0
   -5.8533    4.8587    2.2624 H   0  0  0  0  0  0  0  0  0  0  0  0
   -5.4405    7.2594    1.7572 H   0  0  0  0  0  0  0  0  0  0  0  0
   -6.4620    6.5705   -2.3607 H   0  0  0  0  0  0  0  0  0  0  0  0
   -6.8763    4.1714   -1.8587 H   0  0  0  0  0  0  0  0  0  0  0  0
   -6.6700    2.6746    0.5847 S   0  0  0  0  0  0  0  0  0  0  0  0
   -6.8726    2.4869    2.0156 O   0  0  0  0  0  0  0  0  0  0  0  0
   -5.0924    2.1462    0.2152 O   0  0  0  0  0  0  0  0  0  0  0  0
   -7.5722    2.0994   -0.4037 O   0  0  0  0  0  0  0  0  0  0  0  0
   -5.7041    8.5471   -0.6377 C   0  0  0  0  0  0  0  0  0  0  0  0
   -6.6527    9.0962   -0.5977 H   0  0  0  0  0  0  0  0  0  0  0  0
   -5.0267    9.0098    0.0854 H   0  0  0  0  0  0  0  0  0  0  0  0
   -5.2876    8.6919   -1.6389 H   0  0  0  0  0  0  0  0  0  0  0  0
  1  2  1  0  0  0  0
  1 11  2  0  0  0  0
  2  3  1  0  0  0  0
  4  1  1  0  0  0  0
  5  4  2  0  0  0  0
  5  6  1  0  0  0  0
  6 10  2  0  0  0  0
  7  6  1  0  0  0  0
  7  9  2  0  0  0  0
  8  7  2  0  0  0  0
 10 11  1  0  0  0  0
 10 14  1  0  0  0  0
 11 15  1  0  0  0  0
 13  5  1  0  0  0  0
 16 22  1  0  0  0  0
 17 16  1  0  0  0  0
 17 23  1  0  0  0  0
 18 17  2  0  0  0  0
 19 20  2  0  0  0  0
 19 18  1  0  0  0  0
 20 21  1  0  0  0  0
 21 26  1  0  0  0  0
 21 16  2  0  0  0  0
 24 19  1  0  0  0  0
 25 20  1  0  0  0  0
 26 27  2  0  0  0  0
 28  3  1  0  0  0  0
 28 26  1  0  0  0  0
 29 26  2  0  0  0  0
 30 31  1  0  0  0  0
 30 18  1  0  0  0  0
 30 32  1  0  0  0  0
 33 30  1  0  0  0  0
M  RAD  4   2   2   3   2   4   2  12   2
M  END
