Coordinates from ORCA-job 4-NO2PhN2+~TsO-_B3LYPG-6-31G_dp-CH-Scan-d09-49-n800
 OpenBabel11261919023D

 33 33  0  0  0  0  0  0  0  0999 V2000
   -2.8068    1.0769   -0.2822 C   0  0  0  0  0  0  0  0  0  0  0  0
   -3.9051    0.2571    0.1239 N   0  0  0  0  0  0  0  0  0  0  0  0
   -5.0167    0.6886    0.3670 N   0  0  0  0  0  0  0  0  0  0  0  0
   -2.6251    1.4882   -1.5868 C   0  0  0  0  0  0  0  0  0  0  0  0
   -1.5458    2.1846   -2.0616 C   0  0  0  0  0  0  0  0  0  0  0  0
   -0.5552    2.4743   -1.1130 C   0  0  0  0  0  0  0  0  0  0  0  0
    0.6377    3.2208   -1.5475 N   0  0  0  0  0  0  0  0  0  0  0  0
    0.6975    3.5561   -2.7288 O   0  0  0  0  0  0  0  0  0  0  0  0
    1.4938    3.4632   -0.6987 O   0  0  0  0  0  0  0  0  0  0  0  0
   -0.6608    2.0771    0.2195 C   0  0  0  0  0  0  0  0  0  0  0  0
   -1.7832    1.3662    0.6357 C   0  0  0  0  0  0  0  0  0  0  0  0
   -4.2878    0.9264   -3.0134 H   0  0  0  0  0  0  0  0  0  0  0  0
   -1.4334    2.5027   -3.0896 H   0  0  0  0  0  0  0  0  0  0  0  0
    0.1365    2.3237    0.9091 H   0  0  0  0  0  0  0  0  0  0  0  0
   -1.8829    1.0360    1.6646 H   0  0  0  0  0  0  0  0  0  0  0  0
   -5.9742    5.2427    1.2556 C   0  0  0  0  0  0  0  0  0  0  0  0
   -5.7496    6.5858    0.9632 C   0  0  0  0  0  0  0  0  0  0  0  0
   -5.9193    7.0841   -0.3371 C   0  0  0  0  0  0  0  0  0  0  0  0
   -6.3230    6.1991   -1.3493 C   0  0  0  0  0  0  0  0  0  0  0  0
   -6.5539    4.8533   -1.0799 C   0  0  0  0  0  0  0  0  0  0  0  0
   -6.3716    4.3893    0.2250 C   0  0  0  0  0  0  0  0  0  0  0  0
   -5.8527    4.8585    2.2622 H   0  0  0  0  0  0  0  0  0  0  0  0
   -5.4395    7.2592    1.7571 H   0  0  0  0  0  0  0  0  0  0  0  0
   -6.4616    6.5706   -2.3607 H   0  0  0  0  0  0  0  0  0  0  0  0
   -6.8763    4.1716   -1.8588 H   0  0  0  0  0  0  0  0  0  0  0  0
   -6.6700    2.6747    0.5845 S   0  0  0  0  0  0  0  0  0  0  0  0
   -6.8728    2.4869    2.0154 O   0  0  0  0  0  0  0  0  0  0  0  0
   -5.0926    2.1460    0.2150 O   0  0  0  0  0  0  0  0  0  0  0  0
   -7.5723    2.0996   -0.4040 O   0  0  0  0  0  0  0  0  0  0  0  0
   -5.7031    8.5470   -0.6377 C   0  0  0  0  0  0  0  0  0  0  0  0
   -6.6515    9.0963   -0.5974 H   0  0  0  0  0  0  0  0  0  0  0  0
   -5.0254    9.0095    0.0853 H   0  0  0  0  0  0  0  0  0  0  0  0
   -5.2869    8.6919   -1.6390 H   0  0  0  0  0  0  0  0  0  0  0  0
  1  2  1  0  0  0  0
  1 11  2  0  0  0  0
  2  3  1  0  0  0  0
  4  1  1  0  0  0  0
  5  4  2  0  0  0  0
  5  6  1  0  0  0  0
  6 10  2  0  0  0  0
  7  6  1  0  0  0  0
  7  9  2  0  0  0  0
  8  7  2  0  0  0  0
 10 11  1  0  0  0  0
 10 14  1  0  0  0  0
 11 15  1  0  0  0  0
 13  5  1  0  0  0  0
 16 22  1  0  0  0  0
 17 16  1  0  0  0  0
 17 23  1  0  0  0  0
 18 17  2  0  0  0  0
 19 20  2  0  0  0  0
 19 18  1  0  0  0  0
 20 21  1  0  0  0  0
 21 26  1  0  0  0  0
 21 16  2  0  0  0  0
 24 19  1  0  0  0  0
 25 20  1  0  0  0  0
 26 27  2  0  0  0  0
 28  3  1  0  0  0  0
 28 26  1  0  0  0  0
 29 26  2  0  0  0  0
 30 31  1  0  0  0  0
 30 18  1  0  0  0  0
 30 32  1  0  0  0  0
 33 30  1  0  0  0  0
M  RAD  4   2   2   3   2   4   2  12   2
M  END
