Coordinates from ORCA-job 4-NO2PhN2+~TsO-_B3LYPG-6-31G_dp-CH-Scan-d09-49-n800
 OpenBabel11261919023D

 33 33  0  0  0  0  0  0  0  0999 V2000
   -2.7911    1.0847   -0.2551 C   0  0  0  0  0  0  0  0  0  0  0  0
   -3.8893    0.2639    0.1512 N   0  0  0  0  0  0  0  0  0  0  0  0
   -5.0017    0.6966    0.3942 N   0  0  0  0  0  0  0  0  0  0  0  0
   -2.6430    1.5831   -1.5302 C   0  0  0  0  0  0  0  0  0  0  0  0
   -1.5745    2.2836   -2.0131 C   0  0  0  0  0  0  0  0  0  0  0  0
   -0.5364    2.4839   -1.0899 C   0  0  0  0  0  0  0  0  0  0  0  0
    0.6576    3.2289   -1.5268 N   0  0  0  0  0  0  0  0  0  0  0  0
    0.6739    3.6449   -2.6833 O   0  0  0  0  0  0  0  0  0  0  0  0
    1.5495    3.4017   -0.6984 O   0  0  0  0  0  0  0  0  0  0  0  0
   -0.5971    1.9988    0.2161 C   0  0  0  0  0  0  0  0  0  0  0  0
   -1.7186    1.2864    0.6325 C   0  0  0  0  0  0  0  0  0  0  0  0
   -4.6297    1.0825   -3.1263 H   0  0  0  0  0  0  0  0  0  0  0  0
   -1.4967    2.6675   -3.0222 H   0  0  0  0  0  0  0  0  0  0  0  0
    0.2348    2.1786    0.8849 H   0  0  0  0  0  0  0  0  0  0  0  0
   -1.7841    0.8881    1.6401 H   0  0  0  0  0  0  0  0  0  0  0  0
   -6.0049    5.2564    1.2569 C   0  0  0  0  0  0  0  0  0  0  0  0
   -5.7831    6.5969    0.9501 C   0  0  0  0  0  0  0  0  0  0  0  0
   -5.9225    7.0741   -0.3615 C   0  0  0  0  0  0  0  0  0  0  0  0
   -6.2921    6.1706   -1.3706 C   0  0  0  0  0  0  0  0  0  0  0  0
   -6.5197    4.8273   -1.0871 C   0  0  0  0  0  0  0  0  0  0  0  0
   -6.3687    4.3848    0.2293 C   0  0  0  0  0  0  0  0  0  0  0  0
   -5.9065    4.8879    2.2720 H   0  0  0  0  0  0  0  0  0  0  0  0
   -5.4991    7.2845    1.7415 H   0  0  0  0  0  0  0  0  0  0  0  0
   -6.4063    6.5258   -2.3909 H   0  0  0  0  0  0  0  0  0  0  0  0
   -6.8148    4.1311   -1.8641 H   0  0  0  0  0  0  0  0  0  0  0  0
   -6.6639    2.6739    0.6066 S   0  0  0  0  0  0  0  0  0  0  0  0
   -6.8747    2.5010    2.0381 O   0  0  0  0  0  0  0  0  0  0  0  0
   -5.0784    2.1483    0.2537 O   0  0  0  0  0  0  0  0  0  0  0  0
   -7.5548    2.0823   -0.3818 O   0  0  0  0  0  0  0  0  0  0  0  0
   -5.7100    8.5340   -0.6789 C   0  0  0  0  0  0  0  0  0  0  0  0
   -6.6646    9.0741   -0.6806 H   0  0  0  0  0  0  0  0  0  0  0  0
   -5.0625    9.0152    0.0592 H   0  0  0  0  0  0  0  0  0  0  0  0
   -5.2605    8.6664   -1.6674 H   0  0  0  0  0  0  0  0  0  0  0  0
  1  2  1  0  0  0  0
  1 11  2  0  0  0  0
  2  3  1  0  0  0  0
  4  1  1  0  0  0  0
  5  4  2  0  0  0  0
  5  6  1  0  0  0  0
  6 10  2  0  0  0  0
  7  6  1  0  0  0  0
  7  9  2  0  0  0  0
  8  7  2  0  0  0  0
 10 11  1  0  0  0  0
 10 14  1  0  0  0  0
 11 15  1  0  0  0  0
 13  5  1  0  0  0  0
 16 22  1  0  0  0  0
 17 16  1  0  0  0  0
 17 23  1  0  0  0  0
 18 17  2  0  0  0  0
 19 20  2  0  0  0  0
 19 18  1  0  0  0  0
 20 21  1  0  0  0  0
 21 26  1  0  0  0  0
 21 16  2  0  0  0  0
 24 19  1  0  0  0  0
 25 20  1  0  0  0  0
 26 27  2  0  0  0  0
 28  3  1  0  0  0  0
 28 26  1  0  0  0  0
 29 26  2  0  0  0  0
 30 18  1  0  0  0  0
 30 32  1  0  0  0  0
 31 30  1  0  0  0  0
 33 30  1  0  0  0  0
M  RAD  4   2   2   3   2   4   2  12   2
M  END
