Coordinates from ORCA-job 4-NO2PhN2+~TsO-_B3LYPG-6-31G_dp-CH-Scan-d09-49-n800
 OpenBabel11261919023D

 33 33  0  0  0  0  0  0  0  0999 V2000
   -2.7989    1.0813   -0.2722 C   0  0  0  0  0  0  0  0  0  0  0  0
   -3.8983    0.2599    0.1292 N   0  0  0  0  0  0  0  0  0  0  0  0
   -5.0102    0.6926    0.3718 N   0  0  0  0  0  0  0  0  0  0  0  0
   -2.6261    1.5350   -1.5616 C   0  0  0  0  0  0  0  0  0  0  0  0
   -1.5525    2.2343   -2.0380 C   0  0  0  0  0  0  0  0  0  0  0  0
   -0.5430    2.4824   -1.0957 C   0  0  0  0  0  0  0  0  0  0  0  0
    0.6517    3.2293   -1.5264 N   0  0  0  0  0  0  0  0  0  0  0  0
    0.7008    3.5918   -2.6999 O   0  0  0  0  0  0  0  0  0  0  0  0
    1.5270    3.4282   -0.6860 O   0  0  0  0  0  0  0  0  0  0  0  0
   -0.6322    2.0430    0.2247 C   0  0  0  0  0  0  0  0  0  0  0  0
   -1.7553    1.3304    0.6366 C   0  0  0  0  0  0  0  0  0  0  0  0
   -4.4801    0.9783   -3.1149 H   0  0  0  0  0  0  0  0  0  0  0  0
   -1.4531    2.5839   -3.0574 H   0  0  0  0  0  0  0  0  0  0  0  0
    0.1786    2.2585    0.9087 H   0  0  0  0  0  0  0  0  0  0  0  0
   -1.8425    0.9680    1.6560 H   0  0  0  0  0  0  0  0  0  0  0  0
   -5.9774    5.2487    1.2550 C   0  0  0  0  0  0  0  0  0  0  0  0
   -5.7555    6.5906    0.9544 C   0  0  0  0  0  0  0  0  0  0  0  0
   -5.9225    7.0797   -0.3497 C   0  0  0  0  0  0  0  0  0  0  0  0
   -6.3203    6.1868   -1.3574 C   0  0  0  0  0  0  0  0  0  0  0  0
   -6.5485    4.8422   -1.0799 C   0  0  0  0  0  0  0  0  0  0  0  0
   -6.3693    4.3876    0.2288 C   0  0  0  0  0  0  0  0  0  0  0  0
   -5.8580    4.8715    2.2645 H   0  0  0  0  0  0  0  0  0  0  0  0
   -5.4499    7.2700    1.7448 H   0  0  0  0  0  0  0  0  0  0  0  0
   -6.4565    6.5513   -2.3717 H   0  0  0  0  0  0  0  0  0  0  0  0
   -6.8661    4.1545   -1.8555 H   0  0  0  0  0  0  0  0  0  0  0  0
   -6.6649    2.6750    0.5985 S   0  0  0  0  0  0  0  0  0  0  0  0
   -6.8627    2.4943    2.0310 O   0  0  0  0  0  0  0  0  0  0  0  0
   -5.0853    2.1466    0.2283 O   0  0  0  0  0  0  0  0  0  0  0  0
   -7.5678    2.0924   -0.3845 O   0  0  0  0  0  0  0  0  0  0  0  0
   -5.7094    8.5411   -0.6595 C   0  0  0  0  0  0  0  0  0  0  0  0
   -6.6606    9.0865   -0.6338 H   0  0  0  0  0  0  0  0  0  0  0  0
   -5.0415    9.0123    0.0669 H   0  0  0  0  0  0  0  0  0  0  0  0
   -5.2831    8.6798   -1.6574 H   0  0  0  0  0  0  0  0  0  0  0  0
  1  2  1  0  0  0  0
  1 11  2  0  0  0  0
  2  3  1  0  0  0  0
  4  1  1  0  0  0  0
  5  4  2  0  0  0  0
  5  6  1  0  0  0  0
  6 10  2  0  0  0  0
  7  6  1  0  0  0  0
  7  9  2  0  0  0  0
  8  7  2  0  0  0  0
 10 11  1  0  0  0  0
 10 14  1  0  0  0  0
 11 15  1  0  0  0  0
 13  5  1  0  0  0  0
 16 22  1  0  0  0  0
 17 16  1  0  0  0  0
 17 23  1  0  0  0  0
 18 17  2  0  0  0  0
 19 20  2  0  0  0  0
 19 18  1  0  0  0  0
 20 21  1  0  0  0  0
 21 26  1  0  0  0  0
 21 16  2  0  0  0  0
 24 19  1  0  0  0  0
 25 20  1  0  0  0  0
 26 27  2  0  0  0  0
 28  3  1  0  0  0  0
 28 26  1  0  0  0  0
 29 26  2  0  0  0  0
 30 31  1  0  0  0  0
 30 18  1  0  0  0  0
 30 32  1  0  0  0  0
 33 30  1  0  0  0  0
M  RAD  4   2   2   3   2   4   2  12   2
M  END
