Coordinates from ORCA-job 4-NO2PhN2+~TsO-_B3LYPG-6-31G_dp-CH-Scan-d09-49-n800
 OpenBabel11261919023D

 33 34  0  0  0  0  0  0  0  0999 V2000
   -2.5890    1.1388   -0.1386 C   0  0  0  0  0  0  0  0  0  0  0  0
   -3.7563    0.5000    0.3474 N   0  0  0  0  0  0  0  0  0  0  0  0
   -4.8794    0.8695    0.5526 N   0  0  0  0  0  0  0  0  0  0  0  0
   -2.5564    2.3405   -0.8709 C   0  0  0  0  0  0  0  0  0  0  0  0
   -1.3275    2.8181   -1.3169 C   0  0  0  0  0  0  0  0  0  0  0  0
   -0.1662    2.1079   -1.0202 C   0  0  0  0  0  0  0  0  0  0  0  0
    1.1302    2.6358   -1.4905 N   0  0  0  0  0  0  0  0  0  0  0  0
    1.1162    3.6885   -2.1244 O   0  0  0  0  0  0  0  0  0  0  0  0
    2.1376    1.9896   -1.2121 O   0  0  0  0  0  0  0  0  0  0  0  0
   -0.1832    0.9147   -0.3015 C   0  0  0  0  0  0  0  0  0  0  0  0
   -1.4099    0.4238    0.1267 C   0  0  0  0  0  0  0  0  0  0  0  0
   -3.3955    2.8373   -1.0692 H   0  0  0  0  0  0  0  0  0  0  0  0
   -1.2567    3.7372   -1.8847 H   0  0  0  0  0  0  0  0  0  0  0  0
    0.7442    0.3938   -0.1020 H   0  0  0  0  0  0  0  0  0  0  0  0
   -1.4791   -0.5102    0.6724 H   0  0  0  0  0  0  0  0  0  0  0  0
   -6.1104    5.4723    1.1075 C   0  0  0  0  0  0  0  0  0  0  0  0
   -6.0315    6.8135    0.7404 C   0  0  0  0  0  0  0  0  0  0  0  0
   -6.3798    7.2344   -0.5522 C   0  0  0  0  0  0  0  0  0  0  0  0
   -6.8108    6.2723   -1.4780 C   0  0  0  0  0  0  0  0  0  0  0  0
   -6.8965    4.9258   -1.1311 C   0  0  0  0  0  0  0  0  0  0  0  0
   -6.5399    4.5387    0.1621 C   0  0  0  0  0  0  0  0  0  0  0  0
   -5.8552    5.1484    2.1103 H   0  0  0  0  0  0  0  0  0  0  0  0
   -5.6994    7.5472    1.4699 H   0  0  0  0  0  0  0  0  0  0  0  0
   -7.0886    6.5831   -2.4813 H   0  0  0  0  0  0  0  0  0  0  0  0
   -7.2447    4.1832   -1.8404 H   0  0  0  0  0  0  0  0  0  0  0  0
   -6.6548    2.8191    0.6210 S   0  0  0  0  0  0  0  0  0  0  0  0
   -6.8031    2.7064    2.0691 O   0  0  0  0  0  0  0  0  0  0  0  0
   -5.0968    2.4088    0.2191 O   0  0  0  0  0  0  0  0  0  0  0  0
   -7.5668    2.1311   -0.2881 O   0  0  0  0  0  0  0  0  0  0  0  0
   -6.3254    8.6953   -0.9276 C   0  0  0  0  0  0  0  0  0  0  0  0
   -7.2770    9.1919   -0.6989 H   0  0  0  0  0  0  0  0  0  0  0  0
   -5.5432    9.2227   -0.3747 H   0  0  0  0  0  0  0  0  0  0  0  0
   -6.1386    8.8279   -1.9972 H   0  0  0  0  0  0  0  0  0  0  0  0
  1 11  1  0  0  0  0
  1  2  1  0  0  0  0
  2  3  1  0  0  0  0
  4  1  2  0  0  0  0
  5  6  2  0  0  0  0
  5  4  1  0  0  0  0
  6 10  1  0  0  0  0
  7  9  2  0  0  0  0
  7  6  1  0  0  0  0
  8  7  2  0  0  0  0
 10 14  1  0  0  0  0
 10 11  2  0  0  0  0
 11 15  1  0  0  0  0
 12  4  1  0  0  0  0
 13  5  1  0  0  0  0
 16 22  1  0  0  0  0
 17 16  1  0  0  0  0
 17 23  1  0  0  0  0
 18 17  2  0  0  0  0
 19 20  2  0  0  0  0
 19 18  1  0  0  0  0
 20 21  1  0  0  0  0
 21 26  1  0  0  0  0
 21 16  2  0  0  0  0
 24 19  1  0  0  0  0
 25 20  1  0  0  0  0
 26 27  2  0  0  0  0
 28  3  1  0  0  0  0
 28 26  1  0  0  0  0
 29 26  2  0  0  0  0
 30 31  1  0  0  0  0
 30 18  1  0  0  0  0
 30 32  1  0  0  0  0
 33 30  1  0  0  0  0
M  RAD  2   2   2   3   2
M  END
