Coordinates from ORCA-job 4-NO2PhN2+~TsO-_B3LYPG-6-31G_dp-CH-Scan-d09-49-n800
 OpenBabel11261919023D

 33 34  0  0  0  0  0  0  0  0999 V2000
   -2.7395    1.1008   -0.1628 C   0  0  0  0  0  0  0  0  0  0  0  0
   -3.8391    0.3449    0.3420 N   0  0  0  0  0  0  0  0  0  0  0  0
   -4.9675    0.7495    0.5200 N   0  0  0  0  0  0  0  0  0  0  0  0
   -2.7388    1.6184   -1.4609 C   0  0  0  0  0  0  0  0  0  0  0  0
   -1.6117    2.2449   -1.9680 C   0  0  0  0  0  0  0  0  0  0  0  0
   -0.4881    2.3496   -1.1463 C   0  0  0  0  0  0  0  0  0  0  0  0
    0.7117    3.0237   -1.6686 N   0  0  0  0  0  0  0  0  0  0  0  0
    0.6578    3.4729   -2.8125 O   0  0  0  0  0  0  0  0  0  0  0  0
    1.6914    3.0945   -0.9286 O   0  0  0  0  0  0  0  0  0  0  0  0
   -0.4608    1.8307    0.1468 C   0  0  0  0  0  0  0  0  0  0  0  0
   -1.5907    1.1815    0.6338 C   0  0  0  0  0  0  0  0  0  0  0  0
   -3.8364    1.4961   -2.2119 H   0  0  0  0  0  0  0  0  0  0  0  0
   -1.5832    2.6544   -2.9690 H   0  0  0  0  0  0  0  0  0  0  0  0
    0.4386    1.9287    0.7414 H   0  0  0  0  0  0  0  0  0  0  0  0
   -1.5969    0.7442    1.6258 H   0  0  0  0  0  0  0  0  0  0  0  0
   -6.0851    5.2618    1.1965 C   0  0  0  0  0  0  0  0  0  0  0  0
   -5.8836    6.6153    0.9398 C   0  0  0  0  0  0  0  0  0  0  0  0
   -6.0309    7.1391   -0.3537 C   0  0  0  0  0  0  0  0  0  0  0  0
   -6.3875    6.2683   -1.3944 C   0  0  0  0  0  0  0  0  0  0  0  0
   -6.5935    4.9112   -1.1600 C   0  0  0  0  0  0  0  0  0  0  0  0
   -6.4347    4.4215    0.1376 C   0  0  0  0  0  0  0  0  0  0  0  0
   -5.9829    4.8590    2.1982 H   0  0  0  0  0  0  0  0  0  0  0  0
   -5.6100    7.2773    1.7564 H   0  0  0  0  0  0  0  0  0  0  0  0
   -6.5097    6.6594   -2.4006 H   0  0  0  0  0  0  0  0  0  0  0  0
   -6.8827    4.2399   -1.9608 H   0  0  0  0  0  0  0  0  0  0  0  0
   -6.7018    2.6914    0.4542 S   0  0  0  0  0  0  0  0  0  0  0  0
   -7.0262    2.4842    1.8602 O   0  0  0  0  0  0  0  0  0  0  0  0
   -5.1012    2.2151    0.2084 O   0  0  0  0  0  0  0  0  0  0  0  0
   -7.5077    2.1071   -0.6121 O   0  0  0  0  0  0  0  0  0  0  0  0
   -5.8418    8.6136   -0.6133 C   0  0  0  0  0  0  0  0  0  0  0  0
   -6.7869    9.1557   -0.4850 H   0  0  0  0  0  0  0  0  0  0  0  0
   -5.1178    9.0530    0.0790 H   0  0  0  0  0  0  0  0  0  0  0  0
   -5.4966    8.7999   -1.6341 H   0  0  0  0  0  0  0  0  0  0  0  0
  1  2  1  0  0  0  0
  1 11  2  0  0  0  0
  2  3  1  0  0  0  0
  4  1  1  0  0  0  0
  5  4  2  0  0  0  0
  5  6  1  0  0  0  0
  6 10  2  0  0  0  0
  7  6  1  0  0  0  0
  7  9  2  0  0  0  0
  8  7  2  0  0  0  0
 10 11  1  0  0  0  0
 10 14  1  0  0  0  0
 11 15  1  0  0  0  0
 12  4  1  0  0  0  0
 13  5  1  0  0  0  0
 16 22  1  0  0  0  0
 17 16  1  0  0  0  0
 17 23  1  0  0  0  0
 18 17  2  0  0  0  0
 19 20  2  0  0  0  0
 19 18  1  0  0  0  0
 20 21  1  0  0  0  0
 21 26  1  0  0  0  0
 21 16  2  0  0  0  0
 24 19  1  0  0  0  0
 25 20  1  0  0  0  0
 26 27  2  0  0  0  0
 28 26  1  0  0  0  0
 28  3  1  0  0  0  0
 29 26  2  0  0  0  0
 30 31  1  0  0  0  0
 30 18  1  0  0  0  0
 30 32  1  0  0  0  0
 33 30  1  0  0  0  0
M  RAD  2   2   2   3   2
M  END
