Coordinates from ORCA-job 4-NO2PhN2+~TsO-_B3LYPG-6-31G_dp-CH-Scan-d09-49-n800
 OpenBabel11261919023D

 33 33  0  0  0  0  0  0  0  0999 V2000
   -2.7865    1.0874   -0.2478 C   0  0  0  0  0  0  0  0  0  0  0  0
   -3.8848    0.2669    0.1589 N   0  0  0  0  0  0  0  0  0  0  0  0
   -4.9975    0.6993    0.4024 N   0  0  0  0  0  0  0  0  0  0  0  0
   -2.6513    1.6149   -1.5123 C   0  0  0  0  0  0  0  0  0  0  0  0
   -1.5846    2.3167   -1.9959 C   0  0  0  0  0  0  0  0  0  0  0  0
   -0.5310    2.4861   -1.0836 C   0  0  0  0  0  0  0  0  0  0  0  0
    0.6633    3.2306   -1.5211 N   0  0  0  0  0  0  0  0  0  0  0  0
    0.6701    3.6655   -2.6707 O   0  0  0  0  0  0  0  0  0  0  0  0
    1.5726    3.3686   -0.7052 O   0  0  0  0  0  0  0  0  0  0  0  0
   -0.5768    1.9708    0.2114 C   0  0  0  0  0  0  0  0  0  0  0  0
   -1.6983    1.2582    0.6275 C   0  0  0  0  0  0  0  0  0  0  0  0
   -4.7063    1.1561   -3.1332 H   0  0  0  0  0  0  0  0  0  0  0  0
   -1.5176    2.7230   -2.9970 H   0  0  0  0  0  0  0  0  0  0  0  0
    0.2666    2.1272    0.8716 H   0  0  0  0  0  0  0  0  0  0  0  0
   -1.7527    0.8363    1.6261 H   0  0  0  0  0  0  0  0  0  0  0  0
   -6.0177    5.2617    1.2573 C   0  0  0  0  0  0  0  0  0  0  0  0
   -5.7974    6.6014    0.9456 C   0  0  0  0  0  0  0  0  0  0  0  0
   -5.9260    7.0713   -0.3698 C   0  0  0  0  0  0  0  0  0  0  0  0
   -6.2829    6.1613   -1.3775 C   0  0  0  0  0  0  0  0  0  0  0  0
   -6.5090    4.8188   -1.0893 C   0  0  0  0  0  0  0  0  0  0  0  0
   -6.3691    4.3838    0.2309 C   0  0  0  0  0  0  0  0  0  0  0  0
   -5.9275    4.8987    2.2751 H   0  0  0  0  0  0  0  0  0  0  0  0
   -5.5229    7.2940    1.7361 H   0  0  0  0  0  0  0  0  0  0  0  0
   -6.3884    6.5108   -2.4008 H   0  0  0  0  0  0  0  0  0  0  0  0
   -6.7942    4.1176   -1.8655 H   0  0  0  0  0  0  0  0  0  0  0  0
   -6.6626    2.6740    0.6142 S   0  0  0  0  0  0  0  0  0  0  0  0
   -6.8758    2.5061    2.0460 O   0  0  0  0  0  0  0  0  0  0  0  0
   -5.0750    2.1500    0.2660 O   0  0  0  0  0  0  0  0  0  0  0  0
   -7.5503    2.0768   -0.3736 O   0  0  0  0  0  0  0  0  0  0  0  0
   -5.7152    8.5302   -0.6928 C   0  0  0  0  0  0  0  0  0  0  0  0
   -6.6714    9.0673   -0.7056 H   0  0  0  0  0  0  0  0  0  0  0  0
   -5.0757    9.0173    0.0485 H   0  0  0  0  0  0  0  0  0  0  0  0
   -5.2575    8.6589   -1.6781 H   0  0  0  0  0  0  0  0  0  0  0  0
  1  2  1  0  0  0  0
  1 11  2  0  0  0  0
  2  3  1  0  0  0  0
  4  1  1  0  0  0  0
  5  4  2  0  0  0  0
  5  6  1  0  0  0  0
  6 10  2  0  0  0  0
  7  6  1  0  0  0  0
  7  9  2  0  0  0  0
  8  7  2  0  0  0  0
 10 11  1  0  0  0  0
 10 14  1  0  0  0  0
 11 15  1  0  0  0  0
 13  5  1  0  0  0  0
 16 22  1  0  0  0  0
 17 16  1  0  0  0  0
 17 23  1  0  0  0  0
 18 17  2  0  0  0  0
 19 20  2  0  0  0  0
 19 18  1  0  0  0  0
 20 21  1  0  0  0  0
 21 26  1  0  0  0  0
 21 16  2  0  0  0  0
 24 19  1  0  0  0  0
 25 20  1  0  0  0  0
 26 27  2  0  0  0  0
 28  3  1  0  0  0  0
 28 26  1  0  0  0  0
 29 26  2  0  0  0  0
 30 18  1  0  0  0  0
 30 32  1  0  0  0  0
 31 30  1  0  0  0  0
 33 30  1  0  0  0  0
M  RAD  4   2   2   3   2   4   2  12   2
M  END
