Coordinates from ORCA-job 4-NO2PhN2+~TsO-_B3LYPG-6-31G_dp-CH-Scan-d09-49-n800
 OpenBabel11261919033D

 33 33  0  0  0  0  0  0  0  0999 V2000
   -2.8475    0.7282   -0.9865 C   0  0  0  0  0  0  0  0  0  0  0  0
   -3.9133   -0.1665   -0.7459 N   0  0  0  0  0  0  0  0  0  0  0  0
   -4.7353   -0.9107   -0.6441 N   0  0  0  0  0  0  0  0  0  0  0  0
   -2.1970    0.4540   -2.1889 C   0  0  0  0  0  0  0  0  0  0  0  0
   -1.1346    1.3839   -2.3869 C   0  0  0  0  0  0  0  0  0  0  0  0
   -0.8241    2.3552   -1.4440 C   0  0  0  0  0  0  0  0  0  0  0  0
    0.2956    3.2890   -1.7078 N   0  0  0  0  0  0  0  0  0  0  0  0
    1.0772    3.0087   -2.6127 O   0  0  0  0  0  0  0  0  0  0  0  0
    0.3629    4.3062   -1.0132 O   0  0  0  0  0  0  0  0  0  0  0  0
   -1.5406    2.5397   -0.2407 C   0  0  0  0  0  0  0  0  0  0  0  0
   -2.6072    1.7033    0.0149 C   0  0  0  0  0  0  0  0  0  0  0  0
   -4.0618    4.2839   -0.1447 H   0  0  0  0  0  0  0  0  0  0  0  0
   -0.5359    1.3530   -3.2938 H   0  0  0  0  0  0  0  0  0  0  0  0
   -1.2406    3.3159    0.4514 H   0  0  0  0  0  0  0  0  0  0  0  0
   -3.2197    1.7976    0.9081 H   0  0  0  0  0  0  0  0  0  0  0  0
   -6.8191    5.2919    1.1516 C   0  0  0  0  0  0  0  0  0  0  0  0
   -6.6759    6.6081    0.7194 C   0  0  0  0  0  0  0  0  0  0  0  0
   -5.7543    7.0250   -0.2936 C   0  0  0  0  0  0  0  0  0  0  0  0
   -4.9759    6.0584   -0.8683 C   0  0  0  0  0  0  0  0  0  0  0  0
   -5.0597    4.6404   -0.4661 C   0  0  0  0  0  0  0  0  0  0  0  0
   -6.0319    4.3000    0.5860 C   0  0  0  0  0  0  0  0  0  0  0  0
   -7.5447    5.0194    1.9112 H   0  0  0  0  0  0  0  0  0  0  0  0
   -7.3067    7.3711    1.1725 H   0  0  0  0  0  0  0  0  0  0  0  0
   -4.2602    6.3183   -1.6446 H   0  0  0  0  0  0  0  0  0  0  0  0
   -5.2386    3.9818   -1.3347 H   0  0  0  0  0  0  0  0  0  0  0  0
   -6.1316    2.5892    1.1751 S   0  0  0  0  0  0  0  0  0  0  0  0
   -7.4571    2.4894    1.8006 O   0  0  0  0  0  0  0  0  0  0  0  0
   -4.9666    2.6205    2.1037 O   0  0  0  0  0  0  0  0  0  0  0  0
   -5.9093    1.7900   -0.0522 O   0  0  0  0  0  0  0  0  0  0  0  0
   -5.6814    8.4798   -0.6837 C   0  0  0  0  0  0  0  0  0  0  0  0
   -6.6498    8.8370   -1.0505 H   0  0  0  0  0  0  0  0  0  0  0  0
   -5.4089    9.1027    0.1751 H   0  0  0  0  0  0  0  0  0  0  0  0
   -4.9400    8.6433   -1.4688 H   0  0  0  0  0  0  0  0  0  0  0  0
  1  2  1  0  0  0  0
  1 11  2  0  0  0  0
  2  3  1  0  0  0  0
  4  1  1  0  0  0  0
  5  4  2  0  0  0  0
  5  6  1  0  0  0  0
  6 10  2  0  0  0  0
  7  6  1  0  0  0  0
  7  9  2  0  0  0  0
  8  7  2  0  0  0  0
 10 11  1  0  0  0  0
 10 14  1  0  0  0  0
 11 15  1  0  0  0  0
 13  5  1  0  0  0  0
 16 22  1  0  0  0  0
 17 16  1  0  0  0  0
 17 23  1  0  0  0  0
 18 17  1  0  0  0  0
 19 20  1  0  0  0  0
 19 18  2  0  0  0  0
 20 12  1  0  0  0  0
 20 21  1  0  0  0  0
 21 16  2  0  0  0  0
 21 26  1  0  0  0  0
 24 19  1  0  0  0  0
 25 20  1  0  0  0  0
 26 27  2  0  0  0  0
 26 28  1  0  0  0  0
 29 26  2  0  0  0  0
 30 18  1  0  0  0  0
 30 32  1  0  0  0  0
 31 30  1  0  0  0  0
 33 30  1  0  0  0  0
M  RAD  5   2   2   3   3   4   2  17   2  28   2
M  END
