Coordinates from ORCA-job 4-NO2PhN2+~TsO-_B3LYPG-6-31G_dp-CH-Scan-d09-49-n800
 OpenBabel11261919023D

 33 34  0  0  0  0  0  0  0  0999 V2000
   -2.7435    1.0989   -0.1678 C   0  0  0  0  0  0  0  0  0  0  0  0
   -3.8420    0.3398    0.3346 N   0  0  0  0  0  0  0  0  0  0  0  0
   -4.9698    0.7456    0.5150 N   0  0  0  0  0  0  0  0  0  0  0  0
   -2.7332    1.6011   -1.4710 C   0  0  0  0  0  0  0  0  0  0  0  0
   -1.6094    2.2318   -1.9780 C   0  0  0  0  0  0  0  0  0  0  0  0
   -0.4940    2.3560   -1.1475 C   0  0  0  0  0  0  0  0  0  0  0  0
    0.7044    3.0344   -1.6675 N   0  0  0  0  0  0  0  0  0  0  0  0
    0.6568    3.4689   -2.8173 O   0  0  0  0  0  0  0  0  0  0  0  0
    1.6763    3.1243   -0.9192 O   0  0  0  0  0  0  0  0  0  0  0  0
   -0.4737    1.8528    0.1519 C   0  0  0  0  0  0  0  0  0  0  0  0
   -1.6021    1.1997    0.6374 C   0  0  0  0  0  0  0  0  0  0  0  0
   -3.8558    1.4541   -2.2523 H   0  0  0  0  0  0  0  0  0  0  0  0
   -1.5763    2.6294   -2.9835 H   0  0  0  0  0  0  0  0  0  0  0  0
    0.4196    1.9659    0.7530 H   0  0  0  0  0  0  0  0  0  0  0  0
   -1.6131    0.7749    1.6347 H   0  0  0  0  0  0  0  0  0  0  0  0
   -6.0815    5.2592    1.2001 C   0  0  0  0  0  0  0  0  0  0  0  0
   -5.8778    6.6124    0.9436 C   0  0  0  0  0  0  0  0  0  0  0  0
   -6.0230    7.1365   -0.3499 C   0  0  0  0  0  0  0  0  0  0  0  0
   -6.3798    6.2663   -1.3911 C   0  0  0  0  0  0  0  0  0  0  0  0
   -6.5879    4.9094   -1.1570 C   0  0  0  0  0  0  0  0  0  0  0  0
   -6.4311    4.4195    0.1408 C   0  0  0  0  0  0  0  0  0  0  0  0
   -5.9808    4.8561    2.2018 H   0  0  0  0  0  0  0  0  0  0  0  0
   -5.6042    7.2740    1.7606 H   0  0  0  0  0  0  0  0  0  0  0  0
   -6.5003    6.6576   -2.3974 H   0  0  0  0  0  0  0  0  0  0  0  0
   -6.8769    4.2386   -1.9582 H   0  0  0  0  0  0  0  0  0  0  0  0
   -6.7008    2.6898    0.4568 S   0  0  0  0  0  0  0  0  0  0  0  0
   -7.0242    2.4823    1.8630 O   0  0  0  0  0  0  0  0  0  0  0  0
   -5.1006    2.2111    0.2095 O   0  0  0  0  0  0  0  0  0  0  0  0
   -7.5082    2.1070   -0.6091 O   0  0  0  0  0  0  0  0  0  0  0  0
   -5.8316    8.6108   -0.6093 C   0  0  0  0  0  0  0  0  0  0  0  0
   -6.7775    9.1532   -0.4884 H   0  0  0  0  0  0  0  0  0  0  0  0
   -5.1125    9.0505    0.0876 H   0  0  0  0  0  0  0  0  0  0  0  0
   -5.4793    8.7960   -1.6279 H   0  0  0  0  0  0  0  0  0  0  0  0
  1  2  1  0  0  0  0
  1 11  2  0  0  0  0
  2  3  1  0  0  0  0
  4  1  1  0  0  0  0
  5  4  2  0  0  0  0
  5  6  1  0  0  0  0
  6 10  2  0  0  0  0
  7  6  1  0  0  0  0
  7  9  2  0  0  0  0
  8  7  2  0  0  0  0
 10 11  1  0  0  0  0
 10 14  1  0  0  0  0
 11 15  1  0  0  0  0
 12  4  1  0  0  0  0
 13  5  1  0  0  0  0
 16 22  1  0  0  0  0
 17 16  1  0  0  0  0
 17 23  1  0  0  0  0
 18 17  2  0  0  0  0
 19 20  2  0  0  0  0
 19 18  1  0  0  0  0
 20 21  1  0  0  0  0
 21 26  1  0  0  0  0
 21 16  2  0  0  0  0
 24 19  1  0  0  0  0
 25 20  1  0  0  0  0
 26 27  2  0  0  0  0
 28 26  1  0  0  0  0
 28  3  1  0  0  0  0
 29 26  2  0  0  0  0
 30 31  1  0  0  0  0
 30 18  1  0  0  0  0
 30 32  1  0  0  0  0
 33 30  1  0  0  0  0
M  RAD  2   2   2   3   2
M  END
