Coordinates from ORCA-job 4-NO2PhN2+~TsO-_B3LYPG-6-31G_dp-CH-Scan-d09-49-n800
 OpenBabel11261919033D

 33 33  0  0  0  0  0  0  0  0999 V2000
   -2.8334    0.7128   -0.9945 C   0  0  0  0  0  0  0  0  0  0  0  0
   -3.9179   -0.1570   -0.7479 N   0  0  0  0  0  0  0  0  0  0  0  0
   -4.7540   -0.8844   -0.6398 N   0  0  0  0  0  0  0  0  0  0  0  0
   -2.1751    0.4029   -2.1838 C   0  0  0  0  0  0  0  0  0  0  0  0
   -1.0920    1.3060   -2.3885 C   0  0  0  0  0  0  0  0  0  0  0  0
   -0.7721    2.2890   -1.4609 C   0  0  0  0  0  0  0  0  0  0  0  0
    0.3713    3.1928   -1.7292 N   0  0  0  0  0  0  0  0  0  0  0  0
    1.1508    2.8829   -2.6262 O   0  0  0  0  0  0  0  0  0  0  0  0
    0.4614    4.2146   -1.0443 O   0  0  0  0  0  0  0  0  0  0  0  0
   -1.4979    2.5119   -0.2701 C   0  0  0  0  0  0  0  0  0  0  0  0
   -2.5845    1.7032   -0.0103 C   0  0  0  0  0  0  0  0  0  0  0  0
   -4.0587    4.3549   -0.1085 H   0  0  0  0  0  0  0  0  0  0  0  0
   -0.4836    1.2448   -3.2872 H   0  0  0  0  0  0  0  0  0  0  0  0
   -1.1898    3.2959    0.4096 H   0  0  0  0  0  0  0  0  0  0  0  0
   -3.2041    1.8258    0.8745 H   0  0  0  0  0  0  0  0  0  0  0  0
   -6.8578    5.2988    1.1459 C   0  0  0  0  0  0  0  0  0  0  0  0
   -6.7363    6.6200    0.7214 C   0  0  0  0  0  0  0  0  0  0  0  0
   -5.8073    7.0611   -0.2745 C   0  0  0  0  0  0  0  0  0  0  0  0
   -4.9979    6.1144   -0.8393 C   0  0  0  0  0  0  0  0  0  0  0  0
   -5.0576    4.6927   -0.4448 C   0  0  0  0  0  0  0  0  0  0  0  0
   -6.0400    4.3270    0.5899 C   0  0  0  0  0  0  0  0  0  0  0  0
   -7.5889    5.0072    1.8930 H   0  0  0  0  0  0  0  0  0  0  0  0
   -7.3908    7.3671    1.1673 H   0  0  0  0  0  0  0  0  0  0  0  0
   -4.2751    6.3932   -1.6024 H   0  0  0  0  0  0  0  0  0  0  0  0
   -5.2108    4.0361   -1.3199 H   0  0  0  0  0  0  0  0  0  0  0  0
   -6.1124    2.6111    1.1678 S   0  0  0  0  0  0  0  0  0  0  0  0
   -7.4321    2.4878    1.8014 O   0  0  0  0  0  0  0  0  0  0  0  0
   -4.9410    2.6479    2.0877 O   0  0  0  0  0  0  0  0  0  0  0  0
   -5.8886    1.8264   -0.0689 O   0  0  0  0  0  0  0  0  0  0  0  0
   -5.7605    8.5187   -0.6579 C   0  0  0  0  0  0  0  0  0  0  0  0
   -6.7297    8.8551   -1.0417 H   0  0  0  0  0  0  0  0  0  0  0  0
   -5.5189    9.1443    0.2082 H   0  0  0  0  0  0  0  0  0  0  0  0
   -5.0083    8.7026   -1.4281 H   0  0  0  0  0  0  0  0  0  0  0  0
  1  2  1  0  0  0  0
  1 11  2  0  0  0  0
  2  3  1  0  0  0  0
  4  1  1  0  0  0  0
  5  4  2  0  0  0  0
  5  6  1  0  0  0  0
  6 10  2  0  0  0  0
  7  6  1  0  0  0  0
  7  9  2  0  0  0  0
  8  7  2  0  0  0  0
 10 11  1  0  0  0  0
 10 14  1  0  0  0  0
 11 15  1  0  0  0  0
 13  5  1  0  0  0  0
 16 22  1  0  0  0  0
 17 16  1  0  0  0  0
 17 23  1  0  0  0  0
 18 17  1  0  0  0  0
 19 20  1  0  0  0  0
 19 18  2  0  0  0  0
 20 12  1  0  0  0  0
 20 21  1  0  0  0  0
 21 16  2  0  0  0  0
 21 26  1  0  0  0  0
 24 19  1  0  0  0  0
 25 20  1  0  0  0  0
 26 27  2  0  0  0  0
 26 28  1  0  0  0  0
 29 26  2  0  0  0  0
 30 18  1  0  0  0  0
 30 32  1  0  0  0  0
 31 30  1  0  0  0  0
 33 30  1  0  0  0  0
M  RAD  5   2   2   3   3   4   2  17   2  28   2
M  END
