Coordinates from ORCA-job 4-NO2PhN2+~TsO-_B3LYPG-6-31G_dp-CH-Scan-d09-49-n800
 OpenBabel11261919023D

 33 33  0  0  0  0  0  0  0  0999 V2000
   -2.9126    0.8010   -0.9562 C   0  0  0  0  0  0  0  0  0  0  0  0
   -3.9069   -0.1830   -0.7479 N   0  0  0  0  0  0  0  0  0  0  0  0
   -4.6720   -0.9888   -0.6769 N   0  0  0  0  0  0  0  0  0  0  0  0
   -2.3340    0.6949   -2.2199 C   0  0  0  0  0  0  0  0  0  0  0  0
   -1.3521    1.7199   -2.3808 C   0  0  0  0  0  0  0  0  0  0  0  0
   -1.0585    2.6259   -1.3708 C   0  0  0  0  0  0  0  0  0  0  0  0
   -0.0483    3.6816   -1.6140 N   0  0  0  0  0  0  0  0  0  0  0  0
    0.7139    3.5416   -2.5662 O   0  0  0  0  0  0  0  0  0  0  0  0
   -0.0535    4.6553   -0.8559 O   0  0  0  0  0  0  0  0  0  0  0  0
   -1.7002    2.6347   -0.1116 C   0  0  0  0  0  0  0  0  0  0  0  0
   -2.6757    1.6872    0.1242 C   0  0  0  0  0  0  0  0  0  0  0  0
   -4.0532    4.0213   -0.2325 H   0  0  0  0  0  0  0  0  0  0  0  0
   -0.8092    1.8197   -3.3177 H   0  0  0  0  0  0  0  0  0  0  0  0
   -1.4154    3.3649    0.6347 H   0  0  0  0  0  0  0  0  0  0  0  0
   -3.2348    1.6519    1.0552 H   0  0  0  0  0  0  0  0  0  0  0  0
   -6.6648    5.2545    1.1505 C   0  0  0  0  0  0  0  0  0  0  0  0
   -6.4387    6.5462    0.6836 C   0  0  0  0  0  0  0  0  0  0  0  0
   -5.5357    6.8706   -0.3786 C   0  0  0  0  0  0  0  0  0  0  0  0
   -4.8660    5.8340   -0.9684 C   0  0  0  0  0  0  0  0  0  0  0  0
   -5.0392    4.4376   -0.5278 C   0  0  0  0  0  0  0  0  0  0  0  0
   -5.9852    4.1922    0.5706 C   0  0  0  0  0  0  0  0  0  0  0  0
   -7.3754    5.0557    1.9461 H   0  0  0  0  0  0  0  0  0  0  0  0
   -6.9862    7.3649    1.1474 H   0  0  0  0  0  0  0  0  0  0  0  0
   -4.1695    6.0217   -1.7819 H   0  0  0  0  0  0  0  0  0  0  0  0
   -5.2870    3.7659   -1.3687 H   0  0  0  0  0  0  0  0  0  0  0  0
   -6.1883    2.5069    1.2072 S   0  0  0  0  0  0  0  0  0  0  0  0
   -7.5324    2.4980    1.8006 O   0  0  0  0  0  0  0  0  0  0  0  0
   -5.0478    2.5167    2.1669 O   0  0  0  0  0  0  0  0  0  0  0  0
   -5.9768    1.6547    0.0153 O   0  0  0  0  0  0  0  0  0  0  0  0
   -5.3637    8.3075   -0.8024 C   0  0  0  0  0  0  0  0  0  0  0  0
   -6.3180    8.7410   -1.1203 H   0  0  0  0  0  0  0  0  0  0  0  0
   -4.9879    8.9180    0.0260 H   0  0  0  0  0  0  0  0  0  0  0  0
   -4.6585    8.3938   -1.6321 H   0  0  0  0  0  0  0  0  0  0  0  0
  1  2  1  0  0  0  0
  1 11  2  0  0  0  0
  2  3  1  0  0  0  0
  4  1  1  0  0  0  0
  5  4  2  0  0  0  0
  5  6  1  0  0  0  0
  6 10  2  0  0  0  0
  7  6  1  0  0  0  0
  7  9  2  0  0  0  0
  8  7  2  0  0  0  0
 10 11  1  0  0  0  0
 10 14  1  0  0  0  0
 11 15  1  0  0  0  0
 13  5  1  0  0  0  0
 16 22  1  0  0  0  0
 17 23  1  0  0  0  0
 17 16  1  0  0  0  0
 18 17  1  0  0  0  0
 19 20  1  0  0  0  0
 19 18  2  0  0  0  0
 20 12  1  0  0  0  0
 20 21  1  0  0  0  0
 21 16  2  0  0  0  0
 21 26  1  0  0  0  0
 24 19  1  0  0  0  0
 25 20  1  0  0  0  0
 26 27  2  0  0  0  0
 26 28  1  0  0  0  0
 29 26  2  0  0  0  0
 30 18  1  0  0  0  0
 30 32  1  0  0  0  0
 31 30  1  0  0  0  0
 33 30  1  0  0  0  0
M  RAD  5   2   2   3   3   4   2  17   2  28   2
M  END
