Coordinates from ORCA-job 4-NO2PhN2+~TsO-_B3LYPG-6-31G_dp-CH-Scan-d09-49-n800
 OpenBabel11261919023D

 33 33  0  0  0  0  0  0  0  0999 V2000
   -2.7868    1.0873   -0.2482 C   0  0  0  0  0  0  0  0  0  0  0  0
   -3.8850    0.2668    0.1587 N   0  0  0  0  0  0  0  0  0  0  0  0
   -4.9978    0.6992    0.4020 N   0  0  0  0  0  0  0  0  0  0  0  0
   -2.6509    1.6127   -1.5135 C   0  0  0  0  0  0  0  0  0  0  0  0
   -1.5840    2.3144   -1.9971 C   0  0  0  0  0  0  0  0  0  0  0  0
   -0.5314    2.4860   -1.0842 C   0  0  0  0  0  0  0  0  0  0  0  0
    0.6628    3.2305   -1.5218 N   0  0  0  0  0  0  0  0  0  0  0  0
    0.6704    3.6635   -2.6721 O   0  0  0  0  0  0  0  0  0  0  0  0
    1.5713    3.3704   -0.7053 O   0  0  0  0  0  0  0  0  0  0  0  0
   -0.5781    1.9728    0.2116 C   0  0  0  0  0  0  0  0  0  0  0  0
   -1.6995    1.2602    0.6279 C   0  0  0  0  0  0  0  0  0  0  0  0
   -4.7006    1.1512   -3.1320 H   0  0  0  0  0  0  0  0  0  0  0  0
   -1.5164    2.7191   -2.9989 H   0  0  0  0  0  0  0  0  0  0  0  0
    0.2646    2.1308    0.8724 H   0  0  0  0  0  0  0  0  0  0  0  0
   -1.7546    0.8399    1.6272 H   0  0  0  0  0  0  0  0  0  0  0  0
   -6.0172    5.2614    1.2573 C   0  0  0  0  0  0  0  0  0  0  0  0
   -5.7968    6.6011    0.9460 C   0  0  0  0  0  0  0  0  0  0  0  0
   -5.9258    7.0716   -0.3691 C   0  0  0  0  0  0  0  0  0  0  0  0
   -6.2833    6.1620   -1.3771 C   0  0  0  0  0  0  0  0  0  0  0  0
   -6.5095    4.8194   -1.0892 C   0  0  0  0  0  0  0  0  0  0  0  0
   -6.3692    4.3839    0.2308 C   0  0  0  0  0  0  0  0  0  0  0  0
   -5.9268    4.8980    2.2749 H   0  0  0  0  0  0  0  0  0  0  0  0
   -5.5219    7.2934    1.7366 H   0  0  0  0  0  0  0  0  0  0  0  0
   -6.3890    6.5118   -2.4002 H   0  0  0  0  0  0  0  0  0  0  0  0
   -6.7951    4.1185   -1.8656 H   0  0  0  0  0  0  0  0  0  0  0  0
   -6.6628    2.6740    0.6136 S   0  0  0  0  0  0  0  0  0  0  0  0
   -6.8761    2.5057    2.0453 O   0  0  0  0  0  0  0  0  0  0  0  0
   -5.0753    2.1500    0.2653 O   0  0  0  0  0  0  0  0  0  0  0  0
   -7.5505    2.0772   -0.3744 O   0  0  0  0  0  0  0  0  0  0  0  0
   -5.7149    8.5305   -0.6917 C   0  0  0  0  0  0  0  0  0  0  0  0
   -6.6710    9.0677   -0.7040 H   0  0  0  0  0  0  0  0  0  0  0  0
   -5.0750    9.0173    0.0495 H   0  0  0  0  0  0  0  0  0  0  0  0
   -5.2575    8.6595   -1.6771 H   0  0  0  0  0  0  0  0  0  0  0  0
  1  2  1  0  0  0  0
  1 11  2  0  0  0  0
  2  3  1  0  0  0  0
  4  1  1  0  0  0  0
  5  4  2  0  0  0  0
  5  6  1  0  0  0  0
  6 10  2  0  0  0  0
  7  6  1  0  0  0  0
  7  9  2  0  0  0  0
  8  7  2  0  0  0  0
 10 11  1  0  0  0  0
 10 14  1  0  0  0  0
 11 15  1  0  0  0  0
 13  5  1  0  0  0  0
 16 22  1  0  0  0  0
 17 16  1  0  0  0  0
 17 23  1  0  0  0  0
 18 17  2  0  0  0  0
 19 20  2  0  0  0  0
 19 18  1  0  0  0  0
 20 21  1  0  0  0  0
 21 26  1  0  0  0  0
 21 16  2  0  0  0  0
 24 19  1  0  0  0  0
 25 20  1  0  0  0  0
 26 27  2  0  0  0  0
 28  3  1  0  0  0  0
 28 26  1  0  0  0  0
 29 26  2  0  0  0  0
 30 18  1  0  0  0  0
 30 32  1  0  0  0  0
 31 30  1  0  0  0  0
 33 30  1  0  0  0  0
M  RAD  4   2   2   3   2   4   2  12   2
M  END
