Coordinates from ORCA-job 4-NO2PhN2+~TsO-_B3LYPG-6-31G_dp-CH-Scan-d09-49-n800
 OpenBabel11261919023D

 33 33  0  0  0  0  0  0  0  0999 V2000
   -2.8084    1.0751   -0.2833 C   0  0  0  0  0  0  0  0  0  0  0  0
   -3.9063    0.2578    0.1276 N   0  0  0  0  0  0  0  0  0  0  0  0
   -5.0181    0.6880    0.3692 N   0  0  0  0  0  0  0  0  0  0  0  0
   -2.6300    1.4711   -1.5950 C   0  0  0  0  0  0  0  0  0  0  0  0
   -1.5464    2.1652   -2.0688 C   0  0  0  0  0  0  0  0  0  0  0  0
   -0.5594    2.4675   -1.1215 C   0  0  0  0  0  0  0  0  0  0  0  0
    0.6327    3.2123   -1.5602 N   0  0  0  0  0  0  0  0  0  0  0  0
    0.6955    3.5350   -2.7450 O   0  0  0  0  0  0  0  0  0  0  0  0
    1.4869    3.4644   -0.7121 O   0  0  0  0  0  0  0  0  0  0  0  0
   -0.6670    2.0842    0.2148 C   0  0  0  0  0  0  0  0  0  0  0  0
   -1.7892    1.3752    0.6348 C   0  0  0  0  0  0  0  0  0  0  0  0
   -4.1842    0.9327   -2.9349 H   0  0  0  0  0  0  0  0  0  0  0  0
   -1.4313    2.4730   -3.0994 H   0  0  0  0  0  0  0  0  0  0  0  0
    0.1278    2.3398    0.9039 H   0  0  0  0  0  0  0  0  0  0  0  0
   -1.8907    1.0551    1.6666 H   0  0  0  0  0  0  0  0  0  0  0  0
   -5.9765    5.2407    1.2538 C   0  0  0  0  0  0  0  0  0  0  0  0
   -5.7515    6.5847    0.9660 C   0  0  0  0  0  0  0  0  0  0  0  0
   -5.9215    7.0875   -0.3325 C   0  0  0  0  0  0  0  0  0  0  0  0
   -6.3259    6.2061   -1.3475 C   0  0  0  0  0  0  0  0  0  0  0  0
   -6.5572    4.8594   -1.0826 C   0  0  0  0  0  0  0  0  0  0  0  0
   -6.3745    4.3908    0.2205 C   0  0  0  0  0  0  0  0  0  0  0  0
   -5.8549    4.8531    2.2592 H   0  0  0  0  0  0  0  0  0  0  0  0
   -5.4409    7.2552    1.7621 H   0  0  0  0  0  0  0  0  0  0  0  0
   -6.4649    6.5812   -2.3576 H   0  0  0  0  0  0  0  0  0  0  0  0
   -6.8805    4.1805   -1.8636 H   0  0  0  0  0  0  0  0  0  0  0  0
   -6.6731    2.6748    0.5743 S   0  0  0  0  0  0  0  0  0  0  0  0
   -6.8830    2.4838    2.0038 O   0  0  0  0  0  0  0  0  0  0  0  0
   -5.0955    2.1477    0.2103 O   0  0  0  0  0  0  0  0  0  0  0  0
   -7.5715    2.1025   -0.4196 O   0  0  0  0  0  0  0  0  0  0  0  0
   -5.7049    8.5514   -0.6280 C   0  0  0  0  0  0  0  0  0  0  0  0
   -6.6520    9.1024   -0.5771 H   0  0  0  0  0  0  0  0  0  0  0  0
   -5.0205    9.0091    0.0917 H   0  0  0  0  0  0  0  0  0  0  0  0
   -5.2967    8.7004   -1.6319 H   0  0  0  0  0  0  0  0  0  0  0  0
  1  2  1  0  0  0  0
  1 11  2  0  0  0  0
  2  3  1  0  0  0  0
  4  1  1  0  0  0  0
  5  4  2  0  0  0  0
  5  6  1  0  0  0  0
  6 10  2  0  0  0  0
  7  6  1  0  0  0  0
  7  9  2  0  0  0  0
  8  7  2  0  0  0  0
 10 11  1  0  0  0  0
 10 14  1  0  0  0  0
 11 15  1  0  0  0  0
 13  5  1  0  0  0  0
 16 22  1  0  0  0  0
 17 16  1  0  0  0  0
 17 23  1  0  0  0  0
 18 17  2  0  0  0  0
 19 20  2  0  0  0  0
 19 18  1  0  0  0  0
 20 21  1  0  0  0  0
 21 26  1  0  0  0  0
 21 16  2  0  0  0  0
 24 19  1  0  0  0  0
 25 20  1  0  0  0  0
 26 27  2  0  0  0  0
 28  3  1  0  0  0  0
 28 26  1  0  0  0  0
 29 26  2  0  0  0  0
 30 31  1  0  0  0  0
 30 18  1  0  0  0  0
 30 32  1  0  0  0  0
 33 30  1  0  0  0  0
M  RAD  4   2   2   3   2   4   2  12   2
M  END
