Coordinates from ORCA-job 4-NO2PhN2+~TsO-_B3LYPG-6-31G_dp-CH-Scan-d09-49-n800
 OpenBabel11261919033D

 33 33  0  0  0  0  0  0  0  0999 V2000
   -2.8410    0.7215   -0.9900 C   0  0  0  0  0  0  0  0  0  0  0  0
   -3.9154   -0.1617   -0.7465 N   0  0  0  0  0  0  0  0  0  0  0  0
   -4.7440   -0.8982   -0.6416 N   0  0  0  0  0  0  0  0  0  0  0  0
   -2.1861    0.4300   -2.1860 C   0  0  0  0  0  0  0  0  0  0  0  0
   -1.1141    1.3474   -2.3874 C   0  0  0  0  0  0  0  0  0  0  0  0
   -0.7996    2.3248   -1.4520 C   0  0  0  0  0  0  0  0  0  0  0  0
    0.3313    3.2446   -1.7181 N   0  0  0  0  0  0  0  0  0  0  0  0
    1.1119    2.9503   -2.6193 O   0  0  0  0  0  0  0  0  0  0  0  0
    0.4087    4.2646   -1.0288 O   0  0  0  0  0  0  0  0  0  0  0  0
   -1.5211    2.5279   -0.2549 C   0  0  0  0  0  0  0  0  0  0  0  0
   -2.5972    1.7044    0.0028 C   0  0  0  0  0  0  0  0  0  0  0  0
   -4.0609    4.3157   -0.1285 H   0  0  0  0  0  0  0  0  0  0  0  0
   -0.5104    1.3020   -3.2903 H   0  0  0  0  0  0  0  0  0  0  0  0
   -1.2177    3.3082    0.4312 H   0  0  0  0  0  0  0  0  0  0  0  0
   -3.2134    1.8124    0.8919 H   0  0  0  0  0  0  0  0  0  0  0  0
   -6.8372    5.2951    1.1492 C   0  0  0  0  0  0  0  0  0  0  0  0
   -6.7037    6.6136    0.7207 C   0  0  0  0  0  0  0  0  0  0  0  0
   -5.7786    7.0414   -0.2845 C   0  0  0  0  0  0  0  0  0  0  0  0
   -4.9862    6.0838   -0.8550 C   0  0  0  0  0  0  0  0  0  0  0  0
   -5.0593    4.6640   -0.4565 C   0  0  0  0  0  0  0  0  0  0  0  0
   -6.0362    4.3121    0.5878 C   0  0  0  0  0  0  0  0  0  0  0  0
   -7.5654    5.0139    1.9032 H   0  0  0  0  0  0  0  0  0  0  0  0
   -7.3452    7.3695    1.1707 H   0  0  0  0  0  0  0  0  0  0  0  0
   -4.2672    6.3522   -1.6253 H   0  0  0  0  0  0  0  0  0  0  0  0
   -5.2267    4.0063   -1.3282 H   0  0  0  0  0  0  0  0  0  0  0  0
   -6.1235    2.5990    1.1717 S   0  0  0  0  0  0  0  0  0  0  0  0
   -7.4465    2.4883    1.8007 O   0  0  0  0  0  0  0  0  0  0  0  0
   -4.9557    2.6328    2.0966 O   0  0  0  0  0  0  0  0  0  0  0  0
   -5.9002    1.8064   -0.0599 O   0  0  0  0  0  0  0  0  0  0  0  0
   -5.7173    8.4977   -0.6714 C   0  0  0  0  0  0  0  0  0  0  0  0
   -6.6861    8.8456   -1.0459 H   0  0  0  0  0  0  0  0  0  0  0  0
   -5.4589    9.1218    0.1910 H   0  0  0  0  0  0  0  0  0  0  0  0
   -4.9708    8.6704   -1.4496 H   0  0  0  0  0  0  0  0  0  0  0  0
  1  2  1  0  0  0  0
  1 11  2  0  0  0  0
  2  3  1  0  0  0  0
  4  1  1  0  0  0  0
  5  4  2  0  0  0  0
  5  6  1  0  0  0  0
  6 10  2  0  0  0  0
  7  6  1  0  0  0  0
  7  9  2  0  0  0  0
  8  7  2  0  0  0  0
 10 11  1  0  0  0  0
 10 14  1  0  0  0  0
 11 15  1  0  0  0  0
 13  5  1  0  0  0  0
 16 22  1  0  0  0  0
 17 16  1  0  0  0  0
 17 23  1  0  0  0  0
 18 17  1  0  0  0  0
 19 20  1  0  0  0  0
 19 18  2  0  0  0  0
 20 12  1  0  0  0  0
 20 21  1  0  0  0  0
 21 16  2  0  0  0  0
 21 26  1  0  0  0  0
 24 19  1  0  0  0  0
 25 20  1  0  0  0  0
 26 27  2  0  0  0  0
 26 28  1  0  0  0  0
 29 26  2  0  0  0  0
 30 18  1  0  0  0  0
 30 32  1  0  0  0  0
 31 30  1  0  0  0  0
 33 30  1  0  0  0  0
M  RAD  5   2   2   3   3   4   2  17   2  28   2
M  END
