Coordinates from ORCA-job 4-NO2PhN2+~TsO-_B3LYPG-6-31G_dp-CH-Scan-d09-49-n800
 OpenBabel11261919023D

 33 33  0  0  0  0  0  0  0  0999 V2000
   -2.8084    1.0750   -0.2833 C   0  0  0  0  0  0  0  0  0  0  0  0
   -3.9064    0.2578    0.1280 N   0  0  0  0  0  0  0  0  0  0  0  0
   -5.0182    0.6880    0.3694 N   0  0  0  0  0  0  0  0  0  0  0  0
   -2.6305    1.4705   -1.5953 C   0  0  0  0  0  0  0  0  0  0  0  0
   -1.5466    2.1644   -2.0691 C   0  0  0  0  0  0  0  0  0  0  0  0
   -0.5596    2.4669   -1.1220 C   0  0  0  0  0  0  0  0  0  0  0  0
    0.6325    3.2116   -1.5610 N   0  0  0  0  0  0  0  0  0  0  0  0
    0.6951    3.5340   -2.7459 O   0  0  0  0  0  0  0  0  0  0  0  0
    1.4867    3.4640   -0.7131 O   0  0  0  0  0  0  0  0  0  0  0  0
   -0.6671    2.0841    0.2144 C   0  0  0  0  0  0  0  0  0  0  0  0
   -1.7892    1.3753    0.6347 C   0  0  0  0  0  0  0  0  0  0  0  0
   -4.1775    0.9346   -2.9288 H   0  0  0  0  0  0  0  0  0  0  0  0
   -1.4316    2.4719   -3.0998 H   0  0  0  0  0  0  0  0  0  0  0  0
    0.1278    2.3398    0.9033 H   0  0  0  0  0  0  0  0  0  0  0  0
   -1.8906    1.0554    1.6666 H   0  0  0  0  0  0  0  0  0  0  0  0
   -5.9768    5.2406    1.2536 C   0  0  0  0  0  0  0  0  0  0  0  0
   -5.7517    6.5846    0.9660 C   0  0  0  0  0  0  0  0  0  0  0  0
   -5.9218    7.0877   -0.3324 C   0  0  0  0  0  0  0  0  0  0  0  0
   -6.3262    6.2065   -1.3475 C   0  0  0  0  0  0  0  0  0  0  0  0
   -6.5574    4.8598   -1.0828 C   0  0  0  0  0  0  0  0  0  0  0  0
   -6.3748    4.3909    0.2202 C   0  0  0  0  0  0  0  0  0  0  0  0
   -5.8552    4.8529    2.2589 H   0  0  0  0  0  0  0  0  0  0  0  0
   -5.4412    7.2550    1.7623 H   0  0  0  0  0  0  0  0  0  0  0  0
   -6.4651    6.5818   -2.3575 H   0  0  0  0  0  0  0  0  0  0  0  0
   -6.8807    4.1810   -1.8640 H   0  0  0  0  0  0  0  0  0  0  0  0
   -6.6734    2.6749    0.5736 S   0  0  0  0  0  0  0  0  0  0  0  0
   -6.8837    2.4836    2.0031 O   0  0  0  0  0  0  0  0  0  0  0  0
   -5.0957    2.1478    0.2101 O   0  0  0  0  0  0  0  0  0  0  0  0
   -7.5714    2.1027   -0.4206 O   0  0  0  0  0  0  0  0  0  0  0  0
   -5.7052    8.5517   -0.6275 C   0  0  0  0  0  0  0  0  0  0  0  0
   -6.6522    9.1027   -0.5761 H   0  0  0  0  0  0  0  0  0  0  0  0
   -5.0204    9.0091    0.0919 H   0  0  0  0  0  0  0  0  0  0  0  0
   -5.2975    8.7009   -1.6316 H   0  0  0  0  0  0  0  0  0  0  0  0
  1  2  1  0  0  0  0
  1 11  2  0  0  0  0
  2  3  1  0  0  0  0
  4  1  1  0  0  0  0
  5  4  2  0  0  0  0
  5  6  1  0  0  0  0
  6 10  2  0  0  0  0
  7  6  1  0  0  0  0
  7  9  2  0  0  0  0
  8  7  2  0  0  0  0
 10 11  1  0  0  0  0
 10 14  1  0  0  0  0
 11 15  1  0  0  0  0
 13  5  1  0  0  0  0
 16 22  1  0  0  0  0
 17 16  1  0  0  0  0
 17 23  1  0  0  0  0
 18 17  2  0  0  0  0
 19 20  2  0  0  0  0
 19 18  1  0  0  0  0
 20 21  1  0  0  0  0
 21 26  1  0  0  0  0
 21 16  2  0  0  0  0
 24 19  1  0  0  0  0
 25 20  1  0  0  0  0
 26 27  2  0  0  0  0
 28  3  1  0  0  0  0
 28 26  1  0  0  0  0
 29 26  2  0  0  0  0
 30 31  1  0  0  0  0
 30 18  1  0  0  0  0
 30 32  1  0  0  0  0
 33 30  1  0  0  0  0
M  RAD  4   2   2   3   2   4   2  12   2
M  END
