Coordinates from ORCA-job 4-NO2PhN2+~TsO-_B3LYPG-6-31G_dp-CH-Scan-d09-49-n800
 OpenBabel11261919023D

 33 33  0  0  0  0  0  0  0  0999 V2000
   -2.2189    1.1644   -0.3320 C   0  0  0  0  0  0  0  0  0  0  0  0
   -3.4903    0.7134    0.0829 N   0  0  0  0  0  0  0  0  0  0  0  0
   -4.5073    0.3898    0.4016 N   0  0  0  0  0  0  0  0  0  0  0  0
   -2.2513    2.2864   -1.1600 C   0  0  0  0  0  0  0  0  0  0  0  0
   -0.9287    2.6585   -1.5311 C   0  0  0  0  0  0  0  0  0  0  0  0
    0.1864    1.9498   -1.1041 C   0  0  0  0  0  0  0  0  0  0  0  0
    1.5367    2.3897   -1.5386 N   0  0  0  0  0  0  0  0  0  0  0  0
    1.6099    3.3700   -2.2749 O   0  0  0  0  0  0  0  0  0  0  0  0
    2.5034    1.7441   -1.1330 O   0  0  0  0  0  0  0  0  0  0  0  0
    0.1212    0.8195   -0.2646 C   0  0  0  0  0  0  0  0  0  0  0  0
   -1.1245    0.3997    0.1465 C   0  0  0  0  0  0  0  0  0  0  0  0
   -5.2165    4.2976   -1.1066 H   0  0  0  0  0  0  0  0  0  0  0  0
   -0.7571    3.5207   -2.1698 H   0  0  0  0  0  0  0  0  0  0  0  0
    1.0303    0.3169    0.0356 H   0  0  0  0  0  0  0  0  0  0  0  0
   -1.2524   -0.4607    0.7973 H   0  0  0  0  0  0  0  0  0  0  0  0
   -7.0053    5.6215    1.1852 C   0  0  0  0  0  0  0  0  0  0  0  0
   -6.9216    6.9087    0.6653 C   0  0  0  0  0  0  0  0  0  0  0  0
   -6.5007    7.2070   -0.6709 C   0  0  0  0  0  0  0  0  0  0  0  0
   -6.1703    6.1524   -1.4757 C   0  0  0  0  0  0  0  0  0  0  0  0
   -6.2194    4.7572   -0.9990 C   0  0  0  0  0  0  0  0  0  0  0  0
   -6.6678    4.5386    0.3835 C   0  0  0  0  0  0  0  0  0  0  0  0
   -7.3536    5.4411    2.1964 H   0  0  0  0  0  0  0  0  0  0  0  0
   -7.2007    7.7440    1.3054 H   0  0  0  0  0  0  0  0  0  0  0  0
   -5.8438    6.3228   -2.4983 H   0  0  0  0  0  0  0  0  0  0  0  0
   -6.8050    4.1036   -1.6685 H   0  0  0  0  0  0  0  0  0  0  0  0
   -6.7092    2.8505    1.0376 S   0  0  0  0  0  0  0  0  0  0  0  0
   -7.7515    2.8889    2.0771 O   0  0  0  0  0  0  0  0  0  0  0  0
   -5.3046    2.7948    1.5351 O   0  0  0  0  0  0  0  0  0  0  0  0
   -6.9783    2.0178   -0.1521 O   0  0  0  0  0  0  0  0  0  0  0  0
   -6.4454    8.6420   -1.1315 C   0  0  0  0  0  0  0  0  0  0  0  0
   -7.4300    9.1173   -1.0588 H   0  0  0  0  0  0  0  0  0  0  0  0
   -5.7556    9.2265   -0.5133 H   0  0  0  0  0  0  0  0  0  0  0  0
   -6.1116    8.7131   -2.1689 H   0  0  0  0  0  0  0  0  0  0  0  0
  1  2  1  0  0  0  0
  1 11  2  0  0  0  0
  2  3  1  0  0  0  0
  4  1  1  0  0  0  0
  5  4  2  0  0  0  0
  5  6  1  0  0  0  0
  6 10  2  0  0  0  0
  7  9  2  0  0  0  0
  7  6  1  0  0  0  0
  8  7  2  0  0  0  0
 10 14  1  0  0  0  0
 10 11  1  0  0  0  0
 11 15  1  0  0  0  0
 12 20  1  0  0  0  0
 13  5  1  0  0  0  0
 16 22  1  0  0  0  0
 17 16  1  0  0  0  0
 17 23  1  0  0  0  0
 18 17  1  0  0  0  0
 19 20  1  0  0  0  0
 19 18  2  0  0  0  0
 20 21  1  0  0  0  0
 21 26  1  0  0  0  0
 21 16  2  0  0  0  0
 24 19  1  0  0  0  0
 25 20  1  0  0  0  0
 26 28  2  0  0  0  0
 26 27  1  0  0  0  0
 29 26  2  0  0  0  0
 30 31  1  0  0  0  0
 30 18  1  0  0  0  0
 30 32  1  0  0  0  0
 33 30  1  0  0  0  0
M  RAD  5   2   2   3   3   4   2  17   2  27   2
M  END
