Coordinates from ORCA-job 4-NO2PhN2+~TsO-_B3LYPG-6-31G_dp-CH-Scan-d09-49-n800
 OpenBabel11261919023D

 33 33  0  0  0  0  0  0  0  0999 V2000
   -2.7821    1.0890   -0.2437 C   0  0  0  0  0  0  0  0  0  0  0  0
   -3.8815    0.2688    0.1606 N   0  0  0  0  0  0  0  0  0  0  0  0
   -4.9941    0.7018    0.4058 N   0  0  0  0  0  0  0  0  0  0  0  0
   -2.6587    1.6542   -1.4926 C   0  0  0  0  0  0  0  0  0  0  0  0
   -1.5930    2.3584   -1.9732 C   0  0  0  0  0  0  0  0  0  0  0  0
   -0.5230    2.4878   -1.0729 C   0  0  0  0  0  0  0  0  0  0  0  0
    0.6731    3.2318   -1.5071 N   0  0  0  0  0  0  0  0  0  0  0  0
    0.6658    3.7030   -2.6423 O   0  0  0  0  0  0  0  0  0  0  0  0
    1.5974    3.3327   -0.7028 O   0  0  0  0  0  0  0  0  0  0  0  0
   -0.5543    1.9330    0.2062 C   0  0  0  0  0  0  0  0  0  0  0  0
   -1.6770    1.2202    0.6182 C   0  0  0  0  0  0  0  0  0  0  0  0
   -4.7980    1.2462   -3.1508 H   0  0  0  0  0  0  0  0  0  0  0  0
   -1.5365    2.7938   -2.9628 H   0  0  0  0  0  0  0  0  0  0  0  0
    0.3015    2.0592    0.8570 H   0  0  0  0  0  0  0  0  0  0  0  0
   -1.7209    0.7679    1.6041 H   0  0  0  0  0  0  0  0  0  0  0  0
   -6.0250    5.2689    1.2569 C   0  0  0  0  0  0  0  0  0  0  0  0
   -5.8073    6.6071    0.9372 C   0  0  0  0  0  0  0  0  0  0  0  0
   -5.9306    7.0677   -0.3820 C   0  0  0  0  0  0  0  0  0  0  0  0
   -6.2792    6.1496   -1.3854 C   0  0  0  0  0  0  0  0  0  0  0  0
   -6.5028    4.8084   -1.0892 C   0  0  0  0  0  0  0  0  0  0  0  0
   -6.3685    4.3830    0.2348 C   0  0  0  0  0  0  0  0  0  0  0  0
   -5.9387    4.9129    2.2775 H   0  0  0  0  0  0  0  0  0  0  0  0
   -5.5391    7.3060    1.7243 H   0  0  0  0  0  0  0  0  0  0  0  0
   -6.3802    6.4917   -2.4116 H   0  0  0  0  0  0  0  0  0  0  0  0
   -6.7812    4.1011   -1.8623 H   0  0  0  0  0  0  0  0  0  0  0  0
   -6.6592    2.6751    0.6281 S   0  0  0  0  0  0  0  0  0  0  0  0
   -6.8676    2.5145    2.0614 O   0  0  0  0  0  0  0  0  0  0  0  0
   -5.0709    2.1513    0.2780 O   0  0  0  0  0  0  0  0  0  0  0  0
   -7.5485    2.0711   -0.3538 O   0  0  0  0  0  0  0  0  0  0  0  0
   -5.7230    8.5250   -0.7140 C   0  0  0  0  0  0  0  0  0  0  0  0
   -6.6808    9.0588   -0.7350 H   0  0  0  0  0  0  0  0  0  0  0  0
   -5.0886    9.0192    0.0271 H   0  0  0  0  0  0  0  0  0  0  0  0
   -5.2608    8.6484   -1.6978 H   0  0  0  0  0  0  0  0  0  0  0  0
  1  2  1  0  0  0  0
  1 11  2  0  0  0  0
  2  3  1  0  0  0  0
  4  1  1  0  0  0  0
  5  4  2  0  0  0  0
  5  6  1  0  0  0  0
  6 10  2  0  0  0  0
  7  6  1  0  0  0  0
  7  9  2  0  0  0  0
  8  7  2  0  0  0  0
 10 11  1  0  0  0  0
 10 14  1  0  0  0  0
 11 15  1  0  0  0  0
 13  5  1  0  0  0  0
 16 22  1  0  0  0  0
 17 16  1  0  0  0  0
 17 23  1  0  0  0  0
 18 17  2  0  0  0  0
 19 20  2  0  0  0  0
 19 18  1  0  0  0  0
 20 21  1  0  0  0  0
 21 26  1  0  0  0  0
 21 16  2  0  0  0  0
 24 19  1  0  0  0  0
 25 20  1  0  0  0  0
 26 27  2  0  0  0  0
 28  3  1  0  0  0  0
 28 26  1  0  0  0  0
 29 26  2  0  0  0  0
 30 18  1  0  0  0  0
 30 32  1  0  0  0  0
 31 30  1  0  0  0  0
 33 30  1  0  0  0  0
M  RAD  4   2   2   3   2   4   2  12   2
M  END
