Coordinates from ORCA-job 4-NO2PhN2+~TsO-_B3LYPG-6-31G_dp-CH-Scan-d09-49-n800
 OpenBabel11261919023D

 33 33  0  0  0  0  0  0  0  0999 V2000
   -2.7430    1.0988   -0.1743 C   0  0  0  0  0  0  0  0  0  0  0  0
   -3.8439    0.2919    0.2490 N   0  0  0  0  0  0  0  0  0  0  0  0
   -4.9544    0.7293    0.5104 N   0  0  0  0  0  0  0  0  0  0  0  0
   -2.7240    1.9315   -1.2681 C   0  0  0  0  0  0  0  0  0  0  0  0
   -1.6671    2.6454   -1.7480 C   0  0  0  0  0  0  0  0  0  0  0  0
   -0.4743    2.4764   -1.0242 C   0  0  0  0  0  0  0  0  0  0  0  0
    0.7265    3.2084   -1.4716 N   0  0  0  0  0  0  0  0  0  0  0  0
    0.6121    3.9355   -2.4554 O   0  0  0  0  0  0  0  0  0  0  0  0
    1.7596    3.0418   -0.8270 O   0  0  0  0  0  0  0  0  0  0  0  0
   -0.3886    1.6359    0.0853 C   0  0  0  0  0  0  0  0  0  0  0  0
   -1.5162    0.9332    0.4992 C   0  0  0  0  0  0  0  0  0  0  0  0
   -5.2726    2.1042   -3.0903 H   0  0  0  0  0  0  0  0  0  0  0  0
   -1.6961    3.2931   -2.6161 H   0  0  0  0  0  0  0  0  0  0  0  0
    0.5581    1.5348    0.6000 H   0  0  0  0  0  0  0  0  0  0  0  0
   -1.4776    0.2598    1.3507 H   0  0  0  0  0  0  0  0  0  0  0  0
   -6.1643    5.3304    1.2558 C   0  0  0  0  0  0  0  0  0  0  0  0
   -5.9674    6.6584    0.8834 C   0  0  0  0  0  0  0  0  0  0  0  0
   -5.9734    7.0422   -0.4657 C   0  0  0  0  0  0  0  0  0  0  0  0
   -6.1796    6.0573   -1.4446 C   0  0  0  0  0  0  0  0  0  0  0  0
   -6.3824    4.7253   -1.0967 C   0  0  0  0  0  0  0  0  0  0  0  0
   -6.3686    4.3778    0.2569 C   0  0  0  0  0  0  0  0  0  0  0  0
   -6.1670    5.0319    2.2984 H   0  0  0  0  0  0  0  0  0  0  0  0
   -5.8075    7.4088    1.6525 H   0  0  0  0  0  0  0  0  0  0  0  0
   -6.1837    6.3389   -2.4942 H   0  0  0  0  0  0  0  0  0  0  0  0
   -6.5437    3.9665   -1.8555 H   0  0  0  0  0  0  0  0  0  0  0  0
   -6.6414    2.6847    0.7184 S   0  0  0  0  0  0  0  0  0  0  0  0
   -6.8656    2.5814    2.1544 O   0  0  0  0  0  0  0  0  0  0  0  0
   -5.0359    2.1702    0.4081 O   0  0  0  0  0  0  0  0  0  0  0  0
   -7.5044    2.0212   -0.2475 O   0  0  0  0  0  0  0  0  0  0  0  0
   -5.7912    8.4878   -0.8582 C   0  0  0  0  0  0  0  0  0  0  0  0
   -6.7626    8.9827   -0.9777 H   0  0  0  0  0  0  0  0  0  0  0  0
   -5.2328    9.0429   -0.0992 H   0  0  0  0  0  0  0  0  0  0  0  0
   -5.2605    8.5792   -1.8103 H   0  0  0  0  0  0  0  0  0  0  0  0
  1  2  1  0  0  0  0
  1 11  2  0  0  0  0
  2  3  1  0  0  0  0
  4  1  1  0  0  0  0
  5  4  2  0  0  0  0
  5  6  1  0  0  0  0
  6 10  2  0  0  0  0
  7  6  1  0  0  0  0
  7  9  2  0  0  0  0
  8  7  2  0  0  0  0
 10 11  1  0  0  0  0
 10 14  1  0  0  0  0
 11 15  1  0  0  0  0
 13  5  1  0  0  0  0
 16 22  1  0  0  0  0
 17 16  1  0  0  0  0
 17 23  1  0  0  0  0
 18 17  2  0  0  0  0
 19 20  2  0  0  0  0
 19 18  1  0  0  0  0
 20 21  1  0  0  0  0
 21 26  1  0  0  0  0
 21 16  2  0  0  0  0
 24 19  1  0  0  0  0
 25 20  1  0  0  0  0
 26 27  2  0  0  0  0
 28  3  1  0  0  0  0
 28 26  1  0  0  0  0
 29 26  2  0  0  0  0
 30 18  1  0  0  0  0
 30 32  1  0  0  0  0
 31 30  1  0  0  0  0
 33 30  1  0  0  0  0
M  RAD  4   2   2   3   2   4   2  12   2
M  END
