Coordinates from ORCA-job 4-NO2PhN2+~TsO-_B3LYPG-6-31G_dp-CH-Scan-d09-49-n800
 OpenBabel11261919023D

 33 33  0  0  0  0  0  0  0  0999 V2000
   -2.9428    0.8248   -0.9623 C   0  0  0  0  0  0  0  0  0  0  0  0
   -3.9230   -0.1779   -0.7726 N   0  0  0  0  0  0  0  0  0  0  0  0
   -4.6773   -0.9948   -0.7187 N   0  0  0  0  0  0  0  0  0  0  0  0
   -2.4036    0.7863   -2.2472 C   0  0  0  0  0  0  0  0  0  0  0  0
   -1.4373    1.8294   -2.3876 C   0  0  0  0  0  0  0  0  0  0  0  0
   -1.1278    2.6944   -1.3468 C   0  0  0  0  0  0  0  0  0  0  0  0
   -0.1450    3.7792   -1.5733 N   0  0  0  0  0  0  0  0  0  0  0  0
    0.5961    3.6917   -2.5482 O   0  0  0  0  0  0  0  0  0  0  0  0
   -0.1486    4.7211   -0.7760 O   0  0  0  0  0  0  0  0  0  0  0  0
   -1.7305    2.6358   -0.0696 C   0  0  0  0  0  0  0  0  0  0  0  0
   -2.6841    1.6624    0.1511 C   0  0  0  0  0  0  0  0  0  0  0  0
   -4.0271    3.9730   -0.2139 H   0  0  0  0  0  0  0  0  0  0  0  0
   -0.9213    1.9779   -3.3332 H   0  0  0  0  0  0  0  0  0  0  0  0
   -1.4350    3.3367    0.7004 H   0  0  0  0  0  0  0  0  0  0  0  0
   -3.2173    1.5799    1.0939 H   0  0  0  0  0  0  0  0  0  0  0  0
   -6.6304    5.2444    1.1384 C   0  0  0  0  0  0  0  0  0  0  0  0
   -6.3900    6.5276    0.6552 C   0  0  0  0  0  0  0  0  0  0  0  0
   -5.4819    6.8287   -0.4092 C   0  0  0  0  0  0  0  0  0  0  0  0
   -4.8222    5.7773   -0.9842 C   0  0  0  0  0  0  0  0  0  0  0  0
   -5.0094    4.3894   -0.5243 C   0  0  0  0  0  0  0  0  0  0  0  0
   -5.9611    4.1676    0.5736 C   0  0  0  0  0  0  0  0  0  0  0  0
   -7.3443    5.0635    1.9352 H   0  0  0  0  0  0  0  0  0  0  0  0
   -6.9297    7.3579    1.1074 H   0  0  0  0  0  0  0  0  0  0  0  0
   -4.1219    5.9469   -1.7984 H   0  0  0  0  0  0  0  0  0  0  0  0
   -5.2524    3.7048   -1.3558 H   0  0  0  0  0  0  0  0  0  0  0  0
   -6.1822    2.4929    1.2332 S   0  0  0  0  0  0  0  0  0  0  0  0
   -7.5253    2.5083    1.8289 O   0  0  0  0  0  0  0  0  0  0  0  0
   -5.0396    2.5007    2.1900 O   0  0  0  0  0  0  0  0  0  0  0  0
   -5.9846    1.6216    0.0524 O   0  0  0  0  0  0  0  0  0  0  0  0
   -5.2936    8.2580   -0.8517 C   0  0  0  0  0  0  0  0  0  0  0  0
   -6.2423    8.6973   -1.1779 H   0  0  0  0  0  0  0  0  0  0  0  0
   -4.9132    8.8754   -0.0306 H   0  0  0  0  0  0  0  0  0  0  0  0
   -4.5853    8.3255   -1.6805 H   0  0  0  0  0  0  0  0  0  0  0  0
  1  2  1  0  0  0  0
  1 11  2  0  0  0  0
  2  3  1  0  0  0  0
  4  1  1  0  0  0  0
  5  4  2  0  0  0  0
  5  6  1  0  0  0  0
  6 10  2  0  0  0  0
  7  6  1  0  0  0  0
  7  9  2  0  0  0  0
  8  7  2  0  0  0  0
 10 11  1  0  0  0  0
 10 14  1  0  0  0  0
 11 15  1  0  0  0  0
 13  5  1  0  0  0  0
 16 22  1  0  0  0  0
 17 23  1  0  0  0  0
 17 16  1  0  0  0  0
 18 17  1  0  0  0  0
 19 20  1  0  0  0  0
 19 18  2  0  0  0  0
 20 12  1  0  0  0  0
 20 21  1  0  0  0  0
 21 16  2  0  0  0  0
 21 26  1  0  0  0  0
 24 19  1  0  0  0  0
 25 20  1  0  0  0  0
 26 27  2  0  0  0  0
 26 28  1  0  0  0  0
 29 26  2  0  0  0  0
 30 18  1  0  0  0  0
 30 32  1  0  0  0  0
 31 30  1  0  0  0  0
 33 30  1  0  0  0  0
M  RAD  5   2   2   3   3   4   2  17   2  28   2
M  END
