Coordinates from ORCA-job 4-NO2PhN2+~TsO-_B3LYPG-6-31G_dp-CH-Scan-d09-49-n800
 OpenBabel11261919023D

 33 33  0  0  0  0  0  0  0  0999 V2000
   -2.7552    1.0991   -0.1954 C   0  0  0  0  0  0  0  0  0  0  0  0
   -3.8554    0.2871    0.2203 N   0  0  0  0  0  0  0  0  0  0  0  0
   -4.9640    0.7223    0.4903 N   0  0  0  0  0  0  0  0  0  0  0  0
   -2.7232    1.8924   -1.3183 C   0  0  0  0  0  0  0  0  0  0  0  0
   -1.6652    2.6049   -1.7990 C   0  0  0  0  0  0  0  0  0  0  0  0
   -0.4881    2.4818   -1.0414 C   0  0  0  0  0  0  0  0  0  0  0  0
    0.7115    3.2163   -1.4861 N   0  0  0  0  0  0  0  0  0  0  0  0
    0.6101    3.9057   -2.4982 O   0  0  0  0  0  0  0  0  0  0  0  0
    1.7306    3.0919   -0.8103 O   0  0  0  0  0  0  0  0  0  0  0  0
   -0.4173    1.6846    0.1005 C   0  0  0  0  0  0  0  0  0  0  0  0
   -1.5437    0.9793    0.5137 C   0  0  0  0  0  0  0  0  0  0  0  0
   -5.1950    1.9776   -3.0733 H   0  0  0  0  0  0  0  0  0  0  0  0
   -1.6840    3.2203   -2.6902 H   0  0  0  0  0  0  0  0  0  0  0  0
    0.5179    1.6180    0.6414 H   0  0  0  0  0  0  0  0  0  0  0  0
   -1.5145    0.3390    1.3906 H   0  0  0  0  0  0  0  0  0  0  0  0
   -6.1661    5.3264    1.2650 C   0  0  0  0  0  0  0  0  0  0  0  0
   -5.9644    6.6552    0.8977 C   0  0  0  0  0  0  0  0  0  0  0  0
   -5.9609    7.0430   -0.4502 C   0  0  0  0  0  0  0  0  0  0  0  0
   -6.1629    6.0614   -1.4334 C   0  0  0  0  0  0  0  0  0  0  0  0
   -6.3705    4.7289   -1.0906 C   0  0  0  0  0  0  0  0  0  0  0  0
   -6.3661    4.3773    0.2620 C   0  0  0  0  0  0  0  0  0  0  0  0
   -6.1758    5.0247    2.3066 H   0  0  0  0  0  0  0  0  0  0  0  0
   -5.8078    7.4029    1.6701 H   0  0  0  0  0  0  0  0  0  0  0  0
   -6.1599    6.3463   -2.4821 H   0  0  0  0  0  0  0  0  0  0  0  0
   -6.5291    3.9723   -1.8517 H   0  0  0  0  0  0  0  0  0  0  0  0
   -6.6441    2.6828    0.7157 S   0  0  0  0  0  0  0  0  0  0  0  0
   -6.8722    2.5740    2.1507 O   0  0  0  0  0  0  0  0  0  0  0  0
   -5.0407    2.1661    0.4054 O   0  0  0  0  0  0  0  0  0  0  0  0
   -7.5074    2.0265   -0.2550 O   0  0  0  0  0  0  0  0  0  0  0  0
   -5.7731    8.4894   -0.8372 C   0  0  0  0  0  0  0  0  0  0  0  0
   -6.7427    8.9867   -0.9611 H   0  0  0  0  0  0  0  0  0  0  0  0
   -5.2182    9.0410   -0.0732 H   0  0  0  0  0  0  0  0  0  0  0  0
   -5.2364    8.5824   -1.7858 H   0  0  0  0  0  0  0  0  0  0  0  0
  1  2  1  0  0  0  0
  1 11  2  0  0  0  0
  2  3  1  0  0  0  0
  4  1  1  0  0  0  0
  5  4  2  0  0  0  0
  5  6  1  0  0  0  0
  6 10  2  0  0  0  0
  7  6  1  0  0  0  0
  7  9  2  0  0  0  0
  8  7  2  0  0  0  0
 10 11  1  0  0  0  0
 10 14  1  0  0  0  0
 11 15  1  0  0  0  0
 13  5  1  0  0  0  0
 16 22  1  0  0  0  0
 17 16  1  0  0  0  0
 17 23  1  0  0  0  0
 18 17  2  0  0  0  0
 19 20  2  0  0  0  0
 19 18  1  0  0  0  0
 20 21  1  0  0  0  0
 21 26  1  0  0  0  0
 21 16  2  0  0  0  0
 24 19  1  0  0  0  0
 25 20  1  0  0  0  0
 26 27  2  0  0  0  0
 28  3  1  0  0  0  0
 28 26  1  0  0  0  0
 29 26  2  0  0  0  0
 30 18  1  0  0  0  0
 30 32  1  0  0  0  0
 31 30  1  0  0  0  0
 33 30  1  0  0  0  0
M  RAD  4   2   2   3   2   4   2  12   2
M  END
