Coordinates from ORCA-job 4-NO2PhN2+~TsO-_B3LYPG-6-31G_dp-CH-Scan-d09-49-n800
 OpenBabel11261919023D

 33 33  0  0  0  0  0  0  0  0999 V2000
   -2.7707    1.0972   -0.2161 C   0  0  0  0  0  0  0  0  0  0  0  0
   -3.8671    0.2787    0.1981 N   0  0  0  0  0  0  0  0  0  0  0  0
   -4.9768    0.7110    0.4629 N   0  0  0  0  0  0  0  0  0  0  0  0
   -2.7083    1.7845   -1.4065 C   0  0  0  0  0  0  0  0  0  0  0  0
   -1.6513    2.4949   -1.8943 C   0  0  0  0  0  0  0  0  0  0  0  0
   -0.5153    2.4924   -1.0677 C   0  0  0  0  0  0  0  0  0  0  0  0
    0.6784    3.2339   -1.5145 N   0  0  0  0  0  0  0  0  0  0  0  0
    0.6083    3.8236   -2.5906 O   0  0  0  0  0  0  0  0  0  0  0  0
    1.6626    3.2140   -0.7785 O   0  0  0  0  0  0  0  0  0  0  0  0
   -0.4795    1.8084    0.1470 C   0  0  0  0  0  0  0  0  0  0  0  0
   -1.6000    1.0968    0.5664 C   0  0  0  0  0  0  0  0  0  0  0  0
   -5.0501    1.6085   -3.0866 H   0  0  0  0  0  0  0  0  0  0  0  0
   -1.6441    3.0259   -2.8381 H   0  0  0  0  0  0  0  0  0  0  0  0
    0.4254    1.8336    0.7405 H   0  0  0  0  0  0  0  0  0  0  0  0
   -1.5945    0.5443    1.5012 H   0  0  0  0  0  0  0  0  0  0  0  0
   -6.1310    5.3020    1.2696 C   0  0  0  0  0  0  0  0  0  0  0  0
   -5.9167    6.6352    0.9261 C   0  0  0  0  0  0  0  0  0  0  0  0
   -5.9348    7.0514   -0.4131 C   0  0  0  0  0  0  0  0  0  0  0  0
   -6.1725    6.0940   -1.4122 C   0  0  0  0  0  0  0  0  0  0  0  0
   -6.3921    4.7576   -1.0929 C   0  0  0  0  0  0  0  0  0  0  0  0
   -6.3650    4.3772    0.2516 C   0  0  0  0  0  0  0  0  0  0  0  0
   -6.1246    4.9789    2.3048 H   0  0  0  0  0  0  0  0  0  0  0  0
   -5.7334    7.3641    1.7104 H   0  0  0  0  0  0  0  0  0  0  0  0
   -6.1883    6.4013   -2.4544 H   0  0  0  0  0  0  0  0  0  0  0  0
   -6.5818    4.0202   -1.8651 H   0  0  0  0  0  0  0  0  0  0  0  0
   -6.6540    2.6765    0.6750 S   0  0  0  0  0  0  0  0  0  0  0  0
   -6.8921    2.5446    2.1065 O   0  0  0  0  0  0  0  0  0  0  0  0
   -5.0536    2.1582    0.3659 O   0  0  0  0  0  0  0  0  0  0  0  0
   -7.5160    2.0430   -0.3123 O   0  0  0  0  0  0  0  0  0  0  0  0
   -5.7323    8.5025   -0.7742 C   0  0  0  0  0  0  0  0  0  0  0  0
   -6.6966    9.0117   -0.8905 H   0  0  0  0  0  0  0  0  0  0  0  0
   -5.1725    9.0348   -0.0001 H   0  0  0  0  0  0  0  0  0  0  0  0
   -5.1934    8.6068   -1.7205 H   0  0  0  0  0  0  0  0  0  0  0  0
  1  2  1  0  0  0  0
  1 11  2  0  0  0  0
  2  3  1  0  0  0  0
  4  1  1  0  0  0  0
  5  4  2  0  0  0  0
  5  6  1  0  0  0  0
  6 10  2  0  0  0  0
  7  6  1  0  0  0  0
  7  9  2  0  0  0  0
  8  7  2  0  0  0  0
 10 11  1  0  0  0  0
 10 14  1  0  0  0  0
 11 15  1  0  0  0  0
 13  5  1  0  0  0  0
 16 22  1  0  0  0  0
 17 16  1  0  0  0  0
 17 23  1  0  0  0  0
 18 17  2  0  0  0  0
 19 20  2  0  0  0  0
 19 18  1  0  0  0  0
 20 21  1  0  0  0  0
 21 26  1  0  0  0  0
 21 16  2  0  0  0  0
 24 19  1  0  0  0  0
 25 20  1  0  0  0  0
 26 27  2  0  0  0  0
 28  3  1  0  0  0  0
 28 26  1  0  0  0  0
 29 26  2  0  0  0  0
 30 18  1  0  0  0  0
 30 32  1  0  0  0  0
 31 30  1  0  0  0  0
 33 30  1  0  0  0  0
M  RAD  4   2   2   3   2   4   2  12   2
M  END
