Coordinates from ORCA-job 4-NO2PhN2+~TsO-_B3LYPG-6-31G_dp-CH-Scan-d09-49-n800
 OpenBabel11261919023D

 33 33  0  0  0  0  0  0  0  0999 V2000
   -2.9367    0.8194   -0.9596 C   0  0  0  0  0  0  0  0  0  0  0  0
   -3.9186   -0.1807   -0.7660 N   0  0  0  0  0  0  0  0  0  0  0  0
   -4.6741   -0.9963   -0.7085 N   0  0  0  0  0  0  0  0  0  0  0  0
   -2.3906    0.7691   -2.2411 C   0  0  0  0  0  0  0  0  0  0  0  0
   -1.4229    1.8103   -2.3858 C   0  0  0  0  0  0  0  0  0  0  0  0
   -1.1179    2.6840   -1.3509 C   0  0  0  0  0  0  0  0  0  0  0  0
   -0.1325    3.7656   -1.5815 N   0  0  0  0  0  0  0  0  0  0  0  0
    0.6127    3.6694   -2.5524 O   0  0  0  0  0  0  0  0  0  0  0  0
   -0.1395    4.7146   -0.7927 O   0  0  0  0  0  0  0  0  0  0  0  0
   -1.7271    2.6369   -0.0764 C   0  0  0  0  0  0  0  0  0  0  0  0
   -2.6829    1.6665    0.1479 C   0  0  0  0  0  0  0  0  0  0  0  0
   -4.0318    3.9797   -0.2188 H   0  0  0  0  0  0  0  0  0  0  0  0
   -0.9023    1.9502   -3.3301 H   0  0  0  0  0  0  0  0  0  0  0  0
   -1.4344    3.3438    0.6892 H   0  0  0  0  0  0  0  0  0  0  0  0
   -3.2201    1.5918    1.0891 H   0  0  0  0  0  0  0  0  0  0  0  0
   -6.6355    5.2459    1.1402 C   0  0  0  0  0  0  0  0  0  0  0  0
   -6.3968    6.5306    0.6603 C   0  0  0  0  0  0  0  0  0  0  0  0
   -5.4894    6.8357   -0.4037 C   0  0  0  0  0  0  0  0  0  0  0  0
   -4.8287    5.7866   -0.9819 C   0  0  0  0  0  0  0  0  0  0  0  0
   -5.0145    4.3971   -0.5260 C   0  0  0  0  0  0  0  0  0  0  0  0
   -5.9652    4.1713    0.5721 C   0  0  0  0  0  0  0  0  0  0  0  0
   -7.3489    5.0620    1.9368 H   0  0  0  0  0  0  0  0  0  0  0  0
   -6.9372    7.3591    1.1149 H   0  0  0  0  0  0  0  0  0  0  0  0
   -4.1290    5.9593   -1.7959 H   0  0  0  0  0  0  0  0  0  0  0  0
   -5.2592    3.7154   -1.3594 H   0  0  0  0  0  0  0  0  0  0  0  0
   -6.1840    2.4946    1.2270 S   0  0  0  0  0  0  0  0  0  0  0  0
   -7.5277    2.5058    1.8215 O   0  0  0  0  0  0  0  0  0  0  0  0
   -5.0424    2.5021    2.1851 O   0  0  0  0  0  0  0  0  0  0  0  0
   -5.9834    1.6271    0.0440 O   0  0  0  0  0  0  0  0  0  0  0  0
   -5.3028    8.2664   -0.8422 C   0  0  0  0  0  0  0  0  0  0  0  0
   -6.2522    8.7056   -1.1667 H   0  0  0  0  0  0  0  0  0  0  0  0
   -4.9227    8.8819   -0.0196 H   0  0  0  0  0  0  0  0  0  0  0  0
   -4.5951    8.3370   -1.6712 H   0  0  0  0  0  0  0  0  0  0  0  0
  1  2  1  0  0  0  0
  1 11  2  0  0  0  0
  2  3  1  0  0  0  0
  4  1  1  0  0  0  0
  5  4  2  0  0  0  0
  5  6  1  0  0  0  0
  6 10  2  0  0  0  0
  7  6  1  0  0  0  0
  7  9  2  0  0  0  0
  8  7  2  0  0  0  0
 10 11  1  0  0  0  0
 10 14  1  0  0  0  0
 11 15  1  0  0  0  0
 13  5  1  0  0  0  0
 16 22  1  0  0  0  0
 17 23  1  0  0  0  0
 17 16  1  0  0  0  0
 18 17  1  0  0  0  0
 19 20  1  0  0  0  0
 19 18  2  0  0  0  0
 20 12  1  0  0  0  0
 20 21  1  0  0  0  0
 21 16  2  0  0  0  0
 21 26  1  0  0  0  0
 24 19  1  0  0  0  0
 25 20  1  0  0  0  0
 26 27  2  0  0  0  0
 26 28  1  0  0  0  0
 29 26  2  0  0  0  0
 30 18  1  0  0  0  0
 30 32  1  0  0  0  0
 31 30  1  0  0  0  0
 33 30  1  0  0  0  0
M  RAD  5   2   2   3   3   4   2  17   2  28   2
M  END
