Coordinates from ORCA-job 4-NO2PhN2+~TsO-_B3LYPG-6-31G_dp-CH-Scan-d09-49-n800
 OpenBabel11261919023D

 33 33  0  0  0  0  0  0  0  0999 V2000
   -2.7218    1.0952   -0.1261 C   0  0  0  0  0  0  0  0  0  0  0  0
   -3.8211    0.3014    0.3221 N   0  0  0  0  0  0  0  0  0  0  0  0
   -4.9353    0.7437    0.5652 N   0  0  0  0  0  0  0  0  0  0  0  0
   -2.7345    2.0249   -1.1381 C   0  0  0  0  0  0  0  0  0  0  0  0
   -1.6805    2.7456   -1.6147 C   0  0  0  0  0  0  0  0  0  0  0  0
   -0.4548    2.4688   -0.9847 C   0  0  0  0  0  0  0  0  0  0  0  0
    0.7458    3.2004   -1.4364 N   0  0  0  0  0  0  0  0  0  0  0  0
    0.6011    4.0248   -2.3356 O   0  0  0  0  0  0  0  0  0  0  0  0
    1.8087    2.9345   -0.8799 O   0  0  0  0  0  0  0  0  0  0  0  0
   -0.3350    1.5223    0.0326 C   0  0  0  0  0  0  0  0  0  0  0  0
   -1.4634    0.8226    0.4485 C   0  0  0  0  0  0  0  0  0  0  0  0
   -5.3376    2.3852   -3.1142 H   0  0  0  0  0  0  0  0  0  0  0  0
   -1.7335    3.4720   -2.4170 H   0  0  0  0  0  0  0  0  0  0  0  0
    0.6359    1.3404    0.4744 H   0  0  0  0  0  0  0  0  0  0  0  0
   -1.4043    0.0698    1.2298 H   0  0  0  0  0  0  0  0  0  0  0  0
   -6.1582    5.3409    1.2356 C   0  0  0  0  0  0  0  0  0  0  0  0
   -5.9706    6.6659    0.8483 C   0  0  0  0  0  0  0  0  0  0  0  0
   -5.9981    7.0375   -0.5041 C   0  0  0  0  0  0  0  0  0  0  0  0
   -6.2164    6.0434   -1.4709 C   0  0  0  0  0  0  0  0  0  0  0  0
   -6.4112    4.7141   -1.1079 C   0  0  0  0  0  0  0  0  0  0  0  0
   -6.3752    4.3788    0.2482 C   0  0  0  0  0  0  0  0  0  0  0  0
   -6.1441    5.0517    2.2807 H   0  0  0  0  0  0  0  0  0  0  0  0
   -5.8008    7.4236    1.6081 H   0  0  0  0  0  0  0  0  0  0  0  0
   -6.2368    6.3151   -2.5229 H   0  0  0  0  0  0  0  0  0  0  0  0
   -6.5809    3.9481   -1.8584 H   0  0  0  0  0  0  0  0  0  0  0  0
   -6.6370    2.6898    0.7300 S   0  0  0  0  0  0  0  0  0  0  0  0
   -6.8435    2.6001    2.1694 O   0  0  0  0  0  0  0  0  0  0  0  0
   -5.0299    2.1765    0.4085 O   0  0  0  0  0  0  0  0  0  0  0  0
   -7.5068    2.0118   -0.2191 O   0  0  0  0  0  0  0  0  0  0  0  0
   -5.8259    8.4801   -0.9122 C   0  0  0  0  0  0  0  0  0  0  0  0
   -6.8005    8.9706   -1.0234 H   0  0  0  0  0  0  0  0  0  0  0  0
   -5.2594    9.0438   -0.1658 H   0  0  0  0  0  0  0  0  0  0  0  0
   -5.3081    8.5644   -1.8720 H   0  0  0  0  0  0  0  0  0  0  0  0
  1  2  1  0  0  0  0
  1 11  2  0  0  0  0
  2  3  1  0  0  0  0
  4  1  1  0  0  0  0
  5  4  2  0  0  0  0
  5  6  1  0  0  0  0
  6 10  2  0  0  0  0
  7  6  1  0  0  0  0
  7  9  2  0  0  0  0
  8  7  2  0  0  0  0
 10 11  1  0  0  0  0
 10 14  1  0  0  0  0
 11 15  1  0  0  0  0
 13  5  1  0  0  0  0
 16 22  1  0  0  0  0
 17 16  1  0  0  0  0
 17 23  1  0  0  0  0
 18 17  2  0  0  0  0
 19 20  2  0  0  0  0
 19 18  1  0  0  0  0
 20 21  1  0  0  0  0
 21 26  1  0  0  0  0
 21 16  2  0  0  0  0
 24 19  1  0  0  0  0
 25 20  1  0  0  0  0
 26 27  2  0  0  0  0
 28  3  1  0  0  0  0
 28 26  1  0  0  0  0
 29 26  2  0  0  0  0
 30 18  1  0  0  0  0
 30 32  1  0  0  0  0
 31 30  1  0  0  0  0
 33 30  1  0  0  0  0
M  RAD  4   2   2   3   2   4   2  12   2
M  END
