Coordinates from ORCA-job 4-NO2PhN2+~TsO-_B3LYPG-6-31G_dp-CH-Scan-d09-49-n800
 OpenBabel11261919023D

 33 33  0  0  0  0  0  0  0  0999 V2000
   -2.7784    1.0847   -0.2157 C   0  0  0  0  0  0  0  0  0  0  0  0
   -3.8720    0.2959    0.2544 N   0  0  0  0  0  0  0  0  0  0  0  0
   -4.9941    0.7119    0.4574 N   0  0  0  0  0  0  0  0  0  0  0  0
   -2.6992    1.5029   -1.5408 C   0  0  0  0  0  0  0  0  0  0  0  0
   -1.5950    2.1686   -2.0351 C   0  0  0  0  0  0  0  0  0  0  0  0
   -0.5433    2.4131   -1.1480 C   0  0  0  0  0  0  0  0  0  0  0  0
    0.6451    3.1283   -1.6401 N   0  0  0  0  0  0  0  0  0  0  0  0
    0.6494    3.4777   -2.8195 O   0  0  0  0  0  0  0  0  0  0  0  0
    1.5589    3.3287   -0.8416 O   0  0  0  0  0  0  0  0  0  0  0  0
   -0.5794    1.9977    0.1820 C   0  0  0  0  0  0  0  0  0  0  0  0
   -1.6984    1.3130    0.6470 C   0  0  0  0  0  0  0  0  0  0  0  0
   -3.9244    1.1861   -2.4966 H   0  0  0  0  0  0  0  0  0  0  0  0
   -1.5249    2.5008   -3.0619 H   0  0  0  0  0  0  0  0  0  0  0  0
    0.2652    2.2053    0.8267 H   0  0  0  0  0  0  0  0  0  0  0  0
   -1.7482    0.9605    1.6712 H   0  0  0  0  0  0  0  0  0  0  0  0
   -6.0389    5.2398    1.2237 C   0  0  0  0  0  0  0  0  0  0  0  0
   -5.8186    6.5895    0.9616 C   0  0  0  0  0  0  0  0  0  0  0  0
   -5.9627    7.1110   -0.3330 C   0  0  0  0  0  0  0  0  0  0  0  0
   -6.3361    6.2421   -1.3698 C   0  0  0  0  0  0  0  0  0  0  0  0
   -6.5614    4.8892   -1.1303 C   0  0  0  0  0  0  0  0  0  0  0  0
   -6.4050    4.4018    0.1687 C   0  0  0  0  0  0  0  0  0  0  0  0
   -5.9382    4.8385    2.2260 H   0  0  0  0  0  0  0  0  0  0  0  0
   -5.5321    7.2501    1.7749 H   0  0  0  0  0  0  0  0  0  0  0  0
   -6.4555    6.6316   -2.3769 H   0  0  0  0  0  0  0  0  0  0  0  0
   -6.8620    4.2196   -1.9282 H   0  0  0  0  0  0  0  0  0  0  0  0
   -6.6951    2.6772    0.4908 S   0  0  0  0  0  0  0  0  0  0  0  0
   -6.9854    2.4723    1.9044 O   0  0  0  0  0  0  0  0  0  0  0  0
   -5.1021    2.1753    0.2070 O   0  0  0  0  0  0  0  0  0  0  0  0
   -7.5331    2.1048   -0.5559 O   0  0  0  0  0  0  0  0  0  0  0  0
   -5.7523    8.5814   -0.5993 C   0  0  0  0  0  0  0  0  0  0  0  0
   -6.6959    9.1328   -0.5041 H   0  0  0  0  0  0  0  0  0  0  0  0
   -5.0447    9.0202    0.1099 H   0  0  0  0  0  0  0  0  0  0  0  0
   -5.3758    8.7551   -1.6113 H   0  0  0  0  0  0  0  0  0  0  0  0
  1  2  1  0  0  0  0
  1 11  2  0  0  0  0
  2  3  1  0  0  0  0
  4  1  1  0  0  0  0
  5  4  2  0  0  0  0
  5  6  1  0  0  0  0
  6 10  2  0  0  0  0
  7  6  1  0  0  0  0
  7  9  2  0  0  0  0
  8  7  2  0  0  0  0
 10 11  1  0  0  0  0
 10 14  1  0  0  0  0
 11 15  1  0  0  0  0
 13  5  1  0  0  0  0
 16 22  1  0  0  0  0
 17 16  1  0  0  0  0
 17 23  1  0  0  0  0
 18 17  2  0  0  0  0
 19 20  2  0  0  0  0
 19 18  1  0  0  0  0
 20 21  1  0  0  0  0
 21 26  1  0  0  0  0
 21 16  2  0  0  0  0
 24 19  1  0  0  0  0
 25 20  1  0  0  0  0
 26 27  2  0  0  0  0
 28  3  1  0  0  0  0
 28 26  1  0  0  0  0
 29 26  2  0  0  0  0
 30 31  1  0  0  0  0
 30 18  1  0  0  0  0
 30 32  1  0  0  0  0
 33 30  1  0  0  0  0
M  RAD  4   2   2   3   2   4   2  12   2
M  END
