Coordinates from ORCA-job 4-NO2PhN2+~TsO-_B3LYPG-6-31G_dp-CH-Scan-d09-49-n800
 OpenBabel11261919023D

 33 33  0  0  0  0  0  0  0  0999 V2000
   -2.7830    1.0825   -0.2240 C   0  0  0  0  0  0  0  0  0  0  0  0
   -3.8766    0.2901    0.2403 N   0  0  0  0  0  0  0  0  0  0  0  0
   -4.9977    0.7078    0.4472 N   0  0  0  0  0  0  0  0  0  0  0  0
   -2.6931    1.4930   -1.5500 C   0  0  0  0  0  0  0  0  0  0  0  0
   -1.5909    2.1629   -2.0414 C   0  0  0  0  0  0  0  0  0  0  0  0
   -0.5481    2.4195   -1.1469 C   0  0  0  0  0  0  0  0  0  0  0  0
    0.6399    3.1390   -1.6336 N   0  0  0  0  0  0  0  0  0  0  0  0
    0.6509    3.4830   -2.8145 O   0  0  0  0  0  0  0  0  0  0  0  0
    1.5450    3.3516   -0.8284 O   0  0  0  0  0  0  0  0  0  0  0  0
   -0.5930    2.0125    0.1855 C   0  0  0  0  0  0  0  0  0  0  0  0
   -1.7116    1.3243    0.6461 C   0  0  0  0  0  0  0  0  0  0  0  0
   -3.9318    1.1547   -2.5309 H   0  0  0  0  0  0  0  0  0  0  0  0
   -1.5148    2.4888   -3.0698 H   0  0  0  0  0  0  0  0  0  0  0  0
    0.2448    2.2298    0.8358 H   0  0  0  0  0  0  0  0  0  0  0  0
   -1.7678    0.9790    1.6726 H   0  0  0  0  0  0  0  0  0  0  0  0
   -6.0314    5.2385    1.2268 C   0  0  0  0  0  0  0  0  0  0  0  0
   -5.8096    6.5876    0.9628 C   0  0  0  0  0  0  0  0  0  0  0  0
   -5.9563    7.1080   -0.3319 C   0  0  0  0  0  0  0  0  0  0  0  0
   -6.3337    6.2387   -1.3669 C   0  0  0  0  0  0  0  0  0  0  0  0
   -6.5605    4.8865   -1.1255 C   0  0  0  0  0  0  0  0  0  0  0  0
   -6.4015    4.4001    0.1736 C   0  0  0  0  0  0  0  0  0  0  0  0
   -5.9286    4.8380    2.2293 H   0  0  0  0  0  0  0  0  0  0  0  0
   -5.5200    7.2486    1.7747 H   0  0  0  0  0  0  0  0  0  0  0  0
   -6.4550    6.6273   -2.3741 H   0  0  0  0  0  0  0  0  0  0  0  0
   -6.8642    4.2166   -1.9221 H   0  0  0  0  0  0  0  0  0  0  0  0
   -6.6936    2.6764    0.4981 S   0  0  0  0  0  0  0  0  0  0  0  0
   -6.9762    2.4724    1.9133 O   0  0  0  0  0  0  0  0  0  0  0  0
   -5.1023    2.1712    0.2060 O   0  0  0  0  0  0  0  0  0  0  0  0
   -7.5381    2.1049   -0.5439 O   0  0  0  0  0  0  0  0  0  0  0  0
   -5.7442    8.5778   -0.6003 C   0  0  0  0  0  0  0  0  0  0  0  0
   -6.6873    9.1302   -0.5073 H   0  0  0  0  0  0  0  0  0  0  0  0
   -5.0371    9.0171    0.1090 H   0  0  0  0  0  0  0  0  0  0  0  0
   -5.3662    8.7495   -1.6121 H   0  0  0  0  0  0  0  0  0  0  0  0
  1  2  1  0  0  0  0
  1 11  2  0  0  0  0
  2  3  1  0  0  0  0
  4  1  1  0  0  0  0
  5  4  2  0  0  0  0
  5  6  1  0  0  0  0
  6 10  2  0  0  0  0
  7  6  1  0  0  0  0
  7  9  2  0  0  0  0
  8  7  2  0  0  0  0
 10 11  1  0  0  0  0
 10 14  1  0  0  0  0
 11 15  1  0  0  0  0
 13  5  1  0  0  0  0
 16 22  1  0  0  0  0
 17 16  1  0  0  0  0
 17 23  1  0  0  0  0
 18 17  2  0  0  0  0
 19 20  2  0  0  0  0
 19 18  1  0  0  0  0
 20 21  1  0  0  0  0
 21 26  1  0  0  0  0
 21 16  2  0  0  0  0
 24 19  1  0  0  0  0
 25 20  1  0  0  0  0
 26 27  2  0  0  0  0
 28  3  1  0  0  0  0
 28 26  1  0  0  0  0
 29 26  2  0  0  0  0
 30 31  1  0  0  0  0
 30 18  1  0  0  0  0
 30 32  1  0  0  0  0
 33 30  1  0  0  0  0
M  RAD  4   2   2   3   2   4   2  12   2
M  END
