Coordinates from ORCA-job 4-NO2PhN2+~TsO-_B3LYPG-6-31G_dp-CH-Scan-d09-49-n800
 OpenBabel11261919023D

 33 33  0  0  0  0  0  0  0  0999 V2000
   -2.8042    1.0784   -0.2791 C   0  0  0  0  0  0  0  0  0  0  0  0
   -3.9030    0.2578    0.1247 N   0  0  0  0  0  0  0  0  0  0  0  0
   -5.0146    0.6899    0.3677 N   0  0  0  0  0  0  0  0  0  0  0  0
   -2.6243    1.5049   -1.5780 C   0  0  0  0  0  0  0  0  0  0  0  0
   -1.5474    2.2024   -2.0536 C   0  0  0  0  0  0  0  0  0  0  0  0
   -0.5506    2.4776   -1.1064 C   0  0  0  0  0  0  0  0  0  0  0  0
    0.6431    3.2243   -1.5389 N   0  0  0  0  0  0  0  0  0  0  0  0
    0.6987    3.5709   -2.7171 O   0  0  0  0  0  0  0  0  0  0  0  0
    1.5046    3.4532   -0.6919 O   0  0  0  0  0  0  0  0  0  0  0  0
   -0.6511    2.0655    0.2220 C   0  0  0  0  0  0  0  0  0  0  0  0
   -1.7739    1.3539    0.6363 C   0  0  0  0  0  0  0  0  0  0  0  0
   -4.3627    0.9398   -3.0579 H   0  0  0  0  0  0  0  0  0  0  0  0
   -1.4393    2.5316   -3.0787 H   0  0  0  0  0  0  0  0  0  0  0  0
    0.1506    2.3012    0.9102 H   0  0  0  0  0  0  0  0  0  0  0  0
   -1.8696    1.0124    1.6619 H   0  0  0  0  0  0  0  0  0  0  0  0
   -5.9744    5.2449    1.2556 C   0  0  0  0  0  0  0  0  0  0  0  0
   -5.7507    6.5875    0.9600 C   0  0  0  0  0  0  0  0  0  0  0  0
   -5.9200    7.0823   -0.3416 C   0  0  0  0  0  0  0  0  0  0  0  0
   -6.3222    6.1944   -1.3519 C   0  0  0  0  0  0  0  0  0  0  0  0
   -6.5522    4.8491   -1.0793 C   0  0  0  0  0  0  0  0  0  0  0  0
   -6.3704    4.3886    0.2269 C   0  0  0  0  0  0  0  0  0  0  0  0
   -5.8532    4.8633    2.2633 H   0  0  0  0  0  0  0  0  0  0  0  0
   -5.4417    7.2631    1.7524 H   0  0  0  0  0  0  0  0  0  0  0  0
   -6.4604    6.5633   -2.3643 H   0  0  0  0  0  0  0  0  0  0  0  0
   -6.8733    4.1652   -1.8568 H   0  0  0  0  0  0  0  0  0  0  0  0
   -6.6679    2.6748    0.5905 S   0  0  0  0  0  0  0  0  0  0  0  0
   -6.8676    2.4897    2.0222 O   0  0  0  0  0  0  0  0  0  0  0  0
   -5.0899    2.1458    0.2195 O   0  0  0  0  0  0  0  0  0  0  0  0
   -7.5713    2.0971   -0.3953 O   0  0  0  0  0  0  0  0  0  0  0  0
   -5.7048    8.5446   -0.6459 C   0  0  0  0  0  0  0  0  0  0  0  0
   -6.6543    9.0925   -0.6114 H   0  0  0  0  0  0  0  0  0  0  0  0
   -5.0310    9.0105    0.0785 H   0  0  0  0  0  0  0  0  0  0  0  0
   -5.2845    8.6870   -1.6458 H   0  0  0  0  0  0  0  0  0  0  0  0
  1  2  1  0  0  0  0
  1 11  2  0  0  0  0
  2  3  1  0  0  0  0
  4  1  1  0  0  0  0
  5  4  2  0  0  0  0
  5  6  1  0  0  0  0
  6 10  2  0  0  0  0
  7  6  1  0  0  0  0
  7  9  2  0  0  0  0
  8  7  2  0  0  0  0
 10 11  1  0  0  0  0
 10 14  1  0  0  0  0
 11 15  1  0  0  0  0
 13  5  1  0  0  0  0
 16 22  1  0  0  0  0
 17 16  1  0  0  0  0
 17 23  1  0  0  0  0
 18 17  2  0  0  0  0
 19 20  2  0  0  0  0
 19 18  1  0  0  0  0
 20 21  1  0  0  0  0
 21 26  1  0  0  0  0
 21 16  2  0  0  0  0
 24 19  1  0  0  0  0
 25 20  1  0  0  0  0
 26 27  2  0  0  0  0
 28  3  1  0  0  0  0
 28 26  1  0  0  0  0
 29 26  2  0  0  0  0
 30 31  1  0  0  0  0
 30 18  1  0  0  0  0
 30 32  1  0  0  0  0
 33 30  1  0  0  0  0
M  RAD  4   2   2   3   2   4   2  12   2
M  END
