Coordinates from ORCA-job 4-NO2PhN2+~TsO-_B3LYPG-6-31G_dp-CH-Scan-d09-49-n800
 OpenBabel11261919033D

 33 33  0  0  0  0  0  0  0  0999 V2000
   -2.8566    0.7376   -0.9797 C   0  0  0  0  0  0  0  0  0  0  0  0
   -3.9103   -0.1721   -0.7411 N   0  0  0  0  0  0  0  0  0  0  0  0
   -4.7231   -0.9266   -0.6413 N   0  0  0  0  0  0  0  0  0  0  0  0
   -2.2127    0.4845   -2.1902 C   0  0  0  0  0  0  0  0  0  0  0  0
   -1.1642    1.4312   -2.3860 C   0  0  0  0  0  0  0  0  0  0  0  0
   -0.8598    2.3973   -1.4358 C   0  0  0  0  0  0  0  0  0  0  0  0
    0.2428    3.3510   -1.6995 N   0  0  0  0  0  0  0  0  0  0  0  0
    1.0263    3.0876   -2.6078 O   0  0  0  0  0  0  0  0  0  0  0  0
    0.2961    4.3653   -0.9994 O   0  0  0  0  0  0  0  0  0  0  0  0
   -1.5688    2.5589   -0.2247 C   0  0  0  0  0  0  0  0  0  0  0  0
   -2.6213    1.7045    0.0305 C   0  0  0  0  0  0  0  0  0  0  0  0
   -4.0596    4.2423   -0.1570 H   0  0  0  0  0  0  0  0  0  0  0  0
   -0.5723    1.4181   -3.2978 H   0  0  0  0  0  0  0  0  0  0  0  0
   -1.2739    3.3318    0.4734 H   0  0  0  0  0  0  0  0  0  0  0  0
   -3.2282    1.7818    0.9291 H   0  0  0  0  0  0  0  0  0  0  0  0
   -6.7976    5.2857    1.1509 C   0  0  0  0  0  0  0  0  0  0  0  0
   -6.6407    6.5988    0.7145 C   0  0  0  0  0  0  0  0  0  0  0  0
   -5.7196    7.0019   -0.3045 C   0  0  0  0  0  0  0  0  0  0  0  0
   -4.9567    6.0243   -0.8814 C   0  0  0  0  0  0  0  0  0  0  0  0
   -5.0554    4.6088   -0.4745 C   0  0  0  0  0  0  0  0  0  0  0  0
   -6.0258    4.2826    0.5834 C   0  0  0  0  0  0  0  0  0  0  0  0
   -7.5227    5.0242    1.9148 H   0  0  0  0  0  0  0  0  0  0  0  0
   -7.2596    7.3706    1.1690 H   0  0  0  0  0  0  0  0  0  0  0  0
   -4.2423    6.2733   -1.6623 H   0  0  0  0  0  0  0  0  0  0  0  0
   -5.2446    3.9487   -1.3398 H   0  0  0  0  0  0  0  0  0  0  0  0
   -6.1431    2.5749    1.1784 S   0  0  0  0  0  0  0  0  0  0  0  0
   -7.4732    2.4886    1.7962 O   0  0  0  0  0  0  0  0  0  0  0  0
   -4.9840    2.6025    2.1147 O   0  0  0  0  0  0  0  0  0  0  0  0
   -5.9192    1.7684   -0.0435 O   0  0  0  0  0  0  0  0  0  0  0  0
   -5.6306    8.4547   -0.6987 C   0  0  0  0  0  0  0  0  0  0  0  0
   -6.5968    8.8238   -1.0592 H   0  0  0  0  0  0  0  0  0  0  0  0
   -5.3435    9.0760    0.1566 H   0  0  0  0  0  0  0  0  0  0  0  0
   -4.8928    8.6066   -1.4895 H   0  0  0  0  0  0  0  0  0  0  0  0
  1  2  1  0  0  0  0
  1 11  2  0  0  0  0
  2  3  1  0  0  0  0
  4  1  1  0  0  0  0
  5  4  2  0  0  0  0
  5  6  1  0  0  0  0
  6 10  2  0  0  0  0
  7  6  1  0  0  0  0
  7  9  2  0  0  0  0
  8  7  2  0  0  0  0
 10 11  1  0  0  0  0
 10 14  1  0  0  0  0
 11 15  1  0  0  0  0
 13  5  1  0  0  0  0
 16 22  1  0  0  0  0
 17 16  1  0  0  0  0
 17 23  1  0  0  0  0
 18 17  1  0  0  0  0
 19 20  1  0  0  0  0
 19 18  2  0  0  0  0
 20 12  1  0  0  0  0
 20 21  1  0  0  0  0
 21 16  2  0  0  0  0
 21 26  1  0  0  0  0
 24 19  1  0  0  0  0
 25 20  1  0  0  0  0
 26 27  2  0  0  0  0
 26 28  1  0  0  0  0
 29 26  2  0  0  0  0
 30 18  1  0  0  0  0
 30 32  1  0  0  0  0
 31 30  1  0  0  0  0
 33 30  1  0  0  0  0
M  RAD  5   2   2   3   3   4   2  17   2  28   2
M  END
