Coordinates from ORCA-job 4-NO2PhN2+~TsO-_B3LYPG-6-31G_dp-CH-Scan-d09-49-n800
 OpenBabel11261919023D

 33 33  0  0  0  0  0  0  0  0999 V2000
   -2.2871    1.2095   -0.2778 C   0  0  0  0  0  0  0  0  0  0  0  0
   -3.5362    0.7269    0.1666 N   0  0  0  0  0  0  0  0  0  0  0  0
   -4.5367    0.3785    0.5098 N   0  0  0  0  0  0  0  0  0  0  0  0
   -2.3510    2.3826   -1.0298 C   0  0  0  0  0  0  0  0  0  0  0  0
   -1.0476    2.7816   -1.4344 C   0  0  0  0  0  0  0  0  0  0  0  0
    0.0849    2.0485   -1.1047 C   0  0  0  0  0  0  0  0  0  0  0  0
    1.4147    2.5182   -1.5700 N   0  0  0  0  0  0  0  0  0  0  0  0
    1.4541    3.5384   -2.2528 O   0  0  0  0  0  0  0  0  0  0  0  0
    2.3989    1.8566   -1.2404 O   0  0  0  0  0  0  0  0  0  0  0  0
    0.0553    0.8667   -0.3382 C   0  0  0  0  0  0  0  0  0  0  0  0
   -1.1717    0.4189    0.0995 C   0  0  0  0  0  0  0  0  0  0  0  0
   -5.1398    4.2261   -1.0458 H   0  0  0  0  0  0  0  0  0  0  0  0
   -0.9039    3.6836   -2.0227 H   0  0  0  0  0  0  0  0  0  0  0  0
    0.9760    0.3469   -0.1115 H   0  0  0  0  0  0  0  0  0  0  0  0
   -1.2711   -0.4821    0.6979 H   0  0  0  0  0  0  0  0  0  0  0  0
   -6.9796    5.5914    1.1660 C   0  0  0  0  0  0  0  0  0  0  0  0
   -6.8581    6.8716    0.6361 C   0  0  0  0  0  0  0  0  0  0  0  0
   -6.3988    7.1472   -0.6915 C   0  0  0  0  0  0  0  0  0  0  0  0
   -6.0673    6.0777   -1.4766 C   0  0  0  0  0  0  0  0  0  0  0  0
   -6.1471    4.6904   -0.9845 C   0  0  0  0  0  0  0  0  0  0  0  0
   -6.6423    4.4943    0.3839 C   0  0  0  0  0  0  0  0  0  0  0  0
   -7.3595    5.4289    2.1688 H   0  0  0  0  0  0  0  0  0  0  0  0
   -7.1377    7.7184    1.2605 H   0  0  0  0  0  0  0  0  0  0  0  0
   -5.7125    6.2310   -2.4925 H   0  0  0  0  0  0  0  0  0  0  0  0
   -6.7033    4.0257   -1.6672 H   0  0  0  0  0  0  0  0  0  0  0  0
   -6.7406    2.8141    1.0531 S   0  0  0  0  0  0  0  0  0  0  0  0
   -7.8482    2.8765    2.0218 O   0  0  0  0  0  0  0  0  0  0  0  0
   -5.3729    2.7431    1.6424 O   0  0  0  0  0  0  0  0  0  0  0  0
   -6.9421    1.9687   -0.1418 O   0  0  0  0  0  0  0  0  0  0  0  0
   -6.3075    8.5756   -1.1671 C   0  0  0  0  0  0  0  0  0  0  0  0
   -7.2837    9.0705   -1.1176 H   0  0  0  0  0  0  0  0  0  0  0  0
   -5.6176    9.1538   -0.5429 H   0  0  0  0  0  0  0  0  0  0  0  0
   -5.9534    8.6281   -2.1989 H   0  0  0  0  0  0  0  0  0  0  0  0
  1 11  1  0  0  0  0
  1  2  1  0  0  0  0
  2  3  1  0  0  0  0
  4  1  2  0  0  0  0
  5  6  2  0  0  0  0
  5  4  1  0  0  0  0
  6 10  1  0  0  0  0
  7  9  2  0  0  0  0
  7  6  1  0  0  0  0
  8  7  2  0  0  0  0
 10 14  1  0  0  0  0
 10 11  2  0  0  0  0
 11 15  1  0  0  0  0
 12 20  1  0  0  0  0
 13  5  1  0  0  0  0
 16 22  1  0  0  0  0
 17 16  1  0  0  0  0
 17 23  1  0  0  0  0
 18 17  1  0  0  0  0
 19 20  1  0  0  0  0
 19 18  2  0  0  0  0
 20 21  1  0  0  0  0
 21 26  1  0  0  0  0
 21 16  2  0  0  0  0
 24 19  1  0  0  0  0
 25 20  1  0  0  0  0
 26 28  2  0  0  0  0
 26 27  1  0  0  0  0
 29 26  2  0  0  0  0
 30 31  1  0  0  0  0
 30 18  1  0  0  0  0
 30 32  1  0  0  0  0
 33 30  1  0  0  0  0
M  RAD  5   2   2   3   3   4   2  17   2  27   2
M  END
