Coordinates from ORCA-job 4-NO2PhN2+~TsO-_B3LYPG-6-31G_dp-CH-Scan-d09-49-n800
 OpenBabel11261919023D

 33 33  0  0  0  0  0  0  0  0999 V2000
   -2.2877    1.2113   -0.2748 C   0  0  0  0  0  0  0  0  0  0  0  0
   -3.5360    0.7279    0.1705 N   0  0  0  0  0  0  0  0  0  0  0  0
   -4.5366    0.3789    0.5128 N   0  0  0  0  0  0  0  0  0  0  0  0
   -2.3522    2.3847   -1.0262 C   0  0  0  0  0  0  0  0  0  0  0  0
   -1.0493    2.7843   -1.4318 C   0  0  0  0  0  0  0  0  0  0  0  0
    0.0836    2.0512   -1.1035 C   0  0  0  0  0  0  0  0  0  0  0  0
    1.4128    2.5214   -1.5699 N   0  0  0  0  0  0  0  0  0  0  0  0
    1.4500    3.5343   -2.2635 O   0  0  0  0  0  0  0  0  0  0  0  0
    2.3963    1.8532   -1.2511 O   0  0  0  0  0  0  0  0  0  0  0  0
    0.0548    0.8690   -0.3376 C   0  0  0  0  0  0  0  0  0  0  0  0
   -1.1716    0.4209    0.1011 C   0  0  0  0  0  0  0  0  0  0  0  0
   -5.1368    4.2254   -1.0433 H   0  0  0  0  0  0  0  0  0  0  0  0
   -0.9064    3.6867   -2.0197 H   0  0  0  0  0  0  0  0  0  0  0  0
    0.9759    0.3492   -0.1120 H   0  0  0  0  0  0  0  0  0  0  0  0
   -1.2701   -0.4804    0.6993 H   0  0  0  0  0  0  0  0  0  0  0  0
   -6.9821    5.5901    1.1646 C   0  0  0  0  0  0  0  0  0  0  0  0
   -6.8594    6.8704    0.6353 C   0  0  0  0  0  0  0  0  0  0  0  0
   -6.3970    7.1464   -0.6912 C   0  0  0  0  0  0  0  0  0  0  0  0
   -6.0635    6.0770   -1.4757 C   0  0  0  0  0  0  0  0  0  0  0  0
   -6.1443    4.6897   -0.9840 C   0  0  0  0  0  0  0  0  0  0  0  0
   -6.6426    4.4932    0.3831 C   0  0  0  0  0  0  0  0  0  0  0  0
   -7.3644    5.4274    2.1664 H   0  0  0  0  0  0  0  0  0  0  0  0
   -7.1408    7.7171    1.2592 H   0  0  0  0  0  0  0  0  0  0  0  0
   -5.7063    6.2306   -2.4907 H   0  0  0  0  0  0  0  0  0  0  0  0
   -6.6989    4.0250   -1.6681 H   0  0  0  0  0  0  0  0  0  0  0  0
   -6.7423    2.8130    1.0521 S   0  0  0  0  0  0  0  0  0  0  0  0
   -7.8517    2.8752    2.0187 O   0  0  0  0  0  0  0  0  0  0  0  0
   -5.3756    2.7420    1.6441 O   0  0  0  0  0  0  0  0  0  0  0  0
   -6.9413    1.9675   -0.1432 O   0  0  0  0  0  0  0  0  0  0  0  0
   -6.3046    8.5749   -1.1663 C   0  0  0  0  0  0  0  0  0  0  0  0
   -7.2810    9.0696   -1.1193 H   0  0  0  0  0  0  0  0  0  0  0  0
   -5.6165    9.1530   -0.5402 H   0  0  0  0  0  0  0  0  0  0  0  0
   -5.9478    8.6275   -2.1972 H   0  0  0  0  0  0  0  0  0  0  0  0
  1 11  1  0  0  0  0
  1  2  1  0  0  0  0
  2  3  1  0  0  0  0
  4  1  2  0  0  0  0
  5  6  2  0  0  0  0
  5  4  1  0  0  0  0
  6 10  1  0  0  0  0
  7  9  2  0  0  0  0
  7  6  1  0  0  0  0
  8  7  2  0  0  0  0
 10 14  1  0  0  0  0
 10 11  2  0  0  0  0
 11 15  1  0  0  0  0
 12 20  1  0  0  0  0
 13  5  1  0  0  0  0
 16 22  1  0  0  0  0
 17 16  1  0  0  0  0
 17 23  1  0  0  0  0
 18 17  1  0  0  0  0
 19 20  1  0  0  0  0
 19 18  2  0  0  0  0
 20 21  1  0  0  0  0
 21 26  1  0  0  0  0
 21 16  2  0  0  0  0
 24 19  1  0  0  0  0
 25 20  1  0  0  0  0
 26 28  2  0  0  0  0
 26 27  1  0  0  0  0
 29 26  2  0  0  0  0
 30 31  1  0  0  0  0
 30 18  1  0  0  0  0
 30 32  1  0  0  0  0
 33 30  1  0  0  0  0
M  RAD  5   2   2   3   3   4   2  17   2  27   2
M  END
