Coordinates from ORCA-job 4-NO2PhN2+~TsO-_B3LYPG-6-31G_dp-CH-Scan-d09-49-n800
 OpenBabel11261919023D

 33 33  0  0  0  0  0  0  0  0999 V2000
   -2.2048    1.1462   -0.3590 C   0  0  0  0  0  0  0  0  0  0  0  0
   -3.4821    0.6990    0.0424 N   0  0  0  0  0  0  0  0  0  0  0  0
   -4.5069    0.3795    0.3395 N   0  0  0  0  0  0  0  0  0  0  0  0
   -2.2297    2.2313   -1.2348 C   0  0  0  0  0  0  0  0  0  0  0  0
   -0.9020    2.6019   -1.5899 C   0  0  0  0  0  0  0  0  0  0  0  0
    0.2096    1.9251   -1.1060 C   0  0  0  0  0  0  0  0  0  0  0  0
    1.5656    2.3613   -1.5263 N   0  0  0  0  0  0  0  0  0  0  0  0
    1.6469    3.3120   -2.2996 O   0  0  0  0  0  0  0  0  0  0  0  0
    2.5288    1.7448   -1.0699 O   0  0  0  0  0  0  0  0  0  0  0  0
    0.1358    0.8310   -0.2203 C   0  0  0  0  0  0  0  0  0  0  0  0
   -1.1150    0.4146    0.1783 C   0  0  0  0  0  0  0  0  0  0  0  0
   -5.2420    4.3135   -1.1286 H   0  0  0  0  0  0  0  0  0  0  0  0
   -0.7235    3.4376   -2.2612 H   0  0  0  0  0  0  0  0  0  0  0  0
    1.0425    0.3523    0.1230 H   0  0  0  0  0  0  0  0  0  0  0  0
   -1.2500   -0.4183    0.8626 H   0  0  0  0  0  0  0  0  0  0  0  0
   -7.0055    5.6262    1.1933 C   0  0  0  0  0  0  0  0  0  0  0  0
   -6.9300    6.9161    0.6791 C   0  0  0  0  0  0  0  0  0  0  0  0
   -6.5223    7.2227   -0.6595 C   0  0  0  0  0  0  0  0  0  0  0  0
   -6.1976    6.1732   -1.4730 C   0  0  0  0  0  0  0  0  0  0  0  0
   -6.2412    4.7749   -1.0040 C   0  0  0  0  0  0  0  0  0  0  0  0
   -6.6730    4.5481    0.3830 C   0  0  0  0  0  0  0  0  0  0  0  0
   -7.3424    5.4391    2.2072 H   0  0  0  0  0  0  0  0  0  0  0  0
   -7.2049    7.7475    1.3261 H   0  0  0  0  0  0  0  0  0  0  0  0
   -5.8812    6.3496   -2.4978 H   0  0  0  0  0  0  0  0  0  0  0  0
   -6.8397    4.1283   -1.6693 H   0  0  0  0  0  0  0  0  0  0  0  0
   -6.7019    2.8565    1.0288 S   0  0  0  0  0  0  0  0  0  0  0  0
   -7.7109    2.8922    2.1005 O   0  0  0  0  0  0  0  0  0  0  0  0
   -5.2823    2.7949    1.4819 O   0  0  0  0  0  0  0  0  0  0  0  0
   -7.0104    2.0324   -0.1570 O   0  0  0  0  0  0  0  0  0  0  0  0
   -6.4743    8.6603   -1.1126 C   0  0  0  0  0  0  0  0  0  0  0  0
   -7.4596    9.1325   -1.0303 H   0  0  0  0  0  0  0  0  0  0  0  0
   -5.7816    9.2433   -0.4963 H   0  0  0  0  0  0  0  0  0  0  0  0
   -6.1484    8.7380   -2.1522 H   0  0  0  0  0  0  0  0  0  0  0  0
  1  2  1  0  0  0  0
  1 11  2  0  0  0  0
  2  3  1  0  0  0  0
  4  1  1  0  0  0  0
  5  4  2  0  0  0  0
  5  6  1  0  0  0  0
  6 10  2  0  0  0  0
  7  6  1  0  0  0  0
  7  9  2  0  0  0  0
  8  7  2  0  0  0  0
 10 14  1  0  0  0  0
 10 11  1  0  0  0  0
 11 15  1  0  0  0  0
 12 20  1  0  0  0  0
 13  5  1  0  0  0  0
 16 22  1  0  0  0  0
 17 16  1  0  0  0  0
 17 23  1  0  0  0  0
 18 17  1  0  0  0  0
 19 20  1  0  0  0  0
 19 18  2  0  0  0  0
 20 21  1  0  0  0  0
 21 26  1  0  0  0  0
 21 16  2  0  0  0  0
 24 19  1  0  0  0  0
 25 20  1  0  0  0  0
 26 28  2  0  0  0  0
 26 27  1  0  0  0  0
 29 26  2  0  0  0  0
 30 31  1  0  0  0  0
 30 18  1  0  0  0  0
 30 32  1  0  0  0  0
 33 30  1  0  0  0  0
M  RAD  5   2   2   3   3   4   2  17   2  27   2
M  END
