Coordinates from ORCA-job 4-NO2PhN2+~TsO-_B3LYPG-6-31G_dp-CH-Scan-d09-49-n800
 OpenBabel11261919023D

 33 34  0  0  0  0  0  0  0  0999 V2000
   -2.7675    1.0890   -0.1987 C   0  0  0  0  0  0  0  0  0  0  0  0
   -3.8620    0.3094    0.2833 N   0  0  0  0  0  0  0  0  0  0  0  0
   -4.9862    0.7221    0.4783 N   0  0  0  0  0  0  0  0  0  0  0  0
   -2.7127    1.5307   -1.5191 C   0  0  0  0  0  0  0  0  0  0  0  0
   -1.6028    2.1857   -2.0186 C   0  0  0  0  0  0  0  0  0  0  0  0
   -0.5294    2.3952   -1.1494 C   0  0  0  0  0  0  0  0  0  0  0  0
    0.6613    3.0991   -1.6522 N   0  0  0  0  0  0  0  0  0  0  0  0
    0.6476    3.4721   -2.8243 O   0  0  0  0  0  0  0  0  0  0  0  0
    1.5935    3.2704   -0.8683 O   0  0  0  0  0  0  0  0  0  0  0  0
   -0.5455    1.9549    0.1729 C   0  0  0  0  0  0  0  0  0  0  0  0
   -1.6666    1.2798    0.6461 C   0  0  0  0  0  0  0  0  0  0  0  0
   -3.9023    1.2707   -2.4134 H   0  0  0  0  0  0  0  0  0  0  0  0
   -1.5459    2.5366   -3.0402 H   0  0  0  0  0  0  0  0  0  0  0  0
    0.3156    2.1350    0.8039 H   0  0  0  0  0  0  0  0  0  0  0  0
   -1.7022    0.9063    1.6634 H   0  0  0  0  0  0  0  0  0  0  0  0
   -6.0546    5.2449    1.2161 C   0  0  0  0  0  0  0  0  0  0  0  0
   -5.8388    6.5958    0.9570 C   0  0  0  0  0  0  0  0  0  0  0  0
   -5.9803    7.1188   -0.3374 C   0  0  0  0  0  0  0  0  0  0  0  0
   -6.3461    6.2500   -1.3768 C   0  0  0  0  0  0  0  0  0  0  0  0
   -6.5667    4.8957   -1.1402 C   0  0  0  0  0  0  0  0  0  0  0  0
   -6.4132    4.4069    0.1586 C   0  0  0  0  0  0  0  0  0  0  0  0
   -5.9563    4.8426    2.2183 H   0  0  0  0  0  0  0  0  0  0  0  0
   -5.5582    7.2563    1.7724 H   0  0  0  0  0  0  0  0  0  0  0  0
   -6.4636    6.6405   -2.3838 H   0  0  0  0  0  0  0  0  0  0  0  0
   -6.8619    4.2261   -1.9401 H   0  0  0  0  0  0  0  0  0  0  0  0
   -6.6976    2.6805    0.4773 S   0  0  0  0  0  0  0  0  0  0  0  0
   -7.0023    2.4743    1.8877 O   0  0  0  0  0  0  0  0  0  0  0  0
   -5.1015    2.1861    0.2090 O   0  0  0  0  0  0  0  0  0  0  0  0
   -7.5231    2.1050   -0.5781 O   0  0  0  0  0  0  0  0  0  0  0  0
   -5.7752    8.5905   -0.6003 C   0  0  0  0  0  0  0  0  0  0  0  0
   -6.7197    9.1392   -0.4987 H   0  0  0  0  0  0  0  0  0  0  0  0
   -5.0654    9.0291    0.1068 H   0  0  0  0  0  0  0  0  0  0  0  0
   -5.4041    8.7684   -1.6136 H   0  0  0  0  0  0  0  0  0  0  0  0
  1  2  1  0  0  0  0
  1 11  2  0  0  0  0
  2  3  1  0  0  0  0
  4  1  1  0  0  0  0
  5  4  2  0  0  0  0
  5  6  1  0  0  0  0
  6 10  2  0  0  0  0
  7  6  1  0  0  0  0
  7  9  2  0  0  0  0
  8  7  2  0  0  0  0
 10 11  1  0  0  0  0
 10 14  1  0  0  0  0
 11 15  1  0  0  0  0
 12  4  1  0  0  0  0
 13  5  1  0  0  0  0
 16 22  1  0  0  0  0
 17 16  1  0  0  0  0
 17 23  1  0  0  0  0
 18 17  2  0  0  0  0
 19 20  2  0  0  0  0
 19 18  1  0  0  0  0
 20 21  1  0  0  0  0
 21 26  1  0  0  0  0
 21 16  2  0  0  0  0
 24 19  1  0  0  0  0
 25 20  1  0  0  0  0
 26 27  2  0  0  0  0
 28 26  1  0  0  0  0
 28  3  1  0  0  0  0
 29 26  2  0  0  0  0
 30 31  1  0  0  0  0
 30 18  1  0  0  0  0
 30 32  1  0  0  0  0
 33 30  1  0  0  0  0
M  RAD  2   2   2   3   2
M  END
