Coordinates from ORCA-job 4-NO2PhN2+~TsO-_B3LYPG-6-31G_dp-CH-Scan-d09-49-n800
 OpenBabel11261919023D

 33 33  0  0  0  0  0  0  0  0999 V2000
   -2.7357    1.1452   -0.9159 C   0  0  0  0  0  0  0  0  0  0  0  0
   -3.9591    0.4376   -0.8182 N   0  0  0  0  0  0  0  0  0  0  0  0
   -4.9068   -0.1454   -0.8562 N   0  0  0  0  0  0  0  0  0  0  0  0
   -2.3768    1.3920   -2.2381 C   0  0  0  0  0  0  0  0  0  0  0  0
   -1.1298    2.0730   -2.2910 C   0  0  0  0  0  0  0  0  0  0  0  0
   -0.4213    2.3895   -1.1378 C   0  0  0  0  0  0  0  0  0  0  0  0
    0.8796    3.0952   -1.2587 N   0  0  0  0  0  0  0  0  0  0  0  0
    1.2919    3.3479   -2.3883 O   0  0  0  0  0  0  0  0  0  0  0  0
    1.4671    3.3924   -0.2180 O   0  0  0  0  0  0  0  0  0  0  0  0
   -0.8734    2.0989    0.1660 C   0  0  0  0  0  0  0  0  0  0  0  0
   -2.0858    1.4573    0.3017 C   0  0  0  0  0  0  0  0  0  0  0  0
   -4.9281    3.9434   -1.1159 H   0  0  0  0  0  0  0  0  0  0  0  0
   -0.6963    2.3642   -3.2437 H   0  0  0  0  0  0  0  0  0  0  0  0
   -0.2770    2.3914    1.0196 H   0  0  0  0  0  0  0  0  0  0  0  0
   -2.5294    1.2396    1.2665 H   0  0  0  0  0  0  0  0  0  0  0  0
   -6.4514    5.3314    1.3505 C   0  0  0  0  0  0  0  0  0  0  0  0
   -6.3386    6.6260    0.8467 C   0  0  0  0  0  0  0  0  0  0  0  0
   -5.9948    6.9313   -0.5089 C   0  0  0  0  0  0  0  0  0  0  0  0
   -5.7747    5.8779   -1.3529 C   0  0  0  0  0  0  0  0  0  0  0  0
   -5.8737    4.4749   -0.9018 C   0  0  0  0  0  0  0  0  0  0  0  0
   -6.2216    4.2519    0.5126 C   0  0  0  0  0  0  0  0  0  0  0  0
   -6.7282    5.1448    2.3827 H   0  0  0  0  0  0  0  0  0  0  0  0
   -6.5271    7.4605    1.5201 H   0  0  0  0  0  0  0  0  0  0  0  0
   -5.5126    6.0529   -2.3933 H   0  0  0  0  0  0  0  0  0  0  0  0
   -6.5832    3.9015   -1.5253 H   0  0  0  0  0  0  0  0  0  0  0  0
   -6.3035    2.5507    1.1339 S   0  0  0  0  0  0  0  0  0  0  0  0
   -7.0112    2.6587    2.4177 O   0  0  0  0  0  0  0  0  0  0  0  0
   -4.8395    2.2748    1.2206 O   0  0  0  0  0  0  0  0  0  0  0  0
   -6.9898    1.8311    0.0401 O   0  0  0  0  0  0  0  0  0  0  0  0
   -5.8944    8.3708   -0.9471 C   0  0  0  0  0  0  0  0  0  0  0  0
   -6.8480    8.8921   -0.8072 H   0  0  0  0  0  0  0  0  0  0  0  0
   -5.1407    8.9075   -0.3613 H   0  0  0  0  0  0  0  0  0  0  0  0
   -5.6197    8.4465   -2.0015 H   0  0  0  0  0  0  0  0  0  0  0  0
  1  2  1  0  0  0  0
  1 11  2  0  0  0  0
  3  2  1  0  0  0  0
  4  1  1  0  0  0  0
  5  4  2  0  0  0  0
  5  6  1  0  0  0  0
  6 10  2  0  0  0  0
  7  6  1  0  0  0  0
  7  9  2  0  0  0  0
  8  7  2  0  0  0  0
 10 11  1  0  0  0  0
 10 14  1  0  0  0  0
 11 15  1  0  0  0  0
 12 20  1  0  0  0  0
 13  5  1  0  0  0  0
 16 22  1  0  0  0  0
 17 16  1  0  0  0  0
 17 23  1  0  0  0  0
 18 17  1  0  0  0  0
 19 20  1  0  0  0  0
 19 18  2  0  0  0  0
 20 21  1  0  0  0  0
 21 26  1  0  0  0  0
 21 16  2  0  0  0  0
 24 19  1  0  0  0  0
 25 20  1  0  0  0  0
 26 28  2  0  0  0  0
 26 27  1  0  0  0  0
 29 26  2  0  0  0  0
 30 31  1  0  0  0  0
 30 18  1  0  0  0  0
 30 32  1  0  0  0  0
 33 30  1  0  0  0  0
M  RAD  5   2   2   3   3   4   2  17   2  27   2
M  END
