Coordinates from ORCA-job 4-NO2PhN2+~TsO-_B3LYPG-6-31G_dp-CH-Scan-d09-49-n800
 OpenBabel11261919023D

 33 33  0  0  0  0  0  0  0  0999 V2000
   -2.2294    1.1755   -0.3150 C   0  0  0  0  0  0  0  0  0  0  0  0
   -3.4960    0.7199    0.1097 N   0  0  0  0  0  0  0  0  0  0  0  0
   -4.5090    0.3910    0.4350 N   0  0  0  0  0  0  0  0  0  0  0  0
   -2.2673    2.3109   -1.1241 C   0  0  0  0  0  0  0  0  0  0  0  0
   -0.9487    2.6853   -1.5057 C   0  0  0  0  0  0  0  0  0  0  0  0
    0.1695    1.9662   -1.1047 C   0  0  0  0  0  0  0  0  0  0  0  0
    1.5156    2.4089   -1.5491 N   0  0  0  0  0  0  0  0  0  0  0  0
    1.5823    3.3991   -2.2727 O   0  0  0  0  0  0  0  0  0  0  0  0
    2.4853    1.7553   -1.1643 O   0  0  0  0  0  0  0  0  0  0  0  0
    0.1108    0.8226   -0.2831 C   0  0  0  0  0  0  0  0  0  0  0  0
   -1.1310    0.4000    0.1367 C   0  0  0  0  0  0  0  0  0  0  0  0
   -5.2018    4.2877   -1.0974 H   0  0  0  0  0  0  0  0  0  0  0  0
   -0.7823    3.5574   -2.1322 H   0  0  0  0  0  0  0  0  0  0  0  0
    1.0219    0.3121   -0.0026 H   0  0  0  0  0  0  0  0  0  0  0  0
   -1.2534   -0.4707    0.7748 H   0  0  0  0  0  0  0  0  0  0  0  0
   -7.0014    5.6156    1.1802 C   0  0  0  0  0  0  0  0  0  0  0  0
   -6.9116    6.9019    0.6592 C   0  0  0  0  0  0  0  0  0  0  0  0
   -6.4841    7.1972   -0.6754 C   0  0  0  0  0  0  0  0  0  0  0  0
   -6.1530    6.1405   -1.4773 C   0  0  0  0  0  0  0  0  0  0  0  0
   -6.2063    4.7464   -0.9984 C   0  0  0  0  0  0  0  0  0  0  0  0
   -6.6631    4.5306    0.3815 C   0  0  0  0  0  0  0  0  0  0  0  0
   -7.3556    5.4378    2.1897 H   0  0  0  0  0  0  0  0  0  0  0  0
   -7.1912    7.7387    1.2969 H   0  0  0  0  0  0  0  0  0  0  0  0
   -5.8217    6.3086   -2.4988 H   0  0  0  0  0  0  0  0  0  0  0  0
   -6.7850    4.0899   -1.6709 H   0  0  0  0  0  0  0  0  0  0  0  0
   -6.7156    2.8437    1.0385 S   0  0  0  0  0  0  0  0  0  0  0  0
   -7.7805    2.8851    2.0549 O   0  0  0  0  0  0  0  0  0  0  0  0
   -5.3224    2.7877    1.5670 O   0  0  0  0  0  0  0  0  0  0  0  0
   -6.9590    2.0073   -0.1543 O   0  0  0  0  0  0  0  0  0  0  0  0
   -6.4233    8.6313   -1.1380 C   0  0  0  0  0  0  0  0  0  0  0  0
   -7.4066    9.1097   -1.0688 H   0  0  0  0  0  0  0  0  0  0  0  0
   -5.7333    9.2146   -0.5188 H   0  0  0  0  0  0  0  0  0  0  0  0
   -6.0864    8.6998   -2.1747 H   0  0  0  0  0  0  0  0  0  0  0  0
  1  2  1  0  0  0  0
  1 11  2  0  0  0  0
  2  3  1  0  0  0  0
  4  1  1  0  0  0  0
  5  4  2  0  0  0  0
  5  6  1  0  0  0  0
  6 10  2  0  0  0  0
  7  9  2  0  0  0  0
  7  6  1  0  0  0  0
  8  7  2  0  0  0  0
 10 14  1  0  0  0  0
 10 11  1  0  0  0  0
 11 15  1  0  0  0  0
 12 20  1  0  0  0  0
 13  5  1  0  0  0  0
 16 22  1  0  0  0  0
 17 16  1  0  0  0  0
 17 23  1  0  0  0  0
 18 17  1  0  0  0  0
 19 20  1  0  0  0  0
 19 18  2  0  0  0  0
 20 21  1  0  0  0  0
 21 26  1  0  0  0  0
 21 16  2  0  0  0  0
 24 19  1  0  0  0  0
 25 20  1  0  0  0  0
 26 28  2  0  0  0  0
 26 27  1  0  0  0  0
 29 26  2  0  0  0  0
 30 31  1  0  0  0  0
 30 18  1  0  0  0  0
 30 32  1  0  0  0  0
 33 30  1  0  0  0  0
M  RAD  5   2   2   3   3   4   2  17   2  27   2
M  END
