Coordinates from ORCA-job 4-NO2PhN2+~TsO-_B3LYPG-6-31G_dp-CH-Scan-d09-49-n800
 OpenBabel11261919023D

 33 33  0  0  0  0  0  0  0  0999 V2000
   -2.7950    1.0771   -0.2499 C   0  0  0  0  0  0  0  0  0  0  0  0
   -3.8902    0.2747    0.1942 N   0  0  0  0  0  0  0  0  0  0  0  0
   -5.0073    0.6978    0.4157 N   0  0  0  0  0  0  0  0  0  0  0  0
   -2.6715    1.4737   -1.5746 C   0  0  0  0  0  0  0  0  0  0  0  0
   -1.5750    2.1540   -2.0570 C   0  0  0  0  0  0  0  0  0  0  0  0
   -0.5566    2.4365   -1.1410 C   0  0  0  0  0  0  0  0  0  0  0  0
    0.6321    3.1669   -1.6096 N   0  0  0  0  0  0  0  0  0  0  0  0
    0.6632    3.5006   -2.7930 O   0  0  0  0  0  0  0  0  0  0  0  0
    1.5135    3.4052   -0.7856 O   0  0  0  0  0  0  0  0  0  0  0  0
   -0.6278    2.0459    0.1953 C   0  0  0  0  0  0  0  0  0  0  0  0
   -1.7472    1.3488    0.6409 C   0  0  0  0  0  0  0  0  0  0  0  0
   -3.9831    1.0709   -2.6544 H   0  0  0  0  0  0  0  0  0  0  0  0
   -1.4820    2.4677   -3.0878 H   0  0  0  0  0  0  0  0  0  0  0  0
    0.1914    2.2842    0.8618 H   0  0  0  0  0  0  0  0  0  0  0  0
   -1.8222    1.0187    1.6712 H   0  0  0  0  0  0  0  0  0  0  0  0
   -6.0102    5.2385    1.2376 C   0  0  0  0  0  0  0  0  0  0  0  0
   -5.7864    6.5857    0.9655 C   0  0  0  0  0  0  0  0  0  0  0  0
   -5.9412    7.1004   -0.3304 C   0  0  0  0  0  0  0  0  0  0  0  0
   -6.3289    6.2273   -1.3586 C   0  0  0  0  0  0  0  0  0  0  0  0
   -6.5582    4.8771   -1.1093 C   0  0  0  0  0  0  0  0  0  0  0  0
   -6.3909    4.3965    0.1911 C   0  0  0  0  0  0  0  0  0  0  0  0
   -5.9009    4.8421    2.2410 H   0  0  0  0  0  0  0  0  0  0  0  0
   -5.4888    7.2497    1.7721 H   0  0  0  0  0  0  0  0  0  0  0  0
   -6.4564    6.6116   -2.3668 H   0  0  0  0  0  0  0  0  0  0  0  0
   -6.8695    4.2044   -1.9005 H   0  0  0  0  0  0  0  0  0  0  0  0
   -6.6865    2.6755    0.5253 S   0  0  0  0  0  0  0  0  0  0  0  0
   -6.9437    2.4759    1.9461 O   0  0  0  0  0  0  0  0  0  0  0  0
   -5.1003    2.1614    0.2075 O   0  0  0  0  0  0  0  0  0  0  0  0
   -7.5509    2.1047   -0.5000 O   0  0  0  0  0  0  0  0  0  0  0  0
   -5.7267    8.5682   -0.6079 C   0  0  0  0  0  0  0  0  0  0  0  0
   -6.6704    9.1213   -0.5261 H   0  0  0  0  0  0  0  0  0  0  0  0
   -5.0247    9.0125    0.1033 H   0  0  0  0  0  0  0  0  0  0  0  0
   -5.3412    8.7322   -1.6182 H   0  0  0  0  0  0  0  0  0  0  0  0
  1  2  1  0  0  0  0
  1 11  2  0  0  0  0
  2  3  1  0  0  0  0
  4  1  1  0  0  0  0
  5  4  2  0  0  0  0
  5  6  1  0  0  0  0
  6 10  2  0  0  0  0
  7  6  1  0  0  0  0
  7  9  2  0  0  0  0
  8  7  2  0  0  0  0
 10 11  1  0  0  0  0
 10 14  1  0  0  0  0
 11 15  1  0  0  0  0
 13  5  1  0  0  0  0
 16 22  1  0  0  0  0
 17 16  1  0  0  0  0
 17 23  1  0  0  0  0
 18 17  2  0  0  0  0
 19 20  2  0  0  0  0
 19 18  1  0  0  0  0
 20 21  1  0  0  0  0
 21 26  1  0  0  0  0
 21 16  2  0  0  0  0
 24 19  1  0  0  0  0
 25 20  1  0  0  0  0
 26 27  2  0  0  0  0
 28  3  1  0  0  0  0
 28 26  1  0  0  0  0
 29 26  2  0  0  0  0
 30 31  1  0  0  0  0
 30 18  1  0  0  0  0
 30 32  1  0  0  0  0
 33 30  1  0  0  0  0
M  RAD  4   2   2   3   2   4   2  12   2
M  END
