Coordinates from ORCA-job 4-NO2PhN2+~TsO-_B3LYPG-6-31G_dp-CH-Scan-d09-49-n800
 OpenBabel11261919023D

 33 34  0  0  0  0  0  0  0  0999 V2000
   -2.7031    1.1056   -0.1770 C   0  0  0  0  0  0  0  0  0  0  0  0
   -3.8300    0.3780    0.3005 N   0  0  0  0  0  0  0  0  0  0  0  0
   -4.9591    0.7746    0.4735 N   0  0  0  0  0  0  0  0  0  0  0  0
   -2.7175    1.8271   -1.3767 C   0  0  0  0  0  0  0  0  0  0  0  0
   -1.5520    2.4163   -1.8453 C   0  0  0  0  0  0  0  0  0  0  0  0
   -0.3859    2.2831   -1.0910 C   0  0  0  0  0  0  0  0  0  0  0  0
    0.8504    2.9197   -1.5769 N   0  0  0  0  0  0  0  0  0  0  0  0
    0.7879    3.5487   -2.6319 O   0  0  0  0  0  0  0  0  0  0  0  0
    1.8652    2.7817   -0.8963 O   0  0  0  0  0  0  0  0  0  0  0  0
   -0.3477    1.5601    0.0997 C   0  0  0  0  0  0  0  0  0  0  0  0
   -1.5129    0.9463    0.5452 C   0  0  0  0  0  0  0  0  0  0  0  0
   -3.7784    1.9317   -2.0207 H   0  0  0  0  0  0  0  0  0  0  0  0
   -1.5285    2.9772   -2.7705 H   0  0  0  0  0  0  0  0  0  0  0  0
    0.5847    1.4741    0.6428 H   0  0  0  0  0  0  0  0  0  0  0  0
   -1.5178    0.3506    1.4512 H   0  0  0  0  0  0  0  0  0  0  0  0
   -6.0472    5.3129    1.1620 C   0  0  0  0  0  0  0  0  0  0  0  0
   -5.8825    6.6646    0.8727 C   0  0  0  0  0  0  0  0  0  0  0  0
   -6.1337    7.1684   -0.4130 C   0  0  0  0  0  0  0  0  0  0  0  0
   -6.5564    6.2787   -1.4120 C   0  0  0  0  0  0  0  0  0  0  0  0
   -6.7271    4.9224   -1.1442 C   0  0  0  0  0  0  0  0  0  0  0  0
   -6.4650    4.4530    0.1440 C   0  0  0  0  0  0  0  0  0  0  0  0
   -5.8653    4.9259    2.1584 H   0  0  0  0  0  0  0  0  0  0  0  0
   -5.5575    7.3418    1.6576 H   0  0  0  0  0  0  0  0  0  0  0  0
   -6.7597    6.6542   -2.4108 H   0  0  0  0  0  0  0  0  0  0  0  0
   -7.0682    4.2364   -1.9114 H   0  0  0  0  0  0  0  0  0  0  0  0
   -6.6897    2.7239    0.5031 S   0  0  0  0  0  0  0  0  0  0  0  0
   -6.9308    2.5385    1.9294 O   0  0  0  0  0  0  0  0  0  0  0  0
   -5.1070    2.2619    0.1754 O   0  0  0  0  0  0  0  0  0  0  0  0
   -7.5547    2.1169   -0.5029 O   0  0  0  0  0  0  0  0  0  0  0  0
   -5.9844    8.6416   -0.7043 C   0  0  0  0  0  0  0  0  0  0  0  0
   -6.9081    9.1818   -0.4613 H   0  0  0  0  0  0  0  0  0  0  0  0
   -5.1819    9.0883   -0.1103 H   0  0  0  0  0  0  0  0  0  0  0  0
   -5.7697    8.8218   -1.7612 H   0  0  0  0  0  0  0  0  0  0  0  0
  1  2  1  0  0  0  0
  1 11  2  0  0  0  0
  2  3  1  0  0  0  0
  4  1  1  0  0  0  0
  5  4  2  0  0  0  0
  5  6  1  0  0  0  0
  6 10  2  0  0  0  0
  7  6  1  0  0  0  0
  7  9  2  0  0  0  0
  8  7  2  0  0  0  0
 10 11  1  0  0  0  0
 10 14  1  0  0  0  0
 11 15  1  0  0  0  0
 12  4  1  0  0  0  0
 13  5  1  0  0  0  0
 16 22  1  0  0  0  0
 17 16  1  0  0  0  0
 17 23  1  0  0  0  0
 18 17  2  0  0  0  0
 19 20  2  0  0  0  0
 19 18  1  0  0  0  0
 20 21  1  0  0  0  0
 21 26  1  0  0  0  0
 21 16  2  0  0  0  0
 24 19  1  0  0  0  0
 25 20  1  0  0  0  0
 26 27  2  0  0  0  0
 28  3  1  0  0  0  0
 28 26  1  0  0  0  0
 29 26  2  0  0  0  0
 30 31  1  0  0  0  0
 30 18  1  0  0  0  0
 30 32  1  0  0  0  0
 33 30  1  0  0  0  0
M  RAD  2   2   2   3   2
M  END
