Coordinates from ORCA-job 4-NO2PhN2+~TsO-_B3LYPG-6-31G_dp-CH-Scan-d09-49-n800
 OpenBabel11261919033D

 33 33  0  0  0  0  0  0  0  0999 V2000
   -2.8604    0.7419   -0.9773 C   0  0  0  0  0  0  0  0  0  0  0  0
   -3.9091   -0.1739   -0.7398 N   0  0  0  0  0  0  0  0  0  0  0  0
   -4.7181   -0.9327   -0.6412 N   0  0  0  0  0  0  0  0  0  0  0  0
   -2.2194    0.4981   -2.1912 C   0  0  0  0  0  0  0  0  0  0  0  0
   -1.1766    1.4516   -2.3856 C   0  0  0  0  0  0  0  0  0  0  0  0
   -0.8745    2.4149   -1.4320 C   0  0  0  0  0  0  0  0  0  0  0  0
    0.2212    3.3766   -1.6953 N   0  0  0  0  0  0  0  0  0  0  0  0
    1.0053    3.1206   -2.6050 O   0  0  0  0  0  0  0  0  0  0  0  0
    0.2686    4.3895   -0.9926 O   0  0  0  0  0  0  0  0  0  0  0  0
   -1.5801    2.5667   -0.2176 C   0  0  0  0  0  0  0  0  0  0  0  0
   -2.6268    1.7049    0.0371 C   0  0  0  0  0  0  0  0  0  0  0  0
   -4.0592    4.2248   -0.1629 H   0  0  0  0  0  0  0  0  0  0  0  0
   -0.5877    1.4460   -3.2994 H   0  0  0  0  0  0  0  0  0  0  0  0
   -1.2872    3.3377    0.4833 H   0  0  0  0  0  0  0  0  0  0  0  0
   -3.2313    1.7750    0.9378 H   0  0  0  0  0  0  0  0  0  0  0  0
   -6.7882    5.2832    1.1511 C   0  0  0  0  0  0  0  0  0  0  0  0
   -6.6255    6.5950    0.7128 C   0  0  0  0  0  0  0  0  0  0  0  0
   -5.7052    6.9920   -0.3094 C   0  0  0  0  0  0  0  0  0  0  0  0
   -4.9495    6.0097   -0.8875 C   0  0  0  0  0  0  0  0  0  0  0  0
   -5.0543    4.5954   -0.4785 C   0  0  0  0  0  0  0  0  0  0  0  0
   -6.0234    4.2754    0.5824 C   0  0  0  0  0  0  0  0  0  0  0  0
   -7.5127    5.0265    1.9172 H   0  0  0  0  0  0  0  0  0  0  0  0
   -7.2390    7.3705    1.1681 H   0  0  0  0  0  0  0  0  0  0  0  0
   -4.2359    6.2540   -1.6708 H   0  0  0  0  0  0  0  0  0  0  0  0
   -5.2482    3.9345   -1.3422 H   0  0  0  0  0  0  0  0  0  0  0  0
   -6.1480    2.5691    1.1801 S   0  0  0  0  0  0  0  0  0  0  0  0
   -7.4798    2.4887    1.7949 O   0  0  0  0  0  0  0  0  0  0  0  0
   -4.9911    2.5951    2.1192 O   0  0  0  0  0  0  0  0  0  0  0  0
   -5.9238    1.7593   -0.0396 O   0  0  0  0  0  0  0  0  0  0  0  0
   -5.6095    8.4440   -0.7053 C   0  0  0  0  0  0  0  0  0  0  0  0
   -6.5749    8.8183   -1.0625 H   0  0  0  0  0  0  0  0  0  0  0  0
   -5.3154    9.0644    0.1483 H   0  0  0  0  0  0  0  0  0  0  0  0
   -4.8739    8.5908   -1.4991 H   0  0  0  0  0  0  0  0  0  0  0  0
  1  2  1  0  0  0  0
  1 11  2  0  0  0  0
  2  3  1  0  0  0  0
  4  1  1  0  0  0  0
  5  4  2  0  0  0  0
  5  6  1  0  0  0  0
  6 10  2  0  0  0  0
  7  6  1  0  0  0  0
  7  9  2  0  0  0  0
  8  7  2  0  0  0  0
 10 11  1  0  0  0  0
 10 14  1  0  0  0  0
 11 15  1  0  0  0  0
 13  5  1  0  0  0  0
 16 22  1  0  0  0  0
 17 16  1  0  0  0  0
 17 23  1  0  0  0  0
 18 17  1  0  0  0  0
 19 20  1  0  0  0  0
 19 18  2  0  0  0  0
 20 12  1  0  0  0  0
 20 21  1  0  0  0  0
 21 16  2  0  0  0  0
 21 26  1  0  0  0  0
 24 19  1  0  0  0  0
 25 20  1  0  0  0  0
 26 27  2  0  0  0  0
 26 28  1  0  0  0  0
 29 26  2  0  0  0  0
 30 18  1  0  0  0  0
 30 32  1  0  0  0  0
 31 30  1  0  0  0  0
 33 30  1  0  0  0  0
M  RAD  5   2   2   3   3   4   2  17   2  28   2
M  END
