Coordinates from ORCA-job 4-NO2PhN2+~TsO-_B3LYPG-6-31G_dp-CH-Scan-d09-49-n800
 OpenBabel11261919023D

 33 34  0  0  0  0  0  0  0  0999 V2000
   -2.7404    1.1002   -0.1643 C   0  0  0  0  0  0  0  0  0  0  0  0
   -3.8398    0.3436    0.3399 N   0  0  0  0  0  0  0  0  0  0  0  0
   -4.9680    0.7486    0.5184 N   0  0  0  0  0  0  0  0  0  0  0  0
   -2.7365    1.6136   -1.4637 C   0  0  0  0  0  0  0  0  0  0  0  0
   -1.6103    2.2411   -1.9708 C   0  0  0  0  0  0  0  0  0  0  0  0
   -0.4891    2.3510   -1.1465 C   0  0  0  0  0  0  0  0  0  0  0  0
    0.7106    3.0260   -1.6680 N   0  0  0  0  0  0  0  0  0  0  0  0
    0.6585    3.4715   -2.8134 O   0  0  0  0  0  0  0  0  0  0  0  0
    1.6879    3.1024   -0.9253 O   0  0  0  0  0  0  0  0  0  0  0  0
   -0.4639    1.8363    0.1484 C   0  0  0  0  0  0  0  0  0  0  0  0
   -1.5936    1.1862    0.6348 C   0  0  0  0  0  0  0  0  0  0  0  0
   -3.8442    1.4844   -2.2256 H   0  0  0  0  0  0  0  0  0  0  0  0
   -1.5804    2.6473   -2.9730 H   0  0  0  0  0  0  0  0  0  0  0  0
    0.4338    1.9382    0.7449 H   0  0  0  0  0  0  0  0  0  0  0  0
   -1.6014    0.7523    1.6282 H   0  0  0  0  0  0  0  0  0  0  0  0
   -6.0838    5.2613    1.1975 C   0  0  0  0  0  0  0  0  0  0  0  0
   -5.8819    6.6147    0.9408 C   0  0  0  0  0  0  0  0  0  0  0  0
   -6.0291    7.1386   -0.3527 C   0  0  0  0  0  0  0  0  0  0  0  0
   -6.3861    6.2680   -1.3934 C   0  0  0  0  0  0  0  0  0  0  0  0
   -6.5925    4.9109   -1.1589 C   0  0  0  0  0  0  0  0  0  0  0  0
   -6.4338    4.4212    0.1386 C   0  0  0  0  0  0  0  0  0  0  0  0
   -5.9816    4.8584    2.1991 H   0  0  0  0  0  0  0  0  0  0  0  0
   -5.6081    7.2767    1.7574 H   0  0  0  0  0  0  0  0  0  0  0  0
   -6.5083    6.6591   -2.3995 H   0  0  0  0  0  0  0  0  0  0  0  0
   -6.8819    4.2397   -1.9598 H   0  0  0  0  0  0  0  0  0  0  0  0
   -6.7014    2.6911    0.4551 S   0  0  0  0  0  0  0  0  0  0  0  0
   -7.0252    2.4839    1.8613 O   0  0  0  0  0  0  0  0  0  0  0  0
   -5.1009    2.2143    0.2086 O   0  0  0  0  0  0  0  0  0  0  0  0
   -7.5079    2.1072   -0.6108 O   0  0  0  0  0  0  0  0  0  0  0  0
   -5.8396    8.6131   -0.6123 C   0  0  0  0  0  0  0  0  0  0  0  0
   -6.7852    9.1550   -0.4865 H   0  0  0  0  0  0  0  0  0  0  0  0
   -5.1174    9.0528    0.0815 H   0  0  0  0  0  0  0  0  0  0  0  0
   -5.4921    8.7990   -1.6324 H   0  0  0  0  0  0  0  0  0  0  0  0
  1  2  1  0  0  0  0
  1 11  2  0  0  0  0
  2  3  1  0  0  0  0
  4  1  1  0  0  0  0
  5  4  2  0  0  0  0
  5  6  1  0  0  0  0
  6 10  2  0  0  0  0
  7  6  1  0  0  0  0
  7  9  2  0  0  0  0
  8  7  2  0  0  0  0
 10 11  1  0  0  0  0
 10 14  1  0  0  0  0
 11 15  1  0  0  0  0
 12  4  1  0  0  0  0
 13  5  1  0  0  0  0
 16 22  1  0  0  0  0
 17 16  1  0  0  0  0
 17 23  1  0  0  0  0
 18 17  2  0  0  0  0
 19 20  2  0  0  0  0
 19 18  1  0  0  0  0
 20 21  1  0  0  0  0
 21 26  1  0  0  0  0
 21 16  2  0  0  0  0
 24 19  1  0  0  0  0
 25 20  1  0  0  0  0
 26 27  2  0  0  0  0
 28 26  1  0  0  0  0
 28  3  1  0  0  0  0
 29 26  2  0  0  0  0
 30 31  1  0  0  0  0
 30 18  1  0  0  0  0
 30 32  1  0  0  0  0
 33 30  1  0  0  0  0
M  RAD  2   2   2   3   2
M  END
