Coordinates from ORCA-job 4-NO2PhN2+~TsO-_B3LYPG-6-31G_dp-CH-Scan-d09-49-n800
 OpenBabel11261919023D

 33 34  0  0  0  0  0  0  0  0999 V2000
   -2.7468    1.0974   -0.1715 C   0  0  0  0  0  0  0  0  0  0  0  0
   -3.8445    0.3356    0.3288 N   0  0  0  0  0  0  0  0  0  0  0  0
   -4.9717    0.7423    0.5113 N   0  0  0  0  0  0  0  0  0  0  0  0
   -2.7307    1.5894   -1.4780 C   0  0  0  0  0  0  0  0  0  0  0  0
   -1.6091    2.2236   -1.9847 C   0  0  0  0  0  0  0  0  0  0  0  0
   -0.4994    2.3614   -1.1486 C   0  0  0  0  0  0  0  0  0  0  0  0
    0.6977    3.0433   -1.6669 N   0  0  0  0  0  0  0  0  0  0  0  0
    0.6544    3.4677   -2.8207 O   0  0  0  0  0  0  0  0  0  0  0  0
    1.6642    3.1464   -0.9133 O   0  0  0  0  0  0  0  0  0  0  0  0
   -0.4837    1.8687    0.1550 C   0  0  0  0  0  0  0  0  0  0  0  0
   -1.6108    1.2125    0.6395 C   0  0  0  0  0  0  0  0  0  0  0  0
   -3.8642    1.4259   -2.2757 H   0  0  0  0  0  0  0  0  0  0  0  0
   -1.5731    2.6134   -2.9931 H   0  0  0  0  0  0  0  0  0  0  0  0
    0.4053    1.9924    0.7604 H   0  0  0  0  0  0  0  0  0  0  0  0
   -1.6248    0.7961    1.6404 H   0  0  0  0  0  0  0  0  0  0  0  0
   -6.0791    5.2570    1.2026 C   0  0  0  0  0  0  0  0  0  0  0  0
   -5.8736    6.6100    0.9463 C   0  0  0  0  0  0  0  0  0  0  0  0
   -6.0167    7.1341   -0.3475 C   0  0  0  0  0  0  0  0  0  0  0  0
   -6.3732    6.2642   -1.3890 C   0  0  0  0  0  0  0  0  0  0  0  0
   -6.5831    4.9077   -1.1551 C   0  0  0  0  0  0  0  0  0  0  0  0
   -6.4284    4.4177    0.1430 C   0  0  0  0  0  0  0  0  0  0  0  0
   -5.9800    4.8540    2.2045 H   0  0  0  0  0  0  0  0  0  0  0  0
   -5.6002    7.2714    1.7635 H   0  0  0  0  0  0  0  0  0  0  0  0
   -6.4920    6.6556   -2.3955 H   0  0  0  0  0  0  0  0  0  0  0  0
   -6.8719    4.2370   -1.9566 H   0  0  0  0  0  0  0  0  0  0  0  0
   -6.7004    2.6883    0.4587 S   0  0  0  0  0  0  0  0  0  0  0  0
   -7.0230    2.4808    1.8651 O   0  0  0  0  0  0  0  0  0  0  0  0
   -5.1003    2.2077    0.2105 O   0  0  0  0  0  0  0  0  0  0  0  0
   -7.5088    2.1066   -0.6068 O   0  0  0  0  0  0  0  0  0  0  0  0
   -5.8233    8.6081   -0.6069 C   0  0  0  0  0  0  0  0  0  0  0  0
   -6.7693    9.1512   -0.4902 H   0  0  0  0  0  0  0  0  0  0  0  0
   -5.1067    9.0478    0.0927 H   0  0  0  0  0  0  0  0  0  0  0  0
   -5.4666    8.7925   -1.6242 H   0  0  0  0  0  0  0  0  0  0  0  0
  1  2  1  0  0  0  0
  1 11  2  0  0  0  0
  2  3  1  0  0  0  0
  4  1  1  0  0  0  0
  5  4  2  0  0  0  0
  5  6  1  0  0  0  0
  6 10  2  0  0  0  0
  7  6  1  0  0  0  0
  7  9  2  0  0  0  0
  8  7  2  0  0  0  0
 10 11  1  0  0  0  0
 10 14  1  0  0  0  0
 11 15  1  0  0  0  0
 12  4  1  0  0  0  0
 13  5  1  0  0  0  0
 16 22  1  0  0  0  0
 17 16  1  0  0  0  0
 17 23  1  0  0  0  0
 18 17  2  0  0  0  0
 19 20  2  0  0  0  0
 19 18  1  0  0  0  0
 20 21  1  0  0  0  0
 21 26  1  0  0  0  0
 21 16  2  0  0  0  0
 24 19  1  0  0  0  0
 25 20  1  0  0  0  0
 26 27  2  0  0  0  0
 28 26  1  0  0  0  0
 28  3  1  0  0  0  0
 29 26  2  0  0  0  0
 30 31  1  0  0  0  0
 30 18  1  0  0  0  0
 30 32  1  0  0  0  0
 33 30  1  0  0  0  0
M  RAD  2   2   2   3   2
M  END
