Coordinates from ORCA-job 4-NO2PhN2+~TsO-_B3LYPG-6-31G_dp-CH-Scan-d09-49-n800
 OpenBabel11261919023D

 33 33  0  0  0  0  0  0  0  0999 V2000
   -2.8049    1.0745   -0.2747 C   0  0  0  0  0  0  0  0  0  0  0  0
   -3.9024    0.2626    0.1470 N   0  0  0  0  0  0  0  0  0  0  0  0
   -5.0156    0.6905    0.3828 N   0  0  0  0  0  0  0  0  0  0  0  0
   -2.6458    1.4685   -1.5924 C   0  0  0  0  0  0  0  0  0  0  0  0
   -1.5561    2.1580   -2.0671 C   0  0  0  0  0  0  0  0  0  0  0  0
   -0.5595    2.4549   -1.1299 C   0  0  0  0  0  0  0  0  0  0  0  0
    0.6317    3.1948   -1.5781 N   0  0  0  0  0  0  0  0  0  0  0  0
    0.6855    3.5188   -2.7632 O   0  0  0  0  0  0  0  0  0  0  0  0
    1.4951    3.4420   -0.7380 O   0  0  0  0  0  0  0  0  0  0  0  0
   -0.6557    2.0708    0.2069 C   0  0  0  0  0  0  0  0  0  0  0  0
   -1.7773    1.3660    0.6351 C   0  0  0  0  0  0  0  0  0  0  0  0
   -4.0828    0.9907   -2.8149 H   0  0  0  0  0  0  0  0  0  0  0  0
   -1.4475    2.4666   -3.0979 H   0  0  0  0  0  0  0  0  0  0  0  0
    0.1467    2.3216    0.8889 H   0  0  0  0  0  0  0  0  0  0  0  0
   -1.8705    1.0435    1.6667 H   0  0  0  0  0  0  0  0  0  0  0  0
   -5.9874    5.2403    1.2482 C   0  0  0  0  0  0  0  0  0  0  0  0
   -5.7632    6.5855    0.9659 C   0  0  0  0  0  0  0  0  0  0  0  0
   -5.9294    7.0928   -0.3315 C   0  0  0  0  0  0  0  0  0  0  0  0
   -6.3291    6.2144   -1.3509 C   0  0  0  0  0  0  0  0  0  0  0  0
   -6.5593    4.8664   -1.0913 C   0  0  0  0  0  0  0  0  0  0  0  0
   -6.3805    4.3933    0.2105 C   0  0  0  0  0  0  0  0  0  0  0  0
   -5.8690    4.8495    2.2527 H   0  0  0  0  0  0  0  0  0  0  0  0
   -5.4563    7.2536    1.7654 H   0  0  0  0  0  0  0  0  0  0  0  0
   -6.4652    6.5929   -2.3601 H   0  0  0  0  0  0  0  0  0  0  0  0
   -6.8793    4.1898   -1.8757 H   0  0  0  0  0  0  0  0  0  0  0  0
   -6.6778    2.6755    0.5574 S   0  0  0  0  0  0  0  0  0  0  0  0
   -6.9041    2.4815    1.9841 O   0  0  0  0  0  0  0  0  0  0  0  0
   -5.0976    2.1528    0.2091 O   0  0  0  0  0  0  0  0  0  0  0  0
   -7.5648    2.1039   -0.4475 O   0  0  0  0  0  0  0  0  0  0  0  0
   -5.7140    8.5581   -0.6206 C   0  0  0  0  0  0  0  0  0  0  0  0
   -6.6596    9.1102   -0.5556 H   0  0  0  0  0  0  0  0  0  0  0  0
   -5.0211    9.0105    0.0943 H   0  0  0  0  0  0  0  0  0  0  0  0
   -5.3169    8.7128   -1.6280 H   0  0  0  0  0  0  0  0  0  0  0  0
  1  2  1  0  0  0  0
  1 11  2  0  0  0  0
  2  3  1  0  0  0  0
  4  1  1  0  0  0  0
  5  4  2  0  0  0  0
  5  6  1  0  0  0  0
  6 10  2  0  0  0  0
  7  6  1  0  0  0  0
  7  9  2  0  0  0  0
  8  7  2  0  0  0  0
 10 11  1  0  0  0  0
 10 14  1  0  0  0  0
 11 15  1  0  0  0  0
 13  5  1  0  0  0  0
 16 22  1  0  0  0  0
 17 16  1  0  0  0  0
 17 23  1  0  0  0  0
 18 17  2  0  0  0  0
 19 20  2  0  0  0  0
 19 18  1  0  0  0  0
 20 21  1  0  0  0  0
 21 26  1  0  0  0  0
 21 16  2  0  0  0  0
 24 19  1  0  0  0  0
 25 20  1  0  0  0  0
 26 27  2  0  0  0  0
 28  3  1  0  0  0  0
 28 26  1  0  0  0  0
 29 26  2  0  0  0  0
 30 31  1  0  0  0  0
 30 18  1  0  0  0  0
 30 32  1  0  0  0  0
 33 30  1  0  0  0  0
M  RAD  4   2   2   3   2   4   2  12   2
M  END
