Coordinates from ORCA-job 4-NO2PhN2+~TsO-_B3LYPG-6-31G_dp-CH-Scan-d09-49-n800
 OpenBabel11261919023D

 33 34  0  0  0  0  0  0  0  0999 V2000
   -2.7222    1.1037   -0.1629 C   0  0  0  0  0  0  0  0  0  0  0  0
   -3.8326    0.3616    0.3350 N   0  0  0  0  0  0  0  0  0  0  0  0
   -4.9617    0.7628    0.5091 N   0  0  0  0  0  0  0  0  0  0  0  0
   -2.7338    1.7067   -1.4246 C   0  0  0  0  0  0  0  0  0  0  0  0
   -1.5909    2.3151   -1.9200 C   0  0  0  0  0  0  0  0  0  0  0  0
   -0.4433    2.3176   -1.1257 C   0  0  0  0  0  0  0  0  0  0  0  0
    0.7718    2.9731   -1.6375 N   0  0  0  0  0  0  0  0  0  0  0  0
    0.7063    3.5046   -2.7448 O   0  0  0  0  0  0  0  0  0  0  0  0
    1.7690    2.9621   -0.9179 O   0  0  0  0  0  0  0  0  0  0  0  0
   -0.4052    1.7132    0.1294 C   0  0  0  0  0  0  0  0  0  0  0  0
   -1.5496    1.0807    0.6030 C   0  0  0  0  0  0  0  0  0  0  0  0
   -3.8290    1.6856   -2.1349 H   0  0  0  0  0  0  0  0  0  0  0  0
   -1.5691    2.7874   -2.8932 H   0  0  0  0  0  0  0  0  0  0  0  0
    0.5130    1.7322    0.7027 H   0  0  0  0  0  0  0  0  0  0  0  0
   -1.5503    0.5763    1.5627 H   0  0  0  0  0  0  0  0  0  0  0  0
   -6.0746    5.2831    1.1826 C   0  0  0  0  0  0  0  0  0  0  0  0
   -5.8887    6.6364    0.9138 C   0  0  0  0  0  0  0  0  0  0  0  0
   -6.0752    7.1528   -0.3777 C   0  0  0  0  0  0  0  0  0  0  0  0
   -6.4548    6.2746   -1.4038 C   0  0  0  0  0  0  0  0  0  0  0  0
   -6.6457    4.9173   -1.1570 C   0  0  0  0  0  0  0  0  0  0  0  0
   -6.4480    4.4351    0.1380 C   0  0  0  0  0  0  0  0  0  0  0  0
   -5.9425    4.8862    2.1831 H   0  0  0  0  0  0  0  0  0  0  0  0
   -5.5973    7.3044    1.7194 H   0  0  0  0  0  0  0  0  0  0  0  0
   -6.6076    6.6599   -2.4080 H   0  0  0  0  0  0  0  0  0  0  0  0
   -6.9531    4.2402   -1.9460 H   0  0  0  0  0  0  0  0  0  0  0  0
   -6.6975    2.7048    0.4704 S   0  0  0  0  0  0  0  0  0  0  0  0
   -6.9944    2.5055    1.8839 O   0  0  0  0  0  0  0  0  0  0  0  0
   -5.1020    2.2362    0.1979 O   0  0  0  0  0  0  0  0  0  0  0  0
   -7.5226    2.1108   -0.5758 O   0  0  0  0  0  0  0  0  0  0  0  0
   -5.9032    8.6274   -0.6490 C   0  0  0  0  0  0  0  0  0  0  0  0
   -6.8427    9.1671   -0.4762 H   0  0  0  0  0  0  0  0  0  0  0  0
   -5.1485    9.0704    0.0073 H   0  0  0  0  0  0  0  0  0  0  0  0
   -5.6076    8.8127   -1.6853 H   0  0  0  0  0  0  0  0  0  0  0  0
  1  2  1  0  0  0  0
  1 11  2  0  0  0  0
  2  3  1  0  0  0  0
  4  1  1  0  0  0  0
  5  4  2  0  0  0  0
  5  6  1  0  0  0  0
  6 10  2  0  0  0  0
  7  6  1  0  0  0  0
  7  9  2  0  0  0  0
  8  7  2  0  0  0  0
 10 11  1  0  0  0  0
 10 14  1  0  0  0  0
 11 15  1  0  0  0  0
 12  4  1  0  0  0  0
 13  5  1  0  0  0  0
 16 22  1  0  0  0  0
 17 16  1  0  0  0  0
 17 23  1  0  0  0  0
 18 17  2  0  0  0  0
 19 20  2  0  0  0  0
 19 18  1  0  0  0  0
 20 21  1  0  0  0  0
 21 26  1  0  0  0  0
 21 16  2  0  0  0  0
 24 19  1  0  0  0  0
 25 20  1  0  0  0  0
 26 27  2  0  0  0  0
 28 26  1  0  0  0  0
 28  3  1  0  0  0  0
 29 26  2  0  0  0  0
 30 31  1  0  0  0  0
 30 18  1  0  0  0  0
 30 32  1  0  0  0  0
 33 30  1  0  0  0  0
M  RAD  2   2   2   3   2
M  END
