Coordinates from ORCA-job 4-NO2PhN2+~TsO-_B3LYPG-6-31G_dp-CH-Scan-d09-49-n800
 OpenBabel11261919023D

 33 34  0  0  0  0  0  0  0  0999 V2000
   -2.5885    1.1401   -0.1363 C   0  0  0  0  0  0  0  0  0  0  0  0
   -3.7555    0.5017    0.3509 N   0  0  0  0  0  0  0  0  0  0  0  0
   -4.8788    0.8712    0.5559 N   0  0  0  0  0  0  0  0  0  0  0  0
   -2.5546    2.3490   -0.8571 C   0  0  0  0  0  0  0  0  0  0  0  0
   -1.3254    2.8256   -1.3037 C   0  0  0  0  0  0  0  0  0  0  0  0
   -0.1658    2.1077   -1.0197 C   0  0  0  0  0  0  0  0  0  0  0  0
    1.1307    2.6347   -1.4911 N   0  0  0  0  0  0  0  0  0  0  0  0
    1.1183    3.6944   -2.1134 O   0  0  0  0  0  0  0  0  0  0  0  0
    2.1369    1.9827   -1.2220 O   0  0  0  0  0  0  0  0  0  0  0  0
   -0.1844    0.9077   -0.3125 C   0  0  0  0  0  0  0  0  0  0  0  0
   -1.4110    0.4181    0.1171 C   0  0  0  0  0  0  0  0  0  0  0  0
   -3.3797    2.8439   -1.0440 H   0  0  0  0  0  0  0  0  0  0  0  0
   -1.2535    3.7500   -1.8627 H   0  0  0  0  0  0  0  0  0  0  0  0
    0.7418    0.3811   -0.1223 H   0  0  0  0  0  0  0  0  0  0  0  0
   -1.4816   -0.5204    0.6548 H   0  0  0  0  0  0  0  0  0  0  0  0
   -6.1114    5.4737    1.1064 C   0  0  0  0  0  0  0  0  0  0  0  0
   -6.0327    6.8145    0.7379 C   0  0  0  0  0  0  0  0  0  0  0  0
   -6.3812    7.2339   -0.5552 C   0  0  0  0  0  0  0  0  0  0  0  0
   -6.8121    6.2707   -1.4798 C   0  0  0  0  0  0  0  0  0  0  0  0
   -6.8976    4.9246   -1.1315 C   0  0  0  0  0  0  0  0  0  0  0  0
   -6.5409    4.5390    0.1621 C   0  0  0  0  0  0  0  0  0  0  0  0
   -5.8561    5.1509    2.1095 H   0  0  0  0  0  0  0  0  0  0  0  0
   -5.7007    7.5490    1.4665 H   0  0  0  0  0  0  0  0  0  0  0  0
   -7.0901    6.5804   -2.4834 H   0  0  0  0  0  0  0  0  0  0  0  0
   -7.2458    4.1812   -1.8400 H   0  0  0  0  0  0  0  0  0  0  0  0
   -6.6553    2.8199    0.6229 S   0  0  0  0  0  0  0  0  0  0  0  0
   -6.8019    2.7087    2.0713 O   0  0  0  0  0  0  0  0  0  0  0  0
   -5.0976    2.4092    0.2197 O   0  0  0  0  0  0  0  0  0  0  0  0
   -7.5681    2.1308   -0.2846 O   0  0  0  0  0  0  0  0  0  0  0  0
   -6.3271    8.6944   -0.9322 C   0  0  0  0  0  0  0  0  0  0  0  0
   -7.2796    9.1906   -0.7062 H   0  0  0  0  0  0  0  0  0  0  0  0
   -5.5465    9.2231   -0.3782 H   0  0  0  0  0  0  0  0  0  0  0  0
   -6.1381    8.8259   -2.0015 H   0  0  0  0  0  0  0  0  0  0  0  0
  1 11  1  0  0  0  0
  1  2  1  0  0  0  0
  2  3  1  0  0  0  0
  4  1  2  0  0  0  0
  5  6  2  0  0  0  0
  5  4  1  0  0  0  0
  6 10  1  0  0  0  0
  7  9  2  0  0  0  0
  7  6  1  0  0  0  0
  8  7  2  0  0  0  0
 10 14  1  0  0  0  0
 10 11  2  0  0  0  0
 11 15  1  0  0  0  0
 12  4  1  0  0  0  0
 13  5  1  0  0  0  0
 16 22  1  0  0  0  0
 17 16  1  0  0  0  0
 17 23  1  0  0  0  0
 18 17  2  0  0  0  0
 19 20  2  0  0  0  0
 19 18  1  0  0  0  0
 20 21  1  0  0  0  0
 21 26  1  0  0  0  0
 21 16  2  0  0  0  0
 24 19  1  0  0  0  0
 25 20  1  0  0  0  0
 26 27  2  0  0  0  0
 28  3  1  0  0  0  0
 28 26  1  0  0  0  0
 29 26  2  0  0  0  0
 30 31  1  0  0  0  0
 30 18  1  0  0  0  0
 30 32  1  0  0  0  0
 33 30  1  0  0  0  0
M  RAD  2   2   2   3   2
M  END
