Coordinates from ORCA-job 4-NO2PhN2+~TsO-_B3LYPG-6-31G_dp-CH-Scan-d09-49-n800
 OpenBabel11261919023D

 33 33  0  0  0  0  0  0  0  0999 V2000
   -2.7880    1.0803   -0.2339 C   0  0  0  0  0  0  0  0  0  0  0  0
   -3.8820    0.2839    0.2231 N   0  0  0  0  0  0  0  0  0  0  0  0
   -5.0016    0.7035    0.4353 N   0  0  0  0  0  0  0  0  0  0  0  0
   -2.6855    1.4839   -1.5601 C   0  0  0  0  0  0  0  0  0  0  0  0
   -1.5854    2.1582   -2.0479 C   0  0  0  0  0  0  0  0  0  0  0  0
   -0.5525    2.4266   -1.1451 C   0  0  0  0  0  0  0  0  0  0  0  0
    0.6354    3.1508   -1.6252 N   0  0  0  0  0  0  0  0  0  0  0  0
    0.6549    3.4882   -2.8078 O   0  0  0  0  0  0  0  0  0  0  0  0
    1.5318    3.3734   -0.8129 O   0  0  0  0  0  0  0  0  0  0  0  0
   -0.6076    2.0274    0.1893 C   0  0  0  0  0  0  0  0  0  0  0  0
   -1.7262    1.3353    0.6445 C   0  0  0  0  0  0  0  0  0  0  0  0
   -3.9443    1.1215   -2.5731 H   0  0  0  0  0  0  0  0  0  0  0  0
   -1.5027    2.4783   -3.0776 H   0  0  0  0  0  0  0  0  0  0  0  0
    0.2227    2.2541    0.8460 H   0  0  0  0  0  0  0  0  0  0  0  0
   -1.7896    0.9970    1.6728 H   0  0  0  0  0  0  0  0  0  0  0  0
   -6.0230    5.2378    1.2307 C   0  0  0  0  0  0  0  0  0  0  0  0
   -5.8001    6.5862    0.9640 C   0  0  0  0  0  0  0  0  0  0  0  0
   -5.9499    7.1049   -0.3310 C   0  0  0  0  0  0  0  0  0  0  0  0
   -6.3316    6.2346   -1.3636 C   0  0  0  0  0  0  0  0  0  0  0  0
   -6.5598    4.8831   -1.1196 C   0  0  0  0  0  0  0  0  0  0  0  0
   -6.3976    4.3985    0.1798 C   0  0  0  0  0  0  0  0  0  0  0  0
   -5.9177    4.8385    2.2333 H   0  0  0  0  0  0  0  0  0  0  0  0
   -5.5071    7.2480    1.7741 H   0  0  0  0  0  0  0  0  0  0  0  0
   -6.4554    6.6219   -2.3711 H   0  0  0  0  0  0  0  0  0  0  0  0
   -6.8667    4.2125   -1.9143 H   0  0  0  0  0  0  0  0  0  0  0  0
   -6.6913    2.6757    0.5075 S   0  0  0  0  0  0  0  0  0  0  0  0
   -6.9646    2.4731    1.9248 O   0  0  0  0  0  0  0  0  0  0  0  0
   -5.1020    2.1671    0.2059 O   0  0  0  0  0  0  0  0  0  0  0  0
   -7.5433    2.1049   -0.5286 O   0  0  0  0  0  0  0  0  0  0  0  0
   -5.7365    8.5740   -0.6023 C   0  0  0  0  0  0  0  0  0  0  0  0
   -6.6795    9.1270   -0.5124 H   0  0  0  0  0  0  0  0  0  0  0  0
   -5.0304    9.0145    0.1072 H   0  0  0  0  0  0  0  0  0  0  0  0
   -5.3565    8.7431   -1.6139 H   0  0  0  0  0  0  0  0  0  0  0  0
  1  2  1  0  0  0  0
  1 11  2  0  0  0  0
  2  3  1  0  0  0  0
  4  1  1  0  0  0  0
  5  4  2  0  0  0  0
  5  6  1  0  0  0  0
  6 10  2  0  0  0  0
  7  6  1  0  0  0  0
  7  9  2  0  0  0  0
  8  7  2  0  0  0  0
 10 11  1  0  0  0  0
 10 14  1  0  0  0  0
 11 15  1  0  0  0  0
 13  5  1  0  0  0  0
 16 22  1  0  0  0  0
 17 16  1  0  0  0  0
 17 23  1  0  0  0  0
 18 17  2  0  0  0  0
 19 20  2  0  0  0  0
 19 18  1  0  0  0  0
 20 21  1  0  0  0  0
 21 26  1  0  0  0  0
 21 16  2  0  0  0  0
 24 19  1  0  0  0  0
 25 20  1  0  0  0  0
 26 27  2  0  0  0  0
 28  3  1  0  0  0  0
 28 26  1  0  0  0  0
 29 26  2  0  0  0  0
 30 31  1  0  0  0  0
 30 18  1  0  0  0  0
 30 32  1  0  0  0  0
 33 30  1  0  0  0  0
M  RAD  4   2   2   3   2   4   2  12   2
M  END
