Coordinates from ORCA-job 4-NO2PhN2+~TsO-_B3LYPG-6-31G_dp-CH-Scan-d09-49-n800
 OpenBabel11261919023D

 33 33  0  0  0  0  0  0  0  0999 V2000
   -2.7616    1.0990   -0.2057 C   0  0  0  0  0  0  0  0  0  0  0  0
   -3.8607    0.2842    0.2073 N   0  0  0  0  0  0  0  0  0  0  0  0
   -4.9684    0.7183    0.4819 N   0  0  0  0  0  0  0  0  0  0  0  0
   -2.7225    1.8677   -1.3457 C   0  0  0  0  0  0  0  0  0  0  0  0
   -1.6646    2.5801   -1.8273 C   0  0  0  0  0  0  0  0  0  0  0  0
   -0.4970    2.4854   -1.0516 C   0  0  0  0  0  0  0  0  0  0  0  0
    0.7012    3.2220   -1.4959 N   0  0  0  0  0  0  0  0  0  0  0  0
    0.6074    3.8871   -2.5250 O   0  0  0  0  0  0  0  0  0  0  0  0
    1.7124    3.1221   -0.8044 O   0  0  0  0  0  0  0  0  0  0  0  0
   -0.4343    1.7147    0.1088 C   0  0  0  0  0  0  0  0  0  0  0  0
   -1.5593    1.0075    0.5227 C   0  0  0  0  0  0  0  0  0  0  0  0
   -5.1574    1.9011   -3.0593 H   0  0  0  0  0  0  0  0  0  0  0  0
   -1.6778    3.1759   -2.7318 H   0  0  0  0  0  0  0  0  0  0  0  0
    0.4940    1.6697    0.6637 H   0  0  0  0  0  0  0  0  0  0  0  0
   -1.5353    0.3877    1.4142 H   0  0  0  0  0  0  0  0  0  0  0  0
   -6.1683    5.3233    1.2695 C   0  0  0  0  0  0  0  0  0  0  0  0
   -5.9634    6.6526    0.9062 C   0  0  0  0  0  0  0  0  0  0  0  0
   -5.9527    7.0436   -0.4407 C   0  0  0  0  0  0  0  0  0  0  0  0
   -6.1509    6.0644   -1.4272 C   0  0  0  0  0  0  0  0  0  0  0  0
   -6.3614    4.7313   -1.0884 C   0  0  0  0  0  0  0  0  0  0  0  0
   -6.3642    4.3766    0.2634 C   0  0  0  0  0  0  0  0  0  0  0  0
   -6.1835    5.0192    2.3103 H   0  0  0  0  0  0  0  0  0  0  0  0
   -5.8099    7.3985    1.6811 H   0  0  0  0  0  0  0  0  0  0  0  0
   -6.1422    6.3517   -2.4752 H   0  0  0  0  0  0  0  0  0  0  0  0
   -6.5172    3.9767   -1.8519 H   0  0  0  0  0  0  0  0  0  0  0  0
   -6.6459    2.6812    0.7116 S   0  0  0  0  0  0  0  0  0  0  0  0
   -6.8791    2.5689    2.1455 O   0  0  0  0  0  0  0  0  0  0  0  0
   -5.0428    2.1636    0.4046 O   0  0  0  0  0  0  0  0  0  0  0  0
   -7.5071    2.0290   -0.2638 O   0  0  0  0  0  0  0  0  0  0  0  0
   -5.7615    8.4906   -0.8235 C   0  0  0  0  0  0  0  0  0  0  0  0
   -6.7299    8.9899   -0.9487 H   0  0  0  0  0  0  0  0  0  0  0  0
   -5.2076    9.0393   -0.0566 H   0  0  0  0  0  0  0  0  0  0  0  0
   -5.2221    8.5851   -1.7704 H   0  0  0  0  0  0  0  0  0  0  0  0
  1  2  1  0  0  0  0
  1 11  2  0  0  0  0
  2  3  1  0  0  0  0
  4  1  1  0  0  0  0
  5  4  2  0  0  0  0
  5  6  1  0  0  0  0
  6 10  2  0  0  0  0
  7  6  1  0  0  0  0
  7  9  2  0  0  0  0
  8  7  2  0  0  0  0
 10 11  1  0  0  0  0
 10 14  1  0  0  0  0
 11 15  1  0  0  0  0
 13  5  1  0  0  0  0
 16 22  1  0  0  0  0
 17 16  1  0  0  0  0
 17 23  1  0  0  0  0
 18 17  2  0  0  0  0
 19 20  2  0  0  0  0
 19 18  1  0  0  0  0
 20 21  1  0  0  0  0
 21 26  1  0  0  0  0
 21 16  2  0  0  0  0
 24 19  1  0  0  0  0
 25 20  1  0  0  0  0
 26 27  2  0  0  0  0
 28  3  1  0  0  0  0
 28 26  1  0  0  0  0
 29 26  2  0  0  0  0
 30 18  1  0  0  0  0
 30 32  1  0  0  0  0
 31 30  1  0  0  0  0
 33 30  1  0  0  0  0
M  RAD  4   2   2   3   2   4   2  12   2
M  END
