Coordinates from ORCA-job 4-NO2PhN2+~TsO-_B3LYPG-6-31G_dp-CH-Scan-d09-49-n800
 OpenBabel11261919023D

 33 33  0  0  0  0  0  0  0  0999 V2000
   -2.7687    1.0886   -0.2004 C   0  0  0  0  0  0  0  0  0  0  0  0
   -3.8630    0.3080    0.2804 N   0  0  0  0  0  0  0  0  0  0  0  0
   -4.9870    0.7211    0.4761 N   0  0  0  0  0  0  0  0  0  0  0  0
   -2.7111    1.5272   -1.5215 C   0  0  0  0  0  0  0  0  0  0  0  0
   -1.6019    2.1835   -2.0206 C   0  0  0  0  0  0  0  0  0  0  0  0
   -0.5309    2.3973   -1.1493 C   0  0  0  0  0  0  0  0  0  0  0  0
    0.6595    3.1023   -1.6510 N   0  0  0  0  0  0  0  0  0  0  0  0
    0.6479    3.4721   -2.8242 O   0  0  0  0  0  0  0  0  0  0  0  0
    1.5897    3.2771   -0.8655 O   0  0  0  0  0  0  0  0  0  0  0  0
   -0.5493    1.9601    0.1740 C   0  0  0  0  0  0  0  0  0  0  0  0
   -1.6700    1.2839    0.6465 C   0  0  0  0  0  0  0  0  0  0  0  0
   -3.9060    1.2604   -2.4237 H   0  0  0  0  0  0  0  0  0  0  0  0
   -1.5435    2.5320   -3.0428 H   0  0  0  0  0  0  0  0  0  0  0  0
    0.3100    2.1436    0.8066 H   0  0  0  0  0  0  0  0  0  0  0  0
   -1.7073    0.9131    1.6647 H   0  0  0  0  0  0  0  0  0  0  0  0
   -6.0531    5.2443    1.2170 C   0  0  0  0  0  0  0  0  0  0  0  0
   -5.8367    6.5951    0.9576 C   0  0  0  0  0  0  0  0  0  0  0  0
   -5.9783    7.1179   -0.3367 C   0  0  0  0  0  0  0  0  0  0  0  0
   -6.3448    6.2492   -1.3760 C   0  0  0  0  0  0  0  0  0  0  0  0
   -6.5659    4.8950   -1.1392 C   0  0  0  0  0  0  0  0  0  0  0  0
   -6.4122    4.4063    0.1596 C   0  0  0  0  0  0  0  0  0  0  0  0
   -5.9546    4.8420    2.2192 H   0  0  0  0  0  0  0  0  0  0  0  0
   -5.5556    7.2556    1.7729 H   0  0  0  0  0  0  0  0  0  0  0  0
   -6.4623    6.6396   -2.3830 H   0  0  0  0  0  0  0  0  0  0  0  0
   -6.8616    4.2254   -1.9390 H   0  0  0  0  0  0  0  0  0  0  0  0
   -6.6973    2.6801    0.4786 S   0  0  0  0  0  0  0  0  0  0  0  0
   -7.0006    2.4739    1.8893 O   0  0  0  0  0  0  0  0  0  0  0  0
   -5.1015    2.1849    0.2088 O   0  0  0  0  0  0  0  0  0  0  0  0
   -7.5240    2.1050   -0.5760 O   0  0  0  0  0  0  0  0  0  0  0  0
   -5.7726    8.5895   -0.5999 C   0  0  0  0  0  0  0  0  0  0  0  0
   -6.7170    9.1385   -0.4992 H   0  0  0  0  0  0  0  0  0  0  0  0
   -5.0631    9.0281    0.1075 H   0  0  0  0  0  0  0  0  0  0  0  0
   -5.4007    8.7670   -1.6130 H   0  0  0  0  0  0  0  0  0  0  0  0
  1  2  1  0  0  0  0
  1 11  2  0  0  0  0
  2  3  1  0  0  0  0
  4  1  1  0  0  0  0
  5  4  2  0  0  0  0
  5  6  1  0  0  0  0
  6 10  2  0  0  0  0
  7  6  1  0  0  0  0
  7  9  2  0  0  0  0
  8  7  2  0  0  0  0
 10 11  1  0  0  0  0
 10 14  1  0  0  0  0
 11 15  1  0  0  0  0
 13  5  1  0  0  0  0
 16 22  1  0  0  0  0
 17 16  1  0  0  0  0
 17 23  1  0  0  0  0
 18 17  2  0  0  0  0
 19 20  2  0  0  0  0
 19 18  1  0  0  0  0
 20 21  1  0  0  0  0
 21 26  1  0  0  0  0
 21 16  2  0  0  0  0
 24 19  1  0  0  0  0
 25 20  1  0  0  0  0
 26 27  2  0  0  0  0
 28  3  1  0  0  0  0
 28 26  1  0  0  0  0
 29 26  2  0  0  0  0
 30 31  1  0  0  0  0
 30 18  1  0  0  0  0
 30 32  1  0  0  0  0
 33 30  1  0  0  0  0
M  RAD  4   2   2   3   2   4   2  12   2
M  END
