Coordinates from ORCA-job 4-NO2PhN2+~TsO-_B3LYPG-6-31G_dp-CH-Scan-d09-49-n800
 OpenBabel11261919023D

 33 33  0  0  0  0  0  0  0  0999 V2000
   -2.9700    0.8506   -0.9736 C   0  0  0  0  0  0  0  0  0  0  0  0
   -3.9428   -0.1627   -0.7998 N   0  0  0  0  0  0  0  0  0  0  0  0
   -4.6919   -0.9851   -0.7606 N   0  0  0  0  0  0  0  0  0  0  0  0
   -2.4615    0.8639   -2.2711 C   0  0  0  0  0  0  0  0  0  0  0  0
   -1.4999    1.9131   -2.3940 C   0  0  0  0  0  0  0  0  0  0  0  0
   -1.1669    2.7380   -1.3281 C   0  0  0  0  0  0  0  0  0  0  0  0
   -0.1910    3.8328   -1.5359 N   0  0  0  0  0  0  0  0  0  0  0  0
    0.5271    3.7839   -2.5304 O   0  0  0  0  0  0  0  0  0  0  0  0
   -0.1795    4.7451   -0.7051 O   0  0  0  0  0  0  0  0  0  0  0  0
   -1.7408    2.6298   -0.0410 C   0  0  0  0  0  0  0  0  0  0  0  0
   -2.6877    1.6463    0.1641 C   0  0  0  0  0  0  0  0  0  0  0  0
   -4.0085    3.9442   -0.1950 H   0  0  0  0  0  0  0  0  0  0  0  0
   -1.0061    2.0987   -3.3449 H   0  0  0  0  0  0  0  0  0  0  0  0
   -1.4317    3.3033    0.7478 H   0  0  0  0  0  0  0  0  0  0  0  0
   -3.2025    1.5311    1.1133 H   0  0  0  0  0  0  0  0  0  0  0  0
   -6.6090    5.2379    1.1313 C   0  0  0  0  0  0  0  0  0  0  0  0
   -6.3619    6.5144    0.6338 C   0  0  0  0  0  0  0  0  0  0  0  0
   -5.4512    6.7988   -0.4330 C   0  0  0  0  0  0  0  0  0  0  0  0
   -4.7960    5.7374   -0.9949 C   0  0  0  0  0  0  0  0  0  0  0  0
   -4.9891    4.3563   -0.5180 C   0  0  0  0  0  0  0  0  0  0  0  0
   -5.9445    4.1513    0.5796 C   0  0  0  0  0  0  0  0  0  0  0  0
   -7.3247    5.0695    1.9293 H   0  0  0  0  0  0  0  0  0  0  0  0
   -6.8978    7.3524    1.0760 H   0  0  0  0  0  0  0  0  0  0  0  0
   -4.0941    5.8941   -1.8103 H   0  0  0  0  0  0  0  0  0  0  0  0
   -5.2262    3.6599   -1.3410 H   0  0  0  0  0  0  0  0  0  0  0  0
   -6.1750    2.4855    1.2588 S   0  0  0  0  0  0  0  0  0  0  0  0
   -7.5145    2.5183    1.8621 O   0  0  0  0  0  0  0  0  0  0  0  0
   -5.0266    2.4920    2.2082 O   0  0  0  0  0  0  0  0  0  0  0  0
   -5.9927    1.6006    0.0855 O   0  0  0  0  0  0  0  0  0  0  0  0
   -5.2555    8.2217   -0.8921 C   0  0  0  0  0  0  0  0  0  0  0  0
   -6.2017    8.6617   -1.2248 H   0  0  0  0  0  0  0  0  0  0  0  0
   -4.8732    8.8470   -0.0779 H   0  0  0  0  0  0  0  0  0  0  0  0
   -4.5459    8.2760   -1.7207 H   0  0  0  0  0  0  0  0  0  0  0  0
  1  2  1  0  0  0  0
  1 11  2  0  0  0  0
  2  3  1  0  0  0  0
  4  1  1  0  0  0  0
  5  4  2  0  0  0  0
  5  6  1  0  0  0  0
  6 10  2  0  0  0  0
  7  6  1  0  0  0  0
  7  9  2  0  0  0  0
  8  7  2  0  0  0  0
 10 11  1  0  0  0  0
 10 14  1  0  0  0  0
 11 15  1  0  0  0  0
 13  5  1  0  0  0  0
 16 22  1  0  0  0  0
 17 23  1  0  0  0  0
 17 16  1  0  0  0  0
 18 17  1  0  0  0  0
 19 20  1  0  0  0  0
 19 18  2  0  0  0  0
 20 12  1  0  0  0  0
 20 21  1  0  0  0  0
 21 16  2  0  0  0  0
 21 26  1  0  0  0  0
 24 19  1  0  0  0  0
 25 20  1  0  0  0  0
 26 27  2  0  0  0  0
 26 28  1  0  0  0  0
 29 26  2  0  0  0  0
 30 18  1  0  0  0  0
 30 32  1  0  0  0  0
 31 30  1  0  0  0  0
 33 30  1  0  0  0  0
M  RAD  5   2   2   3   3   4   2  17   2  28   2
M  END
