Coordinates from ORCA-job 4-NO2PhN2+~TsO-_B3LYPG-6-31G_dp-CH-Scan-d09-49-n800
 OpenBabel11261919023D

 33 33  0  0  0  0  0  0  0  0999 V2000
   -2.7471    1.0990   -0.1815 C   0  0  0  0  0  0  0  0  0  0  0  0
   -3.8476    0.2897    0.2384 N   0  0  0  0  0  0  0  0  0  0  0  0
   -4.9576    0.7260    0.5023 N   0  0  0  0  0  0  0  0  0  0  0  0
   -2.7225    1.9132   -1.2892 C   0  0  0  0  0  0  0  0  0  0  0  0
   -1.6655    2.6268   -1.7697 C   0  0  0  0  0  0  0  0  0  0  0  0
   -0.4795    2.4791   -1.0304 C   0  0  0  0  0  0  0  0  0  0  0  0
    0.7205    3.2123   -1.4770 N   0  0  0  0  0  0  0  0  0  0  0  0
    0.6119    3.9211   -2.4748 O   0  0  0  0  0  0  0  0  0  0  0  0
    1.7475    3.0654   -0.8180 O   0  0  0  0  0  0  0  0  0  0  0  0
   -0.4001    1.6587    0.0945 C   0  0  0  0  0  0  0  0  0  0  0  0
   -1.5269    0.9546    0.5085 C   0  0  0  0  0  0  0  0  0  0  0  0
   -5.2552    2.0462   -3.0854 H   0  0  0  0  0  0  0  0  0  0  0  0
   -1.6902    3.2596   -2.6488 H   0  0  0  0  0  0  0  0  0  0  0  0
    0.5415    1.5738    0.6213 H   0  0  0  0  0  0  0  0  0  0  0  0
   -1.4922    0.2966    1.3720 H   0  0  0  0  0  0  0  0  0  0  0  0
   -6.1613    5.3268    1.2581 C   0  0  0  0  0  0  0  0  0  0  0  0
   -5.9621    6.6554    0.8891 C   0  0  0  0  0  0  0  0  0  0  0  0
   -5.9676    7.0427   -0.4590 C   0  0  0  0  0  0  0  0  0  0  0  0
   -6.1758    6.0606   -1.4404 C   0  0  0  0  0  0  0  0  0  0  0  0
   -6.3807    4.7280   -1.0958 C   0  0  0  0  0  0  0  0  0  0  0  0
   -6.3674    4.3771    0.2568 C   0  0  0  0  0  0  0  0  0  0  0  0
   -6.1645    5.0257    2.3000 H   0  0  0  0  0  0  0  0  0  0  0  0
   -5.8007    7.4035    1.6601 H   0  0  0  0  0  0  0  0  0  0  0  0
   -6.1798    6.3450   -2.4892 H   0  0  0  0  0  0  0  0  0  0  0  0
   -6.5440    3.9716   -1.8563 H   0  0  0  0  0  0  0  0  0  0  0  0
   -6.6427    2.6831    0.7139 S   0  0  0  0  0  0  0  0  0  0  0  0
   -6.8710    2.5768    2.1491 O   0  0  0  0  0  0  0  0  0  0  0  0
   -5.0374    2.1682    0.4066 O   0  0  0  0  0  0  0  0  0  0  0  0
   -7.5040    2.0229   -0.2558 O   0  0  0  0  0  0  0  0  0  0  0  0
   -5.7828    8.4889   -0.8479 C   0  0  0  0  0  0  0  0  0  0  0  0
   -6.7533    8.9858   -0.9663 H   0  0  0  0  0  0  0  0  0  0  0  0
   -5.2236    9.0412   -0.0874 H   0  0  0  0  0  0  0  0  0  0  0  0
   -5.2517    8.5818   -1.7997 H   0  0  0  0  0  0  0  0  0  0  0  0
  1  2  1  0  0  0  0
  1 11  2  0  0  0  0
  2  3  1  0  0  0  0
  4  1  1  0  0  0  0
  5  4  2  0  0  0  0
  5  6  1  0  0  0  0
  6 10  2  0  0  0  0
  7  6  1  0  0  0  0
  7  9  2  0  0  0  0
  8  7  2  0  0  0  0
 10 11  1  0  0  0  0
 10 14  1  0  0  0  0
 11 15  1  0  0  0  0
 13  5  1  0  0  0  0
 16 22  1  0  0  0  0
 17 16  1  0  0  0  0
 17 23  1  0  0  0  0
 18 17  2  0  0  0  0
 19 20  2  0  0  0  0
 19 18  1  0  0  0  0
 20 21  1  0  0  0  0
 21 26  1  0  0  0  0
 21 16  2  0  0  0  0
 24 19  1  0  0  0  0
 25 20  1  0  0  0  0
 26 27  2  0  0  0  0
 28  3  1  0  0  0  0
 28 26  1  0  0  0  0
 29 26  2  0  0  0  0
 30 18  1  0  0  0  0
 30 32  1  0  0  0  0
 31 30  1  0  0  0  0
 33 30  1  0  0  0  0
M  RAD  4   2   2   3   2   4   2  12   2
M  END
