Coordinates from ORCA-job 4-NO2PhN2+~TsO-_B3LYPG-6-31G_dp-CH-Scan-d09-49-n800
 OpenBabel11261919023D

 33 33  0  0  0  0  0  0  0  0999 V2000
   -2.7985    1.0810   -0.2711 C   0  0  0  0  0  0  0  0  0  0  0  0
   -3.8980    0.2598    0.1306 N   0  0  0  0  0  0  0  0  0  0  0  0
   -5.0099    0.6927    0.3730 N   0  0  0  0  0  0  0  0  0  0  0  0
   -2.6270    1.5376   -1.5596 C   0  0  0  0  0  0  0  0  0  0  0  0
   -1.5537    2.2368   -2.0364 C   0  0  0  0  0  0  0  0  0  0  0  0
   -0.5423    2.4816   -1.0952 C   0  0  0  0  0  0  0  0  0  0  0  0
    0.6525    3.2282   -1.5262 N   0  0  0  0  0  0  0  0  0  0  0  0
    0.6965    3.6002   -2.6969 O   0  0  0  0  0  0  0  0  0  0  0  0
    1.5256    3.4314   -0.6847 O   0  0  0  0  0  0  0  0  0  0  0  0
   -0.6300    2.0394    0.2244 C   0  0  0  0  0  0  0  0  0  0  0  0
   -1.7531    1.3270    0.6365 C   0  0  0  0  0  0  0  0  0  0  0  0
   -4.4913    0.9835   -3.1176 H   0  0  0  0  0  0  0  0  0  0  0  0
   -1.4556    2.5886   -3.0553 H   0  0  0  0  0  0  0  0  0  0  0  0
    0.1822    2.2526    0.9075 H   0  0  0  0  0  0  0  0  0  0  0  0
   -1.8390    0.9623    1.6551 H   0  0  0  0  0  0  0  0  0  0  0  0
   -5.9779    5.2491    1.2548 C   0  0  0  0  0  0  0  0  0  0  0  0
   -5.7560    6.5908    0.9537 C   0  0  0  0  0  0  0  0  0  0  0  0
   -5.9220    7.0793   -0.3507 C   0  0  0  0  0  0  0  0  0  0  0  0
   -6.3190    6.1858   -1.3583 C   0  0  0  0  0  0  0  0  0  0  0  0
   -6.5472    4.8414   -1.0803 C   0  0  0  0  0  0  0  0  0  0  0  0
   -6.3689    4.3874    0.2288 C   0  0  0  0  0  0  0  0  0  0  0  0
   -5.8592    4.8723    2.2646 H   0  0  0  0  0  0  0  0  0  0  0  0
   -5.4510    7.2707    1.7440 H   0  0  0  0  0  0  0  0  0  0  0  0
   -6.4545    6.5498   -2.3729 H   0  0  0  0  0  0  0  0  0  0  0  0
   -6.8641    4.1532   -1.8558 H   0  0  0  0  0  0  0  0  0  0  0  0
   -6.6647    2.6750    0.5991 S   0  0  0  0  0  0  0  0  0  0  0  0
   -6.8629    2.4949    2.0317 O   0  0  0  0  0  0  0  0  0  0  0  0
   -5.0849    2.1464    0.2296 O   0  0  0  0  0  0  0  0  0  0  0  0
   -7.5672    2.0919   -0.3840 O   0  0  0  0  0  0  0  0  0  0  0  0
   -5.7089    8.5405   -0.6612 C   0  0  0  0  0  0  0  0  0  0  0  0
   -6.6602    9.0858   -0.6367 H   0  0  0  0  0  0  0  0  0  0  0  0
   -5.0418    9.0122    0.0657 H   0  0  0  0  0  0  0  0  0  0  0  0
   -5.2815    8.6787   -1.6587 H   0  0  0  0  0  0  0  0  0  0  0  0
  1  2  1  0  0  0  0
  1 11  2  0  0  0  0
  2  3  1  0  0  0  0
  4  1  1  0  0  0  0
  5  4  2  0  0  0  0
  5  6  1  0  0  0  0
  6 10  2  0  0  0  0
  7  6  1  0  0  0  0
  7  9  2  0  0  0  0
  8  7  2  0  0  0  0
 10 11  1  0  0  0  0
 10 14  1  0  0  0  0
 11 15  1  0  0  0  0
 13  5  1  0  0  0  0
 16 22  1  0  0  0  0
 17 16  1  0  0  0  0
 17 23  1  0  0  0  0
 18 17  2  0  0  0  0
 19 20  2  0  0  0  0
 19 18  1  0  0  0  0
 20 21  1  0  0  0  0
 21 26  1  0  0  0  0
 21 16  2  0  0  0  0
 24 19  1  0  0  0  0
 25 20  1  0  0  0  0
 26 27  2  0  0  0  0
 28  3  1  0  0  0  0
 28 26  1  0  0  0  0
 29 26  2  0  0  0  0
 30 31  1  0  0  0  0
 30 18  1  0  0  0  0
 30 32  1  0  0  0  0
 33 30  1  0  0  0  0
M  RAD  4   2   2   3   2   4   2  12   2
M  END
