Coordinates from ORCA-job 4-NO2PhN2+~TsO-_B3LYPG-6-31G_dp-CH-Scan-d09-49-n800
 OpenBabel11261919023D

 33 33  0  0  0  0  0  0  0  0999 V2000
   -2.8081    1.0746   -0.2823 C   0  0  0  0  0  0  0  0  0  0  0  0
   -3.9060    0.2586    0.1310 N   0  0  0  0  0  0  0  0  0  0  0  0
   -5.0180    0.6883    0.3717 N   0  0  0  0  0  0  0  0  0  0  0  0
   -2.6335    1.4679   -1.5961 C   0  0  0  0  0  0  0  0  0  0  0  0
   -1.5481    2.1609   -2.0698 C   0  0  0  0  0  0  0  0  0  0  0  0
   -0.5601    2.4641   -1.1244 C   0  0  0  0  0  0  0  0  0  0  0  0
    0.6318    3.2077   -1.5652 N   0  0  0  0  0  0  0  0  0  0  0  0
    0.6935    3.5290   -2.7505 O   0  0  0  0  0  0  0  0  0  0  0  0
    1.4871    3.4607   -0.7185 O   0  0  0  0  0  0  0  0  0  0  0  0
   -0.6662    2.0828    0.2126 C   0  0  0  0  0  0  0  0  0  0  0  0
   -1.7882    1.3748    0.6345 C   0  0  0  0  0  0  0  0  0  0  0  0
   -4.1485    0.9449   -2.9005 H   0  0  0  0  0  0  0  0  0  0  0  0
   -1.4336    2.4672   -3.1008 H   0  0  0  0  0  0  0  0  0  0  0  0
    0.1296    2.3388    0.9004 H   0  0  0  0  0  0  0  0  0  0  0  0
   -1.8886    1.0558    1.6667 H   0  0  0  0  0  0  0  0  0  0  0  0
   -5.9787    5.2404    1.2526 C   0  0  0  0  0  0  0  0  0  0  0  0
   -5.7538    6.5847    0.9663 C   0  0  0  0  0  0  0  0  0  0  0  0
   -5.9233    7.0890   -0.3317 C   0  0  0  0  0  0  0  0  0  0  0  0
   -6.3271    6.2086   -1.3478 C   0  0  0  0  0  0  0  0  0  0  0  0
   -6.5582    4.8616   -1.0844 C   0  0  0  0  0  0  0  0  0  0  0  0
   -6.3760    4.3915    0.2182 C   0  0  0  0  0  0  0  0  0  0  0  0
   -5.8575    4.8518    2.2576 H   0  0  0  0  0  0  0  0  0  0  0  0
   -5.4437    7.2544    1.7633 H   0  0  0  0  0  0  0  0  0  0  0  0
   -6.4657    6.5848   -2.3575 H   0  0  0  0  0  0  0  0  0  0  0  0
   -6.8811    4.1835   -1.8663 H   0  0  0  0  0  0  0  0  0  0  0  0
   -6.6744    2.6750    0.5699 S   0  0  0  0  0  0  0  0  0  0  0  0
   -6.8881    2.4830    1.9988 O   0  0  0  0  0  0  0  0  0  0  0  0
   -5.0963    2.1489    0.2095 O   0  0  0  0  0  0  0  0  0  0  0  0
   -7.5702    2.1032   -0.4266 O   0  0  0  0  0  0  0  0  0  0  0  0
   -5.7070    8.5533   -0.6253 C   0  0  0  0  0  0  0  0  0  0  0  0
   -6.6535    9.1047   -0.5703 H   0  0  0  0  0  0  0  0  0  0  0  0
   -5.0199    9.0094    0.0929 H   0  0  0  0  0  0  0  0  0  0  0  0
   -5.3021    8.7039   -1.6303 H   0  0  0  0  0  0  0  0  0  0  0  0
  1  2  1  0  0  0  0
  1 11  2  0  0  0  0
  2  3  1  0  0  0  0
  4  1  1  0  0  0  0
  5  4  2  0  0  0  0
  5  6  1  0  0  0  0
  6 10  2  0  0  0  0
  7  6  1  0  0  0  0
  7  9  2  0  0  0  0
  8  7  2  0  0  0  0
 10 11  1  0  0  0  0
 10 14  1  0  0  0  0
 11 15  1  0  0  0  0
 13  5  1  0  0  0  0
 16 22  1  0  0  0  0
 17 16  1  0  0  0  0
 17 23  1  0  0  0  0
 18 17  2  0  0  0  0
 19 20  2  0  0  0  0
 19 18  1  0  0  0  0
 20 21  1  0  0  0  0
 21 26  1  0  0  0  0
 21 16  2  0  0  0  0
 24 19  1  0  0  0  0
 25 20  1  0  0  0  0
 26 27  2  0  0  0  0
 28  3  1  0  0  0  0
 28 26  1  0  0  0  0
 29 26  2  0  0  0  0
 30 31  1  0  0  0  0
 30 18  1  0  0  0  0
 30 32  1  0  0  0  0
 33 30  1  0  0  0  0
M  RAD  4   2   2   3   2   4   2  12   2
M  END
