Coordinates from ORCA-job 4-NO2PhN2+~TsO-_B3LYPG-6-31G_dp-CH-Scan-d09-49-n800
 OpenBabel11261919023D

 33 33  0  0  0  0  0  0  0  0999 V2000
   -2.8987    0.7918   -0.9603 C   0  0  0  0  0  0  0  0  0  0  0  0
   -3.9048   -0.1777   -0.7435 N   0  0  0  0  0  0  0  0  0  0  0  0
   -4.6794   -0.9737   -0.6649 N   0  0  0  0  0  0  0  0  0  0  0  0
   -2.3000    0.6488   -2.2111 C   0  0  0  0  0  0  0  0  0  0  0  0
   -1.3033    1.6571   -2.3810 C   0  0  0  0  0  0  0  0  0  0  0  0
   -1.0079    2.5775   -1.3843 C   0  0  0  0  0  0  0  0  0  0  0  0
    0.0278    3.6071   -1.6314 N   0  0  0  0  0  0  0  0  0  0  0  0
    0.7982    3.4351   -2.5719 O   0  0  0  0  0  0  0  0  0  0  0  0
    0.0371    4.5914   -0.8872 O   0  0  0  0  0  0  0  0  0  0  0  0
   -1.6703    2.6247   -0.1369 C   0  0  0  0  0  0  0  0  0  0  0  0
   -2.6663    1.7001    0.1032 C   0  0  0  0  0  0  0  0  0  0  0  0
   -4.0669    4.0590   -0.2351 H   0  0  0  0  0  0  0  0  0  0  0  0
   -0.7480    1.7307   -3.3130 H   0  0  0  0  0  0  0  0  0  0  0  0
   -1.3846    3.3661    0.5981 H   0  0  0  0  0  0  0  0  0  0  0  0
   -3.2398    1.6928    1.0264 H   0  0  0  0  0  0  0  0  0  0  0  0
   -6.6906    5.2621    1.1576 C   0  0  0  0  0  0  0  0  0  0  0  0
   -6.4774    6.5586    0.6980 C   0  0  0  0  0  0  0  0  0  0  0  0
   -5.5769    6.8978   -0.3619 C   0  0  0  0  0  0  0  0  0  0  0  0
   -4.8960    5.8715   -0.9568 C   0  0  0  0  0  0  0  0  0  0  0  0
   -5.0560    4.4705   -0.5247 C   0  0  0  0  0  0  0  0  0  0  0  0
   -5.9997    4.2100    0.5727 C   0  0  0  0  0  0  0  0  0  0  0  0
   -7.3995    5.0517    1.9517 H   0  0  0  0  0  0  0  0  0  0  0  0
   -7.0333    7.3692    1.1658 H   0  0  0  0  0  0  0  0  0  0  0  0
   -4.2013    6.0707   -1.7690 H   0  0  0  0  0  0  0  0  0  0  0  0
   -5.3025    3.8038   -1.3702 H   0  0  0  0  0  0  0  0  0  0  0  0
   -6.1864    2.5193    1.1991 S   0  0  0  0  0  0  0  0  0  0  0  0
   -7.5280    2.4949    1.7977 O   0  0  0  0  0  0  0  0  0  0  0  0
   -5.0423    2.5317    2.1544 O   0  0  0  0  0  0  0  0  0  0  0  0
   -5.9723    1.6768    0.0006 O   0  0  0  0  0  0  0  0  0  0  0  0
   -5.4198    8.3387   -0.7779 C   0  0  0  0  0  0  0  0  0  0  0  0
   -6.3784    8.7638   -1.0940 H   0  0  0  0  0  0  0  0  0  0  0  0
   -5.0511    8.9487    0.0541 H   0  0  0  0  0  0  0  0  0  0  0  0
   -4.7151    8.4371   -1.6066 H   0  0  0  0  0  0  0  0  0  0  0  0
  1  2  1  0  0  0  0
  1 11  2  0  0  0  0
  2  3  1  0  0  0  0
  4  1  1  0  0  0  0
  5  4  2  0  0  0  0
  5  6  1  0  0  0  0
  6 10  2  0  0  0  0
  7  6  1  0  0  0  0
  7  9  2  0  0  0  0
  8  7  2  0  0  0  0
 10 11  1  0  0  0  0
 10 14  1  0  0  0  0
 11 15  1  0  0  0  0
 13  5  1  0  0  0  0
 16 22  1  0  0  0  0
 17 16  1  0  0  0  0
 17 23  1  0  0  0  0
 18 17  1  0  0  0  0
 19 20  1  0  0  0  0
 19 18  2  0  0  0  0
 20 12  1  0  0  0  0
 20 21  1  0  0  0  0
 21 16  2  0  0  0  0
 21 26  1  0  0  0  0
 24 19  1  0  0  0  0
 25 20  1  0  0  0  0
 26 27  2  0  0  0  0
 26 28  1  0  0  0  0
 29 26  2  0  0  0  0
 30 18  1  0  0  0  0
 30 32  1  0  0  0  0
 31 30  1  0  0  0  0
 33 30  1  0  0  0  0
M  RAD  5   2   2   3   3   4   2  17   2  28   2
M  END
