Coordinates from ORCA-job 4-NO2PhN2+~TsO-_B3LYPG-6-31G_dp-CH-Scan-d09-49-n800
 OpenBabel11261919023D

 33 33  0  0  0  0  0  0  0  0999 V2000
   -2.9712    0.8519   -0.9737 C   0  0  0  0  0  0  0  0  0  0  0  0
   -3.9434   -0.1621   -0.8005 N   0  0  0  0  0  0  0  0  0  0  0  0
   -4.6920   -0.9850   -0.7621 N   0  0  0  0  0  0  0  0  0  0  0  0
   -2.4650    0.8679   -2.2721 C   0  0  0  0  0  0  0  0  0  0  0  0
   -1.5038    1.9177   -2.3942 C   0  0  0  0  0  0  0  0  0  0  0  0
   -1.1692    2.7403   -1.3269 C   0  0  0  0  0  0  0  0  0  0  0  0
   -0.1938    3.8357   -1.5340 N   0  0  0  0  0  0  0  0  0  0  0  0
    0.5220    3.7895   -2.5303 O   0  0  0  0  0  0  0  0  0  0  0  0
   -0.1818    4.7468   -0.7019 O   0  0  0  0  0  0  0  0  0  0  0  0
   -1.7410    2.6294   -0.0391 C   0  0  0  0  0  0  0  0  0  0  0  0
   -2.6874    1.6452    0.1654 C   0  0  0  0  0  0  0  0  0  0  0  0
   -4.0075    3.9427   -0.1941 H   0  0  0  0  0  0  0  0  0  0  0  0
   -1.0117    2.1057   -3.3454 H   0  0  0  0  0  0  0  0  0  0  0  0
   -1.4307    3.3014    0.7505 H   0  0  0  0  0  0  0  0  0  0  0  0
   -3.2010    1.5281    1.1150 H   0  0  0  0  0  0  0  0  0  0  0  0
   -6.6079    5.2375    1.1306 C   0  0  0  0  0  0  0  0  0  0  0  0
   -6.3602    6.5136    0.6325 C   0  0  0  0  0  0  0  0  0  0  0  0
   -5.4494    6.7972   -0.4342 C   0  0  0  0  0  0  0  0  0  0  0  0
   -4.7944    5.7353   -0.9955 C   0  0  0  0  0  0  0  0  0  0  0  0
   -4.9879    4.3546   -0.5179 C   0  0  0  0  0  0  0  0  0  0  0  0
   -5.9437    4.1504    0.5796 C   0  0  0  0  0  0  0  0  0  0  0  0
   -7.3238    5.0696    1.9286 H   0  0  0  0  0  0  0  0  0  0  0  0
   -6.8960    7.3520    1.0743 H   0  0  0  0  0  0  0  0  0  0  0  0
   -4.0923    5.8914   -1.8109 H   0  0  0  0  0  0  0  0  0  0  0  0
   -5.2247    3.6577   -1.3405 H   0  0  0  0  0  0  0  0  0  0  0  0
   -6.1749    2.4850    1.2595 S   0  0  0  0  0  0  0  0  0  0  0  0
   -7.5144    2.5189    1.8627 O   0  0  0  0  0  0  0  0  0  0  0  0
   -5.0265    2.4915    2.2089 O   0  0  0  0  0  0  0  0  0  0  0  0
   -5.9933    1.5989    0.0869 O   0  0  0  0  0  0  0  0  0  0  0  0
   -5.2532    8.2199   -0.8940 C   0  0  0  0  0  0  0  0  0  0  0  0
   -6.1992    8.6600   -1.2271 H   0  0  0  0  0  0  0  0  0  0  0  0
   -4.8708    8.8455   -0.0800 H   0  0  0  0  0  0  0  0  0  0  0  0
   -4.5434    8.2735   -1.7225 H   0  0  0  0  0  0  0  0  0  0  0  0
  1  2  1  0  0  0  0
  1 11  2  0  0  0  0
  2  3  1  0  0  0  0
  4  1  1  0  0  0  0
  5  4  2  0  0  0  0
  5  6  1  0  0  0  0
  6 10  2  0  0  0  0
  7  6  1  0  0  0  0
  7  9  2  0  0  0  0
  8  7  2  0  0  0  0
 10 11  1  0  0  0  0
 10 14  1  0  0  0  0
 11 15  1  0  0  0  0
 13  5  1  0  0  0  0
 16 22  1  0  0  0  0
 17 23  1  0  0  0  0
 17 16  1  0  0  0  0
 18 17  1  0  0  0  0
 19 20  1  0  0  0  0
 19 18  2  0  0  0  0
 20 12  1  0  0  0  0
 20 21  1  0  0  0  0
 21 16  2  0  0  0  0
 21 26  1  0  0  0  0
 24 19  1  0  0  0  0
 25 20  1  0  0  0  0
 26 27  2  0  0  0  0
 26 28  1  0  0  0  0
 29 26  2  0  0  0  0
 30 18  1  0  0  0  0
 30 32  1  0  0  0  0
 31 30  1  0  0  0  0
 33 30  1  0  0  0  0
M  RAD  5   2   2   3   3   4   2  17   2  28   2
M  END
