Coordinates from ORCA-job 4-NO2PhN2+~TsO-_B3LYPG-6-31G_dp-CH-Scan-d09-49-n800
 OpenBabel11261919033D

 33 33  0  0  0  0  0  0  0  0999 V2000
   -2.8786    0.7662   -0.9691 C   0  0  0  0  0  0  0  0  0  0  0  0
   -3.9060   -0.1768   -0.7412 N   0  0  0  0  0  0  0  0  0  0  0  0
   -4.6982   -0.9542   -0.6520 N   0  0  0  0  0  0  0  0  0  0  0  0
   -2.2559    0.5706   -2.2011 C   0  0  0  0  0  0  0  0  0  0  0  0
   -1.2360    1.5520   -2.3840 C   0  0  0  0  0  0  0  0  0  0  0  0
   -0.9380    2.4947   -1.4089 C   0  0  0  0  0  0  0  0  0  0  0  0
    0.1292    3.4896   -1.6642 N   0  0  0  0  0  0  0  0  0  0  0  0
    0.9086    3.2735   -2.5882 O   0  0  0  0  0  0  0  0  0  0  0  0
    0.1555    4.4907   -0.9436 O   0  0  0  0  0  0  0  0  0  0  0  0
   -1.6247    2.5961   -0.1782 C   0  0  0  0  0  0  0  0  0  0  0  0
   -2.6474    1.7036    0.0694 C   0  0  0  0  0  0  0  0  0  0  0  0
   -4.0646    4.1414   -0.2014 H   0  0  0  0  0  0  0  0  0  0  0  0
   -0.6630    1.5854   -3.3074 H   0  0  0  0  0  0  0  0  0  0  0  0
   -1.3360    3.3532    0.5395 H   0  0  0  0  0  0  0  0  0  0  0  0
   -3.2383    1.7365    0.9812 H   0  0  0  0  0  0  0  0  0  0  0  0
   -6.7407    5.2735    1.1558 C   0  0  0  0  0  0  0  0  0  0  0  0
   -6.5526    6.5780    0.7071 C   0  0  0  0  0  0  0  0  0  0  0  0
   -5.6424    6.9460   -0.3348 C   0  0  0  0  0  0  0  0  0  0  0  0
   -4.9245    5.9412   -0.9225 C   0  0  0  0  0  0  0  0  0  0  0  0
   -5.0572    4.5331   -0.5023 C   0  0  0  0  0  0  0  0  0  0  0  0
   -6.0131    4.2430    0.5779 C   0  0  0  0  0  0  0  0  0  0  0  0
   -7.4573    5.0400    1.9365 H   0  0  0  0  0  0  0  0  0  0  0  0
   -7.1371    7.3716    1.1695 H   0  0  0  0  0  0  0  0  0  0  0  0
   -4.2205    6.1628   -1.7209 H   0  0  0  0  0  0  0  0  0  0  0  0
   -5.2789    3.8694   -1.3571 H   0  0  0  0  0  0  0  0  0  0  0  0
   -6.1690    2.5440    1.1897 S   0  0  0  0  0  0  0  0  0  0  0  0
   -7.5057    2.4919    1.7970 O   0  0  0  0  0  0  0  0  0  0  0  0
   -5.0181    2.5632    2.1367 O   0  0  0  0  0  0  0  0  0  0  0  0
   -5.9501    1.7177   -0.0194 O   0  0  0  0  0  0  0  0  0  0  0  0
   -5.5158    8.3930   -0.7403 C   0  0  0  0  0  0  0  0  0  0  0  0
   -6.4787    8.7930   -1.0756 H   0  0  0  0  0  0  0  0  0  0  0  0
   -5.1829    9.0085    0.1025 H   0  0  0  0  0  0  0  0  0  0  0  0
   -4.7961    8.5152   -1.5528 H   0  0  0  0  0  0  0  0  0  0  0  0
  1  2  1  0  0  0  0
  1 11  2  0  0  0  0
  2  3  1  0  0  0  0
  4  1  1  0  0  0  0
  5  4  2  0  0  0  0
  5  6  1  0  0  0  0
  6 10  2  0  0  0  0
  7  6  1  0  0  0  0
  7  9  2  0  0  0  0
  8  7  2  0  0  0  0
 10 11  1  0  0  0  0
 10 14  1  0  0  0  0
 11 15  1  0  0  0  0
 13  5  1  0  0  0  0
 16 22  1  0  0  0  0
 17 16  1  0  0  0  0
 17 23  1  0  0  0  0
 18 17  1  0  0  0  0
 19 20  1  0  0  0  0
 19 18  2  0  0  0  0
 20 12  1  0  0  0  0
 20 21  1  0  0  0  0
 21 16  2  0  0  0  0
 21 26  1  0  0  0  0
 24 19  1  0  0  0  0
 25 20  1  0  0  0  0
 26 27  2  0  0  0  0
 26 28  1  0  0  0  0
 29 26  2  0  0  0  0
 30 18  1  0  0  0  0
 30 32  1  0  0  0  0
 31 30  1  0  0  0  0
 33 30  1  0  0  0  0
M  RAD  5   2   2   3   3   4   2  17   2  28   2
M  END
