Coordinates from ORCA-job 4-NO2PhN2+~TsO-_B3LYPG-6-31G_dp-CH-Scan-d09-49-n800
 OpenBabel11261919023D

 33 34  0  0  0  0  0  0  0  0999 V2000
   -2.7057    1.1043   -0.1770 C   0  0  0  0  0  0  0  0  0  0  0  0
   -3.8311    0.3753    0.3022 N   0  0  0  0  0  0  0  0  0  0  0  0
   -4.9603    0.7724    0.4749 N   0  0  0  0  0  0  0  0  0  0  0  0
   -2.7185    1.8109   -1.3852 C   0  0  0  0  0  0  0  0  0  0  0  0
   -1.5553    2.4022   -1.8564 C   0  0  0  0  0  0  0  0  0  0  0  0
   -0.3919    2.2855   -1.0951 C   0  0  0  0  0  0  0  0  0  0  0  0
    0.8426    2.9239   -1.5832 N   0  0  0  0  0  0  0  0  0  0  0  0
    0.7781    3.5492   -2.6403 O   0  0  0  0  0  0  0  0  0  0  0  0
    1.8522    2.8108   -0.8904 O   0  0  0  0  0  0  0  0  0  0  0  0
   -0.3546    1.5774    0.1045 C   0  0  0  0  0  0  0  0  0  0  0  0
   -1.5179    0.9615    0.5524 C   0  0  0  0  0  0  0  0  0  0  0  0
   -3.7857    1.9008   -2.0405 H   0  0  0  0  0  0  0  0  0  0  0  0
   -1.5314    2.9518   -2.7882 H   0  0  0  0  0  0  0  0  0  0  0  0
    0.5758    1.5042    0.6528 H   0  0  0  0  0  0  0  0  0  0  0  0
   -1.5229    0.3772    1.4658 H   0  0  0  0  0  0  0  0  0  0  0  0
   -6.0472    5.3094    1.1640 C   0  0  0  0  0  0  0  0  0  0  0  0
   -5.8802    6.6613    0.8768 C   0  0  0  0  0  0  0  0  0  0  0  0
   -6.1268    7.1667   -0.4092 C   0  0  0  0  0  0  0  0  0  0  0  0
   -6.5473    6.2786   -1.4105 C   0  0  0  0  0  0  0  0  0  0  0  0
   -6.7204    4.9223   -1.1447 C   0  0  0  0  0  0  0  0  0  0  0  0
   -6.4629    4.4511    0.1438 C   0  0  0  0  0  0  0  0  0  0  0  0
   -5.8689    4.9211    2.1606 H   0  0  0  0  0  0  0  0  0  0  0  0
   -5.5568    7.3372    1.6634 H   0  0  0  0  0  0  0  0  0  0  0  0
   -6.7470    6.6554   -2.4096 H   0  0  0  0  0  0  0  0  0  0  0  0
   -7.0598    4.2374   -1.9138 H   0  0  0  0  0  0  0  0  0  0  0  0
   -6.6904    2.7219    0.5003 S   0  0  0  0  0  0  0  0  0  0  0  0
   -6.9352    2.5350    1.9257 O   0  0  0  0  0  0  0  0  0  0  0  0
   -5.1071    2.2585    0.1758 O   0  0  0  0  0  0  0  0  0  0  0  0
   -7.5533    2.1168   -0.5087 O   0  0  0  0  0  0  0  0  0  0  0  0
   -5.9748    8.6401   -0.6985 C   0  0  0  0  0  0  0  0  0  0  0  0
   -6.8994    9.1808   -0.4600 H   0  0  0  0  0  0  0  0  0  0  0  0
   -5.1751    9.0857   -0.0999 H   0  0  0  0  0  0  0  0  0  0  0  0
   -5.7544    8.8210   -1.7541 H   0  0  0  0  0  0  0  0  0  0  0  0
  1  2  1  0  0  0  0
  1 11  2  0  0  0  0
  2  3  1  0  0  0  0
  4  1  1  0  0  0  0
  5  4  2  0  0  0  0
  5  6  1  0  0  0  0
  6 10  2  0  0  0  0
  7  6  1  0  0  0  0
  7  9  2  0  0  0  0
  8  7  2  0  0  0  0
 10 11  1  0  0  0  0
 10 14  1  0  0  0  0
 11 15  1  0  0  0  0
 12  4  1  0  0  0  0
 13  5  1  0  0  0  0
 16 22  1  0  0  0  0
 17 16  1  0  0  0  0
 17 23  1  0  0  0  0
 18 17  2  0  0  0  0
 19 20  2  0  0  0  0
 19 18  1  0  0  0  0
 20 21  1  0  0  0  0
 21 26  1  0  0  0  0
 21 16  2  0  0  0  0
 24 19  1  0  0  0  0
 25 20  1  0  0  0  0
 26 27  2  0  0  0  0
 28  3  1  0  0  0  0
 28 26  1  0  0  0  0
 29 26  2  0  0  0  0
 30 31  1  0  0  0  0
 30 18  1  0  0  0  0
 30 32  1  0  0  0  0
 33 30  1  0  0  0  0
M  RAD  2   2   2   3   2
M  END
