Coordinates from ORCA-job 4-NO2PhN2+~TsO-_B3LYPG-6-31G_dp-CH-Scan-d09-49-n800
 OpenBabel11261919023D

 33 33  0  0  0  0  0  0  0  0999 V2000
   -2.8074    1.0743   -0.2806 C   0  0  0  0  0  0  0  0  0  0  0  0
   -3.9052    0.2597    0.1352 N   0  0  0  0  0  0  0  0  0  0  0  0
   -5.0176    0.6888    0.3744 N   0  0  0  0  0  0  0  0  0  0  0  0
   -2.6374    1.4672   -1.5958 C   0  0  0  0  0  0  0  0  0  0  0  0
   -1.5503    2.1591   -2.0694 C   0  0  0  0  0  0  0  0  0  0  0  0
   -0.5601    2.4609   -1.1263 C   0  0  0  0  0  0  0  0  0  0  0  0
    0.6316    3.2034   -1.5692 N   0  0  0  0  0  0  0  0  0  0  0  0
    0.6913    3.5251   -2.7545 O   0  0  0  0  0  0  0  0  0  0  0  0
    1.4890    3.4552   -0.7242 O   0  0  0  0  0  0  0  0  0  0  0  0
   -0.6636    2.0793    0.2108 C   0  0  0  0  0  0  0  0  0  0  0  0
   -1.7856    1.3724    0.6345 C   0  0  0  0  0  0  0  0  0  0  0  0
   -4.1219    0.9598   -2.8705 H   0  0  0  0  0  0  0  0  0  0  0  0
   -1.4372    2.4656   -3.1004 H   0  0  0  0  0  0  0  0  0  0  0  0
    0.1339    2.3342    0.8970 H   0  0  0  0  0  0  0  0  0  0  0  0
   -1.8842    1.0527    1.6665 H   0  0  0  0  0  0  0  0  0  0  0  0
   -5.9807    5.2403    1.2511 C   0  0  0  0  0  0  0  0  0  0  0  0
   -5.7561    6.5849    0.9661 C   0  0  0  0  0  0  0  0  0  0  0  0
   -5.9253    7.0903   -0.3316 C   0  0  0  0  0  0  0  0  0  0  0  0
   -6.3285    6.2107   -1.3486 C   0  0  0  0  0  0  0  0  0  0  0  0
   -6.5593    4.8634   -1.0864 C   0  0  0  0  0  0  0  0  0  0  0  0
   -6.3774    4.3922    0.2158 C   0  0  0  0  0  0  0  0  0  0  0  0
   -5.8599    4.8509    2.2558 H   0  0  0  0  0  0  0  0  0  0  0  0
   -5.4465    7.2540    1.7638 H   0  0  0  0  0  0  0  0  0  0  0  0
   -6.4669    6.5877   -2.3580 H   0  0  0  0  0  0  0  0  0  0  0  0
   -6.8818    4.1859   -1.8689 H   0  0  0  0  0  0  0  0  0  0  0  0
   -6.6754    2.6752    0.5660 S   0  0  0  0  0  0  0  0  0  0  0  0
   -6.8926    2.4825    1.9943 O   0  0  0  0  0  0  0  0  0  0  0  0
   -5.0969    2.1501    0.2087 O   0  0  0  0  0  0  0  0  0  0  0  0
   -7.5690    2.1037   -0.4328 O   0  0  0  0  0  0  0  0  0  0  0  0
   -5.7093    8.5549   -0.6237 C   0  0  0  0  0  0  0  0  0  0  0  0
   -6.6555    9.1067   -0.5647 H   0  0  0  0  0  0  0  0  0  0  0  0
   -5.0198    9.0097    0.0929 H   0  0  0  0  0  0  0  0  0  0  0  0
   -5.3077    8.7069   -1.6297 H   0  0  0  0  0  0  0  0  0  0  0  0
  1  2  1  0  0  0  0
  1 11  2  0  0  0  0
  2  3  1  0  0  0  0
  4  1  1  0  0  0  0
  5  4  2  0  0  0  0
  5  6  1  0  0  0  0
  6 10  2  0  0  0  0
  7  6  1  0  0  0  0
  7  9  2  0  0  0  0
  8  7  2  0  0  0  0
 10 11  1  0  0  0  0
 10 14  1  0  0  0  0
 11 15  1  0  0  0  0
 13  5  1  0  0  0  0
 16 22  1  0  0  0  0
 17 16  1  0  0  0  0
 17 23  1  0  0  0  0
 18 17  2  0  0  0  0
 19 20  2  0  0  0  0
 19 18  1  0  0  0  0
 20 21  1  0  0  0  0
 21 26  1  0  0  0  0
 21 16  2  0  0  0  0
 24 19  1  0  0  0  0
 25 20  1  0  0  0  0
 26 27  2  0  0  0  0
 28  3  1  0  0  0  0
 28 26  1  0  0  0  0
 29 26  2  0  0  0  0
 30 31  1  0  0  0  0
 30 18  1  0  0  0  0
 30 32  1  0  0  0  0
 33 30  1  0  0  0  0
M  RAD  4   2   2   3   2   4   2  12   2
M  END
