Coordinates from ORCA-job 4-NO2PhN2+~TsO-_B3LYPG-6-31G_dp-CH-Scan-d09-49-n800
 OpenBabel11261919023D

 33 33  0  0  0  0  0  0  0  0999 V2000
   -2.7924    1.0845   -0.2580 C   0  0  0  0  0  0  0  0  0  0  0  0
   -3.8907    0.2634    0.1473 N   0  0  0  0  0  0  0  0  0  0  0  0
   -5.0031    0.6960    0.3901 N   0  0  0  0  0  0  0  0  0  0  0  0
   -2.6397    1.5745   -1.5359 C   0  0  0  0  0  0  0  0  0  0  0  0
   -1.5705    2.2749   -2.0179 C   0  0  0  0  0  0  0  0  0  0  0  0
   -0.5377    2.4844   -1.0908 C   0  0  0  0  0  0  0  0  0  0  0  0
    0.6563    3.2301   -1.5265 N   0  0  0  0  0  0  0  0  0  0  0  0
    0.6812    3.6310   -2.6882 O   0  0  0  0  0  0  0  0  0  0  0  0
    1.5476    3.4032   -0.6975 O   0  0  0  0  0  0  0  0  0  0  0  0
   -0.6036    2.0080    0.2181 C   0  0  0  0  0  0  0  0  0  0  0  0
   -1.7253    1.2954    0.6338 C   0  0  0  0  0  0  0  0  0  0  0  0
   -4.6027    1.0619   -3.1250 H   0  0  0  0  0  0  0  0  0  0  0  0
   -1.4887    2.6523   -3.0290 H   0  0  0  0  0  0  0  0  0  0  0  0
    0.2244    2.1947    0.8900 H   0  0  0  0  0  0  0  0  0  0  0  0
   -1.7947    0.9039    1.6437 H   0  0  0  0  0  0  0  0  0  0  0  0
   -6.0001    5.2548    1.2566 C   0  0  0  0  0  0  0  0  0  0  0  0
   -5.7784    6.5956    0.9512 C   0  0  0  0  0  0  0  0  0  0  0  0
   -5.9228    7.0752   -0.3591 C   0  0  0  0  0  0  0  0  0  0  0  0
   -6.2975    6.1738   -1.3681 C   0  0  0  0  0  0  0  0  0  0  0  0
   -6.5252    4.8302   -1.0859 C   0  0  0  0  0  0  0  0  0  0  0  0
   -6.3690    4.3853    0.2291 C   0  0  0  0  0  0  0  0  0  0  0  0
   -5.8979    4.8846    2.2706 H   0  0  0  0  0  0  0  0  0  0  0  0
   -5.4904    7.2817    1.7426 H   0  0  0  0  0  0  0  0  0  0  0  0
   -6.4157    6.5308   -2.3873 H   0  0  0  0  0  0  0  0  0  0  0  0
   -6.8243    4.1356   -1.8628 H   0  0  0  0  0  0  0  0  0  0  0  0
   -6.6643    2.6740    0.6047 S   0  0  0  0  0  0  0  0  0  0  0  0
   -6.8731    2.4995    2.0363 O   0  0  0  0  0  0  0  0  0  0  0  0
   -5.0796    2.1481    0.2490 O   0  0  0  0  0  0  0  0  0  0  0  0
   -7.5570    2.0841   -0.3831 O   0  0  0  0  0  0  0  0  0  0  0  0
   -5.7103    8.5355   -0.6748 C   0  0  0  0  0  0  0  0  0  0  0  0
   -6.6643    9.0765   -0.6718 H   0  0  0  0  0  0  0  0  0  0  0  0
   -5.0592    9.0148    0.0615 H   0  0  0  0  0  0  0  0  0  0  0  0
   -5.2646    8.6691   -1.6650 H   0  0  0  0  0  0  0  0  0  0  0  0
  1  2  1  0  0  0  0
  1 11  2  0  0  0  0
  2  3  1  0  0  0  0
  4  1  1  0  0  0  0
  5  4  2  0  0  0  0
  5  6  1  0  0  0  0
  6 10  2  0  0  0  0
  7  6  1  0  0  0  0
  7  9  2  0  0  0  0
  8  7  2  0  0  0  0
 10 11  1  0  0  0  0
 10 14  1  0  0  0  0
 11 15  1  0  0  0  0
 13  5  1  0  0  0  0
 16 22  1  0  0  0  0
 17 16  1  0  0  0  0
 17 23  1  0  0  0  0
 18 17  2  0  0  0  0
 19 20  2  0  0  0  0
 19 18  1  0  0  0  0
 20 21  1  0  0  0  0
 21 26  1  0  0  0  0
 21 16  2  0  0  0  0
 24 19  1  0  0  0  0
 25 20  1  0  0  0  0
 26 27  2  0  0  0  0
 28  3  1  0  0  0  0
 28 26  1  0  0  0  0
 29 26  2  0  0  0  0
 30 31  1  0  0  0  0
 30 18  1  0  0  0  0
 30 32  1  0  0  0  0
 33 30  1  0  0  0  0
M  RAD  4   2   2   3   2   4   2  12   2
M  END
