Coordinates from ORCA-job 4-NO2PhN2+~TsO-_B3LYPG-6-31G_dp-CH-Scan-d09-49-n800
 OpenBabel11261919023D

 33 34  0  0  0  0  0  0  0  0999 V2000
   -2.7412    1.1000   -0.1653 C   0  0  0  0  0  0  0  0  0  0  0  0
   -3.8403    0.3427    0.3385 N   0  0  0  0  0  0  0  0  0  0  0  0
   -4.9684    0.7479    0.5176 N   0  0  0  0  0  0  0  0  0  0  0  0
   -2.7353    1.6100   -1.4658 C   0  0  0  0  0  0  0  0  0  0  0  0
   -1.6097    2.2384   -1.9729 C   0  0  0  0  0  0  0  0  0  0  0  0
   -0.4903    2.3525   -1.1467 C   0  0  0  0  0  0  0  0  0  0  0  0
    0.7090    3.0285   -1.6678 N   0  0  0  0  0  0  0  0  0  0  0  0
    0.6587    3.4697   -2.8149 O   0  0  0  0  0  0  0  0  0  0  0  0
    1.6852    3.1078   -0.9238 O   0  0  0  0  0  0  0  0  0  0  0  0
   -0.4666    1.8412    0.1496 C   0  0  0  0  0  0  0  0  0  0  0  0
   -1.5959    1.1903    0.6356 C   0  0  0  0  0  0  0  0  0  0  0  0
   -3.8494    1.4752   -2.2349 H   0  0  0  0  0  0  0  0  0  0  0  0
   -1.5789    2.6419   -2.9761 H   0  0  0  0  0  0  0  0  0  0  0  0
    0.4298    1.9464    0.7475 H   0  0  0  0  0  0  0  0  0  0  0  0
   -1.6047    0.7591    1.6302 H   0  0  0  0  0  0  0  0  0  0  0  0
   -6.0833    5.2608    1.1983 C   0  0  0  0  0  0  0  0  0  0  0  0
   -5.8809    6.6141    0.9417 C   0  0  0  0  0  0  0  0  0  0  0  0
   -6.0276    7.1381   -0.3518 C   0  0  0  0  0  0  0  0  0  0  0  0
   -6.3843    6.2676   -1.3927 C   0  0  0  0  0  0  0  0  0  0  0  0
   -6.5911    4.9105   -1.1584 C   0  0  0  0  0  0  0  0  0  0  0  0
   -6.4330    4.4207    0.1393 C   0  0  0  0  0  0  0  0  0  0  0  0
   -5.9816    4.8578    2.2000 H   0  0  0  0  0  0  0  0  0  0  0  0
   -5.6073    7.2760    1.7585 H   0  0  0  0  0  0  0  0  0  0  0  0
   -6.5060    6.6588   -2.3989 H   0  0  0  0  0  0  0  0  0  0  0  0
   -6.8803    4.2394   -1.9593 H   0  0  0  0  0  0  0  0  0  0  0  0
   -6.7012    2.6908    0.4556 S   0  0  0  0  0  0  0  0  0  0  0  0
   -7.0250    2.4834    1.8617 O   0  0  0  0  0  0  0  0  0  0  0  0
   -5.1007    2.2135    0.2091 O   0  0  0  0  0  0  0  0  0  0  0  0
   -7.5077    2.1071   -0.6104 O   0  0  0  0  0  0  0  0  0  0  0  0
   -5.8376    8.6125   -0.6113 C   0  0  0  0  0  0  0  0  0  0  0  0
   -6.7833    9.1545   -0.4871 H   0  0  0  0  0  0  0  0  0  0  0  0
   -5.1164    9.0523    0.0836 H   0  0  0  0  0  0  0  0  0  0  0  0
   -5.4885    8.7983   -1.6309 H   0  0  0  0  0  0  0  0  0  0  0  0
  1  2  1  0  0  0  0
  1 11  2  0  0  0  0
  2  3  1  0  0  0  0
  4  1  1  0  0  0  0
  5  4  2  0  0  0  0
  5  6  1  0  0  0  0
  6 10  2  0  0  0  0
  7  6  1  0  0  0  0
  7  9  2  0  0  0  0
  8  7  2  0  0  0  0
 10 11  1  0  0  0  0
 10 14  1  0  0  0  0
 11 15  1  0  0  0  0
 12  4  1  0  0  0  0
 13  5  1  0  0  0  0
 16 22  1  0  0  0  0
 17 16  1  0  0  0  0
 17 23  1  0  0  0  0
 18 17  2  0  0  0  0
 19 20  2  0  0  0  0
 19 18  1  0  0  0  0
 20 21  1  0  0  0  0
 21 26  1  0  0  0  0
 21 16  2  0  0  0  0
 24 19  1  0  0  0  0
 25 20  1  0  0  0  0
 26 27  2  0  0  0  0
 28 26  1  0  0  0  0
 28  3  1  0  0  0  0
 29 26  2  0  0  0  0
 30 31  1  0  0  0  0
 30 18  1  0  0  0  0
 30 32  1  0  0  0  0
 33 30  1  0  0  0  0
M  RAD  2   2   2   3   2
M  END
