Coordinates from ORCA-job 4-NO2PhN2+~TsO-_B3LYPG-6-31G_dp-CH-Scan-d09-49-n800
 OpenBabel11261919023D

 33 33  0  0  0  0  0  0  0  0999 V2000
   -2.7788    1.0904   -0.2392 C   0  0  0  0  0  0  0  0  0  0  0  0
   -3.8788    0.2704    0.1640 N   0  0  0  0  0  0  0  0  0  0  0  0
   -4.9910    0.7036    0.4122 N   0  0  0  0  0  0  0  0  0  0  0  0
   -2.6677    1.6863   -1.4746 C   0  0  0  0  0  0  0  0  0  0  0  0
   -1.6036    2.3928   -1.9539 C   0  0  0  0  0  0  0  0  0  0  0  0
   -0.5189    2.4897   -1.0668 C   0  0  0  0  0  0  0  0  0  0  0  0
    0.6775    3.2337   -1.5004 N   0  0  0  0  0  0  0  0  0  0  0  0
    0.6564    3.7358   -2.6220 O   0  0  0  0  0  0  0  0  0  0  0  0
    1.6157    3.3035   -0.7091 O   0  0  0  0  0  0  0  0  0  0  0  0
   -0.5362    1.9023    0.1980 C   0  0  0  0  0  0  0  0  0  0  0  0
   -1.6592    1.1891    0.6084 C   0  0  0  0  0  0  0  0  0  0  0  0
   -4.8725    1.3210   -3.1654 H   0  0  0  0  0  0  0  0  0  0  0  0
   -1.5571    2.8523   -2.9333 H   0  0  0  0  0  0  0  0  0  0  0  0
    0.3305    2.0037    0.8385 H   0  0  0  0  0  0  0  0  0  0  0  0
   -1.6929    0.7117    1.5828 H   0  0  0  0  0  0  0  0  0  0  0  0
   -6.0397    5.2766    1.2594 C   0  0  0  0  0  0  0  0  0  0  0  0
   -5.8239    6.6136    0.9329 C   0  0  0  0  0  0  0  0  0  0  0  0
   -5.9328    7.0642   -0.3909 C   0  0  0  0  0  0  0  0  0  0  0  0
   -6.2647    6.1375   -1.3920 C   0  0  0  0  0  0  0  0  0  0  0  0
   -6.4865    4.7975   -1.0891 C   0  0  0  0  0  0  0  0  0  0  0  0
   -6.3670    4.3822    0.2396 C   0  0  0  0  0  0  0  0  0  0  0  0
   -5.9643    4.9280    2.2835 H   0  0  0  0  0  0  0  0  0  0  0  0
   -5.5683    7.3191    1.7184 H   0  0  0  0  0  0  0  0  0  0  0  0
   -6.3540    6.4718   -2.4219 H   0  0  0  0  0  0  0  0  0  0  0  0
   -6.7517    4.0837   -1.8609 H   0  0  0  0  0  0  0  0  0  0  0  0
   -6.6562    2.6762    0.6416 S   0  0  0  0  0  0  0  0  0  0  0  0
   -6.8630    2.5224    2.0758 O   0  0  0  0  0  0  0  0  0  0  0  0
   -5.0671    2.1525    0.2923 O   0  0  0  0  0  0  0  0  0  0  0  0
   -7.5454    2.0660   -0.3365 O   0  0  0  0  0  0  0  0  0  0  0  0
   -5.7273    8.5200   -0.7308 C   0  0  0  0  0  0  0  0  0  0  0  0
   -6.6872    9.0490   -0.7693 H   0  0  0  0  0  0  0  0  0  0  0  0
   -5.1059    9.0228    0.0154 H   0  0  0  0  0  0  0  0  0  0  0  0
   -5.2519    8.6382   -1.7090 H   0  0  0  0  0  0  0  0  0  0  0  0
  1  2  1  0  0  0  0
  1 11  2  0  0  0  0
  2  3  1  0  0  0  0
  4  1  1  0  0  0  0
  5  4  2  0  0  0  0
  5  6  1  0  0  0  0
  6 10  2  0  0  0  0
  7  6  1  0  0  0  0
  7  9  2  0  0  0  0
  8  7  2  0  0  0  0
 10 11  1  0  0  0  0
 10 14  1  0  0  0  0
 11 15  1  0  0  0  0
 13  5  1  0  0  0  0
 16 22  1  0  0  0  0
 17 16  1  0  0  0  0
 17 23  1  0  0  0  0
 18 17  2  0  0  0  0
 19 20  2  0  0  0  0
 19 18  1  0  0  0  0
 20 21  1  0  0  0  0
 21 26  1  0  0  0  0
 21 16  2  0  0  0  0
 24 19  1  0  0  0  0
 25 20  1  0  0  0  0
 26 27  2  0  0  0  0
 28  3  1  0  0  0  0
 28 26  1  0  0  0  0
 29 26  2  0  0  0  0
 30 18  1  0  0  0  0
 30 32  1  0  0  0  0
 31 30  1  0  0  0  0
 33 30  1  0  0  0  0
M  RAD  4   2   2   3   2   4   2  12   2
M  END
