Coordinates from ORCA-job 4-NO2PhN2+~TsO-_B3LYPG-6-31G_dp-CH-Scan-d09-49-n800
 OpenBabel11261919023D

 33 33  0  0  0  0  0  0  0  0999 V2000
   -2.9095    0.7990   -0.9572 C   0  0  0  0  0  0  0  0  0  0  0  0
   -3.9062   -0.1822   -0.7475 N   0  0  0  0  0  0  0  0  0  0  0  0
   -4.6732   -0.9861   -0.6753 N   0  0  0  0  0  0  0  0  0  0  0  0
   -2.3267    0.6858   -2.2184 C   0  0  0  0  0  0  0  0  0  0  0  0
   -1.3418    1.7076   -2.3807 C   0  0  0  0  0  0  0  0  0  0  0  0
   -1.0477    2.6160   -1.3729 C   0  0  0  0  0  0  0  0  0  0  0  0
   -0.0320    3.6663   -1.6165 N   0  0  0  0  0  0  0  0  0  0  0  0
    0.7324    3.5197   -2.5660 O   0  0  0  0  0  0  0  0  0  0  0  0
   -0.0332    4.6413   -0.8601 O   0  0  0  0  0  0  0  0  0  0  0  0
   -1.6937    2.6323   -0.1160 C   0  0  0  0  0  0  0  0  0  0  0  0
   -2.6736    1.6894    0.1203 C   0  0  0  0  0  0  0  0  0  0  0  0
   -4.0575    4.0283   -0.2360 H   0  0  0  0  0  0  0  0  0  0  0  0
   -0.7965    1.8025   -3.3167 H   0  0  0  0  0  0  0  0  0  0  0  0
   -1.4085    3.3644    0.6284 H   0  0  0  0  0  0  0  0  0  0  0  0
   -3.2355    1.6594    1.0499 H   0  0  0  0  0  0  0  0  0  0  0  0
   -6.6690    5.2564    1.1529 C   0  0  0  0  0  0  0  0  0  0  0  0
   -6.4457    6.5491    0.6874 C   0  0  0  0  0  0  0  0  0  0  0  0
   -5.5445    6.8763   -0.3756 C   0  0  0  0  0  0  0  0  0  0  0  0
   -4.8739    5.8416   -0.9676 C   0  0  0  0  0  0  0  0  0  0  0  0
   -5.0444    4.4443   -0.5286 C   0  0  0  0  0  0  0  0  0  0  0  0
   -5.9884    4.1960    0.5708 C   0  0  0  0  0  0  0  0  0  0  0  0
   -7.3782    5.0555    1.9492 H   0  0  0  0  0  0  0  0  0  0  0  0
   -6.9938    7.3663    1.1529 H   0  0  0  0  0  0  0  0  0  0  0  0
   -4.1789    6.0315   -1.7818 H   0  0  0  0  0  0  0  0  0  0  0  0
   -5.2934    3.7738   -1.3702 H   0  0  0  0  0  0  0  0  0  0  0  0
   -6.1880    2.5095    1.2055 S   0  0  0  0  0  0  0  0  0  0  0  0
   -7.5314    2.4975    1.8004 O   0  0  0  0  0  0  0  0  0  0  0  0
   -5.0465    2.5199    2.1639 O   0  0  0  0  0  0  0  0  0  0  0  0
   -5.9763    1.6591    0.0122 O   0  0  0  0  0  0  0  0  0  0  0  0
   -5.3755    8.3141   -0.7978 C   0  0  0  0  0  0  0  0  0  0  0  0
   -6.3310    8.7463   -1.1138 H   0  0  0  0  0  0  0  0  0  0  0  0
   -4.9996    8.9241    0.0309 H   0  0  0  0  0  0  0  0  0  0  0  0
   -4.6717    8.4026   -1.6284 H   0  0  0  0  0  0  0  0  0  0  0  0
  1  2  1  0  0  0  0
  1 11  2  0  0  0  0
  2  3  1  0  0  0  0
  4  1  1  0  0  0  0
  5  4  2  0  0  0  0
  5  6  1  0  0  0  0
  6 10  2  0  0  0  0
  7  6  1  0  0  0  0
  7  9  2  0  0  0  0
  8  7  2  0  0  0  0
 10 11  1  0  0  0  0
 10 14  1  0  0  0  0
 11 15  1  0  0  0  0
 13  5  1  0  0  0  0
 16 22  1  0  0  0  0
 17 23  1  0  0  0  0
 17 16  1  0  0  0  0
 18 17  1  0  0  0  0
 19 20  1  0  0  0  0
 19 18  2  0  0  0  0
 20 12  1  0  0  0  0
 20 21  1  0  0  0  0
 21 16  2  0  0  0  0
 21 26  1  0  0  0  0
 24 19  1  0  0  0  0
 25 20  1  0  0  0  0
 26 27  2  0  0  0  0
 26 28  1  0  0  0  0
 29 26  2  0  0  0  0
 30 18  1  0  0  0  0
 30 32  1  0  0  0  0
 31 30  1  0  0  0  0
 33 30  1  0  0  0  0
M  RAD  5   2   2   3   3   4   2  17   2  28   2
M  END
