Coordinates from ORCA-job 4-NO2PhN2+~TsO-_B3LYPG-6-31G_dp-CH-Scan-d09-49-n800
 OpenBabel11261919023D

 33 33  0  0  0  0  0  0  0  0999 V2000
   -2.9106    0.7999   -0.9566 C   0  0  0  0  0  0  0  0  0  0  0  0
   -3.9064   -0.1824   -0.7470 N   0  0  0  0  0  0  0  0  0  0  0  0
   -4.6726   -0.9870   -0.6750 N   0  0  0  0  0  0  0  0  0  0  0  0
   -2.3291    0.6886   -2.2185 C   0  0  0  0  0  0  0  0  0  0  0  0
   -1.3453    1.7116   -2.3806 C   0  0  0  0  0  0  0  0  0  0  0  0
   -1.0518    2.6198   -1.3725 C   0  0  0  0  0  0  0  0  0  0  0  0
   -0.0382    3.6721   -1.6163 N   0  0  0  0  0  0  0  0  0  0  0  0
    0.7253    3.5277   -2.5669 O   0  0  0  0  0  0  0  0  0  0  0  0
   -0.0417    4.6475   -0.8604 O   0  0  0  0  0  0  0  0  0  0  0  0
   -1.6967    2.6340   -0.1150 C   0  0  0  0  0  0  0  0  0  0  0  0
   -2.6748    1.6894    0.1215 C   0  0  0  0  0  0  0  0  0  0  0  0
   -4.0556    4.0256   -0.2337 H   0  0  0  0  0  0  0  0  0  0  0  0
   -0.8005    1.8077   -3.3167 H   0  0  0  0  0  0  0  0  0  0  0  0
   -1.4120    3.3659    0.6297 H   0  0  0  0  0  0  0  0  0  0  0  0
   -3.2360    1.6579    1.0513 H   0  0  0  0  0  0  0  0  0  0  0  0
   -6.6678    5.2554    1.1518 C   0  0  0  0  0  0  0  0  0  0  0  0
   -6.4433    6.5478    0.6859 C   0  0  0  0  0  0  0  0  0  0  0  0
   -5.5409    6.8740   -0.3764 C   0  0  0  0  0  0  0  0  0  0  0  0
   -4.8703    5.8386   -0.9673 C   0  0  0  0  0  0  0  0  0  0  0  0
   -5.0419    4.4416   -0.5279 C   0  0  0  0  0  0  0  0  0  0  0  0
   -5.9873    4.1943    0.5708 C   0  0  0  0  0  0  0  0  0  0  0  0
   -7.3779    5.0553    1.9475 H   0  0  0  0  0  0  0  0  0  0  0  0
   -6.9914    7.3655    1.1506 H   0  0  0  0  0  0  0  0  0  0  0  0
   -4.1744    6.0278   -1.7809 H   0  0  0  0  0  0  0  0  0  0  0  0
   -5.2901    3.7707   -1.3693 H   0  0  0  0  0  0  0  0  0  0  0  0
   -6.1884    2.5083    1.2059 S   0  0  0  0  0  0  0  0  0  0  0  0
   -7.5324    2.4975    1.7996 O   0  0  0  0  0  0  0  0  0  0  0  0
   -5.0478    2.5185    2.1653 O   0  0  0  0  0  0  0  0  0  0  0  0
   -5.9764    1.6575    0.0131 O   0  0  0  0  0  0  0  0  0  0  0  0
   -5.3707    8.3115   -0.7990 C   0  0  0  0  0  0  0  0  0  0  0  0
   -6.3255    8.7442   -1.1161 H   0  0  0  0  0  0  0  0  0  0  0  0
   -4.9951    8.9217    0.0298 H   0  0  0  0  0  0  0  0  0  0  0  0
   -4.6660    8.3992   -1.6289 H   0  0  0  0  0  0  0  0  0  0  0  0
  1  2  1  0  0  0  0
  1 11  2  0  0  0  0
  2  3  1  0  0  0  0
  4  1  1  0  0  0  0
  5  4  2  0  0  0  0
  5  6  1  0  0  0  0
  6 10  2  0  0  0  0
  7  6  1  0  0  0  0
  7  9  2  0  0  0  0
  8  7  2  0  0  0  0
 10 11  1  0  0  0  0
 10 14  1  0  0  0  0
 11 15  1  0  0  0  0
 13  5  1  0  0  0  0
 16 22  1  0  0  0  0
 17 23  1  0  0  0  0
 17 16  1  0  0  0  0
 18 17  1  0  0  0  0
 19 20  1  0  0  0  0
 19 18  2  0  0  0  0
 20 12  1  0  0  0  0
 20 21  1  0  0  0  0
 21 16  2  0  0  0  0
 21 26  1  0  0  0  0
 24 19  1  0  0  0  0
 25 20  1  0  0  0  0
 26 27  2  0  0  0  0
 26 28  1  0  0  0  0
 29 26  2  0  0  0  0
 30 18  1  0  0  0  0
 30 32  1  0  0  0  0
 31 30  1  0  0  0  0
 33 30  1  0  0  0  0
M  RAD  5   2   2   3   3   4   2  17   2  28   2
M  END
