Coordinates from ORCA-job 4-NO2PhN2+~TsO-_B3LYPG-6-31G_dp-CH-Scan-d09-49-n800
 OpenBabel11261919023D

 33 33  0  0  0  0  0  0  0  0999 V2000
   -2.2251    1.1718   -0.3169 C   0  0  0  0  0  0  0  0  0  0  0  0
   -3.4923    0.7175    0.1073 N   0  0  0  0  0  0  0  0  0  0  0  0
   -4.5074    0.3903    0.4280 N   0  0  0  0  0  0  0  0  0  0  0  0
   -2.2626    2.3013   -1.1342 C   0  0  0  0  0  0  0  0  0  0  0  0
   -0.9433    2.6749   -1.5147 C   0  0  0  0  0  0  0  0  0  0  0  0
    0.1747    1.9604   -1.1054 C   0  0  0  0  0  0  0  0  0  0  0  0
    1.5215    2.4019   -1.5491 N   0  0  0  0  0  0  0  0  0  0  0  0
    1.5887    3.3863   -2.2806 O   0  0  0  0  0  0  0  0  0  0  0  0
    2.4909    1.7509   -1.1591 O   0  0  0  0  0  0  0  0  0  0  0  0
    0.1155    0.8225   -0.2758 C   0  0  0  0  0  0  0  0  0  0  0  0
   -1.1269    0.4011    0.1434 C   0  0  0  0  0  0  0  0  0  0  0  0
   -5.2054    4.2925   -1.1007 H   0  0  0  0  0  0  0  0  0  0  0  0
   -0.7765    3.5428   -2.1469 H   0  0  0  0  0  0  0  0  0  0  0  0
    1.0265    0.3154    0.0108 H   0  0  0  0  0  0  0  0  0  0  0  0
   -1.2499   -0.4652    0.7874 H   0  0  0  0  0  0  0  0  0  0  0  0
   -7.0039    5.6167    1.1808 C   0  0  0  0  0  0  0  0  0  0  0  0
   -6.9158    6.9037    0.6613 C   0  0  0  0  0  0  0  0  0  0  0  0
   -6.4893    7.2011   -0.6732 C   0  0  0  0  0  0  0  0  0  0  0  0
   -6.1576    6.1458   -1.4766 C   0  0  0  0  0  0  0  0  0  0  0  0
   -6.2096    4.7510   -0.9995 C   0  0  0  0  0  0  0  0  0  0  0  0
   -6.6648    4.5330    0.3806 C   0  0  0  0  0  0  0  0  0  0  0  0
   -7.3572    5.4371    2.1903 H   0  0  0  0  0  0  0  0  0  0  0  0
   -7.1961    7.7395    1.3002 H   0  0  0  0  0  0  0  0  0  0  0  0
   -5.8269    6.3154   -2.4980 H   0  0  0  0  0  0  0  0  0  0  0  0
   -6.7896    4.0957   -1.6721 H   0  0  0  0  0  0  0  0  0  0  0  0
   -6.7149    2.8452    1.0356 S   0  0  0  0  0  0  0  0  0  0  0  0
   -7.7765    2.8849    2.0556 O   0  0  0  0  0  0  0  0  0  0  0  0
   -5.3199    2.7895    1.5595 O   0  0  0  0  0  0  0  0  0  0  0  0
   -6.9618    2.0105   -0.1575 O   0  0  0  0  0  0  0  0  0  0  0  0
   -6.4301    8.6359   -1.1340 C   0  0  0  0  0  0  0  0  0  0  0  0
   -7.4139    9.1131   -1.0641 H   0  0  0  0  0  0  0  0  0  0  0  0
   -5.7408    9.2192   -0.5140 H   0  0  0  0  0  0  0  0  0  0  0  0
   -6.0933    8.7061   -2.1706 H   0  0  0  0  0  0  0  0  0  0  0  0
  1  2  1  0  0  0  0
  1 11  2  0  0  0  0
  2  3  1  0  0  0  0
  4  1  1  0  0  0  0
  5  4  2  0  0  0  0
  5  6  1  0  0  0  0
  6 10  2  0  0  0  0
  7  9  2  0  0  0  0
  7  6  1  0  0  0  0
  8  7  2  0  0  0  0
 10 14  1  0  0  0  0
 10 11  1  0  0  0  0
 11 15  1  0  0  0  0
 12 20  1  0  0  0  0
 13  5  1  0  0  0  0
 16 22  1  0  0  0  0
 17 16  1  0  0  0  0
 17 23  1  0  0  0  0
 18 17  1  0  0  0  0
 19 20  1  0  0  0  0
 19 18  2  0  0  0  0
 20 21  1  0  0  0  0
 21 26  1  0  0  0  0
 21 16  2  0  0  0  0
 24 19  1  0  0  0  0
 25 20  1  0  0  0  0
 26 28  2  0  0  0  0
 26 27  1  0  0  0  0
 29 26  2  0  0  0  0
 30 31  1  0  0  0  0
 30 18  1  0  0  0  0
 30 32  1  0  0  0  0
 33 30  1  0  0  0  0
M  RAD  5   2   2   3   3   4   2  17   2  27   2
M  END
