Coordinates from ORCA-job 4-NO2PhN2+~TsO-_B3LYPG-6-31G_dp-CH-Scan-d09-49-n800
 OpenBabel11261919023D

 33 33  0  0  0  0  0  0  0  0999 V2000
   -2.7764    1.0961   -0.2253 C   0  0  0  0  0  0  0  0  0  0  0  0
   -3.8726    0.2768    0.1874 N   0  0  0  0  0  0  0  0  0  0  0  0
   -4.9822    0.7088    0.4522 N   0  0  0  0  0  0  0  0  0  0  0  0
   -2.7037    1.7593   -1.4289 C   0  0  0  0  0  0  0  0  0  0  0  0
   -1.6456    2.4681   -1.9174 C   0  0  0  0  0  0  0  0  0  0  0  0
   -0.5211    2.4921   -1.0758 C   0  0  0  0  0  0  0  0  0  0  0  0
    0.6726    3.2337   -1.5216 N   0  0  0  0  0  0  0  0  0  0  0  0
    0.6124    3.8011   -2.6102 O   0  0  0  0  0  0  0  0  0  0  0  0
    1.6473    3.2363   -0.7726 O   0  0  0  0  0  0  0  0  0  0  0  0
   -0.4966    1.8340    0.1534 C   0  0  0  0  0  0  0  0  0  0  0  0
   -1.6169    1.1222    0.5731 C   0  0  0  0  0  0  0  0  0  0  0  0
   -4.9738    1.5336   -3.0823 H   0  0  0  0  0  0  0  0  0  0  0  0
   -1.6305    2.9793   -2.8717 H   0  0  0  0  0  0  0  0  0  0  0  0
    0.3999    1.8793    0.7584 H   0  0  0  0  0  0  0  0  0  0  0  0
   -1.6191    0.5897    1.5192 H   0  0  0  0  0  0  0  0  0  0  0  0
   -6.1264    5.2997    1.2733 C   0  0  0  0  0  0  0  0  0  0  0  0
   -5.9107    6.6336    0.9334 C   0  0  0  0  0  0  0  0  0  0  0  0
   -5.9320    7.0542   -0.4042 C   0  0  0  0  0  0  0  0  0  0  0  0
   -6.1746    6.1005   -1.4058 C   0  0  0  0  0  0  0  0  0  0  0  0
   -6.3959    4.7636   -1.0900 C   0  0  0  0  0  0  0  0  0  0  0  0
   -6.3654    4.3787    0.2530 C   0  0  0  0  0  0  0  0  0  0  0  0
   -6.1173    4.9731    2.3074 H   0  0  0  0  0  0  0  0  0  0  0  0
   -5.7236    7.3597    1.7195 H   0  0  0  0  0  0  0  0  0  0  0  0
   -6.1930    6.4113   -2.4469 H   0  0  0  0  0  0  0  0  0  0  0  0
   -6.5895    4.0290   -1.8638 H   0  0  0  0  0  0  0  0  0  0  0  0
   -6.6557    2.6770    0.6718 S   0  0  0  0  0  0  0  0  0  0  0  0
   -6.8875    2.5407    2.1039 O   0  0  0  0  0  0  0  0  0  0  0  0
   -5.0584    2.1569    0.3531 O   0  0  0  0  0  0  0  0  0  0  0  0
   -7.5241    2.0490   -0.3136 O   0  0  0  0  0  0  0  0  0  0  0  0
   -5.7273    8.5060   -0.7614 C   0  0  0  0  0  0  0  0  0  0  0  0
   -6.6909    9.0161   -0.8800 H   0  0  0  0  0  0  0  0  0  0  0  0
   -5.1698    9.0363    0.0158 H   0  0  0  0  0  0  0  0  0  0  0  0
   -5.1851    8.6120   -1.7056 H   0  0  0  0  0  0  0  0  0  0  0  0
  1  2  1  0  0  0  0
  1 11  2  0  0  0  0
  2  3  1  0  0  0  0
  4  1  1  0  0  0  0
  5  4  2  0  0  0  0
  5  6  1  0  0  0  0
  6 10  2  0  0  0  0
  7  6  1  0  0  0  0
  7  9  2  0  0  0  0
  8  7  2  0  0  0  0
 10 11  1  0  0  0  0
 10 14  1  0  0  0  0
 11 15  1  0  0  0  0
 13  5  1  0  0  0  0
 16 22  1  0  0  0  0
 17 16  1  0  0  0  0
 17 23  1  0  0  0  0
 18 17  2  0  0  0  0
 19 20  2  0  0  0  0
 19 18  1  0  0  0  0
 20 21  1  0  0  0  0
 21 26  1  0  0  0  0
 21 16  2  0  0  0  0
 24 19  1  0  0  0  0
 25 20  1  0  0  0  0
 26 27  2  0  0  0  0
 28  3  1  0  0  0  0
 28 26  1  0  0  0  0
 29 26  2  0  0  0  0
 30 18  1  0  0  0  0
 30 32  1  0  0  0  0
 31 30  1  0  0  0  0
 33 30  1  0  0  0  0
M  RAD  4   2   2   3   2   4   2  12   2
M  END
