Coordinates from ORCA-job 4-NO2PhN2+~TsO-_B3LYPG-6-31G_dp-CH-Scan-d09-49-n800
 OpenBabel11261919033D

 33 33  0  0  0  0  0  0  0  0999 V2000
   -2.8811    0.7698   -0.9679 C   0  0  0  0  0  0  0  0  0  0  0  0
   -3.9058   -0.1766   -0.7412 N   0  0  0  0  0  0  0  0  0  0  0  0
   -4.6957   -0.9564   -0.6532 N   0  0  0  0  0  0  0  0  0  0  0  0
   -2.2611    0.5805   -2.2022 C   0  0  0  0  0  0  0  0  0  0  0  0
   -1.2440    1.5652   -2.3837 C   0  0  0  0  0  0  0  0  0  0  0  0
   -0.9463    2.5051   -1.4060 C   0  0  0  0  0  0  0  0  0  0  0  0
    0.1174    3.5040   -1.6602 N   0  0  0  0  0  0  0  0  0  0  0  0
    0.8959    3.2930   -2.5862 O   0  0  0  0  0  0  0  0  0  0  0  0
    0.1417    4.5033   -0.9369 O   0  0  0  0  0  0  0  0  0  0  0  0
   -1.6302    2.6001   -0.1731 C   0  0  0  0  0  0  0  0  0  0  0  0
   -2.6498    1.7038    0.0736 C   0  0  0  0  0  0  0  0  0  0  0  0
   -4.0655    4.1305   -0.2064 H   0  0  0  0  0  0  0  0  0  0  0  0
   -0.6732    1.6035   -3.3083 H   0  0  0  0  0  0  0  0  0  0  0  0
   -1.3419    3.3553    0.5467 H   0  0  0  0  0  0  0  0  0  0  0  0
   -3.2388    1.7320    0.9868 H   0  0  0  0  0  0  0  0  0  0  0  0
   -6.7345    5.2721    1.1563 C   0  0  0  0  0  0  0  0  0  0  0  0
   -6.5431    6.5756    0.7063 C   0  0  0  0  0  0  0  0  0  0  0  0
   -5.6343    6.9399   -0.3381 C   0  0  0  0  0  0  0  0  0  0  0  0
   -4.9213    5.9322   -0.9270 C   0  0  0  0  0  0  0  0  0  0  0  0
   -5.0576    4.5249   -0.5055 C   0  0  0  0  0  0  0  0  0  0  0  0
   -6.0118    4.2387    0.5772 C   0  0  0  0  0  0  0  0  0  0  0  0
   -7.4500    5.0415    1.9389 H   0  0  0  0  0  0  0  0  0  0  0  0
   -7.1238    7.3714    1.1695 H   0  0  0  0  0  0  0  0  0  0  0  0
   -4.2186    6.1510   -1.7274 H   0  0  0  0  0  0  0  0  0  0  0  0
   -5.2829    3.8611   -1.3591 H   0  0  0  0  0  0  0  0  0  0  0  0
   -6.1717    2.5407    1.1908 S   0  0  0  0  0  0  0  0  0  0  0  0
   -7.5090    2.4921    1.7971 O   0  0  0  0  0  0  0  0  0  0  0  0
   -5.0216    2.5590    2.1388 O   0  0  0  0  0  0  0  0  0  0  0  0
   -5.9535    1.7124   -0.0170 O   0  0  0  0  0  0  0  0  0  0  0  0
   -5.5036    8.3861   -0.7448 C   0  0  0  0  0  0  0  0  0  0  0  0
   -6.4661    8.7896   -1.0773 H   0  0  0  0  0  0  0  0  0  0  0  0
   -5.1657    9.0008    0.0966 H   0  0  0  0  0  0  0  0  0  0  0  0
   -4.7860    8.5053   -1.5596 H   0  0  0  0  0  0  0  0  0  0  0  0
  1  2  1  0  0  0  0
  1 11  2  0  0  0  0
  2  3  1  0  0  0  0
  4  1  1  0  0  0  0
  5  4  2  0  0  0  0
  5  6  1  0  0  0  0
  6 10  2  0  0  0  0
  7  6  1  0  0  0  0
  7  9  2  0  0  0  0
  8  7  2  0  0  0  0
 10 11  1  0  0  0  0
 10 14  1  0  0  0  0
 11 15  1  0  0  0  0
 13  5  1  0  0  0  0
 16 22  1  0  0  0  0
 17 16  1  0  0  0  0
 17 23  1  0  0  0  0
 18 17  1  0  0  0  0
 19 20  1  0  0  0  0
 19 18  2  0  0  0  0
 20 12  1  0  0  0  0
 20 21  1  0  0  0  0
 21 16  2  0  0  0  0
 21 26  1  0  0  0  0
 24 19  1  0  0  0  0
 25 20  1  0  0  0  0
 26 27  2  0  0  0  0
 26 28  1  0  0  0  0
 29 26  2  0  0  0  0
 30 18  1  0  0  0  0
 30 32  1  0  0  0  0
 31 30  1  0  0  0  0
 33 30  1  0  0  0  0
M  RAD  5   2   2   3   3   4   2  17   2  28   2
M  END
