Coordinates from ORCA-job 4-NO2PhN2+~TsO-_B3LYPG-6-31G_dp-CH-Scan-d09-49-n800
 OpenBabel11261919023D

 33 33  0  0  0  0  0  0  0  0999 V2000
   -2.9890    0.8700   -0.9773 C   0  0  0  0  0  0  0  0  0  0  0  0
   -3.9550   -0.1515   -0.8121 N   0  0  0  0  0  0  0  0  0  0  0  0
   -4.6992   -0.9787   -0.7811 N   0  0  0  0  0  0  0  0  0  0  0  0
   -2.5064    0.9203   -2.2836 C   0  0  0  0  0  0  0  0  0  0  0  0
   -1.5483    1.9738   -2.3964 C   0  0  0  0  0  0  0  0  0  0  0  0
   -1.1941    2.7684   -1.3143 C   0  0  0  0  0  0  0  0  0  0  0  0
   -0.2216    3.8684   -1.5107 N   0  0  0  0  0  0  0  0  0  0  0  0
    0.4771    3.8465   -2.5199 O   0  0  0  0  0  0  0  0  0  0  0  0
   -0.1935    4.7577   -0.6559 O   0  0  0  0  0  0  0  0  0  0  0  0
   -1.7443    2.6255   -0.0204 C   0  0  0  0  0  0  0  0  0  0  0  0
   -2.6869    1.6357    0.1756 C   0  0  0  0  0  0  0  0  0  0  0  0
   -3.9969    3.9229   -0.1870 H   0  0  0  0  0  0  0  0  0  0  0  0
   -1.0737    2.1865   -3.3512 H   0  0  0  0  0  0  0  0  0  0  0  0
   -1.4227    3.2792    0.7799 H   0  0  0  0  0  0  0  0  0  0  0  0
   -3.1868    1.4974    1.1294 H   0  0  0  0  0  0  0  0  0  0  0  0
   -6.5941    5.2323    1.1251 C   0  0  0  0  0  0  0  0  0  0  0  0
   -6.3420    6.5045    0.6191 C   0  0  0  0  0  0  0  0  0  0  0  0
   -5.4301    6.7782   -0.4493 C   0  0  0  0  0  0  0  0  0  0  0  0
   -4.7786    5.7104   -1.0036 C   0  0  0  0  0  0  0  0  0  0  0  0
   -4.9762    4.3337   -0.5167 C   0  0  0  0  0  0  0  0  0  0  0  0
   -5.9336    4.1395    0.5811 C   0  0  0  0  0  0  0  0  0  0  0  0
   -7.3107    5.0719    1.9239 H   0  0  0  0  0  0  0  0  0  0  0  0
   -6.8748    7.3475    1.0555 H   0  0  0  0  0  0  0  0  0  0  0  0
   -4.0761    5.8588   -1.8200 H   0  0  0  0  0  0  0  0  0  0  0  0
   -5.2111    3.6308   -1.3347 H   0  0  0  0  0  0  0  0  0  0  0  0
   -6.1713    2.4792    1.2717 S   0  0  0  0  0  0  0  0  0  0  0  0
   -7.5082    2.5242    1.8801 O   0  0  0  0  0  0  0  0  0  0  0  0
   -5.0191    2.4833    2.2163 O   0  0  0  0  0  0  0  0  0  0  0  0
   -6.0001    1.5861    0.1028 O   0  0  0  0  0  0  0  0  0  0  0  0
   -5.2291    8.1971   -0.9184 C   0  0  0  0  0  0  0  0  0  0  0  0
   -6.1735    8.6381   -1.2549 H   0  0  0  0  0  0  0  0  0  0  0  0
   -4.8451    8.8268   -0.1083 H   0  0  0  0  0  0  0  0  0  0  0  0
   -4.5187    8.2430   -1.7468 H   0  0  0  0  0  0  0  0  0  0  0  0
  1  2  1  0  0  0  0
  1 11  2  0  0  0  0
  2  3  1  0  0  0  0
  4  1  1  0  0  0  0
  5  4  2  0  0  0  0
  5  6  1  0  0  0  0
  6 10  2  0  0  0  0
  7  6  1  0  0  0  0
  7  9  2  0  0  0  0
  8  7  2  0  0  0  0
 10 11  1  0  0  0  0
 10 14  1  0  0  0  0
 11 15  1  0  0  0  0
 13  5  1  0  0  0  0
 16 22  1  0  0  0  0
 17 23  1  0  0  0  0
 17 16  1  0  0  0  0
 18 17  1  0  0  0  0
 19 20  1  0  0  0  0
 19 18  2  0  0  0  0
 20 12  1  0  0  0  0
 20 21  1  0  0  0  0
 21 16  2  0  0  0  0
 21 26  1  0  0  0  0
 24 19  1  0  0  0  0
 25 20  1  0  0  0  0
 26 27  2  0  0  0  0
 26 28  1  0  0  0  0
 29 26  2  0  0  0  0
 30 18  1  0  0  0  0
 30 32  1  0  0  0  0
 31 30  1  0  0  0  0
 33 30  1  0  0  0  0
M  RAD  5   2   2   3   3   4   2  17   2  28   2
M  END
