Coordinates from ORCA-job 4-NO2PhN2+~TsO-_B3LYPG-6-31G_dp-CH-Scan-d09-49-n800
 OpenBabel11261919023D

 33 33  0  0  0  0  0  0  0  0999 V2000
   -2.8083    1.0755   -0.2836 C   0  0  0  0  0  0  0  0  0  0  0  0
   -3.9063    0.2573    0.1256 N   0  0  0  0  0  0  0  0  0  0  0  0
   -5.0180    0.6879    0.3680 N   0  0  0  0  0  0  0  0  0  0  0  0
   -2.6280    1.4749   -1.5934 C   0  0  0  0  0  0  0  0  0  0  0  0
   -1.5458    2.1699   -2.0675 C   0  0  0  0  0  0  0  0  0  0  0  0
   -0.5587    2.4699   -1.1193 C   0  0  0  0  0  0  0  0  0  0  0  0
    0.6336    3.2153   -1.5565 N   0  0  0  0  0  0  0  0  0  0  0  0
    0.6963    3.5404   -2.7406 O   0  0  0  0  0  0  0  0  0  0  0  0
    1.4876    3.4657   -0.7078 O   0  0  0  0  0  0  0  0  0  0  0  0
   -0.6665    2.0837    0.2162 C   0  0  0  0  0  0  0  0  0  0  0  0
   -1.7888    1.3740    0.6350 C   0  0  0  0  0  0  0  0  0  0  0  0
   -4.2120    0.9275   -2.9586 H   0  0  0  0  0  0  0  0  0  0  0  0
   -1.4309    2.4797   -3.0975 H   0  0  0  0  0  0  0  0  0  0  0  0
    0.1283    2.3377    0.9058 H   0  0  0  0  0  0  0  0  0  0  0  0
   -1.8903    1.0519    1.6662 H   0  0  0  0  0  0  0  0  0  0  0  0
   -5.9754    5.2411    1.2546 C   0  0  0  0  0  0  0  0  0  0  0  0
   -5.7504    6.5848    0.9654 C   0  0  0  0  0  0  0  0  0  0  0  0
   -5.9204    7.0864   -0.3335 C   0  0  0  0  0  0  0  0  0  0  0  0
   -6.3249    6.2040   -1.3477 C   0  0  0  0  0  0  0  0  0  0  0  0
   -6.5562    4.8576   -1.0815 C   0  0  0  0  0  0  0  0  0  0  0  0
   -6.3735    4.3903    0.2221 C   0  0  0  0  0  0  0  0  0  0  0  0
   -5.8538    4.8544    2.2603 H   0  0  0  0  0  0  0  0  0  0  0  0
   -5.4398    7.2561    1.7609 H   0  0  0  0  0  0  0  0  0  0  0  0
   -6.4639    6.5782   -2.3581 H   0  0  0  0  0  0  0  0  0  0  0  0
   -6.8794    4.1780   -1.8619 H   0  0  0  0  0  0  0  0  0  0  0  0
   -6.6722    2.6747    0.5774 S   0  0  0  0  0  0  0  0  0  0  0  0
   -6.8796    2.4845    2.0075 O   0  0  0  0  0  0  0  0  0  0  0  0
   -5.0948    2.1469    0.2114 O   0  0  0  0  0  0  0  0  0  0  0  0
   -7.5721    2.1018   -0.4146 O   0  0  0  0  0  0  0  0  0  0  0  0
   -5.7038    8.5500   -0.6304 C   0  0  0  0  0  0  0  0  0  0  0  0
   -6.6512    9.1006   -0.5829 H   0  0  0  0  0  0  0  0  0  0  0  0
   -5.0214    9.0090    0.0903 H   0  0  0  0  0  0  0  0  0  0  0  0
   -5.2930    8.6977   -1.6335 H   0  0  0  0  0  0  0  0  0  0  0  0
  1  2  1  0  0  0  0
  1 11  2  0  0  0  0
  2  3  1  0  0  0  0
  4  1  1  0  0  0  0
  5  4  2  0  0  0  0
  5  6  1  0  0  0  0
  6 10  2  0  0  0  0
  7  6  1  0  0  0  0
  7  9  2  0  0  0  0
  8  7  2  0  0  0  0
 10 11  1  0  0  0  0
 10 14  1  0  0  0  0
 11 15  1  0  0  0  0
 13  5  1  0  0  0  0
 16 22  1  0  0  0  0
 17 16  1  0  0  0  0
 17 23  1  0  0  0  0
 18 17  2  0  0  0  0
 19 20  2  0  0  0  0
 19 18  1  0  0  0  0
 20 21  1  0  0  0  0
 21 26  1  0  0  0  0
 21 16  2  0  0  0  0
 24 19  1  0  0  0  0
 25 20  1  0  0  0  0
 26 27  2  0  0  0  0
 28  3  1  0  0  0  0
 28 26  1  0  0  0  0
 29 26  2  0  0  0  0
 30 31  1  0  0  0  0
 30 18  1  0  0  0  0
 30 32  1  0  0  0  0
 33 30  1  0  0  0  0
M  RAD  4   2   2   3   2   4   2  12   2
M  END
