Coordinates from ORCA-job 4-NO2PhN2+~TsO-_B3LYPG-6-31G_dp-CH-Scan-d09-49-n800
 OpenBabel11261919023D

 33 33  0  0  0  0  0  0  0  0999 V2000
   -2.8017    1.0751   -0.2667 C   0  0  0  0  0  0  0  0  0  0  0  0
   -3.8985    0.2666    0.1626 N   0  0  0  0  0  0  0  0  0  0  0  0
   -5.0129    0.6929    0.3938 N   0  0  0  0  0  0  0  0  0  0  0  0
   -2.6552    1.4697   -1.5872 C   0  0  0  0  0  0  0  0  0  0  0  0
   -1.5628    2.1560   -2.0641 C   0  0  0  0  0  0  0  0  0  0  0  0
   -0.5587    2.4482   -1.1342 C   0  0  0  0  0  0  0  0  0  0  0  0
    0.6316    3.1848   -1.5894 N   0  0  0  0  0  0  0  0  0  0  0  0
    0.6781    3.5111   -2.7742 O   0  0  0  0  0  0  0  0  0  0  0  0
    1.5018    3.4281   -0.7550 O   0  0  0  0  0  0  0  0  0  0  0  0
   -0.6463    2.0620    0.2025 C   0  0  0  0  0  0  0  0  0  0  0  0
   -1.7672    1.3598    0.6367 C   0  0  0  0  0  0  0  0  0  0  0  0
   -4.0414    1.0216   -2.7535 H   0  0  0  0  0  0  0  0  0  0  0  0
   -1.4595    2.4663   -3.0949 H   0  0  0  0  0  0  0  0  0  0  0  0
    0.1619    2.3085    0.8793 H   0  0  0  0  0  0  0  0  0  0  0  0
   -1.8541    1.0348    1.6679 H   0  0  0  0  0  0  0  0  0  0  0  0
   -5.9956    5.2399    1.2446 C   0  0  0  0  0  0  0  0  0  0  0  0
   -5.7716    6.5858    0.9658 C   0  0  0  0  0  0  0  0  0  0  0  0
   -5.9338    7.0956   -0.3311 C   0  0  0  0  0  0  0  0  0  0  0  0
   -6.3291    6.2190   -1.3535 C   0  0  0  0  0  0  0  0  0  0  0  0
   -6.5589    4.8702   -1.0975 C   0  0  0  0  0  0  0  0  0  0  0  0
   -6.3842    4.3946    0.2039 C   0  0  0  0  0  0  0  0  0  0  0  0
   -5.8804    4.8472    2.2487 H   0  0  0  0  0  0  0  0  0  0  0  0
   -5.4680    7.2525    1.7679 H   0  0  0  0  0  0  0  0  0  0  0  0
   -6.4623    6.5995   -2.3624 H   0  0  0  0  0  0  0  0  0  0  0  0
   -6.8758    4.1950   -1.8843 H   0  0  0  0  0  0  0  0  0  0  0  0
   -6.6808    2.6756    0.5463 S   0  0  0  0  0  0  0  0  0  0  0  0
   -6.9182    2.4797    1.9710 O   0  0  0  0  0  0  0  0  0  0  0  0
   -5.0985    2.1560    0.2089 O   0  0  0  0  0  0  0  0  0  0  0  0
   -7.5599    2.1042   -0.4659 O   0  0  0  0  0  0  0  0  0  0  0  0
   -5.7189    8.5618   -0.6161 C   0  0  0  0  0  0  0  0  0  0  0  0
   -6.6638    9.1143   -0.5448 H   0  0  0  0  0  0  0  0  0  0  0  0
   -5.0224    9.0114    0.0972 H   0  0  0  0  0  0  0  0  0  0  0  0
   -5.3263    8.7199   -1.6247 H   0  0  0  0  0  0  0  0  0  0  0  0
  1  2  1  0  0  0  0
  1 11  2  0  0  0  0
  2  3  1  0  0  0  0
  4  1  1  0  0  0  0
  5  4  2  0  0  0  0
  5  6  1  0  0  0  0
  6 10  2  0  0  0  0
  7  6  1  0  0  0  0
  7  9  2  0  0  0  0
  8  7  2  0  0  0  0
 10 11  1  0  0  0  0
 10 14  1  0  0  0  0
 11 15  1  0  0  0  0
 13  5  1  0  0  0  0
 16 22  1  0  0  0  0
 17 16  1  0  0  0  0
 17 23  1  0  0  0  0
 18 17  2  0  0  0  0
 19 20  2  0  0  0  0
 19 18  1  0  0  0  0
 20 21  1  0  0  0  0
 21 26  1  0  0  0  0
 21 16  2  0  0  0  0
 24 19  1  0  0  0  0
 25 20  1  0  0  0  0
 26 27  2  0  0  0  0
 28  3  1  0  0  0  0
 28 26  1  0  0  0  0
 29 26  2  0  0  0  0
 30 31  1  0  0  0  0
 30 18  1  0  0  0  0
 30 32  1  0  0  0  0
 33 30  1  0  0  0  0
M  RAD  4   2   2   3   2   4   2  12   2
M  END
