Coordinates from ORCA-job 4-NO2PhN2+~TsO-_B3LYPG-6-31G_dp-CH-Scan-d09-49-n800
 OpenBabel11261919033D

 33 33  0  0  0  0  0  0  0  0999 V2000
   -2.8367    0.7166   -0.9924 C   0  0  0  0  0  0  0  0  0  0  0  0
   -3.9167   -0.1593   -0.7473 N   0  0  0  0  0  0  0  0  0  0  0  0
   -4.7495   -0.8907   -0.6405 N   0  0  0  0  0  0  0  0  0  0  0  0
   -2.1800    0.4152   -2.1848 C   0  0  0  0  0  0  0  0  0  0  0  0
   -1.1019    1.3247   -2.3880 C   0  0  0  0  0  0  0  0  0  0  0  0
   -0.7843    2.3050   -1.4566 C   0  0  0  0  0  0  0  0  0  0  0  0
    0.3536    3.2160   -1.7238 N   0  0  0  0  0  0  0  0  0  0  0  0
    1.1331    2.9136   -2.6234 O   0  0  0  0  0  0  0  0  0  0  0  0
    0.4380    4.2370   -1.0369 O   0  0  0  0  0  0  0  0  0  0  0  0
   -1.5081    2.5188   -0.2629 C   0  0  0  0  0  0  0  0  0  0  0  0
   -2.5900    1.7034   -0.0041 C   0  0  0  0  0  0  0  0  0  0  0  0
   -4.0600    4.3369   -0.1187 H   0  0  0  0  0  0  0  0  0  0  0  0
   -0.4957    1.2708   -3.2886 H   0  0  0  0  0  0  0  0  0  0  0  0
   -1.2021    3.3009    0.4199 H   0  0  0  0  0  0  0  0  0  0  0  0
   -3.2081    1.8194    0.8827 H   0  0  0  0  0  0  0  0  0  0  0  0
   -6.8483    5.2973    1.1476 C   0  0  0  0  0  0  0  0  0  0  0  0
   -6.7215    6.6174    0.7213 C   0  0  0  0  0  0  0  0  0  0  0  0
   -5.7945    7.0523   -0.2791 C   0  0  0  0  0  0  0  0  0  0  0  0
   -4.9930    6.1006   -0.8468 C   0  0  0  0  0  0  0  0  0  0  0  0
   -5.0589    4.6797   -0.4506 C   0  0  0  0  0  0  0  0  0  0  0  0
   -6.0384    4.3204    0.5889 C   0  0  0  0  0  0  0  0  0  0  0  0
   -7.5780    5.0104    1.8980 H   0  0  0  0  0  0  0  0  0  0  0  0
   -7.3699    7.3685    1.1693 H   0  0  0  0  0  0  0  0  0  0  0  0
   -4.2721    6.3747   -1.6133 H   0  0  0  0  0  0  0  0  0  0  0  0
   -5.2191    4.0228   -1.3241 H   0  0  0  0  0  0  0  0  0  0  0  0
   -6.1173    2.6057    1.1694 S   0  0  0  0  0  0  0  0  0  0  0  0
   -7.4384    2.4878    1.8011 O   0  0  0  0  0  0  0  0  0  0  0  0
   -4.9475    2.6410    2.0915 O   0  0  0  0  0  0  0  0  0  0  0  0
   -5.8937    1.8176   -0.0652 O   0  0  0  0  0  0  0  0  0  0  0  0
   -5.7411    8.5094   -0.6639 C   0  0  0  0  0  0  0  0  0  0  0  0
   -6.7102    8.8511   -1.0434 H   0  0  0  0  0  0  0  0  0  0  0  0
   -5.4917    9.1343    0.2004 H   0  0  0  0  0  0  0  0  0  0  0  0
   -4.9916    8.6882   -1.4380 H   0  0  0  0  0  0  0  0  0  0  0  0
  1  2  1  0  0  0  0
  1 11  2  0  0  0  0
  2  3  1  0  0  0  0
  4  1  1  0  0  0  0
  5  4  2  0  0  0  0
  5  6  1  0  0  0  0
  6 10  2  0  0  0  0
  7  6  1  0  0  0  0
  7  9  2  0  0  0  0
  8  7  2  0  0  0  0
 10 11  1  0  0  0  0
 10 14  1  0  0  0  0
 11 15  1  0  0  0  0
 13  5  1  0  0  0  0
 16 22  1  0  0  0  0
 17 16  1  0  0  0  0
 17 23  1  0  0  0  0
 18 17  1  0  0  0  0
 19 20  1  0  0  0  0
 19 18  2  0  0  0  0
 20 12  1  0  0  0  0
 20 21  1  0  0  0  0
 21 16  2  0  0  0  0
 21 26  1  0  0  0  0
 24 19  1  0  0  0  0
 25 20  1  0  0  0  0
 26 27  2  0  0  0  0
 26 28  1  0  0  0  0
 29 26  2  0  0  0  0
 30 18  1  0  0  0  0
 30 32  1  0  0  0  0
 31 30  1  0  0  0  0
 33 30  1  0  0  0  0
M  RAD  5   2   2   3   3   4   2  17   2  28   2
M  END
