Coordinates from ORCA-job 4-NO2PhN2+~TsO-_B3LYPG-6-31G_dp-CH-Scan-d09-49-n800
 OpenBabel11261919023D

 33 33  0  0  0  0  0  0  0  0999 V2000
   -2.2206    1.1665   -0.3244 C   0  0  0  0  0  0  0  0  0  0  0  0
   -3.4898    0.7141    0.0959 N   0  0  0  0  0  0  0  0  0  0  0  0
   -4.5069    0.3895    0.4130 N   0  0  0  0  0  0  0  0  0  0  0  0
   -2.2560    2.2892   -1.1512 C   0  0  0  0  0  0  0  0  0  0  0  0
   -0.9352    2.6620   -1.5273 C   0  0  0  0  0  0  0  0  0  0  0  0
    0.1818    1.9529   -1.1059 C   0  0  0  0  0  0  0  0  0  0  0  0
    1.5302    2.3933   -1.5456 N   0  0  0  0  0  0  0  0  0  0  0  0
    1.6002    3.3743   -2.2813 O   0  0  0  0  0  0  0  0  0  0  0  0
    2.4987    1.7482   -1.1436 O   0  0  0  0  0  0  0  0  0  0  0  0
    0.1201    0.8217   -0.2673 C   0  0  0  0  0  0  0  0  0  0  0  0
   -1.1238    0.4014    0.1485 C   0  0  0  0  0  0  0  0  0  0  0  0
   -5.2118    4.2967   -1.1046 H   0  0  0  0  0  0  0  0  0  0  0  0
   -0.7663    3.5249   -2.1658 H   0  0  0  0  0  0  0  0  0  0  0  0
    1.0304    0.3188    0.0285 H   0  0  0  0  0  0  0  0  0  0  0  0
   -1.2489   -0.4597    0.7989 H   0  0  0  0  0  0  0  0  0  0  0  0
   -7.0058    5.6192    1.1829 C   0  0  0  0  0  0  0  0  0  0  0  0
   -6.9202    6.9066    0.6640 C   0  0  0  0  0  0  0  0  0  0  0  0
   -6.4962    7.2054   -0.6710 C   0  0  0  0  0  0  0  0  0  0  0  0
   -6.1647    6.1511   -1.4757 C   0  0  0  0  0  0  0  0  0  0  0  0
   -6.2151    4.7558   -0.9997 C   0  0  0  0  0  0  0  0  0  0  0  0
   -6.6670    4.5365    0.3815 C   0  0  0  0  0  0  0  0  0  0  0  0
   -7.3568    5.4384    2.1931 H   0  0  0  0  0  0  0  0  0  0  0  0
   -7.2004    7.7417    1.3039 H   0  0  0  0  0  0  0  0  0  0  0  0
   -5.8359    6.3219   -2.4975 H   0  0  0  0  0  0  0  0  0  0  0  0
   -6.7982    4.1019   -1.6712 H   0  0  0  0  0  0  0  0  0  0  0  0
   -6.7123    2.8481    1.0350 S   0  0  0  0  0  0  0  0  0  0  0  0
   -7.7637    2.8863    2.0654 O   0  0  0  0  0  0  0  0  0  0  0  0
   -5.3121    2.7924    1.5449 O   0  0  0  0  0  0  0  0  0  0  0  0
   -6.9708    2.0151   -0.1568 O   0  0  0  0  0  0  0  0  0  0  0  0
   -6.4392    8.6407   -1.1307 C   0  0  0  0  0  0  0  0  0  0  0  0
   -7.4236    9.1166   -1.0596 H   0  0  0  0  0  0  0  0  0  0  0  0
   -5.7501    9.2244   -0.5110 H   0  0  0  0  0  0  0  0  0  0  0  0
   -6.1035    8.7121   -2.1676 H   0  0  0  0  0  0  0  0  0  0  0  0
  1  2  1  0  0  0  0
  1 11  2  0  0  0  0
  2  3  1  0  0  0  0
  4  1  1  0  0  0  0
  5  4  2  0  0  0  0
  5  6  1  0  0  0  0
  6 10  2  0  0  0  0
  7  9  2  0  0  0  0
  7  6  1  0  0  0  0
  8  7  2  0  0  0  0
 10 14  1  0  0  0  0
 10 11  1  0  0  0  0
 11 15  1  0  0  0  0
 12 20  1  0  0  0  0
 13  5  1  0  0  0  0
 16 22  1  0  0  0  0
 17 16  1  0  0  0  0
 17 23  1  0  0  0  0
 18 17  1  0  0  0  0
 19 20  1  0  0  0  0
 19 18  2  0  0  0  0
 20 21  1  0  0  0  0
 21 26  1  0  0  0  0
 21 16  2  0  0  0  0
 24 19  1  0  0  0  0
 25 20  1  0  0  0  0
 26 28  2  0  0  0  0
 26 27  1  0  0  0  0
 29 26  2  0  0  0  0
 30 31  1  0  0  0  0
 30 18  1  0  0  0  0
 30 32  1  0  0  0  0
 33 30  1  0  0  0  0
M  RAD  5   2   2   3   3   4   2  17   2  27   2
M  END
