Coordinates from ORCA-job 4-NO2PhN2+~TsO-_B3LYPG-6-31G_dp-CH-Scan-d09-49-n800
 OpenBabel11261919023D

 33 33  0  0  0  0  0  0  0  0999 V2000
   -2.8044    1.0783   -0.2793 C   0  0  0  0  0  0  0  0  0  0  0  0
   -3.9032    0.2578    0.1246 N   0  0  0  0  0  0  0  0  0  0  0  0
   -5.0147    0.6899    0.3677 N   0  0  0  0  0  0  0  0  0  0  0  0
   -2.6244    1.5041   -1.5785 C   0  0  0  0  0  0  0  0  0  0  0  0
   -1.5474    2.2015   -2.0541 C   0  0  0  0  0  0  0  0  0  0  0  0
   -0.5509    2.4774   -1.1067 C   0  0  0  0  0  0  0  0  0  0  0  0
    0.6428    3.2241   -1.5394 N   0  0  0  0  0  0  0  0  0  0  0  0
    0.6986    3.5701   -2.7178 O   0  0  0  0  0  0  0  0  0  0  0  0
    1.5040    3.4538   -0.6923 O   0  0  0  0  0  0  0  0  0  0  0  0
   -0.6517    2.0662    0.2219 C   0  0  0  0  0  0  0  0  0  0  0  0
   -1.7744    1.3546    0.6362 C   0  0  0  0  0  0  0  0  0  0  0  0
   -4.3585    0.9390   -3.0553 H   0  0  0  0  0  0  0  0  0  0  0  0
   -1.4390    2.5300   -3.0793 H   0  0  0  0  0  0  0  0  0  0  0  0
    0.1498    2.3025    0.9101 H   0  0  0  0  0  0  0  0  0  0  0  0
   -1.8704    1.0137    1.6620 H   0  0  0  0  0  0  0  0  0  0  0  0
   -5.9744    5.2448    1.2556 C   0  0  0  0  0  0  0  0  0  0  0  0
   -5.7506    6.5874    0.9602 C   0  0  0  0  0  0  0  0  0  0  0  0
   -5.9199    7.0824   -0.3414 C   0  0  0  0  0  0  0  0  0  0  0  0
   -6.3221    6.1946   -1.3518 C   0  0  0  0  0  0  0  0  0  0  0  0
   -6.5522    4.8493   -1.0794 C   0  0  0  0  0  0  0  0  0  0  0  0
   -6.3705    4.3887    0.2268 C   0  0  0  0  0  0  0  0  0  0  0  0
   -5.8533    4.8631    2.2633 H   0  0  0  0  0  0  0  0  0  0  0  0
   -5.4417    7.2629    1.7527 H   0  0  0  0  0  0  0  0  0  0  0  0
   -6.4603    6.5636   -2.3642 H   0  0  0  0  0  0  0  0  0  0  0  0
   -6.8734    4.1655   -1.8569 H   0  0  0  0  0  0  0  0  0  0  0  0
   -6.6681    2.6748    0.5902 S   0  0  0  0  0  0  0  0  0  0  0  0
   -6.8679    2.4896    2.0218 O   0  0  0  0  0  0  0  0  0  0  0  0
   -5.0901    2.1458    0.2193 O   0  0  0  0  0  0  0  0  0  0  0  0
   -7.5714    2.0973   -0.3957 O   0  0  0  0  0  0  0  0  0  0  0  0
   -5.7047    8.5447   -0.6454 C   0  0  0  0  0  0  0  0  0  0  0  0
   -6.6541    9.0927   -0.6108 H   0  0  0  0  0  0  0  0  0  0  0  0
   -5.0307    9.0104    0.0789 H   0  0  0  0  0  0  0  0  0  0  0  0
   -5.2845    8.6872   -1.6454 H   0  0  0  0  0  0  0  0  0  0  0  0
  1  2  1  0  0  0  0
  1 11  2  0  0  0  0
  2  3  1  0  0  0  0
  4  1  1  0  0  0  0
  5  4  2  0  0  0  0
  5  6  1  0  0  0  0
  6 10  2  0  0  0  0
  7  6  1  0  0  0  0
  7  9  2  0  0  0  0
  8  7  2  0  0  0  0
 10 11  1  0  0  0  0
 10 14  1  0  0  0  0
 11 15  1  0  0  0  0
 13  5  1  0  0  0  0
 16 22  1  0  0  0  0
 17 16  1  0  0  0  0
 17 23  1  0  0  0  0
 18 17  2  0  0  0  0
 19 20  2  0  0  0  0
 19 18  1  0  0  0  0
 20 21  1  0  0  0  0
 21 26  1  0  0  0  0
 21 16  2  0  0  0  0
 24 19  1  0  0  0  0
 25 20  1  0  0  0  0
 26 27  2  0  0  0  0
 28  3  1  0  0  0  0
 28 26  1  0  0  0  0
 29 26  2  0  0  0  0
 30 31  1  0  0  0  0
 30 18  1  0  0  0  0
 30 32  1  0  0  0  0
 33 30  1  0  0  0  0
M  RAD  4   2   2   3   2   4   2  12   2
M  END
