Coordinates from ORCA-job 4-NO2PhN2+~TsO-_B3LYPG-6-31G_dp-CH-Scan-d09-49-n800
 OpenBabel11261919023D

 33 34  0  0  0  0  0  0  0  0999 V2000
   -2.7572    1.0931   -0.1842 C   0  0  0  0  0  0  0  0  0  0  0  0
   -3.8529    0.3225    0.3079 N   0  0  0  0  0  0  0  0  0  0  0  0
   -4.9787    0.7322    0.4964 N   0  0  0  0  0  0  0  0  0  0  0  0
   -2.7228    1.5583   -1.4987 C   0  0  0  0  0  0  0  0  0  0  0  0
   -1.6073    2.2030   -2.0026 C   0  0  0  0  0  0  0  0  0  0  0  0
   -0.5151    2.3783   -1.1499 C   0  0  0  0  0  0  0  0  0  0  0  0
    0.6784    3.0713   -1.6615 N   0  0  0  0  0  0  0  0  0  0  0  0
    0.6493    3.4677   -2.8255 O   0  0  0  0  0  0  0  0  0  0  0  0
    1.6280    3.2107   -0.8923 O   0  0  0  0  0  0  0  0  0  0  0  0
   -0.5144    1.9134    0.1640 C   0  0  0  0  0  0  0  0  0  0  0  0
   -1.6381    1.2476    0.6438 C   0  0  0  0  0  0  0  0  0  0  0  0
   -3.8836    1.3471   -2.3427 H   0  0  0  0  0  0  0  0  0  0  0  0
   -1.5615    2.5722   -3.0182 H   0  0  0  0  0  0  0  0  0  0  0  0
    0.3610    2.0666    0.7822 H   0  0  0  0  0  0  0  0  0  0  0  0
   -1.6621    0.8539    1.6537 H   0  0  0  0  0  0  0  0  0  0  0  0
   -6.0684    5.2507    1.2095 C   0  0  0  0  0  0  0  0  0  0  0  0
   -5.8575    6.6027    0.9524 C   0  0  0  0  0  0  0  0  0  0  0  0
   -5.9980    7.1265   -0.3418 C   0  0  0  0  0  0  0  0  0  0  0  0
   -6.3575    6.2573   -1.3830 C   0  0  0  0  0  0  0  0  0  0  0  0
   -6.5729    4.9018   -1.1483 C   0  0  0  0  0  0  0  0  0  0  0  0
   -6.4207    4.4121    0.1502 C   0  0  0  0  0  0  0  0  0  0  0  0
   -5.9712    4.8477    2.2116 H   0  0  0  0  0  0  0  0  0  0  0  0
   -5.5818    7.2635    1.7692 H   0  0  0  0  0  0  0  0  0  0  0  0
   -6.4741    6.6484   -2.3898 H   0  0  0  0  0  0  0  0  0  0  0  0
   -6.8636    4.2318   -1.9496 H   0  0  0  0  0  0  0  0  0  0  0  0
   -6.6991    2.6841    0.4667 S   0  0  0  0  0  0  0  0  0  0  0  0
   -7.0150    2.4770    1.8746 O   0  0  0  0  0  0  0  0  0  0  0  0
   -5.1007    2.1969    0.2108 O   0  0  0  0  0  0  0  0  0  0  0  0
   -7.5144    2.1056   -0.5952 O   0  0  0  0  0  0  0  0  0  0  0  0
   -5.7985    8.5994   -0.6024 C   0  0  0  0  0  0  0  0  0  0  0  0
   -6.7440    9.1452   -0.4946 H   0  0  0  0  0  0  0  0  0  0  0  0
   -5.0864    9.0385    0.1021 H   0  0  0  0  0  0  0  0  0  0  0  0
   -5.4330    8.7808   -1.6171 H   0  0  0  0  0  0  0  0  0  0  0  0
  1  2  1  0  0  0  0
  1 11  2  0  0  0  0
  2  3  1  0  0  0  0
  4  1  1  0  0  0  0
  5  4  2  0  0  0  0
  5  6  1  0  0  0  0
  6 10  2  0  0  0  0
  7  6  1  0  0  0  0
  7  9  2  0  0  0  0
  8  7  2  0  0  0  0
 10 11  1  0  0  0  0
 10 14  1  0  0  0  0
 11 15  1  0  0  0  0
 12  4  1  0  0  0  0
 13  5  1  0  0  0  0
 16 22  1  0  0  0  0
 17 16  1  0  0  0  0
 17 23  1  0  0  0  0
 18 17  2  0  0  0  0
 19 20  2  0  0  0  0
 19 18  1  0  0  0  0
 20 21  1  0  0  0  0
 21 26  1  0  0  0  0
 21 16  2  0  0  0  0
 24 19  1  0  0  0  0
 25 20  1  0  0  0  0
 26 27  2  0  0  0  0
 28 26  1  0  0  0  0
 28  3  1  0  0  0  0
 29 26  2  0  0  0  0
 30 31  1  0  0  0  0
 30 18  1  0  0  0  0
 30 32  1  0  0  0  0
 33 30  1  0  0  0  0
M  RAD  2   2   2   3   2
M  END
