Coordinates from ORCA-job 4-NO2PhN2+~TsO-_B3LYPG-6-31G_dp-CH-Scan-d09-49-n800
 OpenBabel11261919023D

 33 33  0  0  0  0  0  0  0  0999 V2000
   -2.2037    1.1412   -0.3697 C   0  0  0  0  0  0  0  0  0  0  0  0
   -3.4829    0.6938    0.0256 N   0  0  0  0  0  0  0  0  0  0  0  0
   -4.5095    0.3745    0.3166 N   0  0  0  0  0  0  0  0  0  0  0  0
   -2.2264    2.2130   -1.2618 C   0  0  0  0  0  0  0  0  0  0  0  0
   -0.8971    2.5849   -1.6104 C   0  0  0  0  0  0  0  0  0  0  0  0
    0.2133    1.9210   -1.1062 C   0  0  0  0  0  0  0  0  0  0  0  0
    1.5709    2.3577   -1.5206 N   0  0  0  0  0  0  0  0  0  0  0  0
    1.6546    3.2958   -2.3090 O   0  0  0  0  0  0  0  0  0  0  0  0
    2.5328    1.7529   -1.0463 O   0  0  0  0  0  0  0  0  0  0  0  0
    0.1368    0.8399   -0.2048 C   0  0  0  0  0  0  0  0  0  0  0  0
   -1.1155    0.4232    0.1886 C   0  0  0  0  0  0  0  0  0  0  0  0
   -5.2485    4.3151   -1.1343 H   0  0  0  0  0  0  0  0  0  0  0  0
   -0.7166    3.4112   -2.2928 H   0  0  0  0  0  0  0  0  0  0  0  0
    1.0427    0.3712    0.1539 H   0  0  0  0  0  0  0  0  0  0  0  0
   -1.2529   -0.4000    0.8842 H   0  0  0  0  0  0  0  0  0  0  0  0
   -7.0035    5.6264    1.1962 C   0  0  0  0  0  0  0  0  0  0  0  0
   -6.9294    6.9170    0.6834 C   0  0  0  0  0  0  0  0  0  0  0  0
   -6.5254    7.2254   -0.6559 C   0  0  0  0  0  0  0  0  0  0  0  0
   -6.2030    6.1770   -1.4717 C   0  0  0  0  0  0  0  0  0  0  0  0
   -6.2462    4.7779   -1.0048 C   0  0  0  0  0  0  0  0  0  0  0  0
   -6.6733    4.5494    0.3835 C   0  0  0  0  0  0  0  0  0  0  0  0
   -7.3371    5.4378    2.2109 H   0  0  0  0  0  0  0  0  0  0  0  0
   -7.2025    7.7475    1.3323 H   0  0  0  0  0  0  0  0  0  0  0  0
   -5.8893    6.3549   -2.4971 H   0  0  0  0  0  0  0  0  0  0  0  0
   -6.8489    4.1338   -1.6686 H   0  0  0  0  0  0  0  0  0  0  0  0
   -6.6992    2.8569    1.0269 S   0  0  0  0  0  0  0  0  0  0  0  0
   -7.6966    2.8921    2.1094 O   0  0  0  0  0  0  0  0  0  0  0  0
   -5.2748    2.7926    1.4646 O   0  0  0  0  0  0  0  0  0  0  0  0
   -7.0216    2.0356   -0.1571 O   0  0  0  0  0  0  0  0  0  0  0  0
   -6.4783    8.6637   -1.1070 C   0  0  0  0  0  0  0  0  0  0  0  0
   -7.4635    9.1357   -1.0219 H   0  0  0  0  0  0  0  0  0  0  0  0
   -5.7844    9.2458   -0.4913 H   0  0  0  0  0  0  0  0  0  0  0  0
   -6.1546    8.7429   -2.1471 H   0  0  0  0  0  0  0  0  0  0  0  0
  1  2  1  0  0  0  0
  1 11  2  0  0  0  0
  2  3  1  0  0  0  0
  4  1  1  0  0  0  0
  5  4  2  0  0  0  0
  5  6  1  0  0  0  0
  6 10  2  0  0  0  0
  7  6  1  0  0  0  0
  7  9  2  0  0  0  0
  8  7  2  0  0  0  0
 10 14  1  0  0  0  0
 10 11  1  0  0  0  0
 11 15  1  0  0  0  0
 12 20  1  0  0  0  0
 13  5  1  0  0  0  0
 16 22  1  0  0  0  0
 17 16  1  0  0  0  0
 17 23  1  0  0  0  0
 18 17  1  0  0  0  0
 19 20  1  0  0  0  0
 19 18  2  0  0  0  0
 20 21  1  0  0  0  0
 21 26  1  0  0  0  0
 21 16  2  0  0  0  0
 24 19  1  0  0  0  0
 25 20  1  0  0  0  0
 26 28  2  0  0  0  0
 26 27  1  0  0  0  0
 29 26  2  0  0  0  0
 30 31  1  0  0  0  0
 30 18  1  0  0  0  0
 30 32  1  0  0  0  0
 33 30  1  0  0  0  0
M  RAD  5   2   2   3   3   4   2  17   2  27   2
M  END
