Coordinates from ORCA-job 4-NO2PhN2+~TsO-_B3LYPG-6-31G_dp-CH-Scan-d09-49-n800
 OpenBabel11261919023D

 33 33  0  0  0  0  0  0  0  0999 V2000
   -2.2081    1.1503   -0.3520 C   0  0  0  0  0  0  0  0  0  0  0  0
   -3.4839    0.7020    0.0529 N   0  0  0  0  0  0  0  0  0  0  0  0
   -4.5072    0.3818    0.3540 N   0  0  0  0  0  0  0  0  0  0  0  0
   -2.2352    2.2446   -1.2163 C   0  0  0  0  0  0  0  0  0  0  0  0
   -0.9088    2.6158   -1.5754 C   0  0  0  0  0  0  0  0  0  0  0  0
    0.2040    1.9312   -1.1055 C   0  0  0  0  0  0  0  0  0  0  0  0
    1.5585    2.3685   -1.5294 N   0  0  0  0  0  0  0  0  0  0  0  0
    1.6374    3.3266   -2.2939 O   0  0  0  0  0  0  0  0  0  0  0  0
    2.5227    1.7440   -1.0865 O   0  0  0  0  0  0  0  0  0  0  0  0
    0.1327    0.8280   -0.2310 C   0  0  0  0  0  0  0  0  0  0  0  0
   -1.1167    0.4106    0.1708 C   0  0  0  0  0  0  0  0  0  0  0  0
   -5.2354    4.3097   -1.1227 H   0  0  0  0  0  0  0  0  0  0  0  0
   -0.7324    3.4583   -2.2389 H   0  0  0  0  0  0  0  0  0  0  0  0
    1.0403    0.3435    0.1017 H   0  0  0  0  0  0  0  0  0  0  0  0
   -1.2497   -0.4293    0.8471 H   0  0  0  0  0  0  0  0  0  0  0  0
   -7.0062    5.6252    1.1911 C   0  0  0  0  0  0  0  0  0  0  0  0
   -6.9286    6.9144    0.6755 C   0  0  0  0  0  0  0  0  0  0  0  0
   -6.5170    7.2189   -0.6623 C   0  0  0  0  0  0  0  0  0  0  0  0
   -6.1903    6.1682   -1.4735 C   0  0  0  0  0  0  0  0  0  0  0  0
   -6.2355    4.7707   -1.0026 C   0  0  0  0  0  0  0  0  0  0  0  0
   -6.6720    4.5459    0.3831 C   0  0  0  0  0  0  0  0  0  0  0  0
   -7.3464    5.4397    2.2042 H   0  0  0  0  0  0  0  0  0  0  0  0
   -7.2050    7.7467    1.3206 H   0  0  0  0  0  0  0  0  0  0  0  0
   -5.8709    6.3432   -2.4976 H   0  0  0  0  0  0  0  0  0  0  0  0
   -6.8307    4.1225   -1.6692 H   0  0  0  0  0  0  0  0  0  0  0  0
   -6.7039    2.8552    1.0310 S   0  0  0  0  0  0  0  0  0  0  0  0
   -7.7201    2.8916    2.0959 O   0  0  0  0  0  0  0  0  0  0  0  0
   -5.2873    2.7947    1.4936 O   0  0  0  0  0  0  0  0  0  0  0  0
   -7.0041    2.0290   -0.1556 O   0  0  0  0  0  0  0  0  0  0  0  0
   -6.4671    8.6559   -1.1172 C   0  0  0  0  0  0  0  0  0  0  0  0
   -7.4523    9.1288   -1.0379 H   0  0  0  0  0  0  0  0  0  0  0  0
   -5.7755    9.2394   -0.5000 H   0  0  0  0  0  0  0  0  0  0  0  0
   -6.1386    8.7321   -2.1561 H   0  0  0  0  0  0  0  0  0  0  0  0
  1  2  1  0  0  0  0
  1 11  2  0  0  0  0
  2  3  1  0  0  0  0
  4  1  1  0  0  0  0
  5  4  2  0  0  0  0
  5  6  1  0  0  0  0
  6 10  2  0  0  0  0
  7  6  1  0  0  0  0
  7  9  2  0  0  0  0
  8  7  2  0  0  0  0
 10 14  1  0  0  0  0
 10 11  1  0  0  0  0
 11 15  1  0  0  0  0
 12 20  1  0  0  0  0
 13  5  1  0  0  0  0
 16 22  1  0  0  0  0
 17 16  1  0  0  0  0
 17 23  1  0  0  0  0
 18 17  1  0  0  0  0
 19 20  1  0  0  0  0
 19 18  2  0  0  0  0
 20 21  1  0  0  0  0
 21 26  1  0  0  0  0
 21 16  2  0  0  0  0
 24 19  1  0  0  0  0
 25 20  1  0  0  0  0
 26 28  2  0  0  0  0
 26 27  1  0  0  0  0
 29 26  2  0  0  0  0
 30 31  1  0  0  0  0
 30 18  1  0  0  0  0
 30 32  1  0  0  0  0
 33 30  1  0  0  0  0
M  RAD  5   2   2   3   3   4   2  17   2  27   2
M  END
