Coordinates from ORCA-job 4-NO2PhN2+~TsO-_B3LYPG-6-31G_dp-CH-Scan-d09-49-n800
 OpenBabel11261919023D

 33 33  0  0  0  0  0  0  0  0999 V2000
   -2.7843    1.0888   -0.2455 C   0  0  0  0  0  0  0  0  0  0  0  0
   -3.8829    0.2681    0.1601 N   0  0  0  0  0  0  0  0  0  0  0  0
   -4.9958    0.7004    0.4039 N   0  0  0  0  0  0  0  0  0  0  0  0
   -2.6541    1.6312   -1.5040 C   0  0  0  0  0  0  0  0  0  0  0  0
   -1.5879    2.3341   -1.9864 C   0  0  0  0  0  0  0  0  0  0  0  0
   -0.5277    2.4880   -1.0788 C   0  0  0  0  0  0  0  0  0  0  0  0
    0.6670    3.2326   -1.5150 N   0  0  0  0  0  0  0  0  0  0  0  0
    0.6718    3.6739   -2.6622 O   0  0  0  0  0  0  0  0  0  0  0  0
    1.5858    3.3488   -0.7065 O   0  0  0  0  0  0  0  0  0  0  0  0
   -0.5675    1.9569    0.2100 C   0  0  0  0  0  0  0  0  0  0  0  0
   -1.6893    1.2440    0.6246 C   0  0  0  0  0  0  0  0  0  0  0  0
   -4.7446    1.1927   -3.1428 H   0  0  0  0  0  0  0  0  0  0  0  0
   -1.5253    2.7520   -2.9831 H   0  0  0  0  0  0  0  0  0  0  0  0
    0.2809    2.1015    0.8666 H   0  0  0  0  0  0  0  0  0  0  0  0
   -1.7394    0.8099    1.6183 H   0  0  0  0  0  0  0  0  0  0  0  0
   -6.0211    5.2644    1.2571 C   0  0  0  0  0  0  0  0  0  0  0  0
   -5.8020    6.6036    0.9424 C   0  0  0  0  0  0  0  0  0  0  0  0
   -5.9284    7.0700   -0.3744 C   0  0  0  0  0  0  0  0  0  0  0  0
   -6.2819    6.1569   -1.3806 C   0  0  0  0  0  0  0  0  0  0  0  0
   -6.5069    4.8148   -1.0894 C   0  0  0  0  0  0  0  0  0  0  0  0
   -6.3692    4.3834    0.2323 C   0  0  0  0  0  0  0  0  0  0  0  0
   -5.9325    4.9041    2.2760 H   0  0  0  0  0  0  0  0  0  0  0  0
   -5.5301    7.2986    1.7317 H   0  0  0  0  0  0  0  0  0  0  0  0
   -6.3855    6.5036   -2.4050 H   0  0  0  0  0  0  0  0  0  0  0  0
   -6.7892    4.1112   -1.8644 H   0  0  0  0  0  0  0  0  0  0  0  0
   -6.6614    2.6743    0.6193 S   0  0  0  0  0  0  0  0  0  0  0  0
   -6.8731    2.5091    2.0516 O   0  0  0  0  0  0  0  0  0  0  0  0
   -5.0733    2.1508    0.2708 O   0  0  0  0  0  0  0  0  0  0  0  0
   -7.5493    2.0743   -0.3666 O   0  0  0  0  0  0  0  0  0  0  0  0
   -5.7191    8.5283   -0.7008 C   0  0  0  0  0  0  0  0  0  0  0  0
   -6.6759    9.0640   -0.7167 H   0  0  0  0  0  0  0  0  0  0  0  0
   -5.0816    9.0182    0.0405 H   0  0  0  0  0  0  0  0  0  0  0  0
   -5.2596    8.6551   -1.6855 H   0  0  0  0  0  0  0  0  0  0  0  0
  1  2  1  0  0  0  0
  1 11  2  0  0  0  0
  2  3  1  0  0  0  0
  4  1  1  0  0  0  0
  5  4  2  0  0  0  0
  5  6  1  0  0  0  0
  6 10  2  0  0  0  0
  7  6  1  0  0  0  0
  7  9  2  0  0  0  0
  8  7  2  0  0  0  0
 10 11  1  0  0  0  0
 10 14  1  0  0  0  0
 11 15  1  0  0  0  0
 13  5  1  0  0  0  0
 16 22  1  0  0  0  0
 17 16  1  0  0  0  0
 17 23  1  0  0  0  0
 18 17  2  0  0  0  0
 19 20  2  0  0  0  0
 19 18  1  0  0  0  0
 20 21  1  0  0  0  0
 21 26  1  0  0  0  0
 21 16  2  0  0  0  0
 24 19  1  0  0  0  0
 25 20  1  0  0  0  0
 26 27  2  0  0  0  0
 28  3  1  0  0  0  0
 28 26  1  0  0  0  0
 29 26  2  0  0  0  0
 30 18  1  0  0  0  0
 30 32  1  0  0  0  0
 31 30  1  0  0  0  0
 33 30  1  0  0  0  0
M  RAD  4   2   2   3   2   4   2  12   2
M  END
