Coordinates from ORCA-job 4-NO2PhN2+~TsO-_B3LYPG-6-31G_dp-CH-Scan-d09-49-n800
 OpenBabel11261919023D

 33 33  0  0  0  0  0  0  0  0999 V2000
   -2.9027    0.7950   -0.9593 C   0  0  0  0  0  0  0  0  0  0  0  0
   -3.9053   -0.1788   -0.7452 N   0  0  0  0  0  0  0  0  0  0  0  0
   -4.6770   -0.9779   -0.6691 N   0  0  0  0  0  0  0  0  0  0  0  0
   -2.3095    0.6628   -2.2139 C   0  0  0  0  0  0  0  0  0  0  0  0
   -1.3169    1.6760   -2.3808 C   0  0  0  0  0  0  0  0  0  0  0  0
   -1.0219    2.5918   -1.3799 C   0  0  0  0  0  0  0  0  0  0  0  0
    0.0070    3.6286   -1.6253 N   0  0  0  0  0  0  0  0  0  0  0  0
    0.7752    3.4658   -2.5692 O   0  0  0  0  0  0  0  0  0  0  0  0
    0.0130    4.6092   -0.8763 O   0  0  0  0  0  0  0  0  0  0  0  0
   -1.6788    2.6279   -0.1291 C   0  0  0  0  0  0  0  0  0  0  0  0
   -2.6692    1.6968    0.1094 C   0  0  0  0  0  0  0  0  0  0  0  0
   -4.0646    4.0470   -0.2370 H   0  0  0  0  0  0  0  0  0  0  0  0
   -0.7651    1.7574   -3.3142 H   0  0  0  0  0  0  0  0  0  0  0  0
   -1.3932    3.3658    0.6095 H   0  0  0  0  0  0  0  0  0  0  0  0
   -3.2388    1.6813    1.0349 H   0  0  0  0  0  0  0  0  0  0  0  0
   -6.6821    5.2601    1.1567 C   0  0  0  0  0  0  0  0  0  0  0  0
   -6.4650    6.5552    0.6948 C   0  0  0  0  0  0  0  0  0  0  0  0
   -5.5652    6.8897   -0.3671 C   0  0  0  0  0  0  0  0  0  0  0  0
   -4.8890    5.8600   -0.9616 C   0  0  0  0  0  0  0  0  0  0  0  0
   -5.0529    4.4604   -0.5269 C   0  0  0  0  0  0  0  0  0  0  0  0
   -5.9959    4.2047    0.5721 C   0  0  0  0  0  0  0  0  0  0  0  0
   -7.3905    5.0534    1.9522 H   0  0  0  0  0  0  0  0  0  0  0  0
   -7.0174    7.3684    1.1623 H   0  0  0  0  0  0  0  0  0  0  0  0
   -4.1949    6.0557   -1.7752 H   0  0  0  0  0  0  0  0  0  0  0  0
   -5.3013    3.7924   -1.3708 H   0  0  0  0  0  0  0  0  0  0  0  0
   -6.1875    2.5156    1.2015 S   0  0  0  0  0  0  0  0  0  0  0  0
   -7.5298    2.4959    1.7987 O   0  0  0  0  0  0  0  0  0  0  0  0
   -5.0444    2.5272    2.1581 O   0  0  0  0  0  0  0  0  0  0  0  0
   -5.9743    1.6701    0.0050 O   0  0  0  0  0  0  0  0  0  0  0  0
   -5.4035    8.3294   -0.7854 C   0  0  0  0  0  0  0  0  0  0  0  0
   -6.3612    8.7576   -1.1003 H   0  0  0  0  0  0  0  0  0  0  0  0
   -5.0310    8.9392    0.0450 H   0  0  0  0  0  0  0  0  0  0  0  0
   -4.7001    8.4239   -1.6156 H   0  0  0  0  0  0  0  0  0  0  0  0
  1  2  1  0  0  0  0
  1 11  2  0  0  0  0
  2  3  1  0  0  0  0
  4  1  1  0  0  0  0
  5  4  2  0  0  0  0
  5  6  1  0  0  0  0
  6 10  2  0  0  0  0
  7  6  1  0  0  0  0
  7  9  2  0  0  0  0
  8  7  2  0  0  0  0
 10 11  1  0  0  0  0
 10 14  1  0  0  0  0
 11 15  1  0  0  0  0
 13  5  1  0  0  0  0
 16 22  1  0  0  0  0
 17 16  1  0  0  0  0
 17 23  1  0  0  0  0
 18 17  1  0  0  0  0
 19 20  1  0  0  0  0
 19 18  2  0  0  0  0
 20 12  1  0  0  0  0
 20 21  1  0  0  0  0
 21 16  2  0  0  0  0
 21 26  1  0  0  0  0
 24 19  1  0  0  0  0
 25 20  1  0  0  0  0
 26 27  2  0  0  0  0
 26 28  1  0  0  0  0
 29 26  2  0  0  0  0
 30 18  1  0  0  0  0
 30 32  1  0  0  0  0
 31 30  1  0  0  0  0
 33 30  1  0  0  0  0
M  RAD  5   2   2   3   3   4   2  17   2  28   2
M  END
