Coordinates from ORCA-job 4-NO2PhN2+~TsO-_B3LYPG-6-31G_dp-CH-Scan-d09-49-n800
 OpenBabel11261919033D

 33 33  0  0  0  0  0  0  0  0999 V2000
   -2.8738    0.7591   -0.9714 C   0  0  0  0  0  0  0  0  0  0  0  0
   -3.9068   -0.1770   -0.7413 N   0  0  0  0  0  0  0  0  0  0  0  0
   -4.7034   -0.9496   -0.6499 N   0  0  0  0  0  0  0  0  0  0  0  0
   -2.2458    0.5511   -2.1988 C   0  0  0  0  0  0  0  0  0  0  0  0
   -1.2201    1.5255   -2.3845 C   0  0  0  0  0  0  0  0  0  0  0  0
   -0.9215    2.4736   -1.4148 C   0  0  0  0  0  0  0  0  0  0  0  0
    0.1530    3.4602   -1.6720 N   0  0  0  0  0  0  0  0  0  0  0  0
    0.9339    3.2340   -2.5923 O   0  0  0  0  0  0  0  0  0  0  0  0
    0.1838    4.4650   -0.9566 O   0  0  0  0  0  0  0  0  0  0  0  0
   -1.6134    2.5879   -0.1882 C   0  0  0  0  0  0  0  0  0  0  0  0
   -2.6423    1.7031    0.0611 C   0  0  0  0  0  0  0  0  0  0  0  0
   -4.0628    4.1637   -0.1916 H   0  0  0  0  0  0  0  0  0  0  0  0
   -0.6427    1.5491   -3.3054 H   0  0  0  0  0  0  0  0  0  0  0  0
   -1.3240    3.3486    0.5253 H   0  0  0  0  0  0  0  0  0  0  0  0
   -3.2371    1.7455    0.9700 H   0  0  0  0  0  0  0  0  0  0  0  0
   -6.7529    5.2763    1.1548 C   0  0  0  0  0  0  0  0  0  0  0  0
   -6.5716    6.5828    0.7087 C   0  0  0  0  0  0  0  0  0  0  0  0
   -5.6589    6.9584   -0.3282 C   0  0  0  0  0  0  0  0  0  0  0  0
   -4.9309    5.9594   -0.9135 C   0  0  0  0  0  0  0  0  0  0  0  0
   -5.0562    4.5496   -0.4962 C   0  0  0  0  0  0  0  0  0  0  0  0
   -6.0155    4.2517    0.5791 C   0  0  0  0  0  0  0  0  0  0  0  0
   -7.4715    5.0367    1.9318 H   0  0  0  0  0  0  0  0  0  0  0  0
   -7.1638    7.3716    1.1693 H   0  0  0  0  0  0  0  0  0  0  0  0
   -4.2245    6.1870   -1.7081 H   0  0  0  0  0  0  0  0  0  0  0  0
   -5.2706    3.8865   -1.3533 H   0  0  0  0  0  0  0  0  0  0  0  0
   -6.1631    2.5507    1.1874 S   0  0  0  0  0  0  0  0  0  0  0  0
   -7.4985    2.4912    1.7970 O   0  0  0  0  0  0  0  0  0  0  0  0
   -5.0104    2.5718    2.1321 O   0  0  0  0  0  0  0  0  0  0  0  0
   -5.9430    1.7285   -0.0244 O   0  0  0  0  0  0  0  0  0  0  0  0
   -5.5405    8.4067   -0.7313 C   0  0  0  0  0  0  0  0  0  0  0  0
   -6.5043    8.7999   -1.0721 H   0  0  0  0  0  0  0  0  0  0  0  0
   -5.2176    9.0237    0.1144 H   0  0  0  0  0  0  0  0  0  0  0  0
   -4.8167    8.5354   -1.5391 H   0  0  0  0  0  0  0  0  0  0  0  0
  1  2  1  0  0  0  0
  1 11  2  0  0  0  0
  2  3  1  0  0  0  0
  4  1  1  0  0  0  0
  5  4  2  0  0  0  0
  5  6  1  0  0  0  0
  6 10  2  0  0  0  0
  7  6  1  0  0  0  0
  7  9  2  0  0  0  0
  8  7  2  0  0  0  0
 10 11  1  0  0  0  0
 10 14  1  0  0  0  0
 11 15  1  0  0  0  0
 13  5  1  0  0  0  0
 16 22  1  0  0  0  0
 17 16  1  0  0  0  0
 17 23  1  0  0  0  0
 18 17  1  0  0  0  0
 19 20  1  0  0  0  0
 19 18  2  0  0  0  0
 20 12  1  0  0  0  0
 20 21  1  0  0  0  0
 21 16  2  0  0  0  0
 21 26  1  0  0  0  0
 24 19  1  0  0  0  0
 25 20  1  0  0  0  0
 26 27  2  0  0  0  0
 26 28  1  0  0  0  0
 29 26  2  0  0  0  0
 30 18  1  0  0  0  0
 30 32  1  0  0  0  0
 31 30  1  0  0  0  0
 33 30  1  0  0  0  0
M  RAD  5   2   2   3   3   4   2  17   2  28   2
M  END
