Coordinates from ORCA-job 4-NO2PhN2+~TsO-_B3LYPG-6-31G_dp-CH-Scan-d09-49-n800
 OpenBabel11261919023D

 33 33  0  0  0  0  0  0  0  0999 V2000
   -2.7436    1.0989   -0.1750 C   0  0  0  0  0  0  0  0  0  0  0  0
   -3.8444    0.2918    0.2479 N   0  0  0  0  0  0  0  0  0  0  0  0
   -4.9548    0.7290    0.5097 N   0  0  0  0  0  0  0  0  0  0  0  0
   -2.7243    1.9305   -1.2697 C   0  0  0  0  0  0  0  0  0  0  0  0
   -1.6673    2.6444   -1.7496 C   0  0  0  0  0  0  0  0  0  0  0  0
   -0.4750    2.4769   -1.0247 C   0  0  0  0  0  0  0  0  0  0  0  0
    0.7257    3.2091   -1.4719 N   0  0  0  0  0  0  0  0  0  0  0  0
    0.6121    3.9337   -2.4577 O   0  0  0  0  0  0  0  0  0  0  0  0
    1.7588    3.0427   -0.8274 O   0  0  0  0  0  0  0  0  0  0  0  0
   -0.3897    1.6378    0.0858 C   0  0  0  0  0  0  0  0  0  0  0  0
   -1.5172    0.9349    0.4997 C   0  0  0  0  0  0  0  0  0  0  0  0
   -5.2687    2.0999   -3.0895 H   0  0  0  0  0  0  0  0  0  0  0  0
   -1.6961    3.2911   -2.6185 H   0  0  0  0  0  0  0  0  0  0  0  0
    0.5566    1.5378    0.6015 H   0  0  0  0  0  0  0  0  0  0  0  0
   -1.4789    0.2626    1.3520 H   0  0  0  0  0  0  0  0  0  0  0  0
   -6.1647    5.3303    1.2562 C   0  0  0  0  0  0  0  0  0  0  0  0
   -5.9676    6.6583    0.8839 C   0  0  0  0  0  0  0  0  0  0  0  0
   -5.9729    7.0422   -0.4651 C   0  0  0  0  0  0  0  0  0  0  0  0
   -6.1786    6.0573   -1.4442 C   0  0  0  0  0  0  0  0  0  0  0  0
   -6.3816    4.7253   -1.0965 C   0  0  0  0  0  0  0  0  0  0  0  0
   -6.3685    4.3777    0.2571 C   0  0  0  0  0  0  0  0  0  0  0  0
   -6.1679    5.0317    2.2987 H   0  0  0  0  0  0  0  0  0  0  0  0
   -5.8081    7.4086    1.6532 H   0  0  0  0  0  0  0  0  0  0  0  0
   -6.1822    6.3390   -2.4937 H   0  0  0  0  0  0  0  0  0  0  0  0
   -6.5426    3.9666   -1.8554 H   0  0  0  0  0  0  0  0  0  0  0  0
   -6.6415    2.6846    0.7184 S   0  0  0  0  0  0  0  0  0  0  0  0
   -6.8657    2.5811    2.1544 O   0  0  0  0  0  0  0  0  0  0  0  0
   -5.0361    2.1700    0.4080 O   0  0  0  0  0  0  0  0  0  0  0  0
   -7.5046    2.0214   -0.2476 O   0  0  0  0  0  0  0  0  0  0  0  0
   -5.7905    8.4878   -0.8575 C   0  0  0  0  0  0  0  0  0  0  0  0
   -6.7619    8.9827   -0.9774 H   0  0  0  0  0  0  0  0  0  0  0  0
   -5.2325    9.0429   -0.0982 H   0  0  0  0  0  0  0  0  0  0  0  0
   -5.2593    8.5792   -1.8093 H   0  0  0  0  0  0  0  0  0  0  0  0
  1  2  1  0  0  0  0
  1 11  2  0  0  0  0
  2  3  1  0  0  0  0
  4  1  1  0  0  0  0
  5  4  2  0  0  0  0
  5  6  1  0  0  0  0
  6 10  2  0  0  0  0
  7  6  1  0  0  0  0
  7  9  2  0  0  0  0
  8  7  2  0  0  0  0
 10 11  1  0  0  0  0
 10 14  1  0  0  0  0
 11 15  1  0  0  0  0
 13  5  1  0  0  0  0
 16 22  1  0  0  0  0
 17 16  1  0  0  0  0
 17 23  1  0  0  0  0
 18 17  2  0  0  0  0
 19 20  2  0  0  0  0
 19 18  1  0  0  0  0
 20 21  1  0  0  0  0
 21 26  1  0  0  0  0
 21 16  2  0  0  0  0
 24 19  1  0  0  0  0
 25 20  1  0  0  0  0
 26 27  2  0  0  0  0
 28  3  1  0  0  0  0
 28 26  1  0  0  0  0
 29 26  2  0  0  0  0
 30 18  1  0  0  0  0
 30 32  1  0  0  0  0
 31 30  1  0  0  0  0
 33 30  1  0  0  0  0
M  RAD  4   2   2   3   2   4   2  12   2
M  END
