Coordinates from ORCA-job 4-NO2PhN2+~TsO-_B3LYPG-6-31G_dp-CH-Scan-d09-49-n800
 OpenBabel11261919023D

 33 33  0  0  0  0  0  0  0  0999 V2000
   -2.8036    1.0786   -0.2785 C   0  0  0  0  0  0  0  0  0  0  0  0
   -3.9026    0.2579    0.1247 N   0  0  0  0  0  0  0  0  0  0  0  0
   -5.0142    0.6902    0.3678 N   0  0  0  0  0  0  0  0  0  0  0  0
   -2.6244    1.5092   -1.5759 C   0  0  0  0  0  0  0  0  0  0  0  0
   -1.5479    2.2070   -2.0514 C   0  0  0  0  0  0  0  0  0  0  0  0
   -0.5495    2.4782   -1.1046 C   0  0  0  0  0  0  0  0  0  0  0  0
    0.6445    3.2250   -1.5366 N   0  0  0  0  0  0  0  0  0  0  0  0
    0.6988    3.5751   -2.7138 O   0  0  0  0  0  0  0  0  0  0  0  0
    1.5072    3.4507   -0.6900 O   0  0  0  0  0  0  0  0  0  0  0  0
   -0.6487    2.0622    0.2226 C   0  0  0  0  0  0  0  0  0  0  0  0
   -1.7716    1.3504    0.6362 C   0  0  0  0  0  0  0  0  0  0  0  0
   -4.3799    0.9446   -3.0676 H   0  0  0  0  0  0  0  0  0  0  0  0
   -1.4408    2.5391   -3.0757 H   0  0  0  0  0  0  0  0  0  0  0  0
    0.1541    2.2950    0.9104 H   0  0  0  0  0  0  0  0  0  0  0  0
   -1.8663    1.0058    1.6610 H   0  0  0  0  0  0  0  0  0  0  0  0
   -5.9741    5.2454    1.2555 C   0  0  0  0  0  0  0  0  0  0  0  0
   -5.7507    6.5879    0.9590 C   0  0  0  0  0  0  0  0  0  0  0  0
   -5.9202    7.0819   -0.3429 C   0  0  0  0  0  0  0  0  0  0  0  0
   -6.3223    6.1932   -1.3526 C   0  0  0  0  0  0  0  0  0  0  0  0
   -6.5520    4.8481   -1.0792 C   0  0  0  0  0  0  0  0  0  0  0  0
   -6.3701    4.3885    0.2274 C   0  0  0  0  0  0  0  0  0  0  0  0
   -5.8528    4.8645    2.2634 H   0  0  0  0  0  0  0  0  0  0  0  0
   -5.4418    7.2641    1.7510 H   0  0  0  0  0  0  0  0  0  0  0  0
   -6.4606    6.5615   -2.3653 H   0  0  0  0  0  0  0  0  0  0  0  0
   -6.8731    4.1636   -1.8562 H   0  0  0  0  0  0  0  0  0  0  0  0
   -6.6673    2.6749    0.5920 S   0  0  0  0  0  0  0  0  0  0  0  0
   -6.8660    2.4905    2.0239 O   0  0  0  0  0  0  0  0  0  0  0  0
   -5.0893    2.1458    0.2204 O   0  0  0  0  0  0  0  0  0  0  0  0
   -7.5712    2.0965   -0.3929 O   0  0  0  0  0  0  0  0  0  0  0  0
   -5.7054    8.5440   -0.6481 C   0  0  0  0  0  0  0  0  0  0  0  0
   -6.6551    9.0916   -0.6147 H   0  0  0  0  0  0  0  0  0  0  0  0
   -5.0322    9.0107    0.0763 H   0  0  0  0  0  0  0  0  0  0  0  0
   -5.2845    8.6858   -1.6479 H   0  0  0  0  0  0  0  0  0  0  0  0
  1  2  1  0  0  0  0
  1 11  2  0  0  0  0
  2  3  1  0  0  0  0
  4  1  1  0  0  0  0
  5  4  2  0  0  0  0
  5  6  1  0  0  0  0
  6 10  2  0  0  0  0
  7  6  1  0  0  0  0
  7  9  2  0  0  0  0
  8  7  2  0  0  0  0
 10 11  1  0  0  0  0
 10 14  1  0  0  0  0
 11 15  1  0  0  0  0
 13  5  1  0  0  0  0
 16 22  1  0  0  0  0
 17 16  1  0  0  0  0
 17 23  1  0  0  0  0
 18 17  2  0  0  0  0
 19 20  2  0  0  0  0
 19 18  1  0  0  0  0
 20 21  1  0  0  0  0
 21 26  1  0  0  0  0
 21 16  2  0  0  0  0
 24 19  1  0  0  0  0
 25 20  1  0  0  0  0
 26 27  2  0  0  0  0
 28  3  1  0  0  0  0
 28 26  1  0  0  0  0
 29 26  2  0  0  0  0
 30 31  1  0  0  0  0
 30 18  1  0  0  0  0
 30 32  1  0  0  0  0
 33 30  1  0  0  0  0
M  RAD  4   2   2   3   2   4   2  12   2
M  END
