Coordinates from ORCA-job 4-NO2PhN2+~TsO-_B3LYPG-6-31G_dp-CH-Scan-d09-49-n800
 OpenBabel11261919023D

 33 33  0  0  0  0  0  0  0  0999 V2000
   -2.8082    1.0757   -0.2835 C   0  0  0  0  0  0  0  0  0  0  0  0
   -3.9062    0.2573    0.1254 N   0  0  0  0  0  0  0  0  0  0  0  0
   -5.0178    0.6880    0.3678 N   0  0  0  0  0  0  0  0  0  0  0  0
   -2.6276    1.4759   -1.5929 C   0  0  0  0  0  0  0  0  0  0  0  0
   -1.5456    2.1710   -2.0670 C   0  0  0  0  0  0  0  0  0  0  0  0
   -0.5583    2.4704   -1.1187 C   0  0  0  0  0  0  0  0  0  0  0  0
    0.6340    3.2161   -1.5556 N   0  0  0  0  0  0  0  0  0  0  0  0
    0.6972    3.5408   -2.7398 O   0  0  0  0  0  0  0  0  0  0  0  0
    1.4886    3.4649   -0.7071 O   0  0  0  0  0  0  0  0  0  0  0  0
   -0.6662    2.0836    0.2166 C   0  0  0  0  0  0  0  0  0  0  0  0
   -1.7884    1.3738    0.6351 C   0  0  0  0  0  0  0  0  0  0  0  0
   -4.2190    0.9265   -2.9645 H   0  0  0  0  0  0  0  0  0  0  0  0
   -1.4308    2.4814   -3.0969 H   0  0  0  0  0  0  0  0  0  0  0  0
    0.1287    2.3372    0.9063 H   0  0  0  0  0  0  0  0  0  0  0  0
   -1.8900    1.0511    1.6662 H   0  0  0  0  0  0  0  0  0  0  0  0
   -5.9753    5.2412    1.2547 C   0  0  0  0  0  0  0  0  0  0  0  0
   -5.7503    6.5849    0.9653 C   0  0  0  0  0  0  0  0  0  0  0  0
   -5.9204    7.0862   -0.3337 C   0  0  0  0  0  0  0  0  0  0  0  0
   -6.3248    6.2037   -1.3477 C   0  0  0  0  0  0  0  0  0  0  0  0
   -6.5561    4.8573   -1.0813 C   0  0  0  0  0  0  0  0  0  0  0  0
   -6.3734    4.3902    0.2224 C   0  0  0  0  0  0  0  0  0  0  0  0
   -5.8537    4.8548    2.2605 H   0  0  0  0  0  0  0  0  0  0  0  0
   -5.4397    7.2563    1.7607 H   0  0  0  0  0  0  0  0  0  0  0  0
   -6.4638    6.5776   -2.3582 H   0  0  0  0  0  0  0  0  0  0  0  0
   -6.8792    4.1775   -1.8616 H   0  0  0  0  0  0  0  0  0  0  0  0
   -6.6720    2.6747    0.5781 S   0  0  0  0  0  0  0  0  0  0  0  0
   -6.8789    2.4847    2.0082 O   0  0  0  0  0  0  0  0  0  0  0  0
   -5.0946    2.1469    0.2117 O   0  0  0  0  0  0  0  0  0  0  0  0
   -7.5721    2.1016   -0.4137 O   0  0  0  0  0  0  0  0  0  0  0  0
   -5.7038    8.5498   -0.6309 C   0  0  0  0  0  0  0  0  0  0  0  0
   -6.6513    9.1002   -0.5840 H   0  0  0  0  0  0  0  0  0  0  0  0
   -5.0219    9.0091    0.0900 H   0  0  0  0  0  0  0  0  0  0  0  0
   -5.2926    8.6973   -1.6338 H   0  0  0  0  0  0  0  0  0  0  0  0
  1  2  1  0  0  0  0
  1 11  2  0  0  0  0
  2  3  1  0  0  0  0
  4  1  1  0  0  0  0
  5  4  2  0  0  0  0
  5  6  1  0  0  0  0
  6 10  2  0  0  0  0
  7  6  1  0  0  0  0
  7  9  2  0  0  0  0
  8  7  2  0  0  0  0
 10 11  1  0  0  0  0
 10 14  1  0  0  0  0
 11 15  1  0  0  0  0
 13  5  1  0  0  0  0
 16 22  1  0  0  0  0
 17 16  1  0  0  0  0
 17 23  1  0  0  0  0
 18 17  2  0  0  0  0
 19 20  2  0  0  0  0
 19 18  1  0  0  0  0
 20 21  1  0  0  0  0
 21 26  1  0  0  0  0
 21 16  2  0  0  0  0
 24 19  1  0  0  0  0
 25 20  1  0  0  0  0
 26 27  2  0  0  0  0
 28  3  1  0  0  0  0
 28 26  1  0  0  0  0
 29 26  2  0  0  0  0
 30 31  1  0  0  0  0
 30 18  1  0  0  0  0
 30 32  1  0  0  0  0
 33 30  1  0  0  0  0
M  RAD  4   2   2   3   2   4   2  12   2
M  END
