Coordinates from ORCA-job 4-NO2PhN2+~TsO-_B3LYPG-6-31G_dp-CH-Scan-d09-49-n800
 OpenBabel11261919033D

 33 33  0  0  0  0  0  0  0  0999 V2000
   -2.8517    0.7326   -0.9828 C   0  0  0  0  0  0  0  0  0  0  0  0
   -3.9119   -0.1689   -0.7422 N   0  0  0  0  0  0  0  0  0  0  0  0
   -4.7295   -0.9179   -0.6404 N   0  0  0  0  0  0  0  0  0  0  0  0
   -2.2038    0.4666   -2.1884 C   0  0  0  0  0  0  0  0  0  0  0  0
   -1.1479    1.4042   -2.3864 C   0  0  0  0  0  0  0  0  0  0  0  0
   -0.8408    2.3746   -1.4415 C   0  0  0  0  0  0  0  0  0  0  0  0
    0.2709    3.3175   -1.7063 N   0  0  0  0  0  0  0  0  0  0  0  0
    1.0541    3.0436   -2.6117 O   0  0  0  0  0  0  0  0  0  0  0  0
    0.3319    4.3339   -1.0098 O   0  0  0  0  0  0  0  0  0  0  0  0
   -1.5542    2.5499   -0.2350 C   0  0  0  0  0  0  0  0  0  0  0  0
   -2.6142    1.7053    0.0214 C   0  0  0  0  0  0  0  0  0  0  0  0
   -4.0598    4.2653   -0.1474 H   0  0  0  0  0  0  0  0  0  0  0  0
   -0.5521    1.3804   -3.2953 H   0  0  0  0  0  0  0  0  0  0  0  0
   -1.2570    3.3256    0.4589 H   0  0  0  0  0  0  0  0  0  0  0  0
   -3.2244    1.7927    0.9168 H   0  0  0  0  0  0  0  0  0  0  0  0
   -6.8105    5.2885    1.1503 C   0  0  0  0  0  0  0  0  0  0  0  0
   -6.6608    6.6034    0.7165 C   0  0  0  0  0  0  0  0  0  0  0  0
   -5.7381    7.0143   -0.2979 C   0  0  0  0  0  0  0  0  0  0  0  0
   -4.9656    6.0430   -0.8726 C   0  0  0  0  0  0  0  0  0  0  0  0
   -5.0564    4.6261   -0.4685 C   0  0  0  0  0  0  0  0  0  0  0  0
   -6.0292    4.2918    0.5848 C   0  0  0  0  0  0  0  0  0  0  0  0
   -7.5369    5.0208    1.9108 H   0  0  0  0  0  0  0  0  0  0  0  0
   -7.2871    7.3702    1.1694 H   0  0  0  0  0  0  0  0  0  0  0  0
   -4.2494    6.2982   -1.6500 H   0  0  0  0  0  0  0  0  0  0  0  0
   -5.2385    3.9667   -1.3359 H   0  0  0  0  0  0  0  0  0  0  0  0
   -6.1373    2.5823    1.1762 S   0  0  0  0  0  0  0  0  0  0  0  0
   -7.4654    2.4882    1.7971 O   0  0  0  0  0  0  0  0  0  0  0  0
   -4.9757    2.6119    2.1094 O   0  0  0  0  0  0  0  0  0  0  0  0
   -5.9130    1.7804   -0.0488 O   0  0  0  0  0  0  0  0  0  0  0  0
   -5.6578    8.4684   -0.6896 C   0  0  0  0  0  0  0  0  0  0  0  0
   -6.6247    8.8307   -1.0551 H   0  0  0  0  0  0  0  0  0  0  0  0
   -5.3801    9.0906    0.1681 H   0  0  0  0  0  0  0  0  0  0  0  0
   -4.9167    8.6269   -1.4762 H   0  0  0  0  0  0  0  0  0  0  0  0
  1  2  1  0  0  0  0
  1 11  2  0  0  0  0
  2  3  1  0  0  0  0
  4  1  1  0  0  0  0
  5  4  2  0  0  0  0
  5  6  1  0  0  0  0
  6 10  2  0  0  0  0
  7  6  1  0  0  0  0
  7  9  2  0  0  0  0
  8  7  2  0  0  0  0
 10 11  1  0  0  0  0
 10 14  1  0  0  0  0
 11 15  1  0  0  0  0
 13  5  1  0  0  0  0
 16 22  1  0  0  0  0
 17 16  1  0  0  0  0
 17 23  1  0  0  0  0
 18 17  1  0  0  0  0
 19 20  1  0  0  0  0
 19 18  2  0  0  0  0
 20 12  1  0  0  0  0
 20 21  1  0  0  0  0
 21 16  2  0  0  0  0
 21 26  1  0  0  0  0
 24 19  1  0  0  0  0
 25 20  1  0  0  0  0
 26 27  2  0  0  0  0
 26 28  1  0  0  0  0
 29 26  2  0  0  0  0
 30 18  1  0  0  0  0
 30 32  1  0  0  0  0
 31 30  1  0  0  0  0
 33 30  1  0  0  0  0
M  RAD  5   2   2   3   3   4   2  17   2  28   2
M  END
