Coordinates from ORCA-job 4-NO2PhN2+~TsO-_B3LYPG-6-31G_dp-CH-Scan-d09-49-n800
 OpenBabel11261919023D

 33 33  0  0  0  0  0  0  0  0999 V2000
   -2.8027    1.0749   -0.2690 C   0  0  0  0  0  0  0  0  0  0  0  0
   -3.8997    0.2654    0.1581 N   0  0  0  0  0  0  0  0  0  0  0  0
   -5.0137    0.6922    0.3907 N   0  0  0  0  0  0  0  0  0  0  0  0
   -2.6527    1.4694   -1.5888 C   0  0  0  0  0  0  0  0  0  0  0  0
   -1.5610    2.1565   -2.0650 C   0  0  0  0  0  0  0  0  0  0  0  0
   -0.5590    2.4499   -1.1331 C   0  0  0  0  0  0  0  0  0  0  0  0
    0.6316    3.1875   -1.5863 N   0  0  0  0  0  0  0  0  0  0  0  0
    0.6802    3.5132   -2.7712 O   0  0  0  0  0  0  0  0  0  0  0  0
    1.4999    3.4318   -0.7503 O   0  0  0  0  0  0  0  0  0  0  0  0
   -0.6490    2.0643    0.2036 C   0  0  0  0  0  0  0  0  0  0  0  0
   -1.7700    1.3614    0.6362 C   0  0  0  0  0  0  0  0  0  0  0  0
   -4.0515    1.0138   -2.7693 H   0  0  0  0  0  0  0  0  0  0  0  0
   -1.4562    2.4664   -3.0958 H   0  0  0  0  0  0  0  0  0  0  0  0
    0.1577    2.3120    0.8819 H   0  0  0  0  0  0  0  0  0  0  0  0
   -1.8587    1.0371    1.6675 H   0  0  0  0  0  0  0  0  0  0  0  0
   -5.9934    5.2400    1.2456 C   0  0  0  0  0  0  0  0  0  0  0  0
   -5.7693    6.5858    0.9658 C   0  0  0  0  0  0  0  0  0  0  0  0
   -5.9326    7.0949   -0.3312 C   0  0  0  0  0  0  0  0  0  0  0  0
   -6.3291    6.2178   -1.3528 C   0  0  0  0  0  0  0  0  0  0  0  0
   -6.5590    4.8692   -1.0958 C   0  0  0  0  0  0  0  0  0  0  0  0
   -6.3832    4.3942    0.2057 C   0  0  0  0  0  0  0  0  0  0  0  0
   -5.8773    4.8479    2.2499 H   0  0  0  0  0  0  0  0  0  0  0  0
   -5.4649    7.2529    1.7672 H   0  0  0  0  0  0  0  0  0  0  0  0
   -6.4631    6.5976   -2.3618 H   0  0  0  0  0  0  0  0  0  0  0  0
   -6.8768    4.1935   -1.8819 H   0  0  0  0  0  0  0  0  0  0  0  0
   -6.6800    2.6756    0.5494 S   0  0  0  0  0  0  0  0  0  0  0  0
   -6.9143    2.4802    1.9746 O   0  0  0  0  0  0  0  0  0  0  0  0
   -5.0982    2.1551    0.2090 O   0  0  0  0  0  0  0  0  0  0  0  0
   -7.5613    2.1041   -0.4607 O   0  0  0  0  0  0  0  0  0  0  0  0
   -5.7176    8.5608   -0.6174 C   0  0  0  0  0  0  0  0  0  0  0  0
   -6.6627    9.1131   -0.5478 H   0  0  0  0  0  0  0  0  0  0  0  0
   -5.0221    9.0112    0.0964 H   0  0  0  0  0  0  0  0  0  0  0  0
   -5.3237    8.7179   -1.6256 H   0  0  0  0  0  0  0  0  0  0  0  0
  1  2  1  0  0  0  0
  1 11  2  0  0  0  0
  2  3  1  0  0  0  0
  4  1  1  0  0  0  0
  5  4  2  0  0  0  0
  5  6  1  0  0  0  0
  6 10  2  0  0  0  0
  7  6  1  0  0  0  0
  7  9  2  0  0  0  0
  8  7  2  0  0  0  0
 10 11  1  0  0  0  0
 10 14  1  0  0  0  0
 11 15  1  0  0  0  0
 13  5  1  0  0  0  0
 16 22  1  0  0  0  0
 17 16  1  0  0  0  0
 17 23  1  0  0  0  0
 18 17  2  0  0  0  0
 19 20  2  0  0  0  0
 19 18  1  0  0  0  0
 20 21  1  0  0  0  0
 21 26  1  0  0  0  0
 21 16  2  0  0  0  0
 24 19  1  0  0  0  0
 25 20  1  0  0  0  0
 26 27  2  0  0  0  0
 28  3  1  0  0  0  0
 28 26  1  0  0  0  0
 29 26  2  0  0  0  0
 30 31  1  0  0  0  0
 30 18  1  0  0  0  0
 30 32  1  0  0  0  0
 33 30  1  0  0  0  0
M  RAD  4   2   2   3   2   4   2  12   2
M  END
