Coordinates from ORCA-job 4-NO2PhN2+~TsO-_B3LYPG-6-31G_dp-CH-Scan-d09-49-n800
 OpenBabel11261919023D

 33 33  0  0  0  0  0  0  0  0999 V2000
   -2.2116    1.1565   -0.3414 C   0  0  0  0  0  0  0  0  0  0  0  0
   -3.4852    0.7074    0.0695 N   0  0  0  0  0  0  0  0  0  0  0  0
   -4.5062    0.3858    0.3769 N   0  0  0  0  0  0  0  0  0  0  0  0
   -2.2412    2.2630   -1.1899 C   0  0  0  0  0  0  0  0  0  0  0  0
   -0.9166    2.6339   -1.5556 C   0  0  0  0  0  0  0  0  0  0  0  0
    0.1974    1.9380   -1.1054 C   0  0  0  0  0  0  0  0  0  0  0  0
    1.5499    2.3756   -1.5353 N   0  0  0  0  0  0  0  0  0  0  0  0
    1.6260    3.3435   -2.2875 O   0  0  0  0  0  0  0  0  0  0  0  0
    2.5154    1.7408   -1.1101 O   0  0  0  0  0  0  0  0  0  0  0  0
    0.1290    0.8228   -0.2460 C   0  0  0  0  0  0  0  0  0  0  0  0
   -1.1186    0.4051    0.1611 C   0  0  0  0  0  0  0  0  0  0  0  0
   -5.2265    4.3063   -1.1155 H   0  0  0  0  0  0  0  0  0  0  0  0
   -0.7426    3.4850   -2.2084 H   0  0  0  0  0  0  0  0  0  0  0  0
    1.0374    0.3297    0.0716 H   0  0  0  0  0  0  0  0  0  0  0  0
   -1.2491   -0.4437    0.8264 H   0  0  0  0  0  0  0  0  0  0  0  0
   -7.0075    5.6236    1.1879 C   0  0  0  0  0  0  0  0  0  0  0  0
   -6.9276    6.9122    0.6708 C   0  0  0  0  0  0  0  0  0  0  0  0
   -6.5111    7.2147   -0.6659 C   0  0  0  0  0  0  0  0  0  0  0  0
   -6.1817    6.1627   -1.4743 C   0  0  0  0  0  0  0  0  0  0  0  0
   -6.2281    4.7660   -1.0014 C   0  0  0  0  0  0  0  0  0  0  0  0
   -6.6705    4.5431    0.3826 C   0  0  0  0  0  0  0  0  0  0  0  0
   -7.3519    5.4398    2.1998 H   0  0  0  0  0  0  0  0  0  0  0  0
   -7.2062    7.7454    1.3138 H   0  0  0  0  0  0  0  0  0  0  0  0
   -5.8585    6.3361   -2.4975 H   0  0  0  0  0  0  0  0  0  0  0  0
   -6.8183    4.1153   -1.6699 H   0  0  0  0  0  0  0  0  0  0  0  0
   -6.7066    2.8534    1.0331 S   0  0  0  0  0  0  0  0  0  0  0  0
   -7.7352    2.8906    2.0861 O   0  0  0  0  0  0  0  0  0  0  0  0
   -5.2955    2.7952    1.5124 O   0  0  0  0  0  0  0  0  0  0  0  0
   -6.9919    2.0243   -0.1551 O   0  0  0  0  0  0  0  0  0  0  0  0
   -6.4593    8.6510   -1.1228 C   0  0  0  0  0  0  0  0  0  0  0  0
   -7.4445    9.1243   -1.0470 H   0  0  0  0  0  0  0  0  0  0  0  0
   -5.7692    9.2350   -0.5045 H   0  0  0  0  0  0  0  0  0  0  0  0
   -6.1277    8.7254   -2.1608 H   0  0  0  0  0  0  0  0  0  0  0  0
  1  2  1  0  0  0  0
  1 11  2  0  0  0  0
  2  3  1  0  0  0  0
  4  1  1  0  0  0  0
  5  4  2  0  0  0  0
  5  6  1  0  0  0  0
  6 10  2  0  0  0  0
  7  9  2  0  0  0  0
  7  6  1  0  0  0  0
  8  7  2  0  0  0  0
 10 14  1  0  0  0  0
 10 11  1  0  0  0  0
 11 15  1  0  0  0  0
 12 20  1  0  0  0  0
 13  5  1  0  0  0  0
 16 22  1  0  0  0  0
 17 16  1  0  0  0  0
 17 23  1  0  0  0  0
 18 17  1  0  0  0  0
 19 20  1  0  0  0  0
 19 18  2  0  0  0  0
 20 21  1  0  0  0  0
 21 26  1  0  0  0  0
 21 16  2  0  0  0  0
 24 19  1  0  0  0  0
 25 20  1  0  0  0  0
 26 28  2  0  0  0  0
 26 27  1  0  0  0  0
 29 26  2  0  0  0  0
 30 31  1  0  0  0  0
 30 18  1  0  0  0  0
 30 32  1  0  0  0  0
 33 30  1  0  0  0  0
M  RAD  5   2   2   3   3   4   2  17   2  27   2
M  END
