Coordinates from ORCA-job 4-NO2PhN2+~TsO-_B3LYPG-6-31G_dp-CH-Scan-d09-49-n800
 OpenBabel11261919023D

 33 33  0  0  0  0  0  0  0  0999 V2000
   -2.8002    1.0755   -0.2627 C   0  0  0  0  0  0  0  0  0  0  0  0
   -3.8965    0.2685    0.1703 N   0  0  0  0  0  0  0  0  0  0  0  0
   -5.0116    0.6940    0.3991 N   0  0  0  0  0  0  0  0  0  0  0  0
   -2.6594    1.4703   -1.5844 C   0  0  0  0  0  0  0  0  0  0  0  0
   -1.5659    2.1552   -2.0626 C   0  0  0  0  0  0  0  0  0  0  0  0
   -0.5584    2.4452   -1.1361 C   0  0  0  0  0  0  0  0  0  0  0  0
    0.6315    3.1804   -1.5946 N   0  0  0  0  0  0  0  0  0  0  0  0
    0.6748    3.5074   -2.7794 O   0  0  0  0  0  0  0  0  0  0  0  0
    1.5049    3.4217   -0.7630 O   0  0  0  0  0  0  0  0  0  0  0  0
   -0.6419    2.0582    0.2006 C   0  0  0  0  0  0  0  0  0  0  0  0
   -1.7625    1.3573    0.6376 C   0  0  0  0  0  0  0  0  0  0  0  0
   -4.0234    1.0348   -2.7260 H   0  0  0  0  0  0  0  0  0  0  0  0
   -1.4651    2.4662   -3.0935 H   0  0  0  0  0  0  0  0  0  0  0  0
    0.1689    2.3029    0.8748 H   0  0  0  0  0  0  0  0  0  0  0  0
   -1.8465    1.0312    1.6687 H   0  0  0  0  0  0  0  0  0  0  0  0
   -5.9993    5.2395    1.2429 C   0  0  0  0  0  0  0  0  0  0  0  0
   -5.7754    6.5858    0.9658 C   0  0  0  0  0  0  0  0  0  0  0  0
   -5.9357    7.0969   -0.3308 C   0  0  0  0  0  0  0  0  0  0  0  0
   -6.3292    6.2212   -1.3548 C   0  0  0  0  0  0  0  0  0  0  0  0
   -6.5588    4.8720   -1.1005 C   0  0  0  0  0  0  0  0  0  0  0  0
   -6.3860    4.3951    0.2007 C   0  0  0  0  0  0  0  0  0  0  0  0
   -5.8856    4.8459    2.2468 H   0  0  0  0  0  0  0  0  0  0  0  0
   -5.4733    7.2518    1.7690 H   0  0  0  0  0  0  0  0  0  0  0  0
   -6.4609    6.6027   -2.3634 H   0  0  0  0  0  0  0  0  0  0  0  0
   -6.8743    4.1975   -1.8884 H   0  0  0  0  0  0  0  0  0  0  0  0
   -6.6823    2.6756    0.5410 S   0  0  0  0  0  0  0  0  0  0  0  0
   -6.9248    2.4787    1.9646 O   0  0  0  0  0  0  0  0  0  0  0  0
   -5.0990    2.1574    0.2085 O   0  0  0  0  0  0  0  0  0  0  0  0
   -7.5577    2.1044   -0.4746 O   0  0  0  0  0  0  0  0  0  0  0  0
   -5.7210    8.5635   -0.6139 C   0  0  0  0  0  0  0  0  0  0  0  0
   -6.6656    9.1161   -0.5397 H   0  0  0  0  0  0  0  0  0  0  0  0
   -5.0230    9.0117    0.0988 H   0  0  0  0  0  0  0  0  0  0  0  0
   -5.3303    8.7231   -1.6230 H   0  0  0  0  0  0  0  0  0  0  0  0
  1  2  1  0  0  0  0
  1 11  2  0  0  0  0
  2  3  1  0  0  0  0
  4  1  1  0  0  0  0
  5  4  2  0  0  0  0
  5  6  1  0  0  0  0
  6 10  2  0  0  0  0
  7  6  1  0  0  0  0
  7  9  2  0  0  0  0
  8  7  2  0  0  0  0
 10 11  1  0  0  0  0
 10 14  1  0  0  0  0
 11 15  1  0  0  0  0
 13  5  1  0  0  0  0
 16 22  1  0  0  0  0
 17 16  1  0  0  0  0
 17 23  1  0  0  0  0
 18 17  2  0  0  0  0
 19 20  2  0  0  0  0
 19 18  1  0  0  0  0
 20 21  1  0  0  0  0
 21 26  1  0  0  0  0
 21 16  2  0  0  0  0
 24 19  1  0  0  0  0
 25 20  1  0  0  0  0
 26 27  2  0  0  0  0
 28  3  1  0  0  0  0
 28 26  1  0  0  0  0
 29 26  2  0  0  0  0
 30 31  1  0  0  0  0
 30 18  1  0  0  0  0
 30 32  1  0  0  0  0
 33 30  1  0  0  0  0
M  RAD  4   2   2   3   2   4   2  12   2
M  END
