Coordinates from ORCA-job 4-NO2PhN2+~TsO-_B3LYPG-6-31G_dp-CH-Scan-d09-49-n800
 OpenBabel11261919023D

 33 33  0  0  0  0  0  0  0  0999 V2000
   -2.9273    0.8110   -0.9584 C   0  0  0  0  0  0  0  0  0  0  0  0
   -3.9142   -0.1829   -0.7601 N   0  0  0  0  0  0  0  0  0  0  0  0
   -4.6735   -0.9948   -0.6980 N   0  0  0  0  0  0  0  0  0  0  0  0
   -2.3683    0.7406   -2.2331 C   0  0  0  0  0  0  0  0  0  0  0  0
   -1.3955    1.7762   -2.3833 C   0  0  0  0  0  0  0  0  0  0  0  0
   -1.0968    2.6627   -1.3578 C   0  0  0  0  0  0  0  0  0  0  0  0
   -0.1040    3.7365   -1.5931 N   0  0  0  0  0  0  0  0  0  0  0  0
    0.6472    3.6260   -2.5578 O   0  0  0  0  0  0  0  0  0  0  0  0
   -0.1151    4.6968   -0.8182 O   0  0  0  0  0  0  0  0  0  0  0  0
   -1.7188    2.6355   -0.0890 C   0  0  0  0  0  0  0  0  0  0  0  0
   -2.6808    1.6724    0.1393 C   0  0  0  0  0  0  0  0  0  0  0  0
   -4.0391    3.9952   -0.2233 H   0  0  0  0  0  0  0  0  0  0  0  0
   -0.8656    1.9011   -3.3245 H   0  0  0  0  0  0  0  0  0  0  0  0
   -1.4307    3.3513    0.6696 H   0  0  0  0  0  0  0  0  0  0  0  0
   -3.2264    1.6119    1.0765 H   0  0  0  0  0  0  0  0  0  0  0  0
   -6.6457    5.2493    1.1441 C   0  0  0  0  0  0  0  0  0  0  0  0
   -6.4114    6.5366    0.6689 C   0  0  0  0  0  0  0  0  0  0  0  0
   -5.5056    6.8486   -0.3945 C   0  0  0  0  0  0  0  0  0  0  0  0
   -4.8417    5.8039   -0.9770 C   0  0  0  0  0  0  0  0  0  0  0  0
   -5.0230    4.4120   -0.5265 C   0  0  0  0  0  0  0  0  0  0  0  0
   -5.9721    4.1792    0.5717 C   0  0  0  0  0  0  0  0  0  0  0  0
   -7.3581    5.0601    1.9404 H   0  0  0  0  0  0  0  0  0  0  0  0
   -6.9543    7.3616    1.1269 H   0  0  0  0  0  0  0  0  0  0  0  0
   -4.1432    5.9820   -1.7908 H   0  0  0  0  0  0  0  0  0  0  0  0
   -5.2684    3.7336   -1.3625 H   0  0  0  0  0  0  0  0  0  0  0  0
   -6.1852    2.4993    1.2200 S   0  0  0  0  0  0  0  0  0  0  0  0
   -7.5290    2.5031    1.8143 O   0  0  0  0  0  0  0  0  0  0  0  0
   -5.0439    2.5077    2.1785 O   0  0  0  0  0  0  0  0  0  0  0  0
   -5.9805    1.6383    0.0332 O   0  0  0  0  0  0  0  0  0  0  0  0
   -5.3242    8.2815   -0.8278 C   0  0  0  0  0  0  0  0  0  0  0  0
   -6.2754    8.7187   -1.1499 H   0  0  0  0  0  0  0  0  0  0  0  0
   -4.9457    8.8952   -0.0030 H   0  0  0  0  0  0  0  0  0  0  0  0
   -4.6174    8.3578   -1.6570 H   0  0  0  0  0  0  0  0  0  0  0  0
  1  2  1  0  0  0  0
  1 11  2  0  0  0  0
  2  3  1  0  0  0  0
  4  1  1  0  0  0  0
  5  4  2  0  0  0  0
  5  6  1  0  0  0  0
  6 10  2  0  0  0  0
  7  6  1  0  0  0  0
  7  9  2  0  0  0  0
  8  7  2  0  0  0  0
 10 11  1  0  0  0  0
 10 14  1  0  0  0  0
 11 15  1  0  0  0  0
 13  5  1  0  0  0  0
 16 22  1  0  0  0  0
 17 23  1  0  0  0  0
 17 16  1  0  0  0  0
 18 17  1  0  0  0  0
 19 20  1  0  0  0  0
 19 18  2  0  0  0  0
 20 12  1  0  0  0  0
 20 21  1  0  0  0  0
 21 16  2  0  0  0  0
 21 26  1  0  0  0  0
 24 19  1  0  0  0  0
 25 20  1  0  0  0  0
 26 27  2  0  0  0  0
 26 28  1  0  0  0  0
 29 26  2  0  0  0  0
 30 18  1  0  0  0  0
 30 32  1  0  0  0  0
 31 30  1  0  0  0  0
 33 30  1  0  0  0  0
M  RAD  5   2   2   3   3   4   2  17   2  28   2
M  END
