Coordinates from ORCA-job 4-NO2PhN2+~TsO-_B3LYPG-6-31G_dp-CH-Scan-d09-49-n800
 OpenBabel11261919023D

 33 33  0  0  0  0  0  0  0  0999 V2000
   -2.8059    1.0743   -0.2767 C   0  0  0  0  0  0  0  0  0  0  0  0
   -3.9034    0.2615    0.1430 N   0  0  0  0  0  0  0  0  0  0  0  0
   -5.0164    0.6898    0.3800 N   0  0  0  0  0  0  0  0  0  0  0  0
   -2.6430    1.4678   -1.5936 C   0  0  0  0  0  0  0  0  0  0  0  0
   -1.5542    2.1581   -2.0679 C   0  0  0  0  0  0  0  0  0  0  0  0
   -0.5598    2.4568   -1.1287 C   0  0  0  0  0  0  0  0  0  0  0  0
    0.6315    3.1976   -1.5752 N   0  0  0  0  0  0  0  0  0  0  0  0
    0.6865    3.5223   -2.7600 O   0  0  0  0  0  0  0  0  0  0  0  0
    1.4920    3.4481   -0.7330 O   0  0  0  0  0  0  0  0  0  0  0  0
   -0.6585    2.0737    0.2082 C   0  0  0  0  0  0  0  0  0  0  0  0
   -1.7802    1.3681    0.6349 C   0  0  0  0  0  0  0  0  0  0  0  0
   -4.0959    0.9801   -2.8336 H   0  0  0  0  0  0  0  0  0  0  0  0
   -1.4441    2.4660   -3.0988 H   0  0  0  0  0  0  0  0  0  0  0  0
    0.1422    2.3259    0.8916 H   0  0  0  0  0  0  0  0  0  0  0  0
   -1.8753    1.0467    1.6667 H   0  0  0  0  0  0  0  0  0  0  0  0
   -5.9850    5.2402    1.2492 C   0  0  0  0  0  0  0  0  0  0  0  0
   -5.7606    6.5852    0.9659 C   0  0  0  0  0  0  0  0  0  0  0  0
   -5.9277    7.0918   -0.3316 C   0  0  0  0  0  0  0  0  0  0  0  0
   -6.3286    6.2131   -1.3501 C   0  0  0  0  0  0  0  0  0  0  0  0
   -6.5592    4.8653   -1.0897 C   0  0  0  0  0  0  0  0  0  0  0  0
   -6.3794    4.3929    0.2123 C   0  0  0  0  0  0  0  0  0  0  0  0
   -5.8659    4.8499    2.2538 H   0  0  0  0  0  0  0  0  0  0  0  0
   -5.4527    7.2536    1.7648 H   0  0  0  0  0  0  0  0  0  0  0  0
   -6.4655    6.5910   -2.3594 H   0  0  0  0  0  0  0  0  0  0  0  0
   -6.8801    4.1884   -1.8734 H   0  0  0  0  0  0  0  0  0  0  0  0
   -6.6770    2.6753    0.5603 S   0  0  0  0  0  0  0  0  0  0  0  0
   -6.9003    2.4818    1.9876 O   0  0  0  0  0  0  0  0  0  0  0  0
   -5.0974    2.1518    0.2091 O   0  0  0  0  0  0  0  0  0  0  0  0
   -7.5663    2.1038   -0.4425 O   0  0  0  0  0  0  0  0  0  0  0  0
   -5.7120    8.5569   -0.6217 C   0  0  0  0  0  0  0  0  0  0  0  0
   -6.6578    9.1089   -0.5587 H   0  0  0  0  0  0  0  0  0  0  0  0
   -5.0201    9.0100    0.0937 H   0  0  0  0  0  0  0  0  0  0  0  0
   -5.3134    8.7106   -1.6287 H   0  0  0  0  0  0  0  0  0  0  0  0
  1  2  1  0  0  0  0
  1 11  2  0  0  0  0
  2  3  1  0  0  0  0
  4  1  1  0  0  0  0
  5  4  2  0  0  0  0
  5  6  1  0  0  0  0
  6 10  2  0  0  0  0
  7  6  1  0  0  0  0
  7  9  2  0  0  0  0
  8  7  2  0  0  0  0
 10 11  1  0  0  0  0
 10 14  1  0  0  0  0
 11 15  1  0  0  0  0
 13  5  1  0  0  0  0
 16 22  1  0  0  0  0
 17 16  1  0  0  0  0
 17 23  1  0  0  0  0
 18 17  2  0  0  0  0
 19 20  2  0  0  0  0
 19 18  1  0  0  0  0
 20 21  1  0  0  0  0
 21 26  1  0  0  0  0
 21 16  2  0  0  0  0
 24 19  1  0  0  0  0
 25 20  1  0  0  0  0
 26 27  2  0  0  0  0
 28  3  1  0  0  0  0
 28 26  1  0  0  0  0
 29 26  2  0  0  0  0
 30 31  1  0  0  0  0
 30 18  1  0  0  0  0
 30 32  1  0  0  0  0
 33 30  1  0  0  0  0
M  RAD  4   2   2   3   2   4   2  12   2
M  END
