Coordinates from ORCA-job 4-NO2PhN2+~TsO-_B3LYPG-6-31G_dp-CH-Scan-d09-49-n800
 OpenBabel11261919023D

 33 33  0  0  0  0  0  0  0  0999 V2000
   -2.7507    1.0990   -0.1871 C   0  0  0  0  0  0  0  0  0  0  0  0
   -3.8510    0.2881    0.2305 N   0  0  0  0  0  0  0  0  0  0  0  0
   -4.9604    0.7238    0.4967 N   0  0  0  0  0  0  0  0  0  0  0  0
   -2.7234    1.9059   -1.3002 C   0  0  0  0  0  0  0  0  0  0  0  0
   -1.6663    2.6199   -1.7800 C   0  0  0  0  0  0  0  0  0  0  0  0
   -0.4838    2.4816   -1.0335 C   0  0  0  0  0  0  0  0  0  0  0  0
    0.7159    3.2160   -1.4787 N   0  0  0  0  0  0  0  0  0  0  0  0
    0.6100    3.9177   -2.4818 O   0  0  0  0  0  0  0  0  0  0  0  0
    1.7398    3.0780   -0.8129 O   0  0  0  0  0  0  0  0  0  0  0  0
   -0.4075    1.6695    0.0976 C   0  0  0  0  0  0  0  0  0  0  0  0
   -1.5339    0.9642    0.5106 C   0  0  0  0  0  0  0  0  0  0  0  0
   -5.2365    2.0215   -3.0819 H   0  0  0  0  0  0  0  0  0  0  0  0
   -1.6887    3.2465   -2.6635 H   0  0  0  0  0  0  0  0  0  0  0  0
    0.5316    1.5916    0.6300 H   0  0  0  0  0  0  0  0  0  0  0  0
   -1.5012    0.3125    1.3790 H   0  0  0  0  0  0  0  0  0  0  0  0
   -6.1603    5.3258    1.2603 C   0  0  0  0  0  0  0  0  0  0  0  0
   -5.9598    6.6543    0.8917 C   0  0  0  0  0  0  0  0  0  0  0  0
   -5.9639    7.0419   -0.4562 C   0  0  0  0  0  0  0  0  0  0  0  0
   -6.1720    6.0602   -1.4381 C   0  0  0  0  0  0  0  0  0  0  0  0
   -6.3782    4.7278   -1.0939 C   0  0  0  0  0  0  0  0  0  0  0  0
   -6.3663    4.3765    0.2586 C   0  0  0  0  0  0  0  0  0  0  0  0
   -6.1645    5.0243    2.3021 H   0  0  0  0  0  0  0  0  0  0  0  0
   -5.7985    7.4021    1.6631 H   0  0  0  0  0  0  0  0  0  0  0  0
   -6.1749    6.3449   -2.4868 H   0  0  0  0  0  0  0  0  0  0  0  0
   -6.5414    3.9715   -1.8544 H   0  0  0  0  0  0  0  0  0  0  0  0
   -6.6430    2.6825    0.7145 S   0  0  0  0  0  0  0  0  0  0  0  0
   -6.8711    2.5753    2.1496 O   0  0  0  0  0  0  0  0  0  0  0  0
   -5.0386    2.1666    0.4059 O   0  0  0  0  0  0  0  0  0  0  0  0
   -7.5053    2.0239   -0.2555 O   0  0  0  0  0  0  0  0  0  0  0  0
   -5.7777    8.4881   -0.8446 C   0  0  0  0  0  0  0  0  0  0  0  0
   -6.7477    8.9858   -0.9637 H   0  0  0  0  0  0  0  0  0  0  0  0
   -5.2186    9.0397   -0.0836 H   0  0  0  0  0  0  0  0  0  0  0  0
   -5.2458    8.5808   -1.7960 H   0  0  0  0  0  0  0  0  0  0  0  0
  1  2  1  0  0  0  0
  1 11  2  0  0  0  0
  2  3  1  0  0  0  0
  4  1  1  0  0  0  0
  5  4  2  0  0  0  0
  5  6  1  0  0  0  0
  6 10  2  0  0  0  0
  7  6  1  0  0  0  0
  7  9  2  0  0  0  0
  8  7  2  0  0  0  0
 10 11  1  0  0  0  0
 10 14  1  0  0  0  0
 11 15  1  0  0  0  0
 13  5  1  0  0  0  0
 16 22  1  0  0  0  0
 17 16  1  0  0  0  0
 17 23  1  0  0  0  0
 18 17  2  0  0  0  0
 19 20  2  0  0  0  0
 19 18  1  0  0  0  0
 20 21  1  0  0  0  0
 21 26  1  0  0  0  0
 21 16  2  0  0  0  0
 24 19  1  0  0  0  0
 25 20  1  0  0  0  0
 26 27  2  0  0  0  0
 28  3  1  0  0  0  0
 28 26  1  0  0  0  0
 29 26  2  0  0  0  0
 30 18  1  0  0  0  0
 30 32  1  0  0  0  0
 31 30  1  0  0  0  0
 33 30  1  0  0  0  0
M  RAD  4   2   2   3   2   4   2  12   2
M  END
