Coordinates from ORCA-job 4-NO2PhN2+~TsO-_B3LYPG-6-31G_dp-CH-Scan-d09-49-n800
 OpenBabel11261919023D

 33 33  0  0  0  0  0  0  0  0999 V2000
   -2.8077    1.0762   -0.2831 C   0  0  0  0  0  0  0  0  0  0  0  0
   -3.9058    0.2571    0.1243 N   0  0  0  0  0  0  0  0  0  0  0  0
   -5.0174    0.6882    0.3671 N   0  0  0  0  0  0  0  0  0  0  0  0
   -2.6261    1.4814   -1.5902 C   0  0  0  0  0  0  0  0  0  0  0  0
   -1.5455    2.1771   -2.0647 C   0  0  0  0  0  0  0  0  0  0  0  0
   -0.5569    2.4724   -1.1160 C   0  0  0  0  0  0  0  0  0  0  0  0
    0.6357    3.2184   -1.5517 N   0  0  0  0  0  0  0  0  0  0  0  0
    0.6970    3.5489   -2.7343 O   0  0  0  0  0  0  0  0  0  0  0  0
    1.4902    3.4655   -0.7026 O   0  0  0  0  0  0  0  0  0  0  0  0
   -0.6640    2.0809    0.2181 C   0  0  0  0  0  0  0  0  0  0  0  0
   -1.7864    1.3706    0.6354 C   0  0  0  0  0  0  0  0  0  0  0  0
   -4.2526    0.9247   -2.9895 H   0  0  0  0  0  0  0  0  0  0  0  0
   -1.4316    2.4909   -3.0937 H   0  0  0  0  0  0  0  0  0  0  0  0
    0.1318    2.3315    0.9079 H   0  0  0  0  0  0  0  0  0  0  0  0
   -1.8873    1.0446    1.6655 H   0  0  0  0  0  0  0  0  0  0  0  0
   -5.9745    5.2419    1.2553 C   0  0  0  0  0  0  0  0  0  0  0  0
   -5.7496    6.5853    0.9644 C   0  0  0  0  0  0  0  0  0  0  0  0
   -5.9196    7.0851   -0.3353 C   0  0  0  0  0  0  0  0  0  0  0  0
   -6.3238    6.2014   -1.3484 C   0  0  0  0  0  0  0  0  0  0  0  0
   -6.5550    4.8553   -1.0804 C   0  0  0  0  0  0  0  0  0  0  0  0
   -6.3724    4.3897    0.2238 C   0  0  0  0  0  0  0  0  0  0  0  0
   -5.8529    4.8565    2.2614 H   0  0  0  0  0  0  0  0  0  0  0  0
   -5.4392    7.2576    1.7590 H   0  0  0  0  0  0  0  0  0  0  0  0
   -6.4626    6.5742   -2.3593 H   0  0  0  0  0  0  0  0  0  0  0  0
   -6.8778    4.1746   -1.8601 H   0  0  0  0  0  0  0  0  0  0  0  0
   -6.6710    2.6747    0.5813 S   0  0  0  0  0  0  0  0  0  0  0  0
   -6.8757    2.4857    2.0119 O   0  0  0  0  0  0  0  0  0  0  0  0
   -5.0937    2.1463    0.2132 O   0  0  0  0  0  0  0  0  0  0  0  0
   -7.5724    2.1007   -0.4087 O   0  0  0  0  0  0  0  0  0  0  0  0
   -5.7031    8.5483   -0.6342 C   0  0  0  0  0  0  0  0  0  0  0  0
   -6.6511    9.0983   -0.5906 H   0  0  0  0  0  0  0  0  0  0  0  0
   -5.0233    9.0092    0.0879 H   0  0  0  0  0  0  0  0  0  0  0  0
   -5.2893    8.6945   -1.6362 H   0  0  0  0  0  0  0  0  0  0  0  0
  1  2  1  0  0  0  0
  1 11  2  0  0  0  0
  2  3  1  0  0  0  0
  4  1  1  0  0  0  0
  5  4  2  0  0  0  0
  5  6  1  0  0  0  0
  6 10  2  0  0  0  0
  7  6  1  0  0  0  0
  7  9  2  0  0  0  0
  8  7  2  0  0  0  0
 10 11  1  0  0  0  0
 10 14  1  0  0  0  0
 11 15  1  0  0  0  0
 13  5  1  0  0  0  0
 16 22  1  0  0  0  0
 17 16  1  0  0  0  0
 17 23  1  0  0  0  0
 18 17  2  0  0  0  0
 19 20  2  0  0  0  0
 19 18  1  0  0  0  0
 20 21  1  0  0  0  0
 21 26  1  0  0  0  0
 21 16  2  0  0  0  0
 24 19  1  0  0  0  0
 25 20  1  0  0  0  0
 26 27  2  0  0  0  0
 28  3  1  0  0  0  0
 28 26  1  0  0  0  0
 29 26  2  0  0  0  0
 30 31  1  0  0  0  0
 30 18  1  0  0  0  0
 30 32  1  0  0  0  0
 33 30  1  0  0  0  0
M  RAD  4   2   2   3   2   4   2  12   2
M  END
