Coordinates from ORCA-job 4-NO2PhN2+~TsO-_B3LYPG-6-31G_dp-CH-Scan-d09-49-n800
 OpenBabel11261919023D

 33 33  0  0  0  0  0  0  0  0999 V2000
   -2.7915    1.0790   -0.2419 C   0  0  0  0  0  0  0  0  0  0  0  0
   -3.8859    0.2794    0.2087 N   0  0  0  0  0  0  0  0  0  0  0  0
   -5.0043    0.7006    0.4256 N   0  0  0  0  0  0  0  0  0  0  0  0
   -2.6783    1.4782   -1.5677 C   0  0  0  0  0  0  0  0  0  0  0  0
   -1.5801    2.1558   -2.0528 C   0  0  0  0  0  0  0  0  0  0  0  0
   -0.5549    2.4324   -1.1431 C   0  0  0  0  0  0  0  0  0  0  0  0
    0.6331    3.1600   -1.6175 N   0  0  0  0  0  0  0  0  0  0  0  0
    0.6610    3.4904   -2.8020 O   0  0  0  0  0  0  0  0  0  0  0  0
    1.5241    3.3868   -0.8004 O   0  0  0  0  0  0  0  0  0  0  0  0
   -0.6182    2.0382    0.1924 C   0  0  0  0  0  0  0  0  0  0  0  0
   -1.7371    1.3434    0.6429 C   0  0  0  0  0  0  0  0  0  0  0  0
   -3.9632    1.0946   -2.6143 H   0  0  0  0  0  0  0  0  0  0  0  0
   -1.4921    2.4721   -3.0832 H   0  0  0  0  0  0  0  0  0  0  0  0
    0.2062    2.2715    0.8542 H   0  0  0  0  0  0  0  0  0  0  0  0
   -1.8064    1.0098    1.6724 H   0  0  0  0  0  0  0  0  0  0  0  0
   -6.0171    5.2380    1.2343 C   0  0  0  0  0  0  0  0  0  0  0  0
   -5.7937    6.5859    0.9652 C   0  0  0  0  0  0  0  0  0  0  0  0
   -5.9456    7.1027   -0.3303 C   0  0  0  0  0  0  0  0  0  0  0  0
   -6.3300    6.2311   -1.3609 C   0  0  0  0  0  0  0  0  0  0  0  0
   -6.5587    4.8802   -1.1145 C   0  0  0  0  0  0  0  0  0  0  0  0
   -6.3944    4.3975    0.1855 C   0  0  0  0  0  0  0  0  0  0  0  0
   -5.9101    4.8401    2.2374 H   0  0  0  0  0  0  0  0  0  0  0  0
   -5.4987    7.2487    1.7736 H   0  0  0  0  0  0  0  0  0  0  0  0
   -6.4553    6.6170   -2.3687 H   0  0  0  0  0  0  0  0  0  0  0  0
   -6.8675    4.2086   -1.9076 H   0  0  0  0  0  0  0  0  0  0  0  0
   -6.6890    2.6755    0.5161 S   0  0  0  0  0  0  0  0  0  0  0  0
   -6.9548    2.4743    1.9351 O   0  0  0  0  0  0  0  0  0  0  0  0
   -5.1011    2.1643    0.2069 O   0  0  0  0  0  0  0  0  0  0  0  0
   -7.5468    2.1047   -0.5149 O   0  0  0  0  0  0  0  0  0  0  0  0
   -5.7317    8.5711   -0.6045 C   0  0  0  0  0  0  0  0  0  0  0  0
   -6.6751    9.1242   -0.5186 H   0  0  0  0  0  0  0  0  0  0  0  0
   -5.0277    9.0135    0.1060 H   0  0  0  0  0  0  0  0  0  0  0  0
   -5.3489    8.7379   -1.6154 H   0  0  0  0  0  0  0  0  0  0  0  0
  1  2  1  0  0  0  0
  1 11  2  0  0  0  0
  2  3  1  0  0  0  0
  4  1  1  0  0  0  0
  5  4  2  0  0  0  0
  5  6  1  0  0  0  0
  6 10  2  0  0  0  0
  7  6  1  0  0  0  0
  7  9  2  0  0  0  0
  8  7  2  0  0  0  0
 10 11  1  0  0  0  0
 10 14  1  0  0  0  0
 11 15  1  0  0  0  0
 13  5  1  0  0  0  0
 16 22  1  0  0  0  0
 17 16  1  0  0  0  0
 17 23  1  0  0  0  0
 18 17  2  0  0  0  0
 19 20  2  0  0  0  0
 19 18  1  0  0  0  0
 20 21  1  0  0  0  0
 21 26  1  0  0  0  0
 21 16  2  0  0  0  0
 24 19  1  0  0  0  0
 25 20  1  0  0  0  0
 26 27  2  0  0  0  0
 28  3  1  0  0  0  0
 28 26  1  0  0  0  0
 29 26  2  0  0  0  0
 30 31  1  0  0  0  0
 30 18  1  0  0  0  0
 30 32  1  0  0  0  0
 33 30  1  0  0  0  0
M  RAD  4   2   2   3   2   4   2  12   2
M  END
