Coordinates from ORCA-job 4-NO2PhN2+~TsO-_B3LYPG-6-31G_dp-CH-Scan-d09-49-n800
 OpenBabel11261919033D

 33 33  0  0  0  0  0  0  0  0999 V2000
   -2.8485    0.7295   -0.9858 C   0  0  0  0  0  0  0  0  0  0  0  0
   -3.9135   -0.1661   -0.7450 N   0  0  0  0  0  0  0  0  0  0  0  0
   -4.7349   -0.9109   -0.6427 N   0  0  0  0  0  0  0  0  0  0  0  0
   -2.1985    0.4563   -2.1887 C   0  0  0  0  0  0  0  0  0  0  0  0
   -1.1370    1.3871   -2.3870 C   0  0  0  0  0  0  0  0  0  0  0  0
   -0.8267    2.3584   -1.4439 C   0  0  0  0  0  0  0  0  0  0  0  0
    0.2919    3.2933   -1.7081 N   0  0  0  0  0  0  0  0  0  0  0  0
    1.0733    3.0140   -2.6135 O   0  0  0  0  0  0  0  0  0  0  0  0
    0.3586    4.3104   -1.0133 O   0  0  0  0  0  0  0  0  0  0  0  0
   -1.5427    2.5418   -0.2402 C   0  0  0  0  0  0  0  0  0  0  0  0
   -2.6084    1.7044    0.0158 C   0  0  0  0  0  0  0  0  0  0  0  0
   -4.0612    4.2807   -0.1439 H   0  0  0  0  0  0  0  0  0  0  0  0
   -0.5388    1.3571   -3.2942 H   0  0  0  0  0  0  0  0  0  0  0  0
   -1.2430    3.3181    0.4521 H   0  0  0  0  0  0  0  0  0  0  0  0
   -3.2205    1.7979    0.9093 H   0  0  0  0  0  0  0  0  0  0  0  0
   -6.8183    5.2911    1.1510 C   0  0  0  0  0  0  0  0  0  0  0  0
   -6.6740    6.6071    0.7185 C   0  0  0  0  0  0  0  0  0  0  0  0
   -5.7515    7.0230   -0.2941 C   0  0  0  0  0  0  0  0  0  0  0  0
   -4.9736    6.0558   -0.8682 C   0  0  0  0  0  0  0  0  0  0  0  0
   -5.0587    4.6379   -0.4657 C   0  0  0  0  0  0  0  0  0  0  0  0
   -6.0316    4.2985    0.5861 C   0  0  0  0  0  0  0  0  0  0  0  0
   -7.5445    5.0194    1.9103 H   0  0  0  0  0  0  0  0  0  0  0  0
   -7.3044    7.3707    1.1711 H   0  0  0  0  0  0  0  0  0  0  0  0
   -4.2574    6.3149   -1.6443 H   0  0  0  0  0  0  0  0  0  0  0  0
   -5.2377    3.9791   -1.3342 H   0  0  0  0  0  0  0  0  0  0  0  0
   -6.1326    2.5878    1.1754 S   0  0  0  0  0  0  0  0  0  0  0  0
   -7.4587    2.4884    1.7997 O   0  0  0  0  0  0  0  0  0  0  0  0
   -4.9685    2.6187    2.1052 O   0  0  0  0  0  0  0  0  0  0  0  0
   -5.9093    1.7889   -0.0519 O   0  0  0  0  0  0  0  0  0  0  0  0
   -5.6774    8.4777   -0.6846 C   0  0  0  0  0  0  0  0  0  0  0  0
   -6.6453    8.8356   -1.0519 H   0  0  0  0  0  0  0  0  0  0  0  0
   -5.4048    9.1007    0.1742 H   0  0  0  0  0  0  0  0  0  0  0  0
   -4.9355    8.6405   -1.4694 H   0  0  0  0  0  0  0  0  0  0  0  0
  1  2  1  0  0  0  0
  1 11  2  0  0  0  0
  2  3  1  0  0  0  0
  4  1  1  0  0  0  0
  5  4  2  0  0  0  0
  5  6  1  0  0  0  0
  6 10  2  0  0  0  0
  7  6  1  0  0  0  0
  7  9  2  0  0  0  0
  8  7  2  0  0  0  0
 10 11  1  0  0  0  0
 10 14  1  0  0  0  0
 11 15  1  0  0  0  0
 13  5  1  0  0  0  0
 16 22  1  0  0  0  0
 17 16  1  0  0  0  0
 17 23  1  0  0  0  0
 18 17  1  0  0  0  0
 19 20  1  0  0  0  0
 19 18  2  0  0  0  0
 20 12  1  0  0  0  0
 20 21  1  0  0  0  0
 21 16  2  0  0  0  0
 21 26  1  0  0  0  0
 24 19  1  0  0  0  0
 25 20  1  0  0  0  0
 26 27  2  0  0  0  0
 26 28  1  0  0  0  0
 29 26  2  0  0  0  0
 30 18  1  0  0  0  0
 30 32  1  0  0  0  0
 31 30  1  0  0  0  0
 33 30  1  0  0  0  0
M  RAD  5   2   2   3   3   4   2  17   2  28   2
M  END
