Coordinates from ORCA-job 4-NO2PhN2+~TsO-_B3LYPG-6-31G_dp-CH-Scan-d09-49-n800
 OpenBabel11261919023D

 33 33  0  0  0  0  0  0  0  0999 V2000
   -2.7903    1.0793   -0.2389 C   0  0  0  0  0  0  0  0  0  0  0  0
   -3.8845    0.2810    0.2143 N   0  0  0  0  0  0  0  0  0  0  0  0
   -5.0034    0.7016    0.4292 N   0  0  0  0  0  0  0  0  0  0  0  0
   -2.6812    1.4798   -1.5650 C   0  0  0  0  0  0  0  0  0  0  0  0
   -1.5822    2.1561   -2.0511 C   0  0  0  0  0  0  0  0  0  0  0  0
   -0.5542    2.4300   -1.1440 C   0  0  0  0  0  0  0  0  0  0  0  0
    0.6338    3.1563   -1.6206 N   0  0  0  0  0  0  0  0  0  0  0  0
    0.6576    3.4908   -2.8040 O   0  0  0  0  0  0  0  0  0  0  0  0
    1.5258    3.3836   -0.8049 O   0  0  0  0  0  0  0  0  0  0  0  0
   -0.6145    2.0343    0.1913 C   0  0  0  0  0  0  0  0  0  0  0  0
   -1.7332    1.3405    0.6435 C   0  0  0  0  0  0  0  0  0  0  0  0
   -3.9539    1.1046   -2.5971 H   0  0  0  0  0  0  0  0  0  0  0  0
   -1.4961    2.4736   -3.0813 H   0  0  0  0  0  0  0  0  0  0  0  0
    0.2121    2.2654    0.8511 H   0  0  0  0  0  0  0  0  0  0  0  0
   -1.8004    1.0054    1.6727 H   0  0  0  0  0  0  0  0  0  0  0  0
   -6.0189    5.2377    1.2328 C   0  0  0  0  0  0  0  0  0  0  0  0
   -5.7956    6.5858    0.9646 C   0  0  0  0  0  0  0  0  0  0  0  0
   -5.9470    7.1035   -0.3306 C   0  0  0  0  0  0  0  0  0  0  0  0
   -6.3307    6.2325   -1.3619 C   0  0  0  0  0  0  0  0  0  0  0  0
   -6.5594    4.8814   -1.1165 C   0  0  0  0  0  0  0  0  0  0  0  0
   -6.3956    4.3978    0.1832 C   0  0  0  0  0  0  0  0  0  0  0  0
   -5.9124    4.8392    2.2356 H   0  0  0  0  0  0  0  0  0  0  0  0
   -5.5010    7.2481    1.7737 H   0  0  0  0  0  0  0  0  0  0  0  0
   -6.4557    6.6191   -2.3695 H   0  0  0  0  0  0  0  0  0  0  0  0
   -6.8678    4.2103   -1.9102 H   0  0  0  0  0  0  0  0  0  0  0  0
   -6.6900    2.6755    0.5126 S   0  0  0  0  0  0  0  0  0  0  0  0
   -6.9586    2.4737    1.9309 O   0  0  0  0  0  0  0  0  0  0  0  0
   -5.1016    2.1652    0.2062 O   0  0  0  0  0  0  0  0  0  0  0  0
   -7.5457    2.1049   -0.5203 O   0  0  0  0  0  0  0  0  0  0  0  0
   -5.7331    8.5721   -0.6036 C   0  0  0  0  0  0  0  0  0  0  0  0
   -6.6762    9.1254   -0.5158 H   0  0  0  0  0  0  0  0  0  0  0  0
   -5.0280    9.0136    0.1063 H   0  0  0  0  0  0  0  0  0  0  0  0
   -5.3517    8.7398   -1.6149 H   0  0  0  0  0  0  0  0  0  0  0  0
  1  2  1  0  0  0  0
  1 11  2  0  0  0  0
  2  3  1  0  0  0  0
  4  1  1  0  0  0  0
  5  4  2  0  0  0  0
  5  6  1  0  0  0  0
  6 10  2  0  0  0  0
  7  6  1  0  0  0  0
  7  9  2  0  0  0  0
  8  7  2  0  0  0  0
 10 11  1  0  0  0  0
 10 14  1  0  0  0  0
 11 15  1  0  0  0  0
 13  5  1  0  0  0  0
 16 22  1  0  0  0  0
 17 16  1  0  0  0  0
 17 23  1  0  0  0  0
 18 17  2  0  0  0  0
 19 20  2  0  0  0  0
 19 18  1  0  0  0  0
 20 21  1  0  0  0  0
 21 26  1  0  0  0  0
 21 16  2  0  0  0  0
 24 19  1  0  0  0  0
 25 20  1  0  0  0  0
 26 27  2  0  0  0  0
 28  3  1  0  0  0  0
 28 26  1  0  0  0  0
 29 26  2  0  0  0  0
 30 31  1  0  0  0  0
 30 18  1  0  0  0  0
 30 32  1  0  0  0  0
 33 30  1  0  0  0  0
M  RAD  4   2   2   3   2   4   2  12   2
M  END
