Coordinates from ORCA-job 4-NO2PhN2+~TsO-_B3LYPG-6-31G_dp-CH-Scan-d09-49-n800
 OpenBabel11261919023D

 33 33  0  0  0  0  0  0  0  0999 V2000
   -2.8032    1.0750   -0.2707 C   0  0  0  0  0  0  0  0  0  0  0  0
   -3.9003    0.2647    0.1547 N   0  0  0  0  0  0  0  0  0  0  0  0
   -5.0142    0.6918    0.3883 N   0  0  0  0  0  0  0  0  0  0  0  0
   -2.6504    1.4695   -1.5897 C   0  0  0  0  0  0  0  0  0  0  0  0
   -1.5594    2.1574   -2.0655 C   0  0  0  0  0  0  0  0  0  0  0  0
   -0.5590    2.4518   -1.1320 C   0  0  0  0  0  0  0  0  0  0  0  0
    0.6316    3.1902   -1.5836 N   0  0  0  0  0  0  0  0  0  0  0  0
    0.6830    3.5131   -2.7691 O   0  0  0  0  0  0  0  0  0  0  0  0
    1.4998    3.4329   -0.7470 O   0  0  0  0  0  0  0  0  0  0  0  0
   -0.6508    2.0664    0.2047 C   0  0  0  0  0  0  0  0  0  0  0  0
   -1.7721    1.3629    0.6359 C   0  0  0  0  0  0  0  0  0  0  0  0
   -4.0623    1.0069   -2.7841 H   0  0  0  0  0  0  0  0  0  0  0  0
   -1.4536    2.4670   -3.0963 H   0  0  0  0  0  0  0  0  0  0  0  0
    0.1545    2.3150    0.8841 H   0  0  0  0  0  0  0  0  0  0  0  0
   -1.8621    1.0390    1.6673 H   0  0  0  0  0  0  0  0  0  0  0  0
   -5.9918    5.2402    1.2465 C   0  0  0  0  0  0  0  0  0  0  0  0
   -5.7678    6.5858    0.9659 C   0  0  0  0  0  0  0  0  0  0  0  0
   -5.9319    7.0943   -0.3313 C   0  0  0  0  0  0  0  0  0  0  0  0
   -6.3292    6.2167   -1.3522 C   0  0  0  0  0  0  0  0  0  0  0  0
   -6.5591    4.8683   -1.0944 C   0  0  0  0  0  0  0  0  0  0  0  0
   -6.3825    4.3940    0.2072 C   0  0  0  0  0  0  0  0  0  0  0  0
   -5.8751    4.8485    2.2508 H   0  0  0  0  0  0  0  0  0  0  0  0
   -5.4627    7.2532    1.7667 H   0  0  0  0  0  0  0  0  0  0  0  0
   -6.4637    6.5961   -2.3612 H   0  0  0  0  0  0  0  0  0  0  0  0
   -6.8774    4.1923   -1.8800 H   0  0  0  0  0  0  0  0  0  0  0  0
   -6.6793    2.6755    0.5519 S   0  0  0  0  0  0  0  0  0  0  0  0
   -6.9113    2.4806    1.9775 O   0  0  0  0  0  0  0  0  0  0  0  0
   -5.0979    2.1545    0.2092 O   0  0  0  0  0  0  0  0  0  0  0  0
   -7.5622    2.1040   -0.4567 O   0  0  0  0  0  0  0  0  0  0  0  0
   -5.7169    8.5601   -0.6183 C   0  0  0  0  0  0  0  0  0  0  0  0
   -6.6622    9.1122   -0.5502 H   0  0  0  0  0  0  0  0  0  0  0  0
   -5.0222    9.0111    0.0958 H   0  0  0  0  0  0  0  0  0  0  0  0
   -5.3220    8.7165   -1.6263 H   0  0  0  0  0  0  0  0  0  0  0  0
  1  2  1  0  0  0  0
  1 11  2  0  0  0  0
  2  3  1  0  0  0  0
  4  1  1  0  0  0  0
  5  4  2  0  0  0  0
  5  6  1  0  0  0  0
  6 10  2  0  0  0  0
  7  6  1  0  0  0  0
  7  9  2  0  0  0  0
  8  7  2  0  0  0  0
 10 11  1  0  0  0  0
 10 14  1  0  0  0  0
 11 15  1  0  0  0  0
 13  5  1  0  0  0  0
 16 22  1  0  0  0  0
 17 16  1  0  0  0  0
 17 23  1  0  0  0  0
 18 17  2  0  0  0  0
 19 20  2  0  0  0  0
 19 18  1  0  0  0  0
 20 21  1  0  0  0  0
 21 26  1  0  0  0  0
 21 16  2  0  0  0  0
 24 19  1  0  0  0  0
 25 20  1  0  0  0  0
 26 27  2  0  0  0  0
 28  3  1  0  0  0  0
 28 26  1  0  0  0  0
 29 26  2  0  0  0  0
 30 31  1  0  0  0  0
 30 18  1  0  0  0  0
 30 32  1  0  0  0  0
 33 30  1  0  0  0  0
M  RAD  4   2   2   3   2   4   2  12   2
M  END
