Coordinates from ORCA-job 4-NO2PhN2+~TsO-_B3LYPG-6-31G_dp-CH-Scan-d09-49-n800
 OpenBabel11261919023D

 33 33  0  0  0  0  0  0  0  0999 V2000
   -2.2619    1.1950   -0.2906 C   0  0  0  0  0  0  0  0  0  0  0  0
   -3.5180    0.7238    0.1466 N   0  0  0  0  0  0  0  0  0  0  0  0
   -4.5240    0.3832    0.4818 N   0  0  0  0  0  0  0  0  0  0  0  0
   -2.3156    2.3530   -1.0662 C   0  0  0  0  0  0  0  0  0  0  0  0
   -1.0059    2.7415   -1.4623 C   0  0  0  0  0  0  0  0  0  0  0  0
    0.1210    2.0133   -1.1040 C   0  0  0  0  0  0  0  0  0  0  0  0
    1.4574    2.4715   -1.5618 N   0  0  0  0  0  0  0  0  0  0  0  0
    1.5078    3.4799   -2.2611 O   0  0  0  0  0  0  0  0  0  0  0  0
    2.4359    1.8124   -1.2102 O   0  0  0  0  0  0  0  0  0  0  0  0
    0.0799    0.8468   -0.3146 C   0  0  0  0  0  0  0  0  0  0  0  0
   -1.1531    0.4097    0.1166 C   0  0  0  0  0  0  0  0  0  0  0  0
   -5.1690    4.2531   -1.0732 H   0  0  0  0  0  0  0  0  0  0  0  0
   -0.8531    3.6314   -2.0666 H   0  0  0  0  0  0  0  0  0  0  0  0
    0.9968    0.3301   -0.0665 H   0  0  0  0  0  0  0  0  0  0  0  0
   -1.2617   -0.4792    0.7315 H   0  0  0  0  0  0  0  0  0  0  0  0
   -6.9849    5.6013    1.1724 C   0  0  0  0  0  0  0  0  0  0  0  0
   -6.8774    6.8844    0.6468 C   0  0  0  0  0  0  0  0  0  0  0  0
   -6.4355    7.1690   -0.6851 C   0  0  0  0  0  0  0  0  0  0  0  0
   -6.1074    6.1053   -1.4791 C   0  0  0  0  0  0  0  0  0  0  0  0
   -6.1751    4.7148   -0.9931 C   0  0  0  0  0  0  0  0  0  0  0  0
   -6.6504    4.5096    0.3815 C   0  0  0  0  0  0  0  0  0  0  0  0
   -7.3514    5.4320    2.1791 H   0  0  0  0  0  0  0  0  0  0  0  0
   -7.1546    7.7268    1.2783 H   0  0  0  0  0  0  0  0  0  0  0  0
   -5.7655    6.2654   -2.4983 H   0  0  0  0  0  0  0  0  0  0  0  0
   -6.7424    4.0537   -1.6704 H   0  0  0  0  0  0  0  0  0  0  0  0
   -6.7301    2.8260    1.0446 S   0  0  0  0  0  0  0  0  0  0  0  0
   -7.8257    2.8784    2.0275 O   0  0  0  0  0  0  0  0  0  0  0  0
   -5.3547    2.7621    1.6163 O   0  0  0  0  0  0  0  0  0  0  0  0
   -6.9419    1.9847   -0.1511 O   0  0  0  0  0  0  0  0  0  0  0  0
   -6.3576    8.6002   -1.1544 C   0  0  0  0  0  0  0  0  0  0  0  0
   -7.3362    9.0890   -1.0927 H   0  0  0  0  0  0  0  0  0  0  0  0
   -5.6649    9.1794   -0.5343 H   0  0  0  0  0  0  0  0  0  0  0  0
   -6.0143    8.6600   -2.1895 H   0  0  0  0  0  0  0  0  0  0  0  0
  1 11  1  0  0  0  0
  1  2  1  0  0  0  0
  2  3  1  0  0  0  0
  4  1  2  0  0  0  0
  5  6  2  0  0  0  0
  5  4  1  0  0  0  0
  6 10  1  0  0  0  0
  7  9  2  0  0  0  0
  7  6  1  0  0  0  0
  8  7  2  0  0  0  0
 10 14  1  0  0  0  0
 10 11  2  0  0  0  0
 11 15  1  0  0  0  0
 12 20  1  0  0  0  0
 13  5  1  0  0  0  0
 16 22  1  0  0  0  0
 17 16  1  0  0  0  0
 17 23  1  0  0  0  0
 18 17  1  0  0  0  0
 19 20  1  0  0  0  0
 19 18  2  0  0  0  0
 20 21  1  0  0  0  0
 21 26  1  0  0  0  0
 21 16  2  0  0  0  0
 24 19  1  0  0  0  0
 25 20  1  0  0  0  0
 26 28  2  0  0  0  0
 26 27  1  0  0  0  0
 29 26  2  0  0  0  0
 30 31  1  0  0  0  0
 30 18  1  0  0  0  0
 30 32  1  0  0  0  0
 33 30  1  0  0  0  0
M  RAD  5   2   2   3   3   4   2  17   2  27   2
M  END
