Coordinates from ORCA-job 4-NO2PhN2+~TsO-_B3LYPG-6-31G_dp-CH-Scan-d09-49-n800
 OpenBabel11261919023D

 33 33  0  0  0  0  0  0  0  0999 V2000
   -2.8058    1.0776   -0.2809 C   0  0  0  0  0  0  0  0  0  0  0  0
   -3.9043    0.2574    0.1241 N   0  0  0  0  0  0  0  0  0  0  0  0
   -5.0158    0.6891    0.3672 N   0  0  0  0  0  0  0  0  0  0  0  0
   -2.6246    1.4952   -1.5832 C   0  0  0  0  0  0  0  0  0  0  0  0
   -1.5464    2.1921   -2.0584 C   0  0  0  0  0  0  0  0  0  0  0  0
   -0.5534    2.4761   -1.1102 C   0  0  0  0  0  0  0  0  0  0  0  0
    0.6398    3.2227   -1.5438 N   0  0  0  0  0  0  0  0  0  0  0  0
    0.6982    3.5621   -2.7240 O   0  0  0  0  0  0  0  0  0  0  0  0
    1.4983    3.4592   -0.6958 O   0  0  0  0  0  0  0  0  0  0  0  0
   -0.6570    2.0728    0.2207 C   0  0  0  0  0  0  0  0  0  0  0  0
   -1.7796    1.3615    0.6360 C   0  0  0  0  0  0  0  0  0  0  0  0
   -4.3204    0.9307   -3.0336 H   0  0  0  0  0  0  0  0  0  0  0  0
   -1.4357    2.5147   -3.0852 H   0  0  0  0  0  0  0  0  0  0  0  0
    0.1420    2.3150    0.9098 H   0  0  0  0  0  0  0  0  0  0  0  0
   -1.8776    1.0267    1.6636 H   0  0  0  0  0  0  0  0  0  0  0  0
   -5.9742    5.2435    1.2557 C   0  0  0  0  0  0  0  0  0  0  0  0
   -5.7499    6.5864    0.9619 C   0  0  0  0  0  0  0  0  0  0  0  0
   -5.9194    7.0833   -0.3389 C   0  0  0  0  0  0  0  0  0  0  0  0
   -6.3225    6.1970   -1.3503 C   0  0  0  0  0  0  0  0  0  0  0  0
   -6.5531    4.8514   -1.0796 C   0  0  0  0  0  0  0  0  0  0  0  0
   -6.3711    4.3889    0.2259 C   0  0  0  0  0  0  0  0  0  0  0  0
   -5.8530    4.8605    2.2628 H   0  0  0  0  0  0  0  0  0  0  0  0
   -5.4404    7.2607    1.7552 H   0  0  0  0  0  0  0  0  0  0  0  0
   -6.4608    6.5674   -2.3622 H   0  0  0  0  0  0  0  0  0  0  0  0
   -6.8749    4.1688   -1.8579 H   0  0  0  0  0  0  0  0  0  0  0  0
   -6.6692    2.6747    0.5871 S   0  0  0  0  0  0  0  0  0  0  0  0
   -6.8705    2.4880    2.0184 O   0  0  0  0  0  0  0  0  0  0  0  0
   -5.0915    2.1458    0.2169 O   0  0  0  0  0  0  0  0  0  0  0  0
   -7.5720    2.0986   -0.4001 O   0  0  0  0  0  0  0  0  0  0  0  0
   -5.7035    8.5459   -0.6411 C   0  0  0  0  0  0  0  0  0  0  0  0
   -6.6524    9.0946   -0.6035 H   0  0  0  0  0  0  0  0  0  0  0  0
   -5.0277    9.0098    0.0826 H   0  0  0  0  0  0  0  0  0  0  0  0
   -5.2853    8.6896   -1.6417 H   0  0  0  0  0  0  0  0  0  0  0  0
  1  2  1  0  0  0  0
  1 11  2  0  0  0  0
  2  3  1  0  0  0  0
  4  1  1  0  0  0  0
  5  4  2  0  0  0  0
  5  6  1  0  0  0  0
  6 10  2  0  0  0  0
  7  6  1  0  0  0  0
  7  9  2  0  0  0  0
  8  7  2  0  0  0  0
 10 11  1  0  0  0  0
 10 14  1  0  0  0  0
 11 15  1  0  0  0  0
 13  5  1  0  0  0  0
 16 22  1  0  0  0  0
 17 16  1  0  0  0  0
 17 23  1  0  0  0  0
 18 17  2  0  0  0  0
 19 20  2  0  0  0  0
 19 18  1  0  0  0  0
 20 21  1  0  0  0  0
 21 26  1  0  0  0  0
 21 16  2  0  0  0  0
 24 19  1  0  0  0  0
 25 20  1  0  0  0  0
 26 27  2  0  0  0  0
 28  3  1  0  0  0  0
 28 26  1  0  0  0  0
 29 26  2  0  0  0  0
 30 31  1  0  0  0  0
 30 18  1  0  0  0  0
 30 32  1  0  0  0  0
 33 30  1  0  0  0  0
M  RAD  4   2   2   3   2   4   2  12   2
M  END
