Coordinates from ORCA-job 4-NO2PhN2+~TsO-_B3LYPG-6-31G_dp-CH-Scan-d09-49-n800
 OpenBabel11261919023D

 33 33  0  0  0  0  0  0  0  0999 V2000
   -2.9021    0.7948   -0.9592 C   0  0  0  0  0  0  0  0  0  0  0  0
   -3.9052   -0.1782   -0.7442 N   0  0  0  0  0  0  0  0  0  0  0  0
   -4.6773   -0.9768   -0.6672 N   0  0  0  0  0  0  0  0  0  0  0  0
   -2.3074    0.6598   -2.2127 C   0  0  0  0  0  0  0  0  0  0  0  0
   -1.3140    1.6720   -2.3806 C   0  0  0  0  0  0  0  0  0  0  0  0
   -1.0196    2.5896   -1.3812 C   0  0  0  0  0  0  0  0  0  0  0  0
    0.0105    3.6250   -1.6274 N   0  0  0  0  0  0  0  0  0  0  0  0
    0.7785    3.4607   -2.5711 O   0  0  0  0  0  0  0  0  0  0  0  0
    0.0156    4.6077   -0.8811 O   0  0  0  0  0  0  0  0  0  0  0  0
   -1.6781    2.6285   -0.1314 C   0  0  0  0  0  0  0  0  0  0  0  0
   -2.6693    1.6986    0.1078 C   0  0  0  0  0  0  0  0  0  0  0  0
   -4.0644    4.0488   -0.2350 H   0  0  0  0  0  0  0  0  0  0  0  0
   -0.7611    1.7512   -3.3135 H   0  0  0  0  0  0  0  0  0  0  0  0
   -1.3932    3.3678    0.6059 H   0  0  0  0  0  0  0  0  0  0  0  0
   -3.2402    1.6854    1.0324 H   0  0  0  0  0  0  0  0  0  0  0  0
   -6.6841    5.2600    1.1565 C   0  0  0  0  0  0  0  0  0  0  0  0
   -6.4674    6.5554    0.6951 C   0  0  0  0  0  0  0  0  0  0  0  0
   -5.5666    6.8907   -0.3657 C   0  0  0  0  0  0  0  0  0  0  0  0
   -4.8891    5.8617   -0.9597 C   0  0  0  0  0  0  0  0  0  0  0  0
   -5.0526    4.4618   -0.5256 C   0  0  0  0  0  0  0  0  0  0  0  0
   -5.9967    4.2052    0.5723 C   0  0  0  0  0  0  0  0  0  0  0  0
   -7.3933    5.0526    1.9511 H   0  0  0  0  0  0  0  0  0  0  0  0
   -7.0208    7.3681    1.1623 H   0  0  0  0  0  0  0  0  0  0  0  0
   -4.1942    6.0579   -1.7726 H   0  0  0  0  0  0  0  0  0  0  0  0
   -5.2999    3.7940   -1.3700 H   0  0  0  0  0  0  0  0  0  0  0  0
   -6.1880    2.5158    1.2010 S   0  0  0  0  0  0  0  0  0  0  0  0
   -7.5305    2.4955    1.7975 O   0  0  0  0  0  0  0  0  0  0  0  0
   -5.0453    2.5276    2.1580 O   0  0  0  0  0  0  0  0  0  0  0  0
   -5.9739    1.6713    0.0041 O   0  0  0  0  0  0  0  0  0  0  0  0
   -5.4055    8.3307   -0.7835 C   0  0  0  0  0  0  0  0  0  0  0  0
   -6.3631    8.7582   -1.0993 H   0  0  0  0  0  0  0  0  0  0  0  0
   -5.0342    8.9405    0.0475 H   0  0  0  0  0  0  0  0  0  0  0  0
   -4.7012    8.4258   -1.6129 H   0  0  0  0  0  0  0  0  0  0  0  0
  1  2  1  0  0  0  0
  1 11  2  0  0  0  0
  2  3  1  0  0  0  0
  4  1  1  0  0  0  0
  5  4  2  0  0  0  0
  5  6  1  0  0  0  0
  6 10  2  0  0  0  0
  7  6  1  0  0  0  0
  7  9  2  0  0  0  0
  8  7  2  0  0  0  0
 10 11  1  0  0  0  0
 10 14  1  0  0  0  0
 11 15  1  0  0  0  0
 13  5  1  0  0  0  0
 16 22  1  0  0  0  0
 17 16  1  0  0  0  0
 17 23  1  0  0  0  0
 18 17  1  0  0  0  0
 19 20  1  0  0  0  0
 19 18  2  0  0  0  0
 20 12  1  0  0  0  0
 20 21  1  0  0  0  0
 21 16  2  0  0  0  0
 21 26  1  0  0  0  0
 24 19  1  0  0  0  0
 25 20  1  0  0  0  0
 26 27  2  0  0  0  0
 26 28  1  0  0  0  0
 29 26  2  0  0  0  0
 30 18  1  0  0  0  0
 30 32  1  0  0  0  0
 31 30  1  0  0  0  0
 33 30  1  0  0  0  0
M  RAD  5   2   2   3   3   4   2  17   2  28   2
M  END
