Coordinates from ORCA-job 4-NO2PhN2+~TsO-_B3LYPG-6-31G_dp-CH-Scan-d09-49-n800
 OpenBabel11261919023D

 33 33  0  0  0  0  0  0  0  0999 V2000
   -2.7827    1.0888   -0.2438 C   0  0  0  0  0  0  0  0  0  0  0  0
   -3.8819    0.2687    0.1610 N   0  0  0  0  0  0  0  0  0  0  0  0
   -4.9947    0.7015    0.4055 N   0  0  0  0  0  0  0  0  0  0  0  0
   -2.6578    1.6477   -1.4955 C   0  0  0  0  0  0  0  0  0  0  0  0
   -1.5919    2.3514   -1.9768 C   0  0  0  0  0  0  0  0  0  0  0  0
   -0.5243    2.4873   -1.0747 C   0  0  0  0  0  0  0  0  0  0  0  0
    0.6714    3.2313   -1.5097 N   0  0  0  0  0  0  0  0  0  0  0  0
    0.6661    3.6966   -2.6474 O   0  0  0  0  0  0  0  0  0  0  0  0
    1.5934    3.3385   -0.7037 O   0  0  0  0  0  0  0  0  0  0  0  0
   -0.5577    1.9390    0.2071 C   0  0  0  0  0  0  0  0  0  0  0  0
   -1.6802    1.2264    0.6200 C   0  0  0  0  0  0  0  0  0  0  0  0
   -4.7814    1.2325   -3.1473 H   0  0  0  0  0  0  0  0  0  0  0  0
   -1.5339    2.7820   -2.9684 H   0  0  0  0  0  0  0  0  0  0  0  0
    0.2963    2.0702    0.8593 H   0  0  0  0  0  0  0  0  0  0  0  0
   -1.7256    0.7790    1.6081 H   0  0  0  0  0  0  0  0  0  0  0  0
   -6.0238    5.2676    1.2568 C   0  0  0  0  0  0  0  0  0  0  0  0
   -5.8057    6.6061    0.9385 C   0  0  0  0  0  0  0  0  0  0  0  0
   -5.9299    7.0683   -0.3800 C   0  0  0  0  0  0  0  0  0  0  0  0
   -6.2801    6.1517   -1.3842 C   0  0  0  0  0  0  0  0  0  0  0  0
   -6.5041    4.8102   -1.0894 C   0  0  0  0  0  0  0  0  0  0  0  0
   -6.3688    4.3831    0.2339 C   0  0  0  0  0  0  0  0  0  0  0  0
   -5.9369    4.9104    2.2769 H   0  0  0  0  0  0  0  0  0  0  0  0
   -5.5364    7.3038    1.7263 H   0  0  0  0  0  0  0  0  0  0  0  0
   -6.3818    6.4951   -2.4099 H   0  0  0  0  0  0  0  0  0  0  0  0
   -6.7837    4.1040   -1.8630 H   0  0  0  0  0  0  0  0  0  0  0  0
   -6.6600    2.6749    0.6255 S   0  0  0  0  0  0  0  0  0  0  0  0
   -6.8694    2.5130    2.0584 O   0  0  0  0  0  0  0  0  0  0  0  0
   -5.0717    2.1511    0.2759 O   0  0  0  0  0  0  0  0  0  0  0  0
   -7.5488    2.0720   -0.3577 O   0  0  0  0  0  0  0  0  0  0  0  0
   -5.7217    8.5259   -0.7104 C   0  0  0  0  0  0  0  0  0  0  0  0
   -6.6792    9.0604   -0.7298 H   0  0  0  0  0  0  0  0  0  0  0  0
   -5.0864    9.0188    0.0307 H   0  0  0  0  0  0  0  0  0  0  0  0
   -5.2605    8.6502   -1.6945 H   0  0  0  0  0  0  0  0  0  0  0  0
  1  2  1  0  0  0  0
  1 11  2  0  0  0  0
  2  3  1  0  0  0  0
  4  1  1  0  0  0  0
  5  4  2  0  0  0  0
  5  6  1  0  0  0  0
  6 10  2  0  0  0  0
  7  6  1  0  0  0  0
  7  9  2  0  0  0  0
  8  7  2  0  0  0  0
 10 11  1  0  0  0  0
 10 14  1  0  0  0  0
 11 15  1  0  0  0  0
 13  5  1  0  0  0  0
 16 22  1  0  0  0  0
 17 16  1  0  0  0  0
 17 23  1  0  0  0  0
 18 17  2  0  0  0  0
 19 20  2  0  0  0  0
 19 18  1  0  0  0  0
 20 21  1  0  0  0  0
 21 26  1  0  0  0  0
 21 16  2  0  0  0  0
 24 19  1  0  0  0  0
 25 20  1  0  0  0  0
 26 27  2  0  0  0  0
 28  3  1  0  0  0  0
 28 26  1  0  0  0  0
 29 26  2  0  0  0  0
 30 18  1  0  0  0  0
 30 32  1  0  0  0  0
 31 30  1  0  0  0  0
 33 30  1  0  0  0  0
M  RAD  4   2   2   3   2   4   2  12   2
M  END
