Coordinates from ORCA-job 4-NO2PhN2+~TsO-_B3LYPG-6-31G_dp-CH-Scan-d09-49-n800
 OpenBabel11261919033D

 33 33  0  0  0  0  0  0  0  0999 V2000
   -2.8633    0.7451   -0.9763 C   0  0  0  0  0  0  0  0  0  0  0  0
   -3.9087   -0.1754   -0.7411 N   0  0  0  0  0  0  0  0  0  0  0  0
   -4.7152   -0.9371   -0.6447 N   0  0  0  0  0  0  0  0  0  0  0  0
   -2.2253    0.5102   -2.1936 C   0  0  0  0  0  0  0  0  0  0  0  0
   -1.1863    1.4685   -2.3854 C   0  0  0  0  0  0  0  0  0  0  0  0
   -0.8846    2.4275   -1.4273 C   0  0  0  0  0  0  0  0  0  0  0  0
    0.2064    3.3949   -1.6885 N   0  0  0  0  0  0  0  0  0  0  0  0
    0.9888    3.1470   -2.6020 O   0  0  0  0  0  0  0  0  0  0  0  0
    0.2494    4.4062   -0.9832 O   0  0  0  0  0  0  0  0  0  0  0  0
   -1.5871    2.5699   -0.2098 C   0  0  0  0  0  0  0  0  0  0  0  0
   -2.6299    1.7029    0.0430 C   0  0  0  0  0  0  0  0  0  0  0  0
   -4.0602    4.2113   -0.1708 H   0  0  0  0  0  0  0  0  0  0  0  0
   -0.6001    1.4703   -3.3011 H   0  0  0  0  0  0  0  0  0  0  0  0
   -1.2947    3.3379    0.4946 H   0  0  0  0  0  0  0  0  0  0  0  0
   -3.2321    1.7661    0.9459 H   0  0  0  0  0  0  0  0  0  0  0  0
   -6.7798    5.2822    1.1524 C   0  0  0  0  0  0  0  0  0  0  0  0
   -6.6132    6.5928    0.7121 C   0  0  0  0  0  0  0  0  0  0  0  0
   -5.6953    6.9850   -0.3140 C   0  0  0  0  0  0  0  0  0  0  0  0
   -4.9460    5.9988   -0.8941 C   0  0  0  0  0  0  0  0  0  0  0  0
   -5.0552    4.5855   -0.4831 C   0  0  0  0  0  0  0  0  0  0  0  0
   -6.0214    4.2705    0.5817 C   0  0  0  0  0  0  0  0  0  0  0  0
   -7.5025    5.0293    1.9214 H   0  0  0  0  0  0  0  0  0  0  0  0
   -7.2217    7.3713    1.1690 H   0  0  0  0  0  0  0  0  0  0  0  0
   -4.2346    6.2394   -1.6805 H   0  0  0  0  0  0  0  0  0  0  0  0
   -5.2545    3.9242   -1.3452 H   0  0  0  0  0  0  0  0  0  0  0  0
   -6.1506    2.5654    1.1819 S   0  0  0  0  0  0  0  0  0  0  0  0
   -7.4829    2.4895    1.7963 O   0  0  0  0  0  0  0  0  0  0  0  0
   -4.9942    2.5902    2.1217 O   0  0  0  0  0  0  0  0  0  0  0  0
   -5.9279    1.7528   -0.0361 O   0  0  0  0  0  0  0  0  0  0  0  0
   -5.5948    8.4361   -0.7116 C   0  0  0  0  0  0  0  0  0  0  0  0
   -6.5601    8.8145   -1.0647 H   0  0  0  0  0  0  0  0  0  0  0  0
   -5.2938    9.0559    0.1400 H   0  0  0  0  0  0  0  0  0  0  0  0
   -4.8622    8.5788   -1.5091 H   0  0  0  0  0  0  0  0  0  0  0  0
  1  2  1  0  0  0  0
  1 11  2  0  0  0  0
  2  3  1  0  0  0  0
  4  1  1  0  0  0  0
  5  4  2  0  0  0  0
  5  6  1  0  0  0  0
  6 10  2  0  0  0  0
  7  6  1  0  0  0  0
  7  9  2  0  0  0  0
  8  7  2  0  0  0  0
 10 11  1  0  0  0  0
 10 14  1  0  0  0  0
 11 15  1  0  0  0  0
 13  5  1  0  0  0  0
 16 22  1  0  0  0  0
 17 16  1  0  0  0  0
 17 23  1  0  0  0  0
 18 17  1  0  0  0  0
 19 20  1  0  0  0  0
 19 18  2  0  0  0  0
 20 12  1  0  0  0  0
 20 21  1  0  0  0  0
 21 16  2  0  0  0  0
 21 26  1  0  0  0  0
 24 19  1  0  0  0  0
 25 20  1  0  0  0  0
 26 27  2  0  0  0  0
 26 28  1  0  0  0  0
 29 26  2  0  0  0  0
 30 18  1  0  0  0  0
 30 32  1  0  0  0  0
 31 30  1  0  0  0  0
 33 30  1  0  0  0  0
M  RAD  5   2   2   3   3   4   2  17   2  28   2
M  END
