Coordinates from ORCA-job 4-NO2PhN2+~TsO-_B3LYPG-6-31G_dp-CH-Scan-d09-49-n800
 OpenBabel11261919023D

 33 33  0  0  0  0  0  0  0  0999 V2000
   -2.9813    0.8619   -0.9762 C   0  0  0  0  0  0  0  0  0  0  0  0
   -3.9502   -0.1563   -0.8078 N   0  0  0  0  0  0  0  0  0  0  0  0
   -4.6964   -0.9815   -0.7738 N   0  0  0  0  0  0  0  0  0  0  0  0
   -2.4881    0.8972   -2.2791 C   0  0  0  0  0  0  0  0  0  0  0  0
   -1.5286    1.9491   -2.3958 C   0  0  0  0  0  0  0  0  0  0  0  0
   -1.1833    2.7560   -1.3201 C   0  0  0  0  0  0  0  0  0  0  0  0
   -0.2097    3.8542   -1.5210 N   0  0  0  0  0  0  0  0  0  0  0  0
    0.4973    3.8214   -2.5241 O   0  0  0  0  0  0  0  0  0  0  0  0
   -0.1890    4.7530   -0.6759 O   0  0  0  0  0  0  0  0  0  0  0  0
   -1.7432    2.6270   -0.0287 C   0  0  0  0  0  0  0  0  0  0  0  0
   -2.6874    1.6396    0.1708 C   0  0  0  0  0  0  0  0  0  0  0  0
   -4.0010    3.9324   -0.1886 H   0  0  0  0  0  0  0  0  0  0  0  0
   -1.0461    2.1510   -3.3491 H   0  0  0  0  0  0  0  0  0  0  0  0
   -1.4267    3.2887    0.7670 H   0  0  0  0  0  0  0  0  0  0  0  0
   -3.1935    1.5105    1.1227 H   0  0  0  0  0  0  0  0  0  0  0  0
   -6.6004    5.2346    1.1274 C   0  0  0  0  0  0  0  0  0  0  0  0
   -6.3503    6.5085    0.6247 C   0  0  0  0  0  0  0  0  0  0  0  0
   -5.4386    6.7865   -0.4428 C   0  0  0  0  0  0  0  0  0  0  0  0
   -4.7852    5.7214   -0.9997 C   0  0  0  0  0  0  0  0  0  0  0  0
   -4.9808    4.3430   -0.5166 C   0  0  0  0  0  0  0  0  0  0  0  0
   -5.9378    4.1444    0.5807 C   0  0  0  0  0  0  0  0  0  0  0  0
   -7.3169    5.0710    1.9257 H   0  0  0  0  0  0  0  0  0  0  0  0
   -6.8847    7.3495    1.0632 H   0  0  0  0  0  0  0  0  0  0  0  0
   -4.0826    5.8731   -1.8154 H   0  0  0  0  0  0  0  0  0  0  0  0
   -5.2156    3.6422   -1.3365 H   0  0  0  0  0  0  0  0  0  0  0  0
   -6.1727    2.4820    1.2670 S   0  0  0  0  0  0  0  0  0  0  0  0
   -7.5106    2.5223    1.8734 O   0  0  0  0  0  0  0  0  0  0  0  0
   -5.0219    2.4872    2.2134 O   0  0  0  0  0  0  0  0  0  0  0  0
   -5.9972    1.5917    0.0966 O   0  0  0  0  0  0  0  0  0  0  0  0
   -5.2399    8.2071   -0.9080 C   0  0  0  0  0  0  0  0  0  0  0  0
   -6.1849    8.6474   -1.2433 H   0  0  0  0  0  0  0  0  0  0  0  0
   -4.8569    8.8352   -0.0962 H   0  0  0  0  0  0  0  0  0  0  0  0
   -4.5295    8.2564   -1.7362 H   0  0  0  0  0  0  0  0  0  0  0  0
  1  2  1  0  0  0  0
  1 11  2  0  0  0  0
  2  3  1  0  0  0  0
  4  1  1  0  0  0  0
  5  4  2  0  0  0  0
  5  6  1  0  0  0  0
  6 10  2  0  0  0  0
  7  6  1  0  0  0  0
  7  9  2  0  0  0  0
  8  7  2  0  0  0  0
 10 11  1  0  0  0  0
 10 14  1  0  0  0  0
 11 15  1  0  0  0  0
 13  5  1  0  0  0  0
 16 22  1  0  0  0  0
 17 23  1  0  0  0  0
 17 16  1  0  0  0  0
 18 17  1  0  0  0  0
 19 20  1  0  0  0  0
 19 18  2  0  0  0  0
 20 12  1  0  0  0  0
 20 21  1  0  0  0  0
 21 16  2  0  0  0  0
 21 26  1  0  0  0  0
 24 19  1  0  0  0  0
 25 20  1  0  0  0  0
 26 27  2  0  0  0  0
 26 28  1  0  0  0  0
 29 26  2  0  0  0  0
 30 18  1  0  0  0  0
 30 32  1  0  0  0  0
 31 30  1  0  0  0  0
 33 30  1  0  0  0  0
M  RAD  5   2   2   3   3   4   2  17   2  28   2
M  END
