Coordinates from ORCA-job 4-NO2PhN2+~TsO-_B3LYPG-6-31G_dp-CH-Scan-d09-49-n800
 OpenBabel11261919023D

 33 33  0  0  0  0  0  0  0  0999 V2000
   -2.8000    1.0803   -0.2736 C   0  0  0  0  0  0  0  0  0  0  0  0
   -3.8994    0.2592    0.1282 N   0  0  0  0  0  0  0  0  0  0  0  0
   -5.0113    0.6920    0.3707 N   0  0  0  0  0  0  0  0  0  0  0  0
   -2.6257    1.5297   -1.5644 C   0  0  0  0  0  0  0  0  0  0  0  0
   -1.5515    2.2286   -2.0407 C   0  0  0  0  0  0  0  0  0  0  0  0
   -0.5441    2.4808   -1.0975 C   0  0  0  0  0  0  0  0  0  0  0  0
    0.6506    3.2275   -1.5283 N   0  0  0  0  0  0  0  0  0  0  0  0
    0.6979    3.5933   -2.7009 O   0  0  0  0  0  0  0  0  0  0  0  0
    1.5206    3.4370   -0.6850 O   0  0  0  0  0  0  0  0  0  0  0  0
   -0.6354    2.0459    0.2243 C   0  0  0  0  0  0  0  0  0  0  0  0
   -1.7586    1.3336    0.6365 C   0  0  0  0  0  0  0  0  0  0  0  0
   -4.4616    0.9711   -3.1067 H   0  0  0  0  0  0  0  0  0  0  0  0
   -1.4506    2.5748   -3.0611 H   0  0  0  0  0  0  0  0  0  0  0  0
    0.1739    2.2646    0.9091 H   0  0  0  0  0  0  0  0  0  0  0  0
   -1.8473    0.9746    1.6569 H   0  0  0  0  0  0  0  0  0  0  0  0
   -5.9760    5.2481    1.2550 C   0  0  0  0  0  0  0  0  0  0  0  0
   -5.7537    6.5900    0.9550 C   0  0  0  0  0  0  0  0  0  0  0  0
   -5.9216    7.0800   -0.3486 C   0  0  0  0  0  0  0  0  0  0  0  0
   -6.3207    6.1879   -1.3565 C   0  0  0  0  0  0  0  0  0  0  0  0
   -6.5493    4.8433   -1.0797 C   0  0  0  0  0  0  0  0  0  0  0  0
   -6.3692    4.3878    0.2286 C   0  0  0  0  0  0  0  0  0  0  0  0
   -5.8560    4.8702    2.2642 H   0  0  0  0  0  0  0  0  0  0  0  0
   -5.4471    7.2688    1.7456 H   0  0  0  0  0  0  0  0  0  0  0  0
   -6.4576    6.5531   -2.3705 H   0  0  0  0  0  0  0  0  0  0  0  0
   -6.8679    4.1562   -1.8554 H   0  0  0  0  0  0  0  0  0  0  0  0
   -6.6653    2.6750    0.5976 S   0  0  0  0  0  0  0  0  0  0  0  0
   -6.8628    2.4938    2.0300 O   0  0  0  0  0  0  0  0  0  0  0  0
   -5.0861    2.1462    0.2266 O   0  0  0  0  0  0  0  0  0  0  0  0
   -7.5687    2.0933   -0.3855 O   0  0  0  0  0  0  0  0  0  0  0  0
   -5.7080    8.5415   -0.6578 C   0  0  0  0  0  0  0  0  0  0  0  0
   -6.6589    9.0874   -0.6305 H   0  0  0  0  0  0  0  0  0  0  0  0
   -5.0390    9.0118    0.0682 H   0  0  0  0  0  0  0  0  0  0  0  0
   -5.2829    8.6806   -1.6561 H   0  0  0  0  0  0  0  0  0  0  0  0
  1  2  1  0  0  0  0
  1 11  2  0  0  0  0
  2  3  1  0  0  0  0
  4  1  1  0  0  0  0
  5  4  2  0  0  0  0
  5  6  1  0  0  0  0
  6 10  2  0  0  0  0
  7  6  1  0  0  0  0
  7  9  2  0  0  0  0
  8  7  2  0  0  0  0
 10 11  1  0  0  0  0
 10 14  1  0  0  0  0
 11 15  1  0  0  0  0
 13  5  1  0  0  0  0
 16 22  1  0  0  0  0
 17 16  1  0  0  0  0
 17 23  1  0  0  0  0
 18 17  2  0  0  0  0
 19 20  2  0  0  0  0
 19 18  1  0  0  0  0
 20 21  1  0  0  0  0
 21 26  1  0  0  0  0
 21 16  2  0  0  0  0
 24 19  1  0  0  0  0
 25 20  1  0  0  0  0
 26 27  2  0  0  0  0
 28  3  1  0  0  0  0
 28 26  1  0  0  0  0
 29 26  2  0  0  0  0
 30 31  1  0  0  0  0
 30 18  1  0  0  0  0
 30 32  1  0  0  0  0
 33 30  1  0  0  0  0
M  RAD  4   2   2   3   2   4   2  12   2
M  END
