Coordinates from ORCA-job 4-NO2PhN2+~TsO-_B3LYPG-6-31G_dp-CH-Scan-d09-49-n800
 OpenBabel11261919023D

 33 33  0  0  0  0  0  0  0  0999 V2000
   -2.7312    1.1374   -0.9182 C   0  0  0  0  0  0  0  0  0  0  0  0
   -3.9572    0.4348   -0.8163 N   0  0  0  0  0  0  0  0  0  0  0  0
   -4.9071   -0.1449   -0.8512 N   0  0  0  0  0  0  0  0  0  0  0  0
   -2.3675    1.3679   -2.2420 C   0  0  0  0  0  0  0  0  0  0  0  0
   -1.1184    2.0446   -2.2989 C   0  0  0  0  0  0  0  0  0  0  0  0
   -0.4127    2.3726   -1.1473 C   0  0  0  0  0  0  0  0  0  0  0  0
    0.8905    3.0734   -1.2723 N   0  0  0  0  0  0  0  0  0  0  0  0
    1.3070    3.3120   -2.4034 O   0  0  0  0  0  0  0  0  0  0  0  0
    1.4746    3.3828   -0.2333 O   0  0  0  0  0  0  0  0  0  0  0  0
   -0.8694    2.0982    0.1584 C   0  0  0  0  0  0  0  0  0  0  0  0
   -2.0840    1.4613    0.2979 C   0  0  0  0  0  0  0  0  0  0  0  0
   -4.8957    3.9651   -1.0885 H   0  0  0  0  0  0  0  0  0  0  0  0
   -0.6810    2.3231   -3.2537 H   0  0  0  0  0  0  0  0  0  0  0  0
   -0.2747    2.3986    1.0104 H   0  0  0  0  0  0  0  0  0  0  0  0
   -2.5311    1.2556    1.2637 H   0  0  0  0  0  0  0  0  0  0  0  0
   -6.4776    5.3359    1.3492 C   0  0  0  0  0  0  0  0  0  0  0  0
   -6.3705    6.6318    0.8472 C   0  0  0  0  0  0  0  0  0  0  0  0
   -6.0069    6.9409   -0.5023 C   0  0  0  0  0  0  0  0  0  0  0  0
   -5.7601    5.8899   -1.3420 C   0  0  0  0  0  0  0  0  0  0  0  0
   -5.8510    4.4859   -0.8923 C   0  0  0  0  0  0  0  0  0  0  0  0
   -6.2215    4.2591    0.5157 C   0  0  0  0  0  0  0  0  0  0  0  0
   -6.7691    5.1460    2.3768 H   0  0  0  0  0  0  0  0  0  0  0  0
   -6.5795    7.4642    1.5172 H   0  0  0  0  0  0  0  0  0  0  0  0
   -5.4819    6.0678   -2.3777 H   0  0  0  0  0  0  0  0  0  0  0  0
   -6.5431    3.9050   -1.5282 H   0  0  0  0  0  0  0  0  0  0  0  0
   -6.2979    2.5567    1.1349 S   0  0  0  0  0  0  0  0  0  0  0  0
   -7.0045    2.6607    2.4195 O   0  0  0  0  0  0  0  0  0  0  0  0
   -4.8337    2.2815    1.2189 O   0  0  0  0  0  0  0  0  0  0  0  0
   -6.9847    1.8393    0.0397 O   0  0  0  0  0  0  0  0  0  0  0  0
   -5.9154    8.3814   -0.9391 C   0  0  0  0  0  0  0  0  0  0  0  0
   -6.8775    8.8914   -0.8171 H   0  0  0  0  0  0  0  0  0  0  0  0
   -5.1791    8.9271   -0.3395 H   0  0  0  0  0  0  0  0  0  0  0  0
   -5.6220    8.4603   -1.9882 H   0  0  0  0  0  0  0  0  0  0  0  0
  1  2  1  0  0  0  0
  1 11  2  0  0  0  0
  3  2  1  0  0  0  0
  4  1  1  0  0  0  0
  5  4  2  0  0  0  0
  5  6  1  0  0  0  0
  6 10  2  0  0  0  0
  7  6  1  0  0  0  0
  7  9  2  0  0  0  0
  8  7  2  0  0  0  0
 10 11  1  0  0  0  0
 10 14  1  0  0  0  0
 11 15  1  0  0  0  0
 12 20  1  0  0  0  0
 13  5  1  0  0  0  0
 16 22  1  0  0  0  0
 17 16  1  0  0  0  0
 17 23  1  0  0  0  0
 18 17  1  0  0  0  0
 19 20  1  0  0  0  0
 19 18  2  0  0  0  0
 20 21  1  0  0  0  0
 21 26  1  0  0  0  0
 21 16  2  0  0  0  0
 24 19  1  0  0  0  0
 25 20  1  0  0  0  0
 26 28  2  0  0  0  0
 26 27  1  0  0  0  0
 29 26  2  0  0  0  0
 30 31  1  0  0  0  0
 30 18  1  0  0  0  0
 30 32  1  0  0  0  0
 33 30  1  0  0  0  0
M  RAD  5   2   2   3   3   4   2  17   2  27   2
M  END
