Coordinates from ORCA-job 4-NO2PhN2+~TsO-_B3LYPG-6-31G_dp-CH-Scan-d09-49-n800
 OpenBabel11261919023D

 33 33  0  0  0  0  0  0  0  0999 V2000
   -2.7803    1.0895   -0.2417 C   0  0  0  0  0  0  0  0  0  0  0  0
   -3.8803    0.2695    0.1613 N   0  0  0  0  0  0  0  0  0  0  0  0
   -4.9929    0.7026    0.4071 N   0  0  0  0  0  0  0  0  0  0  0  0
   -2.6623    1.6698   -1.4840 C   0  0  0  0  0  0  0  0  0  0  0  0
   -1.5971    2.3751   -1.9634 C   0  0  0  0  0  0  0  0  0  0  0  0
   -0.5203    2.4884   -1.0689 C   0  0  0  0  0  0  0  0  0  0  0  0
    0.6762    3.2324   -1.5021 N   0  0  0  0  0  0  0  0  0  0  0  0
    0.6627    3.7188   -2.6308 O   0  0  0  0  0  0  0  0  0  0  0  0
    1.6069    3.3181   -0.7035 O   0  0  0  0  0  0  0  0  0  0  0  0
   -0.5454    1.9176    0.2032 C   0  0  0  0  0  0  0  0  0  0  0  0
   -1.6685    1.2046    0.6138 C   0  0  0  0  0  0  0  0  0  0  0  0
   -4.8346    1.2825   -3.1624 H   0  0  0  0  0  0  0  0  0  0  0  0
   -1.5450    2.8224   -2.9481 H   0  0  0  0  0  0  0  0  0  0  0  0
    0.3155    2.0316    0.8495 H   0  0  0  0  0  0  0  0  0  0  0  0
   -1.7079    0.7399    1.5942 H   0  0  0  0  0  0  0  0  0  0  0  0
   -6.0299    5.2726    1.2577 C   0  0  0  0  0  0  0  0  0  0  0  0
   -5.8134    6.6102    0.9345 C   0  0  0  0  0  0  0  0  0  0  0  0
   -5.9323    7.0662   -0.3867 C   0  0  0  0  0  0  0  0  0  0  0  0
   -6.2752    6.1442   -1.3885 C   0  0  0  0  0  0  0  0  0  0  0  0
   -6.4977    4.8036   -1.0888 C   0  0  0  0  0  0  0  0  0  0  0  0
   -6.3679    4.3828    0.2372 C   0  0  0  0  0  0  0  0  0  0  0  0
   -5.9468    4.9200    2.2797 H   0  0  0  0  0  0  0  0  0  0  0  0
   -5.5494    7.3121    1.7204 H   0  0  0  0  0  0  0  0  0  0  0  0
   -6.3725    6.4827   -2.4162 H   0  0  0  0  0  0  0  0  0  0  0  0
   -6.7714    4.0933   -1.8607 H   0  0  0  0  0  0  0  0  0  0  0  0
   -6.6574    2.6758    0.6350 S   0  0  0  0  0  0  0  0  0  0  0  0
   -6.8629    2.5183    2.0690 O   0  0  0  0  0  0  0  0  0  0  0  0
   -5.0693    2.1519    0.2830 O   0  0  0  0  0  0  0  0  0  0  0  0
   -7.5482    2.0691   -0.3439 O   0  0  0  0  0  0  0  0  0  0  0  0
   -5.7260    8.5228   -0.7227 C   0  0  0  0  0  0  0  0  0  0  0  0
   -6.6847    9.0546   -0.7498 H   0  0  0  0  0  0  0  0  0  0  0  0
   -5.0959    9.0208    0.0196 H   0  0  0  0  0  0  0  0  0  0  0  0
   -5.2596    8.6437   -1.7049 H   0  0  0  0  0  0  0  0  0  0  0  0
  1  2  1  0  0  0  0
  1 11  2  0  0  0  0
  2  3  1  0  0  0  0
  4  1  1  0  0  0  0
  5  4  2  0  0  0  0
  5  6  1  0  0  0  0
  6 10  2  0  0  0  0
  7  6  1  0  0  0  0
  7  9  2  0  0  0  0
  8  7  2  0  0  0  0
 10 11  1  0  0  0  0
 10 14  1  0  0  0  0
 11 15  1  0  0  0  0
 13  5  1  0  0  0  0
 16 22  1  0  0  0  0
 17 16  1  0  0  0  0
 17 23  1  0  0  0  0
 18 17  2  0  0  0  0
 19 20  2  0  0  0  0
 19 18  1  0  0  0  0
 20 21  1  0  0  0  0
 21 26  1  0  0  0  0
 21 16  2  0  0  0  0
 24 19  1  0  0  0  0
 25 20  1  0  0  0  0
 26 27  2  0  0  0  0
 28  3  1  0  0  0  0
 28 26  1  0  0  0  0
 29 26  2  0  0  0  0
 30 18  1  0  0  0  0
 30 32  1  0  0  0  0
 31 30  1  0  0  0  0
 33 30  1  0  0  0  0
M  RAD  4   2   2   3   2   4   2  12   2
M  END
