Coordinates from ORCA-job 4-NO2PhN2+~TsO-_B3LYPG-6-31G_dp-CH-Scan-d09-49-n800
 OpenBabel11261919023D

 33 33  0  0  0  0  0  0  0  0999 V2000
   -2.7900    1.0858   -0.2531 C   0  0  0  0  0  0  0  0  0  0  0  0
   -3.8880    0.2650    0.1535 N   0  0  0  0  0  0  0  0  0  0  0  0
   -5.0006    0.6974    0.3965 N   0  0  0  0  0  0  0  0  0  0  0  0
   -2.6451    1.5904   -1.5261 C   0  0  0  0  0  0  0  0  0  0  0  0
   -1.5771    2.2913   -2.0095 C   0  0  0  0  0  0  0  0  0  0  0  0
   -0.5355    2.4852   -1.0888 C   0  0  0  0  0  0  0  0  0  0  0  0
    0.6583    3.2303   -1.5261 N   0  0  0  0  0  0  0  0  0  0  0  0
    0.6754    3.6441   -2.6833 O   0  0  0  0  0  0  0  0  0  0  0  0
    1.5572    3.3899   -0.7026 O   0  0  0  0  0  0  0  0  0  0  0  0
   -0.5926    1.9937    0.2150 C   0  0  0  0  0  0  0  0  0  0  0  0
   -1.7139    1.2812    0.6317 C   0  0  0  0  0  0  0  0  0  0  0  0
   -4.6446    1.0989   -3.1253 H   0  0  0  0  0  0  0  0  0  0  0  0
   -1.5019    2.6798   -3.0170 H   0  0  0  0  0  0  0  0  0  0  0  0
    0.2419    2.1686    0.8819 H   0  0  0  0  0  0  0  0  0  0  0  0
   -1.7767    0.8779    1.6375 H   0  0  0  0  0  0  0  0  0  0  0  0
   -6.0090    5.2575    1.2572 C   0  0  0  0  0  0  0  0  0  0  0  0
   -5.7876    6.5979    0.9496 C   0  0  0  0  0  0  0  0  0  0  0  0
   -5.9237    7.0736   -0.3629 C   0  0  0  0  0  0  0  0  0  0  0  0
   -6.2895    6.1687   -1.3721 C   0  0  0  0  0  0  0  0  0  0  0  0
   -6.5168    4.8255   -1.0879 C   0  0  0  0  0  0  0  0  0  0  0  0
   -6.3692    4.3846    0.2295 C   0  0  0  0  0  0  0  0  0  0  0  0
   -5.9132    4.8901    2.2729 H   0  0  0  0  0  0  0  0  0  0  0  0
   -5.5064    7.2866    1.7411 H   0  0  0  0  0  0  0  0  0  0  0  0
   -6.4011    6.5227   -2.3931 H   0  0  0  0  0  0  0  0  0  0  0  0
   -6.8090    4.1283   -1.8650 H   0  0  0  0  0  0  0  0  0  0  0  0
   -6.6640    2.6738    0.6077 S   0  0  0  0  0  0  0  0  0  0  0  0
   -6.8761    2.5018    2.0391 O   0  0  0  0  0  0  0  0  0  0  0  0
   -5.0777    2.1489    0.2566 O   0  0  0  0  0  0  0  0  0  0  0  0
   -7.5535    2.0810   -0.3812 O   0  0  0  0  0  0  0  0  0  0  0  0
   -5.7116    8.5334   -0.6812 C   0  0  0  0  0  0  0  0  0  0  0  0
   -6.6666    9.0726   -0.6861 H   0  0  0  0  0  0  0  0  0  0  0  0
   -5.0664    9.0160    0.0582 H   0  0  0  0  0  0  0  0  0  0  0  0
   -5.2595    8.6651   -1.6687 H   0  0  0  0  0  0  0  0  0  0  0  0
  1  2  1  0  0  0  0
  1 11  2  0  0  0  0
  2  3  1  0  0  0  0
  4  1  1  0  0  0  0
  5  4  2  0  0  0  0
  5  6  1  0  0  0  0
  6 10  2  0  0  0  0
  7  6  1  0  0  0  0
  7  9  2  0  0  0  0
  8  7  2  0  0  0  0
 10 11  1  0  0  0  0
 10 14  1  0  0  0  0
 11 15  1  0  0  0  0
 13  5  1  0  0  0  0
 16 22  1  0  0  0  0
 17 16  1  0  0  0  0
 17 23  1  0  0  0  0
 18 17  2  0  0  0  0
 19 20  2  0  0  0  0
 19 18  1  0  0  0  0
 20 21  1  0  0  0  0
 21 26  1  0  0  0  0
 21 16  2  0  0  0  0
 24 19  1  0  0  0  0
 25 20  1  0  0  0  0
 26 27  2  0  0  0  0
 28  3  1  0  0  0  0
 28 26  1  0  0  0  0
 29 26  2  0  0  0  0
 30 18  1  0  0  0  0
 30 32  1  0  0  0  0
 31 30  1  0  0  0  0
 33 30  1  0  0  0  0
M  RAD  4   2   2   3   2   4   2  12   2
M  END
