Coordinates from ORCA-job 4-NO2PhN2+~TsO-_B3LYPG-6-31G_dp-CH-Scan-d09-49-n800
 OpenBabel11261919023D

 33 33  0  0  0  0  0  0  0  0999 V2000
   -2.7383    1.1502   -0.9140 C   0  0  0  0  0  0  0  0  0  0  0  0
   -3.9600    0.4394   -0.8196 N   0  0  0  0  0  0  0  0  0  0  0  0
   -4.9064   -0.1457   -0.8599 N   0  0  0  0  0  0  0  0  0  0  0  0
   -2.3827    1.4098   -2.2348 C   0  0  0  0  0  0  0  0  0  0  0  0
   -1.1369    2.0930   -2.2842 C   0  0  0  0  0  0  0  0  0  0  0  0
   -0.4258    2.3993   -1.1299 C   0  0  0  0  0  0  0  0  0  0  0  0
    0.8741    3.1075   -1.2474 N   0  0  0  0  0  0  0  0  0  0  0  0
    1.2825    3.3726   -2.3756 O   0  0  0  0  0  0  0  0  0  0  0  0
    1.4631    3.3969   -0.2055 O   0  0  0  0  0  0  0  0  0  0  0  0
   -0.8745    2.0963    0.1722 C   0  0  0  0  0  0  0  0  0  0  0  0
   -2.0859    1.4521    0.3049 C   0  0  0  0  0  0  0  0  0  0  0  0
   -4.9543    3.9301   -1.1393 H   0  0  0  0  0  0  0  0  0  0  0  0
   -0.7062    2.3940   -3.2352 H   0  0  0  0  0  0  0  0  0  0  0  0
   -0.2765    2.3817    1.0270 H   0  0  0  0  0  0  0  0  0  0  0  0
   -2.5269    1.2252    1.2687 H   0  0  0  0  0  0  0  0  0  0  0  0
   -6.4304    5.3283    1.3507 C   0  0  0  0  0  0  0  0  0  0  0  0
   -6.3150    6.6223    0.8462 C   0  0  0  0  0  0  0  0  0  0  0  0
   -5.9882    6.9258   -0.5140 C   0  0  0  0  0  0  0  0  0  0  0  0
   -5.7887    5.8713   -1.3617 C   0  0  0  0  0  0  0  0  0  0  0  0
   -5.8921    4.4688   -0.9100 C   0  0  0  0  0  0  0  0  0  0  0  0
   -6.2206    4.2474    0.5092 C   0  0  0  0  0  0  0  0  0  0  0  0
   -6.6946    5.1435    2.3866 H   0  0  0  0  0  0  0  0  0  0  0  0
   -6.4878    7.4578    1.5226 H   0  0  0  0  0  0  0  0  0  0  0  0
   -5.5405    6.0449   -2.4058 H   0  0  0  0  0  0  0  0  0  0  0  0
   -6.6152    3.9013   -1.5231 H   0  0  0  0  0  0  0  0  0  0  0  0
   -6.3056    2.5472    1.1328 S   0  0  0  0  0  0  0  0  0  0  0  0
   -7.0143    2.6595    2.4158 O   0  0  0  0  0  0  0  0  0  0  0  0
   -4.8419    2.2694    1.2223 O   0  0  0  0  0  0  0  0  0  0  0  0
   -6.9914    1.8256    0.0401 O   0  0  0  0  0  0  0  0  0  0  0  0
   -5.8829    8.3647   -0.9530 C   0  0  0  0  0  0  0  0  0  0  0  0
   -6.8300    8.8937   -0.7981 H   0  0  0  0  0  0  0  0  0  0  0  0
   -5.1160    8.8949   -0.3785 H   0  0  0  0  0  0  0  0  0  0  0  0
   -5.6238    8.4389   -2.0114 H   0  0  0  0  0  0  0  0  0  0  0  0
  1  2  1  0  0  0  0
  1 11  2  0  0  0  0
  3  2  1  0  0  0  0
  4  1  1  0  0  0  0
  5  4  2  0  0  0  0
  5  6  1  0  0  0  0
  6 10  2  0  0  0  0
  7  6  1  0  0  0  0
  7  9  2  0  0  0  0
  8  7  2  0  0  0  0
 10 11  1  0  0  0  0
 10 14  1  0  0  0  0
 11 15  1  0  0  0  0
 12 20  1  0  0  0  0
 13  5  1  0  0  0  0
 16 22  1  0  0  0  0
 17 16  1  0  0  0  0
 17 23  1  0  0  0  0
 18 17  1  0  0  0  0
 19 20  1  0  0  0  0
 19 18  2  0  0  0  0
 20 21  1  0  0  0  0
 21 26  1  0  0  0  0
 21 16  2  0  0  0  0
 24 19  1  0  0  0  0
 25 20  1  0  0  0  0
 26 28  2  0  0  0  0
 26 27  1  0  0  0  0
 29 26  2  0  0  0  0
 30 31  1  0  0  0  0
 30 18  1  0  0  0  0
 30 32  1  0  0  0  0
 33 30  1  0  0  0  0
M  RAD  5   2   2   3   3   4   2  17   2  27   2
M  END
