Coordinates from ORCA-job 4-NO2PhN2+~TsO-_B3LYPG-6-31G_dp-CH-Scan-d09-49-n800
 OpenBabel11261919023D

 33 33  0  0  0  0  0  0  0  0999 V2000
   -2.2147    1.1618   -0.3330 C   0  0  0  0  0  0  0  0  0  0  0  0
   -3.4865    0.7120    0.0825 N   0  0  0  0  0  0  0  0  0  0  0  0
   -4.5054    0.3891    0.3956 N   0  0  0  0  0  0  0  0  0  0  0  0
   -2.2461    2.2772   -1.1696 C   0  0  0  0  0  0  0  0  0  0  0  0
   -0.9230    2.6479   -1.5404 C   0  0  0  0  0  0  0  0  0  0  0  0
    0.1918    1.9436   -1.1054 C   0  0  0  0  0  0  0  0  0  0  0  0
    1.5427    2.3814   -1.5401 N   0  0  0  0  0  0  0  0  0  0  0  0
    1.6167    3.3558   -2.2842 O   0  0  0  0  0  0  0  0  0  0  0  0
    2.5090    1.7390   -1.1284 O   0  0  0  0  0  0  0  0  0  0  0  0
    0.1256    0.8197   -0.2574 C   0  0  0  0  0  0  0  0  0  0  0  0
   -1.1206    0.4018    0.1539 C   0  0  0  0  0  0  0  0  0  0  0  0
   -5.2191    4.3035   -1.1099 H   0  0  0  0  0  0  0  0  0  0  0  0
   -0.7507    3.5053   -2.1854 H   0  0  0  0  0  0  0  0  0  0  0  0
    1.0345    0.3203    0.0488 H   0  0  0  0  0  0  0  0  0  0  0  0
   -1.2492   -0.4536    0.8111 H   0  0  0  0  0  0  0  0  0  0  0  0
   -7.0081    5.6220    1.1853 C   0  0  0  0  0  0  0  0  0  0  0  0
   -6.9263    6.9101    0.6673 C   0  0  0  0  0  0  0  0  0  0  0  0
   -6.5060    7.2111   -0.6685 C   0  0  0  0  0  0  0  0  0  0  0  0
   -6.1745    6.1581   -1.4749 C   0  0  0  0  0  0  0  0  0  0  0  0
   -6.2220    4.7621   -1.0005 C   0  0  0  0  0  0  0  0  0  0  0  0
   -6.6692    4.5407    0.3821 C   0  0  0  0  0  0  0  0  0  0  0  0
   -7.3558    5.4395    2.1963 H   0  0  0  0  0  0  0  0  0  0  0  0
   -7.2064    7.7440    1.3087 H   0  0  0  0  0  0  0  0  0  0  0  0
   -5.8485    6.3304   -2.4974 H   0  0  0  0  0  0  0  0  0  0  0  0
   -6.8081    4.1094   -1.6706 H   0  0  0  0  0  0  0  0  0  0  0  0
   -6.7087    2.8517    1.0344 S   0  0  0  0  0  0  0  0  0  0  0  0
   -7.7485    2.8892    2.0765 O   0  0  0  0  0  0  0  0  0  0  0  0
   -5.3028    2.7954    1.5286 O   0  0  0  0  0  0  0  0  0  0  0  0
   -6.9807    2.0202   -0.1554 O   0  0  0  0  0  0  0  0  0  0  0  0
   -6.4526    8.6469   -1.1268 C   0  0  0  0  0  0  0  0  0  0  0  0
   -7.4378    9.1207   -1.0536 H   0  0  0  0  0  0  0  0  0  0  0  0
   -5.7636    9.2313   -0.5077 H   0  0  0  0  0  0  0  0  0  0  0  0
   -6.1189    8.7200   -2.1642 H   0  0  0  0  0  0  0  0  0  0  0  0
  1  2  1  0  0  0  0
  1 11  2  0  0  0  0
  2  3  1  0  0  0  0
  4  1  1  0  0  0  0
  5  4  2  0  0  0  0
  5  6  1  0  0  0  0
  6 10  2  0  0  0  0
  7  9  2  0  0  0  0
  7  6  1  0  0  0  0
  8  7  2  0  0  0  0
 10 14  1  0  0  0  0
 10 11  1  0  0  0  0
 11 15  1  0  0  0  0
 12 20  1  0  0  0  0
 13  5  1  0  0  0  0
 16 22  1  0  0  0  0
 17 16  1  0  0  0  0
 17 23  1  0  0  0  0
 18 17  1  0  0  0  0
 19 20  1  0  0  0  0
 19 18  2  0  0  0  0
 20 21  1  0  0  0  0
 21 26  1  0  0  0  0
 21 16  2  0  0  0  0
 24 19  1  0  0  0  0
 25 20  1  0  0  0  0
 26 28  2  0  0  0  0
 26 27  1  0  0  0  0
 29 26  2  0  0  0  0
 30 31  1  0  0  0  0
 30 18  1  0  0  0  0
 30 32  1  0  0  0  0
 33 30  1  0  0  0  0
M  RAD  5   2   2   3   3   4   2  17   2  27   2
M  END
