Coordinates from ORCA-job 4-NO2PhN2+~TsO-_B3LYPG-6-31G_dp-CH-Scan-d09-49-n800
 OpenBabel11261919023D

 33 33  0  0  0  0  0  0  0  0999 V2000
   -2.9246    0.8091   -0.9571 C   0  0  0  0  0  0  0  0  0  0  0  0
   -3.9124   -0.1837   -0.7564 N   0  0  0  0  0  0  0  0  0  0  0  0
   -4.6723   -0.9947   -0.6922 N   0  0  0  0  0  0  0  0  0  0  0  0
   -2.3632    0.7327   -2.2305 C   0  0  0  0  0  0  0  0  0  0  0  0
   -1.3895    1.7670   -2.3832 C   0  0  0  0  0  0  0  0  0  0  0  0
   -1.0913    2.6571   -1.3605 C   0  0  0  0  0  0  0  0  0  0  0  0
   -0.0961    3.7281   -1.5979 N   0  0  0  0  0  0  0  0  0  0  0  0
    0.6582    3.6115   -2.5595 O   0  0  0  0  0  0  0  0  0  0  0  0
   -0.1041    4.6894   -0.8241 O   0  0  0  0  0  0  0  0  0  0  0  0
   -1.7158    2.6360   -0.0927 C   0  0  0  0  0  0  0  0  0  0  0  0
   -2.6796    1.6752    0.1377 C   0  0  0  0  0  0  0  0  0  0  0  0
   -4.0414    3.9992   -0.2255 H   0  0  0  0  0  0  0  0  0  0  0  0
   -0.8579    1.8877   -3.3241 H   0  0  0  0  0  0  0  0  0  0  0  0
   -1.4277    3.3544    0.6639 H   0  0  0  0  0  0  0  0  0  0  0  0
   -3.2267    1.6186    1.0747 H   0  0  0  0  0  0  0  0  0  0  0  0
   -6.6490    5.2500    1.1447 C   0  0  0  0  0  0  0  0  0  0  0  0
   -6.4160    6.5381    0.6712 C   0  0  0  0  0  0  0  0  0  0  0  0
   -5.5104    6.8524   -0.3917 C   0  0  0  0  0  0  0  0  0  0  0  0
   -4.8454    5.8092   -0.9755 C   0  0  0  0  0  0  0  0  0  0  0  0
   -5.0256    4.4164   -0.5271 C   0  0  0  0  0  0  0  0  0  0  0  0
   -5.9743    4.1812    0.5709 C   0  0  0  0  0  0  0  0  0  0  0  0
   -7.3612    5.0590    1.9407 H   0  0  0  0  0  0  0  0  0  0  0  0
   -6.9597    7.3620    1.1302 H   0  0  0  0  0  0  0  0  0  0  0  0
   -4.1470    5.9891   -1.7891 H   0  0  0  0  0  0  0  0  0  0  0  0
   -5.2717    3.7396   -1.3642 H   0  0  0  0  0  0  0  0  0  0  0  0
   -6.1859    2.5002    1.2167 S   0  0  0  0  0  0  0  0  0  0  0  0
   -7.5299    2.5014    1.8103 O   0  0  0  0  0  0  0  0  0  0  0  0
   -5.0452    2.5086    2.1761 O   0  0  0  0  0  0  0  0  0  0  0  0
   -5.9794    1.6405    0.0292 O   0  0  0  0  0  0  0  0  0  0  0  0
   -5.3304    8.2862   -0.8230 C   0  0  0  0  0  0  0  0  0  0  0  0
   -6.2819    8.7229   -1.1445 H   0  0  0  0  0  0  0  0  0  0  0  0
   -4.9524    8.8991    0.0027 H   0  0  0  0  0  0  0  0  0  0  0  0
   -4.6236    8.3642   -1.6521 H   0  0  0  0  0  0  0  0  0  0  0  0
  1  2  1  0  0  0  0
  1 11  2  0  0  0  0
  2  3  1  0  0  0  0
  4  1  1  0  0  0  0
  5  4  2  0  0  0  0
  5  6  1  0  0  0  0
  6 10  2  0  0  0  0
  7  6  1  0  0  0  0
  7  9  2  0  0  0  0
  8  7  2  0  0  0  0
 10 11  1  0  0  0  0
 10 14  1  0  0  0  0
 11 15  1  0  0  0  0
 13  5  1  0  0  0  0
 16 22  1  0  0  0  0
 17 23  1  0  0  0  0
 17 16  1  0  0  0  0
 18 17  1  0  0  0  0
 19 20  1  0  0  0  0
 19 18  2  0  0  0  0
 20 12  1  0  0  0  0
 20 21  1  0  0  0  0
 21 16  2  0  0  0  0
 21 26  1  0  0  0  0
 24 19  1  0  0  0  0
 25 20  1  0  0  0  0
 26 27  2  0  0  0  0
 26 28  1  0  0  0  0
 29 26  2  0  0  0  0
 30 18  1  0  0  0  0
 30 32  1  0  0  0  0
 31 30  1  0  0  0  0
 33 30  1  0  0  0  0
M  RAD  5   2   2   3   3   4   2  17   2  28   2
M  END
