Coordinates from ORCA-job 4-NO2PhN2+~TsO-_B3LYPG-6-31G_dp-CH-Scan-d09-49-n800
 OpenBabel11261919023D

 33 33  0  0  0  0  0  0  0  0999 V2000
   -2.8080    1.0744   -0.2820 C   0  0  0  0  0  0  0  0  0  0  0  0
   -3.9058    0.2588    0.1320 N   0  0  0  0  0  0  0  0  0  0  0  0
   -5.0180    0.6884    0.3721 N   0  0  0  0  0  0  0  0  0  0  0  0
   -2.6347    1.4675   -1.5963 C   0  0  0  0  0  0  0  0  0  0  0  0
   -1.5486    2.1601   -2.0697 C   0  0  0  0  0  0  0  0  0  0  0  0
   -0.5601    2.4631   -1.1248 C   0  0  0  0  0  0  0  0  0  0  0  0
    0.6317    3.2064   -1.5662 N   0  0  0  0  0  0  0  0  0  0  0  0
    0.6929    3.5278   -2.7515 O   0  0  0  0  0  0  0  0  0  0  0  0
    1.4875    3.4592   -0.7199 O   0  0  0  0  0  0  0  0  0  0  0  0
   -0.6656    2.0818    0.2122 C   0  0  0  0  0  0  0  0  0  0  0  0
   -1.7877    1.3741    0.6345 C   0  0  0  0  0  0  0  0  0  0  0  0
   -4.1392    0.9495   -2.8911 H   0  0  0  0  0  0  0  0  0  0  0  0
   -1.4344    2.4665   -3.1007 H   0  0  0  0  0  0  0  0  0  0  0  0
    0.1305    2.3376    0.8996 H   0  0  0  0  0  0  0  0  0  0  0  0
   -1.8877    1.0550    1.6666 H   0  0  0  0  0  0  0  0  0  0  0  0
   -5.9788    5.2403    1.2520 C   0  0  0  0  0  0  0  0  0  0  0  0
   -5.7540    6.5847    0.9661 C   0  0  0  0  0  0  0  0  0  0  0  0
   -5.9239    7.0894   -0.3317 C   0  0  0  0  0  0  0  0  0  0  0  0
   -6.3280    6.2094   -1.3480 C   0  0  0  0  0  0  0  0  0  0  0  0
   -6.5589    4.8622   -1.0849 C   0  0  0  0  0  0  0  0  0  0  0  0
   -6.3764    4.3917    0.2175 C   0  0  0  0  0  0  0  0  0  0  0  0
   -5.8574    4.8514    2.2569 H   0  0  0  0  0  0  0  0  0  0  0  0
   -5.4437    7.2542    1.7632 H   0  0  0  0  0  0  0  0  0  0  0  0
   -6.4669    6.5858   -2.3575 H   0  0  0  0  0  0  0  0  0  0  0  0
   -6.8821    4.1844   -1.8669 H   0  0  0  0  0  0  0  0  0  0  0  0
   -6.6746    2.6751    0.5688 S   0  0  0  0  0  0  0  0  0  0  0  0
   -6.8890    2.4828    1.9975 O   0  0  0  0  0  0  0  0  0  0  0  0
   -5.0966    2.1492    0.2088 O   0  0  0  0  0  0  0  0  0  0  0  0
   -7.5701    2.1035   -0.4283 O   0  0  0  0  0  0  0  0  0  0  0  0
   -5.7077    8.5538   -0.6249 C   0  0  0  0  0  0  0  0  0  0  0  0
   -6.6541    9.1054   -0.5680 H   0  0  0  0  0  0  0  0  0  0  0  0
   -5.0195    9.0094    0.0925 H   0  0  0  0  0  0  0  0  0  0  0  0
   -5.3044    8.7049   -1.6304 H   0  0  0  0  0  0  0  0  0  0  0  0
  1  2  1  0  0  0  0
  1 11  2  0  0  0  0
  2  3  1  0  0  0  0
  4  1  1  0  0  0  0
  5  4  2  0  0  0  0
  5  6  1  0  0  0  0
  6 10  2  0  0  0  0
  7  6  1  0  0  0  0
  7  9  2  0  0  0  0
  8  7  2  0  0  0  0
 10 11  1  0  0  0  0
 10 14  1  0  0  0  0
 11 15  1  0  0  0  0
 13  5  1  0  0  0  0
 16 22  1  0  0  0  0
 17 16  1  0  0  0  0
 17 23  1  0  0  0  0
 18 17  2  0  0  0  0
 19 20  2  0  0  0  0
 19 18  1  0  0  0  0
 20 21  1  0  0  0  0
 21 26  1  0  0  0  0
 21 16  2  0  0  0  0
 24 19  1  0  0  0  0
 25 20  1  0  0  0  0
 26 27  2  0  0  0  0
 28  3  1  0  0  0  0
 28 26  1  0  0  0  0
 29 26  2  0  0  0  0
 30 31  1  0  0  0  0
 30 18  1  0  0  0  0
 30 32  1  0  0  0  0
 33 30  1  0  0  0  0
M  RAD  4   2   2   3   2   4   2  12   2
M  END
