Coordinates from ORCA-job 4-NO2PhN2+~TsO-_B3LYPG-6-31G_dp-CH-Scan-d09-49-n800
 OpenBabel11261919023D

 33 33  0  0  0  0  0  0  0  0999 V2000
   -2.7859    1.0879   -0.2472 C   0  0  0  0  0  0  0  0  0  0  0  0
   -3.8843    0.2673    0.1591 N   0  0  0  0  0  0  0  0  0  0  0  0
   -4.9971    0.6996    0.4026 N   0  0  0  0  0  0  0  0  0  0  0  0
   -2.6520    1.6193   -1.5101 C   0  0  0  0  0  0  0  0  0  0  0  0
   -1.5855    2.3215   -1.9933 C   0  0  0  0  0  0  0  0  0  0  0  0
   -0.5301    2.4868   -1.0822 C   0  0  0  0  0  0  0  0  0  0  0  0
    0.6643    3.2314   -1.5193 N   0  0  0  0  0  0  0  0  0  0  0  0
    0.6710    3.6671   -2.6686 O   0  0  0  0  0  0  0  0  0  0  0  0
    1.5765    3.3627   -0.7056 O   0  0  0  0  0  0  0  0  0  0  0  0
   -0.5744    1.9672    0.2111 C   0  0  0  0  0  0  0  0  0  0  0  0
   -1.6959    1.2545    0.6268 C   0  0  0  0  0  0  0  0  0  0  0  0
   -4.7170    1.1659   -3.1362 H   0  0  0  0  0  0  0  0  0  0  0  0
   -1.5196    2.7310   -2.9933 H   0  0  0  0  0  0  0  0  0  0  0  0
    0.2704    2.1205    0.8704 H   0  0  0  0  0  0  0  0  0  0  0  0
   -1.7492    0.8293    1.6241 H   0  0  0  0  0  0  0  0  0  0  0  0
   -6.0186    5.2624    1.2573 C   0  0  0  0  0  0  0  0  0  0  0  0
   -5.7986    6.6020    0.9448 C   0  0  0  0  0  0  0  0  0  0  0  0
   -5.9267    7.0709   -0.3710 C   0  0  0  0  0  0  0  0  0  0  0  0
   -6.2827    6.1601   -1.3783 C   0  0  0  0  0  0  0  0  0  0  0  0
   -6.5085    4.8177   -1.0893 C   0  0  0  0  0  0  0  0  0  0  0  0
   -6.3692    4.3837    0.2313 C   0  0  0  0  0  0  0  0  0  0  0  0
   -5.9288    4.9001    2.2753 H   0  0  0  0  0  0  0  0  0  0  0  0
   -5.5248    7.2952    1.7349 H   0  0  0  0  0  0  0  0  0  0  0  0
   -6.3877    6.5088   -2.4019 H   0  0  0  0  0  0  0  0  0  0  0  0
   -6.7929    4.1159   -1.8652 H   0  0  0  0  0  0  0  0  0  0  0  0
   -6.6623    2.6741    0.6157 S   0  0  0  0  0  0  0  0  0  0  0  0
   -6.8750    2.5069    2.0475 O   0  0  0  0  0  0  0  0  0  0  0  0
   -5.0746    2.1502    0.2672 O   0  0  0  0  0  0  0  0  0  0  0  0
   -7.5500    2.0761   -0.3716 O   0  0  0  0  0  0  0  0  0  0  0  0
   -5.7163    8.5297   -0.6950 C   0  0  0  0  0  0  0  0  0  0  0  0
   -6.6727    9.0664   -0.7086 H   0  0  0  0  0  0  0  0  0  0  0  0
   -5.0773    9.0176    0.0463 H   0  0  0  0  0  0  0  0  0  0  0  0
   -5.2581    8.6578   -1.6801 H   0  0  0  0  0  0  0  0  0  0  0  0
  1  2  1  0  0  0  0
  1 11  2  0  0  0  0
  2  3  1  0  0  0  0
  4  1  1  0  0  0  0
  5  4  2  0  0  0  0
  5  6  1  0  0  0  0
  6 10  2  0  0  0  0
  7  6  1  0  0  0  0
  7  9  2  0  0  0  0
  8  7  2  0  0  0  0
 10 11  1  0  0  0  0
 10 14  1  0  0  0  0
 11 15  1  0  0  0  0
 13  5  1  0  0  0  0
 16 22  1  0  0  0  0
 17 16  1  0  0  0  0
 17 23  1  0  0  0  0
 18 17  2  0  0  0  0
 19 20  2  0  0  0  0
 19 18  1  0  0  0  0
 20 21  1  0  0  0  0
 21 26  1  0  0  0  0
 21 16  2  0  0  0  0
 24 19  1  0  0  0  0
 25 20  1  0  0  0  0
 26 27  2  0  0  0  0
 28  3  1  0  0  0  0
 28 26  1  0  0  0  0
 29 26  2  0  0  0  0
 30 18  1  0  0  0  0
 30 32  1  0  0  0  0
 31 30  1  0  0  0  0
 33 30  1  0  0  0  0
M  RAD  4   2   2   3   2   4   2  12   2
M  END
