Coordinates from ORCA-job 4-NO2PhN2+~TsO-_B3LYPG-6-31G_dp-CH-Scan-d09-49-n800
 OpenBabel11261919023D

 33 33  0  0  0  0  0  0  0  0999 V2000
   -2.8075    1.0744   -0.2807 C   0  0  0  0  0  0  0  0  0  0  0  0
   -3.9053    0.2596    0.1348 N   0  0  0  0  0  0  0  0  0  0  0  0
   -5.0176    0.6888    0.3740 N   0  0  0  0  0  0  0  0  0  0  0  0
   -2.6369    1.4672   -1.5959 C   0  0  0  0  0  0  0  0  0  0  0  0
   -1.5500    2.1592   -2.0694 C   0  0  0  0  0  0  0  0  0  0  0  0
   -0.5601    2.4612   -1.1260 C   0  0  0  0  0  0  0  0  0  0  0  0
    0.6316    3.2038   -1.5687 N   0  0  0  0  0  0  0  0  0  0  0  0
    0.6916    3.5255   -2.7540 O   0  0  0  0  0  0  0  0  0  0  0  0
    1.4888    3.4558   -0.7236 O   0  0  0  0  0  0  0  0  0  0  0  0
   -0.6639    2.0797    0.2110 C   0  0  0  0  0  0  0  0  0  0  0  0
   -1.7859    1.3727    0.6345 C   0  0  0  0  0  0  0  0  0  0  0  0
   -4.1249    0.9581   -2.8739 H   0  0  0  0  0  0  0  0  0  0  0  0
   -1.4368    2.4657   -3.1004 H   0  0  0  0  0  0  0  0  0  0  0  0
    0.1334    2.3348    0.8975 H   0  0  0  0  0  0  0  0  0  0  0  0
   -1.8847    1.0531    1.6666 H   0  0  0  0  0  0  0  0  0  0  0  0
   -5.9804    5.2403    1.2512 C   0  0  0  0  0  0  0  0  0  0  0  0
   -5.7558    6.5849    0.9661 C   0  0  0  0  0  0  0  0  0  0  0  0
   -5.9251    7.0902   -0.3316 C   0  0  0  0  0  0  0  0  0  0  0  0
   -6.3284    6.2105   -1.3485 C   0  0  0  0  0  0  0  0  0  0  0  0
   -6.5592    4.8632   -1.0862 C   0  0  0  0  0  0  0  0  0  0  0  0
   -6.3773    4.3921    0.2161 C   0  0  0  0  0  0  0  0  0  0  0  0
   -5.8595    4.8510    2.2560 H   0  0  0  0  0  0  0  0  0  0  0  0
   -5.4461    7.2540    1.7637 H   0  0  0  0  0  0  0  0  0  0  0  0
   -6.4670    6.5875   -2.3579 H   0  0  0  0  0  0  0  0  0  0  0  0
   -6.8819    4.1856   -1.8686 H   0  0  0  0  0  0  0  0  0  0  0  0
   -6.6753    2.6752    0.5664 S   0  0  0  0  0  0  0  0  0  0  0  0
   -6.8921    2.4825    1.9947 O   0  0  0  0  0  0  0  0  0  0  0  0
   -5.0969    2.1499    0.2087 O   0  0  0  0  0  0  0  0  0  0  0  0
   -7.5691    2.1036   -0.4322 O   0  0  0  0  0  0  0  0  0  0  0  0
   -5.7091    8.5548   -0.6239 C   0  0  0  0  0  0  0  0  0  0  0  0
   -6.6553    9.1065   -0.5651 H   0  0  0  0  0  0  0  0  0  0  0  0
   -5.0197    9.0096    0.0929 H   0  0  0  0  0  0  0  0  0  0  0  0
   -5.3072    8.7067   -1.6298 H   0  0  0  0  0  0  0  0  0  0  0  0
  1  2  1  0  0  0  0
  1 11  2  0  0  0  0
  2  3  1  0  0  0  0
  4  1  1  0  0  0  0
  5  4  2  0  0  0  0
  5  6  1  0  0  0  0
  6 10  2  0  0  0  0
  7  6  1  0  0  0  0
  7  9  2  0  0  0  0
  8  7  2  0  0  0  0
 10 11  1  0  0  0  0
 10 14  1  0  0  0  0
 11 15  1  0  0  0  0
 13  5  1  0  0  0  0
 16 22  1  0  0  0  0
 17 16  1  0  0  0  0
 17 23  1  0  0  0  0
 18 17  2  0  0  0  0
 19 20  2  0  0  0  0
 19 18  1  0  0  0  0
 20 21  1  0  0  0  0
 21 26  1  0  0  0  0
 21 16  2  0  0  0  0
 24 19  1  0  0  0  0
 25 20  1  0  0  0  0
 26 27  2  0  0  0  0
 28  3  1  0  0  0  0
 28 26  1  0  0  0  0
 29 26  2  0  0  0  0
 30 31  1  0  0  0  0
 30 18  1  0  0  0  0
 30 32  1  0  0  0  0
 33 30  1  0  0  0  0
M  RAD  4   2   2   3   2   4   2  12   2
M  END
