Coordinates from ORCA-job 4-NO2PhN2+~TsO-_B3LYPG-6-31G_dp-CH-Scan-d09-49-n800
 OpenBabel11261919023D

 33 34  0  0  0  0  0  0  0  0999 V2000
   -2.5904    1.1359   -0.1495 C   0  0  0  0  0  0  0  0  0  0  0  0
   -3.7605    0.4960    0.3281 N   0  0  0  0  0  0  0  0  0  0  0  0
   -4.8845    0.8646    0.5292 N   0  0  0  0  0  0  0  0  0  0  0  0
   -2.5554    2.3278   -0.8973 C   0  0  0  0  0  0  0  0  0  0  0  0
   -1.3246    2.8072   -1.3353 C   0  0  0  0  0  0  0  0  0  0  0  0
   -0.1629    2.1080   -1.0151 C   0  0  0  0  0  0  0  0  0  0  0  0
    1.1361    2.6375   -1.4764 N   0  0  0  0  0  0  0  0  0  0  0  0
    1.1236    3.6812   -2.1250 O   0  0  0  0  0  0  0  0  0  0  0  0
    2.1436    1.9998   -1.1794 O   0  0  0  0  0  0  0  0  0  0  0  0
   -0.1816    0.9241   -0.2812 C   0  0  0  0  0  0  0  0  0  0  0  0
   -1.4105    0.4311    0.1382 C   0  0  0  0  0  0  0  0  0  0  0  0
   -3.4122    2.8263   -1.1162 H   0  0  0  0  0  0  0  0  0  0  0  0
   -1.2523    3.7191   -1.9145 H   0  0  0  0  0  0  0  0  0  0  0  0
    0.7464    0.4114   -0.0640 H   0  0  0  0  0  0  0  0  0  0  0  0
   -1.4807   -0.4968    0.6942 H   0  0  0  0  0  0  0  0  0  0  0  0
   -6.0968    5.4702    1.1047 C   0  0  0  0  0  0  0  0  0  0  0  0
   -6.0187    6.8117    0.7388 C   0  0  0  0  0  0  0  0  0  0  0  0
   -6.3807    7.2355   -0.5492 C   0  0  0  0  0  0  0  0  0  0  0  0
   -6.8248    6.2759   -1.4713 C   0  0  0  0  0  0  0  0  0  0  0  0
   -6.9101    4.9290   -1.1254 C   0  0  0  0  0  0  0  0  0  0  0  0
   -6.5396    4.5391    0.1630 C   0  0  0  0  0  0  0  0  0  0  0  0
   -5.8309    5.1442    2.1040 H   0  0  0  0  0  0  0  0  0  0  0  0
   -5.6763    7.5434    1.4654 H   0  0  0  0  0  0  0  0  0  0  0  0
   -7.1134    6.5889   -2.4708 H   0  0  0  0  0  0  0  0  0  0  0  0
   -7.2684    4.1884   -1.8317 H   0  0  0  0  0  0  0  0  0  0  0  0
   -6.6535    2.8191    0.6205 S   0  0  0  0  0  0  0  0  0  0  0  0
   -6.7876    2.7045    2.0699 O   0  0  0  0  0  0  0  0  0  0  0  0
   -5.1006    2.4061    0.2024 O   0  0  0  0  0  0  0  0  0  0  0  0
   -7.5761    2.1344   -0.2805 O   0  0  0  0  0  0  0  0  0  0  0  0
   -6.3269    8.6968   -0.9230 C   0  0  0  0  0  0  0  0  0  0  0  0
   -7.2733    9.1962   -0.6794 H   0  0  0  0  0  0  0  0  0  0  0  0
   -5.5348    9.2206   -0.3808 H   0  0  0  0  0  0  0  0  0  0  0  0
   -6.1554    8.8306   -1.9949 H   0  0  0  0  0  0  0  0  0  0  0  0
  1 11  1  0  0  0  0
  1  2  1  0  0  0  0
  2  3  1  0  0  0  0
  4  1  2  0  0  0  0
  5  6  2  0  0  0  0
  5  4  1  0  0  0  0
  6 10  1  0  0  0  0
  7  9  2  0  0  0  0
  7  6  1  0  0  0  0
  8  7  2  0  0  0  0
 10 14  1  0  0  0  0
 10 11  2  0  0  0  0
 11 15  1  0  0  0  0
 12  4  1  0  0  0  0
 13  5  1  0  0  0  0
 16 22  1  0  0  0  0
 17 16  1  0  0  0  0
 17 23  1  0  0  0  0
 18 17  2  0  0  0  0
 19 20  2  0  0  0  0
 19 18  1  0  0  0  0
 20 21  1  0  0  0  0
 21 26  1  0  0  0  0
 21 16  2  0  0  0  0
 24 19  1  0  0  0  0
 25 20  1  0  0  0  0
 26 27  2  0  0  0  0
 28  3  1  0  0  0  0
 28 26  1  0  0  0  0
 29 26  2  0  0  0  0
 30 31  1  0  0  0  0
 30 18  1  0  0  0  0
 30 32  1  0  0  0  0
 33 30  1  0  0  0  0
M  RAD  2   2   2   3   2
M  END
