Coordinates from ORCA-job 4-NO2PhN2+~TsO-_B3LYPG-6-31G_dp-CH-Scan-d09-49-n800
 OpenBabel11261919023D

 33 33  0  0  0  0  0  0  0  0999 V2000
   -2.9146    0.8022   -0.9560 C   0  0  0  0  0  0  0  0  0  0  0  0
   -3.9075   -0.1836   -0.7488 N   0  0  0  0  0  0  0  0  0  0  0  0
   -4.6715   -0.9905   -0.6789 N   0  0  0  0  0  0  0  0  0  0  0  0
   -2.3389    0.7012   -2.2214 C   0  0  0  0  0  0  0  0  0  0  0  0
   -1.3588    1.7282   -2.3810 C   0  0  0  0  0  0  0  0  0  0  0  0
   -1.0650    2.6319   -1.3690 C   0  0  0  0  0  0  0  0  0  0  0  0
   -0.0581    3.6908   -1.6116 N   0  0  0  0  0  0  0  0  0  0  0  0
    0.7029    3.5551   -2.5654 O   0  0  0  0  0  0  0  0  0  0  0  0
   -0.0646    4.6629   -0.8513 O   0  0  0  0  0  0  0  0  0  0  0  0
   -1.7037    2.6354   -0.1083 C   0  0  0  0  0  0  0  0  0  0  0  0
   -2.6767    1.6852    0.1268 C   0  0  0  0  0  0  0  0  0  0  0  0
   -4.0510    4.0169   -0.2313 H   0  0  0  0  0  0  0  0  0  0  0  0
   -0.8178    1.8316   -3.3186 H   0  0  0  0  0  0  0  0  0  0  0  0
   -1.4186    3.3639    0.6397 H   0  0  0  0  0  0  0  0  0  0  0  0
   -3.2336    1.6461    1.0589 H   0  0  0  0  0  0  0  0  0  0  0  0
   -6.6618    5.2535    1.1493 C   0  0  0  0  0  0  0  0  0  0  0  0
   -6.4343    6.5446    0.6814 C   0  0  0  0  0  0  0  0  0  0  0  0
   -5.5306    6.8672   -0.3808 C   0  0  0  0  0  0  0  0  0  0  0  0
   -4.8618    5.8294   -0.9696 C   0  0  0  0  0  0  0  0  0  0  0  0
   -5.0365    4.4336   -0.5278 C   0  0  0  0  0  0  0  0  0  0  0  0
   -5.9832    4.1900    0.5704 C   0  0  0  0  0  0  0  0  0  0  0  0
   -7.3728    5.0562    1.9449 H   0  0  0  0  0  0  0  0  0  0  0  0
   -6.9810    7.3643    1.1444 H   0  0  0  0  0  0  0  0  0  0  0  0
   -4.1649    6.0157   -1.7831 H   0  0  0  0  0  0  0  0  0  0  0  0
   -5.2840    3.7611   -1.3681 H   0  0  0  0  0  0  0  0  0  0  0  0
   -6.1881    2.5055    1.2086 S   0  0  0  0  0  0  0  0  0  0  0  0
   -7.5324    2.4985    1.8016 O   0  0  0  0  0  0  0  0  0  0  0  0
   -5.0478    2.5150    2.1685 O   0  0  0  0  0  0  0  0  0  0  0  0
   -5.9772    1.6519    0.0175 O   0  0  0  0  0  0  0  0  0  0  0  0
   -5.3569    8.3036   -0.8058 C   0  0  0  0  0  0  0  0  0  0  0  0
   -6.3106    8.7378   -1.1244 H   0  0  0  0  0  0  0  0  0  0  0  0
   -4.9807    8.9143    0.0222 H   0  0  0  0  0  0  0  0  0  0  0  0
   -4.6514    8.3884   -1.6352 H   0  0  0  0  0  0  0  0  0  0  0  0
  1  2  1  0  0  0  0
  1 11  2  0  0  0  0
  2  3  1  0  0  0  0
  4  1  1  0  0  0  0
  5  4  2  0  0  0  0
  5  6  1  0  0  0  0
  6 10  2  0  0  0  0
  7  6  1  0  0  0  0
  7  9  2  0  0  0  0
  8  7  2  0  0  0  0
 10 11  1  0  0  0  0
 10 14  1  0  0  0  0
 11 15  1  0  0  0  0
 13  5  1  0  0  0  0
 16 22  1  0  0  0  0
 17 23  1  0  0  0  0
 17 16  1  0  0  0  0
 18 17  1  0  0  0  0
 19 20  1  0  0  0  0
 19 18  2  0  0  0  0
 20 12  1  0  0  0  0
 20 21  1  0  0  0  0
 21 16  2  0  0  0  0
 21 26  1  0  0  0  0
 24 19  1  0  0  0  0
 25 20  1  0  0  0  0
 26 27  2  0  0  0  0
 26 28  1  0  0  0  0
 29 26  2  0  0  0  0
 30 18  1  0  0  0  0
 30 32  1  0  0  0  0
 31 30  1  0  0  0  0
 33 30  1  0  0  0  0
M  RAD  5   2   2   3   3   4   2  17   2  28   2
M  END
