Coordinates from ORCA-job 4-NO2PhN2+~TsO-_B3LYPG-6-31G_dp-CH-Scan-d09-49-n800
 OpenBabel11261919023D

 33 33  0  0  0  0  0  0  0  0999 V2000
   -2.7203    1.0952   -0.1219 C   0  0  0  0  0  0  0  0  0  0  0  0
   -3.8191    0.3026    0.3293 N   0  0  0  0  0  0  0  0  0  0  0  0
   -4.9337    0.7452    0.5707 N   0  0  0  0  0  0  0  0  0  0  0  0
   -2.7357    2.0310   -1.1283 C   0  0  0  0  0  0  0  0  0  0  0  0
   -1.6823    2.7521   -1.6054 C   0  0  0  0  0  0  0  0  0  0  0  0
   -0.4542    2.4685   -0.9829 C   0  0  0  0  0  0  0  0  0  0  0  0
    0.7460    3.2002   -1.4358 N   0  0  0  0  0  0  0  0  0  0  0  0
    0.5988    4.0311   -2.3285 O   0  0  0  0  0  0  0  0  0  0  0  0
    1.8108    2.9285   -0.8860 O   0  0  0  0  0  0  0  0  0  0  0  0
   -0.3317    1.5154    0.0277 C   0  0  0  0  0  0  0  0  0  0  0  0
   -1.4598    0.8158    0.4448 C   0  0  0  0  0  0  0  0  0  0  0  0
   -5.3393    2.3944   -3.1114 H   0  0  0  0  0  0  0  0  0  0  0  0
   -1.7372    3.4834   -2.4032 H   0  0  0  0  0  0  0  0  0  0  0  0
    0.6410    1.3284    0.4636 H   0  0  0  0  0  0  0  0  0  0  0  0
   -1.3989    0.0581    1.2211 H   0  0  0  0  0  0  0  0  0  0  0  0
   -6.1594    5.3415    1.2341 C   0  0  0  0  0  0  0  0  0  0  0  0
   -5.9718    6.6663    0.8463 C   0  0  0  0  0  0  0  0  0  0  0  0
   -5.9991    7.0375   -0.5062 C   0  0  0  0  0  0  0  0  0  0  0  0
   -6.2170    6.0430   -1.4727 C   0  0  0  0  0  0  0  0  0  0  0  0
   -6.4118    4.7138   -1.1092 C   0  0  0  0  0  0  0  0  0  0  0  0
   -6.3761    4.3790    0.2470 C   0  0  0  0  0  0  0  0  0  0  0  0
   -6.1455    5.0528    2.2794 H   0  0  0  0  0  0  0  0  0  0  0  0
   -5.8023    7.4244    1.6059 H   0  0  0  0  0  0  0  0  0  0  0  0
   -6.2372    6.3142   -2.5247 H   0  0  0  0  0  0  0  0  0  0  0  0
   -6.5809    3.9473   -1.8594 H   0  0  0  0  0  0  0  0  0  0  0  0
   -6.6374    2.6901    0.7295 S   0  0  0  0  0  0  0  0  0  0  0  0
   -6.8446    2.6011    2.1688 O   0  0  0  0  0  0  0  0  0  0  0  0
   -5.0299    2.1772    0.4088 O   0  0  0  0  0  0  0  0  0  0  0  0
   -7.5064    2.0112   -0.2198 O   0  0  0  0  0  0  0  0  0  0  0  0
   -5.8270    8.4799   -0.9148 C   0  0  0  0  0  0  0  0  0  0  0  0
   -6.8016    8.9703   -1.0266 H   0  0  0  0  0  0  0  0  0  0  0  0
   -5.2608    9.0440   -0.1684 H   0  0  0  0  0  0  0  0  0  0  0  0
   -5.3089    8.5639   -1.8745 H   0  0  0  0  0  0  0  0  0  0  0  0
  1  2  1  0  0  0  0
  1 11  2  0  0  0  0
  2  3  1  0  0  0  0
  4  1  1  0  0  0  0
  5  4  2  0  0  0  0
  5  6  1  0  0  0  0
  6 10  2  0  0  0  0
  7  6  1  0  0  0  0
  7  9  2  0  0  0  0
  8  7  2  0  0  0  0
 10 11  1  0  0  0  0
 10 14  1  0  0  0  0
 11 15  1  0  0  0  0
 13  5  1  0  0  0  0
 16 22  1  0  0  0  0
 17 16  1  0  0  0  0
 17 23  1  0  0  0  0
 18 17  2  0  0  0  0
 19 20  2  0  0  0  0
 19 18  1  0  0  0  0
 20 21  1  0  0  0  0
 21 26  1  0  0  0  0
 21 16  2  0  0  0  0
 24 19  1  0  0  0  0
 25 20  1  0  0  0  0
 26 27  2  0  0  0  0
 28  3  1  0  0  0  0
 28 26  1  0  0  0  0
 29 26  2  0  0  0  0
 30 18  1  0  0  0  0
 30 32  1  0  0  0  0
 31 30  1  0  0  0  0
 33 30  1  0  0  0  0
M  RAD  4   2   2   3   2   4   2  12   2
M  END
