Coordinates from ORCA-job 4-NO2PhN2+~TsO-_B3LYPG-6-31G_dp-CH-Scan-d09-49-n800
 OpenBabel11261919023D

 33 33  0  0  0  0  0  0  0  0999 V2000
   -2.7989    1.0759   -0.2595 C   0  0  0  0  0  0  0  0  0  0  0  0
   -3.8949    0.2701    0.1765 N   0  0  0  0  0  0  0  0  0  0  0  0
   -5.0105    0.6950    0.4034 N   0  0  0  0  0  0  0  0  0  0  0  0
   -2.6627    1.4710   -1.5821 C   0  0  0  0  0  0  0  0  0  0  0  0
   -1.5683    2.1548   -2.0613 C   0  0  0  0  0  0  0  0  0  0  0  0
   -0.5581    2.4430   -1.1375 C   0  0  0  0  0  0  0  0  0  0  0  0
    0.6315    3.1770   -1.5986 N   0  0  0  0  0  0  0  0  0  0  0  0
    0.6721    3.5047   -2.7833 O   0  0  0  0  0  0  0  0  0  0  0  0
    1.5074    3.4167   -0.7692 O   0  0  0  0  0  0  0  0  0  0  0  0
   -0.6384    2.0552    0.1991 C   0  0  0  0  0  0  0  0  0  0  0  0
   -1.7586    1.3552    0.6384 C   0  0  0  0  0  0  0  0  0  0  0  0
   -4.0109    1.0447   -2.7058 H   0  0  0  0  0  0  0  0  0  0  0  0
   -1.4695    2.4663   -3.0922 H   0  0  0  0  0  0  0  0  0  0  0  0
    0.1746    2.2984    0.8714 H   0  0  0  0  0  0  0  0  0  0  0  0
   -1.8403    1.0282    1.6694 H   0  0  0  0  0  0  0  0  0  0  0  0
   -6.0022    5.2392    1.2415 C   0  0  0  0  0  0  0  0  0  0  0  0
   -5.7784    6.5858    0.9658 C   0  0  0  0  0  0  0  0  0  0  0  0
   -5.9373    7.0979   -0.3306 C   0  0  0  0  0  0  0  0  0  0  0  0
   -6.3292    6.2229   -1.3557 C   0  0  0  0  0  0  0  0  0  0  0  0
   -6.5587    4.8734   -1.1028 C   0  0  0  0  0  0  0  0  0  0  0  0
   -6.3873    4.3955    0.1981 C   0  0  0  0  0  0  0  0  0  0  0  0
   -5.8897    4.8448    2.2453 H   0  0  0  0  0  0  0  0  0  0  0  0
   -5.4775    7.2512    1.7699 H   0  0  0  0  0  0  0  0  0  0  0  0
   -6.4598    6.6051   -2.3643 H   0  0  0  0  0  0  0  0  0  0  0  0
   -6.8731    4.1994   -1.8916 H   0  0  0  0  0  0  0  0  0  0  0  0
   -6.6835    2.6756    0.5368 S   0  0  0  0  0  0  0  0  0  0  0  0
   -6.9298    2.4780    1.9597 O   0  0  0  0  0  0  0  0  0  0  0  0
   -5.0994    2.1584    0.2082 O   0  0  0  0  0  0  0  0  0  0  0  0
   -7.5560    2.1045   -0.4814 O   0  0  0  0  0  0  0  0  0  0  0  0
   -5.7226    8.5648   -0.6122 C   0  0  0  0  0  0  0  0  0  0  0  0
   -6.6669    9.1176   -0.5358 H   0  0  0  0  0  0  0  0  0  0  0  0
   -5.0234    9.0119    0.1001 H   0  0  0  0  0  0  0  0  0  0  0  0
   -5.3334    8.7256   -1.6216 H   0  0  0  0  0  0  0  0  0  0  0  0
  1  2  1  0  0  0  0
  1 11  2  0  0  0  0
  2  3  1  0  0  0  0
  4  1  1  0  0  0  0
  5  4  2  0  0  0  0
  5  6  1  0  0  0  0
  6 10  2  0  0  0  0
  7  6  1  0  0  0  0
  7  9  2  0  0  0  0
  8  7  2  0  0  0  0
 10 11  1  0  0  0  0
 10 14  1  0  0  0  0
 11 15  1  0  0  0  0
 13  5  1  0  0  0  0
 16 22  1  0  0  0  0
 17 16  1  0  0  0  0
 17 23  1  0  0  0  0
 18 17  2  0  0  0  0
 19 20  2  0  0  0  0
 19 18  1  0  0  0  0
 20 21  1  0  0  0  0
 21 26  1  0  0  0  0
 21 16  2  0  0  0  0
 24 19  1  0  0  0  0
 25 20  1  0  0  0  0
 26 27  2  0  0  0  0
 28  3  1  0  0  0  0
 28 26  1  0  0  0  0
 29 26  2  0  0  0  0
 30 31  1  0  0  0  0
 30 18  1  0  0  0  0
 30 32  1  0  0  0  0
 33 30  1  0  0  0  0
M  RAD  4   2   2   3   2   4   2  12   2
M  END
