Coordinates from ORCA-job 4-NO2PhN2+~TsO-_B3LYPG-6-31G_dp-CH-Scan-d09-49-n800
 OpenBabel11261919033D

 33 33  0  0  0  0  0  0  0  0999 V2000
   -2.8663    0.7487   -0.9747 C   0  0  0  0  0  0  0  0  0  0  0  0
   -3.9078   -0.1766   -0.7410 N   0  0  0  0  0  0  0  0  0  0  0  0
   -4.7112   -0.9418   -0.6461 N   0  0  0  0  0  0  0  0  0  0  0  0
   -2.2310    0.5219   -2.1950 C   0  0  0  0  0  0  0  0  0  0  0  0
   -1.1962    1.4854   -2.3850 C   0  0  0  0  0  0  0  0  0  0  0  0
   -0.8961    2.4415   -1.4236 C   0  0  0  0  0  0  0  0  0  0  0  0
    0.1896    3.4151   -1.6838 N   0  0  0  0  0  0  0  0  0  0  0  0
    0.9720    3.1737   -2.5990 O   0  0  0  0  0  0  0  0  0  0  0  0
    0.2282    4.4249   -0.9759 O   0  0  0  0  0  0  0  0  0  0  0  0
   -1.5955    2.5754   -0.2034 C   0  0  0  0  0  0  0  0  0  0  0  0
   -2.6339    1.7027    0.0485 C   0  0  0  0  0  0  0  0  0  0  0  0
   -4.0608    4.1971   -0.1771 H   0  0  0  0  0  0  0  0  0  0  0  0
   -0.6126    1.4938   -3.3022 H   0  0  0  0  0  0  0  0  0  0  0  0
   -1.3045    3.3415    0.5037 H   0  0  0  0  0  0  0  0  0  0  0  0
   -3.2340    1.7596    0.9532 H   0  0  0  0  0  0  0  0  0  0  0  0
   -6.7716    5.2805    1.1531 C   0  0  0  0  0  0  0  0  0  0  0  0
   -6.6005    6.5898    0.7112 C   0  0  0  0  0  0  0  0  0  0  0  0
   -5.6841    6.9771   -0.3182 C   0  0  0  0  0  0  0  0  0  0  0  0
   -4.9413    5.9870   -0.9000 C   0  0  0  0  0  0  0  0  0  0  0  0
   -5.0553    4.5747   -0.4872 C   0  0  0  0  0  0  0  0  0  0  0  0
   -6.0195    4.2648    0.5808 C   0  0  0  0  0  0  0  0  0  0  0  0
   -7.4931    5.0315    1.9245 H   0  0  0  0  0  0  0  0  0  0  0  0
   -7.2041    7.3715    1.1692 H   0  0  0  0  0  0  0  0  0  0  0  0
   -4.2313    6.2237   -1.6888 H   0  0  0  0  0  0  0  0  0  0  0  0
   -5.2591    3.9128   -1.3478 H   0  0  0  0  0  0  0  0  0  0  0  0
   -6.1544    2.5609    1.1834 S   0  0  0  0  0  0  0  0  0  0  0  0
   -7.4878    2.4901    1.7962 O   0  0  0  0  0  0  0  0  0  0  0  0
   -4.9993    2.5848    2.1249 O   0  0  0  0  0  0  0  0  0  0  0  0
   -5.9323    1.7453   -0.0326 O   0  0  0  0  0  0  0  0  0  0  0  0
   -5.5782    8.4274   -0.7174 C   0  0  0  0  0  0  0  0  0  0  0  0
   -6.5431    8.8103   -1.0667 H   0  0  0  0  0  0  0  0  0  0  0  0
   -5.2705    9.0463    0.1325 H   0  0  0  0  0  0  0  0  0  0  0  0
   -4.8482    8.5659   -1.5180 H   0  0  0  0  0  0  0  0  0  0  0  0
  1  2  1  0  0  0  0
  1 11  2  0  0  0  0
  2  3  1  0  0  0  0
  4  1  1  0  0  0  0
  5  4  2  0  0  0  0
  5  6  1  0  0  0  0
  6 10  2  0  0  0  0
  7  6  1  0  0  0  0
  7  9  2  0  0  0  0
  8  7  2  0  0  0  0
 10 11  1  0  0  0  0
 10 14  1  0  0  0  0
 11 15  1  0  0  0  0
 13  5  1  0  0  0  0
 16 22  1  0  0  0  0
 17 16  1  0  0  0  0
 17 23  1  0  0  0  0
 18 17  1  0  0  0  0
 19 20  1  0  0  0  0
 19 18  2  0  0  0  0
 20 12  1  0  0  0  0
 20 21  1  0  0  0  0
 21 16  2  0  0  0  0
 21 26  1  0  0  0  0
 24 19  1  0  0  0  0
 25 20  1  0  0  0  0
 26 27  2  0  0  0  0
 26 28  1  0  0  0  0
 29 26  2  0  0  0  0
 30 18  1  0  0  0  0
 30 32  1  0  0  0  0
 31 30  1  0  0  0  0
 33 30  1  0  0  0  0
M  RAD  5   2   2   3   3   4   2  17   2  28   2
M  END
