Coordinates from ORCA-job 4-NO2PhN2+~TsO-_B3LYPG-6-31G_dp-CH-Scan-d09-49-n800
 OpenBabel11261919023D

 33 33  0  0  0  0  0  0  0  0999 V2000
   -2.8041    1.0784   -0.2789 C   0  0  0  0  0  0  0  0  0  0  0  0
   -3.9029    0.2579    0.1248 N   0  0  0  0  0  0  0  0  0  0  0  0
   -5.0145    0.6900    0.3679 N   0  0  0  0  0  0  0  0  0  0  0  0
   -2.6243    1.5058   -1.5775 C   0  0  0  0  0  0  0  0  0  0  0  0
   -1.5475    2.2033   -2.0531 C   0  0  0  0  0  0  0  0  0  0  0  0
   -0.5503    2.4776   -1.1060 C   0  0  0  0  0  0  0  0  0  0  0  0
    0.6435    3.2243   -1.5385 N   0  0  0  0  0  0  0  0  0  0  0  0
    0.6985    3.5721   -2.7163 O   0  0  0  0  0  0  0  0  0  0  0  0
    1.5051    3.4529   -0.6915 O   0  0  0  0  0  0  0  0  0  0  0  0
   -0.6505    2.0647    0.2222 C   0  0  0  0  0  0  0  0  0  0  0  0
   -1.7734    1.3532    0.6363 C   0  0  0  0  0  0  0  0  0  0  0  0
   -4.3669    0.9406   -3.0603 H   0  0  0  0  0  0  0  0  0  0  0  0
   -1.4396    2.5331   -3.0780 H   0  0  0  0  0  0  0  0  0  0  0  0
    0.1515    2.2999    0.9102 H   0  0  0  0  0  0  0  0  0  0  0  0
   -1.8688    1.0110    1.6618 H   0  0  0  0  0  0  0  0  0  0  0  0
   -5.9744    5.2450    1.2556 C   0  0  0  0  0  0  0  0  0  0  0  0
   -5.7508    6.5876    0.9598 C   0  0  0  0  0  0  0  0  0  0  0  0
   -5.9200    7.0823   -0.3419 C   0  0  0  0  0  0  0  0  0  0  0  0
   -6.3221    6.1941   -1.3521 C   0  0  0  0  0  0  0  0  0  0  0  0
   -6.5520    4.8489   -1.0793 C   0  0  0  0  0  0  0  0  0  0  0  0
   -6.3703    4.3886    0.2270 C   0  0  0  0  0  0  0  0  0  0  0  0
   -5.8533    4.8636    2.2633 H   0  0  0  0  0  0  0  0  0  0  0  0
   -5.4419    7.2633    1.7522 H   0  0  0  0  0  0  0  0  0  0  0  0
   -6.4602    6.5629   -2.3646 H   0  0  0  0  0  0  0  0  0  0  0  0
   -6.8731    4.1648   -1.8568 H   0  0  0  0  0  0  0  0  0  0  0  0
   -6.6678    2.6748    0.5908 S   0  0  0  0  0  0  0  0  0  0  0  0
   -6.8674    2.4899    2.0225 O   0  0  0  0  0  0  0  0  0  0  0  0
   -5.0898    2.1459    0.2198 O   0  0  0  0  0  0  0  0  0  0  0  0
   -7.5712    2.0970   -0.3949 O   0  0  0  0  0  0  0  0  0  0  0  0
   -5.7049    8.5445   -0.6463 C   0  0  0  0  0  0  0  0  0  0  0  0
   -6.6545    9.0923   -0.6122 H   0  0  0  0  0  0  0  0  0  0  0  0
   -5.0313    9.0105    0.0781 H   0  0  0  0  0  0  0  0  0  0  0  0
   -5.2844    8.6867   -1.6462 H   0  0  0  0  0  0  0  0  0  0  0  0
  1  2  1  0  0  0  0
  1 11  2  0  0  0  0
  2  3  1  0  0  0  0
  4  1  1  0  0  0  0
  5  4  2  0  0  0  0
  5  6  1  0  0  0  0
  6 10  2  0  0  0  0
  7  6  1  0  0  0  0
  7  9  2  0  0  0  0
  8  7  2  0  0  0  0
 10 11  1  0  0  0  0
 10 14  1  0  0  0  0
 11 15  1  0  0  0  0
 13  5  1  0  0  0  0
 16 22  1  0  0  0  0
 17 16  1  0  0  0  0
 17 23  1  0  0  0  0
 18 17  2  0  0  0  0
 19 20  2  0  0  0  0
 19 18  1  0  0  0  0
 20 21  1  0  0  0  0
 21 26  1  0  0  0  0
 21 16  2  0  0  0  0
 24 19  1  0  0  0  0
 25 20  1  0  0  0  0
 26 27  2  0  0  0  0
 28  3  1  0  0  0  0
 28 26  1  0  0  0  0
 29 26  2  0  0  0  0
 30 31  1  0  0  0  0
 30 18  1  0  0  0  0
 30 32  1  0  0  0  0
 33 30  1  0  0  0  0
M  RAD  4   2   2   3   2   4   2  12   2
M  END
