Coordinates from ORCA-job 4-NO2PhN2+~TsO-_B3LYPG-6-31G_dp-CH-Scan-d09-49-n800
 OpenBabel11261919023D

 33 33  0  0  0  0  0  0  0  0999 V2000
   -2.7879    1.0867   -0.2497 C   0  0  0  0  0  0  0  0  0  0  0  0
   -3.8860    0.2662    0.1573 N   0  0  0  0  0  0  0  0  0  0  0  0
   -4.9987    0.6985    0.4005 N   0  0  0  0  0  0  0  0  0  0  0  0
   -2.6491    1.6049   -1.5177 C   0  0  0  0  0  0  0  0  0  0  0  0
   -1.5819    2.3063   -2.0015 C   0  0  0  0  0  0  0  0  0  0  0  0
   -0.5329    2.4855   -1.0860 C   0  0  0  0  0  0  0  0  0  0  0  0
    0.6612    3.2302   -1.5237 N   0  0  0  0  0  0  0  0  0  0  0  0
    0.6711    3.6580   -2.6760 O   0  0  0  0  0  0  0  0  0  0  0  0
    1.5657    3.3785   -0.7043 O   0  0  0  0  0  0  0  0  0  0  0  0
   -0.5830    1.9799    0.2126 C   0  0  0  0  0  0  0  0  0  0  0  0
   -1.7043    1.2674    0.6293 C   0  0  0  0  0  0  0  0  0  0  0  0
   -4.6824    1.1330   -3.1295 H   0  0  0  0  0  0  0  0  0  0  0  0
   -1.5118    2.7054   -3.0053 H   0  0  0  0  0  0  0  0  0  0  0  0
    0.2571    2.1437    0.8754 H   0  0  0  0  0  0  0  0  0  0  0  0
   -1.7619    0.8530    1.6309 H   0  0  0  0  0  0  0  0  0  0  0  0
   -6.0147    5.2600    1.2573 C   0  0  0  0  0  0  0  0  0  0  0  0
   -5.7939    6.6000    0.9474 C   0  0  0  0  0  0  0  0  0  0  0  0
   -5.9248    7.0722   -0.3669 C   0  0  0  0  0  0  0  0  0  0  0  0
   -6.2847    6.1642   -1.3755 C   0  0  0  0  0  0  0  0  0  0  0  0
   -6.5114    4.8214   -1.0889 C   0  0  0  0  0  0  0  0  0  0  0  0
   -6.3691    4.3840    0.2303 C   0  0  0  0  0  0  0  0  0  0  0  0
   -5.9229    4.8953    2.2744 H   0  0  0  0  0  0  0  0  0  0  0  0
   -5.5172    7.2911    1.7384 H   0  0  0  0  0  0  0  0  0  0  0  0
   -6.3921    6.5154   -2.3979 H   0  0  0  0  0  0  0  0  0  0  0  0
   -6.7989    4.1217   -1.8656 H   0  0  0  0  0  0  0  0  0  0  0  0
   -6.6632    2.6739    0.6114 S   0  0  0  0  0  0  0  0  0  0  0  0
   -6.8765    2.5043    2.0430 O   0  0  0  0  0  0  0  0  0  0  0  0
   -5.0760    2.1496    0.2625 O   0  0  0  0  0  0  0  0  0  0  0  0
   -7.5513    2.0784   -0.3771 O   0  0  0  0  0  0  0  0  0  0  0  0
   -5.7134    8.5314   -0.6881 C   0  0  0  0  0  0  0  0  0  0  0  0
   -6.6691    9.0693   -0.6982 H   0  0  0  0  0  0  0  0  0  0  0  0
   -5.0721    9.0168    0.0528 H   0  0  0  0  0  0  0  0  0  0  0  0
   -5.2574    8.6613   -1.6739 H   0  0  0  0  0  0  0  0  0  0  0  0
  1  2  1  0  0  0  0
  1 11  2  0  0  0  0
  2  3  1  0  0  0  0
  4  1  1  0  0  0  0
  5  4  2  0  0  0  0
  5  6  1  0  0  0  0
  6 10  2  0  0  0  0
  7  6  1  0  0  0  0
  7  9  2  0  0  0  0
  8  7  2  0  0  0  0
 10 11  1  0  0  0  0
 10 14  1  0  0  0  0
 11 15  1  0  0  0  0
 13  5  1  0  0  0  0
 16 22  1  0  0  0  0
 17 16  1  0  0  0  0
 17 23  1  0  0  0  0
 18 17  2  0  0  0  0
 19 20  2  0  0  0  0
 19 18  1  0  0  0  0
 20 21  1  0  0  0  0
 21 26  1  0  0  0  0
 21 16  2  0  0  0  0
 24 19  1  0  0  0  0
 25 20  1  0  0  0  0
 26 27  2  0  0  0  0
 28  3  1  0  0  0  0
 28 26  1  0  0  0  0
 29 26  2  0  0  0  0
 30 18  1  0  0  0  0
 30 32  1  0  0  0  0
 31 30  1  0  0  0  0
 33 30  1  0  0  0  0
M  RAD  4   2   2   3   2   4   2  12   2
M  END
