Coordinates from ORCA-job 4-NO2PhN2+~TsO-_B3LYPG-6-31G_dp-CH-Scan-d09-49-n800
 OpenBabel11261919023D

 33 33  0  0  0  0  0  0  0  0999 V2000
   -2.9415    0.8238   -0.9615 C   0  0  0  0  0  0  0  0  0  0  0  0
   -3.9223   -0.1781   -0.7706 N   0  0  0  0  0  0  0  0  0  0  0  0
   -4.6770   -0.9946   -0.7154 N   0  0  0  0  0  0  0  0  0  0  0  0
   -2.4003    0.7820   -2.2452 C   0  0  0  0  0  0  0  0  0  0  0  0
   -1.4335    1.8243   -2.3871 C   0  0  0  0  0  0  0  0  0  0  0  0
   -1.1251    2.6918   -1.3481 C   0  0  0  0  0  0  0  0  0  0  0  0
   -0.1415    3.7756   -1.5758 N   0  0  0  0  0  0  0  0  0  0  0  0
    0.6002    3.6859   -2.5499 O   0  0  0  0  0  0  0  0  0  0  0  0
   -0.1467    4.7200   -0.7815 O   0  0  0  0  0  0  0  0  0  0  0  0
   -1.7297    2.6365   -0.0717 C   0  0  0  0  0  0  0  0  0  0  0  0
   -2.6841    1.6641    0.1501 C   0  0  0  0  0  0  0  0  0  0  0  0
   -4.0280    3.9746   -0.2145 H   0  0  0  0  0  0  0  0  0  0  0  0
   -0.9160    1.9700   -3.3323 H   0  0  0  0  0  0  0  0  0  0  0  0
   -1.4352    3.3391    0.6971 H   0  0  0  0  0  0  0  0  0  0  0  0
   -3.2183    1.5840    1.0925 H   0  0  0  0  0  0  0  0  0  0  0  0
   -6.6319    5.2446    1.1387 C   0  0  0  0  0  0  0  0  0  0  0  0
   -6.3919    6.5281    0.6564 C   0  0  0  0  0  0  0  0  0  0  0  0
   -5.4836    6.8303   -0.4076 C   0  0  0  0  0  0  0  0  0  0  0  0
   -4.8235    5.7795   -0.9832 C   0  0  0  0  0  0  0  0  0  0  0  0
   -5.0104    4.3912   -0.5244 C   0  0  0  0  0  0  0  0  0  0  0  0
   -5.9621    4.1683    0.5732 C   0  0  0  0  0  0  0  0  0  0  0  0
   -7.3459    5.0628    1.9353 H   0  0  0  0  0  0  0  0  0  0  0  0
   -6.9318    7.3579    1.1091 H   0  0  0  0  0  0  0  0  0  0  0  0
   -4.1231    5.9500   -1.7972 H   0  0  0  0  0  0  0  0  0  0  0  0
   -5.2535    3.7073   -1.3565 H   0  0  0  0  0  0  0  0  0  0  0  0
   -6.1828    2.4931    1.2315 S   0  0  0  0  0  0  0  0  0  0  0  0
   -7.5262    2.5071    1.8265 O   0  0  0  0  0  0  0  0  0  0  0  0
   -5.0408    2.5007    2.1890 O   0  0  0  0  0  0  0  0  0  0  0  0
   -5.9839    1.6232    0.0500 O   0  0  0  0  0  0  0  0  0  0  0  0
   -5.2957    8.2599   -0.8490 C   0  0  0  0  0  0  0  0  0  0  0  0
   -6.2445    8.6992   -1.1751 H   0  0  0  0  0  0  0  0  0  0  0  0
   -4.9156    8.8769   -0.0274 H   0  0  0  0  0  0  0  0  0  0  0  0
   -4.5874    8.3283   -1.6777 H   0  0  0  0  0  0  0  0  0  0  0  0
  1  2  1  0  0  0  0
  1 11  2  0  0  0  0
  2  3  1  0  0  0  0
  4  1  1  0  0  0  0
  5  4  2  0  0  0  0
  5  6  1  0  0  0  0
  6 10  2  0  0  0  0
  7  6  1  0  0  0  0
  7  9  2  0  0  0  0
  8  7  2  0  0  0  0
 10 11  1  0  0  0  0
 10 14  1  0  0  0  0
 11 15  1  0  0  0  0
 13  5  1  0  0  0  0
 16 22  1  0  0  0  0
 17 23  1  0  0  0  0
 17 16  1  0  0  0  0
 18 17  1  0  0  0  0
 19 20  1  0  0  0  0
 19 18  2  0  0  0  0
 20 12  1  0  0  0  0
 20 21  1  0  0  0  0
 21 16  2  0  0  0  0
 21 26  1  0  0  0  0
 24 19  1  0  0  0  0
 25 20  1  0  0  0  0
 26 27  2  0  0  0  0
 26 28  1  0  0  0  0
 29 26  2  0  0  0  0
 30 18  1  0  0  0  0
 30 32  1  0  0  0  0
 31 30  1  0  0  0  0
 33 30  1  0  0  0  0
M  RAD  5   2   2   3   3   4   2  17   2  28   2
M  END
