Coordinates from ORCA-job 4-NO2PhN2+~TsO-_B3LYPG-6-31G_dp-CH-Scan-d09-49-n800
 OpenBabel11261919023D

 33 34  0  0  0  0  0  0  0  0999 V2000
   -2.7613    1.0915   -0.1899 C   0  0  0  0  0  0  0  0  0  0  0  0
   -3.8565    0.3173    0.2983 N   0  0  0  0  0  0  0  0  0  0  0  0
   -4.9816    0.7282    0.4893 N   0  0  0  0  0  0  0  0  0  0  0  0
   -2.7186    1.5464   -1.5072 C   0  0  0  0  0  0  0  0  0  0  0  0
   -1.6054    2.1952   -2.0095 C   0  0  0  0  0  0  0  0  0  0  0  0
   -0.5209    2.3850   -1.1500 C   0  0  0  0  0  0  0  0  0  0  0  0
    0.6715    3.0823   -1.6582 N   0  0  0  0  0  0  0  0  0  0  0  0
    0.6488    3.4684   -2.8259 O   0  0  0  0  0  0  0  0  0  0  0  0
    1.6139    3.2356   -0.8828 O   0  0  0  0  0  0  0  0  0  0  0  0
   -0.5270    1.9308    0.1677 C   0  0  0  0  0  0  0  0  0  0  0  0
   -1.6495    1.2613    0.6451 C   0  0  0  0  0  0  0  0  0  0  0  0
   -3.8918    1.3150   -2.3720 H   0  0  0  0  0  0  0  0  0  0  0  0
   -1.5551    2.5564   -3.0278 H   0  0  0  0  0  0  0  0  0  0  0  0
    0.3426    2.0954    0.7912 H   0  0  0  0  0  0  0  0  0  0  0  0
   -1.6783    0.8763    1.6582 H   0  0  0  0  0  0  0  0  0  0  0  0
   -6.0632    5.2483    1.2123 C   0  0  0  0  0  0  0  0  0  0  0  0
   -5.8503    6.5999    0.9545 C   0  0  0  0  0  0  0  0  0  0  0  0
   -5.9908    7.1234   -0.3397 C   0  0  0  0  0  0  0  0  0  0  0  0
   -6.3525    6.2545   -1.3804 C   0  0  0  0  0  0  0  0  0  0  0  0
   -6.5700    4.8995   -1.1451 C   0  0  0  0  0  0  0  0  0  0  0  0
   -6.4177    4.4100    0.1535 C   0  0  0  0  0  0  0  0  0  0  0  0
   -5.9658    4.8455    2.2144 H   0  0  0  0  0  0  0  0  0  0  0  0
   -5.5729    7.2606    1.7709 H   0  0  0  0  0  0  0  0  0  0  0  0
   -6.4692    6.6454   -2.3873 H   0  0  0  0  0  0  0  0  0  0  0  0
   -6.8623    4.2296   -1.9460 H   0  0  0  0  0  0  0  0  0  0  0  0
   -6.6986    2.6826    0.4707 S   0  0  0  0  0  0  0  0  0  0  0  0
   -7.0103    2.4758    1.8795 O   0  0  0  0  0  0  0  0  0  0  0  0
   -5.1010    2.1926    0.2102 O   0  0  0  0  0  0  0  0  0  0  0  0
   -7.5176    2.1054   -0.5889 O   0  0  0  0  0  0  0  0  0  0  0  0
   -5.7890    8.5959   -0.6011 C   0  0  0  0  0  0  0  0  0  0  0  0
   -6.7342    9.1428   -0.4960 H   0  0  0  0  0  0  0  0  0  0  0  0
   -5.0781    9.0348    0.1047 H   0  0  0  0  0  0  0  0  0  0  0  0
   -5.4210    8.7760   -1.6151 H   0  0  0  0  0  0  0  0  0  0  0  0
  1  2  1  0  0  0  0
  1 11  2  0  0  0  0
  2  3  1  0  0  0  0
  4  1  1  0  0  0  0
  5  4  2  0  0  0  0
  5  6  1  0  0  0  0
  6 10  2  0  0  0  0
  7  6  1  0  0  0  0
  7  9  2  0  0  0  0
  8  7  2  0  0  0  0
 10 11  1  0  0  0  0
 10 14  1  0  0  0  0
 11 15  1  0  0  0  0
 12  4  1  0  0  0  0
 13  5  1  0  0  0  0
 16 22  1  0  0  0  0
 17 16  1  0  0  0  0
 17 23  1  0  0  0  0
 18 17  2  0  0  0  0
 19 20  2  0  0  0  0
 19 18  1  0  0  0  0
 20 21  1  0  0  0  0
 21 26  1  0  0  0  0
 21 16  2  0  0  0  0
 24 19  1  0  0  0  0
 25 20  1  0  0  0  0
 26 27  2  0  0  0  0
 28 26  1  0  0  0  0
 28  3  1  0  0  0  0
 29 26  2  0  0  0  0
 30 31  1  0  0  0  0
 30 18  1  0  0  0  0
 30 32  1  0  0  0  0
 33 30  1  0  0  0  0
M  RAD  2   2   2   3   2
M  END
