Coordinates from ORCA-job 4-NO2PhN2+~TsO-_B3LYPG-6-31G_dp-CH-Scan-d09-49-n800
 OpenBabel11261919033D

 33 33  0  0  0  0  0  0  0  0999 V2000
   -2.8774    0.7644   -0.9697 C   0  0  0  0  0  0  0  0  0  0  0  0
   -3.9062   -0.1769   -0.7412 N   0  0  0  0  0  0  0  0  0  0  0  0
   -4.6995   -0.9531   -0.6515 N   0  0  0  0  0  0  0  0  0  0  0  0
   -2.2534    0.5657   -2.2005 C   0  0  0  0  0  0  0  0  0  0  0  0
   -1.2320    1.5454   -2.3841 C   0  0  0  0  0  0  0  0  0  0  0  0
   -0.9339    2.4895   -1.4104 C   0  0  0  0  0  0  0  0  0  0  0  0
    0.1352    3.4823   -1.6662 N   0  0  0  0  0  0  0  0  0  0  0  0
    0.9150    3.2636   -2.5892 O   0  0  0  0  0  0  0  0  0  0  0  0
    0.1625    4.4844   -0.9469 O   0  0  0  0  0  0  0  0  0  0  0  0
   -1.6219    2.5941   -0.1807 C   0  0  0  0  0  0  0  0  0  0  0  0
   -2.6461    1.7035    0.0673 C   0  0  0  0  0  0  0  0  0  0  0  0
   -4.0641    4.1470   -0.1989 H   0  0  0  0  0  0  0  0  0  0  0  0
   -0.6579    1.5763   -3.3070 H   0  0  0  0  0  0  0  0  0  0  0  0
   -1.3331    3.3521    0.5360 H   0  0  0  0  0  0  0  0  0  0  0  0
   -3.2381    1.7388    0.9784 H   0  0  0  0  0  0  0  0  0  0  0  0
   -6.7437    5.2742    1.1556 C   0  0  0  0  0  0  0  0  0  0  0  0
   -6.5573    6.5792    0.7075 C   0  0  0  0  0  0  0  0  0  0  0  0
   -5.6465    6.9491   -0.3332 C   0  0  0  0  0  0  0  0  0  0  0  0
   -4.9260    5.9457   -0.9202 C   0  0  0  0  0  0  0  0  0  0  0  0
   -5.0569    4.5372   -0.5008 C   0  0  0  0  0  0  0  0  0  0  0  0
   -6.0137    4.2452    0.5782 C   0  0  0  0  0  0  0  0  0  0  0  0
   -7.4609    5.0392    1.9353 H   0  0  0  0  0  0  0  0  0  0  0  0
   -7.1438    7.3716    1.1694 H   0  0  0  0  0  0  0  0  0  0  0  0
   -4.2214    6.1688   -1.7177 H   0  0  0  0  0  0  0  0  0  0  0  0
   -5.2768    3.8737   -1.3562 H   0  0  0  0  0  0  0  0  0  0  0  0
   -6.1675    2.5457    1.1892 S   0  0  0  0  0  0  0  0  0  0  0  0
   -7.5039    2.4917    1.7970 O   0  0  0  0  0  0  0  0  0  0  0  0
   -5.0162    2.5653    2.1356 O   0  0  0  0  0  0  0  0  0  0  0  0
   -5.9483    1.7204   -0.0206 O   0  0  0  0  0  0  0  0  0  0  0  0
   -5.5220    8.3964   -0.7381 C   0  0  0  0  0  0  0  0  0  0  0  0
   -6.4851    8.7947   -1.0747 H   0  0  0  0  0  0  0  0  0  0  0  0
   -5.1915    9.0123    0.1055 H   0  0  0  0  0  0  0  0  0  0  0  0
   -4.8012    8.5202   -1.5494 H   0  0  0  0  0  0  0  0  0  0  0  0
  1  2  1  0  0  0  0
  1 11  2  0  0  0  0
  2  3  1  0  0  0  0
  4  1  1  0  0  0  0
  5  4  2  0  0  0  0
  5  6  1  0  0  0  0
  6 10  2  0  0  0  0
  7  6  1  0  0  0  0
  7  9  2  0  0  0  0
  8  7  2  0  0  0  0
 10 11  1  0  0  0  0
 10 14  1  0  0  0  0
 11 15  1  0  0  0  0
 13  5  1  0  0  0  0
 16 22  1  0  0  0  0
 17 16  1  0  0  0  0
 17 23  1  0  0  0  0
 18 17  1  0  0  0  0
 19 20  1  0  0  0  0
 19 18  2  0  0  0  0
 20 12  1  0  0  0  0
 20 21  1  0  0  0  0
 21 16  2  0  0  0  0
 21 26  1  0  0  0  0
 24 19  1  0  0  0  0
 25 20  1  0  0  0  0
 26 27  2  0  0  0  0
 26 28  1  0  0  0  0
 29 26  2  0  0  0  0
 30 18  1  0  0  0  0
 30 32  1  0  0  0  0
 31 30  1  0  0  0  0
 33 30  1  0  0  0  0
M  RAD  5   2   2   3   3   4   2  17   2  28   2
M  END
