Coordinates from ORCA-job 4-NO2PhN2+~TsO-_B3LYPG-6-31G_dp-CH-Scan-d09-49-n800
 OpenBabel11261919023D

 33 33  0  0  0  0  0  0  0  0999 V2000
   -2.8065    1.0772   -0.2818 C   0  0  0  0  0  0  0  0  0  0  0  0
   -3.9048    0.2573    0.1239 N   0  0  0  0  0  0  0  0  0  0  0  0
   -5.0164    0.6888    0.3670 N   0  0  0  0  0  0  0  0  0  0  0  0
   -2.6249    1.4909   -1.5854 C   0  0  0  0  0  0  0  0  0  0  0  0
   -1.5461    2.1875   -2.0604 C   0  0  0  0  0  0  0  0  0  0  0  0
   -0.5546    2.4751   -1.1119 C   0  0  0  0  0  0  0  0  0  0  0  0
    0.6385    3.2216   -1.5461 N   0  0  0  0  0  0  0  0  0  0  0  0
    0.6980    3.5580   -2.7271 O   0  0  0  0  0  0  0  0  0  0  0  0
    1.4957    3.4613   -0.6976 O   0  0  0  0  0  0  0  0  0  0  0  0
   -0.6594    2.0756    0.2199 C   0  0  0  0  0  0  0  0  0  0  0  0
   -1.7819    1.3645    0.6358 C   0  0  0  0  0  0  0  0  0  0  0  0
   -4.2999    0.9281   -3.0210 H   0  0  0  0  0  0  0  0  0  0  0  0
   -1.4343    2.5073   -3.0879 H   0  0  0  0  0  0  0  0  0  0  0  0
    0.1385    2.3205    0.9094 H   0  0  0  0  0  0  0  0  0  0  0  0
   -1.8809    1.0325    1.6642 H   0  0  0  0  0  0  0  0  0  0  0  0
   -5.9742    5.2430    1.2557 C   0  0  0  0  0  0  0  0  0  0  0  0
   -5.7497    6.5860    0.9627 C   0  0  0  0  0  0  0  0  0  0  0  0
   -5.9194    7.0838   -0.3378 C   0  0  0  0  0  0  0  0  0  0  0  0
   -6.3228    6.1983   -1.3496 C   0  0  0  0  0  0  0  0  0  0  0  0
   -6.5536    4.8526   -1.0797 C   0  0  0  0  0  0  0  0  0  0  0  0
   -6.3714    4.3892    0.2254 C   0  0  0  0  0  0  0  0  0  0  0  0
   -5.8528    4.8593    2.2625 H   0  0  0  0  0  0  0  0  0  0  0  0
   -5.4398    7.2598    1.7564 H   0  0  0  0  0  0  0  0  0  0  0  0
   -6.4613    6.5694   -2.3612 H   0  0  0  0  0  0  0  0  0  0  0  0
   -6.8758    4.1705   -1.8584 H   0  0  0  0  0  0  0  0  0  0  0  0
   -6.6697    2.6747    0.5855 S   0  0  0  0  0  0  0  0  0  0  0  0
   -6.8718    2.4873    2.0166 O   0  0  0  0  0  0  0  0  0  0  0  0
   -5.0922    2.1459    0.2157 O   0  0  0  0  0  0  0  0  0  0  0  0
   -7.5722    2.0992   -0.4024 O   0  0  0  0  0  0  0  0  0  0  0  0
   -5.7032    8.5465   -0.6390 C   0  0  0  0  0  0  0  0  0  0  0  0
   -6.6519    9.0957   -0.5998 H   0  0  0  0  0  0  0  0  0  0  0  0
   -5.0263    9.0096    0.0843 H   0  0  0  0  0  0  0  0  0  0  0  0
   -5.2863    8.6910   -1.6400 H   0  0  0  0  0  0  0  0  0  0  0  0
  1  2  1  0  0  0  0
  1 11  2  0  0  0  0
  2  3  1  0  0  0  0
  4  1  1  0  0  0  0
  5  4  2  0  0  0  0
  5  6  1  0  0  0  0
  6 10  2  0  0  0  0
  7  6  1  0  0  0  0
  7  9  2  0  0  0  0
  8  7  2  0  0  0  0
 10 11  1  0  0  0  0
 10 14  1  0  0  0  0
 11 15  1  0  0  0  0
 13  5  1  0  0  0  0
 16 22  1  0  0  0  0
 17 16  1  0  0  0  0
 17 23  1  0  0  0  0
 18 17  2  0  0  0  0
 19 20  2  0  0  0  0
 19 18  1  0  0  0  0
 20 21  1  0  0  0  0
 21 26  1  0  0  0  0
 21 16  2  0  0  0  0
 24 19  1  0  0  0  0
 25 20  1  0  0  0  0
 26 27  2  0  0  0  0
 28  3  1  0  0  0  0
 28 26  1  0  0  0  0
 29 26  2  0  0  0  0
 30 31  1  0  0  0  0
 30 18  1  0  0  0  0
 30 32  1  0  0  0  0
 33 30  1  0  0  0  0
M  RAD  4   2   2   3   2   4   2  12   2
M  END
