Coordinates from ORCA-job 4-NO2PhN2+~TsO-_B3LYPG-6-31G_dp-CH-Scan-d09-49-n800
 OpenBabel11261919023D

 33 33  0  0  0  0  0  0  0  0999 V2000
   -2.9570    0.8380   -0.9704 C   0  0  0  0  0  0  0  0  0  0  0  0
   -3.9347   -0.1692   -0.7906 N   0  0  0  0  0  0  0  0  0  0  0  0
   -4.6874   -0.9882   -0.7454 N   0  0  0  0  0  0  0  0  0  0  0  0
   -2.4322    0.8267   -2.2613 C   0  0  0  0  0  0  0  0  0  0  0  0
   -1.4673    1.8722   -2.3913 C   0  0  0  0  0  0  0  0  0  0  0  0
   -1.1465    2.7159   -1.3365 C   0  0  0  0  0  0  0  0  0  0  0  0
   -0.1664    3.8056   -1.5518 N   0  0  0  0  0  0  0  0  0  0  0  0
    0.5622    3.7393   -2.5376 O   0  0  0  0  0  0  0  0  0  0  0  0
   -0.1637    4.7326   -0.7373 O   0  0  0  0  0  0  0  0  0  0  0  0
   -1.7358    2.6313   -0.0547 C   0  0  0  0  0  0  0  0  0  0  0  0
   -2.6867    1.6531    0.1565 C   0  0  0  0  0  0  0  0  0  0  0  0
   -4.0176    3.9587   -0.2037 H   0  0  0  0  0  0  0  0  0  0  0  0
   -0.9615    2.0398   -3.3391 H   0  0  0  0  0  0  0  0  0  0  0  0
   -1.4340    3.3173    0.7260 H   0  0  0  0  0  0  0  0  0  0  0  0
   -3.2112    1.5536    1.1022 H   0  0  0  0  0  0  0  0  0  0  0  0
   -6.6191    5.2418    1.1359 C   0  0  0  0  0  0  0  0  0  0  0  0
   -6.3759    6.5213    0.6444 C   0  0  0  0  0  0  0  0  0  0  0  0
   -5.4671    6.8134   -0.4220 C   0  0  0  0  0  0  0  0  0  0  0  0
   -4.8097    5.7566   -0.9899 C   0  0  0  0  0  0  0  0  0  0  0  0
   -4.9993    4.3725   -0.5203 C   0  0  0  0  0  0  0  0  0  0  0  0
   -5.9523    4.1598    0.5782 C   0  0  0  0  0  0  0  0  0  0  0  0
   -7.3335    5.0677    1.9338 H   0  0  0  0  0  0  0  0  0  0  0  0
   -6.9136    7.3558    1.0911 H   0  0  0  0  0  0  0  0  0  0  0  0
   -4.1090    5.9193   -1.8052 H   0  0  0  0  0  0  0  0  0  0  0  0
   -5.2397    3.6812   -1.3468 H   0  0  0  0  0  0  0  0  0  0  0  0
   -6.1774    2.4900    1.2489 S   0  0  0  0  0  0  0  0  0  0  0  0
   -7.5181    2.5141    1.8497 O   0  0  0  0  0  0  0  0  0  0  0  0
   -5.0310    2.4976    2.2009 O   0  0  0  0  0  0  0  0  0  0  0  0
   -5.9883    1.6117    0.0718 O   0  0  0  0  0  0  0  0  0  0  0  0
   -5.2756    8.2392   -0.8741 C   0  0  0  0  0  0  0  0  0  0  0  0
   -6.2233    8.6784   -1.2034 H   0  0  0  0  0  0  0  0  0  0  0  0
   -4.8939    8.8613   -0.0571 H   0  0  0  0  0  0  0  0  0  0  0  0
   -4.5672    8.2995   -1.7033 H   0  0  0  0  0  0  0  0  0  0  0  0
  1  2  1  0  0  0  0
  1 11  2  0  0  0  0
  2  3  1  0  0  0  0
  4  1  1  0  0  0  0
  5  4  2  0  0  0  0
  5  6  1  0  0  0  0
  6 10  2  0  0  0  0
  7  6  1  0  0  0  0
  7  9  2  0  0  0  0
  8  7  2  0  0  0  0
 10 11  1  0  0  0  0
 10 14  1  0  0  0  0
 11 15  1  0  0  0  0
 13  5  1  0  0  0  0
 16 22  1  0  0  0  0
 17 23  1  0  0  0  0
 17 16  1  0  0  0  0
 18 17  1  0  0  0  0
 19 20  1  0  0  0  0
 19 18  2  0  0  0  0
 20 12  1  0  0  0  0
 20 21  1  0  0  0  0
 21 16  2  0  0  0  0
 21 26  1  0  0  0  0
 24 19  1  0  0  0  0
 25 20  1  0  0  0  0
 26 27  2  0  0  0  0
 26 28  1  0  0  0  0
 29 26  2  0  0  0  0
 30 18  1  0  0  0  0
 30 32  1  0  0  0  0
 31 30  1  0  0  0  0
 33 30  1  0  0  0  0
M  RAD  5   2   2   3   3   4   2  17   2  28   2
M  END
