Coordinates from ORCA-job 4-NO2PhN2+~TsO-_B3LYPG-6-31G_dp-CH-Scan-d09-49-n800
 OpenBabel11261919033D

 33 33  0  0  0  0  0  0  0  0999 V2000
   -2.8683    0.7514   -0.9740 C   0  0  0  0  0  0  0  0  0  0  0  0
   -3.9078   -0.1765   -0.7414 N   0  0  0  0  0  0  0  0  0  0  0  0
   -4.7097   -0.9434   -0.6473 N   0  0  0  0  0  0  0  0  0  0  0  0
   -2.2350    0.5295   -2.1962 C   0  0  0  0  0  0  0  0  0  0  0  0
   -1.2023    1.4956   -2.3851 C   0  0  0  0  0  0  0  0  0  0  0  0
   -0.9023    2.4495   -1.4214 C   0  0  0  0  0  0  0  0  0  0  0  0
    0.1807    3.4262   -1.6807 N   0  0  0  0  0  0  0  0  0  0  0  0
    0.9626    3.1887   -2.5974 O   0  0  0  0  0  0  0  0  0  0  0  0
    0.2176    4.4345   -0.9707 O   0  0  0  0  0  0  0  0  0  0  0  0
   -1.5999    2.5783   -0.1995 C   0  0  0  0  0  0  0  0  0  0  0  0
   -2.6360    1.7027    0.0516 C   0  0  0  0  0  0  0  0  0  0  0  0
   -4.0611    4.1889   -0.1803 H   0  0  0  0  0  0  0  0  0  0  0  0
   -0.6203    1.5079   -3.3033 H   0  0  0  0  0  0  0  0  0  0  0  0
   -1.3091    3.3428    0.5093 H   0  0  0  0  0  0  0  0  0  0  0  0
   -3.2346    1.7559    0.9574 H   0  0  0  0  0  0  0  0  0  0  0  0
   -6.7671    5.2795    1.1534 C   0  0  0  0  0  0  0  0  0  0  0  0
   -6.5935    6.5881    0.7104 C   0  0  0  0  0  0  0  0  0  0  0  0
   -5.6779    6.9724   -0.3208 C   0  0  0  0  0  0  0  0  0  0  0  0
   -4.9386    5.9801   -0.9032 C   0  0  0  0  0  0  0  0  0  0  0  0
   -5.0553    4.5685   -0.4891 C   0  0  0  0  0  0  0  0  0  0  0  0
   -6.0184    4.2616    0.5806 C   0  0  0  0  0  0  0  0  0  0  0  0
   -7.4880    5.0329    1.9262 H   0  0  0  0  0  0  0  0  0  0  0  0
   -7.1945    7.3716    1.1689 H   0  0  0  0  0  0  0  0  0  0  0  0
   -4.2294    6.2145   -1.6934 H   0  0  0  0  0  0  0  0  0  0  0  0
   -5.2616    3.9062   -1.3489 H   0  0  0  0  0  0  0  0  0  0  0  0
   -6.1563    2.5584    1.1847 S   0  0  0  0  0  0  0  0  0  0  0  0
   -7.4902    2.4903    1.7967 O   0  0  0  0  0  0  0  0  0  0  0  0
   -5.0018    2.5815    2.1269 O   0  0  0  0  0  0  0  0  0  0  0  0
   -5.9348    1.7414   -0.0304 O   0  0  0  0  0  0  0  0  0  0  0  0
   -5.5690    8.4222   -0.7211 C   0  0  0  0  0  0  0  0  0  0  0  0
   -6.5336    8.8076   -1.0685 H   0  0  0  0  0  0  0  0  0  0  0  0
   -5.2578    9.0409    0.1277 H   0  0  0  0  0  0  0  0  0  0  0  0
   -4.8404    8.5582   -1.5233 H   0  0  0  0  0  0  0  0  0  0  0  0
  1  2  1  0  0  0  0
  1 11  2  0  0  0  0
  2  3  1  0  0  0  0
  4  1  1  0  0  0  0
  5  4  2  0  0  0  0
  5  6  1  0  0  0  0
  6 10  2  0  0  0  0
  7  6  1  0  0  0  0
  7  9  2  0  0  0  0
  8  7  2  0  0  0  0
 10 11  1  0  0  0  0
 10 14  1  0  0  0  0
 11 15  1  0  0  0  0
 13  5  1  0  0  0  0
 16 22  1  0  0  0  0
 17 16  1  0  0  0  0
 17 23  1  0  0  0  0
 18 17  1  0  0  0  0
 19 20  1  0  0  0  0
 19 18  2  0  0  0  0
 20 12  1  0  0  0  0
 20 21  1  0  0  0  0
 21 16  2  0  0  0  0
 21 26  1  0  0  0  0
 24 19  1  0  0  0  0
 25 20  1  0  0  0  0
 26 27  2  0  0  0  0
 26 28  1  0  0  0  0
 29 26  2  0  0  0  0
 30 18  1  0  0  0  0
 30 32  1  0  0  0  0
 31 30  1  0  0  0  0
 33 30  1  0  0  0  0
M  RAD  5   2   2   3   3   4   2  17   2  28   2
M  END
