Coordinates from ORCA-job 4-NO2PhN2+~TsO-_B3LYPG-6-31G_dp-CH-Scan-d09-49-n800
 OpenBabel11261919023D

 33 33  0  0  0  0  0  0  0  0999 V2000
   -2.7329    1.1406   -0.9172 C   0  0  0  0  0  0  0  0  0  0  0  0
   -3.9577    0.4359   -0.8170 N   0  0  0  0  0  0  0  0  0  0  0  0
   -4.9067   -0.1453   -0.8532 N   0  0  0  0  0  0  0  0  0  0  0  0
   -2.3711    1.3779   -2.2404 C   0  0  0  0  0  0  0  0  0  0  0  0
   -1.1230    2.0564   -2.2956 C   0  0  0  0  0  0  0  0  0  0  0  0
   -0.4161    2.3797   -1.1433 C   0  0  0  0  0  0  0  0  0  0  0  0
    0.8861    3.0827   -1.2665 N   0  0  0  0  0  0  0  0  0  0  0  0
    1.3016    3.3257   -2.3971 O   0  0  0  0  0  0  0  0  0  0  0  0
    1.4724    3.3854   -0.2269 O   0  0  0  0  0  0  0  0  0  0  0  0
   -0.8709    2.0986    0.1617 C   0  0  0  0  0  0  0  0  0  0  0  0
   -2.0846    1.4597    0.2996 C   0  0  0  0  0  0  0  0  0  0  0  0
   -4.9096    3.9563   -1.1004 H   0  0  0  0  0  0  0  0  0  0  0  0
   -0.6871    2.3402   -3.2495 H   0  0  0  0  0  0  0  0  0  0  0  0
   -0.2756    2.3957    1.0143 H   0  0  0  0  0  0  0  0  0  0  0  0
   -2.5302    1.2490    1.2649 H   0  0  0  0  0  0  0  0  0  0  0  0
   -6.4667    5.3341    1.3498 C   0  0  0  0  0  0  0  0  0  0  0  0
   -6.3573    6.6295    0.8471 C   0  0  0  0  0  0  0  0  0  0  0  0
   -6.0021    6.9371   -0.5050 C   0  0  0  0  0  0  0  0  0  0  0  0
   -5.7667    5.8851   -1.3467 C   0  0  0  0  0  0  0  0  0  0  0  0
   -5.8609    4.4815   -0.8965 C   0  0  0  0  0  0  0  0  0  0  0  0
   -6.2217    4.2561    0.5143 C   0  0  0  0  0  0  0  0  0  0  0  0
   -6.7518    5.1455    2.3793 H   0  0  0  0  0  0  0  0  0  0  0  0
   -6.5576    7.4627    1.5187 H   0  0  0  0  0  0  0  0  0  0  0  0
   -5.4954    6.0619   -2.3845 H   0  0  0  0  0  0  0  0  0  0  0  0
   -6.5604    3.9037   -1.5272 H   0  0  0  0  0  0  0  0  0  0  0  0
   -6.3002    2.5543    1.1344 S   0  0  0  0  0  0  0  0  0  0  0  0
   -7.0071    2.6600    2.4187 O   0  0  0  0  0  0  0  0  0  0  0  0
   -4.8360    2.2788    1.2194 O   0  0  0  0  0  0  0  0  0  0  0  0
   -6.9868    1.8358    0.0398 O   0  0  0  0  0  0  0  0  0  0  0  0
   -5.9070    8.3772   -0.9423 C   0  0  0  0  0  0  0  0  0  0  0  0
   -6.8656    8.8919   -0.8126 H   0  0  0  0  0  0  0  0  0  0  0  0
   -5.1634    8.9192   -0.3485 H   0  0  0  0  0  0  0  0  0  0  0  0
   -5.6216    8.4549   -1.9937 H   0  0  0  0  0  0  0  0  0  0  0  0
  1  2  1  0  0  0  0
  1 11  2  0  0  0  0
  3  2  1  0  0  0  0
  4  1  1  0  0  0  0
  5  4  2  0  0  0  0
  5  6  1  0  0  0  0
  6 10  2  0  0  0  0
  7  6  1  0  0  0  0
  7  9  2  0  0  0  0
  8  7  2  0  0  0  0
 10 11  1  0  0  0  0
 10 14  1  0  0  0  0
 11 15  1  0  0  0  0
 12 20  1  0  0  0  0
 13  5  1  0  0  0  0
 16 22  1  0  0  0  0
 17 16  1  0  0  0  0
 17 23  1  0  0  0  0
 18 17  1  0  0  0  0
 19 20  1  0  0  0  0
 19 18  2  0  0  0  0
 20 21  1  0  0  0  0
 21 26  1  0  0  0  0
 21 16  2  0  0  0  0
 24 19  1  0  0  0  0
 25 20  1  0  0  0  0
 26 28  2  0  0  0  0
 26 27  1  0  0  0  0
 29 26  2  0  0  0  0
 30 31  1  0  0  0  0
 30 18  1  0  0  0  0
 30 32  1  0  0  0  0
 33 30  1  0  0  0  0
M  RAD  5   2   2   3   3   4   2  17   2  27   2
M  END
