Coordinates from ORCA-job 4-NO2PhN2+~TsO-_B3LYPG-6-31G_dp-CH-Scan-d09-49-n800
 OpenBabel11261919023D

 33 34  0  0  0  0  0  0  0  0999 V2000
   -2.7245    1.1035   -0.1625 C   0  0  0  0  0  0  0  0  0  0  0  0
   -3.8331    0.3594    0.3367 N   0  0  0  0  0  0  0  0  0  0  0  0
   -4.9620    0.7609    0.5116 N   0  0  0  0  0  0  0  0  0  0  0  0
   -2.7336    1.6923   -1.4305 C   0  0  0  0  0  0  0  0  0  0  0  0
   -1.5936    2.3037   -1.9282 C   0  0  0  0  0  0  0  0  0  0  0  0
   -0.4498    2.3232   -1.1286 C   0  0  0  0  0  0  0  0  0  0  0  0
    0.7630    2.9817   -1.6419 N   0  0  0  0  0  0  0  0  0  0  0  0
    0.7008    3.4946   -2.7582 O   0  0  0  0  0  0  0  0  0  0  0  0
    1.7593    2.9787   -0.9212 O   0  0  0  0  0  0  0  0  0  0  0  0
   -0.4132    1.7329    0.1333 C   0  0  0  0  0  0  0  0  0  0  0  0
   -1.5554    1.0976    0.6091 C   0  0  0  0  0  0  0  0  0  0  0  0
   -3.8379    1.6541   -2.1537 H   0  0  0  0  0  0  0  0  0  0  0  0
   -1.5710    2.7654   -2.9064 H   0  0  0  0  0  0  0  0  0  0  0  0
    0.5020    1.7649    0.7106 H   0  0  0  0  0  0  0  0  0  0  0  0
   -1.5568    0.6044    1.5745 H   0  0  0  0  0  0  0  0  0  0  0  0
   -6.0771    5.2799    1.1852 C   0  0  0  0  0  0  0  0  0  0  0  0
   -5.8891    6.6333    0.9185 C   0  0  0  0  0  0  0  0  0  0  0  0
   -6.0687    7.1511   -0.3734 C   0  0  0  0  0  0  0  0  0  0  0  0
   -6.4437    6.2740   -1.4022 C   0  0  0  0  0  0  0  0  0  0  0  0
   -6.6367    4.9166   -1.1576 C   0  0  0  0  0  0  0  0  0  0  0  0
   -6.4458    4.4331    0.1379 C   0  0  0  0  0  0  0  0  0  0  0  0
   -5.9502    4.8819    2.1859 H   0  0  0  0  0  0  0  0  0  0  0  0
   -5.6012    7.3004    1.7261 H   0  0  0  0  0  0  0  0  0  0  0  0
   -6.5912    6.6603   -2.4068 H   0  0  0  0  0  0  0  0  0  0  0  0
   -6.9405    4.2404   -1.9488 H   0  0  0  0  0  0  0  0  0  0  0  0
   -6.6978    2.7027    0.4675 S   0  0  0  0  0  0  0  0  0  0  0  0
   -7.0001    2.5019    1.8795 O   0  0  0  0  0  0  0  0  0  0  0  0
   -5.1012    2.2333    0.2004 O   0  0  0  0  0  0  0  0  0  0  0  0
   -7.5189    2.1101   -0.5827 O   0  0  0  0  0  0  0  0  0  0  0  0
   -5.8945    8.6258   -0.6425 C   0  0  0  0  0  0  0  0  0  0  0  0
   -6.8353    9.1654   -0.4770 H   0  0  0  0  0  0  0  0  0  0  0  0
   -5.1450    9.0683    0.0198 H   0  0  0  0  0  0  0  0  0  0  0  0
   -5.5908    8.8115   -1.6764 H   0  0  0  0  0  0  0  0  0  0  0  0
  1  2  1  0  0  0  0
  1 11  2  0  0  0  0
  2  3  1  0  0  0  0
  4  1  1  0  0  0  0
  5  4  2  0  0  0  0
  5  6  1  0  0  0  0
  6 10  2  0  0  0  0
  7  6  1  0  0  0  0
  7  9  2  0  0  0  0
  8  7  2  0  0  0  0
 10 11  1  0  0  0  0
 10 14  1  0  0  0  0
 11 15  1  0  0  0  0
 12  4  1  0  0  0  0
 13  5  1  0  0  0  0
 16 22  1  0  0  0  0
 17 16  1  0  0  0  0
 17 23  1  0  0  0  0
 18 17  2  0  0  0  0
 19 20  2  0  0  0  0
 19 18  1  0  0  0  0
 20 21  1  0  0  0  0
 21 26  1  0  0  0  0
 21 16  2  0  0  0  0
 24 19  1  0  0  0  0
 25 20  1  0  0  0  0
 26 27  2  0  0  0  0
 28 26  1  0  0  0  0
 28  3  1  0  0  0  0
 29 26  2  0  0  0  0
 30 31  1  0  0  0  0
 30 18  1  0  0  0  0
 30 32  1  0  0  0  0
 33 30  1  0  0  0  0
M  RAD  2   2   2   3   2
M  END
