Coordinates from ORCA-job 4-NO2PhN2+~TsO-_B3LYPG-6-31G_dp-CH-Scan-d09-49-n800
 OpenBabel11261919023D

 33 33  0  0  0  0  0  0  0  0999 V2000
   -2.2479    1.1860   -0.2961 C   0  0  0  0  0  0  0  0  0  0  0  0
   -3.5069    0.7208    0.1399 N   0  0  0  0  0  0  0  0  0  0  0  0
   -4.5169    0.3852    0.4677 N   0  0  0  0  0  0  0  0  0  0  0  0
   -2.2977    2.3325   -1.0889 C   0  0  0  0  0  0  0  0  0  0  0  0
   -0.9854    2.7155   -1.4824 C   0  0  0  0  0  0  0  0  0  0  0  0
    0.1394    1.9931   -1.1066 C   0  0  0  0  0  0  0  0  0  0  0  0
    1.4785    2.4449   -1.5628 N   0  0  0  0  0  0  0  0  0  0  0  0
    1.5336    3.4466   -2.2714 O   0  0  0  0  0  0  0  0  0  0  0  0
    2.4552    1.7929   -1.1934 O   0  0  0  0  0  0  0  0  0  0  0  0
    0.0938    0.8381   -0.3005 C   0  0  0  0  0  0  0  0  0  0  0  0
   -1.1417    0.4069    0.1295 C   0  0  0  0  0  0  0  0  0  0  0  0
   -5.1813    4.2684   -1.0844 H   0  0  0  0  0  0  0  0  0  0  0  0
   -0.8292    3.5966   -2.0987 H   0  0  0  0  0  0  0  0  0  0  0  0
    1.0094    0.3255   -0.0393 H   0  0  0  0  0  0  0  0  0  0  0  0
   -1.2538   -0.4729    0.7567 H   0  0  0  0  0  0  0  0  0  0  0  0
   -6.9921    5.6061    1.1745 C   0  0  0  0  0  0  0  0  0  0  0  0
   -6.8913    6.8910    0.6522 C   0  0  0  0  0  0  0  0  0  0  0  0
   -6.4543    7.1813   -0.6803 C   0  0  0  0  0  0  0  0  0  0  0  0
   -6.1246    6.1212   -1.4783 C   0  0  0  0  0  0  0  0  0  0  0  0
   -6.1868    4.7288   -0.9966 C   0  0  0  0  0  0  0  0  0  0  0  0
   -6.6553    4.5178    0.3797 C   0  0  0  0  0  0  0  0  0  0  0  0
   -7.3545    5.4323    2.1819 H   0  0  0  0  0  0  0  0  0  0  0  0
   -7.1699    7.7305    1.2869 H   0  0  0  0  0  0  0  0  0  0  0  0
   -5.7864    6.2856   -2.4981 H   0  0  0  0  0  0  0  0  0  0  0  0
   -6.7583    4.0702   -1.6730 H   0  0  0  0  0  0  0  0  0  0  0  0
   -6.7257    2.8322    1.0388 S   0  0  0  0  0  0  0  0  0  0  0  0
   -7.8141    2.8791    2.0299 O   0  0  0  0  0  0  0  0  0  0  0  0
   -5.3457    2.7718    1.6001 O   0  0  0  0  0  0  0  0  0  0  0  0
   -6.9440    1.9936   -0.1575 O   0  0  0  0  0  0  0  0  0  0  0  0
   -6.3830    8.6142   -1.1454 C   0  0  0  0  0  0  0  0  0  0  0  0
   -7.3635    9.0988   -1.0807 H   0  0  0  0  0  0  0  0  0  0  0  0
   -5.6918    9.1944   -0.5246 H   0  0  0  0  0  0  0  0  0  0  0  0
   -6.0416    8.6786   -2.1808 H   0  0  0  0  0  0  0  0  0  0  0  0
  1 11  1  0  0  0  0
  1  2  1  0  0  0  0
  2  3  1  0  0  0  0
  4  1  2  0  0  0  0
  5  6  2  0  0  0  0
  5  4  1  0  0  0  0
  6 10  1  0  0  0  0
  7  9  2  0  0  0  0
  7  6  1  0  0  0  0
  8  7  2  0  0  0  0
 10 14  1  0  0  0  0
 10 11  2  0  0  0  0
 11 15  1  0  0  0  0
 12 20  1  0  0  0  0
 13  5  1  0  0  0  0
 16 22  1  0  0  0  0
 17 16  1  0  0  0  0
 17 23  1  0  0  0  0
 18 17  1  0  0  0  0
 19 20  1  0  0  0  0
 19 18  2  0  0  0  0
 20 21  1  0  0  0  0
 21 26  1  0  0  0  0
 21 16  2  0  0  0  0
 24 19  1  0  0  0  0
 25 20  1  0  0  0  0
 26 28  2  0  0  0  0
 26 27  1  0  0  0  0
 29 26  2  0  0  0  0
 30 31  1  0  0  0  0
 30 18  1  0  0  0  0
 30 32  1  0  0  0  0
 33 30  1  0  0  0  0
M  RAD  5   2   2   3   3   4   2  17   2  27   2
M  END
