Coordinates from ORCA-job 4-NO2PhN2+~TsO-_B3LYPG-6-31G_dp-CH-Scan-d09-49-n800
 OpenBabel11261919023D

 33 33  0  0  0  0  0  0  0  0999 V2000
   -2.7273    1.0963   -0.1410 C   0  0  0  0  0  0  0  0  0  0  0  0
   -3.8278    0.2994    0.2996 N   0  0  0  0  0  0  0  0  0  0  0  0
   -4.9408    0.7407    0.5485 N   0  0  0  0  0  0  0  0  0  0  0  0
   -2.7316    2.0030   -1.1740 C   0  0  0  0  0  0  0  0  0  0  0  0
   -1.6764    2.7217   -1.6505 C   0  0  0  0  0  0  0  0  0  0  0  0
   -0.4584    2.4701   -0.9954 C   0  0  0  0  0  0  0  0  0  0  0  0
    0.7429    3.2014   -1.4450 N   0  0  0  0  0  0  0  0  0  0  0  0
    0.6056    4.0037   -2.3652 O   0  0  0  0  0  0  0  0  0  0  0  0
    1.7986    2.9591   -0.8646 O   0  0  0  0  0  0  0  0  0  0  0  0
   -0.3474    1.5487    0.0455 C   0  0  0  0  0  0  0  0  0  0  0  0
   -1.4762    0.8485    0.4597 C   0  0  0  0  0  0  0  0  0  0  0  0
   -5.3232    2.3151   -3.1067 H   0  0  0  0  0  0  0  0  0  0  0  0
   -1.7231    3.4294   -2.4698 H   0  0  0  0  0  0  0  0  0  0  0  0
    0.6179    1.3854    0.5068 H   0  0  0  0  0  0  0  0  0  0  0  0
   -1.4224    0.1143    1.2588 H   0  0  0  0  0  0  0  0  0  0  0  0
   -6.1630    5.3401    1.2422 C   0  0  0  0  0  0  0  0  0  0  0  0
   -5.9732    6.6656    0.8576 C   0  0  0  0  0  0  0  0  0  0  0  0
   -5.9927    7.0389   -0.4944 C   0  0  0  0  0  0  0  0  0  0  0  0
   -6.2050    6.0459   -1.4637 C   0  0  0  0  0  0  0  0  0  0  0  0
   -6.4016    4.7161   -1.1035 C   0  0  0  0  0  0  0  0  0  0  0  0
   -6.3739    4.3792    0.2524 C   0  0  0  0  0  0  0  0  0  0  0  0
   -6.1550    5.0496    2.2871 H   0  0  0  0  0  0  0  0  0  0  0  0
   -5.8082    7.4224    1.6194 H   0  0  0  0  0  0  0  0  0  0  0  0
   -6.2191    6.3189   -2.5154 H   0  0  0  0  0  0  0  0  0  0  0  0
   -6.5665    3.9508   -1.8555 H   0  0  0  0  0  0  0  0  0  0  0  0
   -6.6380    2.6893    0.7300 S   0  0  0  0  0  0  0  0  0  0  0  0
   -6.8480    2.5968    2.1688 O   0  0  0  0  0  0  0  0  0  0  0  0
   -5.0315    2.1760    0.4101 O   0  0  0  0  0  0  0  0  0  0  0  0
   -7.5065    2.0143   -0.2224 O   0  0  0  0  0  0  0  0  0  0  0  0
   -5.8183    8.4820   -0.8997 C   0  0  0  0  0  0  0  0  0  0  0  0
   -6.7923    8.9728   -1.0150 H   0  0  0  0  0  0  0  0  0  0  0  0
   -5.2554    9.0446   -0.1498 H   0  0  0  0  0  0  0  0  0  0  0  0
   -5.2959    8.5675   -1.8569 H   0  0  0  0  0  0  0  0  0  0  0  0
  1  2  1  0  0  0  0
  1 11  2  0  0  0  0
  2  3  1  0  0  0  0
  4  1  1  0  0  0  0
  5  4  2  0  0  0  0
  5  6  1  0  0  0  0
  6 10  2  0  0  0  0
  7  6  1  0  0  0  0
  7  9  2  0  0  0  0
  8  7  2  0  0  0  0
 10 11  1  0  0  0  0
 10 14  1  0  0  0  0
 11 15  1  0  0  0  0
 13  5  1  0  0  0  0
 16 22  1  0  0  0  0
 17 16  1  0  0  0  0
 17 23  1  0  0  0  0
 18 17  2  0  0  0  0
 19 20  2  0  0  0  0
 19 18  1  0  0  0  0
 20 21  1  0  0  0  0
 21 26  1  0  0  0  0
 21 16  2  0  0  0  0
 24 19  1  0  0  0  0
 25 20  1  0  0  0  0
 26 27  2  0  0  0  0
 28  3  1  0  0  0  0
 28 26  1  0  0  0  0
 29 26  2  0  0  0  0
 30 18  1  0  0  0  0
 30 32  1  0  0  0  0
 31 30  1  0  0  0  0
 33 30  1  0  0  0  0
M  RAD  4   2   2   3   2   4   2  12   2
M  END
