Coordinates from ORCA-job 4-NO2PhN2+~TsO-_B3LYPG-6-31G_dp-CH-Scan-d09-49-n800
 OpenBabel11261919023D

 33 33  0  0  0  0  0  0  0  0999 V2000
   -2.8083    1.0751   -0.2833 C   0  0  0  0  0  0  0  0  0  0  0  0
   -3.9063    0.2577    0.1274 N   0  0  0  0  0  0  0  0  0  0  0  0
   -5.0181    0.6880    0.3691 N   0  0  0  0  0  0  0  0  0  0  0  0
   -2.6297    1.4714   -1.5948 C   0  0  0  0  0  0  0  0  0  0  0  0
   -1.5463    2.1656   -2.0686 C   0  0  0  0  0  0  0  0  0  0  0  0
   -0.5593    2.4677   -1.1213 C   0  0  0  0  0  0  0  0  0  0  0  0
    0.6328    3.2125   -1.5598 N   0  0  0  0  0  0  0  0  0  0  0  0
    0.6954    3.5360   -2.7444 O   0  0  0  0  0  0  0  0  0  0  0  0
    1.4867    3.4650   -0.7115 O   0  0  0  0  0  0  0  0  0  0  0  0
   -0.6670    2.0842    0.2150 C   0  0  0  0  0  0  0  0  0  0  0  0
   -1.7892    1.3751    0.6349 C   0  0  0  0  0  0  0  0  0  0  0  0
   -4.1876    0.9318   -2.9379 H   0  0  0  0  0  0  0  0  0  0  0  0
   -1.4312    2.4735   -3.0992 H   0  0  0  0  0  0  0  0  0  0  0  0
    0.1278    2.3396    0.9041 H   0  0  0  0  0  0  0  0  0  0  0  0
   -1.8907    1.0548    1.6666 H   0  0  0  0  0  0  0  0  0  0  0  0
   -5.9763    5.2407    1.2539 C   0  0  0  0  0  0  0  0  0  0  0  0
   -5.7513    6.5847    0.9659 C   0  0  0  0  0  0  0  0  0  0  0  0
   -5.9213    7.0874   -0.3327 C   0  0  0  0  0  0  0  0  0  0  0  0
   -6.3258    6.2059   -1.3475 C   0  0  0  0  0  0  0  0  0  0  0  0
   -6.5571    4.8592   -1.0824 C   0  0  0  0  0  0  0  0  0  0  0  0
   -6.3744    4.3908    0.2207 C   0  0  0  0  0  0  0  0  0  0  0  0
   -5.8547    4.8532    2.2593 H   0  0  0  0  0  0  0  0  0  0  0  0
   -5.4407    7.2553    1.7619 H   0  0  0  0  0  0  0  0  0  0  0  0
   -6.4648    6.5809   -2.3576 H   0  0  0  0  0  0  0  0  0  0  0  0
   -6.8803    4.1803   -1.8634 H   0  0  0  0  0  0  0  0  0  0  0  0
   -6.6730    2.6748    0.5746 S   0  0  0  0  0  0  0  0  0  0  0  0
   -6.8826    2.4838    2.0042 O   0  0  0  0  0  0  0  0  0  0  0  0
   -5.0954    2.1476    0.2104 O   0  0  0  0  0  0  0  0  0  0  0  0
   -7.5716    2.1025   -0.4191 O   0  0  0  0  0  0  0  0  0  0  0  0
   -5.7047    8.5512   -0.6282 C   0  0  0  0  0  0  0  0  0  0  0  0
   -6.6518    9.1022   -0.5777 H   0  0  0  0  0  0  0  0  0  0  0  0
   -5.0205    9.0091    0.0915 H   0  0  0  0  0  0  0  0  0  0  0  0
   -5.2963    8.7001   -1.6321 H   0  0  0  0  0  0  0  0  0  0  0  0
  1  2  1  0  0  0  0
  1 11  2  0  0  0  0
  2  3  1  0  0  0  0
  4  1  1  0  0  0  0
  5  4  2  0  0  0  0
  5  6  1  0  0  0  0
  6 10  2  0  0  0  0
  7  6  1  0  0  0  0
  7  9  2  0  0  0  0
  8  7  2  0  0  0  0
 10 11  1  0  0  0  0
 10 14  1  0  0  0  0
 11 15  1  0  0  0  0
 13  5  1  0  0  0  0
 16 22  1  0  0  0  0
 17 16  1  0  0  0  0
 17 23  1  0  0  0  0
 18 17  2  0  0  0  0
 19 20  2  0  0  0  0
 19 18  1  0  0  0  0
 20 21  1  0  0  0  0
 21 26  1  0  0  0  0
 21 16  2  0  0  0  0
 24 19  1  0  0  0  0
 25 20  1  0  0  0  0
 26 27  2  0  0  0  0
 28  3  1  0  0  0  0
 28 26  1  0  0  0  0
 29 26  2  0  0  0  0
 30 31  1  0  0  0  0
 30 18  1  0  0  0  0
 30 32  1  0  0  0  0
 33 30  1  0  0  0  0
M  RAD  4   2   2   3   2   4   2  12   2
M  END
