Coordinates from ORCA-job 4-NO2PhN2+~TsO-_B3LYPG-6-31G_dp-CH-Scan-d09-49-n800
 OpenBabel11261919023D

 33 34  0  0  0  0  0  0  0  0999 V2000
   -2.5896    1.1390   -0.1386 C   0  0  0  0  0  0  0  0  0  0  0  0
   -3.7570    0.4996    0.3462 N   0  0  0  0  0  0  0  0  0  0  0  0
   -4.8805    0.8688    0.5504 N   0  0  0  0  0  0  0  0  0  0  0  0
   -2.5564    2.3447   -0.8645 C   0  0  0  0  0  0  0  0  0  0  0  0
   -1.3271    2.8228   -1.3092 C   0  0  0  0  0  0  0  0  0  0  0  0
   -0.1666    2.1093   -1.0180 C   0  0  0  0  0  0  0  0  0  0  0  0
    1.1301    2.6379   -1.4870 N   0  0  0  0  0  0  0  0  0  0  0  0
    1.1166    3.6928   -2.1173 O   0  0  0  0  0  0  0  0  0  0  0  0
    2.1367    1.9876   -1.2152 O   0  0  0  0  0  0  0  0  0  0  0  0
   -0.1843    0.9124   -0.3056 C   0  0  0  0  0  0  0  0  0  0  0  0
   -1.4112    0.4211    0.1217 C   0  0  0  0  0  0  0  0  0  0  0  0
   -3.3865    2.8389   -1.0571 H   0  0  0  0  0  0  0  0  0  0  0  0
   -1.2558    3.7449   -1.8721 H   0  0  0  0  0  0  0  0  0  0  0  0
    0.7426    0.3891   -0.1100 H   0  0  0  0  0  0  0  0  0  0  0  0
   -1.4810   -0.5155    0.6628 H   0  0  0  0  0  0  0  0  0  0  0  0
   -6.1076    5.4723    1.1058 C   0  0  0  0  0  0  0  0  0  0  0  0
   -6.0287    6.8133    0.7379 C   0  0  0  0  0  0  0  0  0  0  0  0
   -6.3798    7.2337   -0.5542 C   0  0  0  0  0  0  0  0  0  0  0  0
   -6.8137    6.2714   -1.4783 C   0  0  0  0  0  0  0  0  0  0  0  0
   -6.8995    4.9251   -1.1305 C   0  0  0  0  0  0  0  0  0  0  0  0
   -6.5400    4.5385    0.1620 C   0  0  0  0  0  0  0  0  0  0  0  0
   -5.8501    5.1488    2.1081 H   0  0  0  0  0  0  0  0  0  0  0  0
   -5.6943    7.5471    1.4661 H   0  0  0  0  0  0  0  0  0  0  0  0
   -7.0938    6.5819   -2.4811 H   0  0  0  0  0  0  0  0  0  0  0  0
   -7.2499    4.1824   -1.8386 H   0  0  0  0  0  0  0  0  0  0  0  0
   -6.6548    2.8193    0.6221 S   0  0  0  0  0  0  0  0  0  0  0  0
   -6.7993    2.7074    2.0706 O   0  0  0  0  0  0  0  0  0  0  0  0
   -5.0981    2.4077    0.2162 O   0  0  0  0  0  0  0  0  0  0  0  0
   -7.5696    2.1313   -0.2843 O   0  0  0  0  0  0  0  0  0  0  0  0
   -6.3255    8.6944   -0.9305 C   0  0  0  0  0  0  0  0  0  0  0  0
   -7.2765    9.1915   -0.7006 H   0  0  0  0  0  0  0  0  0  0  0  0
   -5.5422    9.2218   -0.3791 H   0  0  0  0  0  0  0  0  0  0  0  0
   -6.1402    8.8263   -2.0004 H   0  0  0  0  0  0  0  0  0  0  0  0
  1 11  1  0  0  0  0
  1  2  1  0  0  0  0
  2  3  1  0  0  0  0
  4  1  2  0  0  0  0
  5  6  2  0  0  0  0
  5  4  1  0  0  0  0
  6 10  1  0  0  0  0
  7  9  2  0  0  0  0
  7  6  1  0  0  0  0
  8  7  2  0  0  0  0
 10 14  1  0  0  0  0
 10 11  2  0  0  0  0
 11 15  1  0  0  0  0
 12  4  1  0  0  0  0
 13  5  1  0  0  0  0
 16 22  1  0  0  0  0
 17 16  1  0  0  0  0
 17 23  1  0  0  0  0
 18 17  2  0  0  0  0
 19 20  2  0  0  0  0
 19 18  1  0  0  0  0
 20 21  1  0  0  0  0
 21 26  1  0  0  0  0
 21 16  2  0  0  0  0
 24 19  1  0  0  0  0
 25 20  1  0  0  0  0
 26 27  2  0  0  0  0
 28  3  1  0  0  0  0
 28 26  1  0  0  0  0
 29 26  2  0  0  0  0
 30 31  1  0  0  0  0
 30 18  1  0  0  0  0
 30 32  1  0  0  0  0
 33 30  1  0  0  0  0
M  RAD  2   2   2   3   2
M  END
