Coordinates from ORCA-job 4-NO2PhN2+~TsO-_B3LYPG-6-31G_dp-CH-Scan-d09-49-n800
 OpenBabel11261919023D

 33 34  0  0  0  0  0  0  0  0999 V2000
   -2.5920    1.1326   -0.1561 C   0  0  0  0  0  0  0  0  0  0  0  0
   -3.7632    0.4916    0.3178 N   0  0  0  0  0  0  0  0  0  0  0  0
   -4.8867    0.8609    0.5191 N   0  0  0  0  0  0  0  0  0  0  0  0
   -2.5590    2.3082   -0.9284 C   0  0  0  0  0  0  0  0  0  0  0  0
   -1.3287    2.7904   -1.3640 C   0  0  0  0  0  0  0  0  0  0  0  0
   -0.1643    2.1087   -1.0161 C   0  0  0  0  0  0  0  0  0  0  0  0
    1.1348    2.6406   -1.4742 N   0  0  0  0  0  0  0  0  0  0  0  0
    1.1202    3.6707   -2.1441 O   0  0  0  0  0  0  0  0  0  0  0  0
    2.1446    2.0175   -1.1545 O   0  0  0  0  0  0  0  0  0  0  0  0
   -0.1805    0.9402   -0.2579 C   0  0  0  0  0  0  0  0  0  0  0  0
   -1.4093    0.4440    0.1579 C   0  0  0  0  0  0  0  0  0  0  0  0
   -3.4395    2.8055   -1.1719 H   0  0  0  0  0  0  0  0  0  0  0  0
   -1.2583    3.6904   -1.9616 H   0  0  0  0  0  0  0  0  0  0  0  0
    0.7497    0.4406   -0.0204 H   0  0  0  0  0  0  0  0  0  0  0  0
   -1.4772   -0.4738    0.7308 H   0  0  0  0  0  0  0  0  0  0  0  0
   -6.0934    5.4676    1.1069 C   0  0  0  0  0  0  0  0  0  0  0  0
   -6.0147    6.8097    0.7437 C   0  0  0  0  0  0  0  0  0  0  0  0
   -6.3777    7.2364   -0.5431 C   0  0  0  0  0  0  0  0  0  0  0  0
   -6.8233    6.2791   -1.4668 C   0  0  0  0  0  0  0  0  0  0  0  0
   -6.9091    4.9316   -1.1236 C   0  0  0  0  0  0  0  0  0  0  0  0
   -6.5377    4.5387    0.1637 C   0  0  0  0  0  0  0  0  0  0  0  0
   -5.8268    5.1393    2.1053 H   0  0  0  0  0  0  0  0  0  0  0  0
   -5.6712    7.5397    1.4715 H   0  0  0  0  0  0  0  0  0  0  0  0
   -7.1125    6.5944   -2.4654 H   0  0  0  0  0  0  0  0  0  0  0  0
   -7.2686    4.1926   -1.8311 H   0  0  0  0  0  0  0  0  0  0  0  0
   -6.6526    2.8178    0.6175 S   0  0  0  0  0  0  0  0  0  0  0  0
   -6.7879    2.7001    2.0665 O   0  0  0  0  0  0  0  0  0  0  0  0
   -5.0996    2.4050    0.2000 O   0  0  0  0  0  0  0  0  0  0  0  0
   -7.5749    2.1355   -0.2856 O   0  0  0  0  0  0  0  0  0  0  0  0
   -6.3231    8.6985   -0.9137 C   0  0  0  0  0  0  0  0  0  0  0  0
   -7.2668    9.1994   -0.6627 H   0  0  0  0  0  0  0  0  0  0  0  0
   -5.5265    9.2194   -0.3753 H   0  0  0  0  0  0  0  0  0  0  0  0
   -6.1581    8.8345   -1.9864 H   0  0  0  0  0  0  0  0  0  0  0  0
  1 11  1  0  0  0  0
  1  2  1  0  0  0  0
  2  3  1  0  0  0  0
  4  1  2  0  0  0  0
  5  6  2  0  0  0  0
  5  4  1  0  0  0  0
  6 10  1  0  0  0  0
  7  9  2  0  0  0  0
  7  6  1  0  0  0  0
  8  7  2  0  0  0  0
 10 14  1  0  0  0  0
 10 11  2  0  0  0  0
 11 15  1  0  0  0  0
 12  4  1  0  0  0  0
 13  5  1  0  0  0  0
 16 22  1  0  0  0  0
 17 16  1  0  0  0  0
 17 23  1  0  0  0  0
 18 17  2  0  0  0  0
 19 20  2  0  0  0  0
 19 18  1  0  0  0  0
 20 21  1  0  0  0  0
 21 26  1  0  0  0  0
 21 16  2  0  0  0  0
 24 19  1  0  0  0  0
 25 20  1  0  0  0  0
 26 27  2  0  0  0  0
 28  3  1  0  0  0  0
 28 26  1  0  0  0  0
 29 26  2  0  0  0  0
 30 31  1  0  0  0  0
 30 18  1  0  0  0  0
 30 32  1  0  0  0  0
 33 30  1  0  0  0  0
M  RAD  2   2   2   3   2
M  END
