Coordinates from ORCA-job 4-NO2PhN2+~TsO-_B3LYPG-6-31G_dp-CH-Scan-d09-49-n800
 OpenBabel11261919023D

 33 33  0  0  0  0  0  0  0  0999 V2000
   -2.2815    1.2061   -0.2808 C   0  0  0  0  0  0  0  0  0  0  0  0
   -3.5322    0.7259    0.1617 N   0  0  0  0  0  0  0  0  0  0  0  0
   -4.5340    0.3790    0.5027 N   0  0  0  0  0  0  0  0  0  0  0  0
   -2.3431    2.3758   -1.0383 C   0  0  0  0  0  0  0  0  0  0  0  0
   -1.0382    2.7725   -1.4407 C   0  0  0  0  0  0  0  0  0  0  0  0
    0.0931    2.0406   -1.1041 C   0  0  0  0  0  0  0  0  0  0  0  0
    1.4244    2.5079   -1.5674 N   0  0  0  0  0  0  0  0  0  0  0  0
    1.4664    3.5255   -2.2539 O   0  0  0  0  0  0  0  0  0  0  0  0
    2.4073    1.8466   -1.2330 O   0  0  0  0  0  0  0  0  0  0  0  0
    0.0608    0.8623   -0.3323 C   0  0  0  0  0  0  0  0  0  0  0  0
   -1.1676    0.4168    0.1037 C   0  0  0  0  0  0  0  0  0  0  0  0
   -5.1471    4.2325   -1.0532 H   0  0  0  0  0  0  0  0  0  0  0  0
   -0.8924    3.6717   -2.0328 H   0  0  0  0  0  0  0  0  0  0  0  0
    0.9808    0.3433   -0.1004 H   0  0  0  0  0  0  0  0  0  0  0  0
   -1.2691   -0.4815    0.7058 H   0  0  0  0  0  0  0  0  0  0  0  0
   -6.9794    5.5936    1.1678 C   0  0  0  0  0  0  0  0  0  0  0  0
   -6.8612    6.8745    0.6389 C   0  0  0  0  0  0  0  0  0  0  0  0
   -6.4073    7.1522   -0.6902 C   0  0  0  0  0  0  0  0  0  0  0  0
   -6.0775    6.0840   -1.4778 C   0  0  0  0  0  0  0  0  0  0  0  0
   -6.1543    4.6960   -0.9870 C   0  0  0  0  0  0  0  0  0  0  0  0
   -6.6437    4.4978    0.3832 C   0  0  0  0  0  0  0  0  0  0  0  0
   -7.3553    5.4296    2.1718 H   0  0  0  0  0  0  0  0  0  0  0  0
   -7.1394    7.7204    1.2653 H   0  0  0  0  0  0  0  0  0  0  0  0
   -5.7268    6.2389   -2.4948 H   0  0  0  0  0  0  0  0  0  0  0  0
   -6.7132    4.0319   -1.6681 H   0  0  0  0  0  0  0  0  0  0  0  0
   -6.7380    2.8166    1.0509 S   0  0  0  0  0  0  0  0  0  0  0  0
   -7.8434    2.8769    2.0222 O   0  0  0  0  0  0  0  0  0  0  0  0
   -5.3689    2.7469    1.6369 O   0  0  0  0  0  0  0  0  0  0  0  0
   -6.9414    1.9723   -0.1444 O   0  0  0  0  0  0  0  0  0  0  0  0
   -6.3192    8.5813   -1.1643 C   0  0  0  0  0  0  0  0  0  0  0  0
   -7.2957    9.0751   -1.1106 H   0  0  0  0  0  0  0  0  0  0  0  0
   -5.6276    9.1593   -0.5419 H   0  0  0  0  0  0  0  0  0  0  0  0
   -5.9690    8.6354   -2.1973 H   0  0  0  0  0  0  0  0  0  0  0  0
  1 11  1  0  0  0  0
  1  2  1  0  0  0  0
  2  3  1  0  0  0  0
  4  1  2  0  0  0  0
  5  6  2  0  0  0  0
  5  4  1  0  0  0  0
  6 10  1  0  0  0  0
  7  9  2  0  0  0  0
  7  6  1  0  0  0  0
  8  7  2  0  0  0  0
 10 14  1  0  0  0  0
 10 11  2  0  0  0  0
 11 15  1  0  0  0  0
 12 20  1  0  0  0  0
 13  5  1  0  0  0  0
 16 22  1  0  0  0  0
 17 16  1  0  0  0  0
 17 23  1  0  0  0  0
 18 17  1  0  0  0  0
 19 20  1  0  0  0  0
 19 18  2  0  0  0  0
 20 21  1  0  0  0  0
 21 26  1  0  0  0  0
 21 16  2  0  0  0  0
 24 19  1  0  0  0  0
 25 20  1  0  0  0  0
 26 28  2  0  0  0  0
 26 27  1  0  0  0  0
 29 26  2  0  0  0  0
 30 31  1  0  0  0  0
 30 18  1  0  0  0  0
 30 32  1  0  0  0  0
 33 30  1  0  0  0  0
M  RAD  5   2   2   3   3   4   2  17   2  27   2
M  END
