Coordinates from ORCA-job 4-NO2PhN2+~TsO-_B3LYPG-6-31G_dp-CH-Scan-d09-49-n800
 OpenBabel11261919023D

 33 33  0  0  0  0  0  0  0  0999 V2000
   -2.8084    1.0753   -0.2836 C   0  0  0  0  0  0  0  0  0  0  0  0
   -3.9064    0.2575    0.1265 N   0  0  0  0  0  0  0  0  0  0  0  0
   -5.0181    0.6880    0.3684 N   0  0  0  0  0  0  0  0  0  0  0  0
   -2.6289    1.4729   -1.5943 C   0  0  0  0  0  0  0  0  0  0  0  0
   -1.5460    2.1674   -2.0682 C   0  0  0  0  0  0  0  0  0  0  0  0
   -0.5590    2.4687   -1.1204 C   0  0  0  0  0  0  0  0  0  0  0  0
    0.6332    3.2138   -1.5583 N   0  0  0  0  0  0  0  0  0  0  0  0
    0.6960    3.5377   -2.7427 O   0  0  0  0  0  0  0  0  0  0  0  0
    1.4871    3.4652   -0.7099 O   0  0  0  0  0  0  0  0  0  0  0  0
   -0.6669    2.0841    0.2155 C   0  0  0  0  0  0  0  0  0  0  0  0
   -1.7891    1.3748    0.6349 C   0  0  0  0  0  0  0  0  0  0  0  0
   -4.1978    0.9297   -2.9470 H   0  0  0  0  0  0  0  0  0  0  0  0
   -1.4309    2.4760   -3.0986 H   0  0  0  0  0  0  0  0  0  0  0  0
    0.1278    2.3390    0.9049 H   0  0  0  0  0  0  0  0  0  0  0  0
   -1.8907    1.0538    1.6664 H   0  0  0  0  0  0  0  0  0  0  0  0
   -5.9759    5.2409    1.2542 C   0  0  0  0  0  0  0  0  0  0  0  0
   -5.7508    6.5847    0.9657 C   0  0  0  0  0  0  0  0  0  0  0  0
   -5.9210    7.0870   -0.3330 C   0  0  0  0  0  0  0  0  0  0  0  0
   -6.3255    6.2051   -1.3476 C   0  0  0  0  0  0  0  0  0  0  0  0
   -6.5568    4.8586   -1.0820 C   0  0  0  0  0  0  0  0  0  0  0  0
   -6.3740    4.3906    0.2213 C   0  0  0  0  0  0  0  0  0  0  0  0
   -5.8542    4.8537    2.2597 H   0  0  0  0  0  0  0  0  0  0  0  0
   -5.4401    7.2556    1.7615 H   0  0  0  0  0  0  0  0  0  0  0  0
   -6.4645    6.5797   -2.3578 H   0  0  0  0  0  0  0  0  0  0  0  0
   -6.8801    4.1793   -1.8627 H   0  0  0  0  0  0  0  0  0  0  0  0
   -6.6727    2.6748    0.5759 S   0  0  0  0  0  0  0  0  0  0  0  0
   -6.8812    2.4841    2.0057 O   0  0  0  0  0  0  0  0  0  0  0  0
   -5.0952    2.1473    0.2107 O   0  0  0  0  0  0  0  0  0  0  0  0
   -7.5719    2.1022   -0.4170 O   0  0  0  0  0  0  0  0  0  0  0  0
   -5.7043    8.5507   -0.6292 C   0  0  0  0  0  0  0  0  0  0  0  0
   -6.6516    9.1015   -0.5799 H   0  0  0  0  0  0  0  0  0  0  0  0
   -5.0209    9.0091    0.0910 H   0  0  0  0  0  0  0  0  0  0  0  0
   -5.2949    8.6991   -1.6327 H   0  0  0  0  0  0  0  0  0  0  0  0
  1  2  1  0  0  0  0
  1 11  2  0  0  0  0
  2  3  1  0  0  0  0
  4  1  1  0  0  0  0
  5  4  2  0  0  0  0
  5  6  1  0  0  0  0
  6 10  2  0  0  0  0
  7  6  1  0  0  0  0
  7  9  2  0  0  0  0
  8  7  2  0  0  0  0
 10 11  1  0  0  0  0
 10 14  1  0  0  0  0
 11 15  1  0  0  0  0
 13  5  1  0  0  0  0
 16 22  1  0  0  0  0
 17 16  1  0  0  0  0
 17 23  1  0  0  0  0
 18 17  2  0  0  0  0
 19 20  2  0  0  0  0
 19 18  1  0  0  0  0
 20 21  1  0  0  0  0
 21 26  1  0  0  0  0
 21 16  2  0  0  0  0
 24 19  1  0  0  0  0
 25 20  1  0  0  0  0
 26 27  2  0  0  0  0
 28  3  1  0  0  0  0
 28 26  1  0  0  0  0
 29 26  2  0  0  0  0
 30 31  1  0  0  0  0
 30 18  1  0  0  0  0
 30 32  1  0  0  0  0
 33 30  1  0  0  0  0
M  RAD  4   2   2   3   2   4   2  12   2
M  END
