Coordinates from ORCA-job 4-NO2PhN2+~TsO-_B3LYPG-6-31G_dp-CH-Scan-d09-49-n800
 OpenBabel11261919023D

 33 33  0  0  0  0  0  0  0  0999 V2000
   -2.7770    1.0959   -0.2267 C   0  0  0  0  0  0  0  0  0  0  0  0
   -3.8733    0.2762    0.1859 N   0  0  0  0  0  0  0  0  0  0  0  0
   -4.9828    0.7084    0.4504 N   0  0  0  0  0  0  0  0  0  0  0  0
   -2.7052    1.7582   -1.4309 C   0  0  0  0  0  0  0  0  0  0  0  0
   -1.6466    2.4673   -1.9184 C   0  0  0  0  0  0  0  0  0  0  0  0
   -0.5223    2.4921   -1.0767 C   0  0  0  0  0  0  0  0  0  0  0  0
    0.6709    3.2344   -1.5226 N   0  0  0  0  0  0  0  0  0  0  0  0
    0.6105    3.8017   -2.6112 O   0  0  0  0  0  0  0  0  0  0  0  0
    1.6455    3.2375   -0.7735 O   0  0  0  0  0  0  0  0  0  0  0  0
   -0.4975    1.8341    0.1526 C   0  0  0  0  0  0  0  0  0  0  0  0
   -1.6178    1.1220    0.5719 C   0  0  0  0  0  0  0  0  0  0  0  0
   -4.9666    1.5315   -3.0790 H   0  0  0  0  0  0  0  0  0  0  0  0
   -1.6311    2.9786   -2.8727 H   0  0  0  0  0  0  0  0  0  0  0  0
    0.3988    1.8798    0.7577 H   0  0  0  0  0  0  0  0  0  0  0  0
   -1.6202    0.5895    1.5180 H   0  0  0  0  0  0  0  0  0  0  0  0
   -6.1289    5.3009    1.2745 C   0  0  0  0  0  0  0  0  0  0  0  0
   -5.9133    6.6347    0.9342 C   0  0  0  0  0  0  0  0  0  0  0  0
   -5.9316    7.0544   -0.4038 C   0  0  0  0  0  0  0  0  0  0  0  0
   -6.1711    6.0998   -1.4053 C   0  0  0  0  0  0  0  0  0  0  0  0
   -6.3924    4.7631   -1.0890 C   0  0  0  0  0  0  0  0  0  0  0  0
   -6.3648    4.3790    0.2544 C   0  0  0  0  0  0  0  0  0  0  0  0
   -6.1218    4.9749    2.3088 H   0  0  0  0  0  0  0  0  0  0  0  0
   -5.7285    7.3614    1.7203 H   0  0  0  0  0  0  0  0  0  0  0  0
   -6.1870    6.4098   -2.4466 H   0  0  0  0  0  0  0  0  0  0  0  0
   -6.5835    4.0275   -1.8625 H   0  0  0  0  0  0  0  0  0  0  0  0
   -6.6552    2.6773    0.6732 S   0  0  0  0  0  0  0  0  0  0  0  0
   -6.8855    2.5410    2.1056 O   0  0  0  0  0  0  0  0  0  0  0  0
   -5.0584    2.1569    0.3527 O   0  0  0  0  0  0  0  0  0  0  0  0
   -7.5249    2.0497   -0.3113 O   0  0  0  0  0  0  0  0  0  0  0  0
   -5.7270    8.5060   -0.7615 C   0  0  0  0  0  0  0  0  0  0  0  0
   -6.6906    9.0151   -0.8838 H   0  0  0  0  0  0  0  0  0  0  0  0
   -5.1726    9.0374    0.0171 H   0  0  0  0  0  0  0  0  0  0  0  0
   -5.1817    8.6116   -1.7040 H   0  0  0  0  0  0  0  0  0  0  0  0
  1  2  1  0  0  0  0
  1 11  2  0  0  0  0
  2  3  1  0  0  0  0
  4  1  1  0  0  0  0
  5  4  2  0  0  0  0
  5  6  1  0  0  0  0
  6 10  2  0  0  0  0
  7  6  1  0  0  0  0
  7  9  2  0  0  0  0
  8  7  2  0  0  0  0
 10 11  1  0  0  0  0
 10 14  1  0  0  0  0
 11 15  1  0  0  0  0
 13  5  1  0  0  0  0
 16 22  1  0  0  0  0
 17 16  1  0  0  0  0
 17 23  1  0  0  0  0
 18 17  2  0  0  0  0
 19 20  2  0  0  0  0
 19 18  1  0  0  0  0
 20 21  1  0  0  0  0
 21 26  1  0  0  0  0
 21 16  2  0  0  0  0
 24 19  1  0  0  0  0
 25 20  1  0  0  0  0
 26 27  2  0  0  0  0
 28  3  1  0  0  0  0
 28 26  1  0  0  0  0
 29 26  2  0  0  0  0
 30 18  1  0  0  0  0
 30 32  1  0  0  0  0
 31 30  1  0  0  0  0
 33 30  1  0  0  0  0
M  RAD  4   2   2   3   2   4   2  12   2
M  END
