Coordinates from ORCA-job 4-NO2PhN2+~TsO-_B3LYPG-6-31G_dp-CH-Scan-d09-49-n800
 OpenBabel11261919023D

 33 33  0  0  0  0  0  0  0  0999 V2000
   -2.8081    1.0750   -0.2826 C   0  0  0  0  0  0  0  0  0  0  0  0
   -3.9059    0.2585    0.1299 N   0  0  0  0  0  0  0  0  0  0  0  0
   -5.0179    0.6883    0.3708 N   0  0  0  0  0  0  0  0  0  0  0  0
   -2.6321    1.4690   -1.5957 C   0  0  0  0  0  0  0  0  0  0  0  0
   -1.5474    2.1624   -2.0694 C   0  0  0  0  0  0  0  0  0  0  0  0
   -0.5598    2.4656   -1.1233 C   0  0  0  0  0  0  0  0  0  0  0  0
    0.6320    3.2097   -1.5634 N   0  0  0  0  0  0  0  0  0  0  0  0
    0.6954    3.5291   -2.7491 O   0  0  0  0  0  0  0  0  0  0  0  0
    1.4880    3.4604   -0.7168 O   0  0  0  0  0  0  0  0  0  0  0  0
   -0.6665    2.0838    0.2135 C   0  0  0  0  0  0  0  0  0  0  0  0
   -1.7886    1.3755    0.6348 C   0  0  0  0  0  0  0  0  0  0  0  0
   -4.1612    0.9400   -2.9131 H   0  0  0  0  0  0  0  0  0  0  0  0
   -1.4326    2.4690   -3.1003 H   0  0  0  0  0  0  0  0  0  0  0  0
    0.1288    2.3399    0.9018 H   0  0  0  0  0  0  0  0  0  0  0  0
   -1.8894    1.0562    1.6668 H   0  0  0  0  0  0  0  0  0  0  0  0
   -5.9780    5.2404    1.2530 C   0  0  0  0  0  0  0  0  0  0  0  0
   -5.7531    6.5847    0.9663 C   0  0  0  0  0  0  0  0  0  0  0  0
   -5.9229    7.0885   -0.3319 C   0  0  0  0  0  0  0  0  0  0  0  0
   -6.3269    6.2079   -1.3476 C   0  0  0  0  0  0  0  0  0  0  0  0
   -6.5579    4.8609   -1.0838 C   0  0  0  0  0  0  0  0  0  0  0  0
   -6.3756    4.3913    0.2189 C   0  0  0  0  0  0  0  0  0  0  0  0
   -5.8567    4.8521    2.2581 H   0  0  0  0  0  0  0  0  0  0  0  0
   -5.4429    7.2546    1.7630 H   0  0  0  0  0  0  0  0  0  0  0  0
   -6.4656    6.5837   -2.3574 H   0  0  0  0  0  0  0  0  0  0  0  0
   -6.8810    4.1826   -1.8654 H   0  0  0  0  0  0  0  0  0  0  0  0
   -6.6740    2.6749    0.5713 S   0  0  0  0  0  0  0  0  0  0  0  0
   -6.8864    2.4832    2.0004 O   0  0  0  0  0  0  0  0  0  0  0  0
   -5.0960    2.1485    0.2096 O   0  0  0  0  0  0  0  0  0  0  0  0
   -7.5706    2.1030   -0.4244 O   0  0  0  0  0  0  0  0  0  0  0  0
   -5.7065    8.5527   -0.6260 C   0  0  0  0  0  0  0  0  0  0  0  0
   -6.6532    9.1040   -0.5722 H   0  0  0  0  0  0  0  0  0  0  0  0
   -5.0203    9.0093    0.0927 H   0  0  0  0  0  0  0  0  0  0  0  0
   -5.3006    8.7029   -1.6306 H   0  0  0  0  0  0  0  0  0  0  0  0
  1  2  1  0  0  0  0
  1 11  2  0  0  0  0
  2  3  1  0  0  0  0
  4  1  1  0  0  0  0
  5  4  2  0  0  0  0
  5  6  1  0  0  0  0
  6 10  2  0  0  0  0
  7  6  1  0  0  0  0
  7  9  2  0  0  0  0
  8  7  2  0  0  0  0
 10 11  1  0  0  0  0
 10 14  1  0  0  0  0
 11 15  1  0  0  0  0
 13  5  1  0  0  0  0
 16 22  1  0  0  0  0
 17 16  1  0  0  0  0
 17 23  1  0  0  0  0
 18 17  2  0  0  0  0
 19 20  2  0  0  0  0
 19 18  1  0  0  0  0
 20 21  1  0  0  0  0
 21 26  1  0  0  0  0
 21 16  2  0  0  0  0
 24 19  1  0  0  0  0
 25 20  1  0  0  0  0
 26 27  2  0  0  0  0
 28  3  1  0  0  0  0
 28 26  1  0  0  0  0
 29 26  2  0  0  0  0
 30 31  1  0  0  0  0
 30 18  1  0  0  0  0
 30 32  1  0  0  0  0
 33 30  1  0  0  0  0
M  RAD  4   2   2   3   2   4   2  12   2
M  END
