Coordinates from ORCA-job 4-NO2PhN2+~TsO-_B3LYPG-6-31G_dp-CH-Scan-d09-49-n800
 OpenBabel11261919023D

 33 33  0  0  0  0  0  0  0  0999 V2000
   -2.9774    0.8579   -0.9758 C   0  0  0  0  0  0  0  0  0  0  0  0
   -3.9479   -0.1584   -0.8056 N   0  0  0  0  0  0  0  0  0  0  0  0
   -4.6952   -0.9826   -0.7701 N   0  0  0  0  0  0  0  0  0  0  0  0
   -2.4786    0.8855   -2.2767 C   0  0  0  0  0  0  0  0  0  0  0  0
   -1.5183    1.9364   -2.3954 C   0  0  0  0  0  0  0  0  0  0  0  0
   -1.1774    2.7495   -1.3229 C   0  0  0  0  0  0  0  0  0  0  0  0
   -0.2030    3.8465   -1.5260 N   0  0  0  0  0  0  0  0  0  0  0  0
    0.5082    3.8080   -2.5260 O   0  0  0  0  0  0  0  0  0  0  0  0
   -0.1858    4.7502   -0.6860 O   0  0  0  0  0  0  0  0  0  0  0  0
   -1.7424    2.6277   -0.0331 C   0  0  0  0  0  0  0  0  0  0  0  0
   -2.6877    1.6417    0.1682 C   0  0  0  0  0  0  0  0  0  0  0  0
   -4.0033    3.9371   -0.1900 H   0  0  0  0  0  0  0  0  0  0  0  0
   -1.0316    2.1325   -3.3477 H   0  0  0  0  0  0  0  0  0  0  0  0
   -1.4286    3.2935    0.7603 H   0  0  0  0  0  0  0  0  0  0  0  0
   -3.1969    1.5175    1.1191 H   0  0  0  0  0  0  0  0  0  0  0  0
   -6.6035    5.2359    1.1288 C   0  0  0  0  0  0  0  0  0  0  0  0
   -6.3546    6.5107    0.6278 C   0  0  0  0  0  0  0  0  0  0  0  0
   -5.4432    6.7909   -0.4394 C   0  0  0  0  0  0  0  0  0  0  0  0
   -4.7889    5.7271   -0.9979 C   0  0  0  0  0  0  0  0  0  0  0  0
   -4.9834    4.3477   -0.5167 C   0  0  0  0  0  0  0  0  0  0  0  0
   -5.9401    4.1469    0.5806 C   0  0  0  0  0  0  0  0  0  0  0  0
   -7.3198    5.0705    1.9269 H   0  0  0  0  0  0  0  0  0  0  0  0
   -6.8897    7.3506    1.0674 H   0  0  0  0  0  0  0  0  0  0  0  0
   -4.0865    5.8805   -1.8134 H   0  0  0  0  0  0  0  0  0  0  0  0
   -5.2186    3.6482   -1.3376 H   0  0  0  0  0  0  0  0  0  0  0  0
   -6.1733    2.4834    1.2646 S   0  0  0  0  0  0  0  0  0  0  0  0
   -7.5116    2.5211    1.8702 O   0  0  0  0  0  0  0  0  0  0  0  0
   -5.0232    2.4891    2.2118 O   0  0  0  0  0  0  0  0  0  0  0  0
   -5.9958    1.5949    0.0932 O   0  0  0  0  0  0  0  0  0  0  0  0
   -5.2457    8.2123   -0.9026 C   0  0  0  0  0  0  0  0  0  0  0  0
   -6.1912    8.6523   -1.2372 H   0  0  0  0  0  0  0  0  0  0  0  0
   -4.8631    8.8395   -0.0901 H   0  0  0  0  0  0  0  0  0  0  0  0
   -4.5355    8.2633   -1.7310 H   0  0  0  0  0  0  0  0  0  0  0  0
  1  2  1  0  0  0  0
  1 11  2  0  0  0  0
  2  3  1  0  0  0  0
  4  1  1  0  0  0  0
  5  4  2  0  0  0  0
  5  6  1  0  0  0  0
  6 10  2  0  0  0  0
  7  6  1  0  0  0  0
  7  9  2  0  0  0  0
  8  7  2  0  0  0  0
 10 11  1  0  0  0  0
 10 14  1  0  0  0  0
 11 15  1  0  0  0  0
 13  5  1  0  0  0  0
 16 22  1  0  0  0  0
 17 23  1  0  0  0  0
 17 16  1  0  0  0  0
 18 17  1  0  0  0  0
 19 20  1  0  0  0  0
 19 18  2  0  0  0  0
 20 12  1  0  0  0  0
 20 21  1  0  0  0  0
 21 16  2  0  0  0  0
 21 26  1  0  0  0  0
 24 19  1  0  0  0  0
 25 20  1  0  0  0  0
 26 27  2  0  0  0  0
 26 28  1  0  0  0  0
 29 26  2  0  0  0  0
 30 18  1  0  0  0  0
 30 32  1  0  0  0  0
 31 30  1  0  0  0  0
 33 30  1  0  0  0  0
M  RAD  5   2   2   3   3   4   2  17   2  28   2
M  END
