Coordinates from ORCA-job 4-NO2PhN2+~TsO-_B3LYPG-6-31G_dp-CH-Scan-d09-49-n800
 OpenBabel11261919023D

 33 34  0  0  0  0  0  0  0  0999 V2000
   -2.5892    1.1406   -0.1348 C   0  0  0  0  0  0  0  0  0  0  0  0
   -3.7558    0.5014    0.3522 N   0  0  0  0  0  0  0  0  0  0  0  0
   -4.8793    0.8706    0.5569 N   0  0  0  0  0  0  0  0  0  0  0  0
   -2.5555    2.3531   -0.8495 C   0  0  0  0  0  0  0  0  0  0  0  0
   -1.3265    2.8304   -1.2961 C   0  0  0  0  0  0  0  0  0  0  0  0
   -0.1672    2.1097   -1.0183 C   0  0  0  0  0  0  0  0  0  0  0  0
    1.1289    2.6376   -1.4896 N   0  0  0  0  0  0  0  0  0  0  0  0
    1.1160    3.6984   -2.1101 O   0  0  0  0  0  0  0  0  0  0  0  0
    2.1345    1.9811   -1.2293 O   0  0  0  0  0  0  0  0  0  0  0  0
   -0.1857    0.9063   -0.3170 C   0  0  0  0  0  0  0  0  0  0  0  0
   -1.4121    0.4161    0.1128 C   0  0  0  0  0  0  0  0  0  0  0  0
   -3.3719    2.8449   -1.0303 H   0  0  0  0  0  0  0  0  0  0  0  0
   -1.2547    3.7576   -1.8505 H   0  0  0  0  0  0  0  0  0  0  0  0
    0.7403    0.3777   -0.1312 H   0  0  0  0  0  0  0  0  0  0  0  0
   -1.4826   -0.5248    0.6463 H   0  0  0  0  0  0  0  0  0  0  0  0
   -6.1107    5.4735    1.1056 C   0  0  0  0  0  0  0  0  0  0  0  0
   -6.0317    6.8141    0.7364 C   0  0  0  0  0  0  0  0  0  0  0  0
   -6.3803    7.2330   -0.5568 C   0  0  0  0  0  0  0  0  0  0  0  0
   -6.8117    6.2695   -1.4809 C   0  0  0  0  0  0  0  0  0  0  0  0
   -6.8976    4.9235   -1.1319 C   0  0  0  0  0  0  0  0  0  0  0  0
   -6.5407    4.5385    0.1619 C   0  0  0  0  0  0  0  0  0  0  0  0
   -5.8553    5.1511    2.1088 H   0  0  0  0  0  0  0  0  0  0  0  0
   -5.6993    7.5488    1.4645 H   0  0  0  0  0  0  0  0  0  0  0  0
   -7.0898    6.5787   -2.4846 H   0  0  0  0  0  0  0  0  0  0  0  0
   -7.2461    4.1799   -1.8400 H   0  0  0  0  0  0  0  0  0  0  0  0
   -6.6554    2.8196    0.6236 S   0  0  0  0  0  0  0  0  0  0  0  0
   -6.8012    2.7092    2.0720 O   0  0  0  0  0  0  0  0  0  0  0  0
   -5.0981    2.4082    0.2195 O   0  0  0  0  0  0  0  0  0  0  0  0
   -7.5690    2.1304   -0.2831 O   0  0  0  0  0  0  0  0  0  0  0  0
   -6.3258    8.6932   -0.9346 C   0  0  0  0  0  0  0  0  0  0  0  0
   -7.2784    9.1896   -0.7097 H   0  0  0  0  0  0  0  0  0  0  0  0
   -5.5455    9.2222   -0.3804 H   0  0  0  0  0  0  0  0  0  0  0  0
   -6.1360    8.8241   -2.0039 H   0  0  0  0  0  0  0  0  0  0  0  0
  1 11  1  0  0  0  0
  1  2  1  0  0  0  0
  2  3  1  0  0  0  0
  4  1  2  0  0  0  0
  5  6  2  0  0  0  0
  5  4  1  0  0  0  0
  6 10  1  0  0  0  0
  7  9  2  0  0  0  0
  7  6  1  0  0  0  0
  8  7  2  0  0  0  0
 10 14  1  0  0  0  0
 10 11  2  0  0  0  0
 11 15  1  0  0  0  0
 12  4  1  0  0  0  0
 13  5  1  0  0  0  0
 16 22  1  0  0  0  0
 17 16  1  0  0  0  0
 17 23  1  0  0  0  0
 18 17  2  0  0  0  0
 19 20  2  0  0  0  0
 19 18  1  0  0  0  0
 20 21  1  0  0  0  0
 21 26  1  0  0  0  0
 21 16  2  0  0  0  0
 24 19  1  0  0  0  0
 25 20  1  0  0  0  0
 26 27  2  0  0  0  0
 28  3  1  0  0  0  0
 28 26  1  0  0  0  0
 29 26  2  0  0  0  0
 30 31  1  0  0  0  0
 30 18  1  0  0  0  0
 30 32  1  0  0  0  0
 33 30  1  0  0  0  0
M  RAD  2   2   2   3   2
M  END
