Coordinates from ORCA-job 4-NO2PhN2+~TsO-_B3LYPG-6-31G_dp-CH-Scan-d09-49-n800
 OpenBabel11261919033D

 33 33  0  0  0  0  0  0  0  0999 V2000
   -2.8749    0.7608   -0.9708 C   0  0  0  0  0  0  0  0  0  0  0  0
   -3.9065   -0.1771   -0.7412 N   0  0  0  0  0  0  0  0  0  0  0  0
   -4.7020   -0.9509   -0.6503 N   0  0  0  0  0  0  0  0  0  0  0  0
   -2.2483    0.5559   -2.1993 C   0  0  0  0  0  0  0  0  0  0  0  0
   -1.2241    1.5322   -2.3844 C   0  0  0  0  0  0  0  0  0  0  0  0
   -0.9257    2.4790   -1.4134 C   0  0  0  0  0  0  0  0  0  0  0  0
    0.1469    3.4678   -1.6702 N   0  0  0  0  0  0  0  0  0  0  0  0
    0.9274    3.2441   -2.5914 O   0  0  0  0  0  0  0  0  0  0  0  0
    0.1764    4.4717   -0.9535 O   0  0  0  0  0  0  0  0  0  0  0  0
   -1.6163    2.5900   -0.1857 C   0  0  0  0  0  0  0  0  0  0  0  0
   -2.6436    1.7032    0.0632 C   0  0  0  0  0  0  0  0  0  0  0  0
   -4.0632    4.1580   -0.1939 H   0  0  0  0  0  0  0  0  0  0  0  0
   -0.6478    1.5582   -3.3060 H   0  0  0  0  0  0  0  0  0  0  0  0
   -1.3271    3.3499    0.5288 H   0  0  0  0  0  0  0  0  0  0  0  0
   -3.2374    1.7433    0.9728 H   0  0  0  0  0  0  0  0  0  0  0  0
   -6.7499    5.2756    1.1550 C   0  0  0  0  0  0  0  0  0  0  0  0
   -6.5668    6.5816    0.7083 C   0  0  0  0  0  0  0  0  0  0  0  0
   -5.6546    6.9553   -0.3299 C   0  0  0  0  0  0  0  0  0  0  0  0
   -4.9292    5.9547   -0.9157 C   0  0  0  0  0  0  0  0  0  0  0  0
   -5.0564    4.5454   -0.4977 C   0  0  0  0  0  0  0  0  0  0  0  0
   -6.0150    4.2495    0.5788 C   0  0  0  0  0  0  0  0  0  0  0  0
   -7.4681    5.0376    1.9329 H   0  0  0  0  0  0  0  0  0  0  0  0
   -7.1570    7.3716    1.1693 H   0  0  0  0  0  0  0  0  0  0  0  0
   -4.2233    6.1808   -1.7113 H   0  0  0  0  0  0  0  0  0  0  0  0
   -5.2727    3.8822   -1.3542 H   0  0  0  0  0  0  0  0  0  0  0  0
   -6.1647    2.5490    1.1880 S   0  0  0  0  0  0  0  0  0  0  0  0
   -7.5005    2.4914    1.7969 O   0  0  0  0  0  0  0  0  0  0  0  0
   -5.0126    2.5696    2.1334 O   0  0  0  0  0  0  0  0  0  0  0  0
   -5.9448    1.7258   -0.0231 O   0  0  0  0  0  0  0  0  0  0  0  0
   -5.5341    8.4032   -0.7335 C   0  0  0  0  0  0  0  0  0  0  0  0
   -6.4977    8.7982   -1.0730 H   0  0  0  0  0  0  0  0  0  0  0  0
   -5.2087    9.0198    0.1114 H   0  0  0  0  0  0  0  0  0  0  0  0
   -4.8113    8.5302   -1.5424 H   0  0  0  0  0  0  0  0  0  0  0  0
  1  2  1  0  0  0  0
  1 11  2  0  0  0  0
  2  3  1  0  0  0  0
  4  1  1  0  0  0  0
  5  4  2  0  0  0  0
  5  6  1  0  0  0  0
  6 10  2  0  0  0  0
  7  6  1  0  0  0  0
  7  9  2  0  0  0  0
  8  7  2  0  0  0  0
 10 11  1  0  0  0  0
 10 14  1  0  0  0  0
 11 15  1  0  0  0  0
 13  5  1  0  0  0  0
 16 22  1  0  0  0  0
 17 16  1  0  0  0  0
 17 23  1  0  0  0  0
 18 17  1  0  0  0  0
 19 20  1  0  0  0  0
 19 18  2  0  0  0  0
 20 12  1  0  0  0  0
 20 21  1  0  0  0  0
 21 16  2  0  0  0  0
 21 26  1  0  0  0  0
 24 19  1  0  0  0  0
 25 20  1  0  0  0  0
 26 27  2  0  0  0  0
 26 28  1  0  0  0  0
 29 26  2  0  0  0  0
 30 18  1  0  0  0  0
 30 32  1  0  0  0  0
 31 30  1  0  0  0  0
 33 30  1  0  0  0  0
M  RAD  5   2   2   3   3   4   2  17   2  28   2
M  END
