Coordinates from ORCA-job 4-NO2PhN2+~TsO-_B3LYPG-6-31G_dp-CH-Scan-d09-49-n800
 OpenBabel11261919023D

 33 33  0  0  0  0  0  0  0  0999 V2000
   -2.2377    1.1813   -0.3063 C   0  0  0  0  0  0  0  0  0  0  0  0
   -3.5012    0.7216    0.1229 N   0  0  0  0  0  0  0  0  0  0  0  0
   -4.5122    0.3893    0.4511 N   0  0  0  0  0  0  0  0  0  0  0  0
   -2.2802    2.3235   -1.1057 C   0  0  0  0  0  0  0  0  0  0  0  0
   -0.9642    2.7012   -1.4924 C   0  0  0  0  0  0  0  0  0  0  0  0
    0.1564    1.9787   -1.1046 C   0  0  0  0  0  0  0  0  0  0  0  0
    1.4997    2.4252   -1.5538 N   0  0  0  0  0  0  0  0  0  0  0  0
    1.5617    3.4204   -2.2710 O   0  0  0  0  0  0  0  0  0  0  0  0
    2.4720    1.7692   -1.1797 O   0  0  0  0  0  0  0  0  0  0  0  0
    0.1029    0.8283   -0.2923 C   0  0  0  0  0  0  0  0  0  0  0  0
   -1.1363    0.4022    0.1316 C   0  0  0  0  0  0  0  0  0  0  0  0
   -5.1929    4.2789   -1.0918 H   0  0  0  0  0  0  0  0  0  0  0  0
   -0.8018    3.5786   -2.1125 H   0  0  0  0  0  0  0  0  0  0  0  0
    1.0157    0.3154   -0.0220 H   0  0  0  0  0  0  0  0  0  0  0  0
   -1.2547   -0.4738    0.7630 H   0  0  0  0  0  0  0  0  0  0  0  0
   -6.9968    5.6114    1.1777 C   0  0  0  0  0  0  0  0  0  0  0  0
   -6.9023    6.8970    0.6558 C   0  0  0  0  0  0  0  0  0  0  0  0
   -6.4711    7.1898   -0.6781 C   0  0  0  0  0  0  0  0  0  0  0  0
   -6.1410    6.1314   -1.4782 C   0  0  0  0  0  0  0  0  0  0  0  0
   -6.1980    4.7382   -0.9976 C   0  0  0  0  0  0  0  0  0  0  0  0
   -6.6596    4.5248    0.3808 C   0  0  0  0  0  0  0  0  0  0  0  0
   -7.3543    5.4357    2.1865 H   0  0  0  0  0  0  0  0  0  0  0  0
   -7.1812    7.7352    1.2921 H   0  0  0  0  0  0  0  0  0  0  0  0
   -5.8070    6.2976   -2.4991 H   0  0  0  0  0  0  0  0  0  0  0  0
   -6.7735    4.0804   -1.6716 H   0  0  0  0  0  0  0  0  0  0  0  0
   -6.7200    2.8386    1.0392 S   0  0  0  0  0  0  0  0  0  0  0  0
   -7.7962    2.8826    2.0436 O   0  0  0  0  0  0  0  0  0  0  0  0
   -5.3330    2.7811    1.5835 O   0  0  0  0  0  0  0  0  0  0  0  0
   -6.9510    2.0008   -0.1551 O   0  0  0  0  0  0  0  0  0  0  0  0
   -6.4057    8.6233   -1.1422 C   0  0  0  0  0  0  0  0  0  0  0  0
   -7.3877    9.1045   -1.0746 H   0  0  0  0  0  0  0  0  0  0  0  0
   -5.7149    9.2053   -0.5227 H   0  0  0  0  0  0  0  0  0  0  0  0
   -6.0674    8.6897   -2.1785 H   0  0  0  0  0  0  0  0  0  0  0  0
  1  2  1  0  0  0  0
  1 11  2  0  0  0  0
  2  3  1  0  0  0  0
  4  1  1  0  0  0  0
  5  4  2  0  0  0  0
  5  6  1  0  0  0  0
  6 10  2  0  0  0  0
  7  9  2  0  0  0  0
  7  6  1  0  0  0  0
  8  7  2  0  0  0  0
 10 14  1  0  0  0  0
 10 11  1  0  0  0  0
 11 15  1  0  0  0  0
 12 20  1  0  0  0  0
 13  5  1  0  0  0  0
 16 22  1  0  0  0  0
 17 16  1  0  0  0  0
 17 23  1  0  0  0  0
 18 17  1  0  0  0  0
 19 20  1  0  0  0  0
 19 18  2  0  0  0  0
 20 21  1  0  0  0  0
 21 26  1  0  0  0  0
 21 16  2  0  0  0  0
 24 19  1  0  0  0  0
 25 20  1  0  0  0  0
 26 28  2  0  0  0  0
 26 27  1  0  0  0  0
 29 26  2  0  0  0  0
 30 31  1  0  0  0  0
 30 18  1  0  0  0  0
 30 32  1  0  0  0  0
 33 30  1  0  0  0  0
M  RAD  5   2   2   3   3   4   2  17   2  27   2
M  END
