Coordinates from ORCA-job 4-NO2PhN2+~TsO-_B3LYPG-6-31G_dp-CH-Scan-d09-49-n800
 OpenBabel11261919023D

 33 33  0  0  0  0  0  0  0  0999 V2000
   -2.7331    1.1367   -0.9226 C   0  0  0  0  0  0  0  0  0  0  0  0
   -3.9612    0.4380   -0.8152 N   0  0  0  0  0  0  0  0  0  0  0  0
   -4.9129   -0.1391   -0.8461 N   0  0  0  0  0  0  0  0  0  0  0  0
   -2.3653    1.3492   -2.2481 C   0  0  0  0  0  0  0  0  0  0  0  0
   -1.1137    2.0206   -2.3105 C   0  0  0  0  0  0  0  0  0  0  0  0
   -0.4092    2.3597   -1.1613 C   0  0  0  0  0  0  0  0  0  0  0  0
    0.8974    3.0531   -1.2917 N   0  0  0  0  0  0  0  0  0  0  0  0
    1.3209    3.2698   -2.4246 O   0  0  0  0  0  0  0  0  0  0  0  0
    1.4778    3.3775   -0.2552 O   0  0  0  0  0  0  0  0  0  0  0  0
   -0.8706    2.1040    0.1467 C   0  0  0  0  0  0  0  0  0  0  0  0
   -2.0881    1.4739    0.2911 C   0  0  0  0  0  0  0  0  0  0  0  0
   -4.8469    3.9822   -1.0429 H   0  0  0  0  0  0  0  0  0  0  0  0
   -0.6730    2.2857   -3.2676 H   0  0  0  0  0  0  0  0  0  0  0  0
   -0.2771    2.4133    0.9963 H   0  0  0  0  0  0  0  0  0  0  0  0
   -2.5399    1.2834    1.2578 H   0  0  0  0  0  0  0  0  0  0  0  0
   -6.5139    5.3383    1.3470 C   0  0  0  0  0  0  0  0  0  0  0  0
   -6.4106    6.6348    0.8449 C   0  0  0  0  0  0  0  0  0  0  0  0
   -6.0136    6.9461   -0.4945 C   0  0  0  0  0  0  0  0  0  0  0  0
   -5.7283    5.8969   -1.3243 C   0  0  0  0  0  0  0  0  0  0  0  0
   -5.8132    4.4925   -0.8743 C   0  0  0  0  0  0  0  0  0  0  0  0
   -6.2201    4.2638    0.5235 C   0  0  0  0  0  0  0  0  0  0  0  0
   -6.8295    5.1464    2.3670 H   0  0  0  0  0  0  0  0  0  0  0  0
   -6.6490    7.4656    1.5070 H   0  0  0  0  0  0  0  0  0  0  0  0
   -5.4235    6.0766   -2.3522 H   0  0  0  0  0  0  0  0  0  0  0  0
   -6.4817    3.9033   -1.5276 H   0  0  0  0  0  0  0  0  0  0  0  0
   -6.2918    2.5607    1.1408 S   0  0  0  0  0  0  0  0  0  0  0  0
   -7.0019    2.6575    2.4239 O   0  0  0  0  0  0  0  0  0  0  0  0
   -4.8273    2.2891    1.2259 O   0  0  0  0  0  0  0  0  0  0  0  0
   -6.9749    1.8459    0.0410 O   0  0  0  0  0  0  0  0  0  0  0  0
   -5.9300    8.3869   -0.9321 C   0  0  0  0  0  0  0  0  0  0  0  0
   -6.9025    8.8830   -0.8398 H   0  0  0  0  0  0  0  0  0  0  0  0
   -5.2197    8.9445   -0.3124 H   0  0  0  0  0  0  0  0  0  0  0  0
   -5.6069    8.4678   -1.9722 H   0  0  0  0  0  0  0  0  0  0  0  0
  1  2  1  0  0  0  0
  1 11  2  0  0  0  0
  3  2  1  0  0  0  0
  4  1  1  0  0  0  0
  5  4  2  0  0  0  0
  5  6  1  0  0  0  0
  6 10  2  0  0  0  0
  7  6  1  0  0  0  0
  7  9  2  0  0  0  0
  8  7  2  0  0  0  0
 10 11  1  0  0  0  0
 10 14  1  0  0  0  0
 11 15  1  0  0  0  0
 12 20  1  0  0  0  0
 13  5  1  0  0  0  0
 16 22  1  0  0  0  0
 17 16  1  0  0  0  0
 17 23  1  0  0  0  0
 18 17  1  0  0  0  0
 19 20  1  0  0  0  0
 19 18  2  0  0  0  0
 20 21  1  0  0  0  0
 21 26  1  0  0  0  0
 21 16  2  0  0  0  0
 24 19  1  0  0  0  0
 25 20  1  0  0  0  0
 26 28  2  0  0  0  0
 26 27  1  0  0  0  0
 29 26  2  0  0  0  0
 30 31  1  0  0  0  0
 30 18  1  0  0  0  0
 30 32  1  0  0  0  0
 33 30  1  0  0  0  0
M  RAD  5   2   2   3   3   4   2  17   2  27   2
M  END
