Coordinates from ORCA-job 4-NO2PhN2+~TsO-_B3LYPG-6-31G_dp-CH-Scan-d09-49-n800
 OpenBabel11261919023D

 33 33  0  0  0  0  0  0  0  0999 V2000
   -2.7883    1.0802   -0.2346 C   0  0  0  0  0  0  0  0  0  0  0  0
   -3.8823    0.2835    0.2218 N   0  0  0  0  0  0  0  0  0  0  0  0
   -5.0018    0.7032    0.4345 N   0  0  0  0  0  0  0  0  0  0  0  0
   -2.6847    1.4831   -1.5609 C   0  0  0  0  0  0  0  0  0  0  0  0
   -1.5849    2.1576   -2.0485 C   0  0  0  0  0  0  0  0  0  0  0  0
   -0.5527    2.4271   -1.1450 C   0  0  0  0  0  0  0  0  0  0  0  0
    0.6352    3.1516   -1.6246 N   0  0  0  0  0  0  0  0  0  0  0  0
    0.6554    3.4885   -2.8073 O   0  0  0  0  0  0  0  0  0  0  0  0
    1.5308    3.3751   -0.8117 O   0  0  0  0  0  0  0  0  0  0  0  0
   -0.6087    2.0286    0.1896 C   0  0  0  0  0  0  0  0  0  0  0  0
   -1.7272    1.3363    0.6444 C   0  0  0  0  0  0  0  0  0  0  0  0
   -3.9465    1.1182   -2.5775 H   0  0  0  0  0  0  0  0  0  0  0  0
   -1.5016    2.4772   -3.0783 H   0  0  0  0  0  0  0  0  0  0  0  0
    0.2210    2.2561    0.8468 H   0  0  0  0  0  0  0  0  0  0  0  0
   -1.7913    0.9986    1.6729 H   0  0  0  0  0  0  0  0  0  0  0  0
   -6.0225    5.2378    1.2311 C   0  0  0  0  0  0  0  0  0  0  0  0
   -5.7995    6.5862    0.9642 C   0  0  0  0  0  0  0  0  0  0  0  0
   -5.9494    7.1047   -0.3308 C   0  0  0  0  0  0  0  0  0  0  0  0
   -6.3313    6.2343   -1.3633 C   0  0  0  0  0  0  0  0  0  0  0  0
   -6.5596    4.8829   -1.1191 C   0  0  0  0  0  0  0  0  0  0  0  0
   -6.3973    4.3984    0.1804 C   0  0  0  0  0  0  0  0  0  0  0  0
   -5.9172    4.8386    2.2338 H   0  0  0  0  0  0  0  0  0  0  0  0
   -5.5064    7.2480    1.7741 H   0  0  0  0  0  0  0  0  0  0  0  0
   -6.4551    6.6215   -2.3708 H   0  0  0  0  0  0  0  0  0  0  0  0
   -6.8665    4.2122   -1.9137 H   0  0  0  0  0  0  0  0  0  0  0  0
   -6.6911    2.6757    0.5082 S   0  0  0  0  0  0  0  0  0  0  0  0
   -6.9638    2.4732    1.9257 O   0  0  0  0  0  0  0  0  0  0  0  0
   -5.1018    2.1668    0.2061 O   0  0  0  0  0  0  0  0  0  0  0  0
   -7.5435    2.1049   -0.5274 O   0  0  0  0  0  0  0  0  0  0  0  0
   -5.7359    8.5737   -0.6024 C   0  0  0  0  0  0  0  0  0  0  0  0
   -6.6790    9.1268   -0.5129 H   0  0  0  0  0  0  0  0  0  0  0  0
   -5.0301    9.0144    0.1073 H   0  0  0  0  0  0  0  0  0  0  0  0
   -5.3556    8.7426   -1.6139 H   0  0  0  0  0  0  0  0  0  0  0  0
  1  2  1  0  0  0  0
  1 11  2  0  0  0  0
  2  3  1  0  0  0  0
  4  1  1  0  0  0  0
  5  4  2  0  0  0  0
  5  6  1  0  0  0  0
  6 10  2  0  0  0  0
  7  6  1  0  0  0  0
  7  9  2  0  0  0  0
  8  7  2  0  0  0  0
 10 11  1  0  0  0  0
 10 14  1  0  0  0  0
 11 15  1  0  0  0  0
 13  5  1  0  0  0  0
 16 22  1  0  0  0  0
 17 16  1  0  0  0  0
 17 23  1  0  0  0  0
 18 17  2  0  0  0  0
 19 20  2  0  0  0  0
 19 18  1  0  0  0  0
 20 21  1  0  0  0  0
 21 26  1  0  0  0  0
 21 16  2  0  0  0  0
 24 19  1  0  0  0  0
 25 20  1  0  0  0  0
 26 27  2  0  0  0  0
 28  3  1  0  0  0  0
 28 26  1  0  0  0  0
 29 26  2  0  0  0  0
 30 31  1  0  0  0  0
 30 18  1  0  0  0  0
 30 32  1  0  0  0  0
 33 30  1  0  0  0  0
M  RAD  4   2   2   3   2   4   2  12   2
M  END
