Coordinates from ORCA-job 4-NO2PhN2+~TsO-_B3LYPG-6-31G_dp-CH-Scan-d09-49-n800
 OpenBabel11261919023D

 33 33  0  0  0  0  0  0  0  0999 V2000
   -2.7475    1.1629   -0.9119 C   0  0  0  0  0  0  0  0  0  0  0  0
   -3.9657    0.4456   -0.8220 N   0  0  0  0  0  0  0  0  0  0  0  0
   -4.9093   -0.1437   -0.8655 N   0  0  0  0  0  0  0  0  0  0  0  0
   -2.3997    1.4446   -2.2302 C   0  0  0  0  0  0  0  0  0  0  0  0
   -1.1561    2.1321   -2.2751 C   0  0  0  0  0  0  0  0  0  0  0  0
   -0.4392    2.4211   -1.1199 C   0  0  0  0  0  0  0  0  0  0  0  0
    0.8586    3.1338   -1.2329 N   0  0  0  0  0  0  0  0  0  0  0  0
    1.2621    3.4144   -2.3591 O   0  0  0  0  0  0  0  0  0  0  0  0
    1.4520    3.4088   -0.1896 O   0  0  0  0  0  0  0  0  0  0  0  0
   -0.8806    2.0969    0.1796 C   0  0  0  0  0  0  0  0  0  0  0  0
   -2.0900    1.4480    0.3081 C   0  0  0  0  0  0  0  0  0  0  0  0
   -4.9837    3.9039   -1.1627 H   0  0  0  0  0  0  0  0  0  0  0  0
   -0.7315    2.4502   -3.2233 H   0  0  0  0  0  0  0  0  0  0  0  0
   -0.2793    2.3709    1.0358 H   0  0  0  0  0  0  0  0  0  0  0  0
   -2.5261    1.2060    1.2704 H   0  0  0  0  0  0  0  0  0  0  0  0
   -6.4031    5.3220    1.3509 C   0  0  0  0  0  0  0  0  0  0  0  0
   -6.2807    6.6141    0.8433 C   0  0  0  0  0  0  0  0  0  0  0  0
   -5.9716    6.9125   -0.5222 C   0  0  0  0  0  0  0  0  0  0  0  0
   -5.7980    5.8551   -1.3719 C   0  0  0  0  0  0  0  0  0  0  0  0
   -5.9107    4.4543   -0.9173 C   0  0  0  0  0  0  0  0  0  0  0  0
   -6.2188    4.2380    0.5072 C   0  0  0  0  0  0  0  0  0  0  0  0
   -6.6538    5.1414    2.3909 H   0  0  0  0  0  0  0  0  0  0  0  0
   -6.4337    7.4520    1.5213 H   0  0  0  0  0  0  0  0  0  0  0  0
   -5.5643    6.0250   -2.4200 H   0  0  0  0  0  0  0  0  0  0  0  0
   -6.6506    3.8950   -1.5179 H   0  0  0  0  0  0  0  0  0  0  0  0
   -6.3106    2.5395    1.1343 S   0  0  0  0  0  0  0  0  0  0  0  0
   -7.0213    2.6565    2.4158 O   0  0  0  0  0  0  0  0  0  0  0  0
   -4.8473    2.2603    1.2275 O   0  0  0  0  0  0  0  0  0  0  0  0
   -6.9954    1.8159    0.0426 O   0  0  0  0  0  0  0  0  0  0  0  0
   -5.8563    8.3497   -0.9642 C   0  0  0  0  0  0  0  0  0  0  0  0
   -6.7943    8.8902   -0.7943 H   0  0  0  0  0  0  0  0  0  0  0  0
   -5.0737    8.8711   -0.4030 H   0  0  0  0  0  0  0  0  0  0  0  0
   -5.6138    8.4199   -2.0269 H   0  0  0  0  0  0  0  0  0  0  0  0
  1  2  1  0  0  0  0
  1 11  2  0  0  0  0
  3  2  1  0  0  0  0
  4  1  1  0  0  0  0
  5  4  2  0  0  0  0
  5  6  1  0  0  0  0
  6 10  2  0  0  0  0
  7  6  1  0  0  0  0
  7  9  2  0  0  0  0
  8  7  2  0  0  0  0
 10 11  1  0  0  0  0
 10 14  1  0  0  0  0
 11 15  1  0  0  0  0
 12 20  1  0  0  0  0
 13  5  1  0  0  0  0
 16 22  1  0  0  0  0
 17 16  1  0  0  0  0
 17 23  1  0  0  0  0
 18 17  1  0  0  0  0
 19 20  1  0  0  0  0
 19 18  2  0  0  0  0
 20 21  1  0  0  0  0
 21 26  1  0  0  0  0
 21 16  2  0  0  0  0
 24 19  1  0  0  0  0
 25 20  1  0  0  0  0
 26 28  2  0  0  0  0
 26 27  1  0  0  0  0
 29 26  2  0  0  0  0
 30 31  1  0  0  0  0
 30 18  1  0  0  0  0
 30 32  1  0  0  0  0
 33 30  1  0  0  0  0
M  RAD  5   2   2   3   3   4   2  17   2  27   2
M  END
