Coordinates from ORCA-job 4-NO2PhN2+~TsO-_B3LYPG-6-31G_dp-CH-Scan-d09-49-n800
 OpenBabel11261919023D

 33 34  0  0  0  0  0  0  0  0999 V2000
   -2.7397    1.1007   -0.1624 C   0  0  0  0  0  0  0  0  0  0  0  0
   -3.8391    0.3447    0.3425 N   0  0  0  0  0  0  0  0  0  0  0  0
   -4.9674    0.7493    0.5209 N   0  0  0  0  0  0  0  0  0  0  0  0
   -2.7401    1.6197   -1.4600 C   0  0  0  0  0  0  0  0  0  0  0  0
   -1.6131    2.2464   -1.9672 C   0  0  0  0  0  0  0  0  0  0  0  0
   -0.4888    2.3499   -1.1464 C   0  0  0  0  0  0  0  0  0  0  0  0
    0.7108    3.0242   -1.6690 N   0  0  0  0  0  0  0  0  0  0  0  0
    0.6557    3.4755   -2.8120 O   0  0  0  0  0  0  0  0  0  0  0  0
    1.6910    3.0944   -0.9295 O   0  0  0  0  0  0  0  0  0  0  0  0
   -0.4606    1.8296    0.1461 C   0  0  0  0  0  0  0  0  0  0  0  0
   -1.5902    1.1802    0.6334 C   0  0  0  0  0  0  0  0  0  0  0  0
   -3.8344    1.4993   -2.2072 H   0  0  0  0  0  0  0  0  0  0  0  0
   -1.5853    2.6571   -2.9677 H   0  0  0  0  0  0  0  0  0  0  0  0
    0.4395    1.9266    0.7400 H   0  0  0  0  0  0  0  0  0  0  0  0
   -1.5957    0.7419    1.6249 H   0  0  0  0  0  0  0  0  0  0  0  0
   -6.0856    5.2618    1.1964 C   0  0  0  0  0  0  0  0  0  0  0  0
   -5.8839    6.6152    0.9395 C   0  0  0  0  0  0  0  0  0  0  0  0
   -6.0305    7.1388   -0.3541 C   0  0  0  0  0  0  0  0  0  0  0  0
   -6.3866    6.2679   -1.3949 C   0  0  0  0  0  0  0  0  0  0  0  0
   -6.5927    4.9108   -1.1603 C   0  0  0  0  0  0  0  0  0  0  0  0
   -6.4346    4.4213    0.1374 C   0  0  0  0  0  0  0  0  0  0  0  0
   -5.9839    4.8591    2.1981 H   0  0  0  0  0  0  0  0  0  0  0  0
   -5.6108    7.2774    1.7562 H   0  0  0  0  0  0  0  0  0  0  0  0
   -6.5082    6.6588   -2.4012 H   0  0  0  0  0  0  0  0  0  0  0  0
   -6.8814    4.2393   -1.9612 H   0  0  0  0  0  0  0  0  0  0  0  0
   -6.7019    2.6912    0.4541 S   0  0  0  0  0  0  0  0  0  0  0  0
   -7.0269    2.4842    1.8600 O   0  0  0  0  0  0  0  0  0  0  0  0
   -5.1011    2.2150    0.2091 O   0  0  0  0  0  0  0  0  0  0  0  0
   -7.5073    2.1068   -0.6124 O   0  0  0  0  0  0  0  0  0  0  0  0
   -5.8412    8.6133   -0.6138 C   0  0  0  0  0  0  0  0  0  0  0  0
   -6.7863    9.1555   -0.4855 H   0  0  0  0  0  0  0  0  0  0  0  0
   -5.1172    9.0526    0.0784 H   0  0  0  0  0  0  0  0  0  0  0  0
   -5.4961    8.7994   -1.6346 H   0  0  0  0  0  0  0  0  0  0  0  0
  1  2  1  0  0  0  0
  1 11  2  0  0  0  0
  2  3  1  0  0  0  0
  4  1  1  0  0  0  0
  5  4  2  0  0  0  0
  5  6  1  0  0  0  0
  6 10  2  0  0  0  0
  7  6  1  0  0  0  0
  7  9  2  0  0  0  0
  8  7  2  0  0  0  0
 10 11  1  0  0  0  0
 10 14  1  0  0  0  0
 11 15  1  0  0  0  0
 12  4  1  0  0  0  0
 13  5  1  0  0  0  0
 16 22  1  0  0  0  0
 17 16  1  0  0  0  0
 17 23  1  0  0  0  0
 18 17  2  0  0  0  0
 19 20  2  0  0  0  0
 19 18  1  0  0  0  0
 20 21  1  0  0  0  0
 21 26  1  0  0  0  0
 21 16  2  0  0  0  0
 24 19  1  0  0  0  0
 25 20  1  0  0  0  0
 26 27  2  0  0  0  0
 28 26  1  0  0  0  0
 28  3  1  0  0  0  0
 29 26  2  0  0  0  0
 30 31  1  0  0  0  0
 30 18  1  0  0  0  0
 30 32  1  0  0  0  0
 33 30  1  0  0  0  0
M  RAD  2   2   2   3   2
M  END
