Coordinates from ORCA-job 4-NO2PhN2+~TsO-_B3LYPG-6-31G_dp-CH-Scan-d09-49-n800
 OpenBabel11261919023D

 33 33  0  0  0  0  0  0  0  0999 V2000
   -2.8015    1.0793   -0.2757 C   0  0  0  0  0  0  0  0  0  0  0  0
   -3.9009    0.2583    0.1263 N   0  0  0  0  0  0  0  0  0  0  0  0
   -5.0125    0.6911    0.3692 N   0  0  0  0  0  0  0  0  0  0  0  0
   -2.6249    1.5215   -1.5690 C   0  0  0  0  0  0  0  0  0  0  0  0
   -1.5498    2.2200   -2.0449 C   0  0  0  0  0  0  0  0  0  0  0  0
   -0.5460    2.4794   -1.1000 C   0  0  0  0  0  0  0  0  0  0  0  0
    0.6486    3.2260   -1.5310 N   0  0  0  0  0  0  0  0  0  0  0  0
    0.6967    3.5899   -2.7042 O   0  0  0  0  0  0  0  0  0  0  0  0
    1.5134    3.4458   -0.6851 O   0  0  0  0  0  0  0  0  0  0  0  0
   -0.6407    2.0518    0.2239 C   0  0  0  0  0  0  0  0  0  0  0  0
   -1.7639    1.3397    0.6364 C   0  0  0  0  0  0  0  0  0  0  0  0
   -4.4330    0.9593   -3.0951 H   0  0  0  0  0  0  0  0  0  0  0  0
   -1.4463    2.5608   -3.0668 H   0  0  0  0  0  0  0  0  0  0  0  0
    0.1660    2.2759    0.9101 H   0  0  0  0  0  0  0  0  0  0  0  0
   -1.8551    0.9863    1.6585 H   0  0  0  0  0  0  0  0  0  0  0  0
   -5.9744    5.2471    1.2552 C   0  0  0  0  0  0  0  0  0  0  0  0
   -5.7517    6.5892    0.9563 C   0  0  0  0  0  0  0  0  0  0  0  0
   -5.9207    7.0806   -0.3466 C   0  0  0  0  0  0  0  0  0  0  0  0
   -6.3215    6.1898   -1.3550 C   0  0  0  0  0  0  0  0  0  0  0  0
   -6.5505    4.8450   -1.0792 C   0  0  0  0  0  0  0  0  0  0  0  0
   -6.3692    4.3880    0.2283 C   0  0  0  0  0  0  0  0  0  0  0  0
   -5.8535    4.8681    2.2638 H   0  0  0  0  0  0  0  0  0  0  0  0
   -5.4438    7.2670    1.7472 H   0  0  0  0  0  0  0  0  0  0  0  0
   -6.4593    6.5560   -2.3684 H   0  0  0  0  0  0  0  0  0  0  0  0
   -6.8705    4.1589   -1.8553 H   0  0  0  0  0  0  0  0  0  0  0  0
   -6.6658    2.6750    0.5959 S   0  0  0  0  0  0  0  0  0  0  0  0
   -6.8632    2.4927    2.0283 O   0  0  0  0  0  0  0  0  0  0  0  0
   -5.0873    2.1459    0.2242 O   0  0  0  0  0  0  0  0  0  0  0  0
   -7.5699    2.0946   -0.3874 O   0  0  0  0  0  0  0  0  0  0  0  0
   -5.7065    8.5423   -0.6545 C   0  0  0  0  0  0  0  0  0  0  0  0
   -6.6569    9.0889   -0.6246 H   0  0  0  0  0  0  0  0  0  0  0  0
   -5.0357    9.0112    0.0706 H   0  0  0  0  0  0  0  0  0  0  0  0
   -5.2833    8.6823   -1.6535 H   0  0  0  0  0  0  0  0  0  0  0  0
  1  2  1  0  0  0  0
  1 11  2  0  0  0  0
  2  3  1  0  0  0  0
  4  1  1  0  0  0  0
  5  4  2  0  0  0  0
  5  6  1  0  0  0  0
  6 10  2  0  0  0  0
  7  6  1  0  0  0  0
  7  9  2  0  0  0  0
  8  7  2  0  0  0  0
 10 11  1  0  0  0  0
 10 14  1  0  0  0  0
 11 15  1  0  0  0  0
 13  5  1  0  0  0  0
 16 22  1  0  0  0  0
 17 16  1  0  0  0  0
 17 23  1  0  0  0  0
 18 17  2  0  0  0  0
 19 20  2  0  0  0  0
 19 18  1  0  0  0  0
 20 21  1  0  0  0  0
 21 26  1  0  0  0  0
 21 16  2  0  0  0  0
 24 19  1  0  0  0  0
 25 20  1  0  0  0  0
 26 27  2  0  0  0  0
 28  3  1  0  0  0  0
 28 26  1  0  0  0  0
 29 26  2  0  0  0  0
 30 31  1  0  0  0  0
 30 18  1  0  0  0  0
 30 32  1  0  0  0  0
 33 30  1  0  0  0  0
M  RAD  4   2   2   3   2   4   2  12   2
M  END
