Coordinates from ORCA-job 4-NO2PhN2+~TsO-_B3LYPG-6-31G_dp-CH-Scan-d09-49-n800
 OpenBabel11261919023D

 33 34  0  0  0  0  0  0  0  0999 V2000
   -2.7234    1.1038   -0.1625 C   0  0  0  0  0  0  0  0  0  0  0  0
   -3.8328    0.3605    0.3358 N   0  0  0  0  0  0  0  0  0  0  0  0
   -4.9618    0.7619    0.5104 N   0  0  0  0  0  0  0  0  0  0  0  0
   -2.7341    1.7007   -1.4270 C   0  0  0  0  0  0  0  0  0  0  0  0
   -1.5927    2.3109   -1.9234 C   0  0  0  0  0  0  0  0  0  0  0  0
   -0.4468    2.3211   -1.1268 C   0  0  0  0  0  0  0  0  0  0  0  0
    0.7671    2.9784   -1.6392 N   0  0  0  0  0  0  0  0  0  0  0  0
    0.7043    3.4977   -2.7524 O   0  0  0  0  0  0  0  0  0  0  0  0
    1.7654    2.9670   -0.9212 O   0  0  0  0  0  0  0  0  0  0  0  0
   -0.4090    1.7228    0.1313 C   0  0  0  0  0  0  0  0  0  0  0  0
   -1.5523    1.0887    0.6059 C   0  0  0  0  0  0  0  0  0  0  0  0
   -3.8320    1.6719   -2.1420 H   0  0  0  0  0  0  0  0  0  0  0  0
   -1.5707    2.7786   -2.8987 H   0  0  0  0  0  0  0  0  0  0  0  0
    0.5079    1.7478    0.7063 H   0  0  0  0  0  0  0  0  0  0  0  0
   -1.5531    0.5892    1.5681 H   0  0  0  0  0  0  0  0  0  0  0  0
   -6.0760    5.2815    1.1838 C   0  0  0  0  0  0  0  0  0  0  0  0
   -5.8892    6.6349    0.9161 C   0  0  0  0  0  0  0  0  0  0  0  0
   -6.0722    7.1519   -0.3757 C   0  0  0  0  0  0  0  0  0  0  0  0
   -6.4493    6.2742   -1.4032 C   0  0  0  0  0  0  0  0  0  0  0  0
   -6.6412    4.9168   -1.1574 C   0  0  0  0  0  0  0  0  0  0  0  0
   -6.4470    4.4340    0.1379 C   0  0  0  0  0  0  0  0  0  0  0  0
   -5.9466    4.8841    2.1844 H   0  0  0  0  0  0  0  0  0  0  0  0
   -5.5997    7.3025    1.7227 H   0  0  0  0  0  0  0  0  0  0  0  0
   -6.5994    6.6600   -2.4076 H   0  0  0  0  0  0  0  0  0  0  0  0
   -6.9467    4.2401   -1.9476 H   0  0  0  0  0  0  0  0  0  0  0  0
   -6.6977    2.7037    0.4689 S   0  0  0  0  0  0  0  0  0  0  0  0
   -6.9974    2.5037    1.8816 O   0  0  0  0  0  0  0  0  0  0  0  0
   -5.1016    2.2348    0.1993 O   0  0  0  0  0  0  0  0  0  0  0  0
   -7.5207    2.1103   -0.5794 O   0  0  0  0  0  0  0  0  0  0  0  0
   -5.8991    8.6265   -0.6459 C   0  0  0  0  0  0  0  0  0  0  0  0
   -6.8394    9.1661   -0.4770 H   0  0  0  0  0  0  0  0  0  0  0  0
   -5.1472    9.0694    0.0135 H   0  0  0  0  0  0  0  0  0  0  0  0
   -5.5994    8.8121   -1.6810 H   0  0  0  0  0  0  0  0  0  0  0  0
  1  2  1  0  0  0  0
  1 11  2  0  0  0  0
  2  3  1  0  0  0  0
  4  1  1  0  0  0  0
  5  4  2  0  0  0  0
  5  6  1  0  0  0  0
  6 10  2  0  0  0  0
  7  6  1  0  0  0  0
  7  9  2  0  0  0  0
  8  7  2  0  0  0  0
 10 11  1  0  0  0  0
 10 14  1  0  0  0  0
 11 15  1  0  0  0  0
 12  4  1  0  0  0  0
 13  5  1  0  0  0  0
 16 22  1  0  0  0  0
 17 16  1  0  0  0  0
 17 23  1  0  0  0  0
 18 17  2  0  0  0  0
 19 20  2  0  0  0  0
 19 18  1  0  0  0  0
 20 21  1  0  0  0  0
 21 26  1  0  0  0  0
 21 16  2  0  0  0  0
 24 19  1  0  0  0  0
 25 20  1  0  0  0  0
 26 27  2  0  0  0  0
 28 26  1  0  0  0  0
 28  3  1  0  0  0  0
 29 26  2  0  0  0  0
 30 31  1  0  0  0  0
 30 18  1  0  0  0  0
 30 32  1  0  0  0  0
 33 30  1  0  0  0  0
M  RAD  2   2   2   3   2
M  END
