Coordinates from ORCA-job 4-NO2PhN2+~TsO-_B3LYPG-6-31G_dp-CH-Scan-d09-49-n800
 OpenBabel11261919023D

 33 33  0  0  0  0  0  0  0  0999 V2000
   -2.8009    1.0799   -0.2750 C   0  0  0  0  0  0  0  0  0  0  0  0
   -3.9003    0.2588    0.1269 N   0  0  0  0  0  0  0  0  0  0  0  0
   -5.0120    0.6915    0.3697 N   0  0  0  0  0  0  0  0  0  0  0  0
   -2.6252    1.5246   -1.5674 C   0  0  0  0  0  0  0  0  0  0  0  0
   -1.5504    2.2233   -2.0434 C   0  0  0  0  0  0  0  0  0  0  0  0
   -0.5454    2.4803   -1.0990 C   0  0  0  0  0  0  0  0  0  0  0  0
    0.6492    3.2270   -1.5299 N   0  0  0  0  0  0  0  0  0  0  0  0
    0.6984    3.5890   -2.7037 O   0  0  0  0  0  0  0  0  0  0  0  0
    1.5172    3.4405   -0.6857 O   0  0  0  0  0  0  0  0  0  0  0  0
   -0.6389    2.0500    0.2241 C   0  0  0  0  0  0  0  0  0  0  0  0
   -1.7620    1.3378    0.6364 C   0  0  0  0  0  0  0  0  0  0  0  0
   -4.4426    0.9637   -3.0989 H   0  0  0  0  0  0  0  0  0  0  0  0
   -1.4479    2.5661   -3.0647 H   0  0  0  0  0  0  0  0  0  0  0  0
    0.1688    2.2723    0.9098 H   0  0  0  0  0  0  0  0  0  0  0  0
   -1.8523    0.9824    1.6579 H   0  0  0  0  0  0  0  0  0  0  0  0
   -5.9751    5.2474    1.2551 C   0  0  0  0  0  0  0  0  0  0  0  0
   -5.7526    6.5895    0.9559 C   0  0  0  0  0  0  0  0  0  0  0  0
   -5.9212    7.0805   -0.3473 C   0  0  0  0  0  0  0  0  0  0  0  0
   -6.3214    6.1892   -1.3555 C   0  0  0  0  0  0  0  0  0  0  0  0
   -6.5502    4.8445   -1.0794 C   0  0  0  0  0  0  0  0  0  0  0  0
   -6.3693    4.3880    0.2284 C   0  0  0  0  0  0  0  0  0  0  0  0
   -5.8545    4.8688    2.2639 H   0  0  0  0  0  0  0  0  0  0  0  0
   -5.4452    7.2677    1.7467 H   0  0  0  0  0  0  0  0  0  0  0  0
   -6.4589    6.5551   -2.3691 H   0  0  0  0  0  0  0  0  0  0  0  0
   -6.8697    4.1580   -1.8553 H   0  0  0  0  0  0  0  0  0  0  0  0
   -6.6657    2.6750    0.5964 S   0  0  0  0  0  0  0  0  0  0  0  0
   -6.8631    2.4930    2.0288 O   0  0  0  0  0  0  0  0  0  0  0  0
   -5.0869    2.1460    0.2250 O   0  0  0  0  0  0  0  0  0  0  0  0
   -7.5695    2.0941   -0.3869 O   0  0  0  0  0  0  0  0  0  0  0  0
   -5.7074    8.5421   -0.6555 C   0  0  0  0  0  0  0  0  0  0  0  0
   -6.6580    9.0884   -0.6266 H   0  0  0  0  0  0  0  0  0  0  0  0
   -5.0372    9.0115    0.0699 H   0  0  0  0  0  0  0  0  0  0  0  0
   -5.2834    8.6818   -1.6543 H   0  0  0  0  0  0  0  0  0  0  0  0
  1  2  1  0  0  0  0
  1 11  2  0  0  0  0
  2  3  1  0  0  0  0
  4  1  1  0  0  0  0
  5  4  2  0  0  0  0
  5  6  1  0  0  0  0
  6 10  2  0  0  0  0
  7  6  1  0  0  0  0
  7  9  2  0  0  0  0
  8  7  2  0  0  0  0
 10 11  1  0  0  0  0
 10 14  1  0  0  0  0
 11 15  1  0  0  0  0
 13  5  1  0  0  0  0
 16 22  1  0  0  0  0
 17 16  1  0  0  0  0
 17 23  1  0  0  0  0
 18 17  2  0  0  0  0
 19 20  2  0  0  0  0
 19 18  1  0  0  0  0
 20 21  1  0  0  0  0
 21 26  1  0  0  0  0
 21 16  2  0  0  0  0
 24 19  1  0  0  0  0
 25 20  1  0  0  0  0
 26 27  2  0  0  0  0
 28  3  1  0  0  0  0
 28 26  1  0  0  0  0
 29 26  2  0  0  0  0
 30 31  1  0  0  0  0
 30 18  1  0  0  0  0
 30 32  1  0  0  0  0
 33 30  1  0  0  0  0
M  RAD  4   2   2   3   2   4   2  12   2
M  END
