Coordinates from ORCA-job 4-NO2PhN2+~TsO-_B3LYPG-6-31G_dp-CH-Scan-d09-49-n800
 OpenBabel11261919023D

 33 33  0  0  0  0  0  0  0  0999 V2000
   -2.2026    1.1409   -0.3713 C   0  0  0  0  0  0  0  0  0  0  0  0
   -3.4824    0.6941    0.0232 N   0  0  0  0  0  0  0  0  0  0  0  0
   -4.5089    0.3748    0.3140 N   0  0  0  0  0  0  0  0  0  0  0  0
   -2.2239    2.2115   -1.2648 C   0  0  0  0  0  0  0  0  0  0  0  0
   -0.8942    2.5824   -1.6125 C   0  0  0  0  0  0  0  0  0  0  0  0
    0.2154    1.9190   -1.1062 C   0  0  0  0  0  0  0  0  0  0  0  0
    1.5737    2.3548   -1.5196 N   0  0  0  0  0  0  0  0  0  0  0  0
    1.6586    3.2914   -2.3095 O   0  0  0  0  0  0  0  0  0  0  0  0
    2.5349    1.7503   -1.0434 O   0  0  0  0  0  0  0  0  0  0  0  0
    0.1376    0.8393   -0.2032 C   0  0  0  0  0  0  0  0  0  0  0  0
   -1.1152    0.4234    0.1893 C   0  0  0  0  0  0  0  0  0  0  0  0
   -5.2499    4.3167   -1.1356 H   0  0  0  0  0  0  0  0  0  0  0  0
   -0.7126    3.4077   -2.2959 H   0  0  0  0  0  0  0  0  0  0  0  0
    1.0430    0.3708    0.1572 H   0  0  0  0  0  0  0  0  0  0  0  0
   -1.2536   -0.3987    0.8859 H   0  0  0  0  0  0  0  0  0  0  0  0
   -7.0036    5.6268    1.1967 C   0  0  0  0  0  0  0  0  0  0  0  0
   -6.9305    6.9176    0.6841 C   0  0  0  0  0  0  0  0  0  0  0  0
   -6.5275    7.2265   -0.6554 C   0  0  0  0  0  0  0  0  0  0  0  0
   -6.2053    6.1784   -1.4717 C   0  0  0  0  0  0  0  0  0  0  0  0
   -6.2476    4.7792   -1.0051 C   0  0  0  0  0  0  0  0  0  0  0  0
   -6.6736    4.5502    0.3835 C   0  0  0  0  0  0  0  0  0  0  0  0
   -7.3364    5.4379    2.2115 H   0  0  0  0  0  0  0  0  0  0  0  0
   -7.2035    7.7478    1.3334 H   0  0  0  0  0  0  0  0  0  0  0  0
   -5.8925    6.3566   -2.4973 H   0  0  0  0  0  0  0  0  0  0  0  0
   -6.8508    4.1351   -1.6686 H   0  0  0  0  0  0  0  0  0  0  0  0
   -6.6983    2.8576    1.0268 S   0  0  0  0  0  0  0  0  0  0  0  0
   -7.6942    2.8928    2.1107 O   0  0  0  0  0  0  0  0  0  0  0  0
   -5.2733    2.7933    1.4625 O   0  0  0  0  0  0  0  0  0  0  0  0
   -7.0224    2.0363   -0.1567 O   0  0  0  0  0  0  0  0  0  0  0  0
   -6.4814    8.6649   -1.1062 C   0  0  0  0  0  0  0  0  0  0  0  0
   -7.4668    9.1364   -1.0204 H   0  0  0  0  0  0  0  0  0  0  0  0
   -5.7873    9.2472   -0.4909 H   0  0  0  0  0  0  0  0  0  0  0  0
   -6.1585    8.7445   -2.1465 H   0  0  0  0  0  0  0  0  0  0  0  0
  1  2  1  0  0  0  0
  1 11  2  0  0  0  0
  2  3  1  0  0  0  0
  4  1  1  0  0  0  0
  5  4  2  0  0  0  0
  5  6  1  0  0  0  0
  6 10  2  0  0  0  0
  7  6  1  0  0  0  0
  7  9  2  0  0  0  0
  8  7  2  0  0  0  0
 10 14  1  0  0  0  0
 10 11  1  0  0  0  0
 11 15  1  0  0  0  0
 12 20  1  0  0  0  0
 13  5  1  0  0  0  0
 16 22  1  0  0  0  0
 17 16  1  0  0  0  0
 17 23  1  0  0  0  0
 18 17  1  0  0  0  0
 19 20  1  0  0  0  0
 19 18  2  0  0  0  0
 20 21  1  0  0  0  0
 21 26  1  0  0  0  0
 21 16  2  0  0  0  0
 24 19  1  0  0  0  0
 25 20  1  0  0  0  0
 26 28  2  0  0  0  0
 26 27  1  0  0  0  0
 29 26  2  0  0  0  0
 30 31  1  0  0  0  0
 30 18  1  0  0  0  0
 30 32  1  0  0  0  0
 33 30  1  0  0  0  0
M  RAD  5   2   2   3   3   4   2  17   2  27   2
M  END
