Coordinates from ORCA-job 4-NO2PhN2+~TsO-_B3LYPG-6-31G_dp-CH-Scan-d09-49-n800
 OpenBabel11261919023D

 33 33  0  0  0  0  0  0  0  0999 V2000
   -2.7934    1.0839   -0.2605 C   0  0  0  0  0  0  0  0  0  0  0  0
   -3.8920    0.2627    0.1439 N   0  0  0  0  0  0  0  0  0  0  0  0
   -5.0043    0.6954    0.3867 N   0  0  0  0  0  0  0  0  0  0  0  0
   -2.6370    1.5678   -1.5403 C   0  0  0  0  0  0  0  0  0  0  0  0
   -1.5671    2.2682   -2.0211 C   0  0  0  0  0  0  0  0  0  0  0  0
   -0.5384    2.4843   -1.0911 C   0  0  0  0  0  0  0  0  0  0  0  0
    0.6558    3.2303   -1.5256 N   0  0  0  0  0  0  0  0  0  0  0  0
    0.6847    3.6252   -2.6893 O   0  0  0  0  0  0  0  0  0  0  0  0
    1.5439    3.4083   -0.6942 O   0  0  0  0  0  0  0  0  0  0  0  0
   -0.6085    2.0141    0.2199 C   0  0  0  0  0  0  0  0  0  0  0  0
   -1.7305    1.3014    0.6346 C   0  0  0  0  0  0  0  0  0  0  0  0
   -4.5858    1.0457   -3.1275 H   0  0  0  0  0  0  0  0  0  0  0  0
   -1.4822    2.6410   -3.0337 H   0  0  0  0  0  0  0  0  0  0  0  0
    0.2164    2.2058    0.8941 H   0  0  0  0  0  0  0  0  0  0  0  0
   -1.8031    0.9149    1.6463 H   0  0  0  0  0  0  0  0  0  0  0  0
   -5.9951    5.2536    1.2561 C   0  0  0  0  0  0  0  0  0  0  0  0
   -5.7734    6.5946    0.9514 C   0  0  0  0  0  0  0  0  0  0  0  0
   -5.9227    7.0760   -0.3576 C   0  0  0  0  0  0  0  0  0  0  0  0
   -6.3022    6.1761   -1.3662 C   0  0  0  0  0  0  0  0  0  0  0  0
   -6.5300    4.8323   -1.0848 C   0  0  0  0  0  0  0  0  0  0  0  0
   -6.3689    4.3857    0.2290 C   0  0  0  0  0  0  0  0  0  0  0  0
   -5.8892    4.8821    2.2693 H   0  0  0  0  0  0  0  0  0  0  0  0
   -5.4817    7.2794    1.7425 H   0  0  0  0  0  0  0  0  0  0  0  0
   -6.4243    6.5345   -2.3845 H   0  0  0  0  0  0  0  0  0  0  0  0
   -6.8330    4.1390   -1.8613 H   0  0  0  0  0  0  0  0  0  0  0  0
   -6.6642    2.6742    0.6037 S   0  0  0  0  0  0  0  0  0  0  0  0
   -6.8707    2.4986    2.0356 O   0  0  0  0  0  0  0  0  0  0  0  0
   -5.0804    2.1477    0.2453 O   0  0  0  0  0  0  0  0  0  0  0  0
   -7.5589    2.0855   -0.3830 O   0  0  0  0  0  0  0  0  0  0  0  0
   -5.7100    8.5364   -0.6725 C   0  0  0  0  0  0  0  0  0  0  0  0
   -6.6636    9.0782   -0.6650 H   0  0  0  0  0  0  0  0  0  0  0  0
   -5.0557    9.0142    0.0619 H   0  0  0  0  0  0  0  0  0  0  0  0
   -5.2683    8.6709   -1.6642 H   0  0  0  0  0  0  0  0  0  0  0  0
  1  2  1  0  0  0  0
  1 11  2  0  0  0  0
  2  3  1  0  0  0  0
  4  1  1  0  0  0  0
  5  4  2  0  0  0  0
  5  6  1  0  0  0  0
  6 10  2  0  0  0  0
  7  6  1  0  0  0  0
  7  9  2  0  0  0  0
  8  7  2  0  0  0  0
 10 11  1  0  0  0  0
 10 14  1  0  0  0  0
 11 15  1  0  0  0  0
 13  5  1  0  0  0  0
 16 22  1  0  0  0  0
 17 16  1  0  0  0  0
 17 23  1  0  0  0  0
 18 17  2  0  0  0  0
 19 20  2  0  0  0  0
 19 18  1  0  0  0  0
 20 21  1  0  0  0  0
 21 26  1  0  0  0  0
 21 16  2  0  0  0  0
 24 19  1  0  0  0  0
 25 20  1  0  0  0  0
 26 27  2  0  0  0  0
 28  3  1  0  0  0  0
 28 26  1  0  0  0  0
 29 26  2  0  0  0  0
 30 31  1  0  0  0  0
 30 18  1  0  0  0  0
 30 32  1  0  0  0  0
 33 30  1  0  0  0  0
M  RAD  4   2   2   3   2   4   2  12   2
M  END
