Coordinates from ORCA-job 4-NO2PhN2+~TsO-_B3LYPG-6-31G_dp-CH-Scan-d09-49-n800
 OpenBabel11261919023D

 33 33  0  0  0  0  0  0  0  0999 V2000
   -2.8080    1.0763   -0.2835 C   0  0  0  0  0  0  0  0  0  0  0  0
   -3.9058    0.2580    0.1259 N   0  0  0  0  0  0  0  0  0  0  0  0
   -5.0176    0.6883    0.3680 N   0  0  0  0  0  0  0  0  0  0  0  0
   -2.6279    1.4751   -1.5936 C   0  0  0  0  0  0  0  0  0  0  0  0
   -1.5456    2.1701   -2.0675 C   0  0  0  0  0  0  0  0  0  0  0  0
   -0.5587    2.4709   -1.1193 C   0  0  0  0  0  0  0  0  0  0  0  0
    0.6333    3.2167   -1.5567 N   0  0  0  0  0  0  0  0  0  0  0  0
    0.7015    3.5313   -2.7433 O   0  0  0  0  0  0  0  0  0  0  0  0
    1.4925    3.4575   -0.7105 O   0  0  0  0  0  0  0  0  0  0  0  0
   -0.6666    2.0852    0.2163 C   0  0  0  0  0  0  0  0  0  0  0  0
   -1.7887    1.3754    0.6352 C   0  0  0  0  0  0  0  0  0  0  0  0
   -4.2078    0.9283   -2.9559 H   0  0  0  0  0  0  0  0  0  0  0  0
   -1.4306    2.4796   -3.0976 H   0  0  0  0  0  0  0  0  0  0  0  0
    0.1281    2.3397    0.9059 H   0  0  0  0  0  0  0  0  0  0  0  0
   -1.8903    1.0536    1.6664 H   0  0  0  0  0  0  0  0  0  0  0  0
   -5.9763    5.2411    1.2546 C   0  0  0  0  0  0  0  0  0  0  0  0
   -5.7515    6.5849    0.9658 C   0  0  0  0  0  0  0  0  0  0  0  0
   -5.9216    7.0868   -0.3330 C   0  0  0  0  0  0  0  0  0  0  0  0
   -6.3258    6.2046   -1.3474 C   0  0  0  0  0  0  0  0  0  0  0  0
   -6.5568    4.8581   -1.0816 C   0  0  0  0  0  0  0  0  0  0  0  0
   -6.3741    4.3905    0.2219 C   0  0  0  0  0  0  0  0  0  0  0  0
   -5.8546    4.8542    2.2602 H   0  0  0  0  0  0  0  0  0  0  0  0
   -5.4410    7.2560    1.7615 H   0  0  0  0  0  0  0  0  0  0  0  0
   -6.4648    6.5790   -2.3578 H   0  0  0  0  0  0  0  0  0  0  0  0
   -6.8798    4.1786   -1.8622 H   0  0  0  0  0  0  0  0  0  0  0  0
   -6.6724    2.6747    0.5767 S   0  0  0  0  0  0  0  0  0  0  0  0
   -6.8803    2.4842    2.0066 O   0  0  0  0  0  0  0  0  0  0  0  0
   -5.0949    2.1474    0.2111 O   0  0  0  0  0  0  0  0  0  0  0  0
   -7.5719    2.1018   -0.4158 O   0  0  0  0  0  0  0  0  0  0  0  0
   -5.7052    8.5505   -0.6295 C   0  0  0  0  0  0  0  0  0  0  0  0
   -6.6527    9.1010   -0.5813 H   0  0  0  0  0  0  0  0  0  0  0  0
   -5.0226    9.0094    0.0911 H   0  0  0  0  0  0  0  0  0  0  0  0
   -5.2950    8.6987   -1.6327 H   0  0  0  0  0  0  0  0  0  0  0  0
  1  2  1  0  0  0  0
  1 11  2  0  0  0  0
  2  3  1  0  0  0  0
  4  1  1  0  0  0  0
  5  4  2  0  0  0  0
  5  6  1  0  0  0  0
  6 10  2  0  0  0  0
  7  6  1  0  0  0  0
  7  9  2  0  0  0  0
  8  7  2  0  0  0  0
 10 11  1  0  0  0  0
 10 14  1  0  0  0  0
 11 15  1  0  0  0  0
 13  5  1  0  0  0  0
 16 22  1  0  0  0  0
 17 16  1  0  0  0  0
 17 23  1  0  0  0  0
 18 17  2  0  0  0  0
 19 20  2  0  0  0  0
 19 18  1  0  0  0  0
 20 21  1  0  0  0  0
 21 26  1  0  0  0  0
 21 16  2  0  0  0  0
 24 19  1  0  0  0  0
 25 20  1  0  0  0  0
 26 27  2  0  0  0  0
 28  3  1  0  0  0  0
 28 26  1  0  0  0  0
 29 26  2  0  0  0  0
 30 31  1  0  0  0  0
 30 18  1  0  0  0  0
 30 32  1  0  0  0  0
 33 30  1  0  0  0  0
M  RAD  4   2   2   3   2   4   2  12   2
M  END
