Coordinates from ORCA-job 4-NO2PhN2+~TsO-_B3LYPG-6-31G_dp-CH-Scan-d09-49-n800
 OpenBabel11261919023D

 33 33  0  0  0  0  0  0  0  0999 V2000
   -2.8055    1.0778   -0.2806 C   0  0  0  0  0  0  0  0  0  0  0  0
   -3.9040    0.2575    0.1241 N   0  0  0  0  0  0  0  0  0  0  0  0
   -5.0156    0.6892    0.3672 N   0  0  0  0  0  0  0  0  0  0  0  0
   -2.6245    1.4969   -1.5823 C   0  0  0  0  0  0  0  0  0  0  0  0
   -1.5465    2.1940   -2.0575 C   0  0  0  0  0  0  0  0  0  0  0  0
   -0.5529    2.4765   -1.1094 C   0  0  0  0  0  0  0  0  0  0  0  0
    0.6404    3.2232   -1.5428 N   0  0  0  0  0  0  0  0  0  0  0  0
    0.6988    3.5631   -2.7229 O   0  0  0  0  0  0  0  0  0  0  0  0
    1.4998    3.4577   -0.6951 O   0  0  0  0  0  0  0  0  0  0  0  0
   -0.6560    2.0717    0.2210 C   0  0  0  0  0  0  0  0  0  0  0  0
   -1.7786    1.3604    0.6361 C   0  0  0  0  0  0  0  0  0  0  0  0
   -4.3285    0.9319   -3.0387 H   0  0  0  0  0  0  0  0  0  0  0  0
   -1.4362    2.5177   -3.0840 H   0  0  0  0  0  0  0  0  0  0  0  0
    0.1434    2.3129    0.9100 H   0  0  0  0  0  0  0  0  0  0  0  0
   -1.8763    1.0244    1.6634 H   0  0  0  0  0  0  0  0  0  0  0  0
   -5.9743    5.2438    1.2557 C   0  0  0  0  0  0  0  0  0  0  0  0
   -5.7501    6.5866    0.9616 C   0  0  0  0  0  0  0  0  0  0  0  0
   -5.9195    7.0831   -0.3394 C   0  0  0  0  0  0  0  0  0  0  0  0
   -6.3224    6.1965   -1.3505 C   0  0  0  0  0  0  0  0  0  0  0  0
   -6.5529    4.8510   -1.0795 C   0  0  0  0  0  0  0  0  0  0  0  0
   -6.3710    4.3889    0.2261 C   0  0  0  0  0  0  0  0  0  0  0  0
   -5.8530    4.8610    2.2629 H   0  0  0  0  0  0  0  0  0  0  0  0
   -5.4406    7.2612    1.7547 H   0  0  0  0  0  0  0  0  0  0  0  0
   -6.4608    6.5667   -2.3625 H   0  0  0  0  0  0  0  0  0  0  0  0
   -6.8747    4.1681   -1.8577 H   0  0  0  0  0  0  0  0  0  0  0  0
   -6.6689    2.6747    0.5878 S   0  0  0  0  0  0  0  0  0  0  0  0
   -6.8699    2.4883    2.0191 O   0  0  0  0  0  0  0  0  0  0  0  0
   -5.0912    2.1458    0.2174 O   0  0  0  0  0  0  0  0  0  0  0  0
   -7.5719    2.0983   -0.3992 O   0  0  0  0  0  0  0  0  0  0  0  0
   -5.7038    8.5456   -0.6419 C   0  0  0  0  0  0  0  0  0  0  0  0
   -6.6528    9.0942   -0.6049 H   0  0  0  0  0  0  0  0  0  0  0  0
   -5.0283    9.0099    0.0819 H   0  0  0  0  0  0  0  0  0  0  0  0
   -5.2852    8.6891   -1.6424 H   0  0  0  0  0  0  0  0  0  0  0  0
  1  2  1  0  0  0  0
  1 11  2  0  0  0  0
  2  3  1  0  0  0  0
  4  1  1  0  0  0  0
  5  4  2  0  0  0  0
  5  6  1  0  0  0  0
  6 10  2  0  0  0  0
  7  6  1  0  0  0  0
  7  9  2  0  0  0  0
  8  7  2  0  0  0  0
 10 11  1  0  0  0  0
 10 14  1  0  0  0  0
 11 15  1  0  0  0  0
 13  5  1  0  0  0  0
 16 22  1  0  0  0  0
 17 16  1  0  0  0  0
 17 23  1  0  0  0  0
 18 17  2  0  0  0  0
 19 20  2  0  0  0  0
 19 18  1  0  0  0  0
 20 21  1  0  0  0  0
 21 26  1  0  0  0  0
 21 16  2  0  0  0  0
 24 19  1  0  0  0  0
 25 20  1  0  0  0  0
 26 27  2  0  0  0  0
 28  3  1  0  0  0  0
 28 26  1  0  0  0  0
 29 26  2  0  0  0  0
 30 31  1  0  0  0  0
 30 18  1  0  0  0  0
 30 32  1  0  0  0  0
 33 30  1  0  0  0  0
M  RAD  4   2   2   3   2   4   2  12   2
M  END
