Coordinates from ORCA-job 4-NO2PhN2+~TsO-_B3LYPG-6-31G_dp-CH-Scan-d09-49-n800
 OpenBabel11261919023D

 33 34  0  0  0  0  0  0  0  0999 V2000
   -2.5872    1.1474   -0.1155 C   0  0  0  0  0  0  0  0  0  0  0  0
   -3.7500    0.5090    0.3817 N   0  0  0  0  0  0  0  0  0  0  0  0
   -4.8730    0.8796    0.5905 N   0  0  0  0  0  0  0  0  0  0  0  0
   -2.5494    2.3940   -0.7698 C   0  0  0  0  0  0  0  0  0  0  0  0
   -1.3224    2.8681   -1.2264 C   0  0  0  0  0  0  0  0  0  0  0  0
   -0.1711    2.1117   -1.0202 C   0  0  0  0  0  0  0  0  0  0  0  0
    1.1217    2.6367   -1.5036 N   0  0  0  0  0  0  0  0  0  0  0  0
    1.1142    3.7302   -2.0646 O   0  0  0  0  0  0  0  0  0  0  0  0
    2.1210    1.9508   -1.3014 O   0  0  0  0  0  0  0  0  0  0  0  0
   -0.1949    0.8756   -0.3783 C   0  0  0  0  0  0  0  0  0  0  0  0
   -1.4184    0.3902    0.0649 C   0  0  0  0  0  0  0  0  0  0  0  0
   -3.3132    2.8819   -0.8956 H   0  0  0  0  0  0  0  0  0  0  0  0
   -1.2473    3.8206   -1.7356 H   0  0  0  0  0  0  0  0  0  0  0  0
    0.7248    0.3207   -0.2455 H   0  0  0  0  0  0  0  0  0  0  0  0
   -1.4933   -0.5723    0.5573 H   0  0  0  0  0  0  0  0  0  0  0  0
   -6.1256    5.4797    1.1045 C   0  0  0  0  0  0  0  0  0  0  0  0
   -6.0465    6.8184    0.7283 C   0  0  0  0  0  0  0  0  0  0  0  0
   -6.3818    7.2286   -0.5712 C   0  0  0  0  0  0  0  0  0  0  0  0
   -6.7999    6.2583   -1.4944 C   0  0  0  0  0  0  0  0  0  0  0  0
   -6.8856    4.9142   -1.1384 C   0  0  0  0  0  0  0  0  0  0  0  0
   -6.5420    4.5379    0.1615 C   0  0  0  0  0  0  0  0  0  0  0  0
   -5.8805    5.1640    2.1124 H   0  0  0  0  0  0  0  0  0  0  0  0
   -5.7245    7.5584    1.4558 H   0  0  0  0  0  0  0  0  0  0  0  0
   -7.0677    6.5607   -2.5029 H   0  0  0  0  0  0  0  0  0  0  0  0
   -7.2238    4.1654   -1.8461 H   0  0  0  0  0  0  0  0  0  0  0  0
   -6.6565    2.8215    0.6322 S   0  0  0  0  0  0  0  0  0  0  0  0
   -6.8124    2.7192    2.0802 O   0  0  0  0  0  0  0  0  0  0  0  0
   -5.0946    2.4114    0.2418 O   0  0  0  0  0  0  0  0  0  0  0  0
   -7.5611    2.1245   -0.2772 O   0  0  0  0  0  0  0  0  0  0  0  0
   -6.3275    8.6867   -0.9572 C   0  0  0  0  0  0  0  0  0  0  0  0
   -7.2873    9.1792   -0.7557 H   0  0  0  0  0  0  0  0  0  0  0  0
   -5.5618    9.2235   -0.3904 H   0  0  0  0  0  0  0  0  0  0  0  0
   -6.1161    8.8119   -2.0231 H   0  0  0  0  0  0  0  0  0  0  0  0
  1 11  1  0  0  0  0
  1  2  1  0  0  0  0
  2  3  1  0  0  0  0
  4  1  2  0  0  0  0
  5  6  2  0  0  0  0
  5  4  1  0  0  0  0
  6 10  1  0  0  0  0
  7  9  2  0  0  0  0
  7  6  1  0  0  0  0
  8  7  2  0  0  0  0
 10 14  1  0  0  0  0
 10 11  2  0  0  0  0
 11 15  1  0  0  0  0
 12  4  1  0  0  0  0
 13  5  1  0  0  0  0
 16 22  1  0  0  0  0
 17 16  1  0  0  0  0
 17 23  1  0  0  0  0
 18 17  2  0  0  0  0
 19 20  2  0  0  0  0
 19 18  1  0  0  0  0
 20 21  1  0  0  0  0
 21 26  1  0  0  0  0
 21 16  2  0  0  0  0
 24 19  1  0  0  0  0
 25 20  1  0  0  0  0
 26 27  2  0  0  0  0
 28  3  1  0  0  0  0
 28 26  1  0  0  0  0
 29 26  2  0  0  0  0
 30 31  1  0  0  0  0
 30 18  1  0  0  0  0
 30 32  1  0  0  0  0
 33 30  1  0  0  0  0
M  RAD  2   2   2   3   2
M  END
