Coordinates from ORCA-job 4-NO2PhN2+~TsO-_B3LYPG-6-31G_dp-CH-Scan-d09-49-n800
 OpenBabel11261919023D

 33 33  0  0  0  0  0  0  0  0999 V2000
   -2.7375    1.1485   -0.9149 C   0  0  0  0  0  0  0  0  0  0  0  0
   -3.9598    0.4389   -0.8191 N   0  0  0  0  0  0  0  0  0  0  0  0
   -4.9067   -0.1455   -0.8585 N   0  0  0  0  0  0  0  0  0  0  0  0
   -2.3806    1.4027   -2.2363 C   0  0  0  0  0  0  0  0  0  0  0  0
   -1.1345    2.0852   -2.2872 C   0  0  0  0  0  0  0  0  0  0  0  0
   -0.4245    2.3961   -1.1334 C   0  0  0  0  0  0  0  0  0  0  0  0
    0.8756    3.1035   -1.2524 N   0  0  0  0  0  0  0  0  0  0  0  0
    1.2858    3.3631   -2.3812 O   0  0  0  0  0  0  0  0  0  0  0  0
    1.4642    3.3958   -0.2110 O   0  0  0  0  0  0  0  0  0  0  0  0
   -0.8746    2.0983    0.1695 C   0  0  0  0  0  0  0  0  0  0  0  0
   -2.0863    1.4549    0.3034 C   0  0  0  0  0  0  0  0  0  0  0  0
   -4.9428    3.9346   -1.1286 H   0  0  0  0  0  0  0  0  0  0  0  0
   -0.7026    2.3821   -3.2390 H   0  0  0  0  0  0  0  0  0  0  0  0
   -0.2773    2.3868    1.0238 H   0  0  0  0  0  0  0  0  0  0  0  0
   -2.5283    1.2318    1.2677 H   0  0  0  0  0  0  0  0  0  0  0  0
   -6.4395    5.3295    1.3508 C   0  0  0  0  0  0  0  0  0  0  0  0
   -6.3246    6.6236    0.8464 C   0  0  0  0  0  0  0  0  0  0  0  0
   -5.9901    6.9275   -0.5118 C   0  0  0  0  0  0  0  0  0  0  0  0
   -5.7819    5.8733   -1.3578 C   0  0  0  0  0  0  0  0  0  0  0  0
   -5.8839    4.4707   -0.9061 C   0  0  0  0  0  0  0  0  0  0  0  0
   -6.2213    4.2490    0.5110 C   0  0  0  0  0  0  0  0  0  0  0  0
   -6.7093    5.1442    2.3851 H   0  0  0  0  0  0  0  0  0  0  0  0
   -6.5041    7.4589    1.5214 H   0  0  0  0  0  0  0  0  0  0  0  0
   -5.5274    6.0473   -2.4003 H   0  0  0  0  0  0  0  0  0  0  0  0
   -6.6012    3.9007   -1.5238 H   0  0  0  0  0  0  0  0  0  0  0  0
   -6.3054    2.5484    1.1334 S   0  0  0  0  0  0  0  0  0  0  0  0
   -7.0137    2.6585    2.4168 O   0  0  0  0  0  0  0  0  0  0  0  0
   -4.8416    2.2717    1.2216 O   0  0  0  0  0  0  0  0  0  0  0  0
   -6.9914    1.8278    0.0402 O   0  0  0  0  0  0  0  0  0  0  0  0
   -5.8865    8.3666   -0.9507 C   0  0  0  0  0  0  0  0  0  0  0  0
   -6.8362    8.8926   -0.8025 H   0  0  0  0  0  0  0  0  0  0  0  0
   -5.1251    8.8995   -0.3713 H   0  0  0  0  0  0  0  0  0  0  0  0
   -5.6204    8.4412   -2.0074 H   0  0  0  0  0  0  0  0  0  0  0  0
  1  2  1  0  0  0  0
  1 11  2  0  0  0  0
  3  2  1  0  0  0  0
  4  1  1  0  0  0  0
  5  4  2  0  0  0  0
  5  6  1  0  0  0  0
  6 10  2  0  0  0  0
  7  6  1  0  0  0  0
  7  9  2  0  0  0  0
  8  7  2  0  0  0  0
 10 11  1  0  0  0  0
 10 14  1  0  0  0  0
 11 15  1  0  0  0  0
 12 20  1  0  0  0  0
 13  5  1  0  0  0  0
 16 22  1  0  0  0  0
 17 16  1  0  0  0  0
 17 23  1  0  0  0  0
 18 17  1  0  0  0  0
 19 20  1  0  0  0  0
 19 18  2  0  0  0  0
 20 21  1  0  0  0  0
 21 26  1  0  0  0  0
 21 16  2  0  0  0  0
 24 19  1  0  0  0  0
 25 20  1  0  0  0  0
 26 28  2  0  0  0  0
 26 27  1  0  0  0  0
 29 26  2  0  0  0  0
 30 31  1  0  0  0  0
 30 18  1  0  0  0  0
 30 32  1  0  0  0  0
 33 30  1  0  0  0  0
M  RAD  5   2   2   3   3   4   2  17   2  27   2
M  END
