Coordinates from ORCA-job 4-NO2PhN2+~TsO-_B3LYPG-6-31G_dp-CH-Scan-d09-49-n800
 OpenBabel11261919023D

 33 33  0  0  0  0  0  0  0  0999 V2000
   -2.9547    0.8356   -0.9695 C   0  0  0  0  0  0  0  0  0  0  0  0
   -3.9329   -0.1708   -0.7880 N   0  0  0  0  0  0  0  0  0  0  0  0
   -4.6858   -0.9894   -0.7416 N   0  0  0  0  0  0  0  0  0  0  0  0
   -2.4273    0.8193   -2.2595 C   0  0  0  0  0  0  0  0  0  0  0  0
   -1.4621    1.8644   -2.3912 C   0  0  0  0  0  0  0  0  0  0  0  0
   -1.1433    2.7119   -1.3389 C   0  0  0  0  0  0  0  0  0  0  0  0
   -0.1627    3.8006   -1.5562 N   0  0  0  0  0  0  0  0  0  0  0  0
    0.5686    3.7302   -2.5397 O   0  0  0  0  0  0  0  0  0  0  0  0
   -0.1603    4.7297   -0.7440 O   0  0  0  0  0  0  0  0  0  0  0  0
   -1.7349    2.6320   -0.0577 C   0  0  0  0  0  0  0  0  0  0  0  0
   -2.6864    1.6547    0.1552 C   0  0  0  0  0  0  0  0  0  0  0  0
   -4.0184    3.9623   -0.2032 H   0  0  0  0  0  0  0  0  0  0  0  0
   -0.9544    2.0285   -3.3387 H   0  0  0  0  0  0  0  0  0  0  0  0
   -1.4339    3.3207    0.7211 H   0  0  0  0  0  0  0  0  0  0  0  0
   -3.2124    1.5582    1.1005 H   0  0  0  0  0  0  0  0  0  0  0  0
   -6.6218    5.2423    1.1359 C   0  0  0  0  0  0  0  0  0  0  0  0
   -6.3793    6.5224    0.6457 C   0  0  0  0  0  0  0  0  0  0  0  0
   -5.4699    6.8162   -0.4196 C   0  0  0  0  0  0  0  0  0  0  0  0
   -4.8111    5.7606   -0.9880 C   0  0  0  0  0  0  0  0  0  0  0  0
   -5.0001    4.3758   -0.5199 C   0  0  0  0  0  0  0  0  0  0  0  0
   -5.9537    4.1613    0.5777 C   0  0  0  0  0  0  0  0  0  0  0  0
   -7.3367    5.0668    1.9331 H   0  0  0  0  0  0  0  0  0  0  0  0
   -6.9180    7.3560    1.0929 H   0  0  0  0  0  0  0  0  0  0  0  0
   -4.1100    5.9246   -1.8026 H   0  0  0  0  0  0  0  0  0  0  0  0
   -5.2397    3.6853   -1.3473 H   0  0  0  0  0  0  0  0  0  0  0  0
   -6.1781    2.4907    1.2467 S   0  0  0  0  0  0  0  0  0  0  0  0
   -7.5193    2.5135    1.8467 O   0  0  0  0  0  0  0  0  0  0  0  0
   -5.0323    2.4987    2.1996 O   0  0  0  0  0  0  0  0  0  0  0  0
   -5.9877    1.6128    0.0695 O   0  0  0  0  0  0  0  0  0  0  0  0
   -5.2792    8.2426   -0.8702 C   0  0  0  0  0  0  0  0  0  0  0  0
   -6.2271    8.6814   -1.1999 H   0  0  0  0  0  0  0  0  0  0  0  0
   -4.8987    8.8643   -0.0524 H   0  0  0  0  0  0  0  0  0  0  0  0
   -4.5702    8.3044   -1.6988 H   0  0  0  0  0  0  0  0  0  0  0  0
  1  2  1  0  0  0  0
  1 11  2  0  0  0  0
  2  3  1  0  0  0  0
  4  1  1  0  0  0  0
  5  4  2  0  0  0  0
  5  6  1  0  0  0  0
  6 10  2  0  0  0  0
  7  6  1  0  0  0  0
  7  9  2  0  0  0  0
  8  7  2  0  0  0  0
 10 11  1  0  0  0  0
 10 14  1  0  0  0  0
 11 15  1  0  0  0  0
 13  5  1  0  0  0  0
 16 22  1  0  0  0  0
 17 23  1  0  0  0  0
 17 16  1  0  0  0  0
 18 17  1  0  0  0  0
 19 20  1  0  0  0  0
 19 18  2  0  0  0  0
 20 12  1  0  0  0  0
 20 21  1  0  0  0  0
 21 16  2  0  0  0  0
 21 26  1  0  0  0  0
 24 19  1  0  0  0  0
 25 20  1  0  0  0  0
 26 27  2  0  0  0  0
 26 28  1  0  0  0  0
 29 26  2  0  0  0  0
 30 18  1  0  0  0  0
 30 32  1  0  0  0  0
 31 30  1  0  0  0  0
 33 30  1  0  0  0  0
M  RAD  5   2   2   3   3   4   2  17   2  28   2
M  END
