Coordinates from ORCA-job 4-NO2PhN2+~TsO-_B3LYPG-6-31G_dp-CH-Scan-d09-49-n800
 OpenBabel11261919033D

 33 33  0  0  0  0  0  0  0  0999 V2000
   -2.8848    0.7751   -0.9661 C   0  0  0  0  0  0  0  0  0  0  0  0
   -3.9054   -0.1764   -0.7413 N   0  0  0  0  0  0  0  0  0  0  0  0
   -4.6920   -0.9598   -0.6551 N   0  0  0  0  0  0  0  0  0  0  0  0
   -2.2691    0.5953   -2.2040 C   0  0  0  0  0  0  0  0  0  0  0  0
   -1.2562    1.5851   -2.3832 C   0  0  0  0  0  0  0  0  0  0  0  0
   -0.9589    2.5208   -1.4014 C   0  0  0  0  0  0  0  0  0  0  0  0
    0.0993    3.5259   -1.6542 N   0  0  0  0  0  0  0  0  0  0  0  0
    0.8763    3.3227   -2.5830 O   0  0  0  0  0  0  0  0  0  0  0  0
    0.1205    4.5222   -0.9265 O   0  0  0  0  0  0  0  0  0  0  0  0
   -1.6385    2.6060   -0.1654 C   0  0  0  0  0  0  0  0  0  0  0  0
   -2.6535    1.7039    0.0799 C   0  0  0  0  0  0  0  0  0  0  0  0
   -4.0667    4.1142   -0.2136 H   0  0  0  0  0  0  0  0  0  0  0  0
   -0.6888    1.6308   -3.3095 H   0  0  0  0  0  0  0  0  0  0  0  0
   -1.3508    3.3584    0.5575 H   0  0  0  0  0  0  0  0  0  0  0  0
   -3.2394    1.7249    0.9952 H   0  0  0  0  0  0  0  0  0  0  0  0
   -6.7251    5.2700    1.1570 C   0  0  0  0  0  0  0  0  0  0  0  0
   -6.5288    6.5720    0.7049 C   0  0  0  0  0  0  0  0  0  0  0  0
   -5.6220    6.9307   -0.3431 C   0  0  0  0  0  0  0  0  0  0  0  0
   -4.9164    5.9187   -0.9337 C   0  0  0  0  0  0  0  0  0  0  0  0
   -5.0582    4.5128   -0.5100 C   0  0  0  0  0  0  0  0  0  0  0  0
   -6.0098    4.2323    0.5762 C   0  0  0  0  0  0  0  0  0  0  0  0
   -7.4390    5.0439    1.9423 H   0  0  0  0  0  0  0  0  0  0  0  0
   -7.1038    7.3712    1.1695 H   0  0  0  0  0  0  0  0  0  0  0  0
   -4.2157    6.1332   -1.7370 H   0  0  0  0  0  0  0  0  0  0  0  0
   -5.2888    3.8485   -1.3619 H   0  0  0  0  0  0  0  0  0  0  0  0
   -6.1757    2.5359    1.1925 S   0  0  0  0  0  0  0  0  0  0  0  0
   -7.5139    2.4926    1.7972 O   0  0  0  0  0  0  0  0  0  0  0  0
   -5.0268    2.5527    2.1421 O   0  0  0  0  0  0  0  0  0  0  0  0
   -5.9584    1.7045   -0.0133 O   0  0  0  0  0  0  0  0  0  0  0  0
   -5.4853    8.3758   -0.7517 C   0  0  0  0  0  0  0  0  0  0  0  0
   -6.4471    8.7843   -1.0801 H   0  0  0  0  0  0  0  0  0  0  0  0
   -5.1401    8.9893    0.0876 H   0  0  0  0  0  0  0  0  0  0  0  0
   -4.7709    8.4903   -1.5699 H   0  0  0  0  0  0  0  0  0  0  0  0
  1  2  1  0  0  0  0
  1 11  2  0  0  0  0
  2  3  1  0  0  0  0
  4  1  1  0  0  0  0
  5  4  2  0  0  0  0
  5  6  1  0  0  0  0
  6 10  2  0  0  0  0
  7  6  1  0  0  0  0
  7  9  2  0  0  0  0
  8  7  2  0  0  0  0
 10 11  1  0  0  0  0
 10 14  1  0  0  0  0
 11 15  1  0  0  0  0
 13  5  1  0  0  0  0
 16 22  1  0  0  0  0
 17 16  1  0  0  0  0
 17 23  1  0  0  0  0
 18 17  1  0  0  0  0
 19 20  1  0  0  0  0
 19 18  2  0  0  0  0
 20 12  1  0  0  0  0
 20 21  1  0  0  0  0
 21 16  2  0  0  0  0
 21 26  1  0  0  0  0
 24 19  1  0  0  0  0
 25 20  1  0  0  0  0
 26 27  2  0  0  0  0
 26 28  1  0  0  0  0
 29 26  2  0  0  0  0
 30 18  1  0  0  0  0
 30 32  1  0  0  0  0
 31 30  1  0  0  0  0
 33 30  1  0  0  0  0
M  RAD  5   2   2   3   3   4   2  17   2  28   2
M  END
