Coordinates from ORCA-job 4-NO2PhN2+~TsO-_B3LYPG-6-31G_dp-CH-Scan-d09-49-n800
 OpenBabel11261919023D

 33 34  0  0  0  0  0  0  0  0999 V2000
   -2.7556    1.0936   -0.1822 C   0  0  0  0  0  0  0  0  0  0  0  0
   -3.8516    0.3244    0.3114 N   0  0  0  0  0  0  0  0  0  0  0  0
   -4.9776    0.7337    0.4989 N   0  0  0  0  0  0  0  0  0  0  0  0
   -2.7237    1.5618   -1.4959 C   0  0  0  0  0  0  0  0  0  0  0  0
   -1.6073    2.2047   -2.0004 C   0  0  0  0  0  0  0  0  0  0  0  0
   -0.5127    2.3752   -1.1500 C   0  0  0  0  0  0  0  0  0  0  0  0
    0.6813    3.0663   -1.6629 N   0  0  0  0  0  0  0  0  0  0  0  0
    0.6489    3.4694   -2.8246 O   0  0  0  0  0  0  0  0  0  0  0  0
    1.6319    3.2045   -0.8947 O   0  0  0  0  0  0  0  0  0  0  0  0
   -0.5099    1.9071    0.1627 C   0  0  0  0  0  0  0  0  0  0  0  0
   -1.6341    1.2429    0.6435 C   0  0  0  0  0  0  0  0  0  0  0  0
   -3.8829    1.3565   -2.3350 H   0  0  0  0  0  0  0  0  0  0  0  0
   -1.5629    2.5762   -3.0153 H   0  0  0  0  0  0  0  0  0  0  0  0
    0.3675    2.0565    0.7792 H   0  0  0  0  0  0  0  0  0  0  0  0
   -1.6567    0.8465    1.6523 H   0  0  0  0  0  0  0  0  0  0  0  0
   -6.0700    5.2516    1.2086 C   0  0  0  0  0  0  0  0  0  0  0  0
   -5.8599    6.6037    0.9517 C   0  0  0  0  0  0  0  0  0  0  0  0
   -6.0004    7.1276   -0.3424 C   0  0  0  0  0  0  0  0  0  0  0  0
   -6.3593    6.2584   -1.3838 C   0  0  0  0  0  0  0  0  0  0  0  0
   -6.5740    4.9027   -1.1493 C   0  0  0  0  0  0  0  0  0  0  0  0
   -6.4217    4.4130    0.1491 C   0  0  0  0  0  0  0  0  0  0  0  0
   -5.9728    4.8486    2.2106 H   0  0  0  0  0  0  0  0  0  0  0  0
   -5.5846    7.2646    1.7687 H   0  0  0  0  0  0  0  0  0  0  0  0
   -6.4761    6.6496   -2.3906 H   0  0  0  0  0  0  0  0  0  0  0  0
   -6.8642    4.2327   -1.9508 H   0  0  0  0  0  0  0  0  0  0  0  0
   -6.6993    2.6848    0.4654 S   0  0  0  0  0  0  0  0  0  0  0  0
   -7.0165    2.4775    1.8729 O   0  0  0  0  0  0  0  0  0  0  0  0
   -5.1005    2.1985    0.2109 O   0  0  0  0  0  0  0  0  0  0  0  0
   -7.5132    2.1058   -0.5973 O   0  0  0  0  0  0  0  0  0  0  0  0
   -5.8018    8.6008   -0.6028 C   0  0  0  0  0  0  0  0  0  0  0  0
   -6.7474    9.1461   -0.4938 H   0  0  0  0  0  0  0  0  0  0  0  0
   -5.0891    9.0399    0.1012 H   0  0  0  0  0  0  0  0  0  0  0  0
   -5.4374    8.7826   -1.6177 H   0  0  0  0  0  0  0  0  0  0  0  0
  1  2  1  0  0  0  0
  1 11  2  0  0  0  0
  2  3  1  0  0  0  0
  4  1  1  0  0  0  0
  5  4  2  0  0  0  0
  5  6  1  0  0  0  0
  6 10  2  0  0  0  0
  7  6  1  0  0  0  0
  7  9  2  0  0  0  0
  8  7  2  0  0  0  0
 10 11  1  0  0  0  0
 10 14  1  0  0  0  0
 11 15  1  0  0  0  0
 12  4  1  0  0  0  0
 13  5  1  0  0  0  0
 16 22  1  0  0  0  0
 17 16  1  0  0  0  0
 17 23  1  0  0  0  0
 18 17  2  0  0  0  0
 19 20  2  0  0  0  0
 19 18  1  0  0  0  0
 20 21  1  0  0  0  0
 21 26  1  0  0  0  0
 21 16  2  0  0  0  0
 24 19  1  0  0  0  0
 25 20  1  0  0  0  0
 26 27  2  0  0  0  0
 28 26  1  0  0  0  0
 28  3  1  0  0  0  0
 29 26  2  0  0  0  0
 30 31  1  0  0  0  0
 30 18  1  0  0  0  0
 30 32  1  0  0  0  0
 33 30  1  0  0  0  0
M  RAD  2   2   2   3   2
M  END
