Coordinates from ORCA-job 4-NO2PhN2+~TsO-_B3LYPG-6-31G_dp-CH-Scan-d09-49-n800
 OpenBabel11261919023D

 33 33  0  0  0  0  0  0  0  0999 V2000
   -2.7724    1.0872   -0.2060 C   0  0  0  0  0  0  0  0  0  0  0  0
   -3.8663    0.3034    0.2709 N   0  0  0  0  0  0  0  0  0  0  0  0
   -4.9896    0.7175    0.4692 N   0  0  0  0  0  0  0  0  0  0  0  0
   -2.7066    1.5175   -1.5289 C   0  0  0  0  0  0  0  0  0  0  0  0
   -1.5995    2.1775   -2.0263 C   0  0  0  0  0  0  0  0  0  0  0  0
   -0.5360    2.4038   -1.1489 C   0  0  0  0  0  0  0  0  0  0  0  0
    0.6535    3.1129   -1.6471 N   0  0  0  0  0  0  0  0  0  0  0  0
    0.6487    3.4727   -2.8234 O   0  0  0  0  0  0  0  0  0  0  0  0
    1.5780    3.2967   -0.8570 O   0  0  0  0  0  0  0  0  0  0  0  0
   -0.5610    1.9755    0.1773 C   0  0  0  0  0  0  0  0  0  0  0  0
   -1.6809    1.2959    0.6470 C   0  0  0  0  0  0  0  0  0  0  0  0
   -3.9133    1.2311   -2.4516 H   0  0  0  0  0  0  0  0  0  0  0  0
   -1.5367    2.5194   -3.0505 H   0  0  0  0  0  0  0  0  0  0  0  0
    0.2926    2.1687    0.8145 H   0  0  0  0  0  0  0  0  0  0  0  0
   -1.7228    0.9324    1.6677 H   0  0  0  0  0  0  0  0  0  0  0  0
   -6.0479    5.2423    1.2195 C   0  0  0  0  0  0  0  0  0  0  0  0
   -5.8299    6.5927    0.9593 C   0  0  0  0  0  0  0  0  0  0  0  0
   -5.9722    7.1152   -0.3351 C   0  0  0  0  0  0  0  0  0  0  0  0
   -6.3411    6.2465   -1.3736 C   0  0  0  0  0  0  0  0  0  0  0  0
   -6.5639    4.8929   -1.1359 C   0  0  0  0  0  0  0  0  0  0  0  0
   -6.4095    4.4045    0.1629 C   0  0  0  0  0  0  0  0  0  0  0  0
   -5.9488    4.8403    2.2218 H   0  0  0  0  0  0  0  0  0  0  0  0
   -5.5468    7.2532    1.7740 H   0  0  0  0  0  0  0  0  0  0  0  0
   -6.4592    6.6367   -2.3806 H   0  0  0  0  0  0  0  0  0  0  0  0
   -6.8614    4.2233   -1.9351 H   0  0  0  0  0  0  0  0  0  0  0  0
   -6.6966    2.6788    0.4828 S   0  0  0  0  0  0  0  0  0  0  0  0
   -6.9953    2.4730    1.8946 O   0  0  0  0  0  0  0  0  0  0  0  0
   -5.1018    2.1811    0.2081 O   0  0  0  0  0  0  0  0  0  0  0  0
   -7.5274    2.1049   -0.5690 O   0  0  0  0  0  0  0  0  0  0  0  0
   -5.7645    8.5864   -0.5993 C   0  0  0  0  0  0  0  0  0  0  0  0
   -6.7086    9.1363   -0.5007 H   0  0  0  0  0  0  0  0  0  0  0  0
   -5.0559    9.0249    0.1090 H   0  0  0  0  0  0  0  0  0  0  0  0
   -5.3907    8.7625   -1.6119 H   0  0  0  0  0  0  0  0  0  0  0  0
  1  2  1  0  0  0  0
  1 11  2  0  0  0  0
  2  3  1  0  0  0  0
  4  1  1  0  0  0  0
  5  4  2  0  0  0  0
  5  6  1  0  0  0  0
  6 10  2  0  0  0  0
  7  6  1  0  0  0  0
  7  9  2  0  0  0  0
  8  7  2  0  0  0  0
 10 11  1  0  0  0  0
 10 14  1  0  0  0  0
 11 15  1  0  0  0  0
 13  5  1  0  0  0  0
 16 22  1  0  0  0  0
 17 16  1  0  0  0  0
 17 23  1  0  0  0  0
 18 17  2  0  0  0  0
 19 20  2  0  0  0  0
 19 18  1  0  0  0  0
 20 21  1  0  0  0  0
 21 26  1  0  0  0  0
 21 16  2  0  0  0  0
 24 19  1  0  0  0  0
 25 20  1  0  0  0  0
 26 27  2  0  0  0  0
 28  3  1  0  0  0  0
 28 26  1  0  0  0  0
 29 26  2  0  0  0  0
 30 31  1  0  0  0  0
 30 18  1  0  0  0  0
 30 32  1  0  0  0  0
 33 30  1  0  0  0  0
M  RAD  4   2   2   3   2   4   2  12   2
M  END
