Coordinates from ORCA-job 4-NO2PhN2+~TsO-_B3LYPG-6-31G_dp-CH-Scan-d09-49-n800
 OpenBabel11261919023D

 33 34  0  0  0  0  0  0  0  0999 V2000
   -2.7409    1.1000   -0.1645 C   0  0  0  0  0  0  0  0  0  0  0  0
   -3.8400    0.3431    0.3396 N   0  0  0  0  0  0  0  0  0  0  0  0
   -4.9681    0.7482    0.5187 N   0  0  0  0  0  0  0  0  0  0  0  0
   -2.7365    1.6125   -1.4641 C   0  0  0  0  0  0  0  0  0  0  0  0
   -1.6108    2.2406   -1.9714 C   0  0  0  0  0  0  0  0  0  0  0  0
   -0.4900    2.3518   -1.1466 C   0  0  0  0  0  0  0  0  0  0  0  0
    0.7094    3.0274   -1.6681 N   0  0  0  0  0  0  0  0  0  0  0  0
    0.6574    3.4721   -2.8138 O   0  0  0  0  0  0  0  0  0  0  0  0
    1.6862    3.1054   -0.9249 O   0  0  0  0  0  0  0  0  0  0  0  0
   -0.4651    1.8381    0.1487 C   0  0  0  0  0  0  0  0  0  0  0  0
   -1.5944    1.1876    0.6350 C   0  0  0  0  0  0  0  0  0  0  0  0
   -3.8478    1.4812   -2.2292 H   0  0  0  0  0  0  0  0  0  0  0  0
   -1.5808    2.6460   -2.9739 H   0  0  0  0  0  0  0  0  0  0  0  0
    0.4323    1.9412    0.7455 H   0  0  0  0  0  0  0  0  0  0  0  0
   -1.6023    0.7544    1.6288 H   0  0  0  0  0  0  0  0  0  0  0  0
   -6.0838    5.2610    1.1979 C   0  0  0  0  0  0  0  0  0  0  0  0
   -5.8816    6.6144    0.9412 C   0  0  0  0  0  0  0  0  0  0  0  0
   -6.0281    7.1382   -0.3524 C   0  0  0  0  0  0  0  0  0  0  0  0
   -6.3845    6.2675   -1.3933 C   0  0  0  0  0  0  0  0  0  0  0  0
   -6.5911    4.9105   -1.1589 C   0  0  0  0  0  0  0  0  0  0  0  0
   -6.4332    4.4208    0.1389 C   0  0  0  0  0  0  0  0  0  0  0  0
   -5.9823    4.8582    2.1996 H   0  0  0  0  0  0  0  0  0  0  0  0
   -5.6083    7.2764    1.7579 H   0  0  0  0  0  0  0  0  0  0  0  0
   -6.5060    6.6586   -2.3995 H   0  0  0  0  0  0  0  0  0  0  0  0
   -6.8800    4.2392   -1.9598 H   0  0  0  0  0  0  0  0  0  0  0  0
   -6.7012    2.6908    0.4553 S   0  0  0  0  0  0  0  0  0  0  0  0
   -7.0255    2.4837    1.8614 O   0  0  0  0  0  0  0  0  0  0  0  0
   -5.1005    2.2138    0.2095 O   0  0  0  0  0  0  0  0  0  0  0  0
   -7.5073    2.1069   -0.6109 O   0  0  0  0  0  0  0  0  0  0  0  0
   -5.8383    8.6126   -0.6120 C   0  0  0  0  0  0  0  0  0  0  0  0
   -6.7840    9.1546   -0.4875 H   0  0  0  0  0  0  0  0  0  0  0  0
   -5.1169    9.0525    0.0825 H   0  0  0  0  0  0  0  0  0  0  0  0
   -5.4896    8.7984   -1.6317 H   0  0  0  0  0  0  0  0  0  0  0  0
  1  2  1  0  0  0  0
  1 11  2  0  0  0  0
  2  3  1  0  0  0  0
  4  1  1  0  0  0  0
  5  4  2  0  0  0  0
  5  6  1  0  0  0  0
  6 10  2  0  0  0  0
  7  6  1  0  0  0  0
  7  9  2  0  0  0  0
  8  7  2  0  0  0  0
 10 11  1  0  0  0  0
 10 14  1  0  0  0  0
 11 15  1  0  0  0  0
 12  4  1  0  0  0  0
 13  5  1  0  0  0  0
 16 22  1  0  0  0  0
 17 16  1  0  0  0  0
 17 23  1  0  0  0  0
 18 17  2  0  0  0  0
 19 20  2  0  0  0  0
 19 18  1  0  0  0  0
 20 21  1  0  0  0  0
 21 26  1  0  0  0  0
 21 16  2  0  0  0  0
 24 19  1  0  0  0  0
 25 20  1  0  0  0  0
 26 27  2  0  0  0  0
 28 26  1  0  0  0  0
 28  3  1  0  0  0  0
 29 26  2  0  0  0  0
 30 31  1  0  0  0  0
 30 18  1  0  0  0  0
 30 32  1  0  0  0  0
 33 30  1  0  0  0  0
M  RAD  2   2   2   3   2
M  END
