Coordinates from ORCA-job 4-NO2PhN2+~TsO-_B3LYPG-6-31G_dp-CH-Scan-d09-49-n800
 OpenBabel11261919023D

 33 34  0  0  0  0  0  0  0  0999 V2000
   -2.6439    1.1176   -0.1754 C   0  0  0  0  0  0  0  0  0  0  0  0
   -3.7996    0.4375    0.2914 N   0  0  0  0  0  0  0  0  0  0  0  0
   -4.9270    0.8184    0.4747 N   0  0  0  0  0  0  0  0  0  0  0  0
   -2.6535    2.1118   -1.1668 C   0  0  0  0  0  0  0  0  0  0  0  0
   -1.4464    2.6432   -1.6059 C   0  0  0  0  0  0  0  0  0  0  0  0
   -0.2575    2.1870   -1.0390 C   0  0  0  0  0  0  0  0  0  0  0  0
    1.0179    2.7684   -1.4984 N   0  0  0  0  0  0  0  0  0  0  0  0
    0.9643    3.6437   -2.3598 O   0  0  0  0  0  0  0  0  0  0  0  0
    2.0513    2.3396   -0.9892 O   0  0  0  0  0  0  0  0  0  0  0  0
   -0.2296    1.1946   -0.0616 C   0  0  0  0  0  0  0  0  0  0  0  0
   -1.4349    0.6417    0.3530 C   0  0  0  0  0  0  0  0  0  0  0  0
   -3.6149    2.4659   -1.5945 H   0  0  0  0  0  0  0  0  0  0  0  0
   -1.4115    3.4090   -2.3705 H   0  0  0  0  0  0  0  0  0  0  0  0
    0.7194    0.8634    0.3394 H   0  0  0  0  0  0  0  0  0  0  0  0
   -1.4607   -0.1544    1.0889 H   0  0  0  0  0  0  0  0  0  0  0  0
   -6.0553    5.3963    1.1253 C   0  0  0  0  0  0  0  0  0  0  0  0
   -5.9387    6.7434    0.7934 C   0  0  0  0  0  0  0  0  0  0  0  0
   -6.2720    7.2072   -0.4888 C   0  0  0  0  0  0  0  0  0  0  0  0
   -6.7272    6.2821   -1.4399 C   0  0  0  0  0  0  0  0  0  0  0  0
   -6.8510    4.9298   -1.1285 C   0  0  0  0  0  0  0  0  0  0  0  0
   -6.5080    4.5000    0.1547 C   0  0  0  0  0  0  0  0  0  0  0  0
   -5.8106    5.0397    2.1195 H   0  0  0  0  0  0  0  0  0  0  0  0
   -5.5881    7.4485    1.5421 H   0  0  0  0  0  0  0  0  0  0  0  0
   -6.9939    6.6265   -2.4351 H   0  0  0  0  0  0  0  0  0  0  0  0
   -7.2178    4.2159   -1.8576 H   0  0  0  0  0  0  0  0  0  0  0  0
   -6.6710    2.7744    0.5685 S   0  0  0  0  0  0  0  0  0  0  0  0
   -6.8336    2.6250    2.0110 O   0  0  0  0  0  0  0  0  0  0  0  0
   -5.1099    2.3384    0.1693 O   0  0  0  0  0  0  0  0  0  0  0  0
   -7.5837    2.1284   -0.3696 O   0  0  0  0  0  0  0  0  0  0  0  0
   -6.1747    8.6754   -0.8248 C   0  0  0  0  0  0  0  0  0  0  0  0
   -7.0930    9.2024   -0.5362 H   0  0  0  0  0  0  0  0  0  0  0  0
   -5.3466    9.1541   -0.2944 H   0  0  0  0  0  0  0  0  0  0  0  0
   -6.0317    8.8328   -1.8975 H   0  0  0  0  0  0  0  0  0  0  0  0
  1  2  1  0  0  0  0
  1 11  2  0  0  0  0
  2  3  1  0  0  0  0
  4  1  1  0  0  0  0
  5  4  2  0  0  0  0
  5  6  1  0  0  0  0
  6 10  2  0  0  0  0
  7  6  1  0  0  0  0
  7  9  2  0  0  0  0
  8  7  2  0  0  0  0
 10 14  1  0  0  0  0
 10 11  1  0  0  0  0
 11 15  1  0  0  0  0
 12  4  1  0  0  0  0
 13  5  1  0  0  0  0
 16 22  1  0  0  0  0
 17 16  1  0  0  0  0
 17 23  1  0  0  0  0
 18 17  2  0  0  0  0
 19 20  2  0  0  0  0
 19 18  1  0  0  0  0
 20 21  1  0  0  0  0
 21 26  1  0  0  0  0
 21 16  2  0  0  0  0
 24 19  1  0  0  0  0
 25 20  1  0  0  0  0
 26 27  2  0  0  0  0
 28  3  1  0  0  0  0
 28 26  1  0  0  0  0
 29 26  2  0  0  0  0
 30 31  1  0  0  0  0
 30 18  1  0  0  0  0
 30 32  1  0  0  0  0
 33 30  1  0  0  0  0
M  RAD  2   2   2   3   2
M  END
