Coordinates from ORCA-job 4-NO2PhN2+~TsO-_B3LYPG-6-31G_dp-CH-Scan-d09-49-n800
 OpenBabel11261919023D

 33 34  0  0  0  0  0  0  0  0999 V2000
   -2.7250    1.1037   -0.1625 C   0  0  0  0  0  0  0  0  0  0  0  0
   -3.8332    0.3590    0.3369 N   0  0  0  0  0  0  0  0  0  0  0  0
   -4.9621    0.7605    0.5118 N   0  0  0  0  0  0  0  0  0  0  0  0
   -2.7329    1.6878   -1.4326 C   0  0  0  0  0  0  0  0  0  0  0  0
   -1.5937    2.3000   -1.9308 C   0  0  0  0  0  0  0  0  0  0  0  0
   -0.4513    2.3250   -1.1293 C   0  0  0  0  0  0  0  0  0  0  0  0
    0.7608    2.9844   -1.6429 N   0  0  0  0  0  0  0  0  0  0  0  0
    0.7010    3.4888   -2.7631 O   0  0  0  0  0  0  0  0  0  0  0  0
    1.7575    2.9817   -0.9226 O   0  0  0  0  0  0  0  0  0  0  0  0
   -0.4157    1.7393    0.1349 C   0  0  0  0  0  0  0  0  0  0  0  0
   -1.5572    1.1033    0.6111 C   0  0  0  0  0  0  0  0  0  0  0  0
   -3.8400    1.6438   -2.1603 H   0  0  0  0  0  0  0  0  0  0  0  0
   -1.5704    2.7581   -2.9106 H   0  0  0  0  0  0  0  0  0  0  0  0
    0.4985    1.7756    0.7136 H   0  0  0  0  0  0  0  0  0  0  0  0
   -1.5592    0.6137    1.5783 H   0  0  0  0  0  0  0  0  0  0  0  0
   -6.0778    5.2790    1.1860 C   0  0  0  0  0  0  0  0  0  0  0  0
   -5.8893    6.6325    0.9201 C   0  0  0  0  0  0  0  0  0  0  0  0
   -6.0673    7.1507   -0.3719 C   0  0  0  0  0  0  0  0  0  0  0  0
   -6.4411    6.2741   -1.4015 C   0  0  0  0  0  0  0  0  0  0  0  0
   -6.6346    4.9167   -1.1577 C   0  0  0  0  0  0  0  0  0  0  0  0
   -6.4454    4.4326    0.1379 C   0  0  0  0  0  0  0  0  0  0  0  0
   -5.9522    4.8806    2.1867 H   0  0  0  0  0  0  0  0  0  0  0  0
   -5.6023    7.2992    1.7283 H   0  0  0  0  0  0  0  0  0  0  0  0
   -6.5873    6.6609   -2.4062 H   0  0  0  0  0  0  0  0  0  0  0  0
   -6.9375    4.2408   -1.9495 H   0  0  0  0  0  0  0  0  0  0  0  0
   -6.6979    2.7021    0.4665 S   0  0  0  0  0  0  0  0  0  0  0  0
   -7.0016    2.5008    1.8782 O   0  0  0  0  0  0  0  0  0  0  0  0
   -5.1011    2.2327    0.2007 O   0  0  0  0  0  0  0  0  0  0  0  0
   -7.5181    2.1101   -0.5847 O   0  0  0  0  0  0  0  0  0  0  0  0
   -5.8924    8.6255   -0.6403 C   0  0  0  0  0  0  0  0  0  0  0  0
   -6.8336    9.1652   -0.4765 H   0  0  0  0  0  0  0  0  0  0  0  0
   -5.1442    9.0679    0.0236 H   0  0  0  0  0  0  0  0  0  0  0  0
   -5.5867    8.8115   -1.6736 H   0  0  0  0  0  0  0  0  0  0  0  0
  1  2  1  0  0  0  0
  1 11  2  0  0  0  0
  2  3  1  0  0  0  0
  4  1  1  0  0  0  0
  5  4  2  0  0  0  0
  5  6  1  0  0  0  0
  6 10  2  0  0  0  0
  7  6  1  0  0  0  0
  7  9  2  0  0  0  0
  8  7  2  0  0  0  0
 10 11  1  0  0  0  0
 10 14  1  0  0  0  0
 11 15  1  0  0  0  0
 12  4  1  0  0  0  0
 13  5  1  0  0  0  0
 16 22  1  0  0  0  0
 17 16  1  0  0  0  0
 17 23  1  0  0  0  0
 18 17  2  0  0  0  0
 19 20  2  0  0  0  0
 19 18  1  0  0  0  0
 20 21  1  0  0  0  0
 21 26  1  0  0  0  0
 21 16  2  0  0  0  0
 24 19  1  0  0  0  0
 25 20  1  0  0  0  0
 26 27  2  0  0  0  0
 28 26  1  0  0  0  0
 28  3  1  0  0  0  0
 29 26  2  0  0  0  0
 30 31  1  0  0  0  0
 30 18  1  0  0  0  0
 30 32  1  0  0  0  0
 33 30  1  0  0  0  0
M  RAD  2   2   2   3   2
M  END
