Coordinates from ORCA-job 4-NO2PhN2+~TsO-_B3LYPG-6-31G_dp-CH-Scan-d09-49-n800
 OpenBabel11261919023D

 33 33  0  0  0  0  0  0  0  0999 V2000
   -2.8972    0.7904   -0.9608 C   0  0  0  0  0  0  0  0  0  0  0  0
   -3.9048   -0.1773   -0.7431 N   0  0  0  0  0  0  0  0  0  0  0  0
   -4.6805   -0.9721   -0.6637 N   0  0  0  0  0  0  0  0  0  0  0  0
   -2.2967    0.6435   -2.2103 C   0  0  0  0  0  0  0  0  0  0  0  0
   -1.2983    1.6500   -2.3812 C   0  0  0  0  0  0  0  0  0  0  0  0
   -1.0027    2.5720   -1.3861 C   0  0  0  0  0  0  0  0  0  0  0  0
    0.0354    3.5990   -1.6337 N   0  0  0  0  0  0  0  0  0  0  0  0
    0.8066    3.4236   -2.5729 O   0  0  0  0  0  0  0  0  0  0  0  0
    0.0460    4.5845   -0.8913 O   0  0  0  0  0  0  0  0  0  0  0  0
   -1.6670    2.6232   -0.1398 C   0  0  0  0  0  0  0  0  0  0  0  0
   -2.6650    1.7009    0.1009 C   0  0  0  0  0  0  0  0  0  0  0  0
   -4.0675    4.0640   -0.2336 H   0  0  0  0  0  0  0  0  0  0  0  0
   -0.7418    1.7206   -3.3127 H   0  0  0  0  0  0  0  0  0  0  0  0
   -1.3811    3.3658    0.5940 H   0  0  0  0  0  0  0  0  0  0  0  0
   -3.2400    1.6966    1.0232 H   0  0  0  0  0  0  0  0  0  0  0  0
   -6.6940    5.2629    1.1578 C   0  0  0  0  0  0  0  0  0  0  0  0
   -6.4823    6.5600    0.6989 C   0  0  0  0  0  0  0  0  0  0  0  0
   -5.5814    6.9010   -0.3600 C   0  0  0  0  0  0  0  0  0  0  0  0
   -4.8984    5.8760   -0.9547 C   0  0  0  0  0  0  0  0  0  0  0  0
   -5.0568    4.4744   -0.5236 C   0  0  0  0  0  0  0  0  0  0  0  0
   -6.0010    4.2121    0.5730 C   0  0  0  0  0  0  0  0  0  0  0  0
   -7.4032    5.0510    1.9512 H   0  0  0  0  0  0  0  0  0  0  0  0
   -7.0399    7.3695    1.1666 H   0  0  0  0  0  0  0  0  0  0  0  0
   -4.2033    6.0767   -1.7662 H   0  0  0  0  0  0  0  0  0  0  0  0
   -5.3021    3.8081   -1.3697 H   0  0  0  0  0  0  0  0  0  0  0  0
   -6.1858    2.5208    1.1984 S   0  0  0  0  0  0  0  0  0  0  0  0
   -7.5270    2.4946    1.7976 O   0  0  0  0  0  0  0  0  0  0  0  0
   -5.0412    2.5336    2.1532 O   0  0  0  0  0  0  0  0  0  0  0  0
   -5.9714    1.6794   -0.0008 O   0  0  0  0  0  0  0  0  0  0  0  0
   -5.4261    8.3424   -0.7751 C   0  0  0  0  0  0  0  0  0  0  0  0
   -6.3851    8.7660   -1.0921 H   0  0  0  0  0  0  0  0  0  0  0  0
   -5.0593    8.9525    0.0575 H   0  0  0  0  0  0  0  0  0  0  0  0
   -4.7208    8.4422   -1.6031 H   0  0  0  0  0  0  0  0  0  0  0  0
  1  2  1  0  0  0  0
  1 11  2  0  0  0  0
  2  3  1  0  0  0  0
  4  1  1  0  0  0  0
  5  4  2  0  0  0  0
  5  6  1  0  0  0  0
  6 10  2  0  0  0  0
  7  6  1  0  0  0  0
  7  9  2  0  0  0  0
  8  7  2  0  0  0  0
 10 11  1  0  0  0  0
 10 14  1  0  0  0  0
 11 15  1  0  0  0  0
 13  5  1  0  0  0  0
 16 22  1  0  0  0  0
 17 16  1  0  0  0  0
 17 23  1  0  0  0  0
 18 17  1  0  0  0  0
 19 20  1  0  0  0  0
 19 18  2  0  0  0  0
 20 12  1  0  0  0  0
 20 21  1  0  0  0  0
 21 16  2  0  0  0  0
 21 26  1  0  0  0  0
 24 19  1  0  0  0  0
 25 20  1  0  0  0  0
 26 27  2  0  0  0  0
 26 28  1  0  0  0  0
 29 26  2  0  0  0  0
 30 18  1  0  0  0  0
 30 32  1  0  0  0  0
 31 30  1  0  0  0  0
 33 30  1  0  0  0  0
M  RAD  5   2   2   3   3   4   2  17   2  28   2
M  END
