Coordinates from ORCA-job 4-NO2PhN2+~TsO-_B3LYPG-6-31G_dp-CH-Scan-d09-49-n800
 OpenBabel11261919023D

 33 34  0  0  0  0  0  0  0  0999 V2000
   -2.5888    1.1467   -0.1175 C   0  0  0  0  0  0  0  0  0  0  0  0
   -3.7522    0.5065    0.3759 N   0  0  0  0  0  0  0  0  0  0  0  0
   -4.8758    0.8766    0.5826 N   0  0  0  0  0  0  0  0  0  0  0  0
   -2.5505    2.3959   -0.7668 C   0  0  0  0  0  0  0  0  0  0  0  0
   -1.3229    2.8719   -1.2200 C   0  0  0  0  0  0  0  0  0  0  0  0
   -0.1718    2.1149   -1.0154 C   0  0  0  0  0  0  0  0  0  0  0  0
    1.1215    2.6420   -1.4951 N   0  0  0  0  0  0  0  0  0  0  0  0
    1.1136    3.7346   -2.0576 O   0  0  0  0  0  0  0  0  0  0  0  0
    2.1197    1.9522   -1.3005 O   0  0  0  0  0  0  0  0  0  0  0  0
   -0.1963    0.8762   -0.3784 C   0  0  0  0  0  0  0  0  0  0  0  0
   -1.4202    0.3889    0.0615 C   0  0  0  0  0  0  0  0  0  0  0  0
   -3.3100    2.8816   -0.8908 H   0  0  0  0  0  0  0  0  0  0  0  0
   -1.2473    3.8264   -1.7252 H   0  0  0  0  0  0  0  0  0  0  0  0
    0.7234    0.3209   -0.2467 H   0  0  0  0  0  0  0  0  0  0  0  0
   -1.4955   -0.5755    0.5501 H   0  0  0  0  0  0  0  0  0  0  0  0
   -6.1186    5.4788    1.1019 C   0  0  0  0  0  0  0  0  0  0  0  0
   -6.0394    6.8173    0.7248 C   0  0  0  0  0  0  0  0  0  0  0  0
   -6.3808    7.2275   -0.5731 C   0  0  0  0  0  0  0  0  0  0  0  0
   -6.8052    6.2575   -1.4937 C   0  0  0  0  0  0  0  0  0  0  0  0
   -6.8911    4.9137   -1.1368 C   0  0  0  0  0  0  0  0  0  0  0  0
   -6.5413    4.5373    0.1615 C   0  0  0  0  0  0  0  0  0  0  0  0
   -5.8687    5.1631    2.1087 H   0  0  0  0  0  0  0  0  0  0  0  0
   -5.7126    7.5571    1.4504 H   0  0  0  0  0  0  0  0  0  0  0  0
   -7.0777    6.5600   -2.5010 H   0  0  0  0  0  0  0  0  0  0  0  0
   -7.2340    4.1651   -1.8425 H   0  0  0  0  0  0  0  0  0  0  0  0
   -6.6558    2.8213    0.6333 S   0  0  0  0  0  0  0  0  0  0  0  0
   -6.8046    2.7197    2.0821 O   0  0  0  0  0  0  0  0  0  0  0  0
   -5.0966    2.4087    0.2351 O   0  0  0  0  0  0  0  0  0  0  0  0
   -7.5660    2.1252   -0.2713 O   0  0  0  0  0  0  0  0  0  0  0  0
   -6.3264    8.6854   -0.9599 C   0  0  0  0  0  0  0  0  0  0  0  0
   -7.2845    9.1792   -0.7540 H   0  0  0  0  0  0  0  0  0  0  0  0
   -5.5573    9.2213   -0.3969 H   0  0  0  0  0  0  0  0  0  0  0  0
   -6.1199    8.8098   -2.0268 H   0  0  0  0  0  0  0  0  0  0  0  0
  1 11  1  0  0  0  0
  1  2  1  0  0  0  0
  2  3  1  0  0  0  0
  4  1  2  0  0  0  0
  5  6  2  0  0  0  0
  5  4  1  0  0  0  0
  6 10  1  0  0  0  0
  7  9  2  0  0  0  0
  7  6  1  0  0  0  0
  8  7  2  0  0  0  0
 10 14  1  0  0  0  0
 10 11  2  0  0  0  0
 11 15  1  0  0  0  0
 12  4  1  0  0  0  0
 13  5  1  0  0  0  0
 16 22  1  0  0  0  0
 17 16  1  0  0  0  0
 17 23  1  0  0  0  0
 18 17  2  0  0  0  0
 19 20  2  0  0  0  0
 19 18  1  0  0  0  0
 20 21  1  0  0  0  0
 21 26  1  0  0  0  0
 21 16  2  0  0  0  0
 24 19  1  0  0  0  0
 25 20  1  0  0  0  0
 26 27  2  0  0  0  0
 28  3  1  0  0  0  0
 28 26  1  0  0  0  0
 29 26  2  0  0  0  0
 30 31  1  0  0  0  0
 30 18  1  0  0  0  0
 30 32  1  0  0  0  0
 33 30  1  0  0  0  0
M  RAD  2   2   2   3   2
M  END
