Coordinates from ORCA-job 4-NO2PhN2+~TsO-_B3LYPG-6-31G_dp-CH-Scan-d09-49-n800
 OpenBabel11261919033D

 33 33  0  0  0  0  0  0  0  0999 V2000
   -2.8528    0.7327   -0.9827 C   0  0  0  0  0  0  0  0  0  0  0  0
   -3.9122   -0.1704   -0.7442 N   0  0  0  0  0  0  0  0  0  0  0  0
   -4.7293   -0.9202   -0.6443 N   0  0  0  0  0  0  0  0  0  0  0  0
   -2.2065    0.4718   -2.1905 C   0  0  0  0  0  0  0  0  0  0  0  0
   -1.1518    1.4113   -2.3864 C   0  0  0  0  0  0  0  0  0  0  0  0
   -0.8441    2.3782   -1.4380 C   0  0  0  0  0  0  0  0  0  0  0  0
    0.2663    3.3232   -1.7009 N   0  0  0  0  0  0  0  0  0  0  0  0
    1.0464    3.0551   -2.6107 O   0  0  0  0  0  0  0  0  0  0  0  0
    0.3244    4.3394   -1.0039 O   0  0  0  0  0  0  0  0  0  0  0  0
   -1.5557    2.5484   -0.2296 C   0  0  0  0  0  0  0  0  0  0  0  0
   -2.6146    1.7019    0.0251 C   0  0  0  0  0  0  0  0  0  0  0  0
   -4.0603    4.2613   -0.1534 H   0  0  0  0  0  0  0  0  0  0  0  0
   -0.5574    1.3915   -3.2964 H   0  0  0  0  0  0  0  0  0  0  0  0
   -1.2580    3.3216    0.4669 H   0  0  0  0  0  0  0  0  0  0  0  0
   -3.2233    1.7853    0.9221 H   0  0  0  0  0  0  0  0  0  0  0  0
   -6.8062    5.2888    1.1513 C   0  0  0  0  0  0  0  0  0  0  0  0
   -6.6558    6.6034    0.7166 C   0  0  0  0  0  0  0  0  0  0  0  0
   -5.7352    7.0126   -0.3003 C   0  0  0  0  0  0  0  0  0  0  0  0
   -4.9657    6.0399   -0.8767 C   0  0  0  0  0  0  0  0  0  0  0  0
   -5.0574    4.6233   -0.4718 C   0  0  0  0  0  0  0  0  0  0  0  0
   -6.0278    4.2907    0.5842 C   0  0  0  0  0  0  0  0  0  0  0  0
   -7.5309    5.0224    1.9139 H   0  0  0  0  0  0  0  0  0  0  0  0
   -7.2797    7.3712    1.1710 H   0  0  0  0  0  0  0  0  0  0  0  0
   -4.2513    6.2938   -1.6561 H   0  0  0  0  0  0  0  0  0  0  0  0
   -5.2426    3.9638   -1.3385 H   0  0  0  0  0  0  0  0  0  0  0  0
   -6.1367    2.5814    1.1767 S   0  0  0  0  0  0  0  0  0  0  0  0
   -7.4642    2.4888    1.7990 O   0  0  0  0  0  0  0  0  0  0  0  0
   -4.9744    2.6106    2.1089 O   0  0  0  0  0  0  0  0  0  0  0  0
   -5.9143    1.7776   -0.0475 O   0  0  0  0  0  0  0  0  0  0  0  0
   -5.6538    8.4664   -0.6928 C   0  0  0  0  0  0  0  0  0  0  0  0
   -6.6212    8.8300   -1.0556 H   0  0  0  0  0  0  0  0  0  0  0  0
   -5.3727    9.0885    0.1639 H   0  0  0  0  0  0  0  0  0  0  0  0
   -4.9148    8.6235   -1.4815 H   0  0  0  0  0  0  0  0  0  0  0  0
  1  2  1  0  0  0  0
  1 11  2  0  0  0  0
  2  3  1  0  0  0  0
  4  1  1  0  0  0  0
  5  4  2  0  0  0  0
  5  6  1  0  0  0  0
  6 10  2  0  0  0  0
  7  6  1  0  0  0  0
  7  9  2  0  0  0  0
  8  7  2  0  0  0  0
 10 11  1  0  0  0  0
 10 14  1  0  0  0  0
 11 15  1  0  0  0  0
 13  5  1  0  0  0  0
 16 22  1  0  0  0  0
 17 16  1  0  0  0  0
 17 23  1  0  0  0  0
 18 17  1  0  0  0  0
 19 20  1  0  0  0  0
 19 18  2  0  0  0  0
 20 12  1  0  0  0  0
 20 21  1  0  0  0  0
 21 16  2  0  0  0  0
 21 26  1  0  0  0  0
 24 19  1  0  0  0  0
 25 20  1  0  0  0  0
 26 27  2  0  0  0  0
 26 28  1  0  0  0  0
 29 26  2  0  0  0  0
 30 18  1  0  0  0  0
 30 32  1  0  0  0  0
 31 30  1  0  0  0  0
 33 30  1  0  0  0  0
M  RAD  5   2   2   3   3   4   2  17   2  28   2
M  END
