Coordinates from ORCA-job 4-NO2PhN2+~TsO-_B3LYPG-6-31G_dp-CH-Scan-d09-49-n800
 OpenBabel11261919023D

 33 33  0  0  0  0  0  0  0  0999 V2000
   -2.7730    1.0967   -0.2199 C   0  0  0  0  0  0  0  0  0  0  0  0
   -3.8693    0.2778    0.1937 N   0  0  0  0  0  0  0  0  0  0  0  0
   -4.9792    0.7099    0.4573 N   0  0  0  0  0  0  0  0  0  0  0  0
   -2.7046    1.7697   -1.4182 C   0  0  0  0  0  0  0  0  0  0  0  0
   -1.6468    2.4792   -1.9062 C   0  0  0  0  0  0  0  0  0  0  0  0
   -0.5176    2.4922   -1.0706 C   0  0  0  0  0  0  0  0  0  0  0  0
    0.6761    3.2338   -1.5169 N   0  0  0  0  0  0  0  0  0  0  0  0
    0.6119    3.8103   -2.6004 O   0  0  0  0  0  0  0  0  0  0  0  0
    1.6548    3.2271   -0.7731 O   0  0  0  0  0  0  0  0  0  0  0  0
   -0.4884    1.8233    0.1526 C   0  0  0  0  0  0  0  0  0  0  0  0
   -1.6088    1.1117    0.5721 C   0  0  0  0  0  0  0  0  0  0  0  0
   -5.0141    1.5646   -3.0883 H   0  0  0  0  0  0  0  0  0  0  0  0
   -1.6349    2.9987   -2.8562 H   0  0  0  0  0  0  0  0  0  0  0  0
    0.4116    1.8603    0.7530 H   0  0  0  0  0  0  0  0  0  0  0  0
   -1.6079    0.5710    1.5137 H   0  0  0  0  0  0  0  0  0  0  0  0
   -6.1240    5.2992    1.2701 C   0  0  0  0  0  0  0  0  0  0  0  0
   -5.9089    6.6329    0.9293 C   0  0  0  0  0  0  0  0  0  0  0  0
   -5.9335    7.0532   -0.4086 C   0  0  0  0  0  0  0  0  0  0  0  0
   -6.1788    6.0992   -1.4091 C   0  0  0  0  0  0  0  0  0  0  0  0
   -6.3994    4.7623   -1.0925 C   0  0  0  0  0  0  0  0  0  0  0  0
   -6.3656    4.3778    0.2506 C   0  0  0  0  0  0  0  0  0  0  0  0
   -6.1126    4.9730    2.3042 H   0  0  0  0  0  0  0  0  0  0  0  0
   -5.7197    7.3592    1.7146 H   0  0  0  0  0  0  0  0  0  0  0  0
   -6.2000    6.4096   -2.4502 H   0  0  0  0  0  0  0  0  0  0  0  0
   -6.5953    4.0277   -1.8656 H   0  0  0  0  0  0  0  0  0  0  0  0
   -6.6551    2.6764    0.6708 S   0  0  0  0  0  0  0  0  0  0  0  0
   -6.8907    2.5416    2.1024 O   0  0  0  0  0  0  0  0  0  0  0  0
   -5.0560    2.1575    0.3576 O   0  0  0  0  0  0  0  0  0  0  0  0
   -7.5198    2.0460   -0.3163 O   0  0  0  0  0  0  0  0  0  0  0  0
   -5.7298    8.5048   -0.7665 C   0  0  0  0  0  0  0  0  0  0  0  0
   -6.6936    9.0158   -0.8790 H   0  0  0  0  0  0  0  0  0  0  0  0
   -5.1670    9.0343    0.0073 H   0  0  0  0  0  0  0  0  0  0  0  0
   -5.1934    8.6107   -1.7141 H   0  0  0  0  0  0  0  0  0  0  0  0
  1  2  1  0  0  0  0
  1 11  2  0  0  0  0
  2  3  1  0  0  0  0
  4  1  1  0  0  0  0
  5  4  2  0  0  0  0
  5  6  1  0  0  0  0
  6 10  2  0  0  0  0
  7  6  1  0  0  0  0
  7  9  2  0  0  0  0
  8  7  2  0  0  0  0
 10 11  1  0  0  0  0
 10 14  1  0  0  0  0
 11 15  1  0  0  0  0
 13  5  1  0  0  0  0
 16 22  1  0  0  0  0
 17 16  1  0  0  0  0
 17 23  1  0  0  0  0
 18 17  2  0  0  0  0
 19 20  2  0  0  0  0
 19 18  1  0  0  0  0
 20 21  1  0  0  0  0
 21 26  1  0  0  0  0
 21 16  2  0  0  0  0
 24 19  1  0  0  0  0
 25 20  1  0  0  0  0
 26 27  2  0  0  0  0
 28  3  1  0  0  0  0
 28 26  1  0  0  0  0
 29 26  2  0  0  0  0
 30 18  1  0  0  0  0
 30 32  1  0  0  0  0
 31 30  1  0  0  0  0
 33 30  1  0  0  0  0
M  RAD  4   2   2   3   2   4   2  12   2
M  END
