Coordinates from ORCA-job 4-NO2PhN2+~TsO-_B3LYPG-6-31G_dp-CH-Scan-d09-49-n800
 OpenBabel11261919023D

 33 33  0  0  0  0  0  0  0  0999 V2000
   -2.2648    1.1976   -0.2885 C   0  0  0  0  0  0  0  0  0  0  0  0
   -3.5201    0.7252    0.1499 N   0  0  0  0  0  0  0  0  0  0  0  0
   -4.5250    0.3830    0.4865 N   0  0  0  0  0  0  0  0  0  0  0  0
   -2.3190    2.3581   -1.0604 C   0  0  0  0  0  0  0  0  0  0  0  0
   -1.0100    2.7471   -1.4579 C   0  0  0  0  0  0  0  0  0  0  0  0
    0.1172    2.0173   -1.1039 C   0  0  0  0  0  0  0  0  0  0  0  0
    1.4529    2.4762   -1.5628 N   0  0  0  0  0  0  0  0  0  0  0  0
    1.5024    3.4862   -2.2600 O   0  0  0  0  0  0  0  0  0  0  0  0
    2.4318    1.8157   -1.2150 O   0  0  0  0  0  0  0  0  0  0  0  0
    0.0769    0.8484   -0.3180 C   0  0  0  0  0  0  0  0  0  0  0  0
   -1.1556    0.4107    0.1142 C   0  0  0  0  0  0  0  0  0  0  0  0
   -5.1654    4.2506   -1.0704 H   0  0  0  0  0  0  0  0  0  0  0  0
   -0.8580    3.6388   -2.0597 H   0  0  0  0  0  0  0  0  0  0  0  0
    0.9940    0.3305   -0.0732 H   0  0  0  0  0  0  0  0  0  0  0  0
   -1.2634   -0.4801    0.7265 H   0  0  0  0  0  0  0  0  0  0  0  0
   -6.9839    5.6000    1.1716 C   0  0  0  0  0  0  0  0  0  0  0  0
   -6.8750    6.8828    0.6456 C   0  0  0  0  0  0  0  0  0  0  0  0
   -6.4317    7.1665   -0.6860 C   0  0  0  0  0  0  0  0  0  0  0  0
   -6.1033    6.1022   -1.4792 C   0  0  0  0  0  0  0  0  0  0  0  0
   -6.1720    4.7121   -0.9924 C   0  0  0  0  0  0  0  0  0  0  0  0
   -6.6492    4.5077    0.3815 C   0  0  0  0  0  0  0  0  0  0  0  0
   -7.3516    5.4314    2.1778 H   0  0  0  0  0  0  0  0  0  0  0  0
   -7.1522    7.7257    1.2765 H   0  0  0  0  0  0  0  0  0  0  0  0
   -5.7605    6.2616   -2.4982 H   0  0  0  0  0  0  0  0  0  0  0  0
   -6.7375    4.0502   -1.6704 H   0  0  0  0  0  0  0  0  0  0  0  0
   -6.7314    2.8245    1.0455 S   0  0  0  0  0  0  0  0  0  0  0  0
   -7.8296    2.8786    2.0254 O   0  0  0  0  0  0  0  0  0  0  0  0
   -5.3575    2.7595    1.6211 O   0  0  0  0  0  0  0  0  0  0  0  0
   -6.9406    1.9824   -0.1501 O   0  0  0  0  0  0  0  0  0  0  0  0
   -6.3525    8.5975   -1.1560 C   0  0  0  0  0  0  0  0  0  0  0  0
   -7.3308    9.0869   -1.0951 H   0  0  0  0  0  0  0  0  0  0  0  0
   -5.6598    9.1765   -0.5358 H   0  0  0  0  0  0  0  0  0  0  0  0
   -6.0086    8.6565   -2.1910 H   0  0  0  0  0  0  0  0  0  0  0  0
  1 11  1  0  0  0  0
  1  2  1  0  0  0  0
  2  3  1  0  0  0  0
  4  1  2  0  0  0  0
  5  6  2  0  0  0  0
  5  4  1  0  0  0  0
  6 10  1  0  0  0  0
  7  9  2  0  0  0  0
  7  6  1  0  0  0  0
  8  7  2  0  0  0  0
 10 14  1  0  0  0  0
 10 11  2  0  0  0  0
 11 15  1  0  0  0  0
 12 20  1  0  0  0  0
 13  5  1  0  0  0  0
 16 22  1  0  0  0  0
 17 16  1  0  0  0  0
 17 23  1  0  0  0  0
 18 17  1  0  0  0  0
 19 20  1  0  0  0  0
 19 18  2  0  0  0  0
 20 21  1  0  0  0  0
 21 26  1  0  0  0  0
 21 16  2  0  0  0  0
 24 19  1  0  0  0  0
 25 20  1  0  0  0  0
 26 28  2  0  0  0  0
 26 27  1  0  0  0  0
 29 26  2  0  0  0  0
 30 31  1  0  0  0  0
 30 18  1  0  0  0  0
 30 32  1  0  0  0  0
 33 30  1  0  0  0  0
M  RAD  5   2   2   3   3   4   2  17   2  27   2
M  END
