Coordinates from ORCA-job 4-NO2PhN2+~TsO-_B3LYPG-6-31G_dp-CH-Scan-d09-49-n800
 OpenBabel11261919023D

 33 33  0  0  0  0  0  0  0  0999 V2000
   -2.7977    1.0763   -0.2565 C   0  0  0  0  0  0  0  0  0  0  0  0
   -3.8934    0.2716    0.1820 N   0  0  0  0  0  0  0  0  0  0  0  0
   -5.0095    0.6959    0.4072 N   0  0  0  0  0  0  0  0  0  0  0  0
   -2.6655    1.4718   -1.5798 C   0  0  0  0  0  0  0  0  0  0  0  0
   -1.5704    2.1545   -2.0600 C   0  0  0  0  0  0  0  0  0  0  0  0
   -0.5577    2.4411   -1.1386 C   0  0  0  0  0  0  0  0  0  0  0  0
    0.6316    3.1740   -1.6021 N   0  0  0  0  0  0  0  0  0  0  0  0
    0.6698    3.5025   -2.7867 O   0  0  0  0  0  0  0  0  0  0  0  0
    1.5098    3.4123   -0.7746 O   0  0  0  0  0  0  0  0  0  0  0  0
   -0.6351    2.0525    0.1979 C   0  0  0  0  0  0  0  0  0  0  0  0
   -1.7550    1.3534    0.6392 C   0  0  0  0  0  0  0  0  0  0  0  0
   -4.0013    1.0532   -2.6890 H   0  0  0  0  0  0  0  0  0  0  0  0
   -1.4734    2.4667   -3.0909 H   0  0  0  0  0  0  0  0  0  0  0  0
    0.1797    2.2942    0.8684 H   0  0  0  0  0  0  0  0  0  0  0  0
   -1.8346    1.0254    1.6700 H   0  0  0  0  0  0  0  0  0  0  0  0
   -6.0048    5.2390    1.2403 C   0  0  0  0  0  0  0  0  0  0  0  0
   -5.7810    6.5858    0.9658 C   0  0  0  0  0  0  0  0  0  0  0  0
   -5.9386    7.0987   -0.3305 C   0  0  0  0  0  0  0  0  0  0  0  0
   -6.3291    6.2243   -1.3566 C   0  0  0  0  0  0  0  0  0  0  0  0
   -6.5586    4.8746   -1.1049 C   0  0  0  0  0  0  0  0  0  0  0  0
   -6.3885    4.3958    0.1959 C   0  0  0  0  0  0  0  0  0  0  0  0
   -5.8933    4.8440    2.2439 H   0  0  0  0  0  0  0  0  0  0  0  0
   -5.4812    7.2507    1.7706 H   0  0  0  0  0  0  0  0  0  0  0  0
   -6.4587    6.6072   -2.3650 H   0  0  0  0  0  0  0  0  0  0  0  0
   -6.8720    4.2010   -1.8945 H   0  0  0  0  0  0  0  0  0  0  0  0
   -6.6845    2.6755    0.5331 S   0  0  0  0  0  0  0  0  0  0  0  0
   -6.9343    2.4773    1.9553 O   0  0  0  0  0  0  0  0  0  0  0  0
   -5.0997    2.1594    0.2079 O   0  0  0  0  0  0  0  0  0  0  0  0
   -7.5544    2.1045   -0.4874 O   0  0  0  0  0  0  0  0  0  0  0  0
   -5.7240    8.5659   -0.6107 C   0  0  0  0  0  0  0  0  0  0  0  0
   -6.6681    9.1188   -0.5325 H   0  0  0  0  0  0  0  0  0  0  0  0
   -5.0238    9.0121    0.1011 H   0  0  0  0  0  0  0  0  0  0  0  0
   -5.3361    8.7278   -1.6205 H   0  0  0  0  0  0  0  0  0  0  0  0
  1  2  1  0  0  0  0
  1 11  2  0  0  0  0
  2  3  1  0  0  0  0
  4  1  1  0  0  0  0
  5  4  2  0  0  0  0
  5  6  1  0  0  0  0
  6 10  2  0  0  0  0
  7  6  1  0  0  0  0
  7  9  2  0  0  0  0
  8  7  2  0  0  0  0
 10 11  1  0  0  0  0
 10 14  1  0  0  0  0
 11 15  1  0  0  0  0
 13  5  1  0  0  0  0
 16 22  1  0  0  0  0
 17 16  1  0  0  0  0
 17 23  1  0  0  0  0
 18 17  2  0  0  0  0
 19 20  2  0  0  0  0
 19 18  1  0  0  0  0
 20 21  1  0  0  0  0
 21 26  1  0  0  0  0
 21 16  2  0  0  0  0
 24 19  1  0  0  0  0
 25 20  1  0  0  0  0
 26 27  2  0  0  0  0
 28  3  1  0  0  0  0
 28 26  1  0  0  0  0
 29 26  2  0  0  0  0
 30 31  1  0  0  0  0
 30 18  1  0  0  0  0
 30 32  1  0  0  0  0
 33 30  1  0  0  0  0
M  RAD  4   2   2   3   2   4   2  12   2
M  END
