Coordinates from ORCA-job 4-NO2PhN2+~TsO-_B3LYPG-6-31G_dp-CH-Scan-d09-49-n800
 OpenBabel11261919023D

 33 34  0  0  0  0  0  0  0  0999 V2000
   -2.7659    1.0899   -0.1965 C   0  0  0  0  0  0  0  0  0  0  0  0
   -3.8605    0.3115    0.2870 N   0  0  0  0  0  0  0  0  0  0  0  0
   -4.9849    0.7237    0.4809 N   0  0  0  0  0  0  0  0  0  0  0  0
   -2.7136    1.5340   -1.5164 C   0  0  0  0  0  0  0  0  0  0  0  0
   -1.6030    2.1877   -2.0167 C   0  0  0  0  0  0  0  0  0  0  0  0
   -0.5273    2.3933   -1.1495 C   0  0  0  0  0  0  0  0  0  0  0  0
    0.6638    3.0956   -1.6536 N   0  0  0  0  0  0  0  0  0  0  0  0
    0.6496    3.4680   -2.8258 O   0  0  0  0  0  0  0  0  0  0  0  0
    1.5995    3.2604   -0.8725 O   0  0  0  0  0  0  0  0  0  0  0  0
   -0.5413    1.9503    0.1719 C   0  0  0  0  0  0  0  0  0  0  0  0
   -1.6626    1.2764    0.6462 C   0  0  0  0  0  0  0  0  0  0  0  0
   -3.9016    1.2795   -2.4059 H   0  0  0  0  0  0  0  0  0  0  0  0
   -1.5475    2.5405   -3.0376 H   0  0  0  0  0  0  0  0  0  0  0  0
    0.3217    2.1273    0.8014 H   0  0  0  0  0  0  0  0  0  0  0  0
   -1.6968    0.9007    1.6627 H   0  0  0  0  0  0  0  0  0  0  0  0
   -6.0570    5.2457    1.2154 C   0  0  0  0  0  0  0  0  0  0  0  0
   -5.8420    6.5968    0.9567 C   0  0  0  0  0  0  0  0  0  0  0  0
   -5.9830    7.1200   -0.3376 C   0  0  0  0  0  0  0  0  0  0  0  0
   -6.3476    6.2512   -1.3775 C   0  0  0  0  0  0  0  0  0  0  0  0
   -6.5673    4.8967   -1.1413 C   0  0  0  0  0  0  0  0  0  0  0  0
   -6.4143    4.4077    0.1574 C   0  0  0  0  0  0  0  0  0  0  0  0
   -5.9591    4.8432    2.2175 H   0  0  0  0  0  0  0  0  0  0  0  0
   -5.5623    7.2573    1.7724 H   0  0  0  0  0  0  0  0  0  0  0  0
   -6.4647    6.6419   -2.3844 H   0  0  0  0  0  0  0  0  0  0  0  0
   -6.8616    4.2271   -1.9416 H   0  0  0  0  0  0  0  0  0  0  0  0
   -6.6978    2.6810    0.4755 S   0  0  0  0  0  0  0  0  0  0  0  0
   -7.0044    2.4745    1.8855 O   0  0  0  0  0  0  0  0  0  0  0  0
   -5.1013    2.1878    0.2093 O   0  0  0  0  0  0  0  0  0  0  0  0
   -7.5216    2.1051   -0.5810 O   0  0  0  0  0  0  0  0  0  0  0  0
   -5.7788    8.5920   -0.6000 C   0  0  0  0  0  0  0  0  0  0  0  0
   -6.7235    9.1401   -0.4978 H   0  0  0  0  0  0  0  0  0  0  0  0
   -5.0689    9.0306    0.1070 H   0  0  0  0  0  0  0  0  0  0  0  0
   -5.4081    8.7705   -1.6134 H   0  0  0  0  0  0  0  0  0  0  0  0
  1  2  1  0  0  0  0
  1 11  2  0  0  0  0
  2  3  1  0  0  0  0
  4  1  1  0  0  0  0
  5  4  2  0  0  0  0
  5  6  1  0  0  0  0
  6 10  2  0  0  0  0
  7  6  1  0  0  0  0
  7  9  2  0  0  0  0
  8  7  2  0  0  0  0
 10 11  1  0  0  0  0
 10 14  1  0  0  0  0
 11 15  1  0  0  0  0
 12  4  1  0  0  0  0
 13  5  1  0  0  0  0
 16 22  1  0  0  0  0
 17 16  1  0  0  0  0
 17 23  1  0  0  0  0
 18 17  2  0  0  0  0
 19 20  2  0  0  0  0
 19 18  1  0  0  0  0
 20 21  1  0  0  0  0
 21 26  1  0  0  0  0
 21 16  2  0  0  0  0
 24 19  1  0  0  0  0
 25 20  1  0  0  0  0
 26 27  2  0  0  0  0
 28 26  1  0  0  0  0
 28  3  1  0  0  0  0
 29 26  2  0  0  0  0
 30 31  1  0  0  0  0
 30 18  1  0  0  0  0
 30 32  1  0  0  0  0
 33 30  1  0  0  0  0
M  RAD  2   2   2   3   2
M  END
