Coordinates from ORCA-job 4-NO2PhN2+~TsO-_B3LYPG-6-31G_dp-CH-Scan-d09-49-n800
 OpenBabel11261919023D

 33 33  0  0  0  0  0  0  0  0999 V2000
   -2.7851    1.0880   -0.2461 C   0  0  0  0  0  0  0  0  0  0  0  0
   -3.8837    0.2676    0.1599 N   0  0  0  0  0  0  0  0  0  0  0  0
   -4.9964    0.7000    0.4036 N   0  0  0  0  0  0  0  0  0  0  0  0
   -2.6536    1.6264   -1.5063 C   0  0  0  0  0  0  0  0  0  0  0  0
   -1.5872    2.3288   -1.9891 C   0  0  0  0  0  0  0  0  0  0  0  0
   -0.5286    2.4866   -1.0804 C   0  0  0  0  0  0  0  0  0  0  0  0
    0.6661    3.2310   -1.5171 N   0  0  0  0  0  0  0  0  0  0  0  0
    0.6687    3.6761   -2.6628 O   0  0  0  0  0  0  0  0  0  0  0  0
    1.5799    3.3583   -0.7046 O   0  0  0  0  0  0  0  0  0  0  0  0
   -0.5700    1.9598    0.2101 C   0  0  0  0  0  0  0  0  0  0  0  0
   -1.6917    1.2472    0.6252 C   0  0  0  0  0  0  0  0  0  0  0  0
   -4.7343    1.1829   -3.1398 H   0  0  0  0  0  0  0  0  0  0  0  0
   -1.5235    2.7436   -2.9871 H   0  0  0  0  0  0  0  0  0  0  0  0
    0.2772    2.1074    0.8676 H   0  0  0  0  0  0  0  0  0  0  0  0
   -1.7429    0.8163    1.6202 H   0  0  0  0  0  0  0  0  0  0  0  0
   -6.0199    5.2637    1.2571 C   0  0  0  0  0  0  0  0  0  0  0  0
   -5.8003    6.6030    0.9431 C   0  0  0  0  0  0  0  0  0  0  0  0
   -5.9273    7.0702   -0.3733 C   0  0  0  0  0  0  0  0  0  0  0  0
   -6.2818    6.1580   -1.3799 C   0  0  0  0  0  0  0  0  0  0  0  0
   -6.5072    4.8158   -1.0894 C   0  0  0  0  0  0  0  0  0  0  0  0
   -6.3690    4.3835    0.2320 C   0  0  0  0  0  0  0  0  0  0  0  0
   -5.9309    4.9027    2.2757 H   0  0  0  0  0  0  0  0  0  0  0  0
   -5.5277    7.2974    1.7327 H   0  0  0  0  0  0  0  0  0  0  0  0
   -6.3859    6.5053   -2.4040 H   0  0  0  0  0  0  0  0  0  0  0  0
   -6.7904    4.1128   -1.8647 H   0  0  0  0  0  0  0  0  0  0  0  0
   -6.6617    2.6743    0.6181 S   0  0  0  0  0  0  0  0  0  0  0  0
   -6.8737    2.5085    2.0502 O   0  0  0  0  0  0  0  0  0  0  0  0
   -5.0738    2.1504    0.2696 O   0  0  0  0  0  0  0  0  0  0  0  0
   -7.5496    2.0751   -0.3682 O   0  0  0  0  0  0  0  0  0  0  0  0
   -5.7174    8.5287   -0.6989 C   0  0  0  0  0  0  0  0  0  0  0  0
   -6.6741    9.0648   -0.7140 H   0  0  0  0  0  0  0  0  0  0  0  0
   -5.0793    9.0178    0.0423 H   0  0  0  0  0  0  0  0  0  0  0  0
   -5.2585    8.6559   -1.6838 H   0  0  0  0  0  0  0  0  0  0  0  0
  1  2  1  0  0  0  0
  1 11  2  0  0  0  0
  2  3  1  0  0  0  0
  4  1  1  0  0  0  0
  5  4  2  0  0  0  0
  5  6  1  0  0  0  0
  6 10  2  0  0  0  0
  7  6  1  0  0  0  0
  7  9  2  0  0  0  0
  8  7  2  0  0  0  0
 10 11  1  0  0  0  0
 10 14  1  0  0  0  0
 11 15  1  0  0  0  0
 13  5  1  0  0  0  0
 16 22  1  0  0  0  0
 17 16  1  0  0  0  0
 17 23  1  0  0  0  0
 18 17  2  0  0  0  0
 19 20  2  0  0  0  0
 19 18  1  0  0  0  0
 20 21  1  0  0  0  0
 21 26  1  0  0  0  0
 21 16  2  0  0  0  0
 24 19  1  0  0  0  0
 25 20  1  0  0  0  0
 26 27  2  0  0  0  0
 28  3  1  0  0  0  0
 28 26  1  0  0  0  0
 29 26  2  0  0  0  0
 30 18  1  0  0  0  0
 30 32  1  0  0  0  0
 31 30  1  0  0  0  0
 33 30  1  0  0  0  0
M  RAD  4   2   2   3   2   4   2  12   2
M  END
