Coordinates from ORCA-job 4-NO2PhN2+~TsO-_B3LYPG-6-31G_dp-CH-Scan-d09-49-n800
 OpenBabel11261919023D

 33 33  0  0  0  0  0  0  0  0999 V2000
   -2.8083    1.0748   -0.2830 C   0  0  0  0  0  0  0  0  0  0  0  0
   -3.9063    0.2579    0.1286 N   0  0  0  0  0  0  0  0  0  0  0  0
   -5.0181    0.6880    0.3699 N   0  0  0  0  0  0  0  0  0  0  0  0
   -2.6309    1.4698   -1.5954 C   0  0  0  0  0  0  0  0  0  0  0  0
   -1.5468    2.1636   -2.0691 C   0  0  0  0  0  0  0  0  0  0  0  0
   -0.5596    2.4663   -1.1224 C   0  0  0  0  0  0  0  0  0  0  0  0
    0.6324    3.2107   -1.5617 N   0  0  0  0  0  0  0  0  0  0  0  0
    0.6941    3.5346   -2.7462 O   0  0  0  0  0  0  0  0  0  0  0  0
    1.4859    3.4650   -0.7136 O   0  0  0  0  0  0  0  0  0  0  0  0
   -0.6669    2.0839    0.2142 C   0  0  0  0  0  0  0  0  0  0  0  0
   -1.7891    1.3752    0.6348 C   0  0  0  0  0  0  0  0  0  0  0  0
   -4.1743    0.9353   -2.9256 H   0  0  0  0  0  0  0  0  0  0  0  0
   -1.4318    2.4707   -3.0999 H   0  0  0  0  0  0  0  0  0  0  0  0
    0.1281    2.3397    0.9029 H   0  0  0  0  0  0  0  0  0  0  0  0
   -1.8903    1.0555    1.6667 H   0  0  0  0  0  0  0  0  0  0  0  0
   -5.9769    5.2405    1.2535 C   0  0  0  0  0  0  0  0  0  0  0  0
   -5.7519    6.5846    0.9661 C   0  0  0  0  0  0  0  0  0  0  0  0
   -5.9218    7.0879   -0.3323 C   0  0  0  0  0  0  0  0  0  0  0  0
   -6.3262    6.2068   -1.3476 C   0  0  0  0  0  0  0  0  0  0  0  0
   -6.5574    4.8601   -1.0831 C   0  0  0  0  0  0  0  0  0  0  0  0
   -6.3748    4.3910    0.2198 C   0  0  0  0  0  0  0  0  0  0  0  0
   -5.8554    4.8527    2.2587 H   0  0  0  0  0  0  0  0  0  0  0  0
   -5.4414    7.2549    1.7624 H   0  0  0  0  0  0  0  0  0  0  0  0
   -6.4651    6.5822   -2.3575 H   0  0  0  0  0  0  0  0  0  0  0  0
   -6.8806    4.1814   -1.8644 H   0  0  0  0  0  0  0  0  0  0  0  0
   -6.6734    2.6749    0.5730 S   0  0  0  0  0  0  0  0  0  0  0  0
   -6.8844    2.4835    2.0024 O   0  0  0  0  0  0  0  0  0  0  0  0
   -5.0958    2.1479    0.2100 O   0  0  0  0  0  0  0  0  0  0  0  0
   -7.5712    2.1028   -0.4216 O   0  0  0  0  0  0  0  0  0  0  0  0
   -5.7052    8.5519   -0.6272 C   0  0  0  0  0  0  0  0  0  0  0  0
   -6.6521    9.1031   -0.5751 H   0  0  0  0  0  0  0  0  0  0  0  0
   -5.0200    9.0091    0.0920 H   0  0  0  0  0  0  0  0  0  0  0  0
   -5.2981    8.7014   -1.6314 H   0  0  0  0  0  0  0  0  0  0  0  0
  1  2  1  0  0  0  0
  1 11  2  0  0  0  0
  2  3  1  0  0  0  0
  4  1  1  0  0  0  0
  5  4  2  0  0  0  0
  5  6  1  0  0  0  0
  6 10  2  0  0  0  0
  7  6  1  0  0  0  0
  7  9  2  0  0  0  0
  8  7  2  0  0  0  0
 10 11  1  0  0  0  0
 10 14  1  0  0  0  0
 11 15  1  0  0  0  0
 13  5  1  0  0  0  0
 16 22  1  0  0  0  0
 17 16  1  0  0  0  0
 17 23  1  0  0  0  0
 18 17  2  0  0  0  0
 19 20  2  0  0  0  0
 19 18  1  0  0  0  0
 20 21  1  0  0  0  0
 21 26  1  0  0  0  0
 21 16  2  0  0  0  0
 24 19  1  0  0  0  0
 25 20  1  0  0  0  0
 26 27  2  0  0  0  0
 28  3  1  0  0  0  0
 28 26  1  0  0  0  0
 29 26  2  0  0  0  0
 30 31  1  0  0  0  0
 30 18  1  0  0  0  0
 30 32  1  0  0  0  0
 33 30  1  0  0  0  0
M  RAD  4   2   2   3   2   4   2  12   2
M  END
