Coordinates from ORCA-job 4-NO2PhN2+~TsO-_B3LYPG-6-31G_dp-CH-Scan-d09-49-n800
 OpenBabel11261919023D

 33 34  0  0  0  0  0  0  0  0999 V2000
   -2.7441    1.0986   -0.1682 C   0  0  0  0  0  0  0  0  0  0  0  0
   -3.8424    0.3389    0.3339 N   0  0  0  0  0  0  0  0  0  0  0  0
   -4.9700    0.7449    0.5150 N   0  0  0  0  0  0  0  0  0  0  0  0
   -2.7332    1.5993   -1.4718 C   0  0  0  0  0  0  0  0  0  0  0  0
   -1.6099    2.2307   -1.9790 C   0  0  0  0  0  0  0  0  0  0  0  0
   -0.4953    2.3572   -1.1478 C   0  0  0  0  0  0  0  0  0  0  0  0
    0.7027    3.0364   -1.6677 N   0  0  0  0  0  0  0  0  0  0  0  0
    0.6555    3.4696   -2.8180 O   0  0  0  0  0  0  0  0  0  0  0  0
    1.6738    3.1288   -0.9185 O   0  0  0  0  0  0  0  0  0  0  0  0
   -0.4754    1.8556    0.1523 C   0  0  0  0  0  0  0  0  0  0  0  0
   -1.6035    1.2019    0.6378 C   0  0  0  0  0  0  0  0  0  0  0  0
   -3.8590    1.4493   -2.2567 H   0  0  0  0  0  0  0  0  0  0  0  0
   -1.5766    2.6271   -2.9850 H   0  0  0  0  0  0  0  0  0  0  0  0
    0.4172    1.9704    0.7540 H   0  0  0  0  0  0  0  0  0  0  0  0
   -1.6147    0.7783    1.6357 H   0  0  0  0  0  0  0  0  0  0  0  0
   -6.0813    5.2588    1.2006 C   0  0  0  0  0  0  0  0  0  0  0  0
   -5.8773    6.6119    0.9442 C   0  0  0  0  0  0  0  0  0  0  0  0
   -6.0216    7.1359   -0.3495 C   0  0  0  0  0  0  0  0  0  0  0  0
   -6.3777    6.2657   -1.3909 C   0  0  0  0  0  0  0  0  0  0  0  0
   -6.5862    4.9089   -1.1568 C   0  0  0  0  0  0  0  0  0  0  0  0
   -6.4304    4.4190    0.1411 C   0  0  0  0  0  0  0  0  0  0  0  0
   -5.9814    4.8558    2.2024 H   0  0  0  0  0  0  0  0  0  0  0  0
   -5.6042    7.2736    1.7612 H   0  0  0  0  0  0  0  0  0  0  0  0
   -6.4975    6.6569   -2.3973 H   0  0  0  0  0  0  0  0  0  0  0  0
   -6.8748    4.2380   -1.9582 H   0  0  0  0  0  0  0  0  0  0  0  0
   -6.7006    2.6894    0.4571 S   0  0  0  0  0  0  0  0  0  0  0  0
   -7.0244    2.4820    1.8632 O   0  0  0  0  0  0  0  0  0  0  0  0
   -5.1003    2.2104    0.2104 O   0  0  0  0  0  0  0  0  0  0  0  0
   -7.5077    2.1067   -0.6090 O   0  0  0  0  0  0  0  0  0  0  0  0
   -5.8298    8.6101   -0.6090 C   0  0  0  0  0  0  0  0  0  0  0  0
   -6.7758    9.1526   -0.4893 H   0  0  0  0  0  0  0  0  0  0  0  0
   -5.1114    9.0499    0.0887 H   0  0  0  0  0  0  0  0  0  0  0  0
   -5.4761    8.7951   -1.6271 H   0  0  0  0  0  0  0  0  0  0  0  0
  1  2  1  0  0  0  0
  1 11  2  0  0  0  0
  2  3  1  0  0  0  0
  4  1  1  0  0  0  0
  5  4  2  0  0  0  0
  5  6  1  0  0  0  0
  6 10  2  0  0  0  0
  7  6  1  0  0  0  0
  7  9  2  0  0  0  0
  8  7  2  0  0  0  0
 10 11  1  0  0  0  0
 10 14  1  0  0  0  0
 11 15  1  0  0  0  0
 12  4  1  0  0  0  0
 13  5  1  0  0  0  0
 16 22  1  0  0  0  0
 17 16  1  0  0  0  0
 17 23  1  0  0  0  0
 18 17  2  0  0  0  0
 19 20  2  0  0  0  0
 19 18  1  0  0  0  0
 20 21  1  0  0  0  0
 21 26  1  0  0  0  0
 21 16  2  0  0  0  0
 24 19  1  0  0  0  0
 25 20  1  0  0  0  0
 26 27  2  0  0  0  0
 28 26  1  0  0  0  0
 28  3  1  0  0  0  0
 29 26  2  0  0  0  0
 30 31  1  0  0  0  0
 30 18  1  0  0  0  0
 30 32  1  0  0  0  0
 33 30  1  0  0  0  0
M  RAD  2   2   2   3   2
M  END
