Coordinates from ORCA-job 4-NO2PhN2+~TsO-_B3LYPG-6-31G_dp-CH-Scan-d09-49-n800
 OpenBabel11261919023D

 33 33  0  0  0  0  0  0  0  0999 V2000
   -2.2137    1.1591   -0.3394 C   0  0  0  0  0  0  0  0  0  0  0  0
   -3.4870    0.7098    0.0721 N   0  0  0  0  0  0  0  0  0  0  0  0
   -4.5065    0.3877    0.3837 N   0  0  0  0  0  0  0  0  0  0  0  0
   -2.2434    2.2709   -1.1810 C   0  0  0  0  0  0  0  0  0  0  0  0
   -0.9192    2.6417   -1.5479 C   0  0  0  0  0  0  0  0  0  0  0  0
    0.1948    1.9410   -1.1050 C   0  0  0  0  0  0  0  0  0  0  0  0
    1.5469    2.3788   -1.5358 N   0  0  0  0  0  0  0  0  0  0  0  0
    1.6229    3.3520   -2.2813 O   0  0  0  0  0  0  0  0  0  0  0  0
    2.5124    1.7407   -1.1157 O   0  0  0  0  0  0  0  0  0  0  0  0
    0.1266    0.8206   -0.2523 C   0  0  0  0  0  0  0  0  0  0  0  0
   -1.1207    0.4027    0.1555 C   0  0  0  0  0  0  0  0  0  0  0  0
   -5.2238    4.3039   -1.1126 H   0  0  0  0  0  0  0  0  0  0  0  0
   -0.7453    3.4965   -2.1959 H   0  0  0  0  0  0  0  0  0  0  0  0
    1.0349    0.3239    0.0598 H   0  0  0  0  0  0  0  0  0  0  0  0
   -1.2509   -0.4501    0.8158 H   0  0  0  0  0  0  0  0  0  0  0  0
   -7.0071    5.6234    1.1873 C   0  0  0  0  0  0  0  0  0  0  0  0
   -6.9264    6.9114    0.6690 C   0  0  0  0  0  0  0  0  0  0  0  0
   -6.5087    7.2125   -0.6676 C   0  0  0  0  0  0  0  0  0  0  0  0
   -6.1788    6.1596   -1.4747 C   0  0  0  0  0  0  0  0  0  0  0  0
   -6.2258    4.7634   -1.0004 C   0  0  0  0  0  0  0  0  0  0  0  0
   -6.6698    4.5421    0.3833 C   0  0  0  0  0  0  0  0  0  0  0  0
   -7.3524    5.4407    2.1991 H   0  0  0  0  0  0  0  0  0  0  0  0
   -7.2052    7.7454    1.3110 H   0  0  0  0  0  0  0  0  0  0  0  0
   -5.8548    6.3319   -2.4978 H   0  0  0  0  0  0  0  0  0  0  0  0
   -6.8146    4.1117   -1.6690 H   0  0  0  0  0  0  0  0  0  0  0  0
   -6.7068    2.8530    1.0353 S   0  0  0  0  0  0  0  0  0  0  0  0
   -7.7383    2.8907    2.0854 O   0  0  0  0  0  0  0  0  0  0  0  0
   -5.2970    2.7957    1.5185 O   0  0  0  0  0  0  0  0  0  0  0  0
   -6.9885    2.0225   -0.1529 O   0  0  0  0  0  0  0  0  0  0  0  0
   -6.4561    8.6483   -1.1259 C   0  0  0  0  0  0  0  0  0  0  0  0
   -7.4413    9.1221   -1.0511 H   0  0  0  0  0  0  0  0  0  0  0  0
   -5.7663    9.2328   -0.5078 H   0  0  0  0  0  0  0  0  0  0  0  0
   -6.1240    8.7216   -2.1638 H   0  0  0  0  0  0  0  0  0  0  0  0
  1  2  1  0  0  0  0
  1 11  2  0  0  0  0
  2  3  1  0  0  0  0
  4  1  1  0  0  0  0
  5  4  2  0  0  0  0
  5  6  1  0  0  0  0
  6 10  2  0  0  0  0
  7  9  2  0  0  0  0
  7  6  1  0  0  0  0
  8  7  2  0  0  0  0
 10 14  1  0  0  0  0
 10 11  1  0  0  0  0
 11 15  1  0  0  0  0
 12 20  1  0  0  0  0
 13  5  1  0  0  0  0
 16 22  1  0  0  0  0
 17 16  1  0  0  0  0
 17 23  1  0  0  0  0
 18 17  1  0  0  0  0
 19 20  1  0  0  0  0
 19 18  2  0  0  0  0
 20 21  1  0  0  0  0
 21 26  1  0  0  0  0
 21 16  2  0  0  0  0
 24 19  1  0  0  0  0
 25 20  1  0  0  0  0
 26 28  2  0  0  0  0
 26 27  1  0  0  0  0
 29 26  2  0  0  0  0
 30 31  1  0  0  0  0
 30 18  1  0  0  0  0
 30 32  1  0  0  0  0
 33 30  1  0  0  0  0
M  RAD  5   2   2   3   3   4   2  17   2  27   2
M  END
