Coordinates from ORCA-job 4-NO2PhN2+~TsO-_B3LYPG-6-31G_dp-CH-Scan-d09-49-n800
 OpenBabel11261919023D

 33 33  0  0  0  0  0  0  0  0999 V2000
   -2.7158    1.0949   -0.1071 C   0  0  0  0  0  0  0  0  0  0  0  0
   -3.8129    0.3058    0.3530 N   0  0  0  0  0  0  0  0  0  0  0  0
   -4.9284    0.7493    0.5894 N   0  0  0  0  0  0  0  0  0  0  0  0
   -2.7389    2.0509   -1.0942 C   0  0  0  0  0  0  0  0  0  0  0  0
   -1.6866    2.7727   -1.5729 C   0  0  0  0  0  0  0  0  0  0  0  0
   -0.4517    2.4665   -0.9753 C   0  0  0  0  0  0  0  0  0  0  0  0
    0.7478    3.1975   -1.4321 N   0  0  0  0  0  0  0  0  0  0  0  0
    0.5936    4.0489   -2.3040 O   0  0  0  0  0  0  0  0  0  0  0  0
    1.8186    2.9057   -0.9046 O   0  0  0  0  0  0  0  0  0  0  0  0
   -0.3214    1.4917    0.0136 C   0  0  0  0  0  0  0  0  0  0  0  0
   -1.4489    0.7934    0.4339 C   0  0  0  0  0  0  0  0  0  0  0  0
   -5.3395    2.4421   -3.1174 H   0  0  0  0  0  0  0  0  0  0  0  0
   -1.7472    3.5201   -2.3554 H   0  0  0  0  0  0  0  0  0  0  0  0
    0.6563    1.2879    0.4302 H   0  0  0  0  0  0  0  0  0  0  0  0
   -1.3834    0.0198    1.1940 H   0  0  0  0  0  0  0  0  0  0  0  0
   -6.1586    5.3429    1.2287 C   0  0  0  0  0  0  0  0  0  0  0  0
   -5.9730    6.6675    0.8391 C   0  0  0  0  0  0  0  0  0  0  0  0
   -6.0042    7.0374   -0.5138 C   0  0  0  0  0  0  0  0  0  0  0  0
   -6.2240    6.0418   -1.4786 C   0  0  0  0  0  0  0  0  0  0  0  0
   -6.4171    4.7127   -1.1133 C   0  0  0  0  0  0  0  0  0  0  0  0
   -6.3772    4.3793    0.2431 C   0  0  0  0  0  0  0  0  0  0  0  0
   -6.1418    5.0553    2.2742 H   0  0  0  0  0  0  0  0  0  0  0  0
   -5.8019    7.4264    1.5975 H   0  0  0  0  0  0  0  0  0  0  0  0
   -6.2472    6.3118   -2.5309 H   0  0  0  0  0  0  0  0  0  0  0  0
   -6.5875    3.9457   -1.8628 H   0  0  0  0  0  0  0  0  0  0  0  0
   -6.6370    2.6911    0.7287 S   0  0  0  0  0  0  0  0  0  0  0  0
   -6.8432    2.6045    2.1684 O   0  0  0  0  0  0  0  0  0  0  0  0
   -5.0283    2.1784    0.4087 O   0  0  0  0  0  0  0  0  0  0  0  0
   -7.5055    2.0094   -0.2189 O   0  0  0  0  0  0  0  0  0  0  0  0
   -5.8342    8.4795   -0.9242 C   0  0  0  0  0  0  0  0  0  0  0  0
   -6.8095    8.9690   -1.0341 H   0  0  0  0  0  0  0  0  0  0  0  0
   -5.2666    9.0448   -0.1798 H   0  0  0  0  0  0  0  0  0  0  0  0
   -5.3185    8.5629   -1.8853 H   0  0  0  0  0  0  0  0  0  0  0  0
  1  2  1  0  0  0  0
  1 11  2  0  0  0  0
  2  3  1  0  0  0  0
  4  1  1  0  0  0  0
  5  4  2  0  0  0  0
  5  6  1  0  0  0  0
  6 10  2  0  0  0  0
  7  6  1  0  0  0  0
  7  9  2  0  0  0  0
  8  7  2  0  0  0  0
 10 14  1  0  0  0  0
 10 11  1  0  0  0  0
 11 15  1  0  0  0  0
 13  5  1  0  0  0  0
 16 22  1  0  0  0  0
 17 16  1  0  0  0  0
 17 23  1  0  0  0  0
 18 17  2  0  0  0  0
 19 20  2  0  0  0  0
 19 18  1  0  0  0  0
 20 21  1  0  0  0  0
 21 26  1  0  0  0  0
 21 16  2  0  0  0  0
 24 19  1  0  0  0  0
 25 20  1  0  0  0  0
 26 27  2  0  0  0  0
 28  3  1  0  0  0  0
 28 26  1  0  0  0  0
 29 26  2  0  0  0  0
 30 18  1  0  0  0  0
 30 32  1  0  0  0  0
 31 30  1  0  0  0  0
 33 30  1  0  0  0  0
M  RAD  4   2   2   3   2   4   2  12   2
M  END
