Coordinates from ORCA-job 4-NO2PhN2+~TsO-_B3LYPG-6-31G_dp-CH-Scan-d09-49-n800
 OpenBabel11261919023D

 33 34  0  0  0  0  0  0  0  0999 V2000
   -2.7008    1.1064   -0.1758 C   0  0  0  0  0  0  0  0  0  0  0  0
   -3.8290    0.3800    0.3006 N   0  0  0  0  0  0  0  0  0  0  0  0
   -4.9579    0.7765    0.4747 N   0  0  0  0  0  0  0  0  0  0  0  0
   -2.7193    1.8454   -1.3653 C   0  0  0  0  0  0  0  0  0  0  0  0
   -1.5516    2.4324   -1.8323 C   0  0  0  0  0  0  0  0  0  0  0  0
   -0.3816    2.2801   -1.0880 C   0  0  0  0  0  0  0  0  0  0  0  0
    0.8562    2.9147   -1.5732 N   0  0  0  0  0  0  0  0  0  0  0  0
    0.7917    3.5572   -2.6198 O   0  0  0  0  0  0  0  0  0  0  0  0
    1.8750    2.7572   -0.9030 O   0  0  0  0  0  0  0  0  0  0  0  0
   -0.3406    1.5399    0.0919 C   0  0  0  0  0  0  0  0  0  0  0  0
   -1.5073    0.9282    0.5361 C   0  0  0  0  0  0  0  0  0  0  0  0
   -3.7665    1.9661   -1.9901 H   0  0  0  0  0  0  0  0  0  0  0  0
   -1.5300    3.0067   -2.7494 H   0  0  0  0  0  0  0  0  0  0  0  0
    0.5948    1.4394    0.6275 H   0  0  0  0  0  0  0  0  0  0  0  0
   -1.5106    0.3195    1.4335 H   0  0  0  0  0  0  0  0  0  0  0  0
   -6.0481    5.3164    1.1599 C   0  0  0  0  0  0  0  0  0  0  0  0
   -5.8855    6.6679    0.8684 C   0  0  0  0  0  0  0  0  0  0  0  0
   -6.1395    7.1695   -0.4178 C   0  0  0  0  0  0  0  0  0  0  0  0
   -6.5628    6.2779   -1.4146 C   0  0  0  0  0  0  0  0  0  0  0  0
   -6.7316    4.9218   -1.1445 C   0  0  0  0  0  0  0  0  0  0  0  0
   -6.4668    4.4545    0.1439 C   0  0  0  0  0  0  0  0  0  0  0  0
   -5.8641    4.9311    2.1565 H   0  0  0  0  0  0  0  0  0  0  0  0
   -5.5600    7.3466    1.6517 H   0  0  0  0  0  0  0  0  0  0  0  0
   -6.7682    6.6517   -2.4137 H   0  0  0  0  0  0  0  0  0  0  0  0
   -7.0732    4.2342   -1.9102 H   0  0  0  0  0  0  0  0  0  0  0  0
   -6.6891    2.7257    0.5059 S   0  0  0  0  0  0  0  0  0  0  0  0
   -6.9281    2.5423    1.9328 O   0  0  0  0  0  0  0  0  0  0  0  0
   -5.1065    2.2649    0.1771 O   0  0  0  0  0  0  0  0  0  0  0  0
   -7.5550    2.1164   -0.4980 O   0  0  0  0  0  0  0  0  0  0  0  0
   -5.9923    8.6425   -0.7114 C   0  0  0  0  0  0  0  0  0  0  0  0
   -6.9152    9.1825   -0.4646 H   0  0  0  0  0  0  0  0  0  0  0  0
   -5.1873    9.0903   -0.1216 H   0  0  0  0  0  0  0  0  0  0  0  0
   -5.7827    8.8217   -1.7695 H   0  0  0  0  0  0  0  0  0  0  0  0
  1  2  1  0  0  0  0
  1 11  2  0  0  0  0
  2  3  1  0  0  0  0
  4  1  1  0  0  0  0
  5  4  2  0  0  0  0
  5  6  1  0  0  0  0
  6 10  2  0  0  0  0
  7  6  1  0  0  0  0
  7  9  2  0  0  0  0
  8  7  2  0  0  0  0
 10 11  1  0  0  0  0
 10 14  1  0  0  0  0
 11 15  1  0  0  0  0
 12  4  1  0  0  0  0
 13  5  1  0  0  0  0
 16 22  1  0  0  0  0
 17 16  1  0  0  0  0
 17 23  1  0  0  0  0
 18 17  2  0  0  0  0
 19 20  2  0  0  0  0
 19 18  1  0  0  0  0
 20 21  1  0  0  0  0
 21 26  1  0  0  0  0
 21 16  2  0  0  0  0
 24 19  1  0  0  0  0
 25 20  1  0  0  0  0
 26 27  2  0  0  0  0
 28  3  1  0  0  0  0
 28 26  1  0  0  0  0
 29 26  2  0  0  0  0
 30 31  1  0  0  0  0
 30 18  1  0  0  0  0
 30 32  1  0  0  0  0
 33 30  1  0  0  0  0
M  RAD  2   2   2   3   2
M  END
