Coordinates from ORCA-job 4-NO2PhN2+~TsO-_B3LYPG-6-31G_dp-CH-Scan-d09-49-n800
 OpenBabel11261919023D

 33 33  0  0  0  0  0  0  0  0999 V2000
   -2.7963    1.0769   -0.2532 C   0  0  0  0  0  0  0  0  0  0  0  0
   -3.8918    0.2733    0.1881 N   0  0  0  0  0  0  0  0  0  0  0  0
   -5.0083    0.6969    0.4115 N   0  0  0  0  0  0  0  0  0  0  0  0
   -2.6684    1.4728   -1.5772 C   0  0  0  0  0  0  0  0  0  0  0  0
   -1.5727    2.1544   -2.0585 C   0  0  0  0  0  0  0  0  0  0  0  0
   -0.5572    2.4390   -1.1398 C   0  0  0  0  0  0  0  0  0  0  0  0
    0.6317    3.1708   -1.6058 N   0  0  0  0  0  0  0  0  0  0  0  0
    0.6674    3.5000   -2.7903 O   0  0  0  0  0  0  0  0  0  0  0  0
    1.5125    3.4074   -0.7806 O   0  0  0  0  0  0  0  0  0  0  0  0
   -0.6315    2.0496    0.1967 C   0  0  0  0  0  0  0  0  0  0  0  0
   -1.7511    1.3514    0.6401 C   0  0  0  0  0  0  0  0  0  0  0  0
   -3.9921    1.0619   -2.6718 H   0  0  0  0  0  0  0  0  0  0  0  0
   -1.4776    2.4672   -3.0894 H   0  0  0  0  0  0  0  0  0  0  0  0
    0.1854    2.2897    0.8652 H   0  0  0  0  0  0  0  0  0  0  0  0
   -1.8285    1.0225    1.6707 H   0  0  0  0  0  0  0  0  0  0  0  0
   -6.0077    5.2387    1.2390 C   0  0  0  0  0  0  0  0  0  0  0  0
   -5.7839    6.5857    0.9657 C   0  0  0  0  0  0  0  0  0  0  0  0
   -5.9400    7.0996   -0.3304 C   0  0  0  0  0  0  0  0  0  0  0  0
   -6.3290    6.2259   -1.3576 C   0  0  0  0  0  0  0  0  0  0  0  0
   -6.5584    4.8759   -1.1071 C   0  0  0  0  0  0  0  0  0  0  0  0
   -6.3898    4.3962    0.1935 C   0  0  0  0  0  0  0  0  0  0  0  0
   -5.8974    4.8430    2.2425 H   0  0  0  0  0  0  0  0  0  0  0  0
   -5.4853    7.2502    1.7715 H   0  0  0  0  0  0  0  0  0  0  0  0
   -6.4575    6.6095   -2.3659 H   0  0  0  0  0  0  0  0  0  0  0  0
   -6.8706    4.2028   -1.8975 H   0  0  0  0  0  0  0  0  0  0  0  0
   -6.6855    2.6755    0.5292 S   0  0  0  0  0  0  0  0  0  0  0  0
   -6.9391    2.4766    1.9506 O   0  0  0  0  0  0  0  0  0  0  0  0
   -5.1000    2.1605    0.2078 O   0  0  0  0  0  0  0  0  0  0  0  0
   -7.5526    2.1046   -0.4939 O   0  0  0  0  0  0  0  0  0  0  0  0
   -5.7255    8.5671   -0.6091 C   0  0  0  0  0  0  0  0  0  0  0  0
   -6.6695    9.1200   -0.5292 H   0  0  0  0  0  0  0  0  0  0  0  0
   -5.0245    9.0123    0.1024 H   0  0  0  0  0  0  0  0  0  0  0  0
   -5.3387    8.7301   -1.6192 H   0  0  0  0  0  0  0  0  0  0  0  0
  1  2  1  0  0  0  0
  1 11  2  0  0  0  0
  2  3  1  0  0  0  0
  4  1  1  0  0  0  0
  5  4  2  0  0  0  0
  5  6  1  0  0  0  0
  6 10  2  0  0  0  0
  7  6  1  0  0  0  0
  7  9  2  0  0  0  0
  8  7  2  0  0  0  0
 10 11  1  0  0  0  0
 10 14  1  0  0  0  0
 11 15  1  0  0  0  0
 13  5  1  0  0  0  0
 16 22  1  0  0  0  0
 17 16  1  0  0  0  0
 17 23  1  0  0  0  0
 18 17  2  0  0  0  0
 19 20  2  0  0  0  0
 19 18  1  0  0  0  0
 20 21  1  0  0  0  0
 21 26  1  0  0  0  0
 21 16  2  0  0  0  0
 24 19  1  0  0  0  0
 25 20  1  0  0  0  0
 26 27  2  0  0  0  0
 28  3  1  0  0  0  0
 28 26  1  0  0  0  0
 29 26  2  0  0  0  0
 30 31  1  0  0  0  0
 30 18  1  0  0  0  0
 30 32  1  0  0  0  0
 33 30  1  0  0  0  0
M  RAD  4   2   2   3   2   4   2  12   2
M  END
