Coordinates from ORCA-job 4-NO2PhN2+~TsO-_B3LYPG-6-31G_dp-CH-Scan-d09-49-n800
 OpenBabel11261919023D

 33 34  0  0  0  0  0  0  0  0999 V2000
   -2.5896    1.1369   -0.1445 C   0  0  0  0  0  0  0  0  0  0  0  0
   -3.7583    0.4977    0.3373 N   0  0  0  0  0  0  0  0  0  0  0  0
   -4.8817    0.8670    0.5411 N   0  0  0  0  0  0  0  0  0  0  0  0
   -2.5565    2.3302   -0.8902 C   0  0  0  0  0  0  0  0  0  0  0  0
   -1.3268    2.8089   -1.3325 C   0  0  0  0  0  0  0  0  0  0  0  0
   -0.1646    2.1076   -1.0185 C   0  0  0  0  0  0  0  0  0  0  0  0
    1.1330    2.6364   -1.4845 N   0  0  0  0  0  0  0  0  0  0  0  0
    1.1190    3.6809   -2.1318 O   0  0  0  0  0  0  0  0  0  0  0  0
    2.1410    1.9966   -1.1934 O   0  0  0  0  0  0  0  0  0  0  0  0
   -0.1817    0.9224   -0.2867 C   0  0  0  0  0  0  0  0  0  0  0  0
   -1.4093    0.4302    0.1371 C   0  0  0  0  0  0  0  0  0  0  0  0
   -3.4093    2.8278   -1.1035 H   0  0  0  0  0  0  0  0  0  0  0  0
   -1.2559    3.7218   -1.9102 H   0  0  0  0  0  0  0  0  0  0  0  0
    0.7466    0.4082   -0.0744 H   0  0  0  0  0  0  0  0  0  0  0  0
   -1.4784   -0.4985    0.6918 H   0  0  0  0  0  0  0  0  0  0  0  0
   -6.1051    5.4710    1.1072 C   0  0  0  0  0  0  0  0  0  0  0  0
   -6.0264    6.8126    0.7415 C   0  0  0  0  0  0  0  0  0  0  0  0
   -6.3799    7.2354   -0.5491 C   0  0  0  0  0  0  0  0  0  0  0  0
   -6.8159    6.2749   -1.4741 C   0  0  0  0  0  0  0  0  0  0  0  0
   -6.9014    4.9280   -1.1285 C   0  0  0  0  0  0  0  0  0  0  0  0
   -6.5396    4.5390    0.1626 C   0  0  0  0  0  0  0  0  0  0  0  0
   -5.8458    5.1456    2.1085 H   0  0  0  0  0  0  0  0  0  0  0  0
   -5.6905    7.5450    1.4704 H   0  0  0  0  0  0  0  0  0  0  0  0
   -7.0977    6.5872   -2.4758 H   0  0  0  0  0  0  0  0  0  0  0  0
   -7.2535    4.1866   -1.8373 H   0  0  0  0  0  0  0  0  0  0  0  0
   -6.6542    2.8189    0.6198 S   0  0  0  0  0  0  0  0  0  0  0  0
   -6.7977    2.7045    2.0682 O   0  0  0  0  0  0  0  0  0  0  0  0
   -5.0979    2.4080    0.2122 O   0  0  0  0  0  0  0  0  0  0  0  0
   -7.5698    2.1328   -0.2872 O   0  0  0  0  0  0  0  0  0  0  0  0
   -6.3258    8.6967   -0.9229 C   0  0  0  0  0  0  0  0  0  0  0  0
   -7.2748    9.1946   -0.6866 H   0  0  0  0  0  0  0  0  0  0  0  0
   -5.5387    9.2221   -0.3747 H   0  0  0  0  0  0  0  0  0  0  0  0
   -6.1463    8.8306   -1.9935 H   0  0  0  0  0  0  0  0  0  0  0  0
  1 11  1  0  0  0  0
  1  2  1  0  0  0  0
  2  3  1  0  0  0  0
  4  1  2  0  0  0  0
  5  6  2  0  0  0  0
  5  4  1  0  0  0  0
  6 10  1  0  0  0  0
  7  9  2  0  0  0  0
  7  6  1  0  0  0  0
  8  7  2  0  0  0  0
 10 14  1  0  0  0  0
 10 11  2  0  0  0  0
 11 15  1  0  0  0  0
 12  4  1  0  0  0  0
 13  5  1  0  0  0  0
 16 22  1  0  0  0  0
 17 16  1  0  0  0  0
 17 23  1  0  0  0  0
 18 17  2  0  0  0  0
 19 20  2  0  0  0  0
 19 18  1  0  0  0  0
 20 21  1  0  0  0  0
 21 26  1  0  0  0  0
 21 16  2  0  0  0  0
 24 19  1  0  0  0  0
 25 20  1  0  0  0  0
 26 27  2  0  0  0  0
 28  3  1  0  0  0  0
 28 26  1  0  0  0  0
 29 26  2  0  0  0  0
 30 31  1  0  0  0  0
 30 18  1  0  0  0  0
 30 32  1  0  0  0  0
 33 30  1  0  0  0  0
M  RAD  2   2   2   3   2
M  END
