Coordinates from ORCA-job 4-NO2PhN2+~TsO-_B3LYPG-6-31G_dp-CH-Scan-d09-49-n800
 OpenBabel11261919023D

 33 34  0  0  0  0  0  0  0  0999 V2000
   -2.6532    1.1128   -0.1852 C   0  0  0  0  0  0  0  0  0  0  0  0
   -3.8071    0.4252    0.2762 N   0  0  0  0  0  0  0  0  0  0  0  0
   -4.9342    0.8089    0.4588 N   0  0  0  0  0  0  0  0  0  0  0  0
   -2.6591    2.0588   -1.2209 C   0  0  0  0  0  0  0  0  0  0  0  0
   -1.4572    2.6003   -1.6588 C   0  0  0  0  0  0  0  0  0  0  0  0
   -0.2721    2.1996   -1.0433 C   0  0  0  0  0  0  0  0  0  0  0  0
    1.0000    2.7899   -1.4995 N   0  0  0  0  0  0  0  0  0  0  0  0
    0.9473    3.6218   -2.4029 O   0  0  0  0  0  0  0  0  0  0  0  0
    2.0304    2.4101   -0.9471 O   0  0  0  0  0  0  0  0  0  0  0  0
   -0.2451    1.2539   -0.0204 C   0  0  0  0  0  0  0  0  0  0  0  0
   -1.4465    0.6903    0.3915 C   0  0  0  0  0  0  0  0  0  0  0  0
   -3.6706    2.3843   -1.7114 H   0  0  0  0  0  0  0  0  0  0  0  0
   -1.4219    3.3298   -2.4580 H   0  0  0  0  0  0  0  0  0  0  0  0
    0.7015    0.9647    0.4172 H   0  0  0  0  0  0  0  0  0  0  0  0
   -1.4707   -0.0723    1.1622 H   0  0  0  0  0  0  0  0  0  0  0  0
   -6.0449    5.3843    1.1309 C   0  0  0  0  0  0  0  0  0  0  0  0
   -5.9231    6.7324    0.8052 C   0  0  0  0  0  0  0  0  0  0  0  0
   -6.2536    7.2033   -0.4752 C   0  0  0  0  0  0  0  0  0  0  0  0
   -6.7115    6.2841   -1.4309 C   0  0  0  0  0  0  0  0  0  0  0  0
   -6.8404    4.9309   -1.1257 C   0  0  0  0  0  0  0  0  0  0  0  0
   -6.5000    4.4942    0.1558 C   0  0  0  0  0  0  0  0  0  0  0  0
   -5.8023    5.0224    2.1237 H   0  0  0  0  0  0  0  0  0  0  0  0
   -5.5705    7.4328    1.5573 H   0  0  0  0  0  0  0  0  0  0  0  0
   -6.9760    6.6341   -2.4247 H   0  0  0  0  0  0  0  0  0  0  0  0
   -7.2091    4.2216   -1.8584 H   0  0  0  0  0  0  0  0  0  0  0  0
   -6.6706    2.7675    0.5614 S   0  0  0  0  0  0  0  0  0  0  0  0
   -6.8388    2.6118    2.0026 O   0  0  0  0  0  0  0  0  0  0  0  0
   -5.1081    2.3280    0.1664 O   0  0  0  0  0  0  0  0  0  0  0  0
   -7.5812    2.1282   -0.3832 O   0  0  0  0  0  0  0  0  0  0  0  0
   -6.1507    8.6725   -0.8045 C   0  0  0  0  0  0  0  0  0  0  0  0
   -7.0661    9.2021   -0.5115 H   0  0  0  0  0  0  0  0  0  0  0  0
   -5.3195    9.1451   -0.2732 H   0  0  0  0  0  0  0  0  0  0  0  0
   -6.0089    8.8344   -1.8766 H   0  0  0  0  0  0  0  0  0  0  0  0
  1  2  1  0  0  0  0
  1 11  2  0  0  0  0
  2  3  1  0  0  0  0
  4  1  1  0  0  0  0
  5  4  2  0  0  0  0
  5  6  1  0  0  0  0
  6 10  2  0  0  0  0
  7  6  1  0  0  0  0
  7  9  2  0  0  0  0
  8  7  2  0  0  0  0
 10 11  1  0  0  0  0
 10 14  1  0  0  0  0
 11 15  1  0  0  0  0
 12  4  1  0  0  0  0
 13  5  1  0  0  0  0
 16 22  1  0  0  0  0
 17 16  1  0  0  0  0
 17 23  1  0  0  0  0
 18 17  2  0  0  0  0
 19 20  2  0  0  0  0
 19 18  1  0  0  0  0
 20 21  1  0  0  0  0
 21 26  1  0  0  0  0
 21 16  2  0  0  0  0
 24 19  1  0  0  0  0
 25 20  1  0  0  0  0
 26 27  2  0  0  0  0
 28  3  1  0  0  0  0
 28 26  1  0  0  0  0
 29 26  2  0  0  0  0
 30 31  1  0  0  0  0
 30 18  1  0  0  0  0
 30 32  1  0  0  0  0
 33 30  1  0  0  0  0
M  RAD  2   2   2   3   2
M  END
