Coordinates from ORCA-job 4-NO2PhN2+~TsO-_B3LYPG-6-31G_dp-CH-Scan-d09-49-n800
 OpenBabel11261919023D

 33 33  0  0  0  0  0  0  0  0999 V2000
   -2.7860    1.0812   -0.2300 C   0  0  0  0  0  0  0  0  0  0  0  0
   -3.8798    0.2863    0.2300 N   0  0  0  0  0  0  0  0  0  0  0  0
   -5.0001    0.7052    0.4400 N   0  0  0  0  0  0  0  0  0  0  0  0
   -2.6884    1.4871   -1.5563 C   0  0  0  0  0  0  0  0  0  0  0  0
   -1.5875    2.1597   -2.0455 C   0  0  0  0  0  0  0  0  0  0  0  0
   -0.5508    2.4239   -1.1458 C   0  0  0  0  0  0  0  0  0  0  0  0
    0.6370    3.1463   -1.6286 N   0  0  0  0  0  0  0  0  0  0  0  0
    0.6533    3.4860   -2.8106 O   0  0  0  0  0  0  0  0  0  0  0  0
    1.5368    3.3653   -0.8190 O   0  0  0  0  0  0  0  0  0  0  0  0
   -0.6020    2.0219    0.1879 C   0  0  0  0  0  0  0  0  0  0  0  0
   -1.7206    1.3314    0.6452 C   0  0  0  0  0  0  0  0  0  0  0  0
   -3.9398    1.1336   -2.5571 H   0  0  0  0  0  0  0  0  0  0  0  0
   -1.5073    2.4818   -3.0747 H   0  0  0  0  0  0  0  0  0  0  0  0
    0.2311    2.2452    0.8421 H   0  0  0  0  0  0  0  0  0  0  0  0
   -1.7812    0.9905    1.6729 H   0  0  0  0  0  0  0  0  0  0  0  0
   -6.0263    5.2380    1.2292 C   0  0  0  0  0  0  0  0  0  0  0  0
   -5.8038    6.5867    0.9636 C   0  0  0  0  0  0  0  0  0  0  0  0
   -5.9523    7.1061   -0.3312 C   0  0  0  0  0  0  0  0  0  0  0  0
   -6.3323    6.2363   -1.3649 C   0  0  0  0  0  0  0  0  0  0  0  0
   -6.5600    4.8845   -1.1220 C   0  0  0  0  0  0  0  0  0  0  0  0
   -6.3991    4.3991    0.1774 C   0  0  0  0  0  0  0  0  0  0  0  0
   -5.9221    4.8382    2.2318 H   0  0  0  0  0  0  0  0  0  0  0  0
   -5.5122    7.2481    1.7744 H   0  0  0  0  0  0  0  0  0  0  0  0
   -6.4550    6.6241   -2.3722 H   0  0  0  0  0  0  0  0  0  0  0  0
   -6.8655    4.2141   -1.9174 H   0  0  0  0  0  0  0  0  0  0  0  0
   -6.6923    2.6759    0.5037 S   0  0  0  0  0  0  0  0  0  0  0  0
   -6.9693    2.4728    1.9202 O   0  0  0  0  0  0  0  0  0  0  0  0
   -5.1021    2.1686    0.2059 O   0  0  0  0  0  0  0  0  0  0  0  0
   -7.5412    2.1049   -0.5348 O   0  0  0  0  0  0  0  0  0  0  0  0
   -5.7393    8.5755   -0.6014 C   0  0  0  0  0  0  0  0  0  0  0  0
   -6.6824    9.1283   -0.5102 H   0  0  0  0  0  0  0  0  0  0  0  0
   -5.0328    9.0154    0.1081 H   0  0  0  0  0  0  0  0  0  0  0  0
   -5.3602    8.7456   -1.6130 H   0  0  0  0  0  0  0  0  0  0  0  0
  1  2  1  0  0  0  0
  1 11  2  0  0  0  0
  2  3  1  0  0  0  0
  4  1  1  0  0  0  0
  5  4  2  0  0  0  0
  5  6  1  0  0  0  0
  6 10  2  0  0  0  0
  7  6  1  0  0  0  0
  7  9  2  0  0  0  0
  8  7  2  0  0  0  0
 10 11  1  0  0  0  0
 10 14  1  0  0  0  0
 11 15  1  0  0  0  0
 13  5  1  0  0  0  0
 16 22  1  0  0  0  0
 17 16  1  0  0  0  0
 17 23  1  0  0  0  0
 18 17  2  0  0  0  0
 19 20  2  0  0  0  0
 19 18  1  0  0  0  0
 20 21  1  0  0  0  0
 21 26  1  0  0  0  0
 21 16  2  0  0  0  0
 24 19  1  0  0  0  0
 25 20  1  0  0  0  0
 26 27  2  0  0  0  0
 28  3  1  0  0  0  0
 28 26  1  0  0  0  0
 29 26  2  0  0  0  0
 30 31  1  0  0  0  0
 30 18  1  0  0  0  0
 30 32  1  0  0  0  0
 33 30  1  0  0  0  0
M  RAD  4   2   2   3   2   4   2  12   2
M  END
