Coordinates from ORCA-job 4-NO2PhN2+~TsO-_B3LYPG-6-31G_dp-CH-Scan-d09-49-n800
 OpenBabel11261919033D

 33 33  0  0  0  0  0  0  0  0999 V2000
   -2.8447    0.7255   -0.9881 C   0  0  0  0  0  0  0  0  0  0  0  0
   -3.9144   -0.1639   -0.7460 N   0  0  0  0  0  0  0  0  0  0  0  0
   -4.7394   -0.9047   -0.6427 N   0  0  0  0  0  0  0  0  0  0  0  0
   -2.1919    0.4430   -2.1873 C   0  0  0  0  0  0  0  0  0  0  0  0
   -1.1252    1.3672   -2.3871 C   0  0  0  0  0  0  0  0  0  0  0  0
   -0.8131    2.3417   -1.4479 C   0  0  0  0  0  0  0  0  0  0  0  0
    0.3117    3.2691   -1.7129 N   0  0  0  0  0  0  0  0  0  0  0  0
    1.0931    2.9821   -2.6159 O   0  0  0  0  0  0  0  0  0  0  0  0
    0.3834    4.2879   -1.0211 O   0  0  0  0  0  0  0  0  0  0  0  0
   -1.5321    2.5351   -0.2476 C   0  0  0  0  0  0  0  0  0  0  0  0
   -2.6030    1.7046    0.0091 C   0  0  0  0  0  0  0  0  0  0  0  0
   -4.0612    4.2980   -0.1366 H   0  0  0  0  0  0  0  0  0  0  0  0
   -0.5240    1.3294   -3.2920 H   0  0  0  0  0  0  0  0  0  0  0  0
   -1.2308    3.3135    0.4415 H   0  0  0  0  0  0  0  0  0  0  0  0
   -3.2174    1.8053    0.9004 H   0  0  0  0  0  0  0  0  0  0  0  0
   -6.8275    5.2931    1.1504 C   0  0  0  0  0  0  0  0  0  0  0  0
   -6.6885    6.6104    0.7199 C   0  0  0  0  0  0  0  0  0  0  0  0
   -5.7650    7.0321   -0.2894 C   0  0  0  0  0  0  0  0  0  0  0  0
   -4.9802    6.0696   -0.8619 C   0  0  0  0  0  0  0  0  0  0  0  0
   -5.0593    4.6508   -0.4614 C   0  0  0  0  0  0  0  0  0  0  0  0
   -6.0339    4.3052    0.5869 C   0  0  0  0  0  0  0  0  0  0  0  0
   -7.5545    5.0168    1.9072 H   0  0  0  0  0  0  0  0  0  0  0  0
   -7.3242    7.3702    1.1714 H   0  0  0  0  0  0  0  0  0  0  0  0
   -4.2627    6.3332   -1.6354 H   0  0  0  0  0  0  0  0  0  0  0  0
   -5.2326    3.9925   -1.3314 H   0  0  0  0  0  0  0  0  0  0  0  0
   -6.1283    2.5933    1.1736 S   0  0  0  0  0  0  0  0  0  0  0  0
   -7.4528    2.4887    1.8005 O   0  0  0  0  0  0  0  0  0  0  0  0
   -4.9622    2.6258    2.1009 O   0  0  0  0  0  0  0  0  0  0  0  0
   -5.9053    1.7972   -0.0555 O   0  0  0  0  0  0  0  0  0  0  0  0
   -5.6972    8.4876   -0.6780 C   0  0  0  0  0  0  0  0  0  0  0  0
   -6.6657    8.8407   -1.0485 H   0  0  0  0  0  0  0  0  0  0  0  0
   -5.4312    9.1111    0.1825 H   0  0  0  0  0  0  0  0  0  0  0  0
   -4.9533    8.6553   -1.4599 H   0  0  0  0  0  0  0  0  0  0  0  0
  1  2  1  0  0  0  0
  1 11  2  0  0  0  0
  2  3  1  0  0  0  0
  4  1  1  0  0  0  0
  5  4  2  0  0  0  0
  5  6  1  0  0  0  0
  6 10  2  0  0  0  0
  7  6  1  0  0  0  0
  7  9  2  0  0  0  0
  8  7  2  0  0  0  0
 10 11  1  0  0  0  0
 10 14  1  0  0  0  0
 11 15  1  0  0  0  0
 13  5  1  0  0  0  0
 16 22  1  0  0  0  0
 17 16  1  0  0  0  0
 17 23  1  0  0  0  0
 18 17  1  0  0  0  0
 19 20  1  0  0  0  0
 19 18  2  0  0  0  0
 20 12  1  0  0  0  0
 20 21  1  0  0  0  0
 21 16  2  0  0  0  0
 21 26  1  0  0  0  0
 24 19  1  0  0  0  0
 25 20  1  0  0  0  0
 26 27  2  0  0  0  0
 26 28  1  0  0  0  0
 29 26  2  0  0  0  0
 30 18  1  0  0  0  0
 30 32  1  0  0  0  0
 31 30  1  0  0  0  0
 33 30  1  0  0  0  0
M  RAD  5   2   2   3   3   4   2  17   2  28   2
M  END
