Coordinates from ORCA-job 4-NO2PhN2+~TsO-_B3LYPG-6-31G_dp-CH-Scan-d09-49-n800
 OpenBabel11261919023D

 33 33  0  0  0  0  0  0  0  0999 V2000
   -2.7709    1.0994   -0.2087 C   0  0  0  0  0  0  0  0  0  0  0  0
   -3.8649    0.2804    0.2096 N   0  0  0  0  0  0  0  0  0  0  0  0
   -4.9725    0.7118    0.4866 N   0  0  0  0  0  0  0  0  0  0  0  0
   -2.7293    1.8311   -1.3733 C   0  0  0  0  0  0  0  0  0  0  0  0
   -1.6762    2.5460   -1.8628 C   0  0  0  0  0  0  0  0  0  0  0  0
   -0.5186    2.4966   -1.0682 C   0  0  0  0  0  0  0  0  0  0  0  0
    0.6732    3.2393   -1.5189 N   0  0  0  0  0  0  0  0  0  0  0  0
    0.5826    3.8702   -2.5696 O   0  0  0  0  0  0  0  0  0  0  0  0
    1.6761    3.1787   -0.8110 O   0  0  0  0  0  0  0  0  0  0  0  0
   -0.4598    1.7653    0.1176 C   0  0  0  0  0  0  0  0  0  0  0  0
   -1.5786    1.0528    0.5396 C   0  0  0  0  0  0  0  0  0  0  0  0
   -5.1040    1.7581   -3.0493 H   0  0  0  0  0  0  0  0  0  0  0  0
   -1.6866    3.1123   -2.7858 H   0  0  0  0  0  0  0  0  0  0  0  0
    0.4610    1.7549    0.6865 H   0  0  0  0  0  0  0  0  0  0  0  0
   -1.5562    0.4639    1.4516 H   0  0  0  0  0  0  0  0  0  0  0  0
   -6.1742    5.3144    1.2737 C   0  0  0  0  0  0  0  0  0  0  0  0
   -5.9600    6.6448    0.9195 C   0  0  0  0  0  0  0  0  0  0  0  0
   -5.9328    7.0425   -0.4251 C   0  0  0  0  0  0  0  0  0  0  0  0
   -6.1243    6.0692   -1.4187 C   0  0  0  0  0  0  0  0  0  0  0  0
   -6.3437    4.7354   -1.0890 C   0  0  0  0  0  0  0  0  0  0  0  0
   -6.3626    4.3737    0.2608 C   0  0  0  0  0  0  0  0  0  0  0  0
   -6.2021    5.0050    2.3128 H   0  0  0  0  0  0  0  0  0  0  0  0
   -5.8121    7.3860    1.6999 H   0  0  0  0  0  0  0  0  0  0  0  0
   -6.1032    6.3619   -2.4650 H   0  0  0  0  0  0  0  0  0  0  0  0
   -6.4953    3.9853   -1.8575 H   0  0  0  0  0  0  0  0  0  0  0  0
   -6.6527    2.6763    0.6967 S   0  0  0  0  0  0  0  0  0  0  0  0
   -6.9044    2.5570    2.1269 O   0  0  0  0  0  0  0  0  0  0  0  0
   -5.0483    2.1590    0.4053 O   0  0  0  0  0  0  0  0  0  0  0  0
   -7.5033    2.0310   -0.2928 O   0  0  0  0  0  0  0  0  0  0  0  0
   -5.7308    8.4905   -0.7987 C   0  0  0  0  0  0  0  0  0  0  0  0
   -6.6954    8.9918   -0.9442 H   0  0  0  0  0  0  0  0  0  0  0  0
   -5.1936    9.0359   -0.0177 H   0  0  0  0  0  0  0  0  0  0  0  0
   -5.1701    8.5872   -1.7329 H   0  0  0  0  0  0  0  0  0  0  0  0
  1  2  1  0  0  0  0
  1 11  2  0  0  0  0
  2  3  1  0  0  0  0
  4  1  1  0  0  0  0
  5  4  2  0  0  0  0
  5  6  1  0  0  0  0
  6 10  2  0  0  0  0
  7  6  1  0  0  0  0
  7  9  2  0  0  0  0
  8  7  2  0  0  0  0
 10 11  1  0  0  0  0
 10 14  1  0  0  0  0
 11 15  1  0  0  0  0
 13  5  1  0  0  0  0
 16 22  1  0  0  0  0
 17 16  1  0  0  0  0
 17 23  1  0  0  0  0
 18 17  2  0  0  0  0
 19 20  2  0  0  0  0
 19 18  1  0  0  0  0
 20 21  1  0  0  0  0
 21 26  1  0  0  0  0
 21 16  2  0  0  0  0
 24 19  1  0  0  0  0
 25 20  1  0  0  0  0
 26 27  2  0  0  0  0
 28  3  1  0  0  0  0
 28 26  1  0  0  0  0
 29 26  2  0  0  0  0
 30 18  1  0  0  0  0
 30 32  1  0  0  0  0
 31 30  1  0  0  0  0
 33 30  1  0  0  0  0
M  RAD  4   2   2   3   2   4   2  12   2
M  END
