Coordinates from ORCA-job 4-NO2PhN2+~TsO-_B3LYPG-6-31G_dp-CH-Scan-d09-49-n800
 OpenBabel11261919023D

 33 33  0  0  0  0  0  0  0  0999 V2000
   -2.7668    1.0996   -0.2089 C   0  0  0  0  0  0  0  0  0  0  0  0
   -3.8631    0.2821    0.2057 N   0  0  0  0  0  0  0  0  0  0  0  0
   -4.9707    0.7150    0.4794 N   0  0  0  0  0  0  0  0  0  0  0  0
   -2.7228    1.8398   -1.3680 C   0  0  0  0  0  0  0  0  0  0  0  0
   -1.6661    2.5523   -1.8539 C   0  0  0  0  0  0  0  0  0  0  0  0
   -0.5076    2.4906   -1.0612 C   0  0  0  0  0  0  0  0  0  0  0  0
    0.6878    3.2295   -1.5084 N   0  0  0  0  0  0  0  0  0  0  0  0
    0.6014    3.8635   -2.5576 O   0  0  0  0  0  0  0  0  0  0  0  0
    1.6927    3.1541   -0.8047 O   0  0  0  0  0  0  0  0  0  0  0  0
   -0.4515    1.7505    0.1191 C   0  0  0  0  0  0  0  0  0  0  0  0
   -1.5736    1.0412    0.5372 C   0  0  0  0  0  0  0  0  0  0  0  0
   -5.1288    1.7963   -3.0615 H   0  0  0  0  0  0  0  0  0  0  0  0
   -1.6745    3.1251   -2.7727 H   0  0  0  0  0  0  0  0  0  0  0  0
    0.4699    1.7308    0.6867 H   0  0  0  0  0  0  0  0  0  0  0  0
   -1.5533    0.4453    1.4449 H   0  0  0  0  0  0  0  0  0  0  0  0
   -6.1678    5.3173    1.2721 C   0  0  0  0  0  0  0  0  0  0  0  0
   -5.9588    6.6479    0.9158 C   0  0  0  0  0  0  0  0  0  0  0  0
   -5.9429    7.0452   -0.4292 C   0  0  0  0  0  0  0  0  0  0  0  0
   -6.1402    6.0711   -1.4209 C   0  0  0  0  0  0  0  0  0  0  0  0
   -6.3546    4.7369   -1.0890 C   0  0  0  0  0  0  0  0  0  0  0  0
   -6.3625    4.3758    0.2610 C   0  0  0  0  0  0  0  0  0  0  0  0
   -6.1872    5.0083    2.3115 H   0  0  0  0  0  0  0  0  0  0  0  0
   -5.8061    7.3897    1.6947 H   0  0  0  0  0  0  0  0  0  0  0  0
   -6.1278    6.3633   -2.4674 H   0  0  0  0  0  0  0  0  0  0  0  0
   -6.5104    3.9866   -1.8567 H   0  0  0  0  0  0  0  0  0  0  0  0
   -6.6486    2.6787    0.7003 S   0  0  0  0  0  0  0  0  0  0  0  0
   -6.8894    2.5601    2.1324 O   0  0  0  0  0  0  0  0  0  0  0  0
   -5.0454    2.1610    0.3985 O   0  0  0  0  0  0  0  0  0  0  0  0
   -7.5060    2.0324   -0.2825 O   0  0  0  0  0  0  0  0  0  0  0  0
   -5.7469    8.4934   -0.8048 C   0  0  0  0  0  0  0  0  0  0  0  0
   -6.7137    8.9942   -0.9365 H   0  0  0  0  0  0  0  0  0  0  0  0
   -5.1993    9.0387   -0.0309 H   0  0  0  0  0  0  0  0  0  0  0  0
   -5.1991    8.5910   -1.7465 H   0  0  0  0  0  0  0  0  0  0  0  0
  1  2  1  0  0  0  0
  1 11  2  0  0  0  0
  2  3  1  0  0  0  0
  4  1  1  0  0  0  0
  5  4  2  0  0  0  0
  5  6  1  0  0  0  0
  6 10  2  0  0  0  0
  7  6  1  0  0  0  0
  7  9  2  0  0  0  0
  8  7  2  0  0  0  0
 10 11  1  0  0  0  0
 10 14  1  0  0  0  0
 11 15  1  0  0  0  0
 13  5  1  0  0  0  0
 16 22  1  0  0  0  0
 17 16  1  0  0  0  0
 17 23  1  0  0  0  0
 18 17  2  0  0  0  0
 19 20  2  0  0  0  0
 19 18  1  0  0  0  0
 20 21  1  0  0  0  0
 21 26  1  0  0  0  0
 21 16  2  0  0  0  0
 24 19  1  0  0  0  0
 25 20  1  0  0  0  0
 26 27  2  0  0  0  0
 28  3  1  0  0  0  0
 28 26  1  0  0  0  0
 29 26  2  0  0  0  0
 30 18  1  0  0  0  0
 30 32  1  0  0  0  0
 31 30  1  0  0  0  0
 33 30  1  0  0  0  0
M  RAD  4   2   2   3   2   4   2  12   2
M  END
