Coordinates from ORCA-job 4-NO2PhN2+~TsO-_B3LYPG-6-31G_dp-CH-Scan-d09-49-n800
 OpenBabel11261919023D

 33 33  0  0  0  0  0  0  0  0999 V2000
   -2.7694    1.0880   -0.2014 C   0  0  0  0  0  0  0  0  0  0  0  0
   -3.8637    0.3070    0.2789 N   0  0  0  0  0  0  0  0  0  0  0  0
   -4.9875    0.7204    0.4750 N   0  0  0  0  0  0  0  0  0  0  0  0
   -2.7103    1.5250   -1.5229 C   0  0  0  0  0  0  0  0  0  0  0  0
   -1.6014    2.1817   -2.0217 C   0  0  0  0  0  0  0  0  0  0  0  0
   -0.5317    2.3978   -1.1494 C   0  0  0  0  0  0  0  0  0  0  0  0
    0.6586    3.1033   -1.6506 N   0  0  0  0  0  0  0  0  0  0  0  0
    0.6465    3.4751   -2.8231 O   0  0  0  0  0  0  0  0  0  0  0  0
    1.5860    3.2837   -0.8630 O   0  0  0  0  0  0  0  0  0  0  0  0
   -0.5513    1.9624    0.1745 C   0  0  0  0  0  0  0  0  0  0  0  0
   -1.6720    1.2858    0.6466 C   0  0  0  0  0  0  0  0  0  0  0  0
   -3.9077    1.2546   -2.4290 H   0  0  0  0  0  0  0  0  0  0  0  0
   -1.5422    2.5289   -3.0444 H   0  0  0  0  0  0  0  0  0  0  0  0
    0.3069    2.1476    0.8079 H   0  0  0  0  0  0  0  0  0  0  0  0
   -1.7101    0.9164    1.6653 H   0  0  0  0  0  0  0  0  0  0  0  0
   -6.0519    5.2439    1.2174 C   0  0  0  0  0  0  0  0  0  0  0  0
   -5.8352    6.5946    0.9578 C   0  0  0  0  0  0  0  0  0  0  0  0
   -5.9770    7.1174   -0.3365 C   0  0  0  0  0  0  0  0  0  0  0  0
   -6.3440    6.2487   -1.3756 C   0  0  0  0  0  0  0  0  0  0  0  0
   -6.5655    4.8947   -1.1386 C   0  0  0  0  0  0  0  0  0  0  0  0
   -6.4116    4.4060    0.1602 C   0  0  0  0  0  0  0  0  0  0  0  0
   -5.9533    4.8417    2.2196 H   0  0  0  0  0  0  0  0  0  0  0  0
   -5.5536    7.2551    1.7730 H   0  0  0  0  0  0  0  0  0  0  0  0
   -6.4617    6.6391   -2.3826 H   0  0  0  0  0  0  0  0  0  0  0  0
   -6.8616    4.2251   -1.9383 H   0  0  0  0  0  0  0  0  0  0  0  0
   -6.6972    2.6799    0.4794 S   0  0  0  0  0  0  0  0  0  0  0  0
   -6.9996    2.4739    1.8903 O   0  0  0  0  0  0  0  0  0  0  0  0
   -5.1016    2.1842    0.2086 O   0  0  0  0  0  0  0  0  0  0  0  0
   -7.5247    2.1051   -0.5747 O   0  0  0  0  0  0  0  0  0  0  0  0
   -5.7708    8.5890   -0.5999 C   0  0  0  0  0  0  0  0  0  0  0  0
   -6.7151    9.1381   -0.4995 H   0  0  0  0  0  0  0  0  0  0  0  0
   -5.0614    9.0275    0.1076 H   0  0  0  0  0  0  0  0  0  0  0  0
   -5.3987    8.7662   -1.6129 H   0  0  0  0  0  0  0  0  0  0  0  0
  1  2  1  0  0  0  0
  1 11  2  0  0  0  0
  2  3  1  0  0  0  0
  4  1  1  0  0  0  0
  5  4  2  0  0  0  0
  5  6  1  0  0  0  0
  6 10  2  0  0  0  0
  7  6  1  0  0  0  0
  7  9  2  0  0  0  0
  8  7  2  0  0  0  0
 10 11  1  0  0  0  0
 10 14  1  0  0  0  0
 11 15  1  0  0  0  0
 13  5  1  0  0  0  0
 16 22  1  0  0  0  0
 17 16  1  0  0  0  0
 17 23  1  0  0  0  0
 18 17  2  0  0  0  0
 19 20  2  0  0  0  0
 19 18  1  0  0  0  0
 20 21  1  0  0  0  0
 21 26  1  0  0  0  0
 21 16  2  0  0  0  0
 24 19  1  0  0  0  0
 25 20  1  0  0  0  0
 26 27  2  0  0  0  0
 28  3  1  0  0  0  0
 28 26  1  0  0  0  0
 29 26  2  0  0  0  0
 30 31  1  0  0  0  0
 30 18  1  0  0  0  0
 30 32  1  0  0  0  0
 33 30  1  0  0  0  0
M  RAD  4   2   2   3   2   4   2  12   2
M  END
