Coordinates from ORCA-job 4-NO2PhN2+~TsO-_B3LYPG-6-31G_dp-CH-Scan-d09-49-n800
 OpenBabel11261919023D

 33 33  0  0  0  0  0  0  0  0999 V2000
   -2.7239    1.0958   -0.1318 C   0  0  0  0  0  0  0  0  0  0  0  0
   -3.8232    0.3017    0.3160 N   0  0  0  0  0  0  0  0  0  0  0  0
   -4.9370    0.7437    0.5610 N   0  0  0  0  0  0  0  0  0  0  0  0
   -2.7336    2.0165   -1.1523 C   0  0  0  0  0  0  0  0  0  0  0  0
   -1.6788    2.7355   -1.6296 C   0  0  0  0  0  0  0  0  0  0  0  0
   -0.4559    2.4680   -0.9904 C   0  0  0  0  0  0  0  0  0  0  0  0
    0.7451    3.1990   -1.4420 N   0  0  0  0  0  0  0  0  0  0  0  0
    0.6029    4.0155   -2.3488 O   0  0  0  0  0  0  0  0  0  0  0  0
    1.8055    2.9416   -0.8769 O   0  0  0  0  0  0  0  0  0  0  0  0
   -0.3392    1.5311    0.0360 C   0  0  0  0  0  0  0  0  0  0  0  0
   -1.4679    0.8319    0.4520 C   0  0  0  0  0  0  0  0  0  0  0  0
   -5.3240    2.3612   -3.1062 H   0  0  0  0  0  0  0  0  0  0  0  0
   -1.7294    3.4544   -2.4389 H   0  0  0  0  0  0  0  0  0  0  0  0
    0.6298    1.3558    0.4848 H   0  0  0  0  0  0  0  0  0  0  0  0
   -1.4109    0.0862    1.2401 H   0  0  0  0  0  0  0  0  0  0  0  0
   -6.1639    5.3415    1.2388 C   0  0  0  0  0  0  0  0  0  0  0  0
   -5.9756    6.6668    0.8525 C   0  0  0  0  0  0  0  0  0  0  0  0
   -5.9969    7.0386   -0.5000 C   0  0  0  0  0  0  0  0  0  0  0  0
   -6.2096    6.0443   -1.4679 C   0  0  0  0  0  0  0  0  0  0  0  0
   -6.4050    4.7148   -1.1059 C   0  0  0  0  0  0  0  0  0  0  0  0
   -6.3754    4.3795    0.2503 C   0  0  0  0  0  0  0  0  0  0  0  0
   -6.1545    5.0523    2.2840 H   0  0  0  0  0  0  0  0  0  0  0  0
   -5.8102    7.4245    1.6132 H   0  0  0  0  0  0  0  0  0  0  0  0
   -6.2251    6.3161   -2.5199 H   0  0  0  0  0  0  0  0  0  0  0  0
   -6.5700    3.9484   -1.8570 H   0  0  0  0  0  0  0  0  0  0  0  0
   -6.6378    2.6900    0.7304 S   0  0  0  0  0  0  0  0  0  0  0  0
   -6.8455    2.5991    2.1696 O   0  0  0  0  0  0  0  0  0  0  0  0
   -5.0309    2.1770    0.4087 O   0  0  0  0  0  0  0  0  0  0  0  0
   -7.5071    2.0130   -0.2199 O   0  0  0  0  0  0  0  0  0  0  0  0
   -5.8240    8.4813   -0.9071 C   0  0  0  0  0  0  0  0  0  0  0  0
   -6.7984    8.9711   -1.0224 H   0  0  0  0  0  0  0  0  0  0  0  0
   -5.2611    9.0453   -0.1581 H   0  0  0  0  0  0  0  0  0  0  0  0
   -5.3021    8.5661   -1.8646 H   0  0  0  0  0  0  0  0  0  0  0  0
  1  2  1  0  0  0  0
  1 11  2  0  0  0  0
  2  3  1  0  0  0  0
  4  1  1  0  0  0  0
  5  4  2  0  0  0  0
  5  6  1  0  0  0  0
  6 10  2  0  0  0  0
  7  6  1  0  0  0  0
  7  9  2  0  0  0  0
  8  7  2  0  0  0  0
 10 11  1  0  0  0  0
 10 14  1  0  0  0  0
 11 15  1  0  0  0  0
 13  5  1  0  0  0  0
 16 22  1  0  0  0  0
 17 16  1  0  0  0  0
 17 23  1  0  0  0  0
 18 17  2  0  0  0  0
 19 20  2  0  0  0  0
 19 18  1  0  0  0  0
 20 21  1  0  0  0  0
 21 26  1  0  0  0  0
 21 16  2  0  0  0  0
 24 19  1  0  0  0  0
 25 20  1  0  0  0  0
 26 27  2  0  0  0  0
 28  3  1  0  0  0  0
 28 26  1  0  0  0  0
 29 26  2  0  0  0  0
 30 18  1  0  0  0  0
 30 32  1  0  0  0  0
 31 30  1  0  0  0  0
 33 30  1  0  0  0  0
M  RAD  4   2   2   3   2   4   2  12   2
M  END
