Coordinates from ORCA-job 4-NO2PhN2+~TsO-_B3LYPG-6-31G_dp-CH-Scan-d09-49-n800
 OpenBabel11261919033D

 33 33  0  0  0  0  0  0  0  0999 V2000
   -2.8372    0.7173   -0.9920 C   0  0  0  0  0  0  0  0  0  0  0  0
   -3.9164   -0.1597   -0.7471 N   0  0  0  0  0  0  0  0  0  0  0  0
   -4.7484   -0.8920   -0.6409 N   0  0  0  0  0  0  0  0  0  0  0  0
   -2.1805    0.4171   -2.1848 C   0  0  0  0  0  0  0  0  0  0  0  0
   -1.1033    1.3279   -2.3877 C   0  0  0  0  0  0  0  0  0  0  0  0
   -0.7865    2.3080   -1.4559 C   0  0  0  0  0  0  0  0  0  0  0  0
    0.3503    3.2203   -1.7229 N   0  0  0  0  0  0  0  0  0  0  0  0
    1.1302    2.9190   -2.6224 O   0  0  0  0  0  0  0  0  0  0  0  0
    0.4332    4.2415   -1.0361 O   0  0  0  0  0  0  0  0  0  0  0  0
   -1.5102    2.5204   -0.2618 C   0  0  0  0  0  0  0  0  0  0  0  0
   -2.5912    1.7038   -0.0032 C   0  0  0  0  0  0  0  0  0  0  0  0
   -4.0604    4.3337   -0.1204 H   0  0  0  0  0  0  0  0  0  0  0  0
   -0.4974    1.2751   -3.2886 H   0  0  0  0  0  0  0  0  0  0  0  0
   -1.2047    3.3024    0.4213 H   0  0  0  0  0  0  0  0  0  0  0  0
   -3.2092    1.8186    0.8838 H   0  0  0  0  0  0  0  0  0  0  0  0
   -6.8465    5.2970    1.1480 C   0  0  0  0  0  0  0  0  0  0  0  0
   -6.7186    6.6168    0.7214 C   0  0  0  0  0  0  0  0  0  0  0  0
   -5.7921    7.0507   -0.2798 C   0  0  0  0  0  0  0  0  0  0  0  0
   -4.9922    6.0981   -0.8482 C   0  0  0  0  0  0  0  0  0  0  0  0
   -5.0592    4.6773   -0.4517 C   0  0  0  0  0  0  0  0  0  0  0  0
   -6.0381    4.3191    0.5886 C   0  0  0  0  0  0  0  0  0  0  0  0
   -7.5758    5.0110    1.8991 H   0  0  0  0  0  0  0  0  0  0  0  0
   -7.3658    7.3687    1.1699 H   0  0  0  0  0  0  0  0  0  0  0  0
   -4.2717    6.3713   -1.6155 H   0  0  0  0  0  0  0  0  0  0  0  0
   -5.2205    4.0203   -1.3250 H   0  0  0  0  0  0  0  0  0  0  0  0
   -6.1185    2.6046    1.1696 S   0  0  0  0  0  0  0  0  0  0  0  0
   -7.4399    2.4881    1.8010 O   0  0  0  0  0  0  0  0  0  0  0  0
   -4.9489    2.6398    2.0922 O   0  0  0  0  0  0  0  0  0  0  0  0
   -5.8951    1.8156   -0.0643 O   0  0  0  0  0  0  0  0  0  0  0  0
   -5.7374    8.5077   -0.6649 C   0  0  0  0  0  0  0  0  0  0  0  0
   -6.7066    8.8504   -1.0433 H   0  0  0  0  0  0  0  0  0  0  0  0
   -5.4863    9.1323    0.1991 H   0  0  0  0  0  0  0  0  0  0  0  0
   -4.9885    8.6855   -1.4398 H   0  0  0  0  0  0  0  0  0  0  0  0
  1  2  1  0  0  0  0
  1 11  2  0  0  0  0
  2  3  1  0  0  0  0
  4  1  1  0  0  0  0
  5  4  2  0  0  0  0
  5  6  1  0  0  0  0
  6 10  2  0  0  0  0
  7  6  1  0  0  0  0
  7  9  2  0  0  0  0
  8  7  2  0  0  0  0
 10 11  1  0  0  0  0
 10 14  1  0  0  0  0
 11 15  1  0  0  0  0
 13  5  1  0  0  0  0
 16 22  1  0  0  0  0
 17 16  1  0  0  0  0
 17 23  1  0  0  0  0
 18 17  1  0  0  0  0
 19 20  1  0  0  0  0
 19 18  2  0  0  0  0
 20 12  1  0  0  0  0
 20 21  1  0  0  0  0
 21 16  2  0  0  0  0
 21 26  1  0  0  0  0
 24 19  1  0  0  0  0
 25 20  1  0  0  0  0
 26 27  2  0  0  0  0
 26 28  1  0  0  0  0
 29 26  2  0  0  0  0
 30 18  1  0  0  0  0
 30 32  1  0  0  0  0
 31 30  1  0  0  0  0
 33 30  1  0  0  0  0
M  RAD  5   2   2   3   3   4   2  17   2  28   2
M  END
