Coordinates from ORCA-job 4-NO2PhN2+~TsO-_B3LYPG-6-31G_dp-CH-Scan-d09-49-n800
 OpenBabel11261919033D

 33 33  0  0  0  0  0  0  0  0999 V2000
   -2.8835    0.7733   -0.9667 C   0  0  0  0  0  0  0  0  0  0  0  0
   -3.9055   -0.1765   -0.7412 N   0  0  0  0  0  0  0  0  0  0  0  0
   -4.6932   -0.9586   -0.6544 N   0  0  0  0  0  0  0  0  0  0  0  0
   -2.2664    0.5904   -2.2034 C   0  0  0  0  0  0  0  0  0  0  0  0
   -1.2521    1.5784   -2.3834 C   0  0  0  0  0  0  0  0  0  0  0  0
   -0.9547    2.5156   -1.4029 C   0  0  0  0  0  0  0  0  0  0  0  0
    0.1054    3.5186   -1.6562 N   0  0  0  0  0  0  0  0  0  0  0  0
    0.8829    3.3128   -2.5841 O   0  0  0  0  0  0  0  0  0  0  0  0
    0.1276    4.5159   -0.9300 O   0  0  0  0  0  0  0  0  0  0  0  0
   -1.6357    2.6040   -0.1680 C   0  0  0  0  0  0  0  0  0  0  0  0
   -2.6523    1.7039    0.0778 C   0  0  0  0  0  0  0  0  0  0  0  0
   -4.0663    4.1196   -0.2113 H   0  0  0  0  0  0  0  0  0  0  0  0
   -0.6835    1.6217   -3.3091 H   0  0  0  0  0  0  0  0  0  0  0  0
   -1.3478    3.3574    0.5539 H   0  0  0  0  0  0  0  0  0  0  0  0
   -3.2393    1.7273    0.9924 H   0  0  0  0  0  0  0  0  0  0  0  0
   -6.7282    5.2707    1.1568 C   0  0  0  0  0  0  0  0  0  0  0  0
   -6.5335    6.5732    0.7054 C   0  0  0  0  0  0  0  0  0  0  0  0
   -5.6261    6.9338   -0.3414 C   0  0  0  0  0  0  0  0  0  0  0  0
   -4.9181    5.9232   -0.9315 C   0  0  0  0  0  0  0  0  0  0  0  0
   -5.0580    4.5168   -0.5085 C   0  0  0  0  0  0  0  0  0  0  0  0
   -6.0105    4.2345    0.5766 C   0  0  0  0  0  0  0  0  0  0  0  0
   -7.4427    5.0431    1.9412 H   0  0  0  0  0  0  0  0  0  0  0  0
   -7.1104    7.3713    1.1696 H   0  0  0  0  0  0  0  0  0  0  0  0
   -4.2167    6.1391   -1.7338 H   0  0  0  0  0  0  0  0  0  0  0  0
   -5.2869    3.8527   -1.3610 H   0  0  0  0  0  0  0  0  0  0  0  0
   -6.1743    2.5375    1.1919 S   0  0  0  0  0  0  0  0  0  0  0  0
   -7.5123    2.4925    1.7972 O   0  0  0  0  0  0  0  0  0  0  0  0
   -5.0251    2.5548    2.1410 O   0  0  0  0  0  0  0  0  0  0  0  0
   -5.9568    1.7071   -0.0146 O   0  0  0  0  0  0  0  0  0  0  0  0
   -5.4914    8.3793   -0.7494 C   0  0  0  0  0  0  0  0  0  0  0  0
   -6.4534    8.7861   -1.0791 H   0  0  0  0  0  0  0  0  0  0  0  0
   -5.1486    8.9932    0.0906 H   0  0  0  0  0  0  0  0  0  0  0  0
   -4.7760    8.4953   -1.5665 H   0  0  0  0  0  0  0  0  0  0  0  0
  1  2  1  0  0  0  0
  1 11  2  0  0  0  0
  2  3  1  0  0  0  0
  4  1  1  0  0  0  0
  5  4  2  0  0  0  0
  5  6  1  0  0  0  0
  6 10  2  0  0  0  0
  7  6  1  0  0  0  0
  7  9  2  0  0  0  0
  8  7  2  0  0  0  0
 10 11  1  0  0  0  0
 10 14  1  0  0  0  0
 11 15  1  0  0  0  0
 13  5  1  0  0  0  0
 16 22  1  0  0  0  0
 17 16  1  0  0  0  0
 17 23  1  0  0  0  0
 18 17  1  0  0  0  0
 19 20  1  0  0  0  0
 19 18  2  0  0  0  0
 20 12  1  0  0  0  0
 20 21  1  0  0  0  0
 21 16  2  0  0  0  0
 21 26  1  0  0  0  0
 24 19  1  0  0  0  0
 25 20  1  0  0  0  0
 26 27  2  0  0  0  0
 26 28  1  0  0  0  0
 29 26  2  0  0  0  0
 30 18  1  0  0  0  0
 30 32  1  0  0  0  0
 31 30  1  0  0  0  0
 33 30  1  0  0  0  0
M  RAD  5   2   2   3   3   4   2  17   2  28   2
M  END
