Coordinates from ORCA-job 4-NO2PhN2+~TsO-_B3LYPG-6-31G_dp-CH-Scan-d09-49-n800
 OpenBabel11261919033D

 33 33  0  0  0  0  0  0  0  0999 V2000
   -2.8910    0.7837   -0.9628 C   0  0  0  0  0  0  0  0  0  0  0  0
   -3.9052   -0.1755   -0.7398 N   0  0  0  0  0  0  0  0  0  0  0  0
   -4.6864   -0.9643   -0.6555 N   0  0  0  0  0  0  0  0  0  0  0  0
   -2.2820    0.6176   -2.2057 C   0  0  0  0  0  0  0  0  0  0  0  0
   -1.2760    1.6151   -2.3825 C   0  0  0  0  0  0  0  0  0  0  0  0
   -0.9797    2.5458   -1.3958 C   0  0  0  0  0  0  0  0  0  0  0  0
    0.0693    3.5608   -1.6473 N   0  0  0  0  0  0  0  0  0  0  0  0
    0.8449    3.3685   -2.5796 O   0  0  0  0  0  0  0  0  0  0  0  0
    0.0863    4.5524   -0.9132 O   0  0  0  0  0  0  0  0  0  0  0  0
   -1.6527    2.6168   -0.1553 C   0  0  0  0  0  0  0  0  0  0  0  0
   -2.6598    1.7056    0.0890 C   0  0  0  0  0  0  0  0  0  0  0  0
   -4.0666    4.0895   -0.2208 H   0  0  0  0  0  0  0  0  0  0  0  0
   -0.7135    1.6711   -3.3113 H   0  0  0  0  0  0  0  0  0  0  0  0
   -1.3664    3.3658    0.5717 H   0  0  0  0  0  0  0  0  0  0  0  0
   -3.2410    1.7163    1.0074 H   0  0  0  0  0  0  0  0  0  0  0  0
   -6.7118    5.2657    1.1567 C   0  0  0  0  0  0  0  0  0  0  0  0
   -6.5075    6.5655    0.7018 C   0  0  0  0  0  0  0  0  0  0  0  0
   -5.6021    6.9159   -0.3503 C   0  0  0  0  0  0  0  0  0  0  0  0
   -4.9064    5.8978   -0.9420 C   0  0  0  0  0  0  0  0  0  0  0  0
   -5.0566    4.4939   -0.5152 C   0  0  0  0  0  0  0  0  0  0  0  0
   -6.0062    4.2219    0.5747 C   0  0  0  0  0  0  0  0  0  0  0  0
   -7.4246    5.0463    1.9448 H   0  0  0  0  0  0  0  0  0  0  0  0
   -7.0749    7.3696    1.1672 H   0  0  0  0  0  0  0  0  0  0  0  0
   -4.2072    6.1058   -1.7483 H   0  0  0  0  0  0  0  0  0  0  0  0
   -5.2933    3.8288   -1.3648 H   0  0  0  0  0  0  0  0  0  0  0  0
   -6.1818    2.5278    1.1948 S   0  0  0  0  0  0  0  0  0  0  0  0
   -7.5222    2.4925    1.7954 O   0  0  0  0  0  0  0  0  0  0  0  0
   -5.0361    2.5424    2.1481 O   0  0  0  0  0  0  0  0  0  0  0  0
   -5.9645    1.6924   -0.0081 O   0  0  0  0  0  0  0  0  0  0  0  0
   -5.4561    8.3593   -0.7616 C   0  0  0  0  0  0  0  0  0  0  0  0
   -6.4162    8.7751   -1.0856 H   0  0  0  0  0  0  0  0  0  0  0  0
   -5.1015    8.9712    0.0751 H   0  0  0  0  0  0  0  0  0  0  0  0
   -4.7449    8.4669   -1.5835 H   0  0  0  0  0  0  0  0  0  0  0  0
  1  2  1  0  0  0  0
  1 11  2  0  0  0  0
  2  3  1  0  0  0  0
  4  1  1  0  0  0  0
  5  4  2  0  0  0  0
  5  6  1  0  0  0  0
  6 10  2  0  0  0  0
  7  6  1  0  0  0  0
  7  9  2  0  0  0  0
  8  7  2  0  0  0  0
 10 11  1  0  0  0  0
 10 14  1  0  0  0  0
 11 15  1  0  0  0  0
 13  5  1  0  0  0  0
 16 22  1  0  0  0  0
 17 16  1  0  0  0  0
 17 23  1  0  0  0  0
 18 17  1  0  0  0  0
 19 20  1  0  0  0  0
 19 18  2  0  0  0  0
 20 12  1  0  0  0  0
 20 21  1  0  0  0  0
 21 16  2  0  0  0  0
 21 26  1  0  0  0  0
 24 19  1  0  0  0  0
 25 20  1  0  0  0  0
 26 27  2  0  0  0  0
 26 28  1  0  0  0  0
 29 26  2  0  0  0  0
 30 18  1  0  0  0  0
 30 32  1  0  0  0  0
 31 30  1  0  0  0  0
 33 30  1  0  0  0  0
M  RAD  5   2   2   3   3   4   2  17   2  28   2
M  END
