Coordinates from ORCA-job 4-NO2PhN2+~TsO-_B3LYPG-6-31G_dp-CH-Scan-d09-49-n800
 OpenBabel11261919033D

 33 33  0  0  0  0  0  0  0  0999 V2000
   -2.8646    0.7466   -0.9757 C   0  0  0  0  0  0  0  0  0  0  0  0
   -3.9085   -0.1758   -0.7412 N   0  0  0  0  0  0  0  0  0  0  0  0
   -4.7137   -0.9388   -0.6454 N   0  0  0  0  0  0  0  0  0  0  0  0
   -2.2277    0.5150   -2.1942 C   0  0  0  0  0  0  0  0  0  0  0  0
   -1.1903    1.4754   -2.3853 C   0  0  0  0  0  0  0  0  0  0  0  0
   -0.8893    2.4332   -1.4258 C   0  0  0  0  0  0  0  0  0  0  0  0
    0.1997    3.4030   -1.6866 N   0  0  0  0  0  0  0  0  0  0  0  0
    0.9821    3.1578   -2.6008 O   0  0  0  0  0  0  0  0  0  0  0  0
    0.2409    4.4137   -0.9802 O   0  0  0  0  0  0  0  0  0  0  0  0
   -1.5905    2.5721   -0.2072 C   0  0  0  0  0  0  0  0  0  0  0  0
   -2.6315    1.7028    0.0452 C   0  0  0  0  0  0  0  0  0  0  0  0
   -4.0604    4.2057   -0.1731 H   0  0  0  0  0  0  0  0  0  0  0  0
   -0.6052    1.4798   -3.3016 H   0  0  0  0  0  0  0  0  0  0  0  0
   -1.2986    3.3393    0.4983 H   0  0  0  0  0  0  0  0  0  0  0  0
   -3.2329    1.7635    0.9488 H   0  0  0  0  0  0  0  0  0  0  0  0
   -6.7765    5.2815    1.1526 C   0  0  0  0  0  0  0  0  0  0  0  0
   -6.6082    6.5916    0.7117 C   0  0  0  0  0  0  0  0  0  0  0  0
   -5.6908    6.9818   -0.3157 C   0  0  0  0  0  0  0  0  0  0  0  0
   -4.9441    5.9940   -0.8964 C   0  0  0  0  0  0  0  0  0  0  0  0
   -5.0552    4.5812   -0.4847 C   0  0  0  0  0  0  0  0  0  0  0  0
   -6.0206    4.2682    0.5814 C   0  0  0  0  0  0  0  0  0  0  0  0
   -7.4988    5.0302    1.9226 H   0  0  0  0  0  0  0  0  0  0  0  0
   -7.2147    7.3714    1.1690 H   0  0  0  0  0  0  0  0  0  0  0  0
   -4.2332    6.2330   -1.6838 H   0  0  0  0  0  0  0  0  0  0  0  0
   -5.2561    3.9195   -1.3462 H   0  0  0  0  0  0  0  0  0  0  0  0
   -6.1520    2.5636    1.1826 S   0  0  0  0  0  0  0  0  0  0  0  0
   -7.4848    2.4897    1.7963 O   0  0  0  0  0  0  0  0  0  0  0  0
   -4.9961    2.5881    2.1231 O   0  0  0  0  0  0  0  0  0  0  0  0
   -5.9296    1.7498   -0.0347 O   0  0  0  0  0  0  0  0  0  0  0  0
   -5.5881    8.4326   -0.7140 C   0  0  0  0  0  0  0  0  0  0  0  0
   -6.5533    8.8128   -1.0656 H   0  0  0  0  0  0  0  0  0  0  0  0
   -5.2844    9.0521    0.1369 H   0  0  0  0  0  0  0  0  0  0  0  0
   -4.8566    8.5736   -1.5127 H   0  0  0  0  0  0  0  0  0  0  0  0
  1  2  1  0  0  0  0
  1 11  2  0  0  0  0
  2  3  1  0  0  0  0
  4  1  1  0  0  0  0
  5  4  2  0  0  0  0
  5  6  1  0  0  0  0
  6 10  2  0  0  0  0
  7  6  1  0  0  0  0
  7  9  2  0  0  0  0
  8  7  2  0  0  0  0
 10 11  1  0  0  0  0
 10 14  1  0  0  0  0
 11 15  1  0  0  0  0
 13  5  1  0  0  0  0
 16 22  1  0  0  0  0
 17 16  1  0  0  0  0
 17 23  1  0  0  0  0
 18 17  1  0  0  0  0
 19 20  1  0  0  0  0
 19 18  2  0  0  0  0
 20 12  1  0  0  0  0
 20 21  1  0  0  0  0
 21 16  2  0  0  0  0
 21 26  1  0  0  0  0
 24 19  1  0  0  0  0
 25 20  1  0  0  0  0
 26 27  2  0  0  0  0
 26 28  1  0  0  0  0
 29 26  2  0  0  0  0
 30 18  1  0  0  0  0
 30 32  1  0  0  0  0
 31 30  1  0  0  0  0
 33 30  1  0  0  0  0
M  RAD  5   2   2   3   3   4   2  17   2  28   2
M  END
