Coordinates from ORCA-job 4-NO2PhN2+~TsO-_B3LYPG-6-31G_dp-CH-Scan-d09-49-n800
 OpenBabel11261919023D

 33 33  0  0  0  0  0  0  0  0999 V2000
   -2.9060    0.7972   -0.9583 C   0  0  0  0  0  0  0  0  0  0  0  0
   -3.9058   -0.1803   -0.7463 N   0  0  0  0  0  0  0  0  0  0  0  0
   -4.6751   -0.9817   -0.6722 N   0  0  0  0  0  0  0  0  0  0  0  0
   -2.3178    0.6742   -2.2161 C   0  0  0  0  0  0  0  0  0  0  0  0
   -1.3289    1.6916   -2.3808 C   0  0  0  0  0  0  0  0  0  0  0  0
   -1.0342    2.6037   -1.3764 C   0  0  0  0  0  0  0  0  0  0  0  0
   -0.0114    3.6468   -1.6208 N   0  0  0  0  0  0  0  0  0  0  0  0
    0.7549    3.4918   -2.5675 O   0  0  0  0  0  0  0  0  0  0  0  0
   -0.0086    4.6245   -0.8680 O   0  0  0  0  0  0  0  0  0  0  0  0
   -1.6859    2.6302   -0.1226 C   0  0  0  0  0  0  0  0  0  0  0  0
   -2.6714    1.6935    0.1147 C   0  0  0  0  0  0  0  0  0  0  0  0
   -4.0615    4.0376   -0.2372 H   0  0  0  0  0  0  0  0  0  0  0  0
   -0.7802    1.7795   -3.3154 H   0  0  0  0  0  0  0  0  0  0  0  0
   -1.4005    3.3652    0.6188 H   0  0  0  0  0  0  0  0  0  0  0  0
   -3.2374    1.6710    1.0422 H   0  0  0  0  0  0  0  0  0  0  0  0
   -6.6755    5.2583    1.1552 C   0  0  0  0  0  0  0  0  0  0  0  0
   -6.4554    6.5522    0.6915 C   0  0  0  0  0  0  0  0  0  0  0  0
   -5.5552    6.8831   -0.3713 C   0  0  0  0  0  0  0  0  0  0  0  0
   -4.8821    5.8509   -0.9648 C   0  0  0  0  0  0  0  0  0  0  0  0
   -5.0492    4.4524   -0.5281 C   0  0  0  0  0  0  0  0  0  0  0  0
   -5.9924    4.2004    0.5715 C   0  0  0  0  0  0  0  0  0  0  0  0
   -7.3841    5.0545    1.9513 H   0  0  0  0  0  0  0  0  0  0  0  0
   -7.0054    7.3675    1.1583 H   0  0  0  0  0  0  0  0  0  0  0  0
   -4.1878    6.0437   -1.7790 H   0  0  0  0  0  0  0  0  0  0  0  0
   -5.2983    3.7833   -1.3708 H   0  0  0  0  0  0  0  0  0  0  0  0
   -6.1879    2.5126    1.2034 S   0  0  0  0  0  0  0  0  0  0  0  0
   -7.5308    2.4966    1.7995 O   0  0  0  0  0  0  0  0  0  0  0  0
   -5.0456    2.5235    2.1609 O   0  0  0  0  0  0  0  0  0  0  0  0
   -5.9755    1.6647    0.0085 O   0  0  0  0  0  0  0  0  0  0  0  0
   -5.3900    8.3219   -0.7915 C   0  0  0  0  0  0  0  0  0  0  0  0
   -6.3466    8.7522   -1.1065 H   0  0  0  0  0  0  0  0  0  0  0  0
   -5.0153    8.9317    0.0380 H   0  0  0  0  0  0  0  0  0  0  0  0
   -4.6867    8.4134   -1.6221 H   0  0  0  0  0  0  0  0  0  0  0  0
  1  2  1  0  0  0  0
  1 11  2  0  0  0  0
  2  3  1  0  0  0  0
  4  1  1  0  0  0  0
  5  4  2  0  0  0  0
  5  6  1  0  0  0  0
  6 10  2  0  0  0  0
  7  6  1  0  0  0  0
  7  9  2  0  0  0  0
  8  7  2  0  0  0  0
 10 11  1  0  0  0  0
 10 14  1  0  0  0  0
 11 15  1  0  0  0  0
 13  5  1  0  0  0  0
 16 22  1  0  0  0  0
 17 16  1  0  0  0  0
 17 23  1  0  0  0  0
 18 17  1  0  0  0  0
 19 20  1  0  0  0  0
 19 18  2  0  0  0  0
 20 12  1  0  0  0  0
 20 21  1  0  0  0  0
 21 16  2  0  0  0  0
 21 26  1  0  0  0  0
 24 19  1  0  0  0  0
 25 20  1  0  0  0  0
 26 27  2  0  0  0  0
 26 28  1  0  0  0  0
 29 26  2  0  0  0  0
 30 18  1  0  0  0  0
 30 32  1  0  0  0  0
 31 30  1  0  0  0  0
 33 30  1  0  0  0  0
M  RAD  5   2   2   3   3   4   2  17   2  28   2
M  END
