Coordinates from ORCA-job 4-NO2PhN2+~TsO-_B3LYPG-6-31G_dp-CH-Scan-d09-49-n800
 OpenBabel11261919023D

 33 33  0  0  0  0  0  0  0  0999 V2000
   -2.7863    1.0875   -0.2475 C   0  0  0  0  0  0  0  0  0  0  0  0
   -3.8846    0.2670    0.1591 N   0  0  0  0  0  0  0  0  0  0  0  0
   -4.9973    0.6994    0.4026 N   0  0  0  0  0  0  0  0  0  0  0  0
   -2.6517    1.6169   -1.5112 C   0  0  0  0  0  0  0  0  0  0  0  0
   -1.5851    2.3188   -1.9947 C   0  0  0  0  0  0  0  0  0  0  0  0
   -0.5305    2.4862   -1.0831 C   0  0  0  0  0  0  0  0  0  0  0  0
    0.6638    3.2306   -1.5204 N   0  0  0  0  0  0  0  0  0  0  0  0
    0.6696    3.6677   -2.6692 O   0  0  0  0  0  0  0  0  0  0  0  0
    1.5737    3.3671   -0.7050 O   0  0  0  0  0  0  0  0  0  0  0  0
   -0.5756    1.9688    0.2111 C   0  0  0  0  0  0  0  0  0  0  0  0
   -1.6971    1.2562    0.6271 C   0  0  0  0  0  0  0  0  0  0  0  0
   -4.7118    1.1608   -3.1346 H   0  0  0  0  0  0  0  0  0  0  0  0
   -1.5187    2.7266   -2.9953 H   0  0  0  0  0  0  0  0  0  0  0  0
    0.2686    2.1236    0.8709 H   0  0  0  0  0  0  0  0  0  0  0  0
   -1.7509    0.8327    1.6251 H   0  0  0  0  0  0  0  0  0  0  0  0
   -6.0181    5.2621    1.2573 C   0  0  0  0  0  0  0  0  0  0  0  0
   -5.7979    6.6017    0.9452 C   0  0  0  0  0  0  0  0  0  0  0  0
   -5.9262    7.0711   -0.3704 C   0  0  0  0  0  0  0  0  0  0  0  0
   -6.2826    6.1607   -1.3780 C   0  0  0  0  0  0  0  0  0  0  0  0
   -6.5086    4.8182   -1.0893 C   0  0  0  0  0  0  0  0  0  0  0  0
   -6.3691    4.3837    0.2311 C   0  0  0  0  0  0  0  0  0  0  0  0
   -5.9282    4.8994    2.2752 H   0  0  0  0  0  0  0  0  0  0  0  0
   -5.5238    7.2946    1.7355 H   0  0  0  0  0  0  0  0  0  0  0  0
   -6.3878    6.5098   -2.4014 H   0  0  0  0  0  0  0  0  0  0  0  0
   -6.7934    4.1167   -1.8654 H   0  0  0  0  0  0  0  0  0  0  0  0
   -6.6624    2.6741    0.6150 S   0  0  0  0  0  0  0  0  0  0  0  0
   -6.8754    2.5066    2.0468 O   0  0  0  0  0  0  0  0  0  0  0  0
   -5.0748    2.1501    0.2667 O   0  0  0  0  0  0  0  0  0  0  0  0
   -7.5501    2.0765   -0.3726 O   0  0  0  0  0  0  0  0  0  0  0  0
   -5.7156    8.5299   -0.6939 C   0  0  0  0  0  0  0  0  0  0  0  0
   -6.6718    9.0668   -0.7072 H   0  0  0  0  0  0  0  0  0  0  0  0
   -5.0763    9.0174    0.0474 H   0  0  0  0  0  0  0  0  0  0  0  0
   -5.2575    8.6583   -1.6791 H   0  0  0  0  0  0  0  0  0  0  0  0
  1  2  1  0  0  0  0
  1 11  2  0  0  0  0
  2  3  1  0  0  0  0
  4  1  1  0  0  0  0
  5  4  2  0  0  0  0
  5  6  1  0  0  0  0
  6 10  2  0  0  0  0
  7  6  1  0  0  0  0
  7  9  2  0  0  0  0
  8  7  2  0  0  0  0
 10 11  1  0  0  0  0
 10 14  1  0  0  0  0
 11 15  1  0  0  0  0
 13  5  1  0  0  0  0
 16 22  1  0  0  0  0
 17 16  1  0  0  0  0
 17 23  1  0  0  0  0
 18 17  2  0  0  0  0
 19 20  2  0  0  0  0
 19 18  1  0  0  0  0
 20 21  1  0  0  0  0
 21 26  1  0  0  0  0
 21 16  2  0  0  0  0
 24 19  1  0  0  0  0
 25 20  1  0  0  0  0
 26 27  2  0  0  0  0
 28  3  1  0  0  0  0
 28 26  1  0  0  0  0
 29 26  2  0  0  0  0
 30 18  1  0  0  0  0
 30 32  1  0  0  0  0
 31 30  1  0  0  0  0
 33 30  1  0  0  0  0
M  RAD  4   2   2   3   2   4   2  12   2
M  END
