Coordinates from ORCA-job 4-NO2PhN2+~TsO-_B3LYPG-6-31G_dp-CH-Scan-d09-49-n800
 OpenBabel11261919023D

 33 33  0  0  0  0  0  0  0  0999 V2000
   -2.9662    0.8467   -0.9730 C   0  0  0  0  0  0  0  0  0  0  0  0
   -3.9404   -0.1649   -0.7975 N   0  0  0  0  0  0  0  0  0  0  0  0
   -4.6904   -0.9864   -0.7569 N   0  0  0  0  0  0  0  0  0  0  0  0
   -2.4530    0.8527   -2.2688 C   0  0  0  0  0  0  0  0  0  0  0  0
   -1.4904    1.9009   -2.3936 C   0  0  0  0  0  0  0  0  0  0  0  0
   -1.1611    2.7313   -1.3308 C   0  0  0  0  0  0  0  0  0  0  0  0
   -0.1841    3.8247   -1.5409 N   0  0  0  0  0  0  0  0  0  0  0  0
    0.5375    3.7705   -2.5325 O   0  0  0  0  0  0  0  0  0  0  0  0
   -0.1752    4.7413   -0.7148 O   0  0  0  0  0  0  0  0  0  0  0  0
   -1.7394    2.6300   -0.0451 C   0  0  0  0  0  0  0  0  0  0  0  0
   -2.6874    1.6480    0.1618 C   0  0  0  0  0  0  0  0  0  0  0  0
   -4.0105    3.9495   -0.1959 H   0  0  0  0  0  0  0  0  0  0  0  0
   -0.9931    2.0813   -3.3436 H   0  0  0  0  0  0  0  0  0  0  0  0
   -1.4321    3.3072    0.7413 H   0  0  0  0  0  0  0  0  0  0  0  0
   -3.2051    1.5372    1.1100 H   0  0  0  0  0  0  0  0  0  0  0  0
   -6.6124    5.2391    1.1324 C   0  0  0  0  0  0  0  0  0  0  0  0
   -6.3665    6.5165    0.6365 C   0  0  0  0  0  0  0  0  0  0  0  0
   -5.4560    6.8032   -0.4297 C   0  0  0  0  0  0  0  0  0  0  0  0
   -4.7995    5.7433   -0.9929 C   0  0  0  0  0  0  0  0  0  0  0  0
   -4.9914    4.3614   -0.5180 C   0  0  0  0  0  0  0  0  0  0  0  0
   -5.9467    4.1539    0.5793 C   0  0  0  0  0  0  0  0  0  0  0  0
   -7.3281    5.0689    1.9300 H   0  0  0  0  0  0  0  0  0  0  0  0
   -6.9034    7.3533    1.0797 H   0  0  0  0  0  0  0  0  0  0  0  0
   -4.0976    5.9018   -1.8080 H   0  0  0  0  0  0  0  0  0  0  0  0
   -5.2285    3.6661   -1.3420 H   0  0  0  0  0  0  0  0  0  0  0  0
   -6.1757    2.4870    1.2562 S   0  0  0  0  0  0  0  0  0  0  0  0
   -7.5155    2.5177    1.8590 O   0  0  0  0  0  0  0  0  0  0  0  0
   -5.0277    2.4941    2.2062 O   0  0  0  0  0  0  0  0  0  0  0  0
   -5.9918    1.6033    0.0823 O   0  0  0  0  0  0  0  0  0  0  0  0
   -5.2617    8.2270   -0.8869 C   0  0  0  0  0  0  0  0  0  0  0  0
   -6.2083    8.6665   -1.2191 H   0  0  0  0  0  0  0  0  0  0  0  0
   -4.8801    8.8516   -0.0717 H   0  0  0  0  0  0  0  0  0  0  0  0
   -4.5520    8.2832   -1.7153 H   0  0  0  0  0  0  0  0  0  0  0  0
  1  2  1  0  0  0  0
  1 11  2  0  0  0  0
  2  3  1  0  0  0  0
  4  1  1  0  0  0  0
  5  4  2  0  0  0  0
  5  6  1  0  0  0  0
  6 10  2  0  0  0  0
  7  6  1  0  0  0  0
  7  9  2  0  0  0  0
  8  7  2  0  0  0  0
 10 11  1  0  0  0  0
 10 14  1  0  0  0  0
 11 15  1  0  0  0  0
 13  5  1  0  0  0  0
 16 22  1  0  0  0  0
 17 23  1  0  0  0  0
 17 16  1  0  0  0  0
 18 17  1  0  0  0  0
 19 20  1  0  0  0  0
 19 18  2  0  0  0  0
 20 12  1  0  0  0  0
 20 21  1  0  0  0  0
 21 16  2  0  0  0  0
 21 26  1  0  0  0  0
 24 19  1  0  0  0  0
 25 20  1  0  0  0  0
 26 27  2  0  0  0  0
 26 28  1  0  0  0  0
 29 26  2  0  0  0  0
 30 18  1  0  0  0  0
 30 32  1  0  0  0  0
 31 30  1  0  0  0  0
 33 30  1  0  0  0  0
M  RAD  5   2   2   3   3   4   2  17   2  28   2
M  END
