Coordinates from ORCA-job 4-NO2PhN2+~TsO-_B3LYPG-6-31G_dp-CH-Scan-d09-49-n800
 OpenBabel11261919023D

 33 34  0  0  0  0  0  0  0  0999 V2000
   -2.7086    1.1047   -0.1720 C   0  0  0  0  0  0  0  0  0  0  0  0
   -3.8308    0.3727    0.3105 N   0  0  0  0  0  0  0  0  0  0  0  0
   -4.9596    0.7706    0.4849 N   0  0  0  0  0  0  0  0  0  0  0  0
   -2.7247    1.7985   -1.3874 C   0  0  0  0  0  0  0  0  0  0  0  0
   -1.5658    2.3937   -1.8637 C   0  0  0  0  0  0  0  0  0  0  0  0
   -0.4025    2.2937   -1.0997 C   0  0  0  0  0  0  0  0  0  0  0  0
    0.8277    2.9362   -1.5928 N   0  0  0  0  0  0  0  0  0  0  0  0
    0.7627    3.5403   -2.6621 O   0  0  0  0  0  0  0  0  0  0  0  0
    1.8399    2.8290   -0.9028 O   0  0  0  0  0  0  0  0  0  0  0  0
   -0.3618    1.5985    0.1074 C   0  0  0  0  0  0  0  0  0  0  0  0
   -1.5210    0.9788    0.5607 C   0  0  0  0  0  0  0  0  0  0  0  0
   -3.7962    1.8736   -2.0470 H   0  0  0  0  0  0  0  0  0  0  0  0
   -1.5449    2.9339   -2.8011 H   0  0  0  0  0  0  0  0  0  0  0  0
    0.5685    1.5383    0.6577 H   0  0  0  0  0  0  0  0  0  0  0  0
   -1.5226    0.4047    1.4805 H   0  0  0  0  0  0  0  0  0  0  0  0
   -6.0547    5.3047    1.1674 C   0  0  0  0  0  0  0  0  0  0  0  0
   -5.8843    6.6568    0.8833 C   0  0  0  0  0  0  0  0  0  0  0  0
   -6.1172    7.1636   -0.4047 C   0  0  0  0  0  0  0  0  0  0  0  0
   -6.5275    6.2767   -1.4112 C   0  0  0  0  0  0  0  0  0  0  0  0
   -6.7037    4.9201   -1.1487 C   0  0  0  0  0  0  0  0  0  0  0  0
   -6.4598    4.4476    0.1420 C   0  0  0  0  0  0  0  0  0  0  0  0
   -5.8869    4.9153    2.1654 H   0  0  0  0  0  0  0  0  0  0  0  0
   -5.5690    7.3318    1.6740 H   0  0  0  0  0  0  0  0  0  0  0  0
   -6.7165    6.6546   -2.4120 H   0  0  0  0  0  0  0  0  0  0  0  0
   -7.0351    4.2362   -1.9220 H   0  0  0  0  0  0  0  0  0  0  0  0
   -6.6914    2.7183    0.4943 S   0  0  0  0  0  0  0  0  0  0  0  0
   -6.9492    2.5295    1.9172 O   0  0  0  0  0  0  0  0  0  0  0  0
   -5.1048    2.2546    0.1835 O   0  0  0  0  0  0  0  0  0  0  0  0
   -7.5448    2.1143   -0.5234 O   0  0  0  0  0  0  0  0  0  0  0  0
   -5.9617    8.6373   -0.6909 C   0  0  0  0  0  0  0  0  0  0  0  0
   -6.8896    9.1776   -0.4647 H   0  0  0  0  0  0  0  0  0  0  0  0
   -5.1703    9.0826   -0.0813 H   0  0  0  0  0  0  0  0  0  0  0  0
   -5.7272    8.8189   -1.7433 H   0  0  0  0  0  0  0  0  0  0  0  0
  1  2  1  0  0  0  0
  1 11  2  0  0  0  0
  2  3  1  0  0  0  0
  4  1  1  0  0  0  0
  5  4  2  0  0  0  0
  5  6  1  0  0  0  0
  6 10  2  0  0  0  0
  7  6  1  0  0  0  0
  7  9  2  0  0  0  0
  8  7  2  0  0  0  0
 10 11  1  0  0  0  0
 10 14  1  0  0  0  0
 11 15  1  0  0  0  0
 12  4  1  0  0  0  0
 13  5  1  0  0  0  0
 16 22  1  0  0  0  0
 17 16  1  0  0  0  0
 17 23  1  0  0  0  0
 18 17  2  0  0  0  0
 19 20  2  0  0  0  0
 19 18  1  0  0  0  0
 20 21  1  0  0  0  0
 21 26  1  0  0  0  0
 21 16  2  0  0  0  0
 24 19  1  0  0  0  0
 25 20  1  0  0  0  0
 26 27  2  0  0  0  0
 28  3  1  0  0  0  0
 28 26  1  0  0  0  0
 29 26  2  0  0  0  0
 30 31  1  0  0  0  0
 30 18  1  0  0  0  0
 30 32  1  0  0  0  0
 33 30  1  0  0  0  0
M  RAD  2   2   2   3   2
M  END
