Coordinates from ORCA-job 4-NO2PhN2+~TsO-_B3LYPG-6-31G_dp-CH-Scan-d09-49-n800
 OpenBabel11261919023D

 33 33  0  0  0  0  0  0  0  0999 V2000
   -2.7618    1.0993   -0.2053 C   0  0  0  0  0  0  0  0  0  0  0  0
   -3.8607    0.2847    0.2083 N   0  0  0  0  0  0  0  0  0  0  0  0
   -4.9684    0.7187    0.4830 N   0  0  0  0  0  0  0  0  0  0  0  0
   -2.7230    1.8678   -1.3456 C   0  0  0  0  0  0  0  0  0  0  0  0
   -1.6653    2.5797   -1.8281 C   0  0  0  0  0  0  0  0  0  0  0  0
   -0.4973    2.4852   -1.0529 C   0  0  0  0  0  0  0  0  0  0  0  0
    0.7008    3.2214   -1.4980 N   0  0  0  0  0  0  0  0  0  0  0  0
    0.6063    3.8870   -2.5266 O   0  0  0  0  0  0  0  0  0  0  0  0
    1.7121    3.1222   -0.8065 O   0  0  0  0  0  0  0  0  0  0  0  0
   -0.4342    1.7149    0.1078 C   0  0  0  0  0  0  0  0  0  0  0  0
   -1.5591    1.0080    0.5226 C   0  0  0  0  0  0  0  0  0  0  0  0
   -5.1548    1.9010   -3.0548 H   0  0  0  0  0  0  0  0  0  0  0  0
   -1.6789    3.1752   -2.7328 H   0  0  0  0  0  0  0  0  0  0  0  0
    0.4943    1.6701    0.6623 H   0  0  0  0  0  0  0  0  0  0  0  0
   -1.5347    0.3885    1.4143 H   0  0  0  0  0  0  0  0  0  0  0  0
   -6.1710    5.3235    1.2698 C   0  0  0  0  0  0  0  0  0  0  0  0
   -5.9657    6.6528    0.9067 C   0  0  0  0  0  0  0  0  0  0  0  0
   -5.9524    7.0435   -0.4403 C   0  0  0  0  0  0  0  0  0  0  0  0
   -6.1483    6.0641   -1.4270 C   0  0  0  0  0  0  0  0  0  0  0  0
   -6.3592    4.7311   -1.0883 C   0  0  0  0  0  0  0  0  0  0  0  0
   -6.3645    4.3766    0.2635 C   0  0  0  0  0  0  0  0  0  0  0  0
   -6.1881    5.0195    2.3107 H   0  0  0  0  0  0  0  0  0  0  0  0
   -5.8140    7.3989    1.6817 H   0  0  0  0  0  0  0  0  0  0  0  0
   -6.1376    6.3512   -2.4750 H   0  0  0  0  0  0  0  0  0  0  0  0
   -6.5133    3.9761   -1.8518 H   0  0  0  0  0  0  0  0  0  0  0  0
   -6.6464    2.6811    0.7114 S   0  0  0  0  0  0  0  0  0  0  0  0
   -6.8806    2.5686    2.1451 O   0  0  0  0  0  0  0  0  0  0  0  0
   -5.0430    2.1638    0.4054 O   0  0  0  0  0  0  0  0  0  0  0  0
   -7.5069    2.0288   -0.2646 O   0  0  0  0  0  0  0  0  0  0  0  0
   -5.7607    8.4905   -0.8230 C   0  0  0  0  0  0  0  0  0  0  0  0
   -6.7290    8.9896   -0.9502 H   0  0  0  0  0  0  0  0  0  0  0  0
   -5.2086    9.0395   -0.0550 H   0  0  0  0  0  0  0  0  0  0  0  0
   -5.2194    8.5850   -1.7688 H   0  0  0  0  0  0  0  0  0  0  0  0
  1  2  1  0  0  0  0
  1 11  2  0  0  0  0
  2  3  1  0  0  0  0
  4  1  1  0  0  0  0
  5  4  2  0  0  0  0
  5  6  1  0  0  0  0
  6 10  2  0  0  0  0
  7  6  1  0  0  0  0
  7  9  2  0  0  0  0
  8  7  2  0  0  0  0
 10 11  1  0  0  0  0
 10 14  1  0  0  0  0
 11 15  1  0  0  0  0
 13  5  1  0  0  0  0
 16 22  1  0  0  0  0
 17 16  1  0  0  0  0
 17 23  1  0  0  0  0
 18 17  2  0  0  0  0
 19 20  2  0  0  0  0
 19 18  1  0  0  0  0
 20 21  1  0  0  0  0
 21 26  1  0  0  0  0
 21 16  2  0  0  0  0
 24 19  1  0  0  0  0
 25 20  1  0  0  0  0
 26 27  2  0  0  0  0
 28  3  1  0  0  0  0
 28 26  1  0  0  0  0
 29 26  2  0  0  0  0
 30 18  1  0  0  0  0
 30 32  1  0  0  0  0
 31 30  1  0  0  0  0
 33 30  1  0  0  0  0
M  RAD  4   2   2   3   2   4   2  12   2
M  END
