Coordinates from ORCA-job 4-NO2PhN2+~TsO-_B3LYPG-6-31G_dp-CH-Scan-d09-49-n800
 OpenBabel11261919023D

 33 33  0  0  0  0  0  0  0  0999 V2000
   -2.7345    1.1383   -0.9226 C   0  0  0  0  0  0  0  0  0  0  0  0
   -3.9624    0.4392   -0.8151 N   0  0  0  0  0  0  0  0  0  0  0  0
   -4.9140   -0.1380   -0.8457 N   0  0  0  0  0  0  0  0  0  0  0  0
   -2.3674    1.3526   -2.2481 C   0  0  0  0  0  0  0  0  0  0  0  0
   -1.1159    2.0242   -2.3100 C   0  0  0  0  0  0  0  0  0  0  0  0
   -0.4110    2.3621   -1.1606 C   0  0  0  0  0  0  0  0  0  0  0  0
    0.8954    3.0559   -1.2907 N   0  0  0  0  0  0  0  0  0  0  0  0
    1.3181    3.2745   -2.4235 O   0  0  0  0  0  0  0  0  0  0  0  0
    1.4767    3.3780   -0.2540 O   0  0  0  0  0  0  0  0  0  0  0  0
   -0.8720    2.1049    0.1472 C   0  0  0  0  0  0  0  0  0  0  0  0
   -2.0894    1.4745    0.2913 C   0  0  0  0  0  0  0  0  0  0  0  0
   -4.8483    3.9794   -1.0434 H   0  0  0  0  0  0  0  0  0  0  0  0
   -0.6755    2.2906   -3.2669 H   0  0  0  0  0  0  0  0  0  0  0  0
   -0.2785    2.4137    0.9970 H   0  0  0  0  0  0  0  0  0  0  0  0
   -2.5411    1.2832    1.2578 H   0  0  0  0  0  0  0  0  0  0  0  0
   -6.5126    5.3376    1.3469 C   0  0  0  0  0  0  0  0  0  0  0  0
   -6.4084    6.6338    0.8444 C   0  0  0  0  0  0  0  0  0  0  0  0
   -6.0116    6.9445   -0.4952 C   0  0  0  0  0  0  0  0  0  0  0  0
   -5.7279    5.8948   -1.3250 C   0  0  0  0  0  0  0  0  0  0  0  0
   -5.8140    4.4906   -0.8747 C   0  0  0  0  0  0  0  0  0  0  0  0
   -6.2202    4.2626    0.5236 C   0  0  0  0  0  0  0  0  0  0  0  0
   -6.8277    5.1462    2.3672 H   0  0  0  0  0  0  0  0  0  0  0  0
   -6.6458    7.4650    1.5064 H   0  0  0  0  0  0  0  0  0  0  0  0
   -5.4235    6.0741   -2.3531 H   0  0  0  0  0  0  0  0  0  0  0  0
   -6.4834    3.9019   -1.5274 H   0  0  0  0  0  0  0  0  0  0  0  0
   -6.2917    2.5596    1.1412 S   0  0  0  0  0  0  0  0  0  0  0  0
   -7.0001    2.6560    2.4251 O   0  0  0  0  0  0  0  0  0  0  0  0
   -4.8267    2.2883    1.2243 O   0  0  0  0  0  0  0  0  0  0  0  0
   -6.9758    1.8449    0.0419 O   0  0  0  0  0  0  0  0  0  0  0  0
   -5.9266    8.3852   -0.9330 C   0  0  0  0  0  0  0  0  0  0  0  0
   -6.8986    8.8822   -0.8405 H   0  0  0  0  0  0  0  0  0  0  0  0
   -5.2156    8.9421   -0.3136 H   0  0  0  0  0  0  0  0  0  0  0  0
   -5.6037    8.4655   -1.9732 H   0  0  0  0  0  0  0  0  0  0  0  0
  1  2  1  0  0  0  0
  1 11  2  0  0  0  0
  3  2  1  0  0  0  0
  4  1  1  0  0  0  0
  5  4  2  0  0  0  0
  5  6  1  0  0  0  0
  6 10  2  0  0  0  0
  7  6  1  0  0  0  0
  7  9  2  0  0  0  0
  8  7  2  0  0  0  0
 10 11  1  0  0  0  0
 10 14  1  0  0  0  0
 11 15  1  0  0  0  0
 12 20  1  0  0  0  0
 13  5  1  0  0  0  0
 16 22  1  0  0  0  0
 17 16  1  0  0  0  0
 17 23  1  0  0  0  0
 18 17  1  0  0  0  0
 19 20  1  0  0  0  0
 19 18  2  0  0  0  0
 20 21  1  0  0  0  0
 21 26  1  0  0  0  0
 21 16  2  0  0  0  0
 24 19  1  0  0  0  0
 25 20  1  0  0  0  0
 26 28  2  0  0  0  0
 26 27  1  0  0  0  0
 29 26  2  0  0  0  0
 30 31  1  0  0  0  0
 30 18  1  0  0  0  0
 30 32  1  0  0  0  0
 33 30  1  0  0  0  0
M  RAD  5   2   2   3   3   4   2  17   2  27   2
M  END
