Coordinates from ORCA-job 4-NO2PhN2+~TsO-_B3LYPG-6-31G_dp-CH-Scan-d09-49-n800
 OpenBabel11261919023D

 33 33  0  0  0  0  0  0  0  0999 V2000
   -2.7920    1.0847   -0.2572 C   0  0  0  0  0  0  0  0  0  0  0  0
   -3.8903    0.2637    0.1483 N   0  0  0  0  0  0  0  0  0  0  0  0
   -5.0027    0.6962    0.3912 N   0  0  0  0  0  0  0  0  0  0  0  0
   -2.6406    1.5768   -1.5344 C   0  0  0  0  0  0  0  0  0  0  0  0
   -1.5715    2.2774   -2.0166 C   0  0  0  0  0  0  0  0  0  0  0  0
   -0.5374    2.4846   -1.0905 C   0  0  0  0  0  0  0  0  0  0  0  0
    0.6565    3.2302   -1.5265 N   0  0  0  0  0  0  0  0  0  0  0  0
    0.6802    3.6331   -2.6875 O   0  0  0  0  0  0  0  0  0  0  0  0
    1.5489    3.4013   -0.6983 O   0  0  0  0  0  0  0  0  0  0  0  0
   -0.6020    2.0060    0.2177 C   0  0  0  0  0  0  0  0  0  0  0  0
   -1.7236    1.2934    0.6335 C   0  0  0  0  0  0  0  0  0  0  0  0
   -4.6095    1.0672   -3.1252 H   0  0  0  0  0  0  0  0  0  0  0  0
   -1.4908    2.6565   -3.0272 H   0  0  0  0  0  0  0  0  0  0  0  0
    0.2270    2.1910    0.8888 H   0  0  0  0  0  0  0  0  0  0  0  0
   -1.7920    0.9001    1.6429 H   0  0  0  0  0  0  0  0  0  0  0  0
   -6.0014    5.2552    1.2567 C   0  0  0  0  0  0  0  0  0  0  0  0
   -5.7797    6.5959    0.9510 C   0  0  0  0  0  0  0  0  0  0  0  0
   -5.9229    7.0750   -0.3596 C   0  0  0  0  0  0  0  0  0  0  0  0
   -6.2962    6.1730   -1.3687 C   0  0  0  0  0  0  0  0  0  0  0  0
   -6.5238    4.8295   -1.0863 C   0  0  0  0  0  0  0  0  0  0  0  0
   -6.3690    4.3852    0.2291 C   0  0  0  0  0  0  0  0  0  0  0  0
   -5.9003    4.8854    2.2710 H   0  0  0  0  0  0  0  0  0  0  0  0
   -5.4928    7.2823    1.7424 H   0  0  0  0  0  0  0  0  0  0  0  0
   -6.4134    6.5296   -2.3882 H   0  0  0  0  0  0  0  0  0  0  0  0
   -6.8219    4.1345   -1.8632 H   0  0  0  0  0  0  0  0  0  0  0  0
   -6.6642    2.6740    0.6051 S   0  0  0  0  0  0  0  0  0  0  0  0
   -6.8736    2.4998    2.0366 O   0  0  0  0  0  0  0  0  0  0  0  0
   -5.0793    2.1482    0.2502 O   0  0  0  0  0  0  0  0  0  0  0  0
   -7.5564    2.0836   -0.3829 O   0  0  0  0  0  0  0  0  0  0  0  0
   -5.7103    8.5351   -0.6758 C   0  0  0  0  0  0  0  0  0  0  0  0
   -6.6645    9.0759   -0.6740 H   0  0  0  0  0  0  0  0  0  0  0  0
   -5.0602    9.0150    0.0611 H   0  0  0  0  0  0  0  0  0  0  0  0
   -5.2637    8.6685   -1.6655 H   0  0  0  0  0  0  0  0  0  0  0  0
  1  2  1  0  0  0  0
  1 11  2  0  0  0  0
  2  3  1  0  0  0  0
  4  1  1  0  0  0  0
  5  4  2  0  0  0  0
  5  6  1  0  0  0  0
  6 10  2  0  0  0  0
  7  6  1  0  0  0  0
  7  9  2  0  0  0  0
  8  7  2  0  0  0  0
 10 11  1  0  0  0  0
 10 14  1  0  0  0  0
 11 15  1  0  0  0  0
 13  5  1  0  0  0  0
 16 22  1  0  0  0  0
 17 16  1  0  0  0  0
 17 23  1  0  0  0  0
 18 17  2  0  0  0  0
 19 20  2  0  0  0  0
 19 18  1  0  0  0  0
 20 21  1  0  0  0  0
 21 26  1  0  0  0  0
 21 16  2  0  0  0  0
 24 19  1  0  0  0  0
 25 20  1  0  0  0  0
 26 27  2  0  0  0  0
 28  3  1  0  0  0  0
 28 26  1  0  0  0  0
 29 26  2  0  0  0  0
 30 31  1  0  0  0  0
 30 18  1  0  0  0  0
 30 32  1  0  0  0  0
 33 30  1  0  0  0  0
M  RAD  4   2   2   3   2   4   2  12   2
M  END
