Coordinates from ORCA-job 4-NO2PhN2+~TsO-_B3LYPG-6-31G_dp-CH-Scan-d09-49-n800
 OpenBabel11261919033D

 33 33  0  0  0  0  0  0  0  0999 V2000
   -2.8872    0.7786   -0.9646 C   0  0  0  0  0  0  0  0  0  0  0  0
   -3.9054   -0.1754   -0.7395 N   0  0  0  0  0  0  0  0  0  0  0  0
   -4.6901   -0.9607   -0.6532 N   0  0  0  0  0  0  0  0  0  0  0  0
   -2.2735    0.6025   -2.2038 C   0  0  0  0  0  0  0  0  0  0  0  0
   -1.2630    1.5948   -2.3830 C   0  0  0  0  0  0  0  0  0  0  0  0
   -0.9663    2.5298   -1.4005 C   0  0  0  0  0  0  0  0  0  0  0  0
    0.0887    3.5381   -1.6536 N   0  0  0  0  0  0  0  0  0  0  0  0
    0.8661    3.3374   -2.5826 O   0  0  0  0  0  0  0  0  0  0  0  0
    0.1089    4.5330   -0.9240 O   0  0  0  0  0  0  0  0  0  0  0  0
   -1.6439    2.6112   -0.1632 C   0  0  0  0  0  0  0  0  0  0  0  0
   -2.6561    1.7061    0.0825 C   0  0  0  0  0  0  0  0  0  0  0  0
   -4.0660    4.1055   -0.2142 H   0  0  0  0  0  0  0  0  0  0  0  0
   -0.6971    1.6431   -3.3102 H   0  0  0  0  0  0  0  0  0  0  0  0
   -1.3571    3.3632    0.5604 H   0  0  0  0  0  0  0  0  0  0  0  0
   -3.2407    1.7245    0.9986 H   0  0  0  0  0  0  0  0  0  0  0  0
   -6.7214    5.2680    1.1563 C   0  0  0  0  0  0  0  0  0  0  0  0
   -6.5220    6.5693    0.7035 C   0  0  0  0  0  0  0  0  0  0  0  0
   -5.6147    6.9253   -0.3450 C   0  0  0  0  0  0  0  0  0  0  0  0
   -4.9119    5.9113   -0.9354 C   0  0  0  0  0  0  0  0  0  0  0  0
   -5.0567    4.5060   -0.5108 C   0  0  0  0  0  0  0  0  0  0  0  0
   -6.0087    4.2283    0.5758 C   0  0  0  0  0  0  0  0  0  0  0  0
   -7.4357    5.0440    1.9419 H   0  0  0  0  0  0  0  0  0  0  0  0
   -7.0950    7.3700    1.1678 H   0  0  0  0  0  0  0  0  0  0  0  0
   -4.2109    6.1236   -1.7390 H   0  0  0  0  0  0  0  0  0  0  0  0
   -5.2886    3.8414   -1.3622 H   0  0  0  0  0  0  0  0  0  0  0  0
   -6.1784    2.5326    1.1930 S   0  0  0  0  0  0  0  0  0  0  0  0
   -7.5178    2.4919    1.7953 O   0  0  0  0  0  0  0  0  0  0  0  0
   -5.0313    2.5486    2.1447 O   0  0  0  0  0  0  0  0  0  0  0  0
   -5.9601    1.7003   -0.0119 O   0  0  0  0  0  0  0  0  0  0  0  0
   -5.4747    8.3698   -0.7544 C   0  0  0  0  0  0  0  0  0  0  0  0
   -6.4356    8.7807   -1.0821 H   0  0  0  0  0  0  0  0  0  0  0  0
   -5.1271    8.9828    0.0844 H   0  0  0  0  0  0  0  0  0  0  0  0
   -4.7606    8.4820   -1.5732 H   0  0  0  0  0  0  0  0  0  0  0  0
  1  2  1  0  0  0  0
  1 11  2  0  0  0  0
  2  3  1  0  0  0  0
  4  1  1  0  0  0  0
  5  4  2  0  0  0  0
  5  6  1  0  0  0  0
  6 10  2  0  0  0  0
  7  6  1  0  0  0  0
  7  9  2  0  0  0  0
  8  7  2  0  0  0  0
 10 11  1  0  0  0  0
 10 14  1  0  0  0  0
 11 15  1  0  0  0  0
 13  5  1  0  0  0  0
 16 22  1  0  0  0  0
 17 16  1  0  0  0  0
 17 23  1  0  0  0  0
 18 17  1  0  0  0  0
 19 20  1  0  0  0  0
 19 18  2  0  0  0  0
 20 12  1  0  0  0  0
 20 21  1  0  0  0  0
 21 16  2  0  0  0  0
 21 26  1  0  0  0  0
 24 19  1  0  0  0  0
 25 20  1  0  0  0  0
 26 27  2  0  0  0  0
 26 28  1  0  0  0  0
 29 26  2  0  0  0  0
 30 18  1  0  0  0  0
 30 32  1  0  0  0  0
 31 30  1  0  0  0  0
 33 30  1  0  0  0  0
M  RAD  5   2   2   3   3   4   2  17   2  28   2
M  END
