17
Coordinates from ORCA-job 4-MeOPhN2+_B3LYPG-6-31G_dp-d09-49-n800
  C   -1.42812260462998     -0.35698862740513     -0.05534536511573
  N   -2.78106105403880     -0.44513704575494      0.04315861529829
  N   -3.89701106583686     -0.51243132622070      0.11300078801080
  C   -0.79877245945705      0.89491321085582     -0.01695644434098
  C   0.54179000412608      1.03524411255311     -0.10951077826441
  C   1.33586216114989     -0.15004931495795     -0.25170372352904
  O   2.63586539362056      0.04874814164158     -0.33579196251199
  C   3.55603714109768     -1.05656341108529     -0.48025646438380
  C   0.71181139017243     -1.42975782451042     -0.29294859573283
  C   -0.65475421612949     -1.54493871220213     -0.19668836182413
  H   -2.89008440225404      5.30230065157246      0.44277166664227
  H   1.05706816193939      1.99288715066844     -0.08234253598394
  H   4.54255938515717     -0.59934225724767     -0.51776407291414
  H   3.35911300627711     -1.59668230041669     -1.41039119557669
  H   3.48602015111666     -1.72501075905349      0.38234838107889
  H   1.31006867239702     -2.32555672577158     -0.40019836595044
  H   -1.14136966470771     -2.51628496266545     -0.22687158490211
