Coordinates from ORCA-job PhN2+~Cl-_B3LYPG-6-31G_dp-CH-Scan-d09-49-n800
 OpenBabel11261919593D

 14 14  0  0  0  0  0  0  0  0999 V2000
   -1.4853    0.1008   -0.3644 C   0  0  0  0  0  0  0  0  0  0  0  0
   -2.8626    0.0748   -0.6574 N   0  0  0  0  0  0  0  0  0  0  0  0
   -3.7796    0.7548   -0.9148 N   0  0  0  0  0  0  0  0  0  0  0  0
   -0.7357    1.2887   -0.3368 C   0  0  0  0  0  0  0  0  0  0  0  0
    0.6214    1.1904   -0.0345 C   0  0  0  0  0  0  0  0  0  0  0  0
    1.2125   -0.0479    0.2317 C   0  0  0  0  0  0  0  0  0  0  0  0
    0.4492   -1.2188    0.1978 C   0  0  0  0  0  0  0  0  0  0  0  0
   -0.9066   -1.1491   -0.1022 C   0  0  0  0  0  0  0  0  0  0  0  0
   -1.1632    2.1503   -0.5251 H   0  0  0  0  0  0  0  0  0  0  0  0
    1.2206    2.0953   -0.0070 H   0  0  0  0  0  0  0  0  0  0  0  0
    2.2710   -0.1007    0.4676 H   0  0  0  0  0  0  0  0  0  0  0  0
    0.9089   -2.1796    0.4049 H   0  0  0  0  0  0  0  0  0  0  0  0
   -1.5279   -2.0373   -0.1374 H   0  0  0  0  0  0  0  0  0  0  0  0
   -3.4731    2.8718   -1.0356 Cl  0  0  0  0  0  0  0  0  0  0  0  0
  1  4  2  0  0  0  0
  1  8  1  0  0  0  0
  2  1  1  0  0  0  0
  3  2  2  0  0  0  0
  4  5  1  0  0  0  0
  5 10  1  0  0  0  0
  5  6  2  0  0  0  0
  6 11  1  0  0  0  0
  7  6  1  0  0  0  0
  7 12  1  0  0  0  0
  8  7  2  0  0  0  0
  9  4  1  0  0  0  0
 13  8  1  0  0  0  0
 14  3  1  0  0  0  0
M  END
