Coordinates from ORCA-job PhN2+~Cl-_B3LYPG-6-31G_dp-CH-Scan-d09-49-n800
 OpenBabel11261919593D

 14 13  0  0  0  0  0  0  0  0999 V2000
   -1.4352    0.0022   -0.3376 C   0  0  0  0  0  0  0  0  0  0  0  0
   -2.8106    0.0977   -0.6375 N   0  0  0  0  0  0  0  0  0  0  0  0
   -3.7535    0.6660   -0.8958 N   0  0  0  0  0  0  0  0  0  0  0  0
   -0.7824    1.2336   -0.3330 C   0  0  0  0  0  0  0  0  0  0  0  0
    0.5846    1.1650   -0.0363 C   0  0  0  0  0  0  0  0  0  0  0  0
    1.2036   -0.0601    0.2280 C   0  0  0  0  0  0  0  0  0  0  0  0
    0.4837   -1.2699    0.2061 C   0  0  0  0  0  0  0  0  0  0  0  0
   -0.8717   -1.2587   -0.0824 C   0  0  0  0  0  0  0  0  0  0  0  0
   -1.7297    2.4051   -0.6561 H   0  0  0  0  0  0  0  0  0  0  0  0
    1.1764    2.0764   -0.0096 H   0  0  0  0  0  0  0  0  0  0  0  0
    2.2657   -0.0863    0.4583 H   0  0  0  0  0  0  0  0  0  0  0  0
    0.9868   -2.2079    0.4152 H   0  0  0  0  0  0  0  0  0  0  0  0
   -1.4675   -2.1654   -0.1103 H   0  0  0  0  0  0  0  0  0  0  0  0
   -3.1004    3.1960   -1.0224 Cl  0  0  0  0  0  0  0  0  0  0  0  0
  1  4  2  0  0  0  0
  1  8  1  0  0  0  0
  2  1  1  0  0  0  0
  3  2  2  0  0  0  0
  4  5  1  0  0  0  0
  5 10  1  0  0  0  0
  5  6  2  0  0  0  0
  6 11  1  0  0  0  0
  7  6  1  0  0  0  0
  7 12  1  0  0  0  0
  8  7  2  0  0  0  0
 13  8  1  0  0  0  0
 14  9  1  0  0  0  0
M  RAD  2   3   2   4   2
M  END
