Coordinates from ORCA-job PhN2+~Cl-_B3LYPG-6-31G_dp-CH-Scan-d09-49-n800
 OpenBabel11261919593D

 14 13  0  0  0  0  0  0  0  0999 V2000
   -1.4140   -0.0346   -0.3300 C   0  0  0  0  0  0  0  0  0  0  0  0
   -2.7699    0.0083   -0.6205 N   0  0  0  0  0  0  0  0  0  0  0  0
   -3.8567    0.1135   -0.8606 N   0  0  0  0  0  0  0  0  0  0  0  0
   -0.8029    1.2309   -0.3386 C   0  0  0  0  0  0  0  0  0  0  0  0
    0.5763    1.1237   -0.0343 C   0  0  0  0  0  0  0  0  0  0  0  0
    1.2053   -0.0897    0.2318 C   0  0  0  0  0  0  0  0  0  0  0  0
    0.4965   -1.3150    0.2141 C   0  0  0  0  0  0  0  0  0  0  0  0
   -0.8507   -1.3127   -0.0720 C   0  0  0  0  0  0  0  0  0  0  0  0
   -1.9557    2.8463   -0.7483 H   0  0  0  0  0  0  0  0  0  0  0  0
    1.1788    2.0304   -0.0054 H   0  0  0  0  0  0  0  0  0  0  0  0
    2.2686   -0.1092    0.4617 H   0  0  0  0  0  0  0  0  0  0  0  0
    1.0090   -2.2477    0.4249 H   0  0  0  0  0  0  0  0  0  0  0  0
   -1.4426   -2.2230   -0.0984 H   0  0  0  0  0  0  0  0  0  0  0  0
   -2.8922    3.7724   -1.0378 Cl  0  0  0  0  0  0  0  0  0  0  0  0
  1  8  1  0  0  0  0
  2  1  1  0  0  0  0
  3  2  1  0  0  0  0
  4  1  2  0  0  0  0
  4  5  1  0  0  0  0
  5 10  1  0  0  0  0
  5  6  2  0  0  0  0
  6 11  1  0  0  0  0
  7  6  1  0  0  0  0
  7 12  1  0  0  0  0
  8  7  2  0  0  0  0
 13  8  1  0  0  0  0
 14  9  1  0  0  0  0
M  RAD  3   2   2   3   3   4   2
M  END
