Coordinates from ORCA-job PhN2+~Cl-_B3LYPG-6-31G_dp-CH-Scan-d09-49-n800
 OpenBabel11261919593D

 14 13  0  0  0  0  0  0  0  0999 V2000
   -1.4330   -0.0054   -0.3369 C   0  0  0  0  0  0  0  0  0  0  0  0
   -2.7894    0.0456   -0.6284 N   0  0  0  0  0  0  0  0  0  0  0  0
   -3.8716    0.1789   -0.8707 N   0  0  0  0  0  0  0  0  0  0  0  0
   -0.8116    1.2537   -0.3426 C   0  0  0  0  0  0  0  0  0  0  0  0
    0.5641    1.1546   -0.0400 C   0  0  0  0  0  0  0  0  0  0  0  0
    1.1910   -0.0610    0.2257 C   0  0  0  0  0  0  0  0  0  0  0  0
    0.4799   -1.2834    0.2072 C   0  0  0  0  0  0  0  0  0  0  0  0
   -0.8686   -1.2805   -0.0791 C   0  0  0  0  0  0  0  0  0  0  0  0
   -1.8278    2.6343   -0.6997 H   0  0  0  0  0  0  0  0  0  0  0  0
    1.1625    2.0633   -0.0121 H   0  0  0  0  0  0  0  0  0  0  0  0
    2.2540   -0.0820    0.4556 H   0  0  0  0  0  0  0  0  0  0  0  0
    0.9905   -2.2171    0.4176 H   0  0  0  0  0  0  0  0  0  0  0  0
   -1.4605   -2.1904   -0.1055 H   0  0  0  0  0  0  0  0  0  0  0  0
   -2.8298    3.5832   -1.0044 Cl  0  0  0  0  0  0  0  0  0  0  0  0
  1  8  1  0  0  0  0
  2  1  1  0  0  0  0
  3  2  1  0  0  0  0
  4  1  2  0  0  0  0
  4  5  1  0  0  0  0
  5 10  1  0  0  0  0
  5  6  2  0  0  0  0
  6 11  1  0  0  0  0
  7  6  1  0  0  0  0
  7 12  1  0  0  0  0
  8  7  2  0  0  0  0
 13  8  1  0  0  0  0
 14  9  1  0  0  0  0
M  RAD  3   2   2   3   3   4   2
M  END
