Coordinates from ORCA-job PhN2+~Cl-_B3LYPG-6-31G_dp-CH-Scan-d09-49-n800
 OpenBabel11261919593D

 14 13  0  0  0  0  0  0  0  0999 V2000
   -1.3336   -0.3872   -0.2868 C   0  0  0  0  0  0  0  0  0  0  0  0
   -2.6947   -0.4335   -0.5747 N   0  0  0  0  0  0  0  0  0  0  0  0
   -3.7882   -0.3923   -0.8149 N   0  0  0  0  0  0  0  0  0  0  0  0
   -0.8363    0.9241   -0.3351 C   0  0  0  0  0  0  0  0  0  0  0  0
    0.5562    0.9052   -0.0307 C   0  0  0  0  0  0  0  0  0  0  0  0
    1.2696   -0.2522    0.2626 C   0  0  0  0  0  0  0  0  0  0  0  0
    0.6497   -1.5282    0.2797 C   0  0  0  0  0  0  0  0  0  0  0  0
   -0.6939   -1.6250   -0.0007 C   0  0  0  0  0  0  0  0  0  0  0  0
   -2.5626    4.4305   -1.0254 H   0  0  0  0  0  0  0  0  0  0  0  0
    1.1051    1.8479   -0.0241 H   0  0  0  0  0  0  0  0  0  0  0  0
    2.3330   -0.1926    0.4890 H   0  0  0  0  0  0  0  0  0  0  0  0
    1.2285   -2.4161    0.5121 H   0  0  0  0  0  0  0  0  0  0  0  0
   -1.2248   -2.5734   -0.0025 H   0  0  0  0  0  0  0  0  0  0  0  0
   -3.2584    5.4866   -1.2617 Cl  0  0  0  0  0  0  0  0  0  0  0  0
  1  8  1  0  0  0  0
  2  1  1  0  0  0  0
  3  2  1  0  0  0  0
  4  1  2  0  0  0  0
  4  5  1  0  0  0  0
  5 10  1  0  0  0  0
  5  6  2  0  0  0  0
  6  7  1  0  0  0  0
  6 11  1  0  0  0  0
  7 12  1  0  0  0  0
  8  7  2  0  0  0  0
 13  8  1  0  0  0  0
 14  9  1  0  0  0  0
M  RAD  3   2   2   3   3   4   2
M  END
