Coordinates from ORCA-job PhN2+~Cl-_B3LYPG-6-31G_dp-CH-Scan-d09-49-n800
 OpenBabel11261919593D

 14 13  0  0  0  0  0  0  0  0999 V2000
   -1.3642   -0.1751   -0.3083 C   0  0  0  0  0  0  0  0  0  0  0  0
   -2.7218   -0.1590   -0.5977 N   0  0  0  0  0  0  0  0  0  0  0  0
   -3.8127   -0.0820   -0.8373 N   0  0  0  0  0  0  0  0  0  0  0  0
   -0.7925    1.1087   -0.3303 C   0  0  0  0  0  0  0  0  0  0  0  0
    0.5940    1.0186   -0.0244 C   0  0  0  0  0  0  0  0  0  0  0  0
    1.2475   -0.1786    0.2501 C   0  0  0  0  0  0  0  0  0  0  0  0
    0.5639   -1.4207    0.2428 C   0  0  0  0  0  0  0  0  0  0  0  0
   -0.7821   -1.4455   -0.0421 C   0  0  0  0  0  0  0  0  0  0  0  0
   -2.2987    3.5557   -0.8907 H   0  0  0  0  0  0  0  0  0  0  0  0
    1.1858    1.9337   -0.0007 H   0  0  0  0  0  0  0  0  0  0  0  0
    2.3115   -0.1759    0.4798 H   0  0  0  0  0  0  0  0  0  0  0  0
    1.0960   -2.3409    0.4603 H   0  0  0  0  0  0  0  0  0  0  0  0
   -1.3581   -2.3667   -0.0617 H   0  0  0  0  0  0  0  0  0  0  0  0
   -3.1192    4.5213   -1.1530 Cl  0  0  0  0  0  0  0  0  0  0  0  0
  1  8  1  0  0  0  0
  2  1  1  0  0  0  0
  3  2  1  0  0  0  0
  4  1  2  0  0  0  0
  4  5  1  0  0  0  0
  5 10  1  0  0  0  0
  5  6  2  0  0  0  0
  6 11  1  0  0  0  0
  7  6  1  0  0  0  0
  7 12  1  0  0  0  0
  8  7  2  0  0  0  0
 13  8  1  0  0  0  0
 14  9  1  0  0  0  0
M  RAD  3   2   2   3   3   4   2
M  END
