Coordinates from ORCA-job PhN2+~Cl-_B3LYPG-6-31G_dp-CH-Scan-d09-49-n800
 OpenBabel11261919593D

 14 13  0  0  0  0  0  0  0  0999 V2000
   -1.4330   -0.0002   -0.3369 C   0  0  0  0  0  0  0  0  0  0  0  0
   -2.8066    0.0987   -0.6368 N   0  0  0  0  0  0  0  0  0  0  0  0
   -3.7645    0.6348   -0.8951 N   0  0  0  0  0  0  0  0  0  0  0  0
   -0.7873    1.2356   -0.3342 C   0  0  0  0  0  0  0  0  0  0  0  0
    0.5810    1.1643   -0.0370 C   0  0  0  0  0  0  0  0  0  0  0  0
    1.2018   -0.0593    0.2276 C   0  0  0  0  0  0  0  0  0  0  0  0
    0.4841   -1.2715    0.2064 C   0  0  0  0  0  0  0  0  0  0  0  0
   -0.8706   -1.2627   -0.0817 C   0  0  0  0  0  0  0  0  0  0  0  0
   -1.7467    2.4162   -0.6606 H   0  0  0  0  0  0  0  0  0  0  0  0
    1.1731    2.0757   -0.0103 H   0  0  0  0  0  0  0  0  0  0  0  0
    2.2640   -0.0840    0.4576 H   0  0  0  0  0  0  0  0  0  0  0  0
    0.9892   -2.2083    0.4158 H   0  0  0  0  0  0  0  0  0  0  0  0
   -1.4655   -2.1700   -0.1093 H   0  0  0  0  0  0  0  0  0  0  0  0
   -3.0693    3.2244   -1.0188 Cl  0  0  0  0  0  0  0  0  0  0  0  0
  1  4  2  0  0  0  0
  1  8  1  0  0  0  0
  2  1  1  0  0  0  0
  3  2  1  0  0  0  0
  4  5  1  0  0  0  0
  5 10  1  0  0  0  0
  5  6  2  0  0  0  0
  6 11  1  0  0  0  0
  7  6  1  0  0  0  0
  7 12  1  0  0  0  0
  8  7  2  0  0  0  0
 13  8  1  0  0  0  0
 14  9  1  0  0  0  0
M  RAD  3   2   2   3   3   4   2
M  END
