Coordinates from ORCA-job PhN2+~Cl-_B3LYPG-6-31G_dp-CH-Scan-d09-49-n800
 OpenBabel11261919593D

 14 13  0  0  0  0  0  0  0  0999 V2000
   -1.3576   -0.2015   -0.3057 C   0  0  0  0  0  0  0  0  0  0  0  0
   -2.7157   -0.1913   -0.5954 N   0  0  0  0  0  0  0  0  0  0  0  0
   -3.8067   -0.1169   -0.8358 N   0  0  0  0  0  0  0  0  0  0  0  0
   -0.7939    1.0855   -0.3315 C   0  0  0  0  0  0  0  0  0  0  0  0
    0.5936    1.0017   -0.0252 C   0  0  0  0  0  0  0  0  0  0  0  0
    1.2529   -0.1914    0.2526 C   0  0  0  0  0  0  0  0  0  0  0  0
    0.5754   -1.4371    0.2487 C   0  0  0  0  0  0  0  0  0  0  0  0
   -0.7704   -1.4691   -0.0362 C   0  0  0  0  0  0  0  0  0  0  0  0
   -2.3468    3.6728   -0.9108 H   0  0  0  0  0  0  0  0  0  0  0  0
    1.1817    1.9195   -0.0038 H   0  0  0  0  0  0  0  0  0  0  0  0
    2.3169   -0.1831    0.4823 H   0  0  0  0  0  0  0  0  0  0  0  0
    1.1121   -2.3541    0.4687 H   0  0  0  0  0  0  0  0  0  0  0  0
   -1.3423   -2.3929   -0.0535 H   0  0  0  0  0  0  0  0  0  0  0  0
   -3.1495    4.6515   -1.1678 Cl  0  0  0  0  0  0  0  0  0  0  0  0
  1  8  1  0  0  0  0
  2  1  1  0  0  0  0
  3  2  1  0  0  0  0
  4  1  2  0  0  0  0
  4  5  1  0  0  0  0
  5 10  1  0  0  0  0
  5  6  2  0  0  0  0
  6 11  1  0  0  0  0
  7  6  1  0  0  0  0
  7 12  1  0  0  0  0
  8  7  2  0  0  0  0
 13  8  1  0  0  0  0
 14  9  1  0  0  0  0
M  RAD  3   2   2   3   3   4   2
M  END
