Coordinates from ORCA-job PhN2+~Cl-_B3LYPG-6-31G_dp-CH-Scan-d09-49-n800
 OpenBabel11261919593D

 14 13  0  0  0  0  0  0  0  0999 V2000
   -1.3347   -0.3743   -0.2881 C   0  0  0  0  0  0  0  0  0  0  0  0
   -2.6957   -0.4161   -0.5763 N   0  0  0  0  0  0  0  0  0  0  0  0
   -3.7890   -0.3718   -0.8166 N   0  0  0  0  0  0  0  0  0  0  0  0
   -0.8325    0.9353   -0.3351 C   0  0  0  0  0  0  0  0  0  0  0  0
    0.5598    0.9114   -0.0304 C   0  0  0  0  0  0  0  0  0  0  0  0
    1.2690   -0.2488    0.2621 C   0  0  0  0  0  0  0  0  0  0  0  0
    0.6447   -1.5226    0.2779 C   0  0  0  0  0  0  0  0  0  0  0  0
   -0.6992   -1.6145   -0.0030 C   0  0  0  0  0  0  0  0  0  0  0  0
   -2.5510    4.3790   -1.0183 H   0  0  0  0  0  0  0  0  0  0  0  0
    1.1118    1.8522   -0.0228 H   0  0  0  0  0  0  0  0  0  0  0  0
    2.3326   -0.1931    0.4888 H   0  0  0  0  0  0  0  0  0  0  0  0
    1.2204   -2.4128    0.5096 H   0  0  0  0  0  0  0  0  0  0  0  0
   -1.2333   -2.5611   -0.0058 H   0  0  0  0  0  0  0  0  0  0  0  0
   -3.2530    5.4308   -1.2554 Cl  0  0  0  0  0  0  0  0  0  0  0  0
  1  8  1  0  0  0  0
  2  1  1  0  0  0  0
  3  2  1  0  0  0  0
  4  1  2  0  0  0  0
  4  5  1  0  0  0  0
  5 10  1  0  0  0  0
  5  6  2  0  0  0  0
  6  7  1  0  0  0  0
  6 11  1  0  0  0  0
  7 12  1  0  0  0  0
  8  7  2  0  0  0  0
 13  8  1  0  0  0  0
 14  9  1  0  0  0  0
M  RAD  3   2   2   3   3   4   2
M  END
