Coordinates from ORCA-job PhN2+~Cl-_B3LYPG-6-31G_dp-CH-Scan-d09-49-n800
 OpenBabel11261919593D

 14 13  0  0  0  0  0  0  0  0999 V2000
   -1.4042   -0.0526   -0.3265 C   0  0  0  0  0  0  0  0  0  0  0  0
   -2.7600   -0.0126   -0.6168 N   0  0  0  0  0  0  0  0  0  0  0  0
   -3.8480    0.0853   -0.8566 N   0  0  0  0  0  0  0  0  0  0  0  0
   -0.7976    1.2154   -0.3367 C   0  0  0  0  0  0  0  0  0  0  0  0
    0.5829    1.1067   -0.0318 C   0  0  0  0  0  0  0  0  0  0  0  0
    1.2134   -0.1054    0.2351 C   0  0  0  0  0  0  0  0  0  0  0  0
    0.5062   -1.3322    0.2184 C   0  0  0  0  0  0  0  0  0  0  0  0
   -0.8406   -1.3312   -0.0678 C   0  0  0  0  0  0  0  0  0  0  0  0
   -2.0183    2.9577   -0.7728 H   0  0  0  0  0  0  0  0  0  0  0  0
    1.1861    2.0132   -0.0029 H   0  0  0  0  0  0  0  0  0  0  0  0
    2.2768   -0.1236    0.4653 H   0  0  0  0  0  0  0  0  0  0  0  0
    1.0200   -2.2641    0.4299 H   0  0  0  0  0  0  0  0  0  0  0  0
   -1.4319   -2.2420   -0.0937 H   0  0  0  0  0  0  0  0  0  0  0  0
   -2.9350    3.8791   -1.0564 Cl  0  0  0  0  0  0  0  0  0  0  0  0
  1  8  1  0  0  0  0
  2  1  1  0  0  0  0
  3  2  1  0  0  0  0
  4  1  2  0  0  0  0
  4  5  1  0  0  0  0
  5 10  1  0  0  0  0
  5  6  2  0  0  0  0
  6 11  1  0  0  0  0
  7  6  1  0  0  0  0
  7 12  1  0  0  0  0
  8  7  2  0  0  0  0
 13  8  1  0  0  0  0
 14  9  1  0  0  0  0
M  RAD  3   2   2   3   3   4   2
M  END
