Coordinates from ORCA-job PhN2+~Cl-_B3LYPG-6-31G_dp-CH-Scan-d09-49-n800
 OpenBabel11261919593D

 14 13  0  0  0  0  0  0  0  0999 V2000
   -1.3348   -0.5188   -0.2736 C   0  0  0  0  0  0  0  0  0  0  0  0
   -2.6951   -0.6238   -0.5550 N   0  0  0  0  0  0  0  0  0  0  0  0
   -3.7904   -0.6263   -0.7907 N   0  0  0  0  0  0  0  0  0  0  0  0
   -0.8972    0.8123   -0.3345 C   0  0  0  0  0  0  0  0  0  0  0  0
    0.4963    0.8572   -0.0364 C   0  0  0  0  0  0  0  0  0  0  0  0
    1.2611   -0.2653    0.2629 C   0  0  0  0  0  0  0  0  0  0  0  0
    0.6981   -1.5673    0.2925 C   0  0  0  0  0  0  0  0  0  0  0  0
   -0.6412   -1.7254    0.0188 C   0  0  0  0  0  0  0  0  0  0  0  0
   -2.6322    4.8962   -1.0808 H   0  0  0  0  0  0  0  0  0  0  0  0
    1.0036    1.8231   -0.0396 H   0  0  0  0  0  0  0  0  0  0  0  0
    2.3219   -0.1571    0.4841 H   0  0  0  0  0  0  0  0  0  0  0  0
    1.3166   -2.4269    0.5292 H   0  0  0  0  0  0  0  0  0  0  0  0
   -1.1298   -2.6963    0.0267 H   0  0  0  0  0  0  0  0  0  0  0  0
   -3.2273    6.0118   -1.3168 Cl  0  0  0  0  0  0  0  0  0  0  0  0
  1  8  1  0  0  0  0
  2  1  1  0  0  0  0
  3  2  1  0  0  0  0
  4  1  2  0  0  0  0
  4  5  1  0  0  0  0
  5  6  2  0  0  0  0
  6  7  1  0  0  0  0
  6 11  1  0  0  0  0
  7 12  1  0  0  0  0
  8 13  1  0  0  0  0
  8  7  2  0  0  0  0
 10  5  1  0  0  0  0
 14  9  1  0  0  0  0
M  RAD  3   2   2   3   3   4   2
M  END
