Coordinates from ORCA-job PhN2+~Cl-_B3LYPG-6-31G_dp-CH-Scan-d09-49-n800
 OpenBabel11261919593D

 14 13  0  0  0  0  0  0  0  0999 V2000
   -1.4601    0.0521   -0.3473 C   0  0  0  0  0  0  0  0  0  0  0  0
   -2.8368    0.0864   -0.6409 N   0  0  0  0  0  0  0  0  0  0  0  0
   -3.7477    0.7502   -0.9027 N   0  0  0  0  0  0  0  0  0  0  0  0
   -0.7277    1.2413   -0.3208 C   0  0  0  0  0  0  0  0  0  0  0  0
    0.6292    1.1696   -0.0266 C   0  0  0  0  0  0  0  0  0  0  0  0
    1.2227   -0.0713    0.2328 C   0  0  0  0  0  0  0  0  0  0  0  0
    0.4699   -1.2527    0.2008 C   0  0  0  0  0  0  0  0  0  0  0  0
   -0.8879   -1.2024   -0.0917 C   0  0  0  0  0  0  0  0  0  0  0  0
   -1.4583    2.3857   -0.5972 H   0  0  0  0  0  0  0  0  0  0  0  0
    1.2260    2.0756    0.0023 H   0  0  0  0  0  0  0  0  0  0  0  0
    2.2829   -0.1206    0.4644 H   0  0  0  0  0  0  0  0  0  0  0  0
    0.9438   -2.2070    0.4049 H   0  0  0  0  0  0  0  0  0  0  0  0
   -1.5009   -2.0969   -0.1246 H   0  0  0  0  0  0  0  0  0  0  0  0
   -3.4053    2.9837   -1.0668 Cl  0  0  0  0  0  0  0  0  0  0  0  0
  1  4  2  0  0  0  0
  1  8  1  0  0  0  0
  2  1  1  0  0  0  0
  3  2  2  0  0  0  0
  4  5  1  0  0  0  0
  5 10  1  0  0  0  0
  5  6  2  0  0  0  0
  6 11  1  0  0  0  0
  7  6  1  0  0  0  0
  7 12  1  0  0  0  0
  8  7  2  0  0  0  0
  9  4  1  0  0  0  0
 13  8  1  0  0  0  0
M  RAD  2   3   2  14   2
M  END
