Coordinates from ORCA-job PhN2+~Cl-_B3LYPG-6-31G_dp-CH-Scan-d09-49-n800
 OpenBabel11261919593D

 14 13  0  0  0  0  0  0  0  0999 V2000
   -1.3348   -0.5237   -0.2733 C   0  0  0  0  0  0  0  0  0  0  0  0
   -2.6950   -0.6310   -0.5545 N   0  0  0  0  0  0  0  0  0  0  0  0
   -3.7903   -0.6353   -0.7901 N   0  0  0  0  0  0  0  0  0  0  0  0
   -0.8994    0.8080   -0.3350 C   0  0  0  0  0  0  0  0  0  0  0  0
    0.4940    0.8554   -0.0370 C   0  0  0  0  0  0  0  0  0  0  0  0
    1.2607   -0.2657    0.2629 C   0  0  0  0  0  0  0  0  0  0  0  0
    0.6998   -1.5686    0.2932 C   0  0  0  0  0  0  0  0  0  0  0  0
   -0.6392   -1.7290    0.0197 C   0  0  0  0  0  0  0  0  0  0  0  0
   -2.6347    4.9136   -1.0825 H   0  0  0  0  0  0  0  0  0  0  0  0
    0.9997    1.8221   -0.0408 H   0  0  0  0  0  0  0  0  0  0  0  0
    2.3213   -0.1556    0.4839 H   0  0  0  0  0  0  0  0  0  0  0  0
    1.3198   -2.4271    0.5303 H   0  0  0  0  0  0  0  0  0  0  0  0
   -1.1263   -2.7007    0.0282 H   0  0  0  0  0  0  0  0  0  0  0  0
   -3.2259    6.0313   -1.3184 Cl  0  0  0  0  0  0  0  0  0  0  0  0
  1  8  1  0  0  0  0
  2  1  1  0  0  0  0
  3  2  1  0  0  0  0
  4  1  2  0  0  0  0
  4  5  1  0  0  0  0
  5  6  2  0  0  0  0
  6  7  1  0  0  0  0
  6 11  1  0  0  0  0
  7 12  1  0  0  0  0
  8 13  1  0  0  0  0
  8  7  2  0  0  0  0
 10  5  1  0  0  0  0
 14  9  1  0  0  0  0
M  RAD  3   2   2   3   3   4   2
M  END
