Coordinates from ORCA-job PhN2+~Cl-_B3LYPG-6-31G_dp-CH-Scan-d09-49-n800
 OpenBabel11261919593D

 14 13  0  0  0  0  0  0  0  0999 V2000
   -1.3367   -0.5413   -0.2721 C   0  0  0  0  0  0  0  0  0  0  0  0
   -2.6961   -0.6587   -0.5523 N   0  0  0  0  0  0  0  0  0  0  0  0
   -3.7916   -0.6714   -0.7871 N   0  0  0  0  0  0  0  0  0  0  0  0
   -0.9105    0.7931   -0.3361 C   0  0  0  0  0  0  0  0  0  0  0  0
    0.4824    0.8512   -0.0391 C   0  0  0  0  0  0  0  0  0  0  0  0
    1.2572   -0.2640    0.2621 C   0  0  0  0  0  0  0  0  0  0  0  0
    0.7057   -1.5709    0.2948 C   0  0  0  0  0  0  0  0  0  0  0  0
   -0.6324   -1.7412    0.0223 C   0  0  0  0  0  0  0  0  0  0  0  0
   -2.6360    4.9684   -1.0859 H   0  0  0  0  0  0  0  0  0  0  0  0
    0.9820    1.8211   -0.0446 H   0  0  0  0  0  0  0  0  0  0  0  0
    2.3172   -0.1460    0.4822 H   0  0  0  0  0  0  0  0  0  0  0  0
    1.3319   -2.4246    0.5329 H   0  0  0  0  0  0  0  0  0  0  0  0
   -1.1125   -2.7163    0.0326 H   0  0  0  0  0  0  0  0  0  0  0  0
   -3.2110    6.0943   -1.3230 Cl  0  0  0  0  0  0  0  0  0  0  0  0
  1  8  1  0  0  0  0
  2  1  1  0  0  0  0
  3  2  1  0  0  0  0
  4  1  2  0  0  0  0
  4  5  1  0  0  0  0
  5  6  2  0  0  0  0
  6  7  1  0  0  0  0
  6 11  1  0  0  0  0
  7 12  1  0  0  0  0
  8 13  1  0  0  0  0
  8  7  2  0  0  0  0
 10  5  1  0  0  0  0
 14  9  1  0  0  0  0
M  RAD  3   2   2   3   3   4   2
M  END
