Coordinates from ORCA-job PhN2+~Cl-_B3LYPG-6-31G_dp-CH-Scan-d09-49-n800
 OpenBabel11261919593D

 14 13  0  0  0  0  0  0  0  0999 V2000
   -1.3333   -0.4367   -0.2811 C   0  0  0  0  0  0  0  0  0  0  0  0
   -2.6945   -0.5036   -0.5667 N   0  0  0  0  0  0  0  0  0  0  0  0
   -3.7889   -0.4767   -0.8051 N   0  0  0  0  0  0  0  0  0  0  0  0
   -0.8577    0.8820   -0.3331 C   0  0  0  0  0  0  0  0  0  0  0  0
    0.5356    0.8862   -0.0310 C   0  0  0  0  0  0  0  0  0  0  0  0
    1.2679   -0.2591    0.2633 C   0  0  0  0  0  0  0  0  0  0  0  0
    0.6685   -1.5449    0.2840 C   0  0  0  0  0  0  0  0  0  0  0  0
   -0.6739   -1.6637    0.0062 C   0  0  0  0  0  0  0  0  0  0  0  0
   -2.5910    4.6111   -1.0493 H   0  0  0  0  0  0  0  0  0  0  0  0
    1.0695    1.8375   -0.0273 H   0  0  0  0  0  0  0  0  0  0  0  0
    2.3307   -0.1820    0.4875 H   0  0  0  0  0  0  0  0  0  0  0  0
    1.2620   -2.4229    0.5172 H   0  0  0  0  0  0  0  0  0  0  0  0
   -1.1896   -2.6205    0.0074 H   0  0  0  0  0  0  0  0  0  0  0  0
   -3.2556    5.6869   -1.2852 Cl  0  0  0  0  0  0  0  0  0  0  0  0
  1  8  1  0  0  0  0
  2  1  1  0  0  0  0
  3  2  1  0  0  0  0
  4  1  2  0  0  0  0
  4  5  1  0  0  0  0
  5 10  1  0  0  0  0
  5  6  2  0  0  0  0
  6  7  1  0  0  0  0
  6 11  1  0  0  0  0
  7 12  1  0  0  0  0
  8 13  1  0  0  0  0
  8  7  2  0  0  0  0
 14  9  1  0  0  0  0
M  RAD  3   2   2   3   3   4   2
M  END
