Coordinates from ORCA-job PhN2+~Cl-_B3LYPG-6-31G_dp-CH-Scan-d09-49-n800
 OpenBabel11261919593D

 14 13  0  0  0  0  0  0  0  0999 V2000
   -1.4084   -0.0441   -0.3281 C   0  0  0  0  0  0  0  0  0  0  0  0
   -2.7643   -0.0026   -0.6185 N   0  0  0  0  0  0  0  0  0  0  0  0
   -3.8517    0.0986   -0.8584 N   0  0  0  0  0  0  0  0  0  0  0  0
   -0.7996    1.2227   -0.3375 C   0  0  0  0  0  0  0  0  0  0  0  0
    0.5803    1.1144   -0.0329 C   0  0  0  0  0  0  0  0  0  0  0  0
    1.2099   -0.0985    0.2337 C   0  0  0  0  0  0  0  0  0  0  0  0
    0.5018   -1.3245    0.2164 C   0  0  0  0  0  0  0  0  0  0  0  0
   -0.8452   -1.3226   -0.0697 C   0  0  0  0  0  0  0  0  0  0  0  0
   -1.9909    2.9073   -0.7619 H   0  0  0  0  0  0  0  0  0  0  0  0
    1.1834    2.0208   -0.0039 H   0  0  0  0  0  0  0  0  0  0  0  0
    2.2732   -0.1175    0.4638 H   0  0  0  0  0  0  0  0  0  0  0  0
    1.0148   -2.2569    0.4276 H   0  0  0  0  0  0  0  0  0  0  0  0
   -1.4370   -2.2331   -0.0959 H   0  0  0  0  0  0  0  0  0  0  0  0
   -2.9166    3.8296   -1.0480 Cl  0  0  0  0  0  0  0  0  0  0  0  0
  1  8  1  0  0  0  0
  2  1  1  0  0  0  0
  3  2  1  0  0  0  0
  4  1  2  0  0  0  0
  4  5  1  0  0  0  0
  5 10  1  0  0  0  0
  5  6  2  0  0  0  0
  6 11  1  0  0  0  0
  7  6  1  0  0  0  0
  7 12  1  0  0  0  0
  8  7  2  0  0  0  0
 13  8  1  0  0  0  0
 14  9  1  0  0  0  0
M  RAD  3   2   2   3   3   4   2
M  END
