Coordinates from ORCA-job PhN2+~Cl-_B3LYPG-6-31G_dp-CH-Scan-d09-49-n800
 OpenBabel11261919593D

 14 13  0  0  0  0  0  0  0  0999 V2000
   -1.3394   -0.5585   -0.2708 C   0  0  0  0  0  0  0  0  0  0  0  0
   -2.6982   -0.6867   -0.5497 N   0  0  0  0  0  0  0  0  0  0  0  0
   -3.7937   -0.7079   -0.7837 N   0  0  0  0  0  0  0  0  0  0  0  0
   -0.9238    0.7791   -0.3368 C   0  0  0  0  0  0  0  0  0  0  0  0
    0.4688    0.8484   -0.0410 C   0  0  0  0  0  0  0  0  0  0  0  0
    1.2526   -0.2603    0.2609 C   0  0  0  0  0  0  0  0  0  0  0  0
    0.7113   -1.5715    0.2957 C   0  0  0  0  0  0  0  0  0  0  0  0
   -0.6256   -1.7525    0.0245 C   0  0  0  0  0  0  0  0  0  0  0  0
   -2.6312    5.0162   -1.0887 H   0  0  0  0  0  0  0  0  0  0  0  0
    0.9609    1.8222   -0.0481 H   0  0  0  0  0  0  0  0  0  0  0  0
    2.3118   -0.1337    0.4800 H   0  0  0  0  0  0  0  0  0  0  0  0
    1.3444   -2.4199    0.5342 H   0  0  0  0  0  0  0  0  0  0  0  0
   -1.0981   -2.7313    0.0364 H   0  0  0  0  0  0  0  0  0  0  0  0
   -3.1901    6.1501   -1.3261 Cl  0  0  0  0  0  0  0  0  0  0  0  0
  1  8  1  0  0  0  0
  2  1  1  0  0  0  0
  3  2  1  0  0  0  0
  4  1  2  0  0  0  0
  4  5  1  0  0  0  0
  5  6  2  0  0  0  0
  6  7  1  0  0  0  0
  6 11  1  0  0  0  0
  7 12  1  0  0  0  0
  8 13  1  0  0  0  0
  8  7  2  0  0  0  0
 10  5  1  0  0  0  0
 14  9  1  0  0  0  0
M  RAD  3   2   2   3   3   4   2
M  END
