Coordinates from ORCA-job PhN2+~Cl-_B3LYPG-6-31G_dp-CH-Scan-d09-49-n800
 OpenBabel11261919593D

 14 13  0  0  0  0  0  0  0  0999 V2000
   -1.3334   -0.4273   -0.2823 C   0  0  0  0  0  0  0  0  0  0  0  0
   -2.6947   -0.4900   -0.5683 N   0  0  0  0  0  0  0  0  0  0  0  0
   -3.7888   -0.4604   -0.8074 N   0  0  0  0  0  0  0  0  0  0  0  0
   -0.8536    0.8900   -0.3338 C   0  0  0  0  0  0  0  0  0  0  0  0
    0.5394    0.8899   -0.0312 C   0  0  0  0  0  0  0  0  0  0  0  0
    1.2682   -0.2576    0.2631 C   0  0  0  0  0  0  0  0  0  0  0  0
    0.6649   -1.5416    0.2833 C   0  0  0  0  0  0  0  0  0  0  0  0
   -0.6778   -1.6563    0.0050 C   0  0  0  0  0  0  0  0  0  0  0  0
   -2.5849    4.5761   -1.0446 H   0  0  0  0  0  0  0  0  0  0  0  0
    1.0761    1.8397   -0.0270 H   0  0  0  0  0  0  0  0  0  0  0  0
    2.3311   -0.1838    0.4878 H   0  0  0  0  0  0  0  0  0  0  0  0
    1.2556   -2.4215    0.5165 H   0  0  0  0  0  0  0  0  0  0  0  0
   -1.1964   -2.6116    0.0058 H   0  0  0  0  0  0  0  0  0  0  0  0
   -3.2560    5.6480   -1.2801 Cl  0  0  0  0  0  0  0  0  0  0  0  0
  1  8  1  0  0  0  0
  2  1  1  0  0  0  0
  3  2  1  0  0  0  0
  4  1  2  0  0  0  0
  4  5  1  0  0  0  0
  5 10  1  0  0  0  0
  5  6  2  0  0  0  0
  6  7  1  0  0  0  0
  6 11  1  0  0  0  0
  7 12  1  0  0  0  0
  8 13  1  0  0  0  0
  8  7  2  0  0  0  0
 14  9  1  0  0  0  0
M  RAD  3   2   2   3   3   4   2
M  END
