Coordinates from ORCA-job PhN2+~Cl-_B3LYPG-6-31G_dp-CH-Scan-d09-49-n800
 OpenBabel11261919593D

 14 13  0  0  0  0  0  0  0  0999 V2000
   -1.4317   -0.0012   -0.3365 C   0  0  0  0  0  0  0  0  0  0  0  0
   -2.8037    0.0991   -0.6363 N   0  0  0  0  0  0  0  0  0  0  0  0
   -3.7739    0.6084   -0.8943 N   0  0  0  0  0  0  0  0  0  0  0  0
   -0.7904    1.2374   -0.3350 C   0  0  0  0  0  0  0  0  0  0  0  0
    0.5788    1.1639   -0.0374 C   0  0  0  0  0  0  0  0  0  0  0  0
    1.2005   -0.0588    0.2273 C   0  0  0  0  0  0  0  0  0  0  0  0
    0.4841   -1.2724    0.2065 C   0  0  0  0  0  0  0  0  0  0  0  0
   -0.8701   -1.2649   -0.0813 C   0  0  0  0  0  0  0  0  0  0  0  0
   -1.7564    2.4252   -0.6635 H   0  0  0  0  0  0  0  0  0  0  0  0
    1.1713    2.0753   -0.0106 H   0  0  0  0  0  0  0  0  0  0  0  0
    2.2629   -0.0827    0.4572 H   0  0  0  0  0  0  0  0  0  0  0  0
    0.9904   -2.2086    0.4160 H   0  0  0  0  0  0  0  0  0  0  0  0
   -1.4645   -2.1726   -0.1088 H   0  0  0  0  0  0  0  0  0  0  0  0
   -3.0476    3.2456   -1.0166 Cl  0  0  0  0  0  0  0  0  0  0  0  0
  1  4  2  0  0  0  0
  1  8  1  0  0  0  0
  2  1  1  0  0  0  0
  3  2  1  0  0  0  0
  4  5  1  0  0  0  0
  5 10  1  0  0  0  0
  5  6  2  0  0  0  0
  6 11  1  0  0  0  0
  7  6  1  0  0  0  0
  7 12  1  0  0  0  0
  8  7  2  0  0  0  0
 13  8  1  0  0  0  0
 14  9  1  0  0  0  0
M  RAD  3   2   2   3   3   4   2
M  END
