Coordinates from ORCA-job PhN2+~Cl-_B3LYPG-6-31G_dp-CH-Scan-d09-49-n800
 OpenBabel11261919593D

 14 13  0  0  0  0  0  0  0  0999 V2000
   -1.3543   -0.2488   -0.3004 C   0  0  0  0  0  0  0  0  0  0  0  0
   -2.7135   -0.2548   -0.5889 N   0  0  0  0  0  0  0  0  0  0  0  0
   -3.8056   -0.1905   -0.8284 N   0  0  0  0  0  0  0  0  0  0  0  0
   -0.8101    1.0458   -0.3313 C   0  0  0  0  0  0  0  0  0  0  0  0
    0.5795    0.9806   -0.0262 C   0  0  0  0  0  0  0  0  0  0  0  0
    1.2549   -0.2027    0.2542 C   0  0  0  0  0  0  0  0  0  0  0  0
    0.5942   -1.4576    0.2550 C   0  0  0  0  0  0  0  0  0  0  0  0
   -0.7513   -1.5082   -0.0280 C   0  0  0  0  0  0  0  0  0  0  0  0
   -2.3962    3.8495   -0.9387 H   0  0  0  0  0  0  0  0  0  0  0  0
    1.1564    1.9057   -0.0080 H   0  0  0  0  0  0  0  0  0  0  0  0
    2.3192   -0.1798    0.4825 H   0  0  0  0  0  0  0  0  0  0  0  0
    1.1435   -2.3666    0.4771 H   0  0  0  0  0  0  0  0  0  0  0  0
   -1.3113   -2.4395   -0.0418 H   0  0  0  0  0  0  0  0  0  0  0  0
   -3.1556    4.8606   -1.1904 Cl  0  0  0  0  0  0  0  0  0  0  0  0
  1  8  1  0  0  0  0
  2  1  1  0  0  0  0
  3  2  1  0  0  0  0
  4  1  2  0  0  0  0
  4  5  1  0  0  0  0
  5 10  1  0  0  0  0
  5  6  2  0  0  0  0
  6  7  1  0  0  0  0
  6 11  1  0  0  0  0
  7 12  1  0  0  0  0
  8  7  2  0  0  0  0
 13  8  1  0  0  0  0
 14  9  1  0  0  0  0
M  RAD  3   2   2   3   3   4   2
M  END
