Coordinates from ORCA-job PhN2+~Cl-_B3LYPG-6-31G_dp-CH-Scan-d09-49-n800
 OpenBabel11261919593D

 14 13  0  0  0  0  0  0  0  0999 V2000
   -1.3799   -0.1053   -0.3169 C   0  0  0  0  0  0  0  0  0  0  0  0
   -2.7361   -0.0714   -0.6068 N   0  0  0  0  0  0  0  0  0  0  0  0
   -3.8256    0.0175   -0.8461 N   0  0  0  0  0  0  0  0  0  0  0  0
   -0.7854    1.1686   -0.3310 C   0  0  0  0  0  0  0  0  0  0  0  0
    0.5979    1.0615   -0.0252 C   0  0  0  0  0  0  0  0  0  0  0  0
    1.2344   -0.1464    0.2439 C   0  0  0  0  0  0  0  0  0  0  0  0
    0.5333   -1.3780    0.2297 C   0  0  0  0  0  0  0  0  0  0  0  0
   -0.8129   -1.3832   -0.0562 C   0  0  0  0  0  0  0  0  0  0  0  0
   -2.1718    3.2511   -0.8351 H   0  0  0  0  0  0  0  0  0  0  0  0
    1.2001    1.9692    0.0029 H   0  0  0  0  0  0  0  0  0  0  0  0
    2.2980   -0.1595    0.4742 H   0  0  0  0  0  0  0  0  0  0  0  0
    1.0520   -2.3067    0.4430 H   0  0  0  0  0  0  0  0  0  0  0  0
   -1.4008   -2.2966   -0.0806 H   0  0  0  0  0  0  0  0  0  0  0  0
   -3.0536    4.1728   -1.1093 Cl  0  0  0  0  0  0  0  0  0  0  0  0
  1  8  1  0  0  0  0
  2  1  1  0  0  0  0
  3  2  1  0  0  0  0
  4  1  2  0  0  0  0
  4  5  1  0  0  0  0
  5 10  1  0  0  0  0
  5  6  2  0  0  0  0
  6 11  1  0  0  0  0
  7  6  1  0  0  0  0
  7 12  1  0  0  0  0
  8  7  2  0  0  0  0
 13  8  1  0  0  0  0
 14  9  1  0  0  0  0
M  RAD  3   2   2   3   3   4   2
M  END
