Coordinates from ORCA-job PhN2+~Cl-_B3LYPG-6-31G_dp-CH-Scan-d09-49-n800
 OpenBabel11261919593D

 14 14  0  0  0  0  0  0  0  0999 V2000
   -1.4797    0.0950   -0.3585 C   0  0  0  0  0  0  0  0  0  0  0  0
   -2.8572    0.0772   -0.6488 N   0  0  0  0  0  0  0  0  0  0  0  0
   -3.7780    0.7473   -0.9105 N   0  0  0  0  0  0  0  0  0  0  0  0
   -0.7271    1.2796   -0.3284 C   0  0  0  0  0  0  0  0  0  0  0  0
    0.6298    1.1836   -0.0295 C   0  0  0  0  0  0  0  0  0  0  0  0
    1.2183   -0.0575    0.2319 C   0  0  0  0  0  0  0  0  0  0  0  0
    0.4535   -1.2279    0.1966 C   0  0  0  0  0  0  0  0  0  0  0  0
   -0.9028   -1.1570   -0.1000 C   0  0  0  0  0  0  0  0  0  0  0  0
   -1.2130    2.2332   -0.5359 H   0  0  0  0  0  0  0  0  0  0  0  0
    1.2306    2.0870   -0.0003 H   0  0  0  0  0  0  0  0  0  0  0  0
    2.2772   -0.1129    0.4655 H   0  0  0  0  0  0  0  0  0  0  0  0
    0.9131   -2.1894    0.4004 H   0  0  0  0  0  0  0  0  0  0  0  0
   -1.5250   -2.0446   -0.1356 H   0  0  0  0  0  0  0  0  0  0  0  0
   -3.4900    2.8801   -1.0602 Cl  0  0  0  0  0  0  0  0  0  0  0  0
  1  4  2  0  0  0  0
  1  8  1  0  0  0  0
  2  1  1  0  0  0  0
  3  2  2  0  0  0  0
  4  5  1  0  0  0  0
  5 10  1  0  0  0  0
  5  6  2  0  0  0  0
  6 11  1  0  0  0  0
  7  6  1  0  0  0  0
  7 12  1  0  0  0  0
  8  7  2  0  0  0  0
  9  4  1  0  0  0  0
 13  8  1  0  0  0  0
 14  3  1  0  0  0  0
M  END
