Coordinates from ORCA-job PhN2+~Cl-_B3LYPG-6-31G_dp-CH-Scan-d09-49-n800
 OpenBabel11261919593D

 14 13  0  0  0  0  0  0  0  0999 V2000
   -1.3889   -0.0854   -0.3202 C   0  0  0  0  0  0  0  0  0  0  0  0
   -2.7448   -0.0494   -0.6099 N   0  0  0  0  0  0  0  0  0  0  0  0
   -3.8340    0.0419   -0.8491 N   0  0  0  0  0  0  0  0  0  0  0  0
   -0.7900    1.1865   -0.3325 C   0  0  0  0  0  0  0  0  0  0  0  0
    0.5924    1.0783   -0.0271 C   0  0  0  0  0  0  0  0  0  0  0  0
    1.2266   -0.1313    0.2407 C   0  0  0  0  0  0  0  0  0  0  0  0
    0.5233   -1.3611    0.2251 C   0  0  0  0  0  0  0  0  0  0  0  0
   -0.8232   -1.3638   -0.0607 C   0  0  0  0  0  0  0  0  0  0  0  0
   -2.1164    3.1429   -0.8127 H   0  0  0  0  0  0  0  0  0  0  0  0
    1.1952    1.9854    0.0016 H   0  0  0  0  0  0  0  0  0  0  0  0
    2.2902   -0.1464    0.4709 H   0  0  0  0  0  0  0  0  0  0  0  0
    1.0401   -2.2911    0.4374 H   0  0  0  0  0  0  0  0  0  0  0  0
   -1.4124   -2.2762   -0.0860 H   0  0  0  0  0  0  0  0  0  0  0  0
   -3.0084    4.0633   -1.0908 Cl  0  0  0  0  0  0  0  0  0  0  0  0
  1  8  1  0  0  0  0
  2  1  1  0  0  0  0
  3  2  1  0  0  0  0
  4  1  2  0  0  0  0
  4  5  1  0  0  0  0
  5 10  1  0  0  0  0
  5  6  2  0  0  0  0
  6 11  1  0  0  0  0
  7  6  1  0  0  0  0
  7 12  1  0  0  0  0
  8  7  2  0  0  0  0
 13  8  1  0  0  0  0
 14  9  1  0  0  0  0
M  RAD  3   2   2   3   3   4   2
M  END
