Coordinates from ORCA-job PhN2+~Cl-_B3LYPG-6-31G_dp-CH-Scan-d09-49-n800
 OpenBabel11261919593D

 14 13  0  0  0  0  0  0  0  0999 V2000
   -1.4161   -0.0311   -0.3307 C   0  0  0  0  0  0  0  0  0  0  0  0
   -2.7721    0.0123   -0.6212 N   0  0  0  0  0  0  0  0  0  0  0  0
   -3.8586    0.1191   -0.8614 N   0  0  0  0  0  0  0  0  0  0  0  0
   -0.8042    1.2339   -0.3390 C   0  0  0  0  0  0  0  0  0  0  0  0
    0.5748    1.1272   -0.0349 C   0  0  0  0  0  0  0  0  0  0  0  0
    1.2036   -0.0864    0.2311 C   0  0  0  0  0  0  0  0  0  0  0  0
    0.4946   -1.3115    0.2132 C   0  0  0  0  0  0  0  0  0  0  0  0
   -0.8528   -1.3091   -0.0728 C   0  0  0  0  0  0  0  0  0  0  0  0
   -1.9423    2.8235   -0.7432 H   0  0  0  0  0  0  0  0  0  0  0  0
    1.1769    2.0340   -0.0059 H   0  0  0  0  0  0  0  0  0  0  0  0
    2.2668   -0.1061    0.4610 H   0  0  0  0  0  0  0  0  0  0  0  0
    1.0069   -2.2443    0.4239 H   0  0  0  0  0  0  0  0  0  0  0  0
   -1.4447   -2.2193   -0.0993 H   0  0  0  0  0  0  0  0  0  0  0  0
   -2.8831    3.7513   -1.0340 Cl  0  0  0  0  0  0  0  0  0  0  0  0
  1  8  1  0  0  0  0
  2  1  1  0  0  0  0
  3  2  1  0  0  0  0
  4  1  2  0  0  0  0
  4  5  1  0  0  0  0
  5 10  1  0  0  0  0
  5  6  2  0  0  0  0
  6 11  1  0  0  0  0
  7  6  1  0  0  0  0
  7 12  1  0  0  0  0
  8  7  2  0  0  0  0
 13  8  1  0  0  0  0
 14  9  1  0  0  0  0
M  RAD  3   2   2   3   3   4   2
M  END
