Coordinates from ORCA-job PhN2+~Cl-_B3LYPG-6-31G_dp-CH-Scan-d09-49-n800
 OpenBabel11261919593D

 14 13  0  0  0  0  0  0  0  0999 V2000
   -1.4257   -0.0165   -0.3341 C   0  0  0  0  0  0  0  0  0  0  0  0
   -2.7819    0.0300   -0.6249 N   0  0  0  0  0  0  0  0  0  0  0  0
   -3.8667    0.1473   -0.8658 N   0  0  0  0  0  0  0  0  0  0  0  0
   -0.8093    1.2457   -0.3410 C   0  0  0  0  0  0  0  0  0  0  0  0
    0.5681    1.1427   -0.0377 C   0  0  0  0  0  0  0  0  0  0  0  0
    1.1962   -0.0719    0.2280 C   0  0  0  0  0  0  0  0  0  0  0  0
    0.4862   -1.2958    0.2097 C   0  0  0  0  0  0  0  0  0  0  0  0
   -0.8617   -1.2931   -0.0764 C   0  0  0  0  0  0  0  0  0  0  0  0
   -1.8804    2.7200   -0.7196 H   0  0  0  0  0  0  0  0  0  0  0  0
    1.1684    2.0504   -0.0091 H   0  0  0  0  0  0  0  0  0  0  0  0
    2.2593   -0.0922    0.4578 H   0  0  0  0  0  0  0  0  0  0  0  0
    0.9978   -2.2290    0.4200 H   0  0  0  0  0  0  0  0  0  0  0  0
   -1.4535   -2.2032   -0.1030 H   0  0  0  0  0  0  0  0  0  0  0  0
   -2.8472    3.6592   -1.0172 Cl  0  0  0  0  0  0  0  0  0  0  0  0
  1  8  1  0  0  0  0
  2  1  1  0  0  0  0
  3  2  1  0  0  0  0
  4  1  2  0  0  0  0
  4  5  1  0  0  0  0
  5 10  1  0  0  0  0
  5  6  2  0  0  0  0
  6 11  1  0  0  0  0
  7  6  1  0  0  0  0
  7 12  1  0  0  0  0
  8  7  2  0  0  0  0
 13  8  1  0  0  0  0
 14  9  1  0  0  0  0
M  RAD  3   2   2   3   3   4   2
M  END
