Coordinates from ORCA-job PhN2+~Cl-_B3LYPG-6-31G_dp-CH-Scan-d09-49-n800
 OpenBabel11261919593D

 14 13  0  0  0  0  0  0  0  0999 V2000
   -1.3482   -0.6301   -0.2624 C   0  0  0  0  0  0  0  0  0  0  0  0
   -2.7039   -0.8007   -0.5353 N   0  0  0  0  0  0  0  0  0  0  0  0
   -3.7993   -0.8550   -0.7646 N   0  0  0  0  0  0  0  0  0  0  0  0
   -0.9755    0.7197   -0.3321 C   0  0  0  0  0  0  0  0  0  0  0  0
    0.4160    0.8327   -0.0426 C   0  0  0  0  0  0  0  0  0  0  0  0
    1.2355   -0.2504    0.2572 C   0  0  0  0  0  0  0  0  0  0  0  0
    0.7356   -1.5778    0.2960 C   0  0  0  0  0  0  0  0  0  0  0  0
   -0.5963   -1.8009    0.0311 C   0  0  0  0  0  0  0  0  0  0  0  0
   -2.6244    5.2308   -1.1062 H   0  0  0  0  0  0  0  0  0  0  0  0
    0.8768    1.8216   -0.0534 H   0  0  0  0  0  0  0  0  0  0  0  0
    2.2912   -0.0905    0.4713 H   0  0  0  0  0  0  0  0  0  0  0  0
    1.3959   -2.4058    0.5327 H   0  0  0  0  0  0  0  0  0  0  0  0
   -1.0379   -2.7940    0.0464 H   0  0  0  0  0  0  0  0  0  0  0  0
   -3.1158    6.3939   -1.3512 Cl  0  0  0  0  0  0  0  0  0  0  0  0
  1  8  1  0  0  0  0
  2  1  1  0  0  0  0
  3  2  1  0  0  0  0
  4  1  2  0  0  0  0
  4  5  1  0  0  0  0
  5  6  2  0  0  0  0
  6  7  1  0  0  0  0
  6 11  1  0  0  0  0
  7 12  1  0  0  0  0
  8 13  1  0  0  0  0
  8  7  2  0  0  0  0
 10  5  1  0  0  0  0
 14  9  1  0  0  0  0
M  RAD  3   2   2   3   3   4   2
M  END
