Coordinates from ORCA-job PhN2+~Cl-_B3LYPG-6-31G_dp-CH-Scan-d09-49-n800
 OpenBabel11261919593D

 14 13  0  0  0  0  0  0  0  0999 V2000
   -1.4236   -0.0197   -0.3333 C   0  0  0  0  0  0  0  0  0  0  0  0
   -2.7797    0.0259   -0.6240 N   0  0  0  0  0  0  0  0  0  0  0  0
   -3.8650    0.1402   -0.8647 N   0  0  0  0  0  0  0  0  0  0  0  0
   -0.8084    1.2432   -0.3405 C   0  0  0  0  0  0  0  0  0  0  0  0
    0.5694    1.1393   -0.0370 C   0  0  0  0  0  0  0  0  0  0  0  0
    1.1977   -0.0750    0.2286 C   0  0  0  0  0  0  0  0  0  0  0  0
    0.4880   -1.2992    0.2104 C   0  0  0  0  0  0  0  0  0  0  0  0
   -0.8597   -1.2967   -0.0756 C   0  0  0  0  0  0  0  0  0  0  0  0
   -1.8943    2.7431   -0.7250 H   0  0  0  0  0  0  0  0  0  0  0  0
    1.1701    2.0468   -0.0083 H   0  0  0  0  0  0  0  0  0  0  0  0
    2.2608   -0.0951    0.4585 H   0  0  0  0  0  0  0  0  0  0  0  0
    0.9999   -2.2323    0.4207 H   0  0  0  0  0  0  0  0  0  0  0  0
   -1.4515   -2.2068   -0.1022 H   0  0  0  0  0  0  0  0  0  0  0  0
   -2.8539    3.6799   -1.0209 Cl  0  0  0  0  0  0  0  0  0  0  0  0
  1  8  1  0  0  0  0
  2  1  1  0  0  0  0
  3  2  1  0  0  0  0
  4  1  2  0  0  0  0
  4  5  1  0  0  0  0
  5 10  1  0  0  0  0
  5  6  2  0  0  0  0
  6 11  1  0  0  0  0
  7  6  1  0  0  0  0
  7 12  1  0  0  0  0
  8  7  2  0  0  0  0
 13  8  1  0  0  0  0
 14  9  1  0  0  0  0
M  RAD  3   2   2   3   3   4   2
M  END
