Coordinates from ORCA-job PhN2+~Cl-_B3LYPG-6-31G_dp-CH-Scan-d09-49-n800
 OpenBabel11261919593D

 14 13  0  0  0  0  0  0  0  0999 V2000
   -1.4592    0.0495   -0.3466 C   0  0  0  0  0  0  0  0  0  0  0  0
   -2.8361    0.0873   -0.6404 N   0  0  0  0  0  0  0  0  0  0  0  0
   -3.7459    0.7511   -0.9022 N   0  0  0  0  0  0  0  0  0  0  0  0
   -0.7297    1.2401   -0.3208 C   0  0  0  0  0  0  0  0  0  0  0  0
    0.6274    1.1695   -0.0268 C   0  0  0  0  0  0  0  0  0  0  0  0
    1.2221   -0.0708    0.2325 C   0  0  0  0  0  0  0  0  0  0  0  0
    0.4707   -1.2534    0.2009 C   0  0  0  0  0  0  0  0  0  0  0  0
   -0.8872   -1.2051   -0.0913 C   0  0  0  0  0  0  0  0  0  0  0  0
   -1.4710    2.3833   -0.5992 H   0  0  0  0  0  0  0  0  0  0  0  0
    1.2237    2.0759    0.0020 H   0  0  0  0  0  0  0  0  0  0  0  0
    2.2823   -0.1191    0.4639 H   0  0  0  0  0  0  0  0  0  0  0  0
    0.9461   -2.2070    0.4050 H   0  0  0  0  0  0  0  0  0  0  0  0
   -1.4993   -2.1002   -0.1239 H   0  0  0  0  0  0  0  0  0  0  0  0
   -3.3944    2.9925   -1.0666 Cl  0  0  0  0  0  0  0  0  0  0  0  0
  1  4  2  0  0  0  0
  1  8  1  0  0  0  0
  2  1  1  0  0  0  0
  3  2  2  0  0  0  0
  4  5  1  0  0  0  0
  5 10  1  0  0  0  0
  5  6  2  0  0  0  0
  6 11  1  0  0  0  0
  7  6  1  0  0  0  0
  7 12  1  0  0  0  0
  8  7  2  0  0  0  0
  9  4  1  0  0  0  0
 13  8  1  0  0  0  0
M  RAD  2   3   2  14   2
M  END
