Coordinates from ORCA-job PhN2+~Cl-_B3LYPG-6-31G_dp-CH-Scan-d09-49-n800
 OpenBabel11261919593D

 14 13  0  0  0  0  0  0  0  0999 V2000
   -1.3424   -0.5795   -0.2688 C   0  0  0  0  0  0  0  0  0  0  0  0
   -2.7003   -0.7206   -0.5460 N   0  0  0  0  0  0  0  0  0  0  0  0
   -3.7958   -0.7519   -0.7788 N   0  0  0  0  0  0  0  0  0  0  0  0
   -0.9398    0.7620   -0.3366 C   0  0  0  0  0  0  0  0  0  0  0  0
    0.4529    0.8443   -0.0424 C   0  0  0  0  0  0  0  0  0  0  0  0
    1.2474   -0.2567    0.2597 C   0  0  0  0  0  0  0  0  0  0  0  0
    0.7184   -1.5728    0.2963 C   0  0  0  0  0  0  0  0  0  0  0  0
   -0.6171   -1.7665    0.0268 C   0  0  0  0  0  0  0  0  0  0  0  0
   -2.6277    5.0770   -1.0930 H   0  0  0  0  0  0  0  0  0  0  0  0
    0.9354    1.8228   -0.0511 H   0  0  0  0  0  0  0  0  0  0  0  0
    2.3056   -0.1200    0.4774 H   0  0  0  0  0  0  0  0  0  0  0  0
    1.3596   -2.4151    0.5348 H   0  0  0  0  0  0  0  0  0  0  0  0
   -1.0804   -2.7497    0.0401 H   0  0  0  0  0  0  0  0  0  0  0  0
   -3.1663    6.2204   -1.3317 Cl  0  0  0  0  0  0  0  0  0  0  0  0
  1  8  1  0  0  0  0
  2  1  1  0  0  0  0
  3  2  1  0  0  0  0
  4  1  2  0  0  0  0
  4  5  1  0  0  0  0
  5  6  2  0  0  0  0
  6  7  1  0  0  0  0
  6 11  1  0  0  0  0
  7 12  1  0  0  0  0
  8 13  1  0  0  0  0
  8  7  2  0  0  0  0
 10  5  1  0  0  0  0
 14  9  1  0  0  0  0
M  RAD  3   2   2   3   3   4   2
M  END
