Coordinates from ORCA-job PhN2+~Cl-_B3LYPG-6-31G_dp-CH-Scan-d09-49-n800
 OpenBabel11261919593D

 14 13  0  0  0  0  0  0  0  0999 V2000
   -1.3344   -0.4733   -0.2761 C   0  0  0  0  0  0  0  0  0  0  0  0
   -2.6954   -0.5574   -0.5589 N   0  0  0  0  0  0  0  0  0  0  0  0
   -3.7905   -0.5442   -0.7952 N   0  0  0  0  0  0  0  0  0  0  0  0
   -0.8765    0.8516   -0.3293 C   0  0  0  0  0  0  0  0  0  0  0  0
    0.5173    0.8737   -0.0298 C   0  0  0  0  0  0  0  0  0  0  0  0
    1.2650   -0.2619    0.2632 C   0  0  0  0  0  0  0  0  0  0  0  0
    0.6825   -1.5554    0.2853 C   0  0  0  0  0  0  0  0  0  0  0  0
   -0.6588   -1.6917    0.0101 C   0  0  0  0  0  0  0  0  0  0  0  0
   -2.6096    4.7386   -1.0665 H   0  0  0  0  0  0  0  0  0  0  0  0
    1.0389    1.8318   -0.0272 H   0  0  0  0  0  0  0  0  0  0  0  0
    2.3272   -0.1709    0.4854 H   0  0  0  0  0  0  0  0  0  0  0  0
    1.2878   -2.4256    0.5174 H   0  0  0  0  0  0  0  0  0  0  0  0
   -1.1621   -2.6551    0.0124 H   0  0  0  0  0  0  0  0  0  0  0  0
   -3.2415    5.8335   -1.3042 Cl  0  0  0  0  0  0  0  0  0  0  0  0
  1  8  1  0  0  0  0
  2  1  1  0  0  0  0
  3  2  1  0  0  0  0
  4  1  2  0  0  0  0
  4  5  1  0  0  0  0
  5 10  1  0  0  0  0
  5  6  2  0  0  0  0
  6  7  1  0  0  0  0
  6 11  1  0  0  0  0
  7 12  1  0  0  0  0
  8 13  1  0  0  0  0
  8  7  2  0  0  0  0
 14  9  1  0  0  0  0
M  RAD  3   2   2   3   3   4   2
M  END
