Coordinates from ORCA-job PhN2+~Cl-_B3LYPG-6-31G_dp-CH-Scan-d09-49-n800
 OpenBabel11261919593D

 14 13  0  0  0  0  0  0  0  0999 V2000
   -1.3748   -0.1270   -0.3142 C   0  0  0  0  0  0  0  0  0  0  0  0
   -2.7313   -0.0995   -0.6038 N   0  0  0  0  0  0  0  0  0  0  0  0
   -3.8215   -0.0164   -0.8430 N   0  0  0  0  0  0  0  0  0  0  0  0
   -0.7873    1.1501   -0.3308 C   0  0  0  0  0  0  0  0  0  0  0  0
    0.5970    1.0478   -0.0249 C   0  0  0  0  0  0  0  0  0  0  0  0
    1.2387   -0.1568    0.2460 C   0  0  0  0  0  0  0  0  0  0  0  0
    0.5430   -1.3917    0.2339 C   0  0  0  0  0  0  0  0  0  0  0  0
   -0.8031   -1.4028   -0.0518 C   0  0  0  0  0  0  0  0  0  0  0  0
   -2.2135    3.3488   -0.8533 H   0  0  0  0  0  0  0  0  0  0  0  0
    1.1962    1.9577    0.0019 H   0  0  0  0  0  0  0  0  0  0  0  0
    2.3025   -0.1651    0.4761 H   0  0  0  0  0  0  0  0  0  0  0  0
    1.0658   -2.3179    0.4485 H   0  0  0  0  0  0  0  0  0  0  0  0
   -1.3874   -2.3185   -0.0748 H   0  0  0  0  0  0  0  0  0  0  0  0
   -3.0745    4.2849   -1.1233 Cl  0  0  0  0  0  0  0  0  0  0  0  0
  1  8  1  0  0  0  0
  2  1  1  0  0  0  0
  3  2  1  0  0  0  0
  4  1  2  0  0  0  0
  4  5  1  0  0  0  0
  5 10  1  0  0  0  0
  5  6  2  0  0  0  0
  6 11  1  0  0  0  0
  7  6  1  0  0  0  0
  7 12  1  0  0  0  0
  8  7  2  0  0  0  0
 13  8  1  0  0  0  0
 14  9  1  0  0  0  0
M  RAD  3   2   2   3   3   4   2
M  END
