Coordinates from ORCA-job PhN2+~Cl-_B3LYPG-6-31G_dp-CH-Scan-d09-49-n800
 OpenBabel11261919593D

 14 13  0  0  0  0  0  0  0  0999 V2000
   -1.3337   -0.3961   -0.2859 C   0  0  0  0  0  0  0  0  0  0  0  0
   -2.6949   -0.4457   -0.5735 N   0  0  0  0  0  0  0  0  0  0  0  0
   -3.7885   -0.4062   -0.8136 N   0  0  0  0  0  0  0  0  0  0  0  0
   -0.8402    0.9164   -0.3350 C   0  0  0  0  0  0  0  0  0  0  0  0
    0.5524    0.9020   -0.0310 C   0  0  0  0  0  0  0  0  0  0  0  0
    1.2692   -0.2533    0.2627 C   0  0  0  0  0  0  0  0  0  0  0  0
    0.6530   -1.5310    0.2806 C   0  0  0  0  0  0  0  0  0  0  0  0
   -0.6904   -1.6319    0.0006 C   0  0  0  0  0  0  0  0  0  0  0  0
   -2.5669    4.4615   -1.0294 H   0  0  0  0  0  0  0  0  0  0  0  0
    1.0986    1.8463   -0.0250 H   0  0  0  0  0  0  0  0  0  0  0  0
    2.3326   -0.1905    0.4887 H   0  0  0  0  0  0  0  0  0  0  0  0
    1.2345   -2.4171    0.5133 H   0  0  0  0  0  0  0  0  0  0  0  0
   -1.2185   -2.5819   -0.0005 H   0  0  0  0  0  0  0  0  0  0  0  0
   -3.2578    5.5208   -1.2653 Cl  0  0  0  0  0  0  0  0  0  0  0  0
  1  8  1  0  0  0  0
  2  1  1  0  0  0  0
  3  2  1  0  0  0  0
  4  1  2  0  0  0  0
  4  5  1  0  0  0  0
  5 10  1  0  0  0  0
  5  6  2  0  0  0  0
  6  7  1  0  0  0  0
  6 11  1  0  0  0  0
  7 12  1  0  0  0  0
  8  7  2  0  0  0  0
 13  8  1  0  0  0  0
 14  9  1  0  0  0  0
M  RAD  3   2   2   3   3   4   2
M  END
