Coordinates from ORCA-job PhN2+~Cl-_B3LYPG-6-31G_dp-CH-Scan-d09-49-n800
 OpenBabel11261919593D

 14 13  0  0  0  0  0  0  0  0999 V2000
   -1.3397   -0.3266   -0.2925 C   0  0  0  0  0  0  0  0  0  0  0  0
   -2.7002   -0.3525   -0.5812 N   0  0  0  0  0  0  0  0  0  0  0  0
   -3.7929   -0.2982   -0.8217 N   0  0  0  0  0  0  0  0  0  0  0  0
   -0.8201    0.9770   -0.3335 C   0  0  0  0  0  0  0  0  0  0  0  0
    0.5713    0.9350   -0.0282 C   0  0  0  0  0  0  0  0  0  0  0  0
    1.2661   -0.2350    0.2600 C   0  0  0  0  0  0  0  0  0  0  0  0
    0.6261   -1.5010    0.2700 C   0  0  0  0  0  0  0  0  0  0  0  0
   -0.7186   -1.5752   -0.0120 C   0  0  0  0  0  0  0  0  0  0  0  0
   -2.5049    4.1859   -0.9914 H   0  0  0  0  0  0  0  0  0  0  0  0
    1.1343    1.8691   -0.0166 H   0  0  0  0  0  0  0  0  0  0  0  0
    2.3300   -0.1932    0.4876 H   0  0  0  0  0  0  0  0  0  0  0  0
    1.1905   -2.3992    0.4983 H   0  0  0  0  0  0  0  0  0  0  0  0
   -1.2640   -2.5153   -0.0191 H   0  0  0  0  0  0  0  0  0  0  0  0
   -3.2281    5.2229   -1.2329 Cl  0  0  0  0  0  0  0  0  0  0  0  0
  1  8  1  0  0  0  0
  2  1  1  0  0  0  0
  3  2  1  0  0  0  0
  4  1  2  0  0  0  0
  4  5  1  0  0  0  0
  5 10  1  0  0  0  0
  5  6  2  0  0  0  0
  6  7  1  0  0  0  0
  6 11  1  0  0  0  0
  7 12  1  0  0  0  0
  8  7  2  0  0  0  0
 13  8  1  0  0  0  0
 14  9  1  0  0  0  0
M  RAD  3   2   2   3   3   4   2
M  END
