Coordinates from ORCA-job PhN2+~Cl-_B3LYPG-6-31G_dp-CH-Scan-d09-49-n800
 OpenBabel11261919593D

 14 13  0  0  0  0  0  0  0  0999 V2000
   -1.4192   -0.0261   -0.3318 C   0  0  0  0  0  0  0  0  0  0  0  0
   -2.7753    0.0184   -0.6224 N   0  0  0  0  0  0  0  0  0  0  0  0
   -3.8613    0.1285   -0.8627 N   0  0  0  0  0  0  0  0  0  0  0  0
   -0.8059    1.2380   -0.3395 C   0  0  0  0  0  0  0  0  0  0  0  0
    0.5726    1.1324   -0.0357 C   0  0  0  0  0  0  0  0  0  0  0  0
    1.2011   -0.0816    0.2300 C   0  0  0  0  0  0  0  0  0  0  0  0
    0.4918   -1.3062    0.2120 C   0  0  0  0  0  0  0  0  0  0  0  0
   -0.8558   -1.3036   -0.0741 C   0  0  0  0  0  0  0  0  0  0  0  0
   -1.9221    2.7888   -0.7355 H   0  0  0  0  0  0  0  0  0  0  0  0
    1.1742    2.0395   -0.0068 H   0  0  0  0  0  0  0  0  0  0  0  0
    2.2643   -0.1015    0.4599 H   0  0  0  0  0  0  0  0  0  0  0  0
    1.0038   -2.2392    0.4224 H   0  0  0  0  0  0  0  0  0  0  0  0
   -1.4477   -2.2138   -0.1006 H   0  0  0  0  0  0  0  0  0  0  0  0
   -2.8708    3.7200   -1.0285 Cl  0  0  0  0  0  0  0  0  0  0  0  0
  1  8  1  0  0  0  0
  2  1  1  0  0  0  0
  3  2  1  0  0  0  0
  4  1  2  0  0  0  0
  4  5  1  0  0  0  0
  5 10  1  0  0  0  0
  5  6  2  0  0  0  0
  6 11  1  0  0  0  0
  7  6  1  0  0  0  0
  7 12  1  0  0  0  0
  8  7  2  0  0  0  0
 13  8  1  0  0  0  0
 14  9  1  0  0  0  0
M  RAD  3   2   2   3   3   4   2
M  END
