Coordinates from ORCA-job PhN2+~Cl-_B3LYPG-6-31G_dp-CH-Scan-d09-49-n800
 OpenBabel11261919593D

 14 14  0  0  0  0  0  0  0  0999 V2000
   -1.4820    0.0978   -0.3612 C   0  0  0  0  0  0  0  0  0  0  0  0
   -2.8595    0.0758   -0.6527 N   0  0  0  0  0  0  0  0  0  0  0  0
   -3.7789    0.7500   -0.9125 N   0  0  0  0  0  0  0  0  0  0  0  0
   -0.7305    1.2837   -0.3321 C   0  0  0  0  0  0  0  0  0  0  0  0
    0.6265    1.1862   -0.0316 C   0  0  0  0  0  0  0  0  0  0  0  0
    1.2160   -0.0537    0.2319 C   0  0  0  0  0  0  0  0  0  0  0  0
    0.4517   -1.2241    0.1973 C   0  0  0  0  0  0  0  0  0  0  0  0
   -0.9044   -1.1534   -0.1010 C   0  0  0  0  0  0  0  0  0  0  0  0
   -1.1910    2.2004   -0.5318 H   0  0  0  0  0  0  0  0  0  0  0  0
    1.2268    2.0901   -0.0032 H   0  0  0  0  0  0  0  0  0  0  0  0
    2.2747   -0.1081    0.4667 H   0  0  0  0  0  0  0  0  0  0  0  0
    0.9110   -2.1855    0.4025 H   0  0  0  0  0  0  0  0  0  0  0  0
   -1.5264   -2.0411   -0.1364 H   0  0  0  0  0  0  0  0  0  0  0  0
   -3.4843    2.8756   -1.0491 Cl  0  0  0  0  0  0  0  0  0  0  0  0
  1  4  2  0  0  0  0
  1  8  1  0  0  0  0
  2  1  1  0  0  0  0
  3  2  2  0  0  0  0
  4  5  1  0  0  0  0
  5 10  1  0  0  0  0
  5  6  2  0  0  0  0
  6 11  1  0  0  0  0
  7  6  1  0  0  0  0
  7 12  1  0  0  0  0
  8  7  2  0  0  0  0
  9  4  1  0  0  0  0
 13  8  1  0  0  0  0
 14  3  1  0  0  0  0
M  END
