Coordinates from ORCA-job PhN2+~Cl-_B3LYPG-6-31G_dp-CH-Scan-d09-49-n800
 OpenBabel11261919593D

 14 13  0  0  0  0  0  0  0  0999 V2000
   -1.3336   -0.4190   -0.2834 C   0  0  0  0  0  0  0  0  0  0  0  0
   -2.6947   -0.4788   -0.5698 N   0  0  0  0  0  0  0  0  0  0  0  0
   -3.7888   -0.4471   -0.8090 N   0  0  0  0  0  0  0  0  0  0  0  0
   -0.8504    0.8972   -0.3344 C   0  0  0  0  0  0  0  0  0  0  0  0
    0.5427    0.8932   -0.0313 C   0  0  0  0  0  0  0  0  0  0  0  0
    1.2684   -0.2563    0.2630 C   0  0  0  0  0  0  0  0  0  0  0  0
    0.6617   -1.5387    0.2827 C   0  0  0  0  0  0  0  0  0  0  0  0
   -0.6811   -1.6498    0.0039 C   0  0  0  0  0  0  0  0  0  0  0  0
   -2.5796    4.5459   -1.0404 H   0  0  0  0  0  0  0  0  0  0  0  0
    1.0819    1.8415   -0.0267 H   0  0  0  0  0  0  0  0  0  0  0  0
    2.3314   -0.1853    0.4880 H   0  0  0  0  0  0  0  0  0  0  0  0
    1.2500   -2.4202    0.5158 H   0  0  0  0  0  0  0  0  0  0  0  0
   -1.2022   -2.6036    0.0043 H   0  0  0  0  0  0  0  0  0  0  0  0
   -3.2560    5.6146   -1.2758 Cl  0  0  0  0  0  0  0  0  0  0  0  0
  1  8  1  0  0  0  0
  2  1  1  0  0  0  0
  3  2  1  0  0  0  0
  4  1  2  0  0  0  0
  4  5  1  0  0  0  0
  5 10  1  0  0  0  0
  5  6  2  0  0  0  0
  6  7  1  0  0  0  0
  6 11  1  0  0  0  0
  7 12  1  0  0  0  0
  8 13  1  0  0  0  0
  8  7  2  0  0  0  0
 14  9  1  0  0  0  0
M  RAD  3   2   2   3   3   4   2
M  END
