Coordinates from ORCA-job PhN2+~Cl-_B3LYPG-6-31G_dp-CH-Scan-d09-49-n800
 OpenBabel11261919593D

 14 13  0  0  0  0  0  0  0  0999 V2000
   -1.4301   -0.0098   -0.3358 C   0  0  0  0  0  0  0  0  0  0  0  0
   -2.7864    0.0389   -0.6270 N   0  0  0  0  0  0  0  0  0  0  0  0
   -3.8699    0.1642   -0.8685 N   0  0  0  0  0  0  0  0  0  0  0  0
   -0.8110    1.2507   -0.3420 C   0  0  0  0  0  0  0  0  0  0  0  0
    0.5656    1.1498   -0.0391 C   0  0  0  0  0  0  0  0  0  0  0  0
    1.1930   -0.0653    0.2266 C   0  0  0  0  0  0  0  0  0  0  0  0
    0.4824   -1.2884    0.2082 C   0  0  0  0  0  0  0  0  0  0  0  0
   -0.8658   -1.2856   -0.0780 C   0  0  0  0  0  0  0  0  0  0  0  0
   -1.8496    2.6696   -0.7079 H   0  0  0  0  0  0  0  0  0  0  0  0
    1.1647    2.0581   -0.0109 H   0  0  0  0  0  0  0  0  0  0  0  0
    2.2560   -0.0860    0.4564 H   0  0  0  0  0  0  0  0  0  0  0  0
    0.9934   -2.2219    0.4185 H   0  0  0  0  0  0  0  0  0  0  0  0
   -1.4577   -2.1956   -0.1045 H   0  0  0  0  0  0  0  0  0  0  0  0
   -2.8349    3.6148   -1.0093 Cl  0  0  0  0  0  0  0  0  0  0  0  0
  1  8  1  0  0  0  0
  2  1  1  0  0  0  0
  3  2  1  0  0  0  0
  4  1  2  0  0  0  0
  4  5  1  0  0  0  0
  5 10  1  0  0  0  0
  5  6  2  0  0  0  0
  6 11  1  0  0  0  0
  7  6  1  0  0  0  0
  7 12  1  0  0  0  0
  8  7  2  0  0  0  0
 13  8  1  0  0  0  0
 14  9  1  0  0  0  0
M  RAD  3   2   2   3   3   4   2
M  END
