Coordinates from ORCA-job PhN2+~Cl-_B3LYPG-6-31G_dp-CH-Scan-d09-49-n800
 OpenBabel11261919593D

 14 13  0  0  0  0  0  0  0  0999 V2000
   -1.3396   -0.5600   -0.2707 C   0  0  0  0  0  0  0  0  0  0  0  0
   -2.6983   -0.6893   -0.5494 N   0  0  0  0  0  0  0  0  0  0  0  0
   -3.7938   -0.7113   -0.7833 N   0  0  0  0  0  0  0  0  0  0  0  0
   -0.9252    0.7780   -0.3368 C   0  0  0  0  0  0  0  0  0  0  0  0
    0.4678    0.8479   -0.0411 C   0  0  0  0  0  0  0  0  0  0  0  0
    1.2524   -0.2602    0.2609 C   0  0  0  0  0  0  0  0  0  0  0  0
    0.7119   -1.5717    0.2957 C   0  0  0  0  0  0  0  0  0  0  0  0
   -0.6249   -1.7535    0.0247 C   0  0  0  0  0  0  0  0  0  0  0  0
   -2.6313    5.0211   -1.0891 H   0  0  0  0  0  0  0  0  0  0  0  0
    0.9589    1.8222   -0.0484 H   0  0  0  0  0  0  0  0  0  0  0  0
    2.3115   -0.1329    0.4799 H   0  0  0  0  0  0  0  0  0  0  0  0
    1.3455   -2.4197    0.5343 H   0  0  0  0  0  0  0  0  0  0  0  0
   -1.0968   -2.7327    0.0366 H   0  0  0  0  0  0  0  0  0  0  0  0
   -3.1884    6.1558   -1.3266 Cl  0  0  0  0  0  0  0  0  0  0  0  0
  1  8  1  0  0  0  0
  2  1  1  0  0  0  0
  3  2  1  0  0  0  0
  4  1  2  0  0  0  0
  4  5  1  0  0  0  0
  5  6  2  0  0  0  0
  6  7  1  0  0  0  0
  6 11  1  0  0  0  0
  7 12  1  0  0  0  0
  8 13  1  0  0  0  0
  8  7  2  0  0  0  0
 10  5  1  0  0  0  0
 14  9  1  0  0  0  0
M  RAD  3   2   2   3   3   4   2
M  END
