Coordinates from ORCA-job PhN2+~Cl-_B3LYPG-6-31G_dp-CH-Scan-d09-49-n800
 OpenBabel11261919593D

 14 13  0  0  0  0  0  0  0  0999 V2000
   -1.3964   -0.0697   -0.3233 C   0  0  0  0  0  0  0  0  0  0  0  0
   -2.7522   -0.0323   -0.6132 N   0  0  0  0  0  0  0  0  0  0  0  0
   -3.8409    0.0612   -0.8525 N   0  0  0  0  0  0  0  0  0  0  0  0
   -0.7941    1.2005   -0.3346 C   0  0  0  0  0  0  0  0  0  0  0  0
    0.5875    1.0920   -0.0295 C   0  0  0  0  0  0  0  0  0  0  0  0
    1.2201   -0.1187    0.2380 C   0  0  0  0  0  0  0  0  0  0  0  0
    0.5151   -1.3472    0.2219 C   0  0  0  0  0  0  0  0  0  0  0  0
   -0.8316   -1.3482   -0.0641 C   0  0  0  0  0  0  0  0  0  0  0  0
   -2.0697    3.0544   -0.7937 H   0  0  0  0  0  0  0  0  0  0  0  0
    1.1905    1.9988   -0.0007 H   0  0  0  0  0  0  0  0  0  0  0  0
    2.2836   -0.1352    0.4682 H   0  0  0  0  0  0  0  0  0  0  0  0
    1.0305   -2.2780    0.4338 H   0  0  0  0  0  0  0  0  0  0  0  0
   -1.4216   -2.2599   -0.0897 H   0  0  0  0  0  0  0  0  0  0  0  0
   -2.9712    3.9759   -1.0739 Cl  0  0  0  0  0  0  0  0  0  0  0  0
  1  8  1  0  0  0  0
  2  1  1  0  0  0  0
  3  2  1  0  0  0  0
  4  1  2  0  0  0  0
  4  5  1  0  0  0  0
  5 10  1  0  0  0  0
  5  6  2  0  0  0  0
  6 11  1  0  0  0  0
  7  6  1  0  0  0  0
  7 12  1  0  0  0  0
  8  7  2  0  0  0  0
 13  8  1  0  0  0  0
 14  9  1  0  0  0  0
M  RAD  3   2   2   3   3   4   2
M  END
