Coordinates from ORCA-job PhN2+~Cl-_B3LYPG-6-31G_dp-CH-Scan-d09-49-n800
 OpenBabel11261919593D

 14 14  0  0  0  0  0  0  0  0999 V2000
   -1.4838    0.0995   -0.3630 C   0  0  0  0  0  0  0  0  0  0  0  0
   -2.8611    0.0752   -0.6553 N   0  0  0  0  0  0  0  0  0  0  0  0
   -3.7793    0.7524   -0.9138 N   0  0  0  0  0  0  0  0  0  0  0  0
   -0.7332    1.2865   -0.3347 C   0  0  0  0  0  0  0  0  0  0  0  0
    0.6238    1.1885   -0.0332 C   0  0  0  0  0  0  0  0  0  0  0  0
    1.2141   -0.0506    0.2319 C   0  0  0  0  0  0  0  0  0  0  0  0
    0.4503   -1.2213    0.1976 C   0  0  0  0  0  0  0  0  0  0  0  0
   -0.9056   -1.1510   -0.1017 C   0  0  0  0  0  0  0  0  0  0  0  0
   -1.1757    2.1737   -0.5282 H   0  0  0  0  0  0  0  0  0  0  0  0
    1.2235    2.0928   -0.0053 H   0  0  0  0  0  0  0  0  0  0  0  0
    2.2727   -0.1042    0.4672 H   0  0  0  0  0  0  0  0  0  0  0  0
    0.9097   -2.1823    0.4038 H   0  0  0  0  0  0  0  0  0  0  0  0
   -1.5273   -2.0390   -0.1370 H   0  0  0  0  0  0  0  0  0  0  0  0
   -3.4786    2.8733   -1.0417 Cl  0  0  0  0  0  0  0  0  0  0  0  0
  1  4  2  0  0  0  0
  1  8  1  0  0  0  0
  2  1  1  0  0  0  0
  3  2  2  0  0  0  0
  4  5  1  0  0  0  0
  5 10  1  0  0  0  0
  5  6  2  0  0  0  0
  6 11  1  0  0  0  0
  7  6  1  0  0  0  0
  7 12  1  0  0  0  0
  8  7  2  0  0  0  0
  9  4  1  0  0  0  0
 13  8  1  0  0  0  0
 14  3  1  0  0  0  0
M  END
