Coordinates from ORCA-job PhN2+~Cl-_B3LYPG-6-31G_dp-CH-Scan-d09-49-n800
 OpenBabel11261919593D

 14 13  0  0  0  0  0  0  0  0999 V2000
   -1.3335   -0.4167   -0.2850 C   0  0  0  0  0  0  0  0  0  0  0  0
   -2.6941   -0.4774   -0.5733 N   0  0  0  0  0  0  0  0  0  0  0  0
   -3.7902   -0.4442   -0.8029 N   0  0  0  0  0  0  0  0  0  0  0  0
   -0.8503    0.9003   -0.3352 C   0  0  0  0  0  0  0  0  0  0  0  0
    0.5436    0.8939   -0.0308 C   0  0  0  0  0  0  0  0  0  0  0  0
    1.2683   -0.2561    0.2636 C   0  0  0  0  0  0  0  0  0  0  0  0
    0.6609   -1.5378    0.2824 C   0  0  0  0  0  0  0  0  0  0  0  0
   -0.6816   -1.6478    0.0025 C   0  0  0  0  0  0  0  0  0  0  0  0
   -2.5781    4.5387   -1.0402 H   0  0  0  0  0  0  0  0  0  0  0  0
    1.0837    1.8416   -0.0254 H   0  0  0  0  0  0  0  0  0  0  0  0
    2.3312   -0.1860    0.4895 H   0  0  0  0  0  0  0  0  0  0  0  0
    1.2485   -2.4198    0.5155 H   0  0  0  0  0  0  0  0  0  0  0  0
   -1.2031   -2.6015    0.0018 H   0  0  0  0  0  0  0  0  0  0  0  0
   -3.2557    5.6065   -1.2757 Cl  0  0  0  0  0  0  0  0  0  0  0  0
  1  8  1  0  0  0  0
  2  1  1  0  0  0  0
  3  2  1  0  0  0  0
  4  1  2  0  0  0  0
  4  5  1  0  0  0  0
  5 10  1  0  0  0  0
  5  6  2  0  0  0  0
  6  7  1  0  0  0  0
  6 11  1  0  0  0  0
  7 12  1  0  0  0  0
  8  7  2  0  0  0  0
 13  8  1  0  0  0  0
 14  9  1  0  0  0  0
M  RAD  3   2   2   3   3   4   2
M  END
