Coordinates from ORCA-job PhN2+~Cl-_B3LYPG-6-31G_dp-CH-Scan-d09-49-n800
 OpenBabel11261919593D

 14 13  0  0  0  0  0  0  0  0999 V2000
   -1.3434   -0.3039   -0.2946 C   0  0  0  0  0  0  0  0  0  0  0  0
   -2.7036   -0.3238   -0.5833 N   0  0  0  0  0  0  0  0  0  0  0  0
   -3.7962   -0.2662   -0.8234 N   0  0  0  0  0  0  0  0  0  0  0  0
   -0.8166    0.9970   -0.3326 C   0  0  0  0  0  0  0  0  0  0  0  0
    0.5744    0.9477   -0.0273 C   0  0  0  0  0  0  0  0  0  0  0  0
    1.2633   -0.2264    0.2585 C   0  0  0  0  0  0  0  0  0  0  0  0
    0.6170   -1.4890    0.2657 C   0  0  0  0  0  0  0  0  0  0  0  0
   -0.7280   -1.5560   -0.0167 C   0  0  0  0  0  0  0  0  0  0  0  0
   -2.4768    4.0892   -0.9771 H   0  0  0  0  0  0  0  0  0  0  0  0
    1.1418    1.8791   -0.0137 H   0  0  0  0  0  0  0  0  0  0  0  0
    2.3274   -0.1903    0.4863 H   0  0  0  0  0  0  0  0  0  0  0  0
    1.1769   -2.3905    0.4921 H   0  0  0  0  0  0  0  0  0  0  0  0
   -1.2779   -2.4934   -0.0259 H   0  0  0  0  0  0  0  0  0  0  0  0
   -3.2085    5.1201   -1.2213 Cl  0  0  0  0  0  0  0  0  0  0  0  0
  1  8  1  0  0  0  0
  2  1  1  0  0  0  0
  3  2  1  0  0  0  0
  4  1  2  0  0  0  0
  4  5  1  0  0  0  0
  5 10  1  0  0  0  0
  5  6  2  0  0  0  0
  6  7  1  0  0  0  0
  6 11  1  0  0  0  0
  7 12  1  0  0  0  0
  8  7  2  0  0  0  0
 13  8  1  0  0  0  0
 14  9  1  0  0  0  0
M  RAD  3   2   2   3   3   4   2
M  END
