Coordinates from ORCA-job PhN2+~Cl-_B3LYPG-6-31G_dp-CH-Scan-d09-49-n800
 OpenBabel11261919593D

 14 13  0  0  0  0  0  0  0  0999 V2000
   -1.4277   -0.0134   -0.3348 C   0  0  0  0  0  0  0  0  0  0  0  0
   -2.7840    0.0341   -0.6259 N   0  0  0  0  0  0  0  0  0  0  0  0
   -3.8682    0.1547   -0.8670 N   0  0  0  0  0  0  0  0  0  0  0  0
   -0.8101    1.2481   -0.3415 C   0  0  0  0  0  0  0  0  0  0  0  0
    0.5669    1.1460   -0.0383 C   0  0  0  0  0  0  0  0  0  0  0  0
    1.1947   -0.0688    0.2273 C   0  0  0  0  0  0  0  0  0  0  0  0
    0.4844   -1.2923    0.2090 C   0  0  0  0  0  0  0  0  0  0  0  0
   -0.8636   -1.2896   -0.0772 C   0  0  0  0  0  0  0  0  0  0  0  0
   -1.8663    2.6968   -0.7143 H   0  0  0  0  0  0  0  0  0  0  0  0
    1.1667    2.0540   -0.0099 H   0  0  0  0  0  0  0  0  0  0  0  0
    2.2577   -0.0893    0.4572 H   0  0  0  0  0  0  0  0  0  0  0  0
    0.9958   -2.2257    0.4193 H   0  0  0  0  0  0  0  0  0  0  0  0
   -1.4555   -2.1997   -0.1037 H   0  0  0  0  0  0  0  0  0  0  0  0
   -2.8410    3.6388   -1.0135 Cl  0  0  0  0  0  0  0  0  0  0  0  0
  1  8  1  0  0  0  0
  2  1  1  0  0  0  0
  3  2  1  0  0  0  0
  4  1  2  0  0  0  0
  4  5  1  0  0  0  0
  5 10  1  0  0  0  0
  5  6  2  0  0  0  0
  6 11  1  0  0  0  0
  7  6  1  0  0  0  0
  7 12  1  0  0  0  0
  8  7  2  0  0  0  0
 13  8  1  0  0  0  0
 14  9  1  0  0  0  0
M  RAD  3   2   2   3   3   4   2
M  END
