Coordinates from ORCA-job PhN2+~Cl-_B3LYPG-6-31G_dp-CH-Scan-d09-49-n800
 OpenBabel11261919593D

 14 13  0  0  0  0  0  0  0  0999 V2000
   -1.4356   -0.0011   -0.3379 C   0  0  0  0  0  0  0  0  0  0  0  0
   -2.7922    0.0531   -0.6299 N   0  0  0  0  0  0  0  0  0  0  0  0
   -3.8724    0.1987   -0.8731 N   0  0  0  0  0  0  0  0  0  0  0  0
   -0.8117    1.2563   -0.3429 C   0  0  0  0  0  0  0  0  0  0  0  0
    0.5632    1.1591   -0.0407 C   0  0  0  0  0  0  0  0  0  0  0  0
    1.1895   -0.0571    0.2249 C   0  0  0  0  0  0  0  0  0  0  0  0
    0.4776   -1.2787    0.2063 C   0  0  0  0  0  0  0  0  0  0  0  0
   -0.8711   -1.2755   -0.0801 C   0  0  0  0  0  0  0  0  0  0  0  0
   -1.8061    2.5980   -0.6914 H   0  0  0  0  0  0  0  0  0  0  0  0
    1.1607    2.0683   -0.0130 H   0  0  0  0  0  0  0  0  0  0  0  0
    2.2523   -0.0786    0.4548 H   0  0  0  0  0  0  0  0  0  0  0  0
    0.9878   -2.2127    0.4166 H   0  0  0  0  0  0  0  0  0  0  0  0
   -1.4631   -2.1853   -0.1066 H   0  0  0  0  0  0  0  0  0  0  0  0
   -2.8293    3.5491   -1.0004 Cl  0  0  0  0  0  0  0  0  0  0  0  0
  1  8  1  0  0  0  0
  2  1  1  0  0  0  0
  3  2  1  0  0  0  0
  4  1  2  0  0  0  0
  4  5  1  0  0  0  0
  5 10  1  0  0  0  0
  5  6  2  0  0  0  0
  6 11  1  0  0  0  0
  7  6  1  0  0  0  0
  7 12  1  0  0  0  0
  8  7  2  0  0  0  0
 13  8  1  0  0  0  0
 14  9  1  0  0  0  0
M  RAD  3   2   2   3   3   4   2
M  END
