Coordinates from ORCA-job PhN2+~Cl-_B3LYPG-6-31G_dp-CH-Scan-d09-49-n800
 OpenBabel11261919593D

 14 13  0  0  0  0  0  0  0  0999 V2000
   -1.3335   -0.4407   -0.2806 C   0  0  0  0  0  0  0  0  0  0  0  0
   -2.6947   -0.5093   -0.5660 N   0  0  0  0  0  0  0  0  0  0  0  0
   -3.7892   -0.4840   -0.8043 N   0  0  0  0  0  0  0  0  0  0  0  0
   -0.8598    0.8787   -0.3329 C   0  0  0  0  0  0  0  0  0  0  0  0
    0.5335    0.8850   -0.0310 C   0  0  0  0  0  0  0  0  0  0  0  0
    1.2676   -0.2593    0.2632 C   0  0  0  0  0  0  0  0  0  0  0  0
    0.6700   -1.5459    0.2842 C   0  0  0  0  0  0  0  0  0  0  0  0
   -0.6723   -1.6667    0.0067 C   0  0  0  0  0  0  0  0  0  0  0  0
   -2.5926    4.6244   -1.0510 H   0  0  0  0  0  0  0  0  0  0  0  0
    1.0662    1.8370   -0.0274 H   0  0  0  0  0  0  0  0  0  0  0  0
    2.3303   -0.1807    0.4872 H   0  0  0  0  0  0  0  0  0  0  0  0
    1.2648   -2.4230    0.5173 H   0  0  0  0  0  0  0  0  0  0  0  0
   -1.1866   -2.6242    0.0082 H   0  0  0  0  0  0  0  0  0  0  0  0
   -3.2538    5.7023   -1.2869 Cl  0  0  0  0  0  0  0  0  0  0  0  0
  1  8  1  0  0  0  0
  2  1  1  0  0  0  0
  3  2  1  0  0  0  0
  4  1  2  0  0  0  0
  4  5  1  0  0  0  0
  5 10  1  0  0  0  0
  5  6  2  0  0  0  0
  6  7  1  0  0  0  0
  6 11  1  0  0  0  0
  7 12  1  0  0  0  0
  8 13  1  0  0  0  0
  8  7  2  0  0  0  0
 14  9  1  0  0  0  0
M  RAD  3   2   2   3   3   4   2
M  END
