Coordinates from ORCA-job PhN2+~Cl-_B3LYPG-6-31G_dp-CH-Scan-d09-49-n800
 OpenBabel11261919593D

 14 13  0  0  0  0  0  0  0  0999 V2000
   -1.3339   -0.4510   -0.2793 C   0  0  0  0  0  0  0  0  0  0  0  0
   -2.6951   -0.5245   -0.5638 N   0  0  0  0  0  0  0  0  0  0  0  0
   -3.7898   -0.5028   -0.8016 N   0  0  0  0  0  0  0  0  0  0  0  0
   -0.8652    0.8701   -0.3319 C   0  0  0  0  0  0  0  0  0  0  0  0
    0.5282    0.8816   -0.0308 C   0  0  0  0  0  0  0  0  0  0  0  0
    1.2667   -0.2599    0.2632 C   0  0  0  0  0  0  0  0  0  0  0  0
    0.6739   -1.5487    0.2846 C   0  0  0  0  0  0  0  0  0  0  0  0
   -0.6681   -1.6746    0.0078 C   0  0  0  0  0  0  0  0  0  0  0  0
   -2.5975    4.6597   -1.0557 H   0  0  0  0  0  0  0  0  0  0  0  0
    1.0574    1.8356   -0.0276 H   0  0  0  0  0  0  0  0  0  0  0  0
    2.3292   -0.1774    0.4866 H   0  0  0  0  0  0  0  0  0  0  0  0
    1.2721   -2.4236    0.5175 H   0  0  0  0  0  0  0  0  0  0  0  0
   -1.1789   -2.6340    0.0096 H   0  0  0  0  0  0  0  0  0  0  0  0
   -3.2494    5.7431   -1.2920 Cl  0  0  0  0  0  0  0  0  0  0  0  0
  1  8  1  0  0  0  0
  2  1  1  0  0  0  0
  3  2  1  0  0  0  0
  4  1  2  0  0  0  0
  4  5  1  0  0  0  0
  5 10  1  0  0  0  0
  5  6  2  0  0  0  0
  6  7  1  0  0  0  0
  6 11  1  0  0  0  0
  7 12  1  0  0  0  0
  8 13  1  0  0  0  0
  8  7  2  0  0  0  0
 14  9  1  0  0  0  0
M  RAD  3   2   2   3   3   4   2
M  END
