Coordinates from ORCA-job PhN2+~Cl-_B3LYPG-6-31G_dp-CH-Scan-d09-49-n800
 OpenBabel11261919593D

 14 13  0  0  0  0  0  0  0  0999 V2000
   -1.3335   -0.4418   -0.2805 C   0  0  0  0  0  0  0  0  0  0  0  0
   -2.6947   -0.5115   -0.5656 N   0  0  0  0  0  0  0  0  0  0  0  0
   -3.7892   -0.4876   -0.8038 N   0  0  0  0  0  0  0  0  0  0  0  0
   -0.8606    0.8780   -0.3328 C   0  0  0  0  0  0  0  0  0  0  0  0
    0.5328    0.8845   -0.0310 C   0  0  0  0  0  0  0  0  0  0  0  0
    1.2674   -0.2594    0.2632 C   0  0  0  0  0  0  0  0  0  0  0  0
    0.6705   -1.5463    0.2843 C   0  0  0  0  0  0  0  0  0  0  0  0
   -0.6718   -1.6676    0.0068 C   0  0  0  0  0  0  0  0  0  0  0  0
   -2.5932    4.6292   -1.0516 H   0  0  0  0  0  0  0  0  0  0  0  0
    1.0651    1.8368   -0.0275 H   0  0  0  0  0  0  0  0  0  0  0  0
    2.3301   -0.1802    0.4871 H   0  0  0  0  0  0  0  0  0  0  0  0
    1.2656   -2.4232    0.5173 H   0  0  0  0  0  0  0  0  0  0  0  0
   -1.1858   -2.6253    0.0083 H   0  0  0  0  0  0  0  0  0  0  0  0
   -3.2530    5.7080   -1.2876 Cl  0  0  0  0  0  0  0  0  0  0  0  0
  1  8  1  0  0  0  0
  2  1  1  0  0  0  0
  3  2  1  0  0  0  0
  4  1  2  0  0  0  0
  4  5  1  0  0  0  0
  5 10  1  0  0  0  0
  5  6  2  0  0  0  0
  6  7  1  0  0  0  0
  6 11  1  0  0  0  0
  7 12  1  0  0  0  0
  8 13  1  0  0  0  0
  8  7  2  0  0  0  0
 14  9  1  0  0  0  0
M  RAD  3   2   2   3   3   4   2
M  END
