Coordinates from ORCA-job PhN2+~Cl-_B3LYPG-6-31G_dp-CH-Scan-d09-49-n800
 OpenBabel11261919593D

 14 13  0  0  0  0  0  0  0  0999 V2000
   -1.3700   -0.1541   -0.3114 C   0  0  0  0  0  0  0  0  0  0  0  0
   -2.7270   -0.1341   -0.6009 N   0  0  0  0  0  0  0  0  0  0  0  0
   -3.8176   -0.0552   -0.8404 N   0  0  0  0  0  0  0  0  0  0  0  0
   -0.7921    1.1273   -0.3314 C   0  0  0  0  0  0  0  0  0  0  0  0
    0.5936    1.0325   -0.0255 C   0  0  0  0  0  0  0  0  0  0  0  0
    1.2426   -0.1674    0.2479 C   0  0  0  0  0  0  0  0  0  0  0  0
    0.5544   -1.4068    0.2390 C   0  0  0  0  0  0  0  0  0  0  0  0
   -0.7916   -1.4265   -0.0463 C   0  0  0  0  0  0  0  0  0  0  0  0
   -2.2575    3.4599   -0.8725 H   0  0  0  0  0  0  0  0  0  0  0  0
    1.1882    1.9457   -0.0008 H   0  0  0  0  0  0  0  0  0  0  0  0
    2.3065   -0.1689    0.4779 H   0  0  0  0  0  0  0  0  0  0  0  0
    1.0829   -2.3292    0.4556 H   0  0  0  0  0  0  0  0  0  0  0  0
   -1.3707   -2.3456   -0.0671 H   0  0  0  0  0  0  0  0  0  0  0  0
   -3.0920    4.4160   -1.1374 Cl  0  0  0  0  0  0  0  0  0  0  0  0
  1  8  1  0  0  0  0
  2  1  1  0  0  0  0
  3  2  1  0  0  0  0
  4  1  2  0  0  0  0
  4  5  1  0  0  0  0
  5 10  1  0  0  0  0
  5  6  2  0  0  0  0
  6 11  1  0  0  0  0
  7  6  1  0  0  0  0
  7 12  1  0  0  0  0
  8  7  2  0  0  0  0
 13  8  1  0  0  0  0
 14  9  1  0  0  0  0
M  RAD  3   2   2   3   3   4   2
M  END
