Coordinates from ORCA-job PhN2+~Cl-_B3LYPG-6-31G_dp-CH-Scan-d09-49-n800
 OpenBabel11261919593D

 14 13  0  0  0  0  0  0  0  0999 V2000
   -1.3381   -0.3377   -0.2915 C   0  0  0  0  0  0  0  0  0  0  0  0
   -2.6988   -0.3670   -0.5802 N   0  0  0  0  0  0  0  0  0  0  0  0
   -3.7916   -0.3146   -0.8207 N   0  0  0  0  0  0  0  0  0  0  0  0
   -0.8223    0.9672   -0.3339 C   0  0  0  0  0  0  0  0  0  0  0  0
    0.5693    0.9290   -0.0287 C   0  0  0  0  0  0  0  0  0  0  0  0
    1.2671   -0.2389    0.2606 C   0  0  0  0  0  0  0  0  0  0  0  0
    0.6305   -1.5065    0.2720 C   0  0  0  0  0  0  0  0  0  0  0  0
   -0.7140   -1.5845   -0.0098 C   0  0  0  0  0  0  0  0  0  0  0  0
   -2.5174    4.2325   -0.9981 H   0  0  0  0  0  0  0  0  0  0  0  0
    1.1301    1.8645   -0.0181 H   0  0  0  0  0  0  0  0  0  0  0  0
    2.3310   -0.1941    0.4881 H   0  0  0  0  0  0  0  0  0  0  0  0
    1.1973   -2.4030    0.5013 H   0  0  0  0  0  0  0  0  0  0  0  0
   -1.2570   -2.5260   -0.0159 H   0  0  0  0  0  0  0  0  0  0  0  0
   -3.2363    5.2726   -1.2385 Cl  0  0  0  0  0  0  0  0  0  0  0  0
  1  8  1  0  0  0  0
  2  1  1  0  0  0  0
  3  2  1  0  0  0  0
  4  1  2  0  0  0  0
  4  5  1  0  0  0  0
  5 10  1  0  0  0  0
  5  6  2  0  0  0  0
  6  7  1  0  0  0  0
  6 11  1  0  0  0  0
  7 12  1  0  0  0  0
  8  7  2  0  0  0  0
 13  8  1  0  0  0  0
 14  9  1  0  0  0  0
M  RAD  3   2   2   3   3   4   2
M  END
