Coordinates from ORCA-job PhN2+~Cl-_B3LYPG-6-31G_dp-CH-Scan-d09-49-n800
 OpenBabel11261919593D

 14 13  0  0  0  0  0  0  0  0999 V2000
   -1.3895   -0.0840   -0.3204 C   0  0  0  0  0  0  0  0  0  0  0  0
   -2.7455   -0.0479   -0.6102 N   0  0  0  0  0  0  0  0  0  0  0  0
   -3.8346    0.0435   -0.8493 N   0  0  0  0  0  0  0  0  0  0  0  0
   -0.7904    1.1877   -0.3326 C   0  0  0  0  0  0  0  0  0  0  0  0
    0.5919    1.0795   -0.0273 C   0  0  0  0  0  0  0  0  0  0  0  0
    1.2261   -0.1302    0.2404 C   0  0  0  0  0  0  0  0  0  0  0  0
    0.5225   -1.3599    0.2248 C   0  0  0  0  0  0  0  0  0  0  0  0
   -0.8239   -1.3625   -0.0610 C   0  0  0  0  0  0  0  0  0  0  0  0
   -2.1123    3.1352   -0.8111 H   0  0  0  0  0  0  0  0  0  0  0  0
    1.1947    1.9866    0.0014 H   0  0  0  0  0  0  0  0  0  0  0  0
    2.2896   -0.1454    0.4706 H   0  0  0  0  0  0  0  0  0  0  0  0
    1.0393   -2.2900    0.4370 H   0  0  0  0  0  0  0  0  0  0  0  0
   -1.4132   -2.2748   -0.0863 H   0  0  0  0  0  0  0  0  0  0  0  0
   -3.0050    4.0558   -1.0893 Cl  0  0  0  0  0  0  0  0  0  0  0  0
  1  8  1  0  0  0  0
  2  1  1  0  0  0  0
  3  2  1  0  0  0  0
  4  1  2  0  0  0  0
  4  5  1  0  0  0  0
  5 10  1  0  0  0  0
  5  6  2  0  0  0  0
  6 11  1  0  0  0  0
  7  6  1  0  0  0  0
  7 12  1  0  0  0  0
  8  7  2  0  0  0  0
 13  8  1  0  0  0  0
 14  9  1  0  0  0  0
M  RAD  3   2   2   3   3   4   2
M  END
