Coordinates from ORCA-job PhN2+~Cl-_B3LYPG-6-31G_dp-CH-Scan-d09-49-n800
 OpenBabel11261919593D

 14 13  0  0  0  0  0  0  0  0999 V2000
   -1.4288   -0.0118   -0.3353 C   0  0  0  0  0  0  0  0  0  0  0  0
   -2.7850    0.0361   -0.6263 N   0  0  0  0  0  0  0  0  0  0  0  0
   -3.8690    0.1586   -0.8676 N   0  0  0  0  0  0  0  0  0  0  0  0
   -0.8105    1.2492   -0.3417 C   0  0  0  0  0  0  0  0  0  0  0  0
    0.5663    1.1476   -0.0387 C   0  0  0  0  0  0  0  0  0  0  0  0
    1.1939   -0.0673    0.2270 C   0  0  0  0  0  0  0  0  0  0  0  0
    0.4835   -1.2906    0.2086 C   0  0  0  0  0  0  0  0  0  0  0  0
   -0.8646   -1.2879   -0.0775 C   0  0  0  0  0  0  0  0  0  0  0  0
   -1.8591    2.6852   -0.7116 H   0  0  0  0  0  0  0  0  0  0  0  0
    1.1658    2.0558   -0.0103 H   0  0  0  0  0  0  0  0  0  0  0  0
    2.2570   -0.0878    0.4568 H   0  0  0  0  0  0  0  0  0  0  0  0
    0.9948   -2.2240    0.4189 H   0  0  0  0  0  0  0  0  0  0  0  0
   -1.4564   -2.1979   -0.1041 H   0  0  0  0  0  0  0  0  0  0  0  0
   -2.8382    3.6285   -1.0116 Cl  0  0  0  0  0  0  0  0  0  0  0  0
  1  8  1  0  0  0  0
  2  1  1  0  0  0  0
  3  2  1  0  0  0  0
  4  1  2  0  0  0  0
  4  5  1  0  0  0  0
  5 10  1  0  0  0  0
  5  6  2  0  0  0  0
  6 11  1  0  0  0  0
  7  6  1  0  0  0  0
  7 12  1  0  0  0  0
  8  7  2  0  0  0  0
 13  8  1  0  0  0  0
 14  9  1  0  0  0  0
M  RAD  3   2   2   3   3   4   2
M  END
