Coordinates from ORCA-job PhN2+~Cl-_B3LYPG-6-31G_dp-CH-Scan-d09-49-n800
 OpenBabel11261919593D

 14 13  0  0  0  0  0  0  0  0999 V2000
   -1.4370    0.0015   -0.3384 C   0  0  0  0  0  0  0  0  0  0  0  0
   -2.7937    0.0590   -0.6308 N   0  0  0  0  0  0  0  0  0  0  0  0
   -3.8718    0.2172   -0.8748 N   0  0  0  0  0  0  0  0  0  0  0  0
   -0.8112    1.2577   -0.3428 C   0  0  0  0  0  0  0  0  0  0  0  0
    0.5631    1.1620   -0.0410 C   0  0  0  0  0  0  0  0  0  0  0  0
    1.1888   -0.0548    0.2245 C   0  0  0  0  0  0  0  0  0  0  0  0
    0.4764   -1.2758    0.2057 C   0  0  0  0  0  0  0  0  0  0  0  0
   -0.8727   -1.2722   -0.0808 C   0  0  0  0  0  0  0  0  0  0  0  0
   -1.7917    2.5729   -0.6859 H   0  0  0  0  0  0  0  0  0  0  0  0
    1.1600    2.0714   -0.0134 H   0  0  0  0  0  0  0  0  0  0  0  0
    2.2516   -0.0767    0.4544 H   0  0  0  0  0  0  0  0  0  0  0  0
    0.9861   -2.2100    0.4159 H   0  0  0  0  0  0  0  0  0  0  0  0
   -1.4648   -2.1819   -0.1073 H   0  0  0  0  0  0  0  0  0  0  0  0
   -2.8333    3.5235   -0.9987 Cl  0  0  0  0  0  0  0  0  0  0  0  0
  1  8  1  0  0  0  0
  2  1  1  0  0  0  0
  3  2  1  0  0  0  0
  4  1  2  0  0  0  0
  4  5  1  0  0  0  0
  5 10  1  0  0  0  0
  5  6  2  0  0  0  0
  6 11  1  0  0  0  0
  7  6  1  0  0  0  0
  7 12  1  0  0  0  0
  8  7  2  0  0  0  0
 13  8  1  0  0  0  0
 14  9  1  0  0  0  0
M  RAD  3   2   2   3   3   4   2
M  END
