Coordinates from ORCA-job PhN2+~Cl-_B3LYPG-6-31G_dp-CH-Scan-d09-49-n800
 OpenBabel11261919593D

 14 13  0  0  0  0  0  0  0  0999 V2000
   -1.4691    0.0776   -0.3529 C   0  0  0  0  0  0  0  0  0  0  0  0
   -2.8460    0.0814   -0.6438 N   0  0  0  0  0  0  0  0  0  0  0  0
   -3.7668    0.7433   -0.9066 N   0  0  0  0  0  0  0  0  0  0  0  0
   -0.7183    1.2591   -0.3223 C   0  0  0  0  0  0  0  0  0  0  0  0
    0.6377    1.1736   -0.0259 C   0  0  0  0  0  0  0  0  0  0  0  0
    1.2246   -0.0697    0.2336 C   0  0  0  0  0  0  0  0  0  0  0  0
    0.4615   -1.2424    0.1986 C   0  0  0  0  0  0  0  0  0  0  0  0
   -0.8954   -1.1765   -0.0962 C   0  0  0  0  0  0  0  0  0  0  0  0
   -1.3242    2.3485   -0.5678 H   0  0  0  0  0  0  0  0  0  0  0  0
    1.2384    2.0767    0.0039 H   0  0  0  0  0  0  0  0  0  0  0  0
    2.2839   -0.1256    0.4665 H   0  0  0  0  0  0  0  0  0  0  0  0
    0.9244   -2.2024    0.4018 H   0  0  0  0  0  0  0  0  0  0  0  0
   -1.5159   -2.0656   -0.1312 H   0  0  0  0  0  0  0  0  0  0  0  0
   -3.4850    2.9156   -1.0711 Cl  0  0  0  0  0  0  0  0  0  0  0  0
  1  4  2  0  0  0  0
  1  8  1  0  0  0  0
  2  1  1  0  0  0  0
  3  2  2  0  0  0  0
  4  5  1  0  0  0  0
  5 10  1  0  0  0  0
  5  6  2  0  0  0  0
  6 11  1  0  0  0  0
  7  6  1  0  0  0  0
  7 12  1  0  0  0  0
  8  7  2  0  0  0  0
  9  4  1  0  0  0  0
 13  8  1  0  0  0  0
M  RAD  2   3   2  14   2
M  END
