Coordinates from ORCA-job PhN2+~Cl-_B3LYPG-6-31G_dp-CH-Scan-d09-49-n800
 OpenBabel11261919593D

 14 13  0  0  0  0  0  0  0  0999 V2000
   -1.4581    0.0461   -0.3458 C   0  0  0  0  0  0  0  0  0  0  0  0
   -2.8351    0.0879   -0.6400 N   0  0  0  0  0  0  0  0  0  0  0  0
   -3.7436    0.7515   -0.9016 N   0  0  0  0  0  0  0  0  0  0  0  0
   -0.7322    1.2385   -0.3208 C   0  0  0  0  0  0  0  0  0  0  0  0
    0.6252    1.1694   -0.0271 C   0  0  0  0  0  0  0  0  0  0  0  0
    1.2213   -0.0703    0.2323 C   0  0  0  0  0  0  0  0  0  0  0  0
    0.4718   -1.2545    0.2011 C   0  0  0  0  0  0  0  0  0  0  0  0
   -0.8862   -1.2086   -0.0907 C   0  0  0  0  0  0  0  0  0  0  0  0
   -1.4882    2.3835   -0.6025 H   0  0  0  0  0  0  0  0  0  0  0  0
    1.2210    2.0762    0.0016 H   0  0  0  0  0  0  0  0  0  0  0  0
    2.2817   -0.1174    0.4634 H   0  0  0  0  0  0  0  0  0  0  0  0
    0.9489   -2.2071    0.4053 H   0  0  0  0  0  0  0  0  0  0  0  0
   -1.4971   -2.1045   -0.1230 H   0  0  0  0  0  0  0  0  0  0  0  0
   -3.3797    3.0029   -1.0655 Cl  0  0  0  0  0  0  0  0  0  0  0  0
  1  4  2  0  0  0  0
  1  8  1  0  0  0  0
  2  1  1  0  0  0  0
  3  2  2  0  0  0  0
  4  5  1  0  0  0  0
  5 10  1  0  0  0  0
  5  6  2  0  0  0  0
  6 11  1  0  0  0  0
  7  6  1  0  0  0  0
  7 12  1  0  0  0  0
  8  7  2  0  0  0  0
  9  4  1  0  0  0  0
 13  8  1  0  0  0  0
M  RAD  2   3   2  14   2
M  END
