Coordinates from ORCA-job PhN2+~Cl-_B3LYPG-6-31G_dp-CH-Scan-d09-49-n800
 OpenBabel11261919593D

 14 13  0  0  0  0  0  0  0  0999 V2000
   -1.4382    0.0050   -0.3387 C   0  0  0  0  0  0  0  0  0  0  0  0
   -2.7961    0.0772   -0.6327 N   0  0  0  0  0  0  0  0  0  0  0  0
   -3.8625    0.2970   -0.8807 N   0  0  0  0  0  0  0  0  0  0  0  0
   -0.8084    1.2576   -0.3416 C   0  0  0  0  0  0  0  0  0  0  0  0
    0.5644    1.1673   -0.0410 C   0  0  0  0  0  0  0  0  0  0  0  0
    1.1887   -0.0510    0.2241 C   0  0  0  0  0  0  0  0  0  0  0  0
    0.4754   -1.2705    0.2046 C   0  0  0  0  0  0  0  0  0  0  0  0
   -0.8748   -1.2667   -0.0819 C   0  0  0  0  0  0  0  0  0  0  0  0
   -1.7615    2.5069   -0.6729 H   0  0  0  0  0  0  0  0  0  0  0  0
    1.1595    2.0776   -0.0136 H   0  0  0  0  0  0  0  0  0  0  0  0
    2.2514   -0.0735    0.4539 H   0  0  0  0  0  0  0  0  0  0  0  0
    0.9845   -2.2050    0.4145 H   0  0  0  0  0  0  0  0  0  0  0  0
   -1.4674   -2.1758   -0.1088 H   0  0  0  0  0  0  0  0  0  0  0  0
   -2.8653    3.4476   -0.9986 Cl  0  0  0  0  0  0  0  0  0  0  0  0
  1  8  1  0  0  0  0
  2  1  1  0  0  0  0
  3  2  1  0  0  0  0
  4  1  2  0  0  0  0
  4  5  1  0  0  0  0
  5 10  1  0  0  0  0
  5  6  2  0  0  0  0
  6 11  1  0  0  0  0
  7  6  1  0  0  0  0
  7 12  1  0  0  0  0
  8  7  2  0  0  0  0
 13  8  1  0  0  0  0
 14  9  1  0  0  0  0
M  RAD  3   2   2   3   3   4   2
M  END
