Coordinates from ORCA-job PhN2+~Cl-_B3LYPG-6-31G_dp-CH-Scan-d09-49-n800
 OpenBabel11261919593D

 14 13  0  0  0  0  0  0  0  0999 V2000
   -1.4629    0.0618   -0.3496 C   0  0  0  0  0  0  0  0  0  0  0  0
   -2.8396    0.0849   -0.6424 N   0  0  0  0  0  0  0  0  0  0  0  0
   -3.7547    0.7477   -0.9044 N   0  0  0  0  0  0  0  0  0  0  0  0
   -0.7221    1.2470   -0.3213 C   0  0  0  0  0  0  0  0  0  0  0  0
    0.6342    1.1705   -0.0261 C   0  0  0  0  0  0  0  0  0  0  0  0
    1.2243   -0.0718    0.2335 C   0  0  0  0  0  0  0  0  0  0  0  0
    0.4669   -1.2494    0.2003 C   0  0  0  0  0  0  0  0  0  0  0  0
   -0.8906   -1.1927   -0.0934 C   0  0  0  0  0  0  0  0  0  0  0  0
   -1.4092    2.3788   -0.5877 H   0  0  0  0  0  0  0  0  0  0  0  0
    1.2327    2.0751    0.0032 H   0  0  0  0  0  0  0  0  0  0  0  0
    2.2840   -0.1242    0.4659 H   0  0  0  0  0  0  0  0  0  0  0  0
    0.9361   -2.2061    0.4043 H   0  0  0  0  0  0  0  0  0  0  0  0
   -1.5067   -2.0849   -0.1271 H   0  0  0  0  0  0  0  0  0  0  0  0
   -3.4426    2.9569   -1.0684 Cl  0  0  0  0  0  0  0  0  0  0  0  0
  1  4  2  0  0  0  0
  1  8  1  0  0  0  0
  2  1  1  0  0  0  0
  3  2  2  0  0  0  0
  4  5  1  0  0  0  0
  5 10  1  0  0  0  0
  5  6  2  0  0  0  0
  6 11  1  0  0  0  0
  7  6  1  0  0  0  0
  7 12  1  0  0  0  0
  8  7  2  0  0  0  0
  9  4  1  0  0  0  0
 13  8  1  0  0  0  0
M  RAD  2   3   2  14   2
M  END
