Coordinates from ORCA-job PhN2+~Cl-_B3LYPG-6-31G_dp-CH-Scan-d09-49-n800
 OpenBabel11261919593D

 14 14  0  0  0  0  0  0  0  0999 V2000
   -1.4791    0.0940   -0.3579 C   0  0  0  0  0  0  0  0  0  0  0  0
   -2.8566    0.0771   -0.6480 N   0  0  0  0  0  0  0  0  0  0  0  0
   -3.7774    0.7466   -0.9101 N   0  0  0  0  0  0  0  0  0  0  0  0
   -0.7264    1.2782   -0.3277 C   0  0  0  0  0  0  0  0  0  0  0  0
    0.6305    1.1826   -0.0291 C   0  0  0  0  0  0  0  0  0  0  0  0
    1.2188   -0.0587    0.2319 C   0  0  0  0  0  0  0  0  0  0  0  0
    0.4541   -1.2290    0.1966 C   0  0  0  0  0  0  0  0  0  0  0  0
   -0.9024   -1.1582   -0.0998 C   0  0  0  0  0  0  0  0  0  0  0  0
   -1.2202    2.2444   -0.5379 H   0  0  0  0  0  0  0  0  0  0  0  0
    1.2313    2.0860    0.0002 H   0  0  0  0  0  0  0  0  0  0  0  0
    2.2778   -0.1141    0.4654 H   0  0  0  0  0  0  0  0  0  0  0  0
    0.9137   -2.1905    0.4002 H   0  0  0  0  0  0  0  0  0  0  0  0
   -1.5246   -2.0458   -0.1353 H   0  0  0  0  0  0  0  0  0  0  0  0
   -3.4898    2.8809   -1.0618 Cl  0  0  0  0  0  0  0  0  0  0  0  0
  1  4  2  0  0  0  0
  1  8  1  0  0  0  0
  2  1  1  0  0  0  0
  3  2  2  0  0  0  0
  4  5  1  0  0  0  0
  5 10  1  0  0  0  0
  5  6  2  0  0  0  0
  6 11  1  0  0  0  0
  7  6  1  0  0  0  0
  7 12  1  0  0  0  0
  8  7  2  0  0  0  0
  9  4  1  0  0  0  0
 13  8  1  0  0  0  0
 14  3  1  0  0  0  0
M  END
