Coordinates from ORCA-job PhN2+~Cl-_B3LYPG-6-31G_dp-CH-Scan-d09-49-n800
 OpenBabel11261919593D

 14 13  0  0  0  0  0  0  0  0999 V2000
   -1.3585   -0.1988   -0.3053 C   0  0  0  0  0  0  0  0  0  0  0  0
   -2.7166   -0.1880   -0.5946 N   0  0  0  0  0  0  0  0  0  0  0  0
   -3.8078   -0.1134   -0.8342 N   0  0  0  0  0  0  0  0  0  0  0  0
   -0.7942    1.0880   -0.3298 C   0  0  0  0  0  0  0  0  0  0  0  0
    0.5933    1.0036   -0.0239 C   0  0  0  0  0  0  0  0  0  0  0  0
    1.2523   -0.1900    0.2523 C   0  0  0  0  0  0  0  0  0  0  0  0
    0.5744   -1.4355    0.2472 C   0  0  0  0  0  0  0  0  0  0  0  0
   -0.7714   -1.4667   -0.0374 C   0  0  0  0  0  0  0  0  0  0  0  0
   -2.3414    3.6608   -0.9098 H   0  0  0  0  0  0  0  0  0  0  0  0
    1.1817    1.9212   -0.0017 H   0  0  0  0  0  0  0  0  0  0  0  0
    2.3164   -0.1823    0.4818 H   0  0  0  0  0  0  0  0  0  0  0  0
    1.1108   -2.3529    0.4661 H   0  0  0  0  0  0  0  0  0  0  0  0
   -1.3436   -2.3904   -0.0555 H   0  0  0  0  0  0  0  0  0  0  0  0
   -3.1457    4.6380   -1.1686 Cl  0  0  0  0  0  0  0  0  0  0  0  0
  1  8  1  0  0  0  0
  2  1  1  0  0  0  0
  3  2  1  0  0  0  0
  4  1  2  0  0  0  0
  4  5  1  0  0  0  0
  5 10  1  0  0  0  0
  5  6  2  0  0  0  0
  6 11  1  0  0  0  0
  7  6  1  0  0  0  0
  7 12  1  0  0  0  0
  8  7  2  0  0  0  0
 13  8  1  0  0  0  0
 14  9  1  0  0  0  0
M  RAD  3   2   2   3   3   4   2
M  END
