Coordinates from ORCA-job PhN2+~Cl-_B3LYPG-6-31G_dp-CH-Scan-d09-49-n800
 OpenBabel11261919593D

 14 13  0  0  0  0  0  0  0  0999 V2000
   -1.4211   -0.0234   -0.3324 C   0  0  0  0  0  0  0  0  0  0  0  0
   -2.7771    0.0215   -0.6230 N   0  0  0  0  0  0  0  0  0  0  0  0
   -3.8629    0.1333   -0.8635 N   0  0  0  0  0  0  0  0  0  0  0  0
   -0.8070    1.2403   -0.3399 C   0  0  0  0  0  0  0  0  0  0  0  0
    0.5713    1.1353   -0.0362 C   0  0  0  0  0  0  0  0  0  0  0  0
    1.1997   -0.0788    0.2294 C   0  0  0  0  0  0  0  0  0  0  0  0
    0.4902   -1.3033    0.2113 C   0  0  0  0  0  0  0  0  0  0  0  0
   -0.8574   -1.3007   -0.0747 C   0  0  0  0  0  0  0  0  0  0  0  0
   -1.9106    2.7698   -0.7311 H   0  0  0  0  0  0  0  0  0  0  0  0
    1.1725    2.0426   -0.0074 H   0  0  0  0  0  0  0  0  0  0  0  0
    2.2628   -0.0988    0.4593 H   0  0  0  0  0  0  0  0  0  0  0  0
    1.0021   -2.2363    0.4217 H   0  0  0  0  0  0  0  0  0  0  0  0
   -1.4493   -2.2108   -0.1013 H   0  0  0  0  0  0  0  0  0  0  0  0
   -2.8635    3.7030   -1.0253 Cl  0  0  0  0  0  0  0  0  0  0  0  0
  1  8  1  0  0  0  0
  2  1  1  0  0  0  0
  3  2  1  0  0  0  0
  4  1  2  0  0  0  0
  4  5  1  0  0  0  0
  5 10  1  0  0  0  0
  5  6  2  0  0  0  0
  6 11  1  0  0  0  0
  7  6  1  0  0  0  0
  7 12  1  0  0  0  0
  8  7  2  0  0  0  0
 13  8  1  0  0  0  0
 14  9  1  0  0  0  0
M  RAD  3   2   2   3   3   4   2
M  END
