Coordinates from ORCA-job PhN2+~Cl-_B3LYPG-6-31G_dp-CH-Scan-d09-49-n800
 OpenBabel11261919593D

 14 13  0  0  0  0  0  0  0  0999 V2000
   -1.4308   -0.0019   -0.3362 C   0  0  0  0  0  0  0  0  0  0  0  0
   -2.8003    0.0995   -0.6356 N   0  0  0  0  0  0  0  0  0  0  0  0
   -3.7872    0.5704   -0.8932 N   0  0  0  0  0  0  0  0  0  0  0  0
   -0.7937    1.2401   -0.3360 C   0  0  0  0  0  0  0  0  0  0  0  0
    0.5765    1.1637   -0.0378 C   0  0  0  0  0  0  0  0  0  0  0  0
    1.1990   -0.0580    0.2269 C   0  0  0  0  0  0  0  0  0  0  0  0
    0.4837   -1.2731    0.2065 C   0  0  0  0  0  0  0  0  0  0  0  0
   -0.8698   -1.2670   -0.0810 C   0  0  0  0  0  0  0  0  0  0  0  0
   -1.7646    2.4365   -0.6662 H   0  0  0  0  0  0  0  0  0  0  0  0
    1.1695    2.0749   -0.0110 H   0  0  0  0  0  0  0  0  0  0  0  0
    2.2614   -0.0813    0.4567 H   0  0  0  0  0  0  0  0  0  0  0  0
    0.9911   -2.2087    0.4161 H   0  0  0  0  0  0  0  0  0  0  0  0
   -1.4638   -2.1750   -0.1084 H   0  0  0  0  0  0  0  0  0  0  0  0
   -3.0213    3.2736   -1.0141 Cl  0  0  0  0  0  0  0  0  0  0  0  0
  1  4  2  0  0  0  0
  1  8  1  0  0  0  0
  2  1  1  0  0  0  0
  3  2  1  0  0  0  0
  4  5  1  0  0  0  0
  5 10  1  0  0  0  0
  5  6  2  0  0  0  0
  6 11  1  0  0  0  0
  7  6  1  0  0  0  0
  7 12  1  0  0  0  0
  8  7  2  0  0  0  0
 13  8  1  0  0  0  0
 14  9  1  0  0  0  0
M  RAD  3   2   2   3   3   4   2
M  END
