Coordinates from ORCA-job PhN2+~Cl-_B3LYPG-6-31G_dp-CH-Scan-d09-49-n800
 OpenBabel11261919593D

 14 13  0  0  0  0  0  0  0  0999 V2000
   -1.3931   -0.0765   -0.3219 C   0  0  0  0  0  0  0  0  0  0  0  0
   -2.7490   -0.0397   -0.6117 N   0  0  0  0  0  0  0  0  0  0  0  0
   -3.8379    0.0527   -0.8509 N   0  0  0  0  0  0  0  0  0  0  0  0
   -0.7923    1.1945   -0.3336 C   0  0  0  0  0  0  0  0  0  0  0  0
    0.5896    1.0860   -0.0284 C   0  0  0  0  0  0  0  0  0  0  0  0
    1.2229   -0.1241    0.2391 C   0  0  0  0  0  0  0  0  0  0  0  0
    0.5186   -1.3532    0.2233 C   0  0  0  0  0  0  0  0  0  0  0  0
   -0.8279   -1.3550   -0.0627 C   0  0  0  0  0  0  0  0  0  0  0  0
   -2.0901    3.0929   -0.8020 H   0  0  0  0  0  0  0  0  0  0  0  0
    1.1925    1.9930    0.0004 H   0  0  0  0  0  0  0  0  0  0  0  0
    2.2865   -0.1400    0.4693 H   0  0  0  0  0  0  0  0  0  0  0  0
    1.0347   -2.2837    0.4353 H   0  0  0  0  0  0  0  0  0  0  0  0
   -1.4176   -2.2670   -0.0881 H   0  0  0  0  0  0  0  0  0  0  0  0
   -2.9872    4.0139   -1.0813 Cl  0  0  0  0  0  0  0  0  0  0  0  0
  1  8  1  0  0  0  0
  2  1  1  0  0  0  0
  3  2  1  0  0  0  0
  4  1  2  0  0  0  0
  4  5  1  0  0  0  0
  5 10  1  0  0  0  0
  5  6  2  0  0  0  0
  6 11  1  0  0  0  0
  7  6  1  0  0  0  0
  7 12  1  0  0  0  0
  8  7  2  0  0  0  0
 13  8  1  0  0  0  0
 14  9  1  0  0  0  0
M  RAD  3   2   2   3   3   4   2
M  END
