Coordinates from ORCA-job PhN2+~Cl-_B3LYPG-6-31G_dp-CH-Scan-d09-49-n800
 OpenBabel11261919593D

 14 13  0  0  0  0  0  0  0  0999 V2000
   -1.3690   -0.1564   -0.3112 C   0  0  0  0  0  0  0  0  0  0  0  0
   -2.7262   -0.1366   -0.6006 N   0  0  0  0  0  0  0  0  0  0  0  0
   -3.8169   -0.0577   -0.8397 N   0  0  0  0  0  0  0  0  0  0  0  0
   -0.7917    1.1251   -0.3315 C   0  0  0  0  0  0  0  0  0  0  0  0
    0.5941    1.0307   -0.0253 C   0  0  0  0  0  0  0  0  0  0  0  0
    1.2433   -0.1690    0.2483 C   0  0  0  0  0  0  0  0  0  0  0  0
    0.5555   -1.4086    0.2395 C   0  0  0  0  0  0  0  0  0  0  0  0
   -0.7905   -1.4287   -0.0459 C   0  0  0  0  0  0  0  0  0  0  0  0
   -2.2631    3.4715   -0.8749 H   0  0  0  0  0  0  0  0  0  0  0  0
    1.1885    1.9440   -0.0006 H   0  0  0  0  0  0  0  0  0  0  0  0
    2.3073   -0.1702    0.4784 H   0  0  0  0  0  0  0  0  0  0  0  0
    1.0843   -2.3308    0.4563 H   0  0  0  0  0  0  0  0  0  0  0  0
   -1.3694   -2.3480   -0.0666 H   0  0  0  0  0  0  0  0  0  0  0  0
   -3.0965    4.4282   -1.1394 Cl  0  0  0  0  0  0  0  0  0  0  0  0
  1  8  1  0  0  0  0
  2  1  1  0  0  0  0
  3  2  1  0  0  0  0
  4  1  2  0  0  0  0
  4  5  1  0  0  0  0
  5 10  1  0  0  0  0
  5  6  2  0  0  0  0
  6 11  1  0  0  0  0
  7  6  1  0  0  0  0
  7 12  1  0  0  0  0
  8  7  2  0  0  0  0
 13  8  1  0  0  0  0
 14  9  1  0  0  0  0
M  RAD  3   2   2   3   3   4   2
M  END
