Coordinates from ORCA-job PhN2+~Cl-_B3LYPG-6-31G_dp-CH-Scan-d09-49-n800
 OpenBabel11261919593D

 14 13  0  0  0  0  0  0  0  0999 V2000
   -1.4281   -0.0129   -0.3350 C   0  0  0  0  0  0  0  0  0  0  0  0
   -2.7843    0.0347   -0.6260 N   0  0  0  0  0  0  0  0  0  0  0  0
   -3.8685    0.1559   -0.8672 N   0  0  0  0  0  0  0  0  0  0  0  0
   -0.8103    1.2485   -0.3415 C   0  0  0  0  0  0  0  0  0  0  0  0
    0.5667    1.1465   -0.0384 C   0  0  0  0  0  0  0  0  0  0  0  0
    1.1944   -0.0683    0.2272 C   0  0  0  0  0  0  0  0  0  0  0  0
    0.4841   -1.2918    0.2088 C   0  0  0  0  0  0  0  0  0  0  0  0
   -0.8639   -1.2890   -0.0773 C   0  0  0  0  0  0  0  0  0  0  0  0
   -1.8639    2.6929   -0.7134 H   0  0  0  0  0  0  0  0  0  0  0  0
    1.1664    2.0546   -0.0100 H   0  0  0  0  0  0  0  0  0  0  0  0
    2.2575   -0.0888    0.4571 H   0  0  0  0  0  0  0  0  0  0  0  0
    0.9954   -2.2251    0.4192 H   0  0  0  0  0  0  0  0  0  0  0  0
   -1.4558   -2.1991   -0.1038 H   0  0  0  0  0  0  0  0  0  0  0  0
   -2.8400    3.6354   -1.0128 Cl  0  0  0  0  0  0  0  0  0  0  0  0
  1  8  1  0  0  0  0
  2  1  1  0  0  0  0
  3  2  1  0  0  0  0
  4  1  2  0  0  0  0
  4  5  1  0  0  0  0
  5 10  1  0  0  0  0
  5  6  2  0  0  0  0
  6 11  1  0  0  0  0
  7  6  1  0  0  0  0
  7 12  1  0  0  0  0
  8  7  2  0  0  0  0
 13  8  1  0  0  0  0
 14  9  1  0  0  0  0
M  RAD  3   2   2   3   3   4   2
M  END
