Coordinates from ORCA-job PhN2+~Cl-_B3LYPG-6-31G_dp-CH-Scan-d09-49-n800
 OpenBabel11261919593D

 14 13  0  0  0  0  0  0  0  0999 V2000
   -1.3451   -0.6010   -0.2663 C   0  0  0  0  0  0  0  0  0  0  0  0
   -2.7021   -0.7549   -0.5418 N   0  0  0  0  0  0  0  0  0  0  0  0
   -3.7976   -0.7962   -0.7731 N   0  0  0  0  0  0  0  0  0  0  0  0
   -0.9553    0.7441   -0.3353 C   0  0  0  0  0  0  0  0  0  0  0  0
    0.4369    0.8397   -0.0430 C   0  0  0  0  0  0  0  0  0  0  0  0
    1.2422   -0.2536    0.2585 C   0  0  0  0  0  0  0  0  0  0  0  0
    0.7257   -1.5746    0.2964 C   0  0  0  0  0  0  0  0  0  0  0  0
   -0.6083   -1.7810    0.0288 C   0  0  0  0  0  0  0  0  0  0  0  0
   -2.6254    5.1410   -1.0981 H   0  0  0  0  0  0  0  0  0  0  0  0
    0.9101    1.8228   -0.0529 H   0  0  0  0  0  0  0  0  0  0  0  0
    2.2994   -0.1067    0.4747 H   0  0  0  0  0  0  0  0  0  0  0  0
    1.3751   -2.4107    0.5344 H   0  0  0  0  0  0  0  0  0  0  0  0
   -1.0623   -2.7685    0.0432 H   0  0  0  0  0  0  0  0  0  0  0  0
   -3.1435    6.2933   -1.3390 Cl  0  0  0  0  0  0  0  0  0  0  0  0
  1  8  1  0  0  0  0
  2  1  1  0  0  0  0
  3  2  1  0  0  0  0
  4  1  2  0  0  0  0
  4  5  1  0  0  0  0
  5  6  2  0  0  0  0
  6  7  1  0  0  0  0
  6 11  1  0  0  0  0
  7 12  1  0  0  0  0
  8 13  1  0  0  0  0
  8  7  2  0  0  0  0
 10  5  1  0  0  0  0
 14  9  1  0  0  0  0
M  RAD  3   2   2   3   3   4   2
M  END
