Coordinates from ORCA-job PhN2+~Cl-_B3LYPG-6-31G_dp-CH-Scan-d09-49-n800
 OpenBabel11261919593D

 14 14  0  0  0  0  0  0  0  0999 V2000
   -1.4888    0.1033   -0.3675 C   0  0  0  0  0  0  0  0  0  0  0  0
   -2.8660    0.0744   -0.6618 N   0  0  0  0  0  0  0  0  0  0  0  0
   -3.7798    0.7610   -0.9167 N   0  0  0  0  0  0  0  0  0  0  0  0
   -0.7418    1.2933   -0.3412 C   0  0  0  0  0  0  0  0  0  0  0  0
    0.6152    1.1953   -0.0375 C   0  0  0  0  0  0  0  0  0  0  0  0
    1.2085   -0.0412    0.2312 C   0  0  0  0  0  0  0  0  0  0  0  0
    0.4469   -1.2131    0.1981 C   0  0  0  0  0  0  0  0  0  0  0  0
   -0.9088   -1.1452   -0.1035 C   0  0  0  0  0  0  0  0  0  0  0  0
   -1.1361    2.0944   -0.5171 H   0  0  0  0  0  0  0  0  0  0  0  0
    1.2127    2.1014   -0.0110 H   0  0  0  0  0  0  0  0  0  0  0  0
    2.2669   -0.0920    0.4680 H   0  0  0  0  0  0  0  0  0  0  0  0
    0.9074   -2.1731    0.4069 H   0  0  0  0  0  0  0  0  0  0  0  0
   -1.5290   -2.0342   -0.1382 H   0  0  0  0  0  0  0  0  0  0  0  0
   -3.4574    2.8695   -1.0229 Cl  0  0  0  0  0  0  0  0  0  0  0  0
  1  4  2  0  0  0  0
  1  8  1  0  0  0  0
  2  1  1  0  0  0  0
  3  2  2  0  0  0  0
  4  5  1  0  0  0  0
  5 10  1  0  0  0  0
  5  6  2  0  0  0  0
  6 11  1  0  0  0  0
  7  6  1  0  0  0  0
  7 12  1  0  0  0  0
  8  7  2  0  0  0  0
  9  4  1  0  0  0  0
 13  8  1  0  0  0  0
 14  3  1  0  0  0  0
M  END
