Coordinates from ORCA-job PhN2+~Cl-_B3LYPG-6-31G_dp-CH-Scan-d09-49-n800
 OpenBabel11261919593D

 14 13  0  0  0  0  0  0  0  0999 V2000
   -1.3343   -0.4708   -0.2764 C   0  0  0  0  0  0  0  0  0  0  0  0
   -2.6954   -0.5538   -0.5594 N   0  0  0  0  0  0  0  0  0  0  0  0
   -3.7904   -0.5399   -0.7961 N   0  0  0  0  0  0  0  0  0  0  0  0
   -0.8753    0.8537   -0.3296 C   0  0  0  0  0  0  0  0  0  0  0  0
    0.5185    0.8745   -0.0300 C   0  0  0  0  0  0  0  0  0  0  0  0
    1.2652   -0.2617    0.2632 C   0  0  0  0  0  0  0  0  0  0  0  0
    0.6815   -1.5547    0.2852 C   0  0  0  0  0  0  0  0  0  0  0  0
   -0.6599   -1.6898    0.0099 C   0  0  0  0  0  0  0  0  0  0  0  0
   -2.6082    4.7300   -1.0653 H   0  0  0  0  0  0  0  0  0  0  0  0
    1.0410    1.8322   -0.0273 H   0  0  0  0  0  0  0  0  0  0  0  0
    2.3274   -0.1716    0.4855 H   0  0  0  0  0  0  0  0  0  0  0  0
    1.2860   -2.4254    0.5175 H   0  0  0  0  0  0  0  0  0  0  0  0
   -1.1640   -2.6527    0.0122 H   0  0  0  0  0  0  0  0  0  0  0  0
   -3.2424    5.8236   -1.3028 Cl  0  0  0  0  0  0  0  0  0  0  0  0
  1  8  1  0  0  0  0
  2  1  1  0  0  0  0
  3  2  1  0  0  0  0
  4  1  2  0  0  0  0
  4  5  1  0  0  0  0
  5 10  1  0  0  0  0
  5  6  2  0  0  0  0
  6  7  1  0  0  0  0
  6 11  1  0  0  0  0
  7 12  1  0  0  0  0
  8 13  1  0  0  0  0
  8  7  2  0  0  0  0
 14  9  1  0  0  0  0
M  RAD  3   2   2   3   3   4   2
M  END
