Coordinates from ORCA-job PhN2+~Cl-_B3LYPG-6-31G_dp-CH-Scan-d09-49-n800
 OpenBabel11261919593D

 14 13  0  0  0  0  0  0  0  0999 V2000
   -1.3431   -0.5844   -0.2683 C   0  0  0  0  0  0  0  0  0  0  0  0
   -2.7008   -0.7284   -0.5452 N   0  0  0  0  0  0  0  0  0  0  0  0
   -3.7964   -0.7619   -0.7776 N   0  0  0  0  0  0  0  0  0  0  0  0
   -0.9431    0.7578   -0.3364 C   0  0  0  0  0  0  0  0  0  0  0  0
    0.4490    0.8436   -0.0427 C   0  0  0  0  0  0  0  0  0  0  0  0
    1.2460   -0.2557    0.2593 C   0  0  0  0  0  0  0  0  0  0  0  0
    0.7200   -1.5730    0.2964 C   0  0  0  0  0  0  0  0  0  0  0  0
   -0.6152   -1.7698    0.0273 C   0  0  0  0  0  0  0  0  0  0  0  0
   -2.6265    5.0907   -1.0940 H   0  0  0  0  0  0  0  0  0  0  0  0
    0.9297    1.8230   -0.0517 H   0  0  0  0  0  0  0  0  0  0  0  0
    2.3040   -0.1166    0.4767 H   0  0  0  0  0  0  0  0  0  0  0  0
    1.3631   -2.4138    0.5349 H   0  0  0  0  0  0  0  0  0  0  0  0
   -1.0764   -2.7540    0.0410 H   0  0  0  0  0  0  0  0  0  0  0  0
   -3.1607    6.2361   -1.3329 Cl  0  0  0  0  0  0  0  0  0  0  0  0
  1  8  1  0  0  0  0
  2  1  1  0  0  0  0
  3  2  1  0  0  0  0
  4  1  2  0  0  0  0
  4  5  1  0  0  0  0
  5  6  2  0  0  0  0
  6  7  1  0  0  0  0
  6 11  1  0  0  0  0
  7 12  1  0  0  0  0
  8 13  1  0  0  0  0
  8  7  2  0  0  0  0
 10  5  1  0  0  0  0
 14  9  1  0  0  0  0
M  RAD  3   2   2   3   3   4   2
M  END
