Coordinates from ORCA-job PhN2+~Cl-_B3LYPG-6-31G_dp-CH-Scan-d09-49-n800
 OpenBabel11261919593D

 14 13  0  0  0  0  0  0  0  0999 V2000
   -1.3744   -0.1301   -0.3139 C   0  0  0  0  0  0  0  0  0  0  0  0
   -2.7309   -0.1036   -0.6034 N   0  0  0  0  0  0  0  0  0  0  0  0
   -3.8212   -0.0215   -0.8425 N   0  0  0  0  0  0  0  0  0  0  0  0
   -0.7881    1.1476   -0.3308 C   0  0  0  0  0  0  0  0  0  0  0  0
    0.5965    1.0461   -0.0249 C   0  0  0  0  0  0  0  0  0  0  0  0
    1.2391   -0.1579    0.2462 C   0  0  0  0  0  0  0  0  0  0  0  0
    0.5443   -1.3933    0.2344 C   0  0  0  0  0  0  0  0  0  0  0  0
   -0.8018   -1.4055   -0.0512 C   0  0  0  0  0  0  0  0  0  0  0  0
   -2.2183    3.3613   -0.8555 H   0  0  0  0  0  0  0  0  0  0  0  0
    1.1951    1.9564    0.0017 H   0  0  0  0  0  0  0  0  0  0  0  0
    2.3029   -0.1653    0.4763 H   0  0  0  0  0  0  0  0  0  0  0  0
    1.0678   -2.3191    0.4492 H   0  0  0  0  0  0  0  0  0  0  0  0
   -1.3855   -2.3216   -0.0740 H   0  0  0  0  0  0  0  0  0  0  0  0
   -3.0757    4.3002   -1.1249 Cl  0  0  0  0  0  0  0  0  0  0  0  0
  1  8  1  0  0  0  0
  2  1  1  0  0  0  0
  3  2  1  0  0  0  0
  4  1  2  0  0  0  0
  4  5  1  0  0  0  0
  5 10  1  0  0  0  0
  5  6  2  0  0  0  0
  6 11  1  0  0  0  0
  7  6  1  0  0  0  0
  7 12  1  0  0  0  0
  8  7  2  0  0  0  0
 13  8  1  0  0  0  0
 14  9  1  0  0  0  0
M  RAD  3   2   2   3   3   4   2
M  END
