Coordinates from ORCA-job PhN2+~Cl-_B3LYPG-6-31G_dp-CH-Scan-d09-49-n800
 OpenBabel11261919593D

 14 13  0  0  0  0  0  0  0  0999 V2000
   -1.3348   -0.5175   -0.2737 C   0  0  0  0  0  0  0  0  0  0  0  0
   -2.6951   -0.6220   -0.5551 N   0  0  0  0  0  0  0  0  0  0  0  0
   -3.7905   -0.6240   -0.7907 N   0  0  0  0  0  0  0  0  0  0  0  0
   -0.8966    0.8133   -0.3344 C   0  0  0  0  0  0  0  0  0  0  0  0
    0.4969    0.8577   -0.0362 C   0  0  0  0  0  0  0  0  0  0  0  0
    1.2612   -0.2652    0.2629 C   0  0  0  0  0  0  0  0  0  0  0  0
    0.6977   -1.5670    0.2923 C   0  0  0  0  0  0  0  0  0  0  0  0
   -0.6416   -1.7244    0.0185 C   0  0  0  0  0  0  0  0  0  0  0  0
   -2.6316    4.8918   -1.0804 H   0  0  0  0  0  0  0  0  0  0  0  0
    1.0046    1.8234   -0.0393 H   0  0  0  0  0  0  0  0  0  0  0  0
    2.3220   -0.1574    0.4841 H   0  0  0  0  0  0  0  0  0  0  0  0
    1.3158   -2.4268    0.5289 H   0  0  0  0  0  0  0  0  0  0  0  0
   -1.1307   -2.6951    0.0263 H   0  0  0  0  0  0  0  0  0  0  0  0
   -3.2277    6.0069   -1.3165 Cl  0  0  0  0  0  0  0  0  0  0  0  0
  1  8  1  0  0  0  0
  2  1  1  0  0  0  0
  3  2  1  0  0  0  0
  4  1  2  0  0  0  0
  4  5  1  0  0  0  0
  5  6  2  0  0  0  0
  6  7  1  0  0  0  0
  6 11  1  0  0  0  0
  7 12  1  0  0  0  0
  8 13  1  0  0  0  0
  8  7  2  0  0  0  0
 10  5  1  0  0  0  0
 14  9  1  0  0  0  0
M  RAD  3   2   2   3   3   4   2
M  END
