Coordinates from ORCA-job PhN2+~Cl-_B3LYPG-6-31G_dp-CH-Scan-d09-49-n800
 OpenBabel11261919593D

 14 13  0  0  0  0  0  0  0  0999 V2000
   -1.3360   -0.3591   -0.2896 C   0  0  0  0  0  0  0  0  0  0  0  0
   -2.6969   -0.3955   -0.5780 N   0  0  0  0  0  0  0  0  0  0  0  0
   -3.7900   -0.3477   -0.8185 N   0  0  0  0  0  0  0  0  0  0  0  0
   -0.8281    0.9486   -0.3347 C   0  0  0  0  0  0  0  0  0  0  0  0
    0.5640    0.9186   -0.0298 C   0  0  0  0  0  0  0  0  0  0  0  0
    1.2684   -0.2449    0.2616 C   0  0  0  0  0  0  0  0  0  0  0  0
    0.6388   -1.5161    0.2756 C   0  0  0  0  0  0  0  0  0  0  0  0
   -0.7053   -1.6021   -0.0058 C   0  0  0  0  0  0  0  0  0  0  0  0
   -2.5376    4.3186   -1.0100 H   0  0  0  0  0  0  0  0  0  0  0  0
    1.1198    1.8571   -0.0209 H   0  0  0  0  0  0  0  0  0  0  0  0
    2.3321   -0.1938    0.4886 H   0  0  0  0  0  0  0  0  0  0  0  0
    1.2107   -2.4089    0.5063 H   0  0  0  0  0  0  0  0  0  0  0  0
   -1.2433   -2.5465   -0.0099 H   0  0  0  0  0  0  0  0  0  0  0  0
   -3.2469    5.3654   -1.2483 Cl  0  0  0  0  0  0  0  0  0  0  0  0
  1  8  1  0  0  0  0
  2  1  1  0  0  0  0
  3  2  1  0  0  0  0
  4  1  2  0  0  0  0
  4  5  1  0  0  0  0
  5 10  1  0  0  0  0
  5  6  2  0  0  0  0
  6  7  1  0  0  0  0
  6 11  1  0  0  0  0
  7 12  1  0  0  0  0
  8  7  2  0  0  0  0
 13  8  1  0  0  0  0
 14  9  1  0  0  0  0
M  RAD  3   2   2   3   3   4   2
M  END
