Coordinates from ORCA-job PhN2+~Cl-_B3LYPG-6-31G_dp-CH-Scan-d09-49-n800
 OpenBabel11261919593D

 14 13  0  0  0  0  0  0  0  0999 V2000
   -1.4368    0.0011   -0.3383 C   0  0  0  0  0  0  0  0  0  0  0  0
   -2.7935    0.0579   -0.6306 N   0  0  0  0  0  0  0  0  0  0  0  0
   -3.8720    0.2138   -0.8745 N   0  0  0  0  0  0  0  0  0  0  0  0
   -0.8113    1.2575   -0.3428 C   0  0  0  0  0  0  0  0  0  0  0  0
    0.5631    1.1615   -0.0410 C   0  0  0  0  0  0  0  0  0  0  0  0
    1.1889   -0.0552    0.2246 C   0  0  0  0  0  0  0  0  0  0  0  0
    0.4766   -1.2763    0.2058 C   0  0  0  0  0  0  0  0  0  0  0  0
   -0.8724   -1.2728   -0.0807 C   0  0  0  0  0  0  0  0  0  0  0  0
   -1.7941    2.5771   -0.6868 H   0  0  0  0  0  0  0  0  0  0  0  0
    1.1601    2.0709   -0.0133 H   0  0  0  0  0  0  0  0  0  0  0  0
    2.2517   -0.0770    0.4545 H   0  0  0  0  0  0  0  0  0  0  0  0
    0.9863   -2.2104    0.4160 H   0  0  0  0  0  0  0  0  0  0  0  0
   -1.4645   -2.1825   -0.1072 H   0  0  0  0  0  0  0  0  0  0  0  0
   -2.8323    3.5280   -0.9989 Cl  0  0  0  0  0  0  0  0  0  0  0  0
  1  8  1  0  0  0  0
  2  1  1  0  0  0  0
  3  2  1  0  0  0  0
  4  1  2  0  0  0  0
  4  5  1  0  0  0  0
  5 10  1  0  0  0  0
  5  6  2  0  0  0  0
  6 11  1  0  0  0  0
  7  6  1  0  0  0  0
  7 12  1  0  0  0  0
  8  7  2  0  0  0  0
 13  8  1  0  0  0  0
 14  9  1  0  0  0  0
M  RAD  3   2   2   3   3   4   2
M  END
