Coordinates from ORCA-job PhN2+~Cl-_B3LYPG-6-31G_dp-CH-Scan-d09-49-n800
 OpenBabel11261919593D

 14 13  0  0  0  0  0  0  0  0999 V2000
   -1.3441   -0.3001   -0.2950 C   0  0  0  0  0  0  0  0  0  0  0  0
   -2.7043   -0.3189   -0.5836 N   0  0  0  0  0  0  0  0  0  0  0  0
   -3.7968   -0.2609   -0.8237 N   0  0  0  0  0  0  0  0  0  0  0  0
   -0.8161    1.0005   -0.3324 C   0  0  0  0  0  0  0  0  0  0  0  0
    0.5748    0.9500   -0.0272 C   0  0  0  0  0  0  0  0  0  0  0  0
    1.2628   -0.2248    0.2582 C   0  0  0  0  0  0  0  0  0  0  0  0
    0.6154   -1.4869    0.2649 C   0  0  0  0  0  0  0  0  0  0  0  0
   -0.7296   -1.5527   -0.0175 C   0  0  0  0  0  0  0  0  0  0  0  0
   -2.4717    4.0725   -0.9746 H   0  0  0  0  0  0  0  0  0  0  0  0
    1.1429    1.8809   -0.0132 H   0  0  0  0  0  0  0  0  0  0  0  0
    2.3268   -0.1897    0.4860 H   0  0  0  0  0  0  0  0  0  0  0  0
    1.1745   -2.3890    0.4910 H   0  0  0  0  0  0  0  0  0  0  0  0
   -1.2802   -2.4896   -0.0270 H   0  0  0  0  0  0  0  0  0  0  0  0
   -3.2048    5.1024   -1.2192 Cl  0  0  0  0  0  0  0  0  0  0  0  0
  1  8  1  0  0  0  0
  2  1  1  0  0  0  0
  3  2  1  0  0  0  0
  4  1  2  0  0  0  0
  4  5  1  0  0  0  0
  5 10  1  0  0  0  0
  5  6  2  0  0  0  0
  6  7  1  0  0  0  0
  6 11  1  0  0  0  0
  7 12  1  0  0  0  0
  8  7  2  0  0  0  0
 13  8  1  0  0  0  0
 14  9  1  0  0  0  0
M  RAD  3   2   2   3   3   4   2
M  END
