Coordinates from ORCA-job PhN2+~Cl-_B3LYPG-6-31G_dp-CH-Scan-d09-49-n800
 OpenBabel11261919593D

 14 13  0  0  0  0  0  0  0  0999 V2000
   -1.3337   -0.3909   -0.2871 C   0  0  0  0  0  0  0  0  0  0  0  0
   -2.6944   -0.4406   -0.5756 N   0  0  0  0  0  0  0  0  0  0  0  0
   -3.7888   -0.3995   -0.8112 N   0  0  0  0  0  0  0  0  0  0  0  0
   -0.8390    0.9221   -0.3357 C   0  0  0  0  0  0  0  0  0  0  0  0
    0.5548    0.9035   -0.0306 C   0  0  0  0  0  0  0  0  0  0  0  0
    1.2695   -0.2530    0.2630 C   0  0  0  0  0  0  0  0  0  0  0  0
    0.6512   -1.5294    0.2801 C   0  0  0  0  0  0  0  0  0  0  0  0
   -0.6920   -1.6277   -0.0006 C   0  0  0  0  0  0  0  0  0  0  0  0
   -2.5648    4.4454   -1.0277 H   0  0  0  0  0  0  0  0  0  0  0  0
    1.1029    1.8464   -0.0239 H   0  0  0  0  0  0  0  0  0  0  0  0
    2.3328   -0.1921    0.4896 H   0  0  0  0  0  0  0  0  0  0  0  0
    1.2310   -2.4167    0.5127 H   0  0  0  0  0  0  0  0  0  0  0  0
   -1.2215   -2.5769   -0.0024 H   0  0  0  0  0  0  0  0  0  0  0  0
   -3.2583    5.5030   -1.2637 Cl  0  0  0  0  0  0  0  0  0  0  0  0
  1  8  1  0  0  0  0
  2  1  1  0  0  0  0
  3  2  1  0  0  0  0
  4  1  2  0  0  0  0
  4  5  1  0  0  0  0
  5 10  1  0  0  0  0
  5  6  2  0  0  0  0
  6  7  1  0  0  0  0
  6 11  1  0  0  0  0
  7 12  1  0  0  0  0
  8  7  2  0  0  0  0
 13  8  1  0  0  0  0
 14  9  1  0  0  0  0
M  RAD  3   2   2   3   3   4   2
M  END
