Coordinates from ORCA-job PhN2+~Cl-_B3LYPG-6-31G_dp-CH-Scan-d09-49-n800
 OpenBabel11261919593D

 14 13  0  0  0  0  0  0  0  0999 V2000
   -1.4575    0.0444   -0.3454 C   0  0  0  0  0  0  0  0  0  0  0  0
   -2.8346    0.0882   -0.6398 N   0  0  0  0  0  0  0  0  0  0  0  0
   -3.7425    0.7516   -0.9014 N   0  0  0  0  0  0  0  0  0  0  0  0
   -0.7335    1.2377   -0.3209 C   0  0  0  0  0  0  0  0  0  0  0  0
    0.6241    1.1693   -0.0273 C   0  0  0  0  0  0  0  0  0  0  0  0
    1.2209   -0.0700    0.2321 C   0  0  0  0  0  0  0  0  0  0  0  0
    0.4723   -1.2549    0.2012 C   0  0  0  0  0  0  0  0  0  0  0  0
   -0.8858   -1.2103   -0.0904 C   0  0  0  0  0  0  0  0  0  0  0  0
   -1.4968    2.3836   -0.6042 H   0  0  0  0  0  0  0  0  0  0  0  0
    1.2195    2.0763    0.0013 H   0  0  0  0  0  0  0  0  0  0  0  0
    2.2813   -0.1165    0.4632 H   0  0  0  0  0  0  0  0  0  0  0  0
    0.9503   -2.2072    0.4055 H   0  0  0  0  0  0  0  0  0  0  0  0
   -1.4960   -2.1067   -0.1225 H   0  0  0  0  0  0  0  0  0  0  0  0
   -3.3718    3.0082   -1.0648 Cl  0  0  0  0  0  0  0  0  0  0  0  0
  1  4  2  0  0  0  0
  1  8  1  0  0  0  0
  2  1  1  0  0  0  0
  3  2  2  0  0  0  0
  4  5  1  0  0  0  0
  5 10  1  0  0  0  0
  5  6  2  0  0  0  0
  6 11  1  0  0  0  0
  7  6  1  0  0  0  0
  7 12  1  0  0  0  0
  8  7  2  0  0  0  0
  9  4  1  0  0  0  0
 13  8  1  0  0  0  0
M  RAD  2   3   2  14   2
M  END
