Coordinates from ORCA-job PhN2+~Cl-_B3LYPG-6-31G_dp-CH-Scan-d09-49-n800
 OpenBabel11261919593D

 14 13  0  0  0  0  0  0  0  0999 V2000
   -1.4385    0.0038   -0.3389 C   0  0  0  0  0  0  0  0  0  0  0  0
   -2.7953    0.0647   -0.6316 N   0  0  0  0  0  0  0  0  0  0  0  0
   -3.8712    0.2356   -0.8765 N   0  0  0  0  0  0  0  0  0  0  0  0
   -0.8108    1.2586   -0.3427 C   0  0  0  0  0  0  0  0  0  0  0  0
    0.5629    1.1647   -0.0413 C   0  0  0  0  0  0  0  0  0  0  0  0
    1.1881   -0.0526    0.2241 C   0  0  0  0  0  0  0  0  0  0  0  0
    0.4752   -1.2730    0.2051 C   0  0  0  0  0  0  0  0  0  0  0  0
   -0.8742   -1.2693   -0.0814 C   0  0  0  0  0  0  0  0  0  0  0  0
   -1.7770    2.5477   -0.6802 H   0  0  0  0  0  0  0  0  0  0  0  0
    1.1591    2.0745   -0.0138 H   0  0  0  0  0  0  0  0  0  0  0  0
    2.2508   -0.0748    0.4540 H   0  0  0  0  0  0  0  0  0  0  0  0
    0.9846   -2.2073    0.4152 H   0  0  0  0  0  0  0  0  0  0  0  0
   -1.4664   -2.1788   -0.1080 H   0  0  0  0  0  0  0  0  0  0  0  0
   -2.8377    3.4995   -0.9973 Cl  0  0  0  0  0  0  0  0  0  0  0  0
  1  8  1  0  0  0  0
  2  1  1  0  0  0  0
  3  2  1  0  0  0  0
  4  1  2  0  0  0  0
  4  5  1  0  0  0  0
  5 10  1  0  0  0  0
  5  6  2  0  0  0  0
  6 11  1  0  0  0  0
  7  6  1  0  0  0  0
  7 12  1  0  0  0  0
  8  7  2  0  0  0  0
 13  8  1  0  0  0  0
 14  9  1  0  0  0  0
M  RAD  3   2   2   3   3   4   2
M  END
