Coordinates from ORCA-job PhN2+~Cl-_B3LYPG-6-31G_dp-CH-Scan-d09-49-n800
 OpenBabel11261919593D

 14 13  0  0  0  0  0  0  0  0999 V2000
   -1.3348   -0.5039   -0.2743 C   0  0  0  0  0  0  0  0  0  0  0  0
   -2.6954   -0.6018   -0.5561 N   0  0  0  0  0  0  0  0  0  0  0  0
   -3.7907   -0.5988   -0.7918 N   0  0  0  0  0  0  0  0  0  0  0  0
   -0.8906    0.8252   -0.3325 C   0  0  0  0  0  0  0  0  0  0  0  0
    0.5031    0.8628   -0.0340 C   0  0  0  0  0  0  0  0  0  0  0  0
    1.2624   -0.2640    0.2631 C   0  0  0  0  0  0  0  0  0  0  0  0
    0.6930   -1.5633    0.2899 C   0  0  0  0  0  0  0  0  0  0  0  0
   -0.6469   -1.7143    0.0157 C   0  0  0  0  0  0  0  0  0  0  0  0
   -2.6247    4.8436   -1.0761 H   0  0  0  0  0  0  0  0  0  0  0  0
    1.0151    1.8262   -0.0352 H   0  0  0  0  0  0  0  0  0  0  0  0
    2.3236   -0.1615    0.4846 H   0  0  0  0  0  0  0  0  0  0  0  0
    1.3073   -2.4264    0.5249 H   0  0  0  0  0  0  0  0  0  0  0  0
   -1.1403   -2.6829    0.0216 H   0  0  0  0  0  0  0  0  0  0  0  0
   -3.2315    5.9528   -1.3131 Cl  0  0  0  0  0  0  0  0  0  0  0  0
  1  8  1  0  0  0  0
  2  1  1  0  0  0  0
  3  2  1  0  0  0  0
  4  1  2  0  0  0  0
  4  5  1  0  0  0  0
  5  6  2  0  0  0  0
  6  7  1  0  0  0  0
  6 11  1  0  0  0  0
  7 12  1  0  0  0  0
  8 13  1  0  0  0  0
  8  7  2  0  0  0  0
 10  5  1  0  0  0  0
 14  9  1  0  0  0  0
M  RAD  3   2   2   3   3   4   2
M  END
