Coordinates from ORCA-job PhN2+~Cl-_B3LYPG-6-31G_dp-CH-Scan-d09-49-n800
 OpenBabel11261919593D

 14 13  0  0  0  0  0  0  0  0999 V2000
   -1.3383   -0.3367   -0.2916 C   0  0  0  0  0  0  0  0  0  0  0  0
   -2.6989   -0.3656   -0.5803 N   0  0  0  0  0  0  0  0  0  0  0  0
   -3.7917   -0.3130   -0.8208 N   0  0  0  0  0  0  0  0  0  0  0  0
   -0.8221    0.9681   -0.3339 C   0  0  0  0  0  0  0  0  0  0  0  0
    0.5695    0.9296   -0.0287 C   0  0  0  0  0  0  0  0  0  0  0  0
    1.2671   -0.2385    0.2606 C   0  0  0  0  0  0  0  0  0  0  0  0
    0.6301   -1.5060    0.2719 C   0  0  0  0  0  0  0  0  0  0  0  0
   -0.7144   -1.5837   -0.0100 C   0  0  0  0  0  0  0  0  0  0  0  0
   -2.5163    4.2283   -0.9975 H   0  0  0  0  0  0  0  0  0  0  0  0
    1.1305    1.8649   -0.0179 H   0  0  0  0  0  0  0  0  0  0  0  0
    2.3309   -0.1940    0.4880 H   0  0  0  0  0  0  0  0  0  0  0  0
    1.1967   -2.4026    0.5010 H   0  0  0  0  0  0  0  0  0  0  0  0
   -1.2577   -2.5250   -0.0162 H   0  0  0  0  0  0  0  0  0  0  0  0
   -3.2356    5.2680   -1.2380 Cl  0  0  0  0  0  0  0  0  0  0  0  0
  1  8  1  0  0  0  0
  2  1  1  0  0  0  0
  3  2  1  0  0  0  0
  4  1  2  0  0  0  0
  4  5  1  0  0  0  0
  5 10  1  0  0  0  0
  5  6  2  0  0  0  0
  6  7  1  0  0  0  0
  6 11  1  0  0  0  0
  7 12  1  0  0  0  0
  8  7  2  0  0  0  0
 13  8  1  0  0  0  0
 14  9  1  0  0  0  0
M  RAD  3   2   2   3   3   4   2
M  END
