Coordinates from ORCA-job PhN2+~Cl-_B3LYPG-6-31G_dp-CH-Scan-d09-49-n800
 OpenBabel11261919593D

 14 13  0  0  0  0  0  0  0  0999 V2000
   -1.4074   -0.0460   -0.3277 C   0  0  0  0  0  0  0  0  0  0  0  0
   -2.7632   -0.0048   -0.6181 N   0  0  0  0  0  0  0  0  0  0  0  0
   -3.8508    0.0956   -0.8580 N   0  0  0  0  0  0  0  0  0  0  0  0
   -0.7991    1.2210   -0.3373 C   0  0  0  0  0  0  0  0  0  0  0  0
    0.5810    1.1126   -0.0326 C   0  0  0  0  0  0  0  0  0  0  0  0
    1.2108   -0.1001    0.2340 C   0  0  0  0  0  0  0  0  0  0  0  0
    0.5028   -1.3263    0.2169 C   0  0  0  0  0  0  0  0  0  0  0  0
   -0.8442   -1.3246   -0.0692 C   0  0  0  0  0  0  0  0  0  0  0  0
   -1.9973    2.9189   -0.7644 H   0  0  0  0  0  0  0  0  0  0  0  0
    1.1841    2.0190   -0.0037 H   0  0  0  0  0  0  0  0  0  0  0  0
    2.2741   -0.1190    0.4641 H   0  0  0  0  0  0  0  0  0  0  0  0
    1.0159   -2.2585    0.4281 H   0  0  0  0  0  0  0  0  0  0  0  0
   -1.4358   -2.2351   -0.0954 H   0  0  0  0  0  0  0  0  0  0  0  0
   -2.9210    3.8408   -1.0499 Cl  0  0  0  0  0  0  0  0  0  0  0  0
  1  8  1  0  0  0  0
  2  1  1  0  0  0  0
  3  2  1  0  0  0  0
  4  1  2  0  0  0  0
  4  5  1  0  0  0  0
  5 10  1  0  0  0  0
  5  6  2  0  0  0  0
  6 11  1  0  0  0  0
  7  6  1  0  0  0  0
  7 12  1  0  0  0  0
  8  7  2  0  0  0  0
 13  8  1  0  0  0  0
 14  9  1  0  0  0  0
M  RAD  3   2   2   3   3   4   2
M  END
