Coordinates from ORCA-job PhN2+~Cl-_B3LYPG-6-31G_dp-CH-Scan-d09-49-n800
 OpenBabel11261919593D

 14 13  0  0  0  0  0  0  0  0999 V2000
   -1.3414   -0.3156   -0.2935 C   0  0  0  0  0  0  0  0  0  0  0  0
   -2.7018   -0.3385   -0.5822 N   0  0  0  0  0  0  0  0  0  0  0  0
   -3.7944   -0.2825   -0.8225 N   0  0  0  0  0  0  0  0  0  0  0  0
   -0.8182    0.9867   -0.3330 C   0  0  0  0  0  0  0  0  0  0  0  0
    0.5729    0.9411   -0.0278 C   0  0  0  0  0  0  0  0  0  0  0  0
    1.2648   -0.2310    0.2593 C   0  0  0  0  0  0  0  0  0  0  0  0
    0.6217   -1.4953    0.2679 C   0  0  0  0  0  0  0  0  0  0  0  0
   -0.7231   -1.5660   -0.0143 C   0  0  0  0  0  0  0  0  0  0  0  0
   -2.4918    4.1394   -0.9846 H   0  0  0  0  0  0  0  0  0  0  0  0
    1.1382    1.8738   -0.0151 H   0  0  0  0  0  0  0  0  0  0  0  0
    2.3288   -0.1920    0.4870 H   0  0  0  0  0  0  0  0  0  0  0  0
    1.1839   -2.3951    0.4953 H   0  0  0  0  0  0  0  0  0  0  0  0
   -1.2708   -2.5047   -0.0224 H   0  0  0  0  0  0  0  0  0  0  0  0
   -3.2192    5.1735   -1.2274 Cl  0  0  0  0  0  0  0  0  0  0  0  0
  1  8  1  0  0  0  0
  2  1  1  0  0  0  0
  3  2  1  0  0  0  0
  4  1  2  0  0  0  0
  4  5  1  0  0  0  0
  5 10  1  0  0  0  0
  5  6  2  0  0  0  0
  6  7  1  0  0  0  0
  6 11  1  0  0  0  0
  7 12  1  0  0  0  0
  8  7  2  0  0  0  0
 13  8  1  0  0  0  0
 14  9  1  0  0  0  0
M  RAD  3   2   2   3   3   4   2
M  END
