Coordinates from ORCA-job PhN2+~Cl-_B3LYPG-6-31G_dp-CH-Scan-d09-49-n800
 OpenBabel11261919593D

 14 13  0  0  0  0  0  0  0  0999 V2000
   -1.3686   -0.1582   -0.3112 C   0  0  0  0  0  0  0  0  0  0  0  0
   -2.7257   -0.1388   -0.6012 N   0  0  0  0  0  0  0  0  0  0  0  0
   -3.8170   -0.0602   -0.8377 N   0  0  0  0  0  0  0  0  0  0  0  0
   -0.7917    1.1233   -0.3314 C   0  0  0  0  0  0  0  0  0  0  0  0
    0.5940    1.0296   -0.0251 C   0  0  0  0  0  0  0  0  0  0  0  0
    1.2437   -0.1698    0.2486 C   0  0  0  0  0  0  0  0  0  0  0  0
    0.5563   -1.4097    0.2397 C   0  0  0  0  0  0  0  0  0  0  0  0
   -0.7896   -1.4303   -0.0459 C   0  0  0  0  0  0  0  0  0  0  0  0
   -2.2663    3.4794   -0.8767 H   0  0  0  0  0  0  0  0  0  0  0  0
    1.1880    1.9432   -0.0004 H   0  0  0  0  0  0  0  0  0  0  0  0
    2.3076   -0.1705    0.4789 H   0  0  0  0  0  0  0  0  0  0  0  0
    1.0854   -2.3317    0.4567 H   0  0  0  0  0  0  0  0  0  0  0  0
   -1.3682   -2.3498   -0.0667 H   0  0  0  0  0  0  0  0  0  0  0  0
   -3.0982    4.4372   -1.1409 Cl  0  0  0  0  0  0  0  0  0  0  0  0
  1  8  1  0  0  0  0
  2  1  1  0  0  0  0
  3  2  1  0  0  0  0
  4  1  2  0  0  0  0
  4  5  1  0  0  0  0
  5 10  1  0  0  0  0
  5  6  2  0  0  0  0
  6 11  1  0  0  0  0
  7  6  1  0  0  0  0
  7 12  1  0  0  0  0
  8  7  2  0  0  0  0
 13  8  1  0  0  0  0
 14  9  1  0  0  0  0
M  RAD  3   2   2   3   3   4   2
M  END
