Coordinates from ORCA-job PhN2+~Cl-_B3LYPG-6-31G_dp-CH-Scan-d09-49-n800
 OpenBabel11261919593D

 14 13  0  0  0  0  0  0  0  0999 V2000
   -1.3336   -0.3973   -0.2858 C   0  0  0  0  0  0  0  0  0  0  0  0
   -2.6948   -0.4473   -0.5734 N   0  0  0  0  0  0  0  0  0  0  0  0
   -3.7885   -0.4083   -0.8132 N   0  0  0  0  0  0  0  0  0  0  0  0
   -0.8406    0.9154   -0.3350 C   0  0  0  0  0  0  0  0  0  0  0  0
    0.5519    0.9016   -0.0310 C   0  0  0  0  0  0  0  0  0  0  0  0
    1.2692   -0.2534    0.2627 C   0  0  0  0  0  0  0  0  0  0  0  0
    0.6535   -1.5314    0.2807 C   0  0  0  0  0  0  0  0  0  0  0  0
   -0.6899   -1.6328    0.0007 C   0  0  0  0  0  0  0  0  0  0  0  0
   -2.5675    4.4659   -1.0300 H   0  0  0  0  0  0  0  0  0  0  0  0
    1.0977    1.8461   -0.0251 H   0  0  0  0  0  0  0  0  0  0  0  0
    2.3325   -0.1902    0.4887 H   0  0  0  0  0  0  0  0  0  0  0  0
    1.2353   -2.4173    0.5134 H   0  0  0  0  0  0  0  0  0  0  0  0
   -1.2177   -2.5830   -0.0003 H   0  0  0  0  0  0  0  0  0  0  0  0
   -3.2577    5.5256   -1.2658 Cl  0  0  0  0  0  0  0  0  0  0  0  0
  1  8  1  0  0  0  0
  2  1  1  0  0  0  0
  3  2  1  0  0  0  0
  4  1  2  0  0  0  0
  4  5  1  0  0  0  0
  5 10  1  0  0  0  0
  5  6  2  0  0  0  0
  6  7  1  0  0  0  0
  6 11  1  0  0  0  0
  7 12  1  0  0  0  0
  8  7  2  0  0  0  0
 13  8  1  0  0  0  0
 14  9  1  0  0  0  0
M  RAD  3   2   2   3   3   4   2
M  END
