Coordinates from ORCA-job PhN2+~Cl-_B3LYPG-6-31G_dp-CH-Scan-d09-49-n800
 OpenBabel11261919593D

 14 13  0  0  0  0  0  0  0  0999 V2000
   -1.3347   -0.4871   -0.2746 C   0  0  0  0  0  0  0  0  0  0  0  0
   -2.6956   -0.5777   -0.5564 N   0  0  0  0  0  0  0  0  0  0  0  0
   -3.7910   -0.5693   -0.7916 N   0  0  0  0  0  0  0  0  0  0  0  0
   -0.8833    0.8399   -0.3287 C   0  0  0  0  0  0  0  0  0  0  0  0
    0.5106    0.8688   -0.0302 C   0  0  0  0  0  0  0  0  0  0  0  0
    1.2639   -0.2630    0.2633 C   0  0  0  0  0  0  0  0  0  0  0  0
    0.6876   -1.5593    0.2863 C   0  0  0  0  0  0  0  0  0  0  0  0
   -0.6532   -1.7021    0.0117 C   0  0  0  0  0  0  0  0  0  0  0  0
   -2.6169    4.7866   -1.0722 H   0  0  0  0  0  0  0  0  0  0  0  0
    1.0277    1.8295   -0.0283 H   0  0  0  0  0  0  0  0  0  0  0  0
    2.3256   -0.1667    0.4851 H   0  0  0  0  0  0  0  0  0  0  0  0
    1.2972   -2.4264    0.5185 H   0  0  0  0  0  0  0  0  0  0  0  0
   -1.1518   -2.6680    0.0146 H   0  0  0  0  0  0  0  0  0  0  0  0
   -3.2364    5.8884   -1.3108 Cl  0  0  0  0  0  0  0  0  0  0  0  0
  1  8  1  0  0  0  0
  2  1  1  0  0  0  0
  3  2  1  0  0  0  0
  4  1  2  0  0  0  0
  4  5  1  0  0  0  0
  5 10  1  0  0  0  0
  5  6  2  0  0  0  0
  6  7  1  0  0  0  0
  6 11  1  0  0  0  0
  7 12  1  0  0  0  0
  8 13  1  0  0  0  0
  8  7  2  0  0  0  0
 14  9  1  0  0  0  0
M  RAD  3   2   2   3   3   4   2
M  END
