Coordinates from ORCA-job PhN2+~Cl-_B3LYPG-6-31G_dp-CH-Scan-d09-49-n800
 OpenBabel11261919593D

 14 13  0  0  0  0  0  0  0  0999 V2000
   -1.4382    0.0035   -0.3388 C   0  0  0  0  0  0  0  0  0  0  0  0
   -2.7950    0.0641   -0.6315 N   0  0  0  0  0  0  0  0  0  0  0  0
   -3.8711    0.2335   -0.8763 N   0  0  0  0  0  0  0  0  0  0  0  0
   -0.8107    1.2585   -0.3427 C   0  0  0  0  0  0  0  0  0  0  0  0
    0.5631    1.1643   -0.0412 C   0  0  0  0  0  0  0  0  0  0  0  0
    1.1883   -0.0530    0.2242 C   0  0  0  0  0  0  0  0  0  0  0  0
    0.4754   -1.2734    0.2052 C   0  0  0  0  0  0  0  0  0  0  0  0
   -0.8739   -1.2697   -0.0813 C   0  0  0  0  0  0  0  0  0  0  0  0
   -1.7795    2.5517   -0.6812 H   0  0  0  0  0  0  0  0  0  0  0  0
    1.1595    2.0740   -0.0137 H   0  0  0  0  0  0  0  0  0  0  0  0
    2.2510   -0.0752    0.4541 H   0  0  0  0  0  0  0  0  0  0  0  0
    0.9848   -2.2078    0.4153 H   0  0  0  0  0  0  0  0  0  0  0  0
   -1.4662   -2.1792   -0.1079 H   0  0  0  0  0  0  0  0  0  0  0  0
   -2.8377    3.5024   -0.9976 Cl  0  0  0  0  0  0  0  0  0  0  0  0
  1  8  1  0  0  0  0
  2  1  1  0  0  0  0
  3  2  1  0  0  0  0
  4  1  2  0  0  0  0
  4  5  1  0  0  0  0
  5 10  1  0  0  0  0
  5  6  2  0  0  0  0
  6 11  1  0  0  0  0
  7  6  1  0  0  0  0
  7 12  1  0  0  0  0
  8  7  2  0  0  0  0
 13  8  1  0  0  0  0
 14  9  1  0  0  0  0
M  RAD  3   2   2   3   3   4   2
M  END
