Coordinates from ORCA-job PhN2+~Cl-_B3LYPG-6-31G_dp-CH-Scan-d09-49-n800
 OpenBabel11261919593D

 14 13  0  0  0  0  0  0  0  0999 V2000
   -1.3503   -0.2726   -0.2979 C   0  0  0  0  0  0  0  0  0  0  0  0
   -2.7099   -0.2854   -0.5864 N   0  0  0  0  0  0  0  0  0  0  0  0
   -3.8023   -0.2249   -0.8259 N   0  0  0  0  0  0  0  0  0  0  0  0
   -0.8142    1.0252   -0.3319 C   0  0  0  0  0  0  0  0  0  0  0  0
    0.5761    0.9672   -0.0268 C   0  0  0  0  0  0  0  0  0  0  0  0
    1.2579   -0.2118    0.2558 C   0  0  0  0  0  0  0  0  0  0  0  0
    0.6040   -1.4705    0.2594 C   0  0  0  0  0  0  0  0  0  0  0  0
   -0.7413   -1.5287   -0.0233 C   0  0  0  0  0  0  0  0  0  0  0  0
   -2.4298    3.9490   -0.9547 H   0  0  0  0  0  0  0  0  0  0  0  0
    1.1485    1.8952   -0.0107 H   0  0  0  0  0  0  0  0  0  0  0  0
    2.3221   -0.1827    0.4839 H   0  0  0  0  0  0  0  0  0  0  0  0
    1.1582   -2.3760    0.4833 H   0  0  0  0  0  0  0  0  0  0  0  0
   -1.2966   -2.4628   -0.0351 H   0  0  0  0  0  0  0  0  0  0  0  0
   -3.1725    4.9722   -1.2028 Cl  0  0  0  0  0  0  0  0  0  0  0  0
  1  8  1  0  0  0  0
  2  1  1  0  0  0  0
  3  2  1  0  0  0  0
  4  1  2  0  0  0  0
  4  5  1  0  0  0  0
  5 10  1  0  0  0  0
  5  6  2  0  0  0  0
  6  7  1  0  0  0  0
  6 11  1  0  0  0  0
  7 12  1  0  0  0  0
  8  7  2  0  0  0  0
 13  8  1  0  0  0  0
 14  9  1  0  0  0  0
M  RAD  3   2   2   3   3   4   2
M  END
