Coordinates from ORCA-job PhN2+~Cl-_B3LYPG-6-31G_dp-CH-Scan-d09-49-n800
 OpenBabel11261919593D

 14 13  0  0  0  0  0  0  0  0999 V2000
   -1.3597   -0.1895   -0.3069 C   0  0  0  0  0  0  0  0  0  0  0  0
   -2.7176   -0.1758   -0.5966 N   0  0  0  0  0  0  0  0  0  0  0  0
   -3.8086   -0.0997   -0.8365 N   0  0  0  0  0  0  0  0  0  0  0  0
   -0.7918    1.0956   -0.3309 C   0  0  0  0  0  0  0  0  0  0  0  0
    0.5952    1.0085   -0.0246 C   0  0  0  0  0  0  0  0  0  0  0  0
    1.2512   -0.1867    0.2518 C   0  0  0  0  0  0  0  0  0  0  0  0
    0.5704   -1.4305    0.2463 C   0  0  0  0  0  0  0  0  0  0  0  0
   -0.7755   -1.4587   -0.0388 C   0  0  0  0  0  0  0  0  0  0  0  0
   -2.3285    3.6230   -0.9029 H   0  0  0  0  0  0  0  0  0  0  0  0
    1.1854    1.9248   -0.0022 H   0  0  0  0  0  0  0  0  0  0  0  0
    2.3152   -0.1815    0.4817 H   0  0  0  0  0  0  0  0  0  0  0  0
    1.1045   -2.3492    0.4653 H   0  0  0  0  0  0  0  0  0  0  0  0
   -1.3497   -2.3810   -0.0573 H   0  0  0  0  0  0  0  0  0  0  0  0
   -3.1409    4.5943   -1.1618 Cl  0  0  0  0  0  0  0  0  0  0  0  0
  1  8  1  0  0  0  0
  2  1  1  0  0  0  0
  3  2  1  0  0  0  0
  4  1  2  0  0  0  0
  4  5  1  0  0  0  0
  5 10  1  0  0  0  0
  5  6  2  0  0  0  0
  6 11  1  0  0  0  0
  7  6  1  0  0  0  0
  7 12  1  0  0  0  0
  8  7  2  0  0  0  0
 13  8  1  0  0  0  0
 14  9  1  0  0  0  0
M  RAD  3   2   2   3   3   4   2
M  END
