Coordinates from ORCA-job PhN2+~Cl-_B3LYPG-6-31G_dp-CH-Scan-d09-49-n800
 OpenBabel11261919593D

 14 13  0  0  0  0  0  0  0  0999 V2000
   -1.3348   -0.5275   -0.2730 C   0  0  0  0  0  0  0  0  0  0  0  0
   -2.6949   -0.6365   -0.5541 N   0  0  0  0  0  0  0  0  0  0  0  0
   -3.7903   -0.6421   -0.7896 N   0  0  0  0  0  0  0  0  0  0  0  0
   -0.9011    0.8048   -0.3352 C   0  0  0  0  0  0  0  0  0  0  0  0
    0.4923    0.8540   -0.0373 C   0  0  0  0  0  0  0  0  0  0  0  0
    1.2604   -0.2660    0.2629 C   0  0  0  0  0  0  0  0  0  0  0  0
    0.7011   -1.5696    0.2937 C   0  0  0  0  0  0  0  0  0  0  0  0
   -0.6377   -1.7318    0.0203 C   0  0  0  0  0  0  0  0  0  0  0  0
   -2.6369    4.9266   -1.0834 H   0  0  0  0  0  0  0  0  0  0  0  0
    0.9968    1.8214   -0.0415 H   0  0  0  0  0  0  0  0  0  0  0  0
    2.3209   -0.1545    0.4837 H   0  0  0  0  0  0  0  0  0  0  0  0
    1.3221   -2.4272    0.5310 H   0  0  0  0  0  0  0  0  0  0  0  0
   -1.1236   -2.7041    0.0292 H   0  0  0  0  0  0  0  0  0  0  0  0
   -3.2245    6.0460   -1.3199 Cl  0  0  0  0  0  0  0  0  0  0  0  0
  1  8  1  0  0  0  0
  2  1  1  0  0  0  0
  3  2  1  0  0  0  0
  4  1  2  0  0  0  0
  4  5  1  0  0  0  0
  5  6  2  0  0  0  0
  6  7  1  0  0  0  0
  6 11  1  0  0  0  0
  7 12  1  0  0  0  0
  8 13  1  0  0  0  0
  8  7  2  0  0  0  0
 10  5  1  0  0  0  0
 14  9  1  0  0  0  0
M  RAD  3   2   2   3   3   4   2
M  END
