Coordinates from ORCA-job PhN2+~Cl-_B3LYPG-6-31G_dp-CH-Scan-d09-49-n800
 OpenBabel11261919593D

 14 13  0  0  0  0  0  0  0  0999 V2000
   -1.3677   -0.1619   -0.3105 C   0  0  0  0  0  0  0  0  0  0  0  0
   -2.7249   -0.1433   -0.6001 N   0  0  0  0  0  0  0  0  0  0  0  0
   -3.8156   -0.0652   -0.8398 N   0  0  0  0  0  0  0  0  0  0  0  0
   -0.7920    1.1204   -0.3315 C   0  0  0  0  0  0  0  0  0  0  0  0
    0.5939    1.0272   -0.0255 C   0  0  0  0  0  0  0  0  0  0  0  0
    1.2445   -0.1717    0.2488 C   0  0  0  0  0  0  0  0  0  0  0  0
    0.5579   -1.4120    0.2407 C   0  0  0  0  0  0  0  0  0  0  0  0
   -0.7881   -1.4336   -0.0446 C   0  0  0  0  0  0  0  0  0  0  0  0
   -2.2731    3.4958   -0.8791 H   0  0  0  0  0  0  0  0  0  0  0  0
    1.1876    1.9411   -0.0013 H   0  0  0  0  0  0  0  0  0  0  0  0
    2.3084   -0.1716    0.4787 H   0  0  0  0  0  0  0  0  0  0  0  0
    1.0876   -2.3336    0.4580 H   0  0  0  0  0  0  0  0  0  0  0  0
   -1.3661   -2.3534   -0.0648 H   0  0  0  0  0  0  0  0  0  0  0  0
   -3.1027    4.4553   -1.1424 Cl  0  0  0  0  0  0  0  0  0  0  0  0
  1  8  1  0  0  0  0
  2  1  1  0  0  0  0
  3  2  1  0  0  0  0
  4  1  2  0  0  0  0
  4  5  1  0  0  0  0
  5 10  1  0  0  0  0
  5  6  2  0  0  0  0
  6 11  1  0  0  0  0
  7  6  1  0  0  0  0
  7 12  1  0  0  0  0
  8  7  2  0  0  0  0
 13  8  1  0  0  0  0
 14  9  1  0  0  0  0
M  RAD  3   2   2   3   3   4   2
M  END
