Coordinates from ORCA-job PhN2+~Cl-_B3LYPG-6-31G_dp-CH-Scan-d09-49-n800
 OpenBabel11261919593D

 14 13  0  0  0  0  0  0  0  0999 V2000
   -1.3928   -0.0772   -0.3218 C   0  0  0  0  0  0  0  0  0  0  0  0
   -2.7487   -0.0405   -0.6115 N   0  0  0  0  0  0  0  0  0  0  0  0
   -3.8376    0.0518   -0.8508 N   0  0  0  0  0  0  0  0  0  0  0  0
   -0.7922    1.1938   -0.3335 C   0  0  0  0  0  0  0  0  0  0  0  0
    0.5898    1.0854   -0.0283 C   0  0  0  0  0  0  0  0  0  0  0  0
    1.2232   -0.1247    0.2393 C   0  0  0  0  0  0  0  0  0  0  0  0
    0.5190   -1.3538    0.2234 C   0  0  0  0  0  0  0  0  0  0  0  0
   -0.8276   -1.3557   -0.0625 C   0  0  0  0  0  0  0  0  0  0  0  0
   -2.0921    3.0967   -0.8029 H   0  0  0  0  0  0  0  0  0  0  0  0
    1.1927    1.9924    0.0005 H   0  0  0  0  0  0  0  0  0  0  0  0
    2.2867   -0.1405    0.4694 H   0  0  0  0  0  0  0  0  0  0  0  0
    1.0351   -2.2843    0.4354 H   0  0  0  0  0  0  0  0  0  0  0  0
   -1.4172   -2.2677   -0.0880 H   0  0  0  0  0  0  0  0  0  0  0  0
   -2.9887    4.0177   -1.0821 Cl  0  0  0  0  0  0  0  0  0  0  0  0
  1  8  1  0  0  0  0
  2  1  1  0  0  0  0
  3  2  1  0  0  0  0
  4  1  2  0  0  0  0
  4  5  1  0  0  0  0
  5 10  1  0  0  0  0
  5  6  2  0  0  0  0
  6 11  1  0  0  0  0
  7  6  1  0  0  0  0
  7 12  1  0  0  0  0
  8  7  2  0  0  0  0
 13  8  1  0  0  0  0
 14  9  1  0  0  0  0
M  RAD  3   2   2   3   3   4   2
M  END
