Coordinates from ORCA-job PhN2+~Cl-_B3LYPG-6-31G_dp-CH-Scan-d09-49-n800
 OpenBabel11261919593D

 14 13  0  0  0  0  0  0  0  0999 V2000
   -1.3377   -0.3408   -0.2912 C   0  0  0  0  0  0  0  0  0  0  0  0
   -2.6984   -0.3710   -0.5799 N   0  0  0  0  0  0  0  0  0  0  0  0
   -3.7913   -0.3192   -0.8204 N   0  0  0  0  0  0  0  0  0  0  0  0
   -0.8231    0.9644   -0.3341 C   0  0  0  0  0  0  0  0  0  0  0  0
    0.5686    0.9274   -0.0289 C   0  0  0  0  0  0  0  0  0  0  0  0
    1.2674   -0.2399    0.2608 C   0  0  0  0  0  0  0  0  0  0  0  0
    0.6317   -1.5080    0.2726 C   0  0  0  0  0  0  0  0  0  0  0  0
   -0.7127   -1.5871   -0.0092 C   0  0  0  0  0  0  0  0  0  0  0  0
   -2.5206    4.2453   -0.9999 H   0  0  0  0  0  0  0  0  0  0  0  0
    1.1287    1.8633   -0.0185 H   0  0  0  0  0  0  0  0  0  0  0  0
    2.3312   -0.1942    0.4882 H   0  0  0  0  0  0  0  0  0  0  0  0
    1.1992   -2.4039    0.5021 H   0  0  0  0  0  0  0  0  0  0  0  0
   -1.2551   -2.5290   -0.0150 H   0  0  0  0  0  0  0  0  0  0  0  0
   -3.2383    5.2863   -1.2399 Cl  0  0  0  0  0  0  0  0  0  0  0  0
  1  8  1  0  0  0  0
  2  1  1  0  0  0  0
  3  2  1  0  0  0  0
  4  1  2  0  0  0  0
  4  5  1  0  0  0  0
  5 10  1  0  0  0  0
  5  6  2  0  0  0  0
  6  7  1  0  0  0  0
  6 11  1  0  0  0  0
  7 12  1  0  0  0  0
  8  7  2  0  0  0  0
 13  8  1  0  0  0  0
 14  9  1  0  0  0  0
M  RAD  3   2   2   3   3   4   2
M  END
