Coordinates from ORCA-job PhN2+~Cl-_B3LYPG-6-31G_dp-CH-Scan-d09-49-n800
 OpenBabel11261919593D

 14 13  0  0  0  0  0  0  0  0999 V2000
   -1.3747   -0.1281   -0.3141 C   0  0  0  0  0  0  0  0  0  0  0  0
   -2.7312   -0.1008   -0.6037 N   0  0  0  0  0  0  0  0  0  0  0  0
   -3.8214   -0.0181   -0.8428 N   0  0  0  0  0  0  0  0  0  0  0  0
   -0.7876    1.1493   -0.3308 C   0  0  0  0  0  0  0  0  0  0  0  0
    0.5969    1.0472   -0.0249 C   0  0  0  0  0  0  0  0  0  0  0  0
    1.2388   -0.1572    0.2460 C   0  0  0  0  0  0  0  0  0  0  0  0
    0.5434   -1.3922    0.2340 C   0  0  0  0  0  0  0  0  0  0  0  0
   -0.8027   -1.4037   -0.0516 C   0  0  0  0  0  0  0  0  0  0  0  0
   -2.2151    3.3529   -0.8540 H   0  0  0  0  0  0  0  0  0  0  0  0
    1.1958    1.9573    0.0019 H   0  0  0  0  0  0  0  0  0  0  0  0
    2.3026   -0.1652    0.4762 H   0  0  0  0  0  0  0  0  0  0  0  0
    1.0664   -2.3183    0.4487 H   0  0  0  0  0  0  0  0  0  0  0  0
   -1.3868   -2.3195   -0.0745 H   0  0  0  0  0  0  0  0  0  0  0  0
   -3.0749    4.2900   -1.1238 Cl  0  0  0  0  0  0  0  0  0  0  0  0
  1  8  1  0  0  0  0
  2  1  1  0  0  0  0
  3  2  1  0  0  0  0
  4  1  2  0  0  0  0
  4  5  1  0  0  0  0
  5 10  1  0  0  0  0
  5  6  2  0  0  0  0
  6 11  1  0  0  0  0
  7  6  1  0  0  0  0
  7 12  1  0  0  0  0
  8  7  2  0  0  0  0
 13  8  1  0  0  0  0
 14  9  1  0  0  0  0
M  RAD  3   2   2   3   3   4   2
M  END
