Coordinates from ORCA-job PhN2+~Cl-_B3LYPG-6-31G_dp-CH-Scan-d09-49-n800
 OpenBabel11261919593D

 14 13  0  0  0  0  0  0  0  0999 V2000
   -1.4503    0.0264   -0.3423 C   0  0  0  0  0  0  0  0  0  0  0  0
   -2.8279    0.0914   -0.6391 N   0  0  0  0  0  0  0  0  0  0  0  0
   -3.7343    0.7446   -0.8991 N   0  0  0  0  0  0  0  0  0  0  0  0
   -0.7499    1.2321   -0.3242 C   0  0  0  0  0  0  0  0  0  0  0  0
    0.6102    1.1683   -0.0303 C   0  0  0  0  0  0  0  0  0  0  0  0
    1.2151   -0.0665    0.2307 C   0  0  0  0  0  0  0  0  0  0  0  0
    0.4773   -1.2603    0.2030 C   0  0  0  0  0  0  0  0  0  0  0  0
   -0.8805   -1.2291   -0.0873 C   0  0  0  0  0  0  0  0  0  0  0  0
   -1.5903    2.3822   -0.6241 H   0  0  0  0  0  0  0  0  0  0  0  0
    1.2031    2.0775   -0.0027 H   0  0  0  0  0  0  0  0  0  0  0  0
    2.2762   -0.1053    0.4614 H   0  0  0  0  0  0  0  0  0  0  0  0
    0.9651   -2.2071    0.4090 H   0  0  0  0  0  0  0  0  0  0  0  0
   -1.4846   -2.1300   -0.1177 H   0  0  0  0  0  0  0  0  0  0  0  0
   -3.2796    3.0695   -1.0506 Cl  0  0  0  0  0  0  0  0  0  0  0  0
  1  4  2  0  0  0  0
  1  8  1  0  0  0  0
  2  1  1  0  0  0  0
  3  2  2  0  0  0  0
  4  5  1  0  0  0  0
  5 10  1  0  0  0  0
  5  6  2  0  0  0  0
  6 11  1  0  0  0  0
  7  6  1  0  0  0  0
  7 12  1  0  0  0  0
  8  7  2  0  0  0  0
  9  4  1  0  0  0  0
 13  8  1  0  0  0  0
M  RAD  2   3   2  14   2
M  END
