Coordinates from ORCA-job PhN2+~Cl-_B3LYPG-6-31G_dp-CH-Scan-d09-49-n800
 OpenBabel11261919593D

 14 13  0  0  0  0  0  0  0  0999 V2000
   -1.3338   -0.3851   -0.2871 C   0  0  0  0  0  0  0  0  0  0  0  0
   -2.6949   -0.4306   -0.5749 N   0  0  0  0  0  0  0  0  0  0  0  0
   -3.7883   -0.3889   -0.8152 N   0  0  0  0  0  0  0  0  0  0  0  0
   -0.8356    0.9260   -0.3351 C   0  0  0  0  0  0  0  0  0  0  0  0
    0.5568    0.9062   -0.0307 C   0  0  0  0  0  0  0  0  0  0  0  0
    1.2695   -0.2517    0.2626 C   0  0  0  0  0  0  0  0  0  0  0  0
    0.6489   -1.5273    0.2794 C   0  0  0  0  0  0  0  0  0  0  0  0
   -0.6948   -1.6232   -0.0011 C   0  0  0  0  0  0  0  0  0  0  0  0
   -2.5607    4.4219   -1.0243 H   0  0  0  0  0  0  0  0  0  0  0  0
    1.1062    1.8486   -0.0239 H   0  0  0  0  0  0  0  0  0  0  0  0
    2.3330   -0.1927    0.4890 H   0  0  0  0  0  0  0  0  0  0  0  0
    1.2272   -2.4156    0.5117 H   0  0  0  0  0  0  0  0  0  0  0  0
   -1.2262   -2.5714   -0.0030 H   0  0  0  0  0  0  0  0  0  0  0  0
   -3.2575    5.4773   -1.2606 Cl  0  0  0  0  0  0  0  0  0  0  0  0
  1  8  1  0  0  0  0
  2  1  1  0  0  0  0
  3  2  1  0  0  0  0
  4  1  2  0  0  0  0
  4  5  1  0  0  0  0
  5 10  1  0  0  0  0
  5  6  2  0  0  0  0
  6  7  1  0  0  0  0
  6 11  1  0  0  0  0
  7 12  1  0  0  0  0
  8  7  2  0  0  0  0
 13  8  1  0  0  0  0
 14  9  1  0  0  0  0
M  RAD  3   2   2   3   3   4   2
M  END
