Coordinates from ORCA-job PhN2+~Cl-_B3LYPG-6-31G_dp-CH-Scan-d09-49-n800
 OpenBabel11261919593D

 14 13  0  0  0  0  0  0  0  0999 V2000
   -1.3337   -0.4083   -0.2846 C   0  0  0  0  0  0  0  0  0  0  0  0
   -2.6949   -0.4636   -0.5715 N   0  0  0  0  0  0  0  0  0  0  0  0
   -3.7887   -0.4286   -0.8110 N   0  0  0  0  0  0  0  0  0  0  0  0
   -0.8458    0.9064   -0.3348 C   0  0  0  0  0  0  0  0  0  0  0  0
    0.5471    0.8974   -0.0312 C   0  0  0  0  0  0  0  0  0  0  0  0
    1.2687   -0.2548    0.2628 C   0  0  0  0  0  0  0  0  0  0  0  0
    0.6577   -1.5350    0.2817 C   0  0  0  0  0  0  0  0  0  0  0  0
   -0.6855   -1.6413    0.0023 C   0  0  0  0  0  0  0  0  0  0  0  0
   -2.5731    4.5064   -1.0352 H   0  0  0  0  0  0  0  0  0  0  0  0
    1.0895    1.8438   -0.0260 H   0  0  0  0  0  0  0  0  0  0  0  0
    2.3318   -0.1875    0.4883 H   0  0  0  0  0  0  0  0  0  0  0  0
    1.2428   -2.4186    0.5146 H   0  0  0  0  0  0  0  0  0  0  0  0
   -1.2098   -2.5934    0.0020 H   0  0  0  0  0  0  0  0  0  0  0  0
   -3.2563    5.5707   -1.2708 Cl  0  0  0  0  0  0  0  0  0  0  0  0
  1  8  1  0  0  0  0
  2  1  1  0  0  0  0
  3  2  1  0  0  0  0
  4  1  2  0  0  0  0
  4  5  1  0  0  0  0
  5 10  1  0  0  0  0
  5  6  2  0  0  0  0
  6  7  1  0  0  0  0
  6 11  1  0  0  0  0
  7 12  1  0  0  0  0
  8  7  2  0  0  0  0
 13  8  1  0  0  0  0
 14  9  1  0  0  0  0
M  RAD  3   2   2   3   3   4   2
M  END
