Coordinates from ORCA-job PhN2+~Cl-_B3LYPG-6-31G_dp-CH-Scan-d09-49-n800
 OpenBabel11261919593D

 14 13  0  0  0  0  0  0  0  0999 V2000
   -1.4200   -0.0250   -0.3320 C   0  0  0  0  0  0  0  0  0  0  0  0
   -2.7760    0.0197   -0.6226 N   0  0  0  0  0  0  0  0  0  0  0  0
   -3.8619    0.1305   -0.8630 N   0  0  0  0  0  0  0  0  0  0  0  0
   -0.8063    1.2389   -0.3397 C   0  0  0  0  0  0  0  0  0  0  0  0
    0.5721    1.1336   -0.0359 C   0  0  0  0  0  0  0  0  0  0  0  0
    1.2006   -0.0805    0.2298 C   0  0  0  0  0  0  0  0  0  0  0  0
    0.4911   -1.3051    0.2117 C   0  0  0  0  0  0  0  0  0  0  0  0
   -0.8564   -1.3024   -0.0743 C   0  0  0  0  0  0  0  0  0  0  0  0
   -1.9175    2.7811   -0.7337 H   0  0  0  0  0  0  0  0  0  0  0  0
    1.1736    2.0407   -0.0071 H   0  0  0  0  0  0  0  0  0  0  0  0
    2.2638   -0.1005    0.4597 H   0  0  0  0  0  0  0  0  0  0  0  0
    1.0031   -2.2381    0.4221 H   0  0  0  0  0  0  0  0  0  0  0  0
   -1.4484   -2.2126   -0.1009 H   0  0  0  0  0  0  0  0  0  0  0  0
   -2.8680    3.7131   -1.0273 Cl  0  0  0  0  0  0  0  0  0  0  0  0
  1  8  1  0  0  0  0
  2  1  1  0  0  0  0
  3  2  1  0  0  0  0
  4  1  2  0  0  0  0
  4  5  1  0  0  0  0
  5 10  1  0  0  0  0
  5  6  2  0  0  0  0
  6 11  1  0  0  0  0
  7  6  1  0  0  0  0
  7 12  1  0  0  0  0
  8  7  2  0  0  0  0
 13  8  1  0  0  0  0
 14  9  1  0  0  0  0
M  RAD  3   2   2   3   3   4   2
M  END
