Coordinates from ORCA-job PhN2+~Cl-_B3LYPG-6-31G_dp-CH-Scan-d09-49-n800
 OpenBabel11261919593D

 14 13  0  0  0  0  0  0  0  0999 V2000
   -1.3495   -0.2751   -0.2976 C   0  0  0  0  0  0  0  0  0  0  0  0
   -2.7092   -0.2882   -0.5860 N   0  0  0  0  0  0  0  0  0  0  0  0
   -3.8016   -0.2277   -0.8258 N   0  0  0  0  0  0  0  0  0  0  0  0
   -0.8140    1.0229   -0.3318 C   0  0  0  0  0  0  0  0  0  0  0  0
    0.5763    0.9654   -0.0268 C   0  0  0  0  0  0  0  0  0  0  0  0
    1.2585   -0.2133    0.2561 C   0  0  0  0  0  0  0  0  0  0  0  0
    0.6051   -1.4722    0.2599 C   0  0  0  0  0  0  0  0  0  0  0  0
   -0.7402   -1.5309   -0.0227 C   0  0  0  0  0  0  0  0  0  0  0  0
   -2.4346    3.9610   -0.9568 H   0  0  0  0  0  0  0  0  0  0  0  0
    1.1484    1.8936   -0.0108 H   0  0  0  0  0  0  0  0  0  0  0  0
    2.3227   -0.1838    0.4841 H   0  0  0  0  0  0  0  0  0  0  0  0
    1.1597   -2.3775    0.4840 H   0  0  0  0  0  0  0  0  0  0  0  0
   -1.2952   -2.4652   -0.0344 H   0  0  0  0  0  0  0  0  0  0  0  0
   -3.1766    4.9847   -1.2046 Cl  0  0  0  0  0  0  0  0  0  0  0  0
  1  8  1  0  0  0  0
  2  1  1  0  0  0  0
  3  2  1  0  0  0  0
  4  1  2  0  0  0  0
  4  5  1  0  0  0  0
  5 10  1  0  0  0  0
  5  6  2  0  0  0  0
  6  7  1  0  0  0  0
  6 11  1  0  0  0  0
  7 12  1  0  0  0  0
  8  7  2  0  0  0  0
 13  8  1  0  0  0  0
 14  9  1  0  0  0  0
M  RAD  3   2   2   3   3   4   2
M  END
