Coordinates from ORCA-job PhN2+~Cl-_B3LYPG-6-31G_dp-CH-Scan-d09-49-n800
 OpenBabel11261919593D

 14 13  0  0  0  0  0  0  0  0999 V2000
   -1.3449   -0.2963   -0.2953 C   0  0  0  0  0  0  0  0  0  0  0  0
   -2.7050   -0.3142   -0.5840 N   0  0  0  0  0  0  0  0  0  0  0  0
   -3.7974   -0.2556   -0.8240 N   0  0  0  0  0  0  0  0  0  0  0  0
   -0.8156    1.0039   -0.3323 C   0  0  0  0  0  0  0  0  0  0  0  0
    0.5752    0.9522   -0.0271 C   0  0  0  0  0  0  0  0  0  0  0  0
    1.2622   -0.2232    0.2579 C   0  0  0  0  0  0  0  0  0  0  0  0
    0.6139   -1.4848    0.2641 C   0  0  0  0  0  0  0  0  0  0  0  0
   -0.7312   -1.5494   -0.0183 C   0  0  0  0  0  0  0  0  0  0  0  0
   -2.4665    4.0558   -0.9720 H   0  0  0  0  0  0  0  0  0  0  0  0
    1.1439    1.8827   -0.0128 H   0  0  0  0  0  0  0  0  0  0  0  0
    2.3263   -0.1890    0.4858 H   0  0  0  0  0  0  0  0  0  0  0  0
    1.1723   -2.3874    0.4899 H   0  0  0  0  0  0  0  0  0  0  0  0
   -1.2825   -2.4859   -0.0282 H   0  0  0  0  0  0  0  0  0  0  0  0
   -3.2010    5.0847   -1.2171 Cl  0  0  0  0  0  0  0  0  0  0  0  0
  1  8  1  0  0  0  0
  2  1  1  0  0  0  0
  3  2  1  0  0  0  0
  4  1  2  0  0  0  0
  4  5  1  0  0  0  0
  5 10  1  0  0  0  0
  5  6  2  0  0  0  0
  6  7  1  0  0  0  0
  6 11  1  0  0  0  0
  7 12  1  0  0  0  0
  8  7  2  0  0  0  0
 13  8  1  0  0  0  0
 14  9  1  0  0  0  0
M  RAD  3   2   2   3   3   4   2
M  END
