Coordinates from ORCA-job PhN2+~Cl-_B3LYPG-6-31G_dp-CH-Scan-d09-49-n800
 OpenBabel11261919593D

 14 14  0  0  0  0  0  0  0  0999 V2000
   -1.4845    0.1002   -0.3637 C   0  0  0  0  0  0  0  0  0  0  0  0
   -2.8619    0.0750   -0.6564 N   0  0  0  0  0  0  0  0  0  0  0  0
   -3.7795    0.7536   -0.9143 N   0  0  0  0  0  0  0  0  0  0  0  0
   -0.7343    1.2876   -0.3357 C   0  0  0  0  0  0  0  0  0  0  0  0
    0.6227    1.1894   -0.0338 C   0  0  0  0  0  0  0  0  0  0  0  0
    1.2133   -0.0493    0.2318 C   0  0  0  0  0  0  0  0  0  0  0  0
    0.4498   -1.2200    0.1977 C   0  0  0  0  0  0  0  0  0  0  0  0
   -0.9061   -1.1500   -0.1020 C   0  0  0  0  0  0  0  0  0  0  0  0
   -1.1693    2.1621   -0.5267 H   0  0  0  0  0  0  0  0  0  0  0  0
    1.2222    2.0940   -0.0061 H   0  0  0  0  0  0  0  0  0  0  0  0
    2.2719   -0.1025    0.4674 H   0  0  0  0  0  0  0  0  0  0  0  0
    0.9093   -2.1810    0.4044 H   0  0  0  0  0  0  0  0  0  0  0  0
   -1.5276   -2.0381   -0.1372 H   0  0  0  0  0  0  0  0  0  0  0  0
   -3.4763    2.8725   -1.0387 Cl  0  0  0  0  0  0  0  0  0  0  0  0
  1  4  2  0  0  0  0
  1  8  1  0  0  0  0
  2  1  1  0  0  0  0
  3  2  2  0  0  0  0
  4  5  1  0  0  0  0
  5 10  1  0  0  0  0
  5  6  2  0  0  0  0
  6 11  1  0  0  0  0
  7  6  1  0  0  0  0
  7 12  1  0  0  0  0
  8  7  2  0  0  0  0
  9  4  1  0  0  0  0
 13  8  1  0  0  0  0
 14  3  1  0  0  0  0
M  END
