Coordinates from ORCA-job PhN2+~Cl-_B3LYPG-6-31G_dp-CH-Scan-d09-49-n800
 OpenBabel11261919593D

 14 13  0  0  0  0  0  0  0  0999 V2000
   -1.3398   -0.3256   -0.2926 C   0  0  0  0  0  0  0  0  0  0  0  0
   -2.7004   -0.3512   -0.5813 N   0  0  0  0  0  0  0  0  0  0  0  0
   -3.7931   -0.2968   -0.8217 N   0  0  0  0  0  0  0  0  0  0  0  0
   -0.8200    0.9779   -0.3335 C   0  0  0  0  0  0  0  0  0  0  0  0
    0.5714    0.9356   -0.0282 C   0  0  0  0  0  0  0  0  0  0  0  0
    1.2659   -0.2347    0.2599 C   0  0  0  0  0  0  0  0  0  0  0  0
    0.6257   -1.5005    0.2698 C   0  0  0  0  0  0  0  0  0  0  0  0
   -0.7190   -1.5744   -0.0122 C   0  0  0  0  0  0  0  0  0  0  0  0
   -2.5037    4.1816   -0.9908 H   0  0  0  0  0  0  0  0  0  0  0  0
    1.1347    1.8695   -0.0164 H   0  0  0  0  0  0  0  0  0  0  0  0
    2.3299   -0.1931    0.4875 H   0  0  0  0  0  0  0  0  0  0  0  0
    1.1899   -2.3988    0.4981 H   0  0  0  0  0  0  0  0  0  0  0  0
   -1.2646   -2.5143   -0.0194 H   0  0  0  0  0  0  0  0  0  0  0  0
   -3.2273    5.2183   -1.2324 Cl  0  0  0  0  0  0  0  0  0  0  0  0
  1  8  1  0  0  0  0
  2  1  1  0  0  0  0
  3  2  1  0  0  0  0
  4  1  2  0  0  0  0
  4  5  1  0  0  0  0
  5 10  1  0  0  0  0
  5  6  2  0  0  0  0
  6  7  1  0  0  0  0
  6 11  1  0  0  0  0
  7 12  1  0  0  0  0
  8  7  2  0  0  0  0
 13  8  1  0  0  0  0
 14  9  1  0  0  0  0
M  RAD  3   2   2   3   3   4   2
M  END
