Coordinates from ORCA-job PhN2+~Cl-_B3LYPG-6-31G_dp-CH-Scan-d09-49-n800
 OpenBabel11261919593D

 14 14  0  0  0  0  0  0  0  0999 V2000
   -1.4773    0.0916   -0.3565 C   0  0  0  0  0  0  0  0  0  0  0  0
   -2.8547    0.0777   -0.6463 N   0  0  0  0  0  0  0  0  0  0  0  0
   -3.7762    0.7450   -0.9090 N   0  0  0  0  0  0  0  0  0  0  0  0
   -0.7240    1.2748   -0.3258 C   0  0  0  0  0  0  0  0  0  0  0  0
    0.6327    1.1805   -0.0279 C   0  0  0  0  0  0  0  0  0  0  0  0
    1.2205   -0.0615    0.2322 C   0  0  0  0  0  0  0  0  0  0  0  0
    0.4555   -1.2318    0.1966 C   0  0  0  0  0  0  0  0  0  0  0  0
   -0.9011   -1.1611   -0.0991 C   0  0  0  0  0  0  0  0  0  0  0  0
   -1.2378    2.2694   -0.5426 H   0  0  0  0  0  0  0  0  0  0  0  0
    1.2338    2.0836    0.0017 H   0  0  0  0  0  0  0  0  0  0  0  0
    2.2796   -0.1175    0.4653 H   0  0  0  0  0  0  0  0  0  0  0  0
    0.9152   -2.1934    0.3996 H   0  0  0  0  0  0  0  0  0  0  0  0
   -1.5233   -2.0487   -0.1347 H   0  0  0  0  0  0  0  0  0  0  0  0
   -3.4933    2.8850   -1.0668 Cl  0  0  0  0  0  0  0  0  0  0  0  0
  1  4  2  0  0  0  0
  1  8  1  0  0  0  0
  2  1  1  0  0  0  0
  3  2  2  0  0  0  0
  4  5  1  0  0  0  0
  5 10  1  0  0  0  0
  5  6  2  0  0  0  0
  6 11  1  0  0  0  0
  7  6  1  0  0  0  0
  7 12  1  0  0  0  0
  8  7  2  0  0  0  0
  9  4  1  0  0  0  0
 13  8  1  0  0  0  0
 14  3  1  0  0  0  0
M  END
