Coordinates from ORCA-job PhN2+~Cl-_B3LYPG-6-31G_dp-CH-Scan-d09-49-n800
 OpenBabel11261919593D

 14 13  0  0  0  0  0  0  0  0999 V2000
   -1.3429   -0.3068   -0.2943 C   0  0  0  0  0  0  0  0  0  0  0  0
   -2.7032   -0.3274   -0.5830 N   0  0  0  0  0  0  0  0  0  0  0  0
   -3.7957   -0.2702   -0.8232 N   0  0  0  0  0  0  0  0  0  0  0  0
   -0.8170    0.9945   -0.3327 C   0  0  0  0  0  0  0  0  0  0  0  0
    0.5741    0.9461   -0.0274 C   0  0  0  0  0  0  0  0  0  0  0  0
    1.2637   -0.2275    0.2587 C   0  0  0  0  0  0  0  0  0  0  0  0
    0.6182   -1.4906    0.2662 C   0  0  0  0  0  0  0  0  0  0  0  0
   -0.7267   -1.5585   -0.0161 C   0  0  0  0  0  0  0  0  0  0  0  0
   -2.4806    4.1017   -0.9790 H   0  0  0  0  0  0  0  0  0  0  0  0
    1.1409    1.8777   -0.0140 H   0  0  0  0  0  0  0  0  0  0  0  0
    2.3277   -0.1908    0.4865 H   0  0  0  0  0  0  0  0  0  0  0  0
    1.1786   -2.3917    0.4929 H   0  0  0  0  0  0  0  0  0  0  0  0
   -1.2761   -2.4962   -0.0250 H   0  0  0  0  0  0  0  0  0  0  0  0
   -3.2112    5.1334   -1.2228 Cl  0  0  0  0  0  0  0  0  0  0  0  0
  1  8  1  0  0  0  0
  2  1  1  0  0  0  0
  3  2  1  0  0  0  0
  4  1  2  0  0  0  0
  4  5  1  0  0  0  0
  5 10  1  0  0  0  0
  5  6  2  0  0  0  0
  6  7  1  0  0  0  0
  6 11  1  0  0  0  0
  7 12  1  0  0  0  0
  8  7  2  0  0  0  0
 13  8  1  0  0  0  0
 14  9  1  0  0  0  0
M  RAD  3   2   2   3   3   4   2
M  END
