Coordinates from ORCA-job PhN2+~Cl-_B3LYPG-6-31G_dp-CH-Scan-d09-49-n800
 OpenBabel11261919593D

 14 13  0  0  0  0  0  0  0  0999 V2000
   -1.3759   -0.1200   -0.3150 C   0  0  0  0  0  0  0  0  0  0  0  0
   -2.7323   -0.0900   -0.6048 N   0  0  0  0  0  0  0  0  0  0  0  0
   -3.8223   -0.0048   -0.8441 N   0  0  0  0  0  0  0  0  0  0  0  0
   -0.7859    1.1560   -0.3308 C   0  0  0  0  0  0  0  0  0  0  0  0
    0.5981    1.0516   -0.0248 C   0  0  0  0  0  0  0  0  0  0  0  0
    1.2378   -0.1542    0.2455 C   0  0  0  0  0  0  0  0  0  0  0  0
    0.5400   -1.3878    0.2327 C   0  0  0  0  0  0  0  0  0  0  0  0
   -0.8062   -1.3966   -0.0531 C   0  0  0  0  0  0  0  0  0  0  0  0
   -2.2021    3.3196   -0.8481 H   0  0  0  0  0  0  0  0  0  0  0  0
    1.1985    1.9607    0.0024 H   0  0  0  0  0  0  0  0  0  0  0  0
    2.3015   -0.1643    0.4757 H   0  0  0  0  0  0  0  0  0  0  0  0
    1.0612   -2.3149    0.4469 H   0  0  0  0  0  0  0  0  0  0  0  0
   -1.3918   -2.3114   -0.0766 H   0  0  0  0  0  0  0  0  0  0  0  0
   -3.0710    4.2498   -1.1193 Cl  0  0  0  0  0  0  0  0  0  0  0  0
  1  8  1  0  0  0  0
  2  1  1  0  0  0  0
  3  2  1  0  0  0  0
  4  1  2  0  0  0  0
  4  5  1  0  0  0  0
  5 10  1  0  0  0  0
  5  6  2  0  0  0  0
  6 11  1  0  0  0  0
  7  6  1  0  0  0  0
  7 12  1  0  0  0  0
  8  7  2  0  0  0  0
 13  8  1  0  0  0  0
 14  9  1  0  0  0  0
M  RAD  3   2   2   3   3   4   2
M  END
