Coordinates from ORCA-job PhN2+~Cl-_B3LYPG-6-31G_dp-CH-Scan-d09-49-n800
 OpenBabel11261919593D

 14 13  0  0  0  0  0  0  0  0999 V2000
   -1.4091   -0.0429   -0.3283 C   0  0  0  0  0  0  0  0  0  0  0  0
   -2.7649   -0.0011   -0.6188 N   0  0  0  0  0  0  0  0  0  0  0  0
   -3.8523    0.1006   -0.8587 N   0  0  0  0  0  0  0  0  0  0  0  0
   -0.8000    1.2237   -0.3376 C   0  0  0  0  0  0  0  0  0  0  0  0
    0.5799    1.1155   -0.0330 C   0  0  0  0  0  0  0  0  0  0  0  0
    1.2094   -0.0974    0.2334 C   0  0  0  0  0  0  0  0  0  0  0  0
    0.5011   -1.3233    0.2162 C   0  0  0  0  0  0  0  0  0  0  0  0
   -0.8459   -1.3214   -0.0700 C   0  0  0  0  0  0  0  0  0  0  0  0
   -1.9866    2.8996   -0.7602 H   0  0  0  0  0  0  0  0  0  0  0  0
    1.1829    2.0220   -0.0041 H   0  0  0  0  0  0  0  0  0  0  0  0
    2.2727   -0.1165    0.4635 H   0  0  0  0  0  0  0  0  0  0  0  0
    1.0140   -2.2557    0.4273 H   0  0  0  0  0  0  0  0  0  0  0  0
   -1.4377   -2.2318   -0.0962 H   0  0  0  0  0  0  0  0  0  0  0  0
   -2.9137    3.8222   -1.0468 Cl  0  0  0  0  0  0  0  0  0  0  0  0
  1  8  1  0  0  0  0
  2  1  1  0  0  0  0
  3  2  1  0  0  0  0
  4  1  2  0  0  0  0
  4  5  1  0  0  0  0
  5 10  1  0  0  0  0
  5  6  2  0  0  0  0
  6 11  1  0  0  0  0
  7  6  1  0  0  0  0
  7 12  1  0  0  0  0
  8  7  2  0  0  0  0
 13  8  1  0  0  0  0
 14  9  1  0  0  0  0
M  RAD  3   2   2   3   3   4   2
M  END
