Coordinates from ORCA-job PhN2+~Cl-_B3LYPG-6-31G_dp-CH-Scan-d09-49-n800
 OpenBabel11261919593D

 14 13  0  0  0  0  0  0  0  0999 V2000
   -1.4657    0.0693   -0.3513 C   0  0  0  0  0  0  0  0  0  0  0  0
   -2.8423    0.0829   -0.6433 N   0  0  0  0  0  0  0  0  0  0  0  0
   -3.7604    0.7452   -0.9055 N   0  0  0  0  0  0  0  0  0  0  0  0
   -0.7192    1.2520   -0.3218 C   0  0  0  0  0  0  0  0  0  0  0  0
    0.6368    1.1714   -0.0259 C   0  0  0  0  0  0  0  0  0  0  0  0
    1.2250   -0.0716    0.2338 C   0  0  0  0  0  0  0  0  0  0  0  0
    0.4644   -1.2466    0.1997 C   0  0  0  0  0  0  0  0  0  0  0  0
   -0.8927   -1.1851   -0.0947 C   0  0  0  0  0  0  0  0  0  0  0  0
   -1.3703    2.3715   -0.5797 H   0  0  0  0  0  0  0  0  0  0  0  0
    1.2365    2.0752    0.0036 H   0  0  0  0  0  0  0  0  0  0  0  0
    2.2844   -0.1260    0.4666 H   0  0  0  0  0  0  0  0  0  0  0  0
    0.9302   -2.2050    0.4035 H   0  0  0  0  0  0  0  0  0  0  0  0
   -1.5112   -2.0756   -0.1291 H   0  0  0  0  0  0  0  0  0  0  0  0
   -3.4657    2.9358   -1.0691 Cl  0  0  0  0  0  0  0  0  0  0  0  0
  1  4  2  0  0  0  0
  1  8  1  0  0  0  0
  2  1  1  0  0  0  0
  3  2  2  0  0  0  0
  4  5  1  0  0  0  0
  5 10  1  0  0  0  0
  5  6  2  0  0  0  0
  6 11  1  0  0  0  0
  7  6  1  0  0  0  0
  7 12  1  0  0  0  0
  8  7  2  0  0  0  0
  9  4  1  0  0  0  0
 13  8  1  0  0  0  0
M  RAD  2   3   2  14   2
M  END
