Coordinates from ORCA-job PhN2+~Cl-_B3LYPG-6-31G_dp-CH-Scan-d09-49-n800
 OpenBabel11261919593D

 14 13  0  0  0  0  0  0  0  0999 V2000
   -1.4314   -0.0078   -0.3363 C   0  0  0  0  0  0  0  0  0  0  0  0
   -2.7878    0.0418   -0.6276 N   0  0  0  0  0  0  0  0  0  0  0  0
   -3.8708    0.1703   -0.8695 N   0  0  0  0  0  0  0  0  0  0  0  0
   -0.8113    1.2520   -0.3423 C   0  0  0  0  0  0  0  0  0  0  0  0
    0.5649    1.1519   -0.0395 C   0  0  0  0  0  0  0  0  0  0  0  0
    1.1921   -0.0634    0.2262 C   0  0  0  0  0  0  0  0  0  0  0  0
    0.4812   -1.2862    0.2077 C   0  0  0  0  0  0  0  0  0  0  0  0
   -0.8671   -1.2833   -0.0785 C   0  0  0  0  0  0  0  0  0  0  0  0
   -1.8399    2.6540   -0.7043 H   0  0  0  0  0  0  0  0  0  0  0  0
    1.1637    2.0604   -0.0114 H   0  0  0  0  0  0  0  0  0  0  0  0
    2.2550   -0.0842    0.4560 H   0  0  0  0  0  0  0  0  0  0  0  0
    0.9921   -2.2197    0.4181 H   0  0  0  0  0  0  0  0  0  0  0  0
   -1.4589   -2.1933   -0.1050 H   0  0  0  0  0  0  0  0  0  0  0  0
   -2.8321    3.6010   -1.0070 Cl  0  0  0  0  0  0  0  0  0  0  0  0
  1  8  1  0  0  0  0
  2  1  1  0  0  0  0
  3  2  1  0  0  0  0
  4  1  2  0  0  0  0
  4  5  1  0  0  0  0
  5 10  1  0  0  0  0
  5  6  2  0  0  0  0
  6 11  1  0  0  0  0
  7  6  1  0  0  0  0
  7 12  1  0  0  0  0
  8  7  2  0  0  0  0
 13  8  1  0  0  0  0
 14  9  1  0  0  0  0
M  RAD  3   2   2   3   3   4   2
M  END
