Coordinates from ORCA-job PhN2+~Cl-_B3LYPG-6-31G_dp-CH-Scan-d09-49-n800
 OpenBabel11261919593D

 14 13  0  0  0  0  0  0  0  0999 V2000
   -1.3349   -0.5104   -0.2738 C   0  0  0  0  0  0  0  0  0  0  0  0
   -2.6956   -0.6109   -0.5551 N   0  0  0  0  0  0  0  0  0  0  0  0
   -3.7905   -0.6091   -0.7930 N   0  0  0  0  0  0  0  0  0  0  0  0
   -0.8934    0.8192   -0.3333 C   0  0  0  0  0  0  0  0  0  0  0  0
    0.5001    0.8606   -0.0353 C   0  0  0  0  0  0  0  0  0  0  0  0
    1.2619   -0.2644    0.2628 C   0  0  0  0  0  0  0  0  0  0  0  0
    0.6952   -1.5648    0.2911 C   0  0  0  0  0  0  0  0  0  0  0  0
   -0.6445   -1.7191    0.0174 C   0  0  0  0  0  0  0  0  0  0  0  0
   -2.6277    4.8652   -1.0777 H   0  0  0  0  0  0  0  0  0  0  0  0
    1.0101    1.8251   -0.0375 H   0  0  0  0  0  0  0  0  0  0  0  0
    2.3229   -0.1595    0.4841 H   0  0  0  0  0  0  0  0  0  0  0  0
    1.3114   -2.4263    0.5269 H   0  0  0  0  0  0  0  0  0  0  0  0
   -1.1357   -2.6888    0.0244 H   0  0  0  0  0  0  0  0  0  0  0  0
   -3.2295    5.9771   -1.3142 Cl  0  0  0  0  0  0  0  0  0  0  0  0
  1  8  1  0  0  0  0
  2  1  1  0  0  0  0
  3  2  1  0  0  0  0
  4  1  2  0  0  0  0
  4  5  1  0  0  0  0
  5  6  2  0  0  0  0
  6  7  1  0  0  0  0
  6 11  1  0  0  0  0
  7 12  1  0  0  0  0
  8 13  1  0  0  0  0
  8  7  2  0  0  0  0
 10  5  1  0  0  0  0
 14  9  1  0  0  0  0
M  RAD  3   2   2   3   3   4   2
M  END
