Coordinates from ORCA-job PhN2+~Cl-_B3LYPG-6-31G_dp-CH-Scan-d09-49-n800
 OpenBabel11261919593D

 14 13  0  0  0  0  0  0  0  0999 V2000
   -1.3785   -0.1093   -0.3163 C   0  0  0  0  0  0  0  0  0  0  0  0
   -2.7348   -0.0763   -0.6062 N   0  0  0  0  0  0  0  0  0  0  0  0
   -3.8244    0.0118   -0.8456 N   0  0  0  0  0  0  0  0  0  0  0  0
   -0.7851    1.1651   -0.3309 C   0  0  0  0  0  0  0  0  0  0  0  0
    0.5984    1.0585   -0.0250 C   0  0  0  0  0  0  0  0  0  0  0  0
    1.2355   -0.1489    0.2444 C   0  0  0  0  0  0  0  0  0  0  0  0
    0.5352   -1.3809    0.2306 C   0  0  0  0  0  0  0  0  0  0  0  0
   -0.8110   -1.3870   -0.0553 C   0  0  0  0  0  0  0  0  0  0  0  0
   -2.1811    3.2709   -0.8390 H   0  0  0  0  0  0  0  0  0  0  0  0
    1.2002    1.9665    0.0029 H   0  0  0  0  0  0  0  0  0  0  0  0
    2.2992   -0.1613    0.4747 H   0  0  0  0  0  0  0  0  0  0  0  0
    1.0545   -2.3093    0.4442 H   0  0  0  0  0  0  0  0  0  0  0  0
   -1.3984   -2.3006   -0.0795 H   0  0  0  0  0  0  0  0  0  0  0  0
   -3.0600    4.1942   -1.1123 Cl  0  0  0  0  0  0  0  0  0  0  0  0
  1  8  1  0  0  0  0
  2  1  1  0  0  0  0
  3  2  1  0  0  0  0
  4  1  2  0  0  0  0
  4  5  1  0  0  0  0
  5 10  1  0  0  0  0
  5  6  2  0  0  0  0
  6 11  1  0  0  0  0
  7  6  1  0  0  0  0
  7 12  1  0  0  0  0
  8  7  2  0  0  0  0
 13  8  1  0  0  0  0
 14  9  1  0  0  0  0
M  RAD  3   2   2   3   3   4   2
M  END
