Coordinates from ORCA-job PhN2+~Cl-_B3LYPG-6-31G_dp-CH-Scan-d09-49-n800
 OpenBabel11261919593D

 14 14  0  0  0  0  0  0  0  0999 V2000
   -1.4749    0.0881   -0.3550 C   0  0  0  0  0  0  0  0  0  0  0  0
   -2.8522    0.0789   -0.6447 N   0  0  0  0  0  0  0  0  0  0  0  0
   -3.7741    0.7438   -0.9080 N   0  0  0  0  0  0  0  0  0  0  0  0
   -0.7216    1.2703   -0.3240 C   0  0  0  0  0  0  0  0  0  0  0  0
    0.6349    1.1783   -0.0269 C   0  0  0  0  0  0  0  0  0  0  0  0
    1.2221   -0.0644    0.2325 C   0  0  0  0  0  0  0  0  0  0  0  0
    0.4572   -1.2351    0.1969 C   0  0  0  0  0  0  0  0  0  0  0  0
   -0.8995   -1.1652   -0.0982 C   0  0  0  0  0  0  0  0  0  0  0  0
   -1.2614    2.2956   -0.5490 H   0  0  0  0  0  0  0  0  0  0  0  0
    1.2361    2.0812    0.0030 H   0  0  0  0  0  0  0  0  0  0  0  0
    2.2812   -0.1207    0.4653 H   0  0  0  0  0  0  0  0  0  0  0  0
    0.9176   -2.1964    0.3995 H   0  0  0  0  0  0  0  0  0  0  0  0
   -1.5215   -2.0531   -0.1338 H   0  0  0  0  0  0  0  0  0  0  0  0
   -3.4942    2.8922   -1.0708 Cl  0  0  0  0  0  0  0  0  0  0  0  0
  1  4  2  0  0  0  0
  1  8  1  0  0  0  0
  2  1  1  0  0  0  0
  3  2  2  0  0  0  0
  4  5  1  0  0  0  0
  5 10  1  0  0  0  0
  5  6  2  0  0  0  0
  6 11  1  0  0  0  0
  7  6  1  0  0  0  0
  7 12  1  0  0  0  0
  8  7  2  0  0  0  0
  9  4  1  0  0  0  0
 13  8  1  0  0  0  0
 14  3  1  0  0  0  0
M  END
