Coordinates from ORCA-job PhN2+~Cl-_B3LYPG-6-31G_dp-CH-Scan-d09-49-n800
 OpenBabel11261919593D

 14 13  0  0  0  0  0  0  0  0999 V2000
   -1.3536   -0.2565   -0.2997 C   0  0  0  0  0  0  0  0  0  0  0  0
   -2.7129   -0.2655   -0.5881 N   0  0  0  0  0  0  0  0  0  0  0  0
   -3.8052   -0.2033   -0.8275 N   0  0  0  0  0  0  0  0  0  0  0  0
   -0.8125    1.0394   -0.3317 C   0  0  0  0  0  0  0  0  0  0  0  0
    0.5773    0.9769   -0.0266 C   0  0  0  0  0  0  0  0  0  0  0  0
    1.2553   -0.2048    0.2545 C   0  0  0  0  0  0  0  0  0  0  0  0
    0.5973   -1.4612    0.2563 C   0  0  0  0  0  0  0  0  0  0  0  0
   -0.7482   -1.5147   -0.0265 C   0  0  0  0  0  0  0  0  0  0  0  0
   -2.4048    3.8796   -0.9432 H   0  0  0  0  0  0  0  0  0  0  0  0
    1.1524    1.9031   -0.0091 H   0  0  0  0  0  0  0  0  0  0  0  0
    2.3195   -0.1794    0.4826 H   0  0  0  0  0  0  0  0  0  0  0  0
    1.1485   -2.3688    0.4790 H   0  0  0  0  0  0  0  0  0  0  0  0
   -1.3063   -2.4470   -0.0396 H   0  0  0  0  0  0  0  0  0  0  0  0
   -3.1573    4.8958   -1.1936 Cl  0  0  0  0  0  0  0  0  0  0  0  0
  1  8  1  0  0  0  0
  2  1  1  0  0  0  0
  3  2  1  0  0  0  0
  4  1  2  0  0  0  0
  4  5  1  0  0  0  0
  5 10  1  0  0  0  0
  5  6  2  0  0  0  0
  6  7  1  0  0  0  0
  6 11  1  0  0  0  0
  7 12  1  0  0  0  0
  8  7  2  0  0  0  0
 13  8  1  0  0  0  0
 14  9  1  0  0  0  0
M  RAD  3   2   2   3   3   4   2
M  END
