Coordinates from ORCA-job PhN2+~Cl-_B3LYPG-6-31G_dp-CH-Scan-d09-49-n800
 OpenBabel11261919593D

 14 13  0  0  0  0  0  0  0  0999 V2000
   -1.3710   -0.1494   -0.3120 C   0  0  0  0  0  0  0  0  0  0  0  0
   -2.7280   -0.1282   -0.6017 N   0  0  0  0  0  0  0  0  0  0  0  0
   -3.8191   -0.0488   -0.8386 N   0  0  0  0  0  0  0  0  0  0  0  0
   -0.7917    1.1311   -0.3310 C   0  0  0  0  0  0  0  0  0  0  0  0
    0.5938    1.0355   -0.0250 C   0  0  0  0  0  0  0  0  0  0  0  0
    1.2417   -0.1652    0.2477 C   0  0  0  0  0  0  0  0  0  0  0  0
    0.5524   -1.4039    0.2377 C   0  0  0  0  0  0  0  0  0  0  0  0
   -0.7936   -1.4224   -0.0478 C   0  0  0  0  0  0  0  0  0  0  0  0
   -2.2491    3.4392   -0.8695 H   0  0  0  0  0  0  0  0  0  0  0  0
    1.1889    1.9483    0.0005 H   0  0  0  0  0  0  0  0  0  0  0  0
    2.3056   -0.1677    0.4778 H   0  0  0  0  0  0  0  0  0  0  0  0
    1.0801   -2.3270    0.4537 H   0  0  0  0  0  0  0  0  0  0  0  0
   -1.3734   -2.3410   -0.0693 H   0  0  0  0  0  0  0  0  0  0  0  0
   -3.0868    4.3931   -1.1358 Cl  0  0  0  0  0  0  0  0  0  0  0  0
  1  8  1  0  0  0  0
  2  1  1  0  0  0  0
  3  2  1  0  0  0  0
  4  1  2  0  0  0  0
  4  5  1  0  0  0  0
  5 10  1  0  0  0  0
  5  6  2  0  0  0  0
  6 11  1  0  0  0  0
  7  6  1  0  0  0  0
  7 12  1  0  0  0  0
  8  7  2  0  0  0  0
 13  8  1  0  0  0  0
 14  9  1  0  0  0  0
M  RAD  3   2   2   3   3   4   2
M  END
