Coordinates from ORCA-job PhN2+~Cl-_B3LYPG-6-31G_dp-CH-Scan-d09-49-n800
 OpenBabel11261919593D

 14 13  0  0  0  0  0  0  0  0999 V2000
   -1.3348   -0.3732   -0.2882 C   0  0  0  0  0  0  0  0  0  0  0  0
   -2.6958   -0.4146   -0.5764 N   0  0  0  0  0  0  0  0  0  0  0  0
   -3.7891   -0.3701   -0.8168 N   0  0  0  0  0  0  0  0  0  0  0  0
   -0.8322    0.9363   -0.3350 C   0  0  0  0  0  0  0  0  0  0  0  0
    0.5600    0.9119   -0.0303 C   0  0  0  0  0  0  0  0  0  0  0  0
    1.2690   -0.2485    0.2621 C   0  0  0  0  0  0  0  0  0  0  0  0
    0.6443   -1.5222    0.2777 C   0  0  0  0  0  0  0  0  0  0  0  0
   -0.6996   -1.6136   -0.0032 C   0  0  0  0  0  0  0  0  0  0  0  0
   -2.5500    4.3747   -1.0177 H   0  0  0  0  0  0  0  0  0  0  0  0
    1.1124    1.8525   -0.0227 H   0  0  0  0  0  0  0  0  0  0  0  0
    2.3325   -0.1931    0.4888 H   0  0  0  0  0  0  0  0  0  0  0  0
    1.2197   -2.4125    0.5093 H   0  0  0  0  0  0  0  0  0  0  0  0
   -1.2340   -2.5600   -0.0061 H   0  0  0  0  0  0  0  0  0  0  0  0
   -3.2526    5.4262   -1.2548 Cl  0  0  0  0  0  0  0  0  0  0  0  0
  1  8  1  0  0  0  0
  2  1  1  0  0  0  0
  3  2  1  0  0  0  0
  4  1  2  0  0  0  0
  4  5  1  0  0  0  0
  5 10  1  0  0  0  0
  5  6  2  0  0  0  0
  6  7  1  0  0  0  0
  6 11  1  0  0  0  0
  7 12  1  0  0  0  0
  8  7  2  0  0  0  0
 13  8  1  0  0  0  0
 14  9  1  0  0  0  0
M  RAD  3   2   2   3   3   4   2
M  END
