Coordinates from ORCA-job PhN2+~Cl-_B3LYPG-6-31G_dp-CH-Scan-d09-49-n800
 OpenBabel11261919593D

 14 13  0  0  0  0  0  0  0  0999 V2000
   -1.3829   -0.0978   -0.3180 C   0  0  0  0  0  0  0  0  0  0  0  0
   -2.7390   -0.0628   -0.6078 N   0  0  0  0  0  0  0  0  0  0  0  0
   -3.8284    0.0273   -0.8471 N   0  0  0  0  0  0  0  0  0  0  0  0
   -0.7867    1.1753   -0.3313 C   0  0  0  0  0  0  0  0  0  0  0  0
    0.5963    1.0674   -0.0257 C   0  0  0  0  0  0  0  0  0  0  0  0
    1.2318   -0.1412    0.2428 C   0  0  0  0  0  0  0  0  0  0  0  0
    0.5297   -1.3720    0.2280 C   0  0  0  0  0  0  0  0  0  0  0  0
   -0.8167   -1.3761   -0.0579 C   0  0  0  0  0  0  0  0  0  0  0  0
   -2.1525    3.2121   -0.8273 H   0  0  0  0  0  0  0  0  0  0  0  0
    1.1989    1.9748    0.0027 H   0  0  0  0  0  0  0  0  0  0  0  0
    2.2954   -0.1552    0.4731 H   0  0  0  0  0  0  0  0  0  0  0  0
    1.0476   -2.3013    0.4408 H   0  0  0  0  0  0  0  0  0  0  0  0
   -1.4051   -2.2890   -0.0827 H   0  0  0  0  0  0  0  0  0  0  0  0
   -3.0387    4.1322   -1.1030 Cl  0  0  0  0  0  0  0  0  0  0  0  0
  1  8  1  0  0  0  0
  2  1  1  0  0  0  0
  3  2  1  0  0  0  0
  4  1  2  0  0  0  0
  4  5  1  0  0  0  0
  5 10  1  0  0  0  0
  5  6  2  0  0  0  0
  6 11  1  0  0  0  0
  7  6  1  0  0  0  0
  7 12  1  0  0  0  0
  8  7  2  0  0  0  0
 13  8  1  0  0  0  0
 14  9  1  0  0  0  0
M  RAD  3   2   2   3   3   4   2
M  END
