Coordinates from ORCA-job PhN2+~Cl-_B3LYPG-6-31G_dp-CH-Scan-d09-49-n800
 OpenBabel11261919593D

 14 13  0  0  0  0  0  0  0  0999 V2000
   -1.4432    0.0126   -0.3401 C   0  0  0  0  0  0  0  0  0  0  0  0
   -2.8207    0.0944   -0.6389 N   0  0  0  0  0  0  0  0  0  0  0  0
   -3.7359    0.7221   -0.8978 N   0  0  0  0  0  0  0  0  0  0  0  0
   -0.7662    1.2306   -0.3287 C   0  0  0  0  0  0  0  0  0  0  0  0
    0.5969    1.1671   -0.0337 C   0  0  0  0  0  0  0  0  0  0  0  0
    1.2092   -0.0629    0.2294 C   0  0  0  0  0  0  0  0  0  0  0  0
    0.4809   -1.2648    0.2048 C   0  0  0  0  0  0  0  0  0  0  0  0
   -0.8760   -1.2448   -0.0848 C   0  0  0  0  0  0  0  0  0  0  0  0
   -1.6647    2.3851   -0.6406 H   0  0  0  0  0  0  0  0  0  0  0  0
    1.1885    2.0779   -0.0067 H   0  0  0  0  0  0  0  0  0  0  0  0
    2.2708   -0.0949    0.4599 H   0  0  0  0  0  0  0  0  0  0  0  0
    0.9770   -2.2069    0.4127 H   0  0  0  0  0  0  0  0  0  0  0  0
   -1.4752   -2.1490   -0.1136 H   0  0  0  0  0  0  0  0  0  0  0  0
   -3.1917    3.1272   -1.0351 Cl  0  0  0  0  0  0  0  0  0  0  0  0
  1  4  2  0  0  0  0
  1  8  1  0  0  0  0
  2  1  1  0  0  0  0
  3  2  2  0  0  0  0
  4  5  1  0  0  0  0
  5 10  1  0  0  0  0
  5  6  2  0  0  0  0
  6 11  1  0  0  0  0
  7  6  1  0  0  0  0
  7 12  1  0  0  0  0
  8  7  2  0  0  0  0
  9  4  1  0  0  0  0
 13  8  1  0  0  0  0
M  RAD  2   3   2  14   2
M  END
