Coordinates from ORCA-job PhN2+~Cl-_B3LYPG-6-31G_dp-CH-Scan-d09-49-n800
 OpenBabel11261919593D

 14 13  0  0  0  0  0  0  0  0999 V2000
   -1.3753   -0.1240   -0.3146 C   0  0  0  0  0  0  0  0  0  0  0  0
   -2.7317   -0.0954   -0.6042 N   0  0  0  0  0  0  0  0  0  0  0  0
   -3.8218   -0.0114   -0.8435 N   0  0  0  0  0  0  0  0  0  0  0  0
   -0.7867    1.1527   -0.3308 C   0  0  0  0  0  0  0  0  0  0  0  0
    0.5975    1.0494   -0.0248 C   0  0  0  0  0  0  0  0  0  0  0  0
    1.2383   -0.1557    0.2458 C   0  0  0  0  0  0  0  0  0  0  0  0
    0.5417   -1.3900    0.2334 C   0  0  0  0  0  0  0  0  0  0  0  0
   -0.8044   -1.4001   -0.0524 C   0  0  0  0  0  0  0  0  0  0  0  0
   -2.2087    3.3362   -0.8510 H   0  0  0  0  0  0  0  0  0  0  0  0
    1.1973    1.9589    0.0022 H   0  0  0  0  0  0  0  0  0  0  0  0
    2.3021   -0.1648    0.4760 H   0  0  0  0  0  0  0  0  0  0  0  0
    1.0638   -2.3166    0.4478 H   0  0  0  0  0  0  0  0  0  0  0  0
   -1.3893   -2.3154   -0.0755 H   0  0  0  0  0  0  0  0  0  0  0  0
   -3.0732    4.2698   -1.1216 Cl  0  0  0  0  0  0  0  0  0  0  0  0
  1  8  1  0  0  0  0
  2  1  1  0  0  0  0
  3  2  1  0  0  0  0
  4  1  2  0  0  0  0
  4  5  1  0  0  0  0
  5 10  1  0  0  0  0
  5  6  2  0  0  0  0
  6 11  1  0  0  0  0
  7  6  1  0  0  0  0
  7 12  1  0  0  0  0
  8  7  2  0  0  0  0
 13  8  1  0  0  0  0
 14  9  1  0  0  0  0
M  RAD  3   2   2   3   3   4   2
M  END
