Coordinates from ORCA-job PhN2+~Cl-_B3LYPG-6-31G_dp-CH-Scan-d09-49-n800
 OpenBabel11261919593D

 14 13  0  0  0  0  0  0  0  0999 V2000
   -1.4639    0.0644   -0.3503 C   0  0  0  0  0  0  0  0  0  0  0  0
   -2.8406    0.0842   -0.6428 N   0  0  0  0  0  0  0  0  0  0  0  0
   -3.7566    0.7470   -0.9048 N   0  0  0  0  0  0  0  0  0  0  0  0
   -0.7209    1.2486   -0.3215 C   0  0  0  0  0  0  0  0  0  0  0  0
    0.6352    1.1708   -0.0261 C   0  0  0  0  0  0  0  0  0  0  0  0
    1.2246   -0.0718    0.2337 C   0  0  0  0  0  0  0  0  0  0  0  0
    0.4660   -1.2485    0.2002 C   0  0  0  0  0  0  0  0  0  0  0  0
   -0.8913   -1.1900   -0.0939 C   0  0  0  0  0  0  0  0  0  0  0  0
   -1.3957    2.3765   -0.5851 H   0  0  0  0  0  0  0  0  0  0  0  0
    1.2341    2.0752    0.0033 H   0  0  0  0  0  0  0  0  0  0  0  0
    2.2842   -0.1249    0.4662 H   0  0  0  0  0  0  0  0  0  0  0  0
    0.9340   -2.2058    0.4041 H   0  0  0  0  0  0  0  0  0  0  0  0
   -1.5083   -2.0816   -0.1278 H   0  0  0  0  0  0  0  0  0  0  0  0
   -3.4512    2.9496   -1.0685 Cl  0  0  0  0  0  0  0  0  0  0  0  0
  1  4  2  0  0  0  0
  1  8  1  0  0  0  0
  2  1  1  0  0  0  0
  3  2  2  0  0  0  0
  4  5  1  0  0  0  0
  5 10  1  0  0  0  0
  5  6  2  0  0  0  0
  6 11  1  0  0  0  0
  7  6  1  0  0  0  0
  7 12  1  0  0  0  0
  8  7  2  0  0  0  0
  9  4  1  0  0  0  0
 13  8  1  0  0  0  0
M  RAD  2   3   2  14   2
M  END
