Coordinates from ORCA-job PhN2+~Cl-_B3LYPG-6-31G_dp-CH-Scan-d09-49-n800
 OpenBabel11261919593D

 14 14  0  0  0  0  0  0  0  0999 V2000
   -1.4818    0.0975   -0.3609 C   0  0  0  0  0  0  0  0  0  0  0  0
   -2.8592    0.0759   -0.6524 N   0  0  0  0  0  0  0  0  0  0  0  0
   -3.7788    0.7497   -0.9123 N   0  0  0  0  0  0  0  0  0  0  0  0
   -0.7301    1.2832   -0.3318 C   0  0  0  0  0  0  0  0  0  0  0  0
    0.6268    1.1859   -0.0314 C   0  0  0  0  0  0  0  0  0  0  0  0
    1.2162   -0.0541    0.2319 C   0  0  0  0  0  0  0  0  0  0  0  0
    0.4519   -1.2245    0.1972 C   0  0  0  0  0  0  0  0  0  0  0  0
   -0.9043   -1.1538   -0.1009 C   0  0  0  0  0  0  0  0  0  0  0  0
   -1.1933    2.2042   -0.5323 H   0  0  0  0  0  0  0  0  0  0  0  0
    1.2271    2.0898   -0.0029 H   0  0  0  0  0  0  0  0  0  0  0  0
    2.2750   -0.1086    0.4666 H   0  0  0  0  0  0  0  0  0  0  0  0
    0.9112   -2.1859    0.4023 H   0  0  0  0  0  0  0  0  0  0  0  0
   -1.5263   -2.0415   -0.1363 H   0  0  0  0  0  0  0  0  0  0  0  0
   -3.4847    2.8759   -1.0501 Cl  0  0  0  0  0  0  0  0  0  0  0  0
  1  4  2  0  0  0  0
  1  8  1  0  0  0  0
  2  1  1  0  0  0  0
  3  2  2  0  0  0  0
  4  5  1  0  0  0  0
  5 10  1  0  0  0  0
  5  6  2  0  0  0  0
  6 11  1  0  0  0  0
  7  6  1  0  0  0  0
  7 12  1  0  0  0  0
  8  7  2  0  0  0  0
  9  4  1  0  0  0  0
 13  8  1  0  0  0  0
 14  3  1  0  0  0  0
M  END
