Coordinates from ORCA-job PhN2+~Cl-_B3LYPG-6-31G_dp-CH-Scan-d09-49-n800
 OpenBabel11261919593D

 14 13  0  0  0  0  0  0  0  0999 V2000
   -1.3550   -0.2383   -0.3013 C   0  0  0  0  0  0  0  0  0  0  0  0
   -2.7140   -0.2405   -0.5900 N   0  0  0  0  0  0  0  0  0  0  0  0
   -3.8059   -0.1739   -0.8295 N   0  0  0  0  0  0  0  0  0  0  0  0
   -0.8064    1.0546   -0.3308 C   0  0  0  0  0  0  0  0  0  0  0  0
    0.5827    0.9853   -0.0256 C   0  0  0  0  0  0  0  0  0  0  0  0
    1.2546   -0.2004    0.2539 C   0  0  0  0  0  0  0  0  0  0  0  0
    0.5902   -1.4532    0.2533 C   0  0  0  0  0  0  0  0  0  0  0  0
   -0.7555   -1.4996   -0.0300 C   0  0  0  0  0  0  0  0  0  0  0  0
   -2.3858    3.8105   -0.9329 H   0  0  0  0  0  0  0  0  0  0  0  0
    1.1622    1.9087   -0.0065 H   0  0  0  0  0  0  0  0  0  0  0  0
    2.3188   -0.1807    0.4824 H   0  0  0  0  0  0  0  0  0  0  0  0
    1.1367   -2.3640    0.4747 H   0  0  0  0  0  0  0  0  0  0  0  0
   -1.3181   -2.4293   -0.0447 H   0  0  0  0  0  0  0  0  0  0  0  0
   -3.1547    4.8145   -1.1863 Cl  0  0  0  0  0  0  0  0  0  0  0  0
  1  8  1  0  0  0  0
  2  1  1  0  0  0  0
  3  2  1  0  0  0  0
  4  1  2  0  0  0  0
  4  5  1  0  0  0  0
  5 10  1  0  0  0  0
  5  6  2  0  0  0  0
  6 11  1  0  0  0  0
  7  6  1  0  0  0  0
  7 12  1  0  0  0  0
  8  7  2  0  0  0  0
 13  8  1  0  0  0  0
 14  9  1  0  0  0  0
M  RAD  3   2   2   3   3   4   2
M  END
