Coordinates from ORCA-job PhN2+~Cl-_B3LYPG-6-31G_dp-CH-Scan-d09-49-n800
 OpenBabel11261919593D

 14 13  0  0  0  0  0  0  0  0999 V2000
   -1.3348   -0.5163   -0.2738 C   0  0  0  0  0  0  0  0  0  0  0  0
   -2.6951   -0.6201   -0.5552 N   0  0  0  0  0  0  0  0  0  0  0  0
   -3.7905   -0.6217   -0.7909 N   0  0  0  0  0  0  0  0  0  0  0  0
   -0.8961    0.8144   -0.3343 C   0  0  0  0  0  0  0  0  0  0  0  0
    0.4975    0.8582   -0.0360 C   0  0  0  0  0  0  0  0  0  0  0  0
    1.2613   -0.2651    0.2629 C   0  0  0  0  0  0  0  0  0  0  0  0
    0.6973   -1.5666    0.2921 C   0  0  0  0  0  0  0  0  0  0  0  0
   -0.6421   -1.7235    0.0183 C   0  0  0  0  0  0  0  0  0  0  0  0
   -2.6309    4.8874   -1.0800 H   0  0  0  0  0  0  0  0  0  0  0  0
    1.0055    1.8237   -0.0389 H   0  0  0  0  0  0  0  0  0  0  0  0
    2.3222   -0.1578    0.4842 H   0  0  0  0  0  0  0  0  0  0  0  0
    1.3151   -2.4268    0.5285 H   0  0  0  0  0  0  0  0  0  0  0  0
   -1.1315   -2.6940    0.0259 H   0  0  0  0  0  0  0  0  0  0  0  0
   -3.2280    6.0020   -1.3161 Cl  0  0  0  0  0  0  0  0  0  0  0  0
  1  8  1  0  0  0  0
  2  1  1  0  0  0  0
  3  2  1  0  0  0  0
  4  1  2  0  0  0  0
  4  5  1  0  0  0  0
  5  6  2  0  0  0  0
  6  7  1  0  0  0  0
  6 11  1  0  0  0  0
  7 12  1  0  0  0  0
  8 13  1  0  0  0  0
  8  7  2  0  0  0  0
 10  5  1  0  0  0  0
 14  9  1  0  0  0  0
M  RAD  3   2   2   3   3   4   2
M  END
