Coordinates from ORCA-job PhN2+~Cl-_B3LYPG-6-31G_dp-CH-Scan-d09-49-n800
 OpenBabel11261919593D

 14 13  0  0  0  0  0  0  0  0999 V2000
   -1.3573   -0.2056   -0.3041 C   0  0  0  0  0  0  0  0  0  0  0  0
   -2.7156   -0.1966   -0.5928 N   0  0  0  0  0  0  0  0  0  0  0  0
   -3.8053   -0.1230   -0.8398 N   0  0  0  0  0  0  0  0  0  0  0  0
   -0.7949    1.0820   -0.3309 C   0  0  0  0  0  0  0  0  0  0  0  0
    0.5929    0.9995   -0.0254 C   0  0  0  0  0  0  0  0  0  0  0  0
    1.2534   -0.1929    0.2524 C   0  0  0  0  0  0  0  0  0  0  0  0
    0.5771   -1.4392    0.2494 C   0  0  0  0  0  0  0  0  0  0  0  0
   -0.7688   -1.4725   -0.0346 C   0  0  0  0  0  0  0  0  0  0  0  0
   -2.3529    3.6894   -0.9132 H   0  0  0  0  0  0  0  0  0  0  0  0
    1.1804    1.9177   -0.0047 H   0  0  0  0  0  0  0  0  0  0  0  0
    2.3177   -0.1835    0.4814 H   0  0  0  0  0  0  0  0  0  0  0  0
    1.1148   -2.3556    0.4695 H   0  0  0  0  0  0  0  0  0  0  0  0
   -1.3399   -2.3969   -0.0511 H   0  0  0  0  0  0  0  0  0  0  0  0
   -3.1520    4.6708   -1.1694 Cl  0  0  0  0  0  0  0  0  0  0  0  0
  1  8  1  0  0  0  0
  2  1  1  0  0  0  0
  3  2  1  0  0  0  0
  4  1  2  0  0  0  0
  4  5  1  0  0  0  0
  5 10  1  0  0  0  0
  5  6  2  0  0  0  0
  6 11  1  0  0  0  0
  7  6  1  0  0  0  0
  7 12  1  0  0  0  0
  8  7  2  0  0  0  0
 13  8  1  0  0  0  0
 14  9  1  0  0  0  0
M  RAD  3   2   2   3   3   4   2
M  END
