Coordinates from ORCA-job PhN2+~Cl-_B3LYPG-6-31G_dp-CH-Scan-d09-49-n800
 OpenBabel11261919593D

 14 13  0  0  0  0  0  0  0  0999 V2000
   -1.4045   -0.0519   -0.3267 C   0  0  0  0  0  0  0  0  0  0  0  0
   -2.7603   -0.0118   -0.6170 N   0  0  0  0  0  0  0  0  0  0  0  0
   -3.8482    0.0864   -0.8567 N   0  0  0  0  0  0  0  0  0  0  0  0
   -0.7978    1.2160   -0.3368 C   0  0  0  0  0  0  0  0  0  0  0  0
    0.5827    1.1073   -0.0319 C   0  0  0  0  0  0  0  0  0  0  0  0
    1.2132   -0.1049    0.2350 C   0  0  0  0  0  0  0  0  0  0  0  0
    0.5059   -1.3316    0.2182 C   0  0  0  0  0  0  0  0  0  0  0  0
   -0.8410   -1.3305   -0.0679 C   0  0  0  0  0  0  0  0  0  0  0  0
   -2.0162    2.9538   -0.7719 H   0  0  0  0  0  0  0  0  0  0  0  0
    1.1859    2.0137   -0.0030 H   0  0  0  0  0  0  0  0  0  0  0  0
    2.2765   -0.1232    0.4652 H   0  0  0  0  0  0  0  0  0  0  0  0
    1.0195   -2.2635    0.4297 H   0  0  0  0  0  0  0  0  0  0  0  0
   -1.4323   -2.2413   -0.0938 H   0  0  0  0  0  0  0  0  0  0  0  0
   -2.9336    3.8753   -1.0557 Cl  0  0  0  0  0  0  0  0  0  0  0  0
  1  8  1  0  0  0  0
  2  1  1  0  0  0  0
  3  2  1  0  0  0  0
  4  1  2  0  0  0  0
  4  5  1  0  0  0  0
  5 10  1  0  0  0  0
  5  6  2  0  0  0  0
  6 11  1  0  0  0  0
  7  6  1  0  0  0  0
  7 12  1  0  0  0  0
  8  7  2  0  0  0  0
 13  8  1  0  0  0  0
 14  9  1  0  0  0  0
M  RAD  3   2   2   3   3   4   2
M  END
