Coordinates from ORCA-job PhN2+~Cl-_B3LYPG-6-31G_dp-CH-Scan-d09-49-n800
 OpenBabel11261919593D

 14 13  0  0  0  0  0  0  0  0999 V2000
   -1.4520    0.0303   -0.3429 C   0  0  0  0  0  0  0  0  0  0  0  0
   -2.8294    0.0907   -0.6391 N   0  0  0  0  0  0  0  0  0  0  0  0
   -3.7354    0.7474   -0.8995 N   0  0  0  0  0  0  0  0  0  0  0  0
   -0.7459    1.2330   -0.3233 C   0  0  0  0  0  0  0  0  0  0  0  0
    0.6135    1.1685   -0.0295 C   0  0  0  0  0  0  0  0  0  0  0  0
    1.2166   -0.0674    0.2310 C   0  0  0  0  0  0  0  0  0  0  0  0
    0.4763   -1.2592    0.2026 C   0  0  0  0  0  0  0  0  0  0  0  0
   -0.8816   -1.2250   -0.0880 C   0  0  0  0  0  0  0  0  0  0  0  0
   -1.5705    2.3828   -0.6198 H   0  0  0  0  0  0  0  0  0  0  0  0
    1.2070    2.0773   -0.0016 H   0  0  0  0  0  0  0  0  0  0  0  0
    2.2775   -0.1080    0.4618 H   0  0  0  0  0  0  0  0  0  0  0  0
    0.9619   -2.2073    0.4081 H   0  0  0  0  0  0  0  0  0  0  0  0
   -1.4871   -2.1249   -0.1188 H   0  0  0  0  0  0  0  0  0  0  0  0
   -3.3011    3.0555   -1.0544 Cl  0  0  0  0  0  0  0  0  0  0  0  0
  1  4  2  0  0  0  0
  1  8  1  0  0  0  0
  2  1  1  0  0  0  0
  3  2  2  0  0  0  0
  4  5  1  0  0  0  0
  5 10  1  0  0  0  0
  5  6  2  0  0  0  0
  6 11  1  0  0  0  0
  7  6  1  0  0  0  0
  7 12  1  0  0  0  0
  8  7  2  0  0  0  0
  9  4  1  0  0  0  0
 13  8  1  0  0  0  0
M  RAD  2   3   2  14   2
M  END
