Coordinates from ORCA-job PhN2+~Cl-_B3LYPG-6-31G_dp-CH-Scan-d09-49-n800
 OpenBabel11261919593D

 14 14  0  0  0  0  0  0  0  0999 V2000
   -1.4860    0.1015   -0.3651 C   0  0  0  0  0  0  0  0  0  0  0  0
   -2.8633    0.0747   -0.6584 N   0  0  0  0  0  0  0  0  0  0  0  0
   -3.7797    0.7560   -0.9153 N   0  0  0  0  0  0  0  0  0  0  0  0
   -0.7368    1.2898   -0.3378 C   0  0  0  0  0  0  0  0  0  0  0  0
    0.6202    1.1914   -0.0351 C   0  0  0  0  0  0  0  0  0  0  0  0
    1.2117   -0.0465    0.2317 C   0  0  0  0  0  0  0  0  0  0  0  0
    0.4487   -1.2176    0.1979 C   0  0  0  0  0  0  0  0  0  0  0  0
   -0.9070   -1.1482   -0.1025 C   0  0  0  0  0  0  0  0  0  0  0  0
   -1.1570    2.1386   -0.5234 H   0  0  0  0  0  0  0  0  0  0  0  0
    1.2191    2.0965   -0.0079 H   0  0  0  0  0  0  0  0  0  0  0  0
    2.2702   -0.0989    0.4677 H   0  0  0  0  0  0  0  0  0  0  0  0
    0.9085   -2.1783    0.4053 H   0  0  0  0  0  0  0  0  0  0  0  0
   -1.5282   -2.0365   -0.1376 H   0  0  0  0  0  0  0  0  0  0  0  0
   -3.4705    2.8711   -1.0328 Cl  0  0  0  0  0  0  0  0  0  0  0  0
  1  4  2  0  0  0  0
  1  8  1  0  0  0  0
  2  1  1  0  0  0  0
  3  2  2  0  0  0  0
  4  5  1  0  0  0  0
  5 10  1  0  0  0  0
  5  6  2  0  0  0  0
  6 11  1  0  0  0  0
  7  6  1  0  0  0  0
  7 12  1  0  0  0  0
  8  7  2  0  0  0  0
  9  4  1  0  0  0  0
 13  8  1  0  0  0  0
 14  3  1  0  0  0  0
M  END
