Coordinates from ORCA-job PhN2+~Cl-_B3LYPG-6-31G_dp-CH-Scan-d09-49-n800
 OpenBabel11261919593D

 14 13  0  0  0  0  0  0  0  0999 V2000
   -1.3543   -0.2511   -0.2997 C   0  0  0  0  0  0  0  0  0  0  0  0
   -2.7138   -0.2577   -0.5876 N   0  0  0  0  0  0  0  0  0  0  0  0
   -3.8051   -0.1936   -0.8307 N   0  0  0  0  0  0  0  0  0  0  0  0
   -0.8108    1.0437   -0.3312 C   0  0  0  0  0  0  0  0  0  0  0  0
    0.5788    0.9796   -0.0265 C   0  0  0  0  0  0  0  0  0  0  0  0
    1.2551   -0.2033    0.2540 C   0  0  0  0  0  0  0  0  0  0  0  0
    0.5951   -1.4585    0.2554 C   0  0  0  0  0  0  0  0  0  0  0  0
   -0.7505   -1.5101   -0.0271 C   0  0  0  0  0  0  0  0  0  0  0  0
   -2.3986    3.8578   -0.9396 H   0  0  0  0  0  0  0  0  0  0  0  0
    1.1552    1.9050   -0.0088 H   0  0  0  0  0  0  0  0  0  0  0  0
    2.3194   -0.1797    0.4819 H   0  0  0  0  0  0  0  0  0  0  0  0
    1.1451   -2.3671    0.4777 H   0  0  0  0  0  0  0  0  0  0  0  0
   -1.3099   -2.4418   -0.0403 H   0  0  0  0  0  0  0  0  0  0  0  0
   -3.1561    4.8704   -1.1908 Cl  0  0  0  0  0  0  0  0  0  0  0  0
  1  8  1  0  0  0  0
  2  1  1  0  0  0  0
  3  2  1  0  0  0  0
  4  1  2  0  0  0  0
  4  5  1  0  0  0  0
  5 10  1  0  0  0  0
  5  6  2  0  0  0  0
  6  7  1  0  0  0  0
  6 11  1  0  0  0  0
  7 12  1  0  0  0  0
  8  7  2  0  0  0  0
 13  8  1  0  0  0  0
 14  9  1  0  0  0  0
M  RAD  3   2   2   3   3   4   2
M  END
