Coordinates from ORCA-job PhN2+~Cl-_B3LYPG-6-31G_dp-CH-Scan-d09-49-n800
 OpenBabel11261919593D

 14 13  0  0  0  0  0  0  0  0999 V2000
   -1.3548   -0.2407   -0.3012 C   0  0  0  0  0  0  0  0  0  0  0  0
   -2.7139   -0.2438   -0.5897 N   0  0  0  0  0  0  0  0  0  0  0  0
   -3.8060   -0.1778   -0.8289 N   0  0  0  0  0  0  0  0  0  0  0  0
   -0.8073    1.0527   -0.3310 C   0  0  0  0  0  0  0  0  0  0  0  0
    0.5819    0.9842   -0.0257 C   0  0  0  0  0  0  0  0  0  0  0  0
    1.2546   -0.2009    0.2540 C   0  0  0  0  0  0  0  0  0  0  0  0
    0.5911   -1.4542    0.2537 C   0  0  0  0  0  0  0  0  0  0  0  0
   -0.7545   -1.5016   -0.0296 C   0  0  0  0  0  0  0  0  0  0  0  0
   -2.3880    3.8193   -0.9343 H   0  0  0  0  0  0  0  0  0  0  0  0
    1.1608    1.9081   -0.0068 H   0  0  0  0  0  0  0  0  0  0  0  0
    2.3189   -0.1804    0.4825 H   0  0  0  0  0  0  0  0  0  0  0  0
    1.1382   -2.3646    0.4753 H   0  0  0  0  0  0  0  0  0  0  0  0
   -1.3165   -2.4316   -0.0441 H   0  0  0  0  0  0  0  0  0  0  0  0
   -3.1547    4.8249   -1.1872 Cl  0  0  0  0  0  0  0  0  0  0  0  0
  1  8  1  0  0  0  0
  2  1  1  0  0  0  0
  3  2  1  0  0  0  0
  4  1  2  0  0  0  0
  4  5  1  0  0  0  0
  5 10  1  0  0  0  0
  5  6  2  0  0  0  0
  6 11  1  0  0  0  0
  7  6  1  0  0  0  0
  7 12  1  0  0  0  0
  8  7  2  0  0  0  0
 13  8  1  0  0  0  0
 14  9  1  0  0  0  0
M  RAD  3   2   2   3   3   4   2
M  END
