Coordinates from ORCA-job PhN2+~Cl-_B3LYPG-6-31G_dp-CH-Scan-d09-49-n800
 OpenBabel11261919593D

 14 13  0  0  0  0  0  0  0  0999 V2000
   -1.3336   -0.4132   -0.2843 C   0  0  0  0  0  0  0  0  0  0  0  0
   -2.6950   -0.4702   -0.5704 N   0  0  0  0  0  0  0  0  0  0  0  0
   -3.7890   -0.4365   -0.8092 N   0  0  0  0  0  0  0  0  0  0  0  0
   -0.8479    0.9021   -0.3345 C   0  0  0  0  0  0  0  0  0  0  0  0
    0.5450    0.8956   -0.0311 C   0  0  0  0  0  0  0  0  0  0  0  0
    1.2685   -0.2554    0.2631 C   0  0  0  0  0  0  0  0  0  0  0  0
    0.6595   -1.5367    0.2820 C   0  0  0  0  0  0  0  0  0  0  0  0
   -0.6835   -1.6452    0.0027 C   0  0  0  0  0  0  0  0  0  0  0  0
   -2.5758    4.5238   -1.0378 H   0  0  0  0  0  0  0  0  0  0  0  0
    1.0859    1.8429   -0.0261 H   0  0  0  0  0  0  0  0  0  0  0  0
    2.3315   -0.1864    0.4887 H   0  0  0  0  0  0  0  0  0  0  0  0
    1.2462   -2.4193    0.5148 H   0  0  0  0  0  0  0  0  0  0  0  0
   -1.2062   -2.5981    0.0023 H   0  0  0  0  0  0  0  0  0  0  0  0
   -3.2559    5.5900   -1.2734 Cl  0  0  0  0  0  0  0  0  0  0  0  0
  1  8  1  0  0  0  0
  2  1  1  0  0  0  0
  3  2  1  0  0  0  0
  4  1  2  0  0  0  0
  4  5  1  0  0  0  0
  5 10  1  0  0  0  0
  5  6  2  0  0  0  0
  6  7  1  0  0  0  0
  6 11  1  0  0  0  0
  7 12  1  0  0  0  0
  8  7  2  0  0  0  0
 13  8  1  0  0  0  0
 14  9  1  0  0  0  0
M  RAD  3   2   2   3   3   4   2
M  END
