Coordinates from ORCA-job PhN2+~Cl-_B3LYPG-6-31G_dp-CH-Scan-d09-49-n800
 OpenBabel11261919593D

 14 13  0  0  0  0  0  0  0  0999 V2000
   -1.3458   -0.2915   -0.2958 C   0  0  0  0  0  0  0  0  0  0  0  0
   -2.7058   -0.3082   -0.5844 N   0  0  0  0  0  0  0  0  0  0  0  0
   -3.7982   -0.2491   -0.8244 N   0  0  0  0  0  0  0  0  0  0  0  0
   -0.8150    1.0081   -0.3321 C   0  0  0  0  0  0  0  0  0  0  0  0
    0.5756    0.9551   -0.0269 C   0  0  0  0  0  0  0  0  0  0  0  0
    1.2615   -0.2212    0.2576 C   0  0  0  0  0  0  0  0  0  0  0  0
    0.6119   -1.4821    0.2632 C   0  0  0  0  0  0  0  0  0  0  0  0
   -0.7332   -1.5453   -0.0193 C   0  0  0  0  0  0  0  0  0  0  0  0
   -2.4599    4.0350   -0.9688 H   0  0  0  0  0  0  0  0  0  0  0  0
    1.1452    1.8850   -0.0122 H   0  0  0  0  0  0  0  0  0  0  0  0
    2.3256   -0.1881    0.4855 H   0  0  0  0  0  0  0  0  0  0  0  0
    1.1694   -2.3853    0.4886 H   0  0  0  0  0  0  0  0  0  0  0  0
   -1.2854   -2.4813   -0.0296 H   0  0  0  0  0  0  0  0  0  0  0  0
   -3.1962    5.0626   -1.2146 Cl  0  0  0  0  0  0  0  0  0  0  0  0
  1  8  1  0  0  0  0
  2  1  1  0  0  0  0
  3  2  1  0  0  0  0
  4  1  2  0  0  0  0
  4  5  1  0  0  0  0
  5 10  1  0  0  0  0
  5  6  2  0  0  0  0
  6  7  1  0  0  0  0
  6 11  1  0  0  0  0
  7 12  1  0  0  0  0
  8  7  2  0  0  0  0
 13  8  1  0  0  0  0
 14  9  1  0  0  0  0
M  RAD  3   2   2   3   3   4   2
M  END
