Coordinates from ORCA-job PhN2+~Cl-_B3LYPG-6-31G_dp-CH-Scan-d09-49-n800
 OpenBabel11261919593D

 14 13  0  0  0  0  0  0  0  0999 V2000
   -1.4629    0.0610   -0.3495 C   0  0  0  0  0  0  0  0  0  0  0  0
   -2.8395    0.0846   -0.6423 N   0  0  0  0  0  0  0  0  0  0  0  0
   -3.7541    0.7479   -0.9043 N   0  0  0  0  0  0  0  0  0  0  0  0
   -0.7225    1.2464   -0.3213 C   0  0  0  0  0  0  0  0  0  0  0  0
    0.6338    1.1703   -0.0262 C   0  0  0  0  0  0  0  0  0  0  0  0
    1.2242   -0.0719    0.2335 C   0  0  0  0  0  0  0  0  0  0  0  0
    0.4671   -1.2497    0.2004 C   0  0  0  0  0  0  0  0  0  0  0  0
   -0.8904   -1.1934   -0.0933 C   0  0  0  0  0  0  0  0  0  0  0  0
   -1.4132    2.3817   -0.5888 H   0  0  0  0  0  0  0  0  0  0  0  0
    1.2321    2.0751    0.0031 H   0  0  0  0  0  0  0  0  0  0  0  0
    2.2839   -0.1240    0.4658 H   0  0  0  0  0  0  0  0  0  0  0  0
    0.9366   -2.2063    0.4044 H   0  0  0  0  0  0  0  0  0  0  0  0
   -1.5064   -2.0857   -0.1270 H   0  0  0  0  0  0  0  0  0  0  0  0
   -3.4390    2.9577   -1.0678 Cl  0  0  0  0  0  0  0  0  0  0  0  0
  1  4  2  0  0  0  0
  1  8  1  0  0  0  0
  2  1  1  0  0  0  0
  3  2  2  0  0  0  0
  4  5  1  0  0  0  0
  5 10  1  0  0  0  0
  5  6  2  0  0  0  0
  6 11  1  0  0  0  0
  7  6  1  0  0  0  0
  7 12  1  0  0  0  0
  8  7  2  0  0  0  0
  9  4  1  0  0  0  0
 13  8  1  0  0  0  0
M  RAD  2   3   2  14   2
M  END
