Coordinates from ORCA-job PhN2+~Cl-_B3LYPG-6-31G_dp-CH-Scan-d09-49-n800
 OpenBabel11261919593D

 14 13  0  0  0  0  0  0  0  0999 V2000
   -1.3346   -0.4819   -0.2747 C   0  0  0  0  0  0  0  0  0  0  0  0
   -2.6956   -0.5700   -0.5569 N   0  0  0  0  0  0  0  0  0  0  0  0
   -3.7908   -0.5599   -0.7927 N   0  0  0  0  0  0  0  0  0  0  0  0
   -0.8808    0.8443   -0.3280 C   0  0  0  0  0  0  0  0  0  0  0  0
    0.5130    0.8706   -0.0293 C   0  0  0  0  0  0  0  0  0  0  0  0
    1.2644   -0.2627    0.2632 C   0  0  0  0  0  0  0  0  0  0  0  0
    0.6858   -1.5580    0.2855 C   0  0  0  0  0  0  0  0  0  0  0  0
   -0.6552   -1.6983    0.0109 C   0  0  0  0  0  0  0  0  0  0  0  0
   -2.6144    4.7690   -1.0707 H   0  0  0  0  0  0  0  0  0  0  0  0
    1.0318    1.8304   -0.0268 H   0  0  0  0  0  0  0  0  0  0  0  0
    2.3264   -0.1685    0.4849 H   0  0  0  0  0  0  0  0  0  0  0  0
    1.2939   -2.4264    0.5172 H   0  0  0  0  0  0  0  0  0  0  0  0
   -1.1556   -2.6632    0.0134 H   0  0  0  0  0  0  0  0  0  0  0  0
   -3.2385    5.8682   -1.3093 Cl  0  0  0  0  0  0  0  0  0  0  0  0
  1  8  1  0  0  0  0
  2  1  1  0  0  0  0
  3  2  1  0  0  0  0
  4  1  2  0  0  0  0
  4  5  1  0  0  0  0
  5 10  1  0  0  0  0
  5  6  2  0  0  0  0
  6  7  1  0  0  0  0
  6 11  1  0  0  0  0
  7 12  1  0  0  0  0
  8 13  1  0  0  0  0
  8  7  2  0  0  0  0
 14  9  1  0  0  0  0
M  RAD  3   2   2   3   3   4   2
M  END
