Coordinates from ORCA-job PhN2+~Cl-_B3LYPG-6-31G_dp-CH-Scan-d09-49-n800
 OpenBabel11261919593D

 14 13  0  0  0  0  0  0  0  0999 V2000
   -1.3357   -0.3623   -0.2893 C   0  0  0  0  0  0  0  0  0  0  0  0
   -2.6966   -0.3999   -0.5776 N   0  0  0  0  0  0  0  0  0  0  0  0
   -3.7898   -0.3528   -0.8181 N   0  0  0  0  0  0  0  0  0  0  0  0
   -0.8290    0.9457   -0.3348 C   0  0  0  0  0  0  0  0  0  0  0  0
    0.5631    0.9170   -0.0299 C   0  0  0  0  0  0  0  0  0  0  0  0
    1.2685   -0.2457    0.2617 C   0  0  0  0  0  0  0  0  0  0  0  0
    0.6401   -1.5175    0.2761 C   0  0  0  0  0  0  0  0  0  0  0  0
   -0.7040   -1.6047   -0.0052 C   0  0  0  0  0  0  0  0  0  0  0  0
   -2.5405    4.3315   -1.0117 H   0  0  0  0  0  0  0  0  0  0  0  0
    1.1181    1.8561   -0.0214 H   0  0  0  0  0  0  0  0  0  0  0  0
    2.3322   -0.1937    0.4886 H   0  0  0  0  0  0  0  0  0  0  0  0
    1.2128   -2.4097    0.5071 H   0  0  0  0  0  0  0  0  0  0  0  0
   -1.2411   -2.5496   -0.0090 H   0  0  0  0  0  0  0  0  0  0  0  0
   -3.2483    5.3794   -1.2498 Cl  0  0  0  0  0  0  0  0  0  0  0  0
  1  8  1  0  0  0  0
  2  1  1  0  0  0  0
  3  2  1  0  0  0  0
  4  1  2  0  0  0  0
  4  5  1  0  0  0  0
  5 10  1  0  0  0  0
  5  6  2  0  0  0  0
  6  7  1  0  0  0  0
  6 11  1  0  0  0  0
  7 12  1  0  0  0  0
  8  7  2  0  0  0  0
 13  8  1  0  0  0  0
 14  9  1  0  0  0  0
M  RAD  3   2   2   3   3   4   2
M  END
