Coordinates from ORCA-job PhN2+~Cl-_B3LYPG-6-31G_dp-CH-Scan-d09-49-n800
 OpenBabel11261919593D

 14 13  0  0  0  0  0  0  0  0999 V2000
   -1.3820   -0.1000   -0.3176 C   0  0  0  0  0  0  0  0  0  0  0  0
   -2.7381   -0.0653   -0.6075 N   0  0  0  0  0  0  0  0  0  0  0  0
   -3.8275    0.0245   -0.8468 N   0  0  0  0  0  0  0  0  0  0  0  0
   -0.7862    1.1733   -0.3312 C   0  0  0  0  0  0  0  0  0  0  0  0
    0.5969    1.0656   -0.0255 C   0  0  0  0  0  0  0  0  0  0  0  0
    1.2326   -0.1428    0.2431 C   0  0  0  0  0  0  0  0  0  0  0  0
    0.5308   -1.3738    0.2285 C   0  0  0  0  0  0  0  0  0  0  0  0
   -0.8156   -1.3782   -0.0574 C   0  0  0  0  0  0  0  0  0  0  0  0
   -2.1584    3.2237   -0.8296 H   0  0  0  0  0  0  0  0  0  0  0  0
    1.1994    1.9731    0.0028 H   0  0  0  0  0  0  0  0  0  0  0  0
    2.2962   -0.1566    0.4734 H   0  0  0  0  0  0  0  0  0  0  0  0
    1.0489   -2.3030    0.4415 H   0  0  0  0  0  0  0  0  0  0  0  0
   -1.4039   -2.2912   -0.0821 H   0  0  0  0  0  0  0  0  0  0  0  0
   -3.0434    4.1441   -1.1049 Cl  0  0  0  0  0  0  0  0  0  0  0  0
  1  8  1  0  0  0  0
  2  1  1  0  0  0  0
  3  2  1  0  0  0  0
  4  1  2  0  0  0  0
  4  5  1  0  0  0  0
  5 10  1  0  0  0  0
  5  6  2  0  0  0  0
  6 11  1  0  0  0  0
  7  6  1  0  0  0  0
  7 12  1  0  0  0  0
  8  7  2  0  0  0  0
 13  8  1  0  0  0  0
 14  9  1  0  0  0  0
M  RAD  3   2   2   3   3   4   2
M  END
