Coordinates from ORCA-job PhN2+~Cl-_B3LYPG-6-31G_dp-CH-Scan-d09-49-n800
 OpenBabel11261919593D

 14 13  0  0  0  0  0  0  0  0999 V2000
   -1.3667   -0.1637   -0.3095 C   0  0  0  0  0  0  0  0  0  0  0  0
   -2.7241   -0.1450   -0.5986 N   0  0  0  0  0  0  0  0  0  0  0  0
   -3.8137   -0.0666   -0.8431 N   0  0  0  0  0  0  0  0  0  0  0  0
   -0.7911    1.1184   -0.3311 C   0  0  0  0  0  0  0  0  0  0  0  0
    0.5950    1.0253   -0.0255 C   0  0  0  0  0  0  0  0  0  0  0  0
    1.2455   -0.1735    0.2488 C   0  0  0  0  0  0  0  0  0  0  0  0
    0.5588   -1.4138    0.2414 C   0  0  0  0  0  0  0  0  0  0  0  0
   -0.7872   -1.4354   -0.0434 C   0  0  0  0  0  0  0  0  0  0  0  0
   -2.2797    3.5068   -0.8809 H   0  0  0  0  0  0  0  0  0  0  0  0
    1.1888    1.9391   -0.0018 H   0  0  0  0  0  0  0  0  0  0  0  0
    2.3096   -0.1735    0.4784 H   0  0  0  0  0  0  0  0  0  0  0  0
    1.0886   -2.3354    0.4588 H   0  0  0  0  0  0  0  0  0  0  0  0
   -1.3653   -2.3552   -0.0631 H   0  0  0  0  0  0  0  0  0  0  0  0
   -3.1089    4.4662   -1.1437 Cl  0  0  0  0  0  0  0  0  0  0  0  0
  1  8  1  0  0  0  0
  2  1  1  0  0  0  0
  3  2  1  0  0  0  0
  4  1  2  0  0  0  0
  4  5  1  0  0  0  0
  5 10  1  0  0  0  0
  5  6  2  0  0  0  0
  6 11  1  0  0  0  0
  7  6  1  0  0  0  0
  7 12  1  0  0  0  0
  8  7  2  0  0  0  0
 13  8  1  0  0  0  0
 14  9  1  0  0  0  0
M  RAD  3   2   2   3   3   4   2
M  END
