Coordinates from ORCA-job PhN2+~Cl-_B3LYPG-6-31G_dp-CH-Scan-d09-49-n800
 OpenBabel11261919593D

 14 14  0  0  0  0  0  0  0  0999 V2000
   -1.4828    0.0985   -0.3619 C   0  0  0  0  0  0  0  0  0  0  0  0
   -2.8602    0.0755   -0.6539 N   0  0  0  0  0  0  0  0  0  0  0  0
   -3.7791    0.7510   -0.9130 N   0  0  0  0  0  0  0  0  0  0  0  0
   -0.7316    1.2849   -0.3332 C   0  0  0  0  0  0  0  0  0  0  0  0
    0.6254    1.1872   -0.0323 C   0  0  0  0  0  0  0  0  0  0  0  0
    1.2152   -0.0524    0.2319 C   0  0  0  0  0  0  0  0  0  0  0  0
    0.4511   -1.2229    0.1974 C   0  0  0  0  0  0  0  0  0  0  0  0
   -0.9049   -1.1524   -0.1013 C   0  0  0  0  0  0  0  0  0  0  0  0
   -1.1844    2.1890   -0.5303 H   0  0  0  0  0  0  0  0  0  0  0  0
    1.2254    2.0913   -0.0041 H   0  0  0  0  0  0  0  0  0  0  0  0
    2.2739   -0.1064    0.4669 H   0  0  0  0  0  0  0  0  0  0  0  0
    0.9104   -2.1841    0.4031 H   0  0  0  0  0  0  0  0  0  0  0  0
   -1.5268   -2.0402   -0.1367 H   0  0  0  0  0  0  0  0  0  0  0  0
   -3.4818    2.8745   -1.0459 Cl  0  0  0  0  0  0  0  0  0  0  0  0
  1  4  2  0  0  0  0
  1  8  1  0  0  0  0
  2  1  1  0  0  0  0
  3  2  2  0  0  0  0
  4  5  1  0  0  0  0
  5 10  1  0  0  0  0
  5  6  2  0  0  0  0
  6 11  1  0  0  0  0
  7  6  1  0  0  0  0
  7 12  1  0  0  0  0
  8  7  2  0  0  0  0
  9  4  1  0  0  0  0
 13  8  1  0  0  0  0
 14  3  1  0  0  0  0
M  END
