Coordinates from ORCA-job PhN2+~Cl-_B3LYPG-6-31G_dp-CH-Scan-d09-49-n800
 OpenBabel11261919593D

 14 13  0  0  0  0  0  0  0  0999 V2000
   -1.4655    0.0686   -0.3512 C   0  0  0  0  0  0  0  0  0  0  0  0
   -2.8421    0.0828   -0.6432 N   0  0  0  0  0  0  0  0  0  0  0  0
   -3.7599    0.7454   -0.9054 N   0  0  0  0  0  0  0  0  0  0  0  0
   -0.7192    1.2514   -0.3217 C   0  0  0  0  0  0  0  0  0  0  0  0
    0.6367    1.1711   -0.0259 C   0  0  0  0  0  0  0  0  0  0  0  0
    1.2250   -0.0718    0.2339 C   0  0  0  0  0  0  0  0  0  0  0  0
    0.4647   -1.2470    0.1998 C   0  0  0  0  0  0  0  0  0  0  0  0
   -0.8925   -1.1857   -0.0946 C   0  0  0  0  0  0  0  0  0  0  0  0
   -1.3742    2.3744   -0.5808 H   0  0  0  0  0  0  0  0  0  0  0  0
    1.2363    2.0751    0.0036 H   0  0  0  0  0  0  0  0  0  0  0  0
    2.2845   -0.1260    0.4666 H   0  0  0  0  0  0  0  0  0  0  0  0
    0.9307   -2.2053    0.4036 H   0  0  0  0  0  0  0  0  0  0  0  0
   -1.5108   -2.0764   -0.1290 H   0  0  0  0  0  0  0  0  0  0  0  0
   -3.4640    2.9371   -1.0690 Cl  0  0  0  0  0  0  0  0  0  0  0  0
  1  4  2  0  0  0  0
  1  8  1  0  0  0  0
  2  1  1  0  0  0  0
  3  2  2  0  0  0  0
  4  5  1  0  0  0  0
  5 10  1  0  0  0  0
  5  6  2  0  0  0  0
  6 11  1  0  0  0  0
  7  6  1  0  0  0  0
  7 12  1  0  0  0  0
  8  7  2  0  0  0  0
  9  4  1  0  0  0  0
 13  8  1  0  0  0  0
M  RAD  2   3   2  14   2
M  END
