Coordinates from ORCA-job PhN2+~Cl-_B3LYPG-6-31G_dp-CH-Scan-d09-49-n800
 OpenBabel11261919593D

 14 13  0  0  0  0  0  0  0  0999 V2000
   -1.4377    0.0028   -0.3387 C   0  0  0  0  0  0  0  0  0  0  0  0
   -2.7945    0.0621   -0.6312 N   0  0  0  0  0  0  0  0  0  0  0  0
   -3.8714    0.2273   -0.8757 N   0  0  0  0  0  0  0  0  0  0  0  0
   -0.8108    1.2582   -0.3427 C   0  0  0  0  0  0  0  0  0  0  0  0
    0.5632    1.1633   -0.0411 C   0  0  0  0  0  0  0  0  0  0  0  0
    1.1885   -0.0538    0.2243 C   0  0  0  0  0  0  0  0  0  0  0  0
    0.4758   -1.2744    0.2054 C   0  0  0  0  0  0  0  0  0  0  0  0
   -0.8734   -1.2707   -0.0811 C   0  0  0  0  0  0  0  0  0  0  0  0
   -1.7845    2.5601   -0.6831 H   0  0  0  0  0  0  0  0  0  0  0  0
    1.1598    2.0729   -0.0135 H   0  0  0  0  0  0  0  0  0  0  0  0
    2.2513   -0.0759    0.4543 H   0  0  0  0  0  0  0  0  0  0  0  0
    0.9852   -2.2087    0.4156 H   0  0  0  0  0  0  0  0  0  0  0  0
   -1.4656   -2.1802   -0.1077 H   0  0  0  0  0  0  0  0  0  0  0  0
   -2.8362    3.5103   -0.9980 Cl  0  0  0  0  0  0  0  0  0  0  0  0
  1  8  1  0  0  0  0
  2  1  1  0  0  0  0
  3  2  1  0  0  0  0
  4  1  2  0  0  0  0
  4  5  1  0  0  0  0
  5 10  1  0  0  0  0
  5  6  2  0  0  0  0
  6 11  1  0  0  0  0
  7  6  1  0  0  0  0
  7 12  1  0  0  0  0
  8  7  2  0  0  0  0
 13  8  1  0  0  0  0
 14  9  1  0  0  0  0
M  RAD  3   2   2   3   3   4   2
M  END
