Coordinates from ORCA-job PhN2+~Cl-_B3LYPG-6-31G_dp-CH-Scan-d09-49-n800
 OpenBabel11261919593D

 14 14  0  0  0  0  0  0  0  0999 V2000
   -1.4744    0.0873   -0.3548 C   0  0  0  0  0  0  0  0  0  0  0  0
   -2.8517    0.0789   -0.6445 N   0  0  0  0  0  0  0  0  0  0  0  0
   -3.7736    0.7435   -0.9078 N   0  0  0  0  0  0  0  0  0  0  0  0
   -0.7211    1.2693   -0.3237 C   0  0  0  0  0  0  0  0  0  0  0  0
    0.6354    1.1776   -0.0267 C   0  0  0  0  0  0  0  0  0  0  0  0
    1.2225   -0.0651    0.2326 C   0  0  0  0  0  0  0  0  0  0  0  0
    0.4576   -1.2359    0.1970 C   0  0  0  0  0  0  0  0  0  0  0  0
   -0.8991   -1.1661   -0.0981 C   0  0  0  0  0  0  0  0  0  0  0  0
   -1.2667    2.3027   -0.5508 H   0  0  0  0  0  0  0  0  0  0  0  0
    1.2366    2.0806    0.0032 H   0  0  0  0  0  0  0  0  0  0  0  0
    2.2816   -0.1215    0.4654 H   0  0  0  0  0  0  0  0  0  0  0  0
    0.9180   -2.1972    0.3996 H   0  0  0  0  0  0  0  0  0  0  0  0
   -1.5211   -2.0540   -0.1336 H   0  0  0  0  0  0  0  0  0  0  0  0
   -3.4944    2.8934   -1.0712 Cl  0  0  0  0  0  0  0  0  0  0  0  0
  1  4  2  0  0  0  0
  1  8  1  0  0  0  0
  2  1  1  0  0  0  0
  3  2  2  0  0  0  0
  4  5  1  0  0  0  0
  5 10  1  0  0  0  0
  5  6  2  0  0  0  0
  6 11  1  0  0  0  0
  7  6  1  0  0  0  0
  7 12  1  0  0  0  0
  8  7  2  0  0  0  0
  9  4  1  0  0  0  0
 13  8  1  0  0  0  0
 14  3  1  0  0  0  0
M  END
