Coordinates from ORCA-job PhN2+~Cl-_B3LYPG-6-31G_dp-CH-Scan-d09-49-n800
 OpenBabel11261919593D

 14 13  0  0  0  0  0  0  0  0999 V2000
   -1.3716   -0.1491   -0.3118 C   0  0  0  0  0  0  0  0  0  0  0  0
   -2.7286   -0.1282   -0.6011 N   0  0  0  0  0  0  0  0  0  0  0  0
   -3.8192   -0.0492   -0.8403 N   0  0  0  0  0  0  0  0  0  0  0  0
   -0.7925    1.1318   -0.3310 C   0  0  0  0  0  0  0  0  0  0  0  0
    0.5931    1.0361   -0.0253 C   0  0  0  0  0  0  0  0  0  0  0  0
    1.2412   -0.1645    0.2473 C   0  0  0  0  0  0  0  0  0  0  0  0
    0.5521   -1.4033    0.2376 C   0  0  0  0  0  0  0  0  0  0  0  0
   -0.7939   -1.4219   -0.0476 C   0  0  0  0  0  0  0  0  0  0  0  0
   -2.2466    3.4362   -0.8684 H   0  0  0  0  0  0  0  0  0  0  0  0
    1.1881    1.9489   -0.0000 H   0  0  0  0  0  0  0  0  0  0  0  0
    2.3052   -0.1668    0.4772 H   0  0  0  0  0  0  0  0  0  0  0  0
    1.0800   -2.3263    0.4536 H   0  0  0  0  0  0  0  0  0  0  0  0
   -1.3736   -2.3406   -0.0689 H   0  0  0  0  0  0  0  0  0  0  0  0
   -3.0840    4.3904   -1.1346 Cl  0  0  0  0  0  0  0  0  0  0  0  0
  1  8  1  0  0  0  0
  2  1  1  0  0  0  0
  3  2  1  0  0  0  0
  4  1  2  0  0  0  0
  4  5  1  0  0  0  0
  5 10  1  0  0  0  0
  5  6  2  0  0  0  0
  6 11  1  0  0  0  0
  7  6  1  0  0  0  0
  7 12  1  0  0  0  0
  8  7  2  0  0  0  0
 13  8  1  0  0  0  0
 14  9  1  0  0  0  0
M  RAD  3   2   2   3   3   4   2
M  END
