Coordinates from ORCA-job PhN2+~Cl-_B3LYPG-6-31G_dp-CH-Scan-d09-49-n800
 OpenBabel11261919593D

 14 13  0  0  0  0  0  0  0  0999 V2000
   -1.3483   -0.6290   -0.2627 C   0  0  0  0  0  0  0  0  0  0  0  0
   -2.7039   -0.7988   -0.5357 N   0  0  0  0  0  0  0  0  0  0  0  0
   -3.7993   -0.8527   -0.7651 N   0  0  0  0  0  0  0  0  0  0  0  0
   -0.9746    0.7205   -0.3324 C   0  0  0  0  0  0  0  0  0  0  0  0
    0.4166    0.8334   -0.0429 C   0  0  0  0  0  0  0  0  0  0  0  0
    1.2355   -0.2502    0.2571 C   0  0  0  0  0  0  0  0  0  0  0  0
    0.7350   -1.5774    0.2961 C   0  0  0  0  0  0  0  0  0  0  0  0
   -0.5969   -1.8001    0.0311 C   0  0  0  0  0  0  0  0  0  0  0  0
   -2.6236    5.2263   -1.1056 H   0  0  0  0  0  0  0  0  0  0  0  0
    0.8782    1.8219   -0.0537 H   0  0  0  0  0  0  0  0  0  0  0  0
    2.2912   -0.0906    0.4713 H   0  0  0  0  0  0  0  0  0  0  0  0
    1.3950   -2.4056    0.5329 H   0  0  0  0  0  0  0  0  0  0  0  0
   -1.0389   -2.7930    0.0464 H   0  0  0  0  0  0  0  0  0  0  0  0
   -3.1163    6.3889   -1.3502 Cl  0  0  0  0  0  0  0  0  0  0  0  0
  1  8  1  0  0  0  0
  2  1  1  0  0  0  0
  3  2  1  0  0  0  0
  4  1  2  0  0  0  0
  4  5  1  0  0  0  0
  5  6  2  0  0  0  0
  6  7  1  0  0  0  0
  6 11  1  0  0  0  0
  7 12  1  0  0  0  0
  8 13  1  0  0  0  0
  8  7  2  0  0  0  0
 10  5  1  0  0  0  0
 14  9  1  0  0  0  0
M  RAD  3   2   2   3   3   4   2
M  END
