Coordinates from ORCA-job PhN2+~Cl-_B3LYPG-6-31G_dp-CH-Scan-d09-49-n800
 OpenBabel11261919593D

 14 13  0  0  0  0  0  0  0  0999 V2000
   -1.4478    0.0206   -0.3414 C   0  0  0  0  0  0  0  0  0  0  0  0
   -2.8254    0.0927   -0.6390 N   0  0  0  0  0  0  0  0  0  0  0  0
   -3.7336    0.7385   -0.8985 N   0  0  0  0  0  0  0  0  0  0  0  0
   -0.7562    1.2309   -0.3258 C   0  0  0  0  0  0  0  0  0  0  0  0
    0.6050    1.1679   -0.0316 C   0  0  0  0  0  0  0  0  0  0  0  0
    1.2129   -0.0650    0.2302 C   0  0  0  0  0  0  0  0  0  0  0  0
    0.4788   -1.2620    0.2037 C   0  0  0  0  0  0  0  0  0  0  0  0
   -0.8788   -1.2354   -0.0863 C   0  0  0  0  0  0  0  0  0  0  0  0
   -1.6198    2.3817   -0.6305 H   0  0  0  0  0  0  0  0  0  0  0  0
    1.1971    2.0779   -0.0043 H   0  0  0  0  0  0  0  0  0  0  0  0
    2.2741   -0.1011    0.4608 H   0  0  0  0  0  0  0  0  0  0  0  0
    0.9700   -2.2069    0.4104 H   0  0  0  0  0  0  0  0  0  0  0  0
   -1.4807   -2.1377   -0.1161 H   0  0  0  0  0  0  0  0  0  0  0  0
   -3.2459    3.0916   -1.0449 Cl  0  0  0  0  0  0  0  0  0  0  0  0
  1  4  2  0  0  0  0
  1  8  1  0  0  0  0
  2  1  1  0  0  0  0
  3  2  2  0  0  0  0
  4  5  1  0  0  0  0
  5 10  1  0  0  0  0
  5  6  2  0  0  0  0
  6 11  1  0  0  0  0
  7  6  1  0  0  0  0
  7 12  1  0  0  0  0
  8  7  2  0  0  0  0
  9  4  1  0  0  0  0
 13  8  1  0  0  0  0
M  RAD  2   3   2  14   2
M  END
