Coordinates from ORCA-job PhN2+~Cl-_B3LYPG-6-31G_dp-CH-Scan-d09-49-n800
 OpenBabel11261919593D

 14 13  0  0  0  0  0  0  0  0999 V2000
   -1.3564   -0.2100   -0.3022 C   0  0  0  0  0  0  0  0  0  0  0  0
   -2.7151   -0.2018   -0.5899 N   0  0  0  0  0  0  0  0  0  0  0  0
   -3.8068   -0.1287   -0.8282 N   0  0  0  0  0  0  0  0  0  0  0  0
   -0.7964    1.0785   -0.3256 C   0  0  0  0  0  0  0  0  0  0  0  0
    0.5918    0.9971   -0.0210 C   0  0  0  0  0  0  0  0  0  0  0  0
    1.2542   -0.1950    0.2533 C   0  0  0  0  0  0  0  0  0  0  0  0
    0.5798   -1.4424    0.2470 C   0  0  0  0  0  0  0  0  0  0  0  0
   -0.7661   -1.4769   -0.0366 C   0  0  0  0  0  0  0  0  0  0  0  0
   -2.3601    3.7091   -0.9214 H   0  0  0  0  0  0  0  0  0  0  0  0
    1.1779    1.9162    0.0021 H   0  0  0  0  0  0  0  0  0  0  0  0
    2.3185   -0.1846    0.4822 H   0  0  0  0  0  0  0  0  0  0  0  0
    1.1190   -2.3586    0.4642 H   0  0  0  0  0  0  0  0  0  0  0  0
   -1.3359   -2.4021   -0.0558 H   0  0  0  0  0  0  0  0  0  0  0  0
   -3.1547    4.6929   -1.1815 Cl  0  0  0  0  0  0  0  0  0  0  0  0
  1  8  1  0  0  0  0
  2  1  1  0  0  0  0
  3  2  1  0  0  0  0
  4  1  2  0  0  0  0
  4  5  1  0  0  0  0
  5 10  1  0  0  0  0
  5  6  2  0  0  0  0
  6 11  1  0  0  0  0
  7  6  1  0  0  0  0
  7 12  1  0  0  0  0
  8  7  2  0  0  0  0
 13  8  1  0  0  0  0
 14  9  1  0  0  0  0
M  RAD  3   2   2   3   3   4   2
M  END
