Coordinates from ORCA-job PhN2+~Cl-_B3LYPG-6-31G_dp-CH-Scan-d09-49-n800
 OpenBabel11261919593D

 14 13  0  0  0  0  0  0  0  0999 V2000
   -1.3427   -0.3078   -0.2942 C   0  0  0  0  0  0  0  0  0  0  0  0
   -2.7030   -0.3286   -0.5829 N   0  0  0  0  0  0  0  0  0  0  0  0
   -3.7956   -0.2715   -0.8231 N   0  0  0  0  0  0  0  0  0  0  0  0
   -0.8171    0.9936   -0.3327 C   0  0  0  0  0  0  0  0  0  0  0  0
    0.5739    0.9455   -0.0275 C   0  0  0  0  0  0  0  0  0  0  0  0
    1.2638   -0.2279    0.2588 C   0  0  0  0  0  0  0  0  0  0  0  0
    0.6186   -1.4912    0.2664 C   0  0  0  0  0  0  0  0  0  0  0  0
   -0.7263   -1.5593   -0.0159 C   0  0  0  0  0  0  0  0  0  0  0  0
   -2.4819    4.1059   -0.9796 H   0  0  0  0  0  0  0  0  0  0  0  0
    1.1406    1.8773   -0.0142 H   0  0  0  0  0  0  0  0  0  0  0  0
    2.3279   -0.1909    0.4865 H   0  0  0  0  0  0  0  0  0  0  0  0
    1.1792   -2.3921    0.4932 H   0  0  0  0  0  0  0  0  0  0  0  0
   -1.2755   -2.4971   -0.0247 H   0  0  0  0  0  0  0  0  0  0  0  0
   -3.2121    5.1379   -1.2233 Cl  0  0  0  0  0  0  0  0  0  0  0  0
  1  8  1  0  0  0  0
  2  1  1  0  0  0  0
  3  2  1  0  0  0  0
  4  1  2  0  0  0  0
  4  5  1  0  0  0  0
  5 10  1  0  0  0  0
  5  6  2  0  0  0  0
  6  7  1  0  0  0  0
  6 11  1  0  0  0  0
  7 12  1  0  0  0  0
  8  7  2  0  0  0  0
 13  8  1  0  0  0  0
 14  9  1  0  0  0  0
M  RAD  3   2   2   3   3   4   2
M  END
