Coordinates from ORCA-job PhN2+~Cl-_B3LYPG-6-31G_dp-CH-Scan-d09-49-n800
 OpenBabel11261919593D

 14 13  0  0  0  0  0  0  0  0999 V2000
   -1.3447   -0.2972   -0.2952 C   0  0  0  0  0  0  0  0  0  0  0  0
   -2.7048   -0.3154   -0.5839 N   0  0  0  0  0  0  0  0  0  0  0  0
   -3.7973   -0.2569   -0.8239 N   0  0  0  0  0  0  0  0  0  0  0  0
   -0.8157    1.0030   -0.3323 C   0  0  0  0  0  0  0  0  0  0  0  0
    0.5751    0.9517   -0.0271 C   0  0  0  0  0  0  0  0  0  0  0  0
    1.2623   -0.2236    0.2580 C   0  0  0  0  0  0  0  0  0  0  0  0
    0.6143   -1.4853    0.2643 C   0  0  0  0  0  0  0  0  0  0  0  0
   -0.7308   -1.5502   -0.0181 C   0  0  0  0  0  0  0  0  0  0  0  0
   -2.4678    4.0600   -0.9726 H   0  0  0  0  0  0  0  0  0  0  0  0
    1.1437    1.8822   -0.0129 H   0  0  0  0  0  0  0  0  0  0  0  0
    2.3264   -0.1891    0.4859 H   0  0  0  0  0  0  0  0  0  0  0  0
    1.1728   -2.3878    0.4902 H   0  0  0  0  0  0  0  0  0  0  0  0
   -1.2820   -2.4869   -0.0279 H   0  0  0  0  0  0  0  0  0  0  0  0
   -3.2019    5.0891   -1.2177 Cl  0  0  0  0  0  0  0  0  0  0  0  0
  1  8  1  0  0  0  0
  2  1  1  0  0  0  0
  3  2  1  0  0  0  0
  4  1  2  0  0  0  0
  4  5  1  0  0  0  0
  5 10  1  0  0  0  0
  5  6  2  0  0  0  0
  6  7  1  0  0  0  0
  6 11  1  0  0  0  0
  7 12  1  0  0  0  0
  8  7  2  0  0  0  0
 13  8  1  0  0  0  0
 14  9  1  0  0  0  0
M  RAD  3   2   2   3   3   4   2
M  END
