Coordinates from ORCA-job PhN2+~Cl-_B3LYPG-6-31G_dp-CH-Scan-d09-49-n800
 OpenBabel11261919593D

 14 14  0  0  0  0  0  0  0  0999 V2000
   -1.4792    0.0945   -0.3581 C   0  0  0  0  0  0  0  0  0  0  0  0
   -2.8567    0.0772   -0.6483 N   0  0  0  0  0  0  0  0  0  0  0  0
   -3.7777    0.7467   -0.9102 N   0  0  0  0  0  0  0  0  0  0  0  0
   -0.7264    1.2788   -0.3279 C   0  0  0  0  0  0  0  0  0  0  0  0
    0.6304    1.1829   -0.0292 C   0  0  0  0  0  0  0  0  0  0  0  0
    1.2188   -0.0584    0.2319 C   0  0  0  0  0  0  0  0  0  0  0  0
    0.4539   -1.2287    0.1966 C   0  0  0  0  0  0  0  0  0  0  0  0
   -0.9025   -1.1577   -0.0999 C   0  0  0  0  0  0  0  0  0  0  0  0
   -1.2174    2.2409   -0.5372 H   0  0  0  0  0  0  0  0  0  0  0  0
    1.2314    2.0862    0.0001 H   0  0  0  0  0  0  0  0  0  0  0  0
    2.2777   -0.1140    0.4655 H   0  0  0  0  0  0  0  0  0  0  0  0
    0.9134   -2.1902    0.4003 H   0  0  0  0  0  0  0  0  0  0  0  0
   -1.5248   -2.0453   -0.1354 H   0  0  0  0  0  0  0  0  0  0  0  0
   -3.4912    2.8806   -1.0615 Cl  0  0  0  0  0  0  0  0  0  0  0  0
  1  4  2  0  0  0  0
  1  8  1  0  0  0  0
  2  1  1  0  0  0  0
  3  2  2  0  0  0  0
  4  5  1  0  0  0  0
  5 10  1  0  0  0  0
  5  6  2  0  0  0  0
  6 11  1  0  0  0  0
  7  6  1  0  0  0  0
  7 12  1  0  0  0  0
  8  7  2  0  0  0  0
  9  4  1  0  0  0  0
 13  8  1  0  0  0  0
 14  3  1  0  0  0  0
M  END
