Coordinates from ORCA-job PhN2+~Cl-_B3LYPG-6-31G_dp-CH-Scan-d09-49-n800
 OpenBabel11261919593D

 14 13  0  0  0  0  0  0  0  0999 V2000
   -1.3336   -0.4202   -0.2832 C   0  0  0  0  0  0  0  0  0  0  0  0
   -2.6948   -0.4806   -0.5695 N   0  0  0  0  0  0  0  0  0  0  0  0
   -3.7888   -0.4494   -0.8088 N   0  0  0  0  0  0  0  0  0  0  0  0
   -0.8509    0.8962   -0.3343 C   0  0  0  0  0  0  0  0  0  0  0  0
    0.5421    0.8927   -0.0313 C   0  0  0  0  0  0  0  0  0  0  0  0
    1.2683   -0.2565    0.2630 C   0  0  0  0  0  0  0  0  0  0  0  0
    0.6622   -1.5391    0.2828 C   0  0  0  0  0  0  0  0  0  0  0  0
   -0.6806   -1.6507    0.0041 C   0  0  0  0  0  0  0  0  0  0  0  0
   -2.5803    4.5504   -1.0410 H   0  0  0  0  0  0  0  0  0  0  0  0
    1.0810    1.8413   -0.0268 H   0  0  0  0  0  0  0  0  0  0  0  0
    2.3313   -0.1850    0.4879 H   0  0  0  0  0  0  0  0  0  0  0  0
    1.2509   -2.4203    0.5159 H   0  0  0  0  0  0  0  0  0  0  0  0
   -1.2014   -2.6048    0.0045 H   0  0  0  0  0  0  0  0  0  0  0  0
   -3.2557    5.6196   -1.2764 Cl  0  0  0  0  0  0  0  0  0  0  0  0
  1  8  1  0  0  0  0
  2  1  1  0  0  0  0
  3  2  1  0  0  0  0
  4  1  2  0  0  0  0
  4  5  1  0  0  0  0
  5 10  1  0  0  0  0
  5  6  2  0  0  0  0
  6  7  1  0  0  0  0
  6 11  1  0  0  0  0
  7 12  1  0  0  0  0
  8 13  1  0  0  0  0
  8  7  2  0  0  0  0
 14  9  1  0  0  0  0
M  RAD  3   2   2   3   3   4   2
M  END
