Coordinates from ORCA-job PhN2+~Cl-_B3LYPG-6-31G_dp-CH-Scan-d09-49-n800
 OpenBabel11261919593D

 14 13  0  0  0  0  0  0  0  0999 V2000
   -1.3788   -0.1085   -0.3164 C   0  0  0  0  0  0  0  0  0  0  0  0
   -2.7350   -0.0753   -0.6063 N   0  0  0  0  0  0  0  0  0  0  0  0
   -3.8246    0.0130   -0.8457 N   0  0  0  0  0  0  0  0  0  0  0  0
   -0.7852    1.1658   -0.3309 C   0  0  0  0  0  0  0  0  0  0  0  0
    0.5983    1.0591   -0.0250 C   0  0  0  0  0  0  0  0  0  0  0  0
    1.2353   -0.1484    0.2443 C   0  0  0  0  0  0  0  0  0  0  0  0
    0.5349   -1.3803    0.2304 C   0  0  0  0  0  0  0  0  0  0  0  0
   -0.8114   -1.3862   -0.0555 C   0  0  0  0  0  0  0  0  0  0  0  0
   -2.1793    3.2669   -0.8382 H   0  0  0  0  0  0  0  0  0  0  0  0
    1.2002    1.9671    0.0029 H   0  0  0  0  0  0  0  0  0  0  0  0
    2.2990   -0.1609    0.4746 H   0  0  0  0  0  0  0  0  0  0  0  0
    1.0540   -2.3088    0.4440 H   0  0  0  0  0  0  0  0  0  0  0  0
   -1.3989   -2.2998   -0.0797 H   0  0  0  0  0  0  0  0  0  0  0  0
   -3.0588    4.1899   -1.1117 Cl  0  0  0  0  0  0  0  0  0  0  0  0
  1  8  1  0  0  0  0
  2  1  1  0  0  0  0
  3  2  1  0  0  0  0
  4  1  2  0  0  0  0
  4  5  1  0  0  0  0
  5 10  1  0  0  0  0
  5  6  2  0  0  0  0
  6 11  1  0  0  0  0
  7  6  1  0  0  0  0
  7 12  1  0  0  0  0
  8  7  2  0  0  0  0
 13  8  1  0  0  0  0
 14  9  1  0  0  0  0
M  RAD  3   2   2   3   3   4   2
M  END
