Coordinates from ORCA-job PhN2+~Cl-_B3LYPG-6-31G_dp-CH-Scan-d09-49-n800
 OpenBabel11261919593D

 14 13  0  0  0  0  0  0  0  0999 V2000
   -1.3551   -0.2358   -0.3014 C   0  0  0  0  0  0  0  0  0  0  0  0
   -2.7141   -0.2373   -0.5899 N   0  0  0  0  0  0  0  0  0  0  0  0
   -3.8058   -0.1703   -0.8303 N   0  0  0  0  0  0  0  0  0  0  0  0
   -0.8055    1.0568   -0.3306 C   0  0  0  0  0  0  0  0  0  0  0  0
    0.5836    0.9862   -0.0255 C   0  0  0  0  0  0  0  0  0  0  0  0
    1.2546   -0.1999    0.2538 C   0  0  0  0  0  0  0  0  0  0  0  0
    0.5892   -1.4523    0.2530 C   0  0  0  0  0  0  0  0  0  0  0  0
   -0.7565   -1.4976   -0.0303 C   0  0  0  0  0  0  0  0  0  0  0  0
   -2.3837    3.8018   -0.9316 H   0  0  0  0  0  0  0  0  0  0  0  0
    1.1635    1.9093   -0.0063 H   0  0  0  0  0  0  0  0  0  0  0  0
    2.3189   -0.1811    0.4823 H   0  0  0  0  0  0  0  0  0  0  0  0
    1.1350   -2.3636    0.4742 H   0  0  0  0  0  0  0  0  0  0  0  0
   -1.3198   -2.4268   -0.0452 H   0  0  0  0  0  0  0  0  0  0  0  0
   -3.1548    4.8042   -1.1853 Cl  0  0  0  0  0  0  0  0  0  0  0  0
  1  8  1  0  0  0  0
  2  1  1  0  0  0  0
  3  2  1  0  0  0  0
  4  1  2  0  0  0  0
  4  5  1  0  0  0  0
  5 10  1  0  0  0  0
  5  6  2  0  0  0  0
  6 11  1  0  0  0  0
  7  6  1  0  0  0  0
  7 12  1  0  0  0  0
  8  7  2  0  0  0  0
 13  8  1  0  0  0  0
 14  9  1  0  0  0  0
M  RAD  3   2   2   3   3   4   2
M  END
