Coordinates from ORCA-job PhN2+~Cl-_B3LYPG-6-31G_dp-CH-Scan-d09-49-n800
 OpenBabel11261919593D

 14 13  0  0  0  0  0  0  0  0999 V2000
   -1.4696    0.0780   -0.3530 C   0  0  0  0  0  0  0  0  0  0  0  0
   -2.8464    0.0812   -0.6438 N   0  0  0  0  0  0  0  0  0  0  0  0
   -3.7670    0.7436   -0.9066 N   0  0  0  0  0  0  0  0  0  0  0  0
   -0.7187    1.2595   -0.3224 C   0  0  0  0  0  0  0  0  0  0  0  0
    0.6373    1.1739   -0.0260 C   0  0  0  0  0  0  0  0  0  0  0  0
    1.2244   -0.0693    0.2335 C   0  0  0  0  0  0  0  0  0  0  0  0
    0.4613   -1.2420    0.1985 C   0  0  0  0  0  0  0  0  0  0  0  0
   -0.8957   -1.1760   -0.0963 C   0  0  0  0  0  0  0  0  0  0  0  0
   -1.3214    2.3451   -0.5668 H   0  0  0  0  0  0  0  0  0  0  0  0
    1.2379    2.0772    0.0038 H   0  0  0  0  0  0  0  0  0  0  0  0
    2.2836   -0.1251    0.4663 H   0  0  0  0  0  0  0  0  0  0  0  0
    0.9241   -2.2019    0.4017 H   0  0  0  0  0  0  0  0  0  0  0  0
   -1.5161   -2.0651   -0.1313 H   0  0  0  0  0  0  0  0  0  0  0  0
   -3.4841    2.9146   -1.0710 Cl  0  0  0  0  0  0  0  0  0  0  0  0
  1  4  2  0  0  0  0
  1  8  1  0  0  0  0
  2  1  1  0  0  0  0
  3  2  2  0  0  0  0
  4  5  1  0  0  0  0
  5 10  1  0  0  0  0
  5  6  2  0  0  0  0
  6 11  1  0  0  0  0
  7  6  1  0  0  0  0
  7 12  1  0  0  0  0
  8  7  2  0  0  0  0
  9  4  1  0  0  0  0
 13  8  1  0  0  0  0
M  RAD  2   3   2  14   2
M  END
