Coordinates from ORCA-job PhN2+~Cl-_B3LYPG-6-31G_dp-CH-Scan-d09-49-n800
 OpenBabel11261919593D

 14 13  0  0  0  0  0  0  0  0999 V2000
   -1.4071   -0.0467   -0.3276 C   0  0  0  0  0  0  0  0  0  0  0  0
   -2.7629   -0.0056   -0.6180 N   0  0  0  0  0  0  0  0  0  0  0  0
   -3.8505    0.0946   -0.8579 N   0  0  0  0  0  0  0  0  0  0  0  0
   -0.7990    1.2205   -0.3373 C   0  0  0  0  0  0  0  0  0  0  0  0
    0.5812    1.1120   -0.0326 C   0  0  0  0  0  0  0  0  0  0  0  0
    1.2110   -0.1006    0.2341 C   0  0  0  0  0  0  0  0  0  0  0  0
    0.5031   -1.3269    0.2170 C   0  0  0  0  0  0  0  0  0  0  0  0
   -0.8438   -1.3252   -0.0691 C   0  0  0  0  0  0  0  0  0  0  0  0
   -1.9994    2.9228   -0.7653 H   0  0  0  0  0  0  0  0  0  0  0  0
    1.1843    2.0184   -0.0036 H   0  0  0  0  0  0  0  0  0  0  0  0
    2.2744   -0.1194    0.4642 H   0  0  0  0  0  0  0  0  0  0  0  0
    1.0163   -2.2591    0.4283 H   0  0  0  0  0  0  0  0  0  0  0  0
   -1.4355   -2.2358   -0.0952 H   0  0  0  0  0  0  0  0  0  0  0  0
   -2.9224    3.8446   -1.0506 Cl  0  0  0  0  0  0  0  0  0  0  0  0
  1  8  1  0  0  0  0
  2  1  1  0  0  0  0
  3  2  1  0  0  0  0
  4  1  2  0  0  0  0
  4  5  1  0  0  0  0
  5 10  1  0  0  0  0
  5  6  2  0  0  0  0
  6 11  1  0  0  0  0
  7  6  1  0  0  0  0
  7 12  1  0  0  0  0
  8  7  2  0  0  0  0
 13  8  1  0  0  0  0
 14  9  1  0  0  0  0
M  RAD  3   2   2   3   3   4   2
M  END
