Coordinates from ORCA-job PhN2+~Cl-_B3LYPG-6-31G_dp-CH-Scan-d09-49-n800
 OpenBabel11261919593D

 14 13  0  0  0  0  0  0  0  0999 V2000
   -1.4157   -0.0317   -0.3306 C   0  0  0  0  0  0  0  0  0  0  0  0
   -2.7717    0.0117   -0.6211 N   0  0  0  0  0  0  0  0  0  0  0  0
   -3.8582    0.1184   -0.8612 N   0  0  0  0  0  0  0  0  0  0  0  0
   -0.8039    1.2333   -0.3389 C   0  0  0  0  0  0  0  0  0  0  0  0
    0.5751    1.1266   -0.0348 C   0  0  0  0  0  0  0  0  0  0  0  0
    1.2039   -0.0870    0.2312 C   0  0  0  0  0  0  0  0  0  0  0  0
    0.4949   -1.3121    0.2134 C   0  0  0  0  0  0  0  0  0  0  0  0
   -0.8524   -1.3096   -0.0727 C   0  0  0  0  0  0  0  0  0  0  0  0
   -1.9446    2.8271   -0.7441 H   0  0  0  0  0  0  0  0  0  0  0  0
    1.1773    2.0334   -0.0058 H   0  0  0  0  0  0  0  0  0  0  0  0
    2.2672   -0.1067    0.4611 H   0  0  0  0  0  0  0  0  0  0  0  0
    1.0072   -2.2449    0.4240 H   0  0  0  0  0  0  0  0  0  0  0  0
   -1.4444   -2.2198   -0.0992 H   0  0  0  0  0  0  0  0  0  0  0  0
   -2.8849    3.7547   -1.0347 Cl  0  0  0  0  0  0  0  0  0  0  0  0
  1  8  1  0  0  0  0
  2  1  1  0  0  0  0
  3  2  1  0  0  0  0
  4  1  2  0  0  0  0
  4  5  1  0  0  0  0
  5 10  1  0  0  0  0
  5  6  2  0  0  0  0
  6 11  1  0  0  0  0
  7  6  1  0  0  0  0
  7 12  1  0  0  0  0
  8  7  2  0  0  0  0
 13  8  1  0  0  0  0
 14  9  1  0  0  0  0
M  RAD  3   2   2   3   3   4   2
M  END
