Coordinates from ORCA-job PhN2+~Cl-_B3LYPG-6-31G_dp-CH-Scan-d09-49-n800
 OpenBabel11261919593D

 14 13  0  0  0  0  0  0  0  0999 V2000
   -1.3644   -0.1740   -0.3084 C   0  0  0  0  0  0  0  0  0  0  0  0
   -2.7219   -0.1574   -0.5978 N   0  0  0  0  0  0  0  0  0  0  0  0
   -3.8129   -0.0811   -0.8371 N   0  0  0  0  0  0  0  0  0  0  0  0
   -0.7923    1.1096   -0.3301 C   0  0  0  0  0  0  0  0  0  0  0  0
    0.5941    1.0192   -0.0243 C   0  0  0  0  0  0  0  0  0  0  0  0
    1.2474   -0.1782    0.2501 C   0  0  0  0  0  0  0  0  0  0  0  0
    0.5635   -1.4201    0.2425 C   0  0  0  0  0  0  0  0  0  0  0  0
   -0.7825   -1.4446   -0.0424 C   0  0  0  0  0  0  0  0  0  0  0  0
   -2.2971    3.5515   -0.8901 H   0  0  0  0  0  0  0  0  0  0  0  0
    1.1861    1.9342   -0.0005 H   0  0  0  0  0  0  0  0  0  0  0  0
    2.3114   -0.1758    0.4798 H   0  0  0  0  0  0  0  0  0  0  0  0
    1.0954   -2.3405    0.4599 H   0  0  0  0  0  0  0  0  0  0  0  0
   -1.3587   -2.3656   -0.0622 H   0  0  0  0  0  0  0  0  0  0  0  0
   -3.1183    4.5165   -1.1527 Cl  0  0  0  0  0  0  0  0  0  0  0  0
  1  8  1  0  0  0  0
  2  1  1  0  0  0  0
  3  2  1  0  0  0  0
  4  1  2  0  0  0  0
  4  5  1  0  0  0  0
  5 10  1  0  0  0  0
  5  6  2  0  0  0  0
  6 11  1  0  0  0  0
  7  6  1  0  0  0  0
  7 12  1  0  0  0  0
  8  7  2  0  0  0  0
 13  8  1  0  0  0  0
 14  9  1  0  0  0  0
M  RAD  3   2   2   3   3   4   2
M  END
