Coordinates from ORCA-job PhN2+~Cl-_B3LYPG-6-31G_dp-CH-Scan-d09-49-n800
 OpenBabel11261919593D

 14 14  0  0  0  0  0  0  0  0999 V2000
   -1.4778    0.0924   -0.3569 C   0  0  0  0  0  0  0  0  0  0  0  0
   -2.8552    0.0775   -0.6467 N   0  0  0  0  0  0  0  0  0  0  0  0
   -3.7766    0.7454   -0.9093 N   0  0  0  0  0  0  0  0  0  0  0  0
   -0.7246    1.2758   -0.3263 C   0  0  0  0  0  0  0  0  0  0  0  0
    0.6322    1.1811   -0.0282 C   0  0  0  0  0  0  0  0  0  0  0  0
    1.2201   -0.0607    0.2321 C   0  0  0  0  0  0  0  0  0  0  0  0
    0.4551   -1.2311    0.1966 C   0  0  0  0  0  0  0  0  0  0  0  0
   -0.9014   -1.1602   -0.0993 C   0  0  0  0  0  0  0  0  0  0  0  0
   -1.2327    2.2624   -0.5412 H   0  0  0  0  0  0  0  0  0  0  0  0
    1.2332    2.0842    0.0013 H   0  0  0  0  0  0  0  0  0  0  0  0
    2.2791   -0.1166    0.4653 H   0  0  0  0  0  0  0  0  0  0  0  0
    0.9148   -2.1926    0.3997 H   0  0  0  0  0  0  0  0  0  0  0  0
   -1.5237   -2.0478   -0.1349 H   0  0  0  0  0  0  0  0  0  0  0  0
   -3.4927    2.8838   -1.0657 Cl  0  0  0  0  0  0  0  0  0  0  0  0
  1  4  2  0  0  0  0
  1  8  1  0  0  0  0
  2  1  1  0  0  0  0
  3  2  2  0  0  0  0
  4  5  1  0  0  0  0
  5 10  1  0  0  0  0
  5  6  2  0  0  0  0
  6 11  1  0  0  0  0
  7  6  1  0  0  0  0
  7 12  1  0  0  0  0
  8  7  2  0  0  0  0
  9  4  1  0  0  0  0
 13  8  1  0  0  0  0
 14  3  1  0  0  0  0
M  END
