Coordinates from ORCA-job PhN2+~Cl-_B3LYPG-6-31G_dp-CH-Scan-d09-49-n800
 OpenBabel11261919593D

 14 13  0  0  0  0  0  0  0  0999 V2000
   -1.3333   -0.4343   -0.2815 C   0  0  0  0  0  0  0  0  0  0  0  0
   -2.6946   -0.5002   -0.5671 N   0  0  0  0  0  0  0  0  0  0  0  0
   -3.7889   -0.4727   -0.8056 N   0  0  0  0  0  0  0  0  0  0  0  0
   -0.8567    0.8841   -0.3333 C   0  0  0  0  0  0  0  0  0  0  0  0
    0.5365    0.8871   -0.0311 C   0  0  0  0  0  0  0  0  0  0  0  0
    1.2680   -0.2588    0.2632 C   0  0  0  0  0  0  0  0  0  0  0  0
    0.6676   -1.5441    0.2838 C   0  0  0  0  0  0  0  0  0  0  0  0
   -0.6749   -1.6618    0.0059 C   0  0  0  0  0  0  0  0  0  0  0  0
   -2.5895    4.6024   -1.0481 H   0  0  0  0  0  0  0  0  0  0  0  0
    1.0712    1.8380   -0.0272 H   0  0  0  0  0  0  0  0  0  0  0  0
    2.3308   -0.1825    0.4876 H   0  0  0  0  0  0  0  0  0  0  0  0
    1.2604   -2.4225    0.5170 H   0  0  0  0  0  0  0  0  0  0  0  0
   -1.1913   -2.6182    0.0070 H   0  0  0  0  0  0  0  0  0  0  0  0
   -3.2557    5.6772   -1.2839 Cl  0  0  0  0  0  0  0  0  0  0  0  0
  1  8  1  0  0  0  0
  2  1  1  0  0  0  0
  3  2  1  0  0  0  0
  4  1  2  0  0  0  0
  4  5  1  0  0  0  0
  5 10  1  0  0  0  0
  5  6  2  0  0  0  0
  6  7  1  0  0  0  0
  6 11  1  0  0  0  0
  7 12  1  0  0  0  0
  8 13  1  0  0  0  0
  8  7  2  0  0  0  0
 14  9  1  0  0  0  0
M  RAD  3   2   2   3   3   4   2
M  END
