Coordinates from ORCA-job PhN2+~Cl-_B3LYPG-6-31G_dp-CH-Scan-d09-49-n800
 OpenBabel11261919593D

 14 13  0  0  0  0  0  0  0  0999 V2000
   -1.3365   -0.3537   -0.2901 C   0  0  0  0  0  0  0  0  0  0  0  0
   -2.6973   -0.3882   -0.5786 N   0  0  0  0  0  0  0  0  0  0  0  0
   -3.7903   -0.3392   -0.8191 N   0  0  0  0  0  0  0  0  0  0  0  0
   -0.8265    0.9533   -0.3346 C   0  0  0  0  0  0  0  0  0  0  0  0
    0.5654    0.9212   -0.0295 C   0  0  0  0  0  0  0  0  0  0  0  0
    1.2681   -0.2435    0.2613 C   0  0  0  0  0  0  0  0  0  0  0  0
    0.6367   -1.5138    0.2747 C   0  0  0  0  0  0  0  0  0  0  0  0
   -0.7075   -1.5977   -0.0068 C   0  0  0  0  0  0  0  0  0  0  0  0
   -2.5327    4.2970   -1.0070 H   0  0  0  0  0  0  0  0  0  0  0  0
    1.1225    1.8589   -0.0202 H   0  0  0  0  0  0  0  0  0  0  0  0
    2.3319   -0.1940    0.4885 H   0  0  0  0  0  0  0  0  0  0  0  0
    1.2073   -2.4075    0.5051 H   0  0  0  0  0  0  0  0  0  0  0  0
   -1.2468   -2.5413   -0.0113 H   0  0  0  0  0  0  0  0  0  0  0  0
   -3.2446    5.3420   -1.2458 Cl  0  0  0  0  0  0  0  0  0  0  0  0
  1  8  1  0  0  0  0
  2  1  1  0  0  0  0
  3  2  1  0  0  0  0
  4  1  2  0  0  0  0
  4  5  1  0  0  0  0
  5 10  1  0  0  0  0
  5  6  2  0  0  0  0
  6  7  1  0  0  0  0
  6 11  1  0  0  0  0
  7 12  1  0  0  0  0
  8  7  2  0  0  0  0
 13  8  1  0  0  0  0
 14  9  1  0  0  0  0
M  RAD  3   2   2   3   3   4   2
M  END
