Coordinates from ORCA-job PhN2+~Cl-_B3LYPG-6-31G_dp-CH-Scan-d09-49-n800
 OpenBabel11261919593D

 14 13  0  0  0  0  0  0  0  0999 V2000
   -1.3654   -0.1692   -0.3084 C   0  0  0  0  0  0  0  0  0  0  0  0
   -2.7230   -0.1515   -0.5973 N   0  0  0  0  0  0  0  0  0  0  0  0
   -3.8128   -0.0737   -0.8414 N   0  0  0  0  0  0  0  0  0  0  0  0
   -0.7916    1.1137   -0.3302 C   0  0  0  0  0  0  0  0  0  0  0  0
    0.5948    1.0220   -0.0248 C   0  0  0  0  0  0  0  0  0  0  0  0
    1.2467   -0.1762    0.2494 C   0  0  0  0  0  0  0  0  0  0  0  0
    0.5614   -1.4173    0.2419 C   0  0  0  0  0  0  0  0  0  0  0  0
   -0.7847   -1.4404   -0.0426 C   0  0  0  0  0  0  0  0  0  0  0  0
   -2.2895    3.5310   -0.8858 H   0  0  0  0  0  0  0  0  0  0  0  0
    1.1877    1.9363   -0.0011 H   0  0  0  0  0  0  0  0  0  0  0  0
    2.3108   -0.1751    0.4788 H   0  0  0  0  0  0  0  0  0  0  0  0
    1.0922   -2.3383    0.4592 H   0  0  0  0  0  0  0  0  0  0  0  0
   -1.3619   -2.3608   -0.0622 H   0  0  0  0  0  0  0  0  0  0  0  0
   -3.1148    4.4930   -1.1487 Cl  0  0  0  0  0  0  0  0  0  0  0  0
  1  8  1  0  0  0  0
  2  1  1  0  0  0  0
  3  2  1  0  0  0  0
  4  1  2  0  0  0  0
  4  5  1  0  0  0  0
  5 10  1  0  0  0  0
  5  6  2  0  0  0  0
  6 11  1  0  0  0  0
  7  6  1  0  0  0  0
  7 12  1  0  0  0  0
  8  7  2  0  0  0  0
 13  8  1  0  0  0  0
 14  9  1  0  0  0  0
M  RAD  3   2   2   3   3   4   2
M  END
