Coordinates from ORCA-job PhN2+~Cl-_B3LYPG-6-31G_dp-CH-Scan-d09-49-n800
 OpenBabel11261919593D

 14 13  0  0  0  0  0  0  0  0999 V2000
   -1.3615   -0.1835   -0.3076 C   0  0  0  0  0  0  0  0  0  0  0  0
   -2.7191   -0.1689   -0.5974 N   0  0  0  0  0  0  0  0  0  0  0  0
   -3.8100   -0.0922   -0.8375 N   0  0  0  0  0  0  0  0  0  0  0  0
   -0.7920    1.1012   -0.3310 C   0  0  0  0  0  0  0  0  0  0  0  0
    0.5948    1.0126   -0.0248 C   0  0  0  0  0  0  0  0  0  0  0  0
    1.2497   -0.1835    0.2511 C   0  0  0  0  0  0  0  0  0  0  0  0
    0.5677   -1.4265    0.2451 C   0  0  0  0  0  0  0  0  0  0  0  0
   -0.7782   -1.4532   -0.0400 C   0  0  0  0  0  0  0  0  0  0  0  0
   -2.3164    3.5954   -0.8976 H   0  0  0  0  0  0  0  0  0  0  0  0
    1.1859    1.9283   -0.0020 H   0  0  0  0  0  0  0  0  0  0  0  0
    2.3137   -0.1793    0.4809 H   0  0  0  0  0  0  0  0  0  0  0  0
    1.1009   -2.3458    0.4637 H   0  0  0  0  0  0  0  0  0  0  0  0
   -1.3532   -2.3750   -0.0588 H   0  0  0  0  0  0  0  0  0  0  0  0
   -3.1325    4.5641   -1.1576 Cl  0  0  0  0  0  0  0  0  0  0  0  0
  1  8  1  0  0  0  0
  2  1  1  0  0  0  0
  3  2  1  0  0  0  0
  4  1  2  0  0  0  0
  4  5  1  0  0  0  0
  5 10  1  0  0  0  0
  5  6  2  0  0  0  0
  6 11  1  0  0  0  0
  7  6  1  0  0  0  0
  7 12  1  0  0  0  0
  8  7  2  0  0  0  0
 13  8  1  0  0  0  0
 14  9  1  0  0  0  0
M  RAD  3   2   2   3   3   4   2
M  END
