Coordinates from ORCA-job PhN2+~Cl-_B3LYPG-6-31G_dp-CH-Scan-d09-49-n800
 OpenBabel11261919593D

 14 13  0  0  0  0  0  0  0  0999 V2000
   -1.3826   -0.0985   -0.3179 C   0  0  0  0  0  0  0  0  0  0  0  0
   -2.7387   -0.0637   -0.6077 N   0  0  0  0  0  0  0  0  0  0  0  0
   -3.8281    0.0264   -0.8470 N   0  0  0  0  0  0  0  0  0  0  0  0
   -0.7865    1.1746   -0.3313 C   0  0  0  0  0  0  0  0  0  0  0  0
    0.5965    1.0668   -0.0256 C   0  0  0  0  0  0  0  0  0  0  0  0
    1.2321   -0.1417    0.2429 C   0  0  0  0  0  0  0  0  0  0  0  0
    0.5300   -1.3726    0.2282 C   0  0  0  0  0  0  0  0  0  0  0  0
   -0.8163   -1.3768   -0.0577 C   0  0  0  0  0  0  0  0  0  0  0  0
   -2.1545    3.2159   -0.8280 H   0  0  0  0  0  0  0  0  0  0  0  0
    1.1991    1.9742    0.0028 H   0  0  0  0  0  0  0  0  0  0  0  0
    2.2957   -0.1557    0.4732 H   0  0  0  0  0  0  0  0  0  0  0  0
    1.0480   -2.3019    0.4411 H   0  0  0  0  0  0  0  0  0  0  0  0
   -1.4047   -2.2897   -0.0825 H   0  0  0  0  0  0  0  0  0  0  0  0
   -3.0403    4.1361   -1.1036 Cl  0  0  0  0  0  0  0  0  0  0  0  0
  1  8  1  0  0  0  0
  2  1  1  0  0  0  0
  3  2  1  0  0  0  0
  4  1  2  0  0  0  0
  4  5  1  0  0  0  0
  5 10  1  0  0  0  0
  5  6  2  0  0  0  0
  6 11  1  0  0  0  0
  7  6  1  0  0  0  0
  7 12  1  0  0  0  0
  8  7  2  0  0  0  0
 13  8  1  0  0  0  0
 14  9  1  0  0  0  0
M  RAD  3   2   2   3   3   4   2
M  END
