Coordinates from ORCA-job PhN2+~Cl-_B3LYPG-6-31G_dp-CH-Scan-d09-49-n800
 OpenBabel11261919593D

 14 13  0  0  0  0  0  0  0  0999 V2000
   -1.3439   -0.5907   -0.2676 C   0  0  0  0  0  0  0  0  0  0  0  0
   -2.7014   -0.7383   -0.5440 N   0  0  0  0  0  0  0  0  0  0  0  0
   -3.7969   -0.7747   -0.7760 N   0  0  0  0  0  0  0  0  0  0  0  0
   -0.9477    0.7526   -0.3361 C   0  0  0  0  0  0  0  0  0  0  0  0
    0.4444    0.8423   -0.0430 C   0  0  0  0  0  0  0  0  0  0  0  0
    1.2445   -0.2547    0.2590 C   0  0  0  0  0  0  0  0  0  0  0  0
    0.7221   -1.5735    0.2964 C   0  0  0  0  0  0  0  0  0  0  0  0
   -0.6127   -1.7740    0.0279 C   0  0  0  0  0  0  0  0  0  0  0  0
   -2.6257    5.1091   -1.0954 H   0  0  0  0  0  0  0  0  0  0  0  0
    0.9224    1.8230   -0.0523 H   0  0  0  0  0  0  0  0  0  0  0  0
    2.3021   -0.1127    0.4759 H   0  0  0  0  0  0  0  0  0  0  0  0
    1.3676   -2.4124    0.5348 H   0  0  0  0  0  0  0  0  0  0  0  0
   -1.0711   -2.7594    0.0419 H   0  0  0  0  0  0  0  0  0  0  0  0
   -3.1540    6.2570   -1.3349 Cl  0  0  0  0  0  0  0  0  0  0  0  0
  1  8  1  0  0  0  0
  2  1  1  0  0  0  0
  3  2  1  0  0  0  0
  4  1  2  0  0  0  0
  4  5  1  0  0  0  0
  5  6  2  0  0  0  0
  6  7  1  0  0  0  0
  6 11  1  0  0  0  0
  7 12  1  0  0  0  0
  8 13  1  0  0  0  0
  8  7  2  0  0  0  0
 10  5  1  0  0  0  0
 14  9  1  0  0  0  0
M  RAD  3   2   2   3   3   4   2
M  END
