Coordinates from ORCA-job PhN2+~Cl-_B3LYPG-6-31G_dp-CH-Scan-d09-49-n800
 OpenBabel11261919593D

 14 13  0  0  0  0  0  0  0  0999 V2000
   -1.4002   -0.0615   -0.3249 C   0  0  0  0  0  0  0  0  0  0  0  0
   -2.7560   -0.0230   -0.6150 N   0  0  0  0  0  0  0  0  0  0  0  0
   -3.8444    0.0722   -0.8545 N   0  0  0  0  0  0  0  0  0  0  0  0
   -0.7959    1.2077   -0.3358 C   0  0  0  0  0  0  0  0  0  0  0  0
    0.5852    1.0991   -0.0307 C   0  0  0  0  0  0  0  0  0  0  0  0
    1.2168   -0.1122    0.2366 C   0  0  0  0  0  0  0  0  0  0  0  0
    0.5108   -1.3400    0.2202 C   0  0  0  0  0  0  0  0  0  0  0  0
   -0.8359   -1.3401   -0.0658 C   0  0  0  0  0  0  0  0  0  0  0  0
   -2.0451    3.0081   -0.7836 H   0  0  0  0  0  0  0  0  0  0  0  0
    1.1883    2.0057   -0.0019 H   0  0  0  0  0  0  0  0  0  0  0  0
    2.2803   -0.1295    0.4668 H   0  0  0  0  0  0  0  0  0  0  0  0
    1.0255   -2.2713    0.4320 H   0  0  0  0  0  0  0  0  0  0  0  0
   -1.4265   -2.2514   -0.0915 H   0  0  0  0  0  0  0  0  0  0  0  0
   -2.9531    3.9298   -1.0653 Cl  0  0  0  0  0  0  0  0  0  0  0  0
  1  8  1  0  0  0  0
  2  1  1  0  0  0  0
  3  2  1  0  0  0  0
  4  1  2  0  0  0  0
  4  5  1  0  0  0  0
  5 10  1  0  0  0  0
  5  6  2  0  0  0  0
  6 11  1  0  0  0  0
  7  6  1  0  0  0  0
  7 12  1  0  0  0  0
  8  7  2  0  0  0  0
 13  8  1  0  0  0  0
 14  9  1  0  0  0  0
M  RAD  3   2   2   3   3   4   2
M  END
