Coordinates from ORCA-job PhN2+~Cl-_B3LYPG-6-31G_dp-CH-Scan-d09-49-n800
 OpenBabel11261919593D

 14 13  0  0  0  0  0  0  0  0999 V2000
   -1.3336   -0.4432   -0.2803 C   0  0  0  0  0  0  0  0  0  0  0  0
   -2.6948   -0.5133   -0.5654 N   0  0  0  0  0  0  0  0  0  0  0  0
   -3.7893   -0.4892   -0.8035 N   0  0  0  0  0  0  0  0  0  0  0  0
   -0.8612    0.8767   -0.3327 C   0  0  0  0  0  0  0  0  0  0  0  0
    0.5322    0.8841   -0.0310 C   0  0  0  0  0  0  0  0  0  0  0  0
    1.2673   -0.2594    0.2632 C   0  0  0  0  0  0  0  0  0  0  0  0
    0.6710   -1.5466    0.2843 C   0  0  0  0  0  0  0  0  0  0  0  0
   -0.6713   -1.6686    0.0070 C   0  0  0  0  0  0  0  0  0  0  0  0
   -2.5938    4.6334   -1.0522 H   0  0  0  0  0  0  0  0  0  0  0  0
    1.0639    1.8367   -0.0275 H   0  0  0  0  0  0  0  0  0  0  0  0
    2.3300   -0.1798    0.4871 H   0  0  0  0  0  0  0  0  0  0  0  0
    1.2666   -2.4232    0.5174 H   0  0  0  0  0  0  0  0  0  0  0  0
   -1.1847   -2.6266    0.0085 H   0  0  0  0  0  0  0  0  0  0  0  0
   -3.2525    5.7128   -1.2882 Cl  0  0  0  0  0  0  0  0  0  0  0  0
  1  8  1  0  0  0  0
  2  1  1  0  0  0  0
  3  2  1  0  0  0  0
  4  1  2  0  0  0  0
  4  5  1  0  0  0  0
  5 10  1  0  0  0  0
  5  6  2  0  0  0  0
  6  7  1  0  0  0  0
  6 11  1  0  0  0  0
  7 12  1  0  0  0  0
  8 13  1  0  0  0  0
  8  7  2  0  0  0  0
 14  9  1  0  0  0  0
M  RAD  3   2   2   3   3   4   2
M  END
