Coordinates from ORCA-job PhN2+~Cl-_B3LYPG-6-31G_dp-CH-Scan-d09-49-n800
 OpenBabel11261919593D

 14 13  0  0  0  0  0  0  0  0999 V2000
   -1.4324   -0.0064   -0.3367 C   0  0  0  0  0  0  0  0  0  0  0  0
   -2.7888    0.0440   -0.6281 N   0  0  0  0  0  0  0  0  0  0  0  0
   -3.8713    0.1754   -0.8702 N   0  0  0  0  0  0  0  0  0  0  0  0
   -0.8115    1.2530   -0.3425 C   0  0  0  0  0  0  0  0  0  0  0  0
    0.5644    1.1535   -0.0398 C   0  0  0  0  0  0  0  0  0  0  0  0
    1.1914   -0.0620    0.2259 C   0  0  0  0  0  0  0  0  0  0  0  0
    0.4804   -1.2845    0.2074 C   0  0  0  0  0  0  0  0  0  0  0  0
   -0.8680   -1.2816   -0.0788 C   0  0  0  0  0  0  0  0  0  0  0  0
   -1.8327    2.6422   -0.7015 H   0  0  0  0  0  0  0  0  0  0  0  0
    1.1629    2.0622   -0.0118 H   0  0  0  0  0  0  0  0  0  0  0  0
    2.2544   -0.0829    0.4558 H   0  0  0  0  0  0  0  0  0  0  0  0
    0.9912   -2.2182    0.4178 H   0  0  0  0  0  0  0  0  0  0  0  0
   -1.4598   -2.1916   -0.1053 H   0  0  0  0  0  0  0  0  0  0  0  0
   -2.8306    3.5904   -1.0054 Cl  0  0  0  0  0  0  0  0  0  0  0  0
  1  8  1  0  0  0  0
  2  1  1  0  0  0  0
  3  2  1  0  0  0  0
  4  1  2  0  0  0  0
  4  5  1  0  0  0  0
  5 10  1  0  0  0  0
  5  6  2  0  0  0  0
  6 11  1  0  0  0  0
  7  6  1  0  0  0  0
  7 12  1  0  0  0  0
  8  7  2  0  0  0  0
 13  8  1  0  0  0  0
 14  9  1  0  0  0  0
M  RAD  3   2   2   3   3   4   2
M  END
