Coordinates from ORCA-job PhN2+~Cl-_B3LYPG-6-31G_dp-CH-Scan-d09-49-n800
 OpenBabel11261919593D

 14 13  0  0  0  0  0  0  0  0999 V2000
   -1.4380    0.0050   -0.3387 C   0  0  0  0  0  0  0  0  0  0  0  0
   -2.7957    0.0771   -0.6326 N   0  0  0  0  0  0  0  0  0  0  0  0
   -3.8623    0.2961   -0.8806 N   0  0  0  0  0  0  0  0  0  0  0  0
   -0.8079    1.2575   -0.3414 C   0  0  0  0  0  0  0  0  0  0  0  0
    0.5650    1.1669   -0.0408 C   0  0  0  0  0  0  0  0  0  0  0  0
    1.1891   -0.0515    0.2242 C   0  0  0  0  0  0  0  0  0  0  0  0
    0.4755   -1.2709    0.2047 C   0  0  0  0  0  0  0  0  0  0  0  0
   -0.8746   -1.2668   -0.0819 C   0  0  0  0  0  0  0  0  0  0  0  0
   -1.7639    2.5107   -0.6738 H   0  0  0  0  0  0  0  0  0  0  0  0
    1.1602    2.0771   -0.0134 H   0  0  0  0  0  0  0  0  0  0  0  0
    2.2517   -0.0743    0.4541 H   0  0  0  0  0  0  0  0  0  0  0  0
    0.9845   -2.2055    0.4146 H   0  0  0  0  0  0  0  0  0  0  0  0
   -1.4672   -2.1760   -0.1087 H   0  0  0  0  0  0  0  0  0  0  0  0
   -2.8666    3.4482   -0.9989 Cl  0  0  0  0  0  0  0  0  0  0  0  0
  1  8  1  0  0  0  0
  2  1  1  0  0  0  0
  3  2  1  0  0  0  0
  4  1  2  0  0  0  0
  4  5  1  0  0  0  0
  5 10  1  0  0  0  0
  5  6  2  0  0  0  0
  6 11  1  0  0  0  0
  7  6  1  0  0  0  0
  7 12  1  0  0  0  0
  8  7  2  0  0  0  0
 13  8  1  0  0  0  0
 14  9  1  0  0  0  0
M  RAD  3   2   2   3   3   4   2
M  END
