Coordinates from ORCA-job PhN2+~Cl-_B3LYPG-6-31G_dp-CH-Scan-d09-49-n800
 OpenBabel11261919593D

 14 13  0  0  0  0  0  0  0  0999 V2000
   -1.3605   -0.1858   -0.3076 C   0  0  0  0  0  0  0  0  0  0  0  0
   -2.7182   -0.1712   -0.5973 N   0  0  0  0  0  0  0  0  0  0  0  0
   -3.8091   -0.0943   -0.8371 N   0  0  0  0  0  0  0  0  0  0  0  0
   -0.7913    1.0991   -0.3314 C   0  0  0  0  0  0  0  0  0  0  0  0
    0.5955    1.0107   -0.0249 C   0  0  0  0  0  0  0  0  0  0  0  0
    1.2505   -0.1851    0.2515 C   0  0  0  0  0  0  0  0  0  0  0  0
    0.5687   -1.4283    0.2458 C   0  0  0  0  0  0  0  0  0  0  0  0
   -0.7771   -1.4553   -0.0395 C   0  0  0  0  0  0  0  0  0  0  0  0
   -2.3222    3.6069   -0.8997 H   0  0  0  0  0  0  0  0  0  0  0  0
    1.1864    1.9265   -0.0022 H   0  0  0  0  0  0  0  0  0  0  0  0
    2.3145   -0.1808    0.4816 H   0  0  0  0  0  0  0  0  0  0  0  0
    1.1021   -2.3474    0.4648 H   0  0  0  0  0  0  0  0  0  0  0  0
   -1.3520   -2.3772   -0.0581 H   0  0  0  0  0  0  0  0  0  0  0  0
   -3.1376    4.5759   -1.1591 Cl  0  0  0  0  0  0  0  0  0  0  0  0
  1  8  1  0  0  0  0
  2  1  1  0  0  0  0
  3  2  1  0  0  0  0
  4  1  2  0  0  0  0
  4  5  1  0  0  0  0
  5 10  1  0  0  0  0
  5  6  2  0  0  0  0
  6 11  1  0  0  0  0
  7  6  1  0  0  0  0
  7 12  1  0  0  0  0
  8  7  2  0  0  0  0
 13  8  1  0  0  0  0
 14  9  1  0  0  0  0
M  RAD  3   2   2   3   3   4   2
M  END
