Coordinates from ORCA-job PhN2+~Cl-_B3LYPG-6-31G_dp-CH-Scan-d09-49-n800
 OpenBabel11261919593D

 14 13  0  0  0  0  0  0  0  0999 V2000
   -1.4690    0.0770   -0.3528 C   0  0  0  0  0  0  0  0  0  0  0  0
   -2.8458    0.0812   -0.6437 N   0  0  0  0  0  0  0  0  0  0  0  0
   -3.7663    0.7434   -0.9065 N   0  0  0  0  0  0  0  0  0  0  0  0
   -0.7184    1.2586   -0.3222 C   0  0  0  0  0  0  0  0  0  0  0  0
    0.6376    1.1733   -0.0259 C   0  0  0  0  0  0  0  0  0  0  0  0
    1.2246   -0.0700    0.2336 C   0  0  0  0  0  0  0  0  0  0  0  0
    0.4617   -1.2427    0.1987 C   0  0  0  0  0  0  0  0  0  0  0  0
   -0.8953   -1.1771   -0.0961 C   0  0  0  0  0  0  0  0  0  0  0  0
   -1.3275    2.3517   -0.5688 H   0  0  0  0  0  0  0  0  0  0  0  0
    1.2383    2.0765    0.0039 H   0  0  0  0  0  0  0  0  0  0  0  0
    2.2839   -0.1257    0.4665 H   0  0  0  0  0  0  0  0  0  0  0  0
    0.9247   -2.2026    0.4019 H   0  0  0  0  0  0  0  0  0  0  0  0
   -1.5156   -2.0663   -0.1311 H   0  0  0  0  0  0  0  0  0  0  0  0
   -3.4833    2.9162   -1.0708 Cl  0  0  0  0  0  0  0  0  0  0  0  0
  1  4  2  0  0  0  0
  1  8  1  0  0  0  0
  2  1  1  0  0  0  0
  3  2  2  0  0  0  0
  4  5  1  0  0  0  0
  5 10  1  0  0  0  0
  5  6  2  0  0  0  0
  6 11  1  0  0  0  0
  7  6  1  0  0  0  0
  7 12  1  0  0  0  0
  8  7  2  0  0  0  0
  9  4  1  0  0  0  0
 13  8  1  0  0  0  0
M  RAD  2   3   2  14   2
M  END
