Coordinates from ORCA-job PhN2+~Cl-_B3LYPG-6-31G_dp-CH-Scan-d09-49-n800
 OpenBabel11261919593D

 14 13  0  0  0  0  0  0  0  0999 V2000
   -1.3334   -0.4296   -0.2821 C   0  0  0  0  0  0  0  0  0  0  0  0
   -2.6946   -0.4937   -0.5680 N   0  0  0  0  0  0  0  0  0  0  0  0
   -3.7888   -0.4650   -0.8066 N   0  0  0  0  0  0  0  0  0  0  0  0
   -0.8547    0.8883   -0.3337 C   0  0  0  0  0  0  0  0  0  0  0  0
    0.5385    0.8889   -0.0312 C   0  0  0  0  0  0  0  0  0  0  0  0
    1.2681   -0.2581    0.2632 C   0  0  0  0  0  0  0  0  0  0  0  0
    0.6658   -1.5425    0.2835 C   0  0  0  0  0  0  0  0  0  0  0  0
   -0.6768   -1.6581    0.0053 C   0  0  0  0  0  0  0  0  0  0  0  0
   -2.5865    4.5852   -1.0458 H   0  0  0  0  0  0  0  0  0  0  0  0
    1.0746    1.8390   -0.0271 H   0  0  0  0  0  0  0  0  0  0  0  0
    2.3310   -0.1834    0.4877 H   0  0  0  0  0  0  0  0  0  0  0  0
    1.2572   -2.4219    0.5167 H   0  0  0  0  0  0  0  0  0  0  0  0
   -1.1947   -2.6137    0.0061 H   0  0  0  0  0  0  0  0  0  0  0  0
   -3.2559    5.6581   -1.2814 Cl  0  0  0  0  0  0  0  0  0  0  0  0
  1  8  1  0  0  0  0
  2  1  1  0  0  0  0
  3  2  1  0  0  0  0
  4  1  2  0  0  0  0
  4  5  1  0  0  0  0
  5 10  1  0  0  0  0
  5  6  2  0  0  0  0
  6  7  1  0  0  0  0
  6 11  1  0  0  0  0
  7 12  1  0  0  0  0
  8 13  1  0  0  0  0
  8  7  2  0  0  0  0
 14  9  1  0  0  0  0
M  RAD  3   2   2   3   3   4   2
M  END
