Coordinates from ORCA-job PhN2+~Cl-_B3LYPG-6-31G_dp-CH-Scan-d09-49-n800
 OpenBabel11261919593D

 14 13  0  0  0  0  0  0  0  0999 V2000
   -1.3379   -0.3398   -0.2913 C   0  0  0  0  0  0  0  0  0  0  0  0
   -2.6986   -0.3697   -0.5800 N   0  0  0  0  0  0  0  0  0  0  0  0
   -3.7914   -0.3177   -0.8205 N   0  0  0  0  0  0  0  0  0  0  0  0
   -0.8228    0.9653   -0.3340 C   0  0  0  0  0  0  0  0  0  0  0  0
    0.5689    0.9280   -0.0288 C   0  0  0  0  0  0  0  0  0  0  0  0
    1.2673   -0.2395    0.2607 C   0  0  0  0  0  0  0  0  0  0  0  0
    0.6313   -1.5075    0.2724 C   0  0  0  0  0  0  0  0  0  0  0  0
   -0.7131   -1.5863   -0.0094 C   0  0  0  0  0  0  0  0  0  0  0  0
   -2.5195    4.2411   -0.9993 H   0  0  0  0  0  0  0  0  0  0  0  0
    1.1292    1.8637   -0.0183 H   0  0  0  0  0  0  0  0  0  0  0  0
    2.3312   -0.1942    0.4882 H   0  0  0  0  0  0  0  0  0  0  0  0
    1.1986   -2.4036    0.5018 H   0  0  0  0  0  0  0  0  0  0  0  0
   -1.2557   -2.5280   -0.0153 H   0  0  0  0  0  0  0  0  0  0  0  0
   -3.2376    5.2817   -1.2394 Cl  0  0  0  0  0  0  0  0  0  0  0  0
  1  8  1  0  0  0  0
  2  1  1  0  0  0  0
  3  2  1  0  0  0  0
  4  1  2  0  0  0  0
  4  5  1  0  0  0  0
  5 10  1  0  0  0  0
  5  6  2  0  0  0  0
  6  7  1  0  0  0  0
  6 11  1  0  0  0  0
  7 12  1  0  0  0  0
  8  7  2  0  0  0  0
 13  8  1  0  0  0  0
 14  9  1  0  0  0  0
M  RAD  3   2   2   3   3   4   2
M  END
