Coordinates from ORCA-job PhN2+~Cl-_B3LYPG-6-31G_dp-CH-Scan-d09-49-n800
 OpenBabel11261919593D

 14 13  0  0  0  0  0  0  0  0999 V2000
   -1.3721   -0.1456   -0.3121 C   0  0  0  0  0  0  0  0  0  0  0  0
   -2.7289   -0.1240   -0.6014 N   0  0  0  0  0  0  0  0  0  0  0  0
   -3.8197   -0.0458   -0.8404 N   0  0  0  0  0  0  0  0  0  0  0  0
   -0.7915    1.1347   -0.3308 C   0  0  0  0  0  0  0  0  0  0  0  0
    0.5938    1.0378   -0.0250 C   0  0  0  0  0  0  0  0  0  0  0  0
    1.2410   -0.1635    0.2471 C   0  0  0  0  0  0  0  0  0  0  0  0
    0.5508   -1.4016    0.2370 C   0  0  0  0  0  0  0  0  0  0  0  0
   -0.7953   -1.4189   -0.0483 C   0  0  0  0  0  0  0  0  0  0  0  0
   -2.2422    3.4235   -0.8664 H   0  0  0  0  0  0  0  0  0  0  0  0
    1.1895    1.9501    0.0005 H   0  0  0  0  0  0  0  0  0  0  0  0
    2.3049   -0.1667    0.4770 H   0  0  0  0  0  0  0  0  0  0  0  0
    1.0778   -2.3252    0.4527 H   0  0  0  0  0  0  0  0  0  0  0  0
   -1.3758   -2.3371   -0.0699 H   0  0  0  0  0  0  0  0  0  0  0  0
   -3.0825    4.3757   -1.1333 Cl  0  0  0  0  0  0  0  0  0  0  0  0
  1  8  1  0  0  0  0
  2  1  1  0  0  0  0
  3  2  1  0  0  0  0
  4  1  2  0  0  0  0
  4  5  1  0  0  0  0
  5 10  1  0  0  0  0
  5  6  2  0  0  0  0
  6 11  1  0  0  0  0
  7  6  1  0  0  0  0
  7 12  1  0  0  0  0
  8  7  2  0  0  0  0
 13  8  1  0  0  0  0
 14  9  1  0  0  0  0
M  RAD  3   2   2   3   3   4   2
M  END
