Coordinates from ORCA-job PhN2+~Cl-_B3LYPG-6-31G_dp-CH-Scan-d09-49-n800
 OpenBabel11261919593D

 14 13  0  0  0  0  0  0  0  0999 V2000
   -1.4372    0.0040   -0.3383 C   0  0  0  0  0  0  0  0  0  0  0  0
   -2.7957    0.0838   -0.6332 N   0  0  0  0  0  0  0  0  0  0  0  0
   -3.8539    0.3399   -0.8832 N   0  0  0  0  0  0  0  0  0  0  0  0
   -0.8061    1.2552   -0.3406 C   0  0  0  0  0  0  0  0  0  0  0  0
    0.5662    1.1674   -0.0405 C   0  0  0  0  0  0  0  0  0  0  0  0
    1.1900   -0.0516    0.2244 C   0  0  0  0  0  0  0  0  0  0  0  0
    0.4764   -1.2704    0.2048 C   0  0  0  0  0  0  0  0  0  0  0  0
   -0.8742   -1.2667   -0.0819 C   0  0  0  0  0  0  0  0  0  0  0  0
   -1.7598    2.4914   -0.6709 H   0  0  0  0  0  0  0  0  0  0  0  0
    1.1607    2.0779   -0.0133 H   0  0  0  0  0  0  0  0  0  0  0  0
    2.2527   -0.0744    0.4542 H   0  0  0  0  0  0  0  0  0  0  0  0
    0.9855   -2.2050    0.4146 H   0  0  0  0  0  0  0  0  0  0  0  0
   -1.4667   -2.1759   -0.1087 H   0  0  0  0  0  0  0  0  0  0  0  0
   -2.8882    3.4179   -1.0007 Cl  0  0  0  0  0  0  0  0  0  0  0  0
  1  8  1  0  0  0  0
  2  1  1  0  0  0  0
  3  2  1  0  0  0  0
  4  1  2  0  0  0  0
  4  5  1  0  0  0  0
  5 10  1  0  0  0  0
  5  6  2  0  0  0  0
  6 11  1  0  0  0  0
  7  6  1  0  0  0  0
  7 12  1  0  0  0  0
  8  7  2  0  0  0  0
 13  8  1  0  0  0  0
 14  9  1  0  0  0  0
M  RAD  3   2   2   3   3   4   2
M  END
