Coordinates from ORCA-job PhN2+~Cl-_B3LYPG-6-31G_dp-CH-Scan-d09-49-n800
 OpenBabel11261919593D

 14 13  0  0  0  0  0  0  0  0999 V2000
   -1.3623   -0.1796   -0.3078 C   0  0  0  0  0  0  0  0  0  0  0  0
   -2.7200   -0.1638   -0.5974 N   0  0  0  0  0  0  0  0  0  0  0  0
   -3.8109   -0.0867   -0.8371 N   0  0  0  0  0  0  0  0  0  0  0  0
   -0.7915    1.1044   -0.3304 C   0  0  0  0  0  0  0  0  0  0  0  0
    0.5952    1.0149   -0.0244 C   0  0  0  0  0  0  0  0  0  0  0  0
    1.2491   -0.1818    0.2508 C   0  0  0  0  0  0  0  0  0  0  0  0
    0.5661   -1.4243    0.2440 C   0  0  0  0  0  0  0  0  0  0  0  0
   -0.7799   -1.4498   -0.0410 C   0  0  0  0  0  0  0  0  0  0  0  0
   -2.3103    3.5786   -0.8951 H   0  0  0  0  0  0  0  0  0  0  0  0
    1.1867    1.9303   -0.0011 H   0  0  0  0  0  0  0  0  0  0  0  0
    2.3132   -0.1787    0.4806 H   0  0  0  0  0  0  0  0  0  0  0  0
    1.0985   -2.3441    0.4621 H   0  0  0  0  0  0  0  0  0  0  0  0
   -1.3555   -2.3712   -0.0603 H   0  0  0  0  0  0  0  0  0  0  0  0
   -3.1288    4.5454   -1.1563 Cl  0  0  0  0  0  0  0  0  0  0  0  0
  1  8  1  0  0  0  0
  2  1  1  0  0  0  0
  3  2  1  0  0  0  0
  4  1  2  0  0  0  0
  4  5  1  0  0  0  0
  5 10  1  0  0  0  0
  5  6  2  0  0  0  0
  6 11  1  0  0  0  0
  7  6  1  0  0  0  0
  7 12  1  0  0  0  0
  8  7  2  0  0  0  0
 13  8  1  0  0  0  0
 14  9  1  0  0  0  0
M  RAD  3   2   2   3   3   4   2
M  END
