Coordinates from ORCA-job PhN2+~Cl-_B3LYPG-6-31G_dp-CH-Scan-d09-49-n800
 OpenBabel11261919593D

 14 13  0  0  0  0  0  0  0  0999 V2000
   -1.4535    0.0340   -0.3434 C   0  0  0  0  0  0  0  0  0  0  0  0
   -2.8308    0.0901   -0.6391 N   0  0  0  0  0  0  0  0  0  0  0  0
   -3.7369    0.7494   -0.8999 N   0  0  0  0  0  0  0  0  0  0  0  0
   -0.7424    1.2340   -0.3224 C   0  0  0  0  0  0  0  0  0  0  0  0
    0.6165    1.1687   -0.0288 C   0  0  0  0  0  0  0  0  0  0  0  0
    1.2178   -0.0682    0.2313 C   0  0  0  0  0  0  0  0  0  0  0  0
    0.4753   -1.2581    0.2022 C   0  0  0  0  0  0  0  0  0  0  0  0
   -0.8827   -1.2211   -0.0886 C   0  0  0  0  0  0  0  0  0  0  0  0
   -1.5513    2.3833   -0.6157 H   0  0  0  0  0  0  0  0  0  0  0  0
    1.2105    2.0770   -0.0007 H   0  0  0  0  0  0  0  0  0  0  0  0
    2.2787   -0.1105    0.4621 H   0  0  0  0  0  0  0  0  0  0  0  0
    0.9589   -2.2073    0.4073 H   0  0  0  0  0  0  0  0  0  0  0  0
   -1.4895   -2.1201   -0.1198 H   0  0  0  0  0  0  0  0  0  0  0  0
   -3.3209    3.0426   -1.0577 Cl  0  0  0  0  0  0  0  0  0  0  0  0
  1  4  2  0  0  0  0
  1  8  1  0  0  0  0
  2  1  1  0  0  0  0
  3  2  2  0  0  0  0
  4  5  1  0  0  0  0
  5 10  1  0  0  0  0
  5  6  2  0  0  0  0
  6 11  1  0  0  0  0
  7  6  1  0  0  0  0
  7 12  1  0  0  0  0
  8  7  2  0  0  0  0
  9  4  1  0  0  0  0
 13  8  1  0  0  0  0
M  RAD  2   3   2  14   2
M  END
