Coordinates from ORCA-job PhN2+~Cl-_B3LYPG-6-31G_dp-CH-Scan-d09-49-n800
 OpenBabel11261919593D

 14 13  0  0  0  0  0  0  0  0999 V2000
   -1.3419   -0.5763   -0.2691 C   0  0  0  0  0  0  0  0  0  0  0  0
   -2.7000   -0.7155   -0.5466 N   0  0  0  0  0  0  0  0  0  0  0  0
   -3.7955   -0.7453   -0.7795 N   0  0  0  0  0  0  0  0  0  0  0  0
   -0.9374    0.7646   -0.3367 C   0  0  0  0  0  0  0  0  0  0  0  0
    0.4553    0.8449   -0.0422 C   0  0  0  0  0  0  0  0  0  0  0  0
    1.2482   -0.2573    0.2599 C   0  0  0  0  0  0  0  0  0  0  0  0
    0.7174   -1.5726    0.2962 C   0  0  0  0  0  0  0  0  0  0  0  0
   -0.6184   -1.7644    0.0265 C   0  0  0  0  0  0  0  0  0  0  0  0
   -2.6282    5.0678   -1.0923 H   0  0  0  0  0  0  0  0  0  0  0  0
    0.9392    1.8227   -0.0507 H   0  0  0  0  0  0  0  0  0  0  0  0
    2.3066   -0.1220    0.4778 H   0  0  0  0  0  0  0  0  0  0  0  0
    1.3573   -2.4158    0.5348 H   0  0  0  0  0  0  0  0  0  0  0  0
   -1.0831   -2.7469    0.0396 H   0  0  0  0  0  0  0  0  0  0  0  0
   -3.1698    6.2098   -1.3308 Cl  0  0  0  0  0  0  0  0  0  0  0  0
  1  8  1  0  0  0  0
  2  1  1  0  0  0  0
  3  2  1  0  0  0  0
  4  1  2  0  0  0  0
  4  5  1  0  0  0  0
  5  6  2  0  0  0  0
  6  7  1  0  0  0  0
  6 11  1  0  0  0  0
  7 12  1  0  0  0  0
  8 13  1  0  0  0  0
  8  7  2  0  0  0  0
 10  5  1  0  0  0  0
 14  9  1  0  0  0  0
M  RAD  3   2   2   3   3   4   2
M  END
