Coordinates from ORCA-job PhN2+~Cl-_B3LYPG-6-31G_dp-CH-Scan-d09-49-n800
 OpenBabel11261919593D

 14 13  0  0  0  0  0  0  0  0999 V2000
   -1.4203   -0.0244   -0.3321 C   0  0  0  0  0  0  0  0  0  0  0  0
   -2.7764    0.0203   -0.6228 N   0  0  0  0  0  0  0  0  0  0  0  0
   -3.8623    0.1312   -0.8632 N   0  0  0  0  0  0  0  0  0  0  0  0
   -0.8066    1.2394   -0.3398 C   0  0  0  0  0  0  0  0  0  0  0  0
    0.5718    1.1342   -0.0360 C   0  0  0  0  0  0  0  0  0  0  0  0
    1.2002   -0.0799    0.2297 C   0  0  0  0  0  0  0  0  0  0  0  0
    0.4908   -1.3045    0.2116 C   0  0  0  0  0  0  0  0  0  0  0  0
   -0.8568   -1.3019   -0.0745 C   0  0  0  0  0  0  0  0  0  0  0  0
   -1.9152    2.7775   -0.7329 H   0  0  0  0  0  0  0  0  0  0  0  0
    1.1732    2.0413   -0.0072 H   0  0  0  0  0  0  0  0  0  0  0  0
    2.2634   -0.0999    0.4595 H   0  0  0  0  0  0  0  0  0  0  0  0
    1.0028   -2.2375    0.4220 H   0  0  0  0  0  0  0  0  0  0  0  0
   -1.4487   -2.2120   -0.1010 H   0  0  0  0  0  0  0  0  0  0  0  0
   -2.8662    3.7098   -1.0266 Cl  0  0  0  0  0  0  0  0  0  0  0  0
  1  8  1  0  0  0  0
  2  1  1  0  0  0  0
  3  2  1  0  0  0  0
  4  1  2  0  0  0  0
  4  5  1  0  0  0  0
  5 10  1  0  0  0  0
  5  6  2  0  0  0  0
  6 11  1  0  0  0  0
  7  6  1  0  0  0  0
  7 12  1  0  0  0  0
  8  7  2  0  0  0  0
 13  8  1  0  0  0  0
 14  9  1  0  0  0  0
M  RAD  3   2   2   3   3   4   2
M  END
