Coordinates from ORCA-job PhN2+~Cl-_B3LYPG-6-31G_dp-CH-Scan-d09-49-n800
 OpenBabel11261919593D

 14 13  0  0  0  0  0  0  0  0999 V2000
   -1.3348   -0.5138   -0.2739 C   0  0  0  0  0  0  0  0  0  0  0  0
   -2.6952   -0.6165   -0.5554 N   0  0  0  0  0  0  0  0  0  0  0  0
   -3.7905   -0.6171   -0.7912 N   0  0  0  0  0  0  0  0  0  0  0  0
   -0.8950    0.8165   -0.3340 C   0  0  0  0  0  0  0  0  0  0  0  0
    0.4986    0.8591   -0.0357 C   0  0  0  0  0  0  0  0  0  0  0  0
    1.2615   -0.2649    0.2630 C   0  0  0  0  0  0  0  0  0  0  0  0
    0.6964   -1.5660    0.2917 C   0  0  0  0  0  0  0  0  0  0  0  0
   -0.6431   -1.7217    0.0178 C   0  0  0  0  0  0  0  0  0  0  0  0
   -2.6297    4.8787   -1.0792 H   0  0  0  0  0  0  0  0  0  0  0  0
    1.0075    1.8242   -0.0383 H   0  0  0  0  0  0  0  0  0  0  0  0
    2.3225   -0.1585    0.4843 H   0  0  0  0  0  0  0  0  0  0  0  0
    1.3135   -2.4267    0.5279 H   0  0  0  0  0  0  0  0  0  0  0  0
   -1.1333   -2.6918    0.0251 H   0  0  0  0  0  0  0  0  0  0  0  0
   -3.2288    5.9921   -1.3155 Cl  0  0  0  0  0  0  0  0  0  0  0  0
  1  8  1  0  0  0  0
  2  1  1  0  0  0  0
  3  2  1  0  0  0  0
  4  1  2  0  0  0  0
  4  5  1  0  0  0  0
  5  6  2  0  0  0  0
  6  7  1  0  0  0  0
  6 11  1  0  0  0  0
  7 12  1  0  0  0  0
  8 13  1  0  0  0  0
  8  7  2  0  0  0  0
 10  5  1  0  0  0  0
 14  9  1  0  0  0  0
M  RAD  3   2   2   3   3   4   2
M  END
