Coordinates from ORCA-job PhN2+~Cl-_B3LYPG-6-31G_dp-CH-Scan-d09-49-n800
 OpenBabel11261919593D

 14 13  0  0  0  0  0  0  0  0999 V2000
   -1.3335   -0.3883   -0.2867 C   0  0  0  0  0  0  0  0  0  0  0  0
   -2.6946   -0.4350   -0.5745 N   0  0  0  0  0  0  0  0  0  0  0  0
   -3.7881   -0.3941   -0.8148 N   0  0  0  0  0  0  0  0  0  0  0  0
   -0.8366    0.9232   -0.3351 C   0  0  0  0  0  0  0  0  0  0  0  0
    0.5559    0.9047   -0.0307 C   0  0  0  0  0  0  0  0  0  0  0  0
    1.2696   -0.2525    0.2627 C   0  0  0  0  0  0  0  0  0  0  0  0
    0.6501   -1.5287    0.2799 C   0  0  0  0  0  0  0  0  0  0  0  0
   -0.6935   -1.6259   -0.0005 C   0  0  0  0  0  0  0  0  0  0  0  0
   -2.5636    4.4348   -1.0260 H   0  0  0  0  0  0  0  0  0  0  0  0
    1.1045    1.8476   -0.0242 H   0  0  0  0  0  0  0  0  0  0  0  0
    2.3331   -0.1926    0.4890 H   0  0  0  0  0  0  0  0  0  0  0  0
    1.2292   -2.4164    0.5123 H   0  0  0  0  0  0  0  0  0  0  0  0
   -1.2241   -2.5744   -0.0022 H   0  0  0  0  0  0  0  0  0  0  0  0
   -3.2588    5.4912   -1.2622 Cl  0  0  0  0  0  0  0  0  0  0  0  0
  1  8  1  0  0  0  0
  2  1  1  0  0  0  0
  3  2  1  0  0  0  0
  4  1  2  0  0  0  0
  4  5  1  0  0  0  0
  5 10  1  0  0  0  0
  5  6  2  0  0  0  0
  6  7  1  0  0  0  0
  6 11  1  0  0  0  0
  7 12  1  0  0  0  0
  8  7  2  0  0  0  0
 13  8  1  0  0  0  0
 14  9  1  0  0  0  0
M  RAD  3   2   2   3   3   4   2
M  END
