Coordinates from ORCA-job PhN2+~Cl-_B3LYPG-6-31G_dp-CH-Scan-d09-49-n800
 OpenBabel11261919593D

 14 13  0  0  0  0  0  0  0  0999 V2000
   -1.4323   -0.0008   -0.3367 C   0  0  0  0  0  0  0  0  0  0  0  0
   -2.8052    0.0989   -0.6365 N   0  0  0  0  0  0  0  0  0  0  0  0
   -3.7690    0.6224   -0.8947 N   0  0  0  0  0  0  0  0  0  0  0  0
   -0.7889    1.2364   -0.3346 C   0  0  0  0  0  0  0  0  0  0  0  0
    0.5799    1.1641   -0.0372 C   0  0  0  0  0  0  0  0  0  0  0  0
    1.2011   -0.0591    0.2274 C   0  0  0  0  0  0  0  0  0  0  0  0
    0.4842   -1.2719    0.2065 C   0  0  0  0  0  0  0  0  0  0  0  0
   -0.8703   -1.2638   -0.0815 C   0  0  0  0  0  0  0  0  0  0  0  0
   -1.7517    2.4204   -0.6620 H   0  0  0  0  0  0  0  0  0  0  0  0
    1.1722    2.0755   -0.0104 H   0  0  0  0  0  0  0  0  0  0  0  0
    2.2635   -0.0834    0.4574 H   0  0  0  0  0  0  0  0  0  0  0  0
    0.9898   -2.2085    0.4159 H   0  0  0  0  0  0  0  0  0  0  0  0
   -1.4650   -2.1713   -0.1090 H   0  0  0  0  0  0  0  0  0  0  0  0
   -3.0587    3.2346   -1.0177 Cl  0  0  0  0  0  0  0  0  0  0  0  0
  1  4  2  0  0  0  0
  1  8  1  0  0  0  0
  2  1  1  0  0  0  0
  3  2  1  0  0  0  0
  4  5  1  0  0  0  0
  5 10  1  0  0  0  0
  5  6  2  0  0  0  0
  6 11  1  0  0  0  0
  7  6  1  0  0  0  0
  7 12  1  0  0  0  0
  8  7  2  0  0  0  0
 13  8  1  0  0  0  0
 14  9  1  0  0  0  0
M  RAD  3   2   2   3   3   4   2
M  END
