Coordinates from ORCA-job PhN2+~Cl-_B3LYPG-6-31G_dp-CH-Scan-d09-49-n800
 OpenBabel11261919593D

 14 13  0  0  0  0  0  0  0  0999 V2000
   -1.3915   -0.0799   -0.3212 C   0  0  0  0  0  0  0  0  0  0  0  0
   -2.7474   -0.0435   -0.6110 N   0  0  0  0  0  0  0  0  0  0  0  0
   -3.8365    0.0484   -0.8502 N   0  0  0  0  0  0  0  0  0  0  0  0
   -0.7915    1.1914   -0.3332 C   0  0  0  0  0  0  0  0  0  0  0  0
    0.5906    1.0831   -0.0279 C   0  0  0  0  0  0  0  0  0  0  0  0
    1.2243   -0.1269    0.2397 C   0  0  0  0  0  0  0  0  0  0  0  0
    0.5204   -1.3563    0.2240 C   0  0  0  0  0  0  0  0  0  0  0  0
   -0.8261   -1.3584   -0.0619 C   0  0  0  0  0  0  0  0  0  0  0  0
   -2.1002    3.1122   -0.8062 H   0  0  0  0  0  0  0  0  0  0  0  0
    1.1935    1.9901    0.0009 H   0  0  0  0  0  0  0  0  0  0  0  0
    2.2879   -0.1424    0.4699 H   0  0  0  0  0  0  0  0  0  0  0  0
    1.0368   -2.2866    0.4360 H   0  0  0  0  0  0  0  0  0  0  0  0
   -1.4156   -2.2705   -0.0873 H   0  0  0  0  0  0  0  0  0  0  0  0
   -2.9951    4.0330   -1.0850 Cl  0  0  0  0  0  0  0  0  0  0  0  0
  1  8  1  0  0  0  0
  2  1  1  0  0  0  0
  3  2  1  0  0  0  0
  4  1  2  0  0  0  0
  4  5  1  0  0  0  0
  5 10  1  0  0  0  0
  5  6  2  0  0  0  0
  6 11  1  0  0  0  0
  7  6  1  0  0  0  0
  7 12  1  0  0  0  0
  8  7  2  0  0  0  0
 13  8  1  0  0  0  0
 14  9  1  0  0  0  0
M  RAD  3   2   2   3   3   4   2
M  END
