Coordinates from ORCA-job PhN2+~Cl-_B3LYPG-6-31G_dp-CH-Scan-d09-49-n800
 OpenBabel11261919593D

 14 13  0  0  0  0  0  0  0  0999 V2000
   -1.3702   -0.1520   -0.3118 C   0  0  0  0  0  0  0  0  0  0  0  0
   -2.7272   -0.1312   -0.6017 N   0  0  0  0  0  0  0  0  0  0  0  0
   -3.8184   -0.0520   -0.8384 N   0  0  0  0  0  0  0  0  0  0  0  0
   -0.7915    1.1288   -0.3312 C   0  0  0  0  0  0  0  0  0  0  0  0
    0.5940    1.0337   -0.0251 C   0  0  0  0  0  0  0  0  0  0  0  0
    1.2424   -0.1666    0.2480 C   0  0  0  0  0  0  0  0  0  0  0  0
    0.5536   -1.4056    0.2384 C   0  0  0  0  0  0  0  0  0  0  0  0
   -0.7924   -1.4247   -0.0472 C   0  0  0  0  0  0  0  0  0  0  0  0
   -2.2545    3.4511   -0.8716 H   0  0  0  0  0  0  0  0  0  0  0  0
    1.1888    1.9467    0.0001 H   0  0  0  0  0  0  0  0  0  0  0  0
    2.3062   -0.1687    0.4781 H   0  0  0  0  0  0  0  0  0  0  0  0
    1.0816   -2.3284    0.4547 H   0  0  0  0  0  0  0  0  0  0  0  0
   -1.3719   -2.3436   -0.0685 H   0  0  0  0  0  0  0  0  0  0  0  0
   -3.0906    4.4060   -1.1372 Cl  0  0  0  0  0  0  0  0  0  0  0  0
  1  8  1  0  0  0  0
  2  1  1  0  0  0  0
  3  2  1  0  0  0  0
  4  1  2  0  0  0  0
  4  5  1  0  0  0  0
  5 10  1  0  0  0  0
  5  6  2  0  0  0  0
  6 11  1  0  0  0  0
  7  6  1  0  0  0  0
  7 12  1  0  0  0  0
  8  7  2  0  0  0  0
 13  8  1  0  0  0  0
 14  9  1  0  0  0  0
M  RAD  3   2   2   3   3   4   2
M  END
