Coordinates from ORCA-job PhN2+~Cl-_B3LYPG-6-31G_dp-CH-Scan-d09-49-n800
 OpenBabel11261919593D

 14 13  0  0  0  0  0  0  0  0999 V2000
   -1.3989   -0.0643   -0.3244 C   0  0  0  0  0  0  0  0  0  0  0  0
   -2.7548   -0.0261   -0.6144 N   0  0  0  0  0  0  0  0  0  0  0  0
   -3.8432    0.0684   -0.8538 N   0  0  0  0  0  0  0  0  0  0  0  0
   -0.7953    1.2053   -0.3354 C   0  0  0  0  0  0  0  0  0  0  0  0
    0.5860    1.0967   -0.0303 C   0  0  0  0  0  0  0  0  0  0  0  0
    1.2179   -0.1144    0.2370 C   0  0  0  0  0  0  0  0  0  0  0  0
    0.5122   -1.3424    0.2208 C   0  0  0  0  0  0  0  0  0  0  0  0
   -0.8345   -1.3428   -0.0653 C   0  0  0  0  0  0  0  0  0  0  0  0
   -2.0533    3.0236   -0.7870 H   0  0  0  0  0  0  0  0  0  0  0  0
    1.1890    2.0034   -0.0015 H   0  0  0  0  0  0  0  0  0  0  0  0
    2.2814   -0.1314    0.4672 H   0  0  0  0  0  0  0  0  0  0  0  0
    1.0272   -2.2735    0.4326 H   0  0  0  0  0  0  0  0  0  0  0  0
   -1.4249   -2.2542   -0.0909 H   0  0  0  0  0  0  0  0  0  0  0  0
   -2.9590    3.9453   -1.0681 Cl  0  0  0  0  0  0  0  0  0  0  0  0
  1  8  1  0  0  0  0
  2  1  1  0  0  0  0
  3  2  1  0  0  0  0
  4  1  2  0  0  0  0
  4  5  1  0  0  0  0
  5 10  1  0  0  0  0
  5  6  2  0  0  0  0
  6 11  1  0  0  0  0
  7  6  1  0  0  0  0
  7 12  1  0  0  0  0
  8  7  2  0  0  0  0
 13  8  1  0  0  0  0
 14  9  1  0  0  0  0
M  RAD  3   2   2   3   3   4   2
M  END
