Coordinates from ORCA-job PhN2+~Cl-_B3LYPG-6-31G_dp-CH-Scan-d09-49-n800
 OpenBabel11261919593D

 14 13  0  0  0  0  0  0  0  0999 V2000
   -1.3557   -0.2177   -0.3012 C   0  0  0  0  0  0  0  0  0  0  0  0
   -2.7144   -0.2118   -0.5893 N   0  0  0  0  0  0  0  0  0  0  0  0
   -3.8061   -0.1398   -0.8279 N   0  0  0  0  0  0  0  0  0  0  0  0
   -0.7985    1.0719   -0.3257 C   0  0  0  0  0  0  0  0  0  0  0  0
    0.5900    0.9934   -0.0211 C   0  0  0  0  0  0  0  0  0  0  0  0
    1.2549   -0.1973    0.2535 C   0  0  0  0  0  0  0  0  0  0  0  0
    0.5829   -1.4460    0.2482 C   0  0  0  0  0  0  0  0  0  0  0  0
   -0.7630   -1.4834   -0.0349 C   0  0  0  0  0  0  0  0  0  0  0  0
   -2.3694    3.7388   -0.9257 H   0  0  0  0  0  0  0  0  0  0  0  0
    1.1744    1.9136    0.0013 H   0  0  0  0  0  0  0  0  0  0  0  0
    2.3192   -0.1848    0.4819 H   0  0  0  0  0  0  0  0  0  0  0  0
    1.1240   -2.3610    0.4659 H   0  0  0  0  0  0  0  0  0  0  0  0
   -1.3310   -2.4097   -0.0531 H   0  0  0  0  0  0  0  0  0  0  0  0
   -3.1576    4.7273   -1.1852 Cl  0  0  0  0  0  0  0  0  0  0  0  0
  1  8  1  0  0  0  0
  2  1  1  0  0  0  0
  3  2  1  0  0  0  0
  4  1  2  0  0  0  0
  4  5  1  0  0  0  0
  5 10  1  0  0  0  0
  5  6  2  0  0  0  0
  6 11  1  0  0  0  0
  7  6  1  0  0  0  0
  7 12  1  0  0  0  0
  8  7  2  0  0  0  0
 13  8  1  0  0  0  0
 14  9  1  0  0  0  0
M  RAD  3   2   2   3   3   4   2
M  END
