Coordinates from ORCA-job PhN2+~Cl-_B3LYPG-6-31G_dp-CH-Scan-d09-49-n800
 OpenBabel11261919593D

 14 13  0  0  0  0  0  0  0  0999 V2000
   -1.4274   -0.0139   -0.3347 C   0  0  0  0  0  0  0  0  0  0  0  0
   -2.7836    0.0334   -0.6257 N   0  0  0  0  0  0  0  0  0  0  0  0
   -3.8680    0.1534   -0.8668 N   0  0  0  0  0  0  0  0  0  0  0  0
   -0.8100    1.2477   -0.3414 C   0  0  0  0  0  0  0  0  0  0  0  0
    0.5671    1.1454   -0.0382 C   0  0  0  0  0  0  0  0  0  0  0  0
    1.1949   -0.0693    0.2274 C   0  0  0  0  0  0  0  0  0  0  0  0
    0.4847   -1.2929    0.2091 C   0  0  0  0  0  0  0  0  0  0  0  0
   -0.8633   -1.2902   -0.0770 C   0  0  0  0  0  0  0  0  0  0  0  0
   -1.8686    2.7007   -0.7152 H   0  0  0  0  0  0  0  0  0  0  0  0
    1.1670    2.0534   -0.0098 H   0  0  0  0  0  0  0  0  0  0  0  0
    2.2580   -0.0897    0.4573 H   0  0  0  0  0  0  0  0  0  0  0  0
    0.9961   -2.2262    0.4194 H   0  0  0  0  0  0  0  0  0  0  0  0
   -1.4551   -2.2003   -0.1036 H   0  0  0  0  0  0  0  0  0  0  0  0
   -2.8420    3.6422   -1.0141 Cl  0  0  0  0  0  0  0  0  0  0  0  0
  1  8  1  0  0  0  0
  2  1  1  0  0  0  0
  3  2  1  0  0  0  0
  4  1  2  0  0  0  0
  4  5  1  0  0  0  0
  5 10  1  0  0  0  0
  5  6  2  0  0  0  0
  6 11  1  0  0  0  0
  7  6  1  0  0  0  0
  7 12  1  0  0  0  0
  8  7  2  0  0  0  0
 13  8  1  0  0  0  0
 14  9  1  0  0  0  0
M  RAD  3   2   2   3   3   4   2
M  END
