Coordinates from ORCA-job PhN2+~Cl-_B3LYPG-6-31G_dp-CH-Scan-d09-49-n800
 OpenBabel11261919593D

 14 13  0  0  0  0  0  0  0  0999 V2000
   -1.3334   -0.4393   -0.2808 C   0  0  0  0  0  0  0  0  0  0  0  0
   -2.6946   -0.5075   -0.5661 N   0  0  0  0  0  0  0  0  0  0  0  0
   -3.7890   -0.4822   -0.8046 N   0  0  0  0  0  0  0  0  0  0  0  0
   -0.8591    0.8799   -0.3329 C   0  0  0  0  0  0  0  0  0  0  0  0
    0.5341    0.8854   -0.0311 C   0  0  0  0  0  0  0  0  0  0  0  0
    1.2676   -0.2592    0.2632 C   0  0  0  0  0  0  0  0  0  0  0  0
    0.6695   -1.5456    0.2841 C   0  0  0  0  0  0  0  0  0  0  0  0
   -0.6729   -1.6657    0.0066 C   0  0  0  0  0  0  0  0  0  0  0  0
   -2.5920    4.6201   -1.0504 H   0  0  0  0  0  0  0  0  0  0  0  0
    1.0672    1.8372   -0.0274 H   0  0  0  0  0  0  0  0  0  0  0  0
    2.3304   -0.1811    0.4873 H   0  0  0  0  0  0  0  0  0  0  0  0
    1.2638   -2.4230    0.5173 H   0  0  0  0  0  0  0  0  0  0  0  0
   -1.1877   -2.6229    0.0079 H   0  0  0  0  0  0  0  0  0  0  0  0
   -3.2542    5.6974   -1.2863 Cl  0  0  0  0  0  0  0  0  0  0  0  0
  1  8  1  0  0  0  0
  2  1  1  0  0  0  0
  3  2  1  0  0  0  0
  4  1  2  0  0  0  0
  4  5  1  0  0  0  0
  5 10  1  0  0  0  0
  5  6  2  0  0  0  0
  6  7  1  0  0  0  0
  6 11  1  0  0  0  0
  7 12  1  0  0  0  0
  8 13  1  0  0  0  0
  8  7  2  0  0  0  0
 14  9  1  0  0  0  0
M  RAD  3   2   2   3   3   4   2
M  END
