Coordinates from ORCA-job PhN2+~Cl-_B3LYPG-6-31G_dp-CH-Scan-d09-49-n800
 OpenBabel11261919593D

 14 13  0  0  0  0  0  0  0  0999 V2000
   -1.3354   -0.3667   -0.2889 C   0  0  0  0  0  0  0  0  0  0  0  0
   -2.6963   -0.4058   -0.5771 N   0  0  0  0  0  0  0  0  0  0  0  0
   -3.7895   -0.3597   -0.8176 N   0  0  0  0  0  0  0  0  0  0  0  0
   -0.8303    0.9419   -0.3349 C   0  0  0  0  0  0  0  0  0  0  0  0
    0.5619    0.9150   -0.0301 C   0  0  0  0  0  0  0  0  0  0  0  0
    1.2687   -0.2469    0.2619 C   0  0  0  0  0  0  0  0  0  0  0  0
    0.6417   -1.5194    0.2767 C   0  0  0  0  0  0  0  0  0  0  0  0
   -0.7022   -1.6083   -0.0044 C   0  0  0  0  0  0  0  0  0  0  0  0
   -2.5443    4.3488   -1.0141 H   0  0  0  0  0  0  0  0  0  0  0  0
    1.1158    1.8546   -0.0219 H   0  0  0  0  0  0  0  0  0  0  0  0
    2.3323   -0.1935    0.4887 H   0  0  0  0  0  0  0  0  0  0  0  0
    1.2155   -2.4109    0.5080 H   0  0  0  0  0  0  0  0  0  0  0  0
   -1.2383   -2.5538   -0.0078 H   0  0  0  0  0  0  0  0  0  0  0  0
   -3.2500    5.3981   -1.2518 Cl  0  0  0  0  0  0  0  0  0  0  0  0
  1  8  1  0  0  0  0
  2  1  1  0  0  0  0
  3  2  1  0  0  0  0
  4  1  2  0  0  0  0
  4  5  1  0  0  0  0
  5 10  1  0  0  0  0
  5  6  2  0  0  0  0
  6  7  1  0  0  0  0
  6 11  1  0  0  0  0
  7 12  1  0  0  0  0
  8  7  2  0  0  0  0
 13  8  1  0  0  0  0
 14  9  1  0  0  0  0
M  RAD  3   2   2   3   3   4   2
M  END
