Coordinates from ORCA-job PhN2+~Cl-_B3LYPG-6-31G_dp-CH-Scan-d09-49-n800
 OpenBabel11261919593D

 14 13  0  0  0  0  0  0  0  0999 V2000
   -1.4659    0.0698   -0.3514 C   0  0  0  0  0  0  0  0  0  0  0  0
   -2.8426    0.0830   -0.6434 N   0  0  0  0  0  0  0  0  0  0  0  0
   -3.7607    0.7453   -0.9056 N   0  0  0  0  0  0  0  0  0  0  0  0
   -0.7191    1.2525   -0.3218 C   0  0  0  0  0  0  0  0  0  0  0  0
    0.6368    1.1717   -0.0259 C   0  0  0  0  0  0  0  0  0  0  0  0
    1.2249   -0.0713    0.2338 C   0  0  0  0  0  0  0  0  0  0  0  0
    0.4642   -1.2462    0.1997 C   0  0  0  0  0  0  0  0  0  0  0  0
   -0.8929   -1.1845   -0.0948 C   0  0  0  0  0  0  0  0  0  0  0  0
   -1.3671    2.3682   -0.5787 H   0  0  0  0  0  0  0  0  0  0  0  0
    1.2366    2.0755    0.0036 H   0  0  0  0  0  0  0  0  0  0  0  0
    2.2843   -0.1258    0.4666 H   0  0  0  0  0  0  0  0  0  0  0  0
    0.9299   -2.2047    0.4034 H   0  0  0  0  0  0  0  0  0  0  0  0
   -1.5114   -2.0750   -0.1292 H   0  0  0  0  0  0  0  0  0  0  0  0
   -3.4672    2.9352   -1.0693 Cl  0  0  0  0  0  0  0  0  0  0  0  0
  1  4  2  0  0  0  0
  1  8  1  0  0  0  0
  2  1  1  0  0  0  0
  3  2  2  0  0  0  0
  4  5  1  0  0  0  0
  5 10  1  0  0  0  0
  5  6  2  0  0  0  0
  6 11  1  0  0  0  0
  7  6  1  0  0  0  0
  7 12  1  0  0  0  0
  8  7  2  0  0  0  0
  9  4  1  0  0  0  0
 13  8  1  0  0  0  0
M  RAD  2   3   2  14   2
M  END
