Coordinates from ORCA-job PhN2+~Cl-_B3LYPG-6-31G_dp-CH-Scan-d09-49-n800
 OpenBabel11261919593D

 14 13  0  0  0  0  0  0  0  0999 V2000
   -1.4387    0.0049   -0.3389 C   0  0  0  0  0  0  0  0  0  0  0  0
   -2.7958    0.0707   -0.6322 N   0  0  0  0  0  0  0  0  0  0  0  0
   -3.8680    0.2615   -0.8784 N   0  0  0  0  0  0  0  0  0  0  0  0
   -0.8096    1.2586   -0.3422 C   0  0  0  0  0  0  0  0  0  0  0  0
    0.5637    1.1662   -0.0411 C   0  0  0  0  0  0  0  0  0  0  0  0
    1.1883   -0.0517    0.2241 C   0  0  0  0  0  0  0  0  0  0  0  0
    0.4750   -1.2715    0.2048 C   0  0  0  0  0  0  0  0  0  0  0  0
   -0.8747   -1.2676   -0.0818 C   0  0  0  0  0  0  0  0  0  0  0  0
   -1.7686    2.5282   -0.6765 H   0  0  0  0  0  0  0  0  0  0  0  0
    1.1594    2.0762   -0.0137 H   0  0  0  0  0  0  0  0  0  0  0  0
    2.2510   -0.0742    0.4539 H   0  0  0  0  0  0  0  0  0  0  0  0
    0.9841   -2.2060    0.4148 H   0  0  0  0  0  0  0  0  0  0  0  0
   -1.4671   -2.1769   -0.1085 H   0  0  0  0  0  0  0  0  0  0  0  0
   -2.8493    3.4751   -0.9976 Cl  0  0  0  0  0  0  0  0  0  0  0  0
  1  8  1  0  0  0  0
  2  1  1  0  0  0  0
  3  2  1  0  0  0  0
  4  1  2  0  0  0  0
  4  5  1  0  0  0  0
  5 10  1  0  0  0  0
  5  6  2  0  0  0  0
  6 11  1  0  0  0  0
  7  6  1  0  0  0  0
  7 12  1  0  0  0  0
  8  7  2  0  0  0  0
 13  8  1  0  0  0  0
 14  9  1  0  0  0  0
M  RAD  3   2   2   3   3   4   2
M  END
