Coordinates from ORCA-job PhN2+~Cl-_B3LYPG-6-31G_dp-CH-Scan-d09-49-n800
 OpenBabel11261919593D

 14 13  0  0  0  0  0  0  0  0999 V2000
   -1.3996   -0.0629   -0.3246 C   0  0  0  0  0  0  0  0  0  0  0  0
   -2.7554   -0.0246   -0.6147 N   0  0  0  0  0  0  0  0  0  0  0  0
   -3.8438    0.0703   -0.8542 N   0  0  0  0  0  0  0  0  0  0  0  0
   -0.7956    1.2065   -0.3356 C   0  0  0  0  0  0  0  0  0  0  0  0
    0.5856    1.0979   -0.0305 C   0  0  0  0  0  0  0  0  0  0  0  0
    1.2174   -0.1133    0.2368 C   0  0  0  0  0  0  0  0  0  0  0  0
    0.5115   -1.3412    0.2205 C   0  0  0  0  0  0  0  0  0  0  0  0
   -0.8352   -1.3414   -0.0655 C   0  0  0  0  0  0  0  0  0  0  0  0
   -2.0492    3.0158   -0.7853 H   0  0  0  0  0  0  0  0  0  0  0  0
    1.1886    2.0046   -0.0017 H   0  0  0  0  0  0  0  0  0  0  0  0
    2.2808   -0.1304    0.4670 H   0  0  0  0  0  0  0  0  0  0  0  0
    1.0263   -2.2724    0.4323 H   0  0  0  0  0  0  0  0  0  0  0  0
   -1.4257   -2.2528   -0.0912 H   0  0  0  0  0  0  0  0  0  0  0  0
   -2.9560    3.9376   -1.0667 Cl  0  0  0  0  0  0  0  0  0  0  0  0
  1  8  1  0  0  0  0
  2  1  1  0  0  0  0
  3  2  1  0  0  0  0
  4  1  2  0  0  0  0
  4  5  1  0  0  0  0
  5 10  1  0  0  0  0
  5  6  2  0  0  0  0
  6 11  1  0  0  0  0
  7  6  1  0  0  0  0
  7 12  1  0  0  0  0
  8  7  2  0  0  0  0
 13  8  1  0  0  0  0
 14  9  1  0  0  0  0
M  RAD  3   2   2   3   3   4   2
M  END
