Coordinates from ORCA-job PhN2+~Cl-_B3LYPG-6-31G_dp-CH-Scan-d09-49-n800
 OpenBabel11261919593D

 14 13  0  0  0  0  0  0  0  0999 V2000
   -1.3411   -0.3176   -0.2933 C   0  0  0  0  0  0  0  0  0  0  0  0
   -2.7015   -0.3410   -0.5820 N   0  0  0  0  0  0  0  0  0  0  0  0
   -3.7941   -0.2853   -0.8224 N   0  0  0  0  0  0  0  0  0  0  0  0
   -0.8186    0.9849   -0.3331 C   0  0  0  0  0  0  0  0  0  0  0  0
    0.5727    0.9399   -0.0278 C   0  0  0  0  0  0  0  0  0  0  0  0
    1.2651   -0.2317    0.2594 C   0  0  0  0  0  0  0  0  0  0  0  0
    0.6225   -1.4964    0.2683 C   0  0  0  0  0  0  0  0  0  0  0  0
   -0.7223   -1.5676   -0.0139 C   0  0  0  0  0  0  0  0  0  0  0  0
   -2.4942    4.1479   -0.9859 H   0  0  0  0  0  0  0  0  0  0  0  0
    1.1375    1.8729   -0.0154 H   0  0  0  0  0  0  0  0  0  0  0  0
    2.3290   -0.1923    0.4871 H   0  0  0  0  0  0  0  0  0  0  0  0
    1.1851   -2.3959    0.4959 H   0  0  0  0  0  0  0  0  0  0  0  0
   -1.2696   -2.5066   -0.0218 H   0  0  0  0  0  0  0  0  0  0  0  0
   -3.2208    5.1824   -1.2284 Cl  0  0  0  0  0  0  0  0  0  0  0  0
  1  8  1  0  0  0  0
  2  1  1  0  0  0  0
  3  2  1  0  0  0  0
  4  1  2  0  0  0  0
  4  5  1  0  0  0  0
  5 10  1  0  0  0  0
  5  6  2  0  0  0  0
  6  7  1  0  0  0  0
  6 11  1  0  0  0  0
  7 12  1  0  0  0  0
  8  7  2  0  0  0  0
 13  8  1  0  0  0  0
 14  9  1  0  0  0  0
M  RAD  3   2   2   3   3   4   2
M  END
