Coordinates from ORCA-job PhN2+~Cl-_B3LYPG-6-31G_dp-CH-Scan-d09-49-n800
 OpenBabel11261919593D

 14 13  0  0  0  0  0  0  0  0999 V2000
   -1.3345   -0.3775   -0.2878 C   0  0  0  0  0  0  0  0  0  0  0  0
   -2.6955   -0.4205   -0.5759 N   0  0  0  0  0  0  0  0  0  0  0  0
   -3.7888   -0.3770   -0.8162 N   0  0  0  0  0  0  0  0  0  0  0  0
   -0.8335    0.9325   -0.3351 C   0  0  0  0  0  0  0  0  0  0  0  0
    0.5589    0.9098   -0.0305 C   0  0  0  0  0  0  0  0  0  0  0  0
    1.2692   -0.2497    0.2623 C   0  0  0  0  0  0  0  0  0  0  0  0
    0.6459   -1.5240    0.2783 C   0  0  0  0  0  0  0  0  0  0  0  0
   -0.6978   -1.6171   -0.0024 C   0  0  0  0  0  0  0  0  0  0  0  0
   -2.5539    4.3919   -1.0201 H   0  0  0  0  0  0  0  0  0  0  0  0
    1.1101    1.8511   -0.0231 H   0  0  0  0  0  0  0  0  0  0  0  0
    2.3327   -0.1930    0.4889 H   0  0  0  0  0  0  0  0  0  0  0  0
    1.2224   -2.4136    0.5102 H   0  0  0  0  0  0  0  0  0  0  0  0
   -1.2311   -2.5642   -0.0050 H   0  0  0  0  0  0  0  0  0  0  0  0
   -3.2543    5.4448   -1.2569 Cl  0  0  0  0  0  0  0  0  0  0  0  0
  1  8  1  0  0  0  0
  2  1  1  0  0  0  0
  3  2  1  0  0  0  0
  4  1  2  0  0  0  0
  4  5  1  0  0  0  0
  5 10  1  0  0  0  0
  5  6  2  0  0  0  0
  6  7  1  0  0  0  0
  6 11  1  0  0  0  0
  7 12  1  0  0  0  0
  8  7  2  0  0  0  0
 13  8  1  0  0  0  0
 14  9  1  0  0  0  0
M  RAD  3   2   2   3   3   4   2
M  END
