Coordinates from ORCA-job PhN2+~Cl-_B3LYPG-6-31G_dp-CH-Scan-d09-49-n800
 OpenBabel11261919593D

 14 13  0  0  0  0  0  0  0  0999 V2000
   -1.3751   -0.1250   -0.3145 C   0  0  0  0  0  0  0  0  0  0  0  0
   -2.7316   -0.0967   -0.6041 N   0  0  0  0  0  0  0  0  0  0  0  0
   -3.8217   -0.0131   -0.8433 N   0  0  0  0  0  0  0  0  0  0  0  0
   -0.7869    1.1518   -0.3308 C   0  0  0  0  0  0  0  0  0  0  0  0
    0.5974    1.0489   -0.0248 C   0  0  0  0  0  0  0  0  0  0  0  0
    1.2385   -0.1561    0.2458 C   0  0  0  0  0  0  0  0  0  0  0  0
    0.5421   -1.3906    0.2335 C   0  0  0  0  0  0  0  0  0  0  0  0
   -0.8040   -1.4010   -0.0522 C   0  0  0  0  0  0  0  0  0  0  0  0
   -2.2103    3.3404   -0.8518 H   0  0  0  0  0  0  0  0  0  0  0  0
    1.1969    1.9585    0.0021 H   0  0  0  0  0  0  0  0  0  0  0  0
    2.3022   -0.1649    0.4760 H   0  0  0  0  0  0  0  0  0  0  0  0
    1.0644   -2.3171    0.4481 H   0  0  0  0  0  0  0  0  0  0  0  0
   -1.3887   -2.3165   -0.0753 H   0  0  0  0  0  0  0  0  0  0  0  0
   -3.0737    4.2748   -1.1221 Cl  0  0  0  0  0  0  0  0  0  0  0  0
  1  8  1  0  0  0  0
  2  1  1  0  0  0  0
  3  2  1  0  0  0  0
  4  1  2  0  0  0  0
  4  5  1  0  0  0  0
  5 10  1  0  0  0  0
  5  6  2  0  0  0  0
  6 11  1  0  0  0  0
  7  6  1  0  0  0  0
  7 12  1  0  0  0  0
  8  7  2  0  0  0  0
 13  8  1  0  0  0  0
 14  9  1  0  0  0  0
M  RAD  3   2   2   3   3   4   2
M  END
