Coordinates from ORCA-job PhN2+~Cl-_B3LYPG-6-31G_dp-CH-Scan-d09-49-n800
 OpenBabel11261919593D

 14 13  0  0  0  0  0  0  0  0999 V2000
   -1.3335   -0.4251   -0.2826 C   0  0  0  0  0  0  0  0  0  0  0  0
   -2.6948   -0.4870   -0.5688 N   0  0  0  0  0  0  0  0  0  0  0  0
   -3.7889   -0.4563   -0.8079 N   0  0  0  0  0  0  0  0  0  0  0  0
   -0.8529    0.8919   -0.3340 C   0  0  0  0  0  0  0  0  0  0  0  0
    0.5403    0.8909   -0.0313 C   0  0  0  0  0  0  0  0  0  0  0  0
    1.2682   -0.2572    0.2630 C   0  0  0  0  0  0  0  0  0  0  0  0
    0.6640   -1.5407    0.2832 C   0  0  0  0  0  0  0  0  0  0  0  0
   -0.6787   -1.6545    0.0047 C   0  0  0  0  0  0  0  0  0  0  0  0
   -2.5833    4.5675   -1.0434 H   0  0  0  0  0  0  0  0  0  0  0  0
    1.0777    1.8402   -0.0270 H   0  0  0  0  0  0  0  0  0  0  0  0
    2.3312   -0.1842    0.4878 H   0  0  0  0  0  0  0  0  0  0  0  0
    1.2541   -2.4210    0.5163 H   0  0  0  0  0  0  0  0  0  0  0  0
   -1.1979   -2.6094    0.0054 H   0  0  0  0  0  0  0  0  0  0  0  0
   -3.2559    5.6385   -1.2789 Cl  0  0  0  0  0  0  0  0  0  0  0  0
  1  8  1  0  0  0  0
  2  1  1  0  0  0  0
  3  2  1  0  0  0  0
  4  1  2  0  0  0  0
  4  5  1  0  0  0  0
  5 10  1  0  0  0  0
  5  6  2  0  0  0  0
  6  7  1  0  0  0  0
  6 11  1  0  0  0  0
  7 12  1  0  0  0  0
  8 13  1  0  0  0  0
  8  7  2  0  0  0  0
 14  9  1  0  0  0  0
M  RAD  3   2   2   3   3   4   2
M  END
