Coordinates from ORCA-job PhN2+~Cl-_B3LYPG-6-31G_dp-CH-Scan-d09-49-n800
 OpenBabel11261919593D

 14 13  0  0  0  0  0  0  0  0999 V2000
   -1.3394   -0.3286   -0.2923 C   0  0  0  0  0  0  0  0  0  0  0  0
   -2.7000   -0.3551   -0.5810 N   0  0  0  0  0  0  0  0  0  0  0  0
   -3.7927   -0.3011   -0.8215 N   0  0  0  0  0  0  0  0  0  0  0  0
   -0.8205    0.9752   -0.3336 C   0  0  0  0  0  0  0  0  0  0  0  0
    0.5709    0.9339   -0.0283 C   0  0  0  0  0  0  0  0  0  0  0  0
    1.2663   -0.2357    0.2601 C   0  0  0  0  0  0  0  0  0  0  0  0
    0.6269   -1.5020    0.2704 C   0  0  0  0  0  0  0  0  0  0  0  0
   -0.7177   -1.5769   -0.0116 C   0  0  0  0  0  0  0  0  0  0  0  0
   -2.5072    4.1943   -0.9926 H   0  0  0  0  0  0  0  0  0  0  0  0
    1.1336    1.8682   -0.0168 H   0  0  0  0  0  0  0  0  0  0  0  0
    2.3302   -0.1934    0.4877 H   0  0  0  0  0  0  0  0  0  0  0  0
    1.1917   -2.3999    0.4989 H   0  0  0  0  0  0  0  0  0  0  0  0
   -1.2628   -2.5172   -0.0185 H   0  0  0  0  0  0  0  0  0  0  0  0
   -3.2296    5.2319   -1.2339 Cl  0  0  0  0  0  0  0  0  0  0  0  0
  1  8  1  0  0  0  0
  2  1  1  0  0  0  0
  3  2  1  0  0  0  0
  4  1  2  0  0  0  0
  4  5  1  0  0  0  0
  5 10  1  0  0  0  0
  5  6  2  0  0  0  0
  6  7  1  0  0  0  0
  6 11  1  0  0  0  0
  7 12  1  0  0  0  0
  8  7  2  0  0  0  0
 13  8  1  0  0  0  0
 14  9  1  0  0  0  0
M  RAD  3   2   2   3   3   4   2
M  END
