Coordinates from ORCA-job PhN2+~Cl-_B3LYPG-6-31G_dp-CH-Scan-d09-49-n800
 OpenBabel11261919593D

 14 13  0  0  0  0  0  0  0  0999 V2000
   -1.3404   -0.5652   -0.2702 C   0  0  0  0  0  0  0  0  0  0  0  0
   -2.6989   -0.6974   -0.5487 N   0  0  0  0  0  0  0  0  0  0  0  0
   -3.7945   -0.7218   -0.7823 N   0  0  0  0  0  0  0  0  0  0  0  0
   -0.9288    0.7737   -0.3369 C   0  0  0  0  0  0  0  0  0  0  0  0
    0.4637    0.8473   -0.0416 C   0  0  0  0  0  0  0  0  0  0  0  0
    1.2509   -0.2590    0.2605 C   0  0  0  0  0  0  0  0  0  0  0  0
    0.7135   -1.5718    0.2959 C   0  0  0  0  0  0  0  0  0  0  0  0
   -0.6229   -1.7569    0.0253 C   0  0  0  0  0  0  0  0  0  0  0  0
   -2.6297    5.0350   -1.0899 H   0  0  0  0  0  0  0  0  0  0  0  0
    0.9528    1.8225   -0.0493 H   0  0  0  0  0  0  0  0  0  0  0  0
    2.3098   -0.1292    0.4792 H   0  0  0  0  0  0  0  0  0  0  0  0
    1.3492   -2.4182    0.5345 H   0  0  0  0  0  0  0  0  0  0  0  0
   -1.0926   -2.7372    0.0377 H   0  0  0  0  0  0  0  0  0  0  0  0
   -3.1823    6.1719   -1.3276 Cl  0  0  0  0  0  0  0  0  0  0  0  0
  1  8  1  0  0  0  0
  2  1  1  0  0  0  0
  3  2  1  0  0  0  0
  4  1  2  0  0  0  0
  4  5  1  0  0  0  0
  5  6  2  0  0  0  0
  6  7  1  0  0  0  0
  6 11  1  0  0  0  0
  7 12  1  0  0  0  0
  8 13  1  0  0  0  0
  8  7  2  0  0  0  0
 10  5  1  0  0  0  0
 14  9  1  0  0  0  0
M  RAD  3   2   2   3   3   4   2
M  END
