Coordinates from ORCA-job PhN2+~Cl-_B3LYPG-6-31G_dp-CH-Scan-d09-49-n800
 OpenBabel11261919593D

 14 14  0  0  0  0  0  0  0  0999 V2000
   -1.4806    0.0961   -0.3596 C   0  0  0  0  0  0  0  0  0  0  0  0
   -2.8580    0.0763   -0.6505 N   0  0  0  0  0  0  0  0  0  0  0  0
   -3.7783    0.7482   -0.9114 N   0  0  0  0  0  0  0  0  0  0  0  0
   -0.7283    1.2811   -0.3300 C   0  0  0  0  0  0  0  0  0  0  0  0
    0.6287    1.1843   -0.0304 C   0  0  0  0  0  0  0  0  0  0  0  0
    1.2175   -0.0563    0.2320 C   0  0  0  0  0  0  0  0  0  0  0  0
    0.4528   -1.2266    0.1970 C   0  0  0  0  0  0  0  0  0  0  0  0
   -0.9034   -1.1556   -0.1004 C   0  0  0  0  0  0  0  0  0  0  0  0
   -1.2049    2.2228   -0.5349 H   0  0  0  0  0  0  0  0  0  0  0  0
    1.2293    2.0879   -0.0015 H   0  0  0  0  0  0  0  0  0  0  0  0
    2.2764   -0.1113    0.4661 H   0  0  0  0  0  0  0  0  0  0  0  0
    0.9121   -2.1881    0.4014 H   0  0  0  0  0  0  0  0  0  0  0  0
   -1.5256   -2.0432   -0.1359 H   0  0  0  0  0  0  0  0  0  0  0  0
   -3.4881    2.8779   -1.0553 Cl  0  0  0  0  0  0  0  0  0  0  0  0
  1  4  2  0  0  0  0
  1  8  1  0  0  0  0
  2  1  1  0  0  0  0
  3  2  2  0  0  0  0
  4  5  1  0  0  0  0
  5 10  1  0  0  0  0
  5  6  2  0  0  0  0
  6 11  1  0  0  0  0
  7  6  1  0  0  0  0
  7 12  1  0  0  0  0
  8  7  2  0  0  0  0
  9  4  1  0  0  0  0
 13  8  1  0  0  0  0
 14  3  1  0  0  0  0
M  END
