Coordinates from ORCA-job PhN2+~Cl-_B3LYPG-6-31G_dp-CH-Scan-d09-49-n800
 OpenBabel11261919593D

 14 13  0  0  0  0  0  0  0  0999 V2000
   -1.3556   -0.2274   -0.3013 C   0  0  0  0  0  0  0  0  0  0  0  0
   -2.7146   -0.2252   -0.5896 N   0  0  0  0  0  0  0  0  0  0  0  0
   -3.8060   -0.1553   -0.8302 N   0  0  0  0  0  0  0  0  0  0  0  0
   -0.8025    1.0637   -0.3286 C   0  0  0  0  0  0  0  0  0  0  0  0
    0.5864    0.9899   -0.0238 C   0  0  0  0  0  0  0  0  0  0  0  0
    1.2546   -0.1983    0.2535 C   0  0  0  0  0  0  0  0  0  0  0  0
    0.5861   -1.4490    0.2508 C   0  0  0  0  0  0  0  0  0  0  0  0
   -0.7597   -1.4908   -0.0323 C   0  0  0  0  0  0  0  0  0  0  0  0
   -2.3756    3.7708   -0.9279 H   0  0  0  0  0  0  0  0  0  0  0  0
    1.1681    1.9118   -0.0033 H   0  0  0  0  0  0  0  0  0  0  0  0
    2.3189   -0.1824    0.4819 H   0  0  0  0  0  0  0  0  0  0  0  0
    1.1298   -2.3619    0.4706 H   0  0  0  0  0  0  0  0  0  0  0  0
   -1.3250   -2.4188   -0.0485 H   0  0  0  0  0  0  0  0  0  0  0  0
   -3.1551    4.7665   -1.1845 Cl  0  0  0  0  0  0  0  0  0  0  0  0
  1  8  1  0  0  0  0
  2  1  1  0  0  0  0
  3  2  1  0  0  0  0
  4  1  2  0  0  0  0
  4  5  1  0  0  0  0
  5 10  1  0  0  0  0
  5  6  2  0  0  0  0
  6 11  1  0  0  0  0
  7  6  1  0  0  0  0
  7 12  1  0  0  0  0
  8  7  2  0  0  0  0
 13  8  1  0  0  0  0
 14  9  1  0  0  0  0
M  RAD  3   2   2   3   3   4   2
M  END
