Coordinates from ORCA-job PhN2+~Cl-_B3LYPG-6-31G_dp-CH-Scan-d09-49-n800
 OpenBabel11261919593D

 14 13  0  0  0  0  0  0  0  0999 V2000
   -1.4284   -0.0123   -0.3351 C   0  0  0  0  0  0  0  0  0  0  0  0
   -2.7847    0.0354   -0.6262 N   0  0  0  0  0  0  0  0  0  0  0  0
   -3.8687    0.1573   -0.8674 N   0  0  0  0  0  0  0  0  0  0  0  0
   -0.8104    1.2488   -0.3416 C   0  0  0  0  0  0  0  0  0  0  0  0
    0.5665    1.1471   -0.0385 C   0  0  0  0  0  0  0  0  0  0  0  0
    1.1942   -0.0678    0.2271 C   0  0  0  0  0  0  0  0  0  0  0  0
    0.4838   -1.2912    0.2087 C   0  0  0  0  0  0  0  0  0  0  0  0
   -0.8642   -1.2885   -0.0774 C   0  0  0  0  0  0  0  0  0  0  0  0
   -1.8615    2.6891   -0.7125 H   0  0  0  0  0  0  0  0  0  0  0  0
    1.1661    2.0552   -0.0102 H   0  0  0  0  0  0  0  0  0  0  0  0
    2.2572   -0.0883    0.4569 H   0  0  0  0  0  0  0  0  0  0  0  0
    0.9951   -2.2246    0.4191 H   0  0  0  0  0  0  0  0  0  0  0  0
   -1.4561   -2.1985   -0.1039 H   0  0  0  0  0  0  0  0  0  0  0  0
   -2.8392    3.6319   -1.0122 Cl  0  0  0  0  0  0  0  0  0  0  0  0
  1  8  1  0  0  0  0
  2  1  1  0  0  0  0
  3  2  1  0  0  0  0
  4  1  2  0  0  0  0
  4  5  1  0  0  0  0
  5 10  1  0  0  0  0
  5  6  2  0  0  0  0
  6 11  1  0  0  0  0
  7  6  1  0  0  0  0
  7 12  1  0  0  0  0
  8  7  2  0  0  0  0
 13  8  1  0  0  0  0
 14  9  1  0  0  0  0
M  RAD  3   2   2   3   3   4   2
M  END
