Coordinates from ORCA-job PhN2+~Cl-_B3LYPG-6-31G_dp-CH-Scan-d09-49-n800
 OpenBabel11261919593D

 14 13  0  0  0  0  0  0  0  0999 V2000
   -1.3337   -0.3985   -0.2856 C   0  0  0  0  0  0  0  0  0  0  0  0
   -2.6949   -0.4492   -0.5731 N   0  0  0  0  0  0  0  0  0  0  0  0
   -3.7885   -0.4105   -0.8132 N   0  0  0  0  0  0  0  0  0  0  0  0
   -0.8413    0.9144   -0.3350 C   0  0  0  0  0  0  0  0  0  0  0  0
    0.5514    0.9011   -0.0310 C   0  0  0  0  0  0  0  0  0  0  0  0
    1.2691   -0.2536    0.2627 C   0  0  0  0  0  0  0  0  0  0  0  0
    0.6540   -1.5318    0.2808 C   0  0  0  0  0  0  0  0  0  0  0  0
   -0.6894   -1.6338    0.0010 C   0  0  0  0  0  0  0  0  0  0  0  0
   -2.5681    4.4705   -1.0306 H   0  0  0  0  0  0  0  0  0  0  0  0
    1.0968    1.8458   -0.0252 H   0  0  0  0  0  0  0  0  0  0  0  0
    2.3324   -0.1899    0.4886 H   0  0  0  0  0  0  0  0  0  0  0  0
    1.2362   -2.4174    0.5135 H   0  0  0  0  0  0  0  0  0  0  0  0
   -1.2167   -2.5842    0.0000 H   0  0  0  0  0  0  0  0  0  0  0  0
   -3.2576    5.5307   -1.2664 Cl  0  0  0  0  0  0  0  0  0  0  0  0
  1  8  1  0  0  0  0
  2  1  1  0  0  0  0
  3  2  1  0  0  0  0
  4  1  2  0  0  0  0
  4  5  1  0  0  0  0
  5 10  1  0  0  0  0
  5  6  2  0  0  0  0
  6  7  1  0  0  0  0
  6 11  1  0  0  0  0
  7 12  1  0  0  0  0
  8  7  2  0  0  0  0
 13  8  1  0  0  0  0
 14  9  1  0  0  0  0
M  RAD  3   2   2   3   3   4   2
M  END
