Coordinates from ORCA-job PhN2+~Cl-_B3LYPG-6-31G_dp-CH-Scan-d09-49-n800
 OpenBabel11261919593D

 14 13  0  0  0  0  0  0  0  0999 V2000
   -1.3471   -0.6176   -0.2643 C   0  0  0  0  0  0  0  0  0  0  0  0
   -2.7033   -0.7808   -0.5383 N   0  0  0  0  0  0  0  0  0  0  0  0
   -3.7988   -0.8295   -0.7686 N   0  0  0  0  0  0  0  0  0  0  0  0
   -0.9667    0.7302   -0.3338 C   0  0  0  0  0  0  0  0  0  0  0  0
    0.4247    0.8362   -0.0431 C   0  0  0  0  0  0  0  0  0  0  0  0
    1.2381   -0.2513    0.2576 C   0  0  0  0  0  0  0  0  0  0  0  0
    0.7311   -1.5761    0.2963 C   0  0  0  0  0  0  0  0  0  0  0  0
   -0.6016   -1.7922    0.0302 C   0  0  0  0  0  0  0  0  0  0  0  0
   -2.6238    5.1905   -1.1023 H   0  0  0  0  0  0  0  0  0  0  0  0
    0.8912    1.8225   -0.0536 H   0  0  0  0  0  0  0  0  0  0  0  0
    2.2945   -0.0969    0.4727 H   0  0  0  0  0  0  0  0  0  0  0  0
    1.3868   -2.4074    0.5337 H   0  0  0  0  0  0  0  0  0  0  0  0
   -1.0485   -2.7829    0.0453 H   0  0  0  0  0  0  0  0  0  0  0  0
   -3.1270    6.3490   -1.3452 Cl  0  0  0  0  0  0  0  0  0  0  0  0
  1  8  1  0  0  0  0
  2  1  1  0  0  0  0
  3  2  1  0  0  0  0
  4  1  2  0  0  0  0
  4  5  1  0  0  0  0
  5  6  2  0  0  0  0
  6  7  1  0  0  0  0
  6 11  1  0  0  0  0
  7 12  1  0  0  0  0
  8 13  1  0  0  0  0
  8  7  2  0  0  0  0
 10  5  1  0  0  0  0
 14  9  1  0  0  0  0
M  RAD  3   2   2   3   3   4   2
M  END
