Coordinates from ORCA-job PhN2+~Cl-_B3LYPG-6-31G_dp-CH-Scan-d09-49-n800
 OpenBabel11261919593D

 14 13  0  0  0  0  0  0  0  0999 V2000
   -1.4563    0.0409   -0.3447 C   0  0  0  0  0  0  0  0  0  0  0  0
   -2.8334    0.0888   -0.6395 N   0  0  0  0  0  0  0  0  0  0  0  0
   -3.7405    0.7514   -0.9008 N   0  0  0  0  0  0  0  0  0  0  0  0
   -0.7363    1.2363   -0.3213 C   0  0  0  0  0  0  0  0  0  0  0  0
    0.6217    1.1691   -0.0277 C   0  0  0  0  0  0  0  0  0  0  0  0
    1.2200   -0.0695    0.2319 C   0  0  0  0  0  0  0  0  0  0  0  0
    0.4733   -1.2560    0.2015 C   0  0  0  0  0  0  0  0  0  0  0  0
   -0.8848   -1.2138   -0.0898 C   0  0  0  0  0  0  0  0  0  0  0  0
   -1.5146    2.3836   -0.6078 H   0  0  0  0  0  0  0  0  0  0  0  0
    1.2166    2.0766    0.0008 H   0  0  0  0  0  0  0  0  0  0  0  0
    2.2806   -0.1146    0.4628 H   0  0  0  0  0  0  0  0  0  0  0  0
    0.9531   -2.2072    0.4060 H   0  0  0  0  0  0  0  0  0  0  0  0
   -1.4939   -2.1111   -0.1217 H   0  0  0  0  0  0  0  0  0  0  0  0
   -3.3559    3.0191   -1.0629 Cl  0  0  0  0  0  0  0  0  0  0  0  0
  1  4  2  0  0  0  0
  1  8  1  0  0  0  0
  2  1  1  0  0  0  0
  3  2  2  0  0  0  0
  4  5  1  0  0  0  0
  5 10  1  0  0  0  0
  5  6  2  0  0  0  0
  6 11  1  0  0  0  0
  7  6  1  0  0  0  0
  7 12  1  0  0  0  0
  8  7  2  0  0  0  0
  9  4  1  0  0  0  0
 13  8  1  0  0  0  0
M  RAD  2   3   2  14   2
M  END
