Coordinates from ORCA-job PhN2+~Cl-_B3LYPG-6-31G_dp-CH-Scan-d09-49-n800
 OpenBabel11261919593D

 14 13  0  0  0  0  0  0  0  0999 V2000
   -1.3461   -0.6088   -0.2654 C   0  0  0  0  0  0  0  0  0  0  0  0
   -2.7027   -0.7670   -0.5402 N   0  0  0  0  0  0  0  0  0  0  0  0
   -3.7982   -0.8117   -0.7711 N   0  0  0  0  0  0  0  0  0  0  0  0
   -0.9606    0.7375   -0.3347 C   0  0  0  0  0  0  0  0  0  0  0  0
    0.4311    0.8383   -0.0432 C   0  0  0  0  0  0  0  0  0  0  0  0
    1.2401   -0.2523    0.2580 C   0  0  0  0  0  0  0  0  0  0  0  0
    0.7282   -1.5751    0.2964 C   0  0  0  0  0  0  0  0  0  0  0  0
   -0.6053   -1.7862    0.0295 C   0  0  0  0  0  0  0  0  0  0  0  0
   -2.6242    5.1635   -1.0999 H   0  0  0  0  0  0  0  0  0  0  0  0
    0.9013    1.8228   -0.0534 H   0  0  0  0  0  0  0  0  0  0  0  0
    2.2969   -0.1019    0.4737 H   0  0  0  0  0  0  0  0  0  0  0  0
    1.3806   -2.4090    0.5342 H   0  0  0  0  0  0  0  0  0  0  0  0
   -1.0559   -2.7753    0.0443 H   0  0  0  0  0  0  0  0  0  0  0  0
   -3.1355    6.3187   -1.3416 Cl  0  0  0  0  0  0  0  0  0  0  0  0
  1  8  1  0  0  0  0
  2  1  1  0  0  0  0
  3  2  1  0  0  0  0
  4  1  2  0  0  0  0
  4  5  1  0  0  0  0
  5  6  2  0  0  0  0
  6  7  1  0  0  0  0
  6 11  1  0  0  0  0
  7 12  1  0  0  0  0
  8 13  1  0  0  0  0
  8  7  2  0  0  0  0
 10  5  1  0  0  0  0
 14  9  1  0  0  0  0
M  RAD  3   2   2   3   3   4   2
M  END
