Coordinates from ORCA-job PhN2+~Cl-_B3LYPG-6-31G_dp-CH-Scan-d09-49-n800
 OpenBabel11261919593D

 14 14  0  0  0  0  0  0  0  0999 V2000
   -1.4880    0.1030   -0.3669 C   0  0  0  0  0  0  0  0  0  0  0  0
   -2.8653    0.0744   -0.6609 N   0  0  0  0  0  0  0  0  0  0  0  0
   -3.7799    0.7595   -0.9164 N   0  0  0  0  0  0  0  0  0  0  0  0
   -0.7403    1.2924   -0.3403 C   0  0  0  0  0  0  0  0  0  0  0  0
    0.6167    1.1942   -0.0368 C   0  0  0  0  0  0  0  0  0  0  0  0
    1.2094   -0.0428    0.2314 C   0  0  0  0  0  0  0  0  0  0  0  0
    0.4474   -1.2143    0.1981 C   0  0  0  0  0  0  0  0  0  0  0  0
   -0.9083   -1.1459   -0.1032 C   0  0  0  0  0  0  0  0  0  0  0  0
   -1.1415    2.1066   -0.5188 H   0  0  0  0  0  0  0  0  0  0  0  0
    1.2146    2.0999   -0.0102 H   0  0  0  0  0  0  0  0  0  0  0  0
    2.2678   -0.0940    0.4680 H   0  0  0  0  0  0  0  0  0  0  0  0
    0.9076   -2.1746    0.4065 H   0  0  0  0  0  0  0  0  0  0  0  0
   -1.5288   -2.0346   -0.1380 H   0  0  0  0  0  0  0  0  0  0  0  0
   -3.4617    2.8698   -1.0256 Cl  0  0  0  0  0  0  0  0  0  0  0  0
  1  4  2  0  0  0  0
  1  8  1  0  0  0  0
  2  1  1  0  0  0  0
  3  2  2  0  0  0  0
  4  5  1  0  0  0  0
  5 10  1  0  0  0  0
  5  6  2  0  0  0  0
  6 11  1  0  0  0  0
  7  6  1  0  0  0  0
  7 12  1  0  0  0  0
  8  7  2  0  0  0  0
  9  4  1  0  0  0  0
 13  8  1  0  0  0  0
 14  3  1  0  0  0  0
M  END
