Coordinates from ORCA-job PhN2+~Cl-_B3LYPG-6-31G_dp-CH-Scan-d09-49-n800
 OpenBabel11261919593D

 14 13  0  0  0  0  0  0  0  0999 V2000
   -1.3349   -0.5324   -0.2726 C   0  0  0  0  0  0  0  0  0  0  0  0
   -2.6948   -0.6437   -0.5535 N   0  0  0  0  0  0  0  0  0  0  0  0
   -3.7902   -0.6510   -0.7888 N   0  0  0  0  0  0  0  0  0  0  0  0
   -0.9034    0.8005   -0.3354 C   0  0  0  0  0  0  0  0  0  0  0  0
    0.4900    0.8522   -0.0377 C   0  0  0  0  0  0  0  0  0  0  0  0
    1.2600   -0.2664    0.2628 C   0  0  0  0  0  0  0  0  0  0  0  0
    0.7029   -1.5710    0.2943 C   0  0  0  0  0  0  0  0  0  0  0  0
   -0.6358   -1.7354    0.0211 C   0  0  0  0  0  0  0  0  0  0  0  0
   -2.6397    4.9439   -1.0848 H   0  0  0  0  0  0  0  0  0  0  0  0
    0.9929    1.8204   -0.0424 H   0  0  0  0  0  0  0  0  0  0  0  0
    2.3203   -0.1531    0.4835 H   0  0  0  0  0  0  0  0  0  0  0  0
    1.3253   -2.4274    0.5318 H   0  0  0  0  0  0  0  0  0  0  0  0
   -1.1200   -2.7085    0.0304 H   0  0  0  0  0  0  0  0  0  0  0  0
   -3.2228    6.0656   -1.3221 Cl  0  0  0  0  0  0  0  0  0  0  0  0
  1  8  1  0  0  0  0
  2  1  1  0  0  0  0
  3  2  1  0  0  0  0
  4  1  2  0  0  0  0
  4  5  1  0  0  0  0
  5  6  2  0  0  0  0
  6  7  1  0  0  0  0
  6 11  1  0  0  0  0
  7 12  1  0  0  0  0
  8 13  1  0  0  0  0
  8  7  2  0  0  0  0
 10  5  1  0  0  0  0
 14  9  1  0  0  0  0
M  RAD  3   2   2   3   3   4   2
M  END
