Coordinates from ORCA-job PhN2+~Cl-_B3LYPG-6-31G_dp-CH-Scan-d09-49-n800
 OpenBabel11261919593D

 14 13  0  0  0  0  0  0  0  0999 V2000
   -1.3427   -0.5813   -0.2686 C   0  0  0  0  0  0  0  0  0  0  0  0
   -2.7005   -0.7233   -0.5458 N   0  0  0  0  0  0  0  0  0  0  0  0
   -3.7961   -0.7554   -0.7784 N   0  0  0  0  0  0  0  0  0  0  0  0
   -0.9408    0.7604   -0.3365 C   0  0  0  0  0  0  0  0  0  0  0  0
    0.4514    0.8442   -0.0426 C   0  0  0  0  0  0  0  0  0  0  0  0
    1.2468   -0.2562    0.2595 C   0  0  0  0  0  0  0  0  0  0  0  0
    0.7189   -1.5727    0.2963 C   0  0  0  0  0  0  0  0  0  0  0  0
   -0.6165   -1.7677    0.0270 C   0  0  0  0  0  0  0  0  0  0  0  0
   -2.6269    5.0815   -1.0933 H   0  0  0  0  0  0  0  0  0  0  0  0
    0.9335    1.8230   -0.0514 H   0  0  0  0  0  0  0  0  0  0  0  0
    2.3049   -0.1186    0.4771 H   0  0  0  0  0  0  0  0  0  0  0  0
    1.3608   -2.4145    0.5349 H   0  0  0  0  0  0  0  0  0  0  0  0
   -1.0790   -2.7513    0.0405 H   0  0  0  0  0  0  0  0  0  0  0  0
   -3.1641    6.2255   -1.3319 Cl  0  0  0  0  0  0  0  0  0  0  0  0
  1  8  1  0  0  0  0
  2  1  1  0  0  0  0
  3  2  1  0  0  0  0
  4  1  2  0  0  0  0
  4  5  1  0  0  0  0
  5  6  2  0  0  0  0
  6  7  1  0  0  0  0
  6 11  1  0  0  0  0
  7 12  1  0  0  0  0
  8 13  1  0  0  0  0
  8  7  2  0  0  0  0
 10  5  1  0  0  0  0
 14  9  1  0  0  0  0
M  RAD  3   2   2   3   3   4   2
M  END
