Coordinates from ORCA-job PhN2+~Cl-_B3LYPG-6-31G_dp-CH-Scan-d09-49-n800
 OpenBabel11261919593D

 14 14  0  0  0  0  0  0  0  0999 V2000
   -1.4810    0.0967   -0.3601 C   0  0  0  0  0  0  0  0  0  0  0  0
   -2.8585    0.0761   -0.6513 N   0  0  0  0  0  0  0  0  0  0  0  0
   -3.7785    0.7487   -0.9117 N   0  0  0  0  0  0  0  0  0  0  0  0
   -0.7290    1.2819   -0.3307 C   0  0  0  0  0  0  0  0  0  0  0  0
    0.6280    1.1850   -0.0308 C   0  0  0  0  0  0  0  0  0  0  0  0
    1.2170   -0.0554    0.2320 C   0  0  0  0  0  0  0  0  0  0  0  0
    0.4524   -1.2258    0.1971 C   0  0  0  0  0  0  0  0  0  0  0  0
   -0.9037   -1.1548   -0.1006 C   0  0  0  0  0  0  0  0  0  0  0  0
   -1.2002    2.2154   -0.5338 H   0  0  0  0  0  0  0  0  0  0  0  0
    1.2285    2.0887   -0.0021 H   0  0  0  0  0  0  0  0  0  0  0  0
    2.2758   -0.1102    0.4663 H   0  0  0  0  0  0  0  0  0  0  0  0
    0.9117   -2.1872    0.4018 H   0  0  0  0  0  0  0  0  0  0  0  0
   -1.5259   -2.0425   -0.1361 H   0  0  0  0  0  0  0  0  0  0  0  0
   -3.4869    2.8771   -1.0533 Cl  0  0  0  0  0  0  0  0  0  0  0  0
  1  4  2  0  0  0  0
  1  8  1  0  0  0  0
  2  1  1  0  0  0  0
  3  2  2  0  0  0  0
  4  5  1  0  0  0  0
  5 10  1  0  0  0  0
  5  6  2  0  0  0  0
  6 11  1  0  0  0  0
  7  6  1  0  0  0  0
  7 12  1  0  0  0  0
  8  7  2  0  0  0  0
  9  4  1  0  0  0  0
 13  8  1  0  0  0  0
 14  3  1  0  0  0  0
M  END
