Coordinates from ORCA-job PhN2+~Cl-_B3LYPG-6-31G_dp-CH-Scan-d09-49-n800
 OpenBabel11261919593D

 14 14  0  0  0  0  0  0  0  0999 V2000
   -1.4825    0.0983   -0.3617 C   0  0  0  0  0  0  0  0  0  0  0  0
   -2.8599    0.0756   -0.6535 N   0  0  0  0  0  0  0  0  0  0  0  0
   -3.7790    0.7506   -0.9129 N   0  0  0  0  0  0  0  0  0  0  0  0
   -0.7312    1.2845   -0.3329 C   0  0  0  0  0  0  0  0  0  0  0  0
    0.6258    1.1869   -0.0321 C   0  0  0  0  0  0  0  0  0  0  0  0
    1.2155   -0.0528    0.2319 C   0  0  0  0  0  0  0  0  0  0  0  0
    0.4513   -1.2233    0.1974 C   0  0  0  0  0  0  0  0  0  0  0  0
   -0.9048   -1.1527   -0.1012 C   0  0  0  0  0  0  0  0  0  0  0  0
   -1.1865    2.1929   -0.5308 H   0  0  0  0  0  0  0  0  0  0  0  0
    1.2259    2.0909   -0.0038 H   0  0  0  0  0  0  0  0  0  0  0  0
    2.2742   -0.1070    0.4668 H   0  0  0  0  0  0  0  0  0  0  0  0
    0.9106   -2.1846    0.4029 H   0  0  0  0  0  0  0  0  0  0  0  0
   -1.5267   -2.0405   -0.1366 H   0  0  0  0  0  0  0  0  0  0  0  0
   -3.4829    2.8749   -1.0470 Cl  0  0  0  0  0  0  0  0  0  0  0  0
  1  4  2  0  0  0  0
  1  8  1  0  0  0  0
  2  1  1  0  0  0  0
  3  2  2  0  0  0  0
  4  5  1  0  0  0  0
  5 10  1  0  0  0  0
  5  6  2  0  0  0  0
  6 11  1  0  0  0  0
  7  6  1  0  0  0  0
  7 12  1  0  0  0  0
  8  7  2  0  0  0  0
  9  4  1  0  0  0  0
 13  8  1  0  0  0  0
 14  3  1  0  0  0  0
M  END
