Coordinates from ORCA-job PhN2+~Cl-_B3LYPG-6-31G_dp-CH-Scan-d09-49-n800
 OpenBabel11261919593D

 14 13  0  0  0  0  0  0  0  0999 V2000
   -1.4294   -0.0108   -0.3355 C   0  0  0  0  0  0  0  0  0  0  0  0
   -2.7857    0.0375   -0.6267 N   0  0  0  0  0  0  0  0  0  0  0  0
   -3.8695    0.1613   -0.8681 N   0  0  0  0  0  0  0  0  0  0  0  0
   -0.8108    1.2500   -0.3419 C   0  0  0  0  0  0  0  0  0  0  0  0
    0.5659    1.1487   -0.0389 C   0  0  0  0  0  0  0  0  0  0  0  0
    1.1934   -0.0663    0.2268 C   0  0  0  0  0  0  0  0  0  0  0  0
    0.4829   -1.2895    0.2084 C   0  0  0  0  0  0  0  0  0  0  0  0
   -0.8652   -1.2867   -0.0778 C   0  0  0  0  0  0  0  0  0  0  0  0
   -1.8543    2.6774   -0.7098 H   0  0  0  0  0  0  0  0  0  0  0  0
    1.1653    2.0569   -0.0106 H   0  0  0  0  0  0  0  0  0  0  0  0
    2.2565   -0.0869    0.4566 H   0  0  0  0  0  0  0  0  0  0  0  0
    0.9941   -2.2229    0.4187 H   0  0  0  0  0  0  0  0  0  0  0  0
   -1.4570   -2.1968   -0.1043 H   0  0  0  0  0  0  0  0  0  0  0  0
   -2.8365    3.6217   -1.0105 Cl  0  0  0  0  0  0  0  0  0  0  0  0
  1  8  1  0  0  0  0
  2  1  1  0  0  0  0
  3  2  1  0  0  0  0
  4  1  2  0  0  0  0
  4  5  1  0  0  0  0
  5 10  1  0  0  0  0
  5  6  2  0  0  0  0
  6 11  1  0  0  0  0
  7  6  1  0  0  0  0
  7 12  1  0  0  0  0
  8  7  2  0  0  0  0
 13  8  1  0  0  0  0
 14  9  1  0  0  0  0
M  RAD  3   2   2   3   3   4   2
M  END
