Coordinates from ORCA-job PhN2+~Cl-_B3LYPG-6-31G_dp-CH-Scan-d09-49-n800
 OpenBabel11261919593D

 14 13  0  0  0  0  0  0  0  0999 V2000
   -1.3384   -0.5517   -0.2714 C   0  0  0  0  0  0  0  0  0  0  0  0
   -2.6974   -0.6757   -0.5508 N   0  0  0  0  0  0  0  0  0  0  0  0
   -3.7929   -0.6936   -0.7851 N   0  0  0  0  0  0  0  0  0  0  0  0
   -0.9186    0.7847   -0.3366 C   0  0  0  0  0  0  0  0  0  0  0  0
    0.4741    0.8496   -0.0403 C   0  0  0  0  0  0  0  0  0  0  0  0
    1.2544   -0.2617    0.2613 C   0  0  0  0  0  0  0  0  0  0  0  0
    0.7091   -1.5712    0.2954 C   0  0  0  0  0  0  0  0  0  0  0  0
   -0.6283   -1.7481    0.0237 C   0  0  0  0  0  0  0  0  0  0  0  0
   -2.6329    4.9972   -1.0875 H   0  0  0  0  0  0  0  0  0  0  0  0
    0.9692    1.8218   -0.0468 H   0  0  0  0  0  0  0  0  0  0  0  0
    2.3139   -0.1385    0.4809 H   0  0  0  0  0  0  0  0  0  0  0  0
    1.3394   -2.4217    0.5338 H   0  0  0  0  0  0  0  0  0  0  0  0
   -1.1038   -2.7254    0.0350 H   0  0  0  0  0  0  0  0  0  0  0  0
   -3.1982    6.1280   -1.3247 Cl  0  0  0  0  0  0  0  0  0  0  0  0
  1  8  1  0  0  0  0
  2  1  1  0  0  0  0
  3  2  1  0  0  0  0
  4  1  2  0  0  0  0
  4  5  1  0  0  0  0
  5  6  2  0  0  0  0
  6  7  1  0  0  0  0
  6 11  1  0  0  0  0
  7 12  1  0  0  0  0
  8 13  1  0  0  0  0
  8  7  2  0  0  0  0
 10  5  1  0  0  0  0
 14  9  1  0  0  0  0
M  RAD  3   2   2   3   3   4   2
M  END
