Coordinates from ORCA-job PhN2+~Cl-_B3LYPG-6-31G_dp-CH-Scan-d09-49-n800
 OpenBabel11261919593D

 14 13  0  0  0  0  0  0  0  0999 V2000
   -1.4336    0.0005   -0.3371 C   0  0  0  0  0  0  0  0  0  0  0  0
   -2.8080    0.0983   -0.6370 N   0  0  0  0  0  0  0  0  0  0  0  0
   -3.7608    0.6458   -0.8954 N   0  0  0  0  0  0  0  0  0  0  0  0
   -0.7857    1.2349   -0.3338 C   0  0  0  0  0  0  0  0  0  0  0  0
    0.5822    1.1645   -0.0368 C   0  0  0  0  0  0  0  0  0  0  0  0
    1.2024   -0.0596    0.2277 C   0  0  0  0  0  0  0  0  0  0  0  0
    0.4840   -1.2709    0.2063 C   0  0  0  0  0  0  0  0  0  0  0  0
   -0.8710   -1.2614   -0.0819 C   0  0  0  0  0  0  0  0  0  0  0  0
   -1.7414    2.4121   -0.6592 H   0  0  0  0  0  0  0  0  0  0  0  0
    1.1742    2.0760   -0.0100 H   0  0  0  0  0  0  0  0  0  0  0  0
    2.2646   -0.0847    0.4578 H   0  0  0  0  0  0  0  0  0  0  0  0
    0.9885   -2.2082    0.4156 H   0  0  0  0  0  0  0  0  0  0  0  0
   -1.4661   -2.1686   -0.1096 H   0  0  0  0  0  0  0  0  0  0  0  0
   -3.0795    3.2150   -1.0200 Cl  0  0  0  0  0  0  0  0  0  0  0  0
  1  4  2  0  0  0  0
  1  8  1  0  0  0  0
  2  1  1  0  0  0  0
  3  2  2  0  0  0  0
  4  5  1  0  0  0  0
  5 10  1  0  0  0  0
  5  6  2  0  0  0  0
  6 11  1  0  0  0  0
  7  6  1  0  0  0  0
  7 12  1  0  0  0  0
  8  7  2  0  0  0  0
 13  8  1  0  0  0  0
 14  9  1  0  0  0  0
M  RAD  2   3   2   4   2
M  END
