Coordinates from ORCA-job PhN2+~Cl-_B3LYPG-6-31G_dp-CH-Scan-d09-49-n800
 OpenBabel11261919593D

 14 13  0  0  0  0  0  0  0  0999 V2000
   -1.3337   -0.4022   -0.2853 C   0  0  0  0  0  0  0  0  0  0  0  0
   -2.6949   -0.4546   -0.5725 N   0  0  0  0  0  0  0  0  0  0  0  0
   -3.7886   -0.4174   -0.8123 N   0  0  0  0  0  0  0  0  0  0  0  0
   -0.8430    0.9114   -0.3349 C   0  0  0  0  0  0  0  0  0  0  0  0
    0.5497    0.8997   -0.0311 C   0  0  0  0  0  0  0  0  0  0  0  0
    1.2690   -0.2540    0.2628 C   0  0  0  0  0  0  0  0  0  0  0  0
    0.6553   -1.5330    0.2811 C   0  0  0  0  0  0  0  0  0  0  0  0
   -0.6879   -1.6366    0.0015 C   0  0  0  0  0  0  0  0  0  0  0  0
   -2.5699    4.4840   -1.0323 H   0  0  0  0  0  0  0  0  0  0  0  0
    1.0941    1.8451   -0.0255 H   0  0  0  0  0  0  0  0  0  0  0  0
    2.3322   -0.1890    0.4885 H   0  0  0  0  0  0  0  0  0  0  0  0
    1.2387   -2.4179    0.5140 H   0  0  0  0  0  0  0  0  0  0  0  0
   -1.2141   -2.5877    0.0007 H   0  0  0  0  0  0  0  0  0  0  0  0
   -3.2571    5.5457   -1.2680 Cl  0  0  0  0  0  0  0  0  0  0  0  0
  1  8  1  0  0  0  0
  2  1  1  0  0  0  0
  3  2  1  0  0  0  0
  4  1  2  0  0  0  0
  4  5  1  0  0  0  0
  5 10  1  0  0  0  0
  5  6  2  0  0  0  0
  6  7  1  0  0  0  0
  6 11  1  0  0  0  0
  7 12  1  0  0  0  0
  8  7  2  0  0  0  0
 13  8  1  0  0  0  0
 14  9  1  0  0  0  0
M  RAD  3   2   2   3   3   4   2
M  END
