Coordinates from ORCA-job PhN2+~Cl-_B3LYPG-6-31G_dp-CH-Scan-d09-49-n800
 OpenBabel11261919593D

 14 14  0  0  0  0  0  0  0  0999 V2000
   -1.4767    0.0909   -0.3561 C   0  0  0  0  0  0  0  0  0  0  0  0
   -2.8542    0.0778   -0.6459 N   0  0  0  0  0  0  0  0  0  0  0  0
   -3.7757    0.7447   -0.9088 N   0  0  0  0  0  0  0  0  0  0  0  0
   -0.7234    1.2738   -0.3253 C   0  0  0  0  0  0  0  0  0  0  0  0
    0.6333    1.1799   -0.0276 C   0  0  0  0  0  0  0  0  0  0  0  0
    1.2209   -0.0622    0.2323 C   0  0  0  0  0  0  0  0  0  0  0  0
    0.4559   -1.2326    0.1967 C   0  0  0  0  0  0  0  0  0  0  0  0
   -0.9007   -1.1620   -0.0989 C   0  0  0  0  0  0  0  0  0  0  0  0
   -1.2432    2.2763   -0.5441 H   0  0  0  0  0  0  0  0  0  0  0  0
    1.2344    2.0830    0.0020 H   0  0  0  0  0  0  0  0  0  0  0  0
    2.2800   -0.1183    0.4653 H   0  0  0  0  0  0  0  0  0  0  0  0
    0.9157   -2.1942    0.3996 H   0  0  0  0  0  0  0  0  0  0  0  0
   -1.5230   -2.0496   -0.1345 H   0  0  0  0  0  0  0  0  0  0  0  0
   -3.4937    2.8863   -1.0679 Cl  0  0  0  0  0  0  0  0  0  0  0  0
  1  4  2  0  0  0  0
  1  8  1  0  0  0  0
  2  1  1  0  0  0  0
  3  2  2  0  0  0  0
  4  5  1  0  0  0  0
  5 10  1  0  0  0  0
  5  6  2  0  0  0  0
  6 11  1  0  0  0  0
  7  6  1  0  0  0  0
  7 12  1  0  0  0  0
  8  7  2  0  0  0  0
  9  4  1  0  0  0  0
 13  8  1  0  0  0  0
 14  3  1  0  0  0  0
M  END
