Coordinates from ORCA-job PhN2+~Cl-_B3LYPG-6-31G_dp-CH-Scan-d09-49-n800
 OpenBabel11261919593D

 14 14  0  0  0  0  0  0  0  0999 V2000
   -1.4813    0.0969   -0.3604 C   0  0  0  0  0  0  0  0  0  0  0  0
   -2.8588    0.0760   -0.6516 N   0  0  0  0  0  0  0  0  0  0  0  0
   -3.7786    0.7491   -0.9119 N   0  0  0  0  0  0  0  0  0  0  0  0
   -0.7294    1.2824   -0.3311 C   0  0  0  0  0  0  0  0  0  0  0  0
    0.6276    1.1853   -0.0310 C   0  0  0  0  0  0  0  0  0  0  0  0
    1.2167   -0.0550    0.2320 C   0  0  0  0  0  0  0  0  0  0  0  0
    0.4522   -1.2253    0.1971 C   0  0  0  0  0  0  0  0  0  0  0  0
   -0.9039   -1.1545   -0.1007 C   0  0  0  0  0  0  0  0  0  0  0  0
   -1.1979    2.2117   -0.5333 H   0  0  0  0  0  0  0  0  0  0  0  0
    1.2280    2.0891   -0.0024 H   0  0  0  0  0  0  0  0  0  0  0  0
    2.2755   -0.1097    0.4664 H   0  0  0  0  0  0  0  0  0  0  0  0
    0.9116   -2.1868    0.4020 H   0  0  0  0  0  0  0  0  0  0  0  0
   -1.5260   -2.0422   -0.1362 H   0  0  0  0  0  0  0  0  0  0  0  0
   -3.4860    2.8766   -1.0522 Cl  0  0  0  0  0  0  0  0  0  0  0  0
  1  4  2  0  0  0  0
  1  8  1  0  0  0  0
  2  1  1  0  0  0  0
  3  2  2  0  0  0  0
  4  5  1  0  0  0  0
  5 10  1  0  0  0  0
  5  6  2  0  0  0  0
  6 11  1  0  0  0  0
  7  6  1  0  0  0  0
  7 12  1  0  0  0  0
  8  7  2  0  0  0  0
  9  4  1  0  0  0  0
 13  8  1  0  0  0  0
 14  3  1  0  0  0  0
M  END
