Coordinates from ORCA-job PhN2+~Cl-_B3LYPG-6-31G_dp-CH-Scan-d09-49-n800
 OpenBabel11261919593D

 14 13  0  0  0  0  0  0  0  0999 V2000
   -1.4030   -0.0553   -0.3260 C   0  0  0  0  0  0  0  0  0  0  0  0
   -2.7588   -0.0158   -0.6163 N   0  0  0  0  0  0  0  0  0  0  0  0
   -3.8469    0.0812   -0.8559 N   0  0  0  0  0  0  0  0  0  0  0  0
   -0.7971    1.2130   -0.3365 C   0  0  0  0  0  0  0  0  0  0  0  0
    0.5836    1.1044   -0.0315 C   0  0  0  0  0  0  0  0  0  0  0  0
    1.2145   -0.1075    0.2356 C   0  0  0  0  0  0  0  0  0  0  0  0
    0.5076   -1.3346    0.2190 C   0  0  0  0  0  0  0  0  0  0  0  0
   -0.8392   -1.3339   -0.0672 C   0  0  0  0  0  0  0  0  0  0  0  0
   -2.0266    2.9732   -0.7761 H   0  0  0  0  0  0  0  0  0  0  0  0
    1.1868    2.0109   -0.0026 H   0  0  0  0  0  0  0  0  0  0  0  0
    2.2779   -0.1254    0.4658 H   0  0  0  0  0  0  0  0  0  0  0  0
    1.0216   -2.2663    0.4306 H   0  0  0  0  0  0  0  0  0  0  0  0
   -1.4303   -2.2449   -0.0930 H   0  0  0  0  0  0  0  0  0  0  0  0
   -2.9405    3.8947   -1.0591 Cl  0  0  0  0  0  0  0  0  0  0  0  0
  1  8  1  0  0  0  0
  2  1  1  0  0  0  0
  3  2  1  0  0  0  0
  4  1  2  0  0  0  0
  4  5  1  0  0  0  0
  5 10  1  0  0  0  0
  5  6  2  0  0  0  0
  6 11  1  0  0  0  0
  7  6  1  0  0  0  0
  7 12  1  0  0  0  0
  8  7  2  0  0  0  0
 13  8  1  0  0  0  0
 14  9  1  0  0  0  0
M  RAD  3   2   2   3   3   4   2
M  END
