Coordinates from ORCA-job PhN2+~Cl-_B3LYPG-6-31G_dp-CH-Scan-d09-49-n800
 OpenBabel11261919593D

 14 14  0  0  0  0  0  0  0  0999 V2000
   -1.4775    0.0920   -0.3567 C   0  0  0  0  0  0  0  0  0  0  0  0
   -2.8550    0.0776   -0.6465 N   0  0  0  0  0  0  0  0  0  0  0  0
   -3.7764    0.7452   -0.9092 N   0  0  0  0  0  0  0  0  0  0  0  0
   -0.7243    1.2753   -0.3260 C   0  0  0  0  0  0  0  0  0  0  0  0
    0.6324    1.1808   -0.0281 C   0  0  0  0  0  0  0  0  0  0  0  0
    1.2203   -0.0611    0.2321 C   0  0  0  0  0  0  0  0  0  0  0  0
    0.4553   -1.2315    0.1966 C   0  0  0  0  0  0  0  0  0  0  0  0
   -0.9013   -1.1606   -0.0992 C   0  0  0  0  0  0  0  0  0  0  0  0
   -1.2352    2.2659   -0.5419 H   0  0  0  0  0  0  0  0  0  0  0  0
    1.2335    2.0839    0.0015 H   0  0  0  0  0  0  0  0  0  0  0  0
    2.2794   -0.1171    0.4653 H   0  0  0  0  0  0  0  0  0  0  0  0
    0.9150   -2.1930    0.3997 H   0  0  0  0  0  0  0  0  0  0  0  0
   -1.5235   -2.0482   -0.1348 H   0  0  0  0  0  0  0  0  0  0  0  0
   -3.4930    2.8843   -1.0662 Cl  0  0  0  0  0  0  0  0  0  0  0  0
  1  4  2  0  0  0  0
  1  8  1  0  0  0  0
  2  1  1  0  0  0  0
  3  2  2  0  0  0  0
  4  5  1  0  0  0  0
  5 10  1  0  0  0  0
  5  6  2  0  0  0  0
  6 11  1  0  0  0  0
  7  6  1  0  0  0  0
  7 12  1  0  0  0  0
  8  7  2  0  0  0  0
  9  4  1  0  0  0  0
 13  8  1  0  0  0  0
 14  3  1  0  0  0  0
M  END
