Coordinates from ORCA-job PhN2+~Cl-_B3LYPG-6-31G_dp-CH-Scan-d09-49-n800
 OpenBabel11261919593D

 14 13  0  0  0  0  0  0  0  0999 V2000
   -1.3605   -0.1845   -0.3076 C   0  0  0  0  0  0  0  0  0  0  0  0
   -2.7183   -0.1694   -0.5976 N   0  0  0  0  0  0  0  0  0  0  0  0
   -3.8091   -0.0925   -0.8378 N   0  0  0  0  0  0  0  0  0  0  0  0
   -0.7908    1.0999   -0.3313 C   0  0  0  0  0  0  0  0  0  0  0  0
    0.5960    1.0113   -0.0249 C   0  0  0  0  0  0  0  0  0  0  0  0
    1.2506   -0.1848    0.2514 C   0  0  0  0  0  0  0  0  0  0  0  0
    0.5682   -1.4277    0.2456 C   0  0  0  0  0  0  0  0  0  0  0  0
   -0.7776   -1.4543   -0.0396 C   0  0  0  0  0  0  0  0  0  0  0  0
   -2.3211    3.6022   -0.8988 H   0  0  0  0  0  0  0  0  0  0  0  0
    1.1871    1.9269   -0.0022 H   0  0  0  0  0  0  0  0  0  0  0  0
    2.3146   -0.1809    0.4814 H   0  0  0  0  0  0  0  0  0  0  0  0
    1.1012   -2.3471    0.4647 H   0  0  0  0  0  0  0  0  0  0  0  0
   -1.3529   -2.3760   -0.0581 H   0  0  0  0  0  0  0  0  0  0  0  0
   -3.1375    4.5706   -1.1584 Cl  0  0  0  0  0  0  0  0  0  0  0  0
  1  8  1  0  0  0  0
  2  1  1  0  0  0  0
  3  2  1  0  0  0  0
  4  1  2  0  0  0  0
  4  5  1  0  0  0  0
  5 10  1  0  0  0  0
  5  6  2  0  0  0  0
  6 11  1  0  0  0  0
  7  6  1  0  0  0  0
  7 12  1  0  0  0  0
  8  7  2  0  0  0  0
 13  8  1  0  0  0  0
 14  9  1  0  0  0  0
M  RAD  3   2   2   3   3   4   2
M  END
