Coordinates from ORCA-job PhN2+~Cl-_B3LYPG-6-31G_dp-CH-Scan-d09-49-n800
 OpenBabel11261919593D

 14 13  0  0  0  0  0  0  0  0999 V2000
   -1.4369    0.0042   -0.3382 C   0  0  0  0  0  0  0  0  0  0  0  0
   -2.8131    0.0970   -0.6378 N   0  0  0  0  0  0  0  0  0  0  0  0
   -3.7477    0.6827   -0.8962 N   0  0  0  0  0  0  0  0  0  0  0  0
   -0.7789    1.2326   -0.3321 C   0  0  0  0  0  0  0  0  0  0  0  0
    0.5872    1.1655   -0.0358 C   0  0  0  0  0  0  0  0  0  0  0  0
    1.2048   -0.0607    0.2284 C   0  0  0  0  0  0  0  0  0  0  0  0
    0.4832   -1.2688    0.2059 C   0  0  0  0  0  0  0  0  0  0  0  0
   -0.8726   -1.2558   -0.0830 C   0  0  0  0  0  0  0  0  0  0  0  0
   -1.7168    2.3991   -0.6530 H   0  0  0  0  0  0  0  0  0  0  0  0
    1.1789    2.0768   -0.0090 H   0  0  0  0  0  0  0  0  0  0  0  0
    2.2668   -0.0881    0.4587 H   0  0  0  0  0  0  0  0  0  0  0  0
    0.9849   -2.2076    0.4147 H   0  0  0  0  0  0  0  0  0  0  0  0
   -1.4691   -2.1620   -0.1110 H   0  0  0  0  0  0  0  0  0  0  0  0
   -3.1209    3.1786   -1.0249 Cl  0  0  0  0  0  0  0  0  0  0  0  0
  1  4  2  0  0  0  0
  1  8  1  0  0  0  0
  2  1  1  0  0  0  0
  3  2  2  0  0  0  0
  4  5  1  0  0  0  0
  5 10  1  0  0  0  0
  5  6  2  0  0  0  0
  6 11  1  0  0  0  0
  7  6  1  0  0  0  0
  7 12  1  0  0  0  0
  8  7  2  0  0  0  0
 13  8  1  0  0  0  0
 14  9  1  0  0  0  0
M  RAD  2   3   2   4   2
M  END
