Coordinates from ORCA-job PhN2+~Cl-_B3LYPG-6-31G_dp-CH-Scan-d09-49-n800
 OpenBabel11261919593D

 14 13  0  0  0  0  0  0  0  0999 V2000
   -1.4164   -0.0305   -0.3308 C   0  0  0  0  0  0  0  0  0  0  0  0
   -2.7724    0.0131   -0.6213 N   0  0  0  0  0  0  0  0  0  0  0  0
   -3.8589    0.1204   -0.8615 N   0  0  0  0  0  0  0  0  0  0  0  0
   -0.8043    1.2343   -0.3390 C   0  0  0  0  0  0  0  0  0  0  0  0
    0.5746    1.1278   -0.0349 C   0  0  0  0  0  0  0  0  0  0  0  0
    1.2034   -0.0859    0.2310 C   0  0  0  0  0  0  0  0  0  0  0  0
    0.4943   -1.3109    0.2131 C   0  0  0  0  0  0  0  0  0  0  0  0
   -0.8531   -1.3084   -0.0730 C   0  0  0  0  0  0  0  0  0  0  0  0
   -1.9402    2.8194   -0.7424 H   0  0  0  0  0  0  0  0  0  0  0  0
    1.1767    2.0346   -0.0060 H   0  0  0  0  0  0  0  0  0  0  0  0
    2.2666   -0.1056    0.4609 H   0  0  0  0  0  0  0  0  0  0  0  0
    1.0065   -2.2438    0.4237 H   0  0  0  0  0  0  0  0  0  0  0  0
   -1.4450   -2.2186   -0.0995 H   0  0  0  0  0  0  0  0  0  0  0  0
   -2.8821    3.7477   -1.0335 Cl  0  0  0  0  0  0  0  0  0  0  0  0
  1  8  1  0  0  0  0
  2  1  1  0  0  0  0
  3  2  1  0  0  0  0
  4  1  2  0  0  0  0
  4  5  1  0  0  0  0
  5 10  1  0  0  0  0
  5  6  2  0  0  0  0
  6 11  1  0  0  0  0
  7  6  1  0  0  0  0
  7 12  1  0  0  0  0
  8  7  2  0  0  0  0
 13  8  1  0  0  0  0
 14  9  1  0  0  0  0
M  RAD  3   2   2   3   3   4   2
M  END
