Coordinates from ORCA-job PhN2+~Cl-_B3LYPG-6-31G_dp-CH-Scan-d09-49-n800
 OpenBabel11261919593D

 14 13  0  0  0  0  0  0  0  0999 V2000
   -1.3333   -0.4331   -0.2816 C   0  0  0  0  0  0  0  0  0  0  0  0
   -2.6945   -0.4987   -0.5673 N   0  0  0  0  0  0  0  0  0  0  0  0
   -3.7888   -0.4712   -0.8058 N   0  0  0  0  0  0  0  0  0  0  0  0
   -0.8562    0.8853   -0.3334 C   0  0  0  0  0  0  0  0  0  0  0  0
    0.5370    0.8875   -0.0311 C   0  0  0  0  0  0  0  0  0  0  0  0
    1.2680   -0.2586    0.2632 C   0  0  0  0  0  0  0  0  0  0  0  0
    0.6672   -1.5437    0.2838 C   0  0  0  0  0  0  0  0  0  0  0  0
   -0.6754   -1.6608    0.0057 C   0  0  0  0  0  0  0  0  0  0  0  0
   -2.5888    4.5982   -1.0476 H   0  0  0  0  0  0  0  0  0  0  0  0
    1.0721    1.8383   -0.0272 H   0  0  0  0  0  0  0  0  0  0  0  0
    2.3309   -0.1827    0.4876 H   0  0  0  0  0  0  0  0  0  0  0  0
    1.2595   -2.4224    0.5169 H   0  0  0  0  0  0  0  0  0  0  0  0
   -1.1922   -2.6170    0.0067 H   0  0  0  0  0  0  0  0  0  0  0  0
   -3.2558    5.6726   -1.2833 Cl  0  0  0  0  0  0  0  0  0  0  0  0
  1  8  1  0  0  0  0
  2  1  1  0  0  0  0
  3  2  1  0  0  0  0
  4  1  2  0  0  0  0
  4  5  1  0  0  0  0
  5 10  1  0  0  0  0
  5  6  2  0  0  0  0
  6  7  1  0  0  0  0
  6 11  1  0  0  0  0
  7 12  1  0  0  0  0
  8 13  1  0  0  0  0
  8  7  2  0  0  0  0
 14  9  1  0  0  0  0
M  RAD  3   2   2   3   3   4   2
M  END
