Coordinates from ORCA-job PhN2+~Cl-_B3LYPG-6-31G_dp-CH-Scan-d09-49-n800
 OpenBabel11261919593D

 14 13  0  0  0  0  0  0  0  0999 V2000
   -1.4638    0.0638   -0.3502 C   0  0  0  0  0  0  0  0  0  0  0  0
   -2.8404    0.0839   -0.6427 N   0  0  0  0  0  0  0  0  0  0  0  0
   -3.7561    0.7471   -0.9047 N   0  0  0  0  0  0  0  0  0  0  0  0
   -0.7211    1.2480   -0.3214 C   0  0  0  0  0  0  0  0  0  0  0  0
    0.6350    1.1706   -0.0261 C   0  0  0  0  0  0  0  0  0  0  0  0
    1.2246   -0.0719    0.2337 C   0  0  0  0  0  0  0  0  0  0  0  0
    0.4662   -1.2488    0.2002 C   0  0  0  0  0  0  0  0  0  0  0  0
   -0.8911   -1.1907   -0.0938 C   0  0  0  0  0  0  0  0  0  0  0  0
   -1.3994    2.3796   -0.5861 H   0  0  0  0  0  0  0  0  0  0  0  0
    1.2338    2.0750    0.0032 H   0  0  0  0  0  0  0  0  0  0  0  0
    2.2842   -0.1249    0.4662 H   0  0  0  0  0  0  0  0  0  0  0  0
    0.9344   -2.2060    0.4042 H   0  0  0  0  0  0  0  0  0  0  0  0
   -1.5080   -2.0824   -0.1277 H   0  0  0  0  0  0  0  0  0  0  0  0
   -3.4485    2.9503   -1.0681 Cl  0  0  0  0  0  0  0  0  0  0  0  0
  1  4  2  0  0  0  0
  1  8  1  0  0  0  0
  2  1  1  0  0  0  0
  3  2  2  0  0  0  0
  4  5  1  0  0  0  0
  5 10  1  0  0  0  0
  5  6  2  0  0  0  0
  6 11  1  0  0  0  0
  7  6  1  0  0  0  0
  7 12  1  0  0  0  0
  8  7  2  0  0  0  0
  9  4  1  0  0  0  0
 13  8  1  0  0  0  0
M  RAD  2   3   2  14   2
M  END
