Coordinates from ORCA-job PhN2+~Cl-_B3LYPG-6-31G_dp-CH-Scan-d09-49-n800
 OpenBabel11261919593D

 14 13  0  0  0  0  0  0  0  0999 V2000
   -1.3440   -0.5920   -0.2674 C   0  0  0  0  0  0  0  0  0  0  0  0
   -2.7014   -0.7405   -0.5436 N   0  0  0  0  0  0  0  0  0  0  0  0
   -3.7969   -0.7776   -0.7756 N   0  0  0  0  0  0  0  0  0  0  0  0
   -0.9488    0.7517   -0.3360 C   0  0  0  0  0  0  0  0  0  0  0  0
    0.4436    0.8417   -0.0428 C   0  0  0  0  0  0  0  0  0  0  0  0
    1.2444   -0.2548    0.2590 C   0  0  0  0  0  0  0  0  0  0  0  0
    0.7226   -1.5738    0.2964 C   0  0  0  0  0  0  0  0  0  0  0  0
   -0.6120   -1.7749    0.0280 C   0  0  0  0  0  0  0  0  0  0  0  0
   -2.6262    5.1137   -1.0959 H   0  0  0  0  0  0  0  0  0  0  0  0
    0.9207    1.8229   -0.0523 H   0  0  0  0  0  0  0  0  0  0  0  0
    2.3020   -0.1122    0.4758 H   0  0  0  0  0  0  0  0  0  0  0  0
    1.3686   -2.4125    0.5347 H   0  0  0  0  0  0  0  0  0  0  0  0
   -1.0700   -2.7606    0.0420 H   0  0  0  0  0  0  0  0  0  0  0  0
   -3.1528    6.2624   -1.3357 Cl  0  0  0  0  0  0  0  0  0  0  0  0
  1  8  1  0  0  0  0
  2  1  1  0  0  0  0
  3  2  1  0  0  0  0
  4  1  2  0  0  0  0
  4  5  1  0  0  0  0
  5  6  2  0  0  0  0
  6  7  1  0  0  0  0
  6 11  1  0  0  0  0
  7 12  1  0  0  0  0
  8 13  1  0  0  0  0
  8  7  2  0  0  0  0
 10  5  1  0  0  0  0
 14  9  1  0  0  0  0
M  RAD  3   2   2   3   3   4   2
M  END
