Coordinates from ORCA-job PhN2+~Cl-_B3LYPG-6-31G_dp-CH-Scan-d09-49-n800
 OpenBabel11261919593D

 14 13  0  0  0  0  0  0  0  0999 V2000
   -1.4396    0.0075   -0.3390 C   0  0  0  0  0  0  0  0  0  0  0  0
   -2.8166    0.0959   -0.6383 N   0  0  0  0  0  0  0  0  0  0  0  0
   -3.7411    0.7028   -0.8969 N   0  0  0  0  0  0  0  0  0  0  0  0
   -0.7736    1.2315   -0.3307 C   0  0  0  0  0  0  0  0  0  0  0  0
    0.5912    1.1662   -0.0350 C   0  0  0  0  0  0  0  0  0  0  0  0
    1.2067   -0.0616    0.2288 C   0  0  0  0  0  0  0  0  0  0  0  0
    0.4823   -1.2671    0.2054 C   0  0  0  0  0  0  0  0  0  0  0  0
   -0.8740   -1.2512   -0.0837 C   0  0  0  0  0  0  0  0  0  0  0  0
   -1.6957    2.3920   -0.6479 H   0  0  0  0  0  0  0  0  0  0  0  0
    1.1828    2.0774   -0.0081 H   0  0  0  0  0  0  0  0  0  0  0  0
    2.2685   -0.0908    0.4593 H   0  0  0  0  0  0  0  0  0  0  0  0
    0.9817   -2.2073    0.4139 H   0  0  0  0  0  0  0  0  0  0  0  0
   -1.4716   -2.1567   -0.1121 H   0  0  0  0  0  0  0  0  0  0  0  0
   -3.1512    3.1551   -1.0290 Cl  0  0  0  0  0  0  0  0  0  0  0  0
  1  4  2  0  0  0  0
  1  8  1  0  0  0  0
  2  1  1  0  0  0  0
  3  2  2  0  0  0  0
  4  5  1  0  0  0  0
  5 10  1  0  0  0  0
  5  6  2  0  0  0  0
  6 11  1  0  0  0  0
  7  6  1  0  0  0  0
  7 12  1  0  0  0  0
  8  7  2  0  0  0  0
  9  4  1  0  0  0  0
 13  8  1  0  0  0  0
M  RAD  2   3   2  14   2
M  END
