Coordinates from ORCA-job PhN2+~Cl-_B3LYPG-6-31G_dp-CH-Scan-d09-49-n800
 OpenBabel11261919593D

 14 13  0  0  0  0  0  0  0  0999 V2000
   -1.3813   -0.1015   -0.3174 C   0  0  0  0  0  0  0  0  0  0  0  0
   -2.7375   -0.0670   -0.6073 N   0  0  0  0  0  0  0  0  0  0  0  0
   -3.8269    0.0226   -0.8466 N   0  0  0  0  0  0  0  0  0  0  0  0
   -0.7859    1.1720   -0.3311 C   0  0  0  0  0  0  0  0  0  0  0  0
    0.5972    1.0644   -0.0254 C   0  0  0  0  0  0  0  0  0  0  0  0
    1.2331   -0.1439    0.2434 C   0  0  0  0  0  0  0  0  0  0  0  0
    0.5315   -1.3750    0.2289 C   0  0  0  0  0  0  0  0  0  0  0  0
   -0.8148   -1.3796   -0.0570 C   0  0  0  0  0  0  0  0  0  0  0  0
   -2.1623    3.2315   -0.8312 H   0  0  0  0  0  0  0  0  0  0  0  0
    1.1996    1.9720    0.0029 H   0  0  0  0  0  0  0  0  0  0  0  0
    2.2968   -0.1574    0.4737 H   0  0  0  0  0  0  0  0  0  0  0  0
    1.0498   -2.3041    0.4419 H   0  0  0  0  0  0  0  0  0  0  0  0
   -1.4030   -2.2927   -0.0817 H   0  0  0  0  0  0  0  0  0  0  0  0
   -3.0465    4.1522   -1.1062 Cl  0  0  0  0  0  0  0  0  0  0  0  0
  1  8  1  0  0  0  0
  2  1  1  0  0  0  0
  3  2  1  0  0  0  0
  4  1  2  0  0  0  0
  4  5  1  0  0  0  0
  5 10  1  0  0  0  0
  5  6  2  0  0  0  0
  6 11  1  0  0  0  0
  7  6  1  0  0  0  0
  7 12  1  0  0  0  0
  8  7  2  0  0  0  0
 13  8  1  0  0  0  0
 14  9  1  0  0  0  0
M  RAD  3   2   2   3   3   4   2
M  END
