Coordinates from ORCA-job PhN2+~Cl-_B3LYPG-6-31G_dp-CH-Scan-d09-49-n800
 OpenBabel11261919593D

 14 13  0  0  0  0  0  0  0  0999 V2000
   -1.3471   -0.2849   -0.2965 C   0  0  0  0  0  0  0  0  0  0  0  0
   -2.7070   -0.3000   -0.5850 N   0  0  0  0  0  0  0  0  0  0  0  0
   -3.7994   -0.2402   -0.8249 N   0  0  0  0  0  0  0  0  0  0  0  0
   -0.8143    1.0140   -0.3319 C   0  0  0  0  0  0  0  0  0  0  0  0
    0.5762    0.9590   -0.0267 C   0  0  0  0  0  0  0  0  0  0  0  0
    1.2605   -0.2183    0.2570 C   0  0  0  0  0  0  0  0  0  0  0  0
    0.6092   -1.4783    0.2619 C   0  0  0  0  0  0  0  0  0  0  0  0
   -0.7360   -1.5396   -0.0207 C   0  0  0  0  0  0  0  0  0  0  0  0
   -2.4506    4.0059   -0.9643 H   0  0  0  0  0  0  0  0  0  0  0  0
    1.1469    1.8882   -0.0115 H   0  0  0  0  0  0  0  0  0  0  0  0
    2.3246   -0.1868    0.4850 H   0  0  0  0  0  0  0  0  0  0  0  0
    1.1654   -2.3825    0.4867 H   0  0  0  0  0  0  0  0  0  0  0  0
   -1.2894   -2.4748   -0.0316 H   0  0  0  0  0  0  0  0  0  0  0  0
   -3.1893    5.0318   -1.2109 Cl  0  0  0  0  0  0  0  0  0  0  0  0
  1  8  1  0  0  0  0
  2  1  1  0  0  0  0
  3  2  1  0  0  0  0
  4  1  2  0  0  0  0
  4  5  1  0  0  0  0
  5 10  1  0  0  0  0
  5  6  2  0  0  0  0
  6  7  1  0  0  0  0
  6 11  1  0  0  0  0
  7 12  1  0  0  0  0
  8  7  2  0  0  0  0
 13  8  1  0  0  0  0
 14  9  1  0  0  0  0
M  RAD  3   2   2   3   3   4   2
M  END
