Coordinates from ORCA-job PhN2+~Cl-_B3LYPG-6-31G_dp-CH-Scan-d09-49-n800
 OpenBabel11261919593D

 14 13  0  0  0  0  0  0  0  0999 V2000
   -1.3817   -0.1007   -0.3175 C   0  0  0  0  0  0  0  0  0  0  0  0
   -2.7378   -0.0661   -0.6074 N   0  0  0  0  0  0  0  0  0  0  0  0
   -3.8272    0.0236   -0.8467 N   0  0  0  0  0  0  0  0  0  0  0  0
   -0.7861    1.1727   -0.3312 C   0  0  0  0  0  0  0  0  0  0  0  0
    0.5971    1.0650   -0.0255 C   0  0  0  0  0  0  0  0  0  0  0  0
    1.2329   -0.1433    0.2433 C   0  0  0  0  0  0  0  0  0  0  0  0
    0.5311   -1.3744    0.2287 C   0  0  0  0  0  0  0  0  0  0  0  0
   -0.8152   -1.3789   -0.0572 C   0  0  0  0  0  0  0  0  0  0  0  0
   -2.1603    3.2276   -0.8304 H   0  0  0  0  0  0  0  0  0  0  0  0
    1.1995    1.9725    0.0028 H   0  0  0  0  0  0  0  0  0  0  0  0
    2.2965   -0.1570    0.4735 H   0  0  0  0  0  0  0  0  0  0  0  0
    1.0493   -2.3035    0.4417 H   0  0  0  0  0  0  0  0  0  0  0  0
   -1.4034   -2.2919   -0.0819 H   0  0  0  0  0  0  0  0  0  0  0  0
   -3.0449    4.1481   -1.1056 Cl  0  0  0  0  0  0  0  0  0  0  0  0
  1  8  1  0  0  0  0
  2  1  1  0  0  0  0
  3  2  1  0  0  0  0
  4  1  2  0  0  0  0
  4  5  1  0  0  0  0
  5 10  1  0  0  0  0
  5  6  2  0  0  0  0
  6 11  1  0  0  0  0
  7  6  1  0  0  0  0
  7 12  1  0  0  0  0
  8  7  2  0  0  0  0
 13  8  1  0  0  0  0
 14  9  1  0  0  0  0
M  RAD  3   2   2   3   3   4   2
M  END
