Coordinates from ORCA-job PhN2+~Cl-_B3LYPG-6-31G_dp-CH-Scan-d09-49-n800
 OpenBabel11261919593D

 14 13  0  0  0  0  0  0  0  0999 V2000
   -1.4348   -0.0025   -0.3376 C   0  0  0  0  0  0  0  0  0  0  0  0
   -2.7913    0.0504   -0.6294 N   0  0  0  0  0  0  0  0  0  0  0  0
   -3.8723    0.1912   -0.8722 N   0  0  0  0  0  0  0  0  0  0  0  0
   -0.8118    1.2555   -0.3428 C   0  0  0  0  0  0  0  0  0  0  0  0
    0.5635    1.1576   -0.0405 C   0  0  0  0  0  0  0  0  0  0  0  0
    1.1899   -0.0584    0.2252 C   0  0  0  0  0  0  0  0  0  0  0  0
    0.4783   -1.2803    0.2066 C   0  0  0  0  0  0  0  0  0  0  0  0
   -0.8703   -1.2771   -0.0798 C   0  0  0  0  0  0  0  0  0  0  0  0
   -1.8133    2.6103   -0.6942 H   0  0  0  0  0  0  0  0  0  0  0  0
    1.1612    2.0666   -0.0127 H   0  0  0  0  0  0  0  0  0  0  0  0
    2.2528   -0.0797    0.4551 H   0  0  0  0  0  0  0  0  0  0  0  0
    0.9886   -2.2141    0.4169 H   0  0  0  0  0  0  0  0  0  0  0  0
   -1.4623   -2.1870   -0.1062 H   0  0  0  0  0  0  0  0  0  0  0  0
   -2.8287    3.5609   -1.0016 Cl  0  0  0  0  0  0  0  0  0  0  0  0
  1  8  1  0  0  0  0
  2  1  1  0  0  0  0
  3  2  1  0  0  0  0
  4  1  2  0  0  0  0
  4  5  1  0  0  0  0
  5 10  1  0  0  0  0
  5  6  2  0  0  0  0
  6 11  1  0  0  0  0
  7  6  1  0  0  0  0
  7 12  1  0  0  0  0
  8  7  2  0  0  0  0
 13  8  1  0  0  0  0
 14  9  1  0  0  0  0
M  RAD  3   2   2   3   3   4   2
M  END
