Coordinates from ORCA-job PhN2+~Cl-_B3LYPG-6-31G_dp-CH-Scan-d09-49-n800
 OpenBabel11261919593D

 14 13  0  0  0  0  0  0  0  0999 V2000
   -1.3356   -0.3634   -0.2892 C   0  0  0  0  0  0  0  0  0  0  0  0
   -2.6965   -0.4014   -0.5775 N   0  0  0  0  0  0  0  0  0  0  0  0
   -3.7897   -0.3546   -0.8180 N   0  0  0  0  0  0  0  0  0  0  0  0
   -0.8293    0.9448   -0.3348 C   0  0  0  0  0  0  0  0  0  0  0  0
    0.5628    0.9165   -0.0299 C   0  0  0  0  0  0  0  0  0  0  0  0
    1.2686   -0.2460    0.2617 C   0  0  0  0  0  0  0  0  0  0  0  0
    0.6405   -1.5180    0.2762 C   0  0  0  0  0  0  0  0  0  0  0  0
   -0.7036   -1.6056   -0.0050 C   0  0  0  0  0  0  0  0  0  0  0  0
   -2.5414    4.3358   -1.0123 H   0  0  0  0  0  0  0  0  0  0  0  0
    1.1175    1.8557   -0.0215 H   0  0  0  0  0  0  0  0  0  0  0  0
    2.3322   -0.1936    0.4887 H   0  0  0  0  0  0  0  0  0  0  0  0
    1.2135   -2.4100    0.5073 H   0  0  0  0  0  0  0  0  0  0  0  0
   -1.2404   -2.5507   -0.0087 H   0  0  0  0  0  0  0  0  0  0  0  0
   -3.2487    5.3841   -1.2503 Cl  0  0  0  0  0  0  0  0  0  0  0  0
  1  8  1  0  0  0  0
  2  1  1  0  0  0  0
  3  2  1  0  0  0  0
  4  1  2  0  0  0  0
  4  5  1  0  0  0  0
  5 10  1  0  0  0  0
  5  6  2  0  0  0  0
  6  7  1  0  0  0  0
  6 11  1  0  0  0  0
  7 12  1  0  0  0  0
  8  7  2  0  0  0  0
 13  8  1  0  0  0  0
 14  9  1  0  0  0  0
M  RAD  3   2   2   3   3   4   2
M  END
