Coordinates from ORCA-job PhN2+~Cl-_B3LYPG-6-31G_dp-CH-Scan-d09-49-n800
 OpenBabel11261919593D

 14 13  0  0  0  0  0  0  0  0999 V2000
   -1.3341   -0.4574   -0.2784 C   0  0  0  0  0  0  0  0  0  0  0  0
   -2.6953   -0.5340   -0.5625 N   0  0  0  0  0  0  0  0  0  0  0  0
   -3.7901   -0.5147   -0.7999 N   0  0  0  0  0  0  0  0  0  0  0  0
   -0.8686    0.8647   -0.3313 C   0  0  0  0  0  0  0  0  0  0  0  0
    0.5249    0.8794   -0.0307 C   0  0  0  0  0  0  0  0  0  0  0  0
    1.2661   -0.2603    0.2631 C   0  0  0  0  0  0  0  0  0  0  0  0
    0.6763   -1.5505    0.2849 C   0  0  0  0  0  0  0  0  0  0  0  0
   -0.6655   -1.6794    0.0085 C   0  0  0  0  0  0  0  0  0  0  0  0
   -2.6006    4.6817   -1.0586 H   0  0  0  0  0  0  0  0  0  0  0  0
    1.0519    1.8347   -0.0277 H   0  0  0  0  0  0  0  0  0  0  0  0
    2.3286   -0.1753    0.4862 H   0  0  0  0  0  0  0  0  0  0  0  0
    1.2766   -2.4240    0.5176 H   0  0  0  0  0  0  0  0  0  0  0  0
   -1.1740   -2.6401    0.0106 H   0  0  0  0  0  0  0  0  0  0  0  0
   -3.2465    5.7686   -1.2952 Cl  0  0  0  0  0  0  0  0  0  0  0  0
  1  8  1  0  0  0  0
  2  1  1  0  0  0  0
  3  2  1  0  0  0  0
  4  1  2  0  0  0  0
  4  5  1  0  0  0  0
  5 10  1  0  0  0  0
  5  6  2  0  0  0  0
  6  7  1  0  0  0  0
  6 11  1  0  0  0  0
  7 12  1  0  0  0  0
  8 13  1  0  0  0  0
  8  7  2  0  0  0  0
 14  9  1  0  0  0  0
M  RAD  3   2   2   3   3   4   2
M  END
