Coordinates from ORCA-job PhN2+~Cl-_B3LYPG-6-31G_dp-CH-Scan-d09-49-n800
 OpenBabel11261919593D

 14 13  0  0  0  0  0  0  0  0999 V2000
   -1.4312   -0.0016   -0.3363 C   0  0  0  0  0  0  0  0  0  0  0  0
   -2.8022    0.0992   -0.6359 N   0  0  0  0  0  0  0  0  0  0  0  0
   -3.7795    0.5924   -0.8938 N   0  0  0  0  0  0  0  0  0  0  0  0
   -0.7919    1.2386   -0.3355 C   0  0  0  0  0  0  0  0  0  0  0  0
    0.5777    1.1638   -0.0376 C   0  0  0  0  0  0  0  0  0  0  0  0
    1.1998   -0.0585    0.2271 C   0  0  0  0  0  0  0  0  0  0  0  0
    0.4840   -1.2728    0.2065 C   0  0  0  0  0  0  0  0  0  0  0  0
   -0.8699   -1.2659   -0.0812 C   0  0  0  0  0  0  0  0  0  0  0  0
   -1.7607    2.4304   -0.6648 H   0  0  0  0  0  0  0  0  0  0  0  0
    1.1704    2.0751   -0.0108 H   0  0  0  0  0  0  0  0  0  0  0  0
    2.2622   -0.0821    0.4570 H   0  0  0  0  0  0  0  0  0  0  0  0
    0.9908   -2.2087    0.4161 H   0  0  0  0  0  0  0  0  0  0  0  0
   -1.4641   -2.1738   -0.1086 H   0  0  0  0  0  0  0  0  0  0  0  0
   -3.0358    3.2576   -1.0154 Cl  0  0  0  0  0  0  0  0  0  0  0  0
  1  4  2  0  0  0  0
  1  8  1  0  0  0  0
  2  1  1  0  0  0  0
  3  2  1  0  0  0  0
  4  5  1  0  0  0  0
  5 10  1  0  0  0  0
  5  6  2  0  0  0  0
  6 11  1  0  0  0  0
  7  6  1  0  0  0  0
  7 12  1  0  0  0  0
  8  7  2  0  0  0  0
 13  8  1  0  0  0  0
 14  9  1  0  0  0  0
M  RAD  3   2   2   3   3   4   2
M  END
