Coordinates from ORCA-job PhN2+~Cl-_B3LYPG-6-31G_dp-CH-Scan-d09-49-n800
 OpenBabel11261919593D

 14 13  0  0  0  0  0  0  0  0999 V2000
   -1.4378    0.0053   -0.3385 C   0  0  0  0  0  0  0  0  0  0  0  0
   -2.8143    0.0967   -0.6380 N   0  0  0  0  0  0  0  0  0  0  0  0
   -3.7453    0.6899   -0.8964 N   0  0  0  0  0  0  0  0  0  0  0  0
   -0.7772    1.2322   -0.3317 C   0  0  0  0  0  0  0  0  0  0  0  0
    0.5885    1.1657   -0.0355 C   0  0  0  0  0  0  0  0  0  0  0  0
    1.2054   -0.0610    0.2285 C   0  0  0  0  0  0  0  0  0  0  0  0
    0.4829   -1.2682    0.2057 C   0  0  0  0  0  0  0  0  0  0  0  0
   -0.8731   -1.2543   -0.0832 C   0  0  0  0  0  0  0  0  0  0  0  0
   -1.7101    2.3965   -0.6514 H   0  0  0  0  0  0  0  0  0  0  0  0
    1.1801    2.0770   -0.0087 H   0  0  0  0  0  0  0  0  0  0  0  0
    2.2673   -0.0889    0.4589 H   0  0  0  0  0  0  0  0  0  0  0  0
    0.9839   -2.2075    0.4145 H   0  0  0  0  0  0  0  0  0  0  0  0
   -1.4699   -2.1603   -0.1114 H   0  0  0  0  0  0  0  0  0  0  0  0
   -3.1308    3.1706   -1.0262 Cl  0  0  0  0  0  0  0  0  0  0  0  0
  1  4  2  0  0  0  0
  1  8  1  0  0  0  0
  2  1  1  0  0  0  0
  3  2  2  0  0  0  0
  4  5  1  0  0  0  0
  5 10  1  0  0  0  0
  5  6  2  0  0  0  0
  6 11  1  0  0  0  0
  7  6  1  0  0  0  0
  7 12  1  0  0  0  0
  8  7  2  0  0  0  0
 13  8  1  0  0  0  0
 14  9  1  0  0  0  0
M  RAD  2   3   2   4   2
M  END
