Coordinates from ORCA-job PhN2+~Cl-_B3LYPG-6-31G_dp-CH-Scan-d09-49-n800
 OpenBabel11261919593D

 14 13  0  0  0  0  0  0  0  0999 V2000
   -1.3796   -0.1061   -0.3168 C   0  0  0  0  0  0  0  0  0  0  0  0
   -2.7358   -0.0724   -0.6067 N   0  0  0  0  0  0  0  0  0  0  0  0
   -3.8253    0.0165   -0.8460 N   0  0  0  0  0  0  0  0  0  0  0  0
   -0.7853    1.1679   -0.3310 C   0  0  0  0  0  0  0  0  0  0  0  0
    0.5980    1.0609   -0.0252 C   0  0  0  0  0  0  0  0  0  0  0  0
    1.2346   -0.1469    0.2440 C   0  0  0  0  0  0  0  0  0  0  0  0
    0.5337   -1.3785    0.2299 C   0  0  0  0  0  0  0  0  0  0  0  0
   -0.8126   -1.3840   -0.0560 C   0  0  0  0  0  0  0  0  0  0  0  0
   -2.1737    3.2550   -0.8359 H   0  0  0  0  0  0  0  0  0  0  0  0
    1.2001    1.9687    0.0029 H   0  0  0  0  0  0  0  0  0  0  0  0
    2.2983   -0.1599    0.4743 H   0  0  0  0  0  0  0  0  0  0  0  0
    1.0525   -2.3073    0.4433 H   0  0  0  0  0  0  0  0  0  0  0  0
   -1.4003   -2.2973   -0.0804 H   0  0  0  0  0  0  0  0  0  0  0  0
   -3.0550    4.1770   -1.1099 Cl  0  0  0  0  0  0  0  0  0  0  0  0
  1  8  1  0  0  0  0
  2  1  1  0  0  0  0
  3  2  1  0  0  0  0
  4  1  2  0  0  0  0
  4  5  1  0  0  0  0
  5 10  1  0  0  0  0
  5  6  2  0  0  0  0
  6 11  1  0  0  0  0
  7  6  1  0  0  0  0
  7 12  1  0  0  0  0
  8  7  2  0  0  0  0
 13  8  1  0  0  0  0
 14  9  1  0  0  0  0
M  RAD  3   2   2   3   3   4   2
M  END
