Coordinates from ORCA-job PhN2+~Cl-_B3LYPG-6-31G_dp-CH-Scan-d09-49-n800
 OpenBabel11261919593D

 14 13  0  0  0  0  0  0  0  0999 V2000
   -1.4049   -0.0513   -0.3268 C   0  0  0  0  0  0  0  0  0  0  0  0
   -2.7607   -0.0110   -0.6171 N   0  0  0  0  0  0  0  0  0  0  0  0
   -3.8485    0.0874   -0.8569 N   0  0  0  0  0  0  0  0  0  0  0  0
   -0.7979    1.2165   -0.3369 C   0  0  0  0  0  0  0  0  0  0  0  0
    0.5826    1.1079   -0.0320 C   0  0  0  0  0  0  0  0  0  0  0  0
    1.2129   -0.1043    0.2349 C   0  0  0  0  0  0  0  0  0  0  0  0
    0.5055   -1.3310    0.2181 C   0  0  0  0  0  0  0  0  0  0  0  0
   -0.8413   -1.3299   -0.0680 C   0  0  0  0  0  0  0  0  0  0  0  0
   -2.0142    2.9499   -0.7711 H   0  0  0  0  0  0  0  0  0  0  0  0
    1.1857    2.0143   -0.0031 H   0  0  0  0  0  0  0  0  0  0  0  0
    2.2762   -0.1227    0.4651 H   0  0  0  0  0  0  0  0  0  0  0  0
    1.0191   -2.2630    0.4295 H   0  0  0  0  0  0  0  0  0  0  0  0
   -1.4327   -2.2406   -0.0940 H   0  0  0  0  0  0  0  0  0  0  0  0
   -2.9322    3.8714   -1.0551 Cl  0  0  0  0  0  0  0  0  0  0  0  0
  1  8  1  0  0  0  0
  2  1  1  0  0  0  0
  3  2  1  0  0  0  0
  4  1  2  0  0  0  0
  4  5  1  0  0  0  0
  5 10  1  0  0  0  0
  5  6  2  0  0  0  0
  6 11  1  0  0  0  0
  7  6  1  0  0  0  0
  7 12  1  0  0  0  0
  8  7  2  0  0  0  0
 13  8  1  0  0  0  0
 14  9  1  0  0  0  0
M  RAD  3   2   2   3   3   4   2
M  END
