Coordinates from ORCA-job PhN2+~Cl-_B3LYPG-6-31G_dp-CH-Scan-d09-49-n800
 OpenBabel11261919593D

 14 13  0  0  0  0  0  0  0  0999 V2000
   -1.3409   -0.5685   -0.2699 C   0  0  0  0  0  0  0  0  0  0  0  0
   -2.6993   -0.7027   -0.5481 N   0  0  0  0  0  0  0  0  0  0  0  0
   -3.7948   -0.7287   -0.7815 N   0  0  0  0  0  0  0  0  0  0  0  0
   -0.9313    0.7710   -0.3368 C   0  0  0  0  0  0  0  0  0  0  0  0
    0.4612    0.8467   -0.0418 C   0  0  0  0  0  0  0  0  0  0  0  0
    1.2500   -0.2584    0.2603 C   0  0  0  0  0  0  0  0  0  0  0  0
    0.7146   -1.5720    0.2960 C   0  0  0  0  0  0  0  0  0  0  0  0
   -0.6216   -1.7591    0.0256 C   0  0  0  0  0  0  0  0  0  0  0  0
   -2.6291    5.0444   -1.0906 H   0  0  0  0  0  0  0  0  0  0  0  0
    0.9489    1.8226   -0.0498 H   0  0  0  0  0  0  0  0  0  0  0  0
    2.3088   -0.1270    0.4787 H   0  0  0  0  0  0  0  0  0  0  0  0
    1.3515   -2.4174    0.5347 H   0  0  0  0  0  0  0  0  0  0  0  0
   -1.0898   -2.7400    0.0383 H   0  0  0  0  0  0  0  0  0  0  0  0
   -3.1786    6.1827   -1.3284 Cl  0  0  0  0  0  0  0  0  0  0  0  0
  1  8  1  0  0  0  0
  2  1  1  0  0  0  0
  3  2  1  0  0  0  0
  4  1  2  0  0  0  0
  4  5  1  0  0  0  0
  5  6  2  0  0  0  0
  6  7  1  0  0  0  0
  6 11  1  0  0  0  0
  7 12  1  0  0  0  0
  8 13  1  0  0  0  0
  8  7  2  0  0  0  0
 10  5  1  0  0  0  0
 14  9  1  0  0  0  0
M  RAD  3   2   2   3   3   4   2
M  END
