Coordinates from ORCA-job PhN2+~Cl-_B3LYPG-6-31G_dp-CH-Scan-d09-49-n800
 OpenBabel11261919593D

 14 13  0  0  0  0  0  0  0  0999 V2000
   -1.4115   -0.0387   -0.3291 C   0  0  0  0  0  0  0  0  0  0  0  0
   -2.7674    0.0037   -0.6196 N   0  0  0  0  0  0  0  0  0  0  0  0
   -3.8545    0.1072   -0.8596 N   0  0  0  0  0  0  0  0  0  0  0  0
   -0.8014    1.2274   -0.3381 C   0  0  0  0  0  0  0  0  0  0  0  0
    0.5782    1.1196   -0.0337 C   0  0  0  0  0  0  0  0  0  0  0  0
    1.2074   -0.0936    0.2326 C   0  0  0  0  0  0  0  0  0  0  0  0
    0.4988   -1.3192    0.2151 C   0  0  0  0  0  0  0  0  0  0  0  0
   -0.8483   -1.3170   -0.0710 C   0  0  0  0  0  0  0  0  0  0  0  0
   -1.9713    2.8729   -0.7543 H   0  0  0  0  0  0  0  0  0  0  0  0
    1.1809    2.0262   -0.0047 H   0  0  0  0  0  0  0  0  0  0  0  0
    2.2707   -0.1129    0.4626 H   0  0  0  0  0  0  0  0  0  0  0  0
    1.0115   -2.2517    0.4260 H   0  0  0  0  0  0  0  0  0  0  0  0
   -1.4402   -2.2273   -0.0973 H   0  0  0  0  0  0  0  0  0  0  0  0
   -2.9031    3.7970   -1.0423 Cl  0  0  0  0  0  0  0  0  0  0  0  0
  1  8  1  0  0  0  0
  2  1  1  0  0  0  0
  3  2  1  0  0  0  0
  4  1  2  0  0  0  0
  4  5  1  0  0  0  0
  5 10  1  0  0  0  0
  5  6  2  0  0  0  0
  6 11  1  0  0  0  0
  7  6  1  0  0  0  0
  7 12  1  0  0  0  0
  8  7  2  0  0  0  0
 13  8  1  0  0  0  0
 14  9  1  0  0  0  0
M  RAD  3   2   2   3   3   4   2
M  END
