Coordinates from ORCA-job PhN2+~Cl-_B3LYPG-6-31G_dp-CH-Scan-d09-49-n800
 OpenBabel11261919593D

 14 13  0  0  0  0  0  0  0  0999 V2000
   -1.3745   -0.1291   -0.3140 C   0  0  0  0  0  0  0  0  0  0  0  0
   -2.7310   -0.1022   -0.6035 N   0  0  0  0  0  0  0  0  0  0  0  0
   -3.8213   -0.0198   -0.8427 N   0  0  0  0  0  0  0  0  0  0  0  0
   -0.7878    1.1484   -0.3308 C   0  0  0  0  0  0  0  0  0  0  0  0
    0.5967    1.0466   -0.0249 C   0  0  0  0  0  0  0  0  0  0  0  0
    1.2390   -0.1576    0.2461 C   0  0  0  0  0  0  0  0  0  0  0  0
    0.5439   -1.3928    0.2342 C   0  0  0  0  0  0  0  0  0  0  0  0
   -0.8023   -1.4046   -0.0514 C   0  0  0  0  0  0  0  0  0  0  0  0
   -2.2167    3.3571   -0.8547 H   0  0  0  0  0  0  0  0  0  0  0  0
    1.1955    1.9568    0.0018 H   0  0  0  0  0  0  0  0  0  0  0  0
    2.3028   -0.1653    0.4762 H   0  0  0  0  0  0  0  0  0  0  0  0
    1.0671   -2.3187    0.4490 H   0  0  0  0  0  0  0  0  0  0  0  0
   -1.3861   -2.3206   -0.0742 H   0  0  0  0  0  0  0  0  0  0  0  0
   -3.0753    4.2951   -1.1244 Cl  0  0  0  0  0  0  0  0  0  0  0  0
  1  8  1  0  0  0  0
  2  1  1  0  0  0  0
  3  2  1  0  0  0  0
  4  1  2  0  0  0  0
  4  5  1  0  0  0  0
  5 10  1  0  0  0  0
  5  6  2  0  0  0  0
  6 11  1  0  0  0  0
  7  6  1  0  0  0  0
  7 12  1  0  0  0  0
  8  7  2  0  0  0  0
 13  8  1  0  0  0  0
 14  9  1  0  0  0  0
M  RAD  3   2   2   3   3   4   2
M  END
