Coordinates from ORCA-job PhN2+~Cl-_B3LYPG-6-31G_dp-CH-Scan-d09-49-n800
 OpenBabel11261919593D

 14 13  0  0  0  0  0  0  0  0999 V2000
   -1.3538   -0.2533   -0.2999 C   0  0  0  0  0  0  0  0  0  0  0  0
   -2.7132   -0.2607   -0.5884 N   0  0  0  0  0  0  0  0  0  0  0  0
   -3.8053   -0.1972   -0.8279 N   0  0  0  0  0  0  0  0  0  0  0  0
   -0.8114    1.0420   -0.3314 C   0  0  0  0  0  0  0  0  0  0  0  0
    0.5783    0.9785   -0.0264 C   0  0  0  0  0  0  0  0  0  0  0  0
    1.2552   -0.2039    0.2544 C   0  0  0  0  0  0  0  0  0  0  0  0
    0.5960   -1.4596    0.2557 C   0  0  0  0  0  0  0  0  0  0  0  0
   -0.7495   -1.5120   -0.0272 C   0  0  0  0  0  0  0  0  0  0  0  0
   -2.4011    3.8665   -0.9413 H   0  0  0  0  0  0  0  0  0  0  0  0
    1.1542    1.9042   -0.0086 H   0  0  0  0  0  0  0  0  0  0  0  0
    2.3194   -0.1796    0.4825 H   0  0  0  0  0  0  0  0  0  0  0  0
    1.1464   -2.3679    0.4781 H   0  0  0  0  0  0  0  0  0  0  0  0
   -1.3084   -2.4439   -0.0406 H   0  0  0  0  0  0  0  0  0  0  0  0
   -3.1569    4.8803   -1.1923 Cl  0  0  0  0  0  0  0  0  0  0  0  0
  1  8  1  0  0  0  0
  2  1  1  0  0  0  0
  3  2  1  0  0  0  0
  4  1  2  0  0  0  0
  4  5  1  0  0  0  0
  5 10  1  0  0  0  0
  5  6  2  0  0  0  0
  6  7  1  0  0  0  0
  6 11  1  0  0  0  0
  7 12  1  0  0  0  0
  8  7  2  0  0  0  0
 13  8  1  0  0  0  0
 14  9  1  0  0  0  0
M  RAD  3   2   2   3   3   4   2
M  END
