Coordinates from ORCA-job PhN2+~Cl-_B3LYPG-6-31G_dp-CH-Scan-d09-49-n800
 OpenBabel11261919593D

 14 13  0  0  0  0  0  0  0  0999 V2000
   -1.4189   -0.0266   -0.3316 C   0  0  0  0  0  0  0  0  0  0  0  0
   -2.7749    0.0177   -0.6222 N   0  0  0  0  0  0  0  0  0  0  0  0
   -3.8610    0.1272   -0.8625 N   0  0  0  0  0  0  0  0  0  0  0  0
   -0.8058    1.2376   -0.3395 C   0  0  0  0  0  0  0  0  0  0  0  0
    0.5728    1.1319   -0.0356 C   0  0  0  0  0  0  0  0  0  0  0  0
    1.2014   -0.0821    0.2301 C   0  0  0  0  0  0  0  0  0  0  0  0
    0.4921   -1.3068    0.2121 C   0  0  0  0  0  0  0  0  0  0  0  0
   -0.8554   -1.3042   -0.0739 C   0  0  0  0  0  0  0  0  0  0  0  0
   -1.9243    2.7928   -0.7363 H   0  0  0  0  0  0  0  0  0  0  0  0
    1.1744    2.0389   -0.0067 H   0  0  0  0  0  0  0  0  0  0  0  0
    2.2646   -0.1020    0.4600 H   0  0  0  0  0  0  0  0  0  0  0  0
    1.0041   -2.2397    0.4226 H   0  0  0  0  0  0  0  0  0  0  0  0
   -1.4474   -2.2144   -0.1005 H   0  0  0  0  0  0  0  0  0  0  0  0
   -2.8718    3.7234   -1.0291 Cl  0  0  0  0  0  0  0  0  0  0  0  0
  1  8  1  0  0  0  0
  2  1  1  0  0  0  0
  3  2  1  0  0  0  0
  4  1  2  0  0  0  0
  4  5  1  0  0  0  0
  5 10  1  0  0  0  0
  5  6  2  0  0  0  0
  6 11  1  0  0  0  0
  7  6  1  0  0  0  0
  7 12  1  0  0  0  0
  8  7  2  0  0  0  0
 13  8  1  0  0  0  0
 14  9  1  0  0  0  0
M  RAD  3   2   2   3   3   4   2
M  END
