Coordinates from ORCA-job PhN2+~Cl-_B3LYPG-6-31G_dp-CH-Scan-d09-49-n800
 OpenBabel11261919593D

 14 14  0  0  0  0  0  0  0  0999 V2000
   -1.4815    0.0972   -0.3606 C   0  0  0  0  0  0  0  0  0  0  0  0
   -2.8590    0.0760   -0.6520 N   0  0  0  0  0  0  0  0  0  0  0  0
   -3.7787    0.7494   -0.9121 N   0  0  0  0  0  0  0  0  0  0  0  0
   -0.7297    1.2828   -0.3314 C   0  0  0  0  0  0  0  0  0  0  0  0
    0.6273    1.1856   -0.0312 C   0  0  0  0  0  0  0  0  0  0  0  0
    1.2165   -0.0546    0.2320 C   0  0  0  0  0  0  0  0  0  0  0  0
    0.4520   -1.2250    0.1972 C   0  0  0  0  0  0  0  0  0  0  0  0
   -0.9041   -1.1541   -0.1008 C   0  0  0  0  0  0  0  0  0  0  0  0
   -1.1955    2.2080   -0.5328 H   0  0  0  0  0  0  0  0  0  0  0  0
    1.2276    2.0894   -0.0026 H   0  0  0  0  0  0  0  0  0  0  0  0
    2.2753   -0.1092    0.4665 H   0  0  0  0  0  0  0  0  0  0  0  0
    0.9113   -2.1863    0.4022 H   0  0  0  0  0  0  0  0  0  0  0  0
   -1.5262   -2.0418   -0.1363 H   0  0  0  0  0  0  0  0  0  0  0  0
   -3.4857    2.8763   -1.0512 Cl  0  0  0  0  0  0  0  0  0  0  0  0
  1  4  2  0  0  0  0
  1  8  1  0  0  0  0
  2  1  1  0  0  0  0
  3  2  2  0  0  0  0
  4  5  1  0  0  0  0
  5 10  1  0  0  0  0
  5  6  2  0  0  0  0
  6 11  1  0  0  0  0
  7  6  1  0  0  0  0
  7 12  1  0  0  0  0
  8  7  2  0  0  0  0
  9  4  1  0  0  0  0
 13  8  1  0  0  0  0
 14  3  1  0  0  0  0
M  END
