Coordinates from ORCA-job PhN2+~Cl-_B3LYPG-6-31G_dp-CH-Scan-d09-49-n800
 OpenBabel11261919593D

 14 13  0  0  0  0  0  0  0  0999 V2000
   -1.3337   -0.4072   -0.2847 C   0  0  0  0  0  0  0  0  0  0  0  0
   -2.6950   -0.4617   -0.5718 N   0  0  0  0  0  0  0  0  0  0  0  0
   -3.7888   -0.4257   -0.8114 N   0  0  0  0  0  0  0  0  0  0  0  0
   -0.8453    0.9071   -0.3348 C   0  0  0  0  0  0  0  0  0  0  0  0
    0.5476    0.8979   -0.0312 C   0  0  0  0  0  0  0  0  0  0  0  0
    1.2687   -0.2546    0.2628 C   0  0  0  0  0  0  0  0  0  0  0  0
    0.6572   -1.5346    0.2816 C   0  0  0  0  0  0  0  0  0  0  0  0
   -0.6859   -1.6405    0.0022 C   0  0  0  0  0  0  0  0  0  0  0  0
   -2.5724    4.5017   -1.0346 H   0  0  0  0  0  0  0  0  0  0  0  0
    1.0903    1.8442   -0.0259 H   0  0  0  0  0  0  0  0  0  0  0  0
    2.3319   -0.1878    0.4883 H   0  0  0  0  0  0  0  0  0  0  0  0
    1.2421   -2.4184    0.5145 H   0  0  0  0  0  0  0  0  0  0  0  0
   -1.2106   -2.5924    0.0018 H   0  0  0  0  0  0  0  0  0  0  0  0
   -3.2565    5.5655   -1.2702 Cl  0  0  0  0  0  0  0  0  0  0  0  0
  1  8  1  0  0  0  0
  2  1  1  0  0  0  0
  3  2  1  0  0  0  0
  4  1  2  0  0  0  0
  4  5  1  0  0  0  0
  5 10  1  0  0  0  0
  5  6  2  0  0  0  0
  6  7  1  0  0  0  0
  6 11  1  0  0  0  0
  7 12  1  0  0  0  0
  8  7  2  0  0  0  0
 13  8  1  0  0  0  0
 14  9  1  0  0  0  0
M  RAD  3   2   2   3   3   4   2
M  END
