Coordinates from ORCA-job PhN2+~Cl-_B3LYPG-6-31G_dp-CH-Scan-d09-49-n800
 OpenBabel11261919593D

 14 13  0  0  0  0  0  0  0  0999 V2000
   -1.4033   -0.0546   -0.3262 C   0  0  0  0  0  0  0  0  0  0  0  0
   -2.7591   -0.0150   -0.6164 N   0  0  0  0  0  0  0  0  0  0  0  0
   -3.8471    0.0823   -0.8561 N   0  0  0  0  0  0  0  0  0  0  0  0
   -0.7972    1.2136   -0.3365 C   0  0  0  0  0  0  0  0  0  0  0  0
    0.5835    1.1050   -0.0316 C   0  0  0  0  0  0  0  0  0  0  0  0
    1.2142   -0.1070    0.2355 C   0  0  0  0  0  0  0  0  0  0  0  0
    0.5073   -1.3340    0.2188 C   0  0  0  0  0  0  0  0  0  0  0  0
   -0.8396   -1.3332   -0.0673 C   0  0  0  0  0  0  0  0  0  0  0  0
   -2.0245    2.9693   -0.7753 H   0  0  0  0  0  0  0  0  0  0  0  0
    1.1866    2.0114   -0.0027 H   0  0  0  0  0  0  0  0  0  0  0  0
    2.2776   -0.1250    0.4656 H   0  0  0  0  0  0  0  0  0  0  0  0
    1.0212   -2.2658    0.4304 H   0  0  0  0  0  0  0  0  0  0  0  0
   -1.4307   -2.2442   -0.0932 H   0  0  0  0  0  0  0  0  0  0  0  0
   -2.9391    3.8908   -1.0584 Cl  0  0  0  0  0  0  0  0  0  0  0  0
  1  8  1  0  0  0  0
  2  1  1  0  0  0  0
  3  2  1  0  0  0  0
  4  1  2  0  0  0  0
  4  5  1  0  0  0  0
  5 10  1  0  0  0  0
  5  6  2  0  0  0  0
  6 11  1  0  0  0  0
  7  6  1  0  0  0  0
  7 12  1  0  0  0  0
  8  7  2  0  0  0  0
 13  8  1  0  0  0  0
 14  9  1  0  0  0  0
M  RAD  3   2   2   3   3   4   2
M  END
