Coordinates from ORCA-job PhN2+~Cl-_B3LYPG-6-31G_dp-CH-Scan-d09-49-n800
 OpenBabel11261919593D

 14 13  0  0  0  0  0  0  0  0999 V2000
   -1.4702    0.0798   -0.3532 C   0  0  0  0  0  0  0  0  0  0  0  0
   -2.8471    0.0808   -0.6438 N   0  0  0  0  0  0  0  0  0  0  0  0
   -3.7684    0.7431   -0.9068 N   0  0  0  0  0  0  0  0  0  0  0  0
   -0.7186    1.2612   -0.3224 C   0  0  0  0  0  0  0  0  0  0  0  0
    0.6375    1.1743   -0.0260 C   0  0  0  0  0  0  0  0  0  0  0  0
    1.2243   -0.0690    0.2334 C   0  0  0  0  0  0  0  0  0  0  0  0
    0.4607   -1.2411    0.1983 C   0  0  0  0  0  0  0  0  0  0  0  0
   -0.8962   -1.1742   -0.0966 C   0  0  0  0  0  0  0  0  0  0  0  0
   -1.3119    2.3408   -0.5643 H   0  0  0  0  0  0  0  0  0  0  0  0
    1.2384    2.0773    0.0039 H   0  0  0  0  0  0  0  0  0  0  0  0
    2.2836   -0.1251    0.4663 H   0  0  0  0  0  0  0  0  0  0  0  0
    0.9229   -2.2015    0.4013 H   0  0  0  0  0  0  0  0  0  0  0  0
   -1.5170   -2.0630   -0.1317 H   0  0  0  0  0  0  0  0  0  0  0  0
   -3.4882    2.9102   -1.0716 Cl  0  0  0  0  0  0  0  0  0  0  0  0
  1  4  2  0  0  0  0
  1  8  1  0  0  0  0
  2  1  1  0  0  0  0
  3  2  2  0  0  0  0
  4  5  1  0  0  0  0
  5 10  1  0  0  0  0
  5  6  2  0  0  0  0
  6 11  1  0  0  0  0
  7  6  1  0  0  0  0
  7 12  1  0  0  0  0
  8  7  2  0  0  0  0
  9  4  1  0  0  0  0
 13  8  1  0  0  0  0
M  RAD  2   3   2  14   2
M  END
