Coordinates from ORCA-job PhN2+~Cl-_B3LYPG-6-31G_dp-CH-Scan-d09-49-n800
 OpenBabel11261919593D

 14 13  0  0  0  0  0  0  0  0999 V2000
   -1.3595   -0.1923   -0.3051 C   0  0  0  0  0  0  0  0  0  0  0  0
   -2.7175   -0.1793   -0.5940 N   0  0  0  0  0  0  0  0  0  0  0  0
   -3.8087   -0.1033   -0.8331 N   0  0  0  0  0  0  0  0  0  0  0  0
   -0.7929    1.0937   -0.3277 C   0  0  0  0  0  0  0  0  0  0  0  0
    0.5944    1.0070   -0.0223 C   0  0  0  0  0  0  0  0  0  0  0  0
    1.2517   -0.1880    0.2520 C   0  0  0  0  0  0  0  0  0  0  0  0
    0.5720   -1.4324    0.2451 C   0  0  0  0  0  0  0  0  0  0  0  0
   -0.7740   -1.4613   -0.0392 C   0  0  0  0  0  0  0  0  0  0  0  0
   -2.3328    3.6353   -0.9071 H   0  0  0  0  0  0  0  0  0  0  0  0
    1.1840    1.9237    0.0011 H   0  0  0  0  0  0  0  0  0  0  0  0
    2.3159   -0.1822    0.4812 H   0  0  0  0  0  0  0  0  0  0  0  0
    1.1071   -2.3509    0.4625 H   0  0  0  0  0  0  0  0  0  0  0  0
   -1.3474   -2.3841   -0.0586 H   0  0  0  0  0  0  0  0  0  0  0  0
   -3.1426    4.6079   -1.1682 Cl  0  0  0  0  0  0  0  0  0  0  0  0
  1  8  1  0  0  0  0
  2  1  1  0  0  0  0
  3  2  1  0  0  0  0
  4  1  2  0  0  0  0
  4  5  1  0  0  0  0
  5 10  1  0  0  0  0
  5  6  2  0  0  0  0
  6 11  1  0  0  0  0
  7  6  1  0  0  0  0
  7 12  1  0  0  0  0
  8  7  2  0  0  0  0
 13  8  1  0  0  0  0
 14  9  1  0  0  0  0
M  RAD  3   2   2   3   3   4   2
M  END
