Coordinates from ORCA-job PhN2+~Cl-_B3LYPG-6-31G_dp-CH-Scan-d09-49-n800
 OpenBabel11261919593D

 14 14  0  0  0  0  0  0  0  0999 V2000
   -1.4885    0.1033   -0.3673 C   0  0  0  0  0  0  0  0  0  0  0  0
   -2.8658    0.0744   -0.6615 N   0  0  0  0  0  0  0  0  0  0  0  0
   -3.7799    0.7605   -0.9166 N   0  0  0  0  0  0  0  0  0  0  0  0
   -0.7412    1.2930   -0.3409 C   0  0  0  0  0  0  0  0  0  0  0  0
    0.6158    1.1949   -0.0372 C   0  0  0  0  0  0  0  0  0  0  0  0
    1.2088   -0.0418    0.2313 C   0  0  0  0  0  0  0  0  0  0  0  0
    0.4470   -1.2135    0.1981 C   0  0  0  0  0  0  0  0  0  0  0  0
   -0.9086   -1.1454   -0.1034 C   0  0  0  0  0  0  0  0  0  0  0  0
   -1.1377    2.0985   -0.5177 H   0  0  0  0  0  0  0  0  0  0  0  0
    1.2135    2.1008   -0.0107 H   0  0  0  0  0  0  0  0  0  0  0  0
    2.2672   -0.0928    0.4680 H   0  0  0  0  0  0  0  0  0  0  0  0
    0.9074   -2.1736    0.4067 H   0  0  0  0  0  0  0  0  0  0  0  0
   -1.5290   -2.0343   -0.1382 H   0  0  0  0  0  0  0  0  0  0  0  0
   -3.4594    2.8696   -1.0239 Cl  0  0  0  0  0  0  0  0  0  0  0  0
  1  4  2  0  0  0  0
  1  8  1  0  0  0  0
  2  1  1  0  0  0  0
  3  2  2  0  0  0  0
  4  5  1  0  0  0  0
  5 10  1  0  0  0  0
  5  6  2  0  0  0  0
  6 11  1  0  0  0  0
  7  6  1  0  0  0  0
  7 12  1  0  0  0  0
  8  7  2  0  0  0  0
  9  4  1  0  0  0  0
 13  8  1  0  0  0  0
 14  3  1  0  0  0  0
M  END
