Coordinates from ORCA-job PhN2+~Cl-_B3LYPG-6-31G_dp-CH-Scan-d09-49-n800
 OpenBabel11261919593D

 14 14  0  0  0  0  0  0  0  0999 V2000
   -1.4823    0.0980   -0.3614 C   0  0  0  0  0  0  0  0  0  0  0  0
   -2.8597    0.0757   -0.6531 N   0  0  0  0  0  0  0  0  0  0  0  0
   -3.7789    0.7503   -0.9127 N   0  0  0  0  0  0  0  0  0  0  0  0
   -0.7309    1.2841   -0.3325 C   0  0  0  0  0  0  0  0  0  0  0  0
    0.6261    1.1866   -0.0319 C   0  0  0  0  0  0  0  0  0  0  0  0
    1.2157   -0.0533    0.2319 C   0  0  0  0  0  0  0  0  0  0  0  0
    0.4515   -1.2237    0.1973 C   0  0  0  0  0  0  0  0  0  0  0  0
   -0.9046   -1.1531   -0.1011 C   0  0  0  0  0  0  0  0  0  0  0  0
   -1.1888    2.1966   -0.5313 H   0  0  0  0  0  0  0  0  0  0  0  0
    1.2263    2.0905   -0.0035 H   0  0  0  0  0  0  0  0  0  0  0  0
    2.2744   -0.1075    0.4667 H   0  0  0  0  0  0  0  0  0  0  0  0
    0.9108   -2.1850    0.4027 H   0  0  0  0  0  0  0  0  0  0  0  0
   -1.5265   -2.0408   -0.1365 H   0  0  0  0  0  0  0  0  0  0  0  0
   -3.4833    2.8752   -1.0480 Cl  0  0  0  0  0  0  0  0  0  0  0  0
  1  4  2  0  0  0  0
  1  8  1  0  0  0  0
  2  1  1  0  0  0  0
  3  2  2  0  0  0  0
  4  5  1  0  0  0  0
  5 10  1  0  0  0  0
  5  6  2  0  0  0  0
  6 11  1  0  0  0  0
  7  6  1  0  0  0  0
  7 12  1  0  0  0  0
  8  7  2  0  0  0  0
  9  4  1  0  0  0  0
 13  8  1  0  0  0  0
 14  3  1  0  0  0  0
M  END
