Coordinates from ORCA-job PhN2+~Cl-_B3LYPG-6-31G_dp-CH-Scan-d09-49-n800
 OpenBabel11261919593D

 14 13  0  0  0  0  0  0  0  0999 V2000
   -1.3616   -0.1810   -0.3078 C   0  0  0  0  0  0  0  0  0  0  0  0
   -2.7193   -0.1653   -0.5976 N   0  0  0  0  0  0  0  0  0  0  0  0
   -3.8101   -0.0881   -0.8376 N   0  0  0  0  0  0  0  0  0  0  0  0
   -0.7909    1.1030   -0.3308 C   0  0  0  0  0  0  0  0  0  0  0  0
    0.5957    1.0136   -0.0246 C   0  0  0  0  0  0  0  0  0  0  0  0
    1.2497   -0.1829    0.2510 C   0  0  0  0  0  0  0  0  0  0  0  0
    0.5667   -1.4255    0.2446 C   0  0  0  0  0  0  0  0  0  0  0  0
   -0.7792   -1.4512   -0.0405 C   0  0  0  0  0  0  0  0  0  0  0  0
   -2.3143    3.5862   -0.8962 H   0  0  0  0  0  0  0  0  0  0  0  0
    1.1872    1.9290   -0.0015 H   0  0  0  0  0  0  0  0  0  0  0  0
    2.3137   -0.1797    0.4809 H   0  0  0  0  0  0  0  0  0  0  0  0
    1.0992   -2.3452    0.4631 H   0  0  0  0  0  0  0  0  0  0  0  0
   -1.3548   -2.3726   -0.0594 H   0  0  0  0  0  0  0  0  0  0  0  0
   -3.1325    4.5532   -1.1568 Cl  0  0  0  0  0  0  0  0  0  0  0  0
  1  8  1  0  0  0  0
  2  1  1  0  0  0  0
  3  2  1  0  0  0  0
  4  1  2  0  0  0  0
  4  5  1  0  0  0  0
  5 10  1  0  0  0  0
  5  6  2  0  0  0  0
  6 11  1  0  0  0  0
  7  6  1  0  0  0  0
  7 12  1  0  0  0  0
  8  7  2  0  0  0  0
 13  8  1  0  0  0  0
 14  9  1  0  0  0  0
M  RAD  3   2   2   3   3   4   2
M  END
