Coordinates from ORCA-job PhN2+~Cl-_B3LYPG-6-31G_dp-CH-Scan-d09-49-n800
 OpenBabel11261919593D

 14 13  0  0  0  0  0  0  0  0999 V2000
   -1.3619   -0.1805   -0.3081 C   0  0  0  0  0  0  0  0  0  0  0  0
   -2.7196   -0.1650   -0.5981 N   0  0  0  0  0  0  0  0  0  0  0  0
   -3.8109   -0.0872   -0.8353 N   0  0  0  0  0  0  0  0  0  0  0  0
   -0.7913    1.1037   -0.3306 C   0  0  0  0  0  0  0  0  0  0  0  0
    0.5953    1.0143   -0.0243 C   0  0  0  0  0  0  0  0  0  0  0  0
    1.2493   -0.1823    0.2511 C   0  0  0  0  0  0  0  0  0  0  0  0
    0.5664   -1.4249    0.2442 C   0  0  0  0  0  0  0  0  0  0  0  0
   -0.7794   -1.4507   -0.0412 C   0  0  0  0  0  0  0  0  0  0  0  0
   -2.3121    3.5825   -0.8961 H   0  0  0  0  0  0  0  0  0  0  0  0
    1.1867    1.9297   -0.0008 H   0  0  0  0  0  0  0  0  0  0  0  0
    2.3133   -0.1790    0.4811 H   0  0  0  0  0  0  0  0  0  0  0  0
    1.0990   -2.3447    0.4624 H   0  0  0  0  0  0  0  0  0  0  0  0
   -1.3549   -2.3721   -0.0606 H   0  0  0  0  0  0  0  0  0  0  0  0
   -3.1302    4.5495   -1.1571 Cl  0  0  0  0  0  0  0  0  0  0  0  0
  1  8  1  0  0  0  0
  2  1  1  0  0  0  0
  3  2  1  0  0  0  0
  4  1  2  0  0  0  0
  4  5  1  0  0  0  0
  5 10  1  0  0  0  0
  5  6  2  0  0  0  0
  6 11  1  0  0  0  0
  7  6  1  0  0  0  0
  7 12  1  0  0  0  0
  8  7  2  0  0  0  0
 13  8  1  0  0  0  0
 14  9  1  0  0  0  0
M  RAD  3   2   2   3   3   4   2
M  END
