Coordinates from ORCA-job PhN2+~Cl-_B3LYPG-6-31G_dp-CH-Scan-d09-49-n800
 OpenBabel11261919593D

 14 13  0  0  0  0  0  0  0  0999 V2000
   -1.3593   -0.1934   -0.3052 C   0  0  0  0  0  0  0  0  0  0  0  0
   -2.7173   -0.1809   -0.5942 N   0  0  0  0  0  0  0  0  0  0  0  0
   -3.8085   -0.1052   -0.8334 N   0  0  0  0  0  0  0  0  0  0  0  0
   -0.7931    1.0927   -0.3283 C   0  0  0  0  0  0  0  0  0  0  0  0
    0.5942    1.0064   -0.0227 C   0  0  0  0  0  0  0  0  0  0  0  0
    1.2517   -0.1883    0.2520 C   0  0  0  0  0  0  0  0  0  0  0  0
    0.5724   -1.4329    0.2455 C   0  0  0  0  0  0  0  0  0  0  0  0
   -0.7735   -1.4623   -0.0388 C   0  0  0  0  0  0  0  0  0  0  0  0
   -2.3341    3.6397   -0.9074 H   0  0  0  0  0  0  0  0  0  0  0  0
    1.1835    1.9233    0.0005 H   0  0  0  0  0  0  0  0  0  0  0  0
    2.3159   -0.1821    0.4813 H   0  0  0  0  0  0  0  0  0  0  0  0
    1.1078   -2.3512    0.4633 H   0  0  0  0  0  0  0  0  0  0  0  0
   -1.3467   -2.3852   -0.0579 H   0  0  0  0  0  0  0  0  0  0  0  0
   -3.1430    4.6131   -1.1680 Cl  0  0  0  0  0  0  0  0  0  0  0  0
  1  8  1  0  0  0  0
  2  1  1  0  0  0  0
  3  2  1  0  0  0  0
  4  1  2  0  0  0  0
  4  5  1  0  0  0  0
  5 10  1  0  0  0  0
  5  6  2  0  0  0  0
  6 11  1  0  0  0  0
  7  6  1  0  0  0  0
  7 12  1  0  0  0  0
  8  7  2  0  0  0  0
 13  8  1  0  0  0  0
 14  9  1  0  0  0  0
M  RAD  3   2   2   3   3   4   2
M  END
