Coordinates from ORCA-job PhN2+~Cl-_B3LYPG-6-31G_dp-CH-Scan-d09-49-n800
 OpenBabel11261919593D

 14 13  0  0  0  0  0  0  0  0999 V2000
   -1.4714    0.0817   -0.3536 C   0  0  0  0  0  0  0  0  0  0  0  0
   -2.8483    0.0802   -0.6439 N   0  0  0  0  0  0  0  0  0  0  0  0
   -3.7698    0.7430   -0.9070 N   0  0  0  0  0  0  0  0  0  0  0  0
   -0.7192    1.2632   -0.3227 C   0  0  0  0  0  0  0  0  0  0  0  0
    0.6370    1.1751   -0.0261 C   0  0  0  0  0  0  0  0  0  0  0  0
    1.2239   -0.0681    0.2332 C   0  0  0  0  0  0  0  0  0  0  0  0
    0.4599   -1.2399    0.1979 C   0  0  0  0  0  0  0  0  0  0  0  0
   -0.8970   -1.1722   -0.0970 C   0  0  0  0  0  0  0  0  0  0  0  0
   -1.3005    2.3327   -0.5609 H   0  0  0  0  0  0  0  0  0  0  0  0
    1.2380    2.0781    0.0038 H   0  0  0  0  0  0  0  0  0  0  0  0
    2.2831   -0.1243    0.4660 H   0  0  0  0  0  0  0  0  0  0  0  0
    0.9216   -2.2005    0.4008 H   0  0  0  0  0  0  0  0  0  0  0  0
   -1.5181   -2.0607   -0.1322 H   0  0  0  0  0  0  0  0  0  0  0  0
   -3.4895    2.9053   -1.0716 Cl  0  0  0  0  0  0  0  0  0  0  0  0
  1  4  2  0  0  0  0
  1  8  1  0  0  0  0
  2  1  1  0  0  0  0
  3  2  2  0  0  0  0
  4  5  1  0  0  0  0
  5 10  1  0  0  0  0
  5  6  2  0  0  0  0
  6 11  1  0  0  0  0
  7  6  1  0  0  0  0
  7 12  1  0  0  0  0
  8  7  2  0  0  0  0
  9  4  1  0  0  0  0
 13  8  1  0  0  0  0
M  RAD  2   3   2  14   2
M  END
