Coordinates from ORCA-job PhN2+~Cl-_B3LYPG-6-31G_dp-CH-Scan-d09-49-n800
 OpenBabel11261919593D

 14 13  0  0  0  0  0  0  0  0999 V2000
   -1.3921   -0.0786   -0.3215 C   0  0  0  0  0  0  0  0  0  0  0  0
   -2.7481   -0.0420   -0.6113 N   0  0  0  0  0  0  0  0  0  0  0  0
   -3.8370    0.0501   -0.8505 N   0  0  0  0  0  0  0  0  0  0  0  0
   -0.7919    1.1926   -0.3334 C   0  0  0  0  0  0  0  0  0  0  0  0
    0.5902    1.0843   -0.0281 C   0  0  0  0  0  0  0  0  0  0  0  0
    1.2238   -0.1258    0.2395 C   0  0  0  0  0  0  0  0  0  0  0  0
    0.5197   -1.3550    0.2237 C   0  0  0  0  0  0  0  0  0  0  0  0
   -0.8268   -1.3570   -0.0622 C   0  0  0  0  0  0  0  0  0  0  0  0
   -2.0961    3.1044   -0.8045 H   0  0  0  0  0  0  0  0  0  0  0  0
    1.1931    1.9912    0.0007 H   0  0  0  0  0  0  0  0  0  0  0  0
    2.2873   -0.1415    0.4697 H   0  0  0  0  0  0  0  0  0  0  0  0
    1.0360   -2.2854    0.4357 H   0  0  0  0  0  0  0  0  0  0  0  0
   -1.4164   -2.2691   -0.0877 H   0  0  0  0  0  0  0  0  0  0  0  0
   -2.9919    4.0254   -1.0835 Cl  0  0  0  0  0  0  0  0  0  0  0  0
  1  8  1  0  0  0  0
  2  1  1  0  0  0  0
  3  2  1  0  0  0  0
  4  1  2  0  0  0  0
  4  5  1  0  0  0  0
  5 10  1  0  0  0  0
  5  6  2  0  0  0  0
  6 11  1  0  0  0  0
  7  6  1  0  0  0  0
  7 12  1  0  0  0  0
  8  7  2  0  0  0  0
 13  8  1  0  0  0  0
 14  9  1  0  0  0  0
M  RAD  3   2   2   3   3   4   2
M  END
