Coordinates from ORCA-job PhN2+~Cl-_B3LYPG-6-31G_dp-CH-Scan-d09-49-n800
 OpenBabel11261919593D

 14 13  0  0  0  0  0  0  0  0999 V2000
   -1.3344   -0.4758   -0.2757 C   0  0  0  0  0  0  0  0  0  0  0  0
   -2.6955   -0.5610   -0.5583 N   0  0  0  0  0  0  0  0  0  0  0  0
   -3.7906   -0.5486   -0.7945 N   0  0  0  0  0  0  0  0  0  0  0  0
   -0.8777    0.8495   -0.3289 C   0  0  0  0  0  0  0  0  0  0  0  0
    0.5160    0.8728   -0.0297 C   0  0  0  0  0  0  0  0  0  0  0  0
    1.2648   -0.2621    0.2632 C   0  0  0  0  0  0  0  0  0  0  0  0
    0.6834   -1.5562    0.2853 C   0  0  0  0  0  0  0  0  0  0  0  0
   -0.6578   -1.6936    0.0104 C   0  0  0  0  0  0  0  0  0  0  0  0
   -2.6110    4.7473   -1.0677 H   0  0  0  0  0  0  0  0  0  0  0  0
    1.0369    1.8314   -0.0271 H   0  0  0  0  0  0  0  0  0  0  0  0
    2.3269   -0.1702    0.4852 H   0  0  0  0  0  0  0  0  0  0  0  0
    1.2895   -2.4258    0.5174 H   0  0  0  0  0  0  0  0  0  0  0  0
   -1.1603   -2.6574    0.0127 H   0  0  0  0  0  0  0  0  0  0  0  0
   -3.2406    5.8434   -1.3057 Cl  0  0  0  0  0  0  0  0  0  0  0  0
  1  8  1  0  0  0  0
  2  1  1  0  0  0  0
  3  2  1  0  0  0  0
  4  1  2  0  0  0  0
  4  5  1  0  0  0  0
  5 10  1  0  0  0  0
  5  6  2  0  0  0  0
  6  7  1  0  0  0  0
  6 11  1  0  0  0  0
  7 12  1  0  0  0  0
  8 13  1  0  0  0  0
  8  7  2  0  0  0  0
 14  9  1  0  0  0  0
M  RAD  3   2   2   3   3   4   2
M  END
