Coordinates from ORCA-job PhN2+~Cl-_B3LYPG-6-31G_dp-CH-Scan-d09-49-n800
 OpenBabel11261919593D

 14 13  0  0  0  0  0  0  0  0999 V2000
   -1.4726    0.0841   -0.3540 C   0  0  0  0  0  0  0  0  0  0  0  0
   -2.8497    0.0796   -0.6440 N   0  0  0  0  0  0  0  0  0  0  0  0
   -3.7714    0.7431   -0.9073 N   0  0  0  0  0  0  0  0  0  0  0  0
   -0.7198    1.2657   -0.3230 C   0  0  0  0  0  0  0  0  0  0  0  0
    0.6365    1.1761   -0.0263 C   0  0  0  0  0  0  0  0  0  0  0  0
    1.2234   -0.0670    0.2330 C   0  0  0  0  0  0  0  0  0  0  0  0
    0.4589   -1.2383    0.1975 C   0  0  0  0  0  0  0  0  0  0  0  0
   -0.8978   -1.1696   -0.0974 C   0  0  0  0  0  0  0  0  0  0  0  0
   -1.2863    2.3211   -0.5566 H   0  0  0  0  0  0  0  0  0  0  0  0
    1.2376    2.0790    0.0036 H   0  0  0  0  0  0  0  0  0  0  0  0
    2.2826   -0.1233    0.4657 H   0  0  0  0  0  0  0  0  0  0  0  0
    0.9201   -2.1992    0.4002 H   0  0  0  0  0  0  0  0  0  0  0  0
   -1.5194   -2.0578   -0.1328 H   0  0  0  0  0  0  0  0  0  0  0  0
   -3.4923    2.9001   -1.0719 Cl  0  0  0  0  0  0  0  0  0  0  0  0
  1  4  2  0  0  0  0
  1  8  1  0  0  0  0
  2  1  1  0  0  0  0
  3  2  2  0  0  0  0
  4  5  1  0  0  0  0
  5 10  1  0  0  0  0
  5  6  2  0  0  0  0
  6 11  1  0  0  0  0
  7  6  1  0  0  0  0
  7 12  1  0  0  0  0
  8  7  2  0  0  0  0
  9  4  1  0  0  0  0
 13  8  1  0  0  0  0
M  RAD  2   3   2  14   2
M  END
