Coordinates from ORCA-job PhN2+~Cl-_B3LYPG-6-31G_dp-CH-Scan-d09-49-n800
 OpenBabel11261919593D

 14 13  0  0  0  0  0  0  0  0999 V2000
   -1.4150   -0.0328   -0.3303 C   0  0  0  0  0  0  0  0  0  0  0  0
   -2.7710    0.0104   -0.6208 N   0  0  0  0  0  0  0  0  0  0  0  0
   -3.8576    0.1164   -0.8610 N   0  0  0  0  0  0  0  0  0  0  0  0
   -0.8035    1.2324   -0.3388 C   0  0  0  0  0  0  0  0  0  0  0  0
    0.5756    1.1255   -0.0346 C   0  0  0  0  0  0  0  0  0  0  0  0
    1.2045   -0.0881    0.2314 C   0  0  0  0  0  0  0  0  0  0  0  0
    0.4956   -1.3133    0.2137 C   0  0  0  0  0  0  0  0  0  0  0  0
   -0.8517   -1.3109   -0.0724 C   0  0  0  0  0  0  0  0  0  0  0  0
   -1.9491    2.8348   -0.7458 H   0  0  0  0  0  0  0  0  0  0  0  0
    1.1779    2.0322   -0.0056 H   0  0  0  0  0  0  0  0  0  0  0  0
    2.2677   -0.1077    0.4614 H   0  0  0  0  0  0  0  0  0  0  0  0
    1.0079   -2.2460    0.4243 H   0  0  0  0  0  0  0  0  0  0  0  0
   -1.4437   -2.2211   -0.0988 H   0  0  0  0  0  0  0  0  0  0  0  0
   -2.8878    3.7618   -1.0360 Cl  0  0  0  0  0  0  0  0  0  0  0  0
  1  8  1  0  0  0  0
  2  1  1  0  0  0  0
  3  2  1  0  0  0  0
  4  1  2  0  0  0  0
  4  5  1  0  0  0  0
  5 10  1  0  0  0  0
  5  6  2  0  0  0  0
  6 11  1  0  0  0  0
  7  6  1  0  0  0  0
  7 12  1  0  0  0  0
  8  7  2  0  0  0  0
 13  8  1  0  0  0  0
 14  9  1  0  0  0  0
M  RAD  3   2   2   3   3   4   2
M  END
