Coordinates from ORCA-job PhN2+~Cl-_B3LYPG-6-31G_dp-CH-Scan-d09-49-n800
 OpenBabel11261919593D

 14 13  0  0  0  0  0  0  0  0999 V2000
   -1.3957   -0.0711   -0.3230 C   0  0  0  0  0  0  0  0  0  0  0  0
   -2.7516   -0.0338   -0.6129 N   0  0  0  0  0  0  0  0  0  0  0  0
   -3.8403    0.0595   -0.8522 N   0  0  0  0  0  0  0  0  0  0  0  0
   -0.7937    1.1993   -0.3344 C   0  0  0  0  0  0  0  0  0  0  0  0
    0.5879    1.0908   -0.0293 C   0  0  0  0  0  0  0  0  0  0  0  0
    1.2207   -0.1198    0.2382 C   0  0  0  0  0  0  0  0  0  0  0  0
    0.5158   -1.3484    0.2222 C   0  0  0  0  0  0  0  0  0  0  0  0
   -0.8308   -1.3496   -0.0638 C   0  0  0  0  0  0  0  0  0  0  0  0
   -2.0738    3.0621   -0.7953 H   0  0  0  0  0  0  0  0  0  0  0  0
    1.1909    1.9976   -0.0005 H   0  0  0  0  0  0  0  0  0  0  0  0
    2.2842   -0.1361    0.4684 H   0  0  0  0  0  0  0  0  0  0  0  0
    1.0314   -2.2792    0.4341 H   0  0  0  0  0  0  0  0  0  0  0  0
   -1.4208   -2.2613   -0.0894 H   0  0  0  0  0  0  0  0  0  0  0  0
   -2.9743    3.9836   -1.0754 Cl  0  0  0  0  0  0  0  0  0  0  0  0
  1  8  1  0  0  0  0
  2  1  1  0  0  0  0
  3  2  1  0  0  0  0
  4  1  2  0  0  0  0
  4  5  1  0  0  0  0
  5 10  1  0  0  0  0
  5  6  2  0  0  0  0
  6 11  1  0  0  0  0
  7  6  1  0  0  0  0
  7 12  1  0  0  0  0
  8  7  2  0  0  0  0
 13  8  1  0  0  0  0
 14  9  1  0  0  0  0
M  RAD  3   2   2   3   3   4   2
M  END
