Coordinates from ORCA-job PhN2+~Cl-_B3LYPG-6-31G_dp-CH-Scan-d09-49-n800
 OpenBabel11261919593D

 14 13  0  0  0  0  0  0  0  0999 V2000
   -1.3635   -0.1764   -0.3082 C   0  0  0  0  0  0  0  0  0  0  0  0
   -2.7211   -0.1602   -0.5977 N   0  0  0  0  0  0  0  0  0  0  0  0
   -3.8120   -0.0830   -0.8374 N   0  0  0  0  0  0  0  0  0  0  0  0
   -0.7919    1.1073   -0.3303 C   0  0  0  0  0  0  0  0  0  0  0  0
    0.5947    1.0174   -0.0244 C   0  0  0  0  0  0  0  0  0  0  0  0
    1.2482   -0.1797    0.2504 C   0  0  0  0  0  0  0  0  0  0  0  0
    0.5646   -1.4219    0.2432 C   0  0  0  0  0  0  0  0  0  0  0  0
   -0.7814   -1.4469   -0.0417 C   0  0  0  0  0  0  0  0  0  0  0  0
   -2.3029    3.5630   -0.8921 H   0  0  0  0  0  0  0  0  0  0  0  0
    1.1864    1.9325   -0.0009 H   0  0  0  0  0  0  0  0  0  0  0  0
    2.3122   -0.1770    0.4801 H   0  0  0  0  0  0  0  0  0  0  0  0
    1.0967   -2.3420    0.4610 H   0  0  0  0  0  0  0  0  0  0  0  0
   -1.3574   -2.3680   -0.0613 H   0  0  0  0  0  0  0  0  0  0  0  0
   -3.1229    4.5287   -1.1540 Cl  0  0  0  0  0  0  0  0  0  0  0  0
  1  8  1  0  0  0  0
  2  1  1  0  0  0  0
  3  2  1  0  0  0  0
  4  1  2  0  0  0  0
  4  5  1  0  0  0  0
  5 10  1  0  0  0  0
  5  6  2  0  0  0  0
  6 11  1  0  0  0  0
  7  6  1  0  0  0  0
  7 12  1  0  0  0  0
  8  7  2  0  0  0  0
 13  8  1  0  0  0  0
 14  9  1  0  0  0  0
M  RAD  3   2   2   3   3   4   2
M  END
