Coordinates from ORCA-job PhN2+~Cl-_B3LYPG-6-31G_dp-CH-Scan-d09-49-n800
 OpenBabel11261919593D

 14 14  0  0  0  0  0  0  0  0999 V2000
   -1.4783    0.0931   -0.3572 C   0  0  0  0  0  0  0  0  0  0  0  0
   -2.8557    0.0775   -0.6471 N   0  0  0  0  0  0  0  0  0  0  0  0
   -3.7769    0.7459   -0.9096 N   0  0  0  0  0  0  0  0  0  0  0  0
   -0.7253    1.2768   -0.3267 C   0  0  0  0  0  0  0  0  0  0  0  0
    0.6316    1.1817   -0.0285 C   0  0  0  0  0  0  0  0  0  0  0  0
    1.2196   -0.0599    0.2320 C   0  0  0  0  0  0  0  0  0  0  0  0
    0.4547   -1.2303    0.1966 C   0  0  0  0  0  0  0  0  0  0  0  0
   -0.9018   -1.1594   -0.0995 C   0  0  0  0  0  0  0  0  0  0  0  0
   -1.2277    2.2552   -0.5398 H   0  0  0  0  0  0  0  0  0  0  0  0
    1.2325    2.0849    0.0010 H   0  0  0  0  0  0  0  0  0  0  0  0
    2.2787   -0.1157    0.4653 H   0  0  0  0  0  0  0  0  0  0  0  0
    0.9143   -2.1918    0.3998 H   0  0  0  0  0  0  0  0  0  0  0  0
   -1.5240   -2.0470   -0.1351 H   0  0  0  0  0  0  0  0  0  0  0  0
   -3.4919    2.8828   -1.0645 Cl  0  0  0  0  0  0  0  0  0  0  0  0
  1  4  2  0  0  0  0
  1  8  1  0  0  0  0
  2  1  1  0  0  0  0
  3  2  2  0  0  0  0
  4  5  1  0  0  0  0
  5 10  1  0  0  0  0
  5  6  2  0  0  0  0
  6 11  1  0  0  0  0
  7  6  1  0  0  0  0
  7 12  1  0  0  0  0
  8  7  2  0  0  0  0
  9  4  1  0  0  0  0
 13  8  1  0  0  0  0
 14  3  1  0  0  0  0
M  END
