Coordinates from ORCA-job PhN2+~Cl-_B3LYPG-6-31G_dp-CH-Scan-d09-49-n800
 OpenBabel11261919593D

 14 13  0  0  0  0  0  0  0  0999 V2000
   -1.3444   -0.5950   -0.2670 C   0  0  0  0  0  0  0  0  0  0  0  0
   -2.7016   -0.7453   -0.5430 N   0  0  0  0  0  0  0  0  0  0  0  0
   -3.7972   -0.7839   -0.7747 N   0  0  0  0  0  0  0  0  0  0  0  0
   -0.9510    0.7491   -0.3358 C   0  0  0  0  0  0  0  0  0  0  0  0
    0.4414    0.8411   -0.0429 C   0  0  0  0  0  0  0  0  0  0  0  0
    1.2436   -0.2544    0.2588 C   0  0  0  0  0  0  0  0  0  0  0  0
    0.7236   -1.5740    0.2964 C   0  0  0  0  0  0  0  0  0  0  0  0
   -0.6108   -1.7770    0.0283 C   0  0  0  0  0  0  0  0  0  0  0  0
   -2.6259    5.1228   -1.0966 H   0  0  0  0  0  0  0  0  0  0  0  0
    0.9171    1.8229   -0.0525 H   0  0  0  0  0  0  0  0  0  0  0  0
    2.3011   -0.1103    0.4755 H   0  0  0  0  0  0  0  0  0  0  0  0
    1.3708   -2.4119    0.5346 H   0  0  0  0  0  0  0  0  0  0  0  0
   -1.0674   -2.7633    0.0424 H   0  0  0  0  0  0  0  0  0  0  0  0
   -3.1496    6.2727   -1.3368 Cl  0  0  0  0  0  0  0  0  0  0  0  0
  1  8  1  0  0  0  0
  2  1  1  0  0  0  0
  3  2  1  0  0  0  0
  4  1  2  0  0  0  0
  4  5  1  0  0  0  0
  5  6  2  0  0  0  0
  6  7  1  0  0  0  0
  6 11  1  0  0  0  0
  7 12  1  0  0  0  0
  8 13  1  0  0  0  0
  8  7  2  0  0  0  0
 10  5  1  0  0  0  0
 14  9  1  0  0  0  0
M  RAD  3   2   2   3   3   4   2
M  END
