Coordinates from ORCA-job PhN2+~Cl-_B3LYPG-6-31G_dp-CH-Scan-d09-49-n800
 OpenBabel11261919593D

 14 13  0  0  0  0  0  0  0  0999 V2000
   -1.4321   -0.0068   -0.3365 C   0  0  0  0  0  0  0  0  0  0  0  0
   -2.7884    0.0433   -0.6280 N   0  0  0  0  0  0  0  0  0  0  0  0
   -3.8711    0.1736   -0.8700 N   0  0  0  0  0  0  0  0  0  0  0  0
   -0.8115    1.2527   -0.3424 C   0  0  0  0  0  0  0  0  0  0  0  0
    0.5646    1.1530   -0.0397 C   0  0  0  0  0  0  0  0  0  0  0  0
    1.1916   -0.0624    0.2260 C   0  0  0  0  0  0  0  0  0  0  0  0
    0.4807   -1.2851    0.2075 C   0  0  0  0  0  0  0  0  0  0  0  0
   -0.8677   -1.2822   -0.0787 C   0  0  0  0  0  0  0  0  0  0  0  0
   -1.8351    2.6461   -0.7025 H   0  0  0  0  0  0  0  0  0  0  0  0
    1.1632    2.0616   -0.0117 H   0  0  0  0  0  0  0  0  0  0  0  0
    2.2546   -0.0833    0.4559 H   0  0  0  0  0  0  0  0  0  0  0  0
    0.9915   -2.2187    0.4179 H   0  0  0  0  0  0  0  0  0  0  0  0
   -1.4595   -2.1922   -0.1052 H   0  0  0  0  0  0  0  0  0  0  0  0
   -2.8311    3.5939   -1.0059 Cl  0  0  0  0  0  0  0  0  0  0  0  0
  1  8  1  0  0  0  0
  2  1  1  0  0  0  0
  3  2  1  0  0  0  0
  4  1  2  0  0  0  0
  4  5  1  0  0  0  0
  5 10  1  0  0  0  0
  5  6  2  0  0  0  0
  6 11  1  0  0  0  0
  7  6  1  0  0  0  0
  7 12  1  0  0  0  0
  8  7  2  0  0  0  0
 13  8  1  0  0  0  0
 14  9  1  0  0  0  0
M  RAD  3   2   2   3   3   4   2
M  END
