Coordinates from ORCA-job PhN2+~Cl-_B3LYPG-6-31G_dp-CH-Scan-d09-49-n800
 OpenBabel11261919593D

 14 13  0  0  0  0  0  0  0  0999 V2000
   -1.3480   -0.6262   -0.2631 C   0  0  0  0  0  0  0  0  0  0  0  0
   -2.7038   -0.7944   -0.5363 N   0  0  0  0  0  0  0  0  0  0  0  0
   -3.7992   -0.8469   -0.7660 N   0  0  0  0  0  0  0  0  0  0  0  0
   -0.9727    0.7229   -0.3328 C   0  0  0  0  0  0  0  0  0  0  0  0
    0.4186    0.8341   -0.0429 C   0  0  0  0  0  0  0  0  0  0  0  0
    1.2361   -0.2504    0.2573 C   0  0  0  0  0  0  0  0  0  0  0  0
    0.7341   -1.5771    0.2962 C   0  0  0  0  0  0  0  0  0  0  0  0
   -0.5981   -1.7981    0.0309 C   0  0  0  0  0  0  0  0  0  0  0  0
   -2.6236    5.2174   -1.1048 H   0  0  0  0  0  0  0  0  0  0  0  0
    0.8814    1.8221   -0.0537 H   0  0  0  0  0  0  0  0  0  0  0  0
    2.2920   -0.0922    0.4716 H   0  0  0  0  0  0  0  0  0  0  0  0
    1.3930   -2.4060    0.5331 H   0  0  0  0  0  0  0  0  0  0  0  0
   -1.0413   -2.7905    0.0462 H   0  0  0  0  0  0  0  0  0  0  0  0
   -3.1189    6.3790   -1.3490 Cl  0  0  0  0  0  0  0  0  0  0  0  0
  1  8  1  0  0  0  0
  2  1  1  0  0  0  0
  3  2  1  0  0  0  0
  4  1  2  0  0  0  0
  4  5  1  0  0  0  0
  5  6  2  0  0  0  0
  6  7  1  0  0  0  0
  6 11  1  0  0  0  0
  7 12  1  0  0  0  0
  8 13  1  0  0  0  0
  8  7  2  0  0  0  0
 10  5  1  0  0  0  0
 14  9  1  0  0  0  0
M  RAD  3   2   2   3   3   4   2
M  END
