Coordinates from ORCA-job PhN2+~Cl-_B3LYPG-6-31G_dp-CH-Scan-d09-49-n800
 OpenBabel11261919593D

 14 13  0  0  0  0  0  0  0  0999 V2000
   -1.4336   -0.0044   -0.3371 C   0  0  0  0  0  0  0  0  0  0  0  0
   -2.7900    0.0471   -0.6288 N   0  0  0  0  0  0  0  0  0  0  0  0
   -3.8719    0.1827   -0.8712 N   0  0  0  0  0  0  0  0  0  0  0  0
   -0.8117    1.2543   -0.3427 C   0  0  0  0  0  0  0  0  0  0  0  0
    0.5639    1.1556   -0.0402 C   0  0  0  0  0  0  0  0  0  0  0  0
    1.1907   -0.0601    0.2255 C   0  0  0  0  0  0  0  0  0  0  0  0
    0.4794   -1.2824    0.2070 C   0  0  0  0  0  0  0  0  0  0  0  0
   -0.8692   -1.2793   -0.0793 C   0  0  0  0  0  0  0  0  0  0  0  0
   -1.8230    2.6263   -0.6979 H   0  0  0  0  0  0  0  0  0  0  0  0
    1.1620    2.0644   -0.0123 H   0  0  0  0  0  0  0  0  0  0  0  0
    2.2536   -0.0812    0.4554 H   0  0  0  0  0  0  0  0  0  0  0  0
    0.9899   -2.2161    0.4174 H   0  0  0  0  0  0  0  0  0  0  0  0
   -1.4611   -2.1893   -0.1057 H   0  0  0  0  0  0  0  0  0  0  0  0
   -2.8292    3.5759   -1.0034 Cl  0  0  0  0  0  0  0  0  0  0  0  0
  1  8  1  0  0  0  0
  2  1  1  0  0  0  0
  3  2  1  0  0  0  0
  4  1  2  0  0  0  0
  4  5  1  0  0  0  0
  5 10  1  0  0  0  0
  5  6  2  0  0  0  0
  6 11  1  0  0  0  0
  7  6  1  0  0  0  0
  7 12  1  0  0  0  0
  8  7  2  0  0  0  0
 13  8  1  0  0  0  0
 14  9  1  0  0  0  0
M  RAD  3   2   2   3   3   4   2
M  END
