Coordinates from ORCA-job PhN2+~Cl-_B3LYPG-6-31G_dp-CH-Scan-d09-49-n800
 OpenBabel11261919593D

 14 13  0  0  0  0  0  0  0  0999 V2000
   -1.3690   -0.1551   -0.3112 C   0  0  0  0  0  0  0  0  0  0  0  0
   -2.7262   -0.1346   -0.6009 N   0  0  0  0  0  0  0  0  0  0  0  0
   -3.8168   -0.0557   -0.8404 N   0  0  0  0  0  0  0  0  0  0  0  0
   -0.7910    1.1260   -0.3313 C   0  0  0  0  0  0  0  0  0  0  0  0
    0.5946    1.0313   -0.0253 C   0  0  0  0  0  0  0  0  0  0  0  0
    1.2434   -0.1687    0.2482 C   0  0  0  0  0  0  0  0  0  0  0  0
    0.5550   -1.4080    0.2393 C   0  0  0  0  0  0  0  0  0  0  0  0
   -0.7910   -1.4276   -0.0460 C   0  0  0  0  0  0  0  0  0  0  0  0
   -2.2621    3.4667   -0.8741 H   0  0  0  0  0  0  0  0  0  0  0  0
    1.1893    1.9444   -0.0006 H   0  0  0  0  0  0  0  0  0  0  0  0
    2.3073   -0.1704    0.4782 H   0  0  0  0  0  0  0  0  0  0  0  0
    1.0834   -2.3305    0.4561 H   0  0  0  0  0  0  0  0  0  0  0  0
   -1.3703   -2.3466   -0.0667 H   0  0  0  0  0  0  0  0  0  0  0  0
   -3.0967    4.4225   -1.1387 Cl  0  0  0  0  0  0  0  0  0  0  0  0
  1  8  1  0  0  0  0
  2  1  1  0  0  0  0
  3  2  1  0  0  0  0
  4  1  2  0  0  0  0
  4  5  1  0  0  0  0
  5 10  1  0  0  0  0
  5  6  2  0  0  0  0
  6 11  1  0  0  0  0
  7  6  1  0  0  0  0
  7 12  1  0  0  0  0
  8  7  2  0  0  0  0
 13  8  1  0  0  0  0
 14  9  1  0  0  0  0
M  RAD  3   2   2   3   3   4   2
M  END
