Coordinates from ORCA-job PhN2+~Cl-_B3LYPG-6-31G_dp-CH-Scan-d09-49-n800
 OpenBabel11261919593D

 14 13  0  0  0  0  0  0  0  0999 V2000
   -1.4108   -0.0398   -0.3289 C   0  0  0  0  0  0  0  0  0  0  0  0
   -2.7667    0.0024   -0.6194 N   0  0  0  0  0  0  0  0  0  0  0  0
   -3.8538    0.1054   -0.8594 N   0  0  0  0  0  0  0  0  0  0  0  0
   -0.8010    1.2263   -0.3380 C   0  0  0  0  0  0  0  0  0  0  0  0
    0.5787    1.1185   -0.0335 C   0  0  0  0  0  0  0  0  0  0  0  0
    1.2080   -0.0947    0.2328 C   0  0  0  0  0  0  0  0  0  0  0  0
    0.4995   -1.3204    0.2154 C   0  0  0  0  0  0  0  0  0  0  0  0
   -0.8477   -1.3182   -0.0707 C   0  0  0  0  0  0  0  0  0  0  0  0
   -1.9757    2.8805   -0.7560 H   0  0  0  0  0  0  0  0  0  0  0  0
    1.1815    2.0250   -0.0045 H   0  0  0  0  0  0  0  0  0  0  0  0
    2.2712   -0.1140    0.4629 H   0  0  0  0  0  0  0  0  0  0  0  0
    1.0122   -2.2529    0.4264 H   0  0  0  0  0  0  0  0  0  0  0  0
   -1.4395   -2.2285   -0.0970 H   0  0  0  0  0  0  0  0  0  0  0  0
   -2.9062    3.8041   -1.0436 Cl  0  0  0  0  0  0  0  0  0  0  0  0
  1  8  1  0  0  0  0
  2  1  1  0  0  0  0
  3  2  1  0  0  0  0
  4  1  2  0  0  0  0
  4  5  1  0  0  0  0
  5 10  1  0  0  0  0
  5  6  2  0  0  0  0
  6 11  1  0  0  0  0
  7  6  1  0  0  0  0
  7 12  1  0  0  0  0
  8  7  2  0  0  0  0
 13  8  1  0  0  0  0
 14  9  1  0  0  0  0
M  RAD  3   2   2   3   3   4   2
M  END
