Coordinates from ORCA-job PhN2+~Cl-_B3LYPG-6-31G_dp-CH-Scan-d09-49-n800
 OpenBabel11261919593D

 14 13  0  0  0  0  0  0  0  0999 V2000
   -1.3557   -0.2261   -0.3016 C   0  0  0  0  0  0  0  0  0  0  0  0
   -2.7145   -0.2238   -0.5901 N   0  0  0  0  0  0  0  0  0  0  0  0
   -3.8063   -0.1543   -0.8292 N   0  0  0  0  0  0  0  0  0  0  0  0
   -0.8022    1.0649   -0.3285 C   0  0  0  0  0  0  0  0  0  0  0  0
    0.5866    0.9904   -0.0235 C   0  0  0  0  0  0  0  0  0  0  0  0
    1.2545   -0.1980    0.2535 C   0  0  0  0  0  0  0  0  0  0  0  0
    0.5857   -1.4485    0.2505 C   0  0  0  0  0  0  0  0  0  0  0  0
   -0.7601   -1.4899   -0.0327 C   0  0  0  0  0  0  0  0  0  0  0  0
   -2.3744    3.7668   -0.9275 H   0  0  0  0  0  0  0  0  0  0  0  0
    1.1687    1.9121   -0.0028 H   0  0  0  0  0  0  0  0  0  0  0  0
    2.3187   -0.1824    0.4820 H   0  0  0  0  0  0  0  0  0  0  0  0
    1.1291   -2.3617    0.4701 H   0  0  0  0  0  0  0  0  0  0  0  0
   -1.3257   -2.4176   -0.0492 H   0  0  0  0  0  0  0  0  0  0  0  0
   -3.1547    4.7617   -1.1844 Cl  0  0  0  0  0  0  0  0  0  0  0  0
  1  8  1  0  0  0  0
  2  1  1  0  0  0  0
  3  2  1  0  0  0  0
  4  1  2  0  0  0  0
  4  5  1  0  0  0  0
  5 10  1  0  0  0  0
  5  6  2  0  0  0  0
  6 11  1  0  0  0  0
  7  6  1  0  0  0  0
  7 12  1  0  0  0  0
  8  7  2  0  0  0  0
 13  8  1  0  0  0  0
 14  9  1  0  0  0  0
M  RAD  3   2   2   3   3   4   2
M  END
