Coordinates from ORCA-job PhN2+~Cl-_B3LYPG-6-31G_dp-CH-Scan-d09-49-n800
 OpenBabel11261919593D

 14 13  0  0  0  0  0  0  0  0999 V2000
   -1.3563   -0.2112   -0.3022 C   0  0  0  0  0  0  0  0  0  0  0  0
   -2.7149   -0.2034   -0.5905 N   0  0  0  0  0  0  0  0  0  0  0  0
   -3.8064   -0.1304   -0.8292 N   0  0  0  0  0  0  0  0  0  0  0  0
   -0.7965    1.0775   -0.3263 C   0  0  0  0  0  0  0  0  0  0  0  0
    0.5916    0.9966   -0.0214 C   0  0  0  0  0  0  0  0  0  0  0  0
    1.2543   -0.1953    0.2533 C   0  0  0  0  0  0  0  0  0  0  0  0
    0.5802   -1.4429    0.2475 C   0  0  0  0  0  0  0  0  0  0  0  0
   -0.7658   -1.4778   -0.0360 C   0  0  0  0  0  0  0  0  0  0  0  0
   -2.3616    3.7135   -0.9214 H   0  0  0  0  0  0  0  0  0  0  0  0
    1.1775    1.9157    0.0013 H   0  0  0  0  0  0  0  0  0  0  0  0
    2.3186   -0.1847    0.4819 H   0  0  0  0  0  0  0  0  0  0  0  0
    1.1196   -2.3589    0.4652 H   0  0  0  0  0  0  0  0  0  0  0  0
   -1.3353   -2.4031   -0.0545 H   0  0  0  0  0  0  0  0  0  0  0  0
   -3.1553    4.6980   -1.1810 Cl  0  0  0  0  0  0  0  0  0  0  0  0
  1  8  1  0  0  0  0
  2  1  1  0  0  0  0
  3  2  1  0  0  0  0
  4  1  2  0  0  0  0
  4  5  1  0  0  0  0
  5 10  1  0  0  0  0
  5  6  2  0  0  0  0
  6 11  1  0  0  0  0
  7  6  1  0  0  0  0
  7 12  1  0  0  0  0
  8  7  2  0  0  0  0
 13  8  1  0  0  0  0
 14  9  1  0  0  0  0
M  RAD  3   2   2   3   3   4   2
M  END
