Coordinates from ORCA-job PhN2+~Cl-_B3LYPG-6-31G_dp-CH-Scan-d09-49-n800
 OpenBabel11261919593D

 14 13  0  0  0  0  0  0  0  0999 V2000
   -1.3730   -0.1405   -0.3127 C   0  0  0  0  0  0  0  0  0  0  0  0
   -2.7297   -0.1174   -0.6020 N   0  0  0  0  0  0  0  0  0  0  0  0
   -3.8203   -0.0381   -0.8410 N   0  0  0  0  0  0  0  0  0  0  0  0
   -0.7905    1.1389   -0.3308 C   0  0  0  0  0  0  0  0  0  0  0  0
    0.5946    1.0406   -0.0250 C   0  0  0  0  0  0  0  0  0  0  0  0
    1.2403   -0.1616    0.2468 C   0  0  0  0  0  0  0  0  0  0  0  0
    0.5486   -1.3988    0.2361 C   0  0  0  0  0  0  0  0  0  0  0  0
   -0.7975   -1.4145   -0.0493 C   0  0  0  0  0  0  0  0  0  0  0  0
   -2.2341    3.4029   -0.8628 H   0  0  0  0  0  0  0  0  0  0  0  0
    1.1912    1.9523    0.0009 H   0  0  0  0  0  0  0  0  0  0  0  0
    2.3042   -0.1661    0.4768 H   0  0  0  0  0  0  0  0  0  0  0  0
    1.0745   -2.3231    0.4515 H   0  0  0  0  0  0  0  0  0  0  0  0
   -1.3789   -2.3320   -0.0713 H   0  0  0  0  0  0  0  0  0  0  0  0
   -3.0798    4.3510   -1.1305 Cl  0  0  0  0  0  0  0  0  0  0  0  0
  1  8  1  0  0  0  0
  2  1  1  0  0  0  0
  3  2  1  0  0  0  0
  4  1  2  0  0  0  0
  4  5  1  0  0  0  0
  5 10  1  0  0  0  0
  5  6  2  0  0  0  0
  6 11  1  0  0  0  0
  7  6  1  0  0  0  0
  7 12  1  0  0  0  0
  8  7  2  0  0  0  0
 13  8  1  0  0  0  0
 14  9  1  0  0  0  0
M  RAD  3   2   2   3   3   4   2
M  END
