Coordinates from ORCA-job PhN2+~Cl-_B3LYPG-6-31G_dp-CH-Scan-d09-49-n800
 OpenBabel11261919593D

 14 13  0  0  0  0  0  0  0  0999 V2000
   -1.3380   -0.3387   -0.2914 C   0  0  0  0  0  0  0  0  0  0  0  0
   -2.6987   -0.3683   -0.5801 N   0  0  0  0  0  0  0  0  0  0  0  0
   -3.7915   -0.3161   -0.8206 N   0  0  0  0  0  0  0  0  0  0  0  0
   -0.8226    0.9663   -0.3340 C   0  0  0  0  0  0  0  0  0  0  0  0
    0.5691    0.9285   -0.0288 C   0  0  0  0  0  0  0  0  0  0  0  0
    1.2672   -0.2392    0.2607 C   0  0  0  0  0  0  0  0  0  0  0  0
    0.6309   -1.5070    0.2722 C   0  0  0  0  0  0  0  0  0  0  0  0
   -0.7136   -1.5854   -0.0096 C   0  0  0  0  0  0  0  0  0  0  0  0
   -2.5185    4.2368   -0.9987 H   0  0  0  0  0  0  0  0  0  0  0  0
    1.1296    1.8641   -0.0182 H   0  0  0  0  0  0  0  0  0  0  0  0
    2.3311   -0.1941    0.4881 H   0  0  0  0  0  0  0  0  0  0  0  0
    1.1979   -2.4033    0.5015 H   0  0  0  0  0  0  0  0  0  0  0  0
   -1.2564   -2.5270   -0.0156 H   0  0  0  0  0  0  0  0  0  0  0  0
   -3.2370    5.2771   -1.2389 Cl  0  0  0  0  0  0  0  0  0  0  0  0
  1  8  1  0  0  0  0
  2  1  1  0  0  0  0
  3  2  1  0  0  0  0
  4  1  2  0  0  0  0
  4  5  1  0  0  0  0
  5 10  1  0  0  0  0
  5  6  2  0  0  0  0
  6  7  1  0  0  0  0
  6 11  1  0  0  0  0
  7 12  1  0  0  0  0
  8  7  2  0  0  0  0
 13  8  1  0  0  0  0
 14  9  1  0  0  0  0
M  RAD  3   2   2   3   3   4   2
M  END
