Coordinates from ORCA-job PhN2+~Cl-_B3LYPG-6-31G_dp-CH-Scan-d09-49-n800
 OpenBabel11261919593D

 14 13  0  0  0  0  0  0  0  0999 V2000
   -1.3345   -0.4770   -0.2755 C   0  0  0  0  0  0  0  0  0  0  0  0
   -2.6955   -0.5629   -0.5580 N   0  0  0  0  0  0  0  0  0  0  0  0
   -3.7907   -0.5512   -0.7941 N   0  0  0  0  0  0  0  0  0  0  0  0
   -0.8784    0.8485   -0.3288 C   0  0  0  0  0  0  0  0  0  0  0  0
    0.5154    0.8724   -0.0296 C   0  0  0  0  0  0  0  0  0  0  0  0
    1.2647   -0.2622    0.2632 C   0  0  0  0  0  0  0  0  0  0  0  0
    0.6839   -1.5565    0.2854 C   0  0  0  0  0  0  0  0  0  0  0  0
   -0.6573   -1.6945    0.0105 C   0  0  0  0  0  0  0  0  0  0  0  0
   -2.6116    4.7517   -1.0683 H   0  0  0  0  0  0  0  0  0  0  0  0
    1.0358    1.8312   -0.0270 H   0  0  0  0  0  0  0  0  0  0  0  0
    2.3268   -0.1698    0.4852 H   0  0  0  0  0  0  0  0  0  0  0  0
    1.2904   -2.4259    0.5173 H   0  0  0  0  0  0  0  0  0  0  0  0
   -1.1593   -2.6586    0.0129 H   0  0  0  0  0  0  0  0  0  0  0  0
   -3.2400    5.8485   -1.3064 Cl  0  0  0  0  0  0  0  0  0  0  0  0
  1  8  1  0  0  0  0
  2  1  1  0  0  0  0
  3  2  1  0  0  0  0
  4  1  2  0  0  0  0
  4  5  1  0  0  0  0
  5 10  1  0  0  0  0
  5  6  2  0  0  0  0
  6  7  1  0  0  0  0
  6 11  1  0  0  0  0
  7 12  1  0  0  0  0
  8 13  1  0  0  0  0
  8  7  2  0  0  0  0
 14  9  1  0  0  0  0
M  RAD  3   2   2   3   3   4   2
M  END
