Coordinates from ORCA-job PhN2+~Cl-_B3LYPG-6-31G_dp-CH-Scan-d09-49-n800
 OpenBabel11261919593D

 14 13  0  0  0  0  0  0  0  0999 V2000
   -1.4243   -0.0187   -0.3335 C   0  0  0  0  0  0  0  0  0  0  0  0
   -2.7805    0.0272   -0.6243 N   0  0  0  0  0  0  0  0  0  0  0  0
   -3.8656    0.1425   -0.8650 N   0  0  0  0  0  0  0  0  0  0  0  0
   -0.8087    1.2440   -0.3407 C   0  0  0  0  0  0  0  0  0  0  0  0
    0.5690    1.1404   -0.0372 C   0  0  0  0  0  0  0  0  0  0  0  0
    1.1972   -0.0740    0.2284 C   0  0  0  0  0  0  0  0  0  0  0  0
    0.4874   -1.2981    0.2101 C   0  0  0  0  0  0  0  0  0  0  0  0
   -0.8604   -1.2955   -0.0759 C   0  0  0  0  0  0  0  0  0  0  0  0
   -1.8897    2.7354   -0.7232 H   0  0  0  0  0  0  0  0  0  0  0  0
    1.1695    2.0480   -0.0086 H   0  0  0  0  0  0  0  0  0  0  0  0
    2.2603   -0.0941    0.4582 H   0  0  0  0  0  0  0  0  0  0  0  0
    0.9992   -2.2312    0.4205 H   0  0  0  0  0  0  0  0  0  0  0  0
   -1.4522   -2.2056   -0.1025 H   0  0  0  0  0  0  0  0  0  0  0  0
   -2.8515    3.6730   -1.0196 Cl  0  0  0  0  0  0  0  0  0  0  0  0
  1  8  1  0  0  0  0
  2  1  1  0  0  0  0
  3  2  1  0  0  0  0
  4  1  2  0  0  0  0
  4  5  1  0  0  0  0
  5 10  1  0  0  0  0
  5  6  2  0  0  0  0
  6 11  1  0  0  0  0
  7  6  1  0  0  0  0
  7 12  1  0  0  0  0
  8  7  2  0  0  0  0
 13  8  1  0  0  0  0
 14  9  1  0  0  0  0
M  RAD  3   2   2   3   3   4   2
M  END
