Coordinates from ORCA-job PhN2+~Cl-_B3LYPG-6-31G_dp-CH-Scan-d09-49-n800
 OpenBabel11261919593D

 14 13  0  0  0  0  0  0  0  0999 V2000
   -1.3347   -0.5127   -0.2740 C   0  0  0  0  0  0  0  0  0  0  0  0
   -2.6953   -0.6146   -0.5556 N   0  0  0  0  0  0  0  0  0  0  0  0
   -3.7906   -0.6142   -0.7913 N   0  0  0  0  0  0  0  0  0  0  0  0
   -0.8945    0.8174   -0.3338 C   0  0  0  0  0  0  0  0  0  0  0  0
    0.4991    0.8596   -0.0355 C   0  0  0  0  0  0  0  0  0  0  0  0
    1.2616   -0.2647    0.2630 C   0  0  0  0  0  0  0  0  0  0  0  0
    0.6960   -1.5656    0.2915 C   0  0  0  0  0  0  0  0  0  0  0  0
   -0.6435   -1.7209    0.0176 C   0  0  0  0  0  0  0  0  0  0  0  0
   -2.6291    4.8742   -1.0788 H   0  0  0  0  0  0  0  0  0  0  0  0
    1.0084    1.8244   -0.0379 H   0  0  0  0  0  0  0  0  0  0  0  0
    2.3226   -0.1589    0.4843 H   0  0  0  0  0  0  0  0  0  0  0  0
    1.3128   -2.4266    0.5276 H   0  0  0  0  0  0  0  0  0  0  0  0
   -1.1340   -2.6908    0.0247 H   0  0  0  0  0  0  0  0  0  0  0  0
   -3.2291    5.9870   -1.3151 Cl  0  0  0  0  0  0  0  0  0  0  0  0
  1  8  1  0  0  0  0
  2  1  1  0  0  0  0
  3  2  1  0  0  0  0
  4  1  2  0  0  0  0
  4  5  1  0  0  0  0
  5  6  2  0  0  0  0
  6  7  1  0  0  0  0
  6 11  1  0  0  0  0
  7 12  1  0  0  0  0
  8 13  1  0  0  0  0
  8  7  2  0  0  0  0
 10  5  1  0  0  0  0
 14  9  1  0  0  0  0
M  RAD  3   2   2   3   3   4   2
M  END
