Coordinates from ORCA-job PhN2+~Cl-_B3LYPG-6-31G_dp-CH-Scan-d09-49-n800
 OpenBabel11261919593D

 14 13  0  0  0  0  0  0  0  0999 V2000
   -1.3375   -0.3429   -0.2910 C   0  0  0  0  0  0  0  0  0  0  0  0
   -2.6982   -0.3739   -0.5797 N   0  0  0  0  0  0  0  0  0  0  0  0
   -3.7911   -0.3225   -0.8202 N   0  0  0  0  0  0  0  0  0  0  0  0
   -0.8236    0.9626   -0.3342 C   0  0  0  0  0  0  0  0  0  0  0  0
    0.5681    0.9264   -0.0290 C   0  0  0  0  0  0  0  0  0  0  0  0
    1.2675   -0.2405    0.2609 C   0  0  0  0  0  0  0  0  0  0  0  0
    0.6325   -1.5090    0.2729 C   0  0  0  0  0  0  0  0  0  0  0  0
   -0.7119   -1.5889   -0.0088 C   0  0  0  0  0  0  0  0  0  0  0  0
   -2.5227    4.2539   -1.0011 H   0  0  0  0  0  0  0  0  0  0  0  0
    1.1277    1.8626   -0.0188 H   0  0  0  0  0  0  0  0  0  0  0  0
    2.3313   -0.1942    0.4882 H   0  0  0  0  0  0  0  0  0  0  0  0
    1.2006   -2.4045    0.5026 H   0  0  0  0  0  0  0  0  0  0  0  0
   -1.2537   -2.5310   -0.0144 H   0  0  0  0  0  0  0  0  0  0  0  0
   -3.2394    5.2956   -1.2409 Cl  0  0  0  0  0  0  0  0  0  0  0  0
  1  8  1  0  0  0  0
  2  1  1  0  0  0  0
  3  2  1  0  0  0  0
  4  1  2  0  0  0  0
  4  5  1  0  0  0  0
  5 10  1  0  0  0  0
  5  6  2  0  0  0  0
  6  7  1  0  0  0  0
  6 11  1  0  0  0  0
  7 12  1  0  0  0  0
  8  7  2  0  0  0  0
 13  8  1  0  0  0  0
 14  9  1  0  0  0  0
M  RAD  3   2   2   3   3   4   2
M  END
