Coordinates from ORCA-job PhN2+~Cl-_B3LYPG-6-31G_dp-CH-Scan-d09-49-n800
 OpenBabel11261919593D

 14 13  0  0  0  0  0  0  0  0999 V2000
   -1.4414    0.0099   -0.3395 C   0  0  0  0  0  0  0  0  0  0  0  0
   -2.8187    0.0952   -0.6386 N   0  0  0  0  0  0  0  0  0  0  0  0
   -3.7383    0.7130   -0.8973 N   0  0  0  0  0  0  0  0  0  0  0  0
   -0.7700    1.2310   -0.3298 C   0  0  0  0  0  0  0  0  0  0  0  0
    0.5939    1.1666   -0.0344 C   0  0  0  0  0  0  0  0  0  0  0  0
    1.2079   -0.0621    0.2291 C   0  0  0  0  0  0  0  0  0  0  0  0
    0.4817   -1.2659    0.2051 C   0  0  0  0  0  0  0  0  0  0  0  0
   -0.8750   -1.2481   -0.0843 C   0  0  0  0  0  0  0  0  0  0  0  0
   -1.6808    2.3880   -0.6444 H   0  0  0  0  0  0  0  0  0  0  0  0
    1.1855    2.0776   -0.0075 H   0  0  0  0  0  0  0  0  0  0  0  0
    2.2696   -0.0927    0.4596 H   0  0  0  0  0  0  0  0  0  0  0  0
    0.9795   -2.2070    0.4133 H   0  0  0  0  0  0  0  0  0  0  0  0
   -1.4733   -2.1530   -0.1129 H   0  0  0  0  0  0  0  0  0  0  0  0
   -3.1709    3.1413   -1.0319 Cl  0  0  0  0  0  0  0  0  0  0  0  0
  1  4  2  0  0  0  0
  1  8  1  0  0  0  0
  2  1  1  0  0  0  0
  3  2  2  0  0  0  0
  4  5  1  0  0  0  0
  5 10  1  0  0  0  0
  5  6  2  0  0  0  0
  6 11  1  0  0  0  0
  7  6  1  0  0  0  0
  7 12  1  0  0  0  0
  8  7  2  0  0  0  0
  9  4  1  0  0  0  0
 13  8  1  0  0  0  0
M  RAD  2   3   2  14   2
M  END
