Coordinates from ORCA-job PhN2+~Cl-_B3LYPG-6-31G_dp-CH-Scan-d09-49-n800
 OpenBabel11261919593D

 14 13  0  0  0  0  0  0  0  0999 V2000
   -1.3469   -0.2858   -0.2964 C   0  0  0  0  0  0  0  0  0  0  0  0
   -2.7068   -0.3012   -0.5849 N   0  0  0  0  0  0  0  0  0  0  0  0
   -3.7992   -0.2415   -0.8248 N   0  0  0  0  0  0  0  0  0  0  0  0
   -0.8144    1.0132   -0.3319 C   0  0  0  0  0  0  0  0  0  0  0  0
    0.5761    0.9585   -0.0268 C   0  0  0  0  0  0  0  0  0  0  0  0
    1.2606   -0.2187    0.2571 C   0  0  0  0  0  0  0  0  0  0  0  0
    0.6096   -1.4789    0.2621 C   0  0  0  0  0  0  0  0  0  0  0  0
   -0.7356   -1.5404   -0.0205 C   0  0  0  0  0  0  0  0  0  0  0  0
   -2.4519    4.0101   -0.9649 H   0  0  0  0  0  0  0  0  0  0  0  0
    1.1467    1.8877   -0.0116 H   0  0  0  0  0  0  0  0  0  0  0  0
    2.3248   -0.1870    0.4851 H   0  0  0  0  0  0  0  0  0  0  0  0
    1.1660   -2.3829    0.4869 H   0  0  0  0  0  0  0  0  0  0  0  0
   -1.2889   -2.4757   -0.0313 H   0  0  0  0  0  0  0  0  0  0  0  0
   -3.1903    5.0362   -1.2114 Cl  0  0  0  0  0  0  0  0  0  0  0  0
  1  8  1  0  0  0  0
  2  1  1  0  0  0  0
  3  2  1  0  0  0  0
  4  1  2  0  0  0  0
  4  5  1  0  0  0  0
  5 10  1  0  0  0  0
  5  6  2  0  0  0  0
  6  7  1  0  0  0  0
  6 11  1  0  0  0  0
  7 12  1  0  0  0  0
  8  7  2  0  0  0  0
 13  8  1  0  0  0  0
 14  9  1  0  0  0  0
M  RAD  3   2   2   3   3   4   2
M  END
