Coordinates from ORCA-job PhN2+~Cl-_B3LYPG-6-31G_dp-CH-Scan-d09-49-n800
 OpenBabel11261919593D

 14 13  0  0  0  0  0  0  0  0999 V2000
   -1.4358   -0.0007   -0.3380 C   0  0  0  0  0  0  0  0  0  0  0  0
   -2.7924    0.0540   -0.6300 N   0  0  0  0  0  0  0  0  0  0  0  0
   -3.8723    0.2015   -0.8733 N   0  0  0  0  0  0  0  0  0  0  0  0
   -0.8117    1.2565   -0.3429 C   0  0  0  0  0  0  0  0  0  0  0  0
    0.5632    1.1596   -0.0408 C   0  0  0  0  0  0  0  0  0  0  0  0
    1.1893   -0.0567    0.2249 C   0  0  0  0  0  0  0  0  0  0  0  0
    0.4774   -1.2782    0.2062 C   0  0  0  0  0  0  0  0  0  0  0  0
   -0.8714   -1.2749   -0.0802 C   0  0  0  0  0  0  0  0  0  0  0  0
   -1.8037    2.5939   -0.6905 H   0  0  0  0  0  0  0  0  0  0  0  0
    1.1606    2.0688   -0.0131 H   0  0  0  0  0  0  0  0  0  0  0  0
    2.2522   -0.0782    0.4548 H   0  0  0  0  0  0  0  0  0  0  0  0
    0.9875   -2.2122    0.4165 H   0  0  0  0  0  0  0  0  0  0  0  0
   -1.4634   -2.1847   -0.1067 H   0  0  0  0  0  0  0  0  0  0  0  0
   -2.8297    3.5450   -1.0001 Cl  0  0  0  0  0  0  0  0  0  0  0  0
  1  8  1  0  0  0  0
  2  1  1  0  0  0  0
  3  2  1  0  0  0  0
  4  1  2  0  0  0  0
  4  5  1  0  0  0  0
  5 10  1  0  0  0  0
  5  6  2  0  0  0  0
  6 11  1  0  0  0  0
  7  6  1  0  0  0  0
  7 12  1  0  0  0  0
  8  7  2  0  0  0  0
 13  8  1  0  0  0  0
 14  9  1  0  0  0  0
M  RAD  3   2   2   3   3   4   2
M  END
