Coordinates from ORCA-job PhN2+~Cl-_B3LYPG-6-31G_dp-CH-Scan-d09-49-n800
 OpenBabel11261919593D

 14 14  0  0  0  0  0  0  0  0999 V2000
   -1.4770    0.0913   -0.3563 C   0  0  0  0  0  0  0  0  0  0  0  0
   -2.8545    0.0777   -0.6461 N   0  0  0  0  0  0  0  0  0  0  0  0
   -3.7759    0.7449   -0.9089 N   0  0  0  0  0  0  0  0  0  0  0  0
   -0.7237    1.2743   -0.3256 C   0  0  0  0  0  0  0  0  0  0  0  0
    0.6330    1.1802   -0.0278 C   0  0  0  0  0  0  0  0  0  0  0  0
    1.2207   -0.0618    0.2322 C   0  0  0  0  0  0  0  0  0  0  0  0
    0.4557   -1.2322    0.1967 C   0  0  0  0  0  0  0  0  0  0  0  0
   -0.9009   -1.1615   -0.0990 C   0  0  0  0  0  0  0  0  0  0  0  0
   -1.2405    2.2729   -0.5434 H   0  0  0  0  0  0  0  0  0  0  0  0
    1.2341    2.0833    0.0019 H   0  0  0  0  0  0  0  0  0  0  0  0
    2.2798   -0.1179    0.4653 H   0  0  0  0  0  0  0  0  0  0  0  0
    0.9155   -2.1938    0.3996 H   0  0  0  0  0  0  0  0  0  0  0  0
   -1.5231   -2.0491   -0.1346 H   0  0  0  0  0  0  0  0  0  0  0  0
   -3.4935    2.8856   -1.0673 Cl  0  0  0  0  0  0  0  0  0  0  0  0
  1  4  2  0  0  0  0
  1  8  1  0  0  0  0
  2  1  1  0  0  0  0
  3  2  2  0  0  0  0
  4  5  1  0  0  0  0
  5 10  1  0  0  0  0
  5  6  2  0  0  0  0
  6 11  1  0  0  0  0
  7  6  1  0  0  0  0
  7 12  1  0  0  0  0
  8  7  2  0  0  0  0
  9  4  1  0  0  0  0
 13  8  1  0  0  0  0
 14  3  1  0  0  0  0
M  END
