Coordinates from ORCA-job PhN2+~Cl-_B3LYPG-6-31G_dp-CH-Scan-d09-49-n800
 OpenBabel11261919593D

 14 13  0  0  0  0  0  0  0  0999 V2000
   -1.3872   -0.0888   -0.3195 C   0  0  0  0  0  0  0  0  0  0  0  0
   -2.7432   -0.0530   -0.6093 N   0  0  0  0  0  0  0  0  0  0  0  0
   -3.8324    0.0380   -0.8485 N   0  0  0  0  0  0  0  0  0  0  0  0
   -0.7890    1.1834   -0.3321 C   0  0  0  0  0  0  0  0  0  0  0  0
    0.5935    1.0753   -0.0267 C   0  0  0  0  0  0  0  0  0  0  0  0
    1.2281   -0.1340    0.2413 C   0  0  0  0  0  0  0  0  0  0  0  0
    0.5250   -1.3641    0.2259 C   0  0  0  0  0  0  0  0  0  0  0  0
   -0.8214   -1.3672   -0.0600 C   0  0  0  0  0  0  0  0  0  0  0  0
   -2.1265    3.1620   -0.8168 H   0  0  0  0  0  0  0  0  0  0  0  0
    1.1963    1.9824    0.0020 H   0  0  0  0  0  0  0  0  0  0  0  0
    2.2917   -0.1489    0.4715 H   0  0  0  0  0  0  0  0  0  0  0  0
    1.0422   -2.2940    0.4382 H   0  0  0  0  0  0  0  0  0  0  0  0
   -1.4104   -2.2797   -0.0851 H   0  0  0  0  0  0  0  0  0  0  0  0
   -3.0170    4.0822   -1.0943 Cl  0  0  0  0  0  0  0  0  0  0  0  0
  1  8  1  0  0  0  0
  2  1  1  0  0  0  0
  3  2  1  0  0  0  0
  4  1  2  0  0  0  0
  4  5  1  0  0  0  0
  5 10  1  0  0  0  0
  5  6  2  0  0  0  0
  6 11  1  0  0  0  0
  7  6  1  0  0  0  0
  7 12  1  0  0  0  0
  8  7  2  0  0  0  0
 13  8  1  0  0  0  0
 14  9  1  0  0  0  0
M  RAD  3   2   2   3   3   4   2
M  END
