Coordinates from ORCA-job PhN2+~Cl-_B3LYPG-6-31G_dp-CH-Scan-d09-49-n800
 OpenBabel11261919593D

 14 13  0  0  0  0  0  0  0  0999 V2000
   -1.3575   -0.2039   -0.3055 C   0  0  0  0  0  0  0  0  0  0  0  0
   -2.7156   -0.1945   -0.5951 N   0  0  0  0  0  0  0  0  0  0  0  0
   -3.8067   -0.1207   -0.8351 N   0  0  0  0  0  0  0  0  0  0  0  0
   -0.7947    1.0836   -0.3315 C   0  0  0  0  0  0  0  0  0  0  0  0
    0.5929    1.0007   -0.0252 C   0  0  0  0  0  0  0  0  0  0  0  0
    1.2530   -0.1919    0.2527 C   0  0  0  0  0  0  0  0  0  0  0  0
    0.5763   -1.4381    0.2489 C   0  0  0  0  0  0  0  0  0  0  0  0
   -0.7694   -1.4710   -0.0359 C   0  0  0  0  0  0  0  0  0  0  0  0
   -2.3493    3.6814   -0.9124 H   0  0  0  0  0  0  0  0  0  0  0  0
    1.1805    1.9188   -0.0039 H   0  0  0  0  0  0  0  0  0  0  0  0
    2.3170   -0.1829    0.4824 H   0  0  0  0  0  0  0  0  0  0  0  0
    1.1136   -2.3547    0.4691 H   0  0  0  0  0  0  0  0  0  0  0  0
   -1.3407   -2.3952   -0.0531 H   0  0  0  0  0  0  0  0  0  0  0  0
   -3.1497    4.6619   -1.1690 Cl  0  0  0  0  0  0  0  0  0  0  0  0
  1  8  1  0  0  0  0
  2  1  1  0  0  0  0
  3  2  1  0  0  0  0
  4  1  2  0  0  0  0
  4  5  1  0  0  0  0
  5 10  1  0  0  0  0
  5  6  2  0  0  0  0
  6 11  1  0  0  0  0
  7  6  1  0  0  0  0
  7 12  1  0  0  0  0
  8  7  2  0  0  0  0
 13  8  1  0  0  0  0
 14  9  1  0  0  0  0
M  RAD  3   2   2   3   3   4   2
M  END
