Coordinates from ORCA-job PhN2+~Cl-_B3LYPG-6-31G_dp-CH-Scan-d09-49-n800
 OpenBabel11261919593D

 14 13  0  0  0  0  0  0  0  0999 V2000
   -1.3433   -0.3049   -0.2945 C   0  0  0  0  0  0  0  0  0  0  0  0
   -2.7035   -0.3250   -0.5832 N   0  0  0  0  0  0  0  0  0  0  0  0
   -3.7960   -0.2675   -0.8234 N   0  0  0  0  0  0  0  0  0  0  0  0
   -0.8167    0.9962   -0.3326 C   0  0  0  0  0  0  0  0  0  0  0  0
    0.5743    0.9472   -0.0274 C   0  0  0  0  0  0  0  0  0  0  0  0
    1.2634   -0.2268    0.2586 C   0  0  0  0  0  0  0  0  0  0  0  0
    0.6174   -1.4896    0.2658 C   0  0  0  0  0  0  0  0  0  0  0  0
   -0.7276   -1.5568   -0.0165 C   0  0  0  0  0  0  0  0  0  0  0  0
   -2.4781    4.0933   -0.9777 H   0  0  0  0  0  0  0  0  0  0  0  0
    1.1415    1.8786   -0.0138 H   0  0  0  0  0  0  0  0  0  0  0  0
    2.3275   -0.1905    0.4864 H   0  0  0  0  0  0  0  0  0  0  0  0
    1.1774   -2.3909    0.4923 H   0  0  0  0  0  0  0  0  0  0  0  0
   -1.2773   -2.4943   -0.0256 H   0  0  0  0  0  0  0  0  0  0  0  0
   -3.2094    5.1245   -1.2218 Cl  0  0  0  0  0  0  0  0  0  0  0  0
  1  8  1  0  0  0  0
  2  1  1  0  0  0  0
  3  2  1  0  0  0  0
  4  1  2  0  0  0  0
  4  5  1  0  0  0  0
  5 10  1  0  0  0  0
  5  6  2  0  0  0  0
  6  7  1  0  0  0  0
  6 11  1  0  0  0  0
  7 12  1  0  0  0  0
  8  7  2  0  0  0  0
 13  8  1  0  0  0  0
 14  9  1  0  0  0  0
M  RAD  3   2   2   3   3   4   2
M  END
