Coordinates from ORCA-job PhN2+~Cl-_B3LYPG-6-31G_dp-CH-Scan-d09-49-n800
 OpenBabel11261919593D

 14 13  0  0  0  0  0  0  0  0999 V2000
   -1.3408   -0.3196   -0.2931 C   0  0  0  0  0  0  0  0  0  0  0  0
   -2.7012   -0.3436   -0.5819 N   0  0  0  0  0  0  0  0  0  0  0  0
   -3.7939   -0.2881   -0.8222 N   0  0  0  0  0  0  0  0  0  0  0  0
   -0.8189    0.9832   -0.3332 C   0  0  0  0  0  0  0  0  0  0  0  0
    0.5724    0.9388   -0.0279 C   0  0  0  0  0  0  0  0  0  0  0  0
    1.2653   -0.2325    0.2596 C   0  0  0  0  0  0  0  0  0  0  0  0
    0.6233   -1.4974    0.2687 C   0  0  0  0  0  0  0  0  0  0  0  0
   -0.7215   -1.5693   -0.0135 C   0  0  0  0  0  0  0  0  0  0  0  0
   -2.4966    4.1563   -0.9871 H   0  0  0  0  0  0  0  0  0  0  0  0
    1.1368    1.8720   -0.0157 H   0  0  0  0  0  0  0  0  0  0  0  0
    2.3293   -0.1925    0.4872 H   0  0  0  0  0  0  0  0  0  0  0  0
    1.1863   -2.3966    0.4964 H   0  0  0  0  0  0  0  0  0  0  0  0
   -1.2683   -2.5085   -0.0212 H   0  0  0  0  0  0  0  0  0  0  0  0
   -3.2225    5.1914   -1.2294 Cl  0  0  0  0  0  0  0  0  0  0  0  0
  1  8  1  0  0  0  0
  2  1  1  0  0  0  0
  3  2  1  0  0  0  0
  4  1  2  0  0  0  0
  4  5  1  0  0  0  0
  5 10  1  0  0  0  0
  5  6  2  0  0  0  0
  6  7  1  0  0  0  0
  6 11  1  0  0  0  0
  7 12  1  0  0  0  0
  8  7  2  0  0  0  0
 13  8  1  0  0  0  0
 14  9  1  0  0  0  0
M  RAD  3   2   2   3   3   4   2
M  END
