Coordinates from ORCA-job PhN2+~Cl-_B3LYPG-6-31G_dp-CH-Scan-d09-49-n800
 OpenBabel11261919593D

 14 13  0  0  0  0  0  0  0  0999 V2000
   -1.3925   -0.0779   -0.3216 C   0  0  0  0  0  0  0  0  0  0  0  0
   -2.7484   -0.0412   -0.6114 N   0  0  0  0  0  0  0  0  0  0  0  0
   -3.8373    0.0510   -0.8506 N   0  0  0  0  0  0  0  0  0  0  0  0
   -0.7920    1.1932   -0.3335 C   0  0  0  0  0  0  0  0  0  0  0  0
    0.5900    1.0849   -0.0282 C   0  0  0  0  0  0  0  0  0  0  0  0
    1.2235   -0.1252    0.2394 C   0  0  0  0  0  0  0  0  0  0  0  0
    0.5193   -1.3544    0.2235 C   0  0  0  0  0  0  0  0  0  0  0  0
   -0.8272   -1.3564   -0.0624 C   0  0  0  0  0  0  0  0  0  0  0  0
   -2.0941    3.1006   -0.8037 H   0  0  0  0  0  0  0  0  0  0  0  0
    1.1929    1.9918    0.0006 H   0  0  0  0  0  0  0  0  0  0  0  0
    2.2870   -0.1410    0.4696 H   0  0  0  0  0  0  0  0  0  0  0  0
    1.0356   -2.2849    0.4356 H   0  0  0  0  0  0  0  0  0  0  0  0
   -1.4168   -2.2684   -0.0878 H   0  0  0  0  0  0  0  0  0  0  0  0
   -2.9903    4.0215   -1.0828 Cl  0  0  0  0  0  0  0  0  0  0  0  0
  1  8  1  0  0  0  0
  2  1  1  0  0  0  0
  3  2  1  0  0  0  0
  4  1  2  0  0  0  0
  4  5  1  0  0  0  0
  5 10  1  0  0  0  0
  5  6  2  0  0  0  0
  6 11  1  0  0  0  0
  7  6  1  0  0  0  0
  7 12  1  0  0  0  0
  8  7  2  0  0  0  0
 13  8  1  0  0  0  0
 14  9  1  0  0  0  0
M  RAD  3   2   2   3   3   4   2
M  END
