Coordinates from ORCA-job PhN2+~Cl-_B3LYPG-6-31G_dp-CH-Scan-d09-49-n800
 OpenBabel11261919593D

 14 13  0  0  0  0  0  0  0  0999 V2000
   -1.3337   -0.4107   -0.2842 C   0  0  0  0  0  0  0  0  0  0  0  0
   -2.6948   -0.4669   -0.5714 N   0  0  0  0  0  0  0  0  0  0  0  0
   -3.7887   -0.4327   -0.8112 N   0  0  0  0  0  0  0  0  0  0  0  0
   -0.8468    0.9042   -0.3347 C   0  0  0  0  0  0  0  0  0  0  0  0
    0.5461    0.8965   -0.0314 C   0  0  0  0  0  0  0  0  0  0  0  0
    1.2686   -0.2551    0.2627 C   0  0  0  0  0  0  0  0  0  0  0  0
    0.6585   -1.5358    0.2820 C   0  0  0  0  0  0  0  0  0  0  0  0
   -0.6846   -1.6432    0.0029 C   0  0  0  0  0  0  0  0  0  0  0  0
   -2.5745    4.5151   -1.0361 H   0  0  0  0  0  0  0  0  0  0  0  0
    1.0877    1.8434   -0.0264 H   0  0  0  0  0  0  0  0  0  0  0  0
    2.3318   -0.1870    0.4879 H   0  0  0  0  0  0  0  0  0  0  0  0
    1.2444   -2.4189    0.5152 H   0  0  0  0  0  0  0  0  0  0  0  0
   -1.2082   -2.5957    0.0030 H   0  0  0  0  0  0  0  0  0  0  0  0
   -3.2562    5.5804   -1.2716 Cl  0  0  0  0  0  0  0  0  0  0  0  0
  1  8  1  0  0  0  0
  2  1  1  0  0  0  0
  3  2  1  0  0  0  0
  4  1  2  0  0  0  0
  4  5  1  0  0  0  0
  5 10  1  0  0  0  0
  5  6  2  0  0  0  0
  6  7  1  0  0  0  0
  6 11  1  0  0  0  0
  7 12  1  0  0  0  0
  8 13  1  0  0  0  0
  8  7  2  0  0  0  0
 14  9  1  0  0  0  0
M  RAD  3   2   2   3   3   4   2
M  END
