Coordinates from ORCA-job PhN2+~Cl-_B3LYPG-6-31G_dp-CH-Scan-d09-49-n800
 OpenBabel11261919593D

 14 13  0  0  0  0  0  0  0  0999 V2000
   -1.3468   -0.6158   -0.2644 C   0  0  0  0  0  0  0  0  0  0  0  0
   -2.7031   -0.7782   -0.5386 N   0  0  0  0  0  0  0  0  0  0  0  0
   -3.7986   -0.8261   -0.7689 N   0  0  0  0  0  0  0  0  0  0  0  0
   -0.9657    0.7318   -0.3339 C   0  0  0  0  0  0  0  0  0  0  0  0
    0.4263    0.8363   -0.0429 C   0  0  0  0  0  0  0  0  0  0  0  0
    1.2387   -0.2518    0.2578 C   0  0  0  0  0  0  0  0  0  0  0  0
    0.7307   -1.5761    0.2963 C   0  0  0  0  0  0  0  0  0  0  0  0
   -0.6022   -1.7911    0.0300 C   0  0  0  0  0  0  0  0  0  0  0  0
   -2.6246    5.1861   -1.1021 H   0  0  0  0  0  0  0  0  0  0  0  0
    0.8931    1.8223   -0.0534 H   0  0  0  0  0  0  0  0  0  0  0  0
    2.2952   -0.0983    0.4729 H   0  0  0  0  0  0  0  0  0  0  0  0
    1.3856   -2.4081    0.5337 H   0  0  0  0  0  0  0  0  0  0  0  0
   -1.0499   -2.7814    0.0450 H   0  0  0  0  0  0  0  0  0  0  0  0
   -3.1290    6.3440   -1.3450 Cl  0  0  0  0  0  0  0  0  0  0  0  0
  1  8  1  0  0  0  0
  2  1  1  0  0  0  0
  3  2  1  0  0  0  0
  4  1  2  0  0  0  0
  4  5  1  0  0  0  0
  5  6  2  0  0  0  0
  6  7  1  0  0  0  0
  6 11  1  0  0  0  0
  7 12  1  0  0  0  0
  8 13  1  0  0  0  0
  8  7  2  0  0  0  0
 10  5  1  0  0  0  0
 14  9  1  0  0  0  0
M  RAD  3   2   2   3   3   4   2
M  END
