Coordinates from ORCA-job PhN2+~Cl-_B3LYPG-6-31G_dp-CH-Scan-d09-49-n800
 OpenBabel11261919593D

 14 13  0  0  0  0  0  0  0  0999 V2000
   -1.3436   -0.5889   -0.2678 C   0  0  0  0  0  0  0  0  0  0  0  0
   -2.7011   -0.7356   -0.5442 N   0  0  0  0  0  0  0  0  0  0  0  0
   -3.7967   -0.7713   -0.7764 N   0  0  0  0  0  0  0  0  0  0  0  0
   -0.9466    0.7542   -0.3361 C   0  0  0  0  0  0  0  0  0  0  0  0
    0.4459    0.8424   -0.0427 C   0  0  0  0  0  0  0  0  0  0  0  0
    1.2451   -0.2553    0.2591 C   0  0  0  0  0  0  0  0  0  0  0  0
    0.7216   -1.5735    0.2964 C   0  0  0  0  0  0  0  0  0  0  0  0
   -0.6133   -1.7728    0.0277 C   0  0  0  0  0  0  0  0  0  0  0  0
   -2.6265    5.1046   -1.0951 H   0  0  0  0  0  0  0  0  0  0  0  0
    0.9243    1.8229   -0.0520 H   0  0  0  0  0  0  0  0  0  0  0  0
    2.3029   -0.1141    0.4762 H   0  0  0  0  0  0  0  0  0  0  0  0
    1.3663   -2.4131    0.5348 H   0  0  0  0  0  0  0  0  0  0  0  0
   -1.0725   -2.7579    0.0416 H   0  0  0  0  0  0  0  0  0  0  0  0
   -3.1561    6.2520   -1.3347 Cl  0  0  0  0  0  0  0  0  0  0  0  0
  1  8  1  0  0  0  0
  2  1  1  0  0  0  0
  3  2  1  0  0  0  0
  4  1  2  0  0  0  0
  4  5  1  0  0  0  0
  5  6  2  0  0  0  0
  6  7  1  0  0  0  0
  6 11  1  0  0  0  0
  7 12  1  0  0  0  0
  8 13  1  0  0  0  0
  8  7  2  0  0  0  0
 10  5  1  0  0  0  0
 14  9  1  0  0  0  0
M  RAD  3   2   2   3   3   4   2
M  END
