Coordinates from ORCA-job PhN2+~Cl-_B3LYPG-6-31G_dp-CH-Scan-d09-49-n800
 OpenBabel11261919593D

 14 13  0  0  0  0  0  0  0  0999 V2000
   -1.3666   -0.1661   -0.3092 C   0  0  0  0  0  0  0  0  0  0  0  0
   -2.7239   -0.1482   -0.5985 N   0  0  0  0  0  0  0  0  0  0  0  0
   -3.8148   -0.0702   -0.8377 N   0  0  0  0  0  0  0  0  0  0  0  0
   -0.7922    1.1168   -0.3299 C   0  0  0  0  0  0  0  0  0  0  0  0
    0.5940    1.0244   -0.0242 C   0  0  0  0  0  0  0  0  0  0  0  0
    1.2456   -0.1741    0.2492 C   0  0  0  0  0  0  0  0  0  0  0  0
    0.5600   -1.4150    0.2407 C   0  0  0  0  0  0  0  0  0  0  0  0
   -0.7860   -1.4375   -0.0442 C   0  0  0  0  0  0  0  0  0  0  0  0
   -2.2817    3.5156   -0.8838 H   0  0  0  0  0  0  0  0  0  0  0  0
    1.1870    1.9386    0.0003 H   0  0  0  0  0  0  0  0  0  0  0  0
    2.3096   -0.1733    0.4789 H   0  0  0  0  0  0  0  0  0  0  0  0
    1.0906   -2.3363    0.4575 H   0  0  0  0  0  0  0  0  0  0  0  0
   -1.3634   -2.3578   -0.0646 H   0  0  0  0  0  0  0  0  0  0  0  0
   -3.1085    4.4766   -1.1478 Cl  0  0  0  0  0  0  0  0  0  0  0  0
  1  8  1  0  0  0  0
  2  1  1  0  0  0  0
  3  2  1  0  0  0  0
  4  1  2  0  0  0  0
  4  5  1  0  0  0  0
  5 10  1  0  0  0  0
  5  6  2  0  0  0  0
  6 11  1  0  0  0  0
  7  6  1  0  0  0  0
  7 12  1  0  0  0  0
  8  7  2  0  0  0  0
 13  8  1  0  0  0  0
 14  9  1  0  0  0  0
M  RAD  3   2   2   3   3   4   2
M  END
