Coordinates from ORCA-job PhN2+~Cl-_B3LYPG-6-31G_dp-CH-Scan-d09-49-n800
 OpenBabel11261919593D

 14 13  0  0  0  0  0  0  0  0999 V2000
   -1.3346   -0.4844   -0.2744 C   0  0  0  0  0  0  0  0  0  0  0  0
   -2.6956   -0.5736   -0.5563 N   0  0  0  0  0  0  0  0  0  0  0  0
   -3.7909   -0.5643   -0.7920 N   0  0  0  0  0  0  0  0  0  0  0  0
   -0.8821    0.8423   -0.3277 C   0  0  0  0  0  0  0  0  0  0  0  0
    0.5118    0.8697   -0.0291 C   0  0  0  0  0  0  0  0  0  0  0  0
    1.2642   -0.2629    0.2633 C   0  0  0  0  0  0  0  0  0  0  0  0
    0.6868   -1.5588    0.2855 C   0  0  0  0  0  0  0  0  0  0  0  0
   -0.6542   -1.7002    0.0112 C   0  0  0  0  0  0  0  0  0  0  0  0
   -2.6158    4.7777   -1.0719 H   0  0  0  0  0  0  0  0  0  0  0  0
    1.0298    1.8299   -0.0267 H   0  0  0  0  0  0  0  0  0  0  0  0
    2.3261   -0.1678    0.4847 H   0  0  0  0  0  0  0  0  0  0  0  0
    1.2956   -2.4266    0.5171 H   0  0  0  0  0  0  0  0  0  0  0  0
   -1.1537   -2.6656    0.0137 H   0  0  0  0  0  0  0  0  0  0  0  0
   -3.2376    5.8781   -1.3108 Cl  0  0  0  0  0  0  0  0  0  0  0  0
  1  8  1  0  0  0  0
  2  1  1  0  0  0  0
  3  2  1  0  0  0  0
  4  1  2  0  0  0  0
  4  5  1  0  0  0  0
  5 10  1  0  0  0  0
  5  6  2  0  0  0  0
  6  7  1  0  0  0  0
  6 11  1  0  0  0  0
  7 12  1  0  0  0  0
  8 13  1  0  0  0  0
  8  7  2  0  0  0  0
 14  9  1  0  0  0  0
M  RAD  3   2   2   3   3   4   2
M  END
