Coordinates from ORCA-job PhN2+~Cl-_B3LYPG-6-31G_dp-CH-Scan-d09-49-n800
 OpenBabel11261919593D

 14 13  0  0  0  0  0  0  0  0999 V2000
   -1.4039   -0.0533   -0.3264 C   0  0  0  0  0  0  0  0  0  0  0  0
   -2.7597   -0.0134   -0.6167 N   0  0  0  0  0  0  0  0  0  0  0  0
   -3.8477    0.0843   -0.8564 N   0  0  0  0  0  0  0  0  0  0  0  0
   -0.7975    1.2148   -0.3367 C   0  0  0  0  0  0  0  0  0  0  0  0
    0.5831    1.1061   -0.0317 C   0  0  0  0  0  0  0  0  0  0  0  0
    1.2137   -0.1059    0.2352 C   0  0  0  0  0  0  0  0  0  0  0  0
    0.5066   -1.3328    0.2185 C   0  0  0  0  0  0  0  0  0  0  0  0
   -0.8403   -1.3319   -0.0676 C   0  0  0  0  0  0  0  0  0  0  0  0
   -2.0204    2.9615   -0.7736 H   0  0  0  0  0  0  0  0  0  0  0  0
    1.1863    2.0126   -0.0028 H   0  0  0  0  0  0  0  0  0  0  0  0
    2.2771   -0.1241    0.4654 H   0  0  0  0  0  0  0  0  0  0  0  0
    1.0204   -2.2646    0.4301 H   0  0  0  0  0  0  0  0  0  0  0  0
   -1.4315   -2.2427   -0.0935 H   0  0  0  0  0  0  0  0  0  0  0  0
   -2.9364    3.8830   -1.0571 Cl  0  0  0  0  0  0  0  0  0  0  0  0
  1  8  1  0  0  0  0
  2  1  1  0  0  0  0
  3  2  1  0  0  0  0
  4  1  2  0  0  0  0
  4  5  1  0  0  0  0
  5 10  1  0  0  0  0
  5  6  2  0  0  0  0
  6 11  1  0  0  0  0
  7  6  1  0  0  0  0
  7 12  1  0  0  0  0
  8  7  2  0  0  0  0
 13  8  1  0  0  0  0
 14  9  1  0  0  0  0
M  RAD  3   2   2   3   3   4   2
M  END
