Coordinates from ORCA-job PhN2+~Cl-_B3LYPG-6-31G_dp-CH-Scan-d09-49-n800
 OpenBabel11261919593D

 14 13  0  0  0  0  0  0  0  0999 V2000
   -1.4718    0.0825   -0.3538 C   0  0  0  0  0  0  0  0  0  0  0  0
   -2.8488    0.0805   -0.6440 N   0  0  0  0  0  0  0  0  0  0  0  0
   -3.7703    0.7433   -0.9071 N   0  0  0  0  0  0  0  0  0  0  0  0
   -0.7195    1.2641   -0.3228 C   0  0  0  0  0  0  0  0  0  0  0  0
    0.6367    1.1757   -0.0262 C   0  0  0  0  0  0  0  0  0  0  0  0
    1.2235   -0.0674    0.2331 C   0  0  0  0  0  0  0  0  0  0  0  0
    0.4595   -1.2391    0.1977 C   0  0  0  0  0  0  0  0  0  0  0  0
   -0.8973   -1.1713   -0.0971 C   0  0  0  0  0  0  0  0  0  0  0  0
   -1.2952    2.3256   -0.5591 H   0  0  0  0  0  0  0  0  0  0  0  0
    1.2377    2.0787    0.0037 H   0  0  0  0  0  0  0  0  0  0  0  0
    2.2828   -0.1237    0.4659 H   0  0  0  0  0  0  0  0  0  0  0  0
    0.9212   -2.1997    0.4006 H   0  0  0  0  0  0  0  0  0  0  0  0
   -1.5185   -2.0598   -0.1324 H   0  0  0  0  0  0  0  0  0  0  0  0
   -3.4902    2.9043   -1.0716 Cl  0  0  0  0  0  0  0  0  0  0  0  0
  1  4  2  0  0  0  0
  1  8  1  0  0  0  0
  2  1  1  0  0  0  0
  3  2  2  0  0  0  0
  4  5  1  0  0  0  0
  5 10  1  0  0  0  0
  5  6  2  0  0  0  0
  6 11  1  0  0  0  0
  7  6  1  0  0  0  0
  7 12  1  0  0  0  0
  8  7  2  0  0  0  0
  9  4  1  0  0  0  0
 13  8  1  0  0  0  0
M  RAD  2   3   2  14   2
M  END
