Coordinates from ORCA-job PhN2+~Cl-_B3LYPG-6-31G_dp-CH-Scan-d09-49-n800
 OpenBabel11261919593D

 14 13  0  0  0  0  0  0  0  0999 V2000
   -1.3973   -0.0677   -0.3237 C   0  0  0  0  0  0  0  0  0  0  0  0
   -2.7532   -0.0300   -0.6136 N   0  0  0  0  0  0  0  0  0  0  0  0
   -3.8418    0.0639   -0.8530 N   0  0  0  0  0  0  0  0  0  0  0  0
   -0.7946    1.2023   -0.3349 C   0  0  0  0  0  0  0  0  0  0  0  0
    0.5869    1.0938   -0.0298 C   0  0  0  0  0  0  0  0  0  0  0  0
    1.2193   -0.1170    0.2376 C   0  0  0  0  0  0  0  0  0  0  0  0
    0.5140   -1.3454    0.2215 C   0  0  0  0  0  0  0  0  0  0  0  0
   -0.8326   -1.3462   -0.0645 C   0  0  0  0  0  0  0  0  0  0  0  0
   -2.0636    3.0429   -0.7912 H   0  0  0  0  0  0  0  0  0  0  0  0
    1.1899    2.0005   -0.0010 H   0  0  0  0  0  0  0  0  0  0  0  0
    2.2828   -0.1337    0.4678 H   0  0  0  0  0  0  0  0  0  0  0  0
    1.0293   -2.2763    0.4334 H   0  0  0  0  0  0  0  0  0  0  0  0
   -1.4229   -2.2578   -0.0901 H   0  0  0  0  0  0  0  0  0  0  0  0
   -2.9665    3.9645   -1.0717 Cl  0  0  0  0  0  0  0  0  0  0  0  0
  1  8  1  0  0  0  0
  2  1  1  0  0  0  0
  3  2  1  0  0  0  0
  4  1  2  0  0  0  0
  4  5  1  0  0  0  0
  5 10  1  0  0  0  0
  5  6  2  0  0  0  0
  6 11  1  0  0  0  0
  7  6  1  0  0  0  0
  7 12  1  0  0  0  0
  8  7  2  0  0  0  0
 13  8  1  0  0  0  0
 14  9  1  0  0  0  0
M  RAD  3   2   2   3   3   4   2
M  END
