Coordinates from ORCA-job PhN2+~Cl-_B3LYPG-6-31G_dp-CH-Scan-d09-49-n800
 OpenBabel11261919593D

 14 13  0  0  0  0  0  0  0  0999 V2000
   -1.3344   -0.4722   -0.2762 C   0  0  0  0  0  0  0  0  0  0  0  0
   -2.6955   -0.5554   -0.5593 N   0  0  0  0  0  0  0  0  0  0  0  0
   -3.7906   -0.5411   -0.7957 N   0  0  0  0  0  0  0  0  0  0  0  0
   -0.8758    0.8523   -0.3294 C   0  0  0  0  0  0  0  0  0  0  0  0
    0.5179    0.8742   -0.0299 C   0  0  0  0  0  0  0  0  0  0  0  0
    1.2651   -0.2618    0.2632 C   0  0  0  0  0  0  0  0  0  0  0  0
    0.6820   -1.5550    0.2853 C   0  0  0  0  0  0  0  0  0  0  0  0
   -0.6593   -1.6908    0.0100 C   0  0  0  0  0  0  0  0  0  0  0  0
   -2.6089    4.7339   -1.0659 H   0  0  0  0  0  0  0  0  0  0  0  0
    1.0399    1.8321   -0.0273 H   0  0  0  0  0  0  0  0  0  0  0  0
    2.3273   -0.1713    0.4854 H   0  0  0  0  0  0  0  0  0  0  0  0
    1.2870   -2.4254    0.5175 H   0  0  0  0  0  0  0  0  0  0  0  0
   -1.1630   -2.6541    0.0124 H   0  0  0  0  0  0  0  0  0  0  0  0
   -3.2420    5.8281   -1.3035 Cl  0  0  0  0  0  0  0  0  0  0  0  0
  1  8  1  0  0  0  0
  2  1  1  0  0  0  0
  3  2  1  0  0  0  0
  4  1  2  0  0  0  0
  4  5  1  0  0  0  0
  5 10  1  0  0  0  0
  5  6  2  0  0  0  0
  6  7  1  0  0  0  0
  6 11  1  0  0  0  0
  7 12  1  0  0  0  0
  8 13  1  0  0  0  0
  8  7  2  0  0  0  0
 14  9  1  0  0  0  0
M  RAD  3   2   2   3   3   4   2
M  END
