Coordinates from ORCA-job PhN2+~Cl-_B3LYPG-6-31G_dp-CH-Scan-d09-49-n800
 OpenBabel11261919593D

 14 14  0  0  0  0  0  0  0  0999 V2000
   -1.4830    0.0988   -0.3622 C   0  0  0  0  0  0  0  0  0  0  0  0
   -2.8604    0.0755   -0.6542 N   0  0  0  0  0  0  0  0  0  0  0  0
   -3.7792    0.7513   -0.9132 N   0  0  0  0  0  0  0  0  0  0  0  0
   -0.7320    1.2853   -0.3336 C   0  0  0  0  0  0  0  0  0  0  0  0
    0.6250    1.1875   -0.0325 C   0  0  0  0  0  0  0  0  0  0  0  0
    1.2149   -0.0520    0.2319 C   0  0  0  0  0  0  0  0  0  0  0  0
    0.4509   -1.2225    0.1975 C   0  0  0  0  0  0  0  0  0  0  0  0
   -0.9051   -1.1520   -0.1014 C   0  0  0  0  0  0  0  0  0  0  0  0
   -1.1821    2.1852   -0.5298 H   0  0  0  0  0  0  0  0  0  0  0  0
    1.2250    2.0916   -0.0044 H   0  0  0  0  0  0  0  0  0  0  0  0
    2.2736   -0.1059    0.4670 H   0  0  0  0  0  0  0  0  0  0  0  0
    0.9102   -2.1837    0.4033 H   0  0  0  0  0  0  0  0  0  0  0  0
   -1.5269   -2.0398   -0.1367 H   0  0  0  0  0  0  0  0  0  0  0  0
   -3.4814    2.8742   -1.0449 Cl  0  0  0  0  0  0  0  0  0  0  0  0
  1  4  2  0  0  0  0
  1  8  1  0  0  0  0
  2  1  1  0  0  0  0
  3  2  2  0  0  0  0
  4  5  1  0  0  0  0
  5 10  1  0  0  0  0
  5  6  2  0  0  0  0
  6 11  1  0  0  0  0
  7  6  1  0  0  0  0
  7 12  1  0  0  0  0
  8  7  2  0  0  0  0
  9  4  1  0  0  0  0
 13  8  1  0  0  0  0
 14  3  1  0  0  0  0
M  END
