Coordinates from ORCA-job PhN2+~Cl-_B3LYPG-6-31G_dp-CH-Scan-d09-49-n800
 OpenBabel11261919593D

 14 13  0  0  0  0  0  0  0  0999 V2000
   -1.4311   -0.0083   -0.3362 C   0  0  0  0  0  0  0  0  0  0  0  0
   -2.7874    0.0411   -0.6275 N   0  0  0  0  0  0  0  0  0  0  0  0
   -3.8705    0.1688   -0.8692 N   0  0  0  0  0  0  0  0  0  0  0  0
   -0.8112    1.2517   -0.3422 C   0  0  0  0  0  0  0  0  0  0  0  0
    0.5650    1.1514   -0.0394 C   0  0  0  0  0  0  0  0  0  0  0  0
    1.1923   -0.0639    0.2263 C   0  0  0  0  0  0  0  0  0  0  0  0
    0.4815   -1.2867    0.2078 C   0  0  0  0  0  0  0  0  0  0  0  0
   -0.8667   -1.2839   -0.0784 C   0  0  0  0  0  0  0  0  0  0  0  0
   -1.8423    2.6579   -0.7052 H   0  0  0  0  0  0  0  0  0  0  0  0
    1.1639    2.0599   -0.0113 H   0  0  0  0  0  0  0  0  0  0  0  0
    2.2553   -0.0846    0.4561 H   0  0  0  0  0  0  0  0  0  0  0  0
    0.9925   -2.2203    0.4182 H   0  0  0  0  0  0  0  0  0  0  0  0
   -1.4586   -2.1939   -0.1048 H   0  0  0  0  0  0  0  0  0  0  0  0
   -2.8329    3.6044   -1.0076 Cl  0  0  0  0  0  0  0  0  0  0  0  0
  1  8  1  0  0  0  0
  2  1  1  0  0  0  0
  3  2  1  0  0  0  0
  4  1  2  0  0  0  0
  4  5  1  0  0  0  0
  5 10  1  0  0  0  0
  5  6  2  0  0  0  0
  6 11  1  0  0  0  0
  7  6  1  0  0  0  0
  7 12  1  0  0  0  0
  8  7  2  0  0  0  0
 13  8  1  0  0  0  0
 14  9  1  0  0  0  0
M  RAD  3   2   2   3   3   4   2
M  END
