Coordinates from ORCA-job PhN2+~Cl-_B3LYPG-6-31G_dp-CH-Scan-d09-49-n800
 OpenBabel11261919593D

 14 13  0  0  0  0  0  0  0  0999 V2000
   -1.3905   -0.0820   -0.3208 C   0  0  0  0  0  0  0  0  0  0  0  0
   -2.7465   -0.0457   -0.6106 N   0  0  0  0  0  0  0  0  0  0  0  0
   -3.8355    0.0459   -0.8497 N   0  0  0  0  0  0  0  0  0  0  0  0
   -0.7910    1.1896   -0.3329 C   0  0  0  0  0  0  0  0  0  0  0  0
    0.5913    1.0813   -0.0276 C   0  0  0  0  0  0  0  0  0  0  0  0
    1.2252   -0.1285    0.2401 C   0  0  0  0  0  0  0  0  0  0  0  0
    0.5215   -1.3581    0.2244 C   0  0  0  0  0  0  0  0  0  0  0  0
   -0.8250   -1.3604   -0.0615 C   0  0  0  0  0  0  0  0  0  0  0  0
   -2.1062    3.1237   -0.8086 H   0  0  0  0  0  0  0  0  0  0  0  0
    1.1941    1.9883    0.0012 H   0  0  0  0  0  0  0  0  0  0  0  0
    2.2887   -0.1439    0.4703 H   0  0  0  0  0  0  0  0  0  0  0  0
    1.0381   -2.2883    0.4365 H   0  0  0  0  0  0  0  0  0  0  0  0
   -1.4144   -2.2727   -0.0868 H   0  0  0  0  0  0  0  0  0  0  0  0
   -3.0000    4.0444   -1.0872 Cl  0  0  0  0  0  0  0  0  0  0  0  0
  1  8  1  0  0  0  0
  2  1  1  0  0  0  0
  3  2  1  0  0  0  0
  4  1  2  0  0  0  0
  4  5  1  0  0  0  0
  5 10  1  0  0  0  0
  5  6  2  0  0  0  0
  6 11  1  0  0  0  0
  7  6  1  0  0  0  0
  7 12  1  0  0  0  0
  8  7  2  0  0  0  0
 13  8  1  0  0  0  0
 14  9  1  0  0  0  0
M  RAD  3   2   2   3   3   4   2
M  END
