Coordinates from ORCA-job PhN2+~Cl-_B3LYPG-6-31G_dp-CH-Scan-d09-49-n800
 OpenBabel11261919593D

 14 13  0  0  0  0  0  0  0  0999 V2000
   -1.3570   -0.2063   -0.3036 C   0  0  0  0  0  0  0  0  0  0  0  0
   -2.7155   -0.1971   -0.5918 N   0  0  0  0  0  0  0  0  0  0  0  0
   -3.8070   -0.1236   -0.8305 N   0  0  0  0  0  0  0  0  0  0  0  0
   -0.7954    1.0816   -0.3276 C   0  0  0  0  0  0  0  0  0  0  0  0
    0.5924    0.9992   -0.0224 C   0  0  0  0  0  0  0  0  0  0  0  0
    1.2536   -0.1933    0.2531 C   0  0  0  0  0  0  0  0  0  0  0  0
    0.5779   -1.4401    0.2474 C   0  0  0  0  0  0  0  0  0  0  0  0
   -0.7679   -1.4735   -0.0368 C   0  0  0  0  0  0  0  0  0  0  0  0
   -2.3541    3.6929   -0.9174 H   0  0  0  0  0  0  0  0  0  0  0  0
    1.1794    1.9177    0.0001 H   0  0  0  0  0  0  0  0  0  0  0  0
    2.3177   -0.1839    0.4824 H   0  0  0  0  0  0  0  0  0  0  0  0
    1.1161   -2.3567    0.4655 H   0  0  0  0  0  0  0  0  0  0  0  0
   -1.3385   -2.3981   -0.0556 H   0  0  0  0  0  0  0  0  0  0  0  0
   -3.1520    4.6746   -1.1763 Cl  0  0  0  0  0  0  0  0  0  0  0  0
  1  8  1  0  0  0  0
  2  1  1  0  0  0  0
  3  2  1  0  0  0  0
  4  1  2  0  0  0  0
  4  5  1  0  0  0  0
  5 10  1  0  0  0  0
  5  6  2  0  0  0  0
  6 11  1  0  0  0  0
  7  6  1  0  0  0  0
  7 12  1  0  0  0  0
  8  7  2  0  0  0  0
 13  8  1  0  0  0  0
 14  9  1  0  0  0  0
M  RAD  3   2   2   3   3   4   2
M  END
