Coordinates from ORCA-job PhN2+~Cl-_B3LYPG-6-31G_dp-CH-Scan-d09-49-n800
 OpenBabel11261919593D

 14 13  0  0  0  0  0  0  0  0999 V2000
   -1.3339   -0.4522   -0.2791 C   0  0  0  0  0  0  0  0  0  0  0  0
   -2.6951   -0.5264   -0.5636 N   0  0  0  0  0  0  0  0  0  0  0  0
   -3.7898   -0.5054   -0.8012 N   0  0  0  0  0  0  0  0  0  0  0  0
   -0.8659    0.8692   -0.3318 C   0  0  0  0  0  0  0  0  0  0  0  0
    0.5277    0.8811   -0.0308 C   0  0  0  0  0  0  0  0  0  0  0  0
    1.2666   -0.2600    0.2632 C   0  0  0  0  0  0  0  0  0  0  0  0
    0.6744   -1.5491    0.2847 C   0  0  0  0  0  0  0  0  0  0  0  0
   -0.6676   -1.6755    0.0080 C   0  0  0  0  0  0  0  0  0  0  0  0
   -2.5982    4.6642   -1.0564 H   0  0  0  0  0  0  0  0  0  0  0  0
    1.0564    1.8354   -0.0276 H   0  0  0  0  0  0  0  0  0  0  0  0
    2.3291   -0.1770    0.4866 H   0  0  0  0  0  0  0  0  0  0  0  0
    1.2729   -2.4237    0.5176 H   0  0  0  0  0  0  0  0  0  0  0  0
   -1.1780   -2.6352    0.0098 H   0  0  0  0  0  0  0  0  0  0  0  0
   -3.2490    5.7483   -1.2926 Cl  0  0  0  0  0  0  0  0  0  0  0  0
  1  8  1  0  0  0  0
  2  1  1  0  0  0  0
  3  2  1  0  0  0  0
  4  1  2  0  0  0  0
  4  5  1  0  0  0  0
  5 10  1  0  0  0  0
  5  6  2  0  0  0  0
  6  7  1  0  0  0  0
  6 11  1  0  0  0  0
  7 12  1  0  0  0  0
  8 13  1  0  0  0  0
  8  7  2  0  0  0  0
 14  9  1  0  0  0  0
M  RAD  3   2   2   3   3   4   2
M  END
