Coordinates from ORCA-job PhN2+~Cl-_B3LYPG-6-31G_dp-CH-Scan-d09-49-n800
 OpenBabel11261919593D

 14 14  0  0  0  0  0  0  0  0999 V2000
   -1.4863    0.1016   -0.3654 C   0  0  0  0  0  0  0  0  0  0  0  0
   -2.8636    0.0746   -0.6588 N   0  0  0  0  0  0  0  0  0  0  0  0
   -3.7797    0.7565   -0.9154 N   0  0  0  0  0  0  0  0  0  0  0  0
   -0.7374    1.2901   -0.3381 C   0  0  0  0  0  0  0  0  0  0  0  0
    0.6197    1.1918   -0.0354 C   0  0  0  0  0  0  0  0  0  0  0  0
    1.2114   -0.0460    0.2316 C   0  0  0  0  0  0  0  0  0  0  0  0
    0.4485   -1.2172    0.1979 C   0  0  0  0  0  0  0  0  0  0  0  0
   -0.9072   -1.1479   -0.1026 C   0  0  0  0  0  0  0  0  0  0  0  0
   -1.1551    2.1346   -0.5229 H   0  0  0  0  0  0  0  0  0  0  0  0
    1.2184    2.0969   -0.0082 H   0  0  0  0  0  0  0  0  0  0  0  0
    2.2698   -0.0983    0.4678 H   0  0  0  0  0  0  0  0  0  0  0  0
    0.9084   -2.1778    0.4055 H   0  0  0  0  0  0  0  0  0  0  0  0
   -1.5283   -2.0363   -0.1376 H   0  0  0  0  0  0  0  0  0  0  0  0
   -3.4690    2.8709   -1.0318 Cl  0  0  0  0  0  0  0  0  0  0  0  0
  1  4  2  0  0  0  0
  1  8  1  0  0  0  0
  2  1  1  0  0  0  0
  3  2  2  0  0  0  0
  4  5  1  0  0  0  0
  5 10  1  0  0  0  0
  5  6  2  0  0  0  0
  6 11  1  0  0  0  0
  7  6  1  0  0  0  0
  7 12  1  0  0  0  0
  8  7  2  0  0  0  0
  9  4  1  0  0  0  0
 13  8  1  0  0  0  0
 14  3  1  0  0  0  0
M  END
