Coordinates from ORCA-job PhN2+~Cl-_B3LYPG-6-31G_dp-CH-Scan-d09-49-n800
 OpenBabel11261919593D

 14 13  0  0  0  0  0  0  0  0999 V2000
   -1.3954   -0.0718   -0.3229 C   0  0  0  0  0  0  0  0  0  0  0  0
   -2.7513   -0.0345   -0.6127 N   0  0  0  0  0  0  0  0  0  0  0  0
   -3.8400    0.0586   -0.8520 N   0  0  0  0  0  0  0  0  0  0  0  0
   -0.7936    1.1987   -0.3343 C   0  0  0  0  0  0  0  0  0  0  0  0
    0.5881    1.0902   -0.0291 C   0  0  0  0  0  0  0  0  0  0  0  0
    1.2210   -0.1203    0.2383 C   0  0  0  0  0  0  0  0  0  0  0  0
    0.5161   -1.3490    0.2223 C   0  0  0  0  0  0  0  0  0  0  0  0
   -0.8305   -1.3503   -0.0637 C   0  0  0  0  0  0  0  0  0  0  0  0
   -2.0758    3.0660   -0.7962 H   0  0  0  0  0  0  0  0  0  0  0  0
    1.1911    1.9971   -0.0003 H   0  0  0  0  0  0  0  0  0  0  0  0
    2.2844   -0.1366    0.4685 H   0  0  0  0  0  0  0  0  0  0  0  0
    1.0318   -2.2797    0.4342 H   0  0  0  0  0  0  0  0  0  0  0  0
   -1.4204   -2.2620   -0.0892 H   0  0  0  0  0  0  0  0  0  0  0  0
   -2.9759    3.9874   -1.0762 Cl  0  0  0  0  0  0  0  0  0  0  0  0
  1  8  1  0  0  0  0
  2  1  1  0  0  0  0
  3  2  1  0  0  0  0
  4  1  2  0  0  0  0
  4  5  1  0  0  0  0
  5 10  1  0  0  0  0
  5  6  2  0  0  0  0
  6 11  1  0  0  0  0
  7  6  1  0  0  0  0
  7 12  1  0  0  0  0
  8  7  2  0  0  0  0
 13  8  1  0  0  0  0
 14  9  1  0  0  0  0
M  RAD  3   2   2   3   3   4   2
M  END
