Coordinates from ORCA-job PhN2+~Cl-_B3LYPG-6-31G_dp-CH-Scan-d09-49-n800
 OpenBabel11261919593D

 14 13  0  0  0  0  0  0  0  0999 V2000
   -1.4154   -0.0323   -0.3304 C   0  0  0  0  0  0  0  0  0  0  0  0
   -2.7713    0.0109   -0.6210 N   0  0  0  0  0  0  0  0  0  0  0  0
   -3.8580    0.1171   -0.8611 N   0  0  0  0  0  0  0  0  0  0  0  0
   -0.8038    1.2329   -0.3389 C   0  0  0  0  0  0  0  0  0  0  0  0
    0.5753    1.1261   -0.0347 C   0  0  0  0  0  0  0  0  0  0  0  0
    1.2042   -0.0875    0.2313 C   0  0  0  0  0  0  0  0  0  0  0  0
    0.4952   -1.3127    0.2135 C   0  0  0  0  0  0  0  0  0  0  0  0
   -0.8521   -1.3103   -0.0725 C   0  0  0  0  0  0  0  0  0  0  0  0
   -1.9468    2.8311   -0.7449 H   0  0  0  0  0  0  0  0  0  0  0  0
    1.1775    2.0328   -0.0058 H   0  0  0  0  0  0  0  0  0  0  0  0
    2.2674   -0.1071    0.4612 H   0  0  0  0  0  0  0  0  0  0  0  0
    1.0076   -2.2454    0.4242 H   0  0  0  0  0  0  0  0  0  0  0  0
   -1.4440   -2.2205   -0.0990 H   0  0  0  0  0  0  0  0  0  0  0  0
   -2.8860    3.7584   -1.0353 Cl  0  0  0  0  0  0  0  0  0  0  0  0
  1  8  1  0  0  0  0
  2  1  1  0  0  0  0
  3  2  1  0  0  0  0
  4  1  2  0  0  0  0
  4  5  1  0  0  0  0
  5 10  1  0  0  0  0
  5  6  2  0  0  0  0
  6 11  1  0  0  0  0
  7  6  1  0  0  0  0
  7 12  1  0  0  0  0
  8  7  2  0  0  0  0
 13  8  1  0  0  0  0
 14  9  1  0  0  0  0
M  RAD  3   2   2   3   3   4   2
M  END
