Coordinates from ORCA-job PhN2+~Cl-_B3LYPG-6-31G_dp-CH-Scan-d09-49-n800
 OpenBabel11261919593D

 14 13  0  0  0  0  0  0  0  0999 V2000
   -1.3511   -0.2702   -0.2982 C   0  0  0  0  0  0  0  0  0  0  0  0
   -2.7107   -0.2827   -0.5867 N   0  0  0  0  0  0  0  0  0  0  0  0
   -3.8031   -0.2222   -0.8262 N   0  0  0  0  0  0  0  0  0  0  0  0
   -0.8145    1.0274   -0.3320 C   0  0  0  0  0  0  0  0  0  0  0  0
    0.5757    0.9690   -0.0270 C   0  0  0  0  0  0  0  0  0  0  0  0
    1.2572   -0.2103    0.2555 C   0  0  0  0  0  0  0  0  0  0  0  0
    0.6029   -1.4687    0.2588 C   0  0  0  0  0  0  0  0  0  0  0  0
   -0.7424   -1.5264   -0.0238 C   0  0  0  0  0  0  0  0  0  0  0  0
   -2.4248    3.9372   -0.9526 H   0  0  0  0  0  0  0  0  0  0  0  0
    1.1484    1.8969   -0.0107 H   0  0  0  0  0  0  0  0  0  0  0  0
    2.3214   -0.1815    0.4835 H   0  0  0  0  0  0  0  0  0  0  0  0
    1.1569   -2.3744    0.4826 H   0  0  0  0  0  0  0  0  0  0  0  0
   -1.2979   -2.4604   -0.0358 H   0  0  0  0  0  0  0  0  0  0  0  0
   -3.1682    4.9600   -1.2009 Cl  0  0  0  0  0  0  0  0  0  0  0  0
  1  8  1  0  0  0  0
  2  1  1  0  0  0  0
  3  2  1  0  0  0  0
  4  1  2  0  0  0  0
  4  5  1  0  0  0  0
  5 10  1  0  0  0  0
  5  6  2  0  0  0  0
  6  7  1  0  0  0  0
  6 11  1  0  0  0  0
  7 12  1  0  0  0  0
  8  7  2  0  0  0  0
 13  8  1  0  0  0  0
 14  9  1  0  0  0  0
M  RAD  3   2   2   3   3   4   2
M  END
