Coordinates from ORCA-job PhN2+~Cl-_B3LYPG-6-31G_dp-CH-Scan-d09-49-n800
 OpenBabel11261919593D

 14 13  0  0  0  0  0  0  0  0999 V2000
   -1.3349   -0.5312   -0.2727 C   0  0  0  0  0  0  0  0  0  0  0  0
   -2.6949   -0.6419   -0.5536 N   0  0  0  0  0  0  0  0  0  0  0  0
   -3.7903   -0.6487   -0.7891 N   0  0  0  0  0  0  0  0  0  0  0  0
   -0.9028    0.8016   -0.3354 C   0  0  0  0  0  0  0  0  0  0  0  0
    0.4906    0.8527   -0.0376 C   0  0  0  0  0  0  0  0  0  0  0  0
    1.2601   -0.2663    0.2628 C   0  0  0  0  0  0  0  0  0  0  0  0
    0.7024   -1.5706    0.2941 C   0  0  0  0  0  0  0  0  0  0  0  0
   -0.6363   -1.7345    0.0209 C   0  0  0  0  0  0  0  0  0  0  0  0
   -2.6390    4.9396   -1.0844 H   0  0  0  0  0  0  0  0  0  0  0  0
    0.9939    1.8206   -0.0422 H   0  0  0  0  0  0  0  0  0  0  0  0
    2.3205   -0.1535    0.4836 H   0  0  0  0  0  0  0  0  0  0  0  0
    1.3245   -2.4274    0.5317 H   0  0  0  0  0  0  0  0  0  0  0  0
   -1.1209   -2.7074    0.0302 H   0  0  0  0  0  0  0  0  0  0  0  0
   -3.2233    6.0607   -1.3216 Cl  0  0  0  0  0  0  0  0  0  0  0  0
  1  8  1  0  0  0  0
  2  1  1  0  0  0  0
  3  2  1  0  0  0  0
  4  1  2  0  0  0  0
  4  5  1  0  0  0  0
  5  6  2  0  0  0  0
  6  7  1  0  0  0  0
  6 11  1  0  0  0  0
  7 12  1  0  0  0  0
  8 13  1  0  0  0  0
  8  7  2  0  0  0  0
 10  5  1  0  0  0  0
 14  9  1  0  0  0  0
M  RAD  3   2   2   3   3   4   2
M  END
