Coordinates from ORCA-job PhN2+~Cl-_B3LYPG-6-31G_dp-CH-Scan-d09-49-n800
 OpenBabel11261919593D

 14 13  0  0  0  0  0  0  0  0999 V2000
   -1.3458   -0.6070   -0.2656 C   0  0  0  0  0  0  0  0  0  0  0  0
   -2.7025   -0.7643   -0.5405 N   0  0  0  0  0  0  0  0  0  0  0  0
   -3.7980   -0.8083   -0.7714 N   0  0  0  0  0  0  0  0  0  0  0  0
   -0.9595    0.7391   -0.3348 C   0  0  0  0  0  0  0  0  0  0  0  0
    0.4326    0.8384   -0.0430 C   0  0  0  0  0  0  0  0  0  0  0  0
    1.2408   -0.2528    0.2582 C   0  0  0  0  0  0  0  0  0  0  0  0
    0.7277   -1.5752    0.2964 C   0  0  0  0  0  0  0  0  0  0  0  0
   -0.6059   -1.7851    0.0293 C   0  0  0  0  0  0  0  0  0  0  0  0
   -2.6250    5.1591   -1.0997 H   0  0  0  0  0  0  0  0  0  0  0  0
    0.9032    1.8226   -0.0531 H   0  0  0  0  0  0  0  0  0  0  0  0
    2.2977   -0.1033    0.4740 H   0  0  0  0  0  0  0  0  0  0  0  0
    1.3794   -2.4096    0.5342 H   0  0  0  0  0  0  0  0  0  0  0  0
   -1.0573   -2.7738    0.0440 H   0  0  0  0  0  0  0  0  0  0  0  0
   -3.1375    6.3137   -1.3414 Cl  0  0  0  0  0  0  0  0  0  0  0  0
  1  8  1  0  0  0  0
  2  1  1  0  0  0  0
  3  2  1  0  0  0  0
  4  1  2  0  0  0  0
  4  5  1  0  0  0  0
  5  6  2  0  0  0  0
  6  7  1  0  0  0  0
  6 11  1  0  0  0  0
  7 12  1  0  0  0  0
  8 13  1  0  0  0  0
  8  7  2  0  0  0  0
 10  5  1  0  0  0  0
 14  9  1  0  0  0  0
M  RAD  3   2   2   3   3   4   2
M  END
