Coordinates from ORCA-job PhN2+~Cl-_B3LYPG-6-31G_dp-CH-Scan-d09-49-n800
 OpenBabel11261919593D

 14 13  0  0  0  0  0  0  0  0999 V2000
   -1.3380   -0.5499   -0.2715 C   0  0  0  0  0  0  0  0  0  0  0  0
   -2.6971   -0.6729   -0.5510 N   0  0  0  0  0  0  0  0  0  0  0  0
   -3.7926   -0.6900   -0.7854 N   0  0  0  0  0  0  0  0  0  0  0  0
   -0.9174    0.7863   -0.3366 C   0  0  0  0  0  0  0  0  0  0  0  0
    0.4757    0.8496   -0.0401 C   0  0  0  0  0  0  0  0  0  0  0  0
    1.2551   -0.2623    0.2615 C   0  0  0  0  0  0  0  0  0  0  0  0
    0.7086   -1.5713    0.2953 C   0  0  0  0  0  0  0  0  0  0  0  0
   -0.6289   -1.7468    0.0234 C   0  0  0  0  0  0  0  0  0  0  0  0
   -2.6338    4.9927   -1.0873 H   0  0  0  0  0  0  0  0  0  0  0  0
    0.9712    1.8216   -0.0465 H   0  0  0  0  0  0  0  0  0  0  0  0
    2.3146   -0.1400    0.4812 H   0  0  0  0  0  0  0  0  0  0  0  0
    1.3381   -2.4224    0.5336 H   0  0  0  0  0  0  0  0  0  0  0  0
   -1.1053   -2.7238    0.0345 H   0  0  0  0  0  0  0  0  0  0  0  0
   -3.2005    6.1227   -1.3246 Cl  0  0  0  0  0  0  0  0  0  0  0  0
  1  8  1  0  0  0  0
  2  1  1  0  0  0  0
  3  2  1  0  0  0  0
  4  1  2  0  0  0  0
  4  5  1  0  0  0  0
  5  6  2  0  0  0  0
  6  7  1  0  0  0  0
  6 11  1  0  0  0  0
  7 12  1  0  0  0  0
  8 13  1  0  0  0  0
  8  7  2  0  0  0  0
 10  5  1  0  0  0  0
 14  9  1  0  0  0  0
M  RAD  3   2   2   3   3   4   2
M  END
