Coordinates from ORCA-job PhN2+~Cl-_B3LYPG-6-31G_dp-CH-Scan-d09-49-n800
 OpenBabel11261919593D

 14 14  0  0  0  0  0  0  0  0999 V2000
   -1.4835    0.0993   -0.3627 C   0  0  0  0  0  0  0  0  0  0  0  0
   -2.8609    0.0753   -0.6550 N   0  0  0  0  0  0  0  0  0  0  0  0
   -3.7793    0.7521   -0.9136 N   0  0  0  0  0  0  0  0  0  0  0  0
   -0.7328    1.2861   -0.3343 C   0  0  0  0  0  0  0  0  0  0  0  0
    0.6243    1.1881   -0.0330 C   0  0  0  0  0  0  0  0  0  0  0  0
    1.2144   -0.0511    0.2319 C   0  0  0  0  0  0  0  0  0  0  0  0
    0.4505   -1.2217    0.1976 C   0  0  0  0  0  0  0  0  0  0  0  0
   -0.9054   -1.1513   -0.1016 C   0  0  0  0  0  0  0  0  0  0  0  0
   -1.1777    2.1776   -0.5288 H   0  0  0  0  0  0  0  0  0  0  0  0
    1.2241    2.0924   -0.0050 H   0  0  0  0  0  0  0  0  0  0  0  0
    2.2730   -0.1048    0.4671 H   0  0  0  0  0  0  0  0  0  0  0  0
    0.9099   -2.1828    0.4037 H   0  0  0  0  0  0  0  0  0  0  0  0
   -1.5272   -2.0392   -0.1369 H   0  0  0  0  0  0  0  0  0  0  0  0
   -3.4798    2.8736   -1.0428 Cl  0  0  0  0  0  0  0  0  0  0  0  0
  1  4  2  0  0  0  0
  1  8  1  0  0  0  0
  2  1  1  0  0  0  0
  3  2  2  0  0  0  0
  4  5  1  0  0  0  0
  5 10  1  0  0  0  0
  5  6  2  0  0  0  0
  6 11  1  0  0  0  0
  7  6  1  0  0  0  0
  7 12  1  0  0  0  0
  8  7  2  0  0  0  0
  9  4  1  0  0  0  0
 13  8  1  0  0  0  0
 14  3  1  0  0  0  0
M  END
