Coordinates from ORCA-job PhN2+~Cl-_B3LYPG-6-31G_dp-CH-Scan-d09-49-n800
 OpenBabel11261919593D

 14 13  0  0  0  0  0  0  0  0999 V2000
   -1.4068   -0.0473   -0.3275 C   0  0  0  0  0  0  0  0  0  0  0  0
   -2.7626   -0.0064   -0.6179 N   0  0  0  0  0  0  0  0  0  0  0  0
   -3.8502    0.0936   -0.8577 N   0  0  0  0  0  0  0  0  0  0  0  0
   -0.7988    1.2199   -0.3372 C   0  0  0  0  0  0  0  0  0  0  0  0
    0.5814    1.1114   -0.0325 C   0  0  0  0  0  0  0  0  0  0  0  0
    1.2113   -0.1012    0.2342 C   0  0  0  0  0  0  0  0  0  0  0  0
    0.5035   -1.3275    0.2172 C   0  0  0  0  0  0  0  0  0  0  0  0
   -0.8435   -1.3259   -0.0689 C   0  0  0  0  0  0  0  0  0  0  0  0
   -2.0016    2.9267   -0.7661 H   0  0  0  0  0  0  0  0  0  0  0  0
    1.1845    2.0178   -0.0035 H   0  0  0  0  0  0  0  0  0  0  0  0
    2.2746   -0.1199    0.4644 H   0  0  0  0  0  0  0  0  0  0  0  0
    1.0167   -2.2597    0.4285 H   0  0  0  0  0  0  0  0  0  0  0  0
   -1.4351   -2.2364   -0.0950 H   0  0  0  0  0  0  0  0  0  0  0  0
   -2.9238    3.8484   -1.0512 Cl  0  0  0  0  0  0  0  0  0  0  0  0
  1  8  1  0  0  0  0
  2  1  1  0  0  0  0
  3  2  1  0  0  0  0
  4  1  2  0  0  0  0
  4  5  1  0  0  0  0
  5 10  1  0  0  0  0
  5  6  2  0  0  0  0
  6 11  1  0  0  0  0
  7  6  1  0  0  0  0
  7 12  1  0  0  0  0
  8  7  2  0  0  0  0
 13  8  1  0  0  0  0
 14  9  1  0  0  0  0
M  RAD  3   2   2   3   3   4   2
M  END
