Coordinates from ORCA-job PhN2+~Cl-_B3LYPG-6-31G_dp-CH-Scan-d09-49-n800
 OpenBabel11261919593D

 14 13  0  0  0  0  0  0  0  0999 V2000
   -1.3986   -0.0650   -0.3242 C   0  0  0  0  0  0  0  0  0  0  0  0
   -2.7544   -0.0269   -0.6142 N   0  0  0  0  0  0  0  0  0  0  0  0
   -3.8430    0.0675   -0.8537 N   0  0  0  0  0  0  0  0  0  0  0  0
   -0.7952    1.2047   -0.3353 C   0  0  0  0  0  0  0  0  0  0  0  0
    0.5862    1.0961   -0.0302 C   0  0  0  0  0  0  0  0  0  0  0  0
    1.2182   -0.1149    0.2372 C   0  0  0  0  0  0  0  0  0  0  0  0
    0.5126   -1.3430    0.2209 C   0  0  0  0  0  0  0  0  0  0  0  0
   -0.8341   -1.3435   -0.0651 C   0  0  0  0  0  0  0  0  0  0  0  0
   -2.0554    3.0274   -0.7878 H   0  0  0  0  0  0  0  0  0  0  0  0
    1.1892    2.0028   -0.0014 H   0  0  0  0  0  0  0  0  0  0  0  0
    2.2816   -0.1318    0.4674 H   0  0  0  0  0  0  0  0  0  0  0  0
    1.0276   -2.2741    0.4328 H   0  0  0  0  0  0  0  0  0  0  0  0
   -1.4245   -2.2549   -0.0908 H   0  0  0  0  0  0  0  0  0  0  0  0
   -2.9605    3.9491   -1.0688 Cl  0  0  0  0  0  0  0  0  0  0  0  0
  1  8  1  0  0  0  0
  2  1  1  0  0  0  0
  3  2  1  0  0  0  0
  4  1  2  0  0  0  0
  4  5  1  0  0  0  0
  5 10  1  0  0  0  0
  5  6  2  0  0  0  0
  6 11  1  0  0  0  0
  7  6  1  0  0  0  0
  7 12  1  0  0  0  0
  8  7  2  0  0  0  0
 13  8  1  0  0  0  0
 14  9  1  0  0  0  0
M  RAD  3   2   2   3   3   4   2
M  END
