Coordinates from ORCA-job PhN2+~Cl-_B3LYPG-6-31G_dp-CH-Scan-d09-49-n800
 OpenBabel11261919593D

 14 13  0  0  0  0  0  0  0  0999 V2000
   -1.3488   -0.2776   -0.2973 C   0  0  0  0  0  0  0  0  0  0  0  0
   -2.7089   -0.2908   -0.5858 N   0  0  0  0  0  0  0  0  0  0  0  0
   -3.8012   -0.2298   -0.8256 N   0  0  0  0  0  0  0  0  0  0  0  0
   -0.8136    1.0199   -0.3316 C   0  0  0  0  0  0  0  0  0  0  0  0
    0.5765    0.9639   -0.0267 C   0  0  0  0  0  0  0  0  0  0  0  0
    1.2592   -0.2147    0.2564 C   0  0  0  0  0  0  0  0  0  0  0  0
    0.6061   -1.4738    0.2603 C   0  0  0  0  0  0  0  0  0  0  0  0
   -0.7392   -1.5332   -0.0223 C   0  0  0  0  0  0  0  0  0  0  0  0
   -2.4391    3.9723   -0.9589 H   0  0  0  0  0  0  0  0  0  0  0  0
    1.1482    1.8924   -0.0108 H   0  0  0  0  0  0  0  0  0  0  0  0
    2.3234   -0.1849    0.4844 H   0  0  0  0  0  0  0  0  0  0  0  0
    1.1611   -2.3788    0.4846 H   0  0  0  0  0  0  0  0  0  0  0  0
   -1.2937   -2.4678   -0.0337 H   0  0  0  0  0  0  0  0  0  0  0  0
   -3.1805    4.9964   -1.2064 Cl  0  0  0  0  0  0  0  0  0  0  0  0
  1  8  1  0  0  0  0
  2  1  1  0  0  0  0
  3  2  1  0  0  0  0
  4  1  2  0  0  0  0
  4  5  1  0  0  0  0
  5 10  1  0  0  0  0
  5  6  2  0  0  0  0
  6  7  1  0  0  0  0
  6 11  1  0  0  0  0
  7 12  1  0  0  0  0
  8  7  2  0  0  0  0
 13  8  1  0  0  0  0
 14  9  1  0  0  0  0
M  RAD  3   2   2   3   3   4   2
M  END
