Coordinates from ORCA-job PhN2+~Cl-_B3LYPG-6-31G_dp-CH-Scan-d09-49-n800
 OpenBabel11261919593D

 14 13  0  0  0  0  0  0  0  0999 V2000
   -1.3545   -0.2465   -0.3006 C   0  0  0  0  0  0  0  0  0  0  0  0
   -2.7137   -0.2517   -0.5891 N   0  0  0  0  0  0  0  0  0  0  0  0
   -3.8057   -0.1869   -0.8286 N   0  0  0  0  0  0  0  0  0  0  0  0
   -0.8093    1.0477   -0.3312 C   0  0  0  0  0  0  0  0  0  0  0  0
    0.5801    0.9817   -0.0260 C   0  0  0  0  0  0  0  0  0  0  0  0
    1.2548   -0.2022    0.2541 C   0  0  0  0  0  0  0  0  0  0  0  0
    0.5933   -1.4566    0.2546 C   0  0  0  0  0  0  0  0  0  0  0  0
   -0.7522   -1.5064   -0.0285 C   0  0  0  0  0  0  0  0  0  0  0  0
   -2.3938    3.8408   -0.9374 H   0  0  0  0  0  0  0  0  0  0  0  0
    1.1576    1.9064   -0.0077 H   0  0  0  0  0  0  0  0  0  0  0  0
    2.3191   -0.1799    0.4824 H   0  0  0  0  0  0  0  0  0  0  0  0
    1.1421   -2.3660    0.4766 H   0  0  0  0  0  0  0  0  0  0  0  0
   -1.3127   -2.4373   -0.0424 H   0  0  0  0  0  0  0  0  0  0  0  0
   -3.1553    4.8504   -1.1895 Cl  0  0  0  0  0  0  0  0  0  0  0  0
  1  8  1  0  0  0  0
  2  1  1  0  0  0  0
  3  2  1  0  0  0  0
  4  1  2  0  0  0  0
  4  5  1  0  0  0  0
  5 10  1  0  0  0  0
  5  6  2  0  0  0  0
  6  7  1  0  0  0  0
  6 11  1  0  0  0  0
  7 12  1  0  0  0  0
  8  7  2  0  0  0  0
 13  8  1  0  0  0  0
 14  9  1  0  0  0  0
M  RAD  3   2   2   3   3   4   2
M  END
