Coordinates from ORCA-job PhN2+~Cl-_B3LYPG-6-31G_dp-CH-Scan-d09-49-n800
 OpenBabel11261919593D

 14 13  0  0  0  0  0  0  0  0999 V2000
   -1.4101   -0.0410   -0.3287 C   0  0  0  0  0  0  0  0  0  0  0  0
   -2.7660    0.0010   -0.6191 N   0  0  0  0  0  0  0  0  0  0  0  0
   -3.8532    0.1035   -0.8591 N   0  0  0  0  0  0  0  0  0  0  0  0
   -0.8006    1.2253   -0.3378 C   0  0  0  0  0  0  0  0  0  0  0  0
    0.5792    1.1173   -0.0333 C   0  0  0  0  0  0  0  0  0  0  0  0
    1.2085   -0.0958    0.2331 C   0  0  0  0  0  0  0  0  0  0  0  0
    0.5001   -1.3216    0.2157 C   0  0  0  0  0  0  0  0  0  0  0  0
   -0.8470   -1.3195   -0.0704 C   0  0  0  0  0  0  0  0  0  0  0  0
   -1.9801    2.8881   -0.7577 H   0  0  0  0  0  0  0  0  0  0  0  0
    1.1821    2.0238   -0.0043 H   0  0  0  0  0  0  0  0  0  0  0  0
    2.2718   -0.1150    0.4631 H   0  0  0  0  0  0  0  0  0  0  0  0
    1.0129   -2.2540    0.4267 H   0  0  0  0  0  0  0  0  0  0  0  0
   -1.4388   -2.2298   -0.0967 H   0  0  0  0  0  0  0  0  0  0  0  0
   -2.9092    3.8113   -1.0449 Cl  0  0  0  0  0  0  0  0  0  0  0  0
  1  8  1  0  0  0  0
  2  1  1  0  0  0  0
  3  2  1  0  0  0  0
  4  1  2  0  0  0  0
  4  5  1  0  0  0  0
  5 10  1  0  0  0  0
  5  6  2  0  0  0  0
  6 11  1  0  0  0  0
  7  6  1  0  0  0  0
  7 12  1  0  0  0  0
  8  7  2  0  0  0  0
 13  8  1  0  0  0  0
 14  9  1  0  0  0  0
M  RAD  3   2   2   3   3   4   2
M  END
