21
Coordinates from ORCA-job PhN2+~TfO-_B3LYPG-6-31G_dp-CH-Scan-d09-49-n800
  C   -1.76345894207635      0.62014856834040      0.00010039368688
  N   -3.07478753668964      1.08915409652169      0.02018281557098
  N   -4.10407318986804      1.52867771724591      0.01248484014436
  C   -0.83241744136733      1.64465008837379     -0.23339248531971
  C   0.47873426242200      1.08645950305387     -0.25058171083990
  C   0.75140714683885     -0.26367442044002     -0.05582099481635
  C   -0.28081115527264     -1.20735321059947      0.17505338289267
  C   -1.58748640576489     -0.77592566930228      0.20709627175816
  H   -1.96986076249868      5.33454853632364      0.18401412873039
  H   1.32786600431672      1.74889031508151     -0.42373380492812
  H   1.78040671484086     -0.61936090783793     -0.07836562709829
  H   -0.04319215030917     -2.25542278622751      0.32597584654254
  H   -2.42153588825246     -1.45115218389319      0.37916345788249
  S   -4.05755337492749      5.55403846936981      0.63585343735255
  C   -4.82411622700867      5.13850891715774     -1.01281099956053
  O   -3.90207599565562      4.30078226671656      1.36114480525198
  O   -4.76304449081291      6.70260633302840      1.16378580869078
  O   -2.60581795974155      6.06997337385442      0.12785595963888
  F   -4.12187459541018      4.15900989651211     -1.58931936705609
  F   -6.07312658570736      4.72800839301675     -0.80388092389253
  F   -4.82598142705542      6.21023270370378     -1.79840523463119
