21
Coordinates from ORCA-job PhN2+~TfO-_B3LYPG-6-31G_dp-CH-Scan-d09-49-n800
  C   -2.05565326391614      1.02653855530092     -0.17175890929273
  N   -3.38822258699888      1.29753872680333     -0.44034212064142
  N   -4.46432226110821      1.38989802763295     -0.70649945868876
  C   -1.10919392816015      2.05100408088461     -0.31635640757470
  C   0.21608023949596      1.69656850245621     -0.07505964468935
  C   0.55525282016298      0.39275639490429      0.29665729788869
  C   -0.42411531099182     -0.60302209792219      0.43436509390935
  C   -1.75487732622480     -0.30077753274920      0.19664097678984
  H   -1.46795452491484      3.17985351338561     -0.58870352746396
  H   0.98677964087739      2.45445138624214     -0.16727462749386
  H   1.59456944693953      0.14311809100216      0.48857379438782
  H   -0.14653280193034     -1.60903450792561      0.72902597662696
  H   -2.53891537843598     -1.04345418798956      0.29470194272749
  S   -3.30146383006964      4.79039471353549      0.33153731189409
  C   -4.85038946377240      5.05396884771076     -0.65984934220054
  O   -3.54349678100212      3.45848012233411      0.95986679504254
  O   -3.22922560192940      5.93815137949437      1.23709830793610
  O   -2.24921734058812      4.71947554479816     -0.73270404107230
  F   -5.03578584251211      4.01087322487184     -1.50898220917194
  F   -5.92447752820666      5.12539633751898      0.13634575711660
  F   -4.78163837671416      6.17062087771065     -1.39088296602994
