21
Coordinates from ORCA-job PhN2+~TfO-_B3LYPG-6-31G_dp-CH-Scan-d09-49-n800
  C   -1.91410120974026      1.17019414594959     -0.43097983204147
  N   -3.14288396336993      1.50705723289976     -0.98460924636280
  N   -4.11044683009059      1.62513258783488     -1.51927728801355
  C   -0.86150478076548      2.09387531137768     -0.49585858531313
  C   0.36093299544885      1.68516752880862      0.02343057531109
  C   0.50542681577310      0.41391116651914      0.58996559573845
  C   -0.57071835375477     -0.48075300235301      0.64318110050700
  C   -1.80629443076704     -0.11425032285193      0.12649707705245
  H   -1.05713414601387      3.08520562928593     -0.91841374368791
  H   1.20094288438041      2.37077625636186     -0.00076482208452
  H   1.46509466575156      0.11691658441441      1.00092561538113
  H   -0.44778252775378     -1.46139018388271      1.08919797320463
  H   -2.66098877119300     -0.78049886622576      0.15605791614597
  S   -3.30871450951304      4.53820550447622      0.09621639898038
  C   -5.06406485030731      5.00796071426356     -0.28744900682980
  O   -3.46414120509873      3.26596803683488      0.86478536456790
  O   -2.75187411304785      5.67744151191829      0.83206273226049
  O   -2.74095229111274      4.28274481024794     -1.26425880824387
  F   -5.67493093417439      3.99370690645184     -0.94201987009317
  F   -5.75333949307480      5.25056801524490      0.83400947454097
  F   -5.11532495157628      6.09486043242397     -1.06629862102024
