21
Coordinates from ORCA-job PhN2+~TfO-_B3LYPG-6-31G_dp-CH-Scan-d09-49-n800
  C   -1.93686043437434      0.92539634808317     -0.03104803987707
  N   -3.27742801247840      1.26607830720164     -0.14714029436362
  N   -4.30247224759732      1.72074650948357     -0.14990567441712
  C   -0.99536573870941      1.96482272198409     -0.07032384479869
  C   0.34217292646428      1.59872876958306      0.05623178021177
  C   0.70074136099302      0.25728603429821      0.21871348565687
  C   -0.26891090688106     -0.75573787085325      0.24772271314723
  C   -1.61161220625785     -0.43477158794062      0.11356010916598
  H   -1.39903469740408      3.10435104769845     -0.23736859556808
  H   1.10626968638801      2.36834271271278      0.02968347114963
  H   1.74855852099518     -0.00853103044488      0.32225422152124
  H   0.02618495069814     -1.79181137346248      0.37344301427591
  H   -2.38753774090424     -1.19201603798070      0.12982612507231
  S   -3.57675628645137      4.83237516554723      0.26246218070705
  C   -5.01455342619785      5.26875113312648     -0.82786112709318
  O   -4.10017106818947      3.66563498606415      1.05254129466876
  O   -3.29332856283399      6.03391768235227      1.04929345214584
  O   -2.53761801611945      4.41546170898436     -0.72603301449149
  F   -5.37170173720444      4.19650781311153     -1.56422665123096
  F   -6.06821295959840      5.64292590194547     -0.09347132466742
  F   -4.69516340433688      6.26434105850551     -1.66195328121493
