21
Coordinates from ORCA-job 4-NO2PhN2+~HSO4-_B3LYPG-6-31G_dp-CH-Scan-d09-49-n800
  C   -1.96742136170168     -0.07504921503968     -0.25749950815542
  N   -3.31532117133796     -0.40726991691153     -0.37800196088855
  N   -4.38727053301974     -0.68081439503096     -0.49992908166728
  C   -1.60944413962185      1.25466056940316     -0.52500642243159
  C   -0.23514696825534      1.51120582697175     -0.40701058088711
  C   0.64313496717295      0.49486604490177     -0.05008969423617
  N   2.09223261592971      0.80716067318483      0.06442929755382
  O   2.43992958154366      1.95768324853523     -0.17420018596269
  O   2.83800419246649     -0.11337440449223      0.38946665379877
  C   0.24201701547410     -0.82270025752344      0.21306419191881
  C   -1.10065170901559     -1.12909362507736      0.10802329240199
  H   -2.59098197253862      2.19804214588165     -0.80859051561911
  H   0.15768623759335      2.50499797366616     -0.58734074603342
  H   0.97923511799906     -1.56448070959929      0.48984601577996
  H   -1.47250503085120     -2.12945586630876      0.30074216568858
  S   -4.79505139313092      2.51769366421447     -0.13056218416327
  O   -3.64008399628493      2.98473388311319     -1.01235222658023
  O   -5.83612732846494      1.81120365050496     -0.89797863832814
  O   -4.28749751227056      1.83034652263434      1.06566405016472
  O   -5.48102501441454      3.91352342540750      0.38388738463982
  H   -6.32041159727145      3.98512076156421     -0.09776130699347
