21
Coordinates from ORCA-job 4-NO2PhN2+~HSO4-_B3LYPG-6-31G_dp-CH-Scan-d09-49-n800
  C   -1.60452775008232     -0.45300042709011     -0.33756956818312
  N   -2.92097801416533     -0.90069927785747     -0.55382495601276
  N   -3.97174110223656     -1.20294761155626     -0.77656332356775
  C   -1.32608048239188      0.73026866911525     -1.02285139676688
  C   0.02359459015920      1.12080987675388     -0.76890204609254
  C   0.86358105440779      0.38432600142647      0.05293393002593
  N   2.25546100011653      0.85522043153732      0.27862082751777
  O   2.60520111747445      1.89074645125678     -0.28022194001188
  O   2.98014695636171      0.16354900554384      0.99383357841671
  C   0.48208424021743     -0.80905154665110      0.70485836317082
  C   -0.80238048354672     -1.26142594799189      0.51061736948868
  H   -4.27177307877949      3.12951402994946     -2.00395493752502
  H   0.42992131188836      2.02171312917931     -1.21966423104978
  H   1.19410989920830     -1.33233790537834      1.32886091763742
  H   -1.16784985542374     -2.17273085344211      0.97488054242371
  S   -5.55798231013100      2.76652410961978     -0.32769591036656
  O   -5.11351484734429      3.50915920749946     -1.69669885681586
  O   -6.93916131932633      3.13955862879476     -0.11657264064629
  O   -5.08527693691348      1.39808163171049     -0.35125762058421
  O   -4.63712206570805      3.52113869192541      0.77752549130999
  H   -5.08241192378473      4.35058370565506      1.02244640763162
