21
Coordinates from ORCA-job 4-NO2PhN2+~HSO4-_B3LYPG-6-31G_dp-CH-Scan-d09-49-n800
  C   -1.65218234298689     -0.48125444434327     -0.57932108527675
  N   -2.91583020496694     -0.98390461226829     -0.93953972785856
  N   -3.91523375273882     -1.33068140000395     -1.29482980203132
  C   -1.25972524825785      0.57459995530290     -1.40173242923605
  C   0.02836865896653      1.03946370897467     -0.99798829808530
  C   0.71417336064532      0.47626709928242      0.06800012648720
  N   2.04794827136211      1.01659692717228      0.44077125787945
  O   2.47542248059794      1.97321173787290     -0.19918025797495
  O   2.64287636273301      0.47163655479350      1.37044240131848
  C   0.22490040493411     -0.59961766245353      0.84183315849263
  C   -1.00907064141972     -1.11319816599469      0.51663557681355
  H   -4.56616905976147      2.99942506082672     -2.09854498998466
  H   0.50744656831597      1.86061094339753     -1.52360820058932
  H   0.81918255908890     -0.98878993649555      1.65761285646391
  H   -1.45151066902100     -1.94041767531836      1.06404678503767
  S   -5.28057335733253      2.63760425424105     -0.10778964314280
  O   -5.26513019304553      3.38803313661893     -1.54423293297844
  O   -6.51762976854930      3.03953858683994      0.52313747803962
  O   -4.87621626961174      1.25808378881503     -0.28546593147940
  O   -4.04062764117884      3.35314597732465      0.65798945370028
  H   -4.35711951777345      4.19864616541513      1.02056420440474
