21
Coordinates from ORCA-job 4-NO2PhN2+~HSO4-_B3LYPG-6-31G_dp-CH-Scan-d09-49-n800
  C   -1.60960849649478     -0.45938140942222     -1.06299360233021
  N   -2.81620045323622     -1.04823712673560     -1.49485234723723
  N   -3.72349081858297     -1.53825624527675     -1.92089695087952
  C   -0.60914472455072     -0.58342060563513     -2.02491646582667
  C   0.59010516132908      0.03047465871864     -1.54697384774020
  C   0.66016772043382      0.63696435656222     -0.30187196094418
  N   1.93489851488856      1.26806096287830      0.13042290604092
  O   2.90410697266684      1.16807748517917     -0.61535477221907
  O   1.93693588067888      1.86025182934427      1.21053910361694
  C   -0.42101204443136      0.70213975785896      0.60698640754600
  C   -1.61528421231824      0.13170096672848      0.22830417463260
  H   -3.27251110817722      3.11632101385499     -0.38426124620153
  H   1.48708509636064      0.03667372447098     -2.16025177682058
  H   -0.28591187640729      1.18301252862067      1.56640205389497
  H   -2.49042140251659      0.13312754194152      0.86985770646638
  S   -5.11777494908187      2.24436687572657      0.26762776639752
  O   -4.15398885394371      3.46986526681440     -0.17114881526979
  O   -6.46612108068216      2.75632845661430      0.20278588610469
  O   -4.67386527403772      1.03563067994229     -0.40027519260681
  O   -4.70167657151576      2.03498337713063      1.82456907575497
  H   -5.20298748038146      2.67031590468328      2.36510189762080
