21
Coordinates from ORCA-job 4-NO2PhN2+~HSO4-_B3LYPG-6-31G_dp-CH-Scan-d09-49-n800
  C   -1.63259838227959     -0.45006267088130     -1.04837231858267
  N   -2.82881837294810     -1.04698230666669     -1.49681766995925
  N   -3.72656167775819     -1.54156205559270     -1.93788535500290
  C   -0.65250381550234     -0.47054171989182     -2.03854720327195
  C   0.54219633269524      0.13382871379975     -1.53979620122199
  C   0.63035201218219      0.63031574707189     -0.24750905318963
  N   1.90333170233562      1.24675004975808      0.20953177166889
  O   2.86120343575676      1.21575461256056     -0.55704958944276
  O   1.91673984792167      1.75707863148316      1.33060347832756
  C   -0.43241439079821      0.60127501963084      0.68411530837584
  C   -1.62404235455837      0.04098154699117      0.28347669789742
  H   -3.50676268579638      3.24002161922191     -0.77094346459167
  H   1.42181921427027      0.21897338139178     -2.17209189152032
  H   -0.28992936264075      1.01343398612546      1.67376822872831
  H   -2.48960071804069     -0.01055217450763      0.93553439180158
  S   -5.08656316295006      2.22730872013967      0.25825217122548
  O   -4.36334821707463      3.51725777900225     -0.40132957329440
  O   -6.46857217556829      2.59952760062012      0.44848136802026
  O   -4.65425028973812      1.03747350166284     -0.44946754334520
  O   -4.35703906520952      2.13923537731305      1.70815339976833
  H   -4.80933787429875      2.74948464076756      2.31669304760906
