21
Coordinates from ORCA-job 4-NO2PhN2+~HSO4-_B3LYPG-6-31G_dp-CH-Scan-d09-49-n800
  C   -1.69341269514311     -0.50318080387129     -0.65616474822178
  N   -2.93017435779412     -1.04371409699607     -1.05197581012239
  N   -3.90387740943451     -1.42740745999448     -1.43924449468482
  C   -1.25825723288092      0.49134198902438     -1.53184357457556
  C   -0.00030470384108      0.99937942937728     -1.08728861089786
  C   0.62060981495907      0.52898740916204      0.06051591986717
  N   1.92301884187771      1.11418570562858      0.47383500207903
  O   2.38028673290896      2.02788897048952     -0.20708153992223
  O   2.46489505397477      0.64632941752263      1.47524197237970
  C   0.09185977452920     -0.49063816825068      0.88298742182124
  C   -1.11553236795124     -1.04248587473768      0.52224040667586
  H   -4.53187555087965      3.00834483644423     -2.06820434717803
  H   0.50616512905177      1.78201901547027     -1.64519439090083
  H   0.63619940765331     -0.80928212834448      1.76164812510361
  H   -1.58554035146170     -1.83075031366128      1.10317697960910
  S   -5.11596813393379      2.56937940335241     -0.05198220941255
  O   -5.18167917600358      3.38598986334723     -1.44994807652902
  O   -6.30057547035128      2.95779144148197      0.67986858045535
  O   -4.74825395957383      1.19487862201288     -0.32313183576032
  O   -3.81492337188484      3.22819998679034      0.66061536729196
  H   -4.08935997382135      4.06174275575222      1.08072986292235
