21
Coordinates from ORCA-job 4-NO2PhN2+~HSO4-_B3LYPG-6-31G_dp-CH-Scan-d09-49-n800
  C   -1.67525373218336     -0.47901282788837     -0.53213830703638
  N   -2.94298828504590     -0.98817145556239     -0.86645942794726
  N   -3.94939348991387     -1.34013050479857     -1.19557769902266
  C   -1.33378973986565      0.62798591690797     -1.30961507097606
  C   -0.03701611003749      1.09202415267634     -0.93427232892793
  C   0.70278433463506      0.48215023521530      0.06796074022931
  N   2.04341452745533      1.02387653995261      0.41322756020190
  O   2.43964368158738      2.00553384381148     -0.20857031777391
  O   2.67475013003873      0.45448860936448      1.30329973922126
  C   0.26286744798432     -0.64213870783433      0.80113568569830
  C   -0.97613090635477     -1.15814784879757      0.49963056136357
  H   -4.41409192276905      2.94806274812626     -2.08659852935155
  H   0.40638669503244      1.94997155660796     -1.43142888397514
  H   0.89696439483007     -1.06502378215966      1.56887091903008
  H   -1.38210895414862     -2.02182422060783      1.01805479763052
  S   -5.28390723335978      2.65523330751863     -0.14684458029188
  O   -5.14272159037944      3.36664191325354     -1.59574910078817
  O   -6.54833709247625      3.11198688771641      0.38515710823993
  O   -4.91426153966754      1.25954874571142     -0.26135361180813
  O   -4.07855170990829      3.35218406528370      0.68879829521444
  H   -4.39495890545346      4.21376082550263      1.01127245106974
