21
Coordinates from ORCA-job 4-NO2PhN2+~HSO4-_B3LYPG-6-31G_dp-CH-Scan-d09-49-n800
  C   -1.70182516742031     -0.50789631186392     -0.77222218952929
  N   -2.90858541020734     -1.07172912395360     -1.22421630177373
  N   -3.84896171400803     -1.48165433685227     -1.66374514698784
  C   -1.14834821882542      0.35097587990488     -1.72099109418342
  C   0.07212609459776      0.89358037895967     -1.21662286564375
  C   0.55588276068004      0.57236692300955      0.04330990081852
  N   1.82528296365638      1.18709771764705      0.51265647078419
  O   2.37587266599520      1.99692200403849     -0.22804592166612
  O   2.24795367618279      0.84674470769955      1.61773020242253
  C   -0.08635745809355     -0.31787481834023      0.93270461288020
  C   -1.26701455811869     -0.89249195756770      0.52233679543755
  H   -4.59710517666157      3.01181249282042     -1.99192258814525
  H   0.65736933928665      1.58474427007040     -1.81697056283490
  H   0.35426546244083     -0.52413087123686      1.89850578278396
  H   -1.82055284424811     -1.58490713952180      1.15004692688515
  S   -4.98410110882255      2.47709940039968      0.04790790098647
  O   -5.17748614568655      3.36393111094758     -1.29457692153058
  O   -6.08894234856321      2.82998365183302      0.91018486027247
  O   -4.65489924697013      1.11767988624492     -0.32994913374804
  O   -3.61416675851173      3.09269507181835      0.66199548294601
  H   -3.83710680670267      3.90405106394282      1.15068378982586
