Coordinates from ORCA-job PhN2+~CF3COO-_B3LYPG-6-31G_dp-CH-Scan-d09-49-n800
 OpenBabel11261919373D

 20 19  0  0  0  0  0  0  0  0999 V2000
   -1.9607    0.3437   -0.2012 C   0  0  0  0  0  0  0  0  0  0  0  0
   -3.3214    0.1118   -0.3825 N   0  0  0  0  0  0  0  0  0  0  0  0
   -4.4297    0.0766   -0.5142 N   0  0  0  0  0  0  0  0  0  0  0  0
   -1.6081    1.6934   -0.0575 C   0  0  0  0  0  0  0  0  0  0  0  0
   -0.2218    1.8648    0.1255 C   0  0  0  0  0  0  0  0  0  0  0  0
    0.6721    0.7950    0.1556 C   0  0  0  0  0  0  0  0  0  0  0  0
    0.2320   -0.5358    0.0018 C   0  0  0  0  0  0  0  0  0  0  0  0
   -1.1132   -0.7877   -0.1825 C   0  0  0  0  0  0  0  0  0  0  0  0
   -2.5645    2.8431   -0.0862 H   0  0  0  0  0  0  0  0  0  0  0  0
    0.1673    2.8729    0.2496 H   0  0  0  0  0  0  0  0  0  0  0  0
    1.7332    0.9825    0.3016 H   0  0  0  0  0  0  0  0  0  0  0  0
    0.9412   -1.3562    0.0284 H   0  0  0  0  0  0  0  0  0  0  0  0
   -1.5033   -1.7932   -0.3058 H   0  0  0  0  0  0  0  0  0  0  0  0
   -5.0794    2.5223   -0.2965 O   0  0  0  0  0  0  0  0  0  0  0  0
   -4.4842    3.5908   -0.1888 C   0  0  0  0  0  0  0  0  0  0  0  0
   -3.2196    3.8153   -0.0877 O   0  0  0  0  0  0  0  0  0  0  0  0
   -5.3012    4.9087   -0.1631 C   0  0  0  0  0  0  0  0  0  0  0  0
   -4.9496    5.7051   -1.1944 F   0  0  0  0  0  0  0  0  0  0  0  0
   -6.6187    4.6769   -0.2496 F   0  0  0  0  0  0  0  0  0  0  0  0
   -5.0719    5.5889    0.9794 F   0  0  0  0  0  0  0  0  0  0  0  0
  1  8  2  0  0  0  0
  1  4  1  0  0  0  0
  2  1  1  0  0  0  0
  3  2  1  0  0  0  0
  4  5  2  0  0  0  0
  5  6  1  0  0  0  0
  5 10  1  0  0  0  0
  6 11  1  0  0  0  0
  7 12  1  0  0  0  0
  7  6  2  0  0  0  0
  8  7  1  0  0  0  0
 13  8  1  0  0  0  0
 14 15  2  0  0  0  0
 15 17  1  0  0  0  0
 15 16  1  0  0  0  0
 16  9  1  0  0  0  0
 17 20  1  0  0  0  0
 18 17  1  0  0  0  0
 19 17  1  0  0  0  0
M  RAD  3   2   2   3   3   4   2
M  END
