Coordinates from ORCA-job PhN2+~CF3COO-_B3LYPG-6-31G_dp-CH-Scan-d09-49-n800
 OpenBabel11261919373D

 20 19  0  0  0  0  0  0  0  0999 V2000
   -1.7826    0.2674   -0.1631 C   0  0  0  0  0  0  0  0  0  0  0  0
   -3.1561    0.1122   -0.3150 N   0  0  0  0  0  0  0  0  0  0  0  0
   -4.2647    0.0392   -0.4330 N   0  0  0  0  0  0  0  0  0  0  0  0
   -1.3693    1.6020   -0.0101 C   0  0  0  0  0  0  0  0  0  0  0  0
    0.0408    1.6634    0.1396 C   0  0  0  0  0  0  0  0  0  0  0  0
    0.8667    0.5427    0.1321 C   0  0  0  0  0  0  0  0  0  0  0  0
    0.3444   -0.7621   -0.0299 C   0  0  0  0  0  0  0  0  0  0  0  0
   -1.0144   -0.9275   -0.1833 C   0  0  0  0  0  0  0  0  0  0  0  0
   -2.8223    3.4576   -0.0100 H   0  0  0  0  0  0  0  0  0  0  0  0
    0.5118    2.6372    0.2692 H   0  0  0  0  0  0  0  0  0  0  0  0
    1.9419    0.6610    0.2541 H   0  0  0  0  0  0  0  0  0  0  0  0
    1.0048   -1.6229   -0.0328 H   0  0  0  0  0  0  0  0  0  0  0  0
   -1.4703   -1.9051   -0.3118 H   0  0  0  0  0  0  0  0  0  0  0  0
   -5.0742    2.7103   -0.3337 O   0  0  0  0  0  0  0  0  0  0  0  0
   -4.6719    3.8430   -0.1925 C   0  0  0  0  0  0  0  0  0  0  0  0
   -3.4263    4.2434   -0.0125 O   0  0  0  0  0  0  0  0  0  0  0  0
   -5.6255    5.0594   -0.2060 C   0  0  0  0  0  0  0  0  0  0  0  0
   -5.3013    5.8991   -1.2065 F   0  0  0  0  0  0  0  0  0  0  0  0
   -6.8901    4.6625   -0.3772 F   0  0  0  0  0  0  0  0  0  0  0  0
   -5.5429    5.7361    0.9543 F   0  0  0  0  0  0  0  0  0  0  0  0
  1  4  1  0  0  0  0
  2  1  1  0  0  0  0
  3  2  1  0  0  0  0
  4  5  2  0  0  0  0
  5 10  1  0  0  0  0
  6  5  1  0  0  0  0
  6 11  1  0  0  0  0
  7  6  2  0  0  0  0
  8  1  2  0  0  0  0
  8  7  1  0  0  0  0
 12  7  1  0  0  0  0
 13  8  1  0  0  0  0
 14 15  2  0  0  0  0
 15 16  1  0  0  0  0
 16  9  1  0  0  0  0
 17 15  1  0  0  0  0
 17 20  1  0  0  0  0
 18 17  1  0  0  0  0
 19 17  1  0  0  0  0
M  RAD  3   2   2   3   3   4   2
M  END
