Coordinates from ORCA-job PhN2+~CF3COO-_B3LYPG-6-31G_dp-CH-Scan-d09-49-n800
 OpenBabel11261919373D

 20 19  0  0  0  0  0  0  0  0999 V2000
   -1.3182    0.1367   -0.1589 C   0  0  0  0  0  0  0  0  0  0  0  0
   -2.6953    0.2927   -0.3187 N   0  0  0  0  0  0  0  0  0  0  0  0
   -3.7916    0.4835   -0.4402 N   0  0  0  0  0  0  0  0  0  0  0  0
   -0.6564    1.3640    0.0003 C   0  0  0  0  0  0  0  0  0  0  0  0
    0.7394    1.1204    0.1602 C   0  0  0  0  0  0  0  0  0  0  0  0
    1.3139   -0.1464    0.1553 C   0  0  0  0  0  0  0  0  0  0  0  0
    0.5337   -1.3178   -0.0162 C   0  0  0  0  0  0  0  0  0  0  0  0
   -0.8276   -1.1979   -0.1808 C   0  0  0  0  0  0  0  0  0  0  0  0
   -3.2471    4.9568   -0.0025 H   0  0  0  0  0  0  0  0  0  0  0  0
    1.4075    1.9721    0.2970 H   0  0  0  0  0  0  0  0  0  0  0  0
    2.3896   -0.2573    0.2867 H   0  0  0  0  0  0  0  0  0  0  0  0
    1.0042   -2.2958   -0.0177 H   0  0  0  0  0  0  0  0  0  0  0  0
   -1.4773   -2.0583   -0.3175 H   0  0  0  0  0  0  0  0  0  0  0  0
   -4.9267    3.3352   -0.2872 O   0  0  0  0  0  0  0  0  0  0  0  0
   -5.0659    4.5270   -0.1908 C   0  0  0  0  0  0  0  0  0  0  0  0
   -4.0954    5.4321   -0.0298 O   0  0  0  0  0  0  0  0  0  0  0  0
   -6.4392    5.2311   -0.2406 C   0  0  0  0  0  0  0  0  0  0  0  0
   -6.4827    6.0932   -1.2713 F   0  0  0  0  0  0  0  0  0  0  0  0
   -7.4129    4.3314   -0.3912 F   0  0  0  0  0  0  0  0  0  0  0  0
   -6.6536    5.9163    0.8956 F   0  0  0  0  0  0  0  0  0  0  0  0
  1  4  1  0  0  0  0
  2  1  1  0  0  0  0
  3  2  1  0  0  0  0
  4  5  2  0  0  0  0
  5 10  1  0  0  0  0
  6  5  1  0  0  0  0
  6 11  1  0  0  0  0
  7  6  2  0  0  0  0
  8  1  2  0  0  0  0
  8  7  1  0  0  0  0
 12  7  1  0  0  0  0
 13  8  1  0  0  0  0
 14 15  2  0  0  0  0
 15 16  1  0  0  0  0
 16  9  1  0  0  0  0
 17 15  1  0  0  0  0
 17 20  1  0  0  0  0
 18 17  1  0  0  0  0
 19 17  1  0  0  0  0
M  RAD  3   2   2   3   3   4   2
M  END
