Coordinates from ORCA-job PhN2+~CF3COO-_B3LYPG-6-31G_dp-CH-Scan-d09-49-n800
 OpenBabel11261919373D

 20 19  0  0  0  0  0  0  0  0999 V2000
   -1.3005    0.1345   -0.1710 C   0  0  0  0  0  0  0  0  0  0  0  0
   -2.6748    0.3023   -0.3431 N   0  0  0  0  0  0  0  0  0  0  0  0
   -3.7680    0.5035   -0.4753 N   0  0  0  0  0  0  0  0  0  0  0  0
   -0.6291    1.3571   -0.0164 C   0  0  0  0  0  0  0  0  0  0  0  0
    0.7632    1.1022    0.1569 C   0  0  0  0  0  0  0  0  0  0  0  0
    1.3261   -0.1697    0.1674 C   0  0  0  0  0  0  0  0  0  0  0  0
    0.5366   -1.3354   -0.0010 C   0  0  0  0  0  0  0  0  0  0  0  0
   -0.8221   -1.2046   -0.1780 C   0  0  0  0  0  0  0  0  0  0  0  0
   -3.2658    5.0031   -0.0307 H   0  0  0  0  0  0  0  0  0  0  0  0
    1.4379    1.9490    0.2922 H   0  0  0  0  0  0  0  0  0  0  0  0
    2.3995   -0.2893    0.3087 H   0  0  0  0  0  0  0  0  0  0  0  0
    0.9983   -2.3177    0.0095 H   0  0  0  0  0  0  0  0  0  0  0  0
   -1.4784   -2.0602   -0.3132 H   0  0  0  0  0  0  0  0  0  0  0  0
   -4.9261    3.3596   -0.2960 O   0  0  0  0  0  0  0  0  0  0  0  0
   -5.0808    4.5491   -0.1964 C   0  0  0  0  0  0  0  0  0  0  0  0
   -4.1206    5.4672   -0.0467 O   0  0  0  0  0  0  0  0  0  0  0  0
   -6.4641    5.2344   -0.2270 C   0  0  0  0  0  0  0  0  0  0  0  0
   -6.5310    6.1022   -1.2516 F   0  0  0  0  0  0  0  0  0  0  0  0
   -7.4268    4.3222   -0.3724 F   0  0  0  0  0  0  0  0  0  0  0  0
   -6.6751    5.9096    0.9159 F   0  0  0  0  0  0  0  0  0  0  0  0
  1  4  1  0  0  0  0
  2  1  1  0  0  0  0
  3  2  1  0  0  0  0
  4  5  2  0  0  0  0
  5  6  1  0  0  0  0
  5 10  1  0  0  0  0
  6 11  1  0  0  0  0
  7 12  1  0  0  0  0
  7  6  2  0  0  0  0
  8  1  2  0  0  0  0
  8  7  1  0  0  0  0
 13  8  1  0  0  0  0
 14 15  2  0  0  0  0
 15 16  1  0  0  0  0
 16  9  1  0  0  0  0
 17 15  1  0  0  0  0
 17 20  1  0  0  0  0
 18 17  1  0  0  0  0
 19 17  1  0  0  0  0
M  RAD  3   2   2   3   3   4   2
M  END
