Coordinates from ORCA-job PhN2+~CF3COO-_B3LYPG-6-31G_dp-CH-Scan-d09-49-n800
 OpenBabel11261919373D

 20 19  0  0  0  0  0  0  0  0999 V2000
   -1.5071    0.1747   -0.1480 C   0  0  0  0  0  0  0  0  0  0  0  0
   -2.8931    0.1937   -0.2928 N   0  0  0  0  0  0  0  0  0  0  0  0
   -4.0039    0.2667   -0.4046 N   0  0  0  0  0  0  0  0  0  0  0  0
   -0.9559    1.4577    0.0012 C   0  0  0  0  0  0  0  0  0  0  0  0
    0.4569    1.3471    0.1440 C   0  0  0  0  0  0  0  0  0  0  0  0
    1.1470    0.1391    0.1333 C   0  0  0  0  0  0  0  0  0  0  0  0
    0.4771   -1.0995   -0.0260 C   0  0  0  0  0  0  0  0  0  0  0  0
   -0.8916   -1.1069   -0.1730 C   0  0  0  0  0  0  0  0  0  0  0  0
   -3.0494    4.3164    0.0106 H   0  0  0  0  0  0  0  0  0  0  0  0
    1.0437    2.2579    0.2711 H   0  0  0  0  0  0  0  0  0  0  0  0
    2.2297    0.1301    0.2507 H   0  0  0  0  0  0  0  0  0  0  0  0
    1.0358   -2.0298   -0.0319 H   0  0  0  0  0  0  0  0  0  0  0  0
   -1.4597   -2.0247   -0.2993 H   0  0  0  0  0  0  0  0  0  0  0  0
   -5.0140    3.0469   -0.3075 O   0  0  0  0  0  0  0  0  0  0  0  0
   -4.9167    4.2426   -0.1953 C   0  0  0  0  0  0  0  0  0  0  0  0
   -3.7951    4.9415   -0.0163 O   0  0  0  0  0  0  0  0  0  0  0  0
   -6.1296    5.1976   -0.2379 C   0  0  0  0  0  0  0  0  0  0  0  0
   -5.9807    6.1004   -1.2230 F   0  0  0  0  0  0  0  0  0  0  0  0
   -7.2531    4.5098   -0.4517 F   0  0  0  0  0  0  0  0  0  0  0  0
   -6.2418    5.8576    0.9283 F   0  0  0  0  0  0  0  0  0  0  0  0
  1  4  1  0  0  0  0
  2  1  1  0  0  0  0
  3  2  1  0  0  0  0
  4  5  2  0  0  0  0
  5 10  1  0  0  0  0
  6  5  1  0  0  0  0
  6 11  1  0  0  0  0
  7  6  2  0  0  0  0
  8  1  2  0  0  0  0
  8  7  1  0  0  0  0
 12  7  1  0  0  0  0
 13  8  1  0  0  0  0
 14 15  2  0  0  0  0
 15 16  1  0  0  0  0
 16  9  1  0  0  0  0
 17 15  1  0  0  0  0
 17 20  1  0  0  0  0
 18 17  1  0  0  0  0
 19 17  1  0  0  0  0
M  RAD  3   2   2   3   3   4   2
M  END
