Coordinates from ORCA-job PhN2+~CF3COO-_B3LYPG-6-31G_dp-CH-Scan-d09-49-n800
 OpenBabel11261919373D

 20 19  0  0  0  0  0  0  0  0999 V2000
   -1.9139    0.3150   -0.1855 C   0  0  0  0  0  0  0  0  0  0  0  0
   -3.2744    0.0836   -0.3538 N   0  0  0  0  0  0  0  0  0  0  0  0
   -4.3771   -0.0310   -0.4836 N   0  0  0  0  0  0  0  0  0  0  0  0
   -1.5613    1.6678   -0.0412 C   0  0  0  0  0  0  0  0  0  0  0  0
   -0.1626    1.8076    0.1266 C   0  0  0  0  0  0  0  0  0  0  0  0
    0.7200    0.7300    0.1427 C   0  0  0  0  0  0  0  0  0  0  0  0
    0.2658   -0.5987   -0.0116 C   0  0  0  0  0  0  0  0  0  0  0  0
   -1.0818   -0.8338   -0.1814 C   0  0  0  0  0  0  0  0  0  0  0  0
   -2.6850    3.0753   -0.0543 H   0  0  0  0  0  0  0  0  0  0  0  0
    0.2502    2.8072    0.2512 H   0  0  0  0  0  0  0  0  0  0  0  0
    1.7852    0.9052    0.2779 H   0  0  0  0  0  0  0  0  0  0  0  0
    0.9673   -1.4260    0.0039 H   0  0  0  0  0  0  0  0  0  0  0  0
   -1.4855   -1.8343   -0.3050 H   0  0  0  0  0  0  0  0  0  0  0  0
   -5.0623    2.5797   -0.3282 O   0  0  0  0  0  0  0  0  0  0  0  0
   -4.5345    3.6680   -0.1913 C   0  0  0  0  0  0  0  0  0  0  0  0
   -3.2655    3.9432   -0.0454 O   0  0  0  0  0  0  0  0  0  0  0  0
   -5.3807    4.9634   -0.1759 C   0  0  0  0  0  0  0  0  0  0  0  0
   -5.0197    5.7756   -1.1890 F   0  0  0  0  0  0  0  0  0  0  0  0
   -6.6840    4.6871   -0.3034 F   0  0  0  0  0  0  0  0  0  0  0  0
   -5.2016    5.6339    0.9790 F   0  0  0  0  0  0  0  0  0  0  0  0
  1  8  2  0  0  0  0
  1  4  1  0  0  0  0
  2  1  1  0  0  0  0
  3  2  1  0  0  0  0
  4  5  2  0  0  0  0
  5  6  1  0  0  0  0
  5 10  1  0  0  0  0
  6 11  1  0  0  0  0
  7 12  1  0  0  0  0
  7  6  2  0  0  0  0
  8  7  1  0  0  0  0
  9 16  1  0  0  0  0
 13  8  1  0  0  0  0
 14 15  2  0  0  0  0
 15 17  1  0  0  0  0
 15 16  1  0  0  0  0
 17 20  1  0  0  0  0
 18 17  1  0  0  0  0
 19 17  1  0  0  0  0
M  RAD  3   2   2   3   3   4   2
M  END
