Coordinates from ORCA-job PhN2+~CF3COO-_B3LYPG-6-31G_dp-CH-Scan-d09-49-n800
 OpenBabel11261919373D

 20 19  0  0  0  0  0  0  0  0999 V2000
   -1.5060    0.1743   -0.1478 C   0  0  0  0  0  0  0  0  0  0  0  0
   -2.8920    0.1939   -0.2925 N   0  0  0  0  0  0  0  0  0  0  0  0
   -4.0027    0.2677   -0.4044 N   0  0  0  0  0  0  0  0  0  0  0  0
   -0.9543    1.4570    0.0013 C   0  0  0  0  0  0  0  0  0  0  0  0
    0.4585    1.3458    0.1440 C   0  0  0  0  0  0  0  0  0  0  0  0
    1.1481    0.1375    0.1332 C   0  0  0  0  0  0  0  0  0  0  0  0
    0.4776   -1.1008   -0.0261 C   0  0  0  0  0  0  0  0  0  0  0  0
   -0.8911   -1.1076   -0.1730 C   0  0  0  0  0  0  0  0  0  0  0  0
   -3.0505    4.3200    0.0109 H   0  0  0  0  0  0  0  0  0  0  0  0
    1.0457    2.2563    0.2710 H   0  0  0  0  0  0  0  0  0  0  0  0
    2.2308    0.1280    0.2505 H   0  0  0  0  0  0  0  0  0  0  0  0
    1.0360   -2.0314   -0.0320 H   0  0  0  0  0  0  0  0  0  0  0  0
   -1.4596   -2.0252   -0.2992 H   0  0  0  0  0  0  0  0  0  0  0  0
   -5.0137    3.0485   -0.3074 O   0  0  0  0  0  0  0  0  0  0  0  0
   -4.9177    4.2443   -0.1952 C   0  0  0  0  0  0  0  0  0  0  0  0
   -3.7968    4.9443   -0.0161 O   0  0  0  0  0  0  0  0  0  0  0  0
   -6.1315    5.1981   -0.2381 C   0  0  0  0  0  0  0  0  0  0  0  0
   -5.9833    6.1011   -1.2232 F   0  0  0  0  0  0  0  0  0  0  0  0
   -7.2543    4.5092   -0.4522 F   0  0  0  0  0  0  0  0  0  0  0  0
   -6.2447    5.8579    0.9281 F   0  0  0  0  0  0  0  0  0  0  0  0
  1  4  1  0  0  0  0
  2  1  1  0  0  0  0
  3  2  1  0  0  0  0
  4  5  2  0  0  0  0
  5 10  1  0  0  0  0
  6  5  1  0  0  0  0
  6 11  1  0  0  0  0
  7  6  2  0  0  0  0
  8  1  2  0  0  0  0
  8  7  1  0  0  0  0
 12  7  1  0  0  0  0
 13  8  1  0  0  0  0
 14 15  2  0  0  0  0
 15 16  1  0  0  0  0
 16  9  1  0  0  0  0
 17 15  1  0  0  0  0
 17 20  1  0  0  0  0
 18 17  1  0  0  0  0
 19 17  1  0  0  0  0
M  RAD  3   2   2   3   3   4   2
M  END
