Coordinates from ORCA-job PhN2+~CF3COO-_B3LYPG-6-31G_dp-CH-Scan-d09-49-n800
 OpenBabel11261919373D

 20 19  0  0  0  0  0  0  0  0999 V2000
   -1.4100    0.1498   -0.1338 C   0  0  0  0  0  0  0  0  0  0  0  0
   -2.7955    0.2383   -0.2655 N   0  0  0  0  0  0  0  0  0  0  0  0
   -3.9023    0.3721   -0.3642 N   0  0  0  0  0  0  0  0  0  0  0  0
   -0.8027    1.4056    0.0241 C   0  0  0  0  0  0  0  0  0  0  0  0
    0.6056    1.2277    0.1535 C   0  0  0  0  0  0  0  0  0  0  0  0
    1.2396   -0.0102    0.1239 C   0  0  0  0  0  0  0  0  0  0  0  0
    0.5126   -1.2156   -0.0430 C   0  0  0  0  0  0  0  0  0  0  0  0
   -0.8561   -1.1592   -0.1782 C   0  0  0  0  0  0  0  0  0  0  0  0
   -3.1500    4.6552    0.0614 H   0  0  0  0  0  0  0  0  0  0  0  0
    1.2352    2.1090    0.2853 H   0  0  0  0  0  0  0  0  0  0  0  0
    2.3219   -0.0704    0.2317 H   0  0  0  0  0  0  0  0  0  0  0  0
    1.0287   -2.1702   -0.0639 H   0  0  0  0  0  0  0  0  0  0  0  0
   -1.4669   -2.0485   -0.3096 H   0  0  0  0  0  0  0  0  0  0  0  0
   -4.9658    3.1937   -0.2829 O   0  0  0  0  0  0  0  0  0  0  0  0
   -4.9950    4.3933   -0.1830 C   0  0  0  0  0  0  0  0  0  0  0  0
   -3.9516    5.2041    0.0117 O   0  0  0  0  0  0  0  0  0  0  0  0
   -6.2959    5.2212   -0.2659 C   0  0  0  0  0  0  0  0  0  0  0  0
   -6.2234    6.1036   -1.2777 F   0  0  0  0  0  0  0  0  0  0  0  0
   -7.3414    4.4179   -0.4698 F   0  0  0  0  0  0  0  0  0  0  0  0
   -6.4884    5.9015    0.8775 F   0  0  0  0  0  0  0  0  0  0  0  0
  1  4  1  0  0  0  0
  2  1  1  0  0  0  0
  3  2  1  0  0  0  0
  4  5  2  0  0  0  0
  5 10  1  0  0  0  0
  6  5  1  0  0  0  0
  6 11  1  0  0  0  0
  7  6  2  0  0  0  0
  8  1  2  0  0  0  0
  8  7  1  0  0  0  0
 12  7  1  0  0  0  0
 13  8  1  0  0  0  0
 14 15  2  0  0  0  0
 15 16  1  0  0  0  0
 16  9  1  0  0  0  0
 17 15  1  0  0  0  0
 17 20  1  0  0  0  0
 18 17  1  0  0  0  0
 19 17  1  0  0  0  0
M  RAD  3   2   2   3   3   4   2
M  END
