Coordinates from ORCA-job PhN2+~CF3COO-_B3LYPG-6-31G_dp-CH-Scan-d09-49-n800
 OpenBabel11261919373D

 20 19  0  0  0  0  0  0  0  0999 V2000
   -1.7838    0.2678   -0.1633 C   0  0  0  0  0  0  0  0  0  0  0  0
   -3.1572    0.1119   -0.3152 N   0  0  0  0  0  0  0  0  0  0  0  0
   -4.2657    0.0383   -0.4333 N   0  0  0  0  0  0  0  0  0  0  0  0
   -1.3711    1.6026   -0.0103 C   0  0  0  0  0  0  0  0  0  0  0  0
    0.0389    1.6648    0.1394 C   0  0  0  0  0  0  0  0  0  0  0  0
    0.8654    0.5444    0.1321 C   0  0  0  0  0  0  0  0  0  0  0  0
    0.3437   -0.7606   -0.0298 C   0  0  0  0  0  0  0  0  0  0  0  0
   -1.0150   -0.9266   -0.1833 C   0  0  0  0  0  0  0  0  0  0  0  0
   -2.8212    3.4542   -0.0103 H   0  0  0  0  0  0  0  0  0  0  0  0
    0.5094    2.6388    0.2691 H   0  0  0  0  0  0  0  0  0  0  0  0
    1.9405    0.6633    0.2542 H   0  0  0  0  0  0  0  0  0  0  0  0
    1.0045   -1.6211   -0.0326 H   0  0  0  0  0  0  0  0  0  0  0  0
   -1.4704   -1.9045   -0.3118 H   0  0  0  0  0  0  0  0  0  0  0  0
   -5.0741    2.7090   -0.3338 O   0  0  0  0  0  0  0  0  0  0  0  0
   -4.6707    3.8413   -0.1925 C   0  0  0  0  0  0  0  0  0  0  0  0
   -3.4248    4.2406   -0.0126 O   0  0  0  0  0  0  0  0  0  0  0  0
   -5.6232    5.0585   -0.2057 C   0  0  0  0  0  0  0  0  0  0  0  0
   -5.2985    5.8981   -1.2063 F   0  0  0  0  0  0  0  0  0  0  0  0
   -6.8882    4.6629   -0.3768 F   0  0  0  0  0  0  0  0  0  0  0  0
   -5.5399    5.7351    0.9546 F   0  0  0  0  0  0  0  0  0  0  0  0
  1  4  1  0  0  0  0
  2  1  1  0  0  0  0
  3  2  1  0  0  0  0
  4  5  2  0  0  0  0
  5 10  1  0  0  0  0
  6  5  1  0  0  0  0
  6 11  1  0  0  0  0
  7  6  2  0  0  0  0
  8  1  2  0  0  0  0
  8  7  1  0  0  0  0
 12  7  1  0  0  0  0
 13  8  1  0  0  0  0
 14 15  2  0  0  0  0
 15 16  1  0  0  0  0
 16  9  1  0  0  0  0
 17 15  1  0  0  0  0
 17 20  1  0  0  0  0
 18 17  1  0  0  0  0
 19 17  1  0  0  0  0
M  RAD  3   2   2   3   3   4   2
M  END
