Coordinates from ORCA-job PhN2+~CF3COO-_B3LYPG-6-31G_dp-CH-Scan-d09-49-n800
 OpenBabel11261919373D

 20 19  0  0  0  0  0  0  0  0999 V2000
   -1.4839    0.1673   -0.1457 C   0  0  0  0  0  0  0  0  0  0  0  0
   -2.8700    0.2017   -0.2886 N   0  0  0  0  0  0  0  0  0  0  0  0
   -3.9801    0.2887   -0.3986 N   0  0  0  0  0  0  0  0  0  0  0  0
   -0.9206    1.4448    0.0038 C   0  0  0  0  0  0  0  0  0  0  0  0
    0.4914    1.3197    0.1448 C   0  0  0  0  0  0  0  0  0  0  0  0
    1.1694    0.1049    0.1322 C   0  0  0  0  0  0  0  0  0  0  0  0
    0.4870   -1.1270   -0.0274 C   0  0  0  0  0  0  0  0  0  0  0  0
   -0.8819   -1.1207   -0.1727 C   0  0  0  0  0  0  0  0  0  0  0  0
   -3.0723    4.3912    0.0161 H   0  0  0  0  0  0  0  0  0  0  0  0
    1.0877    2.2243    0.2718 H   0  0  0  0  0  0  0  0  0  0  0  0
    2.2522    0.0848    0.2482 H   0  0  0  0  0  0  0  0  0  0  0  0
    1.0366   -2.0628   -0.0348 H   0  0  0  0  0  0  0  0  0  0  0  0
   -1.4593   -2.0327   -0.2990 H   0  0  0  0  0  0  0  0  0  0  0  0
   -5.0074    3.0798   -0.3044 O   0  0  0  0  0  0  0  0  0  0  0  0
   -4.9370    4.2774   -0.1943 C   0  0  0  0  0  0  0  0  0  0  0  0
   -3.8305    5.0006   -0.0135 O   0  0  0  0  0  0  0  0  0  0  0  0
   -6.1696    5.2064   -0.2422 C   0  0  0  0  0  0  0  0  0  0  0  0
   -6.0364    6.1106   -1.2281 F   0  0  0  0  0  0  0  0  0  0  0  0
   -7.2774    4.4946   -0.4586 F   0  0  0  0  0  0  0  0  0  0  0  0
   -6.2994    5.8654    0.9227 F   0  0  0  0  0  0  0  0  0  0  0  0
  1  4  1  0  0  0  0
  2  1  1  0  0  0  0
  3  2  1  0  0  0  0
  4  5  2  0  0  0  0
  5 10  1  0  0  0  0
  6  5  1  0  0  0  0
  6 11  1  0  0  0  0
  7  6  2  0  0  0  0
  8  1  2  0  0  0  0
  8  7  1  0  0  0  0
 12  7  1  0  0  0  0
 13  8  1  0  0  0  0
 14 15  2  0  0  0  0
 15 16  1  0  0  0  0
 16  9  1  0  0  0  0
 17 15  1  0  0  0  0
 17 20  1  0  0  0  0
 18 17  1  0  0  0  0
 19 17  1  0  0  0  0
M  RAD  3   2   2   3   3   4   2
M  END
