Coordinates from ORCA-job PhN2+~CF3COO-_B3LYPG-6-31G_dp-CH-Scan-d09-49-n800
 OpenBabel11261919373D

 20 19  0  0  0  0  0  0  0  0999 V2000
   -1.5751    0.1986   -0.1532 C   0  0  0  0  0  0  0  0  0  0  0  0
   -2.9596    0.1739   -0.3018 N   0  0  0  0  0  0  0  0  0  0  0  0
   -4.0716    0.2072   -0.4174 N   0  0  0  0  0  0  0  0  0  0  0  0
   -1.0577    1.4956   -0.0010 C   0  0  0  0  0  0  0  0  0  0  0  0
    0.3562    1.4270    0.1457 C   0  0  0  0  0  0  0  0  0  0  0  0
    1.0806    0.2389    0.1357 C   0  0  0  0  0  0  0  0  0  0  0  0
    0.4466   -1.0175   -0.0267 C   0  0  0  0  0  0  0  0  0  0  0  0
   -0.9211   -1.0637   -0.1775 C   0  0  0  0  0  0  0  0  0  0  0  0
   -2.9878    4.0954    0.0027 H   0  0  0  0  0  0  0  0  0  0  0  0
    0.9154    2.3542    0.2753 H   0  0  0  0  0  0  0  0  0  0  0  0
    2.1627    0.2610    0.2561 H   0  0  0  0  0  0  0  0  0  0  0  0
    1.0311   -1.9318   -0.0320 H   0  0  0  0  0  0  0  0  0  0  0  0
   -1.4620   -1.9974   -0.3062 H   0  0  0  0  0  0  0  0  0  0  0  0
   -5.0346    2.9535   -0.3137 O   0  0  0  0  0  0  0  0  0  0  0  0
   -4.8581    4.1403   -0.1947 C   0  0  0  0  0  0  0  0  0  0  0  0
   -3.6958    4.7651   -0.0172 O   0  0  0  0  0  0  0  0  0  0  0  0
   -6.0095    5.1692   -0.2288 C   0  0  0  0  0  0  0  0  0  0  0  0
   -5.8181    6.0538   -1.2232 F   0  0  0  0  0  0  0  0  0  0  0  0
   -7.1769    4.5515   -0.4231 F   0  0  0  0  0  0  0  0  0  0  0  0
   -6.0663    5.8441    0.9330 F   0  0  0  0  0  0  0  0  0  0  0  0
  1  4  1  0  0  0  0
  2  1  1  0  0  0  0
  3  2  1  0  0  0  0
  4  5  2  0  0  0  0
  5 10  1  0  0  0  0
  6  5  1  0  0  0  0
  6 11  1  0  0  0  0
  7  6  2  0  0  0  0
  8  1  2  0  0  0  0
  8  7  1  0  0  0  0
 12  7  1  0  0  0  0
 13  8  1  0  0  0  0
 14 15  2  0  0  0  0
 15 16  1  0  0  0  0
 16  9  1  0  0  0  0
 17 15  1  0  0  0  0
 17 20  1  0  0  0  0
 18 17  1  0  0  0  0
 19 17  1  0  0  0  0
M  RAD  3   2   2   3   3   4   2
M  END
