Coordinates from ORCA-job PhN2+~CF3COO-_B3LYPG-6-31G_dp-CH-Scan-d09-49-n800
 OpenBabel11261919373D

 20 19  0  0  0  0  0  0  0  0999 V2000
   -1.7386    0.2519   -0.1590 C   0  0  0  0  0  0  0  0  0  0  0  0
   -3.1154    0.1229   -0.3084 N   0  0  0  0  0  0  0  0  0  0  0  0
   -4.2256    0.0701   -0.4243 N   0  0  0  0  0  0  0  0  0  0  0  0
   -1.3042    1.5793   -0.0032 C   0  0  0  0  0  0  0  0  0  0  0  0
    0.1078    1.6145    0.1440 C   0  0  0  0  0  0  0  0  0  0  0  0
    0.9140    0.4796    0.1316 C   0  0  0  0  0  0  0  0  0  0  0  0
    0.3689   -0.8160   -0.0332 C   0  0  0  0  0  0  0  0  0  0  0  0
   -0.9926   -0.9574   -0.1845 C   0  0  0  0  0  0  0  0  0  0  0  0
   -2.8604    3.5830   -0.0004 H   0  0  0  0  0  0  0  0  0  0  0  0
    0.5973    2.5791    0.2756 H   0  0  0  0  0  0  0  0  0  0  0  0
    1.9914    0.5784    0.2521 H   0  0  0  0  0  0  0  0  0  0  0  0
    1.0147   -1.6879   -0.0399 H   0  0  0  0  0  0  0  0  0  0  0  0
   -1.4659   -1.9266   -0.3151 H   0  0  0  0  0  0  0  0  0  0  0  0
   -5.0749    2.7570   -0.3289 O   0  0  0  0  0  0  0  0  0  0  0  0
   -4.7155    3.9031   -0.1915 C   0  0  0  0  0  0  0  0  0  0  0  0
   -3.4820    4.3470   -0.0080 O   0  0  0  0  0  0  0  0  0  0  0  0
   -5.7073    5.0881   -0.2139 C   0  0  0  0  0  0  0  0  0  0  0  0
   -5.4060    5.9325   -1.2171 F   0  0  0  0  0  0  0  0  0  0  0  0
   -6.9570    4.6488   -0.3877 F   0  0  0  0  0  0  0  0  0  0  0  0
   -5.6501    5.7715    0.9436 F   0  0  0  0  0  0  0  0  0  0  0  0
  1  4  1  0  0  0  0
  2  1  1  0  0  0  0
  3  2  1  0  0  0  0
  4  5  2  0  0  0  0
  5 10  1  0  0  0  0
  6  5  1  0  0  0  0
  6 11  1  0  0  0  0
  7  6  2  0  0  0  0
  8  1  2  0  0  0  0
  8  7  1  0  0  0  0
 12  7  1  0  0  0  0
 13  8  1  0  0  0  0
 14 15  2  0  0  0  0
 15 16  1  0  0  0  0
 16  9  1  0  0  0  0
 17 15  1  0  0  0  0
 17 20  1  0  0  0  0
 18 17  1  0  0  0  0
 19 17  1  0  0  0  0
M  RAD  3   2   2   3   3   4   2
M  END
