Coordinates from ORCA-job PhN2+~CF3COO-_B3LYPG-6-31G_dp-CH-Scan-d09-49-n800
 OpenBabel11261919373D

 20 19  0  0  0  0  0  0  0  0999 V2000
   -1.9362    0.3250   -0.1916 C   0  0  0  0  0  0  0  0  0  0  0  0
   -3.2948    0.0849   -0.3648 N   0  0  0  0  0  0  0  0  0  0  0  0
   -4.3974   -0.0253   -0.4973 N   0  0  0  0  0  0  0  0  0  0  0  0
   -1.5904    1.6790   -0.0482 C   0  0  0  0  0  0  0  0  0  0  0  0
   -0.1954    1.8325    0.1250 C   0  0  0  0  0  0  0  0  0  0  0  0
    0.6951    0.7612    0.1468 C   0  0  0  0  0  0  0  0  0  0  0  0
    0.2508   -0.5702   -0.0068 C   0  0  0  0  0  0  0  0  0  0  0  0
   -1.0948   -0.8157   -0.1818 C   0  0  0  0  0  0  0  0  0  0  0  0
   -2.6495    2.9971   -0.0654 H   0  0  0  0  0  0  0  0  0  0  0  0
    0.2068    2.8363    0.2493 H   0  0  0  0  0  0  0  0  0  0  0  0
    1.7583    0.9446    0.2859 H   0  0  0  0  0  0  0  0  0  0  0  0
    0.9580   -1.3927    0.0130 H   0  0  0  0  0  0  0  0  0  0  0  0
   -1.4903   -1.8194   -0.3050 H   0  0  0  0  0  0  0  0  0  0  0  0
   -5.0607    2.5569   -0.3179 O   0  0  0  0  0  0  0  0  0  0  0  0
   -4.5096    3.6374   -0.1892 C   0  0  0  0  0  0  0  0  0  0  0  0
   -3.2395    3.8918   -0.0573 O   0  0  0  0  0  0  0  0  0  0  0  0
   -5.3405    4.9435   -0.1702 C   0  0  0  0  0  0  0  0  0  0  0  0
   -4.9800    5.7488   -1.1898 F   0  0  0  0  0  0  0  0  0  0  0  0
   -6.6496    4.6861   -0.2835 F   0  0  0  0  0  0  0  0  0  0  0  0
   -5.1418    5.6170    0.9804 F   0  0  0  0  0  0  0  0  0  0  0  0
  1  8  2  0  0  0  0
  1  4  1  0  0  0  0
  2  1  1  0  0  0  0
  3  2  1  0  0  0  0
  4  5  2  0  0  0  0
  5  6  1  0  0  0  0
  5 10  1  0  0  0  0
  6 11  1  0  0  0  0
  7 12  1  0  0  0  0
  7  6  2  0  0  0  0
  8  7  1  0  0  0  0
  9 16  1  0  0  0  0
 13  8  1  0  0  0  0
 14 15  2  0  0  0  0
 15 17  1  0  0  0  0
 15 16  1  0  0  0  0
 17 20  1  0  0  0  0
 18 17  1  0  0  0  0
 19 17  1  0  0  0  0
M  RAD  3   2   2   3   3   4   2
M  END
