Coordinates from ORCA-job PhN2+~CF3COO-_B3LYPG-6-31G_dp-CH-Scan-d09-49-n800
 OpenBabel11261919373D

 20 19  0  0  0  0  0  0  0  0999 V2000
   -1.8592    0.2939   -0.1732 C   0  0  0  0  0  0  0  0  0  0  0  0
   -3.2254    0.0921   -0.3319 N   0  0  0  0  0  0  0  0  0  0  0  0
   -4.3305   -0.0105   -0.4550 N   0  0  0  0  0  0  0  0  0  0  0  0
   -1.4830    1.6403   -0.0249 C   0  0  0  0  0  0  0  0  0  0  0  0
   -0.0782    1.7472    0.1322 C   0  0  0  0  0  0  0  0  0  0  0  0
    0.7820    0.6521    0.1356 C   0  0  0  0  0  0  0  0  0  0  0  0
    0.3002   -0.6675   -0.0220 C   0  0  0  0  0  0  0  0  0  0  0  0
   -1.0525   -0.8744   -0.1822 C   0  0  0  0  0  0  0  0  0  0  0  0
   -2.7498    3.2411   -0.0299 H   0  0  0  0  0  0  0  0  0  0  0  0
    0.3596    2.7363    0.2590 H   0  0  0  0  0  0  0  0  0  0  0  0
    1.8520    0.8045    0.2630 H   0  0  0  0  0  0  0  0  0  0  0  0
    0.9856   -1.5085   -0.0165 H   0  0  0  0  0  0  0  0  0  0  0  0
   -1.4777   -1.8659   -0.3078 H   0  0  0  0  0  0  0  0  0  0  0  0
   -5.0684    2.6337   -0.3376 O   0  0  0  0  0  0  0  0  0  0  0  0
   -4.5936    3.7409   -0.1930 C   0  0  0  0  0  0  0  0  0  0  0  0
   -3.3319    4.0677   -0.0247 O   0  0  0  0  0  0  0  0  0  0  0  0
   -5.4825    5.0063   -0.1905 C   0  0  0  0  0  0  0  0  0  0  0  0
   -5.1291    5.8322   -1.1938 F   0  0  0  0  0  0  0  0  0  0  0  0
   -6.7705    4.6812   -0.3446 F   0  0  0  0  0  0  0  0  0  0  0  0
   -5.3487    5.6763    0.9698 F   0  0  0  0  0  0  0  0  0  0  0  0
  1  4  1  0  0  0  0
  2  1  1  0  0  0  0
  3  2  1  0  0  0  0
  4  5  2  0  0  0  0
  5  6  1  0  0  0  0
  5 10  1  0  0  0  0
  6 11  1  0  0  0  0
  7 12  1  0  0  0  0
  7  6  2  0  0  0  0
  8  1  2  0  0  0  0
  8  7  1  0  0  0  0
  9 16  1  0  0  0  0
 13  8  1  0  0  0  0
 14 15  2  0  0  0  0
 15 17  1  0  0  0  0
 15 16  1  0  0  0  0
 17 20  1  0  0  0  0
 18 17  1  0  0  0  0
 19 17  1  0  0  0  0
M  RAD  3   2   2   3   3   4   2
M  END
