Coordinates from ORCA-job PhN2+~CF3COO-_B3LYPG-6-31G_dp-CH-Scan-d09-49-n800
 OpenBabel11261919373D

 20 19  0  0  0  0  0  0  0  0999 V2000
   -1.4894    0.1689   -0.1462 C   0  0  0  0  0  0  0  0  0  0  0  0
   -2.8755    0.1996   -0.2897 N   0  0  0  0  0  0  0  0  0  0  0  0
   -3.9858    0.2832   -0.4002 N   0  0  0  0  0  0  0  0  0  0  0  0
   -0.9290    1.4478    0.0031 C   0  0  0  0  0  0  0  0  0  0  0  0
    0.4832    1.3262    0.1445 C   0  0  0  0  0  0  0  0  0  0  0  0
    1.1641    0.1131    0.1325 C   0  0  0  0  0  0  0  0  0  0  0  0
    0.4847   -1.1205   -0.0270 C   0  0  0  0  0  0  0  0  0  0  0  0
   -0.8841   -1.1175   -0.1727 C   0  0  0  0  0  0  0  0  0  0  0  0
   -3.0669    4.3733    0.0147 H   0  0  0  0  0  0  0  0  0  0  0  0
    1.0772    2.2324    0.2716 H   0  0  0  0  0  0  0  0  0  0  0  0
    2.2469    0.0956    0.2488 H   0  0  0  0  0  0  0  0  0  0  0  0
    1.0366   -2.0550   -0.0339 H   0  0  0  0  0  0  0  0  0  0  0  0
   -1.4593   -2.0309   -0.2990 H   0  0  0  0  0  0  0  0  0  0  0  0
   -5.0092    3.0719   -0.3053 O   0  0  0  0  0  0  0  0  0  0  0  0
   -4.9323    4.2691   -0.1946 C   0  0  0  0  0  0  0  0  0  0  0  0
   -3.8221    4.9865   -0.0143 O   0  0  0  0  0  0  0  0  0  0  0  0
   -6.1601    5.2045   -0.2411 C   0  0  0  0  0  0  0  0  0  0  0  0
   -6.0231    6.1086   -1.2266 F   0  0  0  0  0  0  0  0  0  0  0  0
   -7.2718    4.4986   -0.4571 F   0  0  0  0  0  0  0  0  0  0  0  0
   -6.2857    5.8635    0.9243 F   0  0  0  0  0  0  0  0  0  0  0  0
  1  4  1  0  0  0  0
  2  1  1  0  0  0  0
  3  2  1  0  0  0  0
  4  5  2  0  0  0  0
  5 10  1  0  0  0  0
  6  5  1  0  0  0  0
  6 11  1  0  0  0  0
  7  6  2  0  0  0  0
  8  1  2  0  0  0  0
  8  7  1  0  0  0  0
 12  7  1  0  0  0  0
 13  8  1  0  0  0  0
 14 15  2  0  0  0  0
 15 16  1  0  0  0  0
 16  9  1  0  0  0  0
 17 15  1  0  0  0  0
 17 20  1  0  0  0  0
 18 17  1  0  0  0  0
 19 17  1  0  0  0  0
M  RAD  3   2   2   3   3   4   2
M  END
