Coordinates from ORCA-job PhN2+~CF3COO-_B3LYPG-6-31G_dp-CH-Scan-d09-49-n800
 OpenBabel11261919373D

 20 19  0  0  0  0  0  0  0  0999 V2000
   -1.3085    0.7205   -1.2204 C   0  0  0  0  0  0  0  0  0  0  0  0
   -2.1824    0.8433   -2.3000 N   0  0  0  0  0  0  0  0  0  0  0  0
   -2.8157    0.9582   -3.2152 N   0  0  0  0  0  0  0  0  0  0  0  0
    0.0174    0.9818   -1.5959 C   0  0  0  0  0  0  0  0  0  0  0  0
    0.8602    0.8297   -0.4555 C   0  0  0  0  0  0  0  0  0  0  0  0
    0.4004    0.4678    0.8067 C   0  0  0  0  0  0  0  0  0  0  0  0
   -0.9746    0.2295    1.0598 C   0  0  0  0  0  0  0  0  0  0  0  0
   -1.8789    0.3560    0.0293 C   0  0  0  0  0  0  0  0  0  0  0  0
   -2.8600    4.7255   -0.6535 H   0  0  0  0  0  0  0  0  0  0  0  0
    1.9318    1.0031   -0.5685 H   0  0  0  0  0  0  0  0  0  0  0  0
    1.1029    0.3618    1.6324 H   0  0  0  0  0  0  0  0  0  0  0  0
   -1.3091   -0.0491    2.0541 H   0  0  0  0  0  0  0  0  0  0  0  0
   -2.9458    0.1986    0.1591 H   0  0  0  0  0  0  0  0  0  0  0  0
   -4.0532    2.7119   -0.8688 O   0  0  0  0  0  0  0  0  0  0  0  0
   -4.3522    3.6747   -0.2081 C   0  0  0  0  0  0  0  0  0  0  0  0
   -3.6595    4.8112   -0.1059 O   0  0  0  0  0  0  0  0  0  0  0  0
   -5.6322    3.7530    0.6524 C   0  0  0  0  0  0  0  0  0  0  0  0
   -6.4270    4.7402    0.2077 F   0  0  0  0  0  0  0  0  0  0  0  0
   -6.2981    2.5988    0.5882 F   0  0  0  0  0  0  0  0  0  0  0  0
   -5.3168    4.0026    1.9338 F   0  0  0  0  0  0  0  0  0  0  0  0
  1  8  1  0  0  0  0
  2  1  1  0  0  0  0
  3  2  1  0  0  0  0
  4  1  2  0  0  0  0
  4  5  1  0  0  0  0
  5  6  2  0  0  0  0
  6  7  1  0  0  0  0
  6 11  1  0  0  0  0
  7 12  1  0  0  0  0
  8 13  1  0  0  0  0
  8  7  2  0  0  0  0
  9 16  1  0  0  0  0
 10  5  1  0  0  0  0
 14 15  2  0  0  0  0
 15 16  1  0  0  0  0
 15 17  1  0  0  0  0
 17 20  1  0  0  0  0
 18 17  1  0  0  0  0
 19 17  1  0  0  0  0
M  RAD  3   2   2   3   3   4   2
M  END
