Coordinates from ORCA-job PhN2+~CF3COO-_B3LYPG-6-31G_dp-CH-Scan-d09-49-n800
 OpenBabel11261919373D

 20 19  0  0  0  0  0  0  0  0999 V2000
   -1.8568    0.2930   -0.1728 C   0  0  0  0  0  0  0  0  0  0  0  0
   -3.2232    0.0926   -0.3312 N   0  0  0  0  0  0  0  0  0  0  0  0
   -4.3285   -0.0092   -0.4541 N   0  0  0  0  0  0  0  0  0  0  0  0
   -1.4796    1.6390   -0.0243 C   0  0  0  0  0  0  0  0  0  0  0  0
   -0.0745    1.7446    0.1325 C   0  0  0  0  0  0  0  0  0  0  0  0
    0.7847    0.6487    0.1353 C   0  0  0  0  0  0  0  0  0  0  0  0
    0.3017   -0.6705   -0.0224 C   0  0  0  0  0  0  0  0  0  0  0  0
   -1.0513   -0.8761   -0.1822 C   0  0  0  0  0  0  0  0  0  0  0  0
   -2.7523    3.2479   -0.0290 H   0  0  0  0  0  0  0  0  0  0  0  0
    0.3644    2.7333    0.2594 H   0  0  0  0  0  0  0  0  0  0  0  0
    1.8549    0.8001    0.2625 H   0  0  0  0  0  0  0  0  0  0  0  0
    0.9863   -1.5121   -0.0172 H   0  0  0  0  0  0  0  0  0  0  0  0
   -1.4774   -1.8672   -0.3080 H   0  0  0  0  0  0  0  0  0  0  0  0
   -5.0687    2.6360   -0.3377 O   0  0  0  0  0  0  0  0  0  0  0  0
   -4.5961    3.7441   -0.1930 C   0  0  0  0  0  0  0  0  0  0  0  0
   -3.3348    4.0731   -0.0241 O   0  0  0  0  0  0  0  0  0  0  0  0
   -5.4869    5.0080   -0.1910 C   0  0  0  0  0  0  0  0  0  0  0  0
   -5.1341    5.8345   -1.1941 F   0  0  0  0  0  0  0  0  0  0  0  0
   -6.7743    4.6808   -0.3461 F   0  0  0  0  0  0  0  0  0  0  0  0
   -5.3550    5.6782    0.9694 F   0  0  0  0  0  0  0  0  0  0  0  0
  1  4  1  0  0  0  0
  2  1  1  0  0  0  0
  3  2  1  0  0  0  0
  4  5  2  0  0  0  0
  5  6  1  0  0  0  0
  5 10  1  0  0  0  0
  6 11  1  0  0  0  0
  7 12  1  0  0  0  0
  7  6  2  0  0  0  0
  8  1  2  0  0  0  0
  8  7  1  0  0  0  0
  9 16  1  0  0  0  0
 13  8  1  0  0  0  0
 14 15  2  0  0  0  0
 15 17  1  0  0  0  0
 15 16  1  0  0  0  0
 17 20  1  0  0  0  0
 18 17  1  0  0  0  0
 19 17  1  0  0  0  0
M  RAD  3   2   2   3   3   4   2
M  END
