Coordinates from ORCA-job PhN2+~CF3COO-_B3LYPG-6-31G_dp-CH-Scan-d09-49-n800
 OpenBabel11261919373D

 20 19  0  0  0  0  0  0  0  0999 V2000
   -1.7568    0.2584   -0.1606 C   0  0  0  0  0  0  0  0  0  0  0  0
   -3.1324    0.1189   -0.3108 N   0  0  0  0  0  0  0  0  0  0  0  0
   -4.2419    0.0574   -0.4276 N   0  0  0  0  0  0  0  0  0  0  0  0
   -1.3311    1.5888   -0.0060 C   0  0  0  0  0  0  0  0  0  0  0  0
    0.0802    1.6349    0.1421 C   0  0  0  0  0  0  0  0  0  0  0  0
    0.8945    0.5058    0.1317 C   0  0  0  0  0  0  0  0  0  0  0  0
    0.3588   -0.7936   -0.0319 C   0  0  0  0  0  0  0  0  0  0  0  0
   -1.0017   -0.9450   -0.1839 C   0  0  0  0  0  0  0  0  0  0  0  0
   -2.8449    3.5303   -0.0044 H   0  0  0  0  0  0  0  0  0  0  0  0
    0.5621    2.6034    0.2729 H   0  0  0  0  0  0  0  0  0  0  0  0
    1.9710    0.6127    0.2527 H   0  0  0  0  0  0  0  0  0  0  0  0
    1.0106   -1.6610   -0.0371 H   0  0  0  0  0  0  0  0  0  0  0  0
   -1.4678   -1.9177   -0.3136 H   0  0  0  0  0  0  0  0  0  0  0  0
   -5.0750    2.7373   -0.3310 O   0  0  0  0  0  0  0  0  0  0  0  0
   -4.6976    3.8779   -0.1920 C   0  0  0  0  0  0  0  0  0  0  0  0
   -3.4588    4.3035   -0.0098 O   0  0  0  0  0  0  0  0  0  0  0  0
   -5.6733    5.0763   -0.2107 C   0  0  0  0  0  0  0  0  0  0  0  0
   -5.3619    5.9191   -1.2123 F   0  0  0  0  0  0  0  0  0  0  0  0
   -6.9294    4.6549   -0.3842 F   0  0  0  0  0  0  0  0  0  0  0  0
   -5.6059    5.7566    0.9483 F   0  0  0  0  0  0  0  0  0  0  0  0
  1  4  1  0  0  0  0
  2  1  1  0  0  0  0
  3  2  1  0  0  0  0
  4  5  2  0  0  0  0
  5 10  1  0  0  0  0
  6  5  1  0  0  0  0
  6 11  1  0  0  0  0
  7  6  2  0  0  0  0
  8  1  2  0  0  0  0
  8  7  1  0  0  0  0
 12  7  1  0  0  0  0
 13  8  1  0  0  0  0
 14 15  2  0  0  0  0
 15 16  1  0  0  0  0
 16  9  1  0  0  0  0
 17 15  1  0  0  0  0
 17 20  1  0  0  0  0
 18 17  1  0  0  0  0
 19 17  1  0  0  0  0
M  RAD  3   2   2   3   3   4   2
M  END
