Coordinates from ORCA-job PhN2+~CF3COO-_B3LYPG-6-31G_dp-CH-Scan-d09-49-n800
 OpenBabel11261919373D

 20 19  0  0  0  0  0  0  0  0999 V2000
   -1.6811    0.2323   -0.1548 C   0  0  0  0  0  0  0  0  0  0  0  0
   -3.0616    0.1392   -0.3021 N   0  0  0  0  0  0  0  0  0  0  0  0
   -4.1734    0.1147   -0.4156 N   0  0  0  0  0  0  0  0  0  0  0  0
   -1.2185    1.5493    0.0050 C   0  0  0  0  0  0  0  0  0  0  0  0
    0.1953    1.5492    0.1500 C   0  0  0  0  0  0  0  0  0  0  0  0
    0.9743    0.3959    0.1321 C   0  0  0  0  0  0  0  0  0  0  0  0
    0.3989   -0.8866   -0.0369 C   0  0  0  0  0  0  0  0  0  0  0  0
   -0.9656   -0.9956   -0.1865 C   0  0  0  0  0  0  0  0  0  0  0  0
   -2.9069    3.7546    0.0115 H   0  0  0  0  0  0  0  0  0  0  0  0
    0.7088    2.5012    0.2845 H   0  0  0  0  0  0  0  0  0  0  0  0
    2.0541    0.4684    0.2514 H   0  0  0  0  0  0  0  0  0  0  0  0
    1.0245   -1.7731   -0.0481 H   0  0  0  0  0  0  0  0  0  0  0  0
   -1.4620   -1.9528   -0.3201 H   0  0  0  0  0  0  0  0  0  0  0  0
   -5.0680    2.8216   -0.3209 O   0  0  0  0  0  0  0  0  0  0  0  0
   -4.7688    3.9841   -0.1895 C   0  0  0  0  0  0  0  0  0  0  0  0
   -3.5558    4.4885   -0.0030 O   0  0  0  0  0  0  0  0  0  0  0  0
   -5.8142    5.1213   -0.2237 C   0  0  0  0  0  0  0  0  0  0  0  0
   -5.5500    5.9691   -1.2340 F   0  0  0  0  0  0  0  0  0  0  0  0
   -7.0409    4.6215   -0.3953 F   0  0  0  0  0  0  0  0  0  0  0  0
   -5.7905    5.8163    0.9277 F   0  0  0  0  0  0  0  0  0  0  0  0
  1  4  1  0  0  0  0
  2  1  1  0  0  0  0
  3  2  1  0  0  0  0
  4  5  2  0  0  0  0
  5 10  1  0  0  0  0
  6  5  1  0  0  0  0
  6 11  1  0  0  0  0
  7  6  2  0  0  0  0
  8  1  2  0  0  0  0
  8  7  1  0  0  0  0
 12  7  1  0  0  0  0
 13  8  1  0  0  0  0
 14 15  2  0  0  0  0
 15 16  1  0  0  0  0
 16  9  1  0  0  0  0
 17 15  1  0  0  0  0
 17 20  1  0  0  0  0
 18 17  1  0  0  0  0
 19 17  1  0  0  0  0
M  RAD  3   2   2   3   3   4   2
M  END
