Coordinates from ORCA-job PhN2+~CF3COO-_B3LYPG-6-31G_dp-CH-Scan-d09-49-n800
 OpenBabel11261919373D

 20 19  0  0  0  0  0  0  0  0999 V2000
   -1.9594    0.3403   -0.2001 C   0  0  0  0  0  0  0  0  0  0  0  0
   -3.3188    0.1032   -0.3805 N   0  0  0  0  0  0  0  0  0  0  0  0
   -4.4256    0.0456   -0.5135 N   0  0  0  0  0  0  0  0  0  0  0  0
   -1.6112    1.6917   -0.0567 C   0  0  0  0  0  0  0  0  0  0  0  0
   -0.2233    1.8617    0.1250 C   0  0  0  0  0  0  0  0  0  0  0  0
    0.6720    0.7934    0.1541 C   0  0  0  0  0  0  0  0  0  0  0  0
    0.2337   -0.5385    0.0005 C   0  0  0  0  0  0  0  0  0  0  0  0
   -1.1109   -0.7916   -0.1825 C   0  0  0  0  0  0  0  0  0  0  0  0
   -2.5815    2.8689   -0.0829 H   0  0  0  0  0  0  0  0  0  0  0  0
    0.1665    2.8698    0.2491 H   0  0  0  0  0  0  0  0  0  0  0  0
    1.7331    0.9822    0.2992 H   0  0  0  0  0  0  0  0  0  0  0  0
    0.9441   -1.3578    0.0262 H   0  0  0  0  0  0  0  0  0  0  0  0
   -1.5002   -1.7975   -0.3057 H   0  0  0  0  0  0  0  0  0  0  0  0
   -5.0725    2.5269   -0.2992 O   0  0  0  0  0  0  0  0  0  0  0  0
   -4.4847    3.5971   -0.1881 C   0  0  0  0  0  0  0  0  0  0  0  0
   -3.2181    3.8251   -0.0817 O   0  0  0  0  0  0  0  0  0  0  0  0
   -5.3018    4.9141   -0.1637 C   0  0  0  0  0  0  0  0  0  0  0  0
   -4.9481    5.7111   -1.1936 F   0  0  0  0  0  0  0  0  0  0  0  0
   -6.6183    4.6795   -0.2541 F   0  0  0  0  0  0  0  0  0  0  0  0
   -5.0763    5.5936    0.9798 F   0  0  0  0  0  0  0  0  0  0  0  0
  1  8  2  0  0  0  0
  1  4  1  0  0  0  0
  2  1  1  0  0  0  0
  3  2  1  0  0  0  0
  4  5  2  0  0  0  0
  5  6  1  0  0  0  0
  5 10  1  0  0  0  0
  6 11  1  0  0  0  0
  7 12  1  0  0  0  0
  7  6  2  0  0  0  0
  8  7  1  0  0  0  0
  9 16  1  0  0  0  0
 13  8  1  0  0  0  0
 14 15  2  0  0  0  0
 15 17  1  0  0  0  0
 15 16  1  0  0  0  0
 17 20  1  0  0  0  0
 18 17  1  0  0  0  0
 19 17  1  0  0  0  0
M  RAD  3   2   2   3   3   4   2
M  END
