Coordinates from ORCA-job PhN2+~CF3COO-_B3LYPG-6-31G_dp-CH-Scan-d09-49-n800
 OpenBabel11261919373D

 20 19  0  0  0  0  0  0  0  0999 V2000
   -1.8997    0.3091   -0.1816 C   0  0  0  0  0  0  0  0  0  0  0  0
   -3.2617    0.0848   -0.3468 N   0  0  0  0  0  0  0  0  0  0  0  0
   -4.3649   -0.0281   -0.4744 N   0  0  0  0  0  0  0  0  0  0  0  0
   -1.5415    1.6605   -0.0361 C   0  0  0  0  0  0  0  0  0  0  0  0
   -0.1410    1.7918    0.1282 C   0  0  0  0  0  0  0  0  0  0  0  0
    0.7362    0.7099    0.1403 C   0  0  0  0  0  0  0  0  0  0  0  0
    0.2751   -0.6167   -0.0150 C   0  0  0  0  0  0  0  0  0  0  0  0
   -1.0739   -0.8447   -0.1817 C   0  0  0  0  0  0  0  0  0  0  0  0
   -2.7040    3.1204   -0.0465 H   0  0  0  0  0  0  0  0  0  0  0  0
    0.2784    2.7887    0.2535 H   0  0  0  0  0  0  0  0  0  0  0  0
    1.8027    0.8794    0.2729 H   0  0  0  0  0  0  0  0  0  0  0  0
    0.9727   -1.4474   -0.0027 H   0  0  0  0  0  0  0  0  0  0  0  0
   -1.4830   -1.8430   -0.3059 H   0  0  0  0  0  0  0  0  0  0  0  0
   -5.0639    2.5939   -0.3325 O   0  0  0  0  0  0  0  0  0  0  0  0
   -4.5502    3.6870   -0.1921 C   0  0  0  0  0  0  0  0  0  0  0  0
   -3.2827    3.9755   -0.0383 O   0  0  0  0  0  0  0  0  0  0  0  0
   -5.4069    4.9751   -0.1801 C   0  0  0  0  0  0  0  0  0  0  0  0
   -5.0463    5.7912   -1.1899 F   0  0  0  0  0  0  0  0  0  0  0  0
   -6.7063    4.6865   -0.3162 F   0  0  0  0  0  0  0  0  0  0  0  0
   -5.2406    5.6449    0.9768 F   0  0  0  0  0  0  0  0  0  0  0  0
  1  4  1  0  0  0  0
  2  1  1  0  0  0  0
  3  2  1  0  0  0  0
  4  5  2  0  0  0  0
  5  6  1  0  0  0  0
  5 10  1  0  0  0  0
  6 11  1  0  0  0  0
  7 12  1  0  0  0  0
  7  6  2  0  0  0  0
  8  1  2  0  0  0  0
  8  7  1  0  0  0  0
  9 16  1  0  0  0  0
 13  8  1  0  0  0  0
 14 15  2  0  0  0  0
 15 17  1  0  0  0  0
 15 16  1  0  0  0  0
 17 20  1  0  0  0  0
 18 17  1  0  0  0  0
 19 17  1  0  0  0  0
M  RAD  3   2   2   3   3   4   2
M  END
