Coordinates from ORCA-job PhN2+~CF3COO-_B3LYPG-6-31G_dp-CH-Scan-d09-49-n800
 OpenBabel11261919373D

 20 19  0  0  0  0  0  0  0  0999 V2000
   -1.3908    0.1463   -0.1311 C   0  0  0  0  0  0  0  0  0  0  0  0
   -2.7757    0.2492   -0.2607 N   0  0  0  0  0  0  0  0  0  0  0  0
   -3.8810    0.3950   -0.3589 N   0  0  0  0  0  0  0  0  0  0  0  0
   -0.7717    1.3956    0.0316 C   0  0  0  0  0  0  0  0  0  0  0  0
    0.6350    1.2034    0.1592 C   0  0  0  0  0  0  0  0  0  0  0  0
    1.2570   -0.0403    0.1239 C   0  0  0  0  0  0  0  0  0  0  0  0
    0.5182   -1.2381   -0.0477 C   0  0  0  0  0  0  0  0  0  0  0  0
   -0.8499   -1.1679   -0.1817 C   0  0  0  0  0  0  0  0  0  0  0  0
   -3.1711    4.7250    0.0652 H   0  0  0  0  0  0  0  0  0  0  0  0
    1.2732    2.0780    0.2944 H   0  0  0  0  0  0  0  0  0  0  0  0
    2.3387   -0.1116    0.2307 H   0  0  0  0  0  0  0  0  0  0  0  0
    1.0252   -2.1974   -0.0731 H   0  0  0  0  0  0  0  0  0  0  0  0
   -1.4693   -2.0506   -0.3165 H   0  0  0  0  0  0  0  0  0  0  0  0
   -4.9543    3.2247   -0.2768 O   0  0  0  0  0  0  0  0  0  0  0  0
   -5.0096    4.4236   -0.1810 C   0  0  0  0  0  0  0  0  0  0  0  0
   -3.9837    5.2572    0.0125 O   0  0  0  0  0  0  0  0  0  0  0  0
   -6.3276    5.2233   -0.2699 C   0  0  0  0  0  0  0  0  0  0  0  0
   -6.2757    6.0947   -1.2924 F   0  0  0  0  0  0  0  0  0  0  0  0
   -7.3565    4.3959   -0.4617 F   0  0  0  0  0  0  0  0  0  0  0  0
   -6.5317    5.9131    0.8657 F   0  0  0  0  0  0  0  0  0  0  0  0
  1  4  1  0  0  0  0
  2  1  1  0  0  0  0
  3  2  1  0  0  0  0
  4  5  2  0  0  0  0
  5 10  1  0  0  0  0
  6  5  1  0  0  0  0
  6 11  1  0  0  0  0
  7  6  2  0  0  0  0
  8  1  2  0  0  0  0
  8  7  1  0  0  0  0
 12  7  1  0  0  0  0
 13  8  1  0  0  0  0
 14 15  2  0  0  0  0
 15 16  1  0  0  0  0
 16  9  1  0  0  0  0
 17 15  1  0  0  0  0
 17 20  1  0  0  0  0
 18 17  1  0  0  0  0
 19 17  1  0  0  0  0
M  RAD  3   2   2   3   3   4   2
M  END
