Coordinates from ORCA-job PhN2+~CF3COO-_B3LYPG-6-31G_dp-CH-Scan-d09-49-n800
 OpenBabel11261919373D

 20 19  0  0  0  0  0  0  0  0999 V2000
   -1.9540    0.3350   -0.1976 C   0  0  0  0  0  0  0  0  0  0  0  0
   -3.3123    0.0933   -0.3758 N   0  0  0  0  0  0  0  0  0  0  0  0
   -4.4168    0.0074   -0.5098 N   0  0  0  0  0  0  0  0  0  0  0  0
   -1.6094    1.6883   -0.0544 C   0  0  0  0  0  0  0  0  0  0  0  0
   -0.2189    1.8537    0.1246 C   0  0  0  0  0  0  0  0  0  0  0  0
    0.6764    0.7859    0.1515 C   0  0  0  0  0  0  0  0  0  0  0  0
    0.2382   -0.5466   -0.0020 C   0  0  0  0  0  0  0  0  0  0  0  0
   -1.1063   -0.7991   -0.1824 C   0  0  0  0  0  0  0  0  0  0  0  0
   -2.6074    2.9141   -0.0768 H   0  0  0  0  0  0  0  0  0  0  0  0
    0.1741    2.8608    0.2488 H   0  0  0  0  0  0  0  0  0  0  0  0
    1.7379    0.9745    0.2948 H   0  0  0  0  0  0  0  0  0  0  0  0
    0.9487   -1.3660    0.0220 H   0  0  0  0  0  0  0  0  0  0  0  0
   -1.4962   -1.8048   -0.3056 H   0  0  0  0  0  0  0  0  0  0  0  0
   -5.0647    2.5362   -0.3049 O   0  0  0  0  0  0  0  0  0  0  0  0
   -4.4898    3.6097   -0.1875 C   0  0  0  0  0  0  0  0  0  0  0  0
   -3.2211    3.8457   -0.0722 O   0  0  0  0  0  0  0  0  0  0  0  0
   -5.3099    4.9239   -0.1654 C   0  0  0  0  0  0  0  0  0  0  0  0
   -4.9532    5.7228   -1.1923 F   0  0  0  0  0  0  0  0  0  0  0  0
   -6.6241    4.6825   -0.2633 F   0  0  0  0  0  0  0  0  0  0  0  0
   -5.0927    5.6018    0.9801 F   0  0  0  0  0  0  0  0  0  0  0  0
  1  8  2  0  0  0  0
  1  4  1  0  0  0  0
  2  1  1  0  0  0  0
  3  2  1  0  0  0  0
  4  5  2  0  0  0  0
  5  6  1  0  0  0  0
  5 10  1  0  0  0  0
  6 11  1  0  0  0  0
  7 12  1  0  0  0  0
  7  6  2  0  0  0  0
  8  7  1  0  0  0  0
  9 16  1  0  0  0  0
 13  8  1  0  0  0  0
 14 15  2  0  0  0  0
 15 17  1  0  0  0  0
 15 16  1  0  0  0  0
 17 20  1  0  0  0  0
 18 17  1  0  0  0  0
 19 17  1  0  0  0  0
M  RAD  3   2   2   3   3   4   2
M  END
