Coordinates from ORCA-job PhN2+~CF3COO-_B3LYPG-6-31G_dp-CH-Scan-d09-49-n800
 OpenBabel11261919373D

 20 19  0  0  0  0  0  0  0  0999 V2000
   -1.7593    0.2592   -0.1608 C   0  0  0  0  0  0  0  0  0  0  0  0
   -3.1346    0.1182   -0.3112 N   0  0  0  0  0  0  0  0  0  0  0  0
   -4.2441    0.0556   -0.4281 N   0  0  0  0  0  0  0  0  0  0  0  0
   -1.3347    1.5900   -0.0064 C   0  0  0  0  0  0  0  0  0  0  0  0
    0.0764    1.6376    0.1419 C   0  0  0  0  0  0  0  0  0  0  0  0
    0.8919    0.5094    0.1317 C   0  0  0  0  0  0  0  0  0  0  0  0
    0.3574   -0.7906   -0.0317 C   0  0  0  0  0  0  0  0  0  0  0  0
   -1.0029   -0.9433   -0.1839 C   0  0  0  0  0  0  0  0  0  0  0  0
   -2.8428    3.5234   -0.0049 H   0  0  0  0  0  0  0  0  0  0  0  0
    0.5573    2.6066    0.2725 H   0  0  0  0  0  0  0  0  0  0  0  0
    1.9683    0.6173    0.2528 H   0  0  0  0  0  0  0  0  0  0  0  0
    1.0101   -1.6573   -0.0367 H   0  0  0  0  0  0  0  0  0  0  0  0
   -1.4680   -1.9165   -0.3134 H   0  0  0  0  0  0  0  0  0  0  0  0
   -5.0750    2.7347   -0.3313 O   0  0  0  0  0  0  0  0  0  0  0  0
   -4.6952    3.8746   -0.1920 C   0  0  0  0  0  0  0  0  0  0  0  0
   -3.4557    4.2978   -0.0100 O   0  0  0  0  0  0  0  0  0  0  0  0
   -5.6688    5.0747   -0.2102 C   0  0  0  0  0  0  0  0  0  0  0  0
   -5.3561    5.9173   -1.2117 F   0  0  0  0  0  0  0  0  0  0  0  0
   -6.9257    4.6557   -0.3836 F   0  0  0  0  0  0  0  0  0  0  0  0
   -5.6000    5.7546    0.9489 F   0  0  0  0  0  0  0  0  0  0  0  0
  1  4  1  0  0  0  0
  2  1  1  0  0  0  0
  3  2  1  0  0  0  0
  4  5  2  0  0  0  0
  5 10  1  0  0  0  0
  6  5  1  0  0  0  0
  6 11  1  0  0  0  0
  7  6  2  0  0  0  0
  8  1  2  0  0  0  0
  8  7  1  0  0  0  0
 12  7  1  0  0  0  0
 13  8  1  0  0  0  0
 14 15  2  0  0  0  0
 15 16  1  0  0  0  0
 16  9  1  0  0  0  0
 17 15  1  0  0  0  0
 17 20  1  0  0  0  0
 18 17  1  0  0  0  0
 19 17  1  0  0  0  0
M  RAD  3   2   2   3   3   4   2
M  END
