Coordinates from ORCA-job PhN2+~CF3COO-_B3LYPG-6-31G_dp-CH-Scan-d09-49-n800
 OpenBabel11261919373D

 20 19  0  0  0  0  0  0  0  0999 V2000
   -1.9408    0.3273   -0.1929 C   0  0  0  0  0  0  0  0  0  0  0  0
   -3.2991    0.0860   -0.3672 N   0  0  0  0  0  0  0  0  0  0  0  0
   -4.4020   -0.0211   -0.5002 N   0  0  0  0  0  0  0  0  0  0  0  0
   -1.5959    1.6814   -0.0496 C   0  0  0  0  0  0  0  0  0  0  0  0
   -0.2019    1.8378    0.1248 C   0  0  0  0  0  0  0  0  0  0  0  0
    0.6901    0.7675    0.1478 C   0  0  0  0  0  0  0  0  0  0  0  0
    0.2477   -0.5643   -0.0058 C   0  0  0  0  0  0  0  0  0  0  0  0
   -1.0976   -0.8118   -0.1819 C   0  0  0  0  0  0  0  0  0  0  0  0
   -2.6407    2.9788   -0.0678 H   0  0  0  0  0  0  0  0  0  0  0  0
    0.1981    2.8424    0.2491 H   0  0  0  0  0  0  0  0  0  0  0  0
    1.7529    0.9525    0.2878 H   0  0  0  0  0  0  0  0  0  0  0  0
    0.9559   -1.3858    0.0150 H   0  0  0  0  0  0  0  0  0  0  0  0
   -1.4915   -1.8161   -0.3051 H   0  0  0  0  0  0  0  0  0  0  0  0
   -5.0609    2.5520   -0.3152 O   0  0  0  0  0  0  0  0  0  0  0  0
   -4.5044    3.6308   -0.1887 C   0  0  0  0  0  0  0  0  0  0  0  0
   -3.2344    3.8808   -0.0603 O   0  0  0  0  0  0  0  0  0  0  0  0
   -5.3324    4.9390   -0.1690 C   0  0  0  0  0  0  0  0  0  0  0  0
   -4.9723    5.7428   -1.1902 F   0  0  0  0  0  0  0  0  0  0  0  0
   -6.6427    4.6855   -0.2792 F   0  0  0  0  0  0  0  0  0  0  0  0
   -5.1296    5.6134    0.9805 F   0  0  0  0  0  0  0  0  0  0  0  0
  1  8  2  0  0  0  0
  1  4  1  0  0  0  0
  2  1  1  0  0  0  0
  3  2  1  0  0  0  0
  4  5  2  0  0  0  0
  5  6  1  0  0  0  0
  5 10  1  0  0  0  0
  6 11  1  0  0  0  0
  7 12  1  0  0  0  0
  7  6  2  0  0  0  0
  8  7  1  0  0  0  0
  9 16  1  0  0  0  0
 13  8  1  0  0  0  0
 14 15  2  0  0  0  0
 15 17  1  0  0  0  0
 15 16  1  0  0  0  0
 17 20  1  0  0  0  0
 18 17  1  0  0  0  0
 19 17  1  0  0  0  0
M  RAD  3   2   2   3   3   4   2
M  END
