Coordinates from ORCA-job PhN2+~CF3COO-_B3LYPG-6-31G_dp-CH-Scan-d09-49-n800
 OpenBabel11261919373D

 20 19  0  0  0  0  0  0  0  0999 V2000
   -1.9213    0.3182   -0.1876 C   0  0  0  0  0  0  0  0  0  0  0  0
   -3.2811    0.0835   -0.3577 N   0  0  0  0  0  0  0  0  0  0  0  0
   -4.3836   -0.0309   -0.4887 N   0  0  0  0  0  0  0  0  0  0  0  0
   -1.5713    1.6715   -0.0437 C   0  0  0  0  0  0  0  0  0  0  0  0
   -0.1737    1.8158    0.1259 C   0  0  0  0  0  0  0  0  0  0  0  0
    0.7116    0.7404    0.1442 C   0  0  0  0  0  0  0  0  0  0  0  0
    0.2609   -0.5893   -0.0098 C   0  0  0  0  0  0  0  0  0  0  0  0
   -1.0860   -0.8279   -0.1815 C   0  0  0  0  0  0  0  0  0  0  0  0
   -2.6742    3.0508   -0.0584 H   0  0  0  0  0  0  0  0  0  0  0  0
    0.2356    2.8168    0.2505 H   0  0  0  0  0  0  0  0  0  0  0  0
    1.7762    0.9185    0.2808 H   0  0  0  0  0  0  0  0  0  0  0  0
    0.9643   -1.4150    0.0073 H   0  0  0  0  0  0  0  0  0  0  0  0
   -1.4869   -1.8296   -0.3049 H   0  0  0  0  0  0  0  0  0  0  0  0
   -5.0616    2.5723   -0.3247 O   0  0  0  0  0  0  0  0  0  0  0  0
   -4.5263    3.6580   -0.1906 C   0  0  0  0  0  0  0  0  0  0  0  0
   -3.2567    3.9264   -0.0495 O   0  0  0  0  0  0  0  0  0  0  0  0
   -5.3672    4.9570   -0.1738 C   0  0  0  0  0  0  0  0  0  0  0  0
   -5.0066    5.7668   -1.1892 F   0  0  0  0  0  0  0  0  0  0  0  0
   -6.6725    4.6870   -0.2962 F   0  0  0  0  0  0  0  0  0  0  0  0
   -5.1812    5.6286    0.9796 F   0  0  0  0  0  0  0  0  0  0  0  0
  1  8  2  0  0  0  0
  1  4  1  0  0  0  0
  2  1  1  0  0  0  0
  3  2  1  0  0  0  0
  4  5  2  0  0  0  0
  5  6  1  0  0  0  0
  5 10  1  0  0  0  0
  6 11  1  0  0  0  0
  7 12  1  0  0  0  0
  7  6  2  0  0  0  0
  8  7  1  0  0  0  0
  9 16  1  0  0  0  0
 13  8  1  0  0  0  0
 14 15  2  0  0  0  0
 15 17  1  0  0  0  0
 15 16  1  0  0  0  0
 17 20  1  0  0  0  0
 18 17  1  0  0  0  0
 19 17  1  0  0  0  0
M  RAD  3   2   2   3   3   4   2
M  END
