Coordinates from ORCA-job PhN2+~CF3COO-_B3LYPG-6-31G_dp-CH-Scan-d09-49-n800
 OpenBabel11261919373D

 20 19  0  0  0  0  0  0  0  0999 V2000
   -1.5214    0.1798   -0.1510 C   0  0  0  0  0  0  0  0  0  0  0  0
   -2.9069    0.1896   -0.2994 N   0  0  0  0  0  0  0  0  0  0  0  0
   -4.0188    0.2534   -0.4053 N   0  0  0  0  0  0  0  0  0  0  0  0
   -0.9776    1.4658   -0.0002 C   0  0  0  0  0  0  0  0  0  0  0  0
    0.4353    1.3641    0.1452 C   0  0  0  0  0  0  0  0  0  0  0  0
    1.1327    0.1602    0.1359 C   0  0  0  0  0  0  0  0  0  0  0  0
    0.4706   -1.0823   -0.0251 C   0  0  0  0  0  0  0  0  0  0  0  0
   -0.8977   -1.0979   -0.1750 C   0  0  0  0  0  0  0  0  0  0  0  0
   -3.0350    4.2703    0.0036 H   0  0  0  0  0  0  0  0  0  0  0  0
    1.0162    2.2784    0.2733 H   0  0  0  0  0  0  0  0  0  0  0  0
    2.2152    0.1577    0.2555 H   0  0  0  0  0  0  0  0  0  0  0  0
    1.0349   -2.0093   -0.0301 H   0  0  0  0  0  0  0  0  0  0  0  0
   -1.4599   -2.0191   -0.3028 H   0  0  0  0  0  0  0  0  0  0  0  0
   -5.0181    3.0266   -0.3082 O   0  0  0  0  0  0  0  0  0  0  0  0
   -4.9039    4.2211   -0.1965 C   0  0  0  0  0  0  0  0  0  0  0  0
   -3.7729    4.9050   -0.0222 O   0  0  0  0  0  0  0  0  0  0  0  0
   -6.1045    5.1917   -0.2343 C   0  0  0  0  0  0  0  0  0  0  0  0
   -5.9491    6.0913   -1.2213 F   0  0  0  0  0  0  0  0  0  0  0  0
   -7.2380    4.5182   -0.4418 F   0  0  0  0  0  0  0  0  0  0  0  0
   -6.2027    5.8545    0.9316 F   0  0  0  0  0  0  0  0  0  0  0  0
  1  4  1  0  0  0  0
  2  1  1  0  0  0  0
  3  2  1  0  0  0  0
  4  5  2  0  0  0  0
  5 10  1  0  0  0  0
  6  5  1  0  0  0  0
  6 11  1  0  0  0  0
  7  6  2  0  0  0  0
  8  1  2  0  0  0  0
  8  7  1  0  0  0  0
 12  7  1  0  0  0  0
 13  8  1  0  0  0  0
 14 15  2  0  0  0  0
 15 16  1  0  0  0  0
 16  9  1  0  0  0  0
 17 15  1  0  0  0  0
 17 20  1  0  0  0  0
 18 17  1  0  0  0  0
 19 17  1  0  0  0  0
M  RAD  3   2   2   3   3   4   2
M  END
