Coordinates from ORCA-job PhN2+~CF3COO-_B3LYPG-6-31G_dp-CH-Scan-d09-49-n800
 OpenBabel11261919373D

 20 19  0  0  0  0  0  0  0  0999 V2000
   -1.8815    0.3021   -0.1774 C   0  0  0  0  0  0  0  0  0  0  0  0
   -3.2454    0.0876   -0.3392 N   0  0  0  0  0  0  0  0  0  0  0  0
   -4.3495   -0.0215   -0.4645 N   0  0  0  0  0  0  0  0  0  0  0  0
   -1.5155    1.6514   -0.0307 C   0  0  0  0  0  0  0  0  0  0  0  0
   -0.1128    1.7717    0.1299 C   0  0  0  0  0  0  0  0  0  0  0  0
    0.7569    0.6840    0.1377 C   0  0  0  0  0  0  0  0  0  0  0  0
    0.2866   -0.6396   -0.0185 C   0  0  0  0  0  0  0  0  0  0  0  0
   -1.0642   -0.8582   -0.1818 C   0  0  0  0  0  0  0  0  0  0  0  0
   -2.7257    3.1756   -0.0383 H   0  0  0  0  0  0  0  0  0  0  0  0
    0.3149    2.7652    0.2558 H   0  0  0  0  0  0  0  0  0  0  0  0
    1.8250    0.8460    0.2677 H   0  0  0  0  0  0  0  0  0  0  0  0
    0.9788   -1.4749   -0.0095 H   0  0  0  0  0  0  0  0  0  0  0  0
   -1.4804   -1.8536   -0.3065 H   0  0  0  0  0  0  0  0  0  0  0  0
   -5.0659    2.6119   -0.3368 O   0  0  0  0  0  0  0  0  0  0  0  0
   -4.5698    3.7113   -0.1929 C   0  0  0  0  0  0  0  0  0  0  0  0
   -3.3048    4.0169   -0.0310 O   0  0  0  0  0  0  0  0  0  0  0  0
   -5.4408    4.9894   -0.1849 C   0  0  0  0  0  0  0  0  0  0  0  0
   -5.0824    5.8106   -1.1909 F   0  0  0  0  0  0  0  0  0  0  0  0
   -6.7351    4.6847   -0.3304 F   0  0  0  0  0  0  0  0  0  0  0  0
   -5.2899    5.6586    0.9741 F   0  0  0  0  0  0  0  0  0  0  0  0
  1  4  1  0  0  0  0
  2  1  1  0  0  0  0
  3  2  1  0  0  0  0
  4  5  2  0  0  0  0
  5  6  1  0  0  0  0
  5 10  1  0  0  0  0
  6 11  1  0  0  0  0
  7 12  1  0  0  0  0
  7  6  2  0  0  0  0
  8  1  2  0  0  0  0
  8  7  1  0  0  0  0
  9 16  1  0  0  0  0
 13  8  1  0  0  0  0
 14 15  2  0  0  0  0
 15 17  1  0  0  0  0
 15 16  1  0  0  0  0
 17 20  1  0  0  0  0
 18 17  1  0  0  0  0
 19 17  1  0  0  0  0
M  RAD  3   2   2   3   3   4   2
M  END
