Coordinates from ORCA-job PhN2+~CF3COO-_B3LYPG-6-31G_dp-CH-Scan-d09-49-n800
 OpenBabel11261919373D

 20 19  0  0  0  0  0  0  0  0999 V2000
   -1.7605    0.2597   -0.1609 C   0  0  0  0  0  0  0  0  0  0  0  0
   -3.1358    0.1179   -0.3114 N   0  0  0  0  0  0  0  0  0  0  0  0
   -4.2452    0.0547   -0.4283 N   0  0  0  0  0  0  0  0  0  0  0  0
   -1.3365    1.5907   -0.0066 C   0  0  0  0  0  0  0  0  0  0  0  0
    0.0746    1.6390    0.1417 C   0  0  0  0  0  0  0  0  0  0  0  0
    0.8906    0.5111    0.1317 C   0  0  0  0  0  0  0  0  0  0  0  0
    0.3568   -0.7891   -0.0316 C   0  0  0  0  0  0  0  0  0  0  0  0
   -1.0035   -0.9425   -0.1838 C   0  0  0  0  0  0  0  0  0  0  0  0
   -2.8417    3.5199   -0.0052 H   0  0  0  0  0  0  0  0  0  0  0  0
    0.5549    2.6082    0.2723 H   0  0  0  0  0  0  0  0  0  0  0  0
    1.9669    0.6196    0.2528 H   0  0  0  0  0  0  0  0  0  0  0  0
    1.0098   -1.6555   -0.0365 H   0  0  0  0  0  0  0  0  0  0  0  0
   -1.4681   -1.9159   -0.3133 H   0  0  0  0  0  0  0  0  0  0  0  0
   -5.0750    2.7334   -0.3314 O   0  0  0  0  0  0  0  0  0  0  0  0
   -4.6940    3.8729   -0.1920 C   0  0  0  0  0  0  0  0  0  0  0  0
   -3.4541    4.2949   -0.0101 O   0  0  0  0  0  0  0  0  0  0  0  0
   -5.6665    5.0739   -0.2100 C   0  0  0  0  0  0  0  0  0  0  0  0
   -5.3532    5.9164   -1.2114 F   0  0  0  0  0  0  0  0  0  0  0  0
   -6.9239    4.6561   -0.3833 F   0  0  0  0  0  0  0  0  0  0  0  0
   -5.5970    5.7537    0.9492 F   0  0  0  0  0  0  0  0  0  0  0  0
  1  4  1  0  0  0  0
  2  1  1  0  0  0  0
  3  2  1  0  0  0  0
  4  5  2  0  0  0  0
  5 10  1  0  0  0  0
  6  5  1  0  0  0  0
  6 11  1  0  0  0  0
  7  6  2  0  0  0  0
  8  1  2  0  0  0  0
  8  7  1  0  0  0  0
 12  7  1  0  0  0  0
 13  8  1  0  0  0  0
 14 15  2  0  0  0  0
 15 16  1  0  0  0  0
 16  9  1  0  0  0  0
 17 15  1  0  0  0  0
 17 20  1  0  0  0  0
 18 17  1  0  0  0  0
 19 17  1  0  0  0  0
M  RAD  3   2   2   3   3   4   2
M  END
