Coordinates from ORCA-job PhN2+~CF3COO-_B3LYPG-6-31G_dp-CH-Scan-d09-49-n800
 OpenBabel11261919373D

 20 19  0  0  0  0  0  0  0  0999 V2000
   -1.7061    0.2406   -0.1564 C   0  0  0  0  0  0  0  0  0  0  0  0
   -3.0851    0.1317   -0.3044 N   0  0  0  0  0  0  0  0  0  0  0  0
   -4.1963    0.0948   -0.4191 N   0  0  0  0  0  0  0  0  0  0  0  0
   -1.2560    1.5623    0.0019 C   0  0  0  0  0  0  0  0  0  0  0  0
    0.1572    1.5777    0.1476 C   0  0  0  0  0  0  0  0  0  0  0  0
    0.9482    0.4324    0.1318 C   0  0  0  0  0  0  0  0  0  0  0  0
    0.3861   -0.8559   -0.0356 C   0  0  0  0  0  0  0  0  0  0  0  0
   -0.9772   -0.9792   -0.1858 C   0  0  0  0  0  0  0  0  0  0  0  0
   -2.8867    3.6792    0.0070 H   0  0  0  0  0  0  0  0  0  0  0  0
    0.6602    2.5353    0.2810 H   0  0  0  0  0  0  0  0  0  0  0  0
    2.0271    0.5165    0.2514 H   0  0  0  0  0  0  0  0  0  0  0  0
    1.0207   -1.7360   -0.0452 H   0  0  0  0  0  0  0  0  0  0  0  0
   -1.4634   -1.9417   -0.3182 H   0  0  0  0  0  0  0  0  0  0  0  0
   -5.0716    2.7930   -0.3245 O   0  0  0  0  0  0  0  0  0  0  0  0
   -4.7460    3.9486   -0.1903 C   0  0  0  0  0  0  0  0  0  0  0  0
   -3.5235    4.4264   -0.0046 O   0  0  0  0  0  0  0  0  0  0  0  0
   -5.7678    5.1074   -0.2197 C   0  0  0  0  0  0  0  0  0  0  0  0
   -5.4870    5.9535   -1.2272 F   0  0  0  0  0  0  0  0  0  0  0  0
   -7.0051    4.6342   -0.3922 F   0  0  0  0  0  0  0  0  0  0  0  0
   -5.7291    5.7979    0.9341 F   0  0  0  0  0  0  0  0  0  0  0  0
  1  4  1  0  0  0  0
  2  1  1  0  0  0  0
  3  2  1  0  0  0  0
  4  5  2  0  0  0  0
  5 10  1  0  0  0  0
  6  5  1  0  0  0  0
  6 11  1  0  0  0  0
  7  6  2  0  0  0  0
  8  1  2  0  0  0  0
  8  7  1  0  0  0  0
 12  7  1  0  0  0  0
 13  8  1  0  0  0  0
 14 15  2  0  0  0  0
 15 16  1  0  0  0  0
 16  9  1  0  0  0  0
 17 15  1  0  0  0  0
 17 20  1  0  0  0  0
 18 17  1  0  0  0  0
 19 17  1  0  0  0  0
M  RAD  3   2   2   3   3   4   2
M  END
