Coordinates from ORCA-job PhN2+~CF3COO-_B3LYPG-6-31G_dp-CH-Scan-d09-49-n800
 OpenBabel11261919373D

 20 19  0  0  0  0  0  0  0  0999 V2000
   -1.3120    0.1361   -0.1622 C   0  0  0  0  0  0  0  0  0  0  0  0
   -2.6883    0.2959   -0.3257 N   0  0  0  0  0  0  0  0  0  0  0  0
   -3.7840    0.4895   -0.4488 N   0  0  0  0  0  0  0  0  0  0  0  0
   -0.6469    1.3615   -0.0032 C   0  0  0  0  0  0  0  0  0  0  0  0
    0.7477    1.1138    0.1605 C   0  0  0  0  0  0  0  0  0  0  0  0
    1.3184   -0.1547    0.1591 C   0  0  0  0  0  0  0  0  0  0  0  0
    0.5349   -1.3239   -0.0125 C   0  0  0  0  0  0  0  0  0  0  0  0
   -0.8255   -1.2001   -0.1807 C   0  0  0  0  0  0  0  0  0  0  0  0
   -3.2535    4.9737   -0.0127 H   0  0  0  0  0  0  0  0  0  0  0  0
    1.4182    1.9637    0.2977 H   0  0  0  0  0  0  0  0  0  0  0  0
    2.3933   -0.2687    0.2934 H   0  0  0  0  0  0  0  0  0  0  0  0
    1.0024   -2.3035   -0.0113 H   0  0  0  0  0  0  0  0  0  0  0  0
   -1.4775   -2.0587   -0.3178 H   0  0  0  0  0  0  0  0  0  0  0  0
   -4.9266    3.3437   -0.2893 O   0  0  0  0  0  0  0  0  0  0  0  0
   -5.0711    4.5348   -0.1927 C   0  0  0  0  0  0  0  0  0  0  0  0
   -4.1043    5.4447   -0.0364 O   0  0  0  0  0  0  0  0  0  0  0  0
   -6.4479    5.2323   -0.2365 C   0  0  0  0  0  0  0  0  0  0  0  0
   -6.4998    6.0952   -1.2662 F   0  0  0  0  0  0  0  0  0  0  0  0
   -7.4179    4.3280   -0.3840 F   0  0  0  0  0  0  0  0  0  0  0  0
   -6.6611    5.9155    0.9012 F   0  0  0  0  0  0  0  0  0  0  0  0
  1  4  1  0  0  0  0
  2  1  1  0  0  0  0
  3  2  1  0  0  0  0
  4  5  2  0  0  0  0
  5 10  1  0  0  0  0
  6  5  1  0  0  0  0
  6 11  1  0  0  0  0
  7 12  1  0  0  0  0
  7  6  2  0  0  0  0
  8  1  2  0  0  0  0
  8  7  1  0  0  0  0
 13  8  1  0  0  0  0
 14 15  2  0  0  0  0
 15 16  1  0  0  0  0
 16  9  1  0  0  0  0
 17 15  1  0  0  0  0
 17 20  1  0  0  0  0
 18 17  1  0  0  0  0
 19 17  1  0  0  0  0
M  RAD  3   2   2   3   3   4   2
M  END
