Coordinates from ORCA-job PhN2+~CF3COO-_B3LYPG-6-31G_dp-CH-Scan-d09-49-n800
 OpenBabel11261919373D

 20 19  0  0  0  0  0  0  0  0999 V2000
   -1.6341    0.2175   -0.1540 C   0  0  0  0  0  0  0  0  0  0  0  0
   -3.0167    0.1545   -0.3025 N   0  0  0  0  0  0  0  0  0  0  0  0
   -4.1288    0.1553   -0.4179 N   0  0  0  0  0  0  0  0  0  0  0  0
   -1.1477    1.5258    0.0060 C   0  0  0  0  0  0  0  0  0  0  0  0
    0.2665    1.4952    0.1525 C   0  0  0  0  0  0  0  0  0  0  0  0
    1.0218    0.3264    0.1356 C   0  0  0  0  0  0  0  0  0  0  0  0
    0.4208   -0.9446   -0.0342 C   0  0  0  0  0  0  0  0  0  0  0  0
   -0.9453   -1.0258   -0.1852 C   0  0  0  0  0  0  0  0  0  0  0  0
   -2.9416    3.9023    0.0038 H   0  0  0  0  0  0  0  0  0  0  0  0
    0.8001    2.4363    0.2877 H   0  0  0  0  0  0  0  0  0  0  0  0
    2.1028    0.3766    0.2561 H   0  0  0  0  0  0  0  0  0  0  0  0
    1.0287   -1.8435   -0.0447 H   0  0  0  0  0  0  0  0  0  0  0  0
   -1.4612   -1.9727   -0.3194 H   0  0  0  0  0  0  0  0  0  0  0  0
   -5.0554    2.8777   -0.3174 O   0  0  0  0  0  0  0  0  0  0  0  0
   -4.8091    4.0523   -0.1918 C   0  0  0  0  0  0  0  0  0  0  0  0
   -3.6159    4.6092   -0.0111 O   0  0  0  0  0  0  0  0  0  0  0  0
   -5.9015    5.1441   -0.2255 C   0  0  0  0  0  0  0  0  0  0  0  0
   -5.6741    6.0018   -1.2361 F   0  0  0  0  0  0  0  0  0  0  0  0
   -7.1051    4.5914   -0.3958 F   0  0  0  0  0  0  0  0  0  0  0  0
   -5.9056    5.8391    0.9259 F   0  0  0  0  0  0  0  0  0  0  0  0
  1  4  1  0  0  0  0
  2  1  1  0  0  0  0
  3  2  1  0  0  0  0
  4  5  2  0  0  0  0
  5 10  1  0  0  0  0
  6  5  1  0  0  0  0
  6 11  1  0  0  0  0
  7  6  2  0  0  0  0
  8  1  2  0  0  0  0
  8  7  1  0  0  0  0
 12  7  1  0  0  0  0
 13  8  1  0  0  0  0
 14 15  2  0  0  0  0
 15 16  1  0  0  0  0
 16  9  1  0  0  0  0
 17 15  1  0  0  0  0
 17 20  1  0  0  0  0
 18 17  1  0  0  0  0
 19 17  1  0  0  0  0
M  RAD  3   2   2   3   3   4   2
M  END
