Coordinates from ORCA-job PhN2+~CF3COO-_B3LYPG-6-31G_dp-CH-Scan-d09-49-n800
 OpenBabel11261919373D

 20 19  0  0  0  0  0  0  0  0999 V2000
   -1.8975    0.3082   -0.1811 C   0  0  0  0  0  0  0  0  0  0  0  0
   -3.2597    0.0851   -0.3458 N   0  0  0  0  0  0  0  0  0  0  0  0
   -4.3630   -0.0275   -0.4731 N   0  0  0  0  0  0  0  0  0  0  0  0
   -1.5384    1.6593   -0.0354 C   0  0  0  0  0  0  0  0  0  0  0  0
   -0.1375    1.7893    0.1284 C   0  0  0  0  0  0  0  0  0  0  0  0
    0.7387    0.7067    0.1399 C   0  0  0  0  0  0  0  0  0  0  0  0
    0.2765   -0.6195   -0.0155 C   0  0  0  0  0  0  0  0  0  0  0  0
   -1.0727   -0.8464   -0.1817 C   0  0  0  0  0  0  0  0  0  0  0  0
   -2.7068    3.1273   -0.0454 H   0  0  0  0  0  0  0  0  0  0  0  0
    0.2829    2.7858    0.2538 H   0  0  0  0  0  0  0  0  0  0  0  0
    1.8055    0.8753    0.2722 H   0  0  0  0  0  0  0  0  0  0  0  0
    0.9735   -1.4508   -0.0036 H   0  0  0  0  0  0  0  0  0  0  0  0
   -1.4827   -1.8443   -0.3060 H   0  0  0  0  0  0  0  0  0  0  0  0
   -5.0642    2.5961   -0.3332 O   0  0  0  0  0  0  0  0  0  0  0  0
   -4.5526    3.6900   -0.1922 C   0  0  0  0  0  0  0  0  0  0  0  0
   -3.2854    3.9806   -0.0373 O   0  0  0  0  0  0  0  0  0  0  0  0
   -5.4111    4.9769   -0.1808 C   0  0  0  0  0  0  0  0  0  0  0  0
   -5.0506    5.7937   -1.1900 F   0  0  0  0  0  0  0  0  0  0  0  0
   -6.7098    4.6863   -0.3181 F   0  0  0  0  0  0  0  0  0  0  0  0
   -5.2467    5.6466    0.9765 F   0  0  0  0  0  0  0  0  0  0  0  0
  1  4  1  0  0  0  0
  2  1  1  0  0  0  0
  3  2  1  0  0  0  0
  4  5  2  0  0  0  0
  5  6  1  0  0  0  0
  5 10  1  0  0  0  0
  6 11  1  0  0  0  0
  7 12  1  0  0  0  0
  7  6  2  0  0  0  0
  8  1  2  0  0  0  0
  8  7  1  0  0  0  0
  9 16  1  0  0  0  0
 13  8  1  0  0  0  0
 14 15  2  0  0  0  0
 15 17  1  0  0  0  0
 15 16  1  0  0  0  0
 17 20  1  0  0  0  0
 18 17  1  0  0  0  0
 19 17  1  0  0  0  0
M  RAD  3   2   2   3   3   4   2
M  END
