Coordinates from ORCA-job PhN2+~CF3COO-_B3LYPG-6-31G_dp-CH-Scan-d09-49-n800
 OpenBabel11261919373D

 20 19  0  0  0  0  0  0  0  0999 V2000
   -1.2621    0.1329   -0.2074 C   0  0  0  0  0  0  0  0  0  0  0  0
   -2.6280    0.3258   -0.4179 N   0  0  0  0  0  0  0  0  0  0  0  0
   -3.7126    0.5484   -0.5832 N   0  0  0  0  0  0  0  0  0  0  0  0
   -0.5695    1.3447   -0.0644 C   0  0  0  0  0  0  0  0  0  0  0  0
    0.8125    1.0658    0.1497 C   0  0  0  0  0  0  0  0  0  0  0  0
    1.3480   -0.2168    0.2045 C   0  0  0  0  0  0  0  0  0  0  0  0
    0.5386   -1.3698    0.0433 C   0  0  0  0  0  0  0  0  0  0  0  0
   -0.8122   -1.2156   -0.1714 C   0  0  0  0  0  0  0  0  0  0  0  0
   -3.3048    5.0919   -0.1211 H   0  0  0  0  0  0  0  0  0  0  0  0
    1.5012    1.9017    0.2820 H   0  0  0  0  0  0  0  0  0  0  0  0
    2.4147   -0.3549    0.3761 H   0  0  0  0  0  0  0  0  0  0  0  0
    0.9791   -2.3607    0.0887 H   0  0  0  0  0  0  0  0  0  0  0  0
   -1.4828   -2.0606   -0.3037 H   0  0  0  0  0  0  0  0  0  0  0  0
   -4.9303    3.4062   -0.3257 O   0  0  0  0  0  0  0  0  0  0  0  0
   -5.1124    4.5908   -0.2146 C   0  0  0  0  0  0  0  0  0  0  0  0
   -4.1712    5.5337   -0.1005 O   0  0  0  0  0  0  0  0  0  0  0  0
   -6.5132    5.2394   -0.1833 C   0  0  0  0  0  0  0  0  0  0  0  0
   -6.6404    6.1239   -1.1875 F   0  0  0  0  0  0  0  0  0  0  0  0
   -7.4565    4.3045   -0.3113 F   0  0  0  0  0  0  0  0  0  0  0  0
   -6.6995    5.8876    0.9795 F   0  0  0  0  0  0  0  0  0  0  0  0
  1  8  2  0  0  0  0
  1  4  1  0  0  0  0
  2  1  1  0  0  0  0
  3  2  1  0  0  0  0
  4  5  2  0  0  0  0
  5  6  1  0  0  0  0
  5 10  1  0  0  0  0
  6 11  1  0  0  0  0
  7 12  1  0  0  0  0
  7  6  2  0  0  0  0
  8  7  1  0  0  0  0
  9 16  1  0  0  0  0
 13  8  1  0  0  0  0
 14 15  2  0  0  0  0
 15 17  1  0  0  0  0
 15 16  1  0  0  0  0
 17 20  1  0  0  0  0
 18 17  1  0  0  0  0
 19 17  1  0  0  0  0
M  RAD  3   2   2   3   3   4   2
M  END
