Coordinates from ORCA-job PhN2+~CF3COO-_B3LYPG-6-31G_dp-CH-Scan-d09-49-n800
 OpenBabel11261919373D

 20 19  0  0  0  0  0  0  0  0999 V2000
   -2.0500    0.8170   -0.4096 C   0  0  0  0  0  0  0  0  0  0  0  0
   -3.4050    0.7998   -0.8571 N   0  0  0  0  0  0  0  0  0  0  0  0
   -4.2064    0.2342   -1.4132 N   0  0  0  0  0  0  0  0  0  0  0  0
   -1.3173    1.9989   -0.4644 C   0  0  0  0  0  0  0  0  0  0  0  0
    0.0187    1.9398   -0.0750 C   0  0  0  0  0  0  0  0  0  0  0  0
    0.5745    0.7387    0.3764 C   0  0  0  0  0  0  0  0  0  0  0  0
   -0.1938   -0.4291    0.4253 C   0  0  0  0  0  0  0  0  0  0  0  0
   -1.5250   -0.4072    0.0200 C   0  0  0  0  0  0  0  0  0  0  0  0
   -1.8244    2.9290   -0.8438 H   0  0  0  0  0  0  0  0  0  0  0  0
    0.6240    2.8392   -0.1171 H   0  0  0  0  0  0  0  0  0  0  0  0
    1.6119    0.7108    0.6943 H   0  0  0  0  0  0  0  0  0  0  0  0
    0.2408   -1.3585    0.7778 H   0  0  0  0  0  0  0  0  0  0  0  0
   -2.1439   -1.2972    0.0440 H   0  0  0  0  0  0  0  0  0  0  0  0
   -4.2106    2.3674    0.2632 O   0  0  0  0  0  0  0  0  0  0  0  0
   -4.2409    3.4589   -0.3990 C   0  0  0  0  0  0  0  0  0  0  0  0
   -3.5774    3.7929   -1.3841 O   0  0  0  0  0  0  0  0  0  0  0  0
   -5.2768    4.4666    0.1823 C   0  0  0  0  0  0  0  0  0  0  0  0
   -5.2983    5.6147   -0.5094 F   0  0  0  0  0  0  0  0  0  0  0  0
   -6.5190    3.9409    0.1545 F   0  0  0  0  0  0  0  0  0  0  0  0
   -4.9828    4.7622    1.4666 F   0  0  0  0  0  0  0  0  0  0  0  0
  1  8  1  0  0  0  0
  2  1  1  0  0  0  0
  3  2  2  0  0  0  0
  4  1  2  0  0  0  0
  4  5  1  0  0  0  0
  5  6  2  0  0  0  0
  6  7  1  0  0  0  0
  6 11  1  0  0  0  0
  7 12  1  0  0  0  0
  8 13  1  0  0  0  0
  8  7  2  0  0  0  0
  9  4  1  0  0  0  0
 10  5  1  0  0  0  0
 15 17  1  0  0  0  0
 15 14  1  0  0  0  0
 16 15  2  0  0  0  0
 17 20  1  0  0  0  0
 18 17  1  0  0  0  0
 19 17  1  0  0  0  0
M  RAD  2   3   2  14   2
M  END
