Coordinates from ORCA-job PhN2+~CF3COO-_B3LYPG-6-31G_dp-CH-Scan-d09-49-n800
 OpenBabel11261919373D

 20 19  0  0  0  0  0  0  0  0999 V2000
   -2.0713    0.6755   -0.1018 C   0  0  0  0  0  0  0  0  0  0  0  0
   -3.4835    0.5796   -0.1694 N   0  0  0  0  0  0  0  0  0  0  0  0
   -4.4051   -0.0652   -0.2080 N   0  0  0  0  0  0  0  0  0  0  0  0
   -1.4282    1.9083   -0.1680 C   0  0  0  0  0  0  0  0  0  0  0  0
   -0.0336    1.8976   -0.1044 C   0  0  0  0  0  0  0  0  0  0  0  0
    0.6710    0.7005    0.0238 C   0  0  0  0  0  0  0  0  0  0  0  0
   -0.0088   -0.5232    0.0876 C   0  0  0  0  0  0  0  0  0  0  0  0
   -1.3945   -0.5513    0.0230 C   0  0  0  0  0  0  0  0  0  0  0  0
   -1.9132    2.7090   -0.2545 H   0  0  0  0  0  0  0  0  0  0  0  0
    0.4954    2.8436   -0.1552 H   0  0  0  0  0  0  0  0  0  0  0  0
    1.7557    0.7138    0.0755 H   0  0  0  0  0  0  0  0  0  0  0  0
    0.5407   -1.4534    0.1880 H   0  0  0  0  0  0  0  0  0  0  0  0
   -1.9488   -1.4821    0.0695 H   0  0  0  0  0  0  0  0  0  0  0  0
   -4.3613    2.5374   -0.1027 O   0  0  0  0  0  0  0  0  0  0  0  0
   -4.1131    3.7843   -0.2313 C   0  0  0  0  0  0  0  0  0  0  0  0
   -3.0475    4.3805   -0.3888 O   0  0  0  0  0  0  0  0  0  0  0  0
   -5.4274    4.6258   -0.1756 C   0  0  0  0  0  0  0  0  0  0  0  0
   -5.1848    5.9418   -0.2702 F   0  0  0  0  0  0  0  0  0  0  0  0
   -6.2547    4.2853   -1.1880 F   0  0  0  0  0  0  0  0  0  0  0  0
   -6.0887    4.4111    0.9823 F   0  0  0  0  0  0  0  0  0  0  0  0
  1  8  2  0  0  0  0
  2  1  1  0  0  0  0
  3  2  2  0  0  0  0
  4  5  2  0  0  0  0
  4  1  1  0  0  0  0
  5  6  1  0  0  0  0
  6 11  1  0  0  0  0
  6  7  2  0  0  0  0
  7 12  1  0  0  0  0
  8 13  1  0  0  0  0
  8  7  1  0  0  0  0
  9  4  1  0  0  0  0
 10  5  1  0  0  0  0
 15 17  1  0  0  0  0
 15 14  1  0  0  0  0
 16 15  2  0  0  0  0
 17 20  1  0  0  0  0
 18 17  1  0  0  0  0
 19 17  1  0  0  0  0
M  RAD  2   3   2  14   2
M  END
