Coordinates from ORCA-job PhN2+~CF3COO-_B3LYPG-6-31G_dp-CH-Scan-d09-49-n800
 OpenBabel11261919373D

 20 19  0  0  0  0  0  0  0  0999 V2000
   -2.0728    0.6754   -0.1017 C   0  0  0  0  0  0  0  0  0  0  0  0
   -3.4850    0.5794   -0.1692 N   0  0  0  0  0  0  0  0  0  0  0  0
   -4.4063   -0.0659   -0.2075 N   0  0  0  0  0  0  0  0  0  0  0  0
   -1.4311    1.9089   -0.1677 C   0  0  0  0  0  0  0  0  0  0  0  0
   -0.0365    1.8995   -0.1042 C   0  0  0  0  0  0  0  0  0  0  0  0
    0.6693    0.7031    0.0237 C   0  0  0  0  0  0  0  0  0  0  0  0
   -0.0094   -0.5212    0.0873 C   0  0  0  0  0  0  0  0  0  0  0  0
   -1.3951   -0.5507    0.0229 C   0  0  0  0  0  0  0  0  0  0  0  0
   -1.9091    2.6962   -0.2528 H   0  0  0  0  0  0  0  0  0  0  0  0
    0.4912    2.8462   -0.1549 H   0  0  0  0  0  0  0  0  0  0  0  0
    1.7539    0.7175    0.0753 H   0  0  0  0  0  0  0  0  0  0  0  0
    0.5411   -1.4509    0.1875 H   0  0  0  0  0  0  0  0  0  0  0  0
   -1.9485   -1.4820    0.0692 H   0  0  0  0  0  0  0  0  0  0  0  0
   -4.3603    2.5368   -0.1033 O   0  0  0  0  0  0  0  0  0  0  0  0
   -4.1110    3.7837   -0.2321 C   0  0  0  0  0  0  0  0  0  0  0  0
   -3.0454    4.3794   -0.3900 O   0  0  0  0  0  0  0  0  0  0  0  0
   -5.4252    4.6255   -0.1756 C   0  0  0  0  0  0  0  0  0  0  0  0
   -5.1821    5.9415   -0.2694 F   0  0  0  0  0  0  0  0  0  0  0  0
   -6.2528    4.2860   -1.1880 F   0  0  0  0  0  0  0  0  0  0  0  0
   -6.0863    4.4105    0.9823 F   0  0  0  0  0  0  0  0  0  0  0  0
  1  8  2  0  0  0  0
  2  1  1  0  0  0  0
  3  2  2  0  0  0  0
  4  5  2  0  0  0  0
  4  1  1  0  0  0  0
  5  6  1  0  0  0  0
  6 11  1  0  0  0  0
  6  7  2  0  0  0  0
  7 12  1  0  0  0  0
  8 13  1  0  0  0  0
  8  7  1  0  0  0  0
  9  4  1  0  0  0  0
 10  5  1  0  0  0  0
 15 17  1  0  0  0  0
 15 14  1  0  0  0  0
 16 15  2  0  0  0  0
 17 20  1  0  0  0  0
 18 17  1  0  0  0  0
 19 17  1  0  0  0  0
M  RAD  2   3   2  14   2
M  END
