Coordinates from ORCA-job PhN2+~CF3COO-_B3LYPG-6-31G_dp-CH-Scan-d09-49-n800
 OpenBabel11261919373D

 20 19  0  0  0  0  0  0  0  0999 V2000
   -1.6272    0.2155   -0.1550 C   0  0  0  0  0  0  0  0  0  0  0  0
   -3.0099    0.1571   -0.3045 N   0  0  0  0  0  0  0  0  0  0  0  0
   -4.1221    0.1616   -0.4202 N   0  0  0  0  0  0  0  0  0  0  0  0
   -1.1370    1.5225    0.0033 C   0  0  0  0  0  0  0  0  0  0  0  0
    0.2771    1.4874    0.1508 C   0  0  0  0  0  0  0  0  0  0  0  0
    1.0287    0.3162    0.1362 C   0  0  0  0  0  0  0  0  0  0  0  0
    0.4237   -0.9533   -0.0320 C   0  0  0  0  0  0  0  0  0  0  0  0
   -0.9426   -1.0302   -0.1839 C   0  0  0  0  0  0  0  0  0  0  0  0
   -2.9466    3.9248    0.0029 H   0  0  0  0  0  0  0  0  0  0  0  0
    0.8138    2.4269    0.2849 H   0  0  0  0  0  0  0  0  0  0  0  0
    2.1098    0.3630    0.2575 H   0  0  0  0  0  0  0  0  0  0  0  0
    1.0286   -1.8541   -0.0408 H   0  0  0  0  0  0  0  0  0  0  0  0
   -1.4615   -1.9756   -0.3170 H   0  0  0  0  0  0  0  0  0  0  0  0
   -5.0528    2.8862   -0.3175 O   0  0  0  0  0  0  0  0  0  0  0  0
   -4.8147    4.0624   -0.1922 C   0  0  0  0  0  0  0  0  0  0  0  0
   -3.6249    4.6274   -0.0122 O   0  0  0  0  0  0  0  0  0  0  0  0
   -5.9143    5.1469   -0.2250 C   0  0  0  0  0  0  0  0  0  0  0  0
   -5.6919    6.0078   -1.2340 F   0  0  0  0  0  0  0  0  0  0  0  0
   -7.1140    4.5864   -0.3971 F   0  0  0  0  0  0  0  0  0  0  0  0
   -5.9237    5.8398    0.9276 F   0  0  0  0  0  0  0  0  0  0  0  0
  1  4  1  0  0  0  0
  2  1  1  0  0  0  0
  3  2  1  0  0  0  0
  4  5  2  0  0  0  0
  5 10  1  0  0  0  0
  6  5  1  0  0  0  0
  6 11  1  0  0  0  0
  7  6  2  0  0  0  0
  8  1  2  0  0  0  0
  8  7  1  0  0  0  0
 12  7  1  0  0  0  0
 13  8  1  0  0  0  0
 14 15  2  0  0  0  0
 15 16  1  0  0  0  0
 16  9  1  0  0  0  0
 17 15  1  0  0  0  0
 17 20  1  0  0  0  0
 18 17  1  0  0  0  0
 19 17  1  0  0  0  0
M  RAD  3   2   2   3   3   4   2
M  END
