Coordinates from ORCA-job PhN2+~CF3COO-_B3LYPG-6-31G_dp-CH-Scan-d09-49-n800
 OpenBabel11261919373D

 20 19  0  0  0  0  0  0  0  0999 V2000
   -1.4455    0.1564   -0.1409 C   0  0  0  0  0  0  0  0  0  0  0  0
   -2.8315    0.2175   -0.2796 N   0  0  0  0  0  0  0  0  0  0  0  0
   -3.9398    0.3290   -0.3875 N   0  0  0  0  0  0  0  0  0  0  0  0
   -0.8610    1.4239    0.0111 C   0  0  0  0  0  0  0  0  0  0  0  0
    0.5494    1.2730    0.1479 C   0  0  0  0  0  0  0  0  0  0  0  0
    1.2060    0.0467    0.1296 C   0  0  0  0  0  0  0  0  0  0  0  0
    0.5018   -1.1727   -0.0322 C   0  0  0  0  0  0  0  0  0  0  0  0
   -0.8671   -1.1422   -0.1738 C   0  0  0  0  0  0  0  0  0  0  0  0
   -3.1111    4.5215    0.0307 H   0  0  0  0  0  0  0  0  0  0  0  0
    1.1620    2.1666    0.2765 H   0  0  0  0  0  0  0  0  0  0  0  0
    2.2886    0.0071    0.2426 H   0  0  0  0  0  0  0  0  0  0  0  0
    1.0352   -2.1179   -0.0441 H   0  0  0  0  0  0  0  0  0  0  0  0
   -1.4608   -2.0435   -0.3016 H   0  0  0  0  0  0  0  0  0  0  0  0
   -4.9908    3.1371   -0.2970 O   0  0  0  0  0  0  0  0  0  0  0  0
   -4.9687    4.3364   -0.1907 C   0  0  0  0  0  0  0  0  0  0  0  0
   -3.8911    5.1023   -0.0048 O   0  0  0  0  0  0  0  0  0  0  0  0
   -6.2355    5.2174   -0.2511 C   0  0  0  0  0  0  0  0  0  0  0  0
   -6.1326    6.1164   -1.2454 F   0  0  0  0  0  0  0  0  0  0  0  0
   -7.3141    4.4617   -0.4647 F   0  0  0  0  0  0  0  0  0  0  0  0
   -6.3947    5.8820    0.9068 F   0  0  0  0  0  0  0  0  0  0  0  0
  1  4  1  0  0  0  0
  2  1  1  0  0  0  0
  3  2  1  0  0  0  0
  4  5  2  0  0  0  0
  5 10  1  0  0  0  0
  6  5  1  0  0  0  0
  6 11  1  0  0  0  0
  7  6  2  0  0  0  0
  8  1  2  0  0  0  0
  8  7  1  0  0  0  0
 12  7  1  0  0  0  0
 13  8  1  0  0  0  0
 14 15  2  0  0  0  0
 15 16  1  0  0  0  0
 16  9  1  0  0  0  0
 17 15  1  0  0  0  0
 17 20  1  0  0  0  0
 18 17  1  0  0  0  0
 19 17  1  0  0  0  0
M  RAD  3   2   2   3   3   4   2
M  END
