Coordinates from ORCA-job PhN2+~CF3COO-_B3LYPG-6-31G_dp-CH-Scan-d09-49-n800
 OpenBabel11261919373D

 20 19  0  0  0  0  0  0  0  0999 V2000
   -1.3408    0.1392   -0.1480 C   0  0  0  0  0  0  0  0  0  0  0  0
   -2.7208    0.2793   -0.2963 N   0  0  0  0  0  0  0  0  0  0  0  0
   -3.8203    0.4568   -0.4087 N   0  0  0  0  0  0  0  0  0  0  0  0
   -0.6922    1.3731    0.0153 C   0  0  0  0  0  0  0  0  0  0  0  0
    0.7074    1.1449    0.1630 C   0  0  0  0  0  0  0  0  0  0  0  0
    1.2969   -0.1149    0.1441 C   0  0  0  0  0  0  0  0  0  0  0  0
    0.5294   -1.2941   -0.0302 C   0  0  0  0  0  0  0  0  0  0  0  0
   -0.8345   -1.1892   -0.1834 C   0  0  0  0  0  0  0  0  0  0  0  0
   -3.2227    4.8920    0.0234 H   0  0  0  0  0  0  0  0  0  0  0  0
    1.3665    2.0034    0.3013 H   0  0  0  0  0  0  0  0  0  0  0  0
    2.3748   -0.2139    0.2663 H   0  0  0  0  0  0  0  0  0  0  0  0
    1.0114   -2.2665   -0.0427 H   0  0  0  0  0  0  0  0  0  0  0  0
   -1.4750   -2.0563   -0.3214 H   0  0  0  0  0  0  0  0  0  0  0  0
   -4.9306    3.3027   -0.2806 O   0  0  0  0  0  0  0  0  0  0  0  0
   -5.0473    4.4971   -0.1860 C   0  0  0  0  0  0  0  0  0  0  0  0
   -4.0616    5.3832   -0.0138 O   0  0  0  0  0  0  0  0  0  0  0  0
   -6.4060    5.2277   -0.2525 C   0  0  0  0  0  0  0  0  0  0  0  0
   -6.4223    6.0855   -1.2876 F   0  0  0  0  0  0  0  0  0  0  0  0
   -7.3956    4.3464   -0.4087 F   0  0  0  0  0  0  0  0  0  0  0  0
   -6.6184    5.9225    0.8783 F   0  0  0  0  0  0  0  0  0  0  0  0
  1  4  1  0  0  0  0
  2  1  1  0  0  0  0
  3  2  1  0  0  0  0
  4  5  2  0  0  0  0
  5 10  1  0  0  0  0
  6  5  1  0  0  0  0
  6 11  1  0  0  0  0
  7  6  2  0  0  0  0
  8  1  2  0  0  0  0
  8  7  1  0  0  0  0
 12  7  1  0  0  0  0
 13  8  1  0  0  0  0
 14 15  2  0  0  0  0
 15 16  1  0  0  0  0
 16  9  1  0  0  0  0
 17 15  1  0  0  0  0
 17 20  1  0  0  0  0
 18 17  1  0  0  0  0
 19 17  1  0  0  0  0
M  RAD  3   2   2   3   3   4   2
M  END
