Coordinates from ORCA-job PhN2+~CF3COO-_B3LYPG-6-31G_dp-CH-Scan-d09-49-n800
 OpenBabel11261919373D

 20 19  0  0  0  0  0  0  0  0999 V2000
   -1.7802    0.2665   -0.1629 C   0  0  0  0  0  0  0  0  0  0  0  0
   -3.1538    0.1129   -0.3145 N   0  0  0  0  0  0  0  0  0  0  0  0
   -4.2625    0.0409   -0.4325 N   0  0  0  0  0  0  0  0  0  0  0  0
   -1.3656    1.6007   -0.0097 C   0  0  0  0  0  0  0  0  0  0  0  0
    0.0445    1.6607    0.1398 C   0  0  0  0  0  0  0  0  0  0  0  0
    0.8694    0.5392    0.1320 C   0  0  0  0  0  0  0  0  0  0  0  0
    0.3458   -0.7651   -0.0301 C   0  0  0  0  0  0  0  0  0  0  0  0
   -1.0132   -0.9292   -0.1834 C   0  0  0  0  0  0  0  0  0  0  0  0
   -2.8244    3.4645   -0.0095 H   0  0  0  0  0  0  0  0  0  0  0  0
    0.5166    2.6340    0.2696 H   0  0  0  0  0  0  0  0  0  0  0  0
    1.9447    0.6564    0.2540 H   0  0  0  0  0  0  0  0  0  0  0  0
    1.0054   -1.6266   -0.0332 H   0  0  0  0  0  0  0  0  0  0  0  0
   -1.4701   -1.9063   -0.3120 H   0  0  0  0  0  0  0  0  0  0  0  0
   -5.0743    2.7128   -0.3335 O   0  0  0  0  0  0  0  0  0  0  0  0
   -4.6744    3.8463   -0.1924 C   0  0  0  0  0  0  0  0  0  0  0  0
   -3.4294    4.2491   -0.0122 O   0  0  0  0  0  0  0  0  0  0  0  0
   -5.6301    5.0610   -0.2064 C   0  0  0  0  0  0  0  0  0  0  0  0
   -5.3070    5.9011   -1.2070 F   0  0  0  0  0  0  0  0  0  0  0  0
   -6.8939    4.6618   -0.3780 F   0  0  0  0  0  0  0  0  0  0  0  0
   -5.5489    5.7380    0.9537 F   0  0  0  0  0  0  0  0  0  0  0  0
  1  4  1  0  0  0  0
  2  1  1  0  0  0  0
  3  2  1  0  0  0  0
  4  5  2  0  0  0  0
  5 10  1  0  0  0  0
  6  5  1  0  0  0  0
  6 11  1  0  0  0  0
  7  6  2  0  0  0  0
  8  1  2  0  0  0  0
  8  7  1  0  0  0  0
 12  7  1  0  0  0  0
 13  8  1  0  0  0  0
 14 15  2  0  0  0  0
 15 16  1  0  0  0  0
 16  9  1  0  0  0  0
 17 15  1  0  0  0  0
 17 20  1  0  0  0  0
 18 17  1  0  0  0  0
 19 17  1  0  0  0  0
M  RAD  3   2   2   3   3   4   2
M  END
