Coordinates from ORCA-job PhN2+~CF3COO-_B3LYPG-6-31G_dp-CH-Scan-d09-49-n800
 OpenBabel11261919373D

 20 19  0  0  0  0  0  0  0  0999 V2000
   -1.6306    0.2165   -0.1546 C   0  0  0  0  0  0  0  0  0  0  0  0
   -3.0133    0.1557   -0.3038 N   0  0  0  0  0  0  0  0  0  0  0  0
   -4.1254    0.1584   -0.4192 N   0  0  0  0  0  0  0  0  0  0  0  0
   -1.1423    1.5242    0.0045 C   0  0  0  0  0  0  0  0  0  0  0  0
    0.2718    1.4913    0.1516 C   0  0  0  0  0  0  0  0  0  0  0  0
    1.0253    0.3213    0.1360 C   0  0  0  0  0  0  0  0  0  0  0  0
    0.4223   -0.9490   -0.0330 C   0  0  0  0  0  0  0  0  0  0  0  0
   -0.9439   -1.0281   -0.1846 C   0  0  0  0  0  0  0  0  0  0  0  0
   -2.9441    3.9136    0.0032 H   0  0  0  0  0  0  0  0  0  0  0  0
    0.8070    2.4316    0.2862 H   0  0  0  0  0  0  0  0  0  0  0  0
    2.1063    0.3698    0.2570 H   0  0  0  0  0  0  0  0  0  0  0  0
    1.0287   -1.8488   -0.0425 H   0  0  0  0  0  0  0  0  0  0  0  0
   -1.4613   -1.9742   -0.3182 H   0  0  0  0  0  0  0  0  0  0  0  0
   -5.0542    2.8820   -0.3175 O   0  0  0  0  0  0  0  0  0  0  0  0
   -4.8120    4.0574   -0.1920 C   0  0  0  0  0  0  0  0  0  0  0  0
   -3.6204    4.6183   -0.0118 O   0  0  0  0  0  0  0  0  0  0  0  0
   -5.9079    5.1456   -0.2251 C   0  0  0  0  0  0  0  0  0  0  0  0
   -5.6832    6.0048   -1.2350 F   0  0  0  0  0  0  0  0  0  0  0  0
   -7.1096    4.5890   -0.3962 F   0  0  0  0  0  0  0  0  0  0  0  0
   -5.9145    5.8396    0.9268 F   0  0  0  0  0  0  0  0  0  0  0  0
  1  4  1  0  0  0  0
  2  1  1  0  0  0  0
  3  2  1  0  0  0  0
  4  5  2  0  0  0  0
  5 10  1  0  0  0  0
  6  5  1  0  0  0  0
  6 11  1  0  0  0  0
  7  6  2  0  0  0  0
  8  1  2  0  0  0  0
  8  7  1  0  0  0  0
 12  7  1  0  0  0  0
 13  8  1  0  0  0  0
 14 15  2  0  0  0  0
 15 16  1  0  0  0  0
 16  9  1  0  0  0  0
 17 15  1  0  0  0  0
 17 20  1  0  0  0  0
 18 17  1  0  0  0  0
 19 17  1  0  0  0  0
M  RAD  3   2   2   3   3   4   2
M  END
