Coordinates from ORCA-job PhN2+~CF3COO-_B3LYPG-6-31G_dp-CH-Scan-d09-49-n800
 OpenBabel11261919373D

 20 19  0  0  0  0  0  0  0  0999 V2000
   -1.4110    0.1498   -0.1339 C   0  0  0  0  0  0  0  0  0  0  0  0
   -2.7966    0.2375   -0.2654 N   0  0  0  0  0  0  0  0  0  0  0  0
   -3.9033    0.3711   -0.3650 N   0  0  0  0  0  0  0  0  0  0  0  0
   -0.8045    1.4060    0.0234 C   0  0  0  0  0  0  0  0  0  0  0  0
    0.6039    1.2290    0.1527 C   0  0  0  0  0  0  0  0  0  0  0  0
    1.2386   -0.0085    0.1236 C   0  0  0  0  0  0  0  0  0  0  0  0
    0.5123   -1.2145   -0.0426 C   0  0  0  0  0  0  0  0  0  0  0  0
   -0.8564   -1.1589   -0.1777 C   0  0  0  0  0  0  0  0  0  0  0  0
   -3.1491    4.6514    0.0626 H   0  0  0  0  0  0  0  0  0  0  0  0
    1.2330    2.1108    0.2840 H   0  0  0  0  0  0  0  0  0  0  0  0
    2.3209   -0.0680    0.2314 H   0  0  0  0  0  0  0  0  0  0  0  0
    1.0290   -2.1687   -0.0631 H   0  0  0  0  0  0  0  0  0  0  0  0
   -1.4667   -2.0486   -0.3086 H   0  0  0  0  0  0  0  0  0  0  0  0
   -4.9661    3.1922   -0.2833 O   0  0  0  0  0  0  0  0  0  0  0  0
   -4.9942    4.3918   -0.1828 C   0  0  0  0  0  0  0  0  0  0  0  0
   -3.9500    5.2014    0.0128 O   0  0  0  0  0  0  0  0  0  0  0  0
   -6.2941    5.2212   -0.2659 C   0  0  0  0  0  0  0  0  0  0  0  0
   -6.2202    6.1041   -1.2771 F   0  0  0  0  0  0  0  0  0  0  0  0
   -7.3404    4.4191   -0.4709 F   0  0  0  0  0  0  0  0  0  0  0  0
   -6.4866    5.9008    0.8778 F   0  0  0  0  0  0  0  0  0  0  0  0
  1  4  1  0  0  0  0
  2  1  1  0  0  0  0
  3  2  1  0  0  0  0
  4  5  2  0  0  0  0
  5 10  1  0  0  0  0
  6  5  1  0  0  0  0
  6 11  1  0  0  0  0
  7  6  2  0  0  0  0
  8  1  2  0  0  0  0
  8  7  1  0  0  0  0
 12  7  1  0  0  0  0
 13  8  1  0  0  0  0
 14 15  2  0  0  0  0
 15 16  1  0  0  0  0
 16  9  1  0  0  0  0
 17 15  1  0  0  0  0
 17 20  1  0  0  0  0
 18 17  1  0  0  0  0
 19 17  1  0  0  0  0
M  RAD  3   2   2   3   3   4   2
M  END
