Coordinates from ORCA-job PhN2+~CF3COO-_B3LYPG-6-31G_dp-CH-Scan-d09-49-n800
 OpenBabel11261919373D

 20 19  0  0  0  0  0  0  0  0999 V2000
   -1.5459    0.1878   -0.1514 C   0  0  0  0  0  0  0  0  0  0  0  0
   -2.9311    0.1813   -0.2990 N   0  0  0  0  0  0  0  0  0  0  0  0
   -4.0428    0.2317   -0.4121 N   0  0  0  0  0  0  0  0  0  0  0  0
   -1.0144    1.4792   -0.0010 C   0  0  0  0  0  0  0  0  0  0  0  0
    0.3992    1.3928    0.1444 C   0  0  0  0  0  0  0  0  0  0  0  0
    1.1092    0.1962    0.1350 C   0  0  0  0  0  0  0  0  0  0  0  0
    0.4600   -1.0530   -0.0256 C   0  0  0  0  0  0  0  0  0  0  0  0
   -0.9081   -1.0829   -0.1751 C   0  0  0  0  0  0  0  0  0  0  0  0
   -3.0129    4.1903    0.0040 H   0  0  0  0  0  0  0  0  0  0  0  0
    0.9703    2.3132    0.2725 H   0  0  0  0  0  0  0  0  0  0  0  0
    2.1916    0.2051    0.2544 H   0  0  0  0  0  0  0  0  0  0  0  0
    1.0337   -1.9741   -0.0304 H   0  0  0  0  0  0  0  0  0  0  0  0
   -1.4606   -2.0100   -0.3025 H   0  0  0  0  0  0  0  0  0  0  0  0
   -5.0256    2.9934   -0.3111 O   0  0  0  0  0  0  0  0  0  0  0  0
   -4.8833    4.1846   -0.1957 C   0  0  0  0  0  0  0  0  0  0  0  0
   -3.7374    4.8413   -0.0189 O   0  0  0  0  0  0  0  0  0  0  0  0
   -6.0617    5.1822   -0.2320 C   0  0  0  0  0  0  0  0  0  0  0  0
   -5.8880    6.0772   -1.2202 F   0  0  0  0  0  0  0  0  0  0  0  0
   -7.2106    4.5342   -0.4368 F   0  0  0  0  0  0  0  0  0  0  0  0
   -6.1432    5.8484    0.9333 F   0  0  0  0  0  0  0  0  0  0  0  0
  1  4  1  0  0  0  0
  2  1  1  0  0  0  0
  3  2  1  0  0  0  0
  4  5  2  0  0  0  0
  5 10  1  0  0  0  0
  6  5  1  0  0  0  0
  6 11  1  0  0  0  0
  7  6  2  0  0  0  0
  8  1  2  0  0  0  0
  8  7  1  0  0  0  0
 12  7  1  0  0  0  0
 13  8  1  0  0  0  0
 14 15  2  0  0  0  0
 15 16  1  0  0  0  0
 16  9  1  0  0  0  0
 17 15  1  0  0  0  0
 17 20  1  0  0  0  0
 18 17  1  0  0  0  0
 19 17  1  0  0  0  0
M  RAD  3   2   2   3   3   4   2
M  END
