Coordinates from ORCA-job PhN2+~CF3COO-_B3LYPG-6-31G_dp-CH-Scan-d09-49-n800
 OpenBabel11261919373D

 20 19  0  0  0  0  0  0  0  0999 V2000
   -1.5405    0.1862   -0.1507 C   0  0  0  0  0  0  0  0  0  0  0  0
   -2.9259    0.1835   -0.2977 N   0  0  0  0  0  0  0  0  0  0  0  0
   -4.0374    0.2370   -0.4114 N   0  0  0  0  0  0  0  0  0  0  0  0
   -1.0061    1.4763   -0.0008 C   0  0  0  0  0  0  0  0  0  0  0  0
    0.4075    1.3864    0.1441 C   0  0  0  0  0  0  0  0  0  0  0  0
    1.1145    0.1881    0.1346 C   0  0  0  0  0  0  0  0  0  0  0  0
    0.4623   -1.0596   -0.0256 C   0  0  0  0  0  0  0  0  0  0  0  0
   -0.9060   -1.0862   -0.1746 C   0  0  0  0  0  0  0  0  0  0  0  0
   -3.0180    4.2086    0.0051 H   0  0  0  0  0  0  0  0  0  0  0  0
    0.9808    2.3054    0.2719 H   0  0  0  0  0  0  0  0  0  0  0  0
    2.1970    0.1944    0.2536 H   0  0  0  0  0  0  0  0  0  0  0  0
    1.0338   -1.9821   -0.0305 H   0  0  0  0  0  0  0  0  0  0  0  0
   -1.4608   -2.0119   -0.3016 H   0  0  0  0  0  0  0  0  0  0  0  0
   -5.0236    3.0005   -0.3108 O   0  0  0  0  0  0  0  0  0  0  0  0
   -4.8877    4.1926   -0.1956 C   0  0  0  0  0  0  0  0  0  0  0  0
   -3.7454    4.8557   -0.0184 O   0  0  0  0  0  0  0  0  0  0  0  0
   -6.0712    5.1840   -0.2329 C   0  0  0  0  0  0  0  0  0  0  0  0
   -5.9008    6.0807   -1.2201 F   0  0  0  0  0  0  0  0  0  0  0  0
   -7.2164    4.5303   -0.4397 F   0  0  0  0  0  0  0  0  0  0  0  0
   -6.1577    5.8488    0.9329 F   0  0  0  0  0  0  0  0  0  0  0  0
  1  4  1  0  0  0  0
  2  1  1  0  0  0  0
  3  2  1  0  0  0  0
  4  5  2  0  0  0  0
  5 10  1  0  0  0  0
  6  5  1  0  0  0  0
  6 11  1  0  0  0  0
  7  6  2  0  0  0  0
  8  1  2  0  0  0  0
  8  7  1  0  0  0  0
 12  7  1  0  0  0  0
 13  8  1  0  0  0  0
 14 15  2  0  0  0  0
 15 16  1  0  0  0  0
 16  9  1  0  0  0  0
 17 15  1  0  0  0  0
 17 20  1  0  0  0  0
 18 17  1  0  0  0  0
 19 17  1  0  0  0  0
M  RAD  3   2   2   3   3   4   2
M  END
