Coordinates from ORCA-job PhN2+~CF3COO-_B3LYPG-6-31G_dp-CH-Scan-d09-49-n800
 OpenBabel11261919373D

 20 19  0  0  0  0  0  0  0  0999 V2000
   -1.4165    0.1507   -0.1362 C   0  0  0  0  0  0  0  0  0  0  0  0
   -2.8021    0.2338   -0.2701 N   0  0  0  0  0  0  0  0  0  0  0  0
   -3.9091    0.3634   -0.3717 N   0  0  0  0  0  0  0  0  0  0  0  0
   -0.8138    1.4090    0.0192 C   0  0  0  0  0  0  0  0  0  0  0  0
    0.5949    1.2365    0.1508 C   0  0  0  0  0  0  0  0  0  0  0  0
    1.2333    0.0008    0.1253 C   0  0  0  0  0  0  0  0  0  0  0  0
    0.5108   -1.2076   -0.0393 C   0  0  0  0  0  0  0  0  0  0  0  0
   -0.8579   -1.1564   -0.1765 C   0  0  0  0  0  0  0  0  0  0  0  0
   -3.1429    4.6286    0.0567 H   0  0  0  0  0  0  0  0  0  0  0  0
    1.2212    2.1204    0.2811 H   0  0  0  0  0  0  0  0  0  0  0  0
    2.3156   -0.0553    0.2347 H   0  0  0  0  0  0  0  0  0  0  0  0
    1.0303   -2.1604   -0.0570 H   0  0  0  0  0  0  0  0  0  0  0  0
   -1.4653   -2.0482   -0.3063 H   0  0  0  0  0  0  0  0  0  0  0  0
   -4.9715    3.1828   -0.2868 O   0  0  0  0  0  0  0  0  0  0  0  0
   -4.9905    4.3824   -0.1844 C   0  0  0  0  0  0  0  0  0  0  0  0
   -3.9401    5.1841    0.0097 O   0  0  0  0  0  0  0  0  0  0  0  0
   -6.2846    5.2213   -0.2625 C   0  0  0  0  0  0  0  0  0  0  0  0
   -6.2059    6.1075   -1.2704 F   0  0  0  0  0  0  0  0  0  0  0  0
   -7.3370    4.4275   -0.4689 F   0  0  0  0  0  0  0  0  0  0  0  0
   -6.4705    5.8980    0.8842 F   0  0  0  0  0  0  0  0  0  0  0  0
  1  4  1  0  0  0  0
  2  1  1  0  0  0  0
  3  2  1  0  0  0  0
  4  5  2  0  0  0  0
  5 10  1  0  0  0  0
  6  5  1  0  0  0  0
  6 11  1  0  0  0  0
  7  6  2  0  0  0  0
  8  1  2  0  0  0  0
  8  7  1  0  0  0  0
 12  7  1  0  0  0  0
 13  8  1  0  0  0  0
 14 15  2  0  0  0  0
 15 16  1  0  0  0  0
 16  9  1  0  0  0  0
 17 15  1  0  0  0  0
 17 20  1  0  0  0  0
 18 17  1  0  0  0  0
 19 17  1  0  0  0  0
M  RAD  3   2   2   3   3   4   2
M  END
