Coordinates from ORCA-job PhN2+~CF3COO-_B3LYPG-6-31G_dp-CH-Scan-d09-49-n800
 OpenBabel11261919373D

 20 19  0  0  0  0  0  0  0  0999 V2000
   -1.8861    0.3038   -0.1784 C   0  0  0  0  0  0  0  0  0  0  0  0
   -3.2495    0.0867   -0.3410 N   0  0  0  0  0  0  0  0  0  0  0  0
   -4.3534   -0.0235   -0.4668 N   0  0  0  0  0  0  0  0  0  0  0  0
   -1.5222    1.6537   -0.0320 C   0  0  0  0  0  0  0  0  0  0  0  0
   -0.1200    1.7768    0.1295 C   0  0  0  0  0  0  0  0  0  0  0  0
    0.7516    0.6905    0.1383 C   0  0  0  0  0  0  0  0  0  0  0  0
    0.2837   -0.6338   -0.0177 C   0  0  0  0  0  0  0  0  0  0  0  0
   -1.0666   -0.8548   -0.1818 C   0  0  0  0  0  0  0  0  0  0  0  0
   -2.7205    3.1618   -0.0402 H   0  0  0  0  0  0  0  0  0  0  0  0
    0.3057    2.7711    0.2552 H   0  0  0  0  0  0  0  0  0  0  0  0
    1.8194    0.8545    0.2689 H   0  0  0  0  0  0  0  0  0  0  0  0
    0.9773   -1.4679   -0.0079 H   0  0  0  0  0  0  0  0  0  0  0  0
   -1.4811   -1.8509   -0.3064 H   0  0  0  0  0  0  0  0  0  0  0  0
   -5.0654    2.6073   -0.3360 O   0  0  0  0  0  0  0  0  0  0  0  0
   -4.5649    3.7052   -0.1927 C   0  0  0  0  0  0  0  0  0  0  0  0
   -3.2992    4.0064   -0.0327 O   0  0  0  0  0  0  0  0  0  0  0  0
   -5.4322    4.9859   -0.1838 C   0  0  0  0  0  0  0  0  0  0  0  0
   -5.0731    5.8058   -1.1906 F   0  0  0  0  0  0  0  0  0  0  0  0
   -6.7278    4.6852   -0.3270 F   0  0  0  0  0  0  0  0  0  0  0  0
   -5.2775    5.6551    0.9748 F   0  0  0  0  0  0  0  0  0  0  0  0
  1  4  1  0  0  0  0
  2  1  1  0  0  0  0
  3  2  1  0  0  0  0
  4  5  2  0  0  0  0
  5  6  1  0  0  0  0
  5 10  1  0  0  0  0
  6 11  1  0  0  0  0
  7 12  1  0  0  0  0
  7  6  2  0  0  0  0
  8  1  2  0  0  0  0
  8  7  1  0  0  0  0
  9 16  1  0  0  0  0
 13  8  1  0  0  0  0
 14 15  2  0  0  0  0
 15 17  1  0  0  0  0
 15 16  1  0  0  0  0
 17 20  1  0  0  0  0
 18 17  1  0  0  0  0
 19 17  1  0  0  0  0
M  RAD  3   2   2   3   3   4   2
M  END
