Coordinates from ORCA-job PhN2+~CF3COO-_B3LYPG-6-31G_dp-CH-Scan-d09-49-n800
 OpenBabel11261919373D

 20 19  0  0  0  0  0  0  0  0999 V2000
   -1.4050    0.1484   -0.1326 C   0  0  0  0  0  0  0  0  0  0  0  0
   -2.7904    0.2403   -0.2631 N   0  0  0  0  0  0  0  0  0  0  0  0
   -3.8968    0.3771   -0.3616 N   0  0  0  0  0  0  0  0  0  0  0  0
   -0.7948    1.4027    0.0261 C   0  0  0  0  0  0  0  0  0  0  0  0
    0.6132    1.2213    0.1543 C   0  0  0  0  0  0  0  0  0  0  0  0
    1.2443   -0.0179    0.1231 C   0  0  0  0  0  0  0  0  0  0  0  0
    0.5144   -1.2216   -0.0445 C   0  0  0  0  0  0  0  0  0  0  0  0
   -0.8542   -1.1619   -0.1788 C   0  0  0  0  0  0  0  0  0  0  0  0
   -3.1559    4.6732    0.0648 H   0  0  0  0  0  0  0  0  0  0  0  0
    1.2449    2.1011    0.2866 H   0  0  0  0  0  0  0  0  0  0  0  0
    2.3265   -0.0808    0.2301 H   0  0  0  0  0  0  0  0  0  0  0  0
    1.0284   -2.1773   -0.0667 H   0  0  0  0  0  0  0  0  0  0  0  0
   -1.4671   -2.0496   -0.3106 H   0  0  0  0  0  0  0  0  0  0  0  0
   -4.9632    3.2020   -0.2811 O   0  0  0  0  0  0  0  0  0  0  0  0
   -4.9991    4.4015   -0.1821 C   0  0  0  0  0  0  0  0  0  0  0  0
   -3.9602    5.2180    0.0136 O   0  0  0  0  0  0  0  0  0  0  0  0
   -6.3042    5.2224   -0.2678 C   0  0  0  0  0  0  0  0  0  0  0  0
   -6.2357    6.1026   -1.2816 F   0  0  0  0  0  0  0  0  0  0  0  0
   -7.3453    4.4130   -0.4705 F   0  0  0  0  0  0  0  0  0  0  0  0
   -6.5012    5.9043    0.8739 F   0  0  0  0  0  0  0  0  0  0  0  0
  1  4  1  0  0  0  0
  2  1  1  0  0  0  0
  3  2  1  0  0  0  0
  4  5  2  0  0  0  0
  5 10  1  0  0  0  0
  6  5  1  0  0  0  0
  6 11  1  0  0  0  0
  7  6  2  0  0  0  0
  8  1  2  0  0  0  0
  8  7  1  0  0  0  0
 12  7  1  0  0  0  0
 13  8  1  0  0  0  0
 14 15  2  0  0  0  0
 15 16  1  0  0  0  0
 16  9  1  0  0  0  0
 17 15  1  0  0  0  0
 17 20  1  0  0  0  0
 18 17  1  0  0  0  0
 19 17  1  0  0  0  0
M  RAD  3   2   2   3   3   4   2
M  END
