Coordinates from ORCA-job PhN2+~CF3COO-_B3LYPG-6-31G_dp-CH-Scan-d09-49-n800
 OpenBabel11261919373D

 20 19  0  0  0  0  0  0  0  0999 V2000
   -1.2846    0.1333   -0.1839 C   0  0  0  0  0  0  0  0  0  0  0  0
   -2.6560    0.3115   -0.3695 N   0  0  0  0  0  0  0  0  0  0  0  0
   -3.7461    0.5213   -0.5133 N   0  0  0  0  0  0  0  0  0  0  0  0
   -0.6045    1.3515   -0.0338 C   0  0  0  0  0  0  0  0  0  0  0  0
    0.7840    1.0866    0.1540 C   0  0  0  0  0  0  0  0  0  0  0  0
    1.3361   -0.1898    0.1804 C   0  0  0  0  0  0  0  0  0  0  0  0
    0.5384   -1.3503    0.0149 C   0  0  0  0  0  0  0  0  0  0  0  0
   -0.8175   -1.2098   -0.1754 C   0  0  0  0  0  0  0  0  0  0  0  0
   -3.2822    5.0419   -0.0621 H   0  0  0  0  0  0  0  0  0  0  0  0
    1.4646    1.9289    0.2879 H   0  0  0  0  0  0  0  0  0  0  0  0
    2.4072   -0.3171    0.3325 H   0  0  0  0  0  0  0  0  0  0  0  0
    0.9917   -2.3362    0.0381 H   0  0  0  0  0  0  0  0  0  0  0  0
   -1.4798   -2.0611   -0.3093 H   0  0  0  0  0  0  0  0  0  0  0  0
   -4.9271    3.3800   -0.3061 O   0  0  0  0  0  0  0  0  0  0  0  0
   -5.0940    4.5675   -0.2026 C   0  0  0  0  0  0  0  0  0  0  0  0
   -4.1423    5.4964   -0.0654 O   0  0  0  0  0  0  0  0  0  0  0  0
   -6.4853    5.2370   -0.2119 C   0  0  0  0  0  0  0  0  0  0  0  0
   -6.5751    6.1106   -1.2296 F   0  0  0  0  0  0  0  0  0  0  0  0
   -7.4393    4.3147   -0.3512 F   0  0  0  0  0  0  0  0  0  0  0  0
   -6.6896    5.9023    0.9381 F   0  0  0  0  0  0  0  0  0  0  0  0
  1  8  2  0  0  0  0
  1  4  1  0  0  0  0
  2  1  1  0  0  0  0
  3  2  1  0  0  0  0
  4  5  2  0  0  0  0
  5  6  1  0  0  0  0
  5 10  1  0  0  0  0
  6 11  1  0  0  0  0
  7 12  1  0  0  0  0
  7  6  2  0  0  0  0
  8  7  1  0  0  0  0
 13  8  1  0  0  0  0
 14 15  2  0  0  0  0
 15 16  1  0  0  0  0
 16  9  1  0  0  0  0
 17 15  1  0  0  0  0
 17 20  1  0  0  0  0
 18 17  1  0  0  0  0
 19 17  1  0  0  0  0
M  RAD  3   2   2   3   3   4   2
M  END
