Coordinates from ORCA-job PhN2+~CF3COO-_B3LYPG-6-31G_dp-CH-Scan-d09-49-n800
 OpenBabel11261919373D

 20 19  0  0  0  0  0  0  0  0999 V2000
   -1.6796    0.2314   -0.1551 C   0  0  0  0  0  0  0  0  0  0  0  0
   -3.0600    0.1385   -0.3029 N   0  0  0  0  0  0  0  0  0  0  0  0
   -4.1721    0.1151   -0.4147 N   0  0  0  0  0  0  0  0  0  0  0  0
   -1.2168    1.5485    0.0050 C   0  0  0  0  0  0  0  0  0  0  0  0
    0.1970    1.5476    0.1503 C   0  0  0  0  0  0  0  0  0  0  0  0
    0.9756    0.3940    0.1325 C   0  0  0  0  0  0  0  0  0  0  0  0
    0.3999   -0.8883   -0.0368 C   0  0  0  0  0  0  0  0  0  0  0  0
   -0.9646   -0.9968   -0.1868 C   0  0  0  0  0  0  0  0  0  0  0  0
   -2.9078    3.7581    0.0110 H   0  0  0  0  0  0  0  0  0  0  0  0
    0.7109    2.4994    0.2850 H   0  0  0  0  0  0  0  0  0  0  0  0
    2.0554    0.4661    0.2520 H   0  0  0  0  0  0  0  0  0  0  0  0
    1.0252   -1.7750   -0.0480 H   0  0  0  0  0  0  0  0  0  0  0  0
   -1.4612   -1.9539   -0.3207 H   0  0  0  0  0  0  0  0  0  0  0  0
   -5.0682    2.8237   -0.3204 O   0  0  0  0  0  0  0  0  0  0  0  0
   -4.7705    3.9864   -0.1896 C   0  0  0  0  0  0  0  0  0  0  0  0
   -3.5575    4.4915   -0.0038 O   0  0  0  0  0  0  0  0  0  0  0  0
   -5.8169    5.1226   -0.2237 C   0  0  0  0  0  0  0  0  0  0  0  0
   -5.5538    5.9703   -1.2344 F   0  0  0  0  0  0  0  0  0  0  0  0
   -7.0431    4.6216   -0.3946 F   0  0  0  0  0  0  0  0  0  0  0  0
   -5.7932    5.8180    0.9275 F   0  0  0  0  0  0  0  0  0  0  0  0
  1  4  1  0  0  0  0
  2  1  1  0  0  0  0
  3  2  1  0  0  0  0
  4  5  2  0  0  0  0
  5 10  1  0  0  0  0
  6  5  1  0  0  0  0
  6 11  1  0  0  0  0
  7  6  2  0  0  0  0
  8  1  2  0  0  0  0
  8  7  1  0  0  0  0
 12  7  1  0  0  0  0
 13  8  1  0  0  0  0
 14 15  2  0  0  0  0
 15 16  1  0  0  0  0
 16  9  1  0  0  0  0
 17 15  1  0  0  0  0
 17 20  1  0  0  0  0
 18 17  1  0  0  0  0
 19 17  1  0  0  0  0
M  RAD  3   2   2   3   3   4   2
M  END
