Coordinates from ORCA-job PhN2+~CF3COO-_B3LYPG-6-31G_dp-CH-Scan-d09-49-n800
 OpenBabel11261919373D

 20 19  0  0  0  0  0  0  0  0999 V2000
   -1.4069    0.1492   -0.1330 C   0  0  0  0  0  0  0  0  0  0  0  0
   -2.7925    0.2397   -0.2638 N   0  0  0  0  0  0  0  0  0  0  0  0
   -3.8990    0.3750   -0.3627 N   0  0  0  0  0  0  0  0  0  0  0  0
   -0.7978    1.4040    0.0251 C   0  0  0  0  0  0  0  0  0  0  0  0
    0.6103    1.2239    0.1537 C   0  0  0  0  0  0  0  0  0  0  0  0
    1.2425   -0.0148    0.1232 C   0  0  0  0  0  0  0  0  0  0  0  0
    0.5136   -1.2192   -0.0438 C   0  0  0  0  0  0  0  0  0  0  0  0
   -0.8551   -1.1606   -0.1783 C   0  0  0  0  0  0  0  0  0  0  0  0
   -3.1536    4.6660    0.0643 H   0  0  0  0  0  0  0  0  0  0  0  0
    1.2413    2.1043    0.2855 H   0  0  0  0  0  0  0  0  0  0  0  0
    2.3247   -0.0768    0.2304 H   0  0  0  0  0  0  0  0  0  0  0  0
    1.0283   -2.1745   -0.0654 H   0  0  0  0  0  0  0  0  0  0  0  0
   -1.4672   -2.0490   -0.3097 H   0  0  0  0  0  0  0  0  0  0  0  0
   -4.9644    3.1985   -0.2819 O   0  0  0  0  0  0  0  0  0  0  0  0
   -4.9974    4.3981   -0.1823 C   0  0  0  0  0  0  0  0  0  0  0  0
   -3.9569    5.2123    0.0135 O   0  0  0  0  0  0  0  0  0  0  0  0
   -6.3009    5.2218   -0.2672 C   0  0  0  0  0  0  0  0  0  0  0  0
   -6.2303    6.1032   -1.2799 F   0  0  0  0  0  0  0  0  0  0  0  0
   -7.3437    4.4150   -0.4711 F   0  0  0  0  0  0  0  0  0  0  0  0
   -6.4965    5.9028    0.8753 F   0  0  0  0  0  0  0  0  0  0  0  0
  1  4  1  0  0  0  0
  2  1  1  0  0  0  0
  3  2  1  0  0  0  0
  4  5  2  0  0  0  0
  5 10  1  0  0  0  0
  6  5  1  0  0  0  0
  6 11  1  0  0  0  0
  7  6  2  0  0  0  0
  8  1  2  0  0  0  0
  8  7  1  0  0  0  0
 12  7  1  0  0  0  0
 13  8  1  0  0  0  0
 14 15  2  0  0  0  0
 15 16  1  0  0  0  0
 16  9  1  0  0  0  0
 17 15  1  0  0  0  0
 17 20  1  0  0  0  0
 18 17  1  0  0  0  0
 19 17  1  0  0  0  0
M  RAD  3   2   2   3   3   4   2
M  END
