Coordinates from ORCA-job PhN2+~CF3COO-_B3LYPG-6-31G_dp-CH-Scan-d09-49-n800
 OpenBabel11261919373D

 20 19  0  0  0  0  0  0  0  0999 V2000
   -1.6100    0.2101   -0.1551 C   0  0  0  0  0  0  0  0  0  0  0  0
   -2.9934    0.1628   -0.3050 N   0  0  0  0  0  0  0  0  0  0  0  0
   -4.1055    0.1767   -0.4211 N   0  0  0  0  0  0  0  0  0  0  0  0
   -1.1108    1.5140    0.0008 C   0  0  0  0  0  0  0  0  0  0  0  0
    0.3033    1.4677    0.1486 C   0  0  0  0  0  0  0  0  0  0  0  0
    1.0458    0.2907    0.1365 C   0  0  0  0  0  0  0  0  0  0  0  0
    0.4311   -0.9745   -0.0295 C   0  0  0  0  0  0  0  0  0  0  0  0
   -0.9356   -1.0413   -0.1816 C   0  0  0  0  0  0  0  0  0  0  0  0
   -2.9597    3.9807    0.0024 H   0  0  0  0  0  0  0  0  0  0  0  0
    0.8475    2.4032    0.2810 H   0  0  0  0  0  0  0  0  0  0  0  0
    2.1272    0.3293    0.2580 H   0  0  0  0  0  0  0  0  0  0  0  0
    1.0293   -1.8799   -0.0363 H   0  0  0  0  0  0  0  0  0  0  0  0
   -1.4619   -1.9829   -0.3131 H   0  0  0  0  0  0  0  0  0  0  0  0
   -5.0467    2.9079   -0.3165 O   0  0  0  0  0  0  0  0  0  0  0  0
   -4.8289    4.0879   -0.1930 C   0  0  0  0  0  0  0  0  0  0  0  0
   -3.6477    4.6727   -0.0140 O   0  0  0  0  0  0  0  0  0  0  0  0
   -5.9458    5.1544   -0.2257 C   0  0  0  0  0  0  0  0  0  0  0  0
   -5.7343    6.0229   -1.2303 F   0  0  0  0  0  0  0  0  0  0  0  0
   -7.1353    4.5745   -0.4041 F   0  0  0  0  0  0  0  0  0  0  0  0
   -5.9703    5.8420    0.9298 F   0  0  0  0  0  0  0  0  0  0  0  0
  1  4  1  0  0  0  0
  2  1  1  0  0  0  0
  3  2  1  0  0  0  0
  4  5  2  0  0  0  0
  5 10  1  0  0  0  0
  6  5  1  0  0  0  0
  6 11  1  0  0  0  0
  7  6  2  0  0  0  0
  8  1  2  0  0  0  0
  8  7  1  0  0  0  0
 12  7  1  0  0  0  0
 13  8  1  0  0  0  0
 14 15  2  0  0  0  0
 15 16  1  0  0  0  0
 16  9  1  0  0  0  0
 17 15  1  0  0  0  0
 17 20  1  0  0  0  0
 18 17  1  0  0  0  0
 19 17  1  0  0  0  0
M  RAD  3   2   2   3   3   4   2
M  END
