Coordinates from ORCA-job PhN2+~CF3COO-_B3LYPG-6-31G_dp-CH-Scan-d09-49-n800
 OpenBabel11261919373D

 20 19  0  0  0  0  0  0  0  0999 V2000
   -1.3280    0.1376   -0.1529 C   0  0  0  0  0  0  0  0  0  0  0  0
   -2.7066    0.2868   -0.3062 N   0  0  0  0  0  0  0  0  0  0  0  0
   -3.8043    0.4718   -0.4235 N   0  0  0  0  0  0  0  0  0  0  0  0
   -0.6718    1.3678    0.0079 C   0  0  0  0  0  0  0  0  0  0  0  0
    0.7259    1.1308    0.1609 C   0  0  0  0  0  0  0  0  0  0  0  0
    1.3070   -0.1330    0.1489 C   0  0  0  0  0  0  0  0  0  0  0  0
    0.5320   -1.3077   -0.0234 C   0  0  0  0  0  0  0  0  0  0  0  0
   -0.8306   -1.1943   -0.1816 C   0  0  0  0  0  0  0  0  0  0  0  0
   -3.2370    4.9295    0.0134 H   0  0  0  0  0  0  0  0  0  0  0  0
    1.3903    1.9854    0.2980 H   0  0  0  0  0  0  0  0  0  0  0  0
    2.3837   -0.2388    0.2751 H   0  0  0  0  0  0  0  0  0  0  0  0
    1.0076   -2.2834   -0.0306 H   0  0  0  0  0  0  0  0  0  0  0  0
   -1.4764   -2.0576   -0.3185 H   0  0  0  0  0  0  0  0  0  0  0  0
   -4.9281    3.3215   -0.2833 O   0  0  0  0  0  0  0  0  0  0  0  0
   -5.0580    4.5144   -0.1878 C   0  0  0  0  0  0  0  0  0  0  0  0
   -4.0814    5.4115   -0.0198 O   0  0  0  0  0  0  0  0  0  0  0  0
   -6.4250    5.2297   -0.2476 C   0  0  0  0  0  0  0  0  0  0  0  0
   -6.4549    6.0898   -1.2806 F   0  0  0  0  0  0  0  0  0  0  0  0
   -7.4052    4.3378   -0.4023 F   0  0  0  0  0  0  0  0  0  0  0  0
   -6.6409    5.9194    0.8856 F   0  0  0  0  0  0  0  0  0  0  0  0
  1  4  1  0  0  0  0
  2  1  1  0  0  0  0
  3  2  1  0  0  0  0
  4  5  2  0  0  0  0
  5 10  1  0  0  0  0
  6  5  1  0  0  0  0
  6 11  1  0  0  0  0
  7  6  2  0  0  0  0
  8  1  2  0  0  0  0
  8  7  1  0  0  0  0
 12  7  1  0  0  0  0
 13  8  1  0  0  0  0
 14 15  2  0  0  0  0
 15 16  1  0  0  0  0
 16  9  1  0  0  0  0
 17 15  1  0  0  0  0
 17 20  1  0  0  0  0
 18 17  1  0  0  0  0
 19 17  1  0  0  0  0
M  RAD  3   2   2   3   3   4   2
M  END
