Coordinates from ORCA-job PhN2+~CF3COO-_B3LYPG-6-31G_dp-CH-Scan-d09-49-n800
 OpenBabel11261919373D

 20 19  0  0  0  0  0  0  0  0999 V2000
   -2.0497    0.8037   -0.4015 C   0  0  0  0  0  0  0  0  0  0  0  0
   -3.4078    0.7788   -0.8375 N   0  0  0  0  0  0  0  0  0  0  0  0
   -4.2196    0.2061   -1.3700 N   0  0  0  0  0  0  0  0  0  0  0  0
   -1.3205    1.9865   -0.4738 C   0  0  0  0  0  0  0  0  0  0  0  0
    0.0192    1.9335   -0.0965 C   0  0  0  0  0  0  0  0  0  0  0  0
    0.5812    0.7375    0.3606 C   0  0  0  0  0  0  0  0  0  0  0  0
   -0.1840   -0.4318    0.4270 C   0  0  0  0  0  0  0  0  0  0  0  0
   -1.5185   -0.4166    0.0337 C   0  0  0  0  0  0  0  0  0  0  0  0
   -1.8468    2.9272   -0.8611 H   0  0  0  0  0  0  0  0  0  0  0  0
    0.6225    2.8336   -0.1518 H   0  0  0  0  0  0  0  0  0  0  0  0
    1.6215    0.7144    0.6697 H   0  0  0  0  0  0  0  0  0  0  0  0
    0.2560   -1.3570    0.7840 H   0  0  0  0  0  0  0  0  0  0  0  0
   -2.1353   -1.3076    0.0707 H   0  0  0  0  0  0  0  0  0  0  0  0
   -4.2139    2.3800    0.2479 O   0  0  0  0  0  0  0  0  0  0  0  0
   -4.2237    3.4869   -0.3873 C   0  0  0  0  0  0  0  0  0  0  0  0
   -3.5289    3.8506   -1.3406 O   0  0  0  0  0  0  0  0  0  0  0  0
   -5.2876    4.4745    0.1783 C   0  0  0  0  0  0  0  0  0  0  0  0
   -5.2588    5.6561   -0.4542 F   0  0  0  0  0  0  0  0  0  0  0  0
   -6.5283    3.9602    0.0419 F   0  0  0  0  0  0  0  0  0  0  0  0
   -5.0785    4.7023    1.4921 F   0  0  0  0  0  0  0  0  0  0  0  0
  1  8  1  0  0  0  0
  2  1  1  0  0  0  0
  3  2  2  0  0  0  0
  4  1  2  0  0  0  0
  4  5  1  0  0  0  0
  5  6  2  0  0  0  0
  6  7  1  0  0  0  0
  6 11  1  0  0  0  0
  7 12  1  0  0  0  0
  8 13  1  0  0  0  0
  8  7  2  0  0  0  0
  9  4  1  0  0  0  0
 10  5  1  0  0  0  0
 15 17  1  0  0  0  0
 15 14  1  0  0  0  0
 16 15  2  0  0  0  0
 17 20  1  0  0  0  0
 18 17  1  0  0  0  0
 19 17  1  0  0  0  0
M  RAD  2   3   2  14   2
M  END
