Coordinates from ORCA-job PhN2+~CF3COO-_B3LYPG-6-31G_dp-CH-Scan-d09-49-n800
 OpenBabel11261919373D

 20 19  0  0  0  0  0  0  0  0999 V2000
   -2.0525    0.7393   -0.3426 C   0  0  0  0  0  0  0  0  0  0  0  0
   -3.4264    0.6685   -0.7047 N   0  0  0  0  0  0  0  0  0  0  0  0
   -4.2883    0.0647   -1.1030 N   0  0  0  0  0  0  0  0  0  0  0  0
   -1.3592    1.9418   -0.4345 C   0  0  0  0  0  0  0  0  0  0  0  0
    0.0000    1.9125   -0.1255 C   0  0  0  0  0  0  0  0  0  0  0  0
    0.6141    0.7250    0.2811 C   0  0  0  0  0  0  0  0  0  0  0  0
   -0.1175   -0.4664    0.3670 C   0  0  0  0  0  0  0  0  0  0  0  0
   -1.4684   -0.4780    0.0435 C   0  0  0  0  0  0  0  0  0  0  0  0
   -1.9447    2.9143   -0.7759 H   0  0  0  0  0  0  0  0  0  0  0  0
    0.5780    2.8284   -0.1939 H   0  0  0  0  0  0  0  0  0  0  0  0
    1.6693    0.7232    0.5369 H   0  0  0  0  0  0  0  0  0  0  0  0
    0.3633   -1.3854    0.6851 H   0  0  0  0  0  0  0  0  0  0  0  0
   -2.0606   -1.3851    0.0946 H   0  0  0  0  0  0  0  0  0  0  0  0
   -4.2735    2.4397    0.1605 O   0  0  0  0  0  0  0  0  0  0  0  0
   -4.1690    3.6069   -0.3331 C   0  0  0  0  0  0  0  0  0  0  0  0
   -3.3026    4.0812   -1.0795 O   0  0  0  0  0  0  0  0  0  0  0  0
   -5.3388    4.5372    0.1076 C   0  0  0  0  0  0  0  0  0  0  0  0
   -5.2037    5.7806   -0.3761 F   0  0  0  0  0  0  0  0  0  0  0  0
   -6.5199    4.0494   -0.3287 F   0  0  0  0  0  0  0  0  0  0  0  0
   -5.4008    4.6213    1.4532 F   0  0  0  0  0  0  0  0  0  0  0  0
  1  8  1  0  0  0  0
  2  1  1  0  0  0  0
  3  2  2  0  0  0  0
  4  1  2  0  0  0  0
  4  5  1  0  0  0  0
  5  6  2  0  0  0  0
  6  7  1  0  0  0  0
  6 11  1  0  0  0  0
  7 12  1  0  0  0  0
  8 13  1  0  0  0  0
  8  7  2  0  0  0  0
  9  4  1  0  0  0  0
 10  5  1  0  0  0  0
 15 17  1  0  0  0  0
 15 14  1  0  0  0  0
 16 15  2  0  0  0  0
 17 20  1  0  0  0  0
 18 17  1  0  0  0  0
 19 17  1  0  0  0  0
M  RAD  2   3   2  14   2
M  END
