Coordinates from ORCA-job PhN2+~CF3COO-_B3LYPG-6-31G_dp-CH-Scan-d09-49-n800
 OpenBabel11261919373D

 20 19  0  0  0  0  0  0  0  0999 V2000
   -1.4343    0.1542   -0.1402 C   0  0  0  0  0  0  0  0  0  0  0  0
   -2.8201    0.2240   -0.2787 N   0  0  0  0  0  0  0  0  0  0  0  0
   -3.9279    0.3423   -0.3843 N   0  0  0  0  0  0  0  0  0  0  0  0
   -0.8429    1.4181    0.0138 C   0  0  0  0  0  0  0  0  0  0  0  0
    0.5667    1.2590    0.1503 C   0  0  0  0  0  0  0  0  0  0  0  0
    1.2164    0.0291    0.1298 C   0  0  0  0  0  0  0  0  0  0  0  0
    0.5053   -1.1862   -0.0340 C   0  0  0  0  0  0  0  0  0  0  0  0
   -0.8634   -1.1477   -0.1754 C   0  0  0  0  0  0  0  0  0  0  0  0
   -3.1227    4.5623    0.0341 H   0  0  0  0  0  0  0  0  0  0  0  0
    1.1844    2.1490    0.2802 H   0  0  0  0  0  0  0  0  0  0  0  0
    2.2988   -0.0168    0.2427 H   0  0  0  0  0  0  0  0  0  0  0  0
    1.0334   -2.1342   -0.0476 H   0  0  0  0  0  0  0  0  0  0  0  0
   -1.4623   -2.0453   -0.3048 H   0  0  0  0  0  0  0  0  0  0  0  0
   -4.9840    3.1542   -0.2941 O   0  0  0  0  0  0  0  0  0  0  0  0
   -4.9770    4.3539   -0.1895 C   0  0  0  0  0  0  0  0  0  0  0  0
   -3.9092    5.1336   -0.0035 O   0  0  0  0  0  0  0  0  0  0  0  0
   -6.2546    5.2190   -0.2533 C   0  0  0  0  0  0  0  0  0  0  0  0
   -6.1638    6.1127   -1.2536 F   0  0  0  0  0  0  0  0  0  0  0  0
   -7.3240    4.4486   -0.4607 F   0  0  0  0  0  0  0  0  0  0  0  0
   -6.4204    5.8890    0.9005 F   0  0  0  0  0  0  0  0  0  0  0  0
  1  4  1  0  0  0  0
  2  1  1  0  0  0  0
  3  2  1  0  0  0  0
  4  5  2  0  0  0  0
  5 10  1  0  0  0  0
  6  5  1  0  0  0  0
  6 11  1  0  0  0  0
  7  6  2  0  0  0  0
  8  1  2  0  0  0  0
  8  7  1  0  0  0  0
 12  7  1  0  0  0  0
 13  8  1  0  0  0  0
 14 15  2  0  0  0  0
 15 16  1  0  0  0  0
 16  9  1  0  0  0  0
 17 15  1  0  0  0  0
 17 20  1  0  0  0  0
 18 17  1  0  0  0  0
 19 17  1  0  0  0  0
M  RAD  3   2   2   3   3   4   2
M  END
