Coordinates from ORCA-job PhN2+~CF3COO-_B3LYPG-6-31G_dp-CH-Scan-d09-49-n800
 OpenBabel11261919373D

 20 19  0  0  0  0  0  0  0  0999 V2000
   -1.8663    0.2964   -0.1745 C   0  0  0  0  0  0  0  0  0  0  0  0
   -3.2317    0.0905   -0.3342 N   0  0  0  0  0  0  0  0  0  0  0  0
   -4.3365   -0.0145   -0.4581 N   0  0  0  0  0  0  0  0  0  0  0  0
   -1.4935    1.6438   -0.0267 C   0  0  0  0  0  0  0  0  0  0  0  0
   -0.0893    1.7550    0.1315 C   0  0  0  0  0  0  0  0  0  0  0  0
    0.7740    0.6623    0.1362 C   0  0  0  0  0  0  0  0  0  0  0  0
    0.2959   -0.6586   -0.0209 C   0  0  0  0  0  0  0  0  0  0  0  0
   -1.0562   -0.8693   -0.1821 C   0  0  0  0  0  0  0  0  0  0  0  0
   -2.7424    3.2204   -0.0325 H   0  0  0  0  0  0  0  0  0  0  0  0
    0.3454    2.7455    0.2580 H   0  0  0  0  0  0  0  0  0  0  0  0
    1.8434    0.8178    0.2645 H   0  0  0  0  0  0  0  0  0  0  0  0
    0.9836   -1.4978   -0.0144 H   0  0  0  0  0  0  0  0  0  0  0  0
   -1.4785   -1.8621   -0.3075 H   0  0  0  0  0  0  0  0  0  0  0  0
   -5.0677    2.6267   -0.3373 O   0  0  0  0  0  0  0  0  0  0  0  0
   -4.5861    3.7315   -0.1930 C   0  0  0  0  0  0  0  0  0  0  0  0
   -3.3233    4.0515   -0.0266 O   0  0  0  0  0  0  0  0  0  0  0  0
   -5.4692    5.0010   -0.1887 C   0  0  0  0  0  0  0  0  0  0  0  0
   -5.1141    5.8254   -1.1929 F   0  0  0  0  0  0  0  0  0  0  0  0
   -6.7593    4.6825   -0.3401 F   0  0  0  0  0  0  0  0  0  0  0  0
   -5.3299    5.6708    0.9712 F   0  0  0  0  0  0  0  0  0  0  0  0
  1  4  1  0  0  0  0
  2  1  1  0  0  0  0
  3  2  1  0  0  0  0
  4  5  2  0  0  0  0
  5  6  1  0  0  0  0
  5 10  1  0  0  0  0
  6 11  1  0  0  0  0
  7 12  1  0  0  0  0
  7  6  2  0  0  0  0
  8  1  2  0  0  0  0
  8  7  1  0  0  0  0
  9 16  1  0  0  0  0
 13  8  1  0  0  0  0
 14 15  2  0  0  0  0
 15 17  1  0  0  0  0
 15 16  1  0  0  0  0
 17 20  1  0  0  0  0
 18 17  1  0  0  0  0
 19 17  1  0  0  0  0
M  RAD  3   2   2   3   3   4   2
M  END
