Coordinates from ORCA-job PhN2+~CF3COO-_B3LYPG-6-31G_dp-CH-Scan-d09-49-n800
 OpenBabel11261919373D

 20 19  0  0  0  0  0  0  0  0999 V2000
   -1.2998    0.7296   -1.2194 C   0  0  0  0  0  0  0  0  0  0  0  0
   -2.1698    0.8659   -2.3004 N   0  0  0  0  0  0  0  0  0  0  0  0
   -2.8000    0.9902   -3.2166 N   0  0  0  0  0  0  0  0  0  0  0  0
    0.0304    0.9721   -1.5925 C   0  0  0  0  0  0  0  0  0  0  0  0
    0.8691    0.8058   -0.4511 C   0  0  0  0  0  0  0  0  0  0  0  0
    0.4022    0.4481    0.8097 C   0  0  0  0  0  0  0  0  0  0  0  0
   -0.9766    0.2300    1.0605 C   0  0  0  0  0  0  0  0  0  0  0  0
   -1.8775    0.3719    0.0291 C   0  0  0  0  0  0  0  0  0  0  0  0
   -2.8972    4.7526   -0.6957 H   0  0  0  0  0  0  0  0  0  0  0  0
    1.9433    0.9639   -0.5622 H   0  0  0  0  0  0  0  0  0  0  0  0
    1.1019    0.3300    1.6362 H   0  0  0  0  0  0  0  0  0  0  0  0
   -1.3166   -0.0449    2.0539 H   0  0  0  0  0  0  0  0  0  0  0  0
   -2.9470    0.2316    0.1571 H   0  0  0  0  0  0  0  0  0  0  0  0
   -4.0512    2.7124   -0.8635 O   0  0  0  0  0  0  0  0  0  0  0  0
   -4.3615    3.6791   -0.2137 C   0  0  0  0  0  0  0  0  0  0  0  0
   -3.6911    4.8310   -0.1389 O   0  0  0  0  0  0  0  0  0  0  0  0
   -5.6310    3.7445    0.6632 C   0  0  0  0  0  0  0  0  0  0  0  0
   -6.4532    4.7063    0.2124 F   0  0  0  0  0  0  0  0  0  0  0  0
   -6.2721    2.5752    0.6282 F   0  0  0  0  0  0  0  0  0  0  0  0
   -5.3038    4.0236    1.9354 F   0  0  0  0  0  0  0  0  0  0  0  0
  1  8  1  0  0  0  0
  2  1  1  0  0  0  0
  3  2  1  0  0  0  0
  4  1  2  0  0  0  0
  4  5  1  0  0  0  0
  5  6  2  0  0  0  0
  6  7  1  0  0  0  0
  6 11  1  0  0  0  0
  7 12  1  0  0  0  0
  8 13  1  0  0  0  0
  8  7  2  0  0  0  0
  9 16  1  0  0  0  0
 10  5  1  0  0  0  0
 14 15  2  0  0  0  0
 15 16  1  0  0  0  0
 15 17  1  0  0  0  0
 17 20  1  0  0  0  0
 18 17  1  0  0  0  0
 19 17  1  0  0  0  0
M  RAD  3   2   2   3   3   4   2
M  END
