Coordinates from ORCA-job PhN2+~CF3COO-_B3LYPG-6-31G_dp-CH-Scan-d09-49-n800
 OpenBabel11261919373D

 20 19  0  0  0  0  0  0  0  0999 V2000
   -1.9540    0.3643   -0.2050 C   0  0  0  0  0  0  0  0  0  0  0  0
   -3.3214    0.1644   -0.3918 N   0  0  0  0  0  0  0  0  0  0  0  0
   -4.4322    0.2433   -0.5155 N   0  0  0  0  0  0  0  0  0  0  0  0
   -1.5641    1.7007   -0.0576 C   0  0  0  0  0  0  0  0  0  0  0  0
   -0.1834    1.8647    0.1314 C   0  0  0  0  0  0  0  0  0  0  0  0
    0.6923    0.7782    0.1641 C   0  0  0  0  0  0  0  0  0  0  0  0
    0.2292   -0.5422    0.0073 C   0  0  0  0  0  0  0  0  0  0  0  0
   -1.1212   -0.7732   -0.1832 C   0  0  0  0  0  0  0  0  0  0  0  0
   -2.4761    2.7564   -0.0983 H   0  0  0  0  0  0  0  0  0  0  0  0
    0.2137    2.8687    0.2568 H   0  0  0  0  0  0  0  0  0  0  0  0
    1.7554    0.9481    0.3143 H   0  0  0  0  0  0  0  0  0  0  0  0
    0.9240   -1.3746    0.0360 H   0  0  0  0  0  0  0  0  0  0  0  0
   -1.5259   -1.7723   -0.3087 H   0  0  0  0  0  0  0  0  0  0  0  0
   -5.1201    2.5096   -0.2796 O   0  0  0  0  0  0  0  0  0  0  0  0
   -4.5000    3.5773   -0.1931 C   0  0  0  0  0  0  0  0  0  0  0  0
   -3.2471    3.7986   -0.1220 O   0  0  0  0  0  0  0  0  0  0  0  0
   -5.3316    4.8896   -0.1632 C   0  0  0  0  0  0  0  0  0  0  0  0
   -5.0011    5.6823   -1.2049 F   0  0  0  0  0  0  0  0  0  0  0  0
   -6.6509    4.6558   -0.2265 F   0  0  0  0  0  0  0  0  0  0  0  0
   -5.0871    5.5791    0.9712 F   0  0  0  0  0  0  0  0  0  0  0  0
  1  8  2  0  0  0  0
  1  4  1  0  0  0  0
  2  1  1  0  0  0  0
  3  2  1  0  0  0  0
  4  5  2  0  0  0  0
  5  6  1  0  0  0  0
  5 10  1  0  0  0  0
  6 11  1  0  0  0  0
  7 12  1  0  0  0  0
  7  6  2  0  0  0  0
  8  7  1  0  0  0  0
 13  8  1  0  0  0  0
 14 15  2  0  0  0  0
 15 17  1  0  0  0  0
 15 16  1  0  0  0  0
 16  9  1  0  0  0  0
 17 20  1  0  0  0  0
 18 17  1  0  0  0  0
 19 17  1  0  0  0  0
M  RAD  3   2   2   3   3   4   2
M  END
