Coordinates from ORCA-job PhN2+~CF3COO-_B3LYPG-6-31G_dp-CH-Scan-d09-49-n800
 OpenBabel11261919373D

 20 19  0  0  0  0  0  0  0  0999 V2000
   -1.3856    0.1454   -0.1316 C   0  0  0  0  0  0  0  0  0  0  0  0
   -2.7701    0.2522   -0.2623 N   0  0  0  0  0  0  0  0  0  0  0  0
   -3.8752    0.4011   -0.3594 N   0  0  0  0  0  0  0  0  0  0  0  0
   -0.7635    1.3929    0.0333 C   0  0  0  0  0  0  0  0  0  0  0  0
    0.6426    1.1969    0.1620 C   0  0  0  0  0  0  0  0  0  0  0  0
    1.2614   -0.0484    0.1257 C   0  0  0  0  0  0  0  0  0  0  0  0
    0.5197   -1.2440   -0.0483 C   0  0  0  0  0  0  0  0  0  0  0  0
   -0.8481   -1.1701   -0.1835 C   0  0  0  0  0  0  0  0  0  0  0  0
   -3.1762    4.7436    0.0604 H   0  0  0  0  0  0  0  0  0  0  0  0
    1.2829    2.0697    0.2989 H   0  0  0  0  0  0  0  0  0  0  0  0
    2.3428   -0.1226    0.2334 H   0  0  0  0  0  0  0  0  0  0  0  0
    1.0242   -2.2047   -0.0745 H   0  0  0  0  0  0  0  0  0  0  0  0
   -1.4697   -2.0511   -0.3200 H   0  0  0  0  0  0  0  0  0  0  0  0
   -4.9515    3.2330   -0.2757 O   0  0  0  0  0  0  0  0  0  0  0  0
   -5.0135    4.4317   -0.1815 C   0  0  0  0  0  0  0  0  0  0  0  0
   -3.9919    5.2713    0.0088 O   0  0  0  0  0  0  0  0  0  0  0  0
   -6.3361    5.2238   -0.2690 C   0  0  0  0  0  0  0  0  0  0  0  0
   -6.2923    6.0913   -1.2951 F   0  0  0  0  0  0  0  0  0  0  0  0
   -7.3611    4.3900   -0.4542 F   0  0  0  0  0  0  0  0  0  0  0  0
   -6.5404    5.9169    0.8645 F   0  0  0  0  0  0  0  0  0  0  0  0
  1  4  1  0  0  0  0
  2  1  1  0  0  0  0
  3  2  1  0  0  0  0
  4  5  2  0  0  0  0
  5 10  1  0  0  0  0
  6  5  1  0  0  0  0
  6 11  1  0  0  0  0
  7  6  2  0  0  0  0
  8  1  2  0  0  0  0
  8  7  1  0  0  0  0
 12  7  1  0  0  0  0
 13  8  1  0  0  0  0
 14 15  2  0  0  0  0
 15 16  1  0  0  0  0
 16  9  1  0  0  0  0
 17 15  1  0  0  0  0
 17 20  1  0  0  0  0
 18 17  1  0  0  0  0
 19 17  1  0  0  0  0
M  RAD  3   2   2   3   3   4   2
M  END
