Coordinates from ORCA-job PhN2+~CF3COO-_B3LYPG-6-31G_dp-CH-Scan-d09-49-n800
 OpenBabel11261919373D

 20 19  0  0  0  0  0  0  0  0999 V2000
   -1.2956    0.7285   -1.2195 C   0  0  0  0  0  0  0  0  0  0  0  0
   -2.1651    0.8680   -2.3005 N   0  0  0  0  0  0  0  0  0  0  0  0
   -2.7939    0.9960   -3.2172 N   0  0  0  0  0  0  0  0  0  0  0  0
    0.0357    0.9659   -1.5928 C   0  0  0  0  0  0  0  0  0  0  0  0
    0.8737    0.7971   -0.4512 C   0  0  0  0  0  0  0  0  0  0  0  0
    0.4053    0.4418    0.8097 C   0  0  0  0  0  0  0  0  0  0  0  0
   -0.9743    0.2285    1.0605 C   0  0  0  0  0  0  0  0  0  0  0  0
   -1.8747    0.3731    0.0290 C   0  0  0  0  0  0  0  0  0  0  0  0
   -2.9099    4.7663   -0.7021 H   0  0  0  0  0  0  0  0  0  0  0  0
    1.9484    0.9511   -0.5624 H   0  0  0  0  0  0  0  0  0  0  0  0
    1.1044    0.3216    1.6363 H   0  0  0  0  0  0  0  0  0  0  0  0
   -1.3152   -0.0450    2.0540 H   0  0  0  0  0  0  0  0  0  0  0  0
   -2.9446    0.2362    0.1570 H   0  0  0  0  0  0  0  0  0  0  0  0
   -4.0525    2.7165   -0.8608 O   0  0  0  0  0  0  0  0  0  0  0  0
   -4.3663    3.6839   -0.2136 C   0  0  0  0  0  0  0  0  0  0  0  0
   -3.7029    4.8402   -0.1435 O   0  0  0  0  0  0  0  0  0  0  0  0
   -5.6347    3.7452    0.6652 C   0  0  0  0  0  0  0  0  0  0  0  0
   -6.4640    4.6994    0.2111 F   0  0  0  0  0  0  0  0  0  0  0  0
   -6.2682    2.5716    0.6372 F   0  0  0  0  0  0  0  0  0  0  0  0
   -5.3073    4.0328    1.9355 F   0  0  0  0  0  0  0  0  0  0  0  0
  1  8  1  0  0  0  0
  2  1  1  0  0  0  0
  3  2  1  0  0  0  0
  4  1  2  0  0  0  0
  4  5  1  0  0  0  0
  5  6  2  0  0  0  0
  6  7  1  0  0  0  0
  6 11  1  0  0  0  0
  7 12  1  0  0  0  0
  8 13  1  0  0  0  0
  8  7  2  0  0  0  0
  9 16  1  0  0  0  0
 10  5  1  0  0  0  0
 14 15  2  0  0  0  0
 15 16  1  0  0  0  0
 15 17  1  0  0  0  0
 17 20  1  0  0  0  0
 18 17  1  0  0  0  0
 19 17  1  0  0  0  0
M  RAD  3   2   2   3   3   4   2
M  END
