Coordinates from ORCA-job PhN2+~CF3COO-_B3LYPG-6-31G_dp-CH-Scan-d09-49-n800
 OpenBabel11261919373D

 20 19  0  0  0  0  0  0  0  0999 V2000
   -1.6749    0.2298   -0.1549 C   0  0  0  0  0  0  0  0  0  0  0  0
   -3.0555    0.1400   -0.3028 N   0  0  0  0  0  0  0  0  0  0  0  0
   -4.1677    0.1191   -0.4139 N   0  0  0  0  0  0  0  0  0  0  0  0
   -1.2097    1.5461    0.0055 C   0  0  0  0  0  0  0  0  0  0  0  0
    0.2042    1.5422    0.1507 C   0  0  0  0  0  0  0  0  0  0  0  0
    0.9805    0.3871    0.1327 C   0  0  0  0  0  0  0  0  0  0  0  0
    0.4022   -0.8941   -0.0370 C   0  0  0  0  0  0  0  0  0  0  0  0
   -0.9625   -0.9999   -0.1869 C   0  0  0  0  0  0  0  0  0  0  0  0
   -2.9115    3.7726    0.0116 H   0  0  0  0  0  0  0  0  0  0  0  0
    0.7201    2.4929    0.2856 H   0  0  0  0  0  0  0  0  0  0  0  0
    2.0604    0.4569    0.2522 H   0  0  0  0  0  0  0  0  0  0  0  0
    1.0258   -1.7820   -0.0484 H   0  0  0  0  0  0  0  0  0  0  0  0
   -1.4610   -1.9559   -0.3211 H   0  0  0  0  0  0  0  0  0  0  0  0
   -5.0673    2.8291   -0.3196 O   0  0  0  0  0  0  0  0  0  0  0  0
   -4.7747    3.9931   -0.1895 C   0  0  0  0  0  0  0  0  0  0  0  0
   -3.5636    4.5034   -0.0038 O   0  0  0  0  0  0  0  0  0  0  0  0
   -5.8256    5.1251   -0.2244 C   0  0  0  0  0  0  0  0  0  0  0  0
   -5.5659    5.9732   -1.2355 F   0  0  0  0  0  0  0  0  0  0  0  0
   -7.0498    4.6189   -0.3951 F   0  0  0  0  0  0  0  0  0  0  0  0
   -5.8048    5.8212    0.9264 F   0  0  0  0  0  0  0  0  0  0  0  0
  1  4  1  0  0  0  0
  2  1  1  0  0  0  0
  3  2  1  0  0  0  0
  4  5  2  0  0  0  0
  5 10  1  0  0  0  0
  6  5  1  0  0  0  0
  6 11  1  0  0  0  0
  7  6  2  0  0  0  0
  8  1  2  0  0  0  0
  8  7  1  0  0  0  0
 12  7  1  0  0  0  0
 13  8  1  0  0  0  0
 14 15  2  0  0  0  0
 15 16  1  0  0  0  0
 16  9  1  0  0  0  0
 17 15  1  0  0  0  0
 17 20  1  0  0  0  0
 18 17  1  0  0  0  0
 19 17  1  0  0  0  0
M  RAD  3   2   2   3   3   4   2
M  END
