Coordinates from ORCA-job PhN2+~CF3COO-_B3LYPG-6-31G_dp-CH-Scan-d09-49-n800
 OpenBabel11261919373D

 20 19  0  0  0  0  0  0  0  0999 V2000
   -1.5036    0.1738   -0.1494 C   0  0  0  0  0  0  0  0  0  0  0  0
   -2.8893    0.1951   -0.2966 N   0  0  0  0  0  0  0  0  0  0  0  0
   -4.0007    0.2695   -0.4015 N   0  0  0  0  0  0  0  0  0  0  0  0
   -0.9508    1.4558    0.0012 C   0  0  0  0  0  0  0  0  0  0  0  0
    0.4617    1.3431    0.1454 C   0  0  0  0  0  0  0  0  0  0  0  0
    1.1500    0.1341    0.1352 C   0  0  0  0  0  0  0  0  0  0  0  0
    0.4785   -1.1035   -0.0257 C   0  0  0  0  0  0  0  0  0  0  0  0
   -0.8900   -1.1088   -0.1744 C   0  0  0  0  0  0  0  0  0  0  0  0
   -3.0522    4.3274    0.0069 H   0  0  0  0  0  0  0  0  0  0  0  0
    1.0497    2.2530    0.2733 H   0  0  0  0  0  0  0  0  0  0  0  0
    2.2326    0.1234    0.2538 H   0  0  0  0  0  0  0  0  0  0  0  0
    1.0359   -2.0346   -0.0314 H   0  0  0  0  0  0  0  0  0  0  0  0
   -1.4593   -2.0257   -0.3020 H   0  0  0  0  0  0  0  0  0  0  0  0
   -5.0133    3.0514   -0.3063 O   0  0  0  0  0  0  0  0  0  0  0  0
   -4.9196    4.2477   -0.1961 C   0  0  0  0  0  0  0  0  0  0  0  0
   -3.7996    4.9503   -0.0207 O   0  0  0  0  0  0  0  0  0  0  0  0
   -6.1354    5.1988   -0.2371 C   0  0  0  0  0  0  0  0  0  0  0  0
   -5.9916    6.1008   -1.2237 F   0  0  0  0  0  0  0  0  0  0  0  0
   -7.2573    4.5073   -0.4475 F   0  0  0  0  0  0  0  0  0  0  0  0
   -6.2471    5.8599    0.9285 F   0  0  0  0  0  0  0  0  0  0  0  0
  1  4  1  0  0  0  0
  2  1  1  0  0  0  0
  3  2  1  0  0  0  0
  4  5  2  0  0  0  0
  5 10  1  0  0  0  0
  6  5  1  0  0  0  0
  6 11  1  0  0  0  0
  7  6  2  0  0  0  0
  8  1  2  0  0  0  0
  8  7  1  0  0  0  0
 12  7  1  0  0  0  0
 13  8  1  0  0  0  0
 14 15  2  0  0  0  0
 15 16  1  0  0  0  0
 16  9  1  0  0  0  0
 17 15  1  0  0  0  0
 17 20  1  0  0  0  0
 18 17  1  0  0  0  0
 19 17  1  0  0  0  0
M  RAD  3   2   2   3   3   4   2
M  END
