Coordinates from ORCA-job PhN2+~CF3COO-_B3LYPG-6-31G_dp-CH-Scan-d09-49-n800
 OpenBabel11261919373D

 20 19  0  0  0  0  0  0  0  0999 V2000
   -1.3816    0.1450   -0.1325 C   0  0  0  0  0  0  0  0  0  0  0  0
   -2.7658    0.2554   -0.2641 N   0  0  0  0  0  0  0  0  0  0  0  0
   -3.8703    0.4076   -0.3624 N   0  0  0  0  0  0  0  0  0  0  0  0
   -0.7569    1.3911    0.0334 C   0  0  0  0  0  0  0  0  0  0  0  0
    0.6486    1.1918    0.1633 C   0  0  0  0  0  0  0  0  0  0  0  0
    1.2646   -0.0549    0.1271 C   0  0  0  0  0  0  0  0  0  0  0  0
    0.5204   -1.2488   -0.0479 C   0  0  0  0  0  0  0  0  0  0  0  0
   -0.8471   -1.1717   -0.1843 C   0  0  0  0  0  0  0  0  0  0  0  0
   -3.1802    4.7589    0.0577 H   0  0  0  0  0  0  0  0  0  0  0  0
    1.2909    2.0631    0.3011 H   0  0  0  0  0  0  0  0  0  0  0  0
    2.3458   -0.1316    0.2358 H   0  0  0  0  0  0  0  0  0  0  0  0
    1.0228   -2.2105   -0.0740 H   0  0  0  0  0  0  0  0  0  0  0  0
   -1.4706   -2.0512   -0.3217 H   0  0  0  0  0  0  0  0  0  0  0  0
   -4.9479    3.2396   -0.2753 O   0  0  0  0  0  0  0  0  0  0  0  0
   -5.0160    4.4380   -0.1815 C   0  0  0  0  0  0  0  0  0  0  0  0
   -3.9983    5.2828    0.0071 O   0  0  0  0  0  0  0  0  0  0  0  0
   -6.3427    5.2234   -0.2681 C   0  0  0  0  0  0  0  0  0  0  0  0
   -6.3056    6.0877   -1.2973 F   0  0  0  0  0  0  0  0  0  0  0  0
   -7.3641    4.3840   -0.4481 F   0  0  0  0  0  0  0  0  0  0  0  0
   -6.5476    5.9192    0.8635 F   0  0  0  0  0  0  0  0  0  0  0  0
  1  4  1  0  0  0  0
  2  1  1  0  0  0  0
  3  2  1  0  0  0  0
  4  5  2  0  0  0  0
  5 10  1  0  0  0  0
  6  5  1  0  0  0  0
  6 11  1  0  0  0  0
  7  6  2  0  0  0  0
  8  1  2  0  0  0  0
  8  7  1  0  0  0  0
 12  7  1  0  0  0  0
 13  8  1  0  0  0  0
 14 15  2  0  0  0  0
 15 16  1  0  0  0  0
 16  9  1  0  0  0  0
 17 15  1  0  0  0  0
 17 20  1  0  0  0  0
 18 17  1  0  0  0  0
 19 17  1  0  0  0  0
M  RAD  3   2   2   3   3   4   2
M  END
