Coordinates from ORCA-job PhN2+~CF3COO-_B3LYPG-6-31G_dp-CH-Scan-d09-49-n800
 OpenBabel11261919373D

 20 19  0  0  0  0  0  0  0  0999 V2000
   -1.8400    0.2871   -0.1698 C   0  0  0  0  0  0  0  0  0  0  0  0
   -3.2082    0.0968   -0.3258 N   0  0  0  0  0  0  0  0  0  0  0  0
   -4.3144    0.0012   -0.4469 N   0  0  0  0  0  0  0  0  0  0  0  0
   -1.4547    1.6307   -0.0203 C   0  0  0  0  0  0  0  0  0  0  0  0
   -0.0482    1.7263    0.1340 C   0  0  0  0  0  0  0  0  0  0  0  0
    0.8036    0.6247    0.1338 C   0  0  0  0  0  0  0  0  0  0  0  0
    0.3116   -0.6914   -0.0248 C   0  0  0  0  0  0  0  0  0  0  0  0
   -1.0429   -0.8880   -0.1823 C   0  0  0  0  0  0  0  0  0  0  0  0
   -2.7691    3.2961   -0.0232 H   0  0  0  0  0  0  0  0  0  0  0  0
    0.3981    2.7116    0.2614 H   0  0  0  0  0  0  0  0  0  0  0  0
    1.8750    0.7687    0.2591 H   0  0  0  0  0  0  0  0  0  0  0  0
    0.9909   -1.5373   -0.0220 H   0  0  0  0  0  0  0  0  0  0  0  0
   -1.4758   -1.8761   -0.3086 H   0  0  0  0  0  0  0  0  0  0  0  0
   -5.0699    2.6526   -0.3391 O   0  0  0  0  0  0  0  0  0  0  0  0
   -4.6135    3.7663   -0.1934 C   0  0  0  0  0  0  0  0  0  0  0  0
   -3.3554    4.1114   -0.0198 O   0  0  0  0  0  0  0  0  0  0  0  0
   -5.5184    5.0200   -0.1949 C   0  0  0  0  0  0  0  0  0  0  0  0
   -5.1700    5.8507   -1.1957 F   0  0  0  0  0  0  0  0  0  0  0  0
   -6.8006    4.6771   -0.3565 F   0  0  0  0  0  0  0  0  0  0  0  0
   -5.3996    5.6903    0.9665 F   0  0  0  0  0  0  0  0  0  0  0  0
  1  4  1  0  0  0  0
  2  1  1  0  0  0  0
  3  2  1  0  0  0  0
  4  5  2  0  0  0  0
  5 10  1  0  0  0  0
  6  5  1  0  0  0  0
  6 11  1  0  0  0  0
  7 12  1  0  0  0  0
  7  6  2  0  0  0  0
  8  1  2  0  0  0  0
  8  7  1  0  0  0  0
  9 16  1  0  0  0  0
 13  8  1  0  0  0  0
 14 15  2  0  0  0  0
 15 16  1  0  0  0  0
 17 15  1  0  0  0  0
 17 20  1  0  0  0  0
 18 17  1  0  0  0  0
 19 17  1  0  0  0  0
M  RAD  3   2   2   3   3   4   2
M  END
