Coordinates from ORCA-job PhN2+~CF3COO-_B3LYPG-6-31G_dp-CH-Scan-d09-49-n800
 OpenBabel11261919373D

 20 19  0  0  0  0  0  0  0  0999 V2000
   -1.8315    0.2841   -0.1688 C   0  0  0  0  0  0  0  0  0  0  0  0
   -3.2006    0.0992   -0.3242 N   0  0  0  0  0  0  0  0  0  0  0  0
   -4.3071    0.0065   -0.4449 N   0  0  0  0  0  0  0  0  0  0  0  0
   -1.4421    1.6264   -0.0187 C   0  0  0  0  0  0  0  0  0  0  0  0
   -0.0350    1.7170    0.1349 C   0  0  0  0  0  0  0  0  0  0  0  0
    0.8130    0.6126    0.1335 C   0  0  0  0  0  0  0  0  0  0  0  0
    0.3165   -0.7018   -0.0256 C   0  0  0  0  0  0  0  0  0  0  0  0
   -1.0386   -0.8939   -0.1825 C   0  0  0  0  0  0  0  0  0  0  0  0
   -2.7774    3.3198   -0.0212 H   0  0  0  0  0  0  0  0  0  0  0  0
    0.4150    2.7007    0.2626 H   0  0  0  0  0  0  0  0  0  0  0  0
    1.8850    0.7528    0.2583 H   0  0  0  0  0  0  0  0  0  0  0  0
    0.9931   -1.5500   -0.0237 H   0  0  0  0  0  0  0  0  0  0  0  0
   -1.4749   -1.8806   -0.3091 H   0  0  0  0  0  0  0  0  0  0  0  0
   -5.0709    2.6610   -0.3384 O   0  0  0  0  0  0  0  0  0  0  0  0
   -4.6222    3.7776   -0.1933 C   0  0  0  0  0  0  0  0  0  0  0  0
   -3.3657    4.1307   -0.0185 O   0  0  0  0  0  0  0  0  0  0  0  0
   -5.5342    5.0260   -0.1966 C   0  0  0  0  0  0  0  0  0  0  0  0
   -5.1893    5.8581   -1.1973 F   0  0  0  0  0  0  0  0  0  0  0  0
   -6.8140    4.6752   -0.3596 F   0  0  0  0  0  0  0  0  0  0  0  0
   -5.4207    5.6974    0.9647 F   0  0  0  0  0  0  0  0  0  0  0  0
  1  4  1  0  0  0  0
  2  1  1  0  0  0  0
  3  2  1  0  0  0  0
  4  5  2  0  0  0  0
  5 10  1  0  0  0  0
  6  5  1  0  0  0  0
  6 11  1  0  0  0  0
  7 12  1  0  0  0  0
  7  6  2  0  0  0  0
  8  1  2  0  0  0  0
  8  7  1  0  0  0  0
  9 16  1  0  0  0  0
 13  8  1  0  0  0  0
 14 15  2  0  0  0  0
 15 16  1  0  0  0  0
 17 15  1  0  0  0  0
 17 20  1  0  0  0  0
 18 17  1  0  0  0  0
 19 17  1  0  0  0  0
M  RAD  3   2   2   3   3   4   2
M  END
