Coordinates from ORCA-job PhN2+~CF3COO-_B3LYPG-6-31G_dp-CH-Scan-d09-49-n800
 OpenBabel11261919373D

 20 19  0  0  0  0  0  0  0  0999 V2000
   -1.8929    0.3064   -0.1800 C   0  0  0  0  0  0  0  0  0  0  0  0
   -3.2556    0.0857   -0.3438 N   0  0  0  0  0  0  0  0  0  0  0  0
   -4.3592   -0.0260   -0.4705 N   0  0  0  0  0  0  0  0  0  0  0  0
   -1.5320    1.6571   -0.0340 C   0  0  0  0  0  0  0  0  0  0  0  0
   -0.1306    1.7843    0.1288 C   0  0  0  0  0  0  0  0  0  0  0  0
    0.7438    0.7003    0.1392 C   0  0  0  0  0  0  0  0  0  0  0  0
    0.2794   -0.6252   -0.0164 C   0  0  0  0  0  0  0  0  0  0  0  0
   -1.0703   -0.8498   -0.1817 C   0  0  0  0  0  0  0  0  0  0  0  0
   -2.7124    3.1411   -0.0433 H   0  0  0  0  0  0  0  0  0  0  0  0
    0.2919    2.7800    0.2543 H   0  0  0  0  0  0  0  0  0  0  0  0
    1.8110    0.8671    0.2708 H   0  0  0  0  0  0  0  0  0  0  0  0
    0.9751   -1.4576   -0.0054 H   0  0  0  0  0  0  0  0  0  0  0  0
   -1.4820   -1.8470   -0.3061 H   0  0  0  0  0  0  0  0  0  0  0  0
   -5.0646    2.6006   -0.3344 O   0  0  0  0  0  0  0  0  0  0  0  0
   -4.5575    3.6960   -0.1924 C   0  0  0  0  0  0  0  0  0  0  0  0
   -3.2908    3.9908   -0.0353 O   0  0  0  0  0  0  0  0  0  0  0  0
   -5.4194    4.9805   -0.1820 C   0  0  0  0  0  0  0  0  0  0  0  0
   -5.0594    5.7986   -1.1902 F   0  0  0  0  0  0  0  0  0  0  0  0
   -6.7170    4.6859   -0.3218 F   0  0  0  0  0  0  0  0  0  0  0  0
   -5.2589    5.6500    0.9758 F   0  0  0  0  0  0  0  0  0  0  0  0
  1  4  1  0  0  0  0
  2  1  1  0  0  0  0
  3  2  1  0  0  0  0
  4  5  2  0  0  0  0
  5  6  1  0  0  0  0
  5 10  1  0  0  0  0
  6 11  1  0  0  0  0
  7 12  1  0  0  0  0
  7  6  2  0  0  0  0
  8  1  2  0  0  0  0
  8  7  1  0  0  0  0
  9 16  1  0  0  0  0
 13  8  1  0  0  0  0
 14 15  2  0  0  0  0
 15 17  1  0  0  0  0
 15 16  1  0  0  0  0
 17 20  1  0  0  0  0
 18 17  1  0  0  0  0
 19 17  1  0  0  0  0
M  RAD  3   2   2   3   3   4   2
M  END
