Coordinates from ORCA-job PhN2+~CF3COO-_B3LYPG-6-31G_dp-CH-Scan-d09-49-n800
 OpenBabel11261919373D

 20 19  0  0  0  0  0  0  0  0999 V2000
   -1.7703    0.2631   -0.1619 C   0  0  0  0  0  0  0  0  0  0  0  0
   -3.1448    0.1154   -0.3129 N   0  0  0  0  0  0  0  0  0  0  0  0
   -4.2539    0.0478   -0.4303 N   0  0  0  0  0  0  0  0  0  0  0  0
   -1.3511    1.5957   -0.0081 C   0  0  0  0  0  0  0  0  0  0  0  0
    0.0596    1.6499    0.1408 C   0  0  0  0  0  0  0  0  0  0  0  0
    0.8800    0.5251    0.1318 C   0  0  0  0  0  0  0  0  0  0  0  0
    0.3513   -0.7771   -0.0309 C   0  0  0  0  0  0  0  0  0  0  0  0
   -1.0083   -0.9358   -0.1836 C   0  0  0  0  0  0  0  0  0  0  0  0
   -2.8331    3.4922   -0.0073 H   0  0  0  0  0  0  0  0  0  0  0  0
    0.5358    2.6211    0.2710 H   0  0  0  0  0  0  0  0  0  0  0  0
    1.9558    0.6380    0.2533 H   0  0  0  0  0  0  0  0  0  0  0  0
    1.0076   -1.6411   -0.0349 H   0  0  0  0  0  0  0  0  0  0  0  0
   -1.4691   -1.9111   -0.3126 H   0  0  0  0  0  0  0  0  0  0  0  0
   -5.0747    2.7231   -0.3325 O   0  0  0  0  0  0  0  0  0  0  0  0
   -4.6842    3.8596   -0.1922 C   0  0  0  0  0  0  0  0  0  0  0  0
   -3.4417    4.2720   -0.0111 O   0  0  0  0  0  0  0  0  0  0  0  0
   -5.6483    5.0675   -0.2083 C   0  0  0  0  0  0  0  0  0  0  0  0
   -5.3300    5.9088   -1.2092 F   0  0  0  0  0  0  0  0  0  0  0  0
   -6.9089    4.6590   -0.3808 F   0  0  0  0  0  0  0  0  0  0  0  0
   -5.5731    5.7458    0.9515 F   0  0  0  0  0  0  0  0  0  0  0  0
  1  4  1  0  0  0  0
  2  1  1  0  0  0  0
  3  2  1  0  0  0  0
  4  5  2  0  0  0  0
  5 10  1  0  0  0  0
  6  5  1  0  0  0  0
  6 11  1  0  0  0  0
  7  6  2  0  0  0  0
  8  1  2  0  0  0  0
  8  7  1  0  0  0  0
 12  7  1  0  0  0  0
 13  8  1  0  0  0  0
 14 15  2  0  0  0  0
 15 16  1  0  0  0  0
 16  9  1  0  0  0  0
 17 15  1  0  0  0  0
 17 20  1  0  0  0  0
 18 17  1  0  0  0  0
 19 17  1  0  0  0  0
M  RAD  3   2   2   3   3   4   2
M  END
