Coordinates from ORCA-job PhN2+~CF3COO-_B3LYPG-6-31G_dp-CH-Scan-d09-49-n800
 OpenBabel11261919373D

 20 19  0  0  0  0  0  0  0  0999 V2000
   -2.0508    0.7798   -0.3857 C   0  0  0  0  0  0  0  0  0  0  0  0
   -3.4126    0.7399   -0.8051 N   0  0  0  0  0  0  0  0  0  0  0  0
   -4.2391    0.1533   -1.2971 N   0  0  0  0  0  0  0  0  0  0  0  0
   -1.3349    1.9703   -0.4580 C   0  0  0  0  0  0  0  0  0  0  0  0
    0.0104    1.9259   -0.0982 C   0  0  0  0  0  0  0  0  0  0  0  0
    0.5895    0.7318    0.3415 C   0  0  0  0  0  0  0  0  0  0  0  0
   -0.1635   -0.4462    0.4079 C   0  0  0  0  0  0  0  0  0  0  0  0
   -1.5022   -0.4406    0.0318 C   0  0  0  0  0  0  0  0  0  0  0  0
   -1.8860    2.9257   -0.8342 H   0  0  0  0  0  0  0  0  0  0  0  0
    0.6048    2.8320   -0.1530 H   0  0  0  0  0  0  0  0  0  0  0  0
    1.6338    0.7159    0.6375 H   0  0  0  0  0  0  0  0  0  0  0  0
    0.2900   -1.3699    0.7516 H   0  0  0  0  0  0  0  0  0  0  0  0
   -2.1099   -1.3380    0.0680 H   0  0  0  0  0  0  0  0  0  0  0  0
   -4.2335    2.4009    0.2069 O   0  0  0  0  0  0  0  0  0  0  0  0
   -4.2006    3.5343   -0.3755 C   0  0  0  0  0  0  0  0  0  0  0  0
   -3.4377    3.9494   -1.2544 O   0  0  0  0  0  0  0  0  0  0  0  0
   -5.3053    4.4957    0.1571 C   0  0  0  0  0  0  0  0  0  0  0  0
   -5.2798    5.6825   -0.4655 F   0  0  0  0  0  0  0  0  0  0  0  0
   -6.5306    3.9588   -0.0228 F   0  0  0  0  0  0  0  0  0  0  0  0
   -5.1434    4.7175    1.4790 F   0  0  0  0  0  0  0  0  0  0  0  0
  1  8  1  0  0  0  0
  2  1  1  0  0  0  0
  3  2  2  0  0  0  0
  4  1  2  0  0  0  0
  4  5  1  0  0  0  0
  5  6  2  0  0  0  0
  6  7  1  0  0  0  0
  6 11  1  0  0  0  0
  7 12  1  0  0  0  0
  8 13  1  0  0  0  0
  8  7  2  0  0  0  0
  9  4  1  0  0  0  0
 10  5  1  0  0  0  0
 15 17  1  0  0  0  0
 15 14  1  0  0  0  0
 16 15  2  0  0  0  0
 17 20  1  0  0  0  0
 18 17  1  0  0  0  0
 19 17  1  0  0  0  0
M  RAD  2   3   2  14   2
M  END
