Coordinates from ORCA-job PhN2+~CF3COO-_B3LYPG-6-31G_dp-CH-Scan-d09-49-n800
 OpenBabel11261919373D

 20 19  0  0  0  0  0  0  0  0999 V2000
   -1.8083    0.2763   -0.1660 C   0  0  0  0  0  0  0  0  0  0  0  0
   -3.1796    0.1055   -0.3197 N   0  0  0  0  0  0  0  0  0  0  0  0
   -4.2870    0.0216   -0.4392 N   0  0  0  0  0  0  0  0  0  0  0  0
   -1.4075    1.6150   -0.0146 C   0  0  0  0  0  0  0  0  0  0  0  0
    0.0011    1.6917    0.1371 C   0  0  0  0  0  0  0  0  0  0  0  0
    0.8386    0.5795    0.1328 C   0  0  0  0  0  0  0  0  0  0  0  0
    0.3298   -0.7305   -0.0276 C   0  0  0  0  0  0  0  0  0  0  0  0
   -1.0271   -0.9099   -0.1828 C   0  0  0  0  0  0  0  0  0  0  0  0
   -2.7990    3.3852   -0.0159 H   0  0  0  0  0  0  0  0  0  0  0  0
    0.4612    2.6707    0.2657 H   0  0  0  0  0  0  0  0  0  0  0  0
    1.9122    0.7092    0.2562 H   0  0  0  0  0  0  0  0  0  0  0  0
    0.9987   -1.5847   -0.0280 H   0  0  0  0  0  0  0  0  0  0  0  0
   -1.4728   -1.8923   -0.3103 H   0  0  0  0  0  0  0  0  0  0  0  0
   -5.0727    2.6841   -0.3362 O   0  0  0  0  0  0  0  0  0  0  0  0
   -4.6459    3.8085   -0.1929 C   0  0  0  0  0  0  0  0  0  0  0  0
   -3.3943    4.1839   -0.0156 O   0  0  0  0  0  0  0  0  0  0  0  0
   -5.5776    5.0420   -0.2011 C   0  0  0  0  0  0  0  0  0  0  0  0
   -5.2421    5.8778   -1.2015 F   0  0  0  0  0  0  0  0  0  0  0  0
   -6.8503    4.6695   -0.3683 F   0  0  0  0  0  0  0  0  0  0  0  0
   -5.4788    5.7159    0.9599 F   0  0  0  0  0  0  0  0  0  0  0  0
  1  4  1  0  0  0  0
  2  1  1  0  0  0  0
  3  2  1  0  0  0  0
  4  5  2  0  0  0  0
  5 10  1  0  0  0  0
  6  5  1  0  0  0  0
  6 11  1  0  0  0  0
  7  6  2  0  0  0  0
  8  1  2  0  0  0  0
  8  7  1  0  0  0  0
  9 16  1  0  0  0  0
 12  7  1  0  0  0  0
 13  8  1  0  0  0  0
 14 15  2  0  0  0  0
 15 16  1  0  0  0  0
 17 15  1  0  0  0  0
 17 20  1  0  0  0  0
 18 17  1  0  0  0  0
 19 17  1  0  0  0  0
M  RAD  3   2   2   3   3   4   2
M  END
