Coordinates from ORCA-job PhN2+~CF3COO-_B3LYPG-6-31G_dp-CH-Scan-d09-49-n800
 OpenBabel11261919373D

 20 19  0  0  0  0  0  0  0  0999 V2000
   -2.0745    0.6752   -0.1019 C   0  0  0  0  0  0  0  0  0  0  0  0
   -3.4865    0.5789   -0.1697 N   0  0  0  0  0  0  0  0  0  0  0  0
   -4.4075   -0.0670   -0.2082 N   0  0  0  0  0  0  0  0  0  0  0  0
   -1.4342    1.9093   -0.1680 C   0  0  0  0  0  0  0  0  0  0  0  0
   -0.0397    1.9015   -0.1043 C   0  0  0  0  0  0  0  0  0  0  0  0
    0.6675    0.7059    0.0238 C   0  0  0  0  0  0  0  0  0  0  0  0
   -0.0099   -0.5191    0.0876 C   0  0  0  0  0  0  0  0  0  0  0  0
   -1.3956   -0.5501    0.0230 C   0  0  0  0  0  0  0  0  0  0  0  0
   -1.9053    2.6834   -0.2519 H   0  0  0  0  0  0  0  0  0  0  0  0
    0.4868    2.8489   -0.1551 H   0  0  0  0  0  0  0  0  0  0  0  0
    1.7521    0.7215    0.0756 H   0  0  0  0  0  0  0  0  0  0  0  0
    0.5416   -1.4481    0.1880 H   0  0  0  0  0  0  0  0  0  0  0  0
   -1.9480   -1.4820    0.0693 H   0  0  0  0  0  0  0  0  0  0  0  0
   -4.3599    2.5359   -0.1041 O   0  0  0  0  0  0  0  0  0  0  0  0
   -4.1090    3.7828   -0.2330 C   0  0  0  0  0  0  0  0  0  0  0  0
   -3.0434    4.3776   -0.3920 O   0  0  0  0  0  0  0  0  0  0  0  0
   -5.4227    4.6255   -0.1751 C   0  0  0  0  0  0  0  0  0  0  0  0
   -5.1787    5.9414   -0.2679 F   0  0  0  0  0  0  0  0  0  0  0  0
   -6.2511    4.2875   -1.1874 F   0  0  0  0  0  0  0  0  0  0  0  0
   -6.0836    4.4100    0.9829 F   0  0  0  0  0  0  0  0  0  0  0  0
  1  8  2  0  0  0  0
  2  1  1  0  0  0  0
  3  2  2  0  0  0  0
  4  5  2  0  0  0  0
  4  1  1  0  0  0  0
  5  6  1  0  0  0  0
  6 11  1  0  0  0  0
  6  7  2  0  0  0  0
  7 12  1  0  0  0  0
  8 13  1  0  0  0  0
  8  7  1  0  0  0  0
  9  4  1  0  0  0  0
 10  5  1  0  0  0  0
 15 17  1  0  0  0  0
 15 14  1  0  0  0  0
 16 15  2  0  0  0  0
 17 20  1  0  0  0  0
 18 17  1  0  0  0  0
 19 17  1  0  0  0  0
M  RAD  2   3   2  14   2
M  END
