Coordinates from ORCA-job PhN2+~CF3COO-_B3LYPG-6-31G_dp-CH-Scan-d09-49-n800
 OpenBabel11261919373D

 20 19  0  0  0  0  0  0  0  0999 V2000
   -1.8364    0.2858   -0.1693 C   0  0  0  0  0  0  0  0  0  0  0  0
   -3.2050    0.0979   -0.3251 N   0  0  0  0  0  0  0  0  0  0  0  0
   -4.3113    0.0035   -0.4460 N   0  0  0  0  0  0  0  0  0  0  0  0
   -1.4493    1.6288   -0.0196 C   0  0  0  0  0  0  0  0  0  0  0  0
   -0.0426    1.7223    0.1344 C   0  0  0  0  0  0  0  0  0  0  0  0
    0.8076    0.6195    0.1336 C   0  0  0  0  0  0  0  0  0  0  0  0
    0.3137   -0.6958   -0.0251 C   0  0  0  0  0  0  0  0  0  0  0  0
   -1.0410   -0.8905   -0.1824 C   0  0  0  0  0  0  0  0  0  0  0  0
   -2.7726    3.3062   -0.0223 H   0  0  0  0  0  0  0  0  0  0  0  0
    0.4053    2.7069    0.2619 H   0  0  0  0  0  0  0  0  0  0  0  0
    1.8793    0.7619    0.2588 H   0  0  0  0  0  0  0  0  0  0  0  0
    0.9918   -1.5428   -0.0228 H   0  0  0  0  0  0  0  0  0  0  0  0
   -1.4754   -1.8780   -0.3088 H   0  0  0  0  0  0  0  0  0  0  0  0
   -5.0703    2.6562   -0.3389 O   0  0  0  0  0  0  0  0  0  0  0  0
   -4.6171    3.7712   -0.1934 C   0  0  0  0  0  0  0  0  0  0  0  0
   -3.3598    4.1197   -0.0192 O   0  0  0  0  0  0  0  0  0  0  0  0
   -5.5252    5.0226   -0.1957 C   0  0  0  0  0  0  0  0  0  0  0  0
   -5.1782    5.8539   -1.1964 F   0  0  0  0  0  0  0  0  0  0  0  0
   -6.8063    4.6763   -0.3579 F   0  0  0  0  0  0  0  0  0  0  0  0
   -5.4087    5.6933    0.9658 F   0  0  0  0  0  0  0  0  0  0  0  0
  1  4  1  0  0  0  0
  2  1  1  0  0  0  0
  3  2  1  0  0  0  0
  4  5  2  0  0  0  0
  5 10  1  0  0  0  0
  6  5  1  0  0  0  0
  6 11  1  0  0  0  0
  7 12  1  0  0  0  0
  7  6  2  0  0  0  0
  8  1  2  0  0  0  0
  8  7  1  0  0  0  0
  9 16  1  0  0  0  0
 13  8  1  0  0  0  0
 14 15  2  0  0  0  0
 15 16  1  0  0  0  0
 17 15  1  0  0  0  0
 17 20  1  0  0  0  0
 18 17  1  0  0  0  0
 19 17  1  0  0  0  0
M  RAD  3   2   2   3   3   4   2
M  END
