Coordinates from ORCA-job PhN2+~CF3COO-_B3LYPG-6-31G_dp-CH-Scan-d09-49-n800
 OpenBabel11261919373D

 20 19  0  0  0  0  0  0  0  0999 V2000
   -1.9171    0.3164   -0.1866 C   0  0  0  0  0  0  0  0  0  0  0  0
   -3.2772    0.0836   -0.3559 N   0  0  0  0  0  0  0  0  0  0  0  0
   -4.3798   -0.0310   -0.4863 N   0  0  0  0  0  0  0  0  0  0  0  0
   -1.5656    1.6694   -0.0426 C   0  0  0  0  0  0  0  0  0  0  0  0
   -0.1674    1.8111    0.1262 C   0  0  0  0  0  0  0  0  0  0  0  0
    0.7163    0.7345    0.1435 C   0  0  0  0  0  0  0  0  0  0  0  0
    0.2636   -0.5947   -0.0105 C   0  0  0  0  0  0  0  0  0  0  0  0
   -1.0837   -0.8312   -0.1814 C   0  0  0  0  0  0  0  0  0  0  0  0
   -2.6803    3.0649   -0.0567 H   0  0  0  0  0  0  0  0  0  0  0  0
    0.2440    2.8113    0.2508 H   0  0  0  0  0  0  0  0  0  0  0  0
    1.7813    0.9109    0.2795 H   0  0  0  0  0  0  0  0  0  0  0  0
    0.9660   -1.4213    0.0058 H   0  0  0  0  0  0  0  0  0  0  0  0
   -1.4861   -1.8323   -0.3048 H   0  0  0  0  0  0  0  0  0  0  0  0
   -5.0620    2.5765   -0.3264 O   0  0  0  0  0  0  0  0  0  0  0  0
   -4.5310    3.6636   -0.1910 C   0  0  0  0  0  0  0  0  0  0  0  0
   -3.2616    3.9360   -0.0477 O   0  0  0  0  0  0  0  0  0  0  0  0
   -5.3749    4.9606   -0.1748 C   0  0  0  0  0  0  0  0  0  0  0  0
   -5.0144    5.7717   -1.1891 F   0  0  0  0  0  0  0  0  0  0  0  0
   -6.6791    4.6870   -0.2996 F   0  0  0  0  0  0  0  0  0  0  0  0
   -5.1924    5.6317    0.9793 F   0  0  0  0  0  0  0  0  0  0  0  0
  1  8  2  0  0  0  0
  1  4  1  0  0  0  0
  2  1  1  0  0  0  0
  3  2  1  0  0  0  0
  4  5  2  0  0  0  0
  5  6  1  0  0  0  0
  5 10  1  0  0  0  0
  6 11  1  0  0  0  0
  7 12  1  0  0  0  0
  7  6  2  0  0  0  0
  8  7  1  0  0  0  0
  9 16  1  0  0  0  0
 13  8  1  0  0  0  0
 14 15  2  0  0  0  0
 15 17  1  0  0  0  0
 15 16  1  0  0  0  0
 17 20  1  0  0  0  0
 18 17  1  0  0  0  0
 19 17  1  0  0  0  0
M  RAD  3   2   2   3   3   4   2
M  END
