Coordinates from ORCA-job PhN2+~CF3COO-_B3LYPG-6-31G_dp-CH-Scan-d09-49-n800
 OpenBabel11261919373D

 20 19  0  0  0  0  0  0  0  0999 V2000
   -1.8918    0.3060   -0.1797 C   0  0  0  0  0  0  0  0  0  0  0  0
   -3.2546    0.0858   -0.3433 N   0  0  0  0  0  0  0  0  0  0  0  0
   -4.3582   -0.0257   -0.4699 N   0  0  0  0  0  0  0  0  0  0  0  0
   -1.5304    1.6565   -0.0336 C   0  0  0  0  0  0  0  0  0  0  0  0
   -0.1288    1.7831    0.1289 C   0  0  0  0  0  0  0  0  0  0  0  0
    0.7451    0.6987    0.1391 C   0  0  0  0  0  0  0  0  0  0  0  0
    0.2801   -0.6266   -0.0166 C   0  0  0  0  0  0  0  0  0  0  0  0
   -1.0696   -0.8506   -0.1817 C   0  0  0  0  0  0  0  0  0  0  0  0
   -2.7137    3.1446   -0.0428 H   0  0  0  0  0  0  0  0  0  0  0  0
    0.2942    2.7785    0.2545 H   0  0  0  0  0  0  0  0  0  0  0  0
    1.8124    0.8650    0.2705 H   0  0  0  0  0  0  0  0  0  0  0  0
    0.9754   -1.4593   -0.0058 H   0  0  0  0  0  0  0  0  0  0  0  0
   -1.4818   -1.8476   -0.3062 H   0  0  0  0  0  0  0  0  0  0  0  0
   -5.0647    2.6017   -0.3347 O   0  0  0  0  0  0  0  0  0  0  0  0
   -4.5587    3.6976   -0.1925 C   0  0  0  0  0  0  0  0  0  0  0  0
   -3.2922    3.9934   -0.0349 O   0  0  0  0  0  0  0  0  0  0  0  0
   -5.4216    4.9814   -0.1823 C   0  0  0  0  0  0  0  0  0  0  0  0
   -5.0617    5.7998   -1.1903 F   0  0  0  0  0  0  0  0  0  0  0  0
   -6.7188    4.6858   -0.3227 F   0  0  0  0  0  0  0  0  0  0  0  0
   -5.2620    5.6508    0.9757 F   0  0  0  0  0  0  0  0  0  0  0  0
  1  4  1  0  0  0  0
  2  1  1  0  0  0  0
  3  2  1  0  0  0  0
  4  5  2  0  0  0  0
  5  6  1  0  0  0  0
  5 10  1  0  0  0  0
  6 11  1  0  0  0  0
  7 12  1  0  0  0  0
  7  6  2  0  0  0  0
  8  1  2  0  0  0  0
  8  7  1  0  0  0  0
  9 16  1  0  0  0  0
 13  8  1  0  0  0  0
 14 15  2  0  0  0  0
 15 17  1  0  0  0  0
 15 16  1  0  0  0  0
 17 20  1  0  0  0  0
 18 17  1  0  0  0  0
 19 17  1  0  0  0  0
M  RAD  3   2   2   3   3   4   2
M  END
