Coordinates from ORCA-job PhN2+~CF3COO-_B3LYPG-6-31G_dp-CH-Scan-d09-49-n800
 OpenBabel11261919373D

 20 19  0  0  0  0  0  0  0  0999 V2000
   -1.2661    0.1333   -0.2049 C   0  0  0  0  0  0  0  0  0  0  0  0
   -2.6326    0.3243   -0.4126 N   0  0  0  0  0  0  0  0  0  0  0  0
   -3.7180    0.5456   -0.5746 N   0  0  0  0  0  0  0  0  0  0  0  0
   -0.5756    1.3462   -0.0608 C   0  0  0  0  0  0  0  0  0  0  0  0
    0.8073    1.0697    0.1505 C   0  0  0  0  0  0  0  0  0  0  0  0
    1.3454   -0.2120    0.2018 C   0  0  0  0  0  0  0  0  0  0  0  0
    0.5380   -1.3663    0.0398 C   0  0  0  0  0  0  0  0  0  0  0  0
   -0.8135   -1.2144   -0.1723 C   0  0  0  0  0  0  0  0  0  0  0  0
   -3.3004    5.0825   -0.1148 H   0  0  0  0  0  0  0  0  0  0  0  0
    1.4946    1.9067    0.2833 H   0  0  0  0  0  0  0  0  0  0  0  0
    2.4127   -0.3483    0.3714 H   0  0  0  0  0  0  0  0  0  0  0  0
    0.9806   -2.3564    0.0825 H   0  0  0  0  0  0  0  0  0  0  0  0
   -1.4826   -2.0604   -0.3050 H   0  0  0  0  0  0  0  0  0  0  0  0
   -4.9291    3.4013   -0.3234 O   0  0  0  0  0  0  0  0  0  0  0  0
   -5.1088    4.5863   -0.2133 C   0  0  0  0  0  0  0  0  0  0  0  0
   -4.1656    5.5268   -0.0967 O   0  0  0  0  0  0  0  0  0  0  0  0
   -6.5081    5.2383   -0.1864 C   0  0  0  0  0  0  0  0  0  0  0  0
   -6.6306    6.1214   -1.1925 F   0  0  0  0  0  0  0  0  0  0  0  0
   -7.4533    4.3055   -0.3153 F   0  0  0  0  0  0  0  0  0  0  0  0
   -6.6958    5.8888    0.9749 F   0  0  0  0  0  0  0  0  0  0  0  0
  1  8  2  0  0  0  0
  1  4  1  0  0  0  0
  2  1  1  0  0  0  0
  3  2  1  0  0  0  0
  4  5  2  0  0  0  0
  5  6  1  0  0  0  0
  5 10  1  0  0  0  0
  6 11  1  0  0  0  0
  7 12  1  0  0  0  0
  7  6  2  0  0  0  0
  8  7  1  0  0  0  0
  9 16  1  0  0  0  0
 13  8  1  0  0  0  0
 14 15  2  0  0  0  0
 15 17  1  0  0  0  0
 15 16  1  0  0  0  0
 17 20  1  0  0  0  0
 18 17  1  0  0  0  0
 19 17  1  0  0  0  0
M  RAD  3   2   2   3   3   4   2
M  END
