Coordinates from ORCA-job PhN2+~CF3COO-_B3LYPG-6-31G_dp-CH-Scan-d09-49-n800
 OpenBabel11261919373D

 20 19  0  0  0  0  0  0  0  0999 V2000
   -1.8132    0.2779   -0.1666 C   0  0  0  0  0  0  0  0  0  0  0  0
   -3.1840    0.1042   -0.3207 N   0  0  0  0  0  0  0  0  0  0  0  0
   -4.2913    0.0183   -0.4404 N   0  0  0  0  0  0  0  0  0  0  0  0
   -1.4148    1.6174   -0.0155 C   0  0  0  0  0  0  0  0  0  0  0  0
   -0.0065    1.6971    0.1366 C   0  0  0  0  0  0  0  0  0  0  0  0
    0.8332    0.5865    0.1329 C   0  0  0  0  0  0  0  0  0  0  0  0
    0.3270   -0.7244   -0.0272 C   0  0  0  0  0  0  0  0  0  0  0  0
   -1.0295   -0.9065   -0.1828 C   0  0  0  0  0  0  0  0  0  0  0  0
   -2.7945    3.3714   -0.0170 H   0  0  0  0  0  0  0  0  0  0  0  0
    0.4515    2.6770    0.2651 H   0  0  0  0  0  0  0  0  0  0  0  0
    1.9065    0.7184    0.2567 H   0  0  0  0  0  0  0  0  0  0  0  0
    0.9975   -1.5774   -0.0271 H   0  0  0  0  0  0  0  0  0  0  0  0
   -1.4732   -1.8898   -0.3100 H   0  0  0  0  0  0  0  0  0  0  0  0
   -5.0724    2.6791   -0.3367 O   0  0  0  0  0  0  0  0  0  0  0  0
   -4.6410    3.8019   -0.1930 C   0  0  0  0  0  0  0  0  0  0  0  0
   -3.3882    4.1727   -0.0162 O   0  0  0  0  0  0  0  0  0  0  0  0
   -5.5684    5.0387   -0.2001 C   0  0  0  0  0  0  0  0  0  0  0  0
   -5.2309    5.8737   -1.2006 F   0  0  0  0  0  0  0  0  0  0  0  0
   -6.8427    4.6707   -0.3665 F   0  0  0  0  0  0  0  0  0  0  0  0
   -5.4665    5.7120    0.9609 F   0  0  0  0  0  0  0  0  0  0  0  0
  1  4  1  0  0  0  0
  2  1  1  0  0  0  0
  3  2  1  0  0  0  0
  4  5  2  0  0  0  0
  5 10  1  0  0  0  0
  6  5  1  0  0  0  0
  6 11  1  0  0  0  0
  7 12  1  0  0  0  0
  7  6  2  0  0  0  0
  8  1  2  0  0  0  0
  8  7  1  0  0  0  0
  9 16  1  0  0  0  0
 13  8  1  0  0  0  0
 14 15  2  0  0  0  0
 15 16  1  0  0  0  0
 17 15  1  0  0  0  0
 17 20  1  0  0  0  0
 18 17  1  0  0  0  0
 19 17  1  0  0  0  0
M  RAD  3   2   2   3   3   4   2
M  END
