Coordinates from ORCA-job PhN2+~CF3COO-_B3LYPG-6-31G_dp-CH-Scan-d09-49-n800
 OpenBabel11261919373D

 20 19  0  0  0  0  0  0  0  0999 V2000
   -1.4612    0.1607   -0.1430 C   0  0  0  0  0  0  0  0  0  0  0  0
   -2.8474    0.2107   -0.2837 N   0  0  0  0  0  0  0  0  0  0  0  0
   -3.9565    0.3118   -0.3920 N   0  0  0  0  0  0  0  0  0  0  0  0
   -0.8856    1.4325    0.0076 C   0  0  0  0  0  0  0  0  0  0  0  0
    0.5255    1.2924    0.1462 C   0  0  0  0  0  0  0  0  0  0  0  0
    1.1911    0.0709    0.1308 C   0  0  0  0  0  0  0  0  0  0  0  0
    0.4960   -1.1539   -0.0297 C   0  0  0  0  0  0  0  0  0  0  0  0
   -0.8729   -1.1336   -0.1730 C   0  0  0  0  0  0  0  0  0  0  0  0
   -3.0952    4.4667    0.0237 H   0  0  0  0  0  0  0  0  0  0  0  0
    1.1313    2.1907    0.2738 H   0  0  0  0  0  0  0  0  0  0  0  0
    2.2738    0.0395    0.2451 H   0  0  0  0  0  0  0  0  0  0  0  0
    1.0362   -2.0952   -0.0394 H   0  0  0  0  0  0  0  0  0  0  0  0
   -1.4599   -2.0394   -0.2999 H   0  0  0  0  0  0  0  0  0  0  0  0
   -4.9988    3.1129   -0.3005 O   0  0  0  0  0  0  0  0  0  0  0  0
   -4.9560    4.3118   -0.1926 C   0  0  0  0  0  0  0  0  0  0  0  0
   -3.8659    5.0598   -0.0092 O   0  0  0  0  0  0  0  0  0  0  0  0
   -6.2085    5.2135   -0.2471 C   0  0  0  0  0  0  0  0  0  0  0  0
   -6.0921    6.1164   -1.2364 F   0  0  0  0  0  0  0  0  0  0  0  0
   -7.2996    4.4766   -0.4637 F   0  0  0  0  0  0  0  0  0  0  0  0
   -6.3557    5.8740    0.9148 F   0  0  0  0  0  0  0  0  0  0  0  0
  1  4  1  0  0  0  0
  2  1  1  0  0  0  0
  3  2  1  0  0  0  0
  4  5  2  0  0  0  0
  5 10  1  0  0  0  0
  6  5  1  0  0  0  0
  6 11  1  0  0  0  0
  7  6  2  0  0  0  0
  8  1  2  0  0  0  0
  8  7  1  0  0  0  0
 12  7  1  0  0  0  0
 13  8  1  0  0  0  0
 14 15  2  0  0  0  0
 15 16  1  0  0  0  0
 16  9  1  0  0  0  0
 17 15  1  0  0  0  0
 17 20  1  0  0  0  0
 18 17  1  0  0  0  0
 19 17  1  0  0  0  0
M  RAD  3   2   2   3   3   4   2
M  END
