Coordinates from ORCA-job PhN2+~CF3COO-_B3LYPG-6-31G_dp-CH-Scan-d09-49-n800
 OpenBabel11261919373D

 20 19  0  0  0  0  0  0  0  0999 V2000
   -1.5818    0.2008   -0.1538 C   0  0  0  0  0  0  0  0  0  0  0  0
   -2.9661    0.1718   -0.3028 N   0  0  0  0  0  0  0  0  0  0  0  0
   -4.0782    0.2016   -0.4183 N   0  0  0  0  0  0  0  0  0  0  0  0
   -1.0680    1.4992   -0.0010 C   0  0  0  0  0  0  0  0  0  0  0  0
    0.3460    1.4348    0.1461 C   0  0  0  0  0  0  0  0  0  0  0  0
    1.0739    0.2489    0.1360 C   0  0  0  0  0  0  0  0  0  0  0  0
    0.4436   -1.0093   -0.0270 C   0  0  0  0  0  0  0  0  0  0  0  0
   -0.9239   -1.0595   -0.1782 C   0  0  0  0  0  0  0  0  0  0  0  0
   -2.9820    4.0735    0.0022 H   0  0  0  0  0  0  0  0  0  0  0  0
    0.9024    2.3637    0.2762 H   0  0  0  0  0  0  0  0  0  0  0  0
    2.1558    0.2741    0.2567 H   0  0  0  0  0  0  0  0  0  0  0  0
    1.0307   -1.9219   -0.0323 H   0  0  0  0  0  0  0  0  0  0  0  0
   -1.4621   -1.9947   -0.3074 H   0  0  0  0  0  0  0  0  0  0  0  0
   -5.0366    2.9446   -0.3142 O   0  0  0  0  0  0  0  0  0  0  0  0
   -4.8523    4.1303   -0.1945 C   0  0  0  0  0  0  0  0  0  0  0  0
   -3.6863    4.7475   -0.0171 O   0  0  0  0  0  0  0  0  0  0  0  0
   -5.9973    5.1663   -0.2280 C   0  0  0  0  0  0  0  0  0  0  0  0
   -5.8022    6.0482   -1.2240 F   0  0  0  0  0  0  0  0  0  0  0  0
   -7.1690    4.5556   -0.4195 F   0  0  0  0  0  0  0  0  0  0  0  0
   -6.0481    5.8433    0.9328 F   0  0  0  0  0  0  0  0  0  0  0  0
  1  4  1  0  0  0  0
  2  1  1  0  0  0  0
  3  2  1  0  0  0  0
  4  5  2  0  0  0  0
  5 10  1  0  0  0  0
  6  5  1  0  0  0  0
  6 11  1  0  0  0  0
  7  6  2  0  0  0  0
  8  1  2  0  0  0  0
  8  7  1  0  0  0  0
 12  7  1  0  0  0  0
 13  8  1  0  0  0  0
 14 15  2  0  0  0  0
 15 16  1  0  0  0  0
 16  9  1  0  0  0  0
 17 15  1  0  0  0  0
 17 20  1  0  0  0  0
 18 17  1  0  0  0  0
 19 17  1  0  0  0  0
M  RAD  3   2   2   3   3   4   2
M  END
