Coordinates from ORCA-job PhN2+~CF3COO-_B3LYPG-6-31G_dp-CH-Scan-d09-49-n800
 OpenBabel11261919373D

 20 19  0  0  0  0  0  0  0  0999 V2000
   -1.6446    0.2204   -0.1527 C   0  0  0  0  0  0  0  0  0  0  0  0
   -3.0269    0.1504   -0.2990 N   0  0  0  0  0  0  0  0  0  0  0  0
   -4.1393    0.1454   -0.4116 N   0  0  0  0  0  0  0  0  0  0  0  0
   -1.1637    1.5308    0.0076 C   0  0  0  0  0  0  0  0  0  0  0  0
    0.2507    1.5073    0.1516 C   0  0  0  0  0  0  0  0  0  0  0  0
    1.0117    0.3422    0.1324 C   0  0  0  0  0  0  0  0  0  0  0  0
    0.4166   -0.9315   -0.0373 C   0  0  0  0  0  0  0  0  0  0  0  0
   -0.9495   -1.0192   -0.1861 C   0  0  0  0  0  0  0  0  0  0  0  0
   -2.9353    3.8677    0.0163 H   0  0  0  0  0  0  0  0  0  0  0  0
    0.7797    2.4510    0.2865 H   0  0  0  0  0  0  0  0  0  0  0  0
    2.0926    0.3976    0.2510 H   0  0  0  0  0  0  0  0  0  0  0  0
    1.0287   -1.8275   -0.0496 H   0  0  0  0  0  0  0  0  0  0  0  0
   -1.4609   -1.9685   -0.3202 H   0  0  0  0  0  0  0  0  0  0  0  0
   -5.0597    2.8649   -0.3178 O   0  0  0  0  0  0  0  0  0  0  0  0
   -4.8010    4.0367   -0.1895 C   0  0  0  0  0  0  0  0  0  0  0  0
   -3.6035    4.5809   -0.0017 O   0  0  0  0  0  0  0  0  0  0  0  0
   -5.8817    5.1399   -0.2284 C   0  0  0  0  0  0  0  0  0  0  0  0
   -5.6412    5.9944   -1.2387 F   0  0  0  0  0  0  0  0  0  0  0  0
   -7.0906    4.6001   -0.4034 F   0  0  0  0  0  0  0  0  0  0  0  0
   -5.8835    5.8360    0.9224 F   0  0  0  0  0  0  0  0  0  0  0  0
  1  4  1  0  0  0  0
  2  1  1  0  0  0  0
  3  2  1  0  0  0  0
  4  5  2  0  0  0  0
  5 10  1  0  0  0  0
  6  5  1  0  0  0  0
  6 11  1  0  0  0  0
  7  6  2  0  0  0  0
  8  1  2  0  0  0  0
  8  7  1  0  0  0  0
 12  7  1  0  0  0  0
 13  8  1  0  0  0  0
 14 15  2  0  0  0  0
 15 16  1  0  0  0  0
 16  9  1  0  0  0  0
 17 15  1  0  0  0  0
 17 20  1  0  0  0  0
 18 17  1  0  0  0  0
 19 17  1  0  0  0  0
M  RAD  3   2   2   3   3   4   2
M  END
