Coordinates from ORCA-job PhN2+~CF3COO-_B3LYPG-6-31G_dp-CH-Scan-d09-49-n800
 OpenBabel11261919373D

 20 19  0  0  0  0  0  0  0  0999 V2000
   -1.3990    0.1470   -0.1308 C   0  0  0  0  0  0  0  0  0  0  0  0
   -2.7843    0.2436   -0.2603 N   0  0  0  0  0  0  0  0  0  0  0  0
   -3.8903    0.3844   -0.3579 N   0  0  0  0  0  0  0  0  0  0  0  0
   -0.7854    1.3992    0.0315 C   0  0  0  0  0  0  0  0  0  0  0  0
    0.6222    1.2134    0.1587 C   0  0  0  0  0  0  0  0  0  0  0  0
    1.2498   -0.0275    0.1235 C   0  0  0  0  0  0  0  0  0  0  0  0
    0.5165   -1.2286   -0.0476 C   0  0  0  0  0  0  0  0  0  0  0  0
   -0.8520   -1.1647   -0.1811 C   0  0  0  0  0  0  0  0  0  0  0  0
   -3.1623    4.6954    0.0621 H   0  0  0  0  0  0  0  0  0  0  0  0
    1.2564    2.0910    0.2935 H   0  0  0  0  0  0  0  0  0  0  0  0
    2.3319   -0.0937    0.2299 H   0  0  0  0  0  0  0  0  0  0  0  0
    1.0278   -2.1857   -0.0729 H   0  0  0  0  0  0  0  0  0  0  0  0
   -1.4675   -2.0503   -0.3155 H   0  0  0  0  0  0  0  0  0  0  0  0
   -4.9597    3.2118   -0.2785 O   0  0  0  0  0  0  0  0  0  0  0  0
   -5.0037    4.4112   -0.1823 C   0  0  0  0  0  0  0  0  0  0  0  0
   -3.9700    5.2351    0.0103 O   0  0  0  0  0  0  0  0  0  0  0  0
   -6.3144    5.2231   -0.2687 C   0  0  0  0  0  0  0  0  0  0  0  0
   -6.2540    6.0987   -1.2872 F   0  0  0  0  0  0  0  0  0  0  0  0
   -7.3506    4.4059   -0.4649 F   0  0  0  0  0  0  0  0  0  0  0  0
   -6.5130    5.9095    0.8700 F   0  0  0  0  0  0  0  0  0  0  0  0
  1  4  1  0  0  0  0
  2  1  1  0  0  0  0
  3  2  1  0  0  0  0
  4  5  2  0  0  0  0
  5 10  1  0  0  0  0
  6  5  1  0  0  0  0
  6 11  1  0  0  0  0
  7  6  2  0  0  0  0
  8  1  2  0  0  0  0
  8  7  1  0  0  0  0
 12  7  1  0  0  0  0
 13  8  1  0  0  0  0
 14 15  2  0  0  0  0
 15 16  1  0  0  0  0
 16  9  1  0  0  0  0
 17 15  1  0  0  0  0
 17 20  1  0  0  0  0
 18 17  1  0  0  0  0
 19 17  1  0  0  0  0
M  RAD  3   2   2   3   3   4   2
M  END
