Coordinates from ORCA-job PhN2+~CF3COO-_B3LYPG-6-31G_dp-CH-Scan-d09-49-n800
 OpenBabel11261919373D

 20 19  0  0  0  0  0  0  0  0999 V2000
   -1.4019    0.1478   -0.1321 C   0  0  0  0  0  0  0  0  0  0  0  0
   -2.7873    0.2419   -0.2622 N   0  0  0  0  0  0  0  0  0  0  0  0
   -3.8935    0.3807   -0.3602 N   0  0  0  0  0  0  0  0  0  0  0  0
   -0.7899    1.4011    0.0275 C   0  0  0  0  0  0  0  0  0  0  0  0
    0.6178    1.2175    0.1553 C   0  0  0  0  0  0  0  0  0  0  0  0
    1.2471   -0.0227    0.1231 C   0  0  0  0  0  0  0  0  0  0  0  0
    0.5154   -1.2251   -0.0454 C   0  0  0  0  0  0  0  0  0  0  0  0
   -0.8531   -1.1633   -0.1793 C   0  0  0  0  0  0  0  0  0  0  0  0
   -3.1593    4.6841    0.0654 H   0  0  0  0  0  0  0  0  0  0  0  0
    1.2509    2.0962    0.2882 H   0  0  0  0  0  0  0  0  0  0  0  0
    2.3292   -0.0872    0.2298 H   0  0  0  0  0  0  0  0  0  0  0  0
    1.0279   -2.1816   -0.0684 H   0  0  0  0  0  0  0  0  0  0  0  0
   -1.4674   -2.0500   -0.3118 H   0  0  0  0  0  0  0  0  0  0  0  0
   -4.9615    3.2069   -0.2800 O   0  0  0  0  0  0  0  0  0  0  0  0
   -5.0014    4.4063   -0.1818 C   0  0  0  0  0  0  0  0  0  0  0  0
   -3.9653    5.2264    0.0136 O   0  0  0  0  0  0  0  0  0  0  0  0
   -6.3093    5.2228   -0.2685 C   0  0  0  0  0  0  0  0  0  0  0  0
   -6.2438    6.1015   -1.2839 F   0  0  0  0  0  0  0  0  0  0  0  0
   -7.3478    4.4097   -0.4696 F   0  0  0  0  0  0  0  0  0  0  0  0
   -6.5082    5.9061    0.8720 F   0  0  0  0  0  0  0  0  0  0  0  0
  1  4  1  0  0  0  0
  2  1  1  0  0  0  0
  3  2  1  0  0  0  0
  4  5  2  0  0  0  0
  5 10  1  0  0  0  0
  6  5  1  0  0  0  0
  6 11  1  0  0  0  0
  7  6  2  0  0  0  0
  8  1  2  0  0  0  0
  8  7  1  0  0  0  0
 12  7  1  0  0  0  0
 13  8  1  0  0  0  0
 14 15  2  0  0  0  0
 15 16  1  0  0  0  0
 16  9  1  0  0  0  0
 17 15  1  0  0  0  0
 17 20  1  0  0  0  0
 18 17  1  0  0  0  0
 19 17  1  0  0  0  0
M  RAD  3   2   2   3   3   4   2
M  END
