Coordinates from ORCA-job PhN2+~CF3COO-_B3LYPG-6-31G_dp-CH-Scan-d09-49-n800
 OpenBabel11261919373D

 20 19  0  0  0  0  0  0  0  0999 V2000
   -1.5863    0.2025   -0.1541 C   0  0  0  0  0  0  0  0  0  0  0  0
   -2.9705    0.1706   -0.3036 N   0  0  0  0  0  0  0  0  0  0  0  0
   -4.0826    0.1975   -0.4186 N   0  0  0  0  0  0  0  0  0  0  0  0
   -1.0747    1.5016   -0.0006 C   0  0  0  0  0  0  0  0  0  0  0  0
    0.3393    1.4401    0.1467 C   0  0  0  0  0  0  0  0  0  0  0  0
    1.0694    0.2555    0.1362 C   0  0  0  0  0  0  0  0  0  0  0  0
    0.4415   -1.0038   -0.0274 C   0  0  0  0  0  0  0  0  0  0  0  0
   -0.9258   -1.0565   -0.1790 C   0  0  0  0  0  0  0  0  0  0  0  0
   -2.9785    4.0586    0.0020 H   0  0  0  0  0  0  0  0  0  0  0  0
    0.8938    2.3700    0.2773 H   0  0  0  0  0  0  0  0  0  0  0  0
    2.1513    0.2828    0.2573 H   0  0  0  0  0  0  0  0  0  0  0  0
    1.0304   -1.9153   -0.0330 H   0  0  0  0  0  0  0  0  0  0  0  0
   -1.4621   -1.9926   -0.3087 H   0  0  0  0  0  0  0  0  0  0  0  0
   -5.0384    2.9386   -0.3144 O   0  0  0  0  0  0  0  0  0  0  0  0
   -4.8486    4.1234   -0.1942 C   0  0  0  0  0  0  0  0  0  0  0  0
   -3.6800    4.7355   -0.0169 O   0  0  0  0  0  0  0  0  0  0  0  0
   -5.9892    5.1644   -0.2275 C   0  0  0  0  0  0  0  0  0  0  0  0
   -5.7917    6.0438   -1.2254 F   0  0  0  0  0  0  0  0  0  0  0  0
   -7.1638    4.5586   -0.4162 F   0  0  0  0  0  0  0  0  0  0  0  0
   -6.0352    5.8437    0.9322 F   0  0  0  0  0  0  0  0  0  0  0  0
  1  4  1  0  0  0  0
  2  1  1  0  0  0  0
  3  2  1  0  0  0  0
  4  5  2  0  0  0  0
  5 10  1  0  0  0  0
  6  5  1  0  0  0  0
  6 11  1  0  0  0  0
  7  6  2  0  0  0  0
  8  1  2  0  0  0  0
  8  7  1  0  0  0  0
 12  7  1  0  0  0  0
 13  8  1  0  0  0  0
 14 15  2  0  0  0  0
 15 16  1  0  0  0  0
 16  9  1  0  0  0  0
 17 15  1  0  0  0  0
 17 20  1  0  0  0  0
 18 17  1  0  0  0  0
 19 17  1  0  0  0  0
M  RAD  3   2   2   3   3   4   2
M  END
