Coordinates from ORCA-job PhN2+~CF3COO-_B3LYPG-6-31G_dp-CH-Scan-d09-49-n800
 OpenBabel11261919373D

 20 19  0  0  0  0  0  0  0  0999 V2000
   -2.0536    0.6010   -0.2379 C   0  0  0  0  0  0  0  0  0  0  0  0
   -3.4266    0.3886   -0.4761 N   0  0  0  0  0  0  0  0  0  0  0  0
   -4.3717   -0.1659   -0.6995 N   0  0  0  0  0  0  0  0  0  0  0  0
   -1.4914    1.8790   -0.2448 C   0  0  0  0  0  0  0  0  0  0  0  0
   -0.1056    1.9098   -0.0350 C   0  0  0  0  0  0  0  0  0  0  0  0
    0.6398    0.7501    0.1750 C   0  0  0  0  0  0  0  0  0  0  0  0
    0.0221   -0.5120    0.1749 C   0  0  0  0  0  0  0  0  0  0  0  0
   -1.3409   -0.6061   -0.0379 C   0  0  0  0  0  0  0  0  0  0  0  0
   -2.2348    3.0073   -0.4049 H   0  0  0  0  0  0  0  0  0  0  0  0
    0.3979    2.8726   -0.0290 H   0  0  0  0  0  0  0  0  0  0  0  0
    1.7112    0.8172    0.3444 H   0  0  0  0  0  0  0  0  0  0  0  0
    0.6041   -1.4125    0.3397 H   0  0  0  0  0  0  0  0  0  0  0  0
   -1.8522   -1.5634   -0.0500 H   0  0  0  0  0  0  0  0  0  0  0  0
   -4.5285    2.4503   -0.0495 O   0  0  0  0  0  0  0  0  0  0  0  0
   -4.2060    3.6406   -0.2266 C   0  0  0  0  0  0  0  0  0  0  0  0
   -3.0587    4.1113   -0.4743 O   0  0  0  0  0  0  0  0  0  0  0  0
   -5.3371    4.6933   -0.0808 C   0  0  0  0  0  0  0  0  0  0  0  0
   -5.0863    5.8077   -0.7876 F   0  0  0  0  0  0  0  0  0  0  0  0
   -6.5224    4.2037   -0.4868 F   0  0  0  0  0  0  0  0  0  0  0  0
   -5.4604    5.0463    1.2186 F   0  0  0  0  0  0  0  0  0  0  0  0
  1  8  1  0  0  0  0
  2  1  1  0  0  0  0
  3  2  1  0  0  0  0
  4  1  2  0  0  0  0
  4  5  1  0  0  0  0
  5 10  1  0  0  0  0
  5  6  2  0  0  0  0
  6 11  1  0  0  0  0
  7  6  1  0  0  0  0
  7 12  1  0  0  0  0
  8  7  2  0  0  0  0
  9  4  1  0  0  0  0
 13  8  1  0  0  0  0
 15 17  1  0  0  0  0
 15 14  1  0  0  0  0
 16 15  2  0  0  0  0
 17 20  1  0  0  0  0
 18 17  1  0  0  0  0
 19 17  1  0  0  0  0
M  RAD  3   2   2   3   3  14   2
M  END
