Coordinates from ORCA-job PhN2+~CF3COO-_B3LYPG-6-31G_dp-CH-Scan-d09-49-n800
 OpenBabel11261919373D

 20 19  0  0  0  0  0  0  0  0999 V2000
   -1.6704    0.2285   -0.1542 C   0  0  0  0  0  0  0  0  0  0  0  0
   -3.0514    0.1418   -0.3017 N   0  0  0  0  0  0  0  0  0  0  0  0
   -4.1636    0.1230   -0.4131 N   0  0  0  0  0  0  0  0  0  0  0  0
   -1.2030    1.5436    0.0072 C   0  0  0  0  0  0  0  0  0  0  0  0
    0.2110    1.5368    0.1523 C   0  0  0  0  0  0  0  0  0  0  0  0
    0.9851    0.3803    0.1331 C   0  0  0  0  0  0  0  0  0  0  0  0
    0.4044   -0.8997   -0.0376 C   0  0  0  0  0  0  0  0  0  0  0  0
   -0.9605   -1.0027   -0.1875 C   0  0  0  0  0  0  0  0  0  0  0  0
   -2.9147    3.7877    0.0096 H   0  0  0  0  0  0  0  0  0  0  0  0
    0.7287    2.4864    0.2881 H   0  0  0  0  0  0  0  0  0  0  0  0
    2.0652    0.4480    0.2525 H   0  0  0  0  0  0  0  0  0  0  0  0
    1.0263   -1.7888   -0.0499 H   0  0  0  0  0  0  0  0  0  0  0  0
   -1.4610   -1.9576   -0.3224 H   0  0  0  0  0  0  0  0  0  0  0  0
   -5.0663    2.8340   -0.3186 O   0  0  0  0  0  0  0  0  0  0  0  0
   -4.7785    3.9995   -0.1898 C   0  0  0  0  0  0  0  0  0  0  0  0
   -3.5693    4.5155   -0.0055 O   0  0  0  0  0  0  0  0  0  0  0  0
   -5.8340    5.1272   -0.2248 C   0  0  0  0  0  0  0  0  0  0  0  0
   -5.5785    5.9754   -1.2369 F   0  0  0  0  0  0  0  0  0  0  0  0
   -7.0561    4.6157   -0.3942 F   0  0  0  0  0  0  0  0  0  0  0  0
   -5.8151    5.8243    0.9253 F   0  0  0  0  0  0  0  0  0  0  0  0
  1  4  1  0  0  0  0
  2  1  1  0  0  0  0
  3  2  1  0  0  0  0
  4  5  2  0  0  0  0
  5 10  1  0  0  0  0
  6  5  1  0  0  0  0
  6 11  1  0  0  0  0
  7  6  2  0  0  0  0
  8  1  2  0  0  0  0
  8  7  1  0  0  0  0
 12  7  1  0  0  0  0
 13  8  1  0  0  0  0
 14 15  2  0  0  0  0
 15 16  1  0  0  0  0
 16  9  1  0  0  0  0
 17 15  1  0  0  0  0
 17 20  1  0  0  0  0
 18 17  1  0  0  0  0
 19 17  1  0  0  0  0
M  RAD  3   2   2   3   3   4   2
M  END
