Coordinates from ORCA-job PhN2+~CF3COO-_B3LYPG-6-31G_dp-CH-Scan-d09-49-n800
 OpenBabel11261919373D

 20 19  0  0  0  0  0  0  0  0999 V2000
   -2.0508    0.7807   -0.3864 C   0  0  0  0  0  0  0  0  0  0  0  0
   -3.4123    0.7415   -0.8064 N   0  0  0  0  0  0  0  0  0  0  0  0
   -4.2389    0.1558   -1.2994 N   0  0  0  0  0  0  0  0  0  0  0  0
   -1.3340    1.9707   -0.4593 C   0  0  0  0  0  0  0  0  0  0  0  0
    0.0110    1.9259   -0.0988 C   0  0  0  0  0  0  0  0  0  0  0  0
    0.5893    0.7318    0.3420 C   0  0  0  0  0  0  0  0  0  0  0  0
   -0.1644   -0.4457    0.4089 C   0  0  0  0  0  0  0  0  0  0  0  0
   -1.5030   -0.4396    0.0322 C   0  0  0  0  0  0  0  0  0  0  0  0
   -1.8819    2.9222   -0.8345 H   0  0  0  0  0  0  0  0  0  0  0  0
    0.6058    2.8317   -0.1540 H   0  0  0  0  0  0  0  0  0  0  0  0
    1.6335    0.7156    0.6384 H   0  0  0  0  0  0  0  0  0  0  0  0
    0.2885   -1.3694    0.7535 H   0  0  0  0  0  0  0  0  0  0  0  0
   -2.1111   -1.3367    0.0688 H   0  0  0  0  0  0  0  0  0  0  0  0
   -4.2323    2.4009    0.2072 O   0  0  0  0  0  0  0  0  0  0  0  0
   -4.2010    3.5341   -0.3762 C   0  0  0  0  0  0  0  0  0  0  0  0
   -3.4400    3.9487   -1.2567 O   0  0  0  0  0  0  0  0  0  0  0  0
   -5.3056    4.4948    0.1580 C   0  0  0  0  0  0  0  0  0  0  0  0
   -5.2813    5.6818   -0.4645 F   0  0  0  0  0  0  0  0  0  0  0  0
   -6.5307    3.9573   -0.0207 F   0  0  0  0  0  0  0  0  0  0  0  0
   -5.1423    4.7166    1.4797 F   0  0  0  0  0  0  0  0  0  0  0  0
  1  8  1  0  0  0  0
  2  1  1  0  0  0  0
  3  2  2  0  0  0  0
  4  1  2  0  0  0  0
  4  5  1  0  0  0  0
  5  6  2  0  0  0  0
  6  7  1  0  0  0  0
  6 11  1  0  0  0  0
  7 12  1  0  0  0  0
  8 13  1  0  0  0  0
  8  7  2  0  0  0  0
  9  4  1  0  0  0  0
 10  5  1  0  0  0  0
 15 17  1  0  0  0  0
 15 14  1  0  0  0  0
 16 15  2  0  0  0  0
 17 20  1  0  0  0  0
 18 17  1  0  0  0  0
 19 17  1  0  0  0  0
M  RAD  2   3   2  14   2
M  END
