Coordinates from ORCA-job PhN2+~CF3COO-_B3LYPG-6-31G_dp-CH-Scan-d09-49-n800
 OpenBabel11261919373D

 20 19  0  0  0  0  0  0  0  0999 V2000
   -1.8291    0.2833   -0.1685 C   0  0  0  0  0  0  0  0  0  0  0  0
   -3.1984    0.0999   -0.3237 N   0  0  0  0  0  0  0  0  0  0  0  0
   -4.3050    0.0080   -0.4443 N   0  0  0  0  0  0  0  0  0  0  0  0
   -1.4384    1.6252   -0.0183 C   0  0  0  0  0  0  0  0  0  0  0  0
   -0.0312    1.7144    0.1351 C   0  0  0  0  0  0  0  0  0  0  0  0
    0.8157    0.6092    0.1334 C   0  0  0  0  0  0  0  0  0  0  0  0
    0.3180   -0.7048   -0.0258 C   0  0  0  0  0  0  0  0  0  0  0  0
   -1.0374   -0.8956   -0.1825 C   0  0  0  0  0  0  0  0  0  0  0  0
   -2.7797    3.3267   -0.0206 H   0  0  0  0  0  0  0  0  0  0  0  0
    0.4198    2.6976    0.2629 H   0  0  0  0  0  0  0  0  0  0  0  0
    1.8879    0.7482    0.2581 H   0  0  0  0  0  0  0  0  0  0  0  0
    0.9937   -1.5537   -0.0241 H   0  0  0  0  0  0  0  0  0  0  0  0
   -1.4746   -1.8818   -0.3092 H   0  0  0  0  0  0  0  0  0  0  0  0
   -5.0711    2.6634   -0.3382 O   0  0  0  0  0  0  0  0  0  0  0  0
   -4.6247    3.7809   -0.1932 C   0  0  0  0  0  0  0  0  0  0  0  0
   -3.3687    4.1363   -0.0182 O   0  0  0  0  0  0  0  0  0  0  0  0
   -5.5388    5.0277   -0.1971 C   0  0  0  0  0  0  0  0  0  0  0  0
   -5.1948    5.8601   -1.1978 F   0  0  0  0  0  0  0  0  0  0  0  0
   -6.8178    4.6747   -0.3605 F   0  0  0  0  0  0  0  0  0  0  0  0
   -5.4268    5.6994    0.9642 F   0  0  0  0  0  0  0  0  0  0  0  0
  1  4  1  0  0  0  0
  2  1  1  0  0  0  0
  3  2  1  0  0  0  0
  4  5  2  0  0  0  0
  5 10  1  0  0  0  0
  6  5  1  0  0  0  0
  6 11  1  0  0  0  0
  7 12  1  0  0  0  0
  7  6  2  0  0  0  0
  8  1  2  0  0  0  0
  8  7  1  0  0  0  0
  9 16  1  0  0  0  0
 13  8  1  0  0  0  0
 14 15  2  0  0  0  0
 15 16  1  0  0  0  0
 17 15  1  0  0  0  0
 17 20  1  0  0  0  0
 18 17  1  0  0  0  0
 19 17  1  0  0  0  0
M  RAD  3   2   2   3   3   4   2
M  END
