Coordinates from ORCA-job PhN2+~CF3COO-_B3LYPG-6-31G_dp-CH-Scan-d09-49-n800
 OpenBabel11261919373D

 20 19  0  0  0  0  0  0  0  0999 V2000
   -1.3165    0.7220   -1.2203 C   0  0  0  0  0  0  0  0  0  0  0  0
   -2.1914    0.8388   -2.2999 N   0  0  0  0  0  0  0  0  0  0  0  0
   -2.8258    0.9488   -3.2148 N   0  0  0  0  0  0  0  0  0  0  0  0
    0.0077    0.9920   -1.5957 C   0  0  0  0  0  0  0  0  0  0  0  0
    0.8514    0.8449   -0.4553 C   0  0  0  0  0  0  0  0  0  0  0  0
    0.3941    0.4791    0.8067 C   0  0  0  0  0  0  0  0  0  0  0  0
   -0.9794    0.2322    1.0599 C   0  0  0  0  0  0  0  0  0  0  0  0
   -1.8846    0.3537    0.0295 C   0  0  0  0  0  0  0  0  0  0  0  0
   -2.8383    4.7053   -0.6413 H   0  0  0  0  0  0  0  0  0  0  0  0
    1.9218    1.0255   -0.5682 H   0  0  0  0  0  0  0  0  0  0  0  0
    1.0973    0.3768    1.6323 H   0  0  0  0  0  0  0  0  0  0  0  0
   -1.3122   -0.0486    2.0541 H   0  0  0  0  0  0  0  0  0  0  0  0
   -2.9506    0.1903    0.1592 H   0  0  0  0  0  0  0  0  0  0  0  0
   -4.0494    2.7051   -0.8738 O   0  0  0  0  0  0  0  0  0  0  0  0
   -4.3422    3.6664   -0.2082 C   0  0  0  0  0  0  0  0  0  0  0  0
   -3.6395    4.7959   -0.0968 O   0  0  0  0  0  0  0  0  0  0  0  0
   -5.6242    3.7507    0.6487 C   0  0  0  0  0  0  0  0  0  0  0  0
   -6.4088    4.7479    0.2081 F   0  0  0  0  0  0  0  0  0  0  0  0
   -6.3003    2.6031    0.5748 F   0  0  0  0  0  0  0  0  0  0  0  0
   -5.3107    3.9890    1.9327 F   0  0  0  0  0  0  0  0  0  0  0  0
  1  8  1  0  0  0  0
  2  1  1  0  0  0  0
  3  2  1  0  0  0  0
  4  1  2  0  0  0  0
  4  5  1  0  0  0  0
  5  6  2  0  0  0  0
  6  7  1  0  0  0  0
  6 11  1  0  0  0  0
  7 12  1  0  0  0  0
  8 13  1  0  0  0  0
  8  7  2  0  0  0  0
  9 16  1  0  0  0  0
 10  5  1  0  0  0  0
 14 15  2  0  0  0  0
 15 16  1  0  0  0  0
 15 17  1  0  0  0  0
 17 20  1  0  0  0  0
 18 17  1  0  0  0  0
 19 17  1  0  0  0  0
M  RAD  3   2   2   3   3   4   2
M  END
