Coordinates from ORCA-job PhN2+~CF3COO-_B3LYPG-6-31G_dp-CH-Scan-d09-49-n800
 OpenBabel11261919373D

 20 19  0  0  0  0  0  0  0  0999 V2000
   -1.2793    0.1328   -0.1883 C   0  0  0  0  0  0  0  0  0  0  0  0
   -2.6496    0.3144   -0.3784 N   0  0  0  0  0  0  0  0  0  0  0  0
   -3.7387    0.5271   -0.5260 N   0  0  0  0  0  0  0  0  0  0  0  0
   -0.5963    1.3496   -0.0396 C   0  0  0  0  0  0  0  0  0  0  0  0
    0.7909    1.0814    0.1530 C   0  0  0  0  0  0  0  0  0  0  0  0
    1.3394   -0.1965    0.1848 C   0  0  0  0  0  0  0  0  0  0  0  0
    0.5390   -1.3552    0.0203 C   0  0  0  0  0  0  0  0  0  0  0  0
   -0.8160   -1.2116   -0.1745 C   0  0  0  0  0  0  0  0  0  0  0  0
   -3.2879    5.0546   -0.0727 H   0  0  0  0  0  0  0  0  0  0  0  0
    1.4734    1.9223    0.2865 H   0  0  0  0  0  0  0  0  0  0  0  0
    2.4096   -0.3263    0.3405 H   0  0  0  0  0  0  0  0  0  0  0  0
    0.9895   -2.3423    0.0476 H   0  0  0  0  0  0  0  0  0  0  0  0
   -1.4802   -2.0614   -0.3080 H   0  0  0  0  0  0  0  0  0  0  0  0
   -4.9276    3.3868   -0.3096 O   0  0  0  0  0  0  0  0  0  0  0  0
   -5.0985    4.5736   -0.2048 C   0  0  0  0  0  0  0  0  0  0  0  0
   -4.1496    5.5060   -0.0717 O   0  0  0  0  0  0  0  0  0  0  0  0
   -6.4923    5.2379   -0.2067 C   0  0  0  0  0  0  0  0  0  0  0  0
   -6.5897    6.1135   -1.2221 F   0  0  0  0  0  0  0  0  0  0  0  0
   -7.4435    4.3124   -0.3441 F   0  0  0  0  0  0  0  0  0  0  0  0
   -6.6941    5.8999    0.9456 F   0  0  0  0  0  0  0  0  0  0  0  0
  1  8  2  0  0  0  0
  1  4  1  0  0  0  0
  2  1  1  0  0  0  0
  3  2  1  0  0  0  0
  4  5  2  0  0  0  0
  5  6  1  0  0  0  0
  5 10  1  0  0  0  0
  6 11  1  0  0  0  0
  7 12  1  0  0  0  0
  7  6  2  0  0  0  0
  8  7  1  0  0  0  0
  9 16  1  0  0  0  0
 13  8  1  0  0  0  0
 14 15  2  0  0  0  0
 15 16  1  0  0  0  0
 17 15  1  0  0  0  0
 17 20  1  0  0  0  0
 18 17  1  0  0  0  0
 19 17  1  0  0  0  0
M  RAD  3   2   2   3   3   4   2
M  END
