Coordinates from ORCA-job PhN2+~CF3COO-_B3LYPG-6-31G_dp-CH-Scan-d09-49-n800
 OpenBabel11261919373D

 20 19  0  0  0  0  0  0  0  0999 V2000
   -1.6977    0.2379   -0.1556 C   0  0  0  0  0  0  0  0  0  0  0  0
   -3.0773    0.1341   -0.3031 N   0  0  0  0  0  0  0  0  0  0  0  0
   -4.1886    0.1010   -0.4184 N   0  0  0  0  0  0  0  0  0  0  0  0
   -1.2434    1.5580    0.0031 C   0  0  0  0  0  0  0  0  0  0  0  0
    0.1700    1.5682    0.1483 C   0  0  0  0  0  0  0  0  0  0  0  0
    0.9570    0.4203    0.1317 C   0  0  0  0  0  0  0  0  0  0  0  0
    0.3905   -0.8661   -0.0361 C   0  0  0  0  0  0  0  0  0  0  0  0
   -0.9733   -0.9847   -0.1859 C   0  0  0  0  0  0  0  0  0  0  0  0
   -2.8937    3.7040    0.0089 H   0  0  0  0  0  0  0  0  0  0  0  0
    0.6765    2.5240    0.2821 H   0  0  0  0  0  0  0  0  0  0  0  0
    2.0362    0.5005    0.2510 H   0  0  0  0  0  0  0  0  0  0  0  0
    1.0220   -1.7484   -0.0463 H   0  0  0  0  0  0  0  0  0  0  0  0
   -1.4629   -1.9455   -0.3186 H   0  0  0  0  0  0  0  0  0  0  0  0
   -5.0708    2.8025   -0.3235 O   0  0  0  0  0  0  0  0  0  0  0  0
   -4.7538    3.9605   -0.1900 C   0  0  0  0  0  0  0  0  0  0  0  0
   -3.5343    4.4469   -0.0036 O   0  0  0  0  0  0  0  0  0  0  0  0
   -5.7833    5.1122   -0.2211 C   0  0  0  0  0  0  0  0  0  0  0  0
   -5.5077    5.9590   -1.2294 F   0  0  0  0  0  0  0  0  0  0  0  0
   -7.0171    4.6304   -0.3938 F   0  0  0  0  0  0  0  0  0  0  0  0
   -5.7498    5.8041    0.9320 F   0  0  0  0  0  0  0  0  0  0  0  0
  1  4  1  0  0  0  0
  2  1  1  0  0  0  0
  3  2  1  0  0  0  0
  4  5  2  0  0  0  0
  5 10  1  0  0  0  0
  6  5  1  0  0  0  0
  6 11  1  0  0  0  0
  7  6  2  0  0  0  0
  8  1  2  0  0  0  0
  8  7  1  0  0  0  0
 12  7  1  0  0  0  0
 13  8  1  0  0  0  0
 14 15  2  0  0  0  0
 15 16  1  0  0  0  0
 16  9  1  0  0  0  0
 17 15  1  0  0  0  0
 17 20  1  0  0  0  0
 18 17  1  0  0  0  0
 19 17  1  0  0  0  0
M  RAD  3   2   2   3   3   4   2
M  END
