Coordinates from ORCA-job PhN2+~CF3COO-_B3LYPG-6-31G_dp-CH-Scan-d09-49-n800
 OpenBabel11261919373D

 20 19  0  0  0  0  0  0  0  0999 V2000
   -1.6134    0.2112   -0.1552 C   0  0  0  0  0  0  0  0  0  0  0  0
   -2.9967    0.1617   -0.3051 N   0  0  0  0  0  0  0  0  0  0  0  0
   -4.1088    0.1737   -0.4212 N   0  0  0  0  0  0  0  0  0  0  0  0
   -1.1160    1.5157    0.0011 C   0  0  0  0  0  0  0  0  0  0  0  0
    0.2981    1.4716    0.1490 C   0  0  0  0  0  0  0  0  0  0  0  0
    1.0424    0.2958    0.1365 C   0  0  0  0  0  0  0  0  0  0  0  0
    0.4296   -0.9703   -0.0298 C   0  0  0  0  0  0  0  0  0  0  0  0
   -0.9370   -1.0391   -0.1820 C   0  0  0  0  0  0  0  0  0  0  0  0
   -2.9571    3.9695    0.0025 H   0  0  0  0  0  0  0  0  0  0  0  0
    0.8409    2.4080    0.2816 H   0  0  0  0  0  0  0  0  0  0  0  0
    2.1237    0.3360    0.2580 H   0  0  0  0  0  0  0  0  0  0  0  0
    1.0291   -1.8748   -0.0369 H   0  0  0  0  0  0  0  0  0  0  0  0
   -1.4619   -1.9814   -0.3138 H   0  0  0  0  0  0  0  0  0  0  0  0
   -5.0479    2.9036   -0.3168 O   0  0  0  0  0  0  0  0  0  0  0  0
   -4.8260    4.0828   -0.1929 C   0  0  0  0  0  0  0  0  0  0  0  0
   -3.6431    4.6636   -0.0137 O   0  0  0  0  0  0  0  0  0  0  0  0
   -5.9396    5.1529   -0.2254 C   0  0  0  0  0  0  0  0  0  0  0  0
   -5.7259    6.0199   -1.2310 F   0  0  0  0  0  0  0  0  0  0  0  0
   -7.1311    4.5768   -0.4024 F   0  0  0  0  0  0  0  0  0  0  0  0
   -5.9609    5.8416    0.9294 F   0  0  0  0  0  0  0  0  0  0  0  0
  1  4  1  0  0  0  0
  2  1  1  0  0  0  0
  3  2  1  0  0  0  0
  4  5  2  0  0  0  0
  5 10  1  0  0  0  0
  6  5  1  0  0  0  0
  6 11  1  0  0  0  0
  7  6  2  0  0  0  0
  8  1  2  0  0  0  0
  8  7  1  0  0  0  0
 12  7  1  0  0  0  0
 13  8  1  0  0  0  0
 14 15  2  0  0  0  0
 15 16  1  0  0  0  0
 16  9  1  0  0  0  0
 17 15  1  0  0  0  0
 17 20  1  0  0  0  0
 18 17  1  0  0  0  0
 19 17  1  0  0  0  0
M  RAD  3   2   2   3   3   4   2
M  END
