Coordinates from ORCA-job PhN2+~CF3COO-_B3LYPG-6-31G_dp-CH-Scan-d09-49-n800
 OpenBabel11261919373D

 20 19  0  0  0  0  0  0  0  0999 V2000
   -1.9353    0.3246   -0.1913 C   0  0  0  0  0  0  0  0  0  0  0  0
   -3.2939    0.0847   -0.3643 N   0  0  0  0  0  0  0  0  0  0  0  0
   -4.3965   -0.0259   -0.4967 N   0  0  0  0  0  0  0  0  0  0  0  0
   -1.5892    1.6786   -0.0479 C   0  0  0  0  0  0  0  0  0  0  0  0
   -0.1941    1.8315    0.1251 C   0  0  0  0  0  0  0  0  0  0  0  0
    0.6961    0.7599    0.1466 C   0  0  0  0  0  0  0  0  0  0  0  0
    0.2515   -0.5715   -0.0070 C   0  0  0  0  0  0  0  0  0  0  0  0
   -1.0942   -0.8165   -0.1818 C   0  0  0  0  0  0  0  0  0  0  0  0
   -2.6512    3.0008   -0.0649 H   0  0  0  0  0  0  0  0  0  0  0  0
    0.2086    2.8350    0.2494 H   0  0  0  0  0  0  0  0  0  0  0  0
    1.7594    0.9430    0.2856 H   0  0  0  0  0  0  0  0  0  0  0  0
    0.9584   -1.3941    0.0126 H   0  0  0  0  0  0  0  0  0  0  0  0
   -1.4901   -1.8201   -0.3050 H   0  0  0  0  0  0  0  0  0  0  0  0
   -5.0607    2.5579   -0.3184 O   0  0  0  0  0  0  0  0  0  0  0  0
   -4.5106    3.6387   -0.1893 C   0  0  0  0  0  0  0  0  0  0  0  0
   -3.2406    3.8941   -0.0567 O   0  0  0  0  0  0  0  0  0  0  0  0
   -5.3422    4.9444   -0.1704 C   0  0  0  0  0  0  0  0  0  0  0  0
   -4.9816    5.7500   -1.1897 F   0  0  0  0  0  0  0  0  0  0  0  0
   -6.6510    4.6862   -0.2844 F   0  0  0  0  0  0  0  0  0  0  0  0
   -5.1443    5.6177    0.9804 F   0  0  0  0  0  0  0  0  0  0  0  0
  1  8  2  0  0  0  0
  1  4  1  0  0  0  0
  2  1  1  0  0  0  0
  3  2  1  0  0  0  0
  4  5  2  0  0  0  0
  5  6  1  0  0  0  0
  5 10  1  0  0  0  0
  6 11  1  0  0  0  0
  7 12  1  0  0  0  0
  7  6  2  0  0  0  0
  8  7  1  0  0  0  0
  9 16  1  0  0  0  0
 13  8  1  0  0  0  0
 14 15  2  0  0  0  0
 15 17  1  0  0  0  0
 15 16  1  0  0  0  0
 17 20  1  0  0  0  0
 18 17  1  0  0  0  0
 19 17  1  0  0  0  0
M  RAD  3   2   2   3   3   4   2
M  END
