Coordinates from ORCA-job PhN2+~CF3COO-_B3LYPG-6-31G_dp-CH-Scan-d09-49-n800
 OpenBabel11261919373D

 20 19  0  0  0  0  0  0  0  0999 V2000
   -1.3668    0.1428   -0.1375 C   0  0  0  0  0  0  0  0  0  0  0  0
   -2.7495    0.2642   -0.2749 N   0  0  0  0  0  0  0  0  0  0  0  0
   -3.8523    0.4259   -0.3781 N   0  0  0  0  0  0  0  0  0  0  0  0
   -0.7333    1.3843    0.0292 C   0  0  0  0  0  0  0  0  0  0  0  0
    0.6702    1.1741    0.1652 C   0  0  0  0  0  0  0  0  0  0  0  0
    1.2766   -0.0774    0.1334 C   0  0  0  0  0  0  0  0  0  0  0  0
    0.5237   -1.2657   -0.0432 C   0  0  0  0  0  0  0  0  0  0  0  0
   -0.8425   -1.1782   -0.1854 C   0  0  0  0  0  0  0  0  0  0  0  0
   -3.1951    4.8108    0.0455 H   0  0  0  0  0  0  0  0  0  0  0  0
    1.3186    2.0406    0.3044 H   0  0  0  0  0  0  0  0  0  0  0  0
    2.3566   -0.1624    0.2468 H   0  0  0  0  0  0  0  0  0  0  0  0
    1.0187   -2.2314   -0.0658 H   0  0  0  0  0  0  0  0  0  0  0  0
   -1.4723   -2.0530   -0.3243 H   0  0  0  0  0  0  0  0  0  0  0  0
   -4.9394    3.2634   -0.2761 O   0  0  0  0  0  0  0  0  0  0  0  0
   -5.0268    4.4605   -0.1827 C   0  0  0  0  0  0  0  0  0  0  0  0
   -4.0216    5.3218   -0.0005 O   0  0  0  0  0  0  0  0  0  0  0  0
   -6.3664    5.2243   -0.2629 C   0  0  0  0  0  0  0  0  0  0  0  0
   -6.3513    6.0821   -1.2981 F   0  0  0  0  0  0  0  0  0  0  0  0
   -7.3758    4.3677   -0.4289 F   0  0  0  0  0  0  0  0  0  0  0  0
   -6.5730    5.9245    0.8657 F   0  0  0  0  0  0  0  0  0  0  0  0
  1  4  1  0  0  0  0
  2  1  1  0  0  0  0
  3  2  1  0  0  0  0
  4  5  2  0  0  0  0
  5 10  1  0  0  0  0
  6  5  1  0  0  0  0
  6 11  1  0  0  0  0
  7  6  2  0  0  0  0
  8  1  2  0  0  0  0
  8  7  1  0  0  0  0
 12  7  1  0  0  0  0
 13  8  1  0  0  0  0
 14 15  2  0  0  0  0
 15 16  1  0  0  0  0
 16  9  1  0  0  0  0
 17 15  1  0  0  0  0
 17 20  1  0  0  0  0
 18 17  1  0  0  0  0
 19 17  1  0  0  0  0
M  RAD  3   2   2   3   3   4   2
M  END
