Coordinates from ORCA-job PhN2+~CF3COO-_B3LYPG-6-31G_dp-CH-Scan-d09-49-n800
 OpenBabel11261919373D

 20 19  0  0  0  0  0  0  0  0999 V2000
   -1.7986    0.2729   -0.1649 C   0  0  0  0  0  0  0  0  0  0  0  0
   -3.1706    0.1081   -0.3179 N   0  0  0  0  0  0  0  0  0  0  0  0
   -4.2785    0.0282   -0.4368 N   0  0  0  0  0  0  0  0  0  0  0  0
   -1.3930    1.6101   -0.0129 C   0  0  0  0  0  0  0  0  0  0  0  0
    0.0162    1.6809    0.1380 C   0  0  0  0  0  0  0  0  0  0  0  0
    0.8493    0.5655    0.1325 C   0  0  0  0  0  0  0  0  0  0  0  0
    0.3354   -0.7425   -0.0285 C   0  0  0  0  0  0  0  0  0  0  0  0
   -1.0223   -0.9166   -0.1830 C   0  0  0  0  0  0  0  0  0  0  0  0
   -2.8079    3.4128   -0.0137 H   0  0  0  0  0  0  0  0  0  0  0  0
    0.4805    2.6579    0.2671 H   0  0  0  0  0  0  0  0  0  0  0  0
    1.9235    0.6908    0.2554 H   0  0  0  0  0  0  0  0  0  0  0  0
    1.0010   -1.5993   -0.0299 H   0  0  0  0  0  0  0  0  0  0  0  0
   -1.4718   -1.8972   -0.3109 H   0  0  0  0  0  0  0  0  0  0  0  0
   -5.0734    2.6940   -0.3353 O   0  0  0  0  0  0  0  0  0  0  0  0
   -4.6559    3.8216   -0.1927 C   0  0  0  0  0  0  0  0  0  0  0  0
   -3.4064    4.2065   -0.0144 O   0  0  0  0  0  0  0  0  0  0  0  0
   -5.5958    5.0487   -0.2030 C   0  0  0  0  0  0  0  0  0  0  0  0
   -5.2645    5.8860   -1.2033 F   0  0  0  0  0  0  0  0  0  0  0  0
   -6.8655    4.6669   -0.3719 F   0  0  0  0  0  0  0  0  0  0  0  0
   -5.5033    5.7236    0.9578 F   0  0  0  0  0  0  0  0  0  0  0  0
  1  4  1  0  0  0  0
  2  1  1  0  0  0  0
  3  2  1  0  0  0  0
  4  5  2  0  0  0  0
  5 10  1  0  0  0  0
  6  5  1  0  0  0  0
  6 11  1  0  0  0  0
  7  6  2  0  0  0  0
  8  1  2  0  0  0  0
  8  7  1  0  0  0  0
 12  7  1  0  0  0  0
 13  8  1  0  0  0  0
 14 15  2  0  0  0  0
 15 16  1  0  0  0  0
 16  9  1  0  0  0  0
 17 15  1  0  0  0  0
 17 20  1  0  0  0  0
 18 17  1  0  0  0  0
 19 17  1  0  0  0  0
M  RAD  3   2   2   3   3   4   2
M  END
