Coordinates from ORCA-job PhN2+~CF3COO-_B3LYPG-6-31G_dp-CH-Scan-d09-49-n800
 OpenBabel11261919373D

 20 19  0  0  0  0  0  0  0  0999 V2000
   -1.5227    0.1797   -0.1488 C   0  0  0  0  0  0  0  0  0  0  0  0
   -2.9085    0.1883   -0.2941 N   0  0  0  0  0  0  0  0  0  0  0  0
   -4.0195    0.2526   -0.4087 N   0  0  0  0  0  0  0  0  0  0  0  0
   -0.9794    1.4663    0.0000 C   0  0  0  0  0  0  0  0  0  0  0  0
    0.4338    1.3654    0.1435 C   0  0  0  0  0  0  0  0  0  0  0  0
    1.1320    0.1620    0.1334 C   0  0  0  0  0  0  0  0  0  0  0  0
    0.4704   -1.0810   -0.0257 C   0  0  0  0  0  0  0  0  0  0  0  0
   -0.8982   -1.0976   -0.1732 C   0  0  0  0  0  0  0  0  0  0  0  0
   -3.0344    4.2663    0.0088 H   0  0  0  0  0  0  0  0  0  0  0  0
    1.0143    2.2801    0.2705 H   0  0  0  0  0  0  0  0  0  0  0  0
    2.2147    0.1602    0.2512 H   0  0  0  0  0  0  0  0  0  0  0  0
    1.0352   -2.0077   -0.0310 H   0  0  0  0  0  0  0  0  0  0  0  0
   -1.4601   -2.0192   -0.2992 H   0  0  0  0  0  0  0  0  0  0  0  0
   -5.0182    3.0255   -0.3095 O   0  0  0  0  0  0  0  0  0  0  0  0
   -4.9033    4.2196   -0.1954 C   0  0  0  0  0  0  0  0  0  0  0  0
   -3.7719    4.9017   -0.0163 O   0  0  0  0  0  0  0  0  0  0  0  0
   -6.1026    5.1916   -0.2358 C   0  0  0  0  0  0  0  0  0  0  0  0
   -5.9428    6.0926   -1.2208 F   0  0  0  0  0  0  0  0  0  0  0  0
   -7.2361    4.5197   -0.4481 F   0  0  0  0  0  0  0  0  0  0  0  0
   -6.2041    5.8527    0.9308 F   0  0  0  0  0  0  0  0  0  0  0  0
  1  4  1  0  0  0  0
  2  1  1  0  0  0  0
  3  2  1  0  0  0  0
  4  5  2  0  0  0  0
  5 10  1  0  0  0  0
  6  5  1  0  0  0  0
  6 11  1  0  0  0  0
  7  6  2  0  0  0  0
  8  1  2  0  0  0  0
  8  7  1  0  0  0  0
 12  7  1  0  0  0  0
 13  8  1  0  0  0  0
 14 15  2  0  0  0  0
 15 16  1  0  0  0  0
 16  9  1  0  0  0  0
 17 15  1  0  0  0  0
 17 20  1  0  0  0  0
 18 17  1  0  0  0  0
 19 17  1  0  0  0  0
M  RAD  3   2   2   3   3   4   2
M  END
