Coordinates from ORCA-job PhN2+~CF3COO-_B3LYPG-6-31G_dp-CH-Scan-d09-49-n800
 OpenBabel11261919373D

 20 19  0  0  0  0  0  0  0  0999 V2000
   -1.9192    0.3173   -0.1871 C   0  0  0  0  0  0  0  0  0  0  0  0
   -3.2791    0.0835   -0.3568 N   0  0  0  0  0  0  0  0  0  0  0  0
   -4.3817   -0.0310   -0.4875 N   0  0  0  0  0  0  0  0  0  0  0  0
   -1.5684    1.6705   -0.0431 C   0  0  0  0  0  0  0  0  0  0  0  0
   -0.1706    1.8135    0.1261 C   0  0  0  0  0  0  0  0  0  0  0  0
    0.7140    0.7374    0.1438 C   0  0  0  0  0  0  0  0  0  0  0  0
    0.2622   -0.5920   -0.0102 C   0  0  0  0  0  0  0  0  0  0  0  0
   -1.0848   -0.8296   -0.1814 C   0  0  0  0  0  0  0  0  0  0  0  0
   -2.6773    3.0578   -0.0576 H   0  0  0  0  0  0  0  0  0  0  0  0
    0.2398    2.8141    0.2506 H   0  0  0  0  0  0  0  0  0  0  0  0
    1.7787    0.9147    0.2801 H   0  0  0  0  0  0  0  0  0  0  0  0
    0.9652   -1.4181    0.0066 H   0  0  0  0  0  0  0  0  0  0  0  0
   -1.4865   -1.8309   -0.3048 H   0  0  0  0  0  0  0  0  0  0  0  0
   -5.0619    2.5744   -0.3256 O   0  0  0  0  0  0  0  0  0  0  0  0
   -4.5286    3.6608   -0.1908 C   0  0  0  0  0  0  0  0  0  0  0  0
   -3.2592    3.9312   -0.0486 O   0  0  0  0  0  0  0  0  0  0  0  0
   -5.3710    4.9589   -0.1743 C   0  0  0  0  0  0  0  0  0  0  0  0
   -5.0104    5.7693   -1.1892 F   0  0  0  0  0  0  0  0  0  0  0  0
   -6.6758    4.6871   -0.2979 F   0  0  0  0  0  0  0  0  0  0  0  0
   -5.1868    5.6301    0.9795 F   0  0  0  0  0  0  0  0  0  0  0  0
  1  8  2  0  0  0  0
  1  4  1  0  0  0  0
  2  1  1  0  0  0  0
  3  2  1  0  0  0  0
  4  5  2  0  0  0  0
  5  6  1  0  0  0  0
  5 10  1  0  0  0  0
  6 11  1  0  0  0  0
  7 12  1  0  0  0  0
  7  6  2  0  0  0  0
  8  7  1  0  0  0  0
  9 16  1  0  0  0  0
 13  8  1  0  0  0  0
 14 15  2  0  0  0  0
 15 17  1  0  0  0  0
 15 16  1  0  0  0  0
 17 20  1  0  0  0  0
 18 17  1  0  0  0  0
 19 17  1  0  0  0  0
M  RAD  3   2   2   3   3   4   2
M  END
