Coordinates from ORCA-job PhN2+~CF3COO-_B3LYPG-6-31G_dp-CH-Scan-d09-49-n800
 OpenBabel11261919373D

 20 19  0  0  0  0  0  0  0  0999 V2000
   -1.2566    0.1337   -0.2190 C   0  0  0  0  0  0  0  0  0  0  0  0
   -2.6199    0.3303   -0.4420 N   0  0  0  0  0  0  0  0  0  0  0  0
   -3.7024    0.5563   -0.6168 N   0  0  0  0  0  0  0  0  0  0  0  0
   -0.5612    1.3440   -0.0777 C   0  0  0  0  0  0  0  0  0  0  0  0
    0.8181    1.0620    0.1495 C   0  0  0  0  0  0  0  0  0  0  0  0
    1.3488   -0.2220    0.2167 C   0  0  0  0  0  0  0  0  0  0  0  0
    0.5369   -1.3733    0.0559 C   0  0  0  0  0  0  0  0  0  0  0  0
   -0.8116   -1.2161   -0.1709 C   0  0  0  0  0  0  0  0  0  0  0  0
   -3.3091    5.1003   -0.1528 H   0  0  0  0  0  0  0  0  0  0  0  0
    1.5085    1.8965    0.2823 H   0  0  0  0  0  0  0  0  0  0  0  0
    2.4135   -0.3626    0.3980 H   0  0  0  0  0  0  0  0  0  0  0  0
    0.9737   -2.3653    0.1112 H   0  0  0  0  0  0  0  0  0  0  0  0
   -1.4839   -2.0596   -0.3036 H   0  0  0  0  0  0  0  0  0  0  0  0
   -4.9324    3.4104   -0.3355 O   0  0  0  0  0  0  0  0  0  0  0  0
   -5.1164    4.5944   -0.2209 C   0  0  0  0  0  0  0  0  0  0  0  0
   -4.1763    5.5399   -0.1196 O   0  0  0  0  0  0  0  0  0  0  0  0
   -6.5184    5.2389   -0.1683 C   0  0  0  0  0  0  0  0  0  0  0  0
   -6.6611    6.1284   -1.1660 F   0  0  0  0  0  0  0  0  0  0  0  0
   -7.4608    4.3022   -0.2890 F   0  0  0  0  0  0  0  0  0  0  0  0
   -6.6911    5.8804    1.0003 F   0  0  0  0  0  0  0  0  0  0  0  0
  1  8  2  0  0  0  0
  1  4  1  0  0  0  0
  2  1  1  0  0  0  0
  3  2  1  0  0  0  0
  4  5  2  0  0  0  0
  5  6  1  0  0  0  0
  5 10  1  0  0  0  0
  6 11  1  0  0  0  0
  7 12  1  0  0  0  0
  7  6  2  0  0  0  0
  8  7  1  0  0  0  0
  9 16  1  0  0  0  0
 13  8  1  0  0  0  0
 14 15  2  0  0  0  0
 15 17  1  0  0  0  0
 15 16  1  0  0  0  0
 17 20  1  0  0  0  0
 18 17  1  0  0  0  0
 19 17  1  0  0  0  0
M  RAD  3   2   2   3   3   4   2
M  END
