Coordinates from ORCA-job PhN2+~CF3COO-_B3LYPG-6-31G_dp-CH-Scan-d09-49-n800
 OpenBabel11261919373D

 20 19  0  0  0  0  0  0  0  0999 V2000
   -1.4982    0.1718   -0.1471 C   0  0  0  0  0  0  0  0  0  0  0  0
   -2.8843    0.1965   -0.2913 N   0  0  0  0  0  0  0  0  0  0  0  0
   -3.9948    0.2748   -0.4025 N   0  0  0  0  0  0  0  0  0  0  0  0
   -0.9425    1.4527    0.0021 C   0  0  0  0  0  0  0  0  0  0  0  0
    0.4700    1.3367    0.1442 C   0  0  0  0  0  0  0  0  0  0  0  0
    1.1556    0.1261    0.1329 C   0  0  0  0  0  0  0  0  0  0  0  0
    0.4810   -1.1100   -0.0264 C   0  0  0  0  0  0  0  0  0  0  0  0
   -0.8878   -1.1123   -0.1728 C   0  0  0  0  0  0  0  0  0  0  0  0
   -3.0581    4.3448    0.0125 H   0  0  0  0  0  0  0  0  0  0  0  0
    1.0604    2.2452    0.2712 H   0  0  0  0  0  0  0  0  0  0  0  0
    2.2383    0.1129    0.2498 H   0  0  0  0  0  0  0  0  0  0  0  0
    1.0363   -2.0424   -0.0328 H   0  0  0  0  0  0  0  0  0  0  0  0
   -1.4594   -2.0279   -0.2991 H   0  0  0  0  0  0  0  0  0  0  0  0
   -5.0117    3.0594   -0.3064 O   0  0  0  0  0  0  0  0  0  0  0  0
   -4.9245    4.2559   -0.1950 C   0  0  0  0  0  0  0  0  0  0  0  0
   -3.8085    4.9640   -0.0154 O   0  0  0  0  0  0  0  0  0  0  0  0
   -6.1449    5.2012   -0.2394 C   0  0  0  0  0  0  0  0  0  0  0  0
   -6.0019    6.1047   -1.2246 F   0  0  0  0  0  0  0  0  0  0  0  0
   -7.2625    4.5043   -0.4545 F   0  0  0  0  0  0  0  0  0  0  0  0
   -6.2638    5.8605    0.9264 F   0  0  0  0  0  0  0  0  0  0  0  0
  1  4  1  0  0  0  0
  2  1  1  0  0  0  0
  3  2  1  0  0  0  0
  4  5  2  0  0  0  0
  5 10  1  0  0  0  0
  6  5  1  0  0  0  0
  6 11  1  0  0  0  0
  7  6  2  0  0  0  0
  8  1  2  0  0  0  0
  8  7  1  0  0  0  0
 12  7  1  0  0  0  0
 13  8  1  0  0  0  0
 14 15  2  0  0  0  0
 15 16  1  0  0  0  0
 16  9  1  0  0  0  0
 17 15  1  0  0  0  0
 17 20  1  0  0  0  0
 18 17  1  0  0  0  0
 19 17  1  0  0  0  0
M  RAD  3   2   2   3   3   4   2
M  END
