Coordinates from ORCA-job PhN2+~CF3COO-_B3LYPG-6-31G_dp-CH-Scan-d09-49-n800
 OpenBabel11261919373D

 20 19  0  0  0  0  0  0  0  0999 V2000
   -1.6870    0.2342   -0.1551 C   0  0  0  0  0  0  0  0  0  0  0  0
   -3.0671    0.1372   -0.3025 N   0  0  0  0  0  0  0  0  0  0  0  0
   -4.1788    0.1100   -0.4166 N   0  0  0  0  0  0  0  0  0  0  0  0
   -1.2275    1.5524    0.0044 C   0  0  0  0  0  0  0  0  0  0  0  0
    0.1862    1.5559    0.1494 C   0  0  0  0  0  0  0  0  0  0  0  0
    0.9681    0.4046    0.1320 C   0  0  0  0  0  0  0  0  0  0  0  0
    0.3960   -0.8794   -0.0366 C   0  0  0  0  0  0  0  0  0  0  0  0
   -0.9683   -0.9918   -0.1863 C   0  0  0  0  0  0  0  0  0  0  0  0
   -2.9021    3.7366    0.0106 H   0  0  0  0  0  0  0  0  0  0  0  0
    0.6972    2.5093    0.2837 H   0  0  0  0  0  0  0  0  0  0  0  0
    2.0477    0.4799    0.2513 H   0  0  0  0  0  0  0  0  0  0  0  0
    1.0237   -1.7643   -0.0475 H   0  0  0  0  0  0  0  0  0  0  0  0
   -1.4622   -1.9503   -0.3197 H   0  0  0  0  0  0  0  0  0  0  0  0
   -5.0690    2.8148   -0.3218 O   0  0  0  0  0  0  0  0  0  0  0  0
   -4.7636    3.9757   -0.1897 C   0  0  0  0  0  0  0  0  0  0  0  0
   -3.5481    4.4737   -0.0032 O   0  0  0  0  0  0  0  0  0  0  0  0
   -5.8033    5.1182   -0.2228 C   0  0  0  0  0  0  0  0  0  0  0  0
   -5.5350    5.9655   -1.2325 F   0  0  0  0  0  0  0  0  0  0  0  0
   -7.0325    4.6247   -0.3946 F   0  0  0  0  0  0  0  0  0  0  0  0
   -5.7759    5.8121    0.9292 F   0  0  0  0  0  0  0  0  0  0  0  0
  1  4  1  0  0  0  0
  2  1  1  0  0  0  0
  3  2  1  0  0  0  0
  4  5  2  0  0  0  0
  5 10  1  0  0  0  0
  6  5  1  0  0  0  0
  6 11  1  0  0  0  0
  7  6  2  0  0  0  0
  8  1  2  0  0  0  0
  8  7  1  0  0  0  0
 12  7  1  0  0  0  0
 13  8  1  0  0  0  0
 14 15  2  0  0  0  0
 15 16  1  0  0  0  0
 16  9  1  0  0  0  0
 17 15  1  0  0  0  0
 17 20  1  0  0  0  0
 18 17  1  0  0  0  0
 19 17  1  0  0  0  0
M  RAD  3   2   2   3   3   4   2
M  END
