Coordinates from ORCA-job PhN2+~CF3COO-_B3LYPG-6-31G_dp-CH-Scan-d09-49-n800
 OpenBabel11261919373D

 20 19  0  0  0  0  0  0  0  0999 V2000
   -1.7851    0.2682   -0.1634 C   0  0  0  0  0  0  0  0  0  0  0  0
   -3.1583    0.1116   -0.3154 N   0  0  0  0  0  0  0  0  0  0  0  0
   -4.2668    0.0375   -0.4336 N   0  0  0  0  0  0  0  0  0  0  0  0
   -1.3729    1.6032   -0.0105 C   0  0  0  0  0  0  0  0  0  0  0  0
    0.0370    1.6661    0.1393 C   0  0  0  0  0  0  0  0  0  0  0  0
    0.8640    0.5462    0.1321 C   0  0  0  0  0  0  0  0  0  0  0  0
    0.3430   -0.7591   -0.0297 C   0  0  0  0  0  0  0  0  0  0  0  0
   -1.0156   -0.9258   -0.1833 C   0  0  0  0  0  0  0  0  0  0  0  0
   -2.8201    3.4507   -0.0106 H   0  0  0  0  0  0  0  0  0  0  0  0
    0.5070    2.6404    0.2689 H   0  0  0  0  0  0  0  0  0  0  0  0
    1.9391    0.6656    0.2543 H   0  0  0  0  0  0  0  0  0  0  0  0
    1.0042   -1.6193   -0.0324 H   0  0  0  0  0  0  0  0  0  0  0  0
   -1.4705   -1.9039   -0.3117 H   0  0  0  0  0  0  0  0  0  0  0  0
   -5.0741    2.7078   -0.3340 O   0  0  0  0  0  0  0  0  0  0  0  0
   -4.6695    3.8397   -0.1925 C   0  0  0  0  0  0  0  0  0  0  0  0
   -3.4232    4.2378   -0.0128 O   0  0  0  0  0  0  0  0  0  0  0  0
   -5.6209    5.0577   -0.2055 C   0  0  0  0  0  0  0  0  0  0  0  0
   -5.2956    5.8971   -1.2060 F   0  0  0  0  0  0  0  0  0  0  0  0
   -6.8863    4.6632   -0.3764 F   0  0  0  0  0  0  0  0  0  0  0  0
   -5.5368    5.7342    0.9548 F   0  0  0  0  0  0  0  0  0  0  0  0
  1  4  1  0  0  0  0
  2  1  1  0  0  0  0
  3  2  1  0  0  0  0
  4  5  2  0  0  0  0
  5 10  1  0  0  0  0
  6  5  1  0  0  0  0
  6 11  1  0  0  0  0
  7  6  2  0  0  0  0
  8  1  2  0  0  0  0
  8  7  1  0  0  0  0
 12  7  1  0  0  0  0
 13  8  1  0  0  0  0
 14 15  2  0  0  0  0
 15 16  1  0  0  0  0
 16  9  1  0  0  0  0
 17 15  1  0  0  0  0
 17 20  1  0  0  0  0
 18 17  1  0  0  0  0
 19 17  1  0  0  0  0
M  RAD  3   2   2   3   3   4   2
M  END
