Coordinates from ORCA-job PhN2+~CF3COO-_B3LYPG-6-31G_dp-CH-Scan-d09-49-n800
 OpenBabel11261919373D

 20 19  0  0  0  0  0  0  0  0999 V2000
   -1.5027    0.1733   -0.1476 C   0  0  0  0  0  0  0  0  0  0  0  0
   -2.8887    0.1951   -0.2921 N   0  0  0  0  0  0  0  0  0  0  0  0
   -3.9994    0.2708   -0.4036 N   0  0  0  0  0  0  0  0  0  0  0  0
   -0.9492    1.4552    0.0016 C   0  0  0  0  0  0  0  0  0  0  0  0
    0.4634    1.3419    0.1441 C   0  0  0  0  0  0  0  0  0  0  0  0
    1.1513    0.1326    0.1332 C   0  0  0  0  0  0  0  0  0  0  0  0
    0.4790   -1.1047   -0.0262 C   0  0  0  0  0  0  0  0  0  0  0  0
   -0.8897   -1.1096   -0.1729 C   0  0  0  0  0  0  0  0  0  0  0  0
   -3.0537    4.3306    0.0115 H   0  0  0  0  0  0  0  0  0  0  0  0
    1.0520    2.2515    0.2711 H   0  0  0  0  0  0  0  0  0  0  0  0
    2.2340    0.1215    0.2503 H   0  0  0  0  0  0  0  0  0  0  0  0
    1.0361   -2.0361   -0.0323 H   0  0  0  0  0  0  0  0  0  0  0  0
   -1.4596   -2.0263   -0.2992 H   0  0  0  0  0  0  0  0  0  0  0  0
   -5.0128    3.0531   -0.3070 O   0  0  0  0  0  0  0  0  0  0  0  0
   -4.9206    4.2493   -0.1952 C   0  0  0  0  0  0  0  0  0  0  0  0
   -3.8018    4.9527   -0.0159 O   0  0  0  0  0  0  0  0  0  0  0  0
   -6.1372    5.1994   -0.2387 C   0  0  0  0  0  0  0  0  0  0  0  0
   -5.9913    6.1026   -1.2238 F   0  0  0  0  0  0  0  0  0  0  0  0
   -7.2578    4.5071   -0.4531 F   0  0  0  0  0  0  0  0  0  0  0  0
   -6.2528    5.8590    0.9274 F   0  0  0  0  0  0  0  0  0  0  0  0
  1  4  1  0  0  0  0
  2  1  1  0  0  0  0
  3  2  1  0  0  0  0
  4  5  2  0  0  0  0
  5 10  1  0  0  0  0
  6  5  1  0  0  0  0
  6 11  1  0  0  0  0
  7  6  2  0  0  0  0
  8  1  2  0  0  0  0
  8  7  1  0  0  0  0
 12  7  1  0  0  0  0
 13  8  1  0  0  0  0
 14 15  2  0  0  0  0
 15 16  1  0  0  0  0
 16  9  1  0  0  0  0
 17 15  1  0  0  0  0
 17 20  1  0  0  0  0
 18 17  1  0  0  0  0
 19 17  1  0  0  0  0
M  RAD  3   2   2   3   3   4   2
M  END
